
#######################################################################
#
#                 Cambridge Crystallographic Data Centre
#                                CCDC 
#
#######################################################################
#
# If this CIF has been generated from an entry in the Cambridge 
# Structural Database, then it will include bibliographic, chemical, 
# crystal, experimental, refinement or atomic coordinate data resulting 
# from the CCDC's data processing and validation procedures.
#
#######################################################################

data_QUWDOD
_chemical_compound_source        'Aspergillus sp. ZL0-1b14'
_chemical_name_common            'Aspertetranone A'
_chemical_formula_moiety         'C22 H26 O9'
_chemical_name_systematic        
6,6a,10a-trihydroxy-3,4,5a,8,8,11-hexamethyl-6,6a,10,10a,11,11a-hexahydro-1H,5aH-benzo[g]pyrano[4,3-b]chromene-1,7,9,12(8H)-tetrone
_chemical_properties_biological  'anti-inflammatory activity'
_symmetry_cell_setting           monoclinic
_symmetry_space_group_name_H-M   'P 21'
_symmetry_Int_Tables_number      4
_space_group_name_Hall           'P 2yb'
loop_
_symmetry_equiv_pos_site_id
_symmetry_equiv_pos_as_xyz
1 x,y,z
2 -x,1/2+y,-z
_cell_length_a                   6.58475(12)
_cell_length_b                   12.3394(2)
_cell_length_c                   13.1873(3)
_cell_angle_alpha                90
_cell_angle_beta                 101.3168(18)
_cell_angle_gamma                90
_cell_volume                     1050.66
_exptl_crystal_colour            colorless
_exptl_crystal_description       stick
_cell_formula_units_Z            2
_exptl_crystal_recrystallization_method methanol
loop_
_atom_site_label
_atom_site_type_symbol
_atom_site_fract_x
_atom_site_fract_y
_atom_site_fract_z
O1 O 0.60531(15) 0.38592(8) 0.82059(7)
H1 H 0.7041 0.3705 0.8691
O2 O 1.00903(15) 0.82968(8) 1.06580(8)
O3 O 1.11948(14) 0.68648(8) 1.15963(7)
O4 O 0.08027(14) 0.48860(8) 0.79817(7)
H2 H 0.0480 0.4438 0.8403
O5 O 0.67859(14) 0.48693(8) 1.00594(7)
O6 O 0.23255(17) 0.26280(8) 0.74226(8)
O7 O 0.48842(16) 0.50058(9) 0.64928(8)
H3 H 0.5780 0.4669 0.6918
O8 O 0.62772(17) 0.80033(8) 0.91928(8)
C1 C 0.9784(2) 0.73323(12) 1.08150(11)
O9 O 0.0159(3) 0.49148(11) 0.45459(9)
C2 C 0.8231(2) 0.66485(12) 1.02451(11)
C3 C 0.4374(2) 0.42732(11) 0.86205(11)
H4 H 0.3867 0.3708 0.9054
C4 C 0.8169(2) 0.55758(12) 1.05508(11)
C5 C 0.6744(2) 0.70521(12) 0.93333(11)
C6 C 0.3465(2) 0.57029(13) 0.98715(11)
H5 H 0.2904 0.5095 1.0208
H6 H 0.2339 0.6064 0.9395
H7 H 0.4128 0.6221 1.0397
C7 C 0.0980(2) 0.36208(13) 0.58922(11)
C8 C 0.9329(2) 0.39977(12) 1.17731(12)
H8 H 0.7854 0.3827 1.1702
H9 H 1.0018 0.3922 1.2499
H10 H 0.9959 0.3498 1.1347
C9 C 0.2091(3) 0.28961(15) 0.52268(12)
H11 H 0.3521 0.3146 0.5281
H12 H 0.1367 0.2933 0.4504
H13 H 0.2095 0.2146 0.5471
C10 C 0.1536(2) 0.57298(13) 0.61508(11)
H14 H 0.0363 0.5980 0.6459
H15 H 0.1936 0.6332 0.5735
C11 C 0.9567(2) 0.51438(12) 1.14218(11)
C12 C 0.5057(2) 0.52822(11) 0.92722(10)
C13 C 0.4216(2) 0.64647(11) 0.76548(11)
H16 H 0.3043 0.6826 0.7901
C14 C 0.2673(2) 0.45461(12) 0.76827(11)
C15 C 0.5864(2) 0.61436(12) 0.86049(10)
H17 H 0.7047 0.5812 0.8342
C16 C 1.1083(2) 0.58119(12) 1.18972(11)
C17 C 0.2083(2) 0.35180(12) 0.70224(11)
C18 C 0.3362(2) 0.54490(12) 0.70153(11)
C19 C 0.0851(2) 0.47781(14) 0.54545(11)
C20 C 0.5132(3) 0.72687(14) 0.69823(12)
H18 H 0.5660 0.7905 0.7396
H19 H 0.4054 0.7495 0.6398
H20 H 0.6267 0.6921 0.6722
C21 C 1.2840(3) 0.55349(14) 1.27585(13)
H21 H 1.3860 0.6123 1.2849
H22 H 1.3494 0.4862 1.2593
H23 H 1.2318 0.5439 1.3399
C22 C -0.1256(2) 0.32110(15) 0.58279(12)
H24 H -0.2031 0.3287 0.5117
H25 H -0.1930 0.3639 0.6294
H26 H -0.1227 0.2447 0.6032
loop_
_geom_bond_atom_site_label_1
_geom_bond_atom_site_label_2
_geom_bond_site_symmetry_1
_geom_bond_site_symmetry_2
O1 H1 1_555 1_555
O2 C1 1_555 1_555
O3 C1 1_555 1_555
O4 H2 1_555 1_555
O5 C4 1_555 1_555
O6 C17 1_555 1_555
O7 H3 1_555 1_555
O8 C5 1_555 1_555
C1 C2 1_555 1_555
O9 C19 1_555 1_555
C2 C4 1_555 1_555
C3 O1 1_555 1_555
H4 C3 1_555 1_555
C4 C11 1_555 1_555
C5 C2 1_555 1_555
C6 H5 1_555 1_555
H6 C6 1_555 1_555
H7 C6 1_555 1_555
C7 C9 1_555 1_555
C8 H8 1_555 1_555
H9 C8 1_555 1_555
H10 C8 1_555 1_555
C9 H11 1_555 1_555
H12 C9 1_555 1_555
H13 C9 1_555 1_555
C10 H14 1_555 1_555
H15 C10 1_555 1_555
C11 C8 1_555 1_555
C12 O5 1_555 1_555
C13 H16 1_555 1_555
C14 O4 1_555 1_555
C15 C5 1_555 1_555
H17 C15 1_555 1_555
C16 O3 1_555 1_555
C17 C7 1_555 1_555
C18 O7 1_555 1_555
C19 C7 1_555 1_555
C20 C13 1_555 1_555
H18 C20 1_555 1_555
H19 C20 1_555 1_555
H20 C20 1_555 1_555
C21 C16 1_555 1_555
H21 C21 1_555 1_555
H22 C21 1_555 1_555
H23 C21 1_555 1_555
C22 C7 1_555 1_555
H24 C22 1_555 1_555
H25 C22 1_555 1_555
H26 C22 1_555 1_555
C3 C12 1_555 1_555
C3 C14 1_555 1_555
C6 C12 1_555 1_555
C10 C18 1_555 1_555
C10 C19 1_555 1_555
C11 C16 1_555 1_555
C12 C15 1_555 1_555
C13 C15 1_555 1_555
C13 C18 1_555 1_555
C14 C17 1_555 1_555
C14 C18 1_555 1_555

#END
