
#######################################################################
#
#                 Cambridge Crystallographic Data Centre
#                                CCDC 
#
#######################################################################
#
# If this CIF has been generated from an entry in the Cambridge 
# Structural Database, then it will include bibliographic, chemical, 
# crystal, experimental, refinement or atomic coordinate data resulting 
# from the CCDC's data processing and validation procedures.
#
#######################################################################

data_QUWDAP
_chemical_compound_source        'Myrtus communis'
_chemical_formula_moiety         'C24 H28 Br2 O6,0.5(C1 H2 Cl2)'
_chemical_name_systematic        
'7-bromo-5-(2-bromo-2-methylpropanoyl)-6,8-dihydroxy-9-isopropyl-2,2,4,4-tetramethyl-4,9-dihydro-1H-xanthene-1,3(2H)-dione dichloromethane solvate'
_symmetry_cell_setting           orthorhombic
_symmetry_space_group_name_H-M   'P 21 21 21'
_symmetry_Int_Tables_number      19
_space_group_name_Hall           'P 2ac 2ab'
loop_
_symmetry_equiv_pos_site_id
_symmetry_equiv_pos_as_xyz
1 x,y,z
2 1/2-x,-y,1/2+z
3 -x,1/2+y,1/2-z
4 1/2+x,1/2-y,-z
_cell_length_a                   9.7566(2)
_cell_length_b                   19.1985(4)
_cell_length_c                   27.6028(5)
_cell_angle_alpha                90
_cell_angle_beta                 90
_cell_angle_gamma                90
_cell_volume                     5170.34
_exptl_crystal_colour            colorless
_exptl_crystal_description       cuboid
_cell_formula_units_Z            8
loop_
_atom_site_label
_atom_site_type_symbol
_atom_site_fract_x
_atom_site_fract_y
_atom_site_fract_z
Br1 Br 0.67729(5) 0.30764(2) 0.884049(15)
Br2 Br 0.68097(10) 0.66181(4) 0.84422(2)
O1 O 0.4436(3) 0.59371(15) 0.91278(11)
O2 O 0.0731(4) 0.7067(2) 0.98727(14)
O3 O 0.3306(4) 0.54325(17) 1.07428(11)
O4 O 0.5912(4) 0.41764(18) 0.80757(11)
O5 O 0.3871(4) 0.56626(19) 0.80533(12)
O6 O 0.6304(3) 0.38743(16) 0.98143(11)
C1 C 0.5321(5) 0.5083(2) 0.86082(15)
C2 C 0.5082(4) 0.5296(2) 0.90801(15)
C3 C 0.5426(4) 0.4915(2) 0.94859(15)
C4 C 0.5943(4) 0.4239(2) 0.94115(15)
C5 C 0.6105(5) 0.3987(2) 0.89408(16)
C6 C 0.5802(5) 0.4407(2) 0.85386(15)
C7 C 0.5264(5) 0.5228(2) 0.99806(14)
H1 H 0.5036 0.4844 1.0212
C8 C 0.4058(4) 0.5728(2) 0.99673(15)
C9 C 0.3735(5) 0.6053(2) 0.95479(15)
C10 C 0.2620(5) 0.6584(2) 0.94604(15)
C11 C 0.1727(5) 0.6696(2) 0.99066(16)
C12 C 0.2073(5) 0.6375(2) 1.03948(15)
C13 C 0.3175(5) 0.5806(2) 1.03852(15)
C14 C 0.5042(5) 0.5560(2) 0.81806(15)
C15 C 0.6252(6) 0.5921(3) 0.79369(18)
C16 C 0.5835(7) 0.6335(4) 0.7496(2)
H2 H 0.6652 0.6532 0.7342
H3 H 0.5216 0.6712 0.7593
H4 H 0.5364 0.6028 0.7266
C17 C 0.7517(7) 0.5499(4) 0.7848(3)
H5 H 0.7304 0.5118 0.7624
H6 H 0.7846 0.5306 0.8155
H7 H 0.8228 0.5797 0.7707
C18 C 0.6625(5) 0.5576(2) 1.01526(16)
H8 H 0.7341 0.5203 1.0153
C19 C 0.7133(5) 0.6147(3) 0.98190(18)
H9 H 0.6469 0.6530 0.9815
H10 H 0.7240 0.5961 0.9491
H11 H 0.8019 0.6319 0.9936
C20 C 0.6502(6) 0.5841(2) 1.06773(16)
H12 H 0.7404 0.5994 1.0792
H13 H 0.6165 0.5464 1.0885
H14 H 0.5860 0.6233 1.0688
C21 C 0.1684(6) 0.6341(2) 0.90431(17)
H15 H 0.1329 0.5875 0.9115
H16 H 0.2211 0.6327 0.8741
H17 H 0.0917 0.6667 0.9008
C22 C 0.3291(6) 0.7289(2) 0.93216(18)
H18 H 0.2575 0.7641 0.9275
H19 H 0.3811 0.7234 0.9020
H20 H 0.3910 0.7438 0.9581
C23 C 0.0755(6) 0.6087(3) 1.0624(2)
H21 H 0.0052 0.6451 1.0628
H22 H 0.0946 0.5936 1.0956
H23 H 0.0428 0.5689 1.0434
C24 C 0.2667(7) 0.6969(3) 1.07154(19)
H24 H 0.3563 0.7111 1.0589
H25 H 0.2770 0.6802 1.1049
H26 H 0.2041 0.7368 1.0710
Br4 Br -0.23517(7) 0.03799(3) 0.80309(2)
Br5 Br 0.17600(6) 0.31827(3) 0.739573(19)
O7 O 0.0360(3) 0.31191(16) 0.84576(11)
O8 O 0.0947(6) 0.4847(2) 0.96422(16)
O9 O 0.0982(5) 0.25208(19) 1.00911(13)
O10 O -0.2273(4) 0.17346(18) 0.74042(12)
O11 O -0.1910(5) 0.3471(2) 0.76989(13)
O12 O -0.0596(4) 0.07932(17) 0.89206(12)
C27 C -0.0877(5) 0.2405(2) 0.79188(16)
C28 C -0.0159(4) 0.2458(2) 0.83549(16)
C29 C -0.0010(5) 0.1927(2) 0.86780(15)
C30 C -0.0702(5) 0.1297(2) 0.85835(17)
C31 C -0.1458(5) 0.1234(2) 0.81587(17)
C32 C -0.1540(5) 0.1778(2) 0.78230(16)
C33 C 0.0891(5) 0.2016(2) 0.91232(16)
H33 H 0.0495 0.1735 0.9394
C34 C 0.0838(5) 0.2775(2) 0.92601(16)
C35 C 0.0662(4) 0.3277(2) 0.89280(15)
C36 C 0.0837(5) 0.4050(2) 0.89914(17)
C37 C 0.1031(5) 0.4251(2) 0.95243(17)
C38 C 0.1368(5) 0.3708(2) 0.99103(17)
C39 C 0.1026(5) 0.2963(2) 0.97692(16)
C40 C -0.1054(5) 0.3040(2) 0.76036(15)
C41 C -0.0163(5) 0.3159(3) 0.71554(16)
C42 C -0.0425(8) 0.3851(4) 0.6922(2)
H34 H 0.0130 0.3892 0.6628
H35 H -0.0177 0.4224 0.7148
H36 H -0.1398 0.3890 0.6839
C43 C -0.0249(8) 0.2572(4) 0.6797(2)
H37 H -0.1209 0.2495 0.6707
H38 H 0.0125 0.2147 0.6942
H39 H 0.0282 0.2692 0.6507
C44 C 0.2399(5) 0.1789(2) 0.90435(16)
H40 H 0.2893 0.1869 0.9356
C45 C 0.3142(6) 0.2214(3) 0.8658(2)
H41 H 0.4087 0.2047 0.8626
H42 H 0.3148 0.2706 0.8752
H43 H 0.2668 0.2162 0.8347
C46 C 0.2522(6) 0.1009(2) 0.8927(2)
H44 H 0.2022 0.0907 0.8628
H45 H 0.2134 0.0737 0.9194
H46 H 0.3491 0.0887 0.8885
C47 C -0.0394(6) 0.4452(3) 0.8786(2)
H47 H -0.0498 0.4344 0.8441
H48 H -0.0241 0.4953 0.8826
H49 H -0.1227 0.4315 0.8960
C48 C 0.2141(5) 0.4279(3) 0.87135(18)
H50 H 0.2934 0.4019 0.8836
H51 H 0.2291 0.4779 0.8762
H52 H 0.2023 0.4183 0.8367
C49 C 0.2939(6) 0.3700(4) 0.9968(3)
H53 H 0.3188 0.3411 1.0248
H54 H 0.3270 0.4176 1.0019
H55 H 0.3358 0.3506 0.9675
C50 C 0.0690(9) 0.3911(3) 1.0394(2)
H56 H -0.0304 0.3944 1.0350
H57 H 0.1049 0.4362 1.0502
H58 H 0.0895 0.3555 1.0639
C51 C 0.4848(12) 0.3971(6) 0.6980(4)
H59 H 0.4698 0.4088 0.7326
H60 H 0.3948 0.3976 0.6815
Cl1 Cl 0.5933(3) 0.45954(15) 0.67150(10)
Cl2 Cl 0.5576(4) 0.31360(17) 0.69349(17)
Br3? Br 0.6018(12) 0.6798(5) 0.8134(6)
C25? C 0.596(6) 0.577(3) 0.7408(7)
H27? H 0.6762 0.5903 0.7213
H28? H 0.5167 0.6047 0.7303
H29? H 0.5769 0.5277 0.7365
C26? C 0.7677(19) 0.574(3) 0.8121(18)
H30? H 0.7821 0.5237 0.8095
H31? H 0.7762 0.5884 0.8460
H32? H 0.8364 0.5984 0.7925
loop_
_geom_bond_atom_site_label_1
_geom_bond_atom_site_label_2
_geom_bond_site_symmetry_1
_geom_bond_site_symmetry_2
Br1 C5 1_555 1_555
Br2 C15 1_555 1_555
O1 C2 1_555 1_555
O2 C11 1_555 1_555
O3 C13 1_555 1_555
O4 C6 1_555 1_555
O5 C14 1_555 1_555
O6 C4 1_555 1_555
C1 C2 1_555 1_555
C2 C3 1_555 1_555
C3 C4 1_555 1_555
C4 C5 1_555 1_555
C5 C6 1_555 1_555
C6 C1 1_555 1_555
C7 C3 1_555 1_555
H1 C7 1_555 1_555
C8 C7 1_555 1_555
C9 O1 1_555 1_555
C10 C9 1_555 1_555
C11 C10 1_555 1_555
C12 C11 1_555 1_555
C13 C8 1_555 1_555
C14 C1 1_555 1_555
C15 C14 1_555 1_555
C16 C15 1_555 1_555
H2 C16 1_555 1_555
H3 C16 1_555 1_555
H4 C16 1_555 1_555
C17 C15 1_555 1_555
H5 C17 1_555 1_555
H6 C17 1_555 1_555
H7 C17 1_555 1_555
C18 C7 1_555 1_555
H8 C18 1_555 1_555
C19 C18 1_555 1_555
H9 C19 1_555 1_555
H10 C19 1_555 1_555
H11 C19 1_555 1_555
C20 C18 1_555 1_555
H12 C20 1_555 1_555
H13 C20 1_555 1_555
H14 C20 1_555 1_555
C21 C10 1_555 1_555
H15 C21 1_555 1_555
H16 C21 1_555 1_555
H17 C21 1_555 1_555
C22 C10 1_555 1_555
H18 C22 1_555 1_555
H19 C22 1_555 1_555
H20 C22 1_555 1_555
C23 C12 1_555 1_555
H21 C23 1_555 1_555
H22 C23 1_555 1_555
H23 C23 1_555 1_555
C24 C12 1_555 1_555
H24 C24 1_555 1_555
H25 C24 1_555 1_555
H26 C24 1_555 1_555
Br4 C31 1_555 1_555
Br5 C41 1_555 1_555
O7 C28 1_555 1_555
O8 C37 1_555 1_555
O9 C39 1_555 1_555
O10 C32 1_555 1_555
O11 C40 1_555 1_555
O12 C30 1_555 1_555
C27 C28 1_555 1_555
C28 C29 1_555 1_555
C29 C30 1_555 1_555
C30 C31 1_555 1_555
C31 C32 1_555 1_555
C32 C27 1_555 1_555
C33 C29 1_555 1_555
H33 C33 1_555 1_555
C34 C33 1_555 1_555
C35 O7 1_555 1_555
C36 C35 1_555 1_555
C37 C36 1_555 1_555
C38 C37 1_555 1_555
C39 C34 1_555 1_555
C40 C27 1_555 1_555
C41 C40 1_555 1_555
C42 C41 1_555 1_555
H34 C42 1_555 1_555
H35 C42 1_555 1_555
H36 C42 1_555 1_555
C43 C41 1_555 1_555
H37 C43 1_555 1_555
H38 C43 1_555 1_555
H39 C43 1_555 1_555
C44 C33 1_555 1_555
H40 C44 1_555 1_555
C45 C44 1_555 1_555
H41 C45 1_555 1_555
H42 C45 1_555 1_555
H43 C45 1_555 1_555
C46 C44 1_555 1_555
H44 C46 1_555 1_555
H45 C46 1_555 1_555
H46 C46 1_555 1_555
C47 C36 1_555 1_555
H47 C47 1_555 1_555
H48 C47 1_555 1_555
H49 C47 1_555 1_555
C48 C36 1_555 1_555
H50 C48 1_555 1_555
H51 C48 1_555 1_555
H52 C48 1_555 1_555
C49 C38 1_555 1_555
H53 C49 1_555 1_555
H54 C49 1_555 1_555
H55 C49 1_555 1_555
C50 C38 1_555 1_555
H56 C50 1_555 1_555
H57 C50 1_555 1_555
H58 C50 1_555 1_555
C51 H59 1_555 1_555
H60 C51 1_555 1_555
Cl1 C51 1_555 1_555
Cl2 C51 1_555 1_555
C8 C9 1_555 1_555
C12 C13 1_555 1_555
C34 C35 1_555 1_555
C38 C39 1_555 1_555

#END
