
#######################################################################
#
#                 Cambridge Crystallographic Data Centre
#                                CCDC 
#
#######################################################################
#
# If this CIF has been generated from an entry in the Cambridge 
# Structural Database, then it will include bibliographic, chemical, 
# crystal, experimental, refinement or atomic coordinate data resulting 
# from the CCDC's data processing and validation procedures.
#
#######################################################################

data_QUWDUJ
_chemical_compound_source        'Acorus tatarinowii'
_chemical_name_common            '( )-Eudesmin'
_chemical_formula_moiety         'C22 H26 O6'
_chemical_name_systematic        
1,4-bis(3,4-dimethoxyphenyl)tetrahydro-1H,3H-furo[3,4-c]furan
_symmetry_cell_setting           monoclinic
_symmetry_space_group_name_H-M   'P 21'
_symmetry_Int_Tables_number      4
_space_group_name_Hall           'P 2yb'
loop_
_symmetry_equiv_pos_site_id
_symmetry_equiv_pos_as_xyz
1 x,y,z
2 -x,1/2+y,-z
_cell_length_a                   11.4215(3)
_cell_length_b                   32.7681(9)
_cell_length_c                   11.5118(3)
_cell_angle_alpha                90
_cell_angle_beta                 116.7530(10)
_cell_angle_gamma                90
_cell_volume                     3847.22
_exptl_crystal_colour            colorless
_exptl_crystal_description       prism
_cell_formula_units_Z            8
loop_
_atom_site_label
_atom_site_type_symbol
_atom_site_fract_x
_atom_site_fract_y
_atom_site_fract_z
O1 O 0.34543(15) 0.77206(5) 0.63423(16)
O2 O 0.44461(17) 1.16396(5) 0.65976(15)
O3 O 0.71126(14) 0.92171(5) 0.67263(14)
O4 O 0.59157(15) 1.00914(5) 0.42695(14)
O5 O 0.33043(16) 1.13384(5) 0.43191(14)
O6 O 0.52190(15) 0.75914(5) 0.55852(16)
C1 C 0.2551(2) 0.77742(7) 0.6869(2)
H1 H 0.3014 0.7883 0.7754
H2 H 0.2156 0.7511 0.6892
H3 H 0.1863 0.7965 0.6325
C2 C 0.4015(2) 0.80614(7) 0.61443(19)
C3 C 0.3703(2) 0.84620(7) 0.63048(18)
H4 H 0.3052 0.8513 0.6587
C4 C 0.4340(2) 0.87903(7) 0.60525(19)
H5 H 0.4100 0.9062 0.6139
C5 C 0.5317(2) 0.87208(7) 0.56781(19)
C6 C 0.6122(2) 0.90615(7) 0.5497(2)
H6 H 0.6571 0.8952 0.4992
C7 C 0.53593(19) 0.94450(6) 0.48083(18)
H7 H 0.4408 0.9387 0.4252
C8 C 0.55757(19) 0.97513(6) 0.59120(18)
H8 H 0.4730 0.9827 0.5917
C9 C 0.62321(19) 1.01252(6) 0.56190(19)
H9 H 0.7204 1.0102 0.6146
C10 C 0.5798(2) 1.05340(7) 0.5887(2)
C11 C 0.4733(2) 1.07383(7) 0.4929(2)
H10 H 0.4292 1.0624 0.4082
C12 C 0.4306(2) 1.11076(7) 0.5194(2)
C13 C 0.4940(2) 1.12743(7) 0.6457(2)
C14 C 0.5069(3) 1.18292(8) 0.7851(2)
H11 H 0.4973 1.1654 0.8493
H12 H 0.4657 1.2094 0.7817
H13 H 0.6002 1.1869 0.8099
C15 C 0.6472(2) 0.95194(7) 0.71364(19)
H14 H 0.7122 0.9706 0.7782
H15 H 0.5957 0.9389 0.7534
C16 C 0.5985(2) 0.96648(6) 0.4052(2)
H16 H 0.6909 0.9578 0.4368
H17 H 0.5502 0.9601 0.3112
C17 C 0.2594(2) 1.11801(7) 0.3048(2)
H18 H 0.3192 1.1134 0.2662
H19 H 0.1914 1.1375 0.2514
H20 H 0.2183 1.0921 0.3087
C18 C 0.5992(2) 1.10713(7) 0.7404(2)
H21 H 0.6426 1.1182 0.8256
C19 C 0.6424(2) 1.07033(7) 0.7121(2)
H22 H 0.7156 1.0567 0.7782
C20 C 0.56292(19) 0.83204(7) 0.55073(19)
H23 H 0.6291 0.8271 0.5240
C21 C 0.4979(2) 0.79937(7) 0.57256(19)
C22 C 0.6205(3) 0.75068(8) 0.5192(3)
H24 H 0.5966 0.7632 0.4342
H25 H 0.6289 0.7211 0.5131
H26 H 0.7043 0.7620 0.5833
O7 O 0.43302(16) 1.15966(5) 0.14651(14)
O8 O 0.33687(15) 0.76879(5) 0.11315(15)
O9 O 0.31125(14) 1.13388(5) -0.08974(14)
O10 O 0.52222(15) 1.00102(5) -0.12376(13)
O11 O 0.70004(14) 0.91011(5) 0.10519(15)
O12 O 0.50546(15) 0.76223(5) 0.02295(16)
C23 C 0.5069(3) 1.17692(8) 0.2730(2)
H27 H 0.5094 1.1576 0.3392
H28 H 0.4655 1.2024 0.2799
H29 H 0.5965 1.1826 0.2868
C24 C 0.4806(2) 1.12421(7) 0.1207(2)
C25 C 0.4141(2) 1.11037(7) -0.0093(2)
C26 C 0.45764(19) 1.07535(7) -0.04556(19)
H30 H 0.4135 1.0662 -0.1331
C27 C 0.56445(19) 1.05351(6) 0.04351(19)
C28 C 0.61535(19) 1.01642(7) 0.00007(19)
H31 H 0.6975 1.0242 -0.0053
C29 C 0.64393(18) 0.97935(6) 0.09135(18)
H32 H 0.6650 0.9881 0.1819
C30 C 0.51543(18) 0.95419(6) 0.02989(18)
H33 H 0.4702 0.9542 0.0868
C31 C 0.5625(2) 0.91090(7) 0.01750(19)
H34 H 0.5524 0.9078 -0.0730
C32 C 0.4967(2) 0.87485(7) 0.04543(18)
C33 C 0.52995(19) 0.83597(7) 0.01793(19)
H35 H 0.5896 0.8335 -0.0185
C34 C 0.4766(2) 0.80116(7) 0.04341(19)
C35 C 0.38658(19) 0.80476(7) 0.09531(19)
C36 C 0.2508(2) 0.77108(7) 0.1718(2)
H36 H 0.2995 0.7806 0.2617
H37 H 0.2142 0.7440 0.1713
H38 H 0.1795 0.7902 0.1228
C37 C 0.5866(2) 1.10252(7) 0.2093(2)
H39 H 0.6314 1.1116 0.2969
C38 C 0.6284(2) 1.06724(7) 0.1709(2)
H40 H 0.7015 1.0525 0.2328
C39 C 0.2368(2) 1.11940(8) -0.2195(2)
H41 H 0.2938 1.1171 -0.2622
H42 H 0.1655 1.1386 -0.2679
H43 H 0.2000 1.0925 -0.2174
C40 C 0.4324(2) 0.97568(6) -0.10001(19)
H44 H 0.3906 0.9555 -0.1707
H45 H 0.3631 0.9925 -0.0943
C41 C 0.74616(19) 0.94952(6) 0.09074(19)
H46 H 0.7525 0.9513 0.0079
H47 H 0.8334 0.9552 0.1637
C42 C 0.4111(2) 0.87797(7) 0.0995(2)
H48 H 0.3897 0.9041 0.1203
C43 C 0.3556(2) 0.84301(7) 0.1240(2)
H49 H 0.2962 0.8456 0.1607
C44 C 0.6032(2) 0.75724(7) -0.0205(3)
H50 H 0.5719 0.7689 -0.1078
H51 H 0.6213 0.7281 -0.0232
H52 H 0.6836 0.7712 0.0395
O13 O 0.18363(15) 0.69192(5) 0.45105(15)
O14 O 0.05205(15) 0.30063(5) 0.28669(14)
O15 O 0.02761(16) 0.69798(5) 0.55662(16)
O16 O 0.04595(14) 0.52435(5) 0.64001(14)
O17 O -0.22078(14) 0.45520(5) 0.39442(14)
O18 O 0.18079(15) 0.32101(5) 0.52809(14)
C45 C 0.2717(2) 0.68992(7) 0.3953(2)
H53 H 0.3369 0.6686 0.4388
H54 H 0.3160 0.7163 0.4061
H55 H 0.2229 0.6835 0.3025
C46 C 0.1288(2) 0.65634(7) 0.4630(2)
C47 C 0.1473(2) 0.61847(7) 0.4186(2)
H56 H 0.2003 0.6163 0.3747
C48 C 0.0879(2) 0.58373(7) 0.4385(2)
H57 H 0.0984 0.5582 0.4053
C49 C 0.0135(2) 0.58593(6) 0.50629(19)
C50 C -0.04807(19) 0.54896(7) 0.5354(2)
H58 H -0.1161 0.5586 0.5612
C51 C -0.11282(19) 0.51870(6) 0.42258(19)
H59 H -0.1350 0.5317 0.3366
C52 C -0.01187(19) 0.48377(6) 0.45344(18)
H60 H 0.0161 0.4806 0.3832
C53 C -0.0851(2) 0.44563(6) 0.46495(19)
H61 H -0.0634 0.4415 0.5585
C54 C -0.0536(2) 0.40696(7) 0.4132(2)
C55 C -0.1198(2) 0.39673(7) 0.2832(2)
H62 H -0.1880 0.4139 0.2247
C56 C -0.0868(2) 0.36118(7) 0.2376(2)
H63 H -0.1340 0.3540 0.1484
C57 C 0.0136(2) 0.33650(7) 0.3207(2)
C58 C -0.0242(2) 0.28674(7) 0.1573(2)
H64 H -0.1157 0.2837 0.1408
H65 H 0.0095 0.2604 0.1456
H66 H -0.0191 0.3066 0.0962
C59 C 0.04737(19) 0.65923(7) 0.52454(19)
C60 C -0.0724(2) 0.70314(8) 0.5967(3)
H67 H -0.1543 0.6912 0.5314
H68 H -0.0855 0.7323 0.6057
H69 H -0.0464 0.6895 0.6805
C61 C -0.0068(2) 0.62441(7) 0.54824(19)
H70 H -0.0585 0.6265 0.5935
C62 C 0.1018(2) 0.49700(7) 0.5814(2)
H71 H 0.1417 0.4731 0.6383
H72 H 0.1701 0.5110 0.5656
C63 C -0.2310(2) 0.49709(7) 0.4235(2)
H73 H -0.2294 0.4997 0.5099
H74 H -0.3137 0.5091 0.3572
C64 C 0.08426(19) 0.34717(7) 0.45331(19)
C65 C 0.2558(2) 0.33137(8) 0.6624(2)
H75 H 0.2911 0.3590 0.6695
H76 H 0.3283 0.3120 0.7036
H77 H 0.1995 0.3302 0.7061
C66 C 0.04851(19) 0.38217(6) 0.49798(19)
H78 H 0.0942 0.3893 0.5874
O19 O -0.03011(15) -0.19811(5) 0.22729(14)
O20 O -0.17809(15) 0.18773(5) 0.04749(16)
O21 O -0.15574(15) -0.17110(5) -0.00635(14)
O22 O 0.27118(14) -0.04178(5) 0.17814(15)
O23 O 0.05164(19) 0.02889(5) -0.10192(16)
O24 O -0.01690(15) 0.19721(5) -0.04959(16)
C67 C 0.0407(2) -0.21447(7) 0.3550(2)
H79 H 0.1322 -0.2189 0.3734
H80 H 0.0013 -0.2405 0.3609
H81 H 0.0372 -0.1952 0.4186
C68 C 0.0143(2) -0.16185(7) 0.2027(2)
C69 C -0.05349(19) -0.14772(6) 0.07350(19)
C70 C -0.0098(2) -0.11281(7) 0.03704(19)
H82 H -0.0534 -0.1037 -0.0506
C71 C 0.0976(2) -0.09082(6) 0.1276(2)
C72 C 0.1429(2) -0.05313(7) 0.0834(2)
H83 H 0.1456 -0.0593 -0.0004
C73 C 0.0574(2) -0.01456(7) 0.0648(2)
H84 H 0.0017 -0.0175 0.1109
C74 C 0.1571(2) 0.02026(7) 0.1239(2)
H85 H 0.1565 0.0315 0.2043
C75 C 0.1163(2) 0.05254(7) 0.0156(2)
H86 H 0.1975 0.0648 0.0177
C76 C 0.0311(2) 0.08672(7) 0.02385(19)
C77 C -0.0527(2) 0.08224(7) 0.0806(2)
H87 H -0.0606 0.0564 0.1136
C78 C -0.1254(2) 0.11523(7) 0.0897(2)
H88 H -0.1834 0.1116 0.1276
C79 C -0.1131(2) 0.15369(7) 0.0430(2)
C80 C -0.2651(2) 0.18448(8) 0.1044(2)
H89 H -0.3277 0.1624 0.0622
H90 H -0.3127 0.2102 0.0928
H91 H -0.2150 0.1786 0.1974
C81 C -0.2351(2) -0.15500(7) -0.1336(2)
H92 H -0.2745 -0.1292 -0.1263
H93 H -0.3046 -0.1745 -0.1838
H94 H -0.1804 -0.1503 -0.1780
C82 C 0.2869(2) 0.00011(7) 0.1527(2)
H95 H 0.3060 0.0025 0.0772
H96 H 0.3593 0.0129 0.2293
C83 C -0.0245(2) -0.00106(8) -0.0761(2)
H97 H -0.0431 -0.0246 -0.1359
H98 H -0.1089 0.0108 -0.0877
C84 C -0.0268(2) 0.15832(7) -0.01192(19)
C85 C 0.0789(2) 0.20453(8) -0.0940(3)
H99 H 0.1646 0.1949 -0.0286
H100 H 0.0835 0.2339 -0.1082
H101 H 0.0547 0.1899 -0.1758
C86 C 0.0429(2) 0.12536(7) -0.02269(19)
H102 H 0.0996 0.1288 -0.0621
C87 C 0.1592(2) -0.10388(7) 0.2551(2)
H103 H 0.2297 -0.0885 0.3179
C88 C 0.1185(2) -0.13967(7) 0.2924(2)
H104 H 0.1628 -0.1488 0.3800
loop_
_geom_bond_atom_site_label_1
_geom_bond_atom_site_label_2
_geom_bond_site_symmetry_1
_geom_bond_site_symmetry_2
O1 C1 1_555 1_555
O2 C13 1_555 1_555
O3 C6 1_555 1_555
O4 C9 1_555 1_555
O5 C12 1_555 1_555
O6 C21 1_555 1_555
C1 H1 1_555 1_555
H2 C1 1_555 1_555
H3 C1 1_555 1_555
C2 O1 1_555 1_555
C3 C2 1_555 1_555
H4 C3 1_555 1_555
C4 C3 1_555 1_555
H5 C4 1_555 1_555
C5 C4 1_555 1_555
C6 C5 1_555 1_555
H6 C6 1_555 1_555
C7 C6 1_555 1_555
H7 C7 1_555 1_555
C8 C7 1_555 1_555
H8 C8 1_555 1_555
C9 C8 1_555 1_555
H9 C9 1_555 1_555
C10 C9 1_555 1_555
C11 C10 1_555 1_555
H10 C11 1_555 1_555
C12 C11 1_555 1_555
C13 C12 1_555 1_555
C14 O2 1_555 1_555
H11 C14 1_555 1_555
H12 C14 1_555 1_555
H13 C14 1_555 1_555
C15 O3 1_555 1_555
H14 C15 1_555 1_555
H15 C15 1_555 1_555
C16 O4 1_555 1_555
H16 C16 1_555 1_555
H17 C16 1_555 1_555
C17 O5 1_555 1_555
H18 C17 1_555 1_555
H19 C17 1_555 1_555
H20 C17 1_555 1_555
C18 C13 1_555 1_555
H21 C18 1_555 1_555
C19 C10 1_555 1_555
H22 C19 1_555 1_555
C20 C5 1_555 1_555
H23 C20 1_555 1_555
C21 C2 1_555 1_555
C22 O6 1_555 1_555
H24 C22 1_555 1_555
H25 C22 1_555 1_555
H26 C22 1_555 1_555
O7 C23 1_555 1_555
O8 C35 1_555 1_555
O9 C25 1_555 1_555
O10 C28 1_555 1_555
O11 C31 1_555 1_555
O12 C34 1_555 1_555
C23 H27 1_555 1_555
H28 C23 1_555 1_555
H29 C23 1_555 1_555
C24 O7 1_555 1_555
C25 C24 1_555 1_555
C26 C25 1_555 1_555
H30 C26 1_555 1_555
C27 C26 1_555 1_555
C28 C27 1_555 1_555
H31 C28 1_555 1_555
C29 C28 1_555 1_555
H32 C29 1_555 1_555
C30 C29 1_555 1_555
H33 C30 1_555 1_555
C31 C30 1_555 1_555
H34 C31 1_555 1_555
C32 C31 1_555 1_555
C33 C32 1_555 1_555
H35 C33 1_555 1_555
C34 C33 1_555 1_555
C35 C34 1_555 1_555
C36 O8 1_555 1_555
H36 C36 1_555 1_555
H37 C36 1_555 1_555
H38 C36 1_555 1_555
C37 C24 1_555 1_555
H39 C37 1_555 1_555
C38 C27 1_555 1_555
H40 C38 1_555 1_555
C39 O9 1_555 1_555
H41 C39 1_555 1_555
H42 C39 1_555 1_555
H43 C39 1_555 1_555
C40 O10 1_555 1_555
H44 C40 1_555 1_555
H45 C40 1_555 1_555
C41 O11 1_555 1_555
H46 C41 1_555 1_555
H47 C41 1_555 1_555
C42 C32 1_555 1_555
H48 C42 1_555 1_555
C43 C35 1_555 1_555
H49 C43 1_555 1_555
C44 O12 1_555 1_555
H50 C44 1_555 1_555
H51 C44 1_555 1_555
H52 C44 1_555 1_555
O13 C45 1_555 1_555
O14 C57 1_555 1_555
O15 C59 1_555 1_555
O16 C50 1_555 1_555
O17 C53 1_555 1_555
O18 C64 1_555 1_555
C45 H53 1_555 1_555
H54 C45 1_555 1_555
H55 C45 1_555 1_555
C46 O13 1_555 1_555
C47 C46 1_555 1_555
H56 C47 1_555 1_555
C48 C47 1_555 1_555
H57 C48 1_555 1_555
C49 C48 1_555 1_555
C50 C49 1_555 1_555
H58 C50 1_555 1_555
C51 C50 1_555 1_555
H59 C51 1_555 1_555
C52 C51 1_555 1_555
H60 C52 1_555 1_555
C53 C52 1_555 1_555
H61 C53 1_555 1_555
C54 C53 1_555 1_555
C55 C54 1_555 1_555
H62 C55 1_555 1_555
C56 C55 1_555 1_555
H63 C56 1_555 1_555
C57 C56 1_555 1_555
C58 O14 1_555 1_555
H64 C58 1_555 1_555
H65 C58 1_555 1_555
H66 C58 1_555 1_555
C59 C46 1_555 1_555
C60 O15 1_555 1_555
H67 C60 1_555 1_555
H68 C60 1_555 1_555
H69 C60 1_555 1_555
C61 C49 1_555 1_555
H70 C61 1_555 1_555
C62 O16 1_555 1_555
H71 C62 1_555 1_555
H72 C62 1_555 1_555
C63 O17 1_555 1_555
H73 C63 1_555 1_555
H74 C63 1_555 1_555
C64 C57 1_555 1_555
C65 O18 1_555 1_555
H75 C65 1_555 1_555
H76 C65 1_555 1_555
H77 C65 1_555 1_555
C66 C54 1_555 1_555
H78 C66 1_555 1_555
O19 C67 1_555 1_555
O20 C79 1_555 1_555
O21 C69 1_555 1_555
O22 C72 1_555 1_555
O23 C75 1_555 1_555
O24 C84 1_555 1_555
C67 H79 1_555 1_555
H80 C67 1_555 1_555
H81 C67 1_555 1_555
C68 O19 1_555 1_555
C69 C68 1_555 1_555
C70 C69 1_555 1_555
H82 C70 1_555 1_555
C71 C70 1_555 1_555
C72 C71 1_555 1_555
H83 C72 1_555 1_555
C73 C72 1_555 1_555
H84 C73 1_555 1_555
C74 C73 1_555 1_555
H85 C74 1_555 1_555
C75 C74 1_555 1_555
H86 C75 1_555 1_555
C76 C75 1_555 1_555
C77 C76 1_555 1_555
H87 C77 1_555 1_555
C78 C77 1_555 1_555
H88 C78 1_555 1_555
C79 C78 1_555 1_555
C80 O20 1_555 1_555
H89 C80 1_555 1_555
H90 C80 1_555 1_555
H91 C80 1_555 1_555
C81 O21 1_555 1_555
H92 C81 1_555 1_555
H93 C81 1_555 1_555
H94 C81 1_555 1_555
C82 O22 1_555 1_555
H95 C82 1_555 1_555
H96 C82 1_555 1_555
C83 O23 1_555 1_555
H97 C83 1_555 1_555
H98 C83 1_555 1_555
C84 C79 1_555 1_555
C85 O24 1_555 1_555
H99 C85 1_555 1_555
H100 C85 1_555 1_555
H101 C85 1_555 1_555
C86 C76 1_555 1_555
H102 C86 1_555 1_555
C87 C71 1_555 1_555
H103 C87 1_555 1_555
C88 C68 1_555 1_555
H104 C88 1_555 1_555
C7 C16 1_555 1_555
C8 C15 1_555 1_555
C18 C19 1_555 1_555
C20 C21 1_555 1_555
C29 C41 1_555 1_555
C30 C40 1_555 1_555
C37 C38 1_555 1_555
C42 C43 1_555 1_555
C51 C63 1_555 1_555
C52 C62 1_555 1_555
C59 C61 1_555 1_555
C64 C66 1_555 1_555
C73 C83 1_555 1_555
C74 C82 1_555 1_555
C84 C86 1_555 1_555
C87 C88 1_555 1_555

#END
