
#######################################################################
#
#                 Cambridge Crystallographic Data Centre
#                                CCDC 
#
#######################################################################
#
# If this CIF has been generated from an entry in the Cambridge 
# Structural Database, then it will include bibliographic, chemical, 
# crystal, experimental, refinement or atomic coordinate data resulting 
# from the CCDC's data processing and validation procedures.
#
#######################################################################

data_QUWFAR
_chemical_compound_source        'Saccharothrix sp. 10-10'
_chemical_name_common            'saccharothrixone D methanol solvate'
_chemical_formula_moiety         'C24 H22 O11,1.5(C1 H4 O1)'
_chemical_name_systematic        
'methyl 6a,10a,12-trihydroxy-3,7,10-trimethoxy-1-methyl-6,8,11-trioxo-6,6a,7,8,10a,11-hexahydrotetracene-2-carboxylate methanol solvate'
_symmetry_cell_setting           orthorhombic
_symmetry_space_group_name_H-M   'P 21 21 21'
_symmetry_Int_Tables_number      19
_space_group_name_Hall           'P 2ac 2ab'
loop_
_symmetry_equiv_pos_site_id
_symmetry_equiv_pos_as_xyz
1 x,y,z
2 1/2-x,-y,1/2+z
3 1/2+x,1/2-y,-z
4 -x,1/2+y,1/2-z
_cell_length_a                   15.0788(4)
_cell_length_b                   17.5135(4)
_cell_length_c                   19.2065(5)
_cell_angle_alpha                90
_cell_angle_beta                 90
_cell_angle_gamma                90
_cell_volume                     5072.1
_exptl_crystal_colour            'light yellow'
_exptl_crystal_description       block
_chemical_melting_point          '460 K'
_cell_formula_units_Z            8
_exptl_crystal_recrystallization_method Chloroform/Methanol
loop_
_atom_site_label
_atom_site_type_symbol
_atom_site_fract_x
_atom_site_fract_y
_atom_site_fract_z
O1 O -0.6024(4) -0.8637(3) -0.0923(3)
C1 C -0.5759(4) -0.7590(3) -0.1660(4)
H1 H -0.5151 -0.7560 -0.1536
O2 O -1.1743(3) -0.4523(3) -0.0221(2)
O3 O -1.2335(3) -0.4273(2) -0.1261(2)
O4 O -1.2584(3) -0.6004(2) -0.1076(2)
O5 O -0.5623(3) -0.6665(2) -0.2572(2)
C2 C -0.6071(4) -0.7129(3) -0.2150(3)
O6 O -0.7778(3) -0.8754(2) -0.1297(2)
O7 O -0.8861(3) -0.8310(2) -0.2641(2)
C3 C -0.7319(4) -0.8069(3) -0.1419(3)
H2 H -0.7559 -0.7659 -0.1110
O8 O -0.7103(2) -0.84070(19) -0.26216(19)
H3 H -0.7476 -0.8552 -0.2919
O9 O -0.7228(3) -0.6890(2) -0.3025(2)
H4 H -0.7094 -0.6430 -0.3095
O10 O -0.7044(3) -0.5935(2) -0.1626(2)
O11 O -0.8478(3) -0.5201(2) -0.1388(2)
H5 H -0.7931 -0.5285 -0.1418
C4 C -0.7065(3) -0.7077(3) -0.2319(3)
C5 C -0.7508(3) -0.6447(3) -0.1885(3)
C6 C -0.8473(4) -0.6463(3) -0.1838(3)
C7 C -0.8929(4) -0.5826(3) -0.1584(3)
C8 C -0.9881(4) -0.5833(3) -0.1506(3)
C9 C -1.0379(4) -0.5183(3) -0.1282(3)
C10 C -1.1274(4) -0.5286(3) -0.1148(3)
C11 C -1.1707(3) -0.5999(3) -0.1244(3)
C12 C -1.1245(4) -0.6612(3) -0.1506(3)
H6 H -1.1539 -0.7081 -0.1596
C13 C -1.0321(3) -0.6535(3) -0.1642(3)
C14 C -0.9861(4) -0.7169(3) -0.1921(3)
H7 H -1.0176 -0.7622 -0.2036
C15 C -0.8954(3) -0.7132(3) -0.2026(3)
C16 C -0.8490(3) -0.7805(3) -0.2319(3)
C17 C -0.7490(3) -0.7857(3) -0.2188(3)
C18 C -0.6323(4) -0.8140(3) -0.1309(3)
C19 C -1.1841(4) -0.4641(3) -0.0904(3)
C20 C -1.2252(6) -0.3893(5) 0.0065(5)
H8 H -1.2143 -0.3857 0.0567
H9 H -1.2885 -0.3981 -0.0018
H10 H -1.2070 -0.3416 -0.0161
C21 C -1.3036(4) -0.6731(3) -0.1129(3)
H11 H -1.3655 -0.6670 -0.0984
H12 H -1.2743 -0.7104 -0.0826
H13 H -1.3015 -0.6910 -0.1612
C22 C -0.8008(6) -0.8870(4) -0.0588(4)
H14 H -0.8329 -0.9354 -0.0540
H15 H -0.8385 -0.8450 -0.0429
H16 H -0.7467 -0.8887 -0.0305
C23 C -0.9989(4) -0.4394(3) -0.1233(3)
H17 H -1.0443 -0.4037 -0.1068
H18 H -0.9780 -0.4234 -0.1694
H19 H -0.9490 -0.4399 -0.0906
C24 C -0.4667(5) -0.6701(5) -0.2540(5)
H20 H -0.4413 -0.6337 -0.2872
H21 H -0.4469 -0.7218 -0.2657
H22 H -0.4470 -0.6572 -0.2068
C25 C -0.5795(5) -0.8145(5) -0.3739(4)
O12 O -0.5830(8) -0.7502(6) -0.4267(6)
H23 H -0.6286 -0.7548 -0.4513
C26 C -0.4833(6) -0.9436(5) -0.3933(5)
O13 O -0.5254(13) -0.9942(11) -0.4381(11)
H24 H -0.5802 -0.9938 -0.4302
O14 O -1.2533(3) -0.7622(2) -0.3911(2)
O15 O -1.2703(3) -0.7545(2) -0.2759(2)
O16 O -0.5800(3) -0.5409(2) -0.3948(2)
O17 O -0.8372(3) -0.3209(2) -0.4346(2)
O18 O -1.2931(2) -0.5900(2) -0.2964(2)
O19 O -0.9103(3) -0.6753(2) -0.4146(2)
H25 H -0.8583 -0.6682 -0.4290
O20 O -0.7625(3) -0.6058(2) -0.4356(2)
O21 O -0.7050(3) -0.5220(2) -0.3007(2)
H26 H -0.6557 -0.5050 -0.2873
O22 O -0.8672(3) -0.3717(2) -0.2774(2)
O23 O -0.7069(3) -0.3633(2) -0.3338(2)
H27 H -0.7340 -0.3361 -0.3047
O24 O -0.6920(3) -0.3288(2) -0.5200(2)
C27 C -0.7232(4) -0.4948(3) -0.3688(3)
C28 C -0.6333(4) -0.4380(3) -0.4657(3)
H28 H -0.5819 -0.4388 -0.4944
C29 C -0.6407(4) -0.4897(3) -0.4142(3)
C30 C -0.7895(4) -0.5552(3) -0.3967(3)
C31 C -0.8801(4) -0.5517(3) -0.3706(3)
C32 C -0.9378(4) -0.6136(3) -0.3799(3)
C33 C -1.0269(4) -0.6136(3) -0.3530(3)
C34 C -1.0858(4) -0.6770(3) -0.3532(3)
C35 C -1.1732(4) -0.6662(3) -0.3325(3)
C36 C -1.2049(4) -0.5931(3) -0.3107(3)
C37 C -1.1470(4) -0.5338(3) -0.3048(3)
H29 H -1.1674 -0.4862 -0.2872
C38 C -1.0587(4) -0.5417(3) -0.3239(3)
C39 C -0.9990(4) -0.4797(3) -0.3150(3)
H30 H -1.0200 -0.4335 -0.2951
C40 C -0.9120(4) -0.4850(3) -0.3346(3)
C41 C -0.8518(4) -0.4201(3) -0.3208(3)
C42 C -0.7657(4) -0.4150(3) -0.3638(3)
C43 C -0.7890(4) -0.3895(3) -0.4389(3)
H31 H -0.8263 -0.4295 -0.4617
C44 C -0.7014(4) -0.3812(3) -0.4788(3)
C45 C -1.2366(4) -0.7318(3) -0.3288(3)
C46 C -1.3086(6) -0.8298(4) -0.3900(4)
H32 H -1.3168 -0.8485 -0.4377
H33 H -1.3664 -0.8172 -0.3698
H34 H -1.2800 -0.8695 -0.3619
C47 C -0.9015(5) -0.3121(4) -0.4875(4)
H35 H -0.9317 -0.2630 -0.4818
H36 H -0.9450 -0.3536 -0.4843
H37 H -0.8725 -0.3138 -0.5332
C48 C -1.3267(4) -0.5168(3) -0.2747(4)
H38 H -1.3907 -0.5205 -0.2668
H39 H -1.3149 -0.4789 -0.3111
H40 H -1.2972 -0.5013 -0.2315
C49 C -1.0535(4) -0.7572(3) -0.3700(3)
H41 H -1.1035 -0.7928 -0.3679
H42 H -1.0084 -0.7725 -0.3360
H43 H -1.0278 -0.7579 -0.4168
C50 C -0.4961(4) -0.5394(4) -0.4286(4)
H44 H -0.4579 -0.5791 -0.4088
H45 H -0.4685 -0.4893 -0.4218
H46 H -0.5042 -0.5487 -0.4785
O25 O -0.5624(5) -0.4717(4) -0.2425(4)
H47 H -0.5488 -0.4779 -0.2004
C51 C -0.5249(6) -0.4102(5) -0.2659(5)
H48 H -0.5170 -0.4143 -0.3164
H49 H -0.4669 -0.4037 -0.2436
H50 H -0.5624 -0.3659 -0.2554
O26? O -0.6452(15) -0.7713(13) -0.3967(13)
H51? H -0.6669 -0.7466 -0.3633
C52? C -0.536(2) -0.8915(19) -0.3622(17)
loop_
_geom_bond_atom_site_label_1
_geom_bond_atom_site_label_2
_geom_bond_site_symmetry_1
_geom_bond_site_symmetry_2
O1 C18 1_555 1_555
C1 H1 1_555 1_555
O2 C19 1_555 1_555
O3 C19 1_555 1_555
O4 C11 1_555 1_555
O5 C2 1_555 1_555
C2 C1 1_555 1_555
O6 C3 1_555 1_555
O7 C16 1_555 1_555
C3 H2 1_555 1_555
O8 H3 1_555 1_555
O9 H4 1_555 1_555
O10 C5 1_555 1_555
O11 H5 1_555 1_555
C4 C2 1_555 1_555
C5 C4 1_555 1_555
C6 C5 1_555 1_555
C7 O11 1_555 1_555
C8 C7 1_555 1_555
C9 C8 1_555 1_555
C10 C9 1_555 1_555
C11 C10 1_555 1_555
C12 C11 1_555 1_555
H6 C12 1_555 1_555
C13 C8 1_555 1_555
C14 C13 1_555 1_555
H7 C14 1_555 1_555
C15 C6 1_555 1_555
C16 C15 1_555 1_555
C17 C3 1_555 1_555
C18 C1 1_555 1_555
C19 C10 1_555 1_555
C20 O2 1_555 1_555
H8 C20 1_555 1_555
H9 C20 1_555 1_555
H10 C20 1_555 1_555
C21 O4 1_555 1_555
H11 C21 1_555 1_555
H12 C21 1_555 1_555
H13 C21 1_555 1_555
C22 O6 1_555 1_555
H14 C22 1_555 1_555
H15 C22 1_555 1_555
H16 C22 1_555 1_555
C23 C9 1_555 1_555
H17 C23 1_555 1_555
H18 C23 1_555 1_555
H19 C23 1_555 1_555
C24 O5 1_555 1_555
H20 C24 1_555 1_555
H21 C24 1_555 1_555
H22 C24 1_555 1_555
C25 O12 1_555 1_555
O12 H23 1_555 1_555
C26 O13 1_555 1_555
O13 H24 1_555 1_555
O14 C45 1_555 1_555
O15 C45 1_555 1_555
O16 C29 1_555 1_555
O17 C43 1_555 1_555
O18 C36 1_555 1_555
O19 H25 1_555 1_555
O20 C30 1_555 1_555
O21 H26 1_555 1_555
O22 C41 1_555 1_555
O23 H27 1_555 1_555
O24 C44 1_555 1_555
C27 O21 1_555 1_555
C28 H28 1_555 1_555
C29 C27 1_555 1_555
C30 C27 1_555 1_555
C31 C30 1_555 1_555
C32 O19 1_555 1_555
C33 C32 1_555 1_555
C34 C33 1_555 1_555
C35 C34 1_555 1_555
C36 C35 1_555 1_555
C37 C36 1_555 1_555
H29 C37 1_555 1_555
C38 C33 1_555 1_555
C39 C38 1_555 1_555
H30 C39 1_555 1_555
C40 C31 1_555 1_555
C41 C40 1_555 1_555
C42 O23 1_555 1_555
C43 C42 1_555 1_555
H31 C43 1_555 1_555
C44 C28 1_555 1_555
C45 C35 1_555 1_555
C46 O14 1_555 1_555
H32 C46 1_555 1_555
H33 C46 1_555 1_555
H34 C46 1_555 1_555
C47 O17 1_555 1_555
H35 C47 1_555 1_555
H36 C47 1_555 1_555
H37 C47 1_555 1_555
C48 O18 1_555 1_555
H38 C48 1_555 1_555
H39 C48 1_555 1_555
H40 C48 1_555 1_555
C49 C34 1_555 1_555
H41 C49 1_555 1_555
H42 C49 1_555 1_555
H43 C49 1_555 1_555
C50 O16 1_555 1_555
H44 C50 1_555 1_555
H45 C50 1_555 1_555
H46 C50 1_555 1_555
O25 H47 1_555 1_555
C51 O25 1_555 1_555
H48 C51 1_555 1_555
H49 C51 1_555 1_555
H50 C51 1_555 1_555
C3 C18 1_555 1_555
O8 C17 1_555 1_555
O9 C4 1_555 1_555
C4 C17 1_555 1_555
C6 C7 1_555 1_555
C12 C13 1_555 1_555
C14 C15 1_555 1_555
C16 C17 1_555 1_555
C27 C42 1_555 1_555
C28 C29 1_555 1_555
C31 C32 1_555 1_555
C37 C38 1_555 1_555
C39 C40 1_555 1_555
C41 C42 1_555 1_555
C43 C44 1_555 1_555

#END
