
#######################################################################
#
#                 Cambridge Crystallographic Data Centre
#                                CCDC 
#
#######################################################################
#
# If this CIF has been generated from an entry in the Cambridge 
# Structural Database, then it will include bibliographic, chemical, 
# crystal, experimental, refinement or atomic coordinate data resulting 
# from the CCDC's data processing and validation procedures.
#
#######################################################################

data_QUWFUL
_chemical_formula_moiety         'C31 H24 F3 N1 O3'
_chemical_name_systematic        
'ethyl 6-(4-methoxyphenyl)-7-(4-(trifluoromethyl)phenyl)-7H-dibenzo[b,d]azepine-2-carboxylate'
_symmetry_cell_setting           monoclinic
_symmetry_space_group_name_H-M   'P 21/n'
_symmetry_Int_Tables_number      14
_space_group_name_Hall           '-P 2yn'
loop_
_symmetry_equiv_pos_site_id
_symmetry_equiv_pos_as_xyz
1 x,y,z
2 1/2-x,1/2+y,1/2-z
3 -x,-y,-z
4 1/2+x,1/2-y,1/2+z
_cell_length_a                   12.820(4)
_cell_length_b                   10.828(3)
_cell_length_c                   18.754(6)
_cell_angle_alpha                90
_cell_angle_beta                 98.353(7)
_cell_angle_gamma                90
_cell_volume                     2575.72
_exptl_crystal_colour            colorless
_exptl_crystal_description       block
_cell_formula_units_Z            4
loop_
_atom_site_label
_atom_site_type_symbol
_atom_site_fract_x
_atom_site_fract_y
_atom_site_fract_z
F1 F 0.4403(5) 0.1109(6) 0.0589(3)
F2 F 0.3560(7) 0.1352(8) 0.1444(4)
C1 C 0.4291(6) 0.8087(7) 0.1208(4)
H1 H 0.3825 0.8388 0.0820
F3 F 0.3253(6) 0.2444(7) 0.0504(5)
C2 C 0.0962(9) 1.0093(13) 0.0927(7)
H2 H 0.1354 1.0850 0.0949
H3 H 0.0229 1.0273 0.0927
H4 H 0.1047 0.9656 0.0494
N1 N 0.7063(5) 0.7135(6) 0.1524(3)
C3 C 0.5718(6) 0.7150(6) 0.2378(4)
C4 C 0.3985(7) 0.7942(7) 0.1890(5)
O1 O 0.2366(4) 0.8857(6) 0.1457(3)
C5 C 0.7337(5) 0.5211(6) 0.2245(4)
H5 H 0.7928 0.4631 0.2338
C6 C 0.6389(5) 0.4470(6) 0.1898(4)
C7 C 0.7214(6) 0.5795(7) 0.2957(4)
C8 C 0.6391(7) 0.7221(7) 0.3698(4)
H6 H 0.5909 0.7849 0.3741
C9 C 0.6440(6) 0.6730(6) 0.3011(4)
C10 C 0.7662(6) 0.6204(7) 0.1739(4)
C11 C 0.6030(6) 0.7303(6) 0.1690(4)
C12 C 0.4792(6) 0.2869(7) 0.1289(4)
C13 C 0.2901(7) 0.8284(9) 0.2023(5)
C14 C 0.8686(6) 0.6153(7) 0.1478(4)
C15 C 0.5798(7) 0.3807(8) 0.2322(4)
H7 H 0.5930 0.3887 0.2821
C16 C 0.5315(7) 0.7765(8) 0.1133(4)
H8 H 0.5532 0.7865 0.0685
C17 C 0.4697(6) 0.7484(6) 0.2444(4)
H9 H 0.4478 0.7393 0.2893
C18 C 1.0490(7) 0.5367(8) 0.1529(6)
H10 H 1.1041 0.4887 0.1758
C19 C 0.7013(7) 0.6823(7) 0.4307(4)
H11 H 0.6939 0.7158 0.4753
C20 C 0.7858(7) 0.5425(8) 0.3582(5)
H12 H 0.8372 0.4832 0.3545
C21 C 0.7772(7) 0.5894(8) 0.4250(5)
H13 H 0.8204 0.5607 0.4657
C22 C 0.5019(7) 0.3033(7) 0.2013(5)
H14 H 0.4628 0.2599 0.2311
O2 O 0.2590(6) 0.8195(8) 0.2584(4)
C23 C 1.0592(8) 0.6017(9) 0.0913(6)
C24 C 0.9537(6) 0.5450(8) 0.1800(5)
H15 H 0.9464 0.5014 0.2218
O3 O 1.1486(6) 0.6019(7) 0.0614(5)
C25 C 0.3982(9) 0.1986(10) 0.0966(6)
C26 C 0.6174(8) 0.4322(9) 0.1170(5)
H16 H 0.6568 0.4758 0.0875
C27 C 0.8820(7) 0.6781(9) 0.0857(5)
H17 H 0.8275 0.7254 0.0615
C28 C 0.5391(8) 0.3548(9) 0.0863(5)
H18 H 0.5257 0.3473 0.0364
C29 C 0.9786(8) 0.6694(11) 0.0597(6)
H19 H 0.9871 0.7131 0.0183
C30 C 0.1348(7) 0.9333(11) 0.1550(6)
H20 H 0.1403 0.9823 0.1987
H21 H 0.0864 0.8657 0.1591
C31 C 1.2336(8) 0.5284(12) 0.0902(7)
H22 H 1.2485 0.5416 0.1413
H23 H 1.2943 0.5499 0.0684
H24 H 1.2164 0.4431 0.0808
loop_
_geom_bond_atom_site_label_1
_geom_bond_atom_site_label_2
_geom_bond_site_symmetry_1
_geom_bond_site_symmetry_2
F1 C25 1_555 1_555
F2 C25 1_555 1_555
C1 H1 1_555 1_555
F3 C25 1_555 1_555
C2 H2 1_555 1_555
H3 C2 1_555 1_555
H4 C2 1_555 1_555
N1 C10 1_555 1_555
C3 C9 1_555 1_555
C4 C1 1_555 1_555
O1 C13 1_555 1_555
C5 H5 1_555 1_555
C6 C5 1_555 1_555
C7 C5 1_555 1_555
C8 H6 1_555 1_555
C9 C7 1_555 1_555
C10 C5 1_555 1_555
C11 N1 1_555 1_555
C12 C22 1_555 1_555
C13 C4 1_555 1_555
C14 C10 1_555 1_555
C15 C6 1_555 1_555
H7 C15 1_555 1_555
C16 C1 1_555 1_555
H8 C16 1_555 1_555
C17 C3 1_555 1_555
H9 C17 1_555 1_555
C18 H10 1_555 1_555
C19 C8 1_555 1_555
H11 C19 1_555 1_555
C20 C7 1_555 1_555
H12 C20 1_555 1_555
C21 C19 1_555 1_555
H13 C21 1_555 1_555
C22 C15 1_555 1_555
H14 C22 1_555 1_555
O2 C13 1_555 1_555
C23 C18 1_555 1_555
C24 C14 1_555 1_555
H15 C24 1_555 1_555
O3 C23 1_555 1_555
C25 C12 1_555 1_555
C26 C6 1_555 1_555
H16 C26 1_555 1_555
C27 C14 1_555 1_555
H17 C27 1_555 1_555
C28 C12 1_555 1_555
H18 C28 1_555 1_555
C29 C23 1_555 1_555
H19 C29 1_555 1_555
C30 C2 1_555 1_555
H20 C30 1_555 1_555
H21 C30 1_555 1_555
C31 O3 1_555 1_555
H22 C31 1_555 1_555
H23 C31 1_555 1_555
H24 C31 1_555 1_555
C3 C11 1_555 1_555
C4 C17 1_555 1_555
O1 C30 1_555 1_555
C8 C9 1_555 1_555
C11 C16 1_555 1_555
C18 C24 1_555 1_555
C20 C21 1_555 1_555
C26 C28 1_555 1_555
C27 C29 1_555 1_555

#END
