
#######################################################################
#
#                 Cambridge Crystallographic Data Centre
#                                CCDC 
#
#######################################################################
#
# If this CIF has been generated from an entry in the Cambridge 
# Structural Database, then it will include bibliographic, chemical, 
# crystal, experimental, refinement or atomic coordinate data resulting 
# from the CCDC's data processing and validation procedures.
#
#######################################################################

data_QUWGAS
_chemical_formula_moiety         'C31 H24 F3 N1 O3'
_chemical_name_systematic        
'ethyl 7-(4-methoxyphenyl)-6-(4-(trifluoromethyl)phenyl)-7H-dibenzo[b,d]azepine-2-carboxylate'
_symmetry_cell_setting           orthorhombic
_symmetry_space_group_name_H-M   'P b c a'
_symmetry_Int_Tables_number      61
_space_group_name_Hall           '-P 2ac 2ab'
loop_
_symmetry_equiv_pos_site_id
_symmetry_equiv_pos_as_xyz
1 x,y,z
2 1/2-x,-y,1/2+z
3 -x,1/2+y,1/2-z
4 1/2+x,1/2-y,-z
5 -x,-y,-z
6 1/2+x,y,1/2-z
7 x,1/2-y,1/2+z
8 1/2-x,1/2+y,z
_cell_length_a                   11.913(2)
_cell_length_b                   8.8811(14)
_cell_length_c                   48.380(8)
_cell_angle_alpha                90
_cell_angle_beta                 90
_cell_angle_gamma                90
_cell_volume                     5118.63
_exptl_crystal_colour            colorless
_exptl_crystal_description       block
_cell_formula_units_Z            8
loop_
_atom_site_label
_atom_site_type_symbol
_atom_site_fract_x
_atom_site_fract_y
_atom_site_fract_z
O1 O 0.4763(2) -0.2255(2) 0.03522(4)
C1 C 0.4274(2) -0.0212(3) 0.11189(5)
N1 N 0.30744(18) 0.1583(2) 0.13864(4)
C2 C 0.3394(2) 0.0830(3) 0.11434(5)
C3 C 0.4426(2) -0.0925(3) 0.08631(5)
H1 H 0.5009 -0.1612 0.0842
O2 O 0.66535(18) 0.4904(2) 0.05371(4)
C4 C 0.3769(2) 0.2161(3) 0.15574(5)
C5 C 0.5006(2) -0.0619(3) 0.13555(5)
O3 O 0.31306(19) -0.1385(3) 0.01903(4)
C6 C 0.5041(2) 0.2092(3) 0.15175(5)
H2 H 0.5381 0.2642 0.1672
C7 C 0.3725(2) -0.0631(3) 0.06387(5)
C8 C 0.5377(2) 0.0452(3) 0.15482(5)
C9 C 0.3269(2) 0.2910(3) 0.18040(5)
C10 C 0.2686(2) 0.1097(3) 0.09161(5)
H3 H 0.2092 0.1768 0.0934
C11 C 0.3829(3) -0.1444(3) 0.03701(5)
C12 C 0.5281(2) 0.4580(3) 0.08738(6)
H4 H 0.4860 0.5307 0.0782
C13 C 0.2853(2) 0.0389(3) 0.06685(5)
H5 H 0.2381 0.0593 0.0520
C14 C 0.4855(2) 0.3904(3) 0.11098(6)
H6 H 0.4149 0.4183 0.1174
C15 C 0.6056(3) -0.0003(4) 0.17675(5)
H7 H 0.6297 0.0707 0.1896
C16 C 0.6318(2) 0.4184(3) 0.07748(5)
C17 C 0.5462(2) 0.2823(3) 0.12514(5)
C18 C 0.2236(3) 0.4275(4) 0.22590(5)
F1 F 0.1359(3) 0.3923(3) 0.26867(5)
C19 C 0.6499(2) 0.2436(4) 0.11454(6)
H8 H 0.6920 0.1702 0.1235
C20 C 0.6018(3) -0.2544(4) 0.16085(6)
H9 H 0.6231 -0.3545 0.1628
F2 F 0.0767(2) 0.5704(3) 0.24448(5)
C21 C 0.5342(3) -0.2121(3) 0.13905(6)
H10 H 0.5105 -0.2844 0.1264
C22 C 0.6931(3) 0.3106(4) 0.09100(7)
H11 H 0.7633 0.2825 0.0844
F3 F 0.2330(2) 0.5884(3) 0.26480(5)
C23 C 0.6379(3) -0.1485(4) 0.17978(6)
H12 H 0.6836 -0.1769 0.1945
C24 C 0.2133(3) 0.2828(5) 0.18469(7)
H13 H 0.1692 0.2305 0.1721
C25 C 0.4905(3) -0.3156(4) 0.01024(6)
H14 H 0.4188 -0.3597 0.0052
H15 H 0.5423 -0.3973 0.0141
C26 C 0.1630(3) 0.3495(5) 0.20704(7)
H16 H 0.0857 0.3410 0.2093
C27 C 0.1685(3) 0.4943(5) 0.25045(7)
C28 C 0.5336(3) -0.2262(4) -0.01355(7)
H17 H 0.4808 -0.1484 -0.0181
H18 H 0.5435 -0.2911 -0.0292
H19 H 0.6043 -0.1816 -0.0087
C29 C 0.3863(3) 0.3717(5) 0.19952(7)
H20 H 0.4635 0.3815 0.1973
C30 C 0.7712(3) 0.4509(5) 0.04240(8)
H21 H 0.8295 0.4786 0.0551
H22 H 0.7820 0.5031 0.0252
H23 H 0.7737 0.3442 0.0392
C31 C 0.3359(3) 0.4394(5) 0.22205(8)
H24 H 0.3793 0.4933 0.2346
loop_
_geom_bond_atom_site_label_1
_geom_bond_atom_site_label_2
_geom_bond_site_symmetry_1
_geom_bond_site_symmetry_2
O1 C11 1_555 1_555
C1 C2 1_555 1_555
N1 C2 1_555 1_555
C2 C10 1_555 1_555
C3 C1 1_555 1_555
H1 C3 1_555 1_555
O2 C16 1_555 1_555
C4 N1 1_555 1_555
C5 C1 1_555 1_555
O3 C11 1_555 1_555
C6 C4 1_555 1_555
H2 C6 1_555 1_555
C7 C3 1_555 1_555
C8 C5 1_555 1_555
C9 C4 1_555 1_555
C10 H3 1_555 1_555
C11 C7 1_555 1_555
C12 H4 1_555 1_555
C13 C7 1_555 1_555
H5 C13 1_555 1_555
C14 C12 1_555 1_555
H6 C14 1_555 1_555
C15 C8 1_555 1_555
H7 C15 1_555 1_555
C16 C12 1_555 1_555
C17 C6 1_555 1_555
C18 C26 1_555 1_555
F1 C27 1_555 1_555
C19 C17 1_555 1_555
H8 C19 1_555 1_555
C20 H9 1_555 1_555
F2 C27 1_555 1_555
C21 C5 1_555 1_555
H10 C21 1_555 1_555
C22 C16 1_555 1_555
H11 C22 1_555 1_555
F3 C27 1_555 1_555
C23 C15 1_555 1_555
H12 C23 1_555 1_555
C24 C9 1_555 1_555
H13 C24 1_555 1_555
C25 O1 1_555 1_555
H14 C25 1_555 1_555
H15 C25 1_555 1_555
C26 C24 1_555 1_555
H16 C26 1_555 1_555
C27 C18 1_555 1_555
C28 C25 1_555 1_555
H17 C28 1_555 1_555
H18 C28 1_555 1_555
H19 C28 1_555 1_555
C29 C9 1_555 1_555
H20 C29 1_555 1_555
C30 O2 1_555 1_555
H21 C30 1_555 1_555
H22 C30 1_555 1_555
H23 C30 1_555 1_555
C31 C18 1_555 1_555
H24 C31 1_555 1_555
C6 C8 1_555 1_555
C10 C13 1_555 1_555
C14 C17 1_555 1_555
C19 C22 1_555 1_555
C20 C21 1_555 1_555
C20 C23 1_555 1_555
C29 C31 1_555 1_555

#END
