
#######################################################################
#
#                 Cambridge Crystallographic Data Centre
#                                CCDC 
#
#######################################################################
#
# If this CIF has been generated from an entry in the Cambridge 
# Structural Database, then it will include bibliographic, chemical, 
# crystal, experimental, refinement or atomic coordinate data resulting 
# from the CCDC's data processing and validation procedures.
#
#######################################################################

data_QUWHIB
_chemical_formula_moiety         'C18 H22 N2 O2'
_chemical_name_systematic        
3-((dimethylamino)methylene)-1-((4-methylphenyl)imino)-2-oxaspiro[4.4]nonan-4-one
_symmetry_cell_setting           monoclinic
_symmetry_space_group_name_H-M   'P 21/c'
_symmetry_Int_Tables_number      14
_space_group_name_Hall           '-P 2ybc'
loop_
_symmetry_equiv_pos_site_id
_symmetry_equiv_pos_as_xyz
1 x,y,z
2 -x,1/2+y,1/2-z
3 -x,-y,-z
4 x,1/2-y,1/2+z
_cell_length_a                   8.340(11)
_cell_length_b                   25.16(3)
_cell_length_c                   8.134(10)
_cell_angle_alpha                90
_cell_angle_beta                 109.63(2)
_cell_angle_gamma                90
_cell_volume                     1607.6
_exptl_crystal_colour            colorless
_exptl_crystal_description       block
_chemical_melting_point          '399.15-400.15 K'
_cell_formula_units_Z            4
_exptl_crystal_recrystallization_method dichloromethane
loop_
_atom_site_label
_atom_site_type_symbol
_atom_site_fract_x
_atom_site_fract_y
_atom_site_fract_z
O1 O -0.6550(5) 0.44339(15) -1.6855(4)
O2 O -0.8946(4) 0.40550(12) -1.4268(3)
N1 N -1.0637(5) 0.33428(15) -1.5643(4)
N2 N -0.7318(5) 0.50324(15) -1.2233(4)
C1 C -0.8422(8) 0.3363(3) -1.9516(7)
H1 H -0.9141 0.3194 -2.0579
H2 H -0.7602 0.3588 -1.9794
C2 C -0.7755(6) 0.43940(17) -1.4610(5)
C3 C -1.3586(6) 0.33197(19) -1.2348(5)
C4 C -1.1575(6) 0.33570(17) -1.4475(5)
C5 C -0.9459(6) 0.36711(17) -1.5538(5)
C6 C -0.7082(6) 0.48236(19) -1.3637(5)
H3 H -0.6307 0.5009 -1.4017
C7 C -1.2893(6) 0.28683(19) -1.2769(5)
H4 H -1.3099 0.2544 -1.2330
C8 C -0.8551(8) 0.4820(2) -1.1485(7)
H5 H -0.9568 0.5031 -1.1865
H6 H -0.8074 0.4829 -1.0235
H7 H -0.8820 0.4459 -1.1866
C9 C -0.7435(6) 0.42128(19) -1.6134(6)
C10 C -1.3246(6) 0.3797(2) -1.3023(6)
H8 H -1.3705 0.4109 -1.2760
C11 C -0.9481(6) 0.36869(18) -1.8696(5)
H9 H -1.0576 0.3520 -1.8887
H10 H -0.9666 0.4043 -1.9181
C12 C -0.8423(6) 0.37029(19) -1.6720(5)
C13 C -0.7184(7) 0.3221(2) -1.6456(6)
H11 H -0.6011 0.3341 -1.6011
H12 H -0.7369 0.2971 -1.5631
C14 C -1.2259(6) 0.38209(18) -1.4061(5)
H13 H -1.2045 0.4146 -1.4489
C15 C -1.1907(6) 0.28809(19) -1.3816(5)
H14 H -1.1460 0.2567 -1.4084
C16 C -0.6464(7) 0.5513(2) -1.1425(6)
H15 H -0.5584 0.5598 -1.1897
H16 H -0.5970 0.5460 -1.0188
H17 H -0.7270 0.5799 -1.1655
C17 C -1.4725(8) 0.3294(2) -1.1259(7)
H18 H -1.5236 0.2948 -1.1367
H19 H -1.5601 0.3558 -1.1654
H20 H -1.4067 0.3359 -1.0058
C18 C -0.755(3) 0.2964(8) -1.8209(17)
H21 H -0.6504 0.2853 -1.8373
H22 H -0.8275 0.2655 -1.8308
H23? H -0.8127 0.3577 -2.0365
H24? H -0.9064 0.3057 -2.0111
H25? H -0.6151 0.3282 -1.5475
H26? H -0.7718 0.2898 -1.6246
C19? C -0.681(3) 0.3182(9) -1.808(2)
H27? H -0.6531 0.2819 -1.8279
H28? H -0.5857 0.3409 -1.8037
loop_
_geom_bond_atom_site_label_1
_geom_bond_atom_site_label_2
_geom_bond_site_symmetry_1
_geom_bond_site_symmetry_2
O1 C9 1_555 1_555
O2 C2 1_555 1_555
N1 C4 1_555 1_555
N2 C6 1_555 1_555
C1 H1 1_555 1_555
H2 C1 1_555 1_555
C2 C6 1_555 1_555
C3 C7 1_555 1_555
C4 C14 1_555 1_555
C5 O2 1_555 1_555
C6 H3 1_555 1_555
C7 H4 1_555 1_555
C8 N2 1_555 1_555
H5 C8 1_555 1_555
H6 C8 1_555 1_555
H7 C8 1_555 1_555
C9 C2 1_555 1_555
C10 C3 1_555 1_555
H8 C10 1_555 1_555
C11 C1 1_555 1_555
H9 C11 1_555 1_555
H10 C11 1_555 1_555
C12 C5 1_555 1_555
C13 C12 1_555 1_555
H11 C13 1_555 1_555
H12 C13 1_555 1_555
C14 C10 1_555 1_555
H13 C14 1_555 1_555
C15 C4 1_555 1_555
H14 C15 1_555 1_555
C16 N2 1_555 1_555
H15 C16 1_555 1_555
H16 C16 1_555 1_555
H17 C16 1_555 1_555
C17 C3 1_555 1_555
H18 C17 1_555 1_555
H19 C17 1_555 1_555
H20 C17 1_555 1_555
C18 C1 1_555 1_555
H21 C18 1_555 1_555
H22 C18 1_555 1_555
N1 C5 1_555 1_555
C7 C15 1_555 1_555
C9 C12 1_555 1_555
C11 C12 1_555 1_555
C13 C18 1_555 1_555

#END
