
#######################################################################
#
#                 Cambridge Crystallographic Data Centre
#                                CCDC 
#
#######################################################################
#
# If this CIF has been generated from an entry in the Cambridge 
# Structural Database, then it will include bibliographic, chemical, 
# crystal, experimental, refinement or atomic coordinate data resulting 
# from the CCDC's data processing and validation procedures.
#
#######################################################################

data_QUWLAX
_chemical_formula_moiety         'C37 H23 N1 O2'
_chemical_name_systematic        
7,12,13-Triphenyl-2H-isoquinolino[2,1-b]pyrano[2,3,4-ij]isoquinolin-2-one
_symmetry_cell_setting           monoclinic
_symmetry_space_group_name_H-M   'P 21/c'
_symmetry_Int_Tables_number      14
_space_group_name_Hall           '-P 2ybc'
loop_
_symmetry_equiv_pos_site_id
_symmetry_equiv_pos_as_xyz
1 x,y,z
2 -x,1/2+y,1/2-z
3 -x,-y,-z
4 x,1/2-y,1/2+z
_cell_length_a                   12.1861(17)
_cell_length_b                   20.752(3)
_cell_length_c                   10.6039(15)
_cell_angle_alpha                90
_cell_angle_beta                 108.042(3)
_cell_angle_gamma                90
_cell_volume                     2549.72
_exptl_crystal_colour            gold
_exptl_crystal_description       Block
_cell_formula_units_Z            4
loop_
_atom_site_label
_atom_site_type_symbol
_atom_site_fract_x
_atom_site_fract_y
_atom_site_fract_z
O1 O 0.44617(8) 0.58020(4) 0.93416(9)
O2 O 0.56519(9) 0.62845(4) 1.10970(10)
N1 N 0.71875(9) 0.52429(5) 0.79704(11)
C1 C 0.55767(12) 0.59687(6) 1.01113(13)
C2 C 0.65179(12) 0.57658(6) 0.96635(13)
H1 H 0.7283 0.5889 1.0151
C3 C 0.63355(11) 0.53989(6) 0.85490(12)
C4 C 0.51970(11) 0.51637(6) 0.78803(12)
C5 C 0.42775(12) 0.53910(6) 0.82779(13)
C6 C 0.31515(12) 0.52145(6) 0.76100(14)
H2 H 0.2529 0.5375 0.7879
C7 C 0.29512(12) 0.47966(6) 0.65369(14)
H3 H 0.2180 0.4684 0.6052
C8 C 0.38548(11) 0.45409(6) 0.61592(13)
H4 H 0.3698 0.4251 0.5432
C9 C 0.49965(11) 0.47093(6) 0.68464(12)
C10 C 0.60054(11) 0.44060(6) 0.66405(12)
C11 C 0.70798(11) 0.46522(6) 0.72430(12)
C12 C 0.58202(11) 0.37996(6) 0.58536(12)
C13 C 0.53244(11) 0.32664(6) 0.62764(13)
H5 H 0.5035 0.3306 0.7008
C14 C 0.52551(12) 0.26791(6) 0.56274(14)
H6 H 0.4925 0.2317 0.5922
C15 C 0.56676(12) 0.26208(7) 0.45483(14)
H7 H 0.5650 0.2215 0.4130
C16 C 0.61046(12) 0.31567(7) 0.40839(14)
H8 H 0.6354 0.3122 0.3322
C17 C 0.61780(11) 0.37442(6) 0.47308(13)
H9 H 0.6474 0.4110 0.4407
C18 C 0.81959(11) 0.43609(6) 0.72788(12)
C19 C 0.83383(12) 0.36936(6) 0.71346(13)
H10 H 0.7708 0.3411 0.7061
C20 C 0.93812(12) 0.34433(7) 0.70987(14)
H11 H 0.9455 0.2993 0.6982
C21 C 1.03209(13) 0.38470(7) 0.72321(15)
H12 H 1.1025 0.3678 0.7166
C22 C 1.02220(12) 0.44968(7) 0.74612(14)
H13 H 1.0873 0.4770 0.7587
C23 C 0.91749(11) 0.47591(6) 0.75106(13)
C24 C 0.90873(11) 0.54388(6) 0.78220(13)
C25 C 1.00750(11) 0.58824(6) 0.78957(14)
C26 C 1.01487(12) 0.62099(7) 0.67800(15)
H14 H 0.9581 0.6140 0.5946
C27 C 1.10521(13) 0.66398(7) 0.68802(17)
H15 H 1.1101 0.6860 0.6114
C28 C 1.18768(13) 0.67463(7) 0.80938(17)
H16 H 1.2476 0.7050 0.8166
C29 C 1.18290(13) 0.64102(8) 0.92021(16)
H17 H 1.2404 0.6477 1.0032
C30 C 1.09385(12) 0.59755(7) 0.90999(15)
H18 H 1.0918 0.5739 0.9859
C31 C 0.81381(11) 0.56608(6) 0.80776(12)
C32 C 0.79873(11) 0.63621(6) 0.83228(13)
C33 C 0.86795(12) 0.66607(7) 0.94724(14)
H19 H 0.9252 0.6417 1.0106
C34 C 0.85417(13) 0.73099(7) 0.97004(16)
H20 H 0.8999 0.7506 1.0500
C35 C 0.77360(13) 0.76705(7) 0.87597(17)
H21 H 0.7641 0.8115 0.8912
C36 C 0.70663(13) 0.73841(7) 0.75945(16)
H22 H 0.6529 0.7636 0.6938
C37 C 0.71791(12) 0.67284(7) 0.73842(14)
H23 H 0.6702 0.6531 0.6597
loop_
_geom_bond_atom_site_label_1
_geom_bond_atom_site_label_2
_geom_bond_site_symmetry_1
_geom_bond_site_symmetry_2
O1 C1 1_555 1_555
O2 C1 1_555 1_555
N1 C3 1_555 1_555
C1 C2 1_555 1_555
C2 H1 1_555 1_555
C3 C2 1_555 1_555
C4 C3 1_555 1_555
C5 O1 1_555 1_555
C6 C5 1_555 1_555
H2 C6 1_555 1_555
C7 C6 1_555 1_555
H3 C7 1_555 1_555
C8 C7 1_555 1_555
H4 C8 1_555 1_555
C9 C4 1_555 1_555
C10 C9 1_555 1_555
C11 N1 1_555 1_555
C12 C10 1_555 1_555
C13 C12 1_555 1_555
H5 C13 1_555 1_555
C14 C13 1_555 1_555
H6 C14 1_555 1_555
C15 C14 1_555 1_555
H7 C15 1_555 1_555
C16 C15 1_555 1_555
H8 C16 1_555 1_555
C17 C12 1_555 1_555
H9 C17 1_555 1_555
C18 C11 1_555 1_555
C19 C18 1_555 1_555
H10 C19 1_555 1_555
C20 C19 1_555 1_555
H11 C20 1_555 1_555
C21 C20 1_555 1_555
H12 C21 1_555 1_555
C22 C21 1_555 1_555
H13 C22 1_555 1_555
C23 C18 1_555 1_555
C24 C23 1_555 1_555
C25 C24 1_555 1_555
C26 C25 1_555 1_555
H14 C26 1_555 1_555
C27 C26 1_555 1_555
H15 C27 1_555 1_555
C28 C27 1_555 1_555
H16 C28 1_555 1_555
C29 C28 1_555 1_555
H17 C29 1_555 1_555
C30 C25 1_555 1_555
H18 C30 1_555 1_555
C31 N1 1_555 1_555
C32 C31 1_555 1_555
C33 C32 1_555 1_555
H19 C33 1_555 1_555
C34 C33 1_555 1_555
H20 C34 1_555 1_555
C35 C34 1_555 1_555
H21 C35 1_555 1_555
C36 C35 1_555 1_555
H22 C36 1_555 1_555
C37 C32 1_555 1_555
H23 C37 1_555 1_555
C4 C5 1_555 1_555
C8 C9 1_555 1_555
C10 C11 1_555 1_555
C16 C17 1_555 1_555
C22 C23 1_555 1_555
C24 C31 1_555 1_555
C29 C30 1_555 1_555
C36 C37 1_555 1_555

#END
