
#######################################################################
#
#                 Cambridge Crystallographic Data Centre
#                                CCDC 
#
#######################################################################
#
# If this CIF has been generated from an entry in the Cambridge 
# Structural Database, then it will include bibliographic, chemical, 
# crystal, experimental, refinement or atomic coordinate data resulting 
# from the CCDC's data processing and validation procedures.
#
#######################################################################

data_QUWLEB
_chemical_formula_moiety         'C37 H22 Br1 N1 O2'
_chemical_name_systematic        
6-Bromo-7,12,13-triphenyl-2H-isoquinolino[2,1-b]pyrano[2,3,4-ij]isoquinolin-2-one
_symmetry_cell_setting           monoclinic
_symmetry_space_group_name_H-M   'P 21/c'
_symmetry_Int_Tables_number      14
_space_group_name_Hall           '-P 2ybc'
loop_
_symmetry_equiv_pos_site_id
_symmetry_equiv_pos_as_xyz
1 x,y,z
2 -x,1/2+y,1/2-z
3 -x,-y,-z
4 x,1/2-y,1/2+z
_cell_length_a                   12.156(2)
_cell_length_b                   20.600(4)
_cell_length_c                   11.533(2)
_cell_angle_alpha                90
_cell_angle_beta                 106.962(4)
_cell_angle_gamma                90
_cell_volume                     2762.39
_exptl_crystal_description       block
_cell_formula_units_Z            4
loop_
_atom_site_label
_atom_site_type_symbol
_atom_site_fract_x
_atom_site_fract_y
_atom_site_fract_z
Br1 Br 0.65331(5) -0.07485(3) 0.99617(6)
C1 C -0.0172(5) 0.1171(3) 0.8165(7)
H1 H 0.0373 0.1037 0.8871
C2 C -0.1053(7) 0.1616(4) 0.8227(9)
H2 H -0.1097 0.1763 0.8974
C3 C -0.1809(7) 0.1817(3) 0.7214(11)
H3 H -0.2356 0.2122 0.7266
C4 C -0.1815(6) 0.1602(4) 0.6130(10)
H4 H -0.2366 0.1752 0.5441
C5 C -0.0962(5) 0.1132(4) 0.6016(8)
H5 H -0.0975 0.0963 0.5264
C6 C -0.0132(4) 0.0942(2) 0.7057(5)
C7 C 0.0786(4) 0.0475(2) 0.6993(4)
C8 C 0.1734(4) 0.06934(19) 0.6715(4)
C9 C 0.1934(4) 0.1395(2) 0.6534(4)
C10 C 0.1279(5) 0.1732(3) 0.5533(6)
H6 H 0.0705 0.1518 0.4945
C11 C 0.1471(6) 0.2385(3) 0.5403(8)
H7 H 0.1042 0.2607 0.4718
C12 C 0.2286(7) 0.2704(3) 0.6275(9)
H8 H 0.2404 0.3145 0.6186
C13 C 0.2935(7) 0.2385(3) 0.7281(7)
H9 H 0.3474 0.2612 0.7884
C14 C 0.2788(5) 0.1722(2) 0.7403(5)
H10 H 0.3259 0.1499 0.8063
C15 C 0.2769(4) -0.0329(2) 0.7452(4)
C16 C 0.1659(4) -0.0625(2) 0.7455(4)
C17 C 0.0693(4) -0.0211(2) 0.7259(5)
C18 C -0.0359(4) -0.0469(3) 0.7313(6)
H11 H -0.0992 -0.0197 0.7199
C19 C -0.0468(5) -0.1119(3) 0.7532(6)
H12 H -0.1165 -0.1281 0.7587
C20 C 0.0456(5) -0.1530(2) 0.7670(5)
H13 H 0.0379 -0.1970 0.7807
C21 C 0.1508(4) -0.1286(2) 0.7605(5)
H14 H 0.2116 -0.1570 0.7663
C22 C 0.3851(4) -0.0564(2) 0.8021(4)
C23 C 0.4019(4) -0.1171(2) 0.8754(4)
C24 C 0.3731(4) -0.1203(2) 0.9812(5)
H15 H 0.3424 -0.0840 1.0084
C25 C 0.3892(5) -0.1774(3) 1.0487(5)
H16 H 0.3694 -0.1792 1.1207
C26 C 0.4341(5) -0.2307(3) 1.0091(6)
H17 H 0.4439 -0.2690 1.0537
C27 C 0.4649(5) -0.2282(2) 0.9034(5)
H18 H 0.4960 -0.2646 0.8770
C28 C 0.4496(4) -0.1716(2) 0.8372(5)
H19 H 0.4712 -0.1698 0.7663
C29 C 0.4852(4) -0.02340(19) 0.7833(4)
C30 C 0.4646(4) 0.01932(19) 0.6839(4)
C31 C 0.3486(4) 0.0403(2) 0.6195(4)
C32 C 0.3294(5) 0.0755(2) 0.5171(5)
H20 H 0.2540 0.0849 0.4730
C33 C 0.4214(5) 0.0988(2) 0.4736(5)
C34 C 0.5533(4) 0.0457(2) 0.6448(5)
C35 C 0.6660(4) 0.0335(3) 0.7078(5)
H21 H 0.7256 0.0503 0.6816
C36 C 0.6883(4) -0.0037(2) 0.8092(5)
H22 H 0.7644 -0.0105 0.8544
C37 C 0.6014(4) -0.0318(2) 0.8477(4)
N1 N 0.2649(3) 0.02519(17) 0.6769(3)
O1 O 0.4130(4) 0.12984(17) 0.3842(3)
O2 O 0.5328(3) 0.08519(15) 0.5453(3)
loop_
_geom_bond_atom_site_label_1
_geom_bond_atom_site_label_2
_geom_bond_site_symmetry_1
_geom_bond_site_symmetry_2
Br1 C37 1_555 1_555
C1 H1 1_555 1_555
C2 C1 1_555 1_555
H2 C2 1_555 1_555
C3 C2 1_555 1_555
H3 C3 1_555 1_555
C4 C3 1_555 1_555
H4 C4 1_555 1_555
C5 C4 1_555 1_555
H5 C5 1_555 1_555
C6 C1 1_555 1_555
C7 C6 1_555 1_555
C8 C7 1_555 1_555
C9 C8 1_555 1_555
C10 C9 1_555 1_555
H6 C10 1_555 1_555
C11 C10 1_555 1_555
H7 C11 1_555 1_555
C12 C11 1_555 1_555
H8 C12 1_555 1_555
C13 C12 1_555 1_555
H9 C13 1_555 1_555
C14 C9 1_555 1_555
H10 C14 1_555 1_555
C15 C16 1_555 1_555
C16 C17 1_555 1_555
C17 C7 1_555 1_555
C18 C17 1_555 1_555
H11 C18 1_555 1_555
C19 C18 1_555 1_555
H12 C19 1_555 1_555
C20 C19 1_555 1_555
H13 C20 1_555 1_555
C21 C16 1_555 1_555
H14 C21 1_555 1_555
C22 C15 1_555 1_555
C23 C22 1_555 1_555
C24 C23 1_555 1_555
H15 C24 1_555 1_555
C25 C24 1_555 1_555
H16 C25 1_555 1_555
C26 C25 1_555 1_555
H17 C26 1_555 1_555
C27 C26 1_555 1_555
H18 C27 1_555 1_555
C28 C23 1_555 1_555
H19 C28 1_555 1_555
C29 C22 1_555 1_555
C30 C29 1_555 1_555
C31 C30 1_555 1_555
C32 C31 1_555 1_555
H20 C32 1_555 1_555
C33 C32 1_555 1_555
C34 C30 1_555 1_555
C35 C34 1_555 1_555
H21 C35 1_555 1_555
C36 C35 1_555 1_555
H22 C36 1_555 1_555
C37 C29 1_555 1_555
N1 C8 1_555 1_555
O1 C33 1_555 1_555
O2 C33 1_555 1_555
C5 C6 1_555 1_555
C13 C14 1_555 1_555
C15 N1 1_555 1_555
C20 C21 1_555 1_555
C27 C28 1_555 1_555
C31 N1 1_555 1_555
C34 O2 1_555 1_555
C36 C37 1_555 1_555

#END
