
#######################################################################
#
#                 Cambridge Crystallographic Data Centre
#                                CCDC 
#
#######################################################################
#
# If this CIF has been generated from an entry in the Cambridge 
# Structural Database, then it will include bibliographic, chemical, 
# crystal, experimental, refinement or atomic coordinate data resulting 
# from the CCDC's data processing and validation procedures.
#
#######################################################################

data_QUWWOW
_chemical_formula_moiety         'C36 H34 N4 O8'
_chemical_name_systematic        
"diethyl 1'-benzyl-1-(4-methoxyphenyl)-5-(4-nitrophenyl)-2'-oxo-1',2'-dihydro-4H-spiro[imidazolidine-2,3'-indole]-4,4-dicarboxylate"
_symmetry_cell_setting           monoclinic
_symmetry_space_group_name_H-M   'P 21'
_symmetry_Int_Tables_number      4
_space_group_name_Hall           'P 2yb'
loop_
_symmetry_equiv_pos_site_id
_symmetry_equiv_pos_as_xyz
1 x,y,z
2 -x,1/2+y,-z
_cell_length_a                   7.96120(10)
_cell_length_b                   24.5627(4)
_cell_length_c                   16.5897(3)
_cell_angle_alpha                90
_cell_angle_beta                 90.8230(10)
_cell_angle_gamma                90
_cell_volume                     3243.76
_exptl_crystal_colour            colorless
_exptl_crystal_description       block
_cell_formula_units_Z            4
loop_
_atom_site_label
_atom_site_type_symbol
_atom_site_fract_x
_atom_site_fract_y
_atom_site_fract_z
O1 O -0.3187(3) 0.01085(13) 0.08142(18)
O2 O 0.0437(5) -0.16301(13) -0.1386(2)
O3 O 0.2895(4) 0.07853(13) 0.22141(19)
O4 O 0.3037(4) 0.15148(13) 0.13988(19)
O5 O -0.0611(4) 0.18165(13) 0.18323(19)
O6 O -0.0623(4) 0.16834(12) 0.05003(18)
O7 O 0.7363(4) 0.09939(15) -0.1454(2)
O8 O 0.5621(4) 0.13654(16) -0.2293(2)
N1 N -0.0466(4) 0.06270(14) 0.18125(19)
H1 H -0.1032 0.0733 0.2236
N2 N 0.0679(4) 0.01026(13) 0.08004(18)
N3 N -0.2576(4) -0.05778(14) 0.1717(2)
N4 N 0.5945(4) 0.11281(15) -0.1661(2)
C1 C -0.2229(5) -0.01160(17) 0.1293(2)
C2 C -0.0419(4) 0.00728(15) 0.1514(2)
C3 C 0.0127(5) -0.03673(16) 0.2101(2)
C4 C 0.1652(5) -0.04535(17) 0.2481(2)
H2 H 0.2548 -0.0201 0.2428
C5 C 0.1845(5) -0.09230(18) 0.2947(2)
H3 H 0.2893 -0.0994 0.3207
C6 C 0.0535(5) -0.12876(18) 0.3036(2)
H4 H 0.0694 -0.1600 0.3366
C7 C -0.1010(5) -0.12052(18) 0.2653(2)
H5 H -0.1912 -0.1455 0.2712
C8 C -0.1173(5) -0.07417(16) 0.2178(2)
C9 C -0.4159(5) -0.08724(18) 0.1663(3)
H6 H -0.4975 -0.0654 0.1344
H7 H -0.4613 -0.0917 0.2211
C10 C -0.3982(5) -0.14248(19) 0.1279(3)
C11 C -0.4661(6) -0.1886(2) 0.1632(3)
H8 H -0.5266 -0.1853 0.2119
C12 C -0.4467(8) -0.2390(2) 0.1285(4)
H9 H -0.4916 -0.2703 0.1539
C13 C -0.3613(8) -0.2443(2) 0.0560(4)
H10 H -0.3493 -0.2791 0.0317
C14 C -0.2947(7) -0.1990(2) 0.0200(3)
H11 H -0.2369 -0.2023 -0.0295
C15 C -0.3121(5) -0.1482(2) 0.0562(3)
H12 H -0.2645 -0.1170 0.0314
C16 C 0.0522(4) -0.03308(16) 0.0219(2)
C17 C 0.1354(5) -0.08154(17) 0.0379(2)
H13 H 0.1984 -0.0854 0.0866
C18 C 0.1277(6) -0.12422(18) -0.0161(3)
H14 H 0.1833 -0.1575 -0.0038
C19 C 0.0384(5) -0.11867(18) -0.0887(3)
C20 C -0.0431(5) -0.07047(18) -0.1060(2)
H15 H -0.1030 -0.0662 -0.1555
C21 C -0.0374(5) -0.02796(17) -0.0504(2)
H16 H -0.0954 0.0050 -0.0620
C22 C -0.0433(8) -0.1597(2) -0.2148(3)
H17 H 0.0075 -0.1311 -0.2477
H18 H -0.1618 -0.1510 -0.2060
H19 H -0.0351 -0.1947 -0.2428
C23 C 0.0562(4) 0.06670(16) 0.0499(2)
H20 H -0.0537 0.0720 0.0210
C24 C 0.0553(5) 0.09855(16) 0.1315(2)
C25 C 0.2313(5) 0.10715(17) 0.1695(3)
C26 C 0.4715(6) 0.1651(2) 0.1715(4)
H21 H 0.5582 0.1522 0.1338
H22 H 0.4905 0.1470 0.2242
C27 C 0.4835(6) 0.2245(2) 0.1811(3)
H23 H 0.4708 0.2420 0.1283
H24 H 0.5933 0.2339 0.2047
H25 H 0.3945 0.2371 0.2167
C28 C -0.0288(5) 0.15373(17) 0.1259(2)
C29 C -0.1354(7) 0.2217(2) 0.0359(3)
H26 H -0.0681 0.2502 0.0635
H27 H -0.2516 0.2230 0.0563
C30 C -0.1346(8) 0.2302(2) -0.0543(3)
H28 H -0.1927 0.1999 -0.0810
H29 H -0.0184 0.2320 -0.0728
H30 H -0.1923 0.2644 -0.0676
C31 C 0.1990(5) 0.07894(15) -0.0069(2)
C32 C 0.1652(5) 0.10528(18) -0.0794(2)
H31 H 0.0532 0.1157 -0.0926
C33 C 0.2934(5) 0.11645(19) -0.1327(2)
H32 H 0.2709 0.1340 -0.1827
C34 C 0.4541(5) 0.10129(17) -0.1109(2)
C35 C 0.4932(5) 0.07553(18) -0.0394(2)
H33 H 0.6059 0.0663 -0.0257
C36 C 0.3621(5) 0.06343(17) 0.0123(2)
H34 H 0.3846 0.0444 0.0611
O9 O -0.1803(3) 0.34732(12) -0.51984(18)
O10 O -0.5510(4) 0.46131(14) -0.83604(18)
O11 O -0.7283(3) 0.26678(13) -0.36561(18)
O12 O -0.5898(3) 0.19494(12) -0.41689(17)
O13 O -0.2582(3) 0.22070(12) -0.48896(18)
O14 O -0.2606(3) 0.25257(12) -0.36184(18)
O15 O -1.2166(4) 0.17745(18) -0.6565(2)
O16 O -1.0516(5) 0.10755(16) -0.6438(2)
N5 N -0.4764(4) 0.33467(13) -0.41005(19)
H35 H -0.4028 0.3378 -0.3719
N6 N -0.5594(4) 0.34960(13) -0.54173(19)
N7 N -0.2375(4) 0.43636(13) -0.4860(2)
N8 N -1.0803(5) 0.15720(19) -0.6424(2)
C37 C -0.2760(5) 0.38281(16) -0.4963(2)
C38 C -0.4628(4) 0.37400(16) -0.4739(2)
C39 C -0.5123(4) 0.43017(15) -0.4470(2)
C40 C -0.6578(5) 0.44827(18) -0.4117(2)
H36 H -0.7518 0.4247 -0.4067
C41 C -0.6647(5) 0.50160(19) -0.3833(3)
H37 H -0.7645 0.5146 -0.3592
C42 C -0.5271(5) 0.53574(19) -0.3898(3)
H38 H -0.5336 0.5720 -0.3702
C43 C -0.3786(5) 0.51759(17) -0.4250(3)
H39 H -0.2838 0.5408 -0.4294
C44 C -0.3746(4) 0.46470(16) -0.4531(2)
C45 C -0.0708(5) 0.45831(17) -0.4975(3)
H40 H 0.0108 0.4279 -0.4975
H41 H -0.0420 0.4823 -0.4514
C46 C -0.0526(5) 0.49033(17) -0.5746(3)
C47 C 0.0566(5) 0.53426(19) -0.5777(3)
H42 H 0.1151 0.5457 -0.5303
C48 C 0.0806(6) 0.5617(2) -0.6502(4)
H43 H 0.1564 0.5916 -0.6522
C49 C -0.0046(6) 0.5459(2) -0.7187(4)
H44 H 0.0123 0.5648 -0.7679
C50 C -0.1152(6) 0.5024(2) -0.7165(3)
H45 H -0.1753 0.4918 -0.7638
C51 C -0.1376(5) 0.47456(19) -0.6449(3)
H46 H -0.2118 0.4443 -0.6437
C52 C -0.5500(4) 0.37596(16) -0.6187(2)
C53 C -0.6366(5) 0.42457(19) -0.6299(3)
H47 H -0.7010 0.4389 -0.5871
C54 C -0.6309(5) 0.45221(19) -0.7018(3)
H48 H -0.6887 0.4859 -0.7075
C55 C -0.5410(5) 0.43137(18) -0.7665(2)
C56 C -0.4562(5) 0.38303(18) -0.7569(2)
H49 H -0.3954 0.3681 -0.8006
C57 C -0.4589(5) 0.35566(18) -0.6830(2)
H50 H -0.3977 0.3227 -0.6766
C58 C -0.4706(7) 0.4392(2) -0.9045(3)
H51 H -0.4996 0.4610 -0.9522
H52 H -0.5080 0.4016 -0.9128
H53 H -0.3486 0.4398 -0.8957
C59 C -0.5259(4) 0.29063(16) -0.5389(2)
H54 H -0.4241 0.2826 -0.5715
C60 C -0.4827(4) 0.28085(15) -0.4475(2)
C61 C -0.6166(5) 0.24693(17) -0.4043(2)
C62 C -0.7070(5) 0.15502(18) -0.3862(3)
H55 H -0.8151 0.1570 -0.4163
H56 H -0.7284 0.1616 -0.3284
C63 C -0.6276(6) 0.10108(19) -0.3975(3)
H57 H -0.6043 0.0956 -0.4548
H58 H -0.7038 0.0725 -0.3789
H59 H -0.5223 0.0995 -0.3663
C64 C -0.3186(5) 0.24866(16) -0.4373(3)
C65 C -0.1112(5) 0.2210(2) -0.3440(3)
H60 H -0.0140 0.2364 -0.3728
H61 H -0.1273 0.1829 -0.3620
C66 C -0.0795(6) 0.2226(2) -0.2556(3)
H62 H 0.0235 0.2024 -0.2427
H63 H -0.1743 0.2060 -0.2278
H64 H -0.0666 0.2605 -0.2381
C67 C -0.6726(5) 0.25779(16) -0.5721(2)
C68 C -0.8355(5) 0.27795(17) -0.5723(2)
H65 H -0.8558 0.3142 -0.5549
C69 C -0.9688(5) 0.24563(18) -0.5977(2)
H66 H -1.0802 0.2595 -0.5989
C70 C -0.9362(5) 0.19277(19) -0.6214(2)
C71 C -0.7753(5) 0.17200(18) -0.6239(2)
H67 H -0.7558 0.1358 -0.6416
C72 C -0.6427(5) 0.20525(17) -0.5999(2)
H68 H -0.5307 0.1920 -0.6024
loop_
_geom_bond_atom_site_label_1
_geom_bond_atom_site_label_2
_geom_bond_site_symmetry_1
_geom_bond_site_symmetry_2
O1 C1 1_555 1_555
O2 C19 1_555 1_555
O3 C25 1_555 1_555
O4 C25 1_555 1_555
O5 C28 1_555 1_555
O6 C28 1_555 1_555
O7 N4 1_555 1_555
O8 N4 1_555 1_555
N1 H1 1_555 1_555
N2 C2 1_555 1_555
N3 C1 1_555 1_555
N4 C34 1_555 1_555
C1 C2 1_555 1_555
C2 N1 1_555 1_555
C3 C2 1_555 1_555
C4 C3 1_555 1_555
H2 C4 1_555 1_555
C5 C4 1_555 1_555
H3 C5 1_555 1_555
C6 C5 1_555 1_555
H4 C6 1_555 1_555
C7 C6 1_555 1_555
H5 C7 1_555 1_555
C8 N3 1_555 1_555
C9 N3 1_555 1_555
H6 C9 1_555 1_555
H7 C9 1_555 1_555
C10 C9 1_555 1_555
C11 C10 1_555 1_555
H8 C11 1_555 1_555
C12 C11 1_555 1_555
H9 C12 1_555 1_555
C13 C12 1_555 1_555
H10 C13 1_555 1_555
C14 C13 1_555 1_555
H11 C14 1_555 1_555
C15 C10 1_555 1_555
H12 C15 1_555 1_555
C16 N2 1_555 1_555
C17 C16 1_555 1_555
H13 C17 1_555 1_555
C18 C17 1_555 1_555
H14 C18 1_555 1_555
C19 C18 1_555 1_555
C20 C19 1_555 1_555
H15 C20 1_555 1_555
C21 C16 1_555 1_555
H16 C21 1_555 1_555
C22 O2 1_555 1_555
H17 C22 1_555 1_555
H18 C22 1_555 1_555
H19 C22 1_555 1_555
C23 N2 1_555 1_555
H20 C23 1_555 1_555
C24 N1 1_555 1_555
C25 C24 1_555 1_555
C26 O4 1_555 1_555
H21 C26 1_555 1_555
H22 C26 1_555 1_555
C27 C26 1_555 1_555
H23 C27 1_555 1_555
H24 C27 1_555 1_555
H25 C27 1_555 1_555
C28 C24 1_555 1_555
C29 O6 1_555 1_555
H26 C29 1_555 1_555
H27 C29 1_555 1_555
C30 C29 1_555 1_555
H28 C30 1_555 1_555
H29 C30 1_555 1_555
H30 C30 1_555 1_555
C31 C23 1_555 1_555
C32 C31 1_555 1_555
H31 C32 1_555 1_555
C33 C32 1_555 1_555
H32 C33 1_555 1_555
C34 C33 1_555 1_555
C35 C34 1_555 1_555
H33 C35 1_555 1_555
C36 C31 1_555 1_555
H34 C36 1_555 1_555
O9 C37 1_555 1_555
O10 C55 1_555 1_555
O11 C61 1_555 1_555
O12 C61 1_555 1_555
O13 C64 1_555 1_555
O14 C64 1_555 1_555
O15 N8 1_555 1_555
O16 N8 1_555 1_555
N5 H35 1_555 1_555
N6 C38 1_555 1_555
N7 C37 1_555 1_555
N8 C70 1_555 1_555
C37 C38 1_555 1_555
C38 N5 1_555 1_555
C39 C38 1_555 1_555
C40 C39 1_555 1_555
H36 C40 1_555 1_555
C41 C40 1_555 1_555
H37 C41 1_555 1_555
C42 C41 1_555 1_555
H38 C42 1_555 1_555
C43 C42 1_555 1_555
H39 C43 1_555 1_555
C44 N7 1_555 1_555
C45 N7 1_555 1_555
H40 C45 1_555 1_555
H41 C45 1_555 1_555
C46 C45 1_555 1_555
C47 C46 1_555 1_555
H42 C47 1_555 1_555
C48 C47 1_555 1_555
H43 C48 1_555 1_555
C49 C48 1_555 1_555
H44 C49 1_555 1_555
C50 C49 1_555 1_555
H45 C50 1_555 1_555
C51 C46 1_555 1_555
H46 C51 1_555 1_555
C52 N6 1_555 1_555
C53 C52 1_555 1_555
H47 C53 1_555 1_555
C54 C53 1_555 1_555
H48 C54 1_555 1_555
C55 C54 1_555 1_555
C56 C55 1_555 1_555
H49 C56 1_555 1_555
C57 C52 1_555 1_555
H50 C57 1_555 1_555
C58 O10 1_555 1_555
H51 C58 1_555 1_555
H52 C58 1_555 1_555
H53 C58 1_555 1_555
C59 N6 1_555 1_555
H54 C59 1_555 1_555
C60 N5 1_555 1_555
C61 C60 1_555 1_555
C62 O12 1_555 1_555
H55 C62 1_555 1_555
H56 C62 1_555 1_555
C63 C62 1_555 1_555
H57 C63 1_555 1_555
H58 C63 1_555 1_555
H59 C63 1_555 1_555
C64 C60 1_555 1_555
C65 O14 1_555 1_555
H60 C65 1_555 1_555
H61 C65 1_555 1_555
C66 C65 1_555 1_555
H62 C66 1_555 1_555
H63 C66 1_555 1_555
H64 C66 1_555 1_555
C67 C59 1_555 1_555
C68 C67 1_555 1_555
H65 C68 1_555 1_555
C69 C68 1_555 1_555
H66 C69 1_555 1_555
C70 C69 1_555 1_555
C71 C70 1_555 1_555
H67 C71 1_555 1_555
C72 C67 1_555 1_555
H68 C72 1_555 1_555
C3 C8 1_555 1_555
C7 C8 1_555 1_555
C14 C15 1_555 1_555
C20 C21 1_555 1_555
C23 C24 1_555 1_555
C35 C36 1_555 1_555
C39 C44 1_555 1_555
C43 C44 1_555 1_555
C50 C51 1_555 1_555
C56 C57 1_555 1_555
C59 C60 1_555 1_555
C71 C72 1_555 1_555

#END
