
#######################################################################
#
#                 Cambridge Crystallographic Data Centre
#                                CCDC 
#
#######################################################################
#
# If this CIF has been generated from an entry in the Cambridge 
# Structural Database, then it will include bibliographic, chemical, 
# crystal, experimental, refinement or atomic coordinate data resulting 
# from the CCDC's data processing and validation procedures.
#
#######################################################################

data_QUWXIR
_chemical_name_common            
(2,4-dimethylpyridine)(hydrido)bis(2,4,6-tris(trifluoromethyl)phenyl)boron
_chemical_formula_moiety         'C25 H14 B1 F18 N1'
_chemical_name_systematic        
1-(bis(2,4,6-tris(trifluoromethyl)phenyl)boranyl)-2,4-dimethyl-1-pyridine
_symmetry_cell_setting           monoclinic
_symmetry_space_group_name_H-M   'P 21/n'
_symmetry_Int_Tables_number      14
_space_group_name_Hall           '-P 2yn'
loop_
_symmetry_equiv_pos_site_id
_symmetry_equiv_pos_as_xyz
1 x,y,z
2 1/2-x,1/2+y,1/2-z
3 -x,-y,-z
4 1/2+x,1/2-y,1/2+z
_cell_length_a                   8.7459(12)
_cell_length_b                   15.848(2)
_cell_length_c                   19.209(3)
_cell_angle_alpha                90
_cell_angle_beta                 91.085(2)
_cell_angle_gamma                90
_cell_volume                     2661.99
_exptl_crystal_colour            colorless
_exptl_crystal_description       block
_cell_formula_units_Z            4
loop_
_atom_site_label
_atom_site_type_symbol
_atom_site_fract_x
_atom_site_fract_y
_atom_site_fract_z
N1 N 0.06585(15) 0.40554(9) 0.19569(7)
B1 B 0.0997(2) 0.49969(11) 0.22458(9)
H1 H -0.013(2) 0.5288(11) 0.2215(9)
F1 F 0.08949(13) 0.67589(6) 0.24467(5)
F2 F -0.11993(12) 0.63856(8) 0.29336(6)
F3 F 0.03205(14) 0.72619(7) 0.34363(6)
F4 F 0.31190(16) 0.34776(8) 0.26934(7)
F5 F 0.3450(2) 0.31688(9) 0.37604(8)
F6 F 0.1230(2) 0.30634(8) 0.32869(8)
F7 F -0.12063(12) 0.62321(8) 0.13179(6)
F8 F -0.08912(13) 0.58874(9) 0.02564(6)
F9 F -0.10794(12) 0.49262(7) 0.10227(6)
F10 F 0.1800(6) 0.4944(4) 0.5694(2)
F11 F 0.3914(5) 0.5373(5) 0.5436(2)
F12 F 0.2147(16) 0.6258(3) 0.5499(3)
F13 F 0.3656(6) 0.6500(7) -0.0692(3)
F14 F 0.488(2) 0.7291(6) -0.0033(3)
F15 F 0.5686(8) 0.6086(9) -0.0232(4)
F16 F 0.40790(15) 0.60795(11) 0.28392(7)
F17 F 0.46245(15) 0.48127(11) 0.25565(8)
F18 F 0.60278(13) 0.58269(12) 0.22192(7)
C1 C -0.06564(19) 0.36518(11) 0.21108(9)
C2 C -0.1070(2) 0.29231(12) 0.17545(10)
H2 H -0.1990 0.2644 0.1873
C3 C -0.0185(2) 0.25908(12) 0.12330(9)
C4 C 0.1185(2) 0.29975(11) 0.11054(9)
H3 H 0.1856 0.2782 0.0765
C5 C 0.15688(19) 0.37095(11) 0.14701(9)
H4 H 0.2518 0.3974 0.1378
C6 C -0.1689(2) 0.40080(13) 0.26515(11)
H5 H -0.1091 0.4136 0.3075
H6 H -0.2484 0.3595 0.2759
H7 H -0.2168 0.4526 0.2474
C7 C -0.0682(3) 0.18294(14) 0.08210(12)
H8 H -0.1663 0.1625 0.0993
H9 H 0.0089 0.1384 0.0872
H10 H -0.0797 0.1982 0.0328
C8 C 0.14686(17) 0.50601(10) 0.30823(8)
C9 C 0.10946(18) 0.58261(11) 0.34258(8)
C10 C 0.1381(2) 0.59701(12) 0.41281(9)
H11 H 0.1116 0.6496 0.4329
C11 C 0.2051(2) 0.53517(12) 0.45345(9)
C12 C 0.2399(2) 0.45859(12) 0.42397(9)
H12 H 0.2838 0.4152 0.4520
C13 C 0.2115(2) 0.44413(11) 0.35327(9)
C14 C 0.0293(2) 0.65472(11) 0.30531(9)
C15 C 0.2388(3) 0.55093(15) 0.52917(10)
C16 C 0.2487(3) 0.35468(13) 0.33103(11)
C17 C 0.20230(18) 0.54892(10) 0.16482(8)
C18 C 0.12579(19) 0.57320(11) 0.10178(8)
C19 C 0.2018(2) 0.60729(12) 0.04551(9)
H13 H 0.1463 0.6215 0.0041
C20 C 0.3574(2) 0.62055(13) 0.04954(10)
C21 C 0.4359(2) 0.60389(12) 0.11070(10)
H14 H 0.5422 0.6158 0.1146
C22 C 0.35939(19) 0.56953(11) 0.16679(9)
C23 C -0.0468(2) 0.56889(12) 0.09148(9)
C24 C 0.4396(3) 0.6562(2) -0.01166(13)
C25 C 0.4571(2) 0.55950(15) 0.23160(11)
F19? F 0.421(2) 0.6153(10) -0.0672(5)
F20? F 0.3847(9) 0.7350(6) -0.0269(6)
F21? F 0.5778(6) 0.6735(9) -0.0015(4)
F22? F 0.2215(17) 0.4860(4) 0.5688(4)
F23? F 0.3578(13) 0.5910(12) 0.5426(4)
F24? F 0.1206(9) 0.5994(7) 0.5555(3)
loop_
_geom_bond_atom_site_label_1
_geom_bond_atom_site_label_2
_geom_bond_site_symmetry_1
_geom_bond_site_symmetry_2
N1 B1 1_555 1_555
B1 H1 1_555 1_555
F1 C14 1_555 1_555
F2 C14 1_555 1_555
F3 C14 1_555 1_555
F4 C16 1_555 1_555
F5 C16 1_555 1_555
F6 C16 1_555 1_555
F7 C23 1_555 1_555
F8 C23 1_555 1_555
F9 C23 1_555 1_555
F10 C15 1_555 1_555
F11 C15 1_555 1_555
F12 C15 1_555 1_555
F13 C24 1_555 1_555
F14 C24 1_555 1_555
F15 C24 1_555 1_555
F16 C25 1_555 1_555
F17 C25 1_555 1_555
F18 C25 1_555 1_555
C1 N1 1_555 1_555
C2 C1 1_555 1_555
H2 C2 1_555 1_555
C3 C2 1_555 1_555
C4 C3 1_555 1_555
H3 C4 1_555 1_555
C5 N1 1_555 1_555
H4 C5 1_555 1_555
C6 C1 1_555 1_555
H5 C6 1_555 1_555
H6 C6 1_555 1_555
H7 C6 1_555 1_555
C7 C3 1_555 1_555
H8 C7 1_555 1_555
H9 C7 1_555 1_555
H10 C7 1_555 1_555
C8 B1 1_555 1_555
C9 C8 1_555 1_555
C10 C9 1_555 1_555
H11 C10 1_555 1_555
C11 C10 1_555 1_555
C12 C11 1_555 1_555
H12 C12 1_555 1_555
C13 C8 1_555 1_555
C14 C9 1_555 1_555
C15 C11 1_555 1_555
C16 C13 1_555 1_555
C17 B1 1_555 1_555
C18 C17 1_555 1_555
C19 C18 1_555 1_555
H13 C19 1_555 1_555
C20 C19 1_555 1_555
C21 C20 1_555 1_555
H14 C21 1_555 1_555
C22 C17 1_555 1_555
C23 C18 1_555 1_555
C24 C20 1_555 1_555
C25 C22 1_555 1_555
C4 C5 1_555 1_555
C12 C13 1_555 1_555
C21 C22 1_555 1_555

#END
