
#######################################################################
#
#                 Cambridge Crystallographic Data Centre
#                                CCDC 
#
#######################################################################
#
# If this CIF has been generated from an entry in the Cambridge 
# Structural Database, then it will include bibliographic, chemical, 
# crystal, experimental, refinement or atomic coordinate data resulting 
# from the CCDC's data processing and validation procedures.
#
#######################################################################

data_QUWXOX
_chemical_formula_moiety         'C31 H23 B2 F18 N1 O2'
_chemical_name_systematic        
2-((bis(2,4,6-tris(trifluoromethyl)phenyl)boryl)methylene)-6-methyl-1-(4,4,5,5-tetramethyl-1,3,2-dioxaborolan-2-yl)-1,2-dihydropyridine
_symmetry_cell_setting           triclinic
_symmetry_space_group_name_H-M   'P -1'
_symmetry_Int_Tables_number      2
_space_group_name_Hall           '-P 1'
loop_
_symmetry_equiv_pos_site_id
_symmetry_equiv_pos_as_xyz
1 x,y,z
2 -x,-y,-z
_cell_length_a                   8.8508(16)
_cell_length_b                   11.638(2)
_cell_length_c                   17.057(3)
_cell_angle_alpha                92.540(3)
_cell_angle_beta                 90.638(3)
_cell_angle_gamma                106.369(3)
_cell_volume                     1683.58
_exptl_crystal_colour            orange
_exptl_crystal_description       block
_cell_formula_units_Z            2
loop_
_atom_site_label
_atom_site_type_symbol
_atom_site_fract_x
_atom_site_fract_y
_atom_site_fract_z
B1 B 0.3606(3) -0.1184(2) 0.23218(16)
B2 B 0.7001(3) 0.2063(2) 0.22431(15)
O1 O 0.3075(2) -0.07880(16) 0.29924(10)
O2 O 0.4125(2) -0.21579(15) 0.23683(10)
N1 N 0.3566(2) -0.05828(17) 0.15666(11)
F1 F 1.0377(2) 0.3902(2) 0.19100(12)
F2 F 0.9367(2) 0.26617(19) 0.10063(19)
F3 F 1.0388(2) 0.4494(2) 0.07761(15)
F4 F 0.6815(3) 0.73870(15) 0.11944(12)
F5 F 0.6775(3) 0.65400(19) 0.00597(12)
F6 F 0.4651(3) 0.63775(19) 0.06631(15)
F7 F 0.3431(2) 0.37551(15) 0.28302(11)
F8 F 0.27254(19) 0.24665(17) 0.18680(12)
F9 F 0.4047(2) 0.21179(15) 0.28342(11)
F10 F 1.05498(19) 0.00464(16) 0.21925(10)
F11 F 0.8106(2) -0.07030(15) 0.24205(12)
F12 F 0.8837(2) 0.05580(18) 0.15308(9)
F13 F 1.3174(10) 0.2016(14) 0.4480(6)
F14 F 1.1979(14) 0.2921(9) 0.5281(5)
F15 F 1.1308(8) 0.1063(8) 0.5137(5)
F16 F 0.6400(2) 0.35541(19) 0.36231(11)
F17 F 0.8314(3) 0.4534(2) 0.43716(11)
F18 F 0.8357(2) 0.48144(15) 0.31422(12)
C1 C 0.2374(3) -0.1072(2) 0.10200(14)
C2 C 0.2266(3) -0.0485(2) 0.03633(15)
H1 H 0.1448 -0.0810 -0.0008
C3 C 0.3383(3) 0.0610(2) 0.02410(15)
H2 H 0.3307 0.1018 -0.0215
C4 C 0.4570(3) 0.1090(2) 0.07710(14)
H3 H 0.5311 0.1823 0.0677
C5 C 0.4707(3) 0.04957(19) 0.14690(13)
C6 C 0.5934(3) 0.0875(2) 0.20382(14)
H4 H 0.6094 0.0259 0.2338
C7 C 0.1234(3) -0.2246(3) 0.11943(18)
H5 H 0.0448 -0.2491 0.0773
H6 H 0.0722 -0.2161 0.1684
H7 H 0.1794 -0.2848 0.1238
C8 C 0.3580(4) -0.1444(3) 0.36162(16)
C9 C 0.3767(3) -0.2581(2) 0.31603(17)
C10 C 0.5122(4) -0.0627(3) 0.39594(17)
H8 H 0.5933 -0.0534 0.3571
H9 H 0.5430 -0.0977 0.4419
H10 H 0.4985 0.0151 0.4108
C11 C 0.2339(5) -0.1668(4) 0.4240(2)
H11 H 0.2313 -0.0910 0.4491
H12 H 0.2592 -0.2172 0.4629
H13 H 0.1317 -0.2067 0.3998
C12 C 0.5105(4) -0.3036(3) 0.3452(2)
H14 H 0.5122 -0.3751 0.3142
H15 H 0.4953 -0.3225 0.3999
H16 H 0.6096 -0.2422 0.3401
C13 C 0.2257(5) -0.3607(3) 0.3078(2)
H17 H 0.1376 -0.3290 0.2974
H18 H 0.2086 -0.4030 0.3561
H19 H 0.2346 -0.4155 0.2648
C14 C 0.6775(3) 0.3253(2) 0.18611(13)
C15 C 0.7933(3) 0.4004(2) 0.14001(14)
C16 C 0.7715(3) 0.4996(2) 0.10406(14)
H20 H 0.8515 0.5461 0.0735
C17 C 0.6330(3) 0.5298(2) 0.11315(15)
C18 C 0.5166(3) 0.4611(2) 0.15787(15)
H21 H 0.4223 0.4821 0.1646
C19 C 0.5369(3) 0.3606(2) 0.19339(14)
C20 C 0.9495(3) 0.3756(2) 0.12642(16)
C21 C 0.6149(4) 0.6399(3) 0.07654(17)
C22 C 0.3919(3) 0.2966(2) 0.23756(17)
C23 C 0.8388(3) 0.2141(2) 0.28948(13)
C24 C 0.9292(3) 0.1311(2) 0.28775(13)
C25 C 1.0410(3) 0.1310(2) 0.34601(15)
H22 H 1.0966 0.0730 0.3430
C26 C 1.0706(3) 0.2145(3) 0.40754(15)
C27 C 0.9902(3) 0.3004(2) 0.41112(15)
H23 H 1.0124 0.3596 0.4523
C28 C 0.8764(3) 0.2996(2) 0.35400(14)
C29 C 0.9176(3) 0.0322(2) 0.22500(15)
C30 C 1.1907(4) 0.2149(4) 0.4704(2)
C31 C 0.7950(4) 0.3966(3) 0.36608(16)
F19? F 1.3054(10) 0.3346(7) 0.4715(7)
F20? F 1.1496(9) 0.2030(19) 0.5351(3)
F21? F 1.2904(14) 0.1600(13) 0.4492(7)
loop_
_geom_bond_atom_site_label_1
_geom_bond_atom_site_label_2
_geom_bond_site_symmetry_1
_geom_bond_site_symmetry_2
B1 O1 1_555 1_555
B2 C6 1_555 1_555
O1 C8 1_555 1_555
O2 B1 1_555 1_555
N1 B1 1_555 1_555
F1 C20 1_555 1_555
F2 C20 1_555 1_555
F3 C20 1_555 1_555
F4 C21 1_555 1_555
F5 C21 1_555 1_555
F6 C21 1_555 1_555
F7 C22 1_555 1_555
F8 C22 1_555 1_555
F9 C22 1_555 1_555
F10 C29 1_555 1_555
F11 C29 1_555 1_555
F12 C29 1_555 1_555
F13 C30 1_555 1_555
F14 C30 1_555 1_555
F15 C30 1_555 1_555
F16 C31 1_555 1_555
F17 C31 1_555 1_555
F18 C31 1_555 1_555
C1 N1 1_555 1_555
C2 C1 1_555 1_555
H1 C2 1_555 1_555
C3 C2 1_555 1_555
H2 C3 1_555 1_555
C4 C3 1_555 1_555
H3 C4 1_555 1_555
C5 N1 1_555 1_555
C6 C5 1_555 1_555
H4 C6 1_555 1_555
C7 C1 1_555 1_555
H5 C7 1_555 1_555
H6 C7 1_555 1_555
H7 C7 1_555 1_555
C8 C9 1_555 1_555
C9 O2 1_555 1_555
C10 C8 1_555 1_555
H8 C10 1_555 1_555
H9 C10 1_555 1_555
H10 C10 1_555 1_555
C11 C8 1_555 1_555
H11 C11 1_555 1_555
H12 C11 1_555 1_555
H13 C11 1_555 1_555
C12 C9 1_555 1_555
H14 C12 1_555 1_555
H15 C12 1_555 1_555
H16 C12 1_555 1_555
C13 C9 1_555 1_555
H17 C13 1_555 1_555
H18 C13 1_555 1_555
H19 C13 1_555 1_555
C14 B2 1_555 1_555
C15 C14 1_555 1_555
C16 C15 1_555 1_555
H20 C16 1_555 1_555
C17 C16 1_555 1_555
C18 C17 1_555 1_555
H21 C18 1_555 1_555
C19 C14 1_555 1_555
C20 C15 1_555 1_555
C21 C17 1_555 1_555
C22 C19 1_555 1_555
C23 B2 1_555 1_555
C24 C23 1_555 1_555
C25 C24 1_555 1_555
H22 C25 1_555 1_555
C26 C25 1_555 1_555
C27 C26 1_555 1_555
H23 C27 1_555 1_555
C28 C23 1_555 1_555
C29 C24 1_555 1_555
C30 C26 1_555 1_555
C31 C28 1_555 1_555
C4 C5 1_555 1_555
C18 C19 1_555 1_555
C27 C28 1_555 1_555

#END
