
#######################################################################
#
#                 Cambridge Crystallographic Data Centre
#                                CCDC 
#
#######################################################################
#
# If this CIF has been generated from an entry in the Cambridge 
# Structural Database, then it will include bibliographic, chemical, 
# crystal, experimental, refinement or atomic coordinate data resulting 
# from the CCDC's data processing and validation procedures.
#
#######################################################################

data_QUWXAJ
_chemical_formula_moiety         'C25 H12 B1 F18 N1'
_chemical_name_systematic        
4-methyl-8,8-bis(2,4,6-tris(trifluoromethyl)phenyl)-1-aza-8-borabicyclo[4.2.0]octa-1,3,5-triene
_symmetry_cell_setting           monoclinic
_symmetry_space_group_name_H-M   'C 2/c'
_symmetry_Int_Tables_number      15
_space_group_name_Hall           '-C 2yn'
loop_
_symmetry_equiv_pos_site_id
_symmetry_equiv_pos_as_xyz
1 x,y,z
2 -x,y,1/2-z
3 1/2+x,1/2+y,z
4 1/2-x,1/2+y,1/2-z
5 -x,-y,-z
6 x,-y,1/2+z
7 1/2-x,1/2-y,-z
8 1/2+x,1/2-y,1/2+z
_cell_length_a                   25.046(3)
_cell_length_b                   11.9756(16)
_cell_length_c                   17.580(2)
_cell_angle_alpha                90
_cell_angle_beta                 100.011(2)
_cell_angle_gamma                90
_cell_volume                     5192.68
_exptl_crystal_colour            colorless
_exptl_crystal_description       block
_cell_formula_units_Z            8
loop_
_atom_site_label
_atom_site_type_symbol
_atom_site_fract_x
_atom_site_fract_y
_atom_site_fract_z
B1 B 0.16004(9) 0.4486(2) 0.14235(13)
N1 N 0.22600(7) 0.45689(15) 0.14684(10)
F1 F 0.05492(5) 0.51007(11) 0.08194(8)
F2 F -0.01296(5) 0.40176(12) 0.07677(9)
F3 F 0.02584(6) 0.46625(13) 0.18567(8)
F4 F 0.05484(7) -0.04031(15) 0.20101(12)
F5 F -0.01414(8) 0.03217(18) 0.1335(2)
F6 F 0.04434(12) -0.05361(18) 0.07950(15)
F7 F 0.22600(6) 0.25449(13) 0.06947(9)
F8 F 0.24729(6) 0.22973(12) 0.19194(9)
F9 F 0.22303(7) 0.09102(13) 0.11821(10)
F10 F 0.10793(6) 0.71538(12) 0.07515(8)
F11 F 0.14855(7) 0.82724(11) 0.16103(9)
F12 F 0.19297(6) 0.69422(12) 0.12119(8)
F13 F 0.0322(8) 0.7863(13) 0.3451(4)
F14 F 0.0473(3) 0.6531(6) 0.4252(5)
F15 F 0.1045(5) 0.7768(9) 0.4255(5)
F16 F 0.17010(7) 0.37076(12) 0.39016(7)
F17 F 0.11583(6) 0.29217(11) 0.29838(8)
F18 F 0.19714(6) 0.33382(12) 0.28443(7)
C1 C 0.16030(9) 0.4886(2) 0.05132(12)
H1 H 0.1472 0.4310 0.0121
H2 H 0.1427 0.5616 0.0375
C2 C 0.22042(9) 0.49410(19) 0.07363(12)
C3 C 0.26419(9) 0.5304(2) 0.04236(14)
H3 H 0.2599 0.5543 -0.0099
C4 C 0.31486(10) 0.5309(2) 0.08956(15)
C5 C 0.31912(10) 0.4940(2) 0.16582(15)
H4 H 0.3535 0.4940 0.1987
C6 C 0.27423(9) 0.4578(2) 0.19393(14)
H5 H 0.2773 0.4338 0.2460
C7 C 0.36397(11) 0.5713(3) 0.0588(2)
H6 H 0.3811 0.5081 0.0369
H7 H 0.3899 0.6045 0.1009
H8 H 0.3529 0.6274 0.0186
C8 C 0.12924(9) 0.32576(17) 0.13708(11)
C9 C 0.07175(9) 0.32330(19) 0.12852(12)
C10 C 0.04256(10) 0.2247(2) 0.12796(14)
H9 H 0.0042 0.2274 0.1236
C11 C 0.06843(10) 0.1235(2) 0.13369(16)
C12 C 0.12352(10) 0.1202(2) 0.13428(14)
H10 H 0.1414 0.0503 0.1341
C13 C 0.15298(9) 0.21795(18) 0.13519(12)
C14 C 0.03580(9) 0.42580(19) 0.11853(13)
C15 C 0.03760(12) 0.0169(2) 0.1357(2)
C16 C 0.21210(10) 0.1996(2) 0.12942(14)
C17 C 0.14322(8) 0.52983(17) 0.21180(12)
C18 C 0.13102(9) 0.64587(18) 0.20441(12)
C19 C 0.10642(10) 0.70418(19) 0.25654(14)
H11 H 0.0976 0.7807 0.2475
C20 C 0.09451(9) 0.65228(19) 0.32186(13)
C21 C 0.11101(9) 0.54417(18) 0.33711(12)
H12 H 0.1054 0.5091 0.3836
C22 C 0.13610(9) 0.48555(18) 0.28394(12)
C23 C 0.14489(10) 0.71815(19) 0.14001(14)
C24 C 0.06605(12) 0.7160(2) 0.37676(16)
C25 C 0.15460(10) 0.37106(19) 0.31273(12)
F19? F 0.0856(7) 0.8130(10) 0.3960(14)
F20? F 0.0137(3) 0.7391(14) 0.3404(7)
F21? F 0.0564(6) 0.6605(10) 0.4368(6)
loop_
_geom_bond_atom_site_label_1
_geom_bond_atom_site_label_2
_geom_bond_site_symmetry_1
_geom_bond_site_symmetry_2
B1 N1 1_555 1_555
N1 C2 1_555 1_555
F1 C14 1_555 1_555
F2 C14 1_555 1_555
F3 C14 1_555 1_555
F4 C15 1_555 1_555
F5 C15 1_555 1_555
F6 C15 1_555 1_555
F7 C16 1_555 1_555
F8 C16 1_555 1_555
F9 C16 1_555 1_555
F10 C23 1_555 1_555
F11 C23 1_555 1_555
F12 C23 1_555 1_555
F13 C24 1_555 1_555
F14 C24 1_555 1_555
F15 C24 1_555 1_555
F16 C25 1_555 1_555
F17 C25 1_555 1_555
F18 C25 1_555 1_555
C1 B1 1_555 1_555
H1 C1 1_555 1_555
H2 C1 1_555 1_555
C2 C1 1_555 1_555
C3 C2 1_555 1_555
H3 C3 1_555 1_555
C4 C3 1_555 1_555
C5 C4 1_555 1_555
H4 C5 1_555 1_555
C6 N1 1_555 1_555
H5 C6 1_555 1_555
C7 C4 1_555 1_555
H6 C7 1_555 1_555
H7 C7 1_555 1_555
H8 C7 1_555 1_555
C8 B1 1_555 1_555
C9 C8 1_555 1_555
C10 C9 1_555 1_555
H9 C10 1_555 1_555
C11 C10 1_555 1_555
C12 C11 1_555 1_555
H10 C12 1_555 1_555
C13 C8 1_555 1_555
C14 C9 1_555 1_555
C15 C11 1_555 1_555
C16 C13 1_555 1_555
C17 B1 1_555 1_555
C18 C17 1_555 1_555
C19 C18 1_555 1_555
H11 C19 1_555 1_555
C20 C19 1_555 1_555
C21 C20 1_555 1_555
H12 C21 1_555 1_555
C22 C17 1_555 1_555
C23 C18 1_555 1_555
C24 C20 1_555 1_555
C25 C22 1_555 1_555
C5 C6 1_555 1_555
C12 C13 1_555 1_555
C21 C22 1_555 1_555

#END
