
#######################################################################
#
#                 Cambridge Crystallographic Data Centre
#                                CCDC 
#
#######################################################################
#
# If this CIF has been generated from an entry in the Cambridge 
# Structural Database, then it will include bibliographic, chemical, 
# crystal, experimental, refinement or atomic coordinate data resulting 
# from the CCDC's data processing and validation procedures.
#
#######################################################################

data_QUWXUD
_chemical_formula_moiety         'C18 H6 B1 F18 1-,C7 H16 N1 1+'
_chemical_name_systematic        
'2,6-dimethylpiperidinium dihydrido(bis(2,4,6-tris(trifluoromethyl)phenyl))borate'
_symmetry_cell_setting           monoclinic
_symmetry_space_group_name_H-M   'C 2/c'
_symmetry_Int_Tables_number      15
_space_group_name_Hall           '-C 2yn'
loop_
_symmetry_equiv_pos_site_id
_symmetry_equiv_pos_as_xyz
1 x,y,z
2 -x,y,1/2-z
3 1/2+x,1/2+y,z
4 1/2-x,1/2+y,1/2-z
5 -x,-y,-z
6 x,-y,1/2+z
7 1/2-x,1/2-y,-z
8 1/2+x,1/2-y,1/2+z
_cell_length_a                   22.306(6)
_cell_length_b                   11.447(3)
_cell_length_c                   22.092(6)
_cell_angle_alpha                90
_cell_angle_beta                 97.469(5)
_cell_angle_gamma                90
_cell_volume                     5593.04
_exptl_crystal_colour            colorless
_exptl_crystal_description       sheet
_cell_formula_units_Z            8
loop_
_atom_site_label
_atom_site_type_symbol
_atom_site_fract_x
_atom_site_fract_y
_atom_site_fract_z
B1 B 0.8487(2) 0.8614(4) 0.3330(2)
C1 C 0.86014(19) 0.9697(3) 0.38190(16)
C2 C 0.8108(2) 1.0313(4) 0.40320(17)
C3 C 0.8196(3) 1.1234(5) 0.44406(19)
H1 H 0.7860 1.1617 0.4566
C4 C 0.8766(3) 1.1589(4) 0.46622(19)
C5 C 0.9255(2) 1.1096(3) 0.44580(17)
H2 H 0.9646 1.1367 0.4598
C6 C 0.9171(2) 1.0173(3) 0.40341(17)
C7 C 0.7464(3) 1.0018(8) 0.3805(2)
C8 C 0.8833(4) 1.2581(6) 0.5103(3)
C9 C 0.9737(2) 0.9743(4) 0.3809(2)
C10 C 0.88600(15) 0.7389(3) 0.34496(15)
C11 C 0.90663(15) 0.6774(3) 0.29557(15)
C12 C 0.93849(17) 0.5739(3) 0.30330(18)
H3 H 0.9502 0.5355 0.2691
C13 C 0.95317(19) 0.5266(3) 0.36022(19)
C14 C 0.93182(19) 0.5789(3) 0.40911(18)
H4 H 0.9400 0.5453 0.4481
C15 C 0.89815(16) 0.6816(3) 0.40126(16)
C16 C 0.89299(19) 0.7191(4) 0.23080(17)
C17 C 0.9889(3) 0.4159(4) 0.3681(3)
C18 C 0.8756(2) 0.7258(4) 0.45812(18)
F1 F 0.72794(16) 0.8952(6) 0.39499(19)
F2 F 0.70756(17) 1.0756(5) 0.40212(16)
F3 F 0.73300(14) 1.0107(4) 0.31931(12)
F4 F 0.9521(3) 0.3225(4) 0.3606(4)
F5 F 1.0245(5) 0.4004(6) 0.3255(5)
F6 F 1.0183(6) 0.4032(9) 0.4210(4)
F7 F 0.8548(5) 1.3547(6) 0.4930(3)
F8 F 0.9364(6) 1.2946(9) 0.5237(4)
F9 F 0.8630(7) 1.2252(7) 0.5627(3)
F10 F 1.02087(17) 1.0381(3) 0.4001(2)
F11 F 0.98934(13) 0.8696(3) 0.3979(2)
F12 F 0.97000(18) 0.9670(5) 0.32282(16)
F13 F 0.83430(12) 0.7395(3) 0.21392(10)
F14 F 0.92216(14) 0.8169(2) 0.21876(11)
F15 F 0.90825(13) 0.6398(2) 0.19108(10)
F16 F 0.82058(12) 0.7731(3) 0.44852(11)
F17 F 0.87232(15) 0.6415(3) 0.49974(11)
F18 F 0.91116(13) 0.8090(3) 0.48702(11)
H5 H 0.8630(16) 0.907(3) 0.2881(16)
H6 H 0.7996(10) 0.837(3) 0.3266(17)
N1 N 0.2037(2) 0.0406(4) 0.29428(15)
H7 H 0.2183 0.0514 0.2547
H8 H 0.1746 -0.0239 0.2897
C19 C 0.2579(5) 0.0029(12) 0.3410(4)
H9 H 0.2858 0.0693 0.3512
C20 C 0.2275(6) -0.0317(14) 0.3957(5)
H10 H 0.2579 -0.0574 0.4290
H11 H 0.1994 -0.0965 0.3848
C21 C 0.1893(3) 0.0852(8) 0.4184(2)
H12 H 0.1693 0.0670 0.4542
H13 H 0.2158 0.1530 0.4273
C22 C 0.1437(6) 0.1042(13) 0.3614(7)
H14 H 0.1213 0.0315 0.3516
H15 H 0.1146 0.1641 0.3701
C23 C 0.1730(6) 0.1412(10) 0.3072(5)
H16 H 0.2011 0.2075 0.3172
C24 C 0.2884(3) -0.0917(7) 0.3223(3)
H17 H 0.2598 -0.1471 0.3019
H18 H 0.3113 -0.1286 0.3575
H19 H 0.3159 -0.0661 0.2943
C25 C 0.1215(4) 0.1734(7) 0.2566(3)
H20 H 0.1382 0.1901 0.2192
H21 H 0.1004 0.2418 0.2689
H22 H 0.0934 0.1086 0.2500
F19? F 0.9562(12) 1.305(3) 0.5209(16)
F20? F 0.8236(16) 1.321(3) 0.4923(16)
F21? F 0.8872(7) 1.2451(19) 0.5685(9)
F22? F 0.9855(11) 0.3660(16) 0.4203(10)
F23? F 1.0477(6) 0.4418(17) 0.3756(16)
F24? F 0.9808(18) 0.340(3) 0.3247(14)
H23? H 0.1941 -0.0070 0.2574
H24? H 0.2330 0.1007 0.2864
C26? C 0.2286(6) -0.0349(10) 0.3481(4)
H25? H 0.1994 -0.0966 0.3557
C27? C 0.2439(7) 0.0410(16) 0.4037(5)
H26? H 0.2643 -0.0049 0.4377
H27? H 0.2706 0.1050 0.3949
H28? H 0.1969 0.1238 0.4583
H29? H 0.1618 0.0197 0.4224
C28? C 0.1576(6) 0.1733(13) 0.3712(5)
H30? H 0.1208 0.2050 0.3849
H31? H 0.1847 0.2379 0.3643
C29? C 0.1426(5) 0.1001(11) 0.3140(5)
H32? H 0.1123 0.0395 0.3202
H33? H 0.2796 -0.1713 0.3091
H34? H 0.3224 -0.0914 0.3546
H35? H 0.2985 -0.0456 0.2882
H36? H 0.0777 0.1792 0.2512
H37? H 0.1345 0.1361 0.2211
H38? H 0.1389 0.2510 0.2614
loop_
_geom_bond_atom_site_label_1
_geom_bond_atom_site_label_2
_geom_bond_site_symmetry_1
_geom_bond_site_symmetry_2
B1 C1 1_555 1_555
C1 C2 1_555 1_555
C2 C3 1_555 1_555
C3 H1 1_555 1_555
C4 C3 1_555 1_555
C5 C4 1_555 1_555
H2 C5 1_555 1_555
C6 C1 1_555 1_555
C7 C2 1_555 1_555
C8 C4 1_555 1_555
C9 C6 1_555 1_555
C10 B1 1_555 1_555
C11 C10 1_555 1_555
C12 C11 1_555 1_555
H3 C12 1_555 1_555
C13 C12 1_555 1_555
C14 C13 1_555 1_555
H4 C14 1_555 1_555
C15 C10 1_555 1_555
C16 C11 1_555 1_555
C17 C13 1_555 1_555
C18 C15 1_555 1_555
F1 C7 1_555 1_555
F2 C7 1_555 1_555
F3 C7 1_555 1_555
F4 C17 1_555 1_555
F5 C17 1_555 1_555
F6 C17 1_555 1_555
F7 C8 1_555 1_555
F8 C8 1_555 1_555
F9 C8 1_555 1_555
F10 C9 1_555 1_555
F11 C9 1_555 1_555
F12 C9 1_555 1_555
F13 C16 1_555 1_555
F14 C16 1_555 1_555
F15 C16 1_555 1_555
F16 C18 1_555 1_555
F17 C18 1_555 1_555
F18 C18 1_555 1_555
H5 B1 1_555 1_555
H6 B1 1_555 1_555
N1 H7 1_555 1_555
H8 N1 1_555 1_555
C19 N1 1_555 1_555
H9 C19 1_555 1_555
C20 C19 1_555 1_555
H10 C20 1_555 1_555
H11 C20 1_555 1_555
C21 C20 1_555 1_555
H12 C21 1_555 1_555
H13 C21 1_555 1_555
C22 C21 1_555 1_555
H14 C22 1_555 1_555
H15 C22 1_555 1_555
C23 N1 1_555 1_555
H16 C23 1_555 1_555
C24 C19 1_555 1_555
H17 C24 1_555 1_555
H18 C24 1_555 1_555
H19 C24 1_555 1_555
C25 C23 1_555 1_555
H20 C25 1_555 1_555
H21 C25 1_555 1_555
H22 C25 1_555 1_555
C5 C6 1_555 1_555
C14 C15 1_555 1_555
C22 C23 1_555 1_555

#END
