
#######################################################################
#
#                 Cambridge Crystallographic Data Centre
#                                CCDC 
#
#######################################################################
#
# If this CIF has been generated from an entry in the Cambridge 
# Structural Database, then it will include bibliographic, chemical, 
# crystal, experimental, refinement or atomic coordinate data resulting 
# from the CCDC's data processing and validation procedures.
#
#######################################################################

data_QUXCOD
_chemical_formula_moiety         'C10 H8 F2 O2'
_chemical_name_systematic        
(Z)-4,4-Difluoro-3-hydroxy-1-phenylbut-2-en-1-one
_symmetry_cell_setting           monoclinic
_symmetry_space_group_name_H-M   'P 21/c'
_symmetry_Int_Tables_number      14
_space_group_name_Hall           '-P 2ybc'
loop_
_symmetry_equiv_pos_site_id
_symmetry_equiv_pos_as_xyz
1 x,y,z
2 -x,1/2+y,1/2-z
3 -x,-y,-z
4 x,1/2-y,1/2+z
_cell_length_a                   7.3884(6)
_cell_length_b                   11.2975(10)
_cell_length_c                   11.5449(8)
_cell_angle_alpha                90
_cell_angle_beta                 115.800(4)
_cell_angle_gamma                90
_cell_volume                     867.599
_exptl_crystal_colour            colorless
_exptl_crystal_description       prism
_cell_formula_units_Z            4
loop_
_atom_site_label
_atom_site_type_symbol
_atom_site_fract_x
_atom_site_fract_y
_atom_site_fract_z
C1 C 0.7329(3) -0.04983(15) -0.03440(17)
C2 C 0.6970(3) -0.03780(17) -0.16237(18)
H1 H 0.7066 0.0380 -0.1949
C3 C 0.6472(3) -0.13552(17) -0.24281(18)
H2 H 0.6222 -0.1266 -0.3303
C4 C 0.6338(3) -0.24648(17) -0.1956(2)
H3 H 0.5983 -0.3134 -0.2510
C5 C 0.6722(3) -0.25972(17) -0.0679(2)
H4 H 0.6649 -0.3358 -0.0351
C6 C 0.7210(3) -0.16223(17) 0.01184(18)
H5 H 0.7468 -0.1717 0.0994
C7 C 0.7800(3) 0.05247(16) 0.05444(17)
C8 C 0.8070(3) 0.16899(16) 0.01653(17)
H6 H 0.7991 0.1825 -0.0667
C9 C 0.8440(3) 0.26080(17) 0.10073(17)
C10 C 0.8751(3) 0.38659(17) 0.06865(18)
H7 H 1.0045 0.4187 0.1355
O1 O 0.7945(2) 0.03497(12) 0.16666(12)
O2 O 0.8568(2) 0.25229(11) 0.21652(12)
H8 H 0.8324 0.1823 0.2300
F1 F 0.87142(19) 0.39352(10) -0.04930(10)
F2 F 0.7172(2) 0.45302(10) 0.06277(13)
loop_
_geom_bond_atom_site_label_1
_geom_bond_atom_site_label_2
_geom_bond_site_symmetry_1
_geom_bond_site_symmetry_2
C1 C2 1_555 1_555
C2 H1 1_555 1_555
C3 C2 1_555 1_555
H2 C3 1_555 1_555
C4 C3 1_555 1_555
H3 C4 1_555 1_555
C5 C4 1_555 1_555
H4 C5 1_555 1_555
C6 C1 1_555 1_555
H5 C6 1_555 1_555
C7 C1 1_555 1_555
C8 C7 1_555 1_555
H6 C8 1_555 1_555
C9 C8 1_555 1_555
C10 C9 1_555 1_555
H7 C10 1_555 1_555
O1 C7 1_555 1_555
O2 C9 1_555 1_555
H8 O2 1_555 1_555
F1 C10 1_555 1_555
F2 C10 1_555 1_555
C5 C6 1_555 1_555

#END
