
#######################################################################
#
#                 Cambridge Crystallographic Data Centre
#                                CCDC 
#
#######################################################################
#
# If this CIF has been generated from an entry in the Cambridge 
# Structural Database, then it will include bibliographic, chemical, 
# crystal, experimental, refinement or atomic coordinate data resulting 
# from the CCDC's data processing and validation procedures.
#
#######################################################################

data_QUXDAQ
_chemical_formula_moiety         'C7 H7 F2 N3'
_chemical_name_systematic        
2-(1-(Dimethylamino)-2,2-difluoroethylidene)malononitrile
_symmetry_cell_setting           monoclinic
_symmetry_space_group_name_H-M   'P 21/c'
_symmetry_Int_Tables_number      14
_space_group_name_Hall           '-P 2ybc'
loop_
_symmetry_equiv_pos_site_id
_symmetry_equiv_pos_as_xyz
1 x,y,z
2 -x,1/2+y,1/2-z
3 -x,-y,-z
4 x,1/2-y,1/2+z
_cell_length_a                   9.9716(12)
_cell_length_b                   7.2447(7)
_cell_length_c                   14.2076(14)
_cell_angle_alpha                90
_cell_angle_beta                 130.052(6)
_cell_angle_gamma                90
_cell_volume                     785.65
_exptl_crystal_colour            colorless
_exptl_crystal_description       block
_cell_formula_units_Z            4
loop_
_atom_site_label
_atom_site_type_symbol
_atom_site_fract_x
_atom_site_fract_y
_atom_site_fract_z
C1 C 0.6843(3) 0.7001(2) 0.96788(18)
H1 H 0.5602 0.7422 0.9047
C2 C 0.6912(2) 0.4906(2) 0.96939(14)
C3 C 0.5288(2) 0.4047(2) 0.88665(15)
C4 C 0.3706(2) 0.5106(2) 0.81219(17)
C5 C 0.4962(2) 0.2119(3) 0.86158(17)
C6 C 0.8610(3) 0.2077(3) 1.0537(2)
H2 H 0.7916 0.1571 1.0744
H3 H 0.9842 0.1731 1.1176
H4 H 0.8176 0.1581 0.9744
C7 C 1.0123(2) 0.5045(3) 1.13792(17)
H5 H 0.9953 0.6376 1.1222
H6 H 1.0999 0.4606 1.1323
H7 H 1.0529 0.4794 1.2204
N1 N 0.2399(2) 0.5889(2) 0.75210(15)
N2 N 0.4556(2) 0.0602(2) 0.83323(17)
N3 N 0.84549(18) 0.4083(2) 1.04618(13)
F1 F 0.78335(15) 0.77154(14) 0.94199(11)
F2 F 0.75143(17) 0.76716(15) 1.07956(11)
loop_
_geom_bond_atom_site_label_1
_geom_bond_atom_site_label_2
_geom_bond_site_symmetry_1
_geom_bond_site_symmetry_2
C1 H1 1_555 1_555
C2 C1 1_555 1_555
C3 C2 1_555 1_555
C4 C3 1_555 1_555
C5 C3 1_555 1_555
C6 H2 1_555 1_555
H3 C6 1_555 1_555
H4 C6 1_555 1_555
C7 H5 1_555 1_555
H6 C7 1_555 1_555
H7 C7 1_555 1_555
N1 C4 1_555 1_555
N2 C5 1_555 1_555
N3 C2 1_555 1_555
F1 C1 1_555 1_555
F2 C1 1_555 1_555
C6 N3 1_555 1_555
C7 N3 1_555 1_555

#END
