
#######################################################################
#
#                 Cambridge Crystallographic Data Centre
#                                CCDC 
#
#######################################################################
#
# If this CIF has been generated from an entry in the Cambridge 
# Structural Database, then it will include bibliographic, chemical, 
# crystal, experimental, refinement or atomic coordinate data resulting 
# from the CCDC's data processing and validation procedures.
#
#######################################################################

data_QUXJAW
_chemical_name_common            
(3aS,9aS)-8-allyl-9-tosyl-2,3,3a,8,9,9a-hexahydrofuro[3',2':4,5]pyrrolo[2,3-b]indole
_chemical_formula_moiety         'C22 H22 N2 O3 S1'
_chemical_name_systematic        
5-allyl-4-((4-methylphenyl)sulfonyl)-1,2,3a,4,5,9c-hexahydrofuro[3',2':4,5]pyrrolo[2,3-b]indole
_symmetry_cell_setting           monoclinic
_symmetry_space_group_name_H-M   'P 21/n'
_symmetry_Int_Tables_number      14
_space_group_name_Hall           '-P 2yn'
loop_
_symmetry_equiv_pos_site_id
_symmetry_equiv_pos_as_xyz
1 x,y,z
2 1/2-x,1/2+y,1/2-z
3 -x,-y,-z
4 1/2+x,1/2-y,1/2+z
_cell_length_a                   13.4257(11)
_cell_length_b                   10.9838(7)
_cell_length_c                   14.5635(11)
_cell_angle_alpha                90
_cell_angle_beta                 109.954(9)
_cell_angle_gamma                90
_cell_volume                     2018.68
_exptl_crystal_colour            yellow
_exptl_crystal_description       block
_cell_formula_units_Z            4
_exptl_crystal_recrystallization_method 'ethyl acetate'
loop_
_atom_site_label
_atom_site_type_symbol
_atom_site_fract_x
_atom_site_fract_y
_atom_site_fract_z
S1 S 0.18686(5) 0.60155(6) 0.18718(5)
O1 O 0.14634(16) 0.49114(17) 0.13751(16)
O2 O 0.22116(17) 0.60461(19) 0.29122(13)
O3 O 0.45724(15) 0.70363(18) 0.27676(13)
N1 N 0.29365(15) 0.63805(18) 0.15955(14)
N2 N 0.26103(16) 0.58520(19) -0.02012(15)
C1 C 0.2843(2) 0.6136(3) -0.1828(2)
H1 H 0.2560 0.5388 -0.2087
C2 C 0.3224(3) 0.6956(5) -0.2353(2)
H2 H 0.3190 0.6745 -0.2981
C3 C 0.3649(3) 0.8069(4) -0.1986(3)
H3 H 0.3895 0.8587 -0.2366
C4 C 0.3712(3) 0.8422(3) -0.1057(2)
H4 H 0.3991 0.9177 -0.0811
C5 C 0.3349(2) 0.7625(3) -0.04916(18)
C6 C 0.29074(19) 0.6494(3) -0.08898(18)
C7 C 0.28877(18) 0.6578(2) 0.06156(16)
C8 C 0.33219(19) 0.7640(2) 0.04793(17)
C9 C 0.3762(2) 0.8336(2) 0.14117(18)
H5 H 0.3404 0.9118 0.1392
C10 C 0.3579(2) 0.7438(2) 0.21628(18)
H6 H 0.3203 0.7843 0.2547
C11 C 0.5331(2) 0.7272(3) 0.2304(2)
H7 H 0.5331 0.6626 0.1850
H8 H 0.6037 0.7348 0.2782
C12 C 0.4971(3) 0.8459(3) 0.1773(2)
H9 H 0.5232 0.8549 0.1232
H10 H 0.5206 0.9148 0.2211
C13 C 0.2303(2) 0.4576(3) -0.0298(2)
H11 H 0.1914 0.4405 -0.0981
H12 H 0.1829 0.4431 0.0065
C14 C 0.3201(4) 0.3735(4) 0.0050(3)
H13 H 0.3030 0.2912 -0.0029
C15 C 0.4110(5) 0.3958(5) 0.0416(4)
H14 H 0.4335 0.4763 0.0517
H15 H 0.4602 0.3329 0.0605
C16 C 0.09253(18) 0.7162(2) 0.14067(16)
C17 C 0.0899(2) 0.8150(3) 0.19844(18)
H16 H 0.1386 0.8208 0.2615
C18 C 0.0151(2) 0.9049(3) 0.1627(2)
H17 H 0.0141 0.9714 0.2019
C19 C -0.05878(19) 0.8977(2) 0.06886(18)
C20 C -0.0529(2) 0.7996(3) 0.01198(18)
H18 H -0.1005 0.7947 -0.0516
C21 C 0.0207(2) 0.7088(2) 0.04595(18)
H19 H 0.0226 0.6432 0.0061
C22 C -0.1418(2) 0.9946(3) 0.0324(2)
H20 H -0.2041 0.9714 0.0462
H21 H -0.1591 1.0042 -0.0368
H22 H -0.1152 1.0702 0.0645
loop_
_geom_bond_atom_site_label_1
_geom_bond_atom_site_label_2
_geom_bond_site_symmetry_1
_geom_bond_site_symmetry_2
S1 O1 1_555 1_555
O2 S1 1_555 1_555
O3 C10 1_555 1_555
N1 S1 1_555 1_555
N2 C6 1_555 1_555
C1 H1 1_555 1_555
C2 C1 1_555 1_555
H2 C2 1_555 1_555
C3 C2 1_555 1_555
H3 C3 1_555 1_555
C4 C3 1_555 1_555
H4 C4 1_555 1_555
C5 C4 1_555 1_555
C6 C1 1_555 1_555
C7 N1 1_555 1_555
C8 C5 1_555 1_555
C9 C8 1_555 1_555
H5 C9 1_555 1_555
C10 N1 1_555 1_555
H6 C10 1_555 1_555
C11 O3 1_555 1_555
H7 C11 1_555 1_555
H8 C11 1_555 1_555
C12 C9 1_555 1_555
H9 C12 1_555 1_555
H10 C12 1_555 1_555
C13 N2 1_555 1_555
H11 C13 1_555 1_555
H12 C13 1_555 1_555
C14 C13 1_555 1_555
H13 C14 1_555 1_555
C15 C14 1_555 1_555
H14 C15 1_555 1_555
H15 C15 1_555 1_555
C16 S1 1_555 1_555
C17 C16 1_555 1_555
H16 C17 1_555 1_555
C18 C17 1_555 1_555
H17 C18 1_555 1_555
C19 C18 1_555 1_555
C20 C19 1_555 1_555
H18 C20 1_555 1_555
C21 C16 1_555 1_555
H19 C21 1_555 1_555
C22 C19 1_555 1_555
H20 C22 1_555 1_555
H21 C22 1_555 1_555
H22 C22 1_555 1_555
N2 C7 1_555 1_555
C5 C6 1_555 1_555
C7 C8 1_555 1_555
C9 C10 1_555 1_555
C11 C12 1_555 1_555
C20 C21 1_555 1_555

#END
