
#######################################################################
#
#                 Cambridge Crystallographic Data Centre
#                                CCDC 
#
#######################################################################
#
# If this CIF has been generated from an entry in the Cambridge 
# Structural Database, then it will include bibliographic, chemical, 
# crystal, experimental, refinement or atomic coordinate data resulting 
# from the CCDC's data processing and validation procedures.
#
#######################################################################

data_QUXJIE
_chemical_formula_moiety         'C26 H21 N1 O3'
_chemical_name_systematic        
'ethyl 6-(4-methoxyphenyl)benzo[e]pyrido[1,2-a]indole-12-carboxylate'
_symmetry_cell_setting           monoclinic
_symmetry_space_group_name_H-M   'P 21/c'
_symmetry_Int_Tables_number      14
_space_group_name_Hall           '-P 2ybc'
loop_
_symmetry_equiv_pos_site_id
_symmetry_equiv_pos_as_xyz
1 x,y,z
2 -x,1/2+y,1/2-z
3 -x,-y,-z
4 x,1/2-y,1/2+z
_cell_length_a                   11.5406(12)
_cell_length_b                   9.3427(10)
_cell_length_c                   18.9135(16)
_cell_angle_alpha                90
_cell_angle_beta                 96.804(3)
_cell_angle_gamma                90
_cell_volume                     2024.9
_exptl_crystal_colour            'dark yellow'
_exptl_crystal_description       block
_cell_formula_units_Z            4
loop_
_atom_site_label
_atom_site_type_symbol
_atom_site_fract_x
_atom_site_fract_y
_atom_site_fract_z
O1 O 0.3924(13) 0.777(2) 0.3443(11)
O2 O 0.24823(15) 0.89055(17) 0.38429(8)
O3 O 0.05795(13) 0.07863(17) 0.73754(8)
N1 N 0.23551(13) 0.58104(16) 0.53717(7)
C1 C 0.29934(16) 0.6724(2) 0.43780(9)
C2 C 0.34143(15) 0.5272(2) 0.44719(9)
C3 C 0.29721(15) 0.4716(2) 0.50751(9)
C4 C 0.18805(17) 0.5830(2) 0.60085(10)
H1 H 0.1943 0.5028 0.6302
C5 C 0.13299(19) 0.7001(2) 0.62052(11)
H2 H 0.0984 0.6996 0.6625
C6 C 0.12733(19) 0.8239(2) 0.57785(11)
H3 H 0.0884 0.9046 0.5915
C7 C 0.17819(18) 0.8258(2) 0.51708(10)
H4 H 0.1754 0.9088 0.4898
C8 C 0.23559(15) 0.7033(2) 0.49442(9)
C9 C 0.31269(19) 0.7739(2) 0.38105(11)
C10 C 0.2466(2) 0.9974(3) 0.32915(12)
H5 H 0.2173 0.9564 0.2834
H6 H 0.3248 1.0332 0.3264
C11 C 0.1691(2) 1.1154(3) 0.34749(14)
H7 H 0.1629 1.1860 0.3103
H8 H 0.2013 1.1588 0.3915
H9 H 0.0931 1.0778 0.3525
C12 C 0.41511(15) 0.4352(2) 0.40969(10)
C13 C 0.46599(17) 0.4748(3) 0.34841(10)
H10 H 0.4538 0.5665 0.3298
C14 C 0.53364(19) 0.3792(3) 0.31569(12)
H11 H 0.5658 0.4073 0.2751
C15 C 0.5546(2) 0.2422(3) 0.34220(14)
H12 H 0.5997 0.1787 0.3193
C16 C 0.50859(18) 0.2017(3) 0.40176(12)
H13 H 0.5240 0.1102 0.4199
C17 C 0.43780(17) 0.2950(2) 0.43700(11)
C18 C 0.38524(18) 0.2459(2) 0.49650(11)
H14 H 0.4010 0.1529 0.5124
C19 C 0.31261(16) 0.3278(2) 0.53175(9)
C20 C 0.24865(17) 0.2621(2) 0.58742(10)
C21 C 0.30612(17) 0.2007(2) 0.64805(10)
H15 H 0.3872 0.2020 0.6549
C22 C 0.24609(18) 0.1372(2) 0.69892(11)
H16 H 0.2869 0.0957 0.7391
C23 C 0.12634(18) 0.1354(2) 0.69012(10)
C24 C 0.06649(17) 0.1954(2) 0.62925(10)
H17 H -0.0147 0.1942 0.6228
C25 C 0.12680(17) 0.2566(2) 0.57857(10)
H18 H 0.0858 0.2950 0.5377
C26 C 0.1135(2) -0.0093(3) 0.79309(13)
H19 H 0.1595 -0.0811 0.7731
H20 H 0.0554 -0.0547 0.8177
H21 H 0.1631 0.0487 0.8259
O4? O 0.335(3) 0.7419(9) 0.3198(7)
loop_
_geom_bond_atom_site_label_1
_geom_bond_atom_site_label_2
_geom_bond_site_symmetry_1
_geom_bond_site_symmetry_2
O1 C9 1_555 1_555
O2 C9 1_555 1_555
O3 C23 1_555 1_555
N1 C3 1_555 1_555
C1 C2 1_555 1_555
C2 C3 1_555 1_555
C3 C19 1_555 1_555
C4 N1 1_555 1_555
H1 C4 1_555 1_555
C5 C4 1_555 1_555
H2 C5 1_555 1_555
C6 C5 1_555 1_555
H3 C6 1_555 1_555
C7 C6 1_555 1_555
H4 C7 1_555 1_555
C8 N1 1_555 1_555
C9 C1 1_555 1_555
C10 O2 1_555 1_555
H5 C10 1_555 1_555
H6 C10 1_555 1_555
C11 C10 1_555 1_555
H7 C11 1_555 1_555
H8 C11 1_555 1_555
H9 C11 1_555 1_555
C12 C2 1_555 1_555
C13 C12 1_555 1_555
H10 C13 1_555 1_555
C14 C13 1_555 1_555
H11 C14 1_555 1_555
C15 C14 1_555 1_555
H12 C15 1_555 1_555
C16 C15 1_555 1_555
H13 C16 1_555 1_555
C17 C12 1_555 1_555
C18 C17 1_555 1_555
H14 C18 1_555 1_555
C19 C18 1_555 1_555
C20 C19 1_555 1_555
C21 C20 1_555 1_555
H15 C21 1_555 1_555
C22 C21 1_555 1_555
H16 C22 1_555 1_555
C23 C22 1_555 1_555
C24 C23 1_555 1_555
H17 C24 1_555 1_555
C25 C20 1_555 1_555
H18 C25 1_555 1_555
C26 O3 1_555 1_555
H19 C26 1_555 1_555
H20 C26 1_555 1_555
H21 C26 1_555 1_555
C1 C8 1_555 1_555
C7 C8 1_555 1_555
C16 C17 1_555 1_555
C24 C25 1_555 1_555

#END
