
#######################################################################
#
#                 Cambridge Crystallographic Data Centre
#                                CCDC 
#
#######################################################################
#
# If this CIF has been generated from an entry in the Cambridge 
# Structural Database, then it will include bibliographic, chemical, 
# crystal, experimental, refinement or atomic coordinate data resulting 
# from the CCDC's data processing and validation procedures.
#
#######################################################################

data_QUXJOK
_chemical_formula_moiety         'C27 H21 N1 O4'
_chemical_name_systematic        
'ethyl 5-(4-methoxybenzoyl)benzo[e]pyrido[1,2-a]indole-12-carboxylate'
_symmetry_cell_setting           monoclinic
_symmetry_space_group_name_H-M   'P 21/c'
_symmetry_Int_Tables_number      14
_space_group_name_Hall           '-P 2ybc'
loop_
_symmetry_equiv_pos_site_id
_symmetry_equiv_pos_as_xyz
1 x,y,z
2 -x,1/2+y,1/2-z
3 -x,-y,-z
4 x,1/2-y,1/2+z
_cell_length_a                   11.7836(12)
_cell_length_b                   8.1908(7)
_cell_length_c                   21.1196(19)
_cell_angle_alpha                90
_cell_angle_beta                 92.216(4)
_cell_angle_gamma                90
_cell_volume                     2036.88
_exptl_crystal_colour            'dark yellow'
_exptl_crystal_description       block
_cell_formula_units_Z            4
loop_
_atom_site_label
_atom_site_type_symbol
_atom_site_fract_x
_atom_site_fract_y
_atom_site_fract_z
O1 O 0.75216(9) 1.02884(13) 0.56365(5)
O2 O 0.78866(8) 0.79794(13) 0.51089(5)
O3 O 0.14101(9) 1.07817(13) 0.66178(5)
O4 O -0.14726(9) 0.43497(14) 0.68089(6)
N1 N 0.44140(10) 0.72290(15) 0.49636(5)
C1 C 0.60151(12) 0.84170(18) 0.53751(7)
C2 C 0.50935(12) 0.88061(18) 0.57755(6)
C3 C 0.41227(12) 0.80438(17) 0.55127(6)
C4 C 0.37162(13) 0.63716(19) 0.45440(7)
H1 H 0.2932 0.6252 0.4621
C5 C 0.41546(13) 0.57027(19) 0.40229(7)
H2 H 0.3680 0.5108 0.3732
C6 C 0.53269(13) 0.58915(19) 0.39121(7)
H3 H 0.5633 0.5423 0.3544
C7 C 0.60208(13) 0.67369(19) 0.43269(7)
H4 H 0.6804 0.6858 0.4247
C8 C 0.55692(12) 0.74336(18) 0.48774(7)
C9 C 0.71816(12) 0.90176(18) 0.54011(7)
C10 C 0.90302(12) 0.8566(2) 0.50274(8)
H5 H 0.9304 0.9174 0.5409
H6 H 0.9048 0.9307 0.4657
C11 C 0.97669(14) 0.7108(2) 0.49259(8)
H7 H 0.9460 0.6478 0.4564
H8 H 0.9784 0.6422 0.5306
H9 H 1.0539 0.7469 0.4841
C12 C 0.30396(12) 0.81507(18) 0.57635(7)
H10 H 0.2413 0.7592 0.5568
C13 C 0.29032(12) 0.90780(18) 0.62965(7)
C14 C 0.38736(12) 0.98635(18) 0.66075(6)
C15 C 0.49791(12) 0.97065(17) 0.63576(6)
C16 C 0.59094(13) 1.04177(19) 0.66979(7)
H11 H 0.6651 1.0304 0.6542
C17 C 0.57644(13) 1.12684(19) 0.72477(7)
H12 H 0.6402 1.1746 0.7466
C18 C 0.46787(13) 1.1437(2) 0.74894(7)
H13 H 0.4581 1.2035 0.7869
C19 C 0.37598(13) 1.07404(19) 0.71795(7)
H14 H 0.3030 1.0847 0.7351
C20 C 0.17259(12) 0.93845(19) 0.65126(7)
C21 C 0.09335(12) 0.79860(18) 0.65830(6)
C22 C -0.02222(12) 0.8329(2) 0.66530(7)
H15 H -0.0473 0.9431 0.6648
C23 C -0.09959(13) 0.7097(2) 0.67290(7)
H16 H -0.1776 0.7351 0.6770
C24 C -0.06371(12) 0.54736(19) 0.67454(7)
C25 C 0.05109(12) 0.50974(19) 0.66951(7)
H17 H 0.0762 0.3996 0.6717
C26 C 0.12829(12) 0.63589(18) 0.66125(6)
H18 H 0.2064 0.6107 0.6575
C27 C -0.11686(14) 0.2667(2) 0.67579(8)
H19 H -0.0837 0.2473 0.6346
H20 H -0.1848 0.1988 0.6795
H21 H -0.0612 0.2387 0.7098
loop_
_geom_bond_atom_site_label_1
_geom_bond_atom_site_label_2
_geom_bond_site_symmetry_1
_geom_bond_site_symmetry_2
O1 C9 1_555 1_555
O2 C9 1_555 1_555
O3 C20 1_555 1_555
O4 C24 1_555 1_555
N1 C3 1_555 1_555
C1 C2 1_555 1_555
C2 C3 1_555 1_555
C3 C12 1_555 1_555
C4 N1 1_555 1_555
H1 C4 1_555 1_555
C5 C4 1_555 1_555
H2 C5 1_555 1_555
C6 C5 1_555 1_555
H3 C6 1_555 1_555
C7 C6 1_555 1_555
H4 C7 1_555 1_555
C8 N1 1_555 1_555
C9 C1 1_555 1_555
C10 O2 1_555 1_555
H5 C10 1_555 1_555
H6 C10 1_555 1_555
C11 C10 1_555 1_555
H7 C11 1_555 1_555
H8 C11 1_555 1_555
H9 C11 1_555 1_555
C12 H10 1_555 1_555
C13 C12 1_555 1_555
C14 C13 1_555 1_555
C15 C2 1_555 1_555
C16 C15 1_555 1_555
H11 C16 1_555 1_555
C17 C16 1_555 1_555
H12 C17 1_555 1_555
C18 C17 1_555 1_555
H13 C18 1_555 1_555
C19 C14 1_555 1_555
H14 C19 1_555 1_555
C20 C13 1_555 1_555
C21 C20 1_555 1_555
C22 C21 1_555 1_555
H15 C22 1_555 1_555
C23 C22 1_555 1_555
H16 C23 1_555 1_555
C24 C23 1_555 1_555
C25 C24 1_555 1_555
H17 C25 1_555 1_555
C26 C21 1_555 1_555
H18 C26 1_555 1_555
C27 O4 1_555 1_555
H19 C27 1_555 1_555
H20 C27 1_555 1_555
H21 C27 1_555 1_555
C1 C8 1_555 1_555
C7 C8 1_555 1_555
C14 C15 1_555 1_555
C18 C19 1_555 1_555
C25 C26 1_555 1_555

#END
