
#######################################################################
#
#                 Cambridge Crystallographic Data Centre
#                                CCDC 
#
#######################################################################
#
# If this CIF has been generated from an entry in the Cambridge 
# Structural Database, then it will include bibliographic, chemical, 
# crystal, experimental, refinement or atomic coordinate data resulting 
# from the CCDC's data processing and validation procedures.
#
#######################################################################

data_QUXQOR
_chemical_compound_source        'Murraya exotica'
_chemical_formula_moiety         'C28 H27 N1 O3,H2 O1'
_chemical_name_systematic        
'7-methoxy-8-(8-methyl-10-(2-methylprop-1-en-1-yl)-5,6,9,10-tetrahydrocyclohepta[b]indol-6-yl)-2H-chromen-2-one hydrate'
_symmetry_cell_setting           hexagonal
_symmetry_space_group_name_H-M   'P 6'
_symmetry_Int_Tables_number      168
_space_group_name_Hall           'P 6'
loop_
_symmetry_equiv_pos_site_id
_symmetry_equiv_pos_as_xyz
1 x,y,z
2 x-y,x,z
3 -y,x-y,z
4 -x,-y,z
5 -x+y,-x,z
6 y,-x+y,z
_cell_length_a                   25.703(11)
_cell_length_b                   25.703(11)
_cell_length_c                   6.308(3)
_cell_angle_alpha                90
_cell_angle_beta                 90
_cell_angle_gamma                120
_cell_volume                     3609.03
_exptl_crystal_colour            colorless
_exptl_crystal_description       Prism
_cell_formula_units_Z            6
_exptl_crystal_recrystallization_method chloroform/water
loop_
_atom_site_label
_atom_site_type_symbol
_atom_site_fract_x
_atom_site_fract_y
_atom_site_fract_z
O1 O 1.27997(13) 1.12587(14) 1.5404(6)
O2 O 1.23213(14) 1.08034(15) 1.8358(6)
O3 O 1.39393(15) 1.22827(15) 0.9384(6)
N1 N 1.34853(17) 1.09232(16) 0.9632(6)
H1 H 1.3168 1.0951 0.9482
C1 C 1.3439(2) 1.2120(2) 1.0577(9)
C2 C 1.4950(2) 1.2148(2) 1.3976(9)
C3 C 1.4189(2) 1.0660(2) 0.9159(9)
C4 C 1.2321(2) 1.1085(2) 1.6785(9)
C5 C 1.39097(19) 1.11972(19) 1.1217(9)
C6 C 1.2432(2) 1.1761(2) 1.3111(9)
C7 C 1.2866(2) 1.1596(2) 1.3597(9)
C8 C 1.3373(2) 1.17636(19) 1.2362(9)
C9 C 1.3023(2) 1.2302(2) 1.0078(9)
H2 H 1.3082 1.2544 0.8903
C10 C 1.1928(2) 1.1562(2) 1.4537(9)
H3 H 1.1634 1.1662 1.4251
C11 C 1.38545(19) 1.1596(2) 1.2885(8)
H4 H 1.3734 1.1367 1.4212
C12 C 1.3649(2) 1.05991(19) 0.8332(9)
C13 C 1.4347(2) 1.10417(19) 1.1013(9)
C14 C 1.4920(2) 1.1555(2) 1.4361(9)
H5 H 1.4560 1.1296 1.5167
H6 H 1.5264 1.1622 1.5205
C15 C 1.4186(2) 1.0036(2) 0.6275(9)
H7 H 1.4356 0.9835 0.5599
C16 C 1.1876(2) 1.1238(3) 1.6250(10)
H8 H 1.1541 1.1109 1.7119
C17 C 1.4451(2) 1.0362(2) 0.8106(9)
H9 H 1.4798 1.0383 0.8638
C18 C 1.3384(2) 1.0288(2) 0.6439(9)
H10 H 1.3040 1.0270 0.5885
C19 C 1.2523(2) 1.2118(2) 1.1348(10)
H11 H 1.2244 1.2235 1.1016
C20 C 1.3665(2) 1.0006(2) 0.5426(10)
H12 H 1.3504 0.9796 0.4172
C21 C 1.4468(2) 1.2162(2) 1.3287(9)
H13 H 1.4503 1.2535 1.3034
C22 C 1.5933(2) 1.1573(2) 1.0550(10)
C23 C 1.5451(2) 1.1632(2) 1.0950(9)
H14 H 1.5450 1.1958 1.0310
C24 C 1.4038(2) 1.2657(2) 0.7579(9)
H15 H 1.4062 1.3026 0.8024
H16 H 1.3712 1.2454 0.6599
H17 H 1.4408 1.2744 0.6901
C25 C 1.6419(2) 1.2006(2) 0.9073(11)
H18 H 1.6358 1.2337 0.8769
H19 H 1.6406 1.1803 0.7778
H20 H 1.6804 1.2152 0.9733
C26 C 1.4914(2) 1.1238(2) 1.2305(9)
H21 H 1.4933 1.0878 1.2676
C27 C 1.5541(2) 1.2707(2) 1.4368(11)
H22 H 1.5841 1.2711 1.3453
H23 H 1.5657 1.2716 1.5819
H24 H 1.5503 1.3054 1.4083
C28 C 1.6026(2) 1.1078(3) 1.1400(11)
H25 H 1.6062 1.0857 1.0241
H26 H 1.5689 1.0813 1.2264
H27 H 1.6385 1.1249 1.2239
O4 O 1.1228(2) 1.0342(2) 1.0878(11)
H28 H 1.1565 1.0534 1.0248
H29 H 1.0960 1.0359 1.0146
loop_
_geom_bond_atom_site_label_1
_geom_bond_atom_site_label_2
_geom_bond_site_symmetry_1
_geom_bond_site_symmetry_2
O1 C4 1_555 1_555
O2 C4 1_555 1_555
O3 C1 1_555 1_555
N1 H1 1_555 1_555
C1 C8 1_555 1_555
C2 C14 1_555 1_555
C3 C12 1_555 1_555
C4 C16 1_555 1_555
C5 N1 1_555 1_555
C6 C7 1_555 1_555
C7 O1 1_555 1_555
C8 C7 1_555 1_555
C9 C1 1_555 1_555
H2 C9 1_555 1_555
C10 C6 1_555 1_555
H3 C10 1_555 1_555
C11 C5 1_555 1_555
H4 C11 1_555 1_555
C12 N1 1_555 1_555
C13 C3 1_555 1_555
C14 H5 1_555 1_555
H6 C14 1_555 1_555
C15 H7 1_555 1_555
C16 C10 1_555 1_555
H8 C16 1_555 1_555
C17 C3 1_555 1_555
H9 C17 1_555 1_555
C18 C12 1_555 1_555
H10 C18 1_555 1_555
C19 C6 1_555 1_555
H11 C19 1_555 1_555
C20 C15 1_555 1_555
H12 C20 1_555 1_555
C21 C2 1_555 1_555
H13 C21 1_555 1_555
C22 C23 1_555 1_555
C23 H14 1_555 1_555
C24 O3 1_555 1_555
H15 C24 1_555 1_555
H16 C24 1_555 1_555
H17 C24 1_555 1_555
C25 C22 1_555 1_555
H18 C25 1_555 1_555
H19 C25 1_555 1_555
H20 C25 1_555 1_555
C26 C13 1_555 1_555
H21 C26 1_555 1_555
C27 C2 1_555 1_555
H22 C27 1_555 1_555
H23 C27 1_555 1_555
H24 C27 1_555 1_555
C28 C22 1_555 1_555
H25 C28 1_555 1_555
H26 C28 1_555 1_555
H27 C28 1_555 1_555
O4 H28 1_555 1_555
H29 O4 1_555 1_555
C5 C13 1_555 1_555
C8 C11 1_555 1_555
C9 C19 1_555 1_555
C11 C21 1_555 1_555
C14 C26 1_555 1_555
C15 C17 1_555 1_555
C18 C20 1_555 1_555
C23 C26 1_555 1_555

#END
