
#######################################################################
#
#                 Cambridge Crystallographic Data Centre
#                                CCDC 
#
#######################################################################
#
# If this CIF has been generated from an entry in the Cambridge 
# Structural Database, then it will include bibliographic, chemical, 
# crystal, experimental, refinement or atomic coordinate data resulting 
# from the CCDC's data processing and validation procedures.
#
#######################################################################

data_QUYCUJ
_chemical_formula_moiety         'C40 H66 O4'
_chemical_name_systematic        
4,4'-(2,5-bis(Dodecyloxy)-1,4-phenylene)-bis(2-methylbut-3-yn-2-ol)
_symmetry_cell_setting           triclinic
_symmetry_space_group_name_H-M   'P -1'
_symmetry_Int_Tables_number      2
_space_group_name_Hall           '-P 1'
loop_
_symmetry_equiv_pos_site_id
_symmetry_equiv_pos_as_xyz
1 x,y,z
2 -x,-y,-z
_cell_length_a                   9.1325(9)
_cell_length_b                   9.7070(10)
_cell_length_c                   22.9107(19)
_cell_angle_alpha                85.8100(10)
_cell_angle_beta                 88.512(2)
_cell_angle_gamma                79.3730(10)
_cell_volume                     1990.68
_exptl_crystal_colour            colorless
_exptl_crystal_description       acicular
_chemical_melting_point          368-370K
_cell_formula_units_Z            2
_exptl_crystal_recrystallization_method ethanol
loop_
_atom_site_label
_atom_site_type_symbol
_atom_site_fract_x
_atom_site_fract_y
_atom_site_fract_z
O1 O 0.5619(2) 0.6464(2) 0.60317(9)
O2 O 0.4531(2) 0.8819(2) 0.37806(9)
O3 O 1.0800(2) 0.7198(2) 0.62786(11)
H1 H 1.0311 0.6572 0.6339
O4 O 0.1121(2) 0.4803(2) 0.35258(8)
H2 H 0.1964 0.4527 0.3652
C1 C 0.5291(3) 0.7034(3) 0.54744(14)
C2 C 0.6249(3) 0.7888(3) 0.52315(13)
C3 C 0.5991(3) 0.8499(3) 0.46641(13)
H3 H 0.6627 0.9073 0.4501
C4 C 0.4830(3) 0.8276(3) 0.43423(14)
C5 C 0.3887(3) 0.7413(3) 0.45894(14)
C6 C 0.4118(3) 0.6820(3) 0.51588(13)
H4 H 0.3463 0.6270 0.5326
C7 C 0.7507(3) 0.8120(3) 0.55566(13)
C8 C 0.8540(3) 0.8312(3) 0.58160(14)
C9 C 0.9813(4) 0.8515(4) 0.61596(15)
C10 C 1.0743(4) 0.9431(3) 0.58122(14)
H5 H 1.1587 0.9521 0.6038
H6 H 1.0152 1.0344 0.5723
H7 H 1.1082 0.9010 0.5455
C11 C 0.9265(4) 0.9115(4) 0.67326(14)
H8 H 0.8738 0.8475 0.6952
H9 H 0.8609 1.0000 0.6656
H10 H 1.0100 0.9250 0.6954
C12 C 0.2687(3) 0.7079(3) 0.42565(13)
C13 C 0.1735(4) 0.6704(3) 0.40058(13)
C14 C 0.0546(4) 0.6191(3) 0.37183(15)
C15 C 0.0049(4) 0.7068(4) 0.31614(15)
H11 H 0.0902 0.7155 0.2918
H12 H -0.0454 0.7984 0.3257
H13 H -0.0618 0.6620 0.2957
C16 C -0.0720(4) 0.6081(4) 0.41370(17)
H14 H -0.1470 0.5705 0.3947
H15 H -0.1139 0.6996 0.4261
H16 H -0.0362 0.5469 0.4472
C17 C 0.4571(3) 0.5688(3) 0.63136(12)
H17 H 0.4507 0.4879 0.6097
H18 H 0.3591 0.6277 0.6324
C18 C 0.5082(3) 0.5217(3) 0.69225(12)
H19 H 0.5215 0.6026 0.7126
H20 H 0.6038 0.4587 0.6907
C19 C 0.3975(3) 0.4474(3) 0.72566(12)
H21 H 0.3027 0.5114 0.7273
H22 H 0.3828 0.3682 0.7044
C20 C 0.4440(4) 0.3951(3) 0.78700(13)
H23 H 0.4642 0.4735 0.8075
H24 H 0.5363 0.3274 0.7851
C21 C 0.3313(4) 0.3275(4) 0.82205(13)
H25 H 0.3114 0.2490 0.8016
H26 H 0.2390 0.3952 0.8237
C22 C 0.3764(4) 0.2753(4) 0.88363(14)
H27 H 0.4678 0.2065 0.8818
H28 H 0.3985 0.3535 0.9036
C23 C 0.2654(4) 0.2106(4) 0.91963(14)
H29 H 0.1740 0.2794 0.9212
H30 H 0.2435 0.1324 0.8995
C24 C 0.3075(4) 0.1586(4) 0.98064(14)
H31 H 0.3972 0.0876 0.9790
H32 H 0.3325 0.2361 1.0004
C25 C 0.1960(4) 0.0981(4) 1.01714(15)
H33 H 0.1067 0.1695 1.0187
H34 H 0.1705 0.0215 0.9970
C26 C 0.2341(4) 0.0446(4) 1.07781(15)
H35 H 0.3221 -0.0284 1.0762
H36 H 0.2618 0.1206 1.0977
C27 C 0.1228(5) -0.0124(5) 1.11418(16)
H37 H 0.0949 -0.0879 1.0940
H38 H 0.0350 0.0608 1.1156
C28 C 0.1581(5) -0.0666(5) 1.17449(17)
H39 H 0.2394 -0.1449 1.1744
H40 H 0.0724 -0.0964 1.1928
H41 H 0.1857 0.0061 1.1958
C29 C 0.5533(3) 0.9638(3) 0.35073(13)
H42 H 0.6535 0.9090 0.3509
H43 H 0.5536 1.0460 0.3724
C30 C 0.5069(4) 1.0082(4) 0.28960(13)
H44 H 0.4128 1.0735 0.2902
H45 H 0.4913 0.9266 0.2702
C31 C 0.6199(4) 1.0771(3) 0.25481(13)
H46 H 0.6402 1.1545 0.2759
H47 H 0.7121 1.0094 0.2527
C32 C 0.5752(4) 1.1317(4) 0.19408(13)
H48 H 0.5508 1.0549 0.1737
H49 H 0.4850 1.2018 0.1965
C33 C 0.6870(4) 1.1953(4) 0.15801(14)
H50 H 0.7769 1.1250 0.1554
H51 H 0.7120 1.2716 0.1786
C34 C 0.6418(4) 1.2511(4) 0.09735(14)
H52 H 0.6142 1.1752 0.0773
H53 H 0.5530 1.3227 0.1002
C35 C 0.7518(4) 1.3120(4) 0.06007(15)
H54 H 0.7786 1.3882 0.0801
H55 H 0.8410 1.2405 0.0578
C36 C 0.7107(4) 1.3664(4) -0.00021(15)
H56 H 0.6816 1.2907 -0.0199
H57 H 0.6229 1.4393 0.0022
C37 C 0.8198(5) 1.4237(4) -0.03764(16)
H58 H 0.9072 1.3503 -0.0401
H59 H 0.8495 1.4986 -0.0176
C38 C 0.7808(5) 1.4795(4) -0.09775(16)
H60 H 0.7468 1.4060 -0.1173
H61 H 0.6963 1.5558 -0.0952
C39 C 0.8910(5) 1.5306(5) -0.13537(18)
H62 H 0.9739 1.4528 -0.1384
H63 H 0.9275 1.6009 -0.1147
C40 C 0.8588(5) 1.5906(5) -0.19420(18)
H64 H 0.8357 1.5199 -0.2178
H65 H 0.9441 1.6251 -0.2105
H66 H 0.7752 1.6667 -0.1934
loop_
_geom_bond_atom_site_label_1
_geom_bond_atom_site_label_2
_geom_bond_site_symmetry_1
_geom_bond_site_symmetry_2
O1 C1 1_555 1_555
O2 C4 1_555 1_555
O3 H1 1_555 1_555
O4 H2 1_555 1_555
C1 C2 1_555 1_555
C2 C3 1_555 1_555
C3 H3 1_555 1_555
C4 C3 1_555 1_555
C5 C4 1_555 1_555
C6 C1 1_555 1_555
H4 C6 1_555 1_555
C7 C2 1_555 1_555
C8 C7 1_555 1_555
C9 O3 1_555 1_555
C10 C9 1_555 1_555
H5 C10 1_555 1_555
H6 C10 1_555 1_555
H7 C10 1_555 1_555
C11 C9 1_555 1_555
H8 C11 1_555 1_555
H9 C11 1_555 1_555
H10 C11 1_555 1_555
C12 C5 1_555 1_555
C13 C12 1_555 1_555
C14 O4 1_555 1_555
C15 C14 1_555 1_555
H11 C15 1_555 1_555
H12 C15 1_555 1_555
H13 C15 1_555 1_555
C16 C14 1_555 1_555
H14 C16 1_555 1_555
H15 C16 1_555 1_555
H16 C16 1_555 1_555
C17 O1 1_555 1_555
H17 C17 1_555 1_555
H18 C17 1_555 1_555
C18 C17 1_555 1_555
H19 C18 1_555 1_555
H20 C18 1_555 1_555
C19 C18 1_555 1_555
H21 C19 1_555 1_555
H22 C19 1_555 1_555
C20 C19 1_555 1_555
H23 C20 1_555 1_555
H24 C20 1_555 1_555
C21 C20 1_555 1_555
H25 C21 1_555 1_555
H26 C21 1_555 1_555
C22 C21 1_555 1_555
H27 C22 1_555 1_555
H28 C22 1_555 1_555
C23 C22 1_555 1_555
H29 C23 1_555 1_555
H30 C23 1_555 1_555
C24 C23 1_555 1_555
H31 C24 1_555 1_555
H32 C24 1_555 1_555
C25 C24 1_555 1_555
H33 C25 1_555 1_555
H34 C25 1_555 1_555
C26 C25 1_555 1_555
H35 C26 1_555 1_555
H36 C26 1_555 1_555
C27 C26 1_555 1_555
H37 C27 1_555 1_555
H38 C27 1_555 1_555
C28 C27 1_555 1_555
H39 C28 1_555 1_555
H40 C28 1_555 1_555
H41 C28 1_555 1_555
C29 O2 1_555 1_555
H42 C29 1_555 1_555
H43 C29 1_555 1_555
C30 C29 1_555 1_555
H44 C30 1_555 1_555
H45 C30 1_555 1_555
C31 C30 1_555 1_555
H46 C31 1_555 1_555
H47 C31 1_555 1_555
C32 C31 1_555 1_555
H48 C32 1_555 1_555
H49 C32 1_555 1_555
C33 C32 1_555 1_555
H50 C33 1_555 1_555
H51 C33 1_555 1_555
C34 C33 1_555 1_555
H52 C34 1_555 1_555
H53 C34 1_555 1_555
C35 C34 1_555 1_555
H54 C35 1_555 1_555
H55 C35 1_555 1_555
C36 C35 1_555 1_555
H56 C36 1_555 1_555
H57 C36 1_555 1_555
C37 C36 1_555 1_555
H58 C37 1_555 1_555
H59 C37 1_555 1_555
C38 C37 1_555 1_555
H60 C38 1_555 1_555
H61 C38 1_555 1_555
C39 C38 1_555 1_555
H62 C39 1_555 1_555
H63 C39 1_555 1_555
C40 C39 1_555 1_555
H64 C40 1_555 1_555
H65 C40 1_555 1_555
H66 C40 1_555 1_555
C5 C6 1_555 1_555
C8 C9 1_555 1_555
C13 C14 1_555 1_555

#END
