
#######################################################################
#
#                 Cambridge Crystallographic Data Centre
#                                CCDC 
#
#######################################################################
#
# If this CIF has been generated from an entry in the Cambridge 
# Structural Database, then it will include bibliographic, chemical, 
# crystal, experimental, refinement or atomic coordinate data resulting 
# from the CCDC's data processing and validation procedures.
#
#######################################################################

data_QUYDAR
_chemical_formula_moiety         'C35 H35 B1 F2 N2,0.5(C1 H2 Cl2)'
_chemical_name_systematic        
'(2-(9-anthryl(5-(3,3-dimethylbut-1-en-1-yl)-2H-pyrrol-2-ylidene)methyl)-5-(3,3-dimethylbut-1-en-1-yl)-1H-pyrrolato)(difluoro)borate dichloromethane solvate'
_symmetry_cell_setting           rhombohedral
_symmetry_space_group_name_H-M   'R -3'
_symmetry_Int_Tables_number      148
_space_group_name_Hall           '-R 3'
loop_
_symmetry_equiv_pos_site_id
_symmetry_equiv_pos_as_xyz
1 x,y,z
2 -y,x-y,z
3 -x+y,-x,z
4 2/3+x,1/3+y,1/3+z
5 2/3-y,1/3+x-y,1/3+z
6 2/3-x+y,1/3-x,1/3+z
7 1/3+x,2/3+y,2/3+z
8 1/3-y,2/3+x-y,2/3+z
9 1/3-x+y,2/3-x,2/3+z
10 -x,-y,-z
11 y,-x+y,-z
12 x-y,x,-z
13 1/3-x,2/3-y,2/3-z
14 1/3+y,2/3-x+y,2/3-z
15 1/3+x-y,2/3+x,2/3-z
16 2/3-x,1/3-y,1/3-z
17 2/3+y,1/3-x+y,1/3-z
18 2/3+x-y,1/3+x,1/3-z
_cell_length_a                   30.6814(6)
_cell_length_b                   30.6814(6)
_cell_length_c                   19.7843(9)
_cell_angle_alpha                90
_cell_angle_beta                 90
_cell_angle_gamma                120
_cell_volume                     16128.8
_exptl_crystal_colour            red
_exptl_crystal_description       plate
_cell_formula_units_Z            18
loop_
_atom_site_label
_atom_site_type_symbol
_atom_site_fract_x
_atom_site_fract_y
_atom_site_fract_z
B1 B 0.73951(8) 0.16466(8) 0.43984(12)
F1 F 0.70929(4) 0.18474(4) 0.45868(6)
F2 F 0.71155(4) 0.12414(4) 0.39681(5)
N1 N 0.75621(5) 0.14685(5) 0.50198(8)
N2 N 0.78700(5) 0.20495(5) 0.40359(7)
C1 C 0.84491(6) 0.20500(7) 0.48657(10)
C2 C 0.80598(7) 0.16599(7) 0.52295(10)
C3 C 0.80616(7) 0.14016(8) 0.58073(11)
H1 H 0.8350(5) 0.1458(5) 0.6033(7)
C4 C 0.75662(8) 0.10601(8) 0.59572(11)
H2 H 0.7440(5) 0.0823(5) 0.6310(7)
C5 C 0.72602(7) 0.11121(7) 0.54720(10)
C6 C 0.67195(7) 0.08608(7) 0.54171(11)
H3 H 0.6610(5) 0.0966(6) 0.5058(8)
C7 C 0.63970(7) 0.05343(8) 0.58510(11)
H4 H 0.6536(5) 0.0456(5) 0.6203(7)
C8 C 0.58364(7) 0.02763(8) 0.58230(11)
C9 C 0.56248(9) -0.02874(8) 0.57129(13)
H5 H 0.5744 -0.0340 0.5289
H6 H 0.5264 -0.0456 0.5707
H7 H 0.5734 -0.0420 0.6073
C10 C 0.56695(8) 0.04920(9) 0.52507(14)
H8 H 0.5856 0.0853 0.5272
H9 H 0.5317 0.0376 0.5295
H10 H 0.5731 0.0383 0.4825
C11 C 0.56414(8) 0.03547(10) 0.65000(13)
H11 H 0.5774 0.0708 0.6575
H12 H 0.5747 0.0218 0.6859
H13 H 0.5280 0.0187 0.6490
C12 C 0.83541(6) 0.22402(7) 0.42822(10)
C13 C 0.86870(7) 0.26267(7) 0.38496(11)
H14 H 0.9015(6) 0.2811(6) 0.3924(9)
C14 C 0.84136(7) 0.26624(7) 0.33368(10)
H15 H 0.8476(6) 0.2908(6) 0.2975(9)
C15 C 0.78979(6) 0.23043(6) 0.34557(10)
C16 C 0.74692(7) 0.22140(7) 0.30531(11)
H16 H 0.7135(5) 0.1881(6) 0.3202(8)
C17 C 0.75090(7) 0.24922(7) 0.25182(11)
H17 H 0.7858(5) 0.2759(5) 0.2410(7)
C18 C 0.70938(7) 0.24393(8) 0.20633(12)
C19 C 0.65657(14) 0.20372(16) 0.2246(2)
H18 H 0.6484 0.2102 0.2689
H19 H 0.6544 0.1714 0.2241
H20 H 0.6333 0.2039 0.1923
C20 C 0.71013(19) 0.29334(16) 0.1945(3)
H21 H 0.7058 0.3060 0.2368
H22 H 0.6833 0.2878 0.1644
H23 H 0.7418 0.3174 0.1749
C21 C 0.71688(17) 0.22314(18) 0.1364(2)
H24 H 0.7180 0.1928 0.1441
H25 H 0.7478 0.2479 0.1160
H26 H 0.6893 0.2161 0.1068
C22 C 0.89861(7) 0.22924(7) 0.51003(10)
C23 C 0.92970(7) 0.21075(8) 0.48941(12)
C24 C 0.91163(8) 0.16580(9) 0.45210(13)
H27 H 0.8778 0.1480 0.4403
C25 C 0.94228(9) 0.14727(11) 0.43256(17)
H28 H 0.9296 0.1173 0.4086
C26 C 0.99426(10) 0.17582(12) 0.45051(18)
H29 H 1.0157 0.1639 0.4381
C27 C 1.01325(9) 0.21956(11) 0.48495(16)
H30 H 1.0475 0.2373 0.4945
C28 C 0.98234(8) 0.23941(9) 0.50711(13)
C29 C 1.00021(8) 0.28314(10) 0.54330(13)
H31 H 1.0363(6) 0.2996(6) 0.5543(9)
C30 C 0.96959(8) 0.30083(9) 0.56560(11)
C31 C 0.98823(9) 0.34649(10) 0.60422(13)
H32 H 1.0185(6) 0.3627(7) 0.6112(9)
C32 C 0.95670(10) 0.36154(10) 0.62650(14)
H33 H 0.9698 0.3905 0.6529
C33 C 0.90474(10) 0.33592(9) 0.61213(13)
C34 C 0.88717(8) 0.29268(9) 0.57281(12)
H34 H 0.8508(5) 0.2748(6) 0.5676(8)
C35 C 0.91767(7) 0.27354(8) 0.54893(11)
C36 C 0.7091(2) 0.2099(3) 0.6343(3)
H35 H 0.7026 0.1838 0.6015
H36 H 0.7125 0.2387 0.6094
Cl1 Cl 0.65944(13) 0.18929(18) 0.6830(2)
Cl2 Cl 0.76220(11) 0.22619(13) 0.6697(2)
C37? C 0.6646(3) 0.1957(3) 0.2202(5)
H37? H 0.6519 0.1966 0.2643
H38? H 0.6729 0.1695 0.2188
H39? H 0.6393 0.1893 0.1868
C38? C 0.7095(2) 0.2928(2) 0.2234(5)
H40? H 0.7052 0.2943 0.2712
H41? H 0.6825 0.2934 0.1999
H42? H 0.7410 0.3211 0.2098
C39? C 0.7278(2) 0.2534(3) 0.1328(3)
H43? H 0.7567 0.2865 0.1290
H44? H 0.7015 0.2509 0.1040
H45? H 0.7367 0.2288 0.1195
Cl3? Cl 0.71481(19) 0.18569(18) 0.7029(3)
Cl4? Cl 0.75696(19) 0.2577(2) 0.6358(2)
H46? H 1.0079(13) 0.1521(13) 0.426(2)
loop_
_geom_bond_atom_site_label_1
_geom_bond_atom_site_label_2
_geom_bond_site_symmetry_1
_geom_bond_site_symmetry_2
B1 F1 1_555 1_555
F2 B1 1_555 1_555
N1 B1 1_555 1_555
N2 B1 1_555 1_555
C1 C2 1_555 1_555
C2 N1 1_555 1_555
C3 C2 1_555 1_555
H1 C3 1_555 1_555
C4 C3 1_555 1_555
H2 C4 1_555 1_555
C5 N1 1_555 1_555
C6 C5 1_555 1_555
H3 C6 1_555 1_555
C7 C6 1_555 1_555
H4 C7 1_555 1_555
C8 C7 1_555 1_555
C9 C8 1_555 1_555
H5 C9 1_555 1_555
H6 C9 1_555 1_555
H7 C9 1_555 1_555
C10 C8 1_555 1_555
H8 C10 1_555 1_555
H9 C10 1_555 1_555
H10 C10 1_555 1_555
C11 C8 1_555 1_555
H11 C11 1_555 1_555
H12 C11 1_555 1_555
H13 C11 1_555 1_555
C12 N2 1_555 1_555
C13 C12 1_555 1_555
H14 C13 1_555 1_555
C14 C13 1_555 1_555
H15 C14 1_555 1_555
C15 N2 1_555 1_555
C16 C15 1_555 1_555
H16 C16 1_555 1_555
C17 C16 1_555 1_555
H17 C17 1_555 1_555
C18 C17 1_555 1_555
C19 C18 1_555 1_555
H18 C19 1_555 1_555
H19 C19 1_555 1_555
H20 C19 1_555 1_555
C20 C18 1_555 1_555
H21 C20 1_555 1_555
H22 C20 1_555 1_555
H23 C20 1_555 1_555
C21 C18 1_555 1_555
H24 C21 1_555 1_555
H25 C21 1_555 1_555
H26 C21 1_555 1_555
C22 C1 1_555 1_555
C23 C22 1_555 1_555
C24 C23 1_555 1_555
H27 C24 1_555 1_555
C25 C24 1_555 1_555
H28 C25 1_555 1_555
C26 C25 1_555 1_555
H29 C26 1_555 1_555
C27 C26 1_555 1_555
H30 C27 1_555 1_555
C28 C23 1_555 1_555
C29 C28 1_555 1_555
H31 C29 1_555 1_555
C30 C29 1_555 1_555
C31 C30 1_555 1_555
H32 C31 1_555 1_555
C32 C31 1_555 1_555
H33 C32 1_555 1_555
C33 C32 1_555 1_555
C34 C33 1_555 1_555
H34 C34 1_555 1_555
C35 C22 1_555 1_555
C36 H35 1_555 1_555
H36 C36 1_555 1_555
Cl1 C36 1_555 1_555
Cl2 C36 1_555 1_555
C1 C12 1_555 1_555
C4 C5 1_555 1_555
C14 C15 1_555 1_555
C27 C28 1_555 1_555
C30 C35 1_555 1_555
C34 C35 1_555 1_555

#END
