
#######################################################################
#
#                 Cambridge Crystallographic Data Centre
#                                CCDC 
#
#######################################################################
#
# If this CIF has been generated from an entry in the Cambridge 
# Structural Database, then it will include bibliographic, chemical, 
# crystal, experimental, refinement or atomic coordinate data resulting 
# from the CCDC's data processing and validation procedures.
#
#######################################################################

data_QUYDIY
_chemical_formula_moiety         'C32 H30 N8 S2,C1 H1 Cl3'
_chemical_name_systematic        
'8b,8c-Diphenyl-2,6-bis(4-pyridylmethyl)perhydro-2,3a,4a,6,7a,8a-hexaazacyclopenta[def]fluorene-4,8-dithione chloroform solvate'
_symmetry_cell_setting           triclinic
_symmetry_space_group_name_H-M   'P -1'
_symmetry_Int_Tables_number      2
_space_group_name_Hall           '-P 1'
loop_
_symmetry_equiv_pos_site_id
_symmetry_equiv_pos_as_xyz
1 x,y,z
2 -x,-y,-z
_cell_length_a                   9.5381(6)
_cell_length_b                   12.1712(8)
_cell_length_c                   14.8765(9)
_cell_angle_alpha                100.9780(10)
_cell_angle_beta                 91.6990(10)
_cell_angle_gamma                98.5000(10)
_cell_volume                     1673.81
_exptl_crystal_colour            colorless
_exptl_crystal_description       block
_cell_formula_units_Z            2
loop_
_atom_site_label
_atom_site_type_symbol
_atom_site_fract_x
_atom_site_fract_y
_atom_site_fract_z
C1 C 0.4638(5) 0.4696(4) 0.1361(4)
H1 H 0.4056 0.4515 0.0790
H2 H 0.4486 0.5435 0.1685
C2 C 0.6423(6) 0.3623(4) 0.0735(4)
H3 H 0.7434 0.3659 0.0658
H4 H 0.5934 0.3385 0.0133
C3 C 0.4314(5) 0.4077(4) 0.2860(4)
C4 C 0.6795(5) 0.2382(4) 0.1877(4)
C5 C 0.4489(5) 0.2700(4) 0.1553(3)
C6 C 0.3463(5) 0.2069(4) 0.0750(3)
C7 C 0.3908(6) 0.1281(5) 0.0063(4)
H5 H 0.4868 0.1222 0.0040
C8 C 0.2952(6) 0.0585(5) -0.0584(4)
H6 H 0.3262 0.0045 -0.1031
C9 C 0.1541(7) 0.0688(5) -0.0572(4)
H7 H 0.0895 0.0223 -0.1014
C10 C 0.1082(6) 0.1478(5) 0.0096(4)
H8 H 0.0125 0.1551 0.0104
C11 C 0.2042(6) 0.2160(4) 0.0753(4)
H9 H 0.1725 0.2690 0.1205
C12 C 0.4498(5) 0.2132(4) 0.2406(3)
C13 C 0.3367(5) 0.1100(4) 0.2397(3)
C14 C 0.2062(6) 0.1236(5) 0.2759(4)
H10 H 0.1877 0.1954 0.3020
C15 C 0.1037(7) 0.0290(6) 0.2726(4)
H11 H 0.0167 0.0376 0.2975
C16 C 0.1289(7) -0.0762(6) 0.2335(5)
H12 H 0.0588 -0.1389 0.2304
C17 C 0.2577(7) -0.0896(5) 0.1986(5)
H13 H 0.2765 -0.1614 0.1730
C18 C 0.3601(6) 0.0048(5) 0.2017(4)
H14 H 0.4470 -0.0045 0.1770
C19 C 0.4813(6) 0.2929(4) 0.4068(3)
H15 H 0.4783 0.3621 0.4511
H16 H 0.4162 0.2327 0.4245
C20 C 0.6388(6) 0.1716(4) 0.3368(4)
H17 H 0.5837 0.1033 0.3497
H18 H 0.7376 0.1611 0.3364
C21 C 0.7120(6) 0.5325(5) 0.1933(4)
H19 H 0.7130 0.4839 0.2379
H20 H 0.6786 0.6012 0.2227
C22 C 0.8592(6) 0.5619(4) 0.1653(4)
C23 C 0.8900(6) 0.6050(5) 0.0882(4)
H21 H 0.8157 0.6157 0.0505
C24 C 1.0254(7) 0.6325(5) 0.0652(5)
H22 H 1.0400 0.6619 0.0124
C25 C 1.1118(7) 0.5806(6) 0.1887(5)
H23 H 1.1882 0.5730 0.2261
C26 C 0.9754(8) 0.5499(6) 0.2152(5)
H24 H 0.9635 0.5204 0.2682
C27 C 0.7389(6) 0.3621(5) 0.4180(4)
H25 H 0.7105 0.4275 0.4570
H26 H 0.7554 0.3804 0.3582
C28 C 0.8721(5) 0.3375(4) 0.4579(4)
C29 C 1.0046(6) 0.3720(4) 0.4278(4)
H27 H 1.0126 0.4087 0.3784
C30 C 1.1231(6) 0.3516(5) 0.4715(5)
H28 H 1.2098 0.3761 0.4491
C31 C 0.9976(8) 0.2679(6) 0.5694(5)
H29 H 0.9927 0.2311 0.6189
C32 C 0.8720(7) 0.2838(6) 0.5309(5)
H30 H 0.7865 0.2582 0.5542
N1 N 0.4182(4) 0.3843(3) 0.1924(3)
N2 N 0.5961(4) 0.2785(3) 0.1304(3)
N3 N 0.4351(4) 0.3080(3) 0.3151(3)
N4 N 0.5925(4) 0.1866(3) 0.2456(3)
N5 N 0.6126(5) 0.4746(4) 0.1154(3)
N6 N 1.1383(6) 0.6195(4) 0.1144(5)
N7 N 0.6238(4) 0.2652(3) 0.4087(3)
N8 N 1.1278(6) 0.3010(5) 0.5420(5)
S1 S 0.85378(14) 0.24229(12) 0.18583(10)
S2 S 0.43168(16) 0.53272(12) 0.35358(10)
C33 C 0.6754(7) 0.8554(6) 0.3853(5)
H31 H 0.6949 0.7839 0.4001
Cl1 Cl 0.7802(3) 0.9693(2) 0.4618(2)
Cl2 Cl 0.4992(2) 0.86364(19) 0.39764(19)
Cl3 Cl 0.7234(2) 0.86119(18) 0.27531(15)
loop_
_geom_bond_atom_site_label_1
_geom_bond_atom_site_label_2
_geom_bond_site_symmetry_1
_geom_bond_site_symmetry_2
C1 H1 1_555 1_555
H2 C1 1_555 1_555
C2 H3 1_555 1_555
H4 C2 1_555 1_555
C3 N1 1_555 1_555
C4 N2 1_555 1_555
C5 C6 1_555 1_555
C6 C7 1_555 1_555
C7 H5 1_555 1_555
C8 C7 1_555 1_555
H6 C8 1_555 1_555
C9 C8 1_555 1_555
H7 C9 1_555 1_555
C10 C9 1_555 1_555
H8 C10 1_555 1_555
C11 C6 1_555 1_555
H9 C11 1_555 1_555
C12 C5 1_555 1_555
C13 C12 1_555 1_555
C14 C13 1_555 1_555
H10 C14 1_555 1_555
C15 C14 1_555 1_555
H11 C15 1_555 1_555
C16 C15 1_555 1_555
H12 C16 1_555 1_555
C17 C16 1_555 1_555
H13 C17 1_555 1_555
C18 C13 1_555 1_555
H14 C18 1_555 1_555
C19 H15 1_555 1_555
H16 C19 1_555 1_555
C20 H17 1_555 1_555
H18 C20 1_555 1_555
C21 H19 1_555 1_555
H20 C21 1_555 1_555
C22 C21 1_555 1_555
C23 C22 1_555 1_555
H21 C23 1_555 1_555
C24 C23 1_555 1_555
H22 C24 1_555 1_555
C25 H23 1_555 1_555
C26 C22 1_555 1_555
H24 C26 1_555 1_555
C27 H25 1_555 1_555
H26 C27 1_555 1_555
C28 C27 1_555 1_555
C29 C28 1_555 1_555
H27 C29 1_555 1_555
C30 C29 1_555 1_555
H28 C30 1_555 1_555
C31 H29 1_555 1_555
C32 C28 1_555 1_555
H30 C32 1_555 1_555
C33 H31 1_555 1_555
Cl1 C33 1_555 1_555
Cl2 C33 1_555 1_555
Cl3 C33 1_555 1_555
N1 C1 1_555 1_555
N2 C2 1_555 1_555
N3 C3 1_555 1_555
N4 C4 1_555 1_555
N5 C1 1_555 1_555
N6 C24 1_555 1_555
N7 C19 1_555 1_555
N8 C30 1_555 1_555
S1 C4 1_555 1_555
S2 C3 1_555 1_555
C2 N5 1_555 1_555
C5 N1 1_555 1_555
C5 N2 1_555 1_555
C10 C11 1_555 1_555
C12 N3 1_555 1_555
C12 N4 1_555 1_555
C17 C18 1_555 1_555
C19 N3 1_555 1_555
C20 N4 1_555 1_555
C20 N7 1_555 1_555
C21 N5 1_555 1_555
C25 C26 1_555 1_555
C25 N6 1_555 1_555
C27 N7 1_555 1_555
C31 C32 1_555 1_555
C31 N8 1_555 1_555

#END
