
#######################################################################
#
#                 Cambridge Crystallographic Data Centre
#                                CCDC 
#
#######################################################################
#
# If this CIF has been generated from an entry in the Cambridge 
# Structural Database, then it will include bibliographic, chemical, 
# crystal, experimental, refinement or atomic coordinate data resulting 
# from the CCDC's data processing and validation procedures.
#
#######################################################################

data_QUYGEX
_chemical_name_common            
(E,E)-3,3'-Dimethyl-1,1'-diphenyl-4,4'-((ethane-1,2-diyldiimino)bis[(2-furyl)methylidyne])di-1H-pyrazol-5(4H)-one
_chemical_formula_moiety         'C32 H28 N6 O4'
_chemical_name_systematic        
4,4'-(Ethane-1,2-diylbis(imino(2-furylmethylylidene)))bis(5-methyl-2-phenyl-2,4-dihydro-3H-pyrazol-3-one)
_symmetry_cell_setting           monoclinic
_symmetry_space_group_name_H-M   'P 21/c'
_symmetry_Int_Tables_number      14
_space_group_name_Hall           '-P 2ybc'
loop_
_symmetry_equiv_pos_site_id
_symmetry_equiv_pos_as_xyz
1 x,y,z
2 -x,1/2+y,1/2-z
3 -x,-y,-z
4 x,1/2-y,1/2+z
_cell_length_a                   10.7438(6)
_cell_length_b                   7.6999(4)
_cell_length_c                   16.8273(9)
_cell_angle_alpha                90
_cell_angle_beta                 93.9370(10)
_cell_angle_gamma                90
_cell_volume                     1388.77
_exptl_crystal_colour            yellow
_exptl_crystal_description       block
_chemical_melting_point          181-182deg.C
_cell_formula_units_Z            2
_exptl_crystal_recrystallization_method ethanol/n-heptane
loop_
_atom_site_label
_atom_site_type_symbol
_atom_site_fract_x
_atom_site_fract_y
_atom_site_fract_z
C1 C 0.79340(17) 1.2879(2) 0.11911(11)
C2 C 0.86997(19) 1.2531(3) 0.18661(11)
H1 H 0.9052 1.1435 0.1942
C3 C 0.8939(2) 1.3819(4) 0.24275(14)
H2 H 0.9448 1.3584 0.2884
C4 C 0.8430(2) 1.5442(4) 0.23149(16)
H3 H 0.8600 1.6308 0.2692
C5 C 0.7671(2) 1.5788(3) 0.16450(15)
H4 H 0.7329 1.6890 0.1570
C6 C 0.74101(18) 1.4516(3) 0.10811(13)
H5 H 0.6887 1.4753 0.0631
C7 C 0.83098(17) 1.0057(2) 0.04804(11)
C8 C 0.76317(16) 0.9266(2) -0.01917(10)
C9 C 0.66731(17) 1.0489(3) -0.04361(11)
C10 C 0.5737(2) 1.0478(3) -0.11395(13)
H6 H 0.5098 0.9640 -0.1054
H7 H 0.6145 1.0178 -0.1610
H8 H 0.5369 1.1610 -0.1204
C11 C 0.79841(15) 0.7652(2) -0.04839(10)
C12 C 0.71716(18) 0.6668(2) -0.10479(10)
C13 C 0.59548(17) 0.6410(3) -0.10780(11)
H9 H 0.5408 0.6837 -0.0720
C14 C 0.5636(2) 0.5375(3) -0.17468(13)
H10 H 0.4841 0.4988 -0.1915
C15 C 0.6675(2) 0.5054(3) -0.20900(13)
H11 H 0.6733 0.4402 -0.2551
C16 C 0.95252(16) 0.5224(2) -0.03384(11)
H12 H 0.9908 0.5153 -0.0843
H13 H 0.8836 0.4408 -0.0350
H14 H 0.9502(18) 0.768(3) 0.0148(12)
N1 N 0.76746(14) 1.1578(2) 0.06110(8)
N2 N 0.67014(15) 1.1852(2) 0.00285(9)
N3 N 0.90719(14) 0.6974(2) -0.02175(10)
O1 O 0.92691(12) 0.95452(17) 0.08686(8)
O2 O 0.76644(13) 0.5832(2) -0.16638(8)
C1B C 1.20660(17) -0.2879(2) -0.11911(11)
C2B C 1.13003(19) -0.2531(3) -0.18661(11)
H1B H 1.0948 -0.1435 -0.1942
C3B C 1.1061(2) -0.3819(4) -0.24275(14)
H2B H 1.0552 -0.3584 -0.2884
C4B C 1.1570(2) -0.5442(4) -0.23149(16)
H3B H 1.1400 -0.6308 -0.2692
C5B C 1.2329(2) -0.5788(3) -0.16450(15)
H4B H 1.2671 -0.6890 -0.1570
C6B C 1.25899(18) -0.4516(3) -0.10811(13)
H5B H 1.3113 -0.4753 -0.0631
C7B C 1.16902(17) -0.0057(2) -0.04804(11)
C8B C 1.23683(16) 0.0734(2) 0.01917(10)
C9B C 1.33269(17) -0.0489(3) 0.04361(11)
C10B C 1.4263(2) -0.0478(3) 0.11395(13)
H6B H 1.4902 0.0360 0.1054
H7B H 1.3855 -0.0178 0.1610
H8B H 1.4631 -0.1610 0.1204
C11B C 1.20159(15) 0.2348(2) 0.04839(10)
C12B C 1.28284(18) 0.3332(2) 0.10479(10)
C13B C 1.40452(17) 0.3590(3) 0.10780(11)
H9B H 1.4592 0.3163 0.0720
C14B C 1.4364(2) 0.4625(3) 0.17468(13)
H10B H 1.5159 0.5012 0.1915
C15B C 1.3325(2) 0.4946(3) 0.20900(13)
H11B H 1.3267 0.5598 0.2551
C16B C 1.04748(16) 0.4776(2) 0.03384(11)
H12B H 1.0092 0.4847 0.0843
H13B H 1.1164 0.5592 0.0350
H14B H 1.0498(18) 0.232(3) -0.0148(12)
N1B N 1.23254(14) -0.1578(2) -0.06110(8)
N2B N 1.32986(15) -0.1852(2) -0.00285(9)
N3B N 1.09281(14) 0.3026(2) 0.02175(10)
O1B O 1.07309(12) 0.04548(17) -0.08686(8)
O2B O 1.23356(13) 0.4168(2) 0.16638(8)
loop_
_geom_bond_atom_site_label_1
_geom_bond_atom_site_label_2
_geom_bond_site_symmetry_1
_geom_bond_site_symmetry_2
C1 C2 1_555 1_555
C2 H1 1_555 1_555
C3 C2 1_555 1_555
H2 C3 1_555 1_555
C4 C3 1_555 1_555
H3 C4 1_555 1_555
C5 C4 1_555 1_555
H4 C5 1_555 1_555
C6 C1 1_555 1_555
H5 C6 1_555 1_555
C7 C8 1_555 1_555
C8 C9 1_555 1_555
C9 C10 1_555 1_555
C10 H6 1_555 1_555
H7 C10 1_555 1_555
H8 C10 1_555 1_555
C11 C8 1_555 1_555
C12 C11 1_555 1_555
C13 C12 1_555 1_555
H9 C13 1_555 1_555
C14 C13 1_555 1_555
H10 C14 1_555 1_555
C15 C14 1_555 1_555
H11 C15 1_555 1_555
C16 H12 1_555 1_555
H13 C16 1_555 1_555
H14 N3 1_555 1_555
N1 C1 1_555 1_555
N2 C9 1_555 1_555
N3 C11 1_555 1_555
O1 C7 1_555 1_555
O2 C12 1_555 1_555
C1B C2B 1_555 1_555
C2B H1B 1_555 1_555
C3B C2B 1_555 1_555
H2B C3B 1_555 1_555
C4B C3B 1_555 1_555
H3B C4B 1_555 1_555
C5B C4B 1_555 1_555
H4B C5B 1_555 1_555
C6B C1B 1_555 1_555
H5B C6B 1_555 1_555
C7B C8B 1_555 1_555
C8B C9B 1_555 1_555
C9B C10B 1_555 1_555
C10B H6B 1_555 1_555
H7B C10B 1_555 1_555
H8B C10B 1_555 1_555
C11B C8B 1_555 1_555
C12B C11B 1_555 1_555
C13B C12B 1_555 1_555
H9B C13B 1_555 1_555
C14B C13B 1_555 1_555
H10B C14B 1_555 1_555
C15B C14B 1_555 1_555
H11B C15B 1_555 1_555
C16B C16 1_555 1_555
H12B C16B 1_555 1_555
H13B C16B 1_555 1_555
H14B N3B 1_555 1_555
N1B C1B 1_555 1_555
N2B C9B 1_555 1_555
N3B C11B 1_555 1_555
O1B C7B 1_555 1_555
O2B C12B 1_555 1_555
C5 C6 1_555 1_555
C7 N1 1_555 1_555
C15 O2 1_555 1_555
C16 N3 1_555 1_555
N1 N2 1_555 1_555
C5B C6B 1_555 1_555
C7B N1B 1_555 1_555
C15B O2B 1_555 1_555
C16B N3B 1_555 1_555
N1B N2B 1_555 1_555

#END
