
#######################################################################
#
#                 Cambridge Crystallographic Data Centre
#                                CCDC 
#
#######################################################################
#
# If this CIF has been generated from an entry in the Cambridge 
# Structural Database, then it will include bibliographic, chemical, 
# crystal, experimental, refinement or atomic coordinate data resulting 
# from the CCDC's data processing and validation procedures.
#
#######################################################################

data_QUYLIG
_chemical_formula_moiety         'C10 H8 O2'
_chemical_name_systematic        3-Methyl-4H-chromen-4-one
_symmetry_cell_setting           triclinic
_symmetry_space_group_name_H-M   'P -1'
_symmetry_Int_Tables_number      2
_space_group_name_Hall           '-P 1'
loop_
_symmetry_equiv_pos_site_id
_symmetry_equiv_pos_as_xyz
1 x,y,z
2 -x,-y,-z
_cell_length_a                   6.5284(13)
_cell_length_b                   7.2210(14)
_cell_length_c                   8.9834(18)
_cell_angle_alpha                75.137(2)
_cell_angle_beta                 78.169(2)
_cell_angle_gamma                80.895(2)
_cell_volume                     398.121
_exptl_crystal_colour            colorless
_exptl_crystal_description       block
_cell_formula_units_Z            2
_exptl_crystal_recrystallization_method ethanol
loop_
_atom_site_label
_atom_site_type_symbol
_atom_site_fract_x
_atom_site_fract_y
_atom_site_fract_z
C1 C 0.5883(2) 0.71757(18) 1.05339(16)
C2 C 0.4277(2) 0.76708(17) 0.96592(15)
C3 C 0.4728(2) 0.76636(18) 0.79936(15)
C4 C 0.6928(2) 0.71855(19) 0.73797(16)
C5 C 0.8332(2) 0.6710(2) 0.83389(17)
H1 H 0.9726 0.6398 0.7905
C6 C 0.7581(3) 0.7246(3) 0.56727(18)
H2 H 0.9074 0.6903 0.5445
H3 H 0.7222 0.8524 0.5078
H4 H 0.6864 0.6350 0.5400
C7 C 0.2263(2) 0.8210(2) 1.04176(18)
H5 H 0.1150 0.8533 0.9864
C8 C 0.1897(3) 0.8271(2) 1.19601(19)
H6 H 0.0549 0.8646 1.2443
C9 C 0.3541(3) 0.7771(2) 1.28035(18)
H7 H 0.3291 0.7818 1.3851
C10 C 0.5524(3) 0.7212(2) 1.21027(17)
H8 H 0.6621 0.6859 1.2671
O1 O 0.33452(17) 0.80490(17) 0.71782(12)
O2 O 0.79069(14) 0.66418(15) 0.98916(11)
loop_
_geom_bond_atom_site_label_1
_geom_bond_atom_site_label_2
_geom_bond_site_symmetry_1
_geom_bond_site_symmetry_2
C1 C2 1_555 1_555
C2 C3 1_555 1_555
C3 C4 1_555 1_555
C4 C5 1_555 1_555
C5 H1 1_555 1_555
C6 C4 1_555 1_555
H2 C6 1_555 1_555
H3 C6 1_555 1_555
H4 C6 1_555 1_555
C7 C2 1_555 1_555
H5 C7 1_555 1_555
C8 C7 1_555 1_555
H6 C8 1_555 1_555
C9 C8 1_555 1_555
H7 C9 1_555 1_555
C10 C1 1_555 1_555
H8 C10 1_555 1_555
O1 C3 1_555 1_555
O2 C1 1_555 1_555
C5 O2 1_555 1_555
C9 C10 1_555 1_555

#END
