
#######################################################################
#
#                 Cambridge Crystallographic Data Centre
#                                CCDC 
#
#######################################################################
#
# If this CIF has been generated from an entry in the Cambridge 
# Structural Database, then it will include bibliographic, chemical, 
# crystal, experimental, refinement or atomic coordinate data resulting 
# from the CCDC's data processing and validation procedures.
#
#######################################################################

data_QUYVOX
_chemical_formula_moiety         'C18 H16 N1 O1 1+,C9 H11 O3 S1 1-'
_chemical_name_systematic        
'4-(2-(4-Hydroxyphenyl)vinyl)-1-methylquinolinium 2,4,6-trimethylbenzenesulfonate'
_symmetry_cell_setting           orthorhombic
_symmetry_space_group_name_H-M   'P n a 21'
_symmetry_Int_Tables_number      33
_space_group_name_Hall           'P 2c -2n'
loop_
_symmetry_equiv_pos_site_id
_symmetry_equiv_pos_as_xyz
1 x,y,z
2 -x,-y,1/2+z
3 1/2+x,1/2-y,z
4 1/2-x,1/2+y,1/2+z
_cell_length_a                   20.501(10)
_cell_length_b                   7.390(3)
_cell_length_c                   30.320(14)
_cell_angle_alpha                90
_cell_angle_beta                 90
_cell_angle_gamma                90
_cell_volume                     4593.55
_exptl_crystal_colour            red
_exptl_crystal_description       Chunk
_cell_formula_units_Z            8
loop_
_atom_site_label
_atom_site_type_symbol
_atom_site_fract_x
_atom_site_fract_y
_atom_site_fract_z
S1 S 0.79081(4) 0.60688(14) 0.82994(3)
C1 C 0.72765(16) 0.4876(6) 0.79960(13)
C2 C 0.71061(17) 0.3109(5) 0.81467(13)
C3 C 0.66286(18) 0.2162(6) 0.79108(14)
H1 H 0.6521 0.0973 0.8005
C4 C 0.63034(17) 0.2865(6) 0.75467(14)
C5 C 0.64583(18) 0.4613(6) 0.74162(13)
H2 H 0.6228 0.5129 0.7175
C6 C 0.69532(19) 0.5674(5) 0.76304(14)
C7 C 0.7427(2) 0.2179(7) 0.85401(17)
H3 H 0.7175 0.1102 0.8621
H4 H 0.7441 0.3016 0.8791
H5 H 0.7873 0.1820 0.8461
C8 C 0.5788(2) 0.1792(7) 0.73065(17)
H6 H 0.5995 0.0802 0.7143
H7 H 0.5556 0.2585 0.7100
H8 H 0.5478 0.1291 0.7520
C9 C 0.7091(2) 0.7528(6) 0.74402(17)
H9 H 0.7527 0.7537 0.7307
H10 H 0.7071 0.8434 0.7676
H11 H 0.6765 0.7813 0.7214
O1 O 0.76309(15) 0.6438(5) 0.87286(10)
O2 O 0.80938(16) 0.7682(4) 0.80606(13)
O3 O 0.84559(13) 0.4783(4) 0.83153(13)
N1 N 0.76760(15) 0.5971(4) 1.09180(11)
C10 C 0.79897(17) 0.5475(5) 1.05305(13)
C11 C 0.86216(18) 0.4665(5) 1.05467(14)
H12 H 0.8840 0.4541 1.0821
C12 C 0.89112(19) 0.4069(5) 1.01690(15)
H13 H 0.9333 0.3541 1.0182
C13 C 0.85855(19) 0.4230(5) 0.97543(14)
H14 H 0.8783 0.3765 0.9495
C14 C 0.79867(17) 0.5058(5) 0.97306(13)
H15 H 0.7783 0.5192 0.9451
C15 C 0.76629(17) 0.5722(5) 1.01148(13)
C16 C 0.70309(17) 0.6565(5) 1.01012(13)
C17 C 0.67433(19) 0.6984(6) 1.05100(15)
H16 H 0.6318 0.7493 1.0518
C18 C 0.7072(2) 0.6663(5) 1.09010(14)
H17 H 0.6859 0.6948 1.1171
C19 C 0.8009(2) 0.5735(7) 1.13472(14)
H18 H 0.7706 0.6031 1.1587
H19 H 0.8387 0.6542 1.1362
H20 H 0.8153 0.4477 1.1378
C20 C 0.67093(17) 0.6977(5) 0.96830(13)
H21 H 0.6935 0.6671 0.9420
C21 C 0.61166(18) 0.7756(5) 0.96407(15)
H22 H 0.5903 0.8064 0.9908
C22 C 0.57611(18) 0.8189(5) 0.92342(13)
C23 C 0.51160(18) 0.8844(5) 0.92593(14)
H23 H 0.4930 0.9052 0.9542
C24 C 0.47474(17) 0.9192(5) 0.88927(14)
H24 H 0.4317 0.9651 0.8922
C25 C 0.50132(18) 0.8862(5) 0.84698(14)
C26 C 0.56432(18) 0.8190(5) 0.84316(15)
H25 H 0.5818 0.7958 0.8147
C27 C 0.60248(19) 0.7849(6) 0.88043(15)
H26 H 0.6456 0.7396 0.8773
O4 O 0.46693(14) 0.9180(5) 0.80916(10)
H27 H 0.4278 0.9394 0.8155
N2 N 0.51961(16) 0.5997(4) 0.36011(11)
C28 C 0.55161(18) 0.5471(5) 0.39864(14)
C29 C 0.61455(18) 0.4692(5) 0.39614(14)
H28 H 0.6362 0.4588 0.3685
C30 C 0.64436(18) 0.4081(5) 0.43437(15)
H29 H 0.6867 0.3561 0.4328
C31 C 0.61289(19) 0.4219(5) 0.47534(14)
H30 H 0.6336 0.3765 0.5011
C32 C 0.55149(18) 0.5017(5) 0.47846(14)
H31 H 0.5307 0.5107 0.5064
C33 C 0.51947(17) 0.5701(5) 0.44015(13)
C34 C 0.45564(17) 0.6554(5) 0.44210(13)
C35 C 0.42719(18) 0.6990(5) 0.40146(14)
H32 H 0.3846 0.7497 0.4010
C36 C 0.45938(19) 0.6702(6) 0.36196(15)
H33 H 0.4381 0.7015 0.3352
C37 C 0.5525(2) 0.5783(6) 0.31582(15)
H34 H 0.5250 0.6317 0.2928
H35 H 0.5591 0.4495 0.3096
H36 H 0.5948 0.6400 0.3163
C38 C 0.42475(18) 0.6973(5) 0.48454(14)
H37 H 0.4480 0.6694 0.5108
C39 C 0.36517(18) 0.7734(5) 0.48836(15)
H38 H 0.3434 0.8027 0.4616
C40 C 0.33025(17) 0.8159(5) 0.52948(13)
C41 C 0.26582(18) 0.8842(5) 0.52651(14)
H39 H 0.2473 0.9045 0.4982
C42 C 0.22876(17) 0.9225(5) 0.56394(14)
H40 H 0.1853 0.9658 0.5611
C43 C 0.25630(18) 0.8963(5) 0.60584(14)
C44 C 0.32056(17) 0.8271(5) 0.60939(13)
H41 H 0.3391 0.8067 0.6377
C45 C 0.35630(17) 0.7892(6) 0.57212(15)
H42 H 0.3995 0.7441 0.5751
O5 O 0.22372(14) 0.9371(5) 0.64362(11)
H43 H 0.1844 0.9069 0.6410
S2 S 0.54892(4) 0.58782(15) 0.62060(4)
C46 C 0.48329(17) 0.4911(5) 0.65271(13)
C47 C 0.4524(2) 0.5885(6) 0.68666(14)
C48 C 0.4010(2) 0.5061(6) 0.70938(14)
H44 H 0.3794 0.5728 0.7318
C49 C 0.38022(18) 0.3321(7) 0.70053(15)
C50 C 0.4112(2) 0.2386(6) 0.66650(17)
H45 H 0.3972 0.1191 0.6600
C51 C 0.46172(18) 0.3120(6) 0.64166(14)
C52 C 0.4706(3) 0.7827(7) 0.7009(2)
H46 H 0.5123 0.7807 0.7167
H47 H 0.4365 0.8310 0.7202
H48 H 0.4746 0.8596 0.6747
C53 C 0.3262(2) 0.2427(11) 0.7273(2)
H49 H 0.3455 0.1686 0.7507
H50 H 0.2998 0.1658 0.7079
H51 H 0.2984 0.3362 0.7405
C54 C 0.4912(2) 0.2003(7) 0.60517(18)
H52 H 0.4646 0.0918 0.6004
H53 H 0.5356 0.1645 0.6134
H54 H 0.4926 0.2718 0.5780
O6 O 0.51993(15) 0.6356(5) 0.57884(10)
O7 O 0.57288(19) 0.7514(6) 0.64365(14)
O8 O 0.60027(15) 0.4519(5) 0.62009(15)
loop_
_geom_bond_atom_site_label_1
_geom_bond_atom_site_label_2
_geom_bond_site_symmetry_1
_geom_bond_site_symmetry_2
S1 C1 1_555 1_555
C1 C2 1_555 1_555
C2 C3 1_555 1_555
C3 H1 1_555 1_555
C4 C3 1_555 1_555
C5 C4 1_555 1_555
H2 C5 1_555 1_555
C6 C1 1_555 1_555
C7 C2 1_555 1_555
H3 C7 1_555 1_555
H4 C7 1_555 1_555
H5 C7 1_555 1_555
C8 C4 1_555 1_555
H6 C8 1_555 1_555
H7 C8 1_555 1_555
H8 C8 1_555 1_555
C9 C6 1_555 1_555
H9 C9 1_555 1_555
H10 C9 1_555 1_555
H11 C9 1_555 1_555
O1 S1 1_555 1_555
O2 S1 1_555 1_555
O3 S1 1_555 1_555
N1 C10 1_555 1_555
C10 C11 1_555 1_555
C11 H12 1_555 1_555
C12 C11 1_555 1_555
H13 C12 1_555 1_555
C13 C12 1_555 1_555
H14 C13 1_555 1_555
C14 C13 1_555 1_555
H15 C14 1_555 1_555
C15 C10 1_555 1_555
C16 C15 1_555 1_555
C17 C16 1_555 1_555
H16 C17 1_555 1_555
C18 N1 1_555 1_555
H17 C18 1_555 1_555
C19 N1 1_555 1_555
H18 C19 1_555 1_555
H19 C19 1_555 1_555
H20 C19 1_555 1_555
C20 C16 1_555 1_555
H21 C20 1_555 1_555
C21 C20 1_555 1_555
H22 C21 1_555 1_555
C22 C21 1_555 1_555
C23 C22 1_555 1_555
H23 C23 1_555 1_555
C24 C23 1_555 1_555
H24 C24 1_555 1_555
C25 C24 1_555 1_555
C26 C25 1_555 1_555
H25 C26 1_555 1_555
C27 C22 1_555 1_555
H26 C27 1_555 1_555
O4 C25 1_555 1_555
H27 O4 1_555 1_555
N2 C28 1_555 1_555
C28 C29 1_555 1_555
C29 H28 1_555 1_555
C30 C29 1_555 1_555
H29 C30 1_555 1_555
C31 C30 1_555 1_555
H30 C31 1_555 1_555
C32 C31 1_555 1_555
H31 C32 1_555 1_555
C33 C28 1_555 1_555
C34 C33 1_555 1_555
C35 C34 1_555 1_555
H32 C35 1_555 1_555
C36 N2 1_555 1_555
H33 C36 1_555 1_555
C37 N2 1_555 1_555
H34 C37 1_555 1_555
H35 C37 1_555 1_555
H36 C37 1_555 1_555
C38 C34 1_555 1_555
H37 C38 1_555 1_555
C39 C38 1_555 1_555
H38 C39 1_555 1_555
C40 C39 1_555 1_555
C41 C40 1_555 1_555
H39 C41 1_555 1_555
C42 C41 1_555 1_555
H40 C42 1_555 1_555
C43 C42 1_555 1_555
C44 C43 1_555 1_555
H41 C44 1_555 1_555
C45 C40 1_555 1_555
H42 C45 1_555 1_555
O5 C43 1_555 1_555
H43 O5 1_555 1_555
S2 C46 1_555 1_555
C46 C47 1_555 1_555
C47 C48 1_555 1_555
C48 H44 1_555 1_555
C49 C48 1_555 1_555
C50 C49 1_555 1_555
H45 C50 1_555 1_555
C51 C46 1_555 1_555
C52 C47 1_555 1_555
H46 C52 1_555 1_555
H47 C52 1_555 1_555
H48 C52 1_555 1_555
C53 C49 1_555 1_555
H49 C53 1_555 1_555
H50 C53 1_555 1_555
H51 C53 1_555 1_555
C54 C51 1_555 1_555
H52 C54 1_555 1_555
H53 C54 1_555 1_555
H54 C54 1_555 1_555
O6 S2 1_555 1_555
O7 S2 1_555 1_555
O8 S2 1_555 1_555
C5 C6 1_555 1_555
C14 C15 1_555 1_555
C17 C18 1_555 1_555
C26 C27 1_555 1_555
C32 C33 1_555 1_555
C35 C36 1_555 1_555
C44 C45 1_555 1_555
C50 C51 1_555 1_555

#END
