
#######################################################################
#
#                 Cambridge Crystallographic Data Centre
#                                CCDC 
#
#######################################################################
#
# If this CIF has been generated from an entry in the Cambridge 
# Structural Database, then it will include bibliographic, chemical, 
# crystal, experimental, refinement or atomic coordinate data resulting 
# from the CCDC's data processing and validation procedures.
#
#######################################################################

data_QUYVUD
_chemical_formula_moiety         'C19 H18 N1 O2 1+,C6 H4 Br1 O3 S1 1-'
_chemical_name_systematic        
'4-(2-(4-Hydroxy-3-methoxyphenyl)vinyl)-1-methylquinolinium 4-bromobenzenesulfonate'
_symmetry_cell_setting           monoclinic
_symmetry_space_group_name_H-M   'P 21/n'
_symmetry_Int_Tables_number      14
_space_group_name_Hall           '-P 2yn'
loop_
_symmetry_equiv_pos_site_id
_symmetry_equiv_pos_as_xyz
1 x,y,z
2 1/2-x,1/2+y,1/2-z
3 -x,-y,-z
4 1/2+x,1/2-y,1/2+z
_cell_length_a                   10.669(2)
_cell_length_b                   9.9116(18)
_cell_length_c                   21.116(4)
_cell_angle_alpha                90
_cell_angle_beta                 102.439(2)
_cell_angle_gamma                90
_cell_volume                     2180.53
_exptl_crystal_colour            red
_exptl_crystal_description       Prism
_cell_formula_units_Z            4
loop_
_atom_site_label
_atom_site_type_symbol
_atom_site_fract_x
_atom_site_fract_y
_atom_site_fract_z
Br1 Br 0.519621(19) 0.032945(18) 0.733482(9)
S1 S 0.50759(4) 0.67976(4) 0.74225(2)
O1 O 0.56610(13) 0.73168(13) 0.69122(6)
O2 O 0.58910(13) 0.70216(14) 0.80684(6)
O3 O 0.37597(13) 0.72162(14) 0.73730(8)
C1 C 0.61851(16) 0.43558(17) 0.72991(8)
H1 H 0.6934 0.4866 0.7287
C2 C 0.62285(16) 0.29561(17) 0.72841(8)
H2 H 0.7000 0.2499 0.7262
C3 C 0.51173(16) 0.22396(17) 0.73029(8)
C4 C 0.39668(17) 0.28759(17) 0.73133(8)
H3 H 0.3212 0.2365 0.7309
C5 C 0.39384(16) 0.42819(17) 0.73302(8)
H4 H 0.3160 0.4738 0.7340
C6 C 0.50480(15) 0.50148(18) 0.73321(7)
O4 O 0.07624(13) 0.70959(14) 0.42728(6)
O5 O 0.10262(13) 0.62117(14) 0.54719(6)
N1 N 0.78396(15) -0.07000(16) 0.56644(7)
C7 C 0.77856(16) -0.02948(17) 0.50319(8)
C8 C 0.85738(18) -0.09244(19) 0.46630(9)
H5 H 0.9144 -0.1627 0.4846
C9 C 0.8507(2) -0.0509(2) 0.40362(10)
H6 H 0.9027 -0.0937 0.3783
C10 C 0.76785(19) 0.0542(2) 0.37647(10)
H7 H 0.7656 0.0828 0.3333
C11 C 0.69038(18) 0.11570(19) 0.41178(9)
H8 H 0.6348 0.1865 0.3928
C12 C 0.69199(16) 0.07514(17) 0.47623(8)
C13 C 0.60885(16) 0.13473(17) 0.51383(8)
C14 C 0.61965(19) 0.0857(2) 0.57644(9)
H9 H 0.5661 0.1219 0.6028
C15 C 0.7061(2) -0.0140(2) 0.60100(9)
H10 H 0.7108 -0.0443 0.6441
C16 C 0.51626(17) 0.23827(17) 0.48626(8)
H11 H 0.5067 0.2582 0.4415
C17 C 0.44318(17) 0.30785(18) 0.51946(8)
H12 H 0.4534 0.2872 0.5642
C18 C 0.34974(16) 0.41196(18) 0.49327(8)
C19 C 0.33062(17) 0.45865(18) 0.42926(9)
H13 H 0.3804 0.4228 0.4010
C20 C 0.23941(17) 0.55690(18) 0.40704(8)
H14 H 0.2275 0.5875 0.3635
C21 C 0.16479(16) 0.61178(17) 0.44718(8)
C22 C 0.18184(17) 0.56467(18) 0.51166(8)
C23 C 0.27450(17) 0.46728(17) 0.53409(8)
H15 H 0.2874 0.4374 0.5778
C24 C 0.87477(19) -0.1759(2) 0.59621(10)
H16 H 0.8630 -0.1948 0.6401
H17 H 0.9629 -0.1451 0.5983
H18 H 0.8588 -0.2582 0.5700
C25 C 0.1215(2) 0.5776(2) 0.61333(9)
H19 H 0.1100 0.4796 0.6146
H20 H 0.0587 0.6221 0.6341
H21 H 0.2085 0.6013 0.6365
H22 H 0.078(3) 0.731(3) 0.3891(16)
loop_
_geom_bond_atom_site_label_1
_geom_bond_atom_site_label_2
_geom_bond_site_symmetry_1
_geom_bond_site_symmetry_2
Br1 C3 1_555 1_555
S1 O1 1_555 1_555
O2 S1 1_555 1_555
O3 S1 1_555 1_555
C1 H1 1_555 1_555
C2 C1 1_555 1_555
H2 C2 1_555 1_555
C3 C2 1_555 1_555
C4 C3 1_555 1_555
H3 C4 1_555 1_555
C5 C4 1_555 1_555
H4 C5 1_555 1_555
C6 S1 1_555 1_555
O4 C21 1_555 1_555
O5 C22 1_555 1_555
N1 C7 1_555 1_555
C7 C8 1_555 1_555
C8 H5 1_555 1_555
C9 C8 1_555 1_555
H6 C9 1_555 1_555
C10 C9 1_555 1_555
H7 C10 1_555 1_555
C11 C10 1_555 1_555
H8 C11 1_555 1_555
C12 C7 1_555 1_555
C13 C12 1_555 1_555
C14 C13 1_555 1_555
H9 C14 1_555 1_555
C15 N1 1_555 1_555
H10 C15 1_555 1_555
C16 C13 1_555 1_555
H11 C16 1_555 1_555
C17 C16 1_555 1_555
H12 C17 1_555 1_555
C18 C17 1_555 1_555
C19 C18 1_555 1_555
H13 C19 1_555 1_555
C20 C19 1_555 1_555
H14 C20 1_555 1_555
C21 C20 1_555 1_555
C22 C21 1_555 1_555
C23 C18 1_555 1_555
H15 C23 1_555 1_555
C24 N1 1_555 1_555
H16 C24 1_555 1_555
H17 C24 1_555 1_555
H18 C24 1_555 1_555
C25 O5 1_555 1_555
H19 C25 1_555 1_555
H20 C25 1_555 1_555
H21 C25 1_555 1_555
H22 O4 1_555 1_555
C1 C6 1_555 1_555
C5 C6 1_555 1_555
C11 C12 1_555 1_555
C14 C15 1_555 1_555
C22 C23 1_555 1_555

#END
