
#######################################################################
#
#                 Cambridge Crystallographic Data Centre
#                                CCDC 
#
#######################################################################
#
# If this CIF has been generated from an entry in the Cambridge 
# Structural Database, then it will include bibliographic, chemical, 
# crystal, experimental, refinement or atomic coordinate data resulting 
# from the CCDC's data processing and validation procedures.
#
#######################################################################

data_QUZBAP
_chemical_formula_moiety         'C14 H15 F3 N2 O5'
_chemical_name_systematic        
'Ethyl 4-hydroxy-6-(2-hydroxyphenyl)-2-oxo-4-(trifluoromethyl)hexahydropyrimidine-5-carboxylate'
_symmetry_cell_setting           monoclinic
_symmetry_space_group_name_H-M   'P 21/n'
_symmetry_Int_Tables_number      14
_space_group_name_Hall           '-P 2yn'
loop_
_symmetry_equiv_pos_site_id
_symmetry_equiv_pos_as_xyz
1 x,y,z
2 1/2-x,1/2+y,1/2-z
3 -x,-y,-z
4 1/2+x,1/2-y,1/2+z
_cell_length_a                   12.0940(15)
_cell_length_b                   8.6650(10)
_cell_length_c                   14.3110(18)
_cell_angle_alpha                90
_cell_angle_beta                 93.987(6)
_cell_angle_gamma                90
_cell_volume                     1496.08
_exptl_crystal_colour            colorless
_exptl_crystal_description       prism
_cell_formula_units_Z            4
loop_
_atom_site_label
_atom_site_type_symbol
_atom_site_fract_x
_atom_site_fract_y
_atom_site_fract_z
F1 F 0.63046(7) 0.13597(8) 0.56068(5)
F2 F 0.70104(6) -0.07799(8) 0.61474(5)
F3 F 0.52483(6) -0.04190(9) 0.61064(5)
O1 O 0.73825(7) 0.17971(10) 0.73408(6)
O2 O 0.57743(7) -0.12700(9) 0.92883(6)
O3 O 0.61021(7) 0.46053(9) 0.68641(6)
O4 O 0.44283(7) 0.37553(9) 0.63011(6)
O5 O 0.57096(8) 0.57378(10) 0.88466(7)
N1 N 0.62882(9) -0.02277(12) 0.79262(7)
N2 N 0.52802(9) 0.11947(11) 0.89483(8)
C1 C 0.63604(10) 0.10070(14) 0.72522(9)
C2 C 0.54011(10) 0.21315(13) 0.73746(8)
H1 H 0.4693 0.1572 0.7201
C3 C 0.53875(10) 0.26147(13) 0.84121(8)
H2 H 0.6103 0.3134 0.8614
C4 C 0.57828(10) -0.01283(14) 0.87496(9)
C5 C 0.62326(10) 0.02811(14) 0.62678(9)
C6 C 0.53918(10) 0.36240(14) 0.68090(8)
C7 C 0.41216(11) 0.52976(14) 0.59613(10)
H3 H 0.4704 0.5723 0.5582
H4 H 0.4024 0.6003 0.6494
C8 C 0.30531(11) 0.51220(17) 0.53746(10)
H5 H 0.3166 0.4433 0.4847
H6 H 0.2806 0.6135 0.5137
H7 H 0.2489 0.4683 0.5757
C9 C 0.44302(10) 0.37055(13) 0.85540(8)
C10 C 0.46361(10) 0.52609(14) 0.87614(8)
C11 C 0.37451(11) 0.62576(15) 0.88661(9)
H8 H 0.3882 0.7312 0.9014
C12 C 0.26690(11) 0.57248(15) 0.87573(9)
H9 H 0.2071 0.6412 0.8836
C13 C 0.24560(12) 0.41890(15) 0.85339(10)
H10 H 0.1715 0.3824 0.8452
C14 C 0.33378(11) 0.31964(15) 0.84326(9)
H11 H 0.3194 0.2146 0.8277
H12 H 0.7889(15) 0.1108(18) 0.7422(12)
H13 H 0.6684(12) -0.1011(15) 0.7884(9)
H14 H 0.4973(12) 0.1248(15) 0.9477(11)
H15 H 0.5734(13) 0.6771(19) 0.8967(11)
loop_
_geom_bond_atom_site_label_1
_geom_bond_atom_site_label_2
_geom_bond_site_symmetry_1
_geom_bond_site_symmetry_2
F1 C5 1_555 1_555
F2 C5 1_555 1_555
F3 C5 1_555 1_555
O1 C1 1_555 1_555
O2 C4 1_555 1_555
O3 C6 1_555 1_555
O4 C6 1_555 1_555
O5 C10 1_555 1_555
N1 C1 1_555 1_555
N2 C3 1_555 1_555
C1 C2 1_555 1_555
C2 H1 1_555 1_555
C3 C2 1_555 1_555
H2 C3 1_555 1_555
C4 N1 1_555 1_555
C5 C1 1_555 1_555
C6 C2 1_555 1_555
C7 O4 1_555 1_555
H3 C7 1_555 1_555
H4 C7 1_555 1_555
C8 C7 1_555 1_555
H5 C8 1_555 1_555
H6 C8 1_555 1_555
H7 C8 1_555 1_555
C9 C3 1_555 1_555
C10 C9 1_555 1_555
C11 C10 1_555 1_555
H8 C11 1_555 1_555
C12 C11 1_555 1_555
H9 C12 1_555 1_555
C13 C12 1_555 1_555
H10 C13 1_555 1_555
C14 C9 1_555 1_555
H11 C14 1_555 1_555
H12 O1 1_555 1_555
H13 N1 1_555 1_555
H14 N2 1_555 1_555
H15 O5 1_555 1_555
N2 C4 1_555 1_555
C13 C14 1_555 1_555

#END
