
#######################################################################
#
#                 Cambridge Crystallographic Data Centre
#                                CCDC 
#
#######################################################################
#
# If this CIF has been generated from an entry in the Cambridge 
# Structural Database, then it will include bibliographic, chemical, 
# crystal, experimental, refinement or atomic coordinate data resulting 
# from the CCDC's data processing and validation procedures.
#
#######################################################################

data_QUZFUN
_chemical_formula_moiety         'C18 H18 O4 S2'
_chemical_name_systematic        
"Dimethyl 2,2'-(ethane-1,2-diylbis(sulfanediyl))dibenzoate"
_symmetry_cell_setting           monoclinic
_symmetry_space_group_name_H-M   'C 2'
_symmetry_Int_Tables_number      5
_space_group_name_Hall           'C 2y'
loop_
_symmetry_equiv_pos_site_id
_symmetry_equiv_pos_as_xyz
1 x,y,z
2 -x,y,-z
3 1/2+x,1/2+y,z
4 1/2-x,1/2+y,-z
_cell_length_a                   15.077(3)
_cell_length_b                   5.3913(10)
_cell_length_c                   12.495(2)
_cell_angle_alpha                90
_cell_angle_beta                 120.662(2)
_cell_angle_gamma                90
_cell_volume                     873.654
_exptl_crystal_colour            colorless
_exptl_crystal_description       block
_cell_formula_units_Z            2
_exptl_crystal_recrystallization_method acetonitrile
loop_
_atom_site_label
_atom_site_type_symbol
_atom_site_fract_x
_atom_site_fract_y
_atom_site_fract_z
C1 C 0.24609(11) 0.0317(4) 0.17607(14)
C2 C 0.31876(12) 0.1986(4) 0.26461(15)
C3 C 0.42223(14) 0.1865(5) 0.29514(18)
H1 H 0.4700 0.2970 0.3530
C4 C 0.45387(16) 0.0121(6) 0.2402(2)
H2 H 0.5224 0.0062 0.2606
C5 C 0.38363(18) -0.1516(5) 0.1556(2)
H3 H 0.4051 -0.2695 0.1192
C6 C 0.28109(16) -0.1440(4) 0.12343(19)
H4 H 0.2348 -0.2574 0.0660
C7 C 0.28831(13) 0.3846(4) 0.32683(16)
C8 C 0.05804(14) -0.2095(4) 0.02558(17)
H5 H 0.0717 -0.1916 -0.0420
H6 H 0.0879 -0.3649 0.0679
C9 C 0.3458(2) 0.6901(7) 0.4813(3)
H7 H 0.2859 0.7821 0.4230
H8 H 0.4035 0.8008 0.5233
H9 H 0.3330 0.6119 0.5411
O1 O 0.36822(11) 0.5052(4) 0.41658(15)
O2 O 0.20111(11) 0.4248(3) 0.30111(15)
S1 S 0.11495(3) 0.04719(7) 0.13359(4)
C1A C -0.24609(11) 0.0317(4) -0.17607(14)
C2A C -0.31876(12) 0.1986(4) -0.26461(15)
C3A C -0.42223(14) 0.1865(5) -0.29514(18)
H1A H -0.4700 0.2970 -0.3530
C4A C -0.45387(16) 0.0121(6) -0.2402(2)
H2A H -0.5224 0.0062 -0.2606
C5A C -0.38363(18) -0.1516(5) -0.1556(2)
H3A H -0.4051 -0.2695 -0.1192
C6A C -0.28109(16) -0.1440(4) -0.12343(19)
H4A H -0.2348 -0.2574 -0.0660
C7A C -0.28831(13) 0.3846(4) -0.32683(16)
C8A C -0.05804(14) -0.2095(4) -0.02558(17)
H5A H -0.0717 -0.1916 0.0420
H6A H -0.0879 -0.3649 -0.0679
C9A C -0.3458(2) 0.6901(7) -0.4813(3)
H7A H -0.2859 0.7821 -0.4230
H8A H -0.4035 0.8008 -0.5233
H9A H -0.3330 0.6119 -0.5411
O1A O -0.36822(11) 0.5052(4) -0.41658(15)
O2A O -0.20111(11) 0.4248(3) -0.30111(15)
S1A S -0.11495(3) 0.04719(7) -0.13359(4)
loop_
_geom_bond_atom_site_label_1
_geom_bond_atom_site_label_2
_geom_bond_site_symmetry_1
_geom_bond_site_symmetry_2
C1 C2 1_555 1_555
C2 C3 1_555 1_555
C3 H1 1_555 1_555
C4 C3 1_555 1_555
H2 C4 1_555 1_555
C5 C4 1_555 1_555
H3 C5 1_555 1_555
C6 C1 1_555 1_555
H4 C6 1_555 1_555
C7 C2 1_555 1_555
C8 H5 1_555 1_555
H6 C8 1_555 1_555
C9 H7 1_555 1_555
H8 C9 1_555 1_555
H9 C9 1_555 1_555
O1 C7 1_555 1_555
O2 C7 1_555 1_555
S1 C1 1_555 1_555
C1A C2A 1_555 1_555
C2A C3A 1_555 1_555
C3A H1A 1_555 1_555
C4A C3A 1_555 1_555
H2A C4A 1_555 1_555
C5A C4A 1_555 1_555
H3A C5A 1_555 1_555
C6A C1A 1_555 1_555
H4A C6A 1_555 1_555
C7A C2A 1_555 1_555
C8A C8 1_555 1_555
H5A C8A 1_555 1_555
H6A C8A 1_555 1_555
C9A H7A 1_555 1_555
H8A C9A 1_555 1_555
H9A C9A 1_555 1_555
O1A C7A 1_555 1_555
O2A C7A 1_555 1_555
S1A C1A 1_555 1_555
C5 C6 1_555 1_555
C8 S1 1_555 1_555
C9 O1 1_555 1_555
C5A C6A 1_555 1_555
C8A S1A 1_555 1_555
C9A O1A 1_555 1_555

#END
