
#######################################################################
#
#                 Cambridge Crystallographic Data Centre
#                                CCDC 
#
#######################################################################
#
# If this CIF has been generated from an entry in the Cambridge 
# Structural Database, then it will include bibliographic, chemical, 
# crystal, experimental, refinement or atomic coordinate data resulting 
# from the CCDC's data processing and validation procedures.
#
#######################################################################

data_QUZHID
_chemical_formula_moiety         'C18 H13 N1 O2 S1'
_chemical_name_systematic        
10-Hydroxy-10-(1,3-thiazol-2-ylmethyl)phenanthren-9(10H)-one
_symmetry_cell_setting           orthorhombic
_symmetry_space_group_name_H-M   'P n a 21'
_symmetry_Int_Tables_number      33
_space_group_name_Hall           'P 2c -2n'
loop_
_symmetry_equiv_pos_site_id
_symmetry_equiv_pos_as_xyz
1 x,y,z
2 -x,-y,1/2+z
3 1/2+x,1/2-y,z
4 1/2-x,1/2+y,1/2+z
_cell_length_a                   12.5623(17)
_cell_length_b                   7.3222(10)
_cell_length_c                   15.462(2)
_cell_angle_alpha                90
_cell_angle_beta                 90
_cell_angle_gamma                90
_cell_volume                     1422.25
_exptl_crystal_colour            colorless
_exptl_crystal_description       block
_chemical_melting_point          '430-432 K'
_cell_formula_units_Z            4
_exptl_crystal_recrystallization_method 'acetone/petroleum ether'
loop_
_atom_site_label
_atom_site_type_symbol
_atom_site_fract_x
_atom_site_fract_y
_atom_site_fract_z
S1 S 0.53518(2) 0.49600(5) 0.78827(3)
O1 O 0.58478(9) 0.98317(13) 0.74430(7)
O2 O 0.68596(7) 0.68224(13) 0.67503(6)
N1 N 0.36431(8) 0.62424(14) 0.72334(7)
C1 C 0.56431(10) 0.94441(17) 0.66980(9)
C2 C 0.48837(10) 1.05126(17) 0.61503(9)
C3 C 0.40687(10) 1.14942(18) 0.65511(9)
H1 H 0.4023 1.1531 0.7151
C4 C 0.33251(11) 1.24171(19) 0.60461(10)
H2 H 0.2769 1.3048 0.6307
C5 C 0.34165(11) 1.23923(19) 0.51504(10)
H3 H 0.2923 1.3021 0.4816
C6 C 0.42365(10) 1.14409(18) 0.47484(9)
H4 H 0.4289 1.1443 0.4148
C7 C 0.49871(10) 1.04759(17) 0.52450(8)
C8 C 0.59038(10) 0.95064(18) 0.48531(8)
C9 C 0.62580(11) 0.98991(18) 0.40142(9)
H5 H 0.5878 1.0717 0.3673
C10 C 0.71727(10) 0.90792(19) 0.36852(9)
H6 H 0.7404 0.9362 0.3130
C11 C 0.77403(10) 0.78396(19) 0.41853(9)
H7 H 0.8355 0.7303 0.3967
C12 C 0.73877(10) 0.74002(18) 0.50145(9)
H8 H 0.7761 0.6554 0.5345
C13 C 0.64729(9) 0.82280(17) 0.53514(8)
C14 C 0.60853(9) 0.77241(17) 0.62538(8)
C15 C 0.51421(10) 0.63447(17) 0.61865(8)
H9 H 0.4604 0.6844 0.5804
H10 H 0.5398 0.5216 0.5933
C16 C 0.46450(9) 0.59352(16) 0.70480(8)
C17 C 0.34056(11) 0.56729(19) 0.80632(9)
H11 H 0.2727 0.5786 0.8298
C18 C 0.42275(12) 0.49388(19) 0.85133(10)
H12 H 0.4188 0.4494 0.9076
H13 H 0.7346(14) 0.751(3) 0.6817(12)
loop_
_geom_bond_atom_site_label_1
_geom_bond_atom_site_label_2
_geom_bond_site_symmetry_1
_geom_bond_site_symmetry_2
S1 C16 1_555 1_555
O1 C1 1_555 1_555
O2 C14 1_555 1_555
N1 C16 1_555 1_555
C1 C2 1_555 1_555
C2 C3 1_555 1_555
C3 H1 1_555 1_555
C4 C3 1_555 1_555
H2 C4 1_555 1_555
C5 C4 1_555 1_555
H3 C5 1_555 1_555
C6 C5 1_555 1_555
H4 C6 1_555 1_555
C7 C2 1_555 1_555
C8 C7 1_555 1_555
C9 C8 1_555 1_555
H5 C9 1_555 1_555
C10 C9 1_555 1_555
H6 C10 1_555 1_555
C11 C10 1_555 1_555
H7 C11 1_555 1_555
C12 C11 1_555 1_555
H8 C12 1_555 1_555
C13 C8 1_555 1_555
C14 C1 1_555 1_555
C15 C14 1_555 1_555
H9 C15 1_555 1_555
H10 C15 1_555 1_555
C16 C15 1_555 1_555
C17 N1 1_555 1_555
H11 C17 1_555 1_555
C18 S1 1_555 1_555
H12 C18 1_555 1_555
H13 O2 1_555 1_555
C6 C7 1_555 1_555
C12 C13 1_555 1_555
C13 C14 1_555 1_555
C17 C18 1_555 1_555

#END
