
#######################################################################
#
#                 Cambridge Crystallographic Data Centre
#                                CCDC 
#
#######################################################################
#
# If this CIF has been generated from an entry in the Cambridge 
# Structural Database, then it will include bibliographic, chemical, 
# crystal, experimental, refinement or atomic coordinate data resulting 
# from the CCDC's data processing and validation procedures.
#
#######################################################################

data_QUZKOM
_chemical_formula_moiety         'C17 H16 Cl1 N1 O3'
_chemical_name_systematic        
(E)-3-(3-Chlorophenyl)-N-(4-hydroxy-3-methoxybenzyl)acrylamide
_symmetry_cell_setting           monoclinic
_symmetry_space_group_name_H-M   'P 21/c'
_symmetry_Int_Tables_number      14
_space_group_name_Hall           '-P 2ybc'
loop_
_symmetry_equiv_pos_site_id
_symmetry_equiv_pos_as_xyz
1 x,y,z
2 -x,1/2+y,1/2-z
3 -x,-y,-z
4 x,1/2-y,1/2+z
_cell_length_a                   9.036(3)
_cell_length_b                   14.972(5)
_cell_length_c                   11.768(4)
_cell_angle_alpha                90
_cell_angle_beta                 95.047(5)
_cell_angle_gamma                90
_cell_volume                     1585.88
_exptl_crystal_colour            colorless
_exptl_crystal_description       prism
_cell_formula_units_Z            4
_exptl_crystal_recrystallization_method 'ethyl acetate'
loop_
_atom_site_label
_atom_site_type_symbol
_atom_site_fract_x
_atom_site_fract_y
_atom_site_fract_z
Cl1 Cl 1.00757(8) -0.14493(4) 0.27966(5)
N1 N 0.40981(17) 0.25930(9) 0.46714(12)
H1 H 0.4401 0.2856 0.4085
O1 O 0.43789(14) 0.13850(8) 0.58155(9)
O2 O 0.26985(16) 0.62811(8) 0.51708(10)
O3 O 0.44518(16) 0.63463(8) 0.70403(9)
H2 H 0.4801 0.6304 0.7705
C1 C 0.9795(2) -0.03509(13) 0.32316(15)
C2 C 0.8564(2) -0.01564(12) 0.37947(14)
H3 H 0.7909 -0.0607 0.3961
C3 C 0.8309(2) 0.07197(12) 0.41124(14)
C4 C 0.9333(2) 0.13733(13) 0.38823(14)
H4 H 0.9179 0.1962 0.4097
C5 C 1.0569(2) 0.11562(14) 0.33406(16)
H5 H 1.1254 0.1598 0.3201
C6 C 1.0807(2) 0.02909(15) 0.30013(16)
H6 H 1.1637 0.0146 0.2624
C7 C 0.6954(2) 0.09312(12) 0.46534(13)
H7 H 0.6586 0.0499 0.5121
C8 C 0.6219(2) 0.16872(12) 0.45275(13)
H8 H 0.6588 0.2131 0.4077
C9 C 0.4838(2) 0.18648(12) 0.50668(13)
C10 C 0.2816(2) 0.29694(12) 0.51673(16)
H9 H 0.2495 0.2566 0.5742
H10 H 0.2003 0.3041 0.4579
C11 C 0.32141(19) 0.38656(11) 0.57021(14)
C12 C 0.2720(2) 0.46507(12) 0.51713(14)
H11 H 0.2101 0.4622 0.4498
C13 C 0.3129(2) 0.54727(11) 0.56242(14)
C14 C 0.4062(2) 0.55182(11) 0.66299(13)
C15 C 0.4549(2) 0.47407(13) 0.71542(14)
H12 H 0.5172 0.4766 0.7826
C16 C 0.4126(2) 0.39228(12) 0.66993(15)
H13 H 0.4462 0.3403 0.7070
C17 C 0.1775(3) 0.62875(14) 0.41375(17)
H14 H 0.2262 0.5978 0.3560
H15 H 0.1584 0.6893 0.3901
H16 H 0.0853 0.5996 0.4249
loop_
_geom_bond_atom_site_label_1
_geom_bond_atom_site_label_2
_geom_bond_site_symmetry_1
_geom_bond_site_symmetry_2
Cl1 C1 1_555 1_555
N1 H1 1_555 1_555
O1 C9 1_555 1_555
O2 C13 1_555 1_555
O3 H2 1_555 1_555
C1 C2 1_555 1_555
C2 H3 1_555 1_555
C3 C2 1_555 1_555
C4 C3 1_555 1_555
H4 C4 1_555 1_555
C5 C4 1_555 1_555
H5 C5 1_555 1_555
C6 C1 1_555 1_555
H6 C6 1_555 1_555
C7 C3 1_555 1_555
H7 C7 1_555 1_555
C8 C7 1_555 1_555
H8 C8 1_555 1_555
C9 N1 1_555 1_555
C10 N1 1_555 1_555
H9 C10 1_555 1_555
H10 C10 1_555 1_555
C11 C10 1_555 1_555
C12 C11 1_555 1_555
H11 C12 1_555 1_555
C13 C12 1_555 1_555
C14 O3 1_555 1_555
C15 C14 1_555 1_555
H12 C15 1_555 1_555
C16 C11 1_555 1_555
H13 C16 1_555 1_555
C17 O2 1_555 1_555
H14 C17 1_555 1_555
H15 C17 1_555 1_555
H16 C17 1_555 1_555
C5 C6 1_555 1_555
C8 C9 1_555 1_555
C13 C14 1_555 1_555
C15 C16 1_555 1_555

#END
