
#######################################################################
#
#                 Cambridge Crystallographic Data Centre
#                                CCDC 
#
#######################################################################
#
# If this CIF has been generated from an entry in the Cambridge 
# Structural Database, then it will include bibliographic, chemical, 
# crystal, experimental, refinement or atomic coordinate data resulting 
# from the CCDC's data processing and validation procedures.
#
#######################################################################

data_QUZLIH
_chemical_formula_moiety         'C8 H13 N1 O6'
_chemical_name_systematic        
(3R,3aS,6R,6aR)-3-(1-Nitroethyl)perhydrofuro[3,2-b]furan-3,6-diol
_symmetry_cell_setting           monoclinic
_symmetry_space_group_name_H-M   'P 21'
_symmetry_Int_Tables_number      4
_space_group_name_Hall           'P 2yb'
loop_
_symmetry_equiv_pos_site_id
_symmetry_equiv_pos_as_xyz
1 x,y,z
2 -x,1/2+y,-z
_cell_length_a                   6.959(4)
_cell_length_b                   5.525(3)
_cell_length_c                   12.384(6)
_cell_angle_alpha                90
_cell_angle_beta                 97.077(7)
_cell_angle_gamma                90
_cell_volume                     472.518
_exptl_crystal_colour            colorless
_exptl_crystal_description       needle-like
_cell_formula_units_Z            2
_exptl_crystal_recrystallization_method ethanol
loop_
_atom_site_label
_atom_site_type_symbol
_atom_site_fract_x
_atom_site_fract_y
_atom_site_fract_z
N1 N 0.9397(6) 0.4876(9) 0.8645(3)
O1 O 0.3548(4) 0.4642(5) 0.61605(19)
O2 O 0.5198(4) -0.0131(5) 0.7607(2)
O3 O 0.3353(5) -0.0495(6) 0.55654(18)
H1 H 0.3836 -0.1713 0.5865
O4 O 0.7338(4) 0.5239(6) 0.6667(2)
H2 H 0.6696 0.5192 0.6066
O5 O 1.0171(6) 0.6770(9) 0.8438(3)
O6 O 1.0297(6) 0.3057(9) 0.8937(3)
C1 C 0.4230(5) 0.3930(7) 0.7261(3)
H3 H 0.3753 0.5017 0.7795
C2 C 0.3545(6) 0.1339(7) 0.7386(3)
H4 H 0.2752 0.1239 0.7986
C3 C 0.2290(7) 0.0763(8) 0.6291(3)
H5 H 0.1108 -0.0111 0.6407
C4 C 0.1837(6) 0.3261(9) 0.5835(3)
H6 H 0.1558 0.3209 0.5049
H7 H 0.0732 0.3949 0.6133
C5 C 0.6784(6) 0.1117(8) 0.7223(4)
H8 H 0.6822 0.0785 0.6456
H9 H 0.8001 0.0608 0.7625
C6 C 0.6445(5) 0.3804(7) 0.7401(3)
C7 C 0.7219(5) 0.4776(9) 0.8547(3)
H10 H 0.6749 0.6440 0.8596
C8 C 0.6571(6) 0.3377(10) 0.9479(3)
H11 H 0.7002 0.1730 0.9450
H12 H 0.5184 0.3413 0.9429
H13 H 0.7115 0.4094 1.0154
loop_
_geom_bond_atom_site_label_1
_geom_bond_atom_site_label_2
_geom_bond_site_symmetry_1
_geom_bond_site_symmetry_2
N1 O5 1_555 1_555
O1 C1 1_555 1_555
O2 C2 1_555 1_555
O3 H1 1_555 1_555
O4 H2 1_555 1_555
O6 N1 1_555 1_555
C1 H3 1_555 1_555
C2 C1 1_555 1_555
H4 C2 1_555 1_555
C3 O3 1_555 1_555
H5 C3 1_555 1_555
C4 O1 1_555 1_555
H6 C4 1_555 1_555
H7 C4 1_555 1_555
C5 O2 1_555 1_555
H8 C5 1_555 1_555
H9 C5 1_555 1_555
C6 O4 1_555 1_555
C7 N1 1_555 1_555
H10 C7 1_555 1_555
C8 C7 1_555 1_555
H11 C8 1_555 1_555
H12 C8 1_555 1_555
H13 C8 1_555 1_555
C1 C6 1_555 1_555
C2 C3 1_555 1_555
C3 C4 1_555 1_555
C5 C6 1_555 1_555
C6 C7 1_555 1_555

#END
