
#######################################################################
#
#                 Cambridge Crystallographic Data Centre
#                                CCDC 
#
#######################################################################
#
# If this CIF has been generated from an entry in the Cambridge 
# Structural Database, then it will include bibliographic, chemical, 
# crystal, experimental, refinement or atomic coordinate data resulting 
# from the CCDC's data processing and validation procedures.
#
#######################################################################

data_QUZNAB
_chemical_formula_moiety         'C16 H12 F1 N3 O1 S1'
_chemical_name_systematic        
5-(4-Fluorophenyl)-N-(4-methoxybenzylidene)-1,3,4-thiadiazol-2-amine
_symmetry_cell_setting           orthorhombic
_symmetry_space_group_name_H-M   'P c a 21'
_symmetry_Int_Tables_number      29
_space_group_name_Hall           'P 2c -2ac'
loop_
_symmetry_equiv_pos_site_id
_symmetry_equiv_pos_as_xyz
1 x,y,z
2 -x,-y,1/2+z
3 1/2-x,y,1/2+z
4 1/2+x,-y,z
_cell_length_a                   7.4580(15)
_cell_length_b                   17.821(4)
_cell_length_c                   10.891(2)
_cell_angle_alpha                90
_cell_angle_beta                 90
_cell_angle_gamma                90
_cell_volume                     1447.51
_exptl_crystal_colour            colorless
_exptl_crystal_description       block
_chemical_melting_point          '412-414 K'
_cell_formula_units_Z            4
_exptl_crystal_recrystallization_method acetone
loop_
_atom_site_label
_atom_site_type_symbol
_atom_site_fract_x
_atom_site_fract_y
_atom_site_fract_z
S1 S 0.92308(13) 0.41730(5) 0.79211(10)
O1 O 0.9032(5) -0.04222(18) 0.5620(3)
F1 F 0.8635(5) 0.78682(14) 0.8637(3)
N1 N 0.8911(5) 0.2684(2) 0.8632(3)
N2 N 0.8471(5) 0.3651(2) 1.0054(3)
N3 N 0.8461(5) 0.4421(2) 1.0171(3)
C1 C 0.9071(7) -0.1065(3) 0.6422(6)
H1 H 0.9074 -0.1516 0.5940
H2 H 0.8031 -0.1060 0.6942
H3 H 1.0132 -0.1048 0.6920
C2 C 0.9047(6) 0.0268(3) 0.6164(4)
C3 C 0.8810(6) 0.0860(2) 0.5372(4)
H4 H 0.8684 0.0770 0.4535
C4 C 0.8755(6) 0.1585(3) 0.5806(4)
H5 H 0.8579 0.1981 0.5262
C5 C 0.8963(5) 0.1733(2) 0.7064(4)
C6 C 0.9228(5) 0.1129(2) 0.7838(5)
H6 H 0.9388 0.1217 0.8673
C7 C 0.9261(6) 0.0401(3) 0.7411(4)
H7 H 0.9425 0.0003 0.7952
C8 C 0.8852(6) 0.2493(3) 0.7494(4)
H8 H 0.8730 0.2871 0.6912
C9 C 0.8836(5) 0.3439(2) 0.8931(4)
C10 C 0.8857(5) 0.4763(2) 0.9128(3)
C11 C 0.8879(5) 0.5579(2) 0.9023(3)
C12 C 0.9457(5) 0.5931(2) 0.7942(5)
H9 H 0.9893 0.5640 0.7298
C13 C 0.9392(5) 0.6695(2) 0.7818(5)
H10 H 0.9787 0.6924 0.7099
C14 C 0.8735(6) 0.7118(2) 0.8768(4)
C15 C 0.8172(6) 0.6802(3) 0.9853(4)
H11 H 0.7758 0.7101 1.0492
C16 C 0.8234(5) 0.6033(2) 0.9975(3)
H12 H 0.7841 0.5813 1.0701
loop_
_geom_bond_atom_site_label_1
_geom_bond_atom_site_label_2
_geom_bond_site_symmetry_1
_geom_bond_site_symmetry_2
S1 C9 1_555 1_555
O1 C1 1_555 1_555
F1 C14 1_555 1_555
N1 C8 1_555 1_555
N2 N3 1_555 1_555
N3 C10 1_555 1_555
C1 H1 1_555 1_555
H2 C1 1_555 1_555
H3 C1 1_555 1_555
C2 O1 1_555 1_555
C3 C2 1_555 1_555
H4 C3 1_555 1_555
C4 C3 1_555 1_555
H5 C4 1_555 1_555
C5 C4 1_555 1_555
C6 C5 1_555 1_555
H6 C6 1_555 1_555
C7 C2 1_555 1_555
H7 C7 1_555 1_555
C8 C5 1_555 1_555
H8 C8 1_555 1_555
C9 N1 1_555 1_555
C10 S1 1_555 1_555
C11 C10 1_555 1_555
C12 C11 1_555 1_555
H9 C12 1_555 1_555
C13 C12 1_555 1_555
H10 C13 1_555 1_555
C14 C13 1_555 1_555
C15 C14 1_555 1_555
H11 C15 1_555 1_555
C16 C11 1_555 1_555
H12 C16 1_555 1_555
N2 C9 1_555 1_555
C6 C7 1_555 1_555
C15 C16 1_555 1_555

#END
