
#######################################################################
#
#                 Cambridge Crystallographic Data Centre
#                                CCDC 
#
#######################################################################
#
# If this CIF has been generated from an entry in the Cambridge 
# Structural Database, then it will include bibliographic, chemical, 
# crystal, experimental, refinement or atomic coordinate data resulting 
# from the CCDC's data processing and validation procedures.
#
#######################################################################

data_QUZSAG
_chemical_formula_moiety         'C9 H5 O6 1-,C7 H7 N2 1+,3(H2 O1)'
_chemical_name_systematic        
'Benzimidazolium 3,5-dicarboxybenzoate trihydrate'
_symmetry_cell_setting           triclinic
_symmetry_space_group_name_H-M   'P 1'
_symmetry_Int_Tables_number      1
_space_group_name_Hall           'P 1'
loop_
_symmetry_equiv_pos_site_id
_symmetry_equiv_pos_as_xyz
1 x,y,z
_cell_length_a                   3.8478(2)
_cell_length_b                   10.2231(6)
_cell_length_c                   11.2982(7)
_cell_angle_alpha                85.5220(10)
_cell_angle_beta                 80.7070(10)
_cell_angle_gamma                81.8260(10)
_cell_volume                     433.451
_exptl_crystal_colour            colorless
_exptl_crystal_description       block
_cell_formula_units_Z            1
loop_
_atom_site_label
_atom_site_type_symbol
_atom_site_fract_x
_atom_site_fract_y
_atom_site_fract_z
O1 O 0.8287(5) 0.63795(18) 1.20720(14)
O2 O 0.9531(6) 0.44710(18) 1.11874(15)
O3 O 1.2332(6) 0.50067(17) 0.65819(16)
O4 O 0.9893(5) 0.68726(18) 0.57532(15)
H1 H 1.1005 0.6561 0.5135
O5 O 0.2872(6) 1.03786(17) 0.80326(17)
O6 O 0.1819(5) 1.01258(17) 1.00192(16)
H2 H 0.0662 1.0858 0.9946
C8 C 0.7899(5) 0.6418(2) 1.00125(19)
C9 C 0.9324(5) 0.5896(2) 0.89162(19)
H10 H 1.0628 0.5057 0.8895
C10 C 0.8824(6) 0.6614(2) 0.78491(19)
C11 C 0.6801(5) 0.7855(2) 0.78785(19)
H11 H 0.6451 0.8336 0.7165
C12 C 0.5300(6) 0.8377(2) 0.8973(2)
C13 C 0.5874(5) 0.7666(2) 1.00353(19)
H12 H 0.4907 0.8023 1.0768
C14 C 0.8615(6) 0.5697(2) 1.11777(19)
C15 C 1.0532(6) 0.6071(2) 0.66716(18)
C16 C 0.3216(6) 0.9717(2) 0.8957(2)
N1 N -0.0881(6) 0.2463(2) 0.52127(19)
H3 H -0.1644 0.2470 0.5971
N2 N 0.0014(6) 0.3109(2) 0.33346(19)
H4 H -0.0077 0.3595 0.2681
C1 C 0.1306(6) 0.1435(2) 0.4635(2)
C2 C 0.1892(6) 0.1855(2) 0.3429(2)
C3 C 0.3998(7) 0.1058(3) 0.2576(2)
H5 H 0.4411 0.1336 0.1769
C4 C 0.5439(7) -0.0170(3) 0.2996(3)
H6 H 0.6863 -0.0735 0.2455
C5 C 0.4822(8) -0.0587(3) 0.4207(3)
H7 H 0.5843 -0.1424 0.4450
C6 C 0.2766(7) 0.0196(3) 0.5047(3)
H8 H 0.2364 -0.0086 0.5854
C7 C -0.1607(7) 0.3433(2) 0.4406(2)
H9 H -0.3052 0.4227 0.4574
O7 O 0.8307(6) 0.24730(19) 0.9861(2)
H13 H 0.8766 0.3119 1.0213
H14 H 0.7602 0.2814 0.9216
O8 O 0.5721(6) 0.27703(19) 0.75910(17)
H15 H 0.4356 0.2174 0.7739
H16 H 0.4373 0.3479 0.7446
O9 O 0.2592(5) 0.60054(19) 0.37164(15)
H17 H 0.1063 0.6114 0.3240
H18 H 0.4479 0.6232 0.3300
loop_
_geom_bond_atom_site_label_1
_geom_bond_atom_site_label_2
_geom_bond_site_symmetry_1
_geom_bond_site_symmetry_2
O1 C14 1_555 1_555
O2 C14 1_555 1_555
O3 C15 1_555 1_555
O4 H1 1_555 1_555
O5 C16 1_555 1_555
O6 H2 1_555 1_555
N1 H3 1_555 1_555
N2 H4 1_555 1_555
C1 N1 1_555 1_555
C2 N2 1_555 1_555
C3 C2 1_555 1_555
H5 C3 1_555 1_555
C4 C3 1_555 1_555
H6 C4 1_555 1_555
C5 C4 1_555 1_555
H7 C5 1_555 1_555
C6 C1 1_555 1_555
H8 C6 1_555 1_555
C7 N1 1_555 1_555
H9 C7 1_555 1_555
C8 C9 1_555 1_555
C9 H10 1_555 1_555
C10 C9 1_555 1_555
C11 C10 1_555 1_555
H11 C11 1_555 1_555
C12 C11 1_555 1_555
C13 C8 1_555 1_555
H12 C13 1_555 1_555
C14 C8 1_555 1_555
C15 O4 1_555 1_555
C16 O6 1_555 1_555
O7 H13 1_555 1_555
H14 O7 1_555 1_555
O8 H15 1_555 1_555
H16 O8 1_555 1_555
O9 H17 1_555 1_555
H18 O9 1_555 1_555
N2 C7 1_555 1_555
C1 C2 1_555 1_555
C5 C6 1_555 1_555
C10 C15 1_555 1_555
C12 C13 1_555 1_555
C12 C16 1_555 1_555

#END
