
#######################################################################
#
#                 Cambridge Crystallographic Data Centre
#                                CCDC 
#
#######################################################################
#
# If this CIF has been generated from an entry in the Cambridge 
# Structural Database, then it will include bibliographic, chemical, 
# crystal, experimental, refinement or atomic coordinate data resulting 
# from the CCDC's data processing and validation procedures.
#
#######################################################################

data_QUZTEL
_chemical_formula_moiety         'C14 H4 Cl4 F1 N1 O2'
_chemical_name_systematic        
4,5,6,7-Tetrachloro-2-(4-fluorophenyl)isoindoline-1,3-dione
_symmetry_cell_setting           orthorhombic
_symmetry_space_group_name_H-M   'P c c a'
_symmetry_Int_Tables_number      54
_space_group_name_Hall           '-P 2a 2ac'
loop_
_symmetry_equiv_pos_site_id
_symmetry_equiv_pos_as_xyz
1 x,y,z
2 1/2-x,-y,z
3 -x,y,1/2-z
4 1/2+x,-y,1/2-z
5 -x,-y,-z
6 1/2+x,y,-z
7 x,-y,1/2+z
8 1/2-x,y,1/2+z
_cell_length_a                   7.9400(16)
_cell_length_b                   5.6744(11)
_cell_length_c                   29.461(6)
_cell_angle_alpha                90
_cell_angle_beta                 90
_cell_angle_gamma                90
_cell_volume                     1327.36
_exptl_crystal_colour            colorless
_exptl_crystal_description       prism
_cell_formula_units_Z            4
_exptl_crystal_recrystallization_method 'ethyl acetate'
loop_
_atom_site_label
_atom_site_type_symbol
_atom_site_fract_x
_atom_site_fract_y
_atom_site_fract_z
Cl1 Cl 0.14081(12) 0.27246(16) -0.00242(3)
Cl2 Cl 0.01306(11) 0.05859(15) 0.08874(3)
F1 F 0.2500 0.5000 0.39104(10)
O1 O 0.0906(3) 0.1621(5) 0.19160(8)
N1 N 0.2500 0.5000 0.20376(13)
C1 C 0.1999(4) 0.4011(6) 0.04757(10)
C2 C 0.1431(4) 0.3007(7) 0.08894(12)
C3 C 0.1986(4) 0.4021(6) 0.12895(12)
C4 C 0.1677(4) 0.3289(6) 0.17733(11)
C5 C 0.2500 0.5000 0.25202(14)
C6 C 0.1893(4) 0.6957(6) 0.27533(11)
H1 H 0.1499 0.8293 0.2591
C7 C 0.1864(5) 0.6948(7) 0.32247(12)
H2 H 0.1419 0.8248 0.3389
C8 C 0.2500 0.5000 0.34501(17)
Cl1A Cl 0.35919(12) 0.72754(16) -0.00242(3)
Cl2A Cl 0.48694(11) 0.94141(15) 0.08874(3)
O1A O 0.4094(3) 0.8379(5) 0.19160(8)
C1A C 0.3001(4) 0.5989(6) 0.04757(10)
C2A C 0.3569(4) 0.6993(7) 0.08894(12)
C3A C 0.3014(4) 0.5979(6) 0.12895(12)
C4A C 0.3323(4) 0.6711(6) 0.17733(11)
C6A C 0.3107(4) 0.3043(6) 0.27533(11)
H1A H 0.3501 0.1707 0.2591
C7A C 0.3136(5) 0.3052(7) 0.32247(12)
H2A H 0.3581 0.1752 0.3389
loop_
_geom_bond_atom_site_label_1
_geom_bond_atom_site_label_2
_geom_bond_site_symmetry_1
_geom_bond_site_symmetry_2
Cl1 C1 1_555 1_555
Cl2 C2 1_555 1_555
F1 C8 1_555 1_555
O1 C4 1_555 1_555
N1 C4 1_555 1_555
C1 C2 1_555 1_555
C2 C3 1_555 1_555
C3 C4 1_555 1_555
C5 N1 1_555 1_555
C6 C5 1_555 1_555
H1 C6 1_555 1_555
C7 C6 1_555 1_555
H2 C7 1_555 1_555
C8 C7 1_555 1_555
Cl1A C1A 1_555 1_555
Cl2A C2A 1_555 1_555
O1A C4A 1_555 1_555
C1A C1 1_555 1_555
C2A C1A 1_555 1_555
C3A C3 1_555 1_555
C4A N1 1_555 1_555
C6A C5 1_555 1_555
H1A C6A 1_555 1_555
C7A C8 1_555 1_555
H2A C7A 1_555 1_555
C2A C3A 1_555 1_555
C3A C4A 1_555 1_555
C6A C7A 1_555 1_555

#END
