
#######################################################################
#
#                 Cambridge Crystallographic Data Centre
#                                CCDC 
#
#######################################################################
#
# If this CIF has been generated from an entry in the Cambridge 
# Structural Database, then it will include bibliographic, chemical, 
# crystal, experimental, refinement or atomic coordinate data resulting 
# from the CCDC's data processing and validation procedures.
#
#######################################################################

data_QUZTIP
_chemical_formula_moiety         'C10 H6 F3 N1 O2'
_chemical_name_systematic        2-(2,2,2-Trifluoroethyl)isoindoline-1,3-dione
_symmetry_cell_setting           monoclinic
_symmetry_space_group_name_H-M   'P 21/c'
_symmetry_Int_Tables_number      14
_space_group_name_Hall           '-P 2ybc'
loop_
_symmetry_equiv_pos_site_id
_symmetry_equiv_pos_as_xyz
1 x,y,z
2 -x,1/2+y,1/2-z
3 -x,-y,-z
4 x,1/2-y,1/2+z
_cell_length_a                   5.0470(10)
_cell_length_b                   9.5370(19)
_cell_length_c                   19.051(4)
_cell_angle_alpha                90
_cell_angle_beta                 95.20(3)
_cell_angle_gamma                90
_cell_volume                     913.212
_exptl_crystal_colour            colorless
_exptl_crystal_description       prism
_chemical_melting_point          '400 K'
_cell_formula_units_Z            4
_exptl_crystal_recrystallization_method 'ethyl acetate'
loop_
_atom_site_label
_atom_site_type_symbol
_atom_site_fract_x
_atom_site_fract_y
_atom_site_fract_z
F1 F 0.3850(3) 0.94405(16) 0.09725(9)
F2 F 0.7282(3) 1.04965(15) 0.06326(9)
F3 F 0.7509(3) 0.94503(15) 0.16352(8)
O1 O 1.0018(3) 0.65493(18) 0.17852(9)
O2 O 0.2715(3) 0.63673(19) 0.01945(9)
N1 N 0.6488(4) 0.6796(2) 0.09384(11)
C1 C 0.7960(5) 0.6112(3) 0.14966(14)
C2 C 0.6475(5) 0.4813(3) 0.16200(13)
C3 C 0.7001(5) 0.3752(3) 0.21083(14)
H1 H 0.8508 0.3792 0.2445
C4 C 0.5253(5) 0.2632(3) 0.20895(14)
H2 H 0.5581 0.1884 0.2416
C5 C 0.3044(5) 0.2576(3) 0.16073(15)
H3 H 0.1870 0.1798 0.1611
C6 C 0.2508(5) 0.3642(3) 0.11158(14)
H4 H 0.0992 0.3609 0.0782
C7 C 0.4270(5) 0.4746(3) 0.11336(13)
C8 C 0.4261(5) 0.6019(3) 0.06811(14)
C9 C 0.7342(5) 0.8059(3) 0.06062(14)
H5 H 0.6593 0.8074 0.0108
H6 H 0.9306 0.8055 0.0613
C10 C 0.6488(6) 0.9351(3) 0.09660(15)
loop_
_geom_bond_atom_site_label_1
_geom_bond_atom_site_label_2
_geom_bond_site_symmetry_1
_geom_bond_site_symmetry_2
F1 C10 1_555 1_555
F2 C10 1_555 1_555
F3 C10 1_555 1_555
O1 C1 1_555 1_555
O2 C8 1_555 1_555
N1 C1 1_555 1_555
C1 C2 1_555 1_555
C2 C3 1_555 1_555
C3 H1 1_555 1_555
C4 C3 1_555 1_555
H2 C4 1_555 1_555
C5 C4 1_555 1_555
H3 C5 1_555 1_555
C6 C5 1_555 1_555
H4 C6 1_555 1_555
C7 C2 1_555 1_555
C8 N1 1_555 1_555
C9 N1 1_555 1_555
H5 C9 1_555 1_555
H6 C9 1_555 1_555
C10 C9 1_555 1_555
C6 C7 1_555 1_555
C7 C8 1_555 1_555

#END
