
#######################################################################
#
#                 Cambridge Crystallographic Data Centre
#                                CCDC 
#
#######################################################################
#
# If this CIF has been generated from an entry in the Cambridge 
# Structural Database, then it will include bibliographic, chemical, 
# crystal, experimental, refinement or atomic coordinate data resulting 
# from the CCDC's data processing and validation procedures.
#
#######################################################################

data_QUZYOA
_chemical_formula_moiety         'C12 N12 S3'
_chemical_name_systematic        
2,4,6-tris(4-cyano-1,2,5-thiadiazol-3-yl)-1,3,5-triazine
_symmetry_cell_setting           hexagonal
_symmetry_space_group_name_H-M   'P 63'
_symmetry_Int_Tables_number      173
_space_group_name_Hall           'P 6c'
loop_
_symmetry_equiv_pos_site_id
_symmetry_equiv_pos_as_xyz
1 x,y,z
2 -y,x-y,z
3 -x+y,-x,z
4 -x,-y,1/2+z
5 y,-x+y,1/2+z
6 x-y,x,1/2+z
_cell_length_a                   19.836(3)
_cell_length_b                   19.836(3)
_cell_length_c                   6.9094(14)
_cell_angle_alpha                90
_cell_angle_beta                 90
_cell_angle_gamma                120
_cell_volume                     2354.39
_exptl_crystal_colour            yellow
_exptl_crystal_description       block
_cell_formula_units_Z            6
loop_
_atom_site_label
_atom_site_type_symbol
_atom_site_fract_x
_atom_site_fract_y
_atom_site_fract_z
C1 C 0.29774(15) 0.51243(15) 0.9176(5)
C2 C 0.22769(16) 0.44881(17) 0.8510(5)
C3 C 0.31715(15) 0.59458(14) 0.9248(5)
C4 C 0.1608(2) 0.45072(18) 0.7787(5)
N1 N 0.34910(14) 0.49220(13) 0.9767(5)
N2 N 0.22576(15) 0.38089(14) 0.8584(4)
N3 N 0.25726(12) 0.60747(12) 0.9252(4)
N4 N 0.10611(17) 0.44978(19) 0.7248(5)
S1 S 0.30883(5) 0.39897(4) 0.94741(19)
C1A C 0.48757(15) 0.78531(21) 0.9176(5)
C1B C 0.21469(21) 0.70226(15) 0.9176(5)
C2A C 0.55119(17) 0.77888(23) 0.8510(5)
C2B C 0.22112(23) 0.77231(16) 0.8510(5)
C3A C 0.40542(14) 0.72257(21) 0.9248(5)
C3B C 0.27743(21) 0.68285(15) 0.9248(5)
C4A C 0.54928(18) 0.71008(27) 0.7787(5)
C4B C 0.28992(27) 0.8392(2) 0.7787(5)
N1A N 0.50780(13) 0.85690(19) 0.9767(5)
N1B N 0.14310(19) 0.65090(14) 0.9767(5)
N2A N 0.61911(14) 0.84487(21) 0.8584(4)
N2B N 0.15513(21) 0.77424(15) 0.8584(4)
N3A N 0.39253(12) 0.64979(17) 0.9252(4)
N3B N 0.35021(17) 0.74274(12) 0.9252(4)
N4A N 0.55022(19) 0.65633(25) 0.7248(5)
N4B N 0.34367(25) 0.89389(17) 0.7248(5)
S1A S 0.60103(4) 0.90986(6) 0.94741(19)
S1B S 0.09014(6) 0.69117(5) 0.94741(19)
C5 C 0.11722(17) 0.53191(17) 0.3525(5)
C6 C 0.17395(15) 0.60640(15) 0.4223(5)
C7 C 0.1315(2) 0.4720(2) 0.2830(5)
C8 C 0.25844(14) 0.63893(14) 0.4273(5)
N5 N 0.04502(15) 0.51925(16) 0.3542(4)
N6 N 0.14262(13) 0.64882(15) 0.4766(5)
N7 N 0.1414(2) 0.42404(19) 0.2260(5)
N8 N 0.30371(12) 0.71597(12) 0.4282(4)
S2 S 0.05024(4) 0.59760(5) 0.44093(19)
C5A C 0.46809(17) 0.58531(24) 0.3525(5)
C5B C 0.41469(24) 0.88278(17) 0.3525(5)
C6A C 0.39360(15) 0.56755(21) 0.4223(5)
C6B C 0.43245(21) 0.82605(15) 0.4223(5)
C7A C 0.5280(2) 0.6595(3) 0.2830(5)
C7B C 0.3405(3) 0.8685(2) 0.2830(5)
C8A C 0.36107(14) 0.61951(20) 0.4273(5)
C8B C 0.38049(20) 0.74156(14) 0.4273(5)
N5A N 0.48075(16) 0.52577(22) 0.3542(4)
N5B N 0.47423(22) 0.95498(15) 0.3542(4)
N6A N 0.35118(15) 0.49380(20) 0.4766(5)
N6B N 0.50620(20) 0.85738(13) 0.4766(5)
N7A N 0.57596(19) 0.71736(28) 0.2260(5)
N7B N 0.28264(28) 0.8586(2) 0.2260(5)
N8A N 0.28403(12) 0.58774(17) 0.4282(4)
N8B N 0.41226(17) 0.69629(12) 0.4282(4)
S2A S 0.40240(5) 0.45264(6) 0.44093(19)
S2B S 0.54736(6) 0.94976(4) 0.44093(19)
C9 C 0.14283(15) 0.00744(16) 0.9635(6)
C10 C 0.21760(15) 0.07541(16) 0.9584(7)
C11 C 0.06697(15) 0.00337(15) 0.9687(5)
C12 C 0.23498(16) 0.15416(18) 0.9549(9)
N9 N 0.14625(14) -0.05752(14) 0.9648(7)
N10 N 0.27582(13) 0.05999(15) 0.9507(7)
N11 N 0.06753(12) 0.07111(12) 0.9698(5)
N12 N 0.25001(17) 0.21741(17) 0.9599(10)
S3 S 0.23650(5) -0.03313(5) 0.9550(3)
C9A C -0.00744(16) 0.13539(22) 0.9635(6)
C9B C -0.13539(22) -0.14283(15) 0.9635(6)
C10A C -0.07541(16) 0.14219(22) 0.9584(7)
C10B C -0.14219(22) -0.21760(15) 0.9584(7)
C11A C -0.00337(15) 0.06360(21) 0.9687(5)
C11B C -0.06360(21) -0.06697(15) 0.9687(5)
C12A C -0.15416(18) 0.08082(24) 0.9549(9)
C12B C -0.08082(24) -0.23498(16) 0.9549(9)
N9A N 0.05752(14) 0.20377(20) 0.9648(7)
N9B N -0.20377(20) -0.14625(14) 0.9648(7)
N10A N -0.05999(15) 0.21583(20) 0.9507(7)
N10B N -0.21583(20) -0.27582(13) 0.9507(7)
N11A N -0.07111(12) -0.00358(17) 0.9698(5)
N11B N 0.00358(17) -0.06753(12) 0.9698(5)
N12A N -0.21741(17) 0.03260(24) 0.9599(10)
N12B N -0.03260(24) -0.25001(17) 0.9599(10)
S3A S 0.03313(5) 0.26963(7) 0.9550(3)
S3B S -0.26963(7) -0.23650(5) 0.9550(3)
loop_
_geom_bond_atom_site_label_1
_geom_bond_atom_site_label_2
_geom_bond_site_symmetry_1
_geom_bond_site_symmetry_2
C1 C2 1_555 1_555
C2 C4 1_555 1_555
C3 C1 1_555 1_555
C4 N4 1_555 1_555
C5 C6 1_555 1_555
C6 C8 1_555 1_555
C7 C5 1_555 1_555
C8 N8 1_555 1_555
C9 C10 1_555 1_555
C10 C12 1_555 1_555
C11 C9 1_555 1_555
C12 N12 1_555 1_555
N1 C1 1_555 1_555
N2 C2 1_555 1_555
N3 C3 1_555 1_555
N5 C5 1_555 1_555
N6 C6 1_555 1_555
N7 C7 1_555 1_555
N8 C8B 1_555 1_555
N9 C9 1_555 1_555
N10 C10 1_555 1_555
N11 C11 1_555 1_555
S1 N1 1_555 1_555
S2 N5 1_555 1_555
S3 N9 1_555 1_555
C1A C2A 1_555 1_555
C1B C2B 1_555 1_555
C2A C4A 1_555 1_555
C2B C4B 1_555 1_555
C3A C1A 1_555 1_555
C3B N3 1_555 1_555
C4A N4A 1_555 1_555
C4B N4B 1_555 1_555
C5A C6A 1_555 1_555
C5B C6B 1_555 1_555
C6A C8A 1_555 1_555
C6B C8B 1_555 1_555
C7A C5A 1_555 1_555
C7B C5B 1_555 1_555
C8A N8A 1_555 1_555
C8B N8B 1_555 1_555
C9A C10A 1_555 1_555
C9B C10B 1_555 1_555
C10A C12A 1_555 1_555
C10B C12B 1_555 1_555
C11A N11 1_555 1_555
C11B C9B 1_555 1_555
C12A N12A 1_555 1_555
C12B N12B 1_555 1_555
N1A C1A 1_555 1_555
N1B C1B 1_555 1_555
N2A C2A 1_555 1_555
N2B C2B 1_555 1_555
N3A C3 1_555 1_555
N3B C3A 1_555 1_555
N5A C5A 1_555 1_555
N5B C5B 1_555 1_555
N6A C6A 1_555 1_555
N6B C6B 1_555 1_555
N7A C7A 1_555 1_555
N7B C7B 1_555 1_555
N8A C8 1_555 1_555
N8B C8A 1_555 1_555
N9A C9A 1_555 1_555
N9B C9B 1_555 1_555
N10A C10A 1_555 1_555
N10B C10B 1_555 1_555
N11A C11A 1_555 1_555
N11B C11 1_555 1_555
S1A N1A 1_555 1_555
S1B N1B 1_555 1_555
S2A N5A 1_555 1_555
S2B N5B 1_555 1_555
S3A N9A 1_555 1_555
S3B N9B 1_555 1_555
N2 S1 1_555 1_555
N6 S2 1_555 1_555
N10 S3 1_555 1_555
C1B C3B 1_555 1_555
C3A N3A 1_555 1_555
C3B N3B 1_555 1_555
C9A C11A 1_555 1_555
C11B N11A 1_555 1_555
C11B N11B 1_555 1_555
N2A S1A 1_555 1_555
N2B S1B 1_555 1_555
N6A S2A 1_555 1_555
N6B S2B 1_555 1_555
N10A S3A 1_555 1_555
N10B S3B 1_555 1_555

#END
