
#######################################################################
#
#                 Cambridge Crystallographic Data Centre
#                                CCDC 
#
#######################################################################
#
# If this CIF has been generated from an entry in the Cambridge 
# Structural Database, then it will include bibliographic, chemical, 
# crystal, experimental, refinement or atomic coordinate data resulting 
# from the CCDC's data processing and validation procedures.
#
#######################################################################

data_QUZZUG
_chemical_formula_moiety         'C57 H74 O5 Si1,2(C7 H8)'
_chemical_name_systematic        
'(5,11,17,23,29-penta-t-butyl-31,32,33-trihydroxycalix(5)arene-34,35-dioxy)-dimethylsilane toluene solvate'
_symmetry_cell_setting           monoclinic
_symmetry_space_group_name_H-M   'P 21/c'
_symmetry_Int_Tables_number      14
_space_group_name_Hall           '-P 2ybc'
loop_
_symmetry_equiv_pos_site_id
_symmetry_equiv_pos_as_xyz
1 x,y,z
2 -x,1/2+y,1/2-z
3 -x,-y,-z
4 x,1/2-y,1/2+z
_cell_length_a                   18.063(3)
_cell_length_b                   14.530(2)
_cell_length_c                   24.500(3)
_cell_angle_alpha                90
_cell_angle_beta                 98.979(7)
_cell_angle_gamma                90
_cell_volume                     6351.36
_chemical_melting_point          206-208deg.C(dec.)
_cell_formula_units_Z            4
loop_
_atom_site_label
_atom_site_type_symbol
_atom_site_fract_x
_atom_site_fract_y
_atom_site_fract_z
Si1 Si 0.8996(2) 0.4705(2) 0.7151(1)
O1 O 0.8779(3) 0.3589(4) 0.7045(2)
O2 O 0.9145(3) 0.5167(4) 0.6565(2)
O3 O 1.0108(4) 0.7283(4) 0.7414(3)
O4 O 0.8636(4) 0.6334(5) 0.8834(3)
O5 O 0.9268(4) 0.3315(4) 0.8520(3)
C1 C 0.9913(5) 0.4750(6) 0.7584(4)
C2 C 0.8206(5) 0.5285(6) 0.7418(4)
C3 C 0.8054(5) 0.3288(6) 0.6833(4)
C4 C 0.7663(6) 0.2786(7) 0.7162(4)
C5 C 0.6931(6) 0.2518(7) 0.6939(5)
C6 C 0.6597(6) 0.2709(7) 0.6407(5)
C7 C 0.7034(6) 0.3190(7) 0.6091(5)
C8 C 0.7762(5) 0.3482(6) 0.6282(4)
C9 C 0.5803(6) 0.2383(6) 0.6179(3)
C10 C 0.5551(11) 0.2560(2) 0.5554(5)
C11 C 0.5792(10) 0.1329(8) 0.6287(14)
C12 C 0.5248(10) 0.2861(18) 0.6512(10)
C16 C 0.8644(5) 0.5515(7) 0.6134(4)
C17 C 0.8184(6) 0.4920(7) 0.5790(4)
C18 C 0.7707(5) 0.5293(8) 0.5348(4)
C19 C 0.7672(5) 0.6234(7) 0.5224(4)
C20 C 0.8171(5) 0.6796(7) 0.5576(4)
C21 C 0.8658(5) 0.6464(7) 0.6028(4)
C22 C 0.7175(6) 0.6657(7) 0.4731(4)
C23 C 0.7652(7) 0.7062(9) 0.4330(5)
C24 C 0.6633(6) 0.5950(8) 0.4425(4)
C25 C 0.6696(6) 0.7427(8) 0.4929(5)
C26 C 0.9351(5) 0.7432(6) 0.7410(5)
C27 C 0.8873(6) 0.7370(6) 0.6904(4)
C28 C 0.8131(6) 0.7586(6) 0.6905(4)
C29 C 0.7828(5) 0.7839(6) 0.7362(4)
C30 C 0.8325(6) 0.7841(6) 0.7864(4)
C31 C 0.9086(5) 0.7631(6) 0.7900(4)
C32 C 0.6995(6) 0.8068(8) 0.7349(5)
C33 C 0.6661(6) 0.7293(9) 0.7662(5)
C34 C 0.6909(6) 0.8988(8) 0.7627(5)
C35 C 0.6572(6) 0.8106(9) 0.6760(5)
C36 C 0.9366(6) 0.6077(8) 0.8856(4)
C37 C 0.9867(6) 0.6711(7) 0.8678(3)
C38 C 1.0609(6) 0.6483(7) 0.8733(4)
C39 C 1.0888(6) 0.5626(7) 0.8950(4)
C40 C 1.0381(6) 0.5030(6) 0.9121(4)
C41 C 0.9615(6) 0.5223(7) 0.9091(4)
C42 C 1.1723(5) 0.5411(6) 0.9001(4)
C43 C 1.1959(5) 0.5483(8) 0.8422(4)
C44 C 1.2166(5) 0.6117(7) 0.9392(4)
C45 C 1.1921(6) 0.4456(7) 0.9232(4)
C46 C 0.8524(6) 0.3568(7) 0.8533(4)
C47 C 0.8426(6) 0.4194(7) 0.8941(4)
C48 C 0.7714(6) 0.4468(7) 0.8993(4)
C49 C 0.7095(5) 0.4109(8) 0.8658(5)
C50 C 0.7210(6) 0.3504(7) 0.8253(5)
C51 C 0.7932(6) 0.3209(6) 0.8187(4)
C52 C 0.6301(5) 0.4447(6) 0.8719(4)
C53 C 0.5682(8) 0.3956(10) 0.8326(5)
C54 C 0.6152(9) 0.4315(11) 0.9311(5)
C55 C 0.6257(9) 0.5478(8) 0.8583(6)
C59 C 0.8227(5) 0.3886(6) 0.5882(4)
C60 C 0.9172(5) 0.7086(6) 0.6385(4)
C61 C 0.9586(5) 0.7641(6) 0.8464(4)
C62 C 0.9117(5) 0.4571(7) 0.9336(4)
C63 C 0.7999(5) 0.2497(7) 0.7747(4)
H1 H 1.0351 0.7533 0.7690
H2 H 0.8359 0.5907 0.8703
H3 H 0.9287 0.2973 0.8251
H4 H 1.0272 0.4405 0.7409
H5 H 0.9880 0.4483 0.7942
H6 H 1.0076 0.5385 0.7631
H7 H 0.8360 0.5897 0.7548
H8 H 0.8066 0.4929 0.7721
H9 H 0.7780 0.5331 0.7125
H10 H 0.6652 0.2188 0.7167
H11 H 0.6828 0.3329 0.5724
H12 H 0.5043 0.2340 0.5445
H13 H 0.5885 0.2245 0.5343
H14 H 0.5567 0.3219 0.5482
H15 H 0.5297 0.1087 0.6149
H16 H 0.5912 0.1213 0.6680
H17 H 0.6159 0.1029 0.6098
H18 H 0.4741 0.2663 0.6372
H19 H 0.5285 0.3523 0.6472
H20 H 0.5372 0.2696 0.6899
H30 H 0.7389 0.4893 0.5118
H31 H 0.8176 0.7430 0.5500
H32 H 0.7936 0.6575 0.4187
H33 H 0.7995 0.7513 0.4520
H34 H 0.7330 0.7357 0.4026
H35 H 0.6916 0.5459 0.4286
H36 H 0.6318 0.6248 0.4118
H37 H 0.6322 0.5697 0.4676
H38 H 0.6354 0.7164 0.5155
H39 H 0.6411 0.7732 0.4612
H40 H 0.7020 0.7870 0.5145
H41 H 0.7807 0.7559 0.6565
H42 H 0.8138 0.7989 0.8190
H43 H 0.6849 0.7345 0.8054
H44 H 0.6805 0.6701 0.7528
H45 H 0.6119 0.7344 0.7602
H46 H 0.7167 0.9462 0.7451
H47 H 0.7123 0.8948 0.8015
H48 H 0.6381 0.9142 0.7594
H50 H 0.6592 0.7507 0.6588
H51 H 0.6802 0.8561 0.6551
H52 H 1.0947 0.6911 0.8622
H53 H 1.0557 0.4458 0.9267
H54 H 1.1703 0.5012 0.8183
H55 H 1.2496 0.5397 0.8453
H56 H 1.1824 0.6085 0.8267
H57 H 1.2069 0.6731 0.9242
H58 H 1.2697 0.5984 0.9426
H59 H 1.2010 0.6080 0.9752
H60 H 1.1745 0.4389 0.9585
H61 H 1.2460 0.4374 0.9284
H62 H 1.1683 0.3996 0.8976
H63 H 0.7646 0.4909 0.9261
H64 H 0.6794 0.3277 0.8012
H65 H 0.5768 0.4038 0.7948
H66 H 0.5199 0.4216 0.8367
H67 H 0.5687 0.3305 0.8413
H68 H 0.6186 0.3667 0.9405
H69 H 0.5654 0.4539 0.9341
H70 H 0.6520 0.4657 0.9562
H71 H 0.6339 0.5570 0.8204
H72 H 0.6639 0.5804 0.8831
H73 H 0.5767 0.5711 0.8626
H83 H 0.8078 0.3585 0.5523
H84 H 0.8752 0.3724 0.6010
H85 H 0.9258 0.7639 0.6174
H86 H 0.9656 0.6776 0.6490
H87 H 1.0019 0.8037 0.8441
H88 H 0.9304 0.7919 0.8733
H89 H 0.8936 0.4883 0.9645
H90 H 0.9421 0.4046 0.9489
H91 H 0.7751 0.1931 0.7839
H92 H 0.8531 0.2356 0.7753
C64 C 0.9359(9) 0.1421(12) 0.9593(6)
C65 C 0.9511(8) 0.0651(13) 0.9307(8)
C66 C 0.8965(10) 0.0266(12) 0.8926(7)
C67 C 0.8274(9) 0.0675(12) 0.8812(7)
C68 C 0.8105(8) 0.1403(13) 0.9127(8)
C69 C 0.8657(10) 0.1805(13) 0.9497(8)
C70 C 0.9955(13) 0.1878(17) 1.0019(10)
H93 H 0.9992 0.0388 0.9373
H94 H 0.9063 -0.0278 0.8742
H95 H 0.7917 0.0457 0.8520
H96 H 0.7611 0.1626 0.9088
H97 H 0.8556 0.2343 0.9685
H98 H 0.9737 0.2400 1.0182
H99 H 1.0367 0.2087 0.9838
H100 H 1.0141 0.1437 1.0305
C78 C 0.4701(8) 0.5856(12) 0.6534(7)
C79 C 0.5325(10) 0.5481(15) 0.6846(6)
C80 C 0.5944(8) 0.5284(14) 0.6608(7)
C81 C 0.5927(10) 0.5420(2) 0.6052(8)
C82 C 0.5312(10) 0.5822(14) 0.5744(6)
C83 C 0.4700(10) 0.6040(2) 0.5986(7)
C84 C 0.4035(11) 0.6112(17) 0.6739(10)
H109 H 0.5328 0.5360 0.7223
H110 H 0.6380 0.5053 0.6825
H111 H 0.6337 0.5244 0.5883
H112 H 0.5310 0.5944 0.5367
H113 H 0.4280 0.6323 0.5775
H114 H 0.4080 0.5947 0.7126
H115 H 0.3610 0.5792 0.6531
H116 H 0.3961 0.6771 0.6698
C13? C 0.5788(15) 0.1356(12) 0.6000(2)
C14? C 0.5291(12) 0.2510(3) 0.6627(9)
C15? C 0.5491(14) 0.2980(3) 0.5668(12)
C56? C 0.6346(18) 0.5262(17) 0.9120(12)
C57? C 0.5968(19) 0.3624(17) 0.8990(14)
C58? C 0.5766(16) 0.4700(2) 0.8193(9)
C71? C 0.8986(17) 0.0850(2) 0.9122(12)
C72? C 0.8448(15) 0.1470(3) 0.9212(15)
C73? C 0.8604(19) 0.2120(3) 0.9620(17)
C74? C 0.9310(2) 0.2180(2) 0.9914(13)
C75? C 0.9832(18) 0.1520(3) 0.9849(17)
C76? C 0.9673(18) 0.0870(3) 0.9446(18)
C77? C 0.8800(3) 0.0160(3) 0.8646(16)
C85? C 0.5343(17) 0.5770(2) 0.6276(11)
C86? C 0.4760(2) 0.6100(3) 0.5900(14)
C87? C 0.4090(2) 0.6290(3) 0.6069(17)
C88? C 0.4000(2) 0.6140(5) 0.6609(19)
C89? C 0.4600(2) 0.5860(3) 0.6989(15)
C90? C 0.5235(17) 0.5550(2) 0.6804(11)
C91? C 0.6080(2) 0.5540(4) 0.6190(19)
H21? H 0.5277 0.1176 0.5860
H22? H 0.5979 0.0977 0.6319
H23? H 0.6098 0.1273 0.5716
H24? H 0.4787 0.2305 0.6482
H25? H 0.5280 0.3154 0.6729
H26? H 0.5485 0.2147 0.6951
H27? H 0.4986 0.2781 0.5522
H28? H 0.5810 0.2912 0.5387
H29? H 0.5482 0.3621 0.5778
H49? H 0.6054 0.0827 0.6768
H74? H 0.6698 0.5120 0.9450
H75? H 0.5855 0.5377 0.9219
H76? H 0.6515 0.5805 0.8944
H77? H 0.6283 0.3480 0.9337
H78? H 0.5944 0.3096 0.8745
H79? H 0.5468 0.3777 0.9057
H80? H 0.5973 0.5213 0.8012
H81? H 0.5284 0.4879 0.8289
H82? H 0.5701 0.4177 0.7946
H101? H 0.7972 0.1454 0.8994
H102? H 0.8226 0.2518 0.9698
H103? H 0.9438 0.2668 1.1160
H104? H 1.0299 0.1518 1.0080
H105? H 1.0038 0.0429 0.9392
H106? H 0.8293 0.0262 0.8462
H107? H 0.8851 -0.0459 0.8791
H108? H 0.9147 0.0250 0.8384
H117? H 0.4823 0.6198 0.5530
H118? H 0.3686 0.6527 0.5816
H119? H 0.3530 0.6231 0.6719
H120? H 0.4576 0.5883 0.7369
H121? H 0.5590 0.5195 0.7035
H122? H 0.6374 0.5351 0.6537
H123? H 0.6311 0.6079 0.6050
H124? H 0.6061 0.5046 0.5923
loop_
_geom_bond_atom_site_label_1
_geom_bond_atom_site_label_2
_geom_bond_site_symmetry_1
_geom_bond_site_symmetry_2
Si1 O1 1_555 1_555
O1 C3 1_555 1_555
O2 Si1 1_555 1_555
O3 C26 1_555 1_555
O4 C36 1_555 1_555
O5 C46 1_555 1_555
C1 Si1 1_555 1_555
C2 Si1 1_555 1_555
C3 C4 1_555 1_555
C4 C5 1_555 1_555
C5 C6 1_555 1_555
C6 C7 1_555 1_555
C7 C8 1_555 1_555
C8 C3 1_555 1_555
C9 C6 1_555 1_555
C10 C9 1_555 1_555
C11 C9 1_555 1_555
C12 C9 1_555 1_555
C16 O2 1_555 1_555
C17 C16 1_555 1_555
C18 C17 1_555 1_555
C19 C18 1_555 1_555
C20 C19 1_555 1_555
C21 C16 1_555 1_555
C22 C19 1_555 1_555
C23 C22 1_555 1_555
C24 C22 1_555 1_555
C25 C22 1_555 1_555
C26 C27 1_555 1_555
C27 C28 1_555 1_555
C28 C29 1_555 1_555
C29 C30 1_555 1_555
C30 C31 1_555 1_555
C31 C26 1_555 1_555
C32 C29 1_555 1_555
C33 C32 1_555 1_555
C34 C32 1_555 1_555
C35 C32 1_555 1_555
C36 C37 1_555 1_555
C37 C38 1_555 1_555
C38 C39 1_555 1_555
C39 C40 1_555 1_555
C40 C41 1_555 1_555
C41 C36 1_555 1_555
C42 C39 1_555 1_555
C43 C42 1_555 1_555
C44 C42 1_555 1_555
C45 C42 1_555 1_555
C46 C47 1_555 1_555
C47 C48 1_555 1_555
C48 C49 1_555 1_555
C49 C50 1_555 1_555
C50 C51 1_555 1_555
C51 C46 1_555 1_555
C52 C49 1_555 1_555
C53 C52 1_555 1_555
C54 C52 1_555 1_555
C55 C52 1_555 1_555
C59 C8 1_555 1_555
C60 C21 1_555 1_555
C61 C31 1_555 1_555
C62 C41 1_555 1_555
C63 C4 1_555 1_555
C64 C65 1_555 1_555
C65 C66 1_555 1_555
C66 C67 1_555 1_555
C67 C68 1_555 1_555
C68 C69 1_555 1_555
C69 C64 1_555 1_555
C70 C64 1_555 1_555
C78 C79 1_555 1_555
C79 C80 1_555 1_555
C80 C81 1_555 1_555
C81 C82 1_555 1_555
C82 C83 1_555 1_555
C83 C78 1_555 1_555
C84 C78 1_555 1_555
H1 O3 1_555 1_555
H2 O4 1_555 1_555
H3 O5 1_555 1_555
H4 C1 1_555 1_555
H5 C1 1_555 1_555
H6 C1 1_555 1_555
H7 C2 1_555 1_555
H8 C2 1_555 1_555
H9 C2 1_555 1_555
H10 C5 1_555 1_555
H11 C7 1_555 1_555
H12 C10 1_555 1_555
H13 C10 1_555 1_555
H14 C10 1_555 1_555
H15 C11 1_555 1_555
H16 C11 1_555 1_555
H17 C11 1_555 1_555
H18 C12 1_555 1_555
H19 C12 1_555 1_555
H20 C12 1_555 1_555
H30 C18 1_555 1_555
H31 C20 1_555 1_555
H32 C23 1_555 1_555
H33 C23 1_555 1_555
H34 C23 1_555 1_555
H35 C24 1_555 1_555
H36 C24 1_555 1_555
H37 C24 1_555 1_555
H38 C25 1_555 1_555
H39 C25 1_555 1_555
H40 C25 1_555 1_555
H41 C28 1_555 1_555
H42 C30 1_555 1_555
H43 C33 1_555 1_555
H44 C33 1_555 1_555
H45 C33 1_555 1_555
H46 C34 1_555 1_555
H47 C34 1_555 1_555
H48 C34 1_555 1_555
H50 C35 1_555 1_555
H51 C35 1_555 1_555
H52 C38 1_555 1_555
H53 C40 1_555 1_555
H54 C43 1_555 1_555
H55 C43 1_555 1_555
H56 C43 1_555 1_555
H57 C44 1_555 1_555
H58 C44 1_555 1_555
H59 C44 1_555 1_555
H60 C45 1_555 1_555
H61 C45 1_555 1_555
H62 C45 1_555 1_555
H63 C48 1_555 1_555
H64 C50 1_555 1_555
H65 C53 1_555 1_555
H66 C53 1_555 1_555
H67 C53 1_555 1_555
H68 C54 1_555 1_555
H69 C54 1_555 1_555
H70 C54 1_555 1_555
H71 C55 1_555 1_555
H72 C55 1_555 1_555
H73 C55 1_555 1_555
H83 C59 1_555 1_555
H84 C59 1_555 1_555
H85 C60 1_555 1_555
H86 C60 1_555 1_555
H87 C61 1_555 1_555
H88 C61 1_555 1_555
H89 C62 1_555 1_555
H90 C62 1_555 1_555
H91 C63 1_555 1_555
H92 C63 1_555 1_555
H93 C65 1_555 1_555
H94 C66 1_555 1_555
H95 C67 1_555 1_555
H96 C68 1_555 1_555
H97 C69 1_555 1_555
H98 C70 1_555 1_555
H99 C70 1_555 1_555
H100 C70 1_555 1_555
H109 C79 1_555 1_555
H110 C80 1_555 1_555
H111 C81 1_555 1_555
H112 C82 1_555 1_555
H113 C83 1_555 1_555
H114 C84 1_555 1_555
H115 C84 1_555 1_555
H116 C84 1_555 1_555
C17 C59 1_555 1_555
C20 C21 1_555 1_555
C27 C60 1_555 1_555
C37 C61 1_555 1_555
C47 C62 1_555 1_555
C51 C63 1_555 1_555

#END
