
#######################################################################
#
#                 Cambridge Crystallographic Data Centre
#                                CCDC 
#
#######################################################################
#
# If this CIF has been generated from an entry in the Cambridge 
# Structural Database, then it will include bibliographic, chemical, 
# crystal, experimental, refinement or atomic coordinate data resulting 
# from the CCDC's data processing and validation procedures.
#
#######################################################################

data_RABBII
_chemical_formula_moiety         'C6 H18 N2 2+,C8 H3 N1 O6 2-'
_chemical_name_systematic        'hexane-1,6-diaminium 4-nitrophthalate'
_symmetry_cell_setting           monoclinic
_symmetry_space_group_name_H-M   'P 21/n'
_symmetry_Int_Tables_number      14
_space_group_name_Hall           '-P 2yn'
loop_
_symmetry_equiv_pos_site_id
_symmetry_equiv_pos_as_xyz
1 x,y,z
2 1/2-x,1/2+y,1/2-z
3 -x,-y,-z
4 1/2+x,1/2-y,1/2+z
_cell_length_a                   7.4134(4)
_cell_length_b                   18.3749(14)
_cell_length_c                   12.1456(12)
_cell_angle_alpha                90
_cell_angle_beta                 104.227(2)
_cell_angle_gamma                90
_cell_volume                     1603.74
_exptl_crystal_colour            colorless
_exptl_crystal_description       block
_cell_formula_units_Z            4
loop_
_atom_site_label
_atom_site_type_symbol
_atom_site_fract_x
_atom_site_fract_y
_atom_site_fract_z
N1 N 0.0376(4) 0.06806(18) 0.8455(3)
H1 H 0.112(5) 0.092(2) 0.894(3)
H2 H 0.081(5) 0.014(2) 0.862(3)
H3 H -0.080(6) 0.075(2) 0.860(3)
N2 N -0.0339(4) 0.45297(17) 0.6567(3)
H4 H 0.070(5) 0.446(2) 0.629(3)
H5 H -0.073(5) 0.507(2) 0.649(3)
H6 H -0.133(5) 0.430(2) 0.618(3)
C1 C 0.0214(5) 0.08879(19) 0.7267(3)
H7 H -0.0566 0.0538 0.6770
H8 H 0.1436 0.0877 0.7112
C2 C -0.0607(5) 0.16352(19) 0.7017(3)
H9 H -0.1812 0.1644 0.7195
H10 H -0.0808 0.1728 0.6209
C3 C 0.0571(5) 0.22438(18) 0.7661(3)
H11 H 0.0794 0.2149 0.8469
H12 H 0.1767 0.2246 0.7470
C4 C -0.0302(5) 0.29799(18) 0.7413(3)
H13 H -0.1467 0.2987 0.7642
H14 H -0.0583 0.3065 0.6600
C5 C 0.0924(5) 0.35862(19) 0.8012(3)
H15 H 0.2090 0.3572 0.7786
H16 H 0.1203 0.3496 0.8824
C6 C 0.0110(6) 0.4342(2) 0.7788(3)
H17 H -0.1013 0.4372 0.8061
H18 H 0.0993 0.4693 0.8208
N3 N 0.1698(5) 0.10002(18) 0.4602(3)
O1 O 0.3161(3) 0.43289(13) 0.6089(2)
O2 O 0.5955(3) 0.39901(14) 0.5957(2)
O3 O -0.0859(3) 0.37506(14) 0.4280(2)
O4 O 0.1515(3) 0.40609(13) 0.3553(2)
O5 O 0.0259(5) 0.09263(17) 0.3902(3)
O6 O 0.2672(4) 0.04926(15) 0.5014(2)
C7 C 0.4293(5) 0.38766(19) 0.5881(3)
C8 C 0.0731(5) 0.36661(18) 0.4145(3)
C9 C 0.3555(4) 0.31267(17) 0.5515(3)
C10 C 0.1851(4) 0.30257(17) 0.4724(3)
C11 C 0.1235(5) 0.23269(18) 0.4436(3)
H19 H 0.0100 0.2246 0.3919
C12 C 0.2341(5) 0.17458(18) 0.4932(3)
C13 C 0.3985(5) 0.1831(2) 0.5714(3)
H20 H 0.4678 0.1432 0.6048
C14 C 0.4585(5) 0.2529(2) 0.5991(3)
H21 H 0.5717 0.2601 0.6515
loop_
_geom_bond_atom_site_label_1
_geom_bond_atom_site_label_2
_geom_bond_site_symmetry_1
_geom_bond_site_symmetry_2
N1 H1 1_555 1_555
H2 N1 1_555 1_555
H3 N1 1_555 1_555
N2 H4 1_555 1_555
H5 N2 1_555 1_555
H6 N2 1_555 1_555
C1 N1 1_555 1_555
H7 C1 1_555 1_555
H8 C1 1_555 1_555
C2 C1 1_555 1_555
H9 C2 1_555 1_555
H10 C2 1_555 1_555
C3 C2 1_555 1_555
H11 C3 1_555 1_555
H12 C3 1_555 1_555
C4 C3 1_555 1_555
H13 C4 1_555 1_555
H14 C4 1_555 1_555
C5 C4 1_555 1_555
H15 C5 1_555 1_555
H16 C5 1_555 1_555
C6 N2 1_555 1_555
H17 C6 1_555 1_555
H18 C6 1_555 1_555
N3 O5 1_555 1_555
O1 C7 1_555 1_555
O2 C7 1_555 1_555
O3 C8 1_555 1_555
O4 C8 1_555 1_555
O6 N3 1_555 1_555
C7 C9 1_555 1_555
C8 C10 1_555 1_555
C9 C10 1_555 1_555
C10 C11 1_555 1_555
C11 H19 1_555 1_555
C12 N3 1_555 1_555
C13 C12 1_555 1_555
H20 C13 1_555 1_555
C14 C9 1_555 1_555
H21 C14 1_555 1_555
C5 C6 1_555 1_555
C11 C12 1_555 1_555
C13 C14 1_555 1_555

#END
