
#######################################################################
#
#                 Cambridge Crystallographic Data Centre
#                                CCDC 
#
#######################################################################
#
# If this CIF has been generated from an entry in the Cambridge 
# Structural Database, then it will include bibliographic, chemical, 
# crystal, experimental, refinement or atomic coordinate data resulting 
# from the CCDC's data processing and validation procedures.
#
#######################################################################

data_RABCAZ
_chemical_formula_moiety         'C29 H36 F6 N2'
_chemical_name_systematic        
1,1,1,5,5,5-Hexafluoro-2-(2,6-di-isopropylphenylamino)-4-(2,6-di-isopropylphenylimino)pent-2-ene
_symmetry_cell_setting           monoclinic
_symmetry_space_group_name_H-M   'P 21/n'
_symmetry_Int_Tables_number      14
_space_group_name_Hall           '-P 2yn'
loop_
_symmetry_equiv_pos_site_id
_symmetry_equiv_pos_as_xyz
1 x,y,z
2 1/2+x,1/2-y,1/2+z
3 -x,-y,-z
4 1/2-x,1/2+y,1/2-z
_cell_length_a                   11.5857(10)
_cell_length_b                   9.3714(10)
_cell_length_c                   26.8363(10)
_cell_angle_alpha                90
_cell_angle_beta                 92.389(10)
_cell_angle_gamma                90
_cell_volume                     2911.2
_exptl_crystal_colour            yellow
_exptl_crystal_description       'hexagonal prism'
_chemical_melting_point          154-156deg.C
_cell_formula_units_Z            4
loop_
_atom_site_label
_atom_site_type_symbol
_atom_site_fract_x
_atom_site_fract_y
_atom_site_fract_z
F1 F 0.71038(18) 0.8275(3) 0.00149(7)
F2 F 0.8163(2) 0.6537(3) -0.01555(7)
F3 F 0.88551(19) 0.8645(3) -0.01715(6)
F4 F 1.15793(16) 0.9263(2) 0.17988(6)
F5 F 1.10344(18) 1.0517(2) 0.11721(7)
F6 F 1.19616(17) 0.8566(3) 0.10757(9)
N1 N 0.79454(18) 0.6779(2) 0.09087(8)
N2 N 0.95174(17) 0.7651(2) 0.16252(7)
C1 C 0.8175(3) 0.7796(4) 0.00798(11)
C2 C 0.8562(2) 0.7656(3) 0.06179(9)
C3 C 0.9528(2) 0.8377(3) 0.07793(9)
C4 C 1.0011(2) 0.8343(3) 0.12778(9)
C5 C 1.1144(3) 0.9178(3) 0.13431(10)
C6 C 0.6864(2) 0.6061(3) 0.07976(8)
C7 C 0.6879(3) 0.4611(3) 0.06468(9)
C8 C 0.5797(3) 0.3930(4) 0.05782(11)
C9 C 0.4780(3) 0.4640(4) 0.06530(11)
C10 C 0.4797(3) 0.6053(4) 0.07987(11)
C11 C 0.5835(2) 0.6798(3) 0.08731(9)
C12 C 0.5811(3) 0.8355(3) 0.10507(11)
C13 C 0.4957(4) 0.9303(5) 0.07436(19)
C14 C 0.5551(5) 0.8418(6) 0.15951(15)
C15 C 0.7995(4) 0.3792(4) 0.05762(12)
C16 C 0.8198(8) 0.2727(9) 0.1002(2)
C17 C 0.7978(7) 0.2991(10) 0.0081(2)
C18 C 0.9928(2) 0.7542(3) 0.21351(8)
C19 C 0.9376(2) 0.8393(3) 0.24869(9)
C20 C 0.9721(3) 0.8230(3) 0.29832(10)
C21 C 1.0558(3) 0.7252(4) 0.31247(11)
C22 C 1.1064(3) 0.6402(4) 0.27807(12)
C23 C 1.0760(2) 0.6517(3) 0.22718(10)
C24 C 1.1322(3) 0.5544(3) 0.19007(13)
C25 C 1.0957(6) 0.3971(5) 0.1983(3)
C26 C 1.2653(4) 0.5634(6) 0.1939(2)
C27 C 0.8476(3) 0.9501(3) 0.23265(12)
C28 C 0.9053(6) 1.0911(5) 0.2198(2)
C29 C 0.7540(4) 0.9785(5) 0.27034(17)
H1 H 0.991(2) 0.893(3) 0.0566(10)
H2 H 0.825(2) 0.680(3) 0.1216(11)
H3 H 0.582(3) 0.297(4) 0.0484(12)
H4 H 0.407(3) 0.414(3) 0.0592(11)
H5 H 0.407(3) 0.653(3) 0.0852(10)
H6 H 0.653(3) 0.873(3) 0.1010(10)
H7 H 0.508(4) 0.922(4) 0.0410(17)
H8 H 0.403(6) 0.892(6) 0.077(2)
H9 H 0.507(4) 1.036(6) 0.0888(17)
H10 H 0.473(4) 0.797(4) 0.1645(15)
H11 H 0.559(3) 0.932(5) 0.1689(15)
H12 H 0.611(4) 0.779(5) 0.1794(16)
H13 H 0.868(3) 0.449(4) 0.0542(12)
H14 H 0.837(5) 0.339(6) 0.129(2)
H15 H 0.781(10) 0.195(13) 0.101(5)
H16 H 0.903(5) 0.242(6) 0.0936(18)
H17 H 0.740(6) 0.232(7) 0.003(3)
H18 H 0.790(5) 0.370(6) -0.021(2)
H19 H 0.872(4) 0.251(5) 0.0068(16)
H20 H 0.933(3) 0.888(4) 0.3245(12)
H21 H 1.080(3) 0.719(3) 0.3471(13)
H22 H 1.158(3) 0.574(4) 0.2873(12)
H23 H 1.113(3) 0.573(3) 0.1577(13)
H24 H 1.017(6) 0.402(7) 0.184(2)
H25 H 1.122(4) 0.341(5) 0.1676(17)
H26 H 1.105(9) 0.368(11) 0.230(4)
H27 H 1.304(5) 0.672(7) 0.194(2)
H28 H 1.295(5) 0.513(7) 0.231(2)
H29 H 1.292(4) 0.507(5) 0.1652(17)
H30 H 0.807(3) 0.918(4) 0.2040(13)
H31 H 0.959(4) 1.077(5) 0.1905(18)
H32 H 0.846(5) 1.156(6) 0.209(2)
H33 H 0.949(4) 1.122(5) 0.2540(19)
H34 H 0.699(4) 1.043(5) 0.2576(17)
H35 H 0.791(3) 1.022(4) 0.3009(14)
H36 H 0.721(4) 0.889(6) 0.2810(17)
loop_
_geom_bond_atom_site_label_1
_geom_bond_atom_site_label_2
_geom_bond_site_symmetry_1
_geom_bond_site_symmetry_2
F1 C1 1_555 1_555
F2 C1 1_555 1_555
F3 C1 1_555 1_555
F4 C5 1_555 1_555
F5 C5 1_555 1_555
F6 C5 1_555 1_555
N1 C2 1_555 1_555
N2 C4 1_555 1_555
C1 C2 1_555 1_555
C2 C3 1_555 1_555
C3 C4 1_555 1_555
C4 C5 1_555 1_555
C6 N1 1_555 1_555
C7 C6 1_555 1_555
C8 C7 1_555 1_555
C9 C8 1_555 1_555
C10 C9 1_555 1_555
C11 C6 1_555 1_555
C12 C11 1_555 1_555
C13 C12 1_555 1_555
C14 C12 1_555 1_555
C15 C7 1_555 1_555
C16 C15 1_555 1_555
C17 C15 1_555 1_555
C18 N2 1_555 1_555
C19 C18 1_555 1_555
C20 C19 1_555 1_555
C21 C20 1_555 1_555
C22 C21 1_555 1_555
C23 C18 1_555 1_555
C24 C23 1_555 1_555
C25 C24 1_555 1_555
C26 C24 1_555 1_555
C27 C19 1_555 1_555
C28 C27 1_555 1_555
C29 C27 1_555 1_555
H1 C3 1_555 1_555
H2 N1 1_555 1_555
H3 C8 1_555 1_555
H4 C9 1_555 1_555
H5 C10 1_555 1_555
H6 C12 1_555 1_555
H7 C13 1_555 1_555
H8 C13 1_555 1_555
H9 C13 1_555 1_555
H10 C14 1_555 1_555
H11 C14 1_555 1_555
H12 C14 1_555 1_555
H13 C15 1_555 1_555
H14 C16 1_555 1_555
H15 C16 1_555 1_555
H16 C16 1_555 1_555
H17 C17 1_555 1_555
H18 C17 1_555 1_555
H19 C17 1_555 1_555
H20 C20 1_555 1_555
H21 C21 1_555 1_555
H22 C22 1_555 1_555
H23 C24 1_555 1_555
H24 C25 1_555 1_555
H25 C25 1_555 1_555
H26 C25 1_555 1_555
H27 C26 1_555 1_555
H28 C26 1_555 1_555
H29 C26 1_555 1_555
H30 C27 1_555 1_555
H31 C28 1_555 1_555
H32 C28 1_555 1_555
H33 C28 1_555 1_555
H34 C29 1_555 1_555
H35 C29 1_555 1_555
H36 C29 1_555 1_555
C10 C11 1_555 1_555
C22 C23 1_555 1_555

#END
