
#######################################################################
#
#                 Cambridge Crystallographic Data Centre
#                                CCDC 
#
#######################################################################
#
# If this CIF has been generated from an entry in the Cambridge 
# Structural Database, then it will include bibliographic, chemical, 
# crystal, experimental, refinement or atomic coordinate data resulting 
# from the CCDC's data processing and validation procedures.
#
#######################################################################

data_RABFUR01
_chemical_name_common            
1,4-bis(4-(N,N-Dimethylamino)phenyl)buta-1,3-diyne
_chemical_formula_moiety         'C20 H20 N2'
_chemical_name_systematic        
4,4'-buta-1,3-diyne-1,4-diylbis(N,N-dimethylaniline)
_symmetry_cell_setting           monoclinic
_symmetry_space_group_name_H-M   'P 21/c'
_symmetry_Int_Tables_number      14
_space_group_name_Hall           '-P 2ybc'
loop_
_symmetry_equiv_pos_site_id
_symmetry_equiv_pos_as_xyz
1 x,y,z
2 -x,1/2+y,1/2-z
3 -x,-y,-z
4 x,1/2-y,1/2+z
_cell_length_a                   7.549(2)
_cell_length_b                   5.986(1)
_cell_length_c                   17.657(5)
_cell_angle_alpha                90
_cell_angle_beta                 91.56(1)
_cell_angle_gamma                90
_cell_volume                     797.594
_exptl_crystal_colour            'pale yellow'
_exptl_crystal_description       plate
_chemical_melting_point          '506 K'
_cell_formula_units_Z            2
loop_
_atom_site_label
_atom_site_type_symbol
_atom_site_fract_x
_atom_site_fract_y
_atom_site_fract_z
N1 N 0.14732(15) 0.39833(19) 0.09812(6)
C1 C 0.20025(16) 0.4224(2) 0.17364(7)
C2 C 0.30247(17) 0.6072(2) 0.19787(7)
H1 H 0.337(2) 0.723(3) 0.1619(8)
C3 C 0.36042(17) 0.6284(2) 0.27230(7)
H2 H 0.4364(19) 0.762(2) 0.2872(8)
C4 C 0.31919(16) 0.4671(2) 0.32652(7)
C5 C 0.21153(18) 0.2874(2) 0.30337(8)
H3 H 0.1813(19) 0.175(2) 0.3399(8)
C6 C 0.15231(17) 0.2659(2) 0.22911(7)
H4 H 0.081(2) 0.134(3) 0.2152(8)
C7 C 0.0790(2) 0.1816(3) 0.07409(9)
H5 H 0.055(2) 0.181(3) 0.0169(9)
H6 H -0.035(2) 0.147(3) 0.0972(9)
H7 H 0.165(2) 0.054(3) 0.0846(9)
C8 C 0.2477(2) 0.5183(3) 0.04175(8)
H8 H 0.200(2) 0.479(3) -0.0085(9)
H9 H 0.379(2) 0.474(3) 0.0435(8)
H10 H 0.240(2) 0.682(3) 0.0486(8)
C9 C 0.39214(17) 0.4826(2) 0.40197(7)
C10 C 0.46076(17) 0.4945(2) 0.46448(7)
N1B N 0.85268(15) 0.60167(19) 0.90188(6)
C1B C 0.79975(16) 0.5776(2) 0.82636(7)
C2B C 0.69753(17) 0.3928(2) 0.80213(7)
H1B H 0.663(2) 0.277(3) 0.8381(8)
C3B C 0.63958(17) 0.3716(2) 0.72770(7)
H2B H 0.5636(19) 0.238(2) 0.7128(8)
C4B C 0.68081(16) 0.5329(2) 0.67348(7)
C5B C 0.78847(18) 0.7126(2) 0.69663(8)
H3B H 0.8187(19) 0.825(2) 0.6601(8)
C6B C 0.84769(17) 0.7341(2) 0.77089(7)
H4B H 0.919(2) 0.866(3) 0.7848(8)
C7B C 0.9210(2) 0.8184(3) 0.92591(9)
H5B H 0.945(2) 0.819(3) 0.9831(9)
H6B H 1.035(2) 0.853(3) 0.9028(9)
H7B H 0.835(2) 0.946(3) 0.9154(9)
C8B C 0.7523(2) 0.4817(3) 0.95825(8)
H8B H 0.800(2) 0.521(3) 1.0085(9)
H9B H 0.621(2) 0.526(3) 0.9565(8)
H10B H 0.760(2) 0.318(3) 0.9514(8)
C9B C 0.60786(17) 0.5174(2) 0.59803(7)
C10B C 0.53924(17) 0.5055(2) 0.53552(7)
loop_
_geom_bond_atom_site_label_1
_geom_bond_atom_site_label_2
_geom_bond_site_symmetry_1
_geom_bond_site_symmetry_2
N1 C1 1_555 1_555
C1 C2 1_555 1_555
C2 H1 1_555 1_555
C3 C2 1_555 1_555
H2 C3 1_555 1_555
C4 C3 1_555 1_555
C5 C4 1_555 1_555
H3 C5 1_555 1_555
C6 C1 1_555 1_555
H4 C6 1_555 1_555
C7 N1 1_555 1_555
H5 C7 1_555 1_555
H6 C7 1_555 1_555
H7 C7 1_555 1_555
C8 N1 1_555 1_555
H8 C8 1_555 1_555
H9 C8 1_555 1_555
H10 C8 1_555 1_555
C9 C4 1_555 1_555
C10 C9 1_555 1_555
N1B C1B 1_555 1_555
C1B C2B 1_555 1_555
C2B H1B 1_555 1_555
C3B C2B 1_555 1_555
H2B C3B 1_555 1_555
C4B C3B 1_555 1_555
C5B C4B 1_555 1_555
H3B C5B 1_555 1_555
C6B C1B 1_555 1_555
H4B C6B 1_555 1_555
C7B N1B 1_555 1_555
H5B C7B 1_555 1_555
H6B C7B 1_555 1_555
H7B C7B 1_555 1_555
C8B N1B 1_555 1_555
H8B C8B 1_555 1_555
H9B C8B 1_555 1_555
H10B C8B 1_555 1_555
C9B C4B 1_555 1_555
C10B C10 1_555 1_555
C5 C6 1_555 1_555
C5B C6B 1_555 1_555
C9B C10B 1_555 1_555

#END
