
#######################################################################
#
#                 Cambridge Crystallographic Data Centre
#                                CCDC 
#
#######################################################################
#
# If this CIF has been generated from an entry in the Cambridge 
# Structural Database, then it will include bibliographic, chemical, 
# crystal, experimental, refinement or atomic coordinate data resulting 
# from the CCDC's data processing and validation procedures.
#
#######################################################################

data_RABKIP
_chemical_formula_moiety         'C24 H23 N3 O3 S1'
_chemical_name_systematic        
4-Methyl-N-[2-(5-oxo-1-(pyridin-2-yl)-2,5-dihydro-1H-pyrrol-3-yl)-1-phenylethyl]benzenesulfonamide
_symmetry_cell_setting           monoclinic
_symmetry_space_group_name_H-M   'P 21/c'
_symmetry_Int_Tables_number      14
_space_group_name_Hall           '-P 2ybc'
loop_
_symmetry_equiv_pos_site_id
_symmetry_equiv_pos_as_xyz
1 x,y,z
2 x,1/2-y,1/2+z
3 -x,-y,-z
4 -x,1/2+y,1/2-z
_cell_length_a                   15.0245(4)
_cell_length_b                   7.5900(2)
_cell_length_c                   19.2583(5)
_cell_angle_alpha                90
_cell_angle_beta                 100.117(2)
_cell_angle_gamma                90
_cell_volume                     2161.99
_exptl_crystal_colour            colorless
_exptl_crystal_description       block
_chemical_melting_point          168-169deg.C
_cell_formula_units_Z            4
loop_
_atom_site_label
_atom_site_type_symbol
_atom_site_fract_x
_atom_site_fract_y
_atom_site_fract_z
S1 S 0.46773(3) 0.60999(5) 0.10261(2)
O1 O 0.81127(8) 0.27507(17) 0.22305(7)
O2 O 0.49331(8) 0.64649(15) 0.17653(6)
O3 O 0.51883(8) 0.68784(15) 0.05364(6)
N1 N 0.74747(9) 0.02396(18) 0.16524(7)
N2 N 0.47524(9) 0.40062(18) 0.09224(8)
H1 H 0.4728(13) 0.371(3) 0.0486(11)
N3 N 0.80248(10) -0.2423(2) 0.13517(8)
C1 C 0.74528(11) 0.1898(2) 0.19492(8)
C2 C 0.64967(11) 0.2404(2) 0.18537(9)
H2 H 0.6278 0.3490 0.2003
C3 C 0.59798(11) 0.1121(2) 0.15271(8)
C4 C 0.65616(11) -0.0362(2) 0.13579(9)
H3 H 0.6415 -0.1471 0.1584
H4 H 0.6491 -0.0546 0.0842
C5 C 0.49700(11) 0.0997(2) 0.13328(9)
H5 H 0.4754 0.0088 0.1633
H6 H 0.4813 0.0596 0.0837
C6 C 0.44652(11) 0.2715(2) 0.14104(8)
H7 H 0.4666 0.3157 0.1902
C7 C 0.34482(11) 0.2414(2) 0.13044(9)
C8 C 0.30584(12) 0.2033(2) 0.18890(9)
H8 H 0.3430 0.1965 0.2341
C9 C 0.21343(12) 0.1751(3) 0.18232(10)
H9 H 0.1876 0.1483 0.2227
C10 C 0.15946(12) 0.1862(3) 0.11674(11)
H10 H 0.0960 0.1702 0.1121
C11 C 0.19734(12) 0.2205(3) 0.05782(10)
H11 H 0.1600 0.2258 0.0126
C12 C 0.28972(11) 0.2474(2) 0.06442(9)
H12 H 0.3155 0.2699 0.0237
C13 C 0.82283(11) -0.0837(2) 0.16299(8)
C14 C 0.87171(13) -0.3539(3) 0.13400(11)
H13 H 0.8583 -0.4677 0.1144
C15 C 0.96036(13) -0.3138(3) 0.15935(10)
H14 H 1.0069 -0.3979 0.1581
C16 C 0.97998(13) -0.1475(3) 0.18669(11)
H15 H 1.0409 -0.1149 0.2042
C17 C 0.91097(12) -0.0285(3) 0.18861(10)
H16 H 0.9231 0.0871 0.2068
C18 C 0.35428(11) 0.6734(2) 0.07561(8)
C19 C 0.29786(12) 0.6918(2) 0.12458(9)
H17 H 0.3210 0.6792 0.1735
C20 C 0.20726(12) 0.7287(3) 0.10160(10)
H18 H 0.1683 0.7417 0.1352
C21 C 0.17237(12) 0.7471(2) 0.03041(10)
C22 C 0.23045(12) 0.7300(2) -0.01765(9)
H19 H 0.2075 0.7442 -0.0665
C23 C 0.32104(12) 0.6926(2) 0.00392(9)
H20 H 0.3600 0.6801 -0.0296
C24 C 0.07341(13) 0.7850(3) 0.00473(12)
H21 H 0.0476 0.8404 0.0427
H22 H 0.0415 0.6745 -0.0092
H23 H 0.0669 0.8645 -0.0359
loop_
_geom_bond_atom_site_label_1
_geom_bond_atom_site_label_2
_geom_bond_site_symmetry_1
_geom_bond_site_symmetry_2
S1 O2 1_555 1_555
O1 C1 1_555 1_555
O3 S1 1_555 1_555
N1 C1 1_555 1_555
N2 S1 1_555 1_555
H1 N2 1_555 1_555
N3 C13 1_555 1_555
C1 C2 1_555 1_555
C2 H2 1_555 1_555
C3 C2 1_555 1_555
C4 N1 1_555 1_555
H3 C4 1_555 1_555
H4 C4 1_555 1_555
C5 C3 1_555 1_555
H5 C5 1_555 1_555
H6 C5 1_555 1_555
C6 N2 1_555 1_555
H7 C6 1_555 1_555
C7 C6 1_555 1_555
C8 C7 1_555 1_555
H8 C8 1_555 1_555
C9 C8 1_555 1_555
H9 C9 1_555 1_555
C10 C9 1_555 1_555
H10 C10 1_555 1_555
C11 C10 1_555 1_555
H11 C11 1_555 1_555
C12 C7 1_555 1_555
H12 C12 1_555 1_555
C13 N1 1_555 1_555
C14 N3 1_555 1_555
H13 C14 1_555 1_555
C15 C14 1_555 1_555
H14 C15 1_555 1_555
C16 C15 1_555 1_555
H15 C16 1_555 1_555
C17 C13 1_555 1_555
H16 C17 1_555 1_555
C18 S1 1_555 1_555
C19 C18 1_555 1_555
H17 C19 1_555 1_555
C20 C19 1_555 1_555
H18 C20 1_555 1_555
C21 C20 1_555 1_555
C22 C21 1_555 1_555
H19 C22 1_555 1_555
C23 C18 1_555 1_555
H20 C23 1_555 1_555
C24 C21 1_555 1_555
H21 C24 1_555 1_555
H22 C24 1_555 1_555
H23 C24 1_555 1_555
C3 C4 1_555 1_555
C5 C6 1_555 1_555
C11 C12 1_555 1_555
C16 C17 1_555 1_555
C22 C23 1_555 1_555

#END
