
#######################################################################
#
#                 Cambridge Crystallographic Data Centre
#                                CCDC 
#
#######################################################################
#
# If this CIF has been generated from an entry in the Cambridge 
# Structural Database, then it will include bibliographic, chemical, 
# crystal, experimental, refinement or atomic coordinate data resulting 
# from the CCDC's data processing and validation procedures.
#
#######################################################################

data_RABTET
_chemical_formula_moiety         'C16 H36 N1 1+,I1 1-'
_chemical_name_systematic        'Tetra-n-butylammonium iodide'
_symmetry_cell_setting           monoclinic
_symmetry_space_group_name_H-M   'C 2'
_symmetry_Int_Tables_number      5
_space_group_name_Hall           'C 2y'
loop_
_symmetry_equiv_pos_site_id
_symmetry_equiv_pos_as_xyz
1 x,y,z
2 -x,y,-z
3 1/2+x,1/2+y,z
4 1/2-x,1/2+y,-z
_cell_length_a                   14.482(4)
_cell_length_b                   14.318(4)
_cell_length_c                   19.975(7)
_cell_angle_alpha                90
_cell_angle_beta                 110.86(2)
_cell_angle_gamma                90
_cell_volume                     3870.39
_exptl_crystal_colour            colorless
_cell_formula_units_Z            8
loop_
_atom_site_label
_atom_site_type_symbol
_atom_site_fract_x
_atom_site_fract_y
_atom_site_fract_z
I1 I 0.4899(3) 0.0121 0.2266(2)
I2 I 0.5217(3) 0.4855(8) 0.2875(3)
N1 N 0.2432(30) 0.2526(32) 0.2610(26)
C1 C 0.1603(32) 0.1953(37) 0.2051(26)
C2 C 0.0915(36) 0.2682(46) 0.1566(40)
C3 C -0.0041(48) 0.2056(50) 0.1150(34)
C4 C -0.0852(40) 0.2515(41) 0.0564(29)
C5 C 0.2200(30) 0.3418(50) 0.2952(36)
C6 C 0.3185(40) 0.3786(51) 0.3608(36)
C7 C 0.2731(50) 0.4618(50) 0.3924(37)
C8 C 0.3408(57) 0.4838(53) 0.4520(42)
C9 C 0.3233(40) 0.3040(42) 0.2299(31)
C10 C 0.3140(61) 0.2698(61) 0.1615(49)
C11 C 0.3727(46) 0.3060(50) 0.1111(33)
C12 C 0.4071(39) 0.2409(40) 0.0584(29)
C13 C 0.3186(39) 0.1859(41) 0.2993(27)
C14 C 0.2863(41) 0.1384(50) 0.3546(40)
C15 C 0.3725(36) 0.0725(40) 0.4003(28)
C16 C 0.3357(46) -0.0007(60) 0.4535(34)
N2 N 0.7397(40) 0.2613(37) 0.2529(27)
C17 C 0.6616(37) 0.3230(38) 0.2229(32)
C18 C 0.6940(42) 0.3961(57) 0.1719(43)
C19 C 0.6205(63) 0.4595(63) 0.1051(60)
C20 C 0.6479(34) 0.5298(40) 0.0474(26)
C21 C 0.8472(40) 0.3035(47) 0.2823(40)
C22 C 0.9271(51) 0.2486(48) 0.3484(36)
C23 C 1.0174(60) 0.3056(48) 0.3964(47)
C24 C 1.0960(70) 0.2422(54) 0.4529(50)
C25 C 0.7173(51) 0.1881(50) 0.3111(50)
C26 C 0.6862(47) 0.2657(47) 0.3523(51)
C27 C 0.6417(58) 0.2019(57) 0.3954(60)
C28 C 0.6022(70) 0.2735(67) 0.4322(57)
C29 C 0.7636(36) 0.2021(37) 0.2005(28)
C30 C 0.7001(52) 0.1349(48) 0.1473(40)
C31 C 0.7355(40) 0.0799(52) 0.1051(30)
C32 C 0.6368(61) 0.0347(53) 0.0642(42)
loop_
_geom_bond_atom_site_label_1
_geom_bond_atom_site_label_2
_geom_bond_site_symmetry_1
_geom_bond_site_symmetry_2
N1 C1 1_555 1_555
C1 C2 1_555 1_555
C2 C3 1_555 1_555
C3 C4 1_555 1_555
C5 N1 1_555 1_555
C6 C5 1_555 1_555
C7 C6 1_555 1_555
C8 C7 1_555 1_555
C9 N1 1_555 1_555
C10 C9 1_555 1_555
C11 C10 1_555 1_555
C12 C11 1_555 1_555
C13 N1 1_555 1_555
C14 C13 1_555 1_555
C15 C14 1_555 1_555
C16 C15 1_555 1_555
N2 C17 1_555 1_555
C17 C18 1_555 1_555
C18 C19 1_555 1_555
C19 C20 1_555 1_555
C21 N2 1_555 1_555
C22 C21 1_555 1_555
C23 C22 1_555 1_555
C24 C23 1_555 1_555
C25 N2 1_555 1_555
C26 C25 1_555 1_555
C27 C26 1_555 1_555
C28 C27 1_555 1_555
C29 N2 1_555 1_555
C30 C29 1_555 1_555
C31 C30 1_555 1_555
C32 C31 1_555 1_555

#END
