
#######################################################################
#
#                 Cambridge Crystallographic Data Centre
#                                CCDC 
#
#######################################################################
#
# If this CIF has been generated from an entry in the Cambridge 
# Structural Database, then it will include bibliographic, chemical, 
# crystal, experimental, refinement or atomic coordinate data resulting 
# from the CCDC's data processing and validation procedures.
#
#######################################################################

data_RABYAU
_chemical_compound_source        'Nocardia mediterranei var. kanglensis'
_chemical_name_common            'Kanglemycin C'
_chemical_formula_moiety         'C19 H18 O5'
_chemical_name_systematic        
4a,5,6,6a,12a,12b-Hexahydro-4a,8-dihydroxy-3-methylbenz(a)anthracen-1,7,12(4H)-trione
_symmetry_cell_setting           orthorhombic
_symmetry_space_group_name_H-M   'P 21 21 21'
_symmetry_Int_Tables_number      19
_space_group_name_Hall           'P 2ac 2ab'
loop_
_symmetry_equiv_pos_site_id
_symmetry_equiv_pos_as_xyz
1 x,y,z
2 1/2-x,-y,1/2+z
3 1/2+x,1/2-y,-z
4 -x,1/2+y,1/2-z
_cell_length_a                   9.275(4)
_cell_length_b                   10.994(5)
_cell_length_c                   15.683(7)
_cell_angle_alpha                90
_cell_angle_beta                 90
_cell_angle_gamma                90
_cell_volume                     1599.19
_cell_formula_units_Z            4
loop_
_atom_site_label
_atom_site_type_symbol
_atom_site_fract_x
_atom_site_fract_y
_atom_site_fract_z
C1 C -0.1897(11) -0.2591(9) 0.4079(7)
C2 C -0.1445(13) -0.3103(10) 0.3337(7)
C3 C -0.0413(15) -0.2505(11) 0.2857(7)
C4 C 0.0193 -0.1394(12) 0.3135(7)
C5 C -0.0250(11) -0.0881(9) 0.3911(5)
C6 C -0.1322(11) -0.1491(9) 0.4406(6)
C7 C -0.1831(10) -0.0961(8) 0.5192(7)
C8 C -0.1396(10) 0.0325(7) 0.5430(6)
C9 C 0.0080(11) 0.0655(8) 0.5105(5)
C10 C 0.0451(10) 0.0239(8) 0.4205(6)
C11 C -0.1555(12) 0.0535(9) 0.6380(6)
C12 C -0.1152(11) 0.1888(9) 0.6582(6)
C13 C 0.0372(11) 0.2243(9) 0.6248(6)
C14 C 0.0453(10) 0.1983(8) 0.5280(6)
C15 C -0.0455(10) 0.2874(8) 0.4749(6)
C16 C -0.0439(11) 0.4115(9) 0.5075(7)
C17 C -0.0034(10) 0.4519(10) 0.5844(7)
C18 C 0.0083(12) 0.3585(10) 0.6424(6)
C19 C -0.0238(13) 0.5729(9) 0.6156(8)
O1 O -0.2915(10) -0.3218(6) 0.4554(5)
O2 O -0.2693(9) -0.1505(7) 0.5645(6)
O3 O 0.1359(7) 0.0740(6) 0.3777(4)
O4 O 0.1380(7) 0.1492(7) 0.6700(4)
O5 O -0.1078(7) 0.2526(6) 0.4107(4)
loop_
_geom_bond_atom_site_label_1
_geom_bond_atom_site_label_2
_geom_bond_site_symmetry_1
_geom_bond_site_symmetry_2
C1 C2 1_555 1_555
C2 C3 1_555 1_555
C3 C4 1_555 1_555
C4 C5 1_555 1_555
C5 C6 1_555 1_555
C6 C1 1_555 1_555
C7 C6 1_555 1_555
C8 C7 1_555 1_555
C9 C8 1_555 1_555
C10 C5 1_555 1_555
C11 C8 1_555 1_555
C12 C11 1_555 1_555
C13 C12 1_555 1_555
C14 C9 1_555 1_555
C15 C14 1_555 1_555
C16 C15 1_555 1_555
C17 C16 1_555 1_555
C18 C13 1_555 1_555
C19 C17 1_555 1_555
O1 C1 1_555 1_555
O2 C7 1_555 1_555
O3 C10 1_555 1_555
O4 C13 1_555 1_555
O5 C15 1_555 1_555
C9 C10 1_555 1_555
C13 C14 1_555 1_555
C17 C18 1_555 1_555

#END
