
#######################################################################
#
#                 Cambridge Crystallographic Data Centre
#                                CCDC 
#
#######################################################################
#
# If this CIF has been generated from an entry in the Cambridge 
# Structural Database, then it will include bibliographic, chemical, 
# crystal, experimental, refinement or atomic coordinate data resulting 
# from the CCDC's data processing and validation procedures.
#
#######################################################################

data_RABZUQ
_chemical_formula_moiety         'C21 H19 N3 O2'
_chemical_name_systematic        
N,N'-bis(4-Methylphenyl)pyridine-2,6-dicarboxamide
_symmetry_cell_setting           monoclinic
_symmetry_space_group_name_H-M   'C 2/c'
_symmetry_Int_Tables_number      15
_space_group_name_Hall           '-C 2yn'
loop_
_symmetry_equiv_pos_site_id
_symmetry_equiv_pos_as_xyz
1 x,y,z
2 1/2+x,1/2+y,z
3 x,-y,1/2+z
4 1/2+x,1/2-y,1/2+z
5 -x,-y,-z
6 1/2-x,1/2-y,-z
7 -x,y,1/2-z
8 1/2-x,1/2+y,1/2-z
_cell_length_a                   25.140(5)
_cell_length_b                   8.5779(17)
_cell_length_c                   8.5295(17)
_cell_angle_alpha                90
_cell_angle_beta                 94.46(3)
_cell_angle_gamma                90
_cell_volume                     1833.8
_exptl_crystal_colour            yellow
_exptl_crystal_description       prism
_cell_formula_units_Z            4
_exptl_crystal_recrystallization_method DMF
loop_
_atom_site_label
_atom_site_type_symbol
_atom_site_fract_x
_atom_site_fract_y
_atom_site_fract_z
O1 O 0.07266(11) 0.1728(3) -0.0835(3)
N1 N 0.07286(11) -0.0329(3) 0.0855(3)
H1 H 0.0586 -0.0656 0.1678
N2 N 0.0000 0.1195(4) 0.2500
C1 C 0.21858(19) -0.4737(6) -0.1486(6)
H2 H 0.2469 -0.4873 -0.0674
H3 H 0.2329 -0.4325 -0.2411
H4 H 0.2020 -0.5725 -0.1728
C2 C 0.17732(17) -0.3609(6) -0.0922(5)
C3 C 0.17786(18) -0.2080(6) -0.1422(5)
H5 H 0.2018 -0.1791 -0.2148
C4 C 0.14395(15) -0.0954(5) -0.0882(4)
H6 H 0.1456 0.0071 -0.1228
C5 C 0.10785(13) -0.1386(4) 0.0178(4)
C6 C 0.10708(15) -0.2910(5) 0.0688(4)
H7 H 0.0836 -0.3211 0.1421
C7 C 0.14110(17) -0.3980(5) 0.0112(5)
H8 H 0.1392 -0.5009 0.0446
C8 C 0.05902(14) 0.1121(4) 0.0376(4)
C9 C 0.02741(13) 0.2001(4) 0.1502(4)
C10 C 0.02767(14) 0.3605(4) 0.1440(4)
H9 H 0.0462 0.4126 0.0697
C11 C 0.0000 0.4418(6) 0.2500
H10 H 0.0000 0.5503 0.2500
C9F C -0.02741(13) 0.2001(4) 0.3498(4)
C8F C -0.05902(14) 0.1121(4) 0.4624(4)
O1F O -0.07266(11) 0.1728(3) 0.5835(3)
N1F N -0.07286(11) -0.0329(3) 0.4145(3)
H1F H -0.0586 -0.0656 0.3322
C5F C -0.10785(13) -0.1386(4) 0.4822(4)
C4F C -0.14395(15) -0.0954(5) 0.5882(4)
C3F C -0.17786(18) -0.2080(6) 0.6422(5)
C2F C -0.17732(17) -0.3609(6) 0.5922(5)
C1F C -0.21858(19) -0.4737(6) 0.6486(6)
H2F H -0.2469 -0.4873 0.5674
H3F H -0.2329 -0.4325 0.7411
H4F H -0.2020 -0.5725 0.6728
C7F C -0.14110(17) -0.3980(5) 0.4888(5)
C6F C -0.10708(15) -0.2910(5) 0.4312(4)
H7F H -0.0836 -0.3211 0.3579
H8F H -0.1392 -0.5009 0.4554
H5F H -0.2018 -0.1791 0.7148
H6F H -0.1456 0.0071 0.6228
C10F C -0.02767(14) 0.3605(4) 0.3560(4)
H9F H -0.0462 0.4126 0.4303
loop_
_geom_bond_atom_site_label_1
_geom_bond_atom_site_label_2
_geom_bond_site_symmetry_1
_geom_bond_site_symmetry_2
O1 C8 1_555 1_555
N1 H1 1_555 1_555
N2 C9 1_555 1_555
C1 H2 1_555 1_555
H3 C1 1_555 1_555
H4 C1 1_555 1_555
C2 C1 1_555 1_555
C3 C2 1_555 1_555
H5 C3 1_555 1_555
C4 C3 1_555 1_555
H6 C4 1_555 1_555
C5 N1 1_555 1_555
C6 C5 1_555 1_555
H7 C6 1_555 1_555
C7 C2 1_555 1_555
H8 C7 1_555 1_555
C8 N1 1_555 1_555
C9 C8 1_555 1_555
C10 C9 1_555 1_555
H9 C10 1_555 1_555
C11 C10 1_555 1_555
H10 C11 1_555 1_555
C9F N2 1_555 1_555
C8F C9F 1_555 1_555
O1F C8F 1_555 1_555
N1F C8F 1_555 1_555
H1F N1F 1_555 1_555
C5F N1F 1_555 1_555
C4F C5F 1_555 1_555
C3F C4F 1_555 1_555
C2F C3F 1_555 1_555
C1F C2F 1_555 1_555
H2F C1F 1_555 1_555
H3F C1F 1_555 1_555
H4F C1F 1_555 1_555
C7F C2F 1_555 1_555
C6F C5F 1_555 1_555
H7F C6F 1_555 1_555
H8F C7F 1_555 1_555
H5F C3F 1_555 1_555
H6F C4F 1_555 1_555
C10F C11 1_555 1_555
H9F C10F 1_555 1_555
C4 C5 1_555 1_555
C6 C7 1_555 1_555
C9F C10F 1_555 1_555
C7F C6F 1_555 1_555

#END
