
#######################################################################
#
#                 Cambridge Crystallographic Data Centre
#                                CCDC 
#
#######################################################################
#
# If this CIF has been generated from an entry in the Cambridge 
# Structural Database, then it will include bibliographic, chemical, 
# crystal, experimental, refinement or atomic coordinate data resulting 
# from the CCDC's data processing and validation procedures.
#
#######################################################################

data_RACBIH
_chemical_formula_moiety         'C18 H15 N3'
_chemical_name_systematic        
2-Amino-4-phenyl-5,6-dihydrobenzo(h)quinazoline
_symmetry_cell_setting           monoclinic
_symmetry_space_group_name_H-M   'P 21/c'
_symmetry_Int_Tables_number      14
_space_group_name_Hall           '-P 2ybc'
loop_
_symmetry_equiv_pos_site_id
_symmetry_equiv_pos_as_xyz
1 x,y,z
2 x,1/2-y,1/2+z
3 -x,-y,-z
4 -x,1/2+y,1/2-z
_cell_length_a                   10.902(2)
_cell_length_b                   6.9060(10)
_cell_length_c                   18.577(3)
_cell_angle_alpha                90
_cell_angle_beta                 94.850(10)
_cell_angle_gamma                90
_cell_volume                     1393.64
_exptl_crystal_colour            yellow
_exptl_crystal_description       block
_chemical_melting_point          447-448K
_cell_formula_units_Z            4
_exptl_crystal_recrystallization_method 'acetone/petroleum ether'
loop_
_atom_site_label
_atom_site_type_symbol
_atom_site_fract_x
_atom_site_fract_y
_atom_site_fract_z
N1 N 0.81730(11) 0.17629(17) 0.71624(6)
N2 N 0.89605(10) 0.45988(18) 0.66146(6)
N3 N 0.98173(14) 0.3452(2) 0.77085(8)
C1 C 0.89514(13) 0.3265(2) 0.71412(8)
C2 C 0.72585(12) 0.1698(2) 0.66278(7)
C3 C 0.63317(13) 0.0136(2) 0.66516(7)
C4 C 0.65687(15) -0.1548(2) 0.70558(8)
H1 H 0.7331 -0.1717 0.7313
C5 C 0.56794(17) -0.2965(2) 0.70770(9)
H2 H 0.5850 -0.4098 0.7337
C6 C 0.45352(17) -0.2697(3) 0.67108(9)
H3 H 0.3929 -0.3637 0.6733
C7 C 0.42935(15) -0.1043(3) 0.63135(8)
H4 H 0.3518 -0.0873 0.6072
C8 C 0.51843(13) 0.0382(2) 0.62648(8)
C9 C 0.49366(14) 0.2206(3) 0.58360(9)
H5 H 0.4671 0.3217 0.6150
H6 H 0.4279 0.1978 0.5460
C10 C 0.60837(15) 0.2862(3) 0.54961(8)
H7 H 0.6276 0.1942 0.5127
H8 H 0.5933 0.4111 0.5267
C11 C 0.71635(13) 0.3018(2) 0.60602(8)
C12 C 0.80931(12) 0.4404(2) 0.60587(7)
C13 C 0.82260(13) 0.5716(2) 0.54317(8)
C14 C 0.84315(14) 0.7687(2) 0.55284(9)
H9 H 0.8449 0.8221 0.5989
C15 C 0.86105(15) 0.8857(3) 0.49434(11)
H10 H 0.8733 1.0179 0.5012
C16 C 0.86099(16) 0.8083(3) 0.42585(11)
H11 H 0.8744 0.8875 0.3868
C17 C 0.84098(15) 0.6137(3) 0.41569(10)
H12 H 0.8409 0.5609 0.3696
C18 C 0.82096(14) 0.4958(3) 0.47366(8)
H13 H 0.8062 0.3644 0.4661
H14 H 0.9949(16) 0.2419(19) 0.7981(8)
H15 H 1.0409(13) 0.430(2) 0.7671(10)
loop_
_geom_bond_atom_site_label_1
_geom_bond_atom_site_label_2
_geom_bond_site_symmetry_1
_geom_bond_site_symmetry_2
N1 C1 1_555 1_555
N2 C1 1_555 1_555
N3 C1 1_555 1_555
C2 N1 1_555 1_555
C3 C2 1_555 1_555
C4 C3 1_555 1_555
H1 C4 1_555 1_555
C5 C4 1_555 1_555
H2 C5 1_555 1_555
C6 C5 1_555 1_555
H3 C6 1_555 1_555
C7 C6 1_555 1_555
H4 C7 1_555 1_555
C8 C3 1_555 1_555
C9 C8 1_555 1_555
H5 C9 1_555 1_555
H6 C9 1_555 1_555
C10 C9 1_555 1_555
H7 C10 1_555 1_555
H8 C10 1_555 1_555
C11 C2 1_555 1_555
C12 N2 1_555 1_555
C13 C12 1_555 1_555
C14 C13 1_555 1_555
H9 C14 1_555 1_555
C15 C14 1_555 1_555
H10 C15 1_555 1_555
C16 C15 1_555 1_555
H11 C16 1_555 1_555
C17 C16 1_555 1_555
H12 C17 1_555 1_555
C18 C13 1_555 1_555
H13 C18 1_555 1_555
H14 N3 1_555 1_555
H15 N3 1_555 1_555
C7 C8 1_555 1_555
C10 C11 1_555 1_555
C11 C12 1_555 1_555
C17 C18 1_555 1_555

#END
