
#######################################################################
#
#                 Cambridge Crystallographic Data Centre
#                                CCDC 
#
#######################################################################
#
# If this CIF has been generated from an entry in the Cambridge 
# Structural Database, then it will include bibliographic, chemical, 
# crystal, experimental, refinement or atomic coordinate data resulting 
# from the CCDC's data processing and validation procedures.
#
#######################################################################

data_RACDOR
_chemical_formula_moiety         'C4 H2 N10 O6,C2 H3 N1'
_chemical_name_systematic        
"4,4'-diazene-1,2-diylbis(2-nitro-2,4-dihydro-3H-1,2,4-triazol-3-one) acetonitrile solvate"
_symmetry_cell_setting           monoclinic
_symmetry_space_group_name_H-M   'P 21/n'
_symmetry_Int_Tables_number      14
_space_group_name_Hall           '-P 2yn'
loop_
_symmetry_equiv_pos_site_id
_symmetry_equiv_pos_as_xyz
1 x,y,z
2 1/2-x,1/2+y,1/2-z
3 -x,-y,-z
4 1/2+x,1/2-y,1/2+z
_cell_length_a                   13.463(5)
_cell_length_b                   6.526(2)
_cell_length_c                   14.068(5)
_cell_angle_alpha                90
_cell_angle_beta                 95.961(5)
_cell_angle_gamma                90
_cell_volume                     1229.32
_exptl_crystal_colour            colorless
_exptl_crystal_description       block
_cell_formula_units_Z            4
loop_
_atom_site_label
_atom_site_type_symbol
_atom_site_fract_x
_atom_site_fract_y
_atom_site_fract_z
N1 N 0.23788(9) 0.46894(18) 0.38807(9)
N2 N 0.22069(8) 0.25935(17) 0.38915(9)
N3 N 0.09904(8) 0.39448(17) 0.45244(8)
N4 N 0.00861(8) 0.40903(18) 0.48960(8)
N5 N 0.28290(8) 0.12872(18) 0.34337(8)
O1 O 0.09524(8) 0.03671(16) 0.43527(8)
O2 O 0.25943(8) -0.05086(16) 0.34071(8)
O3 O 0.35370(7) 0.20830(16) 0.31165(7)
C1 C 0.16342(10) 0.5450(2) 0.42664(10)
H1 H 0.1539 0.6875 0.4362
C2 C 0.13203(10) 0.2013(2) 0.42649(10)
N1B N -0.23788(9) 0.53106(18) 0.61193(9)
N2B N -0.22069(8) 0.74065(17) 0.61085(9)
N3B N -0.09904(8) 0.60552(17) 0.54756(8)
N4B N -0.00861(8) 0.59097(18) 0.51040(8)
N5B N -0.28290(8) 0.87128(18) 0.65663(8)
O1B O -0.09524(8) 0.96329(16) 0.56473(8)
O2B O -0.25943(8) 1.05086(16) 0.65929(8)
O3B O -0.35370(7) 0.79170(16) 0.68835(7)
C1B C -0.16342(10) 0.4550(2) 0.57336(10)
H1B H -0.1539 0.3125 0.5638
C2B C -0.13203(10) 0.7987(2) 0.57351(10)
N6 N 0.47219(9) 0.79243(18) 0.27212(8)
N7 N 0.53374(9) 0.93320(18) 0.32263(8)
N8 N 0.51346(9) 0.69205(18) 0.42116(8)
N9 N 0.52388(9) 0.58194(18) 0.50493(8)
N10 N 0.55065(9) 1.12346(18) 0.28035(9)
O4 O 0.61266(9) 0.96900(17) 0.48011(8)
O5 O 0.59153(8) 1.25157(17) 0.33330(8)
O6 O 0.52377(9) 1.13875(18) 0.19603(8)
C3 C 0.46157(10) 0.6493(2) 0.33340(10)
H2 H 0.4228 0.5292 0.3199
C4 C 0.56134(10) 0.8811(2) 0.41830(10)
N6B N 0.52781(9) 0.20757(18) 0.72788(8)
N7B N 0.46626(9) 0.06680(18) 0.67737(8)
N8B N 0.48654(9) 0.30795(18) 0.57884(8)
N9B N 0.47612(9) 0.41806(18) 0.49507(8)
N10B N 0.44935(9) -0.12346(18) 0.71965(9)
O4B O 0.38734(9) 0.03100(17) 0.51989(8)
O5B O 0.40847(8) -0.25157(17) 0.66670(8)
O6B O 0.47623(9) -0.13875(18) 0.80397(8)
C3B C 0.53843(10) 0.3507(2) 0.66660(10)
H2B H 0.5772 0.4708 0.6801
C4B C 0.43866(10) 0.1189(2) 0.58170(10)
N11 N 0.76097(13) 0.1330(3) 0.16577(12)
C5 C 0.79274(13) 0.1223(3) 0.24436(13)
C6 C 0.83270(14) 0.1103(3) 0.34411(13)
H3 H 0.8919 0.0218 0.3503
H4 H 0.7820 0.0530 0.3817
H5 H 0.8512 0.2478 0.3677
loop_
_geom_bond_atom_site_label_1
_geom_bond_atom_site_label_2
_geom_bond_site_symmetry_1
_geom_bond_site_symmetry_2
N1 N2 1_555 1_555
N2 N5 1_555 1_555
N3 N4 1_555 1_555
N4 N4B 1_555 1_555
N5 O2 1_555 1_555
O1 C2 1_555 1_555
O3 N5 1_555 1_555
C1 N1 1_555 1_555
H1 C1 1_555 1_555
C2 N2 1_555 1_555
N6 N7 1_555 1_555
N7 N10 1_555 1_555
N8 N9 1_555 1_555
N9 N9B 1_555 1_555
N10 O5 1_555 1_555
O4 C4 1_555 1_555
O6 N10 1_555 1_555
C3 N6 1_555 1_555
H2 C3 1_555 1_555
C4 N7 1_555 1_555
N11 C5 1_555 1_555
C5 C6 1_555 1_555
C6 H3 1_555 1_555
H4 C6 1_555 1_555
H5 C6 1_555 1_555
N1B N2B 1_555 1_555
N2B N5B 1_555 1_555
N3B N4B 1_555 1_555
N5B O2B 1_555 1_555
O1B C2B 1_555 1_555
O3B N5B 1_555 1_555
C1B N1B 1_555 1_555
H1B C1B 1_555 1_555
C2B N2B 1_555 1_555
N6B N7B 1_555 1_555
N7B N10B 1_555 1_555
N8B N9B 1_555 1_555
N10B O5B 1_555 1_555
O4B C4B 1_555 1_555
O6B N10B 1_555 1_555
C3B N6B 1_555 1_555
H2B C3B 1_555 1_555
C4B N7B 1_555 1_555
N3 C1 1_555 1_555
N3 C2 1_555 1_555
N8 C3 1_555 1_555
N8 C4 1_555 1_555
N3B C1B 1_555 1_555
N3B C2B 1_555 1_555
N8B C3B 1_555 1_555
N8B C4B 1_555 1_555

#END
