
#######################################################################
#
#                 Cambridge Crystallographic Data Centre
#                                CCDC 
#
#######################################################################
#
# If this CIF has been generated from an entry in the Cambridge 
# Structural Database, then it will include bibliographic, chemical, 
# crystal, experimental, refinement or atomic coordinate data resulting 
# from the CCDC's data processing and validation procedures.
#
#######################################################################

data_RACFUZ
_chemical_formula_moiety         'C24 H22 N2 O6 S2'
_chemical_name_systematic        
N-((2,4-dimethyl-1,3-dioxo-1,2,3,4-tetrahydroisoquinolin-4-yl)methyl)-N-(phenylsulfonyl)benzenesulfonamide
_symmetry_cell_setting           monoclinic
_symmetry_space_group_name_H-M   'P 21/c'
_symmetry_Int_Tables_number      14
_space_group_name_Hall           '-P 2ybc'
loop_
_symmetry_equiv_pos_site_id
_symmetry_equiv_pos_as_xyz
1 x,y,z
2 -x,1/2+y,1/2-z
3 -x,-y,-z
4 x,1/2-y,1/2+z
_cell_length_a                   17.1594(5)
_cell_length_b                   9.5200(3)
_cell_length_c                   13.9945(4)
_cell_angle_alpha                90
_cell_angle_beta                 94.193(3)
_cell_angle_gamma                90
_cell_volume                     2279.99
_exptl_crystal_colour            'light colorless'
_exptl_crystal_description       block
_cell_formula_units_Z            4
loop_
_atom_site_label
_atom_site_type_symbol
_atom_site_fract_x
_atom_site_fract_y
_atom_site_fract_z
S1 S 0.32109(3) 0.67401(6) 0.44677(4)
S2 S 0.34730(3) 0.94554(6) 0.35848(4)
O1 O 0.17585(12) 0.47441(18) 0.27231(14)
O2 O 0.02120(11) 0.7270(2) 0.45453(13)
O3 O 0.25171(9) 0.59568(19) 0.45929(12)
O4 O 0.35571(10) 0.75446(18) 0.52440(11)
O5 O 0.42947(9) 0.92119(19) 0.37252(13)
O6 O 0.31781(10) 1.01370(18) 0.27210(12)
N1 N 0.09786(11) 0.6013(2) 0.36219(14)
N2 N 0.29753(10) 0.79032(19) 0.35830(12)
C1 C 0.13550(12) 0.8528(2) 0.26450(16)
C2 C 0.14614(14) 0.9766(3) 0.21410(19)
H1 H 0.1805 0.9780 0.1657
C3 C 0.10621(16) 1.0974(3) 0.2351(2)
H2 H 0.1143 1.1793 0.2010
C4 C 0.05434(16) 1.0981(3) 0.3064(2)
H3 H 0.0279 1.1799 0.3205
C5 C 0.04245(14) 0.9768(3) 0.3559(2)
H4 H 0.0073 0.9762 0.4034
C6 C 0.08249(12) 0.8539(2) 0.33562(17)
C7 C 0.06521(13) 0.7261(3) 0.38959(17)
C8 C 0.15087(14) 0.5892(3) 0.29285(17)
C9 C 0.17847(13) 0.7196(2) 0.24206(15)
C10 C 0.16681(15) 0.6858(3) 0.13333(17)
H5 H 0.1841 0.7640 0.0971
H6 H 0.1125 0.6685 0.1162
H7 H 0.1967 0.6039 0.1195
C11 C 0.07765(17) 0.4733(3) 0.4129(2)
H8 H 0.0259 0.4440 0.3910
H9 H 0.0797 0.4917 0.4805
H10 H 0.1142 0.4004 0.4005
C12 C 0.26852(13) 0.7327(2) 0.26295(15)
H11 H 0.2911 0.6401 0.2564
H12 H 0.2884 0.7918 0.2138
C13 C 0.39029(13) 0.5585(2) 0.40349(16)
C14 C 0.36819(16) 0.4228(3) 0.37973(19)
H13 H 0.3168 0.3935 0.3839
C15 C 0.42426(18) 0.3308(3) 0.3494(2)
H14 H 0.4106 0.2386 0.3341
C16 C 0.49955(18) 0.3752(3) 0.34198(19)
H15 H 0.5364 0.3131 0.3208
C17 C 0.52095(16) 0.5102(3) 0.3655(2)
H16 H 0.5722 0.5392 0.3600
C18 C 0.46712(14) 0.6031(3) 0.39710(19)
H17 H 0.4818 0.6944 0.4140
C19 C 0.31692(14) 1.0403(2) 0.45702(16)
C20 C 0.24173(15) 1.0921(3) 0.45441(19)
H18 H 0.2061 1.0723 0.4028
C21 C 0.2202(2) 1.1737(3) 0.5297(2)
H19 H 0.1694 1.2077 0.5297
C22 C 0.2740(2) 1.2050(3) 0.6052(2)
H20 H 0.2596 1.2610 0.6554
C23 C 0.3484(2) 1.1536(3) 0.6059(2)
H21 H 0.3842 1.1751 0.6569
C24 C 0.37121(17) 1.0705(3) 0.5325(2)
H22 H 0.4218 1.0354 0.5335
loop_
_geom_bond_atom_site_label_1
_geom_bond_atom_site_label_2
_geom_bond_site_symmetry_1
_geom_bond_site_symmetry_2
S1 O3 1_555 1_555
S2 O5 1_555 1_555
O1 C8 1_555 1_555
O2 C7 1_555 1_555
O4 S1 1_555 1_555
O6 S2 1_555 1_555
N1 C7 1_555 1_555
N2 S1 1_555 1_555
C1 C2 1_555 1_555
C2 H1 1_555 1_555
C3 C2 1_555 1_555
H2 C3 1_555 1_555
C4 C3 1_555 1_555
H3 C4 1_555 1_555
C5 C4 1_555 1_555
H4 C5 1_555 1_555
C6 C1 1_555 1_555
C7 C6 1_555 1_555
C8 N1 1_555 1_555
C9 C1 1_555 1_555
C10 C9 1_555 1_555
H5 C10 1_555 1_555
H6 C10 1_555 1_555
H7 C10 1_555 1_555
C11 N1 1_555 1_555
H8 C11 1_555 1_555
H9 C11 1_555 1_555
H10 C11 1_555 1_555
C12 N2 1_555 1_555
H11 C12 1_555 1_555
H12 C12 1_555 1_555
C13 S1 1_555 1_555
C14 C13 1_555 1_555
H13 C14 1_555 1_555
C15 C14 1_555 1_555
H14 C15 1_555 1_555
C16 C15 1_555 1_555
H15 C16 1_555 1_555
C17 C16 1_555 1_555
H16 C17 1_555 1_555
C18 C13 1_555 1_555
H17 C18 1_555 1_555
C19 S2 1_555 1_555
C20 C19 1_555 1_555
H18 C20 1_555 1_555
C21 C20 1_555 1_555
H19 C21 1_555 1_555
C22 C21 1_555 1_555
H20 C22 1_555 1_555
C23 C22 1_555 1_555
H21 C23 1_555 1_555
C24 C19 1_555 1_555
H22 C24 1_555 1_555
S2 N2 1_555 1_555
C5 C6 1_555 1_555
C8 C9 1_555 1_555
C9 C12 1_555 1_555
C17 C18 1_555 1_555
C23 C24 1_555 1_555

#END
