
#######################################################################
#
#                 Cambridge Crystallographic Data Centre
#                                CCDC 
#
#######################################################################
#
# If this CIF has been generated from an entry in the Cambridge 
# Structural Database, then it will include bibliographic, chemical, 
# crystal, experimental, refinement or atomic coordinate data resulting 
# from the CCDC's data processing and validation procedures.
#
#######################################################################

data_RACFOR
_chemical_formula_moiety         'C19 H26 O4'
_chemical_name_systematic        
2,3:6,7-bis(Isopropylidene-dioxy)-1,2,3,4,5,6,7,8-octahydrofluorene
_symmetry_cell_setting           orthorhombic
_symmetry_space_group_name_H-M   'P 21 21 21'
_symmetry_Int_Tables_number      19
_space_group_name_Hall           'P 2ac 2ab'
loop_
_symmetry_equiv_pos_site_id
_symmetry_equiv_pos_as_xyz
1 x,y,z
2 1/2-x,-y,1/2+z
3 -x,1/2+y,1/2-z
4 1/2+x,1/2-y,-z
_cell_length_a                   5.4930(11)
_cell_length_b                   10.448(2)
_cell_length_c                   29.985(6)
_cell_angle_alpha                90
_cell_angle_beta                 90
_cell_angle_gamma                90
_cell_volume                     1720.87
_exptl_crystal_colour            colorless
_exptl_crystal_description       prism
_chemical_melting_point          155-156deg.C
_cell_formula_units_Z            4
_exptl_crystal_recrystallization_method pentane
loop_
_atom_site_label
_atom_site_type_symbol
_atom_site_fract_x
_atom_site_fract_y
_atom_site_fract_z
O1 O 0.6036(4) -0.0112(2) 0.40623(6)
O2 O 0.8247(4) 0.16690(19) 0.38657(6)
O3 O 1.1034(4) 0.1494(2) 0.12228(6)
O4 O 0.8278(3) 0.01411(19) 0.08904(6)
C1 C 0.5484(5) -0.1365(3) 0.24198(9)
H1 H 0.5896 -0.2268 0.2426
H2 H 0.3745 -0.1275 0.2373
C2 C 0.6271(5) -0.0708(3) 0.28447(9)
C3 C 0.5393(5) -0.1022(3) 0.33081(8)
H3 H 0.5525 -0.1934 0.3364
H4 H 0.3706 -0.0768 0.3345
C4 C 0.7017(5) -0.0278(3) 0.36244(9)
H5 H 0.8612 -0.0695 0.3644
C5 C 0.7050(6) 0.1040(3) 0.42329(9)
C6 C 0.7327(5) 0.1067(3) 0.34734(8)
H6 H 0.5729 0.1430 0.3401
C7 C 0.8947(5) 0.1145(3) 0.30693(8)
H7 H 0.8960 0.2006 0.2949
H8 H 1.0602 0.0901 0.3144
C8 C 0.7855(5) 0.0221(3) 0.27416(8)
C9 C 0.8245(5) 0.0242(3) 0.22567(9)
C10 C 0.9905(5) 0.1141(3) 0.20092(8)
H9 H 1.1488 0.1176 0.2152
H10 H 0.9221 0.1997 0.2004
C11 C 1.0130(5) 0.0619(3) 0.15410(8)
H11 H 1.1177 -0.0141 0.1546
C12 C 1.0072(6) 0.1099(4) 0.07948(9)
C13 C 0.7713(5) 0.0266(3) 0.13521(8)
H12 H 0.6555 0.0968 0.1396
C14 C 0.6765(5) -0.0940(3) 0.15709(8)
H13 H 0.5102 -0.1109 0.1480
H14 H 0.7768 -0.1670 0.1493
C15 C 0.6895(5) -0.0676(3) 0.20634(9)
C16 C 0.8935(7) 0.0774(3) 0.45826(10)
H15 H 1.0192 0.0244 0.4459
H16 H 0.8190 0.0341 0.4830
H17 H 0.9628 0.1566 0.4683
C17 C 0.5003(7) 0.1874(4) 0.44063(10)
H18 H 0.3841 0.2018 0.4172
H19 H 0.5653 0.2679 0.4505
H20 H 0.4217 0.1453 0.4652
C18 C 0.8938(7) 0.2232(4) 0.05780(12)
H21 H 0.7688 0.2570 0.0768
H22 H 0.8239 0.1982 0.0298
H23 H 1.0157 0.2875 0.0528
C19 C 1.2060(6) 0.0496(4) 0.05240(11)
H24 H 1.2709 -0.0226 0.0682
H25 H 1.3329 0.1110 0.0474
H26 H 1.1413 0.0217 0.0243
loop_
_geom_bond_atom_site_label_1
_geom_bond_atom_site_label_2
_geom_bond_site_symmetry_1
_geom_bond_site_symmetry_2
O1 C4 1_555 1_555
O2 C5 1_555 1_555
O3 C11 1_555 1_555
O4 C12 1_555 1_555
C1 H1 1_555 1_555
H2 C1 1_555 1_555
C2 C1 1_555 1_555
C3 C2 1_555 1_555
H3 C3 1_555 1_555
H4 C3 1_555 1_555
C4 C3 1_555 1_555
H5 C4 1_555 1_555
C5 O1 1_555 1_555
C6 O2 1_555 1_555
H6 C6 1_555 1_555
C7 C6 1_555 1_555
H7 C7 1_555 1_555
H8 C7 1_555 1_555
C8 C2 1_555 1_555
C9 C8 1_555 1_555
C10 C9 1_555 1_555
H9 C10 1_555 1_555
H10 C10 1_555 1_555
C11 C10 1_555 1_555
H11 C11 1_555 1_555
C12 O3 1_555 1_555
C13 O4 1_555 1_555
H12 C13 1_555 1_555
C14 C13 1_555 1_555
H13 C14 1_555 1_555
H14 C14 1_555 1_555
C15 C1 1_555 1_555
C16 C5 1_555 1_555
H15 C16 1_555 1_555
H16 C16 1_555 1_555
H17 C16 1_555 1_555
C17 C5 1_555 1_555
H18 C17 1_555 1_555
H19 C17 1_555 1_555
H20 C17 1_555 1_555
C18 C12 1_555 1_555
H21 C18 1_555 1_555
H22 C18 1_555 1_555
H23 C18 1_555 1_555
C19 C12 1_555 1_555
H24 C19 1_555 1_555
H25 C19 1_555 1_555
H26 C19 1_555 1_555
C4 C6 1_555 1_555
C7 C8 1_555 1_555
C9 C15 1_555 1_555
C11 C13 1_555 1_555
C14 C15 1_555 1_555

#END
