
#######################################################################
#
#                 Cambridge Crystallographic Data Centre
#                                CCDC 
#
#######################################################################
#
# If this CIF has been generated from an entry in the Cambridge 
# Structural Database, then it will include bibliographic, chemical, 
# crystal, experimental, refinement or atomic coordinate data resulting 
# from the CCDC's data processing and validation procedures.
#
#######################################################################

data_RADHEM
_chemical_formula_moiety         'C14 H22 O6'
_chemical_name_systematic        
'diethyl 4-hydroxy-2,4-dimethyl-6-oxocyclohexane-1,3-dicarboxylate'
_symmetry_cell_setting           triclinic
_symmetry_space_group_name_H-M   'P -1'
_symmetry_Int_Tables_number      2
_space_group_name_Hall           '-P 1'
loop_
_symmetry_equiv_pos_site_id
_symmetry_equiv_pos_as_xyz
1 x,y,z
2 -x,-y,-z
_cell_length_a                   5.3554(10)
_cell_length_b                   12.411(2)
_cell_length_c                   12.886(2)
_cell_angle_alpha                109.614(3)
_cell_angle_beta                 99.849(3)
_cell_angle_gamma                99.191(3)
_cell_volume                     772.829
_exptl_crystal_colour            colorless
_exptl_crystal_description       block
_cell_formula_units_Z            2
loop_
_atom_site_label
_atom_site_type_symbol
_atom_site_fract_x
_atom_site_fract_y
_atom_site_fract_z
C1 C 0.5890(3) 0.31839(15) 0.13925(14)
H1 H 0.4253 0.3438 0.1300
C2 C 0.7737(4) 0.40737(17) 0.24721(17)
C3 C 0.6875(4) 0.41334(17) 0.35265(16)
H2 H 0.5259 0.4393 0.3512
H3 H 0.8181 0.4700 0.4183
C4 C 0.6468(3) 0.29267(17) 0.36202(14)
C5 C 0.4429(3) 0.20410(14) 0.25548(14)
H4 H 0.2792 0.2300 0.2527
C6 C 0.5274(3) 0.19558(14) 0.14530(13)
H5 H 0.6867 0.1661 0.1466
C7 C 0.3194(4) 0.11057(17) 0.04106(16)
H6 H 0.1619 0.1383 0.0381
H7 H 0.2858 0.0341 0.0455
H8 H 0.3792 0.1057 -0.0261
C8 C 0.7022(4) 0.31808(17) 0.03955(17)
C9 C 0.7138(5) 0.4026(2) -0.10104(19)
H9 H 0.8692 0.3721 -0.1054
H10 H 0.7593 0.4850 -0.0905
C10 C 0.5111(6) 0.3372(2) -0.2070(2)
H11 H 0.5700 0.3499 -0.2692
H12 H 0.3543 0.3644 -0.2005
H13 H 0.4769 0.2548 -0.2202
C11 C 0.3944(3) 0.08411(16) 0.26180(16)
C12 C 0.0768(4) -0.07785(18) 0.2540(2)
H14 H -0.1062 -0.1121 0.2166
H15 H 0.1779 -0.1262 0.2112
C13 C 0.1248(7) -0.0773(3) 0.3685(2)
H16 H 0.0680 -0.1558 0.3657
H17 H 0.0304 -0.0269 0.4118
H18 H 0.3079 -0.0488 0.4037
C14 C 0.5642(4) 0.2975(2) 0.47050(17)
H19 H 0.6907 0.3564 0.5347
H20 H 0.5524 0.2223 0.4773
H21 H 0.3973 0.3169 0.4679
O1 O 0.8504(4) 0.26080(17) 0.00582(16)
O2 O 0.6176(3) 0.39037(13) -0.00548(12)
O3 O 0.5627(3) 0.03169(14) 0.27119(16)
O4 O 0.1469(2) 0.04125(11) 0.25452(12)
O5 O 0.8967(2) 0.26351(13) 0.36447(12)
O6 O 0.9762(4) 0.46666(17) 0.24757(15)
H22 H 0.860(7) 0.1886(10) 0.346(3)
loop_
_geom_bond_atom_site_label_1
_geom_bond_atom_site_label_2
_geom_bond_site_symmetry_1
_geom_bond_site_symmetry_2
C1 H1 1_555 1_555
C2 C1 1_555 1_555
C3 C2 1_555 1_555
H2 C3 1_555 1_555
H3 C3 1_555 1_555
C4 C3 1_555 1_555
C5 C4 1_555 1_555
H4 C5 1_555 1_555
C6 C1 1_555 1_555
H5 C6 1_555 1_555
C7 C6 1_555 1_555
H6 C7 1_555 1_555
H7 C7 1_555 1_555
H8 C7 1_555 1_555
C8 C1 1_555 1_555
C9 H9 1_555 1_555
H10 C9 1_555 1_555
C10 C9 1_555 1_555
H11 C10 1_555 1_555
H12 C10 1_555 1_555
H13 C10 1_555 1_555
C11 C5 1_555 1_555
C12 H14 1_555 1_555
H15 C12 1_555 1_555
C13 C12 1_555 1_555
H16 C13 1_555 1_555
H17 C13 1_555 1_555
H18 C13 1_555 1_555
C14 C4 1_555 1_555
H19 C14 1_555 1_555
H20 C14 1_555 1_555
H21 C14 1_555 1_555
O1 C8 1_555 1_555
O2 C8 1_555 1_555
O3 C11 1_555 1_555
O4 C11 1_555 1_555
O5 C4 1_555 1_555
O6 C2 1_555 1_555
H22 O5 1_555 1_555
C5 C6 1_555 1_555
C9 O2 1_555 1_555
C12 O4 1_555 1_555

#END
