
#######################################################################
#
#                 Cambridge Crystallographic Data Centre
#                                CCDC 
#
#######################################################################
#
# If this CIF has been generated from an entry in the Cambridge 
# Structural Database, then it will include bibliographic, chemical, 
# crystal, experimental, refinement or atomic coordinate data resulting 
# from the CCDC's data processing and validation procedures.
#
#######################################################################

data_RADJOW
_chemical_formula_moiety         'C27 H25 N1 O7'
_chemical_name_systematic        
5-(4-Cyanophenyl)-4-methoxycarbonyl-4-phenyl-2-(2,4,6-trimethoxyphenyl)-1,3-dioxolane
_symmetry_cell_setting           monoclinic
_symmetry_space_group_name_H-M   'P 21/c'
_symmetry_Int_Tables_number      14
_space_group_name_Hall           '-P 2ybc'
loop_
_symmetry_equiv_pos_site_id
_symmetry_equiv_pos_as_xyz
1 x,y,z
2 x,1/2-y,1/2+z
3 -x,-y,-z
4 -x,1/2+y,1/2-z
_cell_length_a                   21.029(5)
_cell_length_b                   13.441(3)
_cell_length_c                   8.726(2)
_cell_angle_alpha                90
_cell_angle_beta                 94.38(2)
_cell_angle_gamma                90
_cell_volume                     2459.21
_cell_formula_units_Z            4
loop_
_atom_site_label
_atom_site_type_symbol
_atom_site_fract_x
_atom_site_fract_y
_atom_site_fract_z
O1 O 0.20186(6) 0.53797(9) 0.42607(14)
O2 O 0.19550(6) 0.43006(9) 0.22959(14)
O3 O 0.20816(7) 0.47174(12) 0.71886(17)
O4 O 0.22701(8) 0.32155(13) 0.63013(19)
O5 O 0.02830(6) 0.46929(10) 0.30269(16)
O6 O -0.00086(7) 0.74794(11) -0.04543(16)
O7 O 0.20451(7) 0.64474(10) 0.14883(17)
N1 N 0.52204(10) 0.35952(16) -0.0363(3)
C1 C 0.35876(10) 0.46802(18) 0.6076(3)
H1 H 0.3496 0.4086 0.6559
C2 C 0.41868(11) 0.5102(2) 0.6328(3)
H2 H 0.4495 0.4796 0.6989
C3 C 0.43243(13) 0.5970(3) 0.5603(4)
H3 H 0.4729 0.6248 0.5760
C4 C 0.38685(12) 0.64287(19) 0.4649(3)
H4 H 0.3962 0.7023 0.4168
C5 C 0.32693(10) 0.60109(16) 0.4399(2)
H5 H 0.2961 0.6323 0.3745
C6 C 0.31261(9) 0.51334(15) 0.5115(2)
C7 C 0.24820(9) 0.46404(14) 0.4732(2)
C8 C 0.24595(9) 0.39112(14) 0.3310(2)
H6 H 0.2342 0.3244 0.3644
C9 C 0.15731(9) 0.48874(14) 0.3212(2)
H7 H 0.1305 0.4448 0.3788
C10 C 0.22655(9) 0.40921(19) 0.6143(2)
C11 C 0.19010(11) 0.4280(2) 0.8597(2)
H8 H 0.1555 0.3825 0.8375
H9 H 0.1769 0.4795 0.9267
H10 H 0.2258 0.3930 0.9089
C12 C 0.11571(9) 0.55870(14) 0.2272(2)
C13 C 0.04986(9) 0.54652(14) 0.2187(2)
C14 C 0.00874(9) 0.60790(14) 0.1295(2)
H11 H -0.0351 0.5982 0.1253
C15 C 0.03447(10) 0.68316(15) 0.0478(2)
C16 C 0.09978(10) 0.69849(15) 0.0518(2)
H12 H 0.1164 0.7500 -0.0041
C17 C 0.13958(9) 0.63643(15) 0.1395(2)
C18 C -0.03865(9) 0.45721(15) 0.3112(2)
H13 H -0.0564 0.5175 0.3485
H14 H -0.0464 0.4036 0.3801
H15 H -0.0583 0.4424 0.2109
C19 C -0.06837(9) 0.73977(18) -0.0536(3)
H16 H -0.0808 0.6745 -0.0890
H17 H -0.0869 0.7887 -0.1237
H18 H -0.0831 0.7506 0.0466
C20 C 0.23180(10) 0.72309(19) 0.0655(3)
H19 H 0.2212 0.7139 -0.0425
H20 H 0.2773 0.7224 0.0857
H21 H 0.2153 0.7858 0.0972
C21 C 0.30617(9) 0.38446(14) 0.2494(2)
C22 C 0.32008(9) 0.45347(15) 0.1401(2)
H22 H 0.2913 0.5045 0.1146
C23 C 0.37603(10) 0.44801(16) 0.0679(2)
H23 H 0.3848 0.4950 -0.0058
C24 C 0.41901(10) 0.37281(17) 0.1050(3)
C25 C 0.40614(10) 0.30378(17) 0.2150(3)
H24 H 0.4353 0.2534 0.2410
C26 C 0.34991(9) 0.30923(16) 0.2869(2)
H25 H 0.3413 0.2623 0.3608
C27 C 0.47696(12) 0.36579(17) 0.0291(3)
loop_
_geom_bond_atom_site_label_1
_geom_bond_atom_site_label_2
_geom_bond_site_symmetry_1
_geom_bond_site_symmetry_2
O1 C7 1_555 1_555
O2 C8 1_555 1_555
O3 C10 1_555 1_555
O4 C10 1_555 1_555
O5 C13 1_555 1_555
O6 C15 1_555 1_555
O7 C17 1_555 1_555
N1 C27 1_555 1_555
C1 H1 1_555 1_555
C2 C1 1_555 1_555
H2 C2 1_555 1_555
C3 C2 1_555 1_555
H3 C3 1_555 1_555
C4 C3 1_555 1_555
H4 C4 1_555 1_555
C5 C4 1_555 1_555
H5 C5 1_555 1_555
C6 C1 1_555 1_555
C7 C6 1_555 1_555
C8 C7 1_555 1_555
H6 C8 1_555 1_555
C9 O1 1_555 1_555
H7 C9 1_555 1_555
C10 C7 1_555 1_555
C11 O3 1_555 1_555
H8 C11 1_555 1_555
H9 C11 1_555 1_555
H10 C11 1_555 1_555
C12 C9 1_555 1_555
C13 C12 1_555 1_555
C14 C13 1_555 1_555
H11 C14 1_555 1_555
C15 C14 1_555 1_555
C16 C15 1_555 1_555
H12 C16 1_555 1_555
C17 C12 1_555 1_555
C18 O5 1_555 1_555
H13 C18 1_555 1_555
H14 C18 1_555 1_555
H15 C18 1_555 1_555
C19 O6 1_555 1_555
H16 C19 1_555 1_555
H17 C19 1_555 1_555
H18 C19 1_555 1_555
C20 O7 1_555 1_555
H19 C20 1_555 1_555
H20 C20 1_555 1_555
H21 C20 1_555 1_555
C21 C8 1_555 1_555
C22 C21 1_555 1_555
H22 C22 1_555 1_555
C23 C22 1_555 1_555
H23 C23 1_555 1_555
C24 C23 1_555 1_555
C25 C24 1_555 1_555
H24 C25 1_555 1_555
C26 C21 1_555 1_555
H25 C26 1_555 1_555
C27 C24 1_555 1_555
O2 C9 1_555 1_555
C5 C6 1_555 1_555
C16 C17 1_555 1_555
C25 C26 1_555 1_555

#END
