
#######################################################################
#
#                 Cambridge Crystallographic Data Centre
#                                CCDC 
#
#######################################################################
#
# If this CIF has been generated from an entry in the Cambridge 
# Structural Database, then it will include bibliographic, chemical, 
# crystal, experimental, refinement or atomic coordinate data resulting 
# from the CCDC's data processing and validation procedures.
#
#######################################################################

data_RADKAJ
_chemical_formula_moiety         'C24 H20 N2 O9'
_chemical_name_systematic        
5-(2,4-Dinitrophenyl)-4-methoxycarbonyl-4-phenyl-2-(4-methoxyphenyl)-1,3-dioxolane
_symmetry_cell_setting           monoclinic
_symmetry_space_group_name_H-M   'P 21/c'
_symmetry_Int_Tables_number      14
_space_group_name_Hall           '-P 2ybc'
loop_
_symmetry_equiv_pos_site_id
_symmetry_equiv_pos_as_xyz
1 x,y,z
2 x,1/2-y,1/2+z
3 -x,-y,-z
4 -x,1/2+y,1/2-z
_cell_length_a                   10.471(2)
_cell_length_b                   9.614(2)
_cell_length_c                   22.286(5)
_cell_angle_alpha                90
_cell_angle_beta                 96.47(2)
_cell_angle_gamma                90
_cell_volume                     2229.2
_cell_formula_units_Z            4
loop_
_atom_site_label
_atom_site_type_symbol
_atom_site_fract_x
_atom_site_fract_y
_atom_site_fract_z
O1 O 0.24555(11) 0.13897(12) 0.07084(5)
O2 O 0.11260(11) 0.28337(11) 0.11261(5)
O3 O 0.47443(14) -0.36339(16) 0.26613(7)
O4 O 0.31043(15) -0.49559(15) 0.24292(6)
O5 O 0.00285(13) -0.35384(14) 0.07185(6)
O6 O -0.05657(12) -0.14022(14) 0.08174(6)
O7 O -0.15913(12) 0.16089(16) 0.13554(6)
O8 O -0.10681(12) 0.16042(16) 0.04193(6)
O9 O 0.56767(14) 0.69344(16) 0.08682(7)
N1 N 0.37054(16) -0.38889(18) 0.23742(7)
N2 N 0.02257(14) -0.23548(17) 0.08966(6)
C1 C 0.14516(16) 0.04962(17) 0.08568(7)
H1 H 0.0927 0.0185 0.0489
C2 C 0.06376(16) 0.14830(17) 0.12411(7)
C3 C 0.18989(17) 0.27261(18) 0.06372(7)
H2 H 0.1360 0.2793 0.0249
C4 C 0.20486(15) -0.07319(18) 0.12022(7)
C5 C 0.32405(16) -0.05609(18) 0.15387(8)
H3 H 0.3678 0.0274 0.1510
C6 C 0.37925(17) -0.15852(19) 0.19127(8)
H4 H 0.4584 -0.1440 0.2138
C7 C 0.31550(16) -0.28277(18) 0.19476(7)
C8 C 0.20060(16) -0.30946(18) 0.16038(7)
H5 H 0.1602 -0.3954 0.1617
C9 C 0.14767(15) -0.20315(18) 0.12382(7)
C10 C 0.08655(15) 0.12097(17) 0.19162(7)
C11 C 0.17827(17) 0.1981(2) 0.22660(8)
H6 H 0.2199 0.2707 0.2093
C12 C 0.20855(19) 0.1676(2) 0.28759(9)
H7 H 0.2696 0.2207 0.3109
C13 C 0.14913(19) 0.0601(2) 0.31329(9)
H8 H 0.1706 0.0392 0.3539
C14 C 0.05765(19) -0.0171(2) 0.27916(9)
H9 H 0.0168 -0.0898 0.2968
C15 C 0.02603(17) 0.01297(19) 0.21860(8)
H10 H -0.0363 -0.0396 0.1958
C16 C -0.07694(17) 0.15371(19) 0.09566(9)
C17 C -0.29223(19) 0.1771(3) 0.11162(12)
H11 H -0.3445 0.1814 0.1443
H12 H -0.3184 0.0992 0.0862
H13 H -0.3024 0.2613 0.0885
C18 C 0.29014(16) 0.38392(18) 0.06876(7)
C19 C 0.39608(17) 0.37844(19) 0.11201(8)
H17 H 0.4061 0.3031 0.1383
C20 C 0.48618(18) 0.4824(2) 0.11668(8)
H18 H 0.5569 0.4767 0.1459
C21 C 0.47262(18) 0.5959(2) 0.07821(9)
C22 C 0.36654(19) 0.6042(2) 0.03581(8)
H19 H 0.3551 0.6813 0.0106
C23 C 0.27684(18) 0.49783(19) 0.03080(8)
H20 H 0.2065 0.5032 0.0014
C24 C 0.5627(2) 0.8088(2) 0.04675(11)
H21 H 0.5547 0.7760 0.0058
H22 H 0.6400 0.8625 0.0547
H23 H 0.4899 0.8659 0.0527
H14? H -0.2990 0.1799 0.0683
H15? H -0.3251 0.2621 0.1265
H16? H -0.3411 0.1000 0.1242
loop_
_geom_bond_atom_site_label_1
_geom_bond_atom_site_label_2
_geom_bond_site_symmetry_1
_geom_bond_site_symmetry_2
O1 C1 1_555 1_555
O2 C2 1_555 1_555
O3 N1 1_555 1_555
O4 N1 1_555 1_555
O5 N2 1_555 1_555
O6 N2 1_555 1_555
O7 C16 1_555 1_555
O8 C16 1_555 1_555
O9 C21 1_555 1_555
N1 C7 1_555 1_555
N2 C9 1_555 1_555
C1 H1 1_555 1_555
C2 C1 1_555 1_555
C3 O1 1_555 1_555
H2 C3 1_555 1_555
C4 C1 1_555 1_555
C5 C4 1_555 1_555
H3 C5 1_555 1_555
C6 C5 1_555 1_555
H4 C6 1_555 1_555
C7 C6 1_555 1_555
C8 C7 1_555 1_555
H5 C8 1_555 1_555
C9 C4 1_555 1_555
C10 C2 1_555 1_555
C11 C10 1_555 1_555
H6 C11 1_555 1_555
C12 C11 1_555 1_555
H7 C12 1_555 1_555
C13 C12 1_555 1_555
H8 C13 1_555 1_555
C14 C13 1_555 1_555
H9 C14 1_555 1_555
C15 C10 1_555 1_555
H10 C15 1_555 1_555
C16 C2 1_555 1_555
C17 O7 1_555 1_555
H11 C17 1_555 1_555
H12 C17 1_555 1_555
H13 C17 1_555 1_555
C18 C3 1_555 1_555
C19 C18 1_555 1_555
H17 C19 1_555 1_555
C20 C19 1_555 1_555
H18 C20 1_555 1_555
C21 C20 1_555 1_555
C22 C21 1_555 1_555
H19 C22 1_555 1_555
C23 C18 1_555 1_555
H20 C23 1_555 1_555
C24 O9 1_555 1_555
H21 C24 1_555 1_555
H22 C24 1_555 1_555
H23 C24 1_555 1_555
O2 C3 1_555 1_555
C8 C9 1_555 1_555
C14 C15 1_555 1_555
C22 C23 1_555 1_555

#END
