
#######################################################################
#
#                 Cambridge Crystallographic Data Centre
#                                CCDC 
#
#######################################################################
#
# If this CIF has been generated from an entry in the Cambridge 
# Structural Database, then it will include bibliographic, chemical, 
# crystal, experimental, refinement or atomic coordinate data resulting 
# from the CCDC's data processing and validation procedures.
#
#######################################################################

data_RADQET
_chemical_formula_moiety         'C72 H60 N4 O4,3(C3 H6 O1)'
_chemical_name_systematic        
'13,14,37,38-Tetraphenyl-12,15,36,39-tetra-azanonacyclo(39.7.1.1^2,10^.1^17,25^.1^26,34^.0^3,8^.0^19,24^.0^27,32^.0^43,48^)-dopentaconta-1(49),2,3,5,7,8,10(52),17(51),18,20,22,24,26,28,30,32,34(50),41,43,45,47-henicosaene-49,50,51,52-tetrol hexadeutero-acetone solvate'
_symmetry_cell_setting           triclinic
_symmetry_space_group_name_H-M   'P 1'
_symmetry_Int_Tables_number      1
_space_group_name_Hall           'P 1'
loop_
_symmetry_equiv_pos_site_id
_symmetry_equiv_pos_as_xyz
1 x,y,z
_cell_length_a                   14.1790(4)
_cell_length_b                   16.5360(5)
_cell_length_c                   19.6720(6)
_cell_angle_alpha                107.6200(10)
_cell_angle_beta                 97.1700(10)
_cell_angle_gamma                114.3300(10)
_cell_volume                     3836.67
_exptl_crystal_colour            colorless
_exptl_crystal_description       block
_cell_formula_units_Z            2
loop_
_atom_site_label
_atom_site_type_symbol
_atom_site_fract_x
_atom_site_fract_y
_atom_site_fract_z
O1 O 0.2796(2) 0.37646(16) 0.87207(13)
H1 H 0.3335 0.3880 0.9023
O2 O 0.2882(2) 0.39760(19) 0.72260(15)
H2 H 0.3295 0.4503 0.7233
O3 O 0.4433(2) 0.68638(19) 0.95346(15)
H3 H 0.4205 0.6824 0.9115
O4 O 0.48353(19) 0.66531(17) 1.09926(14)
H4 H 0.4723 0.6153 1.1048
N1 N 0.3557(3) 0.5799(2) 0.73673(16)
H9 H 0.3712 0.5702 0.7762
N2 N 0.5279(2) 0.7484(2) 0.84254(16)
H10 H 0.4685 0.7499 0.8446
N3 N 0.3561(2) 0.48396(19) 1.08890(15)
H11 H 0.3779 0.4978 1.0530
N4 N 0.3162(2) 0.3059(2) 0.97745(14)
H12 H 0.2578 0.3106 0.9721
C1 C 0.0772(3) -0.0095(2) 0.6757(2)
H17 H 0.0932 -0.0538 0.6872
C2 C 0.0046(3) -0.0387(3) 0.6093(2)
H18 H -0.0267 -0.1024 0.5756
C3 C -0.0226(3) 0.0240(3) 0.5915(2)
H19 H -0.0748 0.0017 0.5471
C4 C 0.0264(3) 0.1202(3) 0.6387(2)
H20 H 0.0100 0.1629 0.6247
C5 C 0.1518(3) 0.2524(2) 0.76001(18)
C6 C 0.2295(3) 0.2821(2) 0.82468(18)
C7 C 0.2570(3) 0.2164(2) 0.84319(17)
C8 C 0.2067(3) 0.1222(3) 0.7953(2)
H21 H 0.2242 0.0791 0.8077
C9 C 0.1284(3) 0.0882(2) 0.72723(19)
C10 C 0.1025(3) 0.1546(2) 0.70948(18)
C11 C -0.0578(3) 0.2453(3) 0.7670(2)
H22 H -0.0406 0.2013 0.7780
C12 C -0.1554(3) 0.2405(3) 0.7698(2)
H23 H -0.2040 0.1933 0.7825
C13 C -0.1833(3) 0.3061(4) 0.7536(3)
H24 H -0.2504 0.3019 0.7549
C14 C -0.1119(3) 0.3752(3) 0.7361(2)
H25 H -0.1307 0.4188 0.7260
C15 C 0.0672(3) 0.4558(3) 0.71543(19)
H26 H 0.0502 0.5008 0.7061
C16 C 0.1646(3) 0.4625(3) 0.71174(18)
C17 C 0.1914(3) 0.3941(3) 0.72713(18)
C18 C 0.1209(3) 0.3218(2) 0.74447(18)
C19 C 0.0172(3) 0.3155(3) 0.74787(18)
C20 C -0.0102(3) 0.3834(3) 0.73286(19)
C21 C 0.2430(3) 0.5353(3) 0.6890(2)
H27 H 0.2395 0.5043 0.6376
H28 H 0.2227 0.5853 0.6921
C22 C 0.4378(3) 0.6416(3) 0.7109(2)
H29 H 0.4152 0.6861 0.7001
C23 C 0.5463(3) 0.7013(3) 0.7730(2)
H30 H 0.5704 0.6562 0.7806
C24 C 0.6212(3) 0.7926(4) 0.9084(2)
H31 H 0.6829 0.8416 0.9021
H32 H 0.6397 0.7437 0.9129
C25 C 0.7057(3) 1.0749(3) 1.1387(2)
H33 H 0.7622 1.1141 1.1251
C26 C 0.6866(3) 1.1127(3) 1.2031(2)
H34 H 0.7305 1.1776 1.2337
C27 C 0.6021(3) 1.0561(3) 1.2241(2)
H35 H 0.5904 1.0830 1.2690
C28 C 0.5352(3) 0.9600(2) 1.17899(19)
H36 H 0.4779 0.9232 1.1934
C29 C 0.4851(3) 0.8169(3) 1.06417(19)
C30 C 0.5077(3) 0.7802(3) 0.99901(19)
C31 C 0.5972(3) 0.8374(3) 0.9782(2)
C32 C 0.6592(3) 0.9333(3) 1.0242(2)
H37 H 0.7159 0.9721 1.0105
C33 C 0.6402(3) 0.9749(3) 1.0909(2)
C34 C 0.5524(3) 0.9168(2) 1.11153(18)
C35 C 0.2897(3) 0.8416(3) 1.0687(3)
H38 H 0.3459 0.8843 1.0572
C36 C 0.1994(4) 0.8520(3) 1.0707(3)
H39 H 0.1950 0.9018 1.0603
C37 C 0.1147(4) 0.7904(3) 1.0879(3)
H40 H 0.0539 0.7987 1.0891
C38 C 0.1205(3) 0.7178(3) 1.1030(2)
H41 H 0.0629 0.6763 1.1143
C39 C 0.2181(3) 0.6271(2) 1.11663(19)
H42 H 0.1599 0.5841 1.1265
C40 C 0.3068(3) 0.6145(2) 1.11687(17)
C41 C 0.3946(3) 0.6777(2) 1.09975(17)
C42 C 0.3925(3) 0.7530(2) 1.08324(17)
C43 C 0.2989(3) 0.7659(2) 1.0842(2)
C44 C 0.2111(3) 0.7036(2) 1.10184(19)
C45 C 0.3136(3) 0.5358(3) 1.13855(19)
H43 H 0.3599 0.5645 1.1891
H44 H 0.2422 0.4907 1.1372
C46 C 0.3568(3) 0.4049(2) 1.10801(18)
H45 H 0.2823 0.3608 1.1037
C47 C 0.3963(3) 0.3483(2) 1.04971(18)
H46 H 0.4653 0.3945 1.0473
C48 C 0.3439(3) 0.2546(3) 0.91497(19)
H47 H 0.3499 0.2015 0.9227
H48 H 0.4130 0.2981 0.9119
C49 C 0.4470(3) 0.5807(2) 0.64042(19)
C50 C 0.4711(3) 0.5065(3) 0.6384(2)
H49 H 0.4847 0.4964 0.6818
C51 C 0.4752(3) 0.4478(3) 0.5734(2)
H50 H 0.4911 0.3985 0.5729
C52 C 0.4555(3) 0.4629(3) 0.5089(2)
H51 H 0.4580 0.4231 0.4650
C53 C 0.4325(3) 0.5350(3) 0.50886(19)
H52 H 0.4199 0.5447 0.4652
C54 C 0.4281(3) 0.5937(3) 0.5741(2)
H53 H 0.4121 0.6428 0.5738
C55 C 0.6323(3) 0.7705(3) 0.74969(19)
C56 C 0.7139(4) 0.7554(4) 0.7310(3)
H54 H 0.7184 0.7013 0.7321
C57 C 0.7923(5) 0.8212(5) 0.7098(3)
H55 H 0.8471 0.8091 0.6961
C58 C 0.7892(4) 0.9018(5) 0.7090(3)
H56 H 0.8426 0.9460 0.6965
C59 C 0.7080(4) 0.9161(4) 0.7264(3)
H57 H 0.7038 0.9705 0.7256
C60 C 0.6292(4) 0.8501(4) 0.7458(3)
H58 H 0.5724 0.8610 0.7566
C61 C 0.4141(3) 0.2739(2) 1.07286(19)
C62 C 0.3303(4) 0.1939(3) 1.0701(3)
H59 H 0.2600 0.1830 1.0540
C63 C 0.3491(5) 0.1262(3) 1.0917(3)
H60 H 0.2908 0.0713 1.0899
C64 C 0.4494(6) 0.1404(4) 1.1145(3)
H61 H 0.4608 0.0948 1.1274
C65 C 0.5348(5) 0.2218(4) 1.1188(3)
H62 H 0.6048 0.2327 1.1359
C66 C 0.5176(4) 0.2890(3) 1.0975(3)
H63 H 0.5763 0.3442 1.0999
C67 C 0.4245(4) 0.4410(3) 1.18704(19)
C68 C 0.5310(4) 0.5082(3) 1.2118(2)
H64 H 0.5640 0.5346 1.1801
C69 C 0.5919(5) 0.5379(3) 1.2866(3)
H65 H 0.6650 0.5827 1.3038
C70 C 0.5407(7) 0.4992(4) 1.3327(3)
H66 H 0.5792 0.5189 1.3817
C71 C 0.4374(7) 0.4345(4) 1.3082(3)
H67 H 0.4048 0.4078 1.3398
C72 C 0.3778(5) 0.4060(3) 1.2375(2)
H68 H 0.3045 0.3623 1.2225
O5 O 0.1415(4) 0.4080(3) 0.9780(2)
C73 C 0.1125(5) 0.4560(4) 0.9532(3)
C74 C 0.0055(6) 0.4484(5) 0.9515(4)
H69 H -0.0320 0.4027 0.9719
H70 H -0.0351 0.4272 0.9010
H71 H 0.0133 0.5103 0.9804
C75 C 0.1866(5) 0.5265(3) 0.9236(3)
H72 H 0.2605 0.5441 0.9449
H73 H 0.1777 0.5832 0.9369
H74 H 0.1680 0.4961 0.8703
O6 O 0.4423(8) 0.8855(7) 0.8335(5)
C76 C 0.3634(10) 0.8713(9) 0.8703(7)
C77 C 0.2896(16) 0.7931(14) 0.8783(11)
H75 H 0.3051 0.7405 0.8604
H76 H 0.2185 0.7750 0.8502
H77 H 0.2929 0.8085 0.9300
C78 C 0.3866(16) 0.9506(14) 0.9179(11)
H78 H 0.4633 0.9918 0.9327
H79 H 0.3642 0.9421 0.9605
H80 H 0.3503 0.9796 0.8976
O7 O 0.1863(7) 0.8629(8) 0.7687(5)
C79 C 0.1326(8) 0.7910(7) 0.7100(6)
C80 C 0.1839(8) 0.7511(7) 0.6654(7)
H81 H 0.1952 0.7773 0.6279
H82 H 0.1395 0.6824 0.6419
H83 H 0.2522 0.7662 0.6955
C81 C 0.0207(9) 0.7505(8) 0.6871(9)
H84 H -0.0110 0.6985 0.7031
H85 H -0.0041 0.7263 0.6338
H86 H -0.0001 0.7987 0.7085
O8 O 0.84591(19) 0.77326(16) 0.43327(13)
H5 H 0.7925 0.7803 0.4238
O9 O 1.08782(19) 0.82445(16) 0.52871(12)
H6 H 1.1251 0.8801 0.5333
O10 O 1.0715(2) 1.05810(17) 0.41526(17)
H7 H 1.1301 1.0644 0.4347
O11 O 0.8253(2) 1.03200(17) 0.37816(14)
H8 H 0.7786 0.9858 0.3829
N5 N 1.2366(2) 0.96124(19) 0.49912(16)
H13 H 1.1743 0.9579 0.4981
N6 N 1.2661(2) 1.1521(2) 0.51538(16)
H14 H 1.2596 1.1243 0.4691
N7 N 0.6690(2) 0.85415(19) 0.33913(15)
H15 H 0.7304 0.8761 0.3704
N8 N 0.6437(2) 0.74883(19) 0.43318(16)
H16 H 0.6536 0.7167 0.3939
C82 C 0.7686(4) 0.5193(3) 0.5762(3)
H87 H 0.7148 0.5083 0.6001
C83 C 0.8299(5) 0.4737(4) 0.5773(3)
H88 H 0.8170 0.4315 0.6014
C84 C 0.9115(5) 0.4903(4) 0.5424(3)
H89 H 0.9539 0.4601 0.5443
C85 C 0.9298(4) 0.5501(3) 0.5057(3)
H90 H 0.9834 0.5592 0.4816
C86 C 0.8873(3) 0.6640(2) 0.46622(18)
C87 C 0.8261(2) 0.7102(2) 0.46677(16)
C88 C 0.7442(3) 0.6963(2) 0.50462(17)
C89 C 0.7263(3) 0.6345(3) 0.5395(2)
H91 H 0.6736 0.6254 0.5645
C90 C 0.7861(3) 0.5830(3) 0.5390(2)
C91 C 0.8684(3) 0.5989(2) 0.5037(2)
C92 C 0.8528(3) 0.5257(3) 0.3164(2)
H92 H 0.7995 0.5100 0.3404
C93 C 0.8350(4) 0.4632(3) 0.2459(2)
H93 H 0.7698 0.4065 0.2222
C94 C 0.9155(5) 0.4854(3) 0.2098(2)
H94 H 0.9040 0.4428 0.1623
C95 C 1.0094(5) 0.5677(3) 0.2434(2)
H95 H 1.0622 0.5805 0.2186
C96 C 1.1267(3) 0.7232(3) 0.3498(2)
H96 H 1.1781 0.7379 0.3241
C97 C 1.1482(3) 0.7883(2) 0.42010(19)
C98 C 1.0672(3) 0.7637(2) 0.45859(17)
C99 C 0.9710(3) 0.6805(2) 0.42585(18)
C100 C 0.9501(3) 0.6133(2) 0.35316(18)
C101 C 1.0305(3) 0.6354(3) 0.3150(2)
C102 C 1.2525(3) 0.8790(3) 0.4579(2)
H97 H 1.2885 0.8935 0.4211
H98 H 1.2988 0.8700 0.4923
C103 C 1.3401(3) 1.0498(2) 0.5422(2)
H99 H 1.3849 1.0637 0.5089
C104 C 1.3174(2) 1.1341(2) 0.57537(18)
H100 H 1.2655 1.1150 0.6033
C105 C 1.2275(3) 1.2220(3) 0.5425(2)
H101 H 1.2891 1.2846 0.5727
H102 H 1.1828 1.2028 0.5741
C106 C 1.1177(3) 1.4167(3) 0.4334(3)
H103 H 1.1692 1.4732 0.4729
C107 C 1.0524(4) 1.4218(3) 0.3795(4)
H104 H 1.0589 1.4812 0.3826
C108 C 0.9751(4) 1.3366(4) 0.3190(4)
H105 H 0.9304 1.3401 0.2824
C109 C 0.9654(4) 1.2506(3) 0.3139(3)
H106 H 0.9140 1.1955 0.2734
C110 C 1.0191(3) 1.1499(3) 0.3628(2)
C111 C 1.0828(3) 1.1453(3) 0.4194(2)
C112 C 1.1633(3) 1.2309(2) 0.4809(2)
C113 C 1.1748(3) 1.3173(3) 0.4838(3)
H107 H 1.2288 1.3729 0.5227
C114 C 1.1085(3) 1.3265(3) 0.4304(3)
C115 C 1.0302(3) 1.2406(3) 0.3675(3)
C116 C 1.0510(4) 1.0844(5) 0.2147(4)
H108 H 1.1045 1.1421 0.2520
C117 C 1.0660(7) 1.0544(7) 0.1466(6)
H109 H 1.1284 1.0936 0.1379
C118 C 0.9924(8) 0.9682(8) 0.0900(5)
H110 H 1.0066 0.9480 0.0447
C119 C 0.8951(5) 0.9108(5) 0.1012(3)
H111 H 0.8439 0.8530 0.0629
C120 C 0.7809(3) 0.8856(3) 0.1849(2)
H112 H 0.7290 0.8277 0.1470
C121 C 0.7626(3) 0.9132(2) 0.25180(19)
C122 C 0.8422(3) 1.0023(2) 0.3108(2)
C123 C 0.9379(3) 1.0590(3) 0.3004(2)
C124 C 0.9548(3) 1.0291(3) 0.2299(3)
C125 C 0.8747(3) 0.9409(3) 0.1710(2)
C126 C 0.6573(3) 0.8558(3) 0.26478(19)
H113 H 0.6098 0.8828 0.2571
H114 H 0.6232 0.7901 0.2281
C127 C 0.5657(3) 0.8115(2) 0.35482(18)
H115 H 0.5211 0.7459 0.3168
C128 C 0.5845(3) 0.8050(2) 0.4319(2)
H116 H 0.6317 0.8708 0.4688
C129 C 0.6834(3) 0.7532(3) 0.50678(19)
H117 H 0.6228 0.7276 0.5261
H118 H 0.7307 0.8199 0.5402
C130 C 1.4004(3) 1.0377(2) 0.6045(2)
C131 C 1.3511(3) 1.0108(3) 0.6560(2)
H119 H 1.2797 0.9977 0.6519
C132 C 1.4105(4) 1.0034(4) 0.7150(3)
H120 H 1.3782 0.9847 0.7498
C133 C 1.5142(4) 1.0236(4) 0.7207(3)
H121 H 1.5528 1.0189 0.7599
C134 C 1.5635(4) 1.0505(3) 0.6707(3)
H122 H 1.6355 1.0649 0.6764
C135 C 1.5075(3) 1.0568(3) 0.6110(2)
H123 H 1.5407 1.0734 0.5759
C136 C 1.4181(3) 1.2234(2) 0.6295(2)
C137 C 1.4153(4) 1.2714(3) 0.7000(2)
H124 H 1.3518 1.2479 0.7135
C138 C 1.5055(5) 1.3535(4) 0.7502(3)
H125 H 1.5028 1.3852 0.7973
C139 C 1.6006(5) 1.3889(4) 0.7304(4)
H126 H 1.6612 1.4449 0.7640
C140 C 1.6053(4) 1.3413(4) 0.6614(3)
H127 H 1.6695 1.3631 0.6485
C141 C 1.5126(3) 1.2603(3) 0.6114(2)
H128 H 1.5147 1.2299 0.5638
C142 C 0.5067(3) 0.8695(2) 0.35109(18)
C143 C 0.5526(3) 0.9655(2) 0.3987(2)
H129 H 0.6181 0.9938 0.4350
C144 C 0.5007(3) 1.0203(3) 0.3926(2)
H130 H 0.5314 1.0846 0.4249
C145 C 0.4033(3) 0.9782(3) 0.3380(2)
H131 H 0.3690 1.0143 0.3334
C146 C 0.3574(3) 0.8820(3) 0.2906(2)
H132 H 0.2926 0.8536 0.2537
C147 C 0.4085(3) 0.8280(2) 0.29823(18)
H133 H 0.3761 0.7630 0.2673
C148 C 0.4831(3) 0.7666(2) 0.4533(2)
C149 C 0.4767(3) 0.8158(3) 0.5224(3)
H134 H 0.5367 0.8732 0.5550
C150 C 0.3832(5) 0.7814(4) 0.5437(4)
H135 H 0.3806 0.8135 0.5907
C151 C 0.2923(5) 0.6964(6) 0.4922(6)
H136 H 0.2271 0.6744 0.5038
C152 C 0.2988(4) 0.6471(5) 0.4268(5)
H137 H 0.2391 0.5889 0.3953
C153 C 0.3926(3) 0.6800(3) 0.4039(3)
H138 H 0.3948 0.6456 0.3575
O12 O 0.7574(7) 0.7211(5) 0.2644(4)
C154 C 0.8467(8) 0.7364(7) 0.2519(6)
C155 C 0.9359(6) 0.8197(5) 0.3019(4)
H139 H 0.9133 0.8642 0.3285
H140 H 0.9835 0.8483 0.2755
H141 H 0.9732 0.8048 0.3364
C156 C 0.9291(16) 0.7534(17) 0.1935(13)
H142 H 0.9037 0.7757 0.1592
H143 H 0.9271 0.6934 0.1664
H144 H 1.0019 0.8004 0.2228
O13 O 0.7126(5) 0.2056(4) 0.5236(3)
C157 C 0.7889(6) 0.2179(4) 0.5025(3)
C158 C 0.8975(7) 0.2328(6) 0.5330(4)
H145 H 0.9492 0.2994 0.5479
H146 H 0.9152 0.1932 0.4956
H147 H 0.8990 0.2155 0.5753
C159 C 0.7873(7) 0.2304(5) 0.4279(4)
H148 H 0.7807 0.1737 0.3906
H149 H 0.8532 0.2854 0.4338
H150 H 0.7270 0.2400 0.4128
O14 O 0.4337(4) 0.2184(3) 0.4246(2)
C160 C 0.4448(5) 0.2275(4) 0.3691(3)
C161 C 0.3550(12) 0.1787(8) 0.3008(6)
H151 H 0.2877 0.1541 0.3125
H152 H 0.3602 0.1264 0.2665
H153 H 0.3583 0.2238 0.2786
C162 C 0.5425(10) 0.2721(8) 0.3506(7)
H154 H 0.6031 0.3021 0.3940
H155 H 0.5411 0.3200 0.3332
H156 H 0.5490 0.2241 0.3122
loop_
_geom_bond_atom_site_label_1
_geom_bond_atom_site_label_2
_geom_bond_site_symmetry_1
_geom_bond_site_symmetry_2
O1 H1 1_555 1_555
O2 H2 1_555 1_555
O3 H3 1_555 1_555
O4 H4 1_555 1_555
O5 C73 1_555 1_555
O6 C76 1_555 1_555
O7 C79 1_555 1_555
O8 H5 1_555 1_555
O9 H6 1_555 1_555
O10 H7 1_555 1_555
O11 H8 1_555 1_555
O12 C154 1_555 1_555
O13 C157 1_555 1_555
O14 C160 1_555 1_555
N1 H9 1_555 1_555
N2 H10 1_555 1_555
N3 H11 1_555 1_555
N4 H12 1_555 1_555
N5 H13 1_555 1_555
N6 H14 1_555 1_555
N7 H15 1_555 1_555
N8 H16 1_555 1_555
C1 H17 1_555 1_555
C2 C1 1_555 1_555
H18 C2 1_555 1_555
C3 C2 1_555 1_555
H19 C3 1_555 1_555
C4 C3 1_555 1_555
H20 C4 1_555 1_555
C5 C6 1_555 1_555
C6 O1 1_555 1_555
C7 C6 1_555 1_555
C8 C7 1_555 1_555
H21 C8 1_555 1_555
C9 C1 1_555 1_555
C10 C4 1_555 1_555
C11 H22 1_555 1_555
C12 C11 1_555 1_555
H23 C12 1_555 1_555
C13 C12 1_555 1_555
H24 C13 1_555 1_555
C14 C13 1_555 1_555
H25 C14 1_555 1_555
C15 H26 1_555 1_555
C16 C15 1_555 1_555
C17 O2 1_555 1_555
C18 C5 1_555 1_555
C19 C11 1_555 1_555
C20 C14 1_555 1_555
C21 N1 1_555 1_555
H27 C21 1_555 1_555
H28 C21 1_555 1_555
C22 N1 1_555 1_555
H29 C22 1_555 1_555
C23 N2 1_555 1_555
H30 C23 1_555 1_555
C24 N2 1_555 1_555
H31 C24 1_555 1_555
H32 C24 1_555 1_555
C25 H33 1_555 1_555
C26 C25 1_555 1_555
H34 C26 1_555 1_555
C27 C26 1_555 1_555
H35 C27 1_555 1_555
C28 C27 1_555 1_555
H36 C28 1_555 1_555
C29 C30 1_555 1_555
C30 O3 1_555 1_555
C31 C24 1_555 1_555
C32 C31 1_555 1_555
H37 C32 1_555 1_555
C33 C25 1_555 1_555
C34 C28 1_555 1_555
C35 H38 1_555 1_555
C36 C35 1_555 1_555
H39 C36 1_555 1_555
C37 C36 1_555 1_555
H40 C37 1_555 1_555
C38 C37 1_555 1_555
H41 C38 1_555 1_555
C39 H42 1_555 1_555
C40 C39 1_555 1_555
C41 O4 1_555 1_555
C42 C29 1_555 1_555
C43 C35 1_555 1_555
C44 C38 1_555 1_555
C45 N3 1_555 1_555
H43 C45 1_555 1_555
H44 C45 1_555 1_555
C46 N3 1_555 1_555
H45 C46 1_555 1_555
C47 N4 1_555 1_555
H46 C47 1_555 1_555
C48 N4 1_555 1_555
H47 C48 1_555 1_555
H48 C48 1_555 1_555
C49 C22 1_555 1_555
C50 C49 1_555 1_555
H49 C50 1_555 1_555
C51 C50 1_555 1_555
H50 C51 1_555 1_555
C52 C51 1_555 1_555
H51 C52 1_555 1_555
C53 C52 1_555 1_555
H52 C53 1_555 1_555
C54 C49 1_555 1_555
H53 C54 1_555 1_555
C55 C23 1_555 1_555
C56 C55 1_555 1_555
H54 C56 1_555 1_555
C57 C56 1_555 1_555
H55 C57 1_555 1_555
C58 C57 1_555 1_555
H56 C58 1_555 1_555
C59 C58 1_555 1_555
H57 C59 1_555 1_555
C60 C55 1_555 1_555
H58 C60 1_555 1_555
C61 C47 1_555 1_555
C62 C61 1_555 1_555
H59 C62 1_555 1_555
C63 C62 1_555 1_555
H60 C63 1_555 1_555
C64 C63 1_555 1_555
H61 C64 1_555 1_555
C65 C64 1_555 1_555
H62 C65 1_555 1_555
C66 C61 1_555 1_555
H63 C66 1_555 1_555
C67 C46 1_555 1_555
C68 C67 1_555 1_555
H64 C68 1_555 1_555
C69 C68 1_555 1_555
H65 C69 1_555 1_555
C70 C69 1_555 1_555
H66 C70 1_555 1_555
C71 C70 1_555 1_555
H67 C71 1_555 1_555
C72 C67 1_555 1_555
H68 C72 1_555 1_555
C73 C74 1_555 1_555
C74 H69 1_555 1_555
H70 C74 1_555 1_555
H71 C74 1_555 1_555
C75 C73 1_555 1_555
H72 C75 1_555 1_555
H73 C75 1_555 1_555
H74 C75 1_555 1_555
C76 C77 1_555 1_555
C77 H75 1_555 1_555
H76 C77 1_555 1_555
H77 C77 1_555 1_555
C78 C76 1_555 1_555
H78 C78 1_555 1_555
H79 C78 1_555 1_555
H80 C78 1_555 1_555
C79 C80 1_555 1_555
C80 H81 1_555 1_555
H82 C80 1_555 1_555
H83 C80 1_555 1_555
C81 C79 1_555 1_555
H84 C81 1_555 1_555
H85 C81 1_555 1_555
H86 C81 1_555 1_555
C82 H87 1_555 1_555
C83 C82 1_555 1_555
H88 C83 1_555 1_555
C84 C83 1_555 1_555
H89 C84 1_555 1_555
C85 C84 1_555 1_555
H90 C85 1_555 1_555
C86 C87 1_555 1_555
C87 O8 1_555 1_555
C88 C87 1_555 1_555
C89 C88 1_555 1_555
H91 C89 1_555 1_555
C90 C82 1_555 1_555
C91 C85 1_555 1_555
C92 H92 1_555 1_555
C93 C92 1_555 1_555
H93 C93 1_555 1_555
C94 C93 1_555 1_555
H94 C94 1_555 1_555
C95 C94 1_555 1_555
H95 C95 1_555 1_555
C96 H96 1_555 1_555
C97 C96 1_555 1_555
C98 O9 1_555 1_555
C99 C86 1_555 1_555
C100 C92 1_555 1_555
C101 C95 1_555 1_555
C102 N5 1_555 1_555
H97 C102 1_555 1_555
H98 C102 1_555 1_555
C103 N5 1_555 1_555
H99 C103 1_555 1_555
C104 N6 1_555 1_555
H100 C104 1_555 1_555
C105 N6 1_555 1_555
H101 C105 1_555 1_555
H102 C105 1_555 1_555
C106 H103 1_555 1_555
C107 C106 1_555 1_555
H104 C107 1_555 1_555
C108 C107 1_555 1_555
H105 C108 1_555 1_555
C109 C108 1_555 1_555
H106 C109 1_555 1_555
C110 C111 1_555 1_555
C111 O10 1_555 1_555
C112 C105 1_555 1_555
C113 C112 1_555 1_555
H107 C113 1_555 1_555
C114 C106 1_555 1_555
C115 C109 1_555 1_555
C116 H108 1_555 1_555
C117 C116 1_555 1_555
H109 C117 1_555 1_555
C118 C117 1_555 1_555
H110 C118 1_555 1_555
C119 C118 1_555 1_555
H111 C119 1_555 1_555
C120 H112 1_555 1_555
C121 C120 1_555 1_555
C122 O11 1_555 1_555
C123 C110 1_555 1_555
C124 C116 1_555 1_555
C125 C119 1_555 1_555
C126 N7 1_555 1_555
H113 C126 1_555 1_555
H114 C126 1_555 1_555
C127 N7 1_555 1_555
H115 C127 1_555 1_555
C128 N8 1_555 1_555
H116 C128 1_555 1_555
C129 N8 1_555 1_555
H117 C129 1_555 1_555
H118 C129 1_555 1_555
C130 C103 1_555 1_555
C131 C130 1_555 1_555
H119 C131 1_555 1_555
C132 C131 1_555 1_555
H120 C132 1_555 1_555
C133 C132 1_555 1_555
H121 C133 1_555 1_555
C134 C133 1_555 1_555
H122 C134 1_555 1_555
C135 C130 1_555 1_555
H123 C135 1_555 1_555
C136 C104 1_555 1_555
C137 C136 1_555 1_555
H124 C137 1_555 1_555
C138 C137 1_555 1_555
H125 C138 1_555 1_555
C139 C138 1_555 1_555
H126 C139 1_555 1_555
C140 C139 1_555 1_555
H127 C140 1_555 1_555
C141 C136 1_555 1_555
H128 C141 1_555 1_555
C142 C127 1_555 1_555
C143 C142 1_555 1_555
H129 C143 1_555 1_555
C144 C143 1_555 1_555
H130 C144 1_555 1_555
C145 C144 1_555 1_555
H131 C145 1_555 1_555
C146 C145 1_555 1_555
H132 C146 1_555 1_555
C147 C142 1_555 1_555
H133 C147 1_555 1_555
C148 C128 1_555 1_555
C149 C148 1_555 1_555
H134 C149 1_555 1_555
C150 C149 1_555 1_555
H135 C150 1_555 1_555
C151 C150 1_555 1_555
H136 C151 1_555 1_555
C152 C151 1_555 1_555
H137 C152 1_555 1_555
C153 C148 1_555 1_555
H138 C153 1_555 1_555
C154 C155 1_555 1_555
C155 H139 1_555 1_555
H140 C155 1_555 1_555
H141 C155 1_555 1_555
C156 C154 1_555 1_555
H142 C156 1_555 1_555
H143 C156 1_555 1_555
H144 C156 1_555 1_555
C157 C158 1_555 1_555
C158 H145 1_555 1_555
H146 C158 1_555 1_555
H147 C158 1_555 1_555
C159 C157 1_555 1_555
H148 C159 1_555 1_555
H149 C159 1_555 1_555
H150 C159 1_555 1_555
C160 C161 1_555 1_555
C161 H151 1_555 1_555
H152 C161 1_555 1_555
H153 C161 1_555 1_555
C162 C160 1_555 1_555
H154 C162 1_555 1_555
H155 C162 1_555 1_555
H156 C162 1_555 1_555
C5 C10 1_555 1_555
C7 C48 1_555 1_555
C8 C9 1_555 1_555
C9 C10 1_555 1_555
C15 C20 1_555 1_555
C16 C21 1_555 1_555
C16 C17 1_555 1_555
C17 C18 1_555 1_555
C18 C19 1_555 1_555
C19 C20 1_555 1_555
C22 C23 1_555 1_555
C29 C34 1_555 1_555
C30 C31 1_555 1_555
C32 C33 1_555 1_555
C33 C34 1_555 1_555
C39 C44 1_555 1_555
C40 C45 1_555 1_555
C40 C41 1_555 1_555
C41 C42 1_555 1_555
C42 C43 1_555 1_555
C43 C44 1_555 1_555
C46 C47 1_555 1_555
C53 C54 1_555 1_555
C59 C60 1_555 1_555
C65 C66 1_555 1_555
C71 C72 1_555 1_555
C86 C91 1_555 1_555
C88 C129 1_555 1_555
C89 C90 1_555 1_555
C90 C91 1_555 1_555
C96 C101 1_555 1_555
C97 C102 1_555 1_555
C97 C98 1_555 1_555
C98 C99 1_555 1_555
C99 C100 1_555 1_555
C100 C101 1_555 1_555
C103 C104 1_555 1_555
C110 C115 1_555 1_555
C111 C112 1_555 1_555
C113 C114 1_555 1_555
C114 C115 1_555 1_555
C120 C125 1_555 1_555
C121 C126 1_555 1_555
C121 C122 1_555 1_555
C122 C123 1_555 1_555
C123 C124 1_555 1_555
C124 C125 1_555 1_555
C127 C128 1_555 1_555
C134 C135 1_555 1_555
C140 C141 1_555 1_555
C146 C147 1_555 1_555
C152 C153 1_555 1_555

#END
