
#######################################################################
#
#                 Cambridge Crystallographic Data Centre
#                                CCDC 
#
#######################################################################
#
# If this CIF has been generated from an entry in the Cambridge 
# Structural Database, then it will include bibliographic, chemical, 
# crystal, experimental, refinement or atomic coordinate data resulting 
# from the CCDC's data processing and validation procedures.
#
#######################################################################

data_RADSIB
_chemical_formula_moiety         'C22 H24 F3 N1 O3'
_chemical_name_systematic        
'ethyl 6,6,6-trifluoro-5-hydroxy-5-phenyl-3-((1-phenylethyl)amino)hex-2-enoate'
_symmetry_cell_setting           triclinic
_symmetry_space_group_name_H-M   'P 1'
_symmetry_Int_Tables_number      1
_space_group_name_Hall           'P 1'
loop_
_symmetry_equiv_pos_site_id
_symmetry_equiv_pos_as_xyz
1 x,y,z
_cell_length_a                   5.59536(13)
_cell_length_b                   8.30671(19)
_cell_length_c                   11.1373(3)
_cell_angle_alpha                93.284(7)
_cell_angle_beta                 99.172(7)
_cell_angle_gamma                91.394(6)
_cell_volume                     509.899
_exptl_crystal_colour            colorless
_exptl_crystal_description       block
_cell_formula_units_Z            1
loop_
_atom_site_label
_atom_site_type_symbol
_atom_site_fract_x
_atom_site_fract_y
_atom_site_fract_z
F1 F 0.4468(3) 0.14758(16) 0.25790(12)
F2 F 0.8248(2) 0.13026(14) 0.33101(12)
F3 F 0.5536(3) 0.04446(14) 0.43091(12)
O1 O 0.3655(2) 0.33369(18) 0.46014(13)
H1 H 0.3704 0.3062 0.5319
O2 O 0.4222(3) 0.25695(15) 0.68919(13)
O3 O 0.4431(3) 0.42019(15) 0.85764(13)
N1 N 0.9358(3) 0.61177(19) 0.59324(15)
H2 H 1.019(5) 0.589(3) 0.533(2)
C1 C 0.6076(4) 0.1627(2) 0.36123(19)
C2 C 0.5990(3) 0.3282(2) 0.42875(18)
C3 C 0.7988(3) 0.3361(2) 0.54326(16)
H3 H 0.7767 0.2426 0.5921
H4 H 0.9597 0.3293 0.5174
C4 C 0.6311(3) 0.4658(2) 0.34695(16)
C5 C 0.8267(4) 0.4759(2) 0.28330(18)
H5 H 0.9409 0.3928 0.2873
C6 C 0.8544(4) 0.6068(3) 0.21450(18)
H6 H 0.9869 0.6122 0.1710
C7 C 0.6907(4) 0.7301(2) 0.20840(18)
H7 H 0.7116 0.8201 0.1617
C8 C 0.4974(4) 0.7206(2) 0.27082(18)
H8 H 0.3837 0.8040 0.2665
C9 C 0.4682(3) 0.5900(2) 0.33981(17)
H9 H 0.3349 0.5852 0.3828
C10 C 0.7905(3) 0.4904(2) 0.62113(17)
C11 C 0.6558(3) 0.5074(2) 0.71228(18)
H10 H 0.6639 0.6095 0.7561
C12 C 0.5013(4) 0.3826(2) 0.74765(18)
C13 C 0.2718(4) 0.3110(2) 0.8995(2)
H11 H 0.3450 0.2052 0.9143
H12 H 0.1245 0.2941 0.8373
C14 C 0.2096(6) 0.3860(3) 1.0140(3)
H13 H 0.3568 0.4022 1.0747
H14 H 0.0940 0.3150 1.0450
H15 H 0.1367 0.4903 0.9980
C15 C 0.9063(3) 0.7844(2) 0.62003(17)
H16 H 0.7350 0.8105 0.5886
C16 C 1.0721(4) 0.8763(2) 0.54953(17)
H17 H 1.0262 0.8477 0.4622
H18 H 1.2404 0.8477 0.5761
H19 H 1.0563 0.9926 0.5651
C17 C 0.9601(3) 0.8356(2) 0.75479(17)
C18 C 1.1618(4) 0.7817(2) 0.82888(18)
H20 H 1.2662 0.7091 0.7956
C19 C 1.2119(4) 0.8329(3) 0.9512(2)
H21 H 1.3503 0.7952 1.0012
C20 C 1.0618(4) 0.9387(3) 1.00084(19)
H22 H 1.0964 0.9735 1.0847
C21 C 0.8619(4) 0.9933(3) 0.9278(2)
H23 H 0.7581 1.0658 0.9617
C22 C 0.8107(4) 0.9429(2) 0.80480(19)
H24 H 0.6732 0.9820 0.7549
loop_
_geom_bond_atom_site_label_1
_geom_bond_atom_site_label_2
_geom_bond_site_symmetry_1
_geom_bond_site_symmetry_2
F1 C1 1_555 1_555
F2 C1 1_555 1_555
F3 C1 1_555 1_555
O1 H1 1_555 1_555
O2 C12 1_555 1_555
O3 C12 1_555 1_555
N1 H2 1_555 1_555
C1 C2 1_555 1_555
C2 O1 1_555 1_555
C3 C2 1_555 1_555
H3 C3 1_555 1_555
H4 C3 1_555 1_555
C4 C2 1_555 1_555
C5 C4 1_555 1_555
H5 C5 1_555 1_555
C6 C5 1_555 1_555
H6 C6 1_555 1_555
C7 C6 1_555 1_555
H7 C7 1_555 1_555
C8 C7 1_555 1_555
H8 C8 1_555 1_555
C9 C4 1_555 1_555
H9 C9 1_555 1_555
C10 N1 1_555 1_555
C11 C10 1_555 1_555
H10 C11 1_555 1_555
C12 C11 1_555 1_555
C13 O3 1_555 1_555
H11 C13 1_555 1_555
H12 C13 1_555 1_555
C14 C13 1_555 1_555
H13 C14 1_555 1_555
H14 C14 1_555 1_555
H15 C14 1_555 1_555
C15 N1 1_555 1_555
H16 C15 1_555 1_555
C16 C15 1_555 1_555
H17 C16 1_555 1_555
H18 C16 1_555 1_555
H19 C16 1_555 1_555
C17 C15 1_555 1_555
C18 C17 1_555 1_555
H20 C18 1_555 1_555
C19 C18 1_555 1_555
H21 C19 1_555 1_555
C20 C19 1_555 1_555
H22 C20 1_555 1_555
C21 C20 1_555 1_555
H23 C21 1_555 1_555
C22 C17 1_555 1_555
H24 C22 1_555 1_555
C3 C10 1_555 1_555
C8 C9 1_555 1_555
C21 C22 1_555 1_555

#END
