
#######################################################################
#
#                 Cambridge Crystallographic Data Centre
#                                CCDC 
#
#######################################################################
#
# If this CIF has been generated from an entry in the Cambridge 
# Structural Database, then it will include bibliographic, chemical, 
# crystal, experimental, refinement or atomic coordinate data resulting 
# from the CCDC's data processing and validation procedures.
#
#######################################################################

data_RADTIA
_chemical_formula_moiety         'C18 H8 F6 N2'
_chemical_name_systematic        bis(3-Trifluoromethylphenyl)fumaronitrile
_symmetry_cell_setting           monoclinic
_symmetry_space_group_name_H-M   'P 21/n'
_symmetry_Int_Tables_number      14
_space_group_name_Hall           '-P 2yn'
loop_
_symmetry_equiv_pos_site_id
_symmetry_equiv_pos_as_xyz
1 x,y,z
2 1/2+x,1/2-y,1/2+z
3 -x,-y,-z
4 1/2-x,1/2+y,1/2-z
_cell_length_a                   8.0332(10)
_cell_length_b                   11.976(2)
_cell_length_c                   8.7210(13)
_cell_angle_alpha                90
_cell_angle_beta                 115.331(7)
_cell_angle_gamma                90
_cell_volume                     758.339
_exptl_crystal_colour            colorless
_exptl_crystal_description       block
_cell_formula_units_Z            2
_exptl_crystal_recrystallization_method 'diethyl ether/methanol'
_exptl_crystal_preparation       fluorescent
loop_
_atom_site_label
_atom_site_type_symbol
_atom_site_fract_x
_atom_site_fract_y
_atom_site_fract_z
C1 C 0.5282(4) 1.0191(2) 0.4426(4)
C2 C 0.4179(4) 1.0193(2) 0.2542(3)
C3 C 0.3128(4) 0.9265(3) 0.1719(4)
H1 H 0.3087 0.8630 0.2356
C4 C 0.2139(4) 0.9270(3) -0.0041(3)
C5 C 0.2196(4) 1.0202(3) -0.0970(4)
H2 H 0.1518 1.0209 -0.2169
C6 C 0.3239(4) 1.1115(3) -0.0145(4)
H3 H 0.3272 1.1753 -0.0778
C7 C 0.4236(4) 1.1110(3) 0.1599(4)
H4 H 0.4965 1.1739 0.2154
C8 C 0.7103(5) 1.0661(3) 0.4972(4)
C9 C 0.1110(4) 0.8258(3) -0.0904(4)
N1 N 0.8529(4) 1.1039(2) 0.5314(3)
F1 F 0.0425(3) 0.76926(16) 0.0019(2)
F2 F 0.2160(3) 0.75258(16) -0.1248(3)
F3 F -0.0313(3) 0.84791(17) -0.2386(2)
C1B C 0.4718(4) 0.9809(2) 0.5574(4)
C2B C 0.5821(4) 0.9807(2) 0.7458(3)
C3B C 0.6872(4) 1.0735(3) 0.8281(4)
H1B H 0.6913 1.1370 0.7644
C4B C 0.7861(4) 1.0730(3) 1.0041(3)
C5B C 0.7804(4) 0.9798(3) 1.0970(4)
H2B H 0.8482 0.9791 1.2169
C6B C 0.6761(4) 0.8885(3) 1.0145(4)
H3B H 0.6728 0.8247 1.0778
C7B C 0.5764(4) 0.8890(3) 0.8401(4)
H4B H 0.5035 0.8261 0.7846
C9B C 0.8890(4) 1.1742(3) 1.0904(4)
F1B F 0.9575(3) 1.23074(16) 0.9981(2)
F2B F 0.7840(3) 1.24742(16) 1.1248(3)
F3B F 1.0313(3) 1.15209(17) 1.2386(2)
C8B C 0.2897(5) 0.9339(3) 0.5028(4)
N1B N 0.1471(4) 0.8961(2) 0.4686(3)
loop_
_geom_bond_atom_site_label_1
_geom_bond_atom_site_label_2
_geom_bond_site_symmetry_1
_geom_bond_site_symmetry_2
C1 C2 1_555 1_555
C2 C3 1_555 1_555
C3 H1 1_555 1_555
C4 C3 1_555 1_555
C5 C4 1_555 1_555
H2 C5 1_555 1_555
C6 C5 1_555 1_555
H3 C6 1_555 1_555
C7 C2 1_555 1_555
H4 C7 1_555 1_555
C8 C1 1_555 1_555
C9 C4 1_555 1_555
N1 C8 1_555 1_555
F1 C9 1_555 1_555
F2 C9 1_555 1_555
F3 C9 1_555 1_555
C1B C1 1_555 1_555
C2B C1B 1_555 1_555
C3B C2B 1_555 1_555
H1B C3B 1_555 1_555
C4B C3B 1_555 1_555
C5B C4B 1_555 1_555
H2B C5B 1_555 1_555
C6B C5B 1_555 1_555
H3B C6B 1_555 1_555
C7B C2B 1_555 1_555
H4B C7B 1_555 1_555
C9B C4B 1_555 1_555
F1B C9B 1_555 1_555
F2B C9B 1_555 1_555
F3B C9B 1_555 1_555
C8B C1B 1_555 1_555
N1B C8B 1_555 1_555
C6 C7 1_555 1_555
C6B C7B 1_555 1_555

#END
