
#######################################################################
#
#                 Cambridge Crystallographic Data Centre
#                                CCDC 
#
#######################################################################
#
# If this CIF has been generated from an entry in the Cambridge 
# Structural Database, then it will include bibliographic, chemical, 
# crystal, experimental, refinement or atomic coordinate data resulting 
# from the CCDC's data processing and validation procedures.
#
#######################################################################

data_RADTEW
_chemical_formula_moiety         'C16 H8 Br2 N2'
_chemical_name_systematic        bis(4-Bromophenyl)fumaronitrile
_symmetry_cell_setting           triclinic
_symmetry_space_group_name_H-M   'P -1'
_symmetry_Int_Tables_number      2
_space_group_name_Hall           '-P 1'
loop_
_symmetry_equiv_pos_site_id
_symmetry_equiv_pos_as_xyz
1 x,y,z
2 -x,-y,-z
_cell_length_a                   7.9926(9)
_cell_length_b                   9.4626(12)
_cell_length_c                   10.6914(15)
_cell_angle_alpha                92.131(11)
_cell_angle_beta                 110.063(10)
_cell_angle_gamma                74.017(10)
_cell_volume                     728.699
_exptl_crystal_colour            colorless
_exptl_crystal_description       prism
_cell_formula_units_Z            2
_exptl_crystal_recrystallization_method chloroform/hexane
_exptl_crystal_preparation       fluorescent
loop_
_atom_site_label
_atom_site_type_symbol
_atom_site_fract_x
_atom_site_fract_y
_atom_site_fract_z
Br1 Br -0.49972(6) 0.62177(5) -0.22012(4)
Br2 Br 0.72997(5) 0.02777(4) 0.93260(4)
N1 N 0.2066(5) 0.5974(4) 0.4649(4)
N2 N -0.0332(4) 0.0619(4) 0.2695(3)
C1 C -0.0532(4) 0.4473(4) 0.1969(3)
C2 C -0.1758(5) 0.5876(4) 0.1780(4)
H1 H -0.1683 0.6474 0.2496
C3 C -0.3077(5) 0.6394(4) 0.0553(4)
H2 H -0.3891 0.7334 0.0443
C4 C -0.3189(5) 0.5523(4) -0.0504(4)
C5 C -0.1975(5) 0.4143(4) -0.0359(3)
H3 H -0.2043 0.3563 -0.1087
C6 C -0.0654(5) 0.3622(4) 0.0875(3)
H4 H 0.0166 0.2686 0.0975
C7 C 0.0855(4) 0.3924(4) 0.3291(3)
C8 C 0.1606(5) 0.5019(4) 0.4088(4)
C9 C 0.2858(4) 0.1946(4) 0.5134(3)
C10 C 0.2569(5) 0.1040(4) 0.5981(3)
H5 H 0.1466 0.0775 0.5713
C11 C 0.3890(5) 0.0525(4) 0.7217(3)
H6 H 0.3677 -0.0067 0.7788
C12 C 0.5529(5) 0.0905(4) 0.7588(3)
C13 C 0.5889(5) 0.1756(4) 0.6750(3)
H7 H 0.7020 0.1976 0.7006
C14 C 0.4555(5) 0.2276(4) 0.5529(3)
H8 H 0.4786 0.2856 0.4958
C15 C 0.1384(4) 0.2529(4) 0.3838(3)
C16 C 0.0394(5) 0.1492(4) 0.3160(3)
loop_
_geom_bond_atom_site_label_1
_geom_bond_atom_site_label_2
_geom_bond_site_symmetry_1
_geom_bond_site_symmetry_2
Br1 C4 1_555 1_555
Br2 C12 1_555 1_555
N1 C8 1_555 1_555
N2 C16 1_555 1_555
C1 C2 1_555 1_555
C2 H1 1_555 1_555
C3 C2 1_555 1_555
H2 C3 1_555 1_555
C4 C3 1_555 1_555
C5 C4 1_555 1_555
H3 C5 1_555 1_555
C6 C1 1_555 1_555
H4 C6 1_555 1_555
C7 C1 1_555 1_555
C8 C7 1_555 1_555
C9 C10 1_555 1_555
C10 H5 1_555 1_555
C11 C10 1_555 1_555
H6 C11 1_555 1_555
C12 C11 1_555 1_555
C13 C12 1_555 1_555
H7 C13 1_555 1_555
C14 C9 1_555 1_555
H8 C14 1_555 1_555
C15 C7 1_555 1_555
C16 C15 1_555 1_555
C5 C6 1_555 1_555
C9 C15 1_555 1_555
C13 C14 1_555 1_555

#END
