
#######################################################################
#
#                 Cambridge Crystallographic Data Centre
#                                CCDC 
#
#######################################################################
#
# If this CIF has been generated from an entry in the Cambridge 
# Structural Database, then it will include bibliographic, chemical, 
# crystal, experimental, refinement or atomic coordinate data resulting 
# from the CCDC's data processing and validation procedures.
#
#######################################################################

data_RADXAY
_chemical_name_common            14-hydroxy-8-methylpodocarpan-7-one
_chemical_formula_moiety         'C18 H30 O2'
_chemical_name_systematic        
(4aS,4bR,8R,8aS,10aS)-8-hydroxy-1,1,4a,8a-tetramethyldodecahydrophenanthren-9(1H)-one
_symmetry_cell_setting           orthorhombic
_symmetry_space_group_name_H-M   'P 21 21 21'
_symmetry_Int_Tables_number      19
_space_group_name_Hall           'P 2ac 2ab'
loop_
_symmetry_equiv_pos_site_id
_symmetry_equiv_pos_as_xyz
1 x,y,z
2 1/2-x,-y,1/2+z
3 1/2+x,1/2-y,-z
4 -x,1/2+y,1/2-z
_cell_length_a                   6.3550(5)
_cell_length_b                   9.5987(9)
_cell_length_c                   25.4750(15)
_cell_angle_alpha                90
_cell_angle_beta                 90
_cell_angle_gamma                90
_cell_volume                     1553.97
_exptl_crystal_colour            colorless
_chemical_melting_point          '422-424 K'
_cell_formula_units_Z            4
loop_
_atom_site_label
_atom_site_type_symbol
_atom_site_fract_x
_atom_site_fract_y
_atom_site_fract_z
O1 O 0.3212(5) -0.0804(3) 0.07375(9)
H1 H 0.3376 -0.1469 0.0540
O2 O -0.0734(4) -0.2013(3) -0.00837(9)
C1 C -0.0595(6) -0.0317(4) 0.05930(12)
C2 C 0.1747(6) 0.0148(4) 0.05109(14)
H2 H 0.2017 0.0188 0.0132
C3 C 0.2191(6) 0.1578(4) 0.07391(14)
H3 H 0.1368 0.2274 0.0554
H4 H 0.3668 0.1803 0.0694
C4 C 0.1630(6) 0.1602(5) 0.13251(14)
H5 H 0.1927 0.2518 0.1468
H6 H 0.2489 0.0929 0.1511
C5 C -0.0694(7) 0.1257(4) 0.14049(14)
H7 H -0.1525 0.1999 0.1250
H8 H -0.0981 0.1253 0.1779
C6 C -0.1457(6) -0.0150(4) 0.11720(12)
H9 H -0.2971 -0.0007 0.1122
C7 C -0.1350(6) -0.1419(4) 0.15490(12)
C8 C -0.2100(6) -0.2707(4) 0.12333(12)
H10 H -0.3437 -0.2426 0.1074
C9 C -0.0605(7) -0.2971(4) 0.07699(13)
H11 H 0.0819 -0.3085 0.0900
H12 H -0.1008 -0.3825 0.0593
C10 C -0.0669(6) -0.1792(4) 0.03898(13)
C11 C -0.2974(6) -0.1179(4) 0.19896(13)
H13 H -0.2492 -0.0422 0.2211
H14 H -0.4299 -0.0898 0.1833
C12 C -0.3342(7) -0.2460(4) 0.23283(15)
H15 H -0.2045 -0.2707 0.2506
H16 H -0.4390 -0.2248 0.2593
C13 C -0.4080(7) -0.3676(4) 0.20031(14)
H17 H -0.5460 -0.3462 0.1862
H18 H -0.4226 -0.4482 0.2230
C14 C -0.2610(7) -0.4052(4) 0.15479(14)
C15 C -0.1935(6) 0.0592(4) 0.02287(13)
H19 H -0.3314 0.0193 0.0195
H20 H -0.1284 0.0640 -0.0111
H21 H -0.2048 0.1513 0.0373
C16 C 0.0831(6) -0.1562(4) 0.18015(14)
H22 H 0.1152 -0.0732 0.1995
H23 H 0.1869 -0.1697 0.1533
H24 H 0.0836 -0.2348 0.2035
C17 C -0.3848(7) -0.5067(5) 0.11925(15)
H25 H -0.4458 -0.5791 0.1404
H26 H -0.2912 -0.5472 0.0939
H27 H -0.4945 -0.4568 0.1014
C18 C -0.0690(7) -0.4856(4) 0.17491(15)
H28 H -0.1102 -0.5786 0.1842
H29 H -0.0127 -0.4393 0.2052
H30 H 0.0363 -0.4891 0.1479
loop_
_geom_bond_atom_site_label_1
_geom_bond_atom_site_label_2
_geom_bond_site_symmetry_1
_geom_bond_site_symmetry_2
O1 H1 1_555 1_555
O2 C10 1_555 1_555
C1 C2 1_555 1_555
C2 O1 1_555 1_555
H2 C2 1_555 1_555
C3 C2 1_555 1_555
H3 C3 1_555 1_555
H4 C3 1_555 1_555
C4 C3 1_555 1_555
H5 C4 1_555 1_555
H6 C4 1_555 1_555
C5 C4 1_555 1_555
H7 C5 1_555 1_555
H8 C5 1_555 1_555
C6 C1 1_555 1_555
H9 C6 1_555 1_555
C7 C6 1_555 1_555
C8 C7 1_555 1_555
H10 C8 1_555 1_555
C9 C8 1_555 1_555
H11 C9 1_555 1_555
H12 C9 1_555 1_555
C10 C1 1_555 1_555
C11 C7 1_555 1_555
H13 C11 1_555 1_555
H14 C11 1_555 1_555
C12 C11 1_555 1_555
H15 C12 1_555 1_555
H16 C12 1_555 1_555
C13 C12 1_555 1_555
H17 C13 1_555 1_555
H18 C13 1_555 1_555
C14 C8 1_555 1_555
C15 C1 1_555 1_555
H19 C15 1_555 1_555
H20 C15 1_555 1_555
H21 C15 1_555 1_555
C16 C7 1_555 1_555
H22 C16 1_555 1_555
H23 C16 1_555 1_555
H24 C16 1_555 1_555
C17 C14 1_555 1_555
H25 C17 1_555 1_555
H26 C17 1_555 1_555
H27 C17 1_555 1_555
C18 C14 1_555 1_555
H28 C18 1_555 1_555
H29 C18 1_555 1_555
H30 C18 1_555 1_555
C5 C6 1_555 1_555
C9 C10 1_555 1_555
C13 C14 1_555 1_555

#END
