
#######################################################################
#
#                 Cambridge Crystallographic Data Centre
#                                CCDC 
#
#######################################################################
#
# If this CIF has been generated from an entry in the Cambridge 
# Structural Database, then it will include bibliographic, chemical, 
# crystal, experimental, refinement or atomic coordinate data resulting 
# from the CCDC's data processing and validation procedures.
#
#######################################################################

data_RADYAZ01
_chemical_formula_moiety         'C82 H14 O2,1.25(C7 H8)'
_chemical_name_systematic        
'(5-methoxy-5-oxo-1-phenylpentylene)C70fullerene toluene solvate'
_symmetry_cell_setting           triclinic
_symmetry_space_group_name_H-M   'P -1'
_symmetry_Int_Tables_number      2
_space_group_name_Hall           '-P 1'
loop_
_symmetry_equiv_pos_site_id
_symmetry_equiv_pos_as_xyz
1 x,y,z
2 -x,-y,-z
_cell_length_a                   10.7922(9)
_cell_length_b                   14.6143(16)
_cell_length_c                   31.832(2)
_cell_angle_alpha                101.363(7)
_cell_angle_beta                 94.436(6)
_cell_angle_gamma                98.115(8)
_cell_volume                     4844.18
_exptl_crystal_colour            'dark black'
_exptl_crystal_description       block
_cell_formula_units_Z            4
loop_
_atom_site_label
_atom_site_type_symbol
_atom_site_fract_x
_atom_site_fract_y
_atom_site_fract_z
O1 O -0.2745(5) 0.8517(4) 0.62894(18)
O2 O -0.0668(6) 0.8735(5) 0.6434(2)
C1 C 0.0146(6) 0.5377(5) 0.6717(2)
C2 C -0.0771(6) 0.2036(6) 0.5853(2)
C3 C 0.0828(6) 0.3708(5) 0.6765(2)
C4 C 0.0468(6) 0.5716(6) 0.7198(2)
C5 C 0.1201(6) 0.5216(5) 0.6439(2)
C6 C -0.0704(6) 0.6837(6) 0.6563(2)
H1 H -0.0374 0.7165 0.6854
H2 H -0.0070 0.6965 0.6373
C7 C -0.0534(6) 0.3736(5) 0.6153(2)
C8 C 0.1176(6) 0.5266(6) 0.5976(2)
C9 C 0.0234(6) 0.4349(5) 0.6533(2)
C10 C 0.2070(7) 0.3881(6) 0.6965(2)
C11 C 0.1381(6) 0.6504(5) 0.7365(2)
H3 H 0.1859 0.6788 0.7180
C12 C 0.6512(6) 0.3015(6) 0.5954(3)
C13 C 0.3333(7) 0.0295(5) 0.5790(2)
C14 C 0.2567(7) 0.3084(6) 0.7055(2)
C15 C -0.0974(6) 0.5773(6) 0.6545(2)
H4 H -0.1670 0.5644 0.6712
H5 H -0.1234 0.5447 0.6249
C16 C 0.2164(7) 0.0859(6) 0.5057(2)
C17 C -0.0034(7) 0.5656(6) 0.7918(2)
H6 H -0.0507 0.5363 0.8101
C18 C -0.0577(6) 0.3910(6) 0.5742(2)
C19 C 0.0660(7) 0.1175(5) 0.6232(2)
C20 C -0.0198(7) 0.1553(6) 0.5170(2)
C21 C 0.0834(7) 0.1965(6) 0.6606(2)
C22 C 0.2956(7) 0.4660(6) 0.6870(2)
C23 C -0.1891(7) 0.7208(6) 0.6428(2)
H7 H -0.2275 0.6819 0.6153
H8 H -0.2483 0.7141 0.6638
C24 C -0.0843(6) 0.2222(6) 0.5432(2)
C25 C 0.1580(7) 0.6869(6) 0.7808(3)
H9 H 0.2194 0.7394 0.7917
C26 C -0.0222(7) 0.5301(6) 0.7481(2)
H10 H -0.0827 0.4770 0.7372
C27 C 0.6316(7) 0.3983(6) 0.6100(3)
C28 C 0.5147(8) 0.1908(6) 0.6744(3)
C29 C -0.0599(6) 0.2772(6) 0.6206(2)
C30 C -0.0738(7) 0.3153(6) 0.5372(2)
C31 C 0.0232(7) 0.2762(5) 0.6577(2)
C32 C 0.6372(7) 0.2374(6) 0.6221(3)
C33 C 0.3780(7) 0.0576(5) 0.6241(2)
C34 C 0.0262(7) 0.0934(5) 0.5440(2)
C35 C 0.4969(7) 0.1121(6) 0.6375(2)
C36 C -0.1674(7) 0.8217(6) 0.6386(2)
C37 C 0.1941(7) 0.2137(6) 0.6884(2)
C38 C 0.0299(7) 0.4701(6) 0.5655(2)
C39 C 0.0682(7) 0.4393(6) 0.5230(3)
C40 C 0.2740(7) 0.0776(6) 0.6476(2)
C41 C 0.3902(8) 0.2408(6) 0.4877(2)
C42 C 0.6063(7) 0.2731(6) 0.5502(3)
C43 C 0.3911(8) 0.3065(6) 0.7106(2)
C44 C 0.4058(7) 0.0567(6) 0.5483(2)
C45 C 0.0646(7) 0.2779(7) 0.4806(2)
C46 C 0.1893(8) 0.4655(6) 0.5144(2)
C47 C 0.3279(7) 0.5473(6) 0.6265(3)
C48 C 0.5998(7) 0.2676(6) 0.6650(3)
C49 C 0.0042(7) 0.3450(6) 0.5056(2)
C50 C 0.1621(7) 0.0615(5) 0.6166(2)
C51 C 0.4717(8) 0.3800(6) 0.7020(2)
C52 C 0.5738(6) 0.1416(6) 0.6052(2)
C53 C 0.4502(7) 0.5226(6) 0.6228(3)
C54 C 0.3470(7) 0.0890(6) 0.5123(2)
C55 C 0.5978(6) 0.4269(6) 0.6510(3)
C56 C 0.5296(6) 0.1135(5) 0.5616(2)
C57 C 0.5810(7) 0.3603(7) 0.6788(3)
C58 C 0.4010(8) 0.4890(5) 0.5436(3)
C59 C 0.2882(7) 0.1515(6) 0.6826(2)
C60 C 0.2544(7) 0.5232(6) 0.6591(2)
C61 C 0.3846(8) 0.4121(6) 0.5066(3)
C62 C 0.1381(7) 0.0572(6) 0.5381(2)
C63 C 0.5467(7) 0.1809(6) 0.5341(3)
C64 C 0.4249(7) 0.4581(6) 0.6886(2)
C65 C 0.0555(7) 0.1829(6) 0.4865(2)
C66 C 0.2558(8) 0.3967(7) 0.4888(3)
C67 C 0.2449(7) 0.5490(5) 0.5892(2)
C68 C 0.5031(7) 0.4864(6) 0.6568(3)
C69 C 0.4109(7) 0.2099(6) 0.6967(2)
C70 C 0.0863(7) 0.6452(6) 0.8087(2)
H11 H 0.0984 0.6703 0.8382
C71 C 0.4323(7) 0.1638(6) 0.5033(2)
C72 C 0.1932(8) 0.3071(7) 0.4721(2)
C73 C 0.4874(7) 0.4931(6) 0.5794(3)
C74 C 0.1984(7) 0.0310(6) 0.5748(2)
C75 C -0.0112(7) 0.1222(6) 0.5858(2)
C76 C -0.2667(8) 0.9453(6) 0.6210(3)
H12 H -0.2227 0.9494 0.5962
H13 H -0.2223 0.9898 0.6457
H14 H -0.3501 0.9595 0.6159
C77 C 0.5599(7) 0.3527(6) 0.5369(3)
C78 C 0.4548(8) 0.3373(6) 0.5051(3)
C79 C 0.1746(7) 0.1513(6) 0.4821(2)
C80 C 0.2593(8) 0.2269(7) 0.4727(2)
C81 C 0.2805(8) 0.5202(6) 0.5480(3)
C82 C 0.5758(7) 0.4283(7) 0.5735(3)
O3 O -0.0053(5) 1.4401(4) 0.03627(18)
O4 O -0.0067(6) 1.3491(5) 0.0859(2)
C83 C 0.2152(6) 1.0700(5) 0.0721(2)
C84 C 0.2218(7) 1.2400(6) 0.0590(2)
H15 H 0.2432 1.2375 0.0298
H16 H 0.1314 1.2212 0.0574
C85 C -0.0197(6) 1.0739(5) 0.0757(2)
C86 C 0.0655(6) 0.9400(6) 0.0370(2)
C87 C 0.2419(7) 1.1416(6) 0.1183(2)
C88 C 0.4256(7) 1.1771(6) 0.0733(2)
C89 C 0.2910(7) 0.7152(5) 0.0920(2)
C90 C 0.2709(6) 0.9825(5) 0.0691(2)
C91 C -0.0480(7) 0.8794(6) 0.0354(2)
C92 C 0.1820(7) 0.9064(5) 0.0446(2)
C93 C 0.0788(7) 1.0386(6) 0.0562(2)
C94 C 0.3801(7) 1.0224(6) 0.2198(2)
C95 C 0.3641(6) 0.9673(6) 0.0999(2)
C96 C 0.4674(7) 1.1320(6) 0.0359(2)
H17 H 0.4095 1.0940 0.0140
C97 C 0.3188(7) 1.1083(5) 0.1512(2)
C98 C 0.0504(7) 0.6706(6) 0.2092(2)
C99 C 0.1851(7) 0.8121(6) 0.0482(2)
C100 C 0.2677(7) 1.1303(6) 0.1907(2)
C101 C 0.0651(7) 0.7486(5) 0.0469(2)
C102 C 0.3885(6) 1.0330(6) 0.1426(2)
C103 C 0.4314(7) 0.8400(6) 0.1346(2)
C104 C -0.0324(7) 0.6447(6) 0.1705(2)
C105 C 0.0067(7) 1.1376(6) 0.1181(2)
C106 C 0.1274(7) 1.1648(6) 0.1384(2)
C107 C -0.1083(7) 0.7648(6) 0.2155(2)
C108 C 0.2941(7) 0.7949(6) 0.0715(2)
C109 C -0.2601(7) 0.8682(7) 0.1139(2)
C110 C -0.0476(7) 0.7851(6) 0.0421(2)
C111 C 0.4559(7) 0.9009(6) 0.1742(2)
C112 C -0.1413(7) 0.7029(6) 0.0960(2)
C113 C -0.1409(7) 0.8562(6) 0.2214(2)
C114 C 0.1909(7) 1.4069(6) 0.0613(3)
H18 H 0.2268 1.4718 0.0746
H19 H 0.2070 1.3959 0.0313
C115 C 0.3816(7) 0.8734(6) 0.0975(2)
C116 C 0.1856(7) 1.0592(6) 0.2507(2)
C117 C 0.2863(7) 1.1674(5) 0.0779(2)
C118 C 0.0637(7) 0.6736(5) 0.0690(2)
C119 C 0.3788(7) 0.9414(6) 0.2404(2)
C120 C 0.2549(8) 1.3407(6) 0.0836(3)
H20 H 0.3454 1.3600 0.0863
H21 H 0.2293 1.3451 0.1124
C121 C -0.1901(7) 0.7285(6) 0.1376(2)
C122 C -0.0514(7) 0.9358(6) 0.2481(2)
C123 C 0.2894(7) 1.0819(6) 0.2248(2)
C124 C 0.0112(7) 0.6191(6) 0.1311(2)
C125 C 0.1811(7) 0.6730(6) 0.2083(2)
C126 C 0.2233(8) 0.8219(6) 0.2611(2)
C127 C -0.2206(7) 0.9699(6) 0.1809(3)
C128 C -0.2209(7) 0.8752(6) 0.1876(3)
C129 C 0.1465(8) 0.6214(6) 0.1295(2)
C130 C -0.1350(7) 1.0446(6) 0.2063(2)
C131 C -0.0968(7) 1.1136(6) 0.1430(2)
C132 C -0.0474(7) 1.0270(6) 0.2394(2)
C133 C 0.3766(7) 0.7425(6) 0.1310(3)
C134 C 0.1789(8) 0.9769(6) 0.2678(2)
C135 C 0.0530(7) 1.1443(6) 0.2079(2)
C136 C 0.0890(8) 0.8201(6) 0.2622(2)
C137 C 0.2774(8) 0.9206(6) 0.2637(2)
C138 C 0.2694(7) 0.7511(6) 0.2345(2)
C139 C -0.1370(7) 1.0110(6) 0.0754(2)
C140 C -0.1324(7) 0.7005(6) 0.1740(2)
C141 C 0.0058(7) 0.7467(6) 0.2373(2)
C142 C 0.1505(7) 1.1640(6) 0.1836(2)
C143 C -0.2447(7) 0.8120(6) 0.1462(3)
C144 C 0.1776(8) 0.6559(6) 0.0910(2)
C145 C 0.3724(7) 0.7729(6) 0.2098(3)
C146 C 0.3459(7) 0.7097(6) 0.1682(3)
C147 C -0.2470(7) 0.9660(6) 0.1348(3)
C148 C 0.2291(8) 0.6481(5) 0.1670(3)
C149 C 0.4248(7) 0.8666(7) 0.2122(3)
C150 C 0.5130(7) 1.2347(6) 0.1052(3)
H22 H 0.4867 1.2656 0.1306
C151 C 0.0690(8) 1.0871(6) 0.2403(2)
C152 C -0.1850(7) 1.0364(6) 0.1168(3)
C153 C -0.2153(7) 0.8436(6) 0.0744(2)
C154 C -0.0382(7) 0.6516(6) 0.0941(2)
C155 C 0.4302(7) 0.9965(6) 0.1786(2)
C156 C 0.0627(7) 0.9157(6) 0.2667(2)
C157 C -0.1522(7) 0.9161(6) 0.0546(2)
C158 C 0.6414(8) 1.2465(8) 0.0991(3)
H23 H 0.7000 1.2864 0.1201
C159 C 0.5945(8) 1.1426(6) 0.0306(3)
H24 H 0.6211 1.1110 0.0055
C160 C -0.0732(7) 1.1189(6) 0.1867(3)
C161 C -0.1509(8) 0.7622(6) 0.0662(2)
C162 C 0.0505(9) 1.3933(6) 0.0636(3)
C163 C -0.1410(8) 1.4309(7) 0.0351(3)
H25 H -0.1714 1.4714 0.0177
H26 H -0.1634 1.4487 0.0639
H27 H -0.1781 1.3665 0.0230
C164 C 0.6803(8) 1.1985(7) 0.0618(3)
H28 H 0.7655 1.2046 0.0580
C165 C 0.7818(7) 0.1668(6) 0.3672(3)
H29 H 0.8593 0.1652 0.3818
C166 C 0.6857(7) 0.1966(6) 0.3905(3)
C167 C 0.5721(7) 0.1979(6) 0.3675(3)
H30 H 0.5069 0.2189 0.3822
C168 C 0.7639(8) 0.1395(6) 0.3229(3)
H31 H 0.8298 0.1207 0.3078
C169 C 0.7049(9) 0.2235(6) 0.4386(3)
H32 H 0.6974 0.1674 0.4503
H33 H 0.6425 0.2606 0.4488
H34 H 0.7873 0.2598 0.4477
C170 C 0.5529(8) 0.1691(7) 0.3232(3)
H35 H 0.4749 0.1695 0.3086
C171 C 0.6485(9) 0.1398(8) 0.3005(3)
H36 H 0.6360 0.1206 0.2706
C172 C 0.4035(9) 0.3351(7) 0.2488(3)
H37 H 0.3760 0.2959 0.2671
C173 C 0.5234(8) 0.3380(7) 0.2381(3)
H38 H 0.5757 0.2990 0.2475
C174 C 0.4882(10) 0.4548(8) 0.1969(3)
C175 C 0.5661(9) 0.4011(7) 0.2124(3)
H39 H 0.6490 0.4062 0.2059
C176 C 0.3662(10) 0.4499(8) 0.2073(4)
H40 H 0.3132 0.4874 0.1970
C177 C 0.3218(9) 0.3879(8) 0.2336(4)
H41 H 0.2393 0.3831 0.2405
C178 C 0.5341(11) 0.5239(9) 0.1687(3)
H42 H 0.5406 0.5876 0.1848
H43 H 0.4752 0.5145 0.1435
H44 H 0.6151 0.5128 0.1603
C179? C 0.5364(8) 0.4990(8) 0.0366(3)
C180? C 0.5150(10) 0.6531(9) 0.0173(5)
C181? C 0.5027(15) 0.5490(13) 0.0021(6)
C182? C 0.5428(16) 0.5938(17) 0.0514(8)
C183? C 0.4735(18) 0.6025(18) -0.0211(9)
loop_
_geom_bond_atom_site_label_1
_geom_bond_atom_site_label_2
_geom_bond_site_symmetry_1
_geom_bond_site_symmetry_2
O1 C36 1_555 1_555
O2 C36 1_555 1_555
C1 C4 1_555 1_555
C2 C24 1_555 1_555
C3 C9 1_555 1_555
C4 C11 1_555 1_555
C5 C1 1_555 1_555
C6 H1 1_555 1_555
H2 C6 1_555 1_555
C7 C9 1_555 1_555
C8 C5 1_555 1_555
C9 C1 1_555 1_555
C10 C3 1_555 1_555
C11 H3 1_555 1_555
C12 C27 1_555 1_555
C13 C33 1_555 1_555
C14 C10 1_555 1_555
C15 C1 1_555 1_555
H4 C15 1_555 1_555
H5 C15 1_555 1_555
C16 C54 1_555 1_555
C17 H6 1_555 1_555
C18 C7 1_555 1_555
C19 C21 1_555 1_555
C20 C24 1_555 1_555
C21 C31 1_555 1_555
C22 C10 1_555 1_555
C23 C6 1_555 1_555
H7 C23 1_555 1_555
H8 C23 1_555 1_555
C24 C30 1_555 1_555
C25 C11 1_555 1_555
H9 C25 1_555 1_555
C26 C4 1_555 1_555
H10 C26 1_555 1_555
C27 C55 1_555 1_555
C28 C35 1_555 1_555
C29 C2 1_555 1_555
C30 C18 1_555 1_555
C31 C3 1_555 1_555
C32 C12 1_555 1_555
C33 C35 1_555 1_555
C34 C20 1_555 1_555
C35 C52 1_555 1_555
C36 C23 1_555 1_555
C37 C14 1_555 1_555
C38 C8 1_555 1_555
C39 C38 1_555 1_555
C40 C33 1_555 1_555
C41 C71 1_555 1_555
C42 C12 1_555 1_555
C43 C14 1_555 1_555
C44 C13 1_555 1_555
C45 C49 1_555 1_555
C46 C39 1_555 1_555
C47 C53 1_555 1_555
C48 C28 1_555 1_555
C49 C30 1_555 1_555
C50 C19 1_555 1_555
C51 C43 1_555 1_555
C52 C32 1_555 1_555
C53 C68 1_555 1_555
C54 C44 1_555 1_555
C55 C57 1_555 1_555
C56 C44 1_555 1_555
C57 C48 1_555 1_555
C58 C61 1_555 1_555
C59 C37 1_555 1_555
C60 C5 1_555 1_555
C61 C66 1_555 1_555
C62 C16 1_555 1_555
C63 C42 1_555 1_555
C64 C22 1_555 1_555
C65 C20 1_555 1_555
C66 C46 1_555 1_555
C67 C8 1_555 1_555
C68 C55 1_555 1_555
C69 C28 1_555 1_555
C70 C17 1_555 1_555
H11 C70 1_555 1_555
C71 C54 1_555 1_555
C72 C45 1_555 1_555
C73 C53 1_555 1_555
C74 C13 1_555 1_555
C75 C2 1_555 1_555
C76 O1 1_555 1_555
H12 C76 1_555 1_555
H13 C76 1_555 1_555
H14 C76 1_555 1_555
C77 C42 1_555 1_555
C78 C41 1_555 1_555
C79 C16 1_555 1_555
C80 C41 1_555 1_555
C81 C46 1_555 1_555
C82 C27 1_555 1_555
O3 C162 1_555 1_555
O4 C162 1_555 1_555
C83 C87 1_555 1_555
C84 H15 1_555 1_555
H16 C84 1_555 1_555
C85 C93 1_555 1_555
C86 C91 1_555 1_555
C87 C97 1_555 1_555
C88 C96 1_555 1_555
C89 C108 1_555 1_555
C90 C83 1_555 1_555
C91 C110 1_555 1_555
C92 C86 1_555 1_555
C93 C83 1_555 1_555
C94 C119 1_555 1_555
C95 C90 1_555 1_555
C96 H17 1_555 1_555
C97 C100 1_555 1_555
C98 C104 1_555 1_555
C99 C92 1_555 1_555
C100 C123 1_555 1_555
C101 C99 1_555 1_555
C102 C95 1_555 1_555
C103 C111 1_555 1_555
C104 C124 1_555 1_555
C105 C85 1_555 1_555
C106 C87 1_555 1_555
C107 C113 1_555 1_555
C108 C99 1_555 1_555
C109 C143 1_555 1_555
C110 C101 1_555 1_555
C111 C149 1_555 1_555
C112 C121 1_555 1_555
C113 C122 1_555 1_555
C114 H18 1_555 1_555
H19 C114 1_555 1_555
C115 C95 1_555 1_555
C116 C123 1_555 1_555
C117 C83 1_555 1_555
C118 C101 1_555 1_555
C119 C137 1_555 1_555
C120 C84 1_555 1_555
H20 C120 1_555 1_555
H21 C120 1_555 1_555
C121 C140 1_555 1_555
C122 C132 1_555 1_555
C123 C94 1_555 1_555
C124 C129 1_555 1_555
C125 C98 1_555 1_555
C126 C136 1_555 1_555
C127 C128 1_555 1_555
C128 C113 1_555 1_555
C129 C144 1_555 1_555
C130 C127 1_555 1_555
C131 C105 1_555 1_555
C132 C130 1_555 1_555
C133 C89 1_555 1_555
C134 C116 1_555 1_555
C135 C142 1_555 1_555
C136 C141 1_555 1_555
C137 C126 1_555 1_555
C138 C125 1_555 1_555
C139 C85 1_555 1_555
C140 C104 1_555 1_555
C141 C98 1_555 1_555
C142 C100 1_555 1_555
C143 C121 1_555 1_555
C144 C89 1_555 1_555
C145 C138 1_555 1_555
C146 C133 1_555 1_555
C147 C109 1_555 1_555
C148 C125 1_555 1_555
C149 C119 1_555 1_555
C150 C88 1_555 1_555
H22 C150 1_555 1_555
C151 C116 1_555 1_555
C152 C131 1_555 1_555
C153 C109 1_555 1_555
C154 C112 1_555 1_555
C155 C94 1_555 1_555
C156 C122 1_555 1_555
C157 C91 1_555 1_555
C158 C150 1_555 1_555
H23 C158 1_555 1_555
C159 C96 1_555 1_555
H24 C159 1_555 1_555
C160 C130 1_555 1_555
C161 C110 1_555 1_555
C162 C114 1_555 1_555
C163 O3 1_555 1_555
H25 C163 1_555 1_555
H26 C163 1_555 1_555
H27 C163 1_555 1_555
C164 C158 1_555 1_555
H28 C164 1_555 1_555
C165 H29 1_555 1_555
C166 C165 1_555 1_555
C167 C166 1_555 1_555
H30 C167 1_555 1_555
C168 C165 1_555 1_555
H31 C168 1_555 1_555
C169 C166 1_555 1_555
H32 C169 1_555 1_555
H33 C169 1_555 1_555
H34 C169 1_555 1_555
C170 C167 1_555 1_555
H35 C170 1_555 1_555
C171 C168 1_555 1_555
H36 C171 1_555 1_555
C172 H37 1_555 1_555
C173 C172 1_555 1_555
H38 C173 1_555 1_555
C174 C175 1_555 1_555
C175 C173 1_555 1_555
H39 C175 1_555 1_555
C176 C174 1_555 1_555
H40 C176 1_555 1_555
C177 C172 1_555 1_555
H41 C177 1_555 1_555
C178 C174 1_555 1_555
H42 C178 1_555 1_555
H43 C178 1_555 1_555
H44 C178 1_555 1_555
C5 C9 1_555 1_555
C6 C15 1_555 1_555
C7 C29 1_555 1_555
C17 C26 1_555 1_555
C18 C38 1_555 1_555
C19 C75 1_555 1_555
C21 C37 1_555 1_555
C22 C60 1_555 1_555
C25 C70 1_555 1_555
C29 C31 1_555 1_555
C32 C48 1_555 1_555
C34 C62 1_555 1_555
C34 C75 1_555 1_555
C39 C49 1_555 1_555
C40 C50 1_555 1_555
C40 C59 1_555 1_555
C43 C69 1_555 1_555
C45 C65 1_555 1_555
C47 C60 1_555 1_555
C47 C67 1_555 1_555
C50 C74 1_555 1_555
C51 C57 1_555 1_555
C51 C64 1_555 1_555
C52 C56 1_555 1_555
C56 C63 1_555 1_555
C58 C73 1_555 1_555
C58 C81 1_555 1_555
C59 C69 1_555 1_555
C61 C78 1_555 1_555
C62 C74 1_555 1_555
C63 C71 1_555 1_555
C64 C68 1_555 1_555
C65 C79 1_555 1_555
C66 C72 1_555 1_555
C67 C81 1_555 1_555
C72 C80 1_555 1_555
C73 C82 1_555 1_555
C77 C78 1_555 1_555
C77 C82 1_555 1_555
C79 C80 1_555 1_555
C84 C117 1_555 1_555
C86 C93 1_555 1_555
C87 C117 1_555 1_555
C88 C117 1_555 1_555
C90 C92 1_555 1_555
C97 C102 1_555 1_555
C102 C155 1_555 1_555
C103 C115 1_555 1_555
C103 C133 1_555 1_555
C105 C106 1_555 1_555
C106 C142 1_555 1_555
C107 C140 1_555 1_555
C107 C141 1_555 1_555
C108 C115 1_555 1_555
C111 C155 1_555 1_555
C112 C161 1_555 1_555
C114 C120 1_555 1_555
C118 C144 1_555 1_555
C118 C154 1_555 1_555
C124 C154 1_555 1_555
C126 C138 1_555 1_555
C127 C147 1_555 1_555
C128 C143 1_555 1_555
C129 C148 1_555 1_555
C131 C160 1_555 1_555
C132 C151 1_555 1_555
C134 C137 1_555 1_555
C134 C156 1_555 1_555
C135 C151 1_555 1_555
C135 C160 1_555 1_555
C136 C156 1_555 1_555
C139 C152 1_555 1_555
C139 C157 1_555 1_555
C145 C146 1_555 1_555
C145 C149 1_555 1_555
C146 C148 1_555 1_555
C147 C152 1_555 1_555
C153 C157 1_555 1_555
C153 C161 1_555 1_555
C159 C164 1_555 1_555
C170 C171 1_555 1_555
C176 C177 1_555 1_555

#END
