
#######################################################################
#
#                 Cambridge Crystallographic Data Centre
#                                CCDC 
#
#######################################################################
#
# If this CIF has been generated from an entry in the Cambridge 
# Structural Database, then it will include bibliographic, chemical, 
# crystal, experimental, refinement or atomic coordinate data resulting 
# from the CCDC's data processing and validation procedures.
#
#######################################################################

data_RADYED
_chemical_formula_moiety         'C22 H19 N1 O3 S1'
_chemical_name_systematic        
'8-methyl-9-(2-naphthyl)-8,9-dihydro-7H-pyrido[1,2-b][1,2]benzothiazol-7-ol 5,5-dioxide'
_symmetry_cell_setting           monoclinic
_symmetry_space_group_name_H-M   'P 21'
_symmetry_Int_Tables_number      4
_space_group_name_Hall           'P 2yb'
loop_
_symmetry_equiv_pos_site_id
_symmetry_equiv_pos_as_xyz
1 x,y,z
2 -x,1/2+y,-z
_cell_length_a                   10.3712(2)
_cell_length_b                   6.85285(14)
_cell_length_c                   12.6977(3)
_cell_angle_alpha                90
_cell_angle_beta                 95.800(2)
_cell_angle_gamma                90
_cell_volume                     897.835
_exptl_crystal_colour            colorless
_exptl_crystal_description       plate
_cell_formula_units_Z            2
loop_
_atom_site_label
_atom_site_type_symbol
_atom_site_fract_x
_atom_site_fract_y
_atom_site_fract_z
S1 S 0.79876(5) 0.00402(9) -0.03427(3)
O1 O 0.86113(19) 0.1756(3) -0.06988(15)
O2 O 0.84480(18) -0.1777(3) -0.07234(14)
O3 O 0.91934(16) -0.2560(2) 0.18181(13)
H1 H 0.9710 -0.3074 0.1431
N1 N 0.80147(15) 0.0041(4) 0.09473(12)
C1 C 0.62999(19) 0.0242(3) -0.05322(15)
C2 C 0.5542(2) 0.0366(3) -0.14952(16)
H2 H 0.5921 0.0414 -0.2145
C3 C 0.4212(2) 0.0417(3) -0.14714(18)
H3 H 0.3663 0.0520 -0.2115
C4 C 0.3671(2) 0.0320(3) -0.05172(18)
H4 H 0.2755 0.0319 -0.0520
C5 C 0.44403(19) 0.0223(4) 0.04405(16)
H5 H 0.4058 0.0179 0.1089
C6 C 0.57803(19) 0.0191(3) 0.04345(15)
C7 C 0.67842(18) 0.0088(4) 0.13350(14)
C8 C 0.9165(2) -0.0531(3) 0.16546(17)
H6 H 0.9968 -0.0112 0.1341
C9 C 0.9083(2) 0.0508(3) 0.27057(17)
H7 H 0.9834 0.0062 0.3204
C10 C 0.78234(19) -0.0106(4) 0.31830(15)
H8 H 0.7919 -0.1514 0.3382
C11 C 0.66660(18) 0.0053(4) 0.23702(14)
H9 H 0.5825 0.0131 0.2603
C12 C 0.9220(2) 0.2707(4) 0.2562(2)
H10 H 0.8470 0.3200 0.2108
H11 H 1.0014 0.2982 0.2232
H12 H 0.9262 0.3350 0.3254
C13 C 0.7673(2) 0.1020(3) 0.41885(17)
C14 C 0.6981(2) 0.2728(3) 0.41747(17)
H13 H 0.6524 0.3149 0.3528
C15 C 0.6927(2) 0.3879(3) 0.50915(18)
C16 C 0.7572(2) 0.3210(4) 0.60638(17)
C17 C 0.8265(2) 0.1430(4) 0.60697(18)
H14 H 0.8697 0.0959 0.6715
C18 C 0.8322(2) 0.0380(4) 0.51616(17)
H15 H 0.8805 -0.0800 0.5183
C19 C 0.6287(2) 0.5709(4) 0.50651(19)
H16 H 0.5838 0.6160 0.4422
C20 C 0.6310(2) 0.6836(4) 0.59612(19)
H17 H 0.5897 0.8075 0.5930
C21 C 0.6942(2) 0.6164(4) 0.6926(2)
H18 H 0.6954 0.6951 0.7543
C22 C 0.7537(2) 0.4389(4) 0.69792(18)
H19 H 0.7936 0.3933 0.7640
loop_
_geom_bond_atom_site_label_1
_geom_bond_atom_site_label_2
_geom_bond_site_symmetry_1
_geom_bond_site_symmetry_2
S1 O1 1_555 1_555
O2 S1 1_555 1_555
O3 H1 1_555 1_555
N1 S1 1_555 1_555
C1 S1 1_555 1_555
C2 C1 1_555 1_555
H2 C2 1_555 1_555
C3 C2 1_555 1_555
H3 C3 1_555 1_555
C4 C3 1_555 1_555
H4 C4 1_555 1_555
C5 C4 1_555 1_555
H5 C5 1_555 1_555
C6 C1 1_555 1_555
C7 N1 1_555 1_555
C8 O3 1_555 1_555
H6 C8 1_555 1_555
C9 C8 1_555 1_555
H7 C9 1_555 1_555
C10 C9 1_555 1_555
H8 C10 1_555 1_555
C11 C7 1_555 1_555
H9 C11 1_555 1_555
C12 C9 1_555 1_555
H10 C12 1_555 1_555
H11 C12 1_555 1_555
H12 C12 1_555 1_555
C13 C10 1_555 1_555
C14 C13 1_555 1_555
H13 C14 1_555 1_555
C15 C14 1_555 1_555
C16 C15 1_555 1_555
C17 C16 1_555 1_555
H14 C17 1_555 1_555
C18 C13 1_555 1_555
H15 C18 1_555 1_555
C19 C15 1_555 1_555
H16 C19 1_555 1_555
C20 C19 1_555 1_555
H17 C20 1_555 1_555
C21 C20 1_555 1_555
H18 C21 1_555 1_555
C22 C16 1_555 1_555
H19 C22 1_555 1_555
N1 C8 1_555 1_555
C5 C6 1_555 1_555
C6 C7 1_555 1_555
C10 C11 1_555 1_555
C17 C18 1_555 1_555
C21 C22 1_555 1_555

#END
