
#######################################################################
#
#                 Cambridge Crystallographic Data Centre
#                                CCDC 
#
#######################################################################
#
# If this CIF has been generated from an entry in the Cambridge 
# Structural Database, then it will include bibliographic, chemical, 
# crystal, experimental, refinement or atomic coordinate data resulting 
# from the CCDC's data processing and validation procedures.
#
#######################################################################

data_RAFGAJ01
_chemical_formula_moiety         'C24 H19 N1'
_chemical_name_systematic        N,N-diphenylbiphenyl-4-amine
_symmetry_cell_setting           triclinic
_symmetry_space_group_name_H-M   'P -1'
_symmetry_Int_Tables_number      2
_space_group_name_Hall           '-P 1'
loop_
_symmetry_equiv_pos_site_id
_symmetry_equiv_pos_as_xyz
1 x,y,z
2 -x,-y,-z
_cell_length_a                   10.3406(4)
_cell_length_b                   10.6839(4)
_cell_length_c                   18.6663(7)
_cell_angle_alpha                94.2810(10)
_cell_angle_beta                 102.7850(10)
_cell_angle_gamma                115.9490(10)
_cell_volume                     1773.42
_exptl_crystal_colour            colorless
_exptl_crystal_description       block
_cell_formula_units_Z            4
_exptl_crystal_preparation       Luminescent
loop_
_atom_site_label
_atom_site_type_symbol
_atom_site_fract_x
_atom_site_fract_y
_atom_site_fract_z
N1 N 0.67326(18) 0.05041(18) 0.20830(9)
C1 C 0.6899(2) 0.1088(2) 0.28245(10)
C2 C 0.7116(2) 0.2455(2) 0.30201(11)
H1 H 0.7139 0.3007 0.2656
C3 C 0.7299(2) 0.3011(2) 0.37485(11)
H2 H 0.7456 0.3937 0.3866
C4 C 0.7254(2) 0.2222(2) 0.43113(10)
C5 C 0.7012(2) 0.0844(2) 0.41026(11)
H3 H 0.6962 0.0281 0.4463
C6 C 0.6845(2) 0.0288(2) 0.33793(11)
H4 H 0.6694 -0.0636 0.3261
C7 C 0.7442(2) 0.2826(2) 0.50954(11)
C8 C 0.8183(3) 0.4278(3) 0.53652(13)
H5 H 0.8582 0.4889 0.5053
C9 C 0.8339(3) 0.4834(3) 0.60890(15)
H6 H 0.8839 0.5812 0.6258
C10 C 0.7765(3) 0.3961(3) 0.65597(14)
H7 H 0.7876 0.4341 0.7047
C11 C 0.7028(3) 0.2525(3) 0.63083(12)
H8 H 0.6627 0.1924 0.6624
C12 C 0.6877(2) 0.1966(3) 0.55860(11)
H9 H 0.6383 0.0986 0.5425
C13 C 0.5628(2) -0.0922(2) 0.17631(10)
C14 C 0.4201(2) -0.1449(2) 0.18577(10)
H10 H 0.3966 -0.0873 0.2145
C15 C 0.3135(2) -0.2820(2) 0.15284(11)
H11 H 0.2184 -0.3168 0.1598
C16 C 0.3462(3) -0.3678(2) 0.10995(13)
H12 H 0.2736 -0.4602 0.0874
C17 C 0.4875(3) -0.3160(2) 0.10055(13)
H13 H 0.5099 -0.3738 0.0713
C18 C 0.5958(3) -0.1799(2) 0.13390(12)
H14 H 0.6915 -0.1468 0.1280
C19 C 0.7534(2) 0.1357(2) 0.16249(10)
C20 C 0.6853(2) 0.1168(2) 0.08737(11)
H15 H 0.5856 0.0488 0.0669
C21 C 0.7628(3) 0.1970(3) 0.04221(12)
H16 H 0.7150 0.1822 -0.0084
C22 C 0.9078(3) 0.2974(3) 0.07066(14)
H17 H 0.9595 0.3518 0.0400
C23 C 0.9773(3) 0.3176(2) 0.14551(14)
H18 H 1.0770 0.3859 0.1654
C24 C 0.9013(2) 0.2380(2) 0.19139(12)
H19 H 0.9496 0.2531 0.2420
N2 N 0.16300(19) 0.03196(19) 0.21172(9)
C25 C 0.1783(2) 0.0741(2) 0.28884(11)
C26 C 0.3161(2) 0.1308(3) 0.34152(12)
H20 H 0.3986 0.1350 0.3275
C27 C 0.3326(2) 0.1812(2) 0.41470(12)
H21 H 0.4270 0.2202 0.4491
C28 C 0.2127(2) 0.1757(2) 0.43878(11)
C29 C 0.0747(2) 0.1122(2) 0.38542(12)
H22 H -0.0092 0.1030 0.3997
C30 C 0.0570(2) 0.0623(2) 0.31196(11)
H23 H -0.0378 0.0203 0.2777
C31 C 0.2317(2) 0.2355(2) 0.51720(11)
C32 C 0.3692(3) 0.3190(4) 0.56621(16)
H24 H 0.4544 0.3400 0.5504
C33 C 0.3852(4) 0.3734(4) 0.63891(18)
H25 H 0.4810 0.4293 0.6712
C34 C 0.2646(4) 0.3469(3) 0.66420(15)
H26 H 0.2762 0.3825 0.7135
C35 C 0.1278(3) 0.2679(3) 0.61609(15)
H27 H 0.0432 0.2507 0.6317
C36 C 0.1117(3) 0.2122(3) 0.54393(14)
H28 H 0.0155 0.1565 0.5120
C37 C 0.0492(2) -0.1041(2) 0.17215(12)
C38 C 0.0196(3) -0.2195(2) 0.20671(13)
H29 H 0.0713 -0.2065 0.2565
C39 C -0.0863(3) -0.3544(3) 0.16779(19)
H30 H -0.1064 -0.4317 0.1914
C40 C -0.1617(3) -0.3736(4) 0.0937(2)
H31 H -0.2310 -0.4643 0.0668
C41 C -0.1347(3) -0.2604(4) 0.06032(17)
H32 H -0.1864 -0.2740 0.0104
C42 C -0.0327(3) -0.1259(3) 0.09848(13)
H33 H -0.0182 -0.0489 0.0750
C43 C 0.2582(2) 0.1294(2) 0.17596(11)
C44 C 0.2899(3) 0.0840(3) 0.11387(13)
H34 H 0.2458 -0.0125 0.0941
C45 C 0.3860(3) 0.1806(3) 0.08109(16)
H35 H 0.4049 0.1490 0.0387
C46 C 0.4541(3) 0.3227(3) 0.11045(17)
H36 H 0.5208 0.3873 0.0888
C47 C 0.4238(3) 0.3692(3) 0.17154(15)
H37 H 0.4702 0.4658 0.1916
C48 C 0.3242(3) 0.2733(3) 0.20400(13)
H38 H 0.3016 0.3060 0.2448
loop_
_geom_bond_atom_site_label_1
_geom_bond_atom_site_label_2
_geom_bond_site_symmetry_1
_geom_bond_site_symmetry_2
N1 C1 1_555 1_555
C1 C2 1_555 1_555
C2 H1 1_555 1_555
C3 C2 1_555 1_555
H2 C3 1_555 1_555
C4 C3 1_555 1_555
C5 C4 1_555 1_555
H3 C5 1_555 1_555
C6 C1 1_555 1_555
H4 C6 1_555 1_555
C7 C4 1_555 1_555
C8 C7 1_555 1_555
H5 C8 1_555 1_555
C9 C8 1_555 1_555
H6 C9 1_555 1_555
C10 C9 1_555 1_555
H7 C10 1_555 1_555
C11 C10 1_555 1_555
H8 C11 1_555 1_555
C12 C7 1_555 1_555
H9 C12 1_555 1_555
C13 N1 1_555 1_555
C14 C13 1_555 1_555
H10 C14 1_555 1_555
C15 C14 1_555 1_555
H11 C15 1_555 1_555
C16 C15 1_555 1_555
H12 C16 1_555 1_555
C17 C16 1_555 1_555
H13 C17 1_555 1_555
C18 C13 1_555 1_555
H14 C18 1_555 1_555
C19 N1 1_555 1_555
C20 C19 1_555 1_555
H15 C20 1_555 1_555
C21 C20 1_555 1_555
H16 C21 1_555 1_555
C22 C21 1_555 1_555
H17 C22 1_555 1_555
C23 C22 1_555 1_555
H18 C23 1_555 1_555
C24 C19 1_555 1_555
H19 C24 1_555 1_555
N2 C25 1_555 1_555
C25 C26 1_555 1_555
C26 H20 1_555 1_555
C27 C26 1_555 1_555
H21 C27 1_555 1_555
C28 C27 1_555 1_555
C29 C28 1_555 1_555
H22 C29 1_555 1_555
C30 C25 1_555 1_555
H23 C30 1_555 1_555
C31 C28 1_555 1_555
C32 C31 1_555 1_555
H24 C32 1_555 1_555
C33 C32 1_555 1_555
H25 C33 1_555 1_555
C34 C33 1_555 1_555
H26 C34 1_555 1_555
C35 C34 1_555 1_555
H27 C35 1_555 1_555
C36 C31 1_555 1_555
H28 C36 1_555 1_555
C37 N2 1_555 1_555
C38 C37 1_555 1_555
H29 C38 1_555 1_555
C39 C38 1_555 1_555
H30 C39 1_555 1_555
C40 C39 1_555 1_555
H31 C40 1_555 1_555
C41 C40 1_555 1_555
H32 C41 1_555 1_555
C42 C37 1_555 1_555
H33 C42 1_555 1_555
C43 N2 1_555 1_555
C44 C43 1_555 1_555
H34 C44 1_555 1_555
C45 C44 1_555 1_555
H35 C45 1_555 1_555
C46 C45 1_555 1_555
H36 C46 1_555 1_555
C47 C46 1_555 1_555
H37 C47 1_555 1_555
C48 C43 1_555 1_555
H38 C48 1_555 1_555
C5 C6 1_555 1_555
C11 C12 1_555 1_555
C17 C18 1_555 1_555
C23 C24 1_555 1_555
C29 C30 1_555 1_555
C35 C36 1_555 1_555
C41 C42 1_555 1_555
C47 C48 1_555 1_555

#END
