
#######################################################################
#
#                 Cambridge Crystallographic Data Centre
#                                CCDC 
#
#######################################################################
#
# If this CIF has been generated from an entry in the Cambridge 
# Structural Database, then it will include bibliographic, chemical, 
# crystal, experimental, refinement or atomic coordinate data resulting 
# from the CCDC's data processing and validation procedures.
#
#######################################################################

data_RAFHOW
_chemical_formula_moiety         'C20 H24 N2 O2'
_chemical_name_systematic        
'Ethyl 6-(1-((2,6-diethylphenyl)imino)ethyl)pyridine-2-carboxylate'
_symmetry_cell_setting           monoclinic
_symmetry_space_group_name_H-M   'P 21/c'
_symmetry_Int_Tables_number      14
_space_group_name_Hall           '-P 2ybc'
loop_
_symmetry_equiv_pos_site_id
_symmetry_equiv_pos_as_xyz
1 x,y,z
2 -x,1/2+y,1/2-z
3 -x,-y,-z
4 x,1/2-y,1/2+z
_cell_length_a                   10.881(3)
_cell_length_b                   21.536(6)
_cell_length_c                   7.930(2)
_cell_angle_alpha                90
_cell_angle_beta                 93.974(5)
_cell_angle_gamma                90
_cell_volume                     1853.79
_exptl_crystal_colour            yellow
_cell_formula_units_Z            4
loop_
_atom_site_label
_atom_site_type_symbol
_atom_site_fract_x
_atom_site_fract_y
_atom_site_fract_z
N1 N 0.2777(3) 0.87277(13) 0.2985(4)
N2 N 0.1622(3) 1.02185(13) 0.3765(4)
C1 C 0.3516(4) 0.76950(18) 0.2792(6)
C2 C 0.2501(3) 0.81300(16) 0.3184(5)
C3 C 0.1400(4) 0.79345(18) 0.3723(6)
H1 H 0.1235 0.7513 0.3823
C4 C 0.0542(4) 0.83673(19) 0.4116(7)
H2 H -0.0213 0.8244 0.4488
C5 C 0.0812(4) 0.89856(17) 0.3952(6)
H3 H 0.0250 0.9290 0.4219
C6 C 0.1942(3) 0.91451(15) 0.3378(5)
C7 C 0.2291(3) 0.98085(16) 0.3154(5)
C8 C 0.3415(4) 0.99333(18) 0.2239(6)
H4 H 0.3546 1.0373 0.2177
H5 H 0.3309 0.9765 0.1118
H6 H 0.4114 0.9742 0.2834
C9 C 0.1918(3) 1.08599(15) 0.3608(5)
C10 C 0.2712(4) 1.11428(18) 0.4820(6)
C11 C 0.2927(4) 1.1771(2) 0.4665(7)
H7 H 0.3457 1.1970 0.5462
C12 C 0.2378(5) 1.2105(2) 0.3369(8)
H8 H 0.2523 1.2530 0.3298
C13 C 0.1617(5) 1.1821(2) 0.2175(7)
H9 H 0.1261 1.2054 0.1283
C14 C 0.1362(4) 1.11981(18) 0.2254(6)
C15 C 0.0514(5) 1.0892(3) 0.0917(7)
H10 H 0.0543 1.1126 -0.0126
H11 H 0.0820 1.0478 0.0713
C16 C -0.0739(7) 1.0847(4) 0.1333(10)
H12 H -0.1214 1.0642 0.0431
H13 H -0.1064 1.1256 0.1489
H14 H -0.0781 1.0613 0.2357
C17 C 0.3385(6) 1.0787(3) 0.6166(8)
H15 H 0.3536 1.0371 0.5759
H16 H 0.4177 1.0982 0.6441
C18 C 0.2722(13) 1.0747(6) 0.7671(15)
H17 H 0.3198 1.0514 0.8516
H18 H 0.1947 1.0544 0.7412
H19 H 0.2580 1.1158 0.8088
O1 O 0.4557(8) 0.7844(4) 0.2695(13)
O2 O 0.3142(7) 0.7113(3) 0.2634(12)
C19 C 0.4062(9) 0.6631(5) 0.2274(15)
H20 H 0.4820 0.6816 0.1934
H21 H 0.3742 0.6347 0.1401
C20 C 0.426(2) 0.6310(12) 0.396(2)
H22 H 0.4883 0.5999 0.3899
H23 H 0.3501 0.6118 0.4240
H24 H 0.4509 0.6609 0.4813
C21? C 0.3385(6) 1.0787(3) 0.6166(8)
H25? H 0.4221 1.0745 0.5831
H26? H 0.3032 1.0373 0.6126
C22? C 0.3492(17) 1.0975(7) 0.8023(12)
H27? H 0.3998 1.0680 0.8658
H28? H 0.2687 1.0984 0.8447
H29? H 0.3858 1.1380 0.8134
O3? O 0.4388(11) 0.7855(5) 0.1945(15)
O4? O 0.3285(8) 0.7121(4) 0.3440(15)
C23? C 0.4339(11) 0.6683(5) 0.324(2)
H30? H 0.4859 0.6832 0.2382
H31? H 0.4836 0.6641 0.4299
C24? C 0.3759(10) 0.6075(5) 0.2727(17)
H32? H 0.4392 0.5775 0.2558
H33? H 0.3256 0.6128 0.1695
H34? H 0.3258 0.5933 0.3599
loop_
_geom_bond_atom_site_label_1
_geom_bond_atom_site_label_2
_geom_bond_site_symmetry_1
_geom_bond_site_symmetry_2
N1 C2 1_555 1_555
N2 C7 1_555 1_555
C1 C2 1_555 1_555
C2 C3 1_555 1_555
C3 H1 1_555 1_555
C4 C3 1_555 1_555
H2 C4 1_555 1_555
C5 C4 1_555 1_555
H3 C5 1_555 1_555
C6 N1 1_555 1_555
C7 C6 1_555 1_555
C8 C7 1_555 1_555
H4 C8 1_555 1_555
H5 C8 1_555 1_555
H6 C8 1_555 1_555
C9 N2 1_555 1_555
C10 C9 1_555 1_555
C11 C10 1_555 1_555
H7 C11 1_555 1_555
C12 C11 1_555 1_555
H8 C12 1_555 1_555
C13 C12 1_555 1_555
H9 C13 1_555 1_555
C14 C9 1_555 1_555
C15 C14 1_555 1_555
H10 C15 1_555 1_555
H11 C15 1_555 1_555
C16 C15 1_555 1_555
H12 C16 1_555 1_555
H13 C16 1_555 1_555
H14 C16 1_555 1_555
C17 C10 1_555 1_555
H15 C17 1_555 1_555
H16 C17 1_555 1_555
C18 C17 1_555 1_555
H17 C18 1_555 1_555
H18 C18 1_555 1_555
H19 C18 1_555 1_555
O1 C1 1_555 1_555
O2 C1 1_555 1_555
C19 O2 1_555 1_555
H20 C19 1_555 1_555
H21 C19 1_555 1_555
C20 C19 1_555 1_555
H22 C20 1_555 1_555
H23 C20 1_555 1_555
H24 C20 1_555 1_555
C5 C6 1_555 1_555
C13 C14 1_555 1_555

#END
