
#######################################################################
#
#                 Cambridge Crystallographic Data Centre
#                                CCDC 
#
#######################################################################
#
# If this CIF has been generated from an entry in the Cambridge 
# Structural Database, then it will include bibliographic, chemical, 
# crystal, experimental, refinement or atomic coordinate data resulting 
# from the CCDC's data processing and validation procedures.
#
#######################################################################

data_RAFMET
_chemical_formula_moiety         'C21 H28 O5'
_chemical_name_systematic        
'ethyl 4-hydroxy-3-(hydroxymethyl)-2-(4-methoxyphenyl)-1,2,3,4,5,6,7,8-octahydronaphthalene-1-carboxylate'
_symmetry_cell_setting           monoclinic
_symmetry_space_group_name_H-M   'P 21'
_symmetry_Int_Tables_number      4
_space_group_name_Hall           'P 2yb'
loop_
_symmetry_equiv_pos_site_id
_symmetry_equiv_pos_as_xyz
1 x,y,z
2 -x,1/2+y,-z
_cell_length_a                   12.0573(4)
_cell_length_b                   5.4172(2)
_cell_length_c                   14.7016(5)
_cell_angle_alpha                90
_cell_angle_beta                 99.857(3)
_cell_angle_gamma                90
_cell_volume                     946.086
_exptl_crystal_colour            colorless
_exptl_crystal_description       plate
_cell_formula_units_Z            2
loop_
_atom_site_label
_atom_site_type_symbol
_atom_site_fract_x
_atom_site_fract_y
_atom_site_fract_z
O1 O 0.02315(13) 1.0777(3) 0.60532(11)
O2 O 0.09618(14) 0.5332(3) 0.56694(11)
O3 O 0.71894(13) 0.8902(4) 0.59850(12)
O4 O 0.47449(12) 1.1839(3) 0.85561(11)
O5 O 0.36411(13) 0.8677(4) 0.88360(12)
C1 C 0.08445(18) 1.1001(4) 0.76939(15)
C2 C 0.17994(17) 1.2071(4) 0.81013(15)
C3 C 0.18702(19) 1.3673(5) 0.89503(16)
H1 H 0.1980 1.5411 0.8778
H2 H 0.2534 1.3171 0.9406
C4 C 0.08221(19) 1.3499(6) 0.93970(17)
H3 H 0.0827 1.1920 0.9737
H4 H 0.0819 1.4866 0.9843
C5 C -0.02282(19) 1.3644(5) 0.86594(18)
H5 H -0.0219 1.5193 0.8303
H6 H -0.0907 1.3653 0.8954
C6 C -0.02664(19) 1.1433(5) 0.80129(17)
H7 H -0.0470 0.9939 0.8335
H8 H -0.0859 1.1707 0.7467
C7 C 0.07881(18) 0.9419(4) 0.68454(15)
H9 H 0.0305 0.7961 0.6925
C8 C 0.19350(17) 0.8429(4) 0.67006(14)
H10 H 0.2205 0.7206 0.7199
C9 C 0.27830(17) 1.0570(4) 0.67736(14)
H11 H 0.2447 1.1828 0.6309
C10 C 0.28936(17) 1.1847(4) 0.77369(14)
H12 H 0.3168 1.3565 0.7661
C11 C 0.18394(19) 0.7137(4) 0.57691(16)
H13 H 0.1676 0.8369 0.5267
H14 H 0.2563 0.6327 0.5721
C12 C 0.39350(19) 0.9942(4) 0.65440(15)
C13 C 0.45546(19) 0.7893(4) 0.68975(16)
H15 H 0.4227 0.6745 0.7262
C14 C 0.56425(19) 0.7471(4) 0.67340(16)
H16 H 0.6052 0.6064 0.6990
C15 C 0.61246(19) 0.9124(5) 0.61941(16)
C16 C 0.55128(19) 1.1152(5) 0.58148(15)
H17 H 0.5834 1.2267 0.5434
C17 C 0.44331(19) 1.1556(4) 0.59900(15)
H18 H 0.4024 1.2957 0.5728
C18 C 0.7813(2) 0.6769(6) 0.6309(2)
H19 H 0.7971 0.6787 0.6986
H20 H 0.8524 0.6753 0.6071
H21 H 0.7376 0.5292 0.6096
C19 C 0.37772(18) 1.0578(4) 0.84421(15)
C20 C 0.57060(19) 1.0701(6) 0.91326(17)
H22 H 0.5766 0.8940 0.8969
H23 H 0.5636 1.0817 0.9792
C21 C 0.6719(2) 1.2117(8) 0.8949(2)
H24 H 0.7400 1.1427 0.9322
H25 H 0.6773 1.1988 0.8293
H26 H 0.6644 1.3855 0.9112
H27 H 0.057(3) 1.215(5) 0.605(2)
H28 H 0.069(3) 0.536(8) 0.5107(18)
loop_
_geom_bond_atom_site_label_1
_geom_bond_atom_site_label_2
_geom_bond_site_symmetry_1
_geom_bond_site_symmetry_2
O1 C7 1_555 1_555
O2 C11 1_555 1_555
O3 C15 1_555 1_555
O4 C19 1_555 1_555
O5 C19 1_555 1_555
C1 C2 1_555 1_555
C2 C3 1_555 1_555
C3 H1 1_555 1_555
H2 C3 1_555 1_555
C4 C3 1_555 1_555
H3 C4 1_555 1_555
H4 C4 1_555 1_555
C5 C4 1_555 1_555
H5 C5 1_555 1_555
H6 C5 1_555 1_555
C6 C1 1_555 1_555
H7 C6 1_555 1_555
H8 C6 1_555 1_555
C7 C1 1_555 1_555
H9 C7 1_555 1_555
C8 C7 1_555 1_555
H10 C8 1_555 1_555
C9 C8 1_555 1_555
H11 C9 1_555 1_555
C10 C2 1_555 1_555
H12 C10 1_555 1_555
C11 C8 1_555 1_555
H13 C11 1_555 1_555
H14 C11 1_555 1_555
C12 C9 1_555 1_555
C13 C12 1_555 1_555
H15 C13 1_555 1_555
C14 C13 1_555 1_555
H16 C14 1_555 1_555
C15 C14 1_555 1_555
C16 C15 1_555 1_555
H17 C16 1_555 1_555
C17 C12 1_555 1_555
H18 C17 1_555 1_555
C18 O3 1_555 1_555
H19 C18 1_555 1_555
H20 C18 1_555 1_555
H21 C18 1_555 1_555
C19 C10 1_555 1_555
C20 O4 1_555 1_555
H22 C20 1_555 1_555
H23 C20 1_555 1_555
C21 C20 1_555 1_555
H24 C21 1_555 1_555
H25 C21 1_555 1_555
H26 C21 1_555 1_555
H27 O1 1_555 1_555
H28 O2 1_555 1_555
C5 C6 1_555 1_555
C9 C10 1_555 1_555
C16 C17 1_555 1_555

#END
