
#######################################################################
#
#                 Cambridge Crystallographic Data Centre
#                                CCDC 
#
#######################################################################
#
# If this CIF has been generated from an entry in the Cambridge 
# Structural Database, then it will include bibliographic, chemical, 
# crystal, experimental, refinement or atomic coordinate data resulting 
# from the CCDC's data processing and validation procedures.
#
#######################################################################

data_RAFQIA
_chemical_formula_moiety         'C23 H21 N3 O1'
_chemical_name_systematic        
2-Anilino-4-(4-methoxyphenyl)-5,6,7,8-tetrahydroquinoline-3-carbonitrile
_symmetry_cell_setting           triclinic
_symmetry_space_group_name_H-M   'P -1'
_symmetry_Int_Tables_number      2
_space_group_name_Hall           '-P 1'
loop_
_symmetry_equiv_pos_site_id
_symmetry_equiv_pos_as_xyz
1 x,y,z
2 -x,-y,-z
_cell_length_a                   9.7174(11)
_cell_length_b                   10.2425(14)
_cell_length_c                   10.9758(17)
_cell_angle_alpha                99.592(2)
_cell_angle_beta                 97.845(2)
_cell_angle_gamma                116.399(3)
_cell_volume                     937.001
_cell_formula_units_Z            2
loop_
_atom_site_label
_atom_site_type_symbol
_atom_site_fract_x
_atom_site_fract_y
_atom_site_fract_z
N1 N 0.2863(2) 0.3848(2) 0.3583(2)
N2 N 0.3370(3) 0.5215(3) 0.2064(2)
H1 H 0.3869 0.5434 0.1475
N3 N 0.6238(3) 0.4740(4) 0.0738(3)
O1 O 0.8788(3) 0.0381(3) 0.1343(2)
C1 C 0.3632(3) 0.4273(3) 0.2697(3)
C2 C 0.4684(3) 0.3738(3) 0.2379(2)
C3 C 0.4830(3) 0.2661(3) 0.2934(2)
C4 C 0.3973(3) 0.2192(3) 0.3840(3)
C5 C 0.4079(3) 0.1042(3) 0.4485(3)
H2 H 0.3456 0.0053 0.3894
H3 H 0.5171 0.1245 0.4665
C6 C 0.3543(18) 0.0989(16) 0.5680(13)
H4 H 0.4298 0.1868 0.6355
H5 H 0.3435 0.0092 0.5935
C7 C 0.1960(15) 0.0961(15) 0.5419(13)
H6 H 0.1500 0.0795 0.6146
H7 H 0.1249 0.0132 0.4689
C8 C 0.2134(4) 0.2483(4) 0.5151(3)
H8 H 0.1095 0.2386 0.4864
H9 H 0.2680 0.3289 0.5927
C9 C 0.3050(3) 0.2853(3) 0.4152(3)
C10 C 0.2391(3) 0.5870(3) 0.2252(3)
C11 C 0.2011(3) 0.6177(3) 0.3389(3)
H10 H 0.2403 0.5941 0.4093
C12 C 0.1059(4) 0.6830(3) 0.3486(4)
H11 H 0.0792 0.7007 0.4256
C13 C 0.0491(4) 0.7226(4) 0.2493(4)
H12 H -0.0158 0.7667 0.2574
C14 C 0.0901(4) 0.6958(4) 0.1364(4)
H13 H 0.0535 0.7228 0.0672
C15 C 0.1842(4) 0.6297(3) 0.1251(3)
H14 H 0.2117 0.6133 0.0483
C16 C 0.5558(3) 0.4278(4) 0.1461(3)
C17 C 0.5863(3) 0.2037(3) 0.2528(2)
C18 C 0.7495(3) 0.2921(3) 0.2795(3)
H15 H 0.7962 0.3924 0.3252
C19 C 0.8422(3) 0.2337(4) 0.2396(3)
H16 H 0.9514 0.2942 0.2590
C20 C 0.7749(4) 0.0851(4) 0.1704(3)
C21 C 0.6159(3) -0.0032(3) 0.1438(3)
H17 H 0.5698 -0.1032 0.0973
C22 C 0.5224(3) 0.0555(3) 0.1857(3)
H18 H 0.4136 -0.0065 0.1683
C23 C 0.8170(5) -0.1078(5) 0.0586(4)
H19 H 0.7509 -0.1784 0.1003
H20 H 0.9020 -0.1280 0.0452
H21 H 0.7554 -0.1176 -0.0219
C24? C 0.276(2) 0.0498(19) 0.5248(16)
C25? C 0.2644(19) 0.177(2) 0.6075(15)
H22? H 0.5107 0.1486 0.5071
H23? H 0.3969 0.0194 0.3855
H24? H 0.1744 -0.0158 0.4648
H25? H 0.2964 -0.0090 0.5781
H26? H 0.1872 0.1382 0.6575
H27? H 0.3661 0.2487 0.6646
H28? H 0.2214 0.3401 0.5649
H29? H 0.1028 0.1825 0.4725
loop_
_geom_bond_atom_site_label_1
_geom_bond_atom_site_label_2
_geom_bond_site_symmetry_1
_geom_bond_site_symmetry_2
N1 C1 1_555 1_555
N2 H1 1_555 1_555
N3 C16 1_555 1_555
O1 C20 1_555 1_555
C1 N2 1_555 1_555
C2 C1 1_555 1_555
C3 C2 1_555 1_555
C4 C3 1_555 1_555
C5 C4 1_555 1_555
H2 C5 1_555 1_555
H3 C5 1_555 1_555
C6 C5 1_555 1_555
H4 C6 1_555 1_555
H5 C6 1_555 1_555
C7 C6 1_555 1_555
H6 C7 1_555 1_555
H7 C7 1_555 1_555
C8 C7 1_555 1_555
H8 C8 1_555 1_555
H9 C8 1_555 1_555
C9 N1 1_555 1_555
C10 N2 1_555 1_555
C11 C10 1_555 1_555
H10 C11 1_555 1_555
C12 C11 1_555 1_555
H11 C12 1_555 1_555
C13 C12 1_555 1_555
H12 C13 1_555 1_555
C14 C13 1_555 1_555
H13 C14 1_555 1_555
C15 C10 1_555 1_555
H14 C15 1_555 1_555
C16 C2 1_555 1_555
C17 C3 1_555 1_555
C18 C17 1_555 1_555
H15 C18 1_555 1_555
C19 C18 1_555 1_555
H16 C19 1_555 1_555
C20 C19 1_555 1_555
C21 C20 1_555 1_555
H17 C21 1_555 1_555
C22 C17 1_555 1_555
H18 C22 1_555 1_555
C23 O1 1_555 1_555
H19 C23 1_555 1_555
H20 C23 1_555 1_555
H21 C23 1_555 1_555
C4 C9 1_555 1_555
C8 C9 1_555 1_555
C14 C15 1_555 1_555
C21 C22 1_555 1_555

#END
