
#######################################################################
#
#                 Cambridge Crystallographic Data Centre
#                                CCDC 
#
#######################################################################
#
# If this CIF has been generated from an entry in the Cambridge 
# Structural Database, then it will include bibliographic, chemical, 
# crystal, experimental, refinement or atomic coordinate data resulting 
# from the CCDC's data processing and validation procedures.
#
#######################################################################

data_RAFTOK
_chemical_formula_moiety         'C30 H30 N2 O4'
_chemical_name_systematic        
1-(2-t-butylphenyl)-3-(3-(3-methoxybenzyl)-2-oxo-2,3-dihydro-1H-indol-3-yl)pyrrolidine-2,5-dione
_symmetry_cell_setting           tetragonal
_symmetry_space_group_name_H-M   'I 41'
_symmetry_Int_Tables_number      80
_space_group_name_Hall           'I 4bw'
loop_
_symmetry_equiv_pos_site_id
_symmetry_equiv_pos_as_xyz
1 x,y,z
2 1/2-x,1/2-y,1/2+z
3 -y,1/2+x,1/4+z
4 1/2+y,-x,3/4+z
5 1/2+x,1/2+y,1/2+z
6 -x,-y,z
7 1/2-y,x,3/4+z
8 y,1/2-x,1/4+z
_cell_length_a                   17.4485(2)
_cell_length_b                   17.4485(2)
_cell_length_c                   16.7110(3)
_cell_angle_alpha                90
_cell_angle_beta                 90
_cell_angle_gamma                90
_cell_volume                     5087.67
_exptl_crystal_colour            colorless
_exptl_crystal_description       block
_cell_formula_units_Z            8
loop_
_atom_site_label
_atom_site_type_symbol
_atom_site_fract_x
_atom_site_fract_y
_atom_site_fract_z
O1 O 0.05560(14) 0.41354(15) 0.45440(17)
O2 O 0.17360(15) 0.25445(16) 0.5070(2)
O3 O -0.00862(15) 0.36358(16) 0.66092(19)
N1 N 0.09676(16) 0.53543(18) 0.4873(2)
H1 H 0.0564 0.5607 0.4740
N2 N 0.07991(17) 0.28842(16) 0.59639(19)
C1 C 0.1467(2) 0.3000(2) 0.5524(3)
C2 C 0.1049(2) 0.4593(2) 0.4777(2)
C3 C 0.16240(19) 0.5684(2) 0.5217(2)
C4 C 0.2171(2) 0.5120(2) 0.5336(2)
O4 O 0.3289(3) 0.6346(3) 0.2923(3)
C5 C 0.0548(2) 0.3548(2) 0.6354(2)
C6 C -0.0159(2) 0.2227(2) 0.5203(2)
H2 H -0.0141 0.2641 0.4852
C7 C 0.1753(2) 0.6441(2) 0.5426(3)
H3 H 0.1383 0.6815 0.5345
C8 C 0.03125(19) 0.2223(2) 0.5870(2)
C9 C 0.1226(2) 0.4081(2) 0.6394(2)
H4 H 0.1462 0.4062 0.6919
H5 H 0.1070 0.4604 0.6284
C10 C 0.2875(2) 0.5304(2) 0.5665(2)
H6 H 0.3246 0.4929 0.5745
C11 C 0.0299(2) 0.1623(2) 0.6430(3)
C12 C -0.0656(2) 0.1628(2) 0.5050(3)
H7 H -0.0974 0.1634 0.4603
C13 C -0.0666(2) 0.1019(2) 0.5580(3)
H8 H -0.0984 0.0602 0.5482
C14 C 0.1787(2) 0.3792(2) 0.5747(2)
H9 H 0.2293 0.3724 0.5990
C15 C -0.0211(2) 0.1027(2) 0.6250(3)
H10 H -0.0242 0.0615 0.6602
C16 C 0.0803(2) 0.1582(2) 0.7187(3)
C17 C 0.2464(2) 0.6618(2) 0.5764(3)
H11 H 0.2566 0.7120 0.5919
C18 C 0.1859(2) 0.4365(2) 0.5043(2)
C19 C 0.2324(2) 0.4066(3) 0.4311(3)
H12 H 0.2853 0.3989 0.4469
H13 H 0.2118 0.3575 0.4144
C20 C 0.2295(2) 0.4622(3) 0.3610(3)
C21 C 0.3018(2) 0.6060(2) 0.5873(3)
H14 H 0.3492 0.6193 0.6088
C22 C 0.2802(3) 0.5234(3) 0.3547(3)
H15 H 0.3173 0.5303 0.3940
C23 C 0.0597(3) 0.0890(3) 0.7712(3)
H16 H 0.0068 0.0922 0.7866
H17 H 0.0913 0.0891 0.8182
H18 H 0.0682 0.0426 0.7416
C24 C 0.0708(3) 0.2288(3) 0.7725(3)
H19 H 0.0939 0.2724 0.7471
H20 H 0.0954 0.2196 0.8230
H21 H 0.0173 0.2385 0.7810
C25 C 0.1753(3) 0.4535(4) 0.3015(3)
H22 H 0.1405 0.4132 0.3036
C26 C 0.2767(3) 0.5750(4) 0.2901(3)
C27 C 0.2240(4) 0.5649(4) 0.2320(3)
H23 H 0.2225 0.5979 0.1883
C28 C 0.1730(4) 0.5061(5) 0.2376(3)
H24 H 0.1358 0.5005 0.1982
C29 C 0.1646(3) 0.1505(3) 0.6938(3)
H25 H 0.1708 0.1056 0.6613
H26 H 0.1961 0.1463 0.7407
H27 H 0.1796 0.1949 0.6637
C30 C 0.3292(5) 0.6880(5) 0.2274(5)
H28 H 0.3424 0.6618 0.1788
H29 H 0.3662 0.7274 0.2378
H30 H 0.2793 0.7105 0.2221
loop_
_geom_bond_atom_site_label_1
_geom_bond_atom_site_label_2
_geom_bond_site_symmetry_1
_geom_bond_site_symmetry_2
O1 C2 1_555 1_555
O2 C1 1_555 1_555
O3 C5 1_555 1_555
N1 H1 1_555 1_555
N2 C1 1_555 1_555
C1 C14 1_555 1_555
C2 N1 1_555 1_555
C3 N1 1_555 1_555
C4 C3 1_555 1_555
O4 C26 1_555 1_555
C5 N2 1_555 1_555
C6 H2 1_555 1_555
C7 C3 1_555 1_555
H3 C7 1_555 1_555
C8 N2 1_555 1_555
C9 C5 1_555 1_555
H4 C9 1_555 1_555
H5 C9 1_555 1_555
C10 C4 1_555 1_555
H6 C10 1_555 1_555
C11 C8 1_555 1_555
C12 C6 1_555 1_555
H7 C12 1_555 1_555
C13 C12 1_555 1_555
H8 C13 1_555 1_555
C14 C9 1_555 1_555
H9 C14 1_555 1_555
C15 C11 1_555 1_555
H10 C15 1_555 1_555
C16 C11 1_555 1_555
C17 C7 1_555 1_555
H11 C17 1_555 1_555
C18 C2 1_555 1_555
C19 C18 1_555 1_555
H12 C19 1_555 1_555
H13 C19 1_555 1_555
C20 C19 1_555 1_555
C21 C10 1_555 1_555
H14 C21 1_555 1_555
C22 C20 1_555 1_555
H15 C22 1_555 1_555
C23 C16 1_555 1_555
H16 C23 1_555 1_555
H17 C23 1_555 1_555
H18 C23 1_555 1_555
C24 C16 1_555 1_555
H19 C24 1_555 1_555
H20 C24 1_555 1_555
H21 C24 1_555 1_555
C25 C20 1_555 1_555
H22 C25 1_555 1_555
C26 C22 1_555 1_555
C27 C26 1_555 1_555
H23 C27 1_555 1_555
C28 C25 1_555 1_555
H24 C28 1_555 1_555
C29 C16 1_555 1_555
H25 C29 1_555 1_555
H26 C29 1_555 1_555
H27 C29 1_555 1_555
C30 O4 1_555 1_555
H28 C30 1_555 1_555
H29 C30 1_555 1_555
H30 C30 1_555 1_555
C4 C18 1_555 1_555
C6 C8 1_555 1_555
C13 C15 1_555 1_555
C14 C18 1_555 1_555
C17 C21 1_555 1_555
C27 C28 1_555 1_555

#END
