
#######################################################################
#
#                 Cambridge Crystallographic Data Centre
#                                CCDC 
#
#######################################################################
#
# If this CIF has been generated from an entry in the Cambridge 
# Structural Database, then it will include bibliographic, chemical, 
# crystal, experimental, refinement or atomic coordinate data resulting 
# from the CCDC's data processing and validation procedures.
#
#######################################################################

data_RAGCAG
_chemical_formula_moiety         'C29 H20 Cl1 N3 O2'
_chemical_name_systematic        
'2-chloro-3,6-bis((quinolin-8-yloxy)methyl)quinoline unknown solvate'
_symmetry_cell_setting           orthorhombic
_symmetry_space_group_name_H-M   'P n a 21'
_symmetry_Int_Tables_number      33
_space_group_name_Hall           'P 2c -2n'
loop_
_symmetry_equiv_pos_site_id
_symmetry_equiv_pos_as_xyz
1 x,y,z
2 -x,-y,1/2+z
3 1/2-x,1/2+y,1/2+z
4 1/2+x,1/2-y,z
_cell_length_a                   6.61280(10)
_cell_length_b                   38.2988(7)
_cell_length_c                   9.8231(2)
_cell_angle_alpha                90
_cell_angle_beta                 90
_cell_angle_gamma                90
_cell_volume                     2487.82
_exptl_crystal_colour            colorless
_exptl_crystal_description       plate
_cell_formula_units_Z            4
loop_
_atom_site_label
_atom_site_type_symbol
_atom_site_fract_x
_atom_site_fract_y
_atom_site_fract_z
Cl1 Cl 0.92259(10) 0.51667(2) 0.08536(9)
O1 O 1.3524(3) 0.42853(6) 0.1079(3)
O2 O 0.4709(4) 0.34937(6) 0.6159(3)
N1 N 1.6122(4) 0.37615(8) 0.1506(3)
N2 N 0.7342(4) 0.47899(7) 0.2678(3)
C1 C 1.6585(5) 0.40017(9) 0.0531(4)
C2 C 1.7368(5) 0.44959(10) -0.1512(4)
H1 H 1.7615 0.4662 -0.2211
C3 C 0.8670(5) 0.42623(9) 0.3729(4)
C4 C 1.0414(5) 0.42871(9) 0.2889(4)
H2 H 1.1458 0.4118 0.2960
C5 C 1.5180(5) 0.42788(9) 0.0255(4)
C6 C 0.6690(5) 0.39780(9) 0.5474(4)
C7 C 0.7150(5) 0.45163(9) 0.3577(4)
C8 C -0.0954(6) 0.27842(10) 0.7306(5)
H3 H -0.1754 0.2655 0.7932
C9 C 0.8407(5) 0.39925(9) 0.4711(4)
H4 H 0.9434 0.3822 0.4835
C10 C 0.5361(5) 0.44941(9) 0.4356(4)
H5 H 0.4310 0.4660 0.4234
C11 C 1.2319(5) 0.45928(8) 0.1005(4)
H6 H 1.1804 0.4625 0.0067
H7 H 1.3142 0.4800 0.1249
C12 C 1.9317(6) 0.34851(11) 0.1059(5)
H8 H 2.0240 0.3304 0.1289
C13 C 0.5157(6) 0.42319(10) 0.5285(4)
H9 H 0.3960 0.4219 0.5818
C14 C 1.5574(5) 0.45170(9) -0.0759(4)
H10 H 1.4625 0.4697 -0.0949
C15 C 1.8401(5) 0.39891(10) -0.0241(4)
N3 N 0.1294(5) 0.31792(8) 0.5456(4)
C16 C 1.8787(5) 0.42396(10) -0.1261(4)
H11 H 2.0008 0.4232 -0.1769
C17 C 0.1955(5) 0.31367(9) 0.6764(4)
C18 C 1.0588(5) 0.45555(8) 0.1977(4)
C19 C 1.7462(6) 0.35159(10) 0.1741(5)
H12 H 1.7154 0.3347 0.2420
C20 C -0.0387(6) 0.30197(11) 0.5111(6)
H13 H -0.0829 0.3041 0.4195
C21 C 0.3810(5) 0.32980(9) 0.7146(4)
C22 C 0.6401(5) 0.37070(9) 0.6567(4)
H14 H 0.7633 0.3562 0.6661
H15 H 0.6120 0.3821 0.7453
C23 C 0.4581(6) 0.32497(10) 0.8436(4)
H16 H 0.5839 0.3352 0.8684
C24 C 0.0880(6) 0.29380(9) 0.7741(5)
C25 C 0.8993(5) 0.48019(8) 0.1959(4)
C26 C 1.9772(6) 0.37201(11) 0.0058(5)
H17 H 2.1006 0.3701 -0.0432
C27 C 0.1695(6) 0.28968(9) 0.9065(5)
H18 H 0.0981 0.2764 0.9724
C28 C -0.1573(6) 0.28208(10) 0.6000(6)
H19 H -0.2786 0.2714 0.5693
C29 C 0.3475(6) 0.30450(9) 0.9397(4)
H20 H 0.4004 0.3013 1.0288
loop_
_geom_bond_atom_site_label_1
_geom_bond_atom_site_label_2
_geom_bond_site_symmetry_1
_geom_bond_site_symmetry_2
Cl1 C25 1_555 1_555
O1 C5 1_555 1_555
O2 C21 1_555 1_555
N1 C1 1_555 1_555
N2 C7 1_555 1_555
C1 C5 1_555 1_555
C2 H1 1_555 1_555
C3 C4 1_555 1_555
C4 H2 1_555 1_555
C5 C14 1_555 1_555
C6 C9 1_555 1_555
C7 C3 1_555 1_555
C8 H3 1_555 1_555
C9 C3 1_555 1_555
H4 C9 1_555 1_555
C10 C7 1_555 1_555
H5 C10 1_555 1_555
C11 O1 1_555 1_555
H6 C11 1_555 1_555
H7 C11 1_555 1_555
C12 H8 1_555 1_555
C13 C6 1_555 1_555
H9 C13 1_555 1_555
C14 C2 1_555 1_555
H10 C14 1_555 1_555
C15 C1 1_555 1_555
N3 C17 1_555 1_555
C16 C2 1_555 1_555
H11 C16 1_555 1_555
C17 C21 1_555 1_555
C18 C4 1_555 1_555
C19 N1 1_555 1_555
H12 C19 1_555 1_555
C20 N3 1_555 1_555
H13 C20 1_555 1_555
C21 C23 1_555 1_555
C22 O2 1_555 1_555
H14 C22 1_555 1_555
H15 C22 1_555 1_555
C23 H16 1_555 1_555
C24 C8 1_555 1_555
C25 N2 1_555 1_555
C26 C12 1_555 1_555
H17 C26 1_555 1_555
C27 C24 1_555 1_555
H18 C27 1_555 1_555
C28 C8 1_555 1_555
H19 C28 1_555 1_555
C29 C23 1_555 1_555
H20 C29 1_555 1_555
C6 C22 1_555 1_555
C10 C13 1_555 1_555
C11 C18 1_555 1_555
C12 C19 1_555 1_555
C15 C16 1_555 1_555
C15 C26 1_555 1_555
C17 C24 1_555 1_555
C18 C25 1_555 1_555
C20 C28 1_555 1_555
C27 C29 1_555 1_555

#END
