
#######################################################################
#
#                 Cambridge Crystallographic Data Centre
#                                CCDC 
#
#######################################################################
#
# If this CIF has been generated from an entry in the Cambridge 
# Structural Database, then it will include bibliographic, chemical, 
# crystal, experimental, refinement or atomic coordinate data resulting 
# from the CCDC's data processing and validation procedures.
#
#######################################################################

data_RAGJIT
_chemical_formula_moiety         'C24 H26 N2 O4'
_chemical_name_systematic        
"N,N'-Di-n-pentylnaphthalene-1,4,5,8-tetracarboxylic di-imide"
_symmetry_cell_setting           monoclinic
_symmetry_space_group_name_H-M   'P 21/n'
_symmetry_Int_Tables_number      14
_space_group_name_Hall           '-P 2yn'
loop_
_symmetry_equiv_pos_site_id
_symmetry_equiv_pos_as_xyz
1 x,y,z
2 1/2+x,1/2-y,1/2+z
3 -x,-y,-z
4 1/2-x,1/2+y,1/2-z
_cell_length_a                   5.0282(2)
_cell_length_b                   8.1071(2)
_cell_length_c                   24.2062(9)
_cell_angle_alpha                90
_cell_angle_beta                 90.7900(10)
_cell_angle_gamma                90
_cell_volume                     986.651
_exptl_crystal_colour            orange
_exptl_crystal_description       acicular
_chemical_melting_point          221-223deg.C
_cell_formula_units_Z            2
loop_
_atom_site_label
_atom_site_type_symbol
_atom_site_fract_x
_atom_site_fract_y
_atom_site_fract_z
C1 C 0.8829(3) -0.0866(2) 0.06147(8)
H1 H 1.0207 -0.0944 0.0886
C2 C 0.7312(3) 0.0549(2) 0.05796(7)
C3 C 0.5247(3) 0.0669(2) 0.01815(7)
C4 C 0.3653(3) 0.2105(2) 0.01379(8)
C5 C 0.8356(3) -0.2190(2) 0.02534(8)
H2 H 0.9429 -0.3152 0.0279
C6 C 0.7900(3) 0.1967(2) 0.09477(8)
C7 C 0.4166(3) 0.3515(2) 0.05134(8)
C8 C 0.6880(3) 0.4807(2) 0.12426(8)
H3 H 0.6457 0.5826 0.1034
H4 H 0.8806 0.4824 0.1333
C9 C 0.5331(4) 0.4812(2) 0.17771(8)
H5 H 0.6028 0.3941 0.2027
H6 H 0.3434 0.4572 0.1697
C10 C 0.5581(4) 0.6497(2) 0.20603(8)
H7 H 0.4998 0.639 0.2448
H8 H 0.7478 0.6826 0.2068
C11 C 0.3970(4) 0.7852(2) 0.17812(9)
H9 H 0.2054 0.7623 0.183
H10 H 0.4328 0.7839 0.138
C12 C 0.4597(4) 0.9557(2) 0.20083(9)
H11 H 0.4242 0.9581 0.2405
H12 H 0.3479 1.0377 0.1819
H13 H 0.6475 0.9813 0.1947
N1 N 0.6301(3) 0.33645(17) 0.08873(6)
O1 O 0.2830(2) 0.47710(15) 0.04999(6)
O2 O 0.9717(2) 0.19442(15) 0.12876(5)
C3B C 0.4753(3) -0.0669(2) -0.01815(7)
C2B C 0.2688(3) -0.0549(2) -0.05796(7)
C1B C 0.1171(3) 0.0866(2) -0.06147(8)
H1B H -0.0207 0.0944 -0.0886
C5B C 0.1644(3) 0.2190(2) -0.02534(8)
H2B H 0.0571 0.3152 -0.0279
C6B C 0.2100(3) -0.1967(2) -0.09477(8)
N1B N 0.3699(3) -0.33645(17) -0.08873(6)
C7B C 0.5834(3) -0.3515(2) -0.05134(8)
C4B C 0.6347(3) -0.2105(2) -0.01379(8)
O1B O 0.7170(2) -0.47710(15) -0.04999(6)
C8B C 0.3120(3) -0.4807(2) -0.12426(8)
H3B H 0.3543 -0.5826 -0.1034
H4B H 0.1194 -0.4824 -0.1333
C9B C 0.4669(4) -0.4812(2) -0.17771(8)
H5B H 0.3972 -0.3941 -0.2027
H6B H 0.6566 -0.4572 -0.1697
C10B C 0.4419(4) -0.6497(2) -0.20603(8)
H7B H 0.5002 -0.639 -0.2448
H8B H 0.2522 -0.6826 -0.2068
C11B C 0.6030(4) -0.7852(2) -0.17812(9)
H9B H 0.7946 -0.7623 -0.183
H10B H 0.5672 -0.7839 -0.138
C12B C 0.5403(4) -0.9557(2) -0.20083(9)
H11B H 0.5758 -0.9581 -0.2405
H12B H 0.6521 -1.0377 -0.1819
H13B H 0.3525 -0.9813 -0.1947
O2B O 0.0283(2) -0.19442(15) -0.12876(5)
loop_
_geom_bond_atom_site_label_1
_geom_bond_atom_site_label_2
_geom_bond_site_symmetry_1
_geom_bond_site_symmetry_2
C1 H1 1_555 1_555
C2 C1 1_555 1_555
C3 C2 1_555 1_555
C4 C3 1_555 1_555
C5 C1 1_555 1_555
H2 C5 1_555 1_555
C6 C2 1_555 1_555
C7 C4 1_555 1_555
C8 H3 1_555 1_555
H4 C8 1_555 1_555
C9 C8 1_555 1_555
H5 C9 1_555 1_555
H6 C9 1_555 1_555
C10 C9 1_555 1_555
H7 C10 1_555 1_555
H8 C10 1_555 1_555
C11 C10 1_555 1_555
H9 C11 1_555 1_555
H10 C11 1_555 1_555
C12 C11 1_555 1_555
H11 C12 1_555 1_555
H12 C12 1_555 1_555
H13 C12 1_555 1_555
N1 C6 1_555 1_555
O1 C7 1_555 1_555
O2 C6 1_555 1_555
C3B C3 1_555 1_555
C2B C3B 1_555 1_555
C1B C2B 1_555 1_555
H1B C1B 1_555 1_555
C5B C4 1_555 1_555
H2B C5B 1_555 1_555
C6B C2B 1_555 1_555
N1B C6B 1_555 1_555
C7B N1B 1_555 1_555
C4B C5 1_555 1_555
O1B C7B 1_555 1_555
C8B N1B 1_555 1_555
H3B C8B 1_555 1_555
H4B C8B 1_555 1_555
C9B C8B 1_555 1_555
H5B C9B 1_555 1_555
H6B C9B 1_555 1_555
C10B C9B 1_555 1_555
H7B C10B 1_555 1_555
H8B C10B 1_555 1_555
C11B C10B 1_555 1_555
H9B C11B 1_555 1_555
H10B C11B 1_555 1_555
C12B C11B 1_555 1_555
H11B C12B 1_555 1_555
H12B C12B 1_555 1_555
H13B C12B 1_555 1_555
O2B C6B 1_555 1_555
C7 N1 1_555 1_555
C8 N1 1_555 1_555
C3B C4B 1_555 1_555
C1B C5B 1_555 1_555
C7B C4B 1_555 1_555

#END
