
#######################################################################
#
#                 Cambridge Crystallographic Data Centre
#                                CCDC 
#
#######################################################################
#
# If this CIF has been generated from an entry in the Cambridge 
# Structural Database, then it will include bibliographic, chemical, 
# crystal, experimental, refinement or atomic coordinate data resulting 
# from the CCDC's data processing and validation procedures.
#
#######################################################################

data_RAGJOB
_chemical_formula_moiety         'C6 H7 N2 O2 1+,N1 O3 1-'
_chemical_name_systematic        '2-amino-5-carboxypyridin-1-ium nitrate'
_symmetry_cell_setting           triclinic
_symmetry_space_group_name_H-M   'P -1'
_symmetry_Int_Tables_number      2
_space_group_name_Hall           '-P 1'
loop_
_symmetry_equiv_pos_site_id
_symmetry_equiv_pos_as_xyz
1 x,y,z
2 -x,-y,-z
_cell_length_a                   6.8960(14)
_cell_length_b                   7.8211(16)
_cell_length_c                   8.7340(17)
_cell_angle_alpha                97.06(3)
_cell_angle_beta                 93.54(3)
_cell_angle_gamma                115.93(3)
_cell_volume                     416.893
_cell_formula_units_Z            2
loop_
_atom_site_label
_atom_site_type_symbol
_atom_site_fract_x
_atom_site_fract_y
_atom_site_fract_z
O1 O 0.6564(4) 0.4033(3) 0.4423(3)
H1 H 0.6869 0.4258 0.3553
O2 O 0.3618(4) 0.1572(4) 0.3071(3)
N1 N 0.4649(4) 0.2183(4) 0.8496(3)
H2 H 0.5388 0.2898 0.9358
N2 N 0.2454(4) -0.0062(4) 0.9899(3)
H3 H 0.3225 0.0680 1.0743
H4 H 0.1369 -0.1150 0.9941
C1 C 0.5250(5) 0.2826(5) 0.7165(4)
H5 H 0.6452 0.4009 0.7195
C2 C 0.2932(5) 0.0463(4) 0.8554(4)
C3 C 0.1747(5) -0.0694(4) 0.7122(4)
H6 H 0.0580 -0.1896 0.7103
C4 C 0.2326(5) -0.0035(4) 0.5790(4)
H7 H 0.1524 -0.0782 0.4850
C5 C 0.4129(5) 0.1773(4) 0.5782(4)
C6 C 0.4730(5) 0.2433(5) 0.4294(4)
O3 O 0.9892(4) 0.6999(4) 0.2207(3)
N3 N 0.8555(4) 0.5855(4) 0.1137(3)
O4 O 0.7035(4) 0.4310(3) 0.1421(3)
O5 O 0.8601(4) 0.6169(3) -0.0209(3)
loop_
_geom_bond_atom_site_label_1
_geom_bond_atom_site_label_2
_geom_bond_site_symmetry_1
_geom_bond_site_symmetry_2
O1 H1 1_555 1_555
O2 C6 1_555 1_555
N1 H2 1_555 1_555
N2 H3 1_555 1_555
H4 N2 1_555 1_555
C1 N1 1_555 1_555
H5 C1 1_555 1_555
C2 N1 1_555 1_555
C3 C2 1_555 1_555
H6 C3 1_555 1_555
C4 C3 1_555 1_555
H7 C4 1_555 1_555
C5 C1 1_555 1_555
C6 O1 1_555 1_555
O3 N3 1_555 1_555
N3 O4 1_555 1_555
O5 N3 1_555 1_555
N2 C2 1_555 1_555
C4 C5 1_555 1_555
C5 C6 1_555 1_555

#END
