
#######################################################################
#
#                 Cambridge Crystallographic Data Centre
#                                CCDC 
#
#######################################################################
#
# If this CIF has been generated from an entry in the Cambridge 
# Structural Database, then it will include bibliographic, chemical, 
# crystal, experimental, refinement or atomic coordinate data resulting 
# from the CCDC's data processing and validation procedures.
#
#######################################################################

data_RAGKOC
_chemical_formula_moiety         'C53 H46 O2'
_chemical_name_systematic        
4-(14-(4-formylphenyl)-17,17-dipentyl-17H-dibenzo[4,5:6,7]indeno[1,2-l]phenanthren-3-yl)benzaldehyde
_symmetry_cell_setting           tetragonal
_symmetry_space_group_name_H-M   'P 41 21 2'
_symmetry_Int_Tables_number      92
_space_group_name_Hall           'P 4abw 2nw'
loop_
_symmetry_equiv_pos_site_id
_symmetry_equiv_pos_as_xyz
1 x,y,z
2 -x,-y,1/2+z
3 1/2+x,1/2-y,3/4-z
4 1/2-x,1/2+y,1/4-z
5 -y,-x,1/2-z
6 y,x,-z
7 1/2+y,1/2-x,3/4+z
8 1/2-y,1/2+x,1/4+z
_cell_length_a                   12.3419(7)
_cell_length_b                   12.3419(7)
_cell_length_c                   24.6407(12)
_cell_angle_alpha                90
_cell_angle_beta                 90
_cell_angle_gamma                90
_cell_volume                     3753.33
_cell_formula_units_Z            4
loop_
_atom_site_label
_atom_site_type_symbol
_atom_site_fract_x
_atom_site_fract_y
_atom_site_fract_z
C1 C -0.1604(4) 0.1520(4) 0.29742(16)
C2 C -0.1872(4) 0.1601(4) 0.35427(17)
C3 C -0.2767(4) 0.2198(4) 0.37352(18)
H1 H -0.3184 0.2602 0.3488
C4 C -0.3043(4) 0.2202(4) 0.42744(17)
H2 H -0.3635 0.262 0.4392
C5 C -0.2457(4) 0.1595(4) 0.46506(16)
C6 C -0.1557(4) 0.1024(4) 0.44719(16)
H3 H -0.1155 0.0617 0.4724
C7 C -0.1224(4) 0.1037(4) 0.39220(16)
C8 C -0.0233(4) 0.0518(4) 0.37453(16)
C9 C 0.0566(4) 0.0183(4) 0.41145(18)
H4 H 0.0433 0.025 0.4489
C10 C 0.1541(4) -0.0241(4) 0.39440(19)
H5 H 0.2053 -0.048 0.42
C11 C 0.1768(4) -0.0314(4) 0.33927(18)
H6 H 0.244 -0.0587 0.3276
C12 C 0.1013(4) 0.0009(4) 0.30188(17)
H7 H 0.1184 -0.0034 0.2648
C13 C -0.0020(4) 0.0407(4) 0.31756(17)
C14 C -0.0798(4) 0.0832(4) 0.28066(15)
C15 C -0.2115(4) 0.2115(4) 0.250
C16 C -0.2743(4) 0.1610(4) 0.52402(16)
C17 C -0.3100(4) 0.2573(5) 0.54764(18)
H8 H -0.3196 0.3192 0.526
C18 C -0.3314(4) 0.2623(5) 0.60281(19)
H9 H -0.3559 0.3275 0.6183
C19 C -0.3170(4) 0.1722(5) 0.63517(18)
C20 C -0.2845(4) 0.0748(5) 0.61174(18)
H10 H -0.2768 0.0126 0.6334
C21 C -0.2634(4) 0.0693(5) 0.55616(17)
H11 H -0.2418 0.0033 0.5405
C22 C -0.3303(5) 0.1800(6) 0.6944(2)
H12 H -0.318 0.1178 0.7155
C23 C -0.3340(4) 0.1895(4) 0.24328(17)
H13 H -0.3734 0.2323 0.2704
H14 H -0.3565 0.2152 0.2074
C24 C -0.3673(4) 0.0721(4) 0.2490(2)
H15 H -0.3498 0.0477 0.2859
H16 H -0.3244 0.0284 0.2237
C25 C -0.4869(4) 0.0509(5) 0.2384(2)
H17 H -0.504 0.0743 0.2014
H18 H -0.4998 -0.0274 0.2404
C26 C -0.5639(5) 0.1067(5) 0.2771(2)
H19 H -0.6383 0.0896 0.2663
H20 H -0.5543 0.1852 0.2735
C27 C -0.5490(6) 0.0757(6) 0.3362(2)
H21 H -0.6006 0.1152 0.3583
H22 H -0.4759 0.0936 0.3476
H23 H -0.5608 -0.0015 0.3404
O1 O -0.3574(8) 0.2663(10) 0.7180(3)
C1D C -0.1520(4) 0.1604(4) 0.20258(16)
C2D C -0.1601(4) 0.1872(4) 0.14573(17)
C3D C -0.2198(4) 0.2767(4) 0.12648(18)
H1D H -0.2602 0.3184 0.1512
C4D C -0.2202(4) 0.3043(4) 0.07256(17)
H2D H -0.262 0.3635 0.0608
C5D C -0.1595(4) 0.2457(4) 0.03494(16)
C6D C -0.1024(4) 0.1557(4) 0.05281(16)
H3D H -0.0617 0.1155 0.0276
C7D C -0.1037(4) 0.1224(4) 0.10780(16)
C8D C -0.0518(4) 0.0233(4) 0.12547(16)
C9D C -0.0183(4) -0.0566(4) 0.08855(18)
H4D H -0.025 -0.0433 0.0511
C10D C 0.0241(4) -0.1541(4) 0.10560(19)
H5D H 0.048 -0.2053 0.08
C11D C 0.0314(4) -0.1768(4) 0.16073(18)
H6D H 0.0587 -0.244 0.1724
C12D C -0.0009(4) -0.1013(4) 0.19812(17)
H7D H 0.0034 -0.1184 0.2352
C13D C -0.0407(4) 0.0020(4) 0.18244(17)
C14D C -0.0832(4) 0.0798(4) 0.21934(15)
C16D C -0.1610(4) 0.2743(4) -0.02402(16)
C17D C -0.2573(5) 0.3100(4) -0.04764(18)
H8D H -0.3192 0.3196 -0.026
C18D C -0.2623(5) 0.3314(4) -0.10281(19)
H9D H -0.3275 0.3559 -0.1183
C19D C -0.1722(5) 0.3170(4) -0.13517(18)
C20D C -0.0748(5) 0.2845(4) -0.11174(18)
H10D H -0.0126 0.2768 -0.1334
C21D C -0.0693(5) 0.2634(4) -0.05616(17)
H11D H -0.0033 0.2418 -0.0405
C22D C -0.1800(6) 0.3303(5) -0.1944(2)
H12D H -0.1178 0.318 -0.2155
C23D C -0.1895(4) 0.3340(4) 0.25672(17)
H13D H -0.2323 0.3734 0.2296
H14D H -0.2152 0.3565 0.2926
C24D C -0.0721(4) 0.3673(4) 0.2510(2)
H15D H -0.0477 0.3498 0.2141
H16D H -0.0284 0.3244 0.2763
C25D C -0.0509(5) 0.4869(4) 0.2616(2)
H17D H -0.0743 0.504 0.2986
H18D H 0.0274 0.4998 0.2596
C26D C -0.1067(5) 0.5639(5) 0.2229(2)
H19D H -0.0896 0.6383 0.2337
H20D H -0.1852 0.5543 0.2265
C27D C -0.0757(6) 0.5490(6) 0.1638(2)
H21D H -0.1152 0.6006 0.1417
H22D H -0.0936 0.4759 0.1524
H23D H 0.0015 0.5608 0.1596
O1D O -0.2663(10) 0.3574(8) -0.2180(3)
H24? H -0.3612 0.2434 0.7089
O2? O -0.3026(7) 0.1068(7) 0.7263(3)
loop_
_geom_bond_atom_site_label_1
_geom_bond_atom_site_label_2
_geom_bond_site_symmetry_1
_geom_bond_site_symmetry_2
C1 C2 1_555 1_555
C2 C3 1_555 1_555
C3 H1 1_555 1_555
C4 C3 1_555 1_555
H2 C4 1_555 1_555
C5 C4 1_555 1_555
C6 C5 1_555 1_555
H3 C6 1_555 1_555
C7 C2 1_555 1_555
C8 C7 1_555 1_555
C9 C8 1_555 1_555
H4 C9 1_555 1_555
C10 C9 1_555 1_555
H5 C10 1_555 1_555
C11 C10 1_555 1_555
H6 C11 1_555 1_555
C12 C11 1_555 1_555
H7 C12 1_555 1_555
C13 C8 1_555 1_555
C14 C1 1_555 1_555
C15 C1 1_555 1_555
C16 C5 1_555 1_555
C17 C16 1_555 1_555
H8 C17 1_555 1_555
C18 C17 1_555 1_555
H9 C18 1_555 1_555
C19 C18 1_555 1_555
C20 C19 1_555 1_555
H10 C20 1_555 1_555
C21 C16 1_555 1_555
H11 C21 1_555 1_555
C22 C19 1_555 1_555
H12 C22 1_555 1_555
C23 C15 1_555 1_555
H13 C23 1_555 1_555
H14 C23 1_555 1_555
C24 C23 1_555 1_555
H15 C24 1_555 1_555
H16 C24 1_555 1_555
C25 C24 1_555 1_555
H17 C25 1_555 1_555
H18 C25 1_555 1_555
C26 C25 1_555 1_555
H19 C26 1_555 1_555
H20 C26 1_555 1_555
C27 C26 1_555 1_555
H21 C27 1_555 1_555
H22 C27 1_555 1_555
H23 C27 1_555 1_555
O1 C22 1_555 1_555
C1D C15 1_555 1_555
C2D C1D 1_555 1_555
C3D C2D 1_555 1_555
H1D C3D 1_555 1_555
C4D C3D 1_555 1_555
H2D C4D 1_555 1_555
C5D C4D 1_555 1_555
C6D C5D 1_555 1_555
H3D C6D 1_555 1_555
C7D C2D 1_555 1_555
C8D C7D 1_555 1_555
C9D C8D 1_555 1_555
H4D C9D 1_555 1_555
C10D C9D 1_555 1_555
H5D C10D 1_555 1_555
C11D C10D 1_555 1_555
H6D C11D 1_555 1_555
C12D C11D 1_555 1_555
H7D C12D 1_555 1_555
C13D C8D 1_555 1_555
C14D C14 1_555 1_555
C16D C5D 1_555 1_555
C17D C16D 1_555 1_555
H8D C17D 1_555 1_555
C18D C17D 1_555 1_555
H9D C18D 1_555 1_555
C19D C18D 1_555 1_555
C20D C19D 1_555 1_555
H10D C20D 1_555 1_555
C21D C16D 1_555 1_555
H11D C21D 1_555 1_555
C22D C19D 1_555 1_555
H12D C22D 1_555 1_555
C23D C15 1_555 1_555
H13D C23D 1_555 1_555
H14D C23D 1_555 1_555
C24D C23D 1_555 1_555
H15D C24D 1_555 1_555
H16D C24D 1_555 1_555
C25D C24D 1_555 1_555
H17D C25D 1_555 1_555
H18D C25D 1_555 1_555
C26D C25D 1_555 1_555
H19D C26D 1_555 1_555
H20D C26D 1_555 1_555
C27D C26D 1_555 1_555
H21D C27D 1_555 1_555
H22D C27D 1_555 1_555
H23D C27D 1_555 1_555
O1D C22D 1_555 1_555
C6 C7 1_555 1_555
C12 C13 1_555 1_555
C13 C14 1_555 1_555
C20 C21 1_555 1_555
C1D C14D 1_555 1_555
C6D C7D 1_555 1_555
C12D C13D 1_555 1_555
C13D C14D 1_555 1_555
C20D C21D 1_555 1_555

#END
