
#######################################################################
#
#                 Cambridge Crystallographic Data Centre
#                                CCDC 
#
#######################################################################
#
# If this CIF has been generated from an entry in the Cambridge 
# Structural Database, then it will include bibliographic, chemical, 
# crystal, experimental, refinement or atomic coordinate data resulting 
# from the CCDC's data processing and validation procedures.
#
#######################################################################

data_RAGPEX
_chemical_formula_moiety         'C9 H4 Cl1 F2 N1'
_chemical_name_systematic        2-chloro-6,7-difluoroquinoline
_symmetry_cell_setting           monoclinic
_symmetry_space_group_name_H-M   'C 2/c'
_symmetry_Int_Tables_number      15
_space_group_name_Hall           '-C 2yn'
loop_
_symmetry_equiv_pos_site_id
_symmetry_equiv_pos_as_xyz
1 x,y,z
2 -x,y,1/2-z
3 1/2+x,1/2+y,z
4 1/2-x,1/2+y,1/2-z
5 -x,-y,-z
6 x,-y,1/2+z
7 1/2-x,1/2-y,-z
8 1/2+x,1/2-y,1/2+z
_cell_length_a                   12.7832(4)
_cell_length_b                   6.8970(2)
_cell_length_c                   17.9873(6)
_cell_angle_alpha                90
_cell_angle_beta                 93.8580(10)
_cell_angle_gamma                90
_cell_volume                     1582.27
_exptl_crystal_colour            pink
_exptl_crystal_description       plate
_chemical_melting_point          '387 K'
_cell_formula_units_Z            8
loop_
_atom_site_label
_atom_site_type_symbol
_atom_site_fract_x
_atom_site_fract_y
_atom_site_fract_z
Cl1 Cl 0.12446(3) -0.00403(5) 0.191786(19)
F1 F 0.12061(7) 0.71353(13) -0.15308(5)
C1 C 0.11968(8) 0.28291(17) 0.00640(7)
F2 F 0.09553(8) 0.34551(14) -0.19456(4)
C2 C 0.12955(10) 0.18277(18) 0.12696(7)
C3 C 0.14671(10) 0.3717(2) 0.15539(7)
H1 H 0.1560 0.3949 0.2075
C4 C 0.14948(10) 0.51899(19) 0.10541(8)
H2 H 0.1610 0.6483 0.1222
C5 C 0.13514(9) 0.47891(17) 0.02835(7)
C6 C 0.13466(9) 0.62701(18) -0.02636(8)
H3 H 0.1432 0.7590 -0.0122
C7 C 0.12190(10) 0.5772(2) -0.09897(8)
N1 N 0.11696(8) 0.13436(15) 0.05697(6)
C8 C 0.10566(9) 0.23662(19) -0.07042(7)
H4 H 0.0950 0.1063 -0.0862
C9 C 0.10785(10) 0.3825(2) -0.12096(7)
loop_
_geom_bond_atom_site_label_1
_geom_bond_atom_site_label_2
_geom_bond_site_symmetry_1
_geom_bond_site_symmetry_2
Cl1 C2 1_555 1_555
F1 C7 1_555 1_555
C1 C5 1_555 1_555
F2 C9 1_555 1_555
C2 C3 1_555 1_555
C3 H1 1_555 1_555
C4 C3 1_555 1_555
H2 C4 1_555 1_555
C5 C4 1_555 1_555
C6 C5 1_555 1_555
H3 C6 1_555 1_555
C7 C6 1_555 1_555
N1 C1 1_555 1_555
C8 C1 1_555 1_555
H4 C8 1_555 1_555
C9 C7 1_555 1_555
C2 N1 1_555 1_555
C8 C9 1_555 1_555

#END
