
#######################################################################
#
#                 Cambridge Crystallographic Data Centre
#                                CCDC 
#
#######################################################################
#
# If this CIF has been generated from an entry in the Cambridge 
# Structural Database, then it will include bibliographic, chemical, 
# crystal, experimental, refinement or atomic coordinate data resulting 
# from the CCDC's data processing and validation procedures.
#
#######################################################################

data_RAGPUN
_chemical_formula_moiety         'C9 H3 Cl2 F2 N1'
_chemical_name_systematic        2,6-dichloro-5,7-difluoroquinoline
_symmetry_cell_setting           monoclinic
_symmetry_space_group_name_H-M   'P 21/c'
_symmetry_Int_Tables_number      14
_space_group_name_Hall           '-P 2ybc'
loop_
_symmetry_equiv_pos_site_id
_symmetry_equiv_pos_as_xyz
1 x,y,z
2 -x,1/2+y,1/2-z
3 -x,-y,-z
4 x,1/2-y,1/2+z
_cell_length_a                   3.8564(7)
_cell_length_b                   13.0042(17)
_cell_length_c                   17.382(3)
_cell_angle_alpha                90
_cell_angle_beta                 95.118(6)
_cell_angle_gamma                90
_cell_volume                     868.221
_exptl_crystal_colour            colorless
_exptl_crystal_description       needle
_chemical_melting_point          '413 K'
_cell_formula_units_Z            4
loop_
_atom_site_label
_atom_site_type_symbol
_atom_site_fract_x
_atom_site_fract_y
_atom_site_fract_z
Cl1 Cl 1.0271(5) 1.04727(12) 0.73200(9)
Cl2 Cl 0.2211(5) 0.59411(11) 0.42978(9)
F1 F 0.5211(11) 0.7789(3) 0.36989(17)
F2 F 0.2779(10) 0.6161(2) 0.59854(18)
N1 N 0.8370(12) 0.9446(3) 0.6072(3)
C1 C 0.5379(17) 0.7812(4) 0.4482(3)
C2 C 0.6793(16) 0.8623(4) 0.4870(3)
H1 H 0.7675 0.9176 0.4609
C3 C 0.6907(14) 0.8616(4) 0.5679(3)
C4 C 0.8391(15) 0.9416(4) 0.6824(3)
C5 C 0.7135(16) 0.8623(4) 0.7259(3)
H2 H 0.7268 0.8662 0.7795
C6 C 0.5539(14) 0.7774(4) 0.6067(3)
C7 C 0.4129(15) 0.6957(4) 0.5617(3)
C8 C 0.3982(15) 0.6953(4) 0.4830(3)
C9 C 0.5722(15) 0.7798(4) 0.6883(3)
H3 H 0.4877 0.7251 0.7156
loop_
_geom_bond_atom_site_label_1
_geom_bond_atom_site_label_2
_geom_bond_site_symmetry_1
_geom_bond_site_symmetry_2
Cl1 C4 1_555 1_555
Cl2 C8 1_555 1_555
F1 C1 1_555 1_555
F2 C7 1_555 1_555
N1 C3 1_555 1_555
C1 C2 1_555 1_555
C2 H1 1_555 1_555
C3 C2 1_555 1_555
C4 N1 1_555 1_555
C5 C4 1_555 1_555
H2 C5 1_555 1_555
C6 C3 1_555 1_555
C7 C6 1_555 1_555
C8 C1 1_555 1_555
C9 C5 1_555 1_555
H3 C9 1_555 1_555
C6 C9 1_555 1_555
C7 C8 1_555 1_555

#END
