
#######################################################################
#
#                 Cambridge Crystallographic Data Centre
#                                CCDC 
#
#######################################################################
#
# If this CIF has been generated from an entry in the Cambridge 
# Structural Database, then it will include bibliographic, chemical, 
# crystal, experimental, refinement or atomic coordinate data resulting 
# from the CCDC's data processing and validation procedures.
#
#######################################################################

data_RAGPEX01
_chemical_formula_moiety         'C9 H4 Cl1 F2 N1'
_chemical_name_systematic        2-chloro-6,7-difluoroquinoline
_symmetry_cell_setting           monoclinic
_symmetry_space_group_name_H-M   'P 21/c'
_symmetry_Int_Tables_number      14
_space_group_name_Hall           '-P 2ybc'
loop_
_symmetry_equiv_pos_site_id
_symmetry_equiv_pos_as_xyz
1 x,y,z
2 -x,1/2+y,1/2-z
3 -x,-y,-z
4 x,1/2-y,1/2+z
_cell_length_a                   3.7592(2)
_cell_length_b                   19.7216(10)
_cell_length_c                   10.6528(5)
_cell_angle_alpha                90
_cell_angle_beta                 93.894(2)
_cell_angle_gamma                90
_cell_volume                     787.948
_exptl_crystal_colour            colorless
_exptl_crystal_description       needle
_chemical_melting_point          '387 K'
_cell_formula_units_Z            4
loop_
_atom_site_label
_atom_site_type_symbol
_atom_site_fract_x
_atom_site_fract_y
_atom_site_fract_z
Cl1 Cl 1.10376(14) 0.42034(2) 0.30775(5)
F1 F 0.4058(3) 0.68921(6) -0.11773(11)
C1 C 1.1012(5) 0.62001(10) 0.33807(16)
H1 H 1.1822 0.6536 0.3972
F2 F 0.6313(4) 0.78647(6) 0.03851(13)
C2 C 1.1545(5) 0.55324(10) 0.36472(16)
H2 H 1.2730 0.5392 0.4420
C3 C 1.0277(4) 0.50561(9) 0.27372(16)
N1 N 0.8594(4) 0.51954(7) 0.16567(13)
C4 C 0.6255(5) 0.60360(9) 0.02084(15)
H3 H 0.5420 0.5691 -0.0361
C5 C 0.5756(5) 0.66999(10) -0.00769(17)
C6 C 0.6943(5) 0.72189(9) 0.07496(19)
C7 C 0.8651(5) 0.70776(10) 0.18788(18)
H4 H 0.9435 0.7433 0.2432
C8 C 0.9250(4) 0.63933(9) 0.22210(16)
C9 C 0.8061(4) 0.58687(8) 0.13811(15)
loop_
_geom_bond_atom_site_label_1
_geom_bond_atom_site_label_2
_geom_bond_site_symmetry_1
_geom_bond_site_symmetry_2
Cl1 C3 1_555 1_555
F1 C5 1_555 1_555
C1 H1 1_555 1_555
F2 C6 1_555 1_555
C2 C1 1_555 1_555
H2 C2 1_555 1_555
C3 C2 1_555 1_555
N1 C3 1_555 1_555
C4 H3 1_555 1_555
C5 C4 1_555 1_555
C6 C5 1_555 1_555
C7 C6 1_555 1_555
H4 C7 1_555 1_555
C8 C1 1_555 1_555
C9 N1 1_555 1_555
C4 C9 1_555 1_555
C7 C8 1_555 1_555
C8 C9 1_555 1_555

#END
