
#######################################################################
#
#                 Cambridge Crystallographic Data Centre
#                                CCDC 
#
#######################################################################
#
# If this CIF has been generated from an entry in the Cambridge 
# Structural Database, then it will include bibliographic, chemical, 
# crystal, experimental, refinement or atomic coordinate data resulting 
# from the CCDC's data processing and validation procedures.
#
#######################################################################

data_RAGQIC
_chemical_formula_moiety         'C9 H5 F3 N2'
_chemical_name_systematic        5,6,8-trifluoroquinolin-2-amine
_symmetry_cell_setting           monoclinic
_symmetry_space_group_name_H-M   'C 2/c'
_symmetry_Int_Tables_number      15
_space_group_name_Hall           '-C 2yn'
loop_
_symmetry_equiv_pos_site_id
_symmetry_equiv_pos_as_xyz
1 x,y,z
2 -x,y,1/2-z
3 1/2+x,1/2+y,z
4 1/2-x,1/2+y,1/2-z
5 -x,-y,-z
6 x,-y,1/2+z
7 1/2-x,1/2-y,-z
8 1/2+x,1/2-y,1/2+z
_cell_length_a                   7.6135(3)
_cell_length_b                   15.3537(6)
_cell_length_c                   13.7956(4)
_cell_angle_alpha                90
_cell_angle_beta                 94.006(2)
_cell_angle_gamma                90
_cell_volume                     1608.7
_exptl_crystal_colour            yellow
_exptl_crystal_description       plate
_chemical_melting_point          '506 K'
_cell_formula_units_Z            8
loop_
_atom_site_label
_atom_site_type_symbol
_atom_site_fract_x
_atom_site_fract_y
_atom_site_fract_z
F1 F 0.9051(2) 0.03414(7) 0.10798(11)
F2 F 0.74842(19) 0.13953(8) 0.23243(8)
F3 F 1.08650(14) 0.27767(6) -0.06544(7)
N1 N 0.94398(17) 0.38974(8) 0.06003(9)
N2 N 0.8855(3) 0.52849(10) 0.10965(13)
H1 H 0.846(3) 0.5641(13) 0.1496(15)
H2 H 0.936(3) 0.5493(15) 0.0618(13)
C1 C 0.9126(2) 0.12130(10) 0.09657(13)
C2 C 1.0002(2) 0.15560(11) 0.02003(13)
H3 H 1.0537 0.1193 -0.0231
C3 C 1.0054(2) 0.24375(10) 0.01007(11)
C4 C 0.93044(18) 0.30234(10) 0.07399(10)
C5 C 0.8713(2) 0.44201(10) 0.12229(11)
C6 C 0.8353(2) 0.17457(12) 0.15933(12)
C7 C 0.8418(2) 0.26514(10) 0.15102(11)
C8 C 0.7790(2) 0.40993(12) 0.20213(12)
H4 H 0.7292 0.4487 0.2442
C9 C 0.7649(2) 0.32349(12) 0.21585(11)
H5 H 0.7052 0.3021 0.2674
loop_
_geom_bond_atom_site_label_1
_geom_bond_atom_site_label_2
_geom_bond_site_symmetry_1
_geom_bond_site_symmetry_2
F1 C1 1_555 1_555
F2 C6 1_555 1_555
F3 C3 1_555 1_555
N1 C4 1_555 1_555
N2 H1 1_555 1_555
H2 N2 1_555 1_555
C1 C2 1_555 1_555
C2 H3 1_555 1_555
C3 C2 1_555 1_555
C4 C3 1_555 1_555
C5 N1 1_555 1_555
C6 C1 1_555 1_555
C7 C4 1_555 1_555
C8 C5 1_555 1_555
H4 C8 1_555 1_555
C9 C7 1_555 1_555
H5 C9 1_555 1_555
N2 C5 1_555 1_555
C6 C7 1_555 1_555
C8 C9 1_555 1_555

#END
