
#######################################################################
#
#                 Cambridge Crystallographic Data Centre
#                                CCDC 
#
#######################################################################
#
# If this CIF has been generated from an entry in the Cambridge 
# Structural Database, then it will include bibliographic, chemical, 
# crystal, experimental, refinement or atomic coordinate data resulting 
# from the CCDC's data processing and validation procedures.
#
#######################################################################

data_RAGQOI
_chemical_formula_moiety         'C9 H6 F2 N2'
_chemical_name_systematic        5,7-difluoroquinolin-2-amine
_symmetry_cell_setting           triclinic
_symmetry_space_group_name_H-M   'P -1'
_symmetry_Int_Tables_number      2
_space_group_name_Hall           '-P 1'
loop_
_symmetry_equiv_pos_site_id
_symmetry_equiv_pos_as_xyz
1 x,y,z
2 -x,-y,-z
_cell_length_a                   7.2824(4)
_cell_length_b                   7.3106(5)
_cell_length_c                   7.4646(4)
_cell_angle_alpha                86.466(2)
_cell_angle_beta                 85.341(2)
_cell_angle_gamma                81.889(2)
_cell_volume                     391.623
_exptl_crystal_colour            yellow
_exptl_crystal_description       plate/prism
_chemical_melting_point          '431 K'
_cell_formula_units_Z            2
loop_
_atom_site_label
_atom_site_type_symbol
_atom_site_fract_x
_atom_site_fract_y
_atom_site_fract_z
F1 F -0.27952(12) 0.78063(11) 0.44679(11)
F2 F -0.25792(12) 1.39806(11) 0.24926(13)
N1 N 0.27261(13) 0.95811(13) 0.13233(13)
N2 N 0.52845(16) 0.74499(15) 0.06623(17)
H1 H 0.589(2) 0.6398(15) 0.091(2)
H2 H 0.581(2) 0.8314(19) 0.012(2)
C1 C -0.27591(18) 1.08978(19) 0.34770(17)
H3 H -0.3980 1.1215 0.3938
C2 C -0.18812(18) 0.91407(18) 0.36066(16)
C3 C -0.00502(17) 0.85944(16) 0.29183(15)
C4 C 0.09413(16) 0.99766(15) 0.20432(14)
C5 C 0.35542(17) 0.78456(16) 0.14569(16)
C6 C 0.08856(19) 0.67640(17) 0.30515(16)
H4 H 0.0281 0.5824 0.3619
C7 C 0.2656(2) 0.63863(16) 0.23538(17)
H5 H 0.3288 0.5191 0.2454
C8 C -0.17275(18) 1.22034(17) 0.26134(17)
C9 C 0.00535(17) 1.18170(16) 0.19062(16)
H6 H 0.0675 1.2748 0.1343
loop_
_geom_bond_atom_site_label_1
_geom_bond_atom_site_label_2
_geom_bond_site_symmetry_1
_geom_bond_site_symmetry_2
F1 C2 1_555 1_555
F2 C8 1_555 1_555
N1 C4 1_555 1_555
N2 H1 1_555 1_555
H2 N2 1_555 1_555
C1 H3 1_555 1_555
C2 C1 1_555 1_555
C3 C2 1_555 1_555
C4 C3 1_555 1_555
C5 N1 1_555 1_555
C6 C3 1_555 1_555
H4 C6 1_555 1_555
C7 C5 1_555 1_555
H5 C7 1_555 1_555
C8 C1 1_555 1_555
C9 C4 1_555 1_555
H6 C9 1_555 1_555
N2 C5 1_555 1_555
C6 C7 1_555 1_555
C8 C9 1_555 1_555

#END
