
#######################################################################
#
#                 Cambridge Crystallographic Data Centre
#                                CCDC 
#
#######################################################################
#
# If this CIF has been generated from an entry in the Cambridge 
# Structural Database, then it will include bibliographic, chemical, 
# crystal, experimental, refinement or atomic coordinate data resulting 
# from the CCDC's data processing and validation procedures.
#
#######################################################################

data_RAGQAU
_chemical_formula_moiety         'C9 H4 Cl1 F3 N2'
_chemical_name_systematic        2-chloro-5,6,8-trifluoroquinolin-7-amine
_symmetry_cell_setting           monoclinic
_symmetry_space_group_name_H-M   'P 21/c'
_symmetry_Int_Tables_number      14
_space_group_name_Hall           '-P 2ybc'
loop_
_symmetry_equiv_pos_site_id
_symmetry_equiv_pos_as_xyz
1 x,y,z
2 -x,1/2+y,1/2-z
3 -x,-y,-z
4 x,1/2-y,1/2+z
_cell_length_a                   7.2141(4)
_cell_length_b                   9.8194(5)
_cell_length_c                   12.8314(8)
_cell_angle_alpha                90
_cell_angle_beta                 103.954(2)
_cell_angle_gamma                90
_cell_volume                     882.129
_exptl_crystal_colour            bronze
_exptl_crystal_description       needle/prism
_chemical_melting_point          '441 K'
_cell_formula_units_Z            4
loop_
_atom_site_label
_atom_site_type_symbol
_atom_site_fract_x
_atom_site_fract_y
_atom_site_fract_z
Cl1 Cl 0.82987(6) 0.12268(4) 0.90895(4)
F1 F 0.65750(16) 0.88595(11) 1.06581(9)
F2 F 0.83675(16) 0.68868(13) 1.19870(7)
F3 F 0.54279(15) 0.58363(9) 0.77526(7)
N1 N 0.5047(2) 0.83892(14) 0.85278(12)
H1 H 0.504(3) 0.9194(13) 0.8768(17)
H2 H 0.460(3) 0.825(2) 0.7858(9)
N2 N 0.72052(16) 0.37579(12) 0.90123(10)
C1 C 0.59586(19) 0.73748(15) 0.91686(11)
C2 C 0.6158(2) 0.60756(15) 0.88059(11)
C3 C 0.70768(18) 0.50111(15) 0.94579(11)
C4 C 0.81007(19) 0.28169(15) 0.96598(12)
C5 C 0.8925(2) 0.29631(18) 1.07627(13)
H3 H 0.9547 0.2221 1.1180
C6 C 0.6746(2) 0.75979(16) 1.02762(12)
C7 C 0.7648(2) 0.66046(18) 1.09398(12)
C8 C 0.78576(19) 0.52800(16) 1.05673(11)
C9 C 0.8801(2) 0.42054(19) 1.12137(12)
H4 H 0.9346 0.4347 1.1957
loop_
_geom_bond_atom_site_label_1
_geom_bond_atom_site_label_2
_geom_bond_site_symmetry_1
_geom_bond_site_symmetry_2
Cl1 C4 1_555 1_555
F1 C6 1_555 1_555
F2 C7 1_555 1_555
F3 C2 1_555 1_555
N1 H1 1_555 1_555
H2 N1 1_555 1_555
N2 C3 1_555 1_555
C1 N1 1_555 1_555
C2 C1 1_555 1_555
C3 C2 1_555 1_555
C4 N2 1_555 1_555
C5 C4 1_555 1_555
H3 C5 1_555 1_555
C6 C1 1_555 1_555
C7 C6 1_555 1_555
C8 C3 1_555 1_555
C9 C5 1_555 1_555
H4 C9 1_555 1_555
C7 C8 1_555 1_555
C8 C9 1_555 1_555

#END
