
#######################################################################
#
#                 Cambridge Crystallographic Data Centre
#                                CCDC 
#
#######################################################################
#
# If this CIF has been generated from an entry in the Cambridge 
# Structural Database, then it will include bibliographic, chemical, 
# crystal, experimental, refinement or atomic coordinate data resulting 
# from the CCDC's data processing and validation procedures.
#
#######################################################################

data_RAGREZ
_chemical_formula_moiety         'C9 H6 Cl1 F1 N2'
_chemical_name_systematic        2-chloro-6-fluoroquinolin-8-amine
_symmetry_cell_setting           orthorhombic
_symmetry_space_group_name_H-M   'P 21 21 21'
_symmetry_Int_Tables_number      19
_space_group_name_Hall           'P 2ac 2ab'
loop_
_symmetry_equiv_pos_site_id
_symmetry_equiv_pos_as_xyz
1 x,y,z
2 1/2+x,1/2-y,-z
3 -x,1/2+y,1/2-z
4 1/2-x,-y,1/2+z
_cell_length_a                   3.83960(10)
_cell_length_b                   8.5820(4)
_cell_length_c                   25.3760(12)
_cell_angle_alpha                90
_cell_angle_beta                 90
_cell_angle_gamma                90
_cell_volume                     836.176
_exptl_crystal_colour            colorless
_exptl_crystal_description       needle
_chemical_melting_point          '395 K'
_cell_formula_units_Z            4
loop_
_atom_site_label
_atom_site_type_symbol
_atom_site_fract_x
_atom_site_fract_y
_atom_site_fract_z
Cl1 Cl -0.32914(15) 1.19942(7) 0.94284(2)
F1 F 0.4363(5) 0.45686(18) 0.79889(6)
N1 N -0.1161(4) 0.92142(19) 0.92021(6)
N2 N -0.0221(6) 0.6354(2) 0.96216(7)
H1 H -0.004(9) 0.5489(18) 0.9772(10)
H2 H -0.135(7) 0.707(2) 0.9773(11)
C1 C 0.2078(6) 0.5427(3) 0.87922(8)
H3 H 0.2428 0.4430 0.8925
C2 C 0.0658(5) 0.6576(2) 0.91052(7)
C3 C 0.0210(5) 0.8094(2) 0.88841(6)
C4 C -0.1569(5) 1.0592(2) 0.90033(7)
C5 C -0.0712(6) 1.1034(3) 0.84852(9)
H4 H -0.1077 1.2045 0.8366
C6 C 0.2981(6) 0.5780(3) 0.82746(8)
C7 C 0.2624(6) 0.7174(3) 0.80439(8)
H5 H 0.3282 0.7339 0.7696
C8 C 0.1201(5) 0.8384(3) 0.83544(7)
C9 C 0.0672(6) 0.9919(3) 0.81673(8)
H6 H 0.1278 1.0169 0.7823
loop_
_geom_bond_atom_site_label_1
_geom_bond_atom_site_label_2
_geom_bond_site_symmetry_1
_geom_bond_site_symmetry_2
Cl1 C4 1_555 1_555
F1 C6 1_555 1_555
N1 C3 1_555 1_555
N2 H1 1_555 1_555
H2 N2 1_555 1_555
C1 H3 1_555 1_555
C2 N2 1_555 1_555
C3 C2 1_555 1_555
C4 N1 1_555 1_555
C5 C4 1_555 1_555
H4 C5 1_555 1_555
C6 C1 1_555 1_555
C7 C6 1_555 1_555
H5 C7 1_555 1_555
C8 C3 1_555 1_555
C9 C5 1_555 1_555
H6 C9 1_555 1_555
C1 C2 1_555 1_555
C7 C8 1_555 1_555
C8 C9 1_555 1_555

#END
