
#######################################################################
#
#                 Cambridge Crystallographic Data Centre
#                                CCDC 
#
#######################################################################
#
# If this CIF has been generated from an entry in the Cambridge 
# Structural Database, then it will include bibliographic, chemical, 
# crystal, experimental, refinement or atomic coordinate data resulting 
# from the CCDC's data processing and validation procedures.
#
#######################################################################

data_RAGRID
_chemical_formula_moiety         'C15 H10 Cl1 F2 N1 O1,H2 O1'
_chemical_name_systematic        
'N-(4-chloro-3,5-difluorophenyl)-3-phenylprop-2-enamide monohydrate'
_symmetry_cell_setting           orthorhombic
_symmetry_space_group_name_H-M   'P 21 21 21'
_symmetry_Int_Tables_number      19
_space_group_name_Hall           'P 2ac 2ab'
loop_
_symmetry_equiv_pos_site_id
_symmetry_equiv_pos_as_xyz
1 x,y,z
2 1/2+x,1/2-y,-z
3 -x,1/2+y,1/2-z
4 1/2-x,-y,1/2+z
_cell_length_a                   4.5789(2)
_cell_length_b                   12.9024(5)
_cell_length_c                   24.2402(10)
_cell_angle_alpha                90
_cell_angle_beta                 90
_cell_angle_gamma                90
_cell_volume                     1432.08
_exptl_crystal_colour            colorless
_exptl_crystal_description       plate
_chemical_melting_point          '457 K'
_cell_formula_units_Z            4
loop_
_atom_site_label
_atom_site_type_symbol
_atom_site_fract_x
_atom_site_fract_y
_atom_site_fract_z
Cl1 Cl 1.72774(10) 0.65495(4) 0.035461(18)
F1 F 1.4703(3) 0.83225(8) 0.09322(5)
O1 O 0.7971(3) 0.80279(9) 0.24703(5)
C1 C 1.0772(4) 0.64597(13) 0.17569(7)
N1 N 0.8731(3) 0.63549(11) 0.21858(6)
H1 H 0.8174 0.5715 0.2253
F2 F 1.4796(3) 0.46944(9) 0.08871(6)
C2 C 1.1721(4) 0.74117(13) 0.15512(7)
H2 H 1.1001 0.8045 0.1698
C3 C 1.3749(4) 0.74047(14) 0.11257(7)
C4 C 1.4826(4) 0.65131(15) 0.08902(7)
C5 C 1.3810(4) 0.55874(14) 0.11048(8)
C6 C 1.1835(4) 0.55427(13) 0.15315(8)
H3 H 1.1203 0.4892 0.1671
C7 C 0.7483(4) 0.70844(12) 0.25119(6)
C8 C 0.5438(4) 0.66415(13) 0.29181(7)
H4 H 0.5001 0.5923 0.2899
C9 C 0.4176(4) 0.72100(13) 0.33111(7)
H5 H 0.4647 0.7927 0.3320
C10 C 0.2140(4) 0.68356(14) 0.37293(7)
C11 C 0.1666(5) 0.57732(16) 0.38248(9)
H6 H 0.2665 0.5271 0.3609
C12 C -0.0252(6) 0.54610(19) 0.42326(10)
H7 H -0.0543 0.4743 0.4299
C13 C -0.1758(5) 0.6186(2) 0.45455(8)
H8 H -0.3085 0.5966 0.4823
C14 C -0.1316(5) 0.72249(19) 0.44513(8)
H9 H -0.2355 0.7724 0.4662
C15 C 0.0635(5) 0.75475(16) 0.40510(7)
H10 H 0.0949 0.8268 0.3995
O2 O 0.2865(4) 0.93006(10) 0.25549(6)
H11 H 0.149(5) 0.8861(19) 0.2534(9)
H12 H 0.434(8) 0.896(2) 0.2545(12)
loop_
_geom_bond_atom_site_label_1
_geom_bond_atom_site_label_2
_geom_bond_site_symmetry_1
_geom_bond_site_symmetry_2
Cl1 C4 1_555 1_555
F1 C3 1_555 1_555
O1 C7 1_555 1_555
C1 N1 1_555 1_555
N1 H1 1_555 1_555
F2 C5 1_555 1_555
C2 C1 1_555 1_555
H2 C2 1_555 1_555
C3 C2 1_555 1_555
C4 C3 1_555 1_555
C5 C4 1_555 1_555
C6 C1 1_555 1_555
H3 C6 1_555 1_555
C7 N1 1_555 1_555
C8 C7 1_555 1_555
H4 C8 1_555 1_555
C9 C8 1_555 1_555
H5 C9 1_555 1_555
C10 C9 1_555 1_555
C11 C10 1_555 1_555
H6 C11 1_555 1_555
C12 C11 1_555 1_555
H7 C12 1_555 1_555
C13 C12 1_555 1_555
H8 C13 1_555 1_555
C14 C13 1_555 1_555
H9 C14 1_555 1_555
C15 C10 1_555 1_555
H10 C15 1_555 1_555
O2 H11 1_555 1_555
H12 O2 1_555 1_555
C5 C6 1_555 1_555
C14 C15 1_555 1_555

#END
