
#######################################################################
#
#                 Cambridge Crystallographic Data Centre
#                                CCDC 
#
#######################################################################
#
# If this CIF has been generated from an entry in the Cambridge 
# Structural Database, then it will include bibliographic, chemical, 
# crystal, experimental, refinement or atomic coordinate data resulting 
# from the CCDC's data processing and validation procedures.
#
#######################################################################

data_RAGXAY
_chemical_name_common            
"5,5':11,11':17,17':23,23'-tetrakis(m-xylenedioxy)-bis(2,8,14,20-tetra-n-butyl-6,10:12,16:18,22:24,4-o,o'-tetrakis(ethylene)calix[4]resorcinarene) p-methoxytoluene clathrate p-methoxytoluene solvate"
_chemical_formula_moiety         'C144 H168 O24,5(C8 H10 O1)'
_chemical_name_systematic        
'Hemicarcerand EM p-methoxytoluene clathrate p-methoxytoluene solvate'
_symmetry_cell_setting           triclinic
_symmetry_space_group_name_H-M   'P -1'
_symmetry_Int_Tables_number      2
_space_group_name_Hall           '-P 1'
loop_
_symmetry_equiv_pos_site_id
_symmetry_equiv_pos_as_xyz
1 x,y,z
2 -x,-y,-z
_cell_length_a                   16.864(6)
_cell_length_b                   18.652(7)
_cell_length_c                   16.034(6)
_cell_angle_alpha                104.587(10)
_cell_angle_beta                 117.934(8)
_cell_angle_gamma                101.758(10)
_cell_volume                     3995.21
_exptl_crystal_colour            colorless
_cell_formula_units_Z            1
loop_
_atom_site_label
_atom_site_type_symbol
_atom_site_fract_x
_atom_site_fract_y
_atom_site_fract_z
C9 C 0.9624(19) 0.5242(16) 0.6138(21)
H11 H 1.0094(37) 0.5015(19) 0.617(16)
H12 H 0.9804(79) 0.5534(90) 0.6826(61)
H13 H 0.9599(49) 0.5596(81) 0.579(10)
C10 C 0.8688(10) 0.4612(9) 0.5585(12)
C11 C 0.8035(14) 0.4748(8) 0.5846(11)
C12 C 0.7116(13) 0.4159(12) 0.5339(14)
C13 C 0.6850(9) 0.3433(10) 0.4572(13)
C14 C 0.7503(13) 0.3296(8) 0.4310(10)
C15 C 0.8422(11) 0.3886(11) 0.4817(13)
O2 O 0.6010(25) 0.3065(21) 0.4217(27)
C16 C 0.5744(27) 0.2315(24) 0.3597(29)
H14 H 0.5078(79) 0.2121(77) 0.304(16)
H15 H 0.582(25) 0.1984(47) 0.3979(72)
H16 H 0.614(18) 0.2298(40) 0.332(22)
C17 C 0.9036(12) 1.0171(15) 0.4217(16)
C18 C 0.9982(20) 1.0442(12) 0.4782(20)
C19 C 0.9110(15) 0.9572(13) 0.4590(20)
C20 C 0.8315(10) 0.8504(9) 0.4679(11)
O3 O 0.8241(20) 0.9024(17) 0.4344(21)
C19A C 1.0890(15) 1.0428(13) 0.5410(20)
C17A C 1.0964(12) 0.9829(15) 0.5783(16)
C18A C 1.0018(20) 0.9558(12) 0.5218(20)
O3A O 1.1759(20) 1.0976(17) 0.5656(21)
C20A C 1.1685(10) 1.1496(9) 0.5321(11)
O4 O 0.7181(5) 1.0308(4) 0.6004(5)
C21 C 0.7753(18) 1.0542(13) 0.5570(18)
H17 H 0.7880(18) 1.0100(13) 0.5258(18)
H18 H 0.8358(18) 1.0993(13) 0.6082(18)
C22 C 0.7017(17) 1.0769(15) 0.4757(19)
H19 H 0.6886(17) 1.1198(15) 0.5090(19)
H20 H 0.7276(17) 1.0948(15) 0.4385(19)
O5 O 0.6210(5) 1.0122(4) 0.4112(5)
C23 C 0.6111(7) 0.9378(6) 0.3505(7)
C24 C 0.5802(7) 0.8710(6) 0.3668(7)
C25 C 0.5651(7) 0.7988(6) 0.2989(7)
H21 H 0.5448(7) 0.7525(6) 0.3075(7)
C26 C 0.5788(6) 0.7920(5) 0.2188(7)
C27 C 0.6087(6) 0.8599(5) 0.2056(7)
C28 C 0.6276(6) 0.9347(5) 0.2735(7)
O6 O 0.6597(5) 1.0027(4) 0.2614(5)
C29 C 0.5824(8) 1.0215(6) 0.1882(8)
H22 H 0.5422(8) 0.9762(6) 0.1220(8)
H23 H 0.5417(8) 1.0318(6) 0.2133(8)
C30 C 0.6247(7) 1.0919(6) 0.1763(7)
C31 C 0.5600(9) 1.1191(7) 0.1140(9)
H24 H 0.4938(9) 1.0931(7) 0.0827(9)
C32 C 0.5940(8) 1.1853(7) 0.0983(9)
H25 H 0.5503(8) 1.2025(7) 0.0544(9)
C33 C 0.6915(8) 1.2258(7) 0.1469(8)
H26 H 0.7137(8) 1.2709(7) 0.1372(8)
C34 C 0.7568(6) 1.1997(5) 0.2101(7)
C35 C 0.7234(6) 1.1325(5) 0.2243(7)
H27 H 0.7674(6) 1.1145(5) 0.2664(7)
C36 C 0.8615(7) 1.2446(6) 0.2585(8)
H28 H 0.8739(7) 1.2448(6) 0.2053(8)
H29 H 0.8793(7) 1.2996(6) 0.3014(8)
O7 O 0.9189(5) 1.2094(4) 0.3197(5)
O8 O 0.6179(5) 0.8564(4) 0.1236(5)
C37 C 0.6993(15) 0.8898(14) 0.1273(17)
H30 H 0.7292(15) 0.9469(14) 0.1690(17)
H31 H 0.6850(15) 0.8810(14) 0.0587(17)
C38 C 0.7630(20) 0.8487(14) 0.1747(20)
H32 H 0.8231(20) 0.8672(14) 0.1785(20)
H33 H 0.7777(20) 0.8581(14) 0.2436(20)
O9 O 0.7075(5) 0.7632(4) 0.1064(5)
C39 C 0.7223(7) 0.7218(6) 0.1676(7)
C40 C 0.6543(6) 0.6939(5) 0.1895(7)
C41 C 0.6752(7) 0.6524(5) 0.2529(7)
H34 H 0.6310(7) 0.6352(5) 0.2697(7)
C42 C 0.7590(7) 0.6348(6) 0.2929(7)
C43 C 0.8215(7) 0.6627(6) 0.2659(8)
C44 C 0.8053(7) 0.7031(6) 0.2038(7)
O10 O 0.8721(5) 0.7320(4) 0.1818(5)
C45 C 0.8527(9) 0.6785(7) 0.0874(9)
H35 H 0.7865(9) 0.6650(7) 0.0323(9)
H36 H 0.8601(9) 0.6295(7) 0.0937(9)
C46 C 0.9214(7) 0.7166(5) 0.0617(7)
C47 C 0.9131(8) 0.6725(7) -0.0272(8)
H37 H 0.8683(8) 0.6201(7) -0.0669(8)
C48 C 0.9696(9) 0.7048(7) -0.0575(10)
H38 H 0.9619(9) 0.6752(7) -0.1189(10)
C49 C 1.0386(8) 0.7816(6) 0.0033(8)
H39 H 1.0787(8) 0.8029(6) -0.0162(8)
C50 C 1.0486(7) 0.8268(5) 0.0924(7)
C51 C 0.9900(7) 0.7927(6) 0.1213(7)
H40 H 0.9974(7) 0.8221(6) 0.1825(7)
C52 C 1.1263(9) 0.9077(7) 0.1580(9)
H41 H 1.1886(9) 0.9027(7) 0.1925(9)
H42 H 1.1265(9) 0.9359(7) 0.1148(9)
O11 O 1.1129(5) 0.9526(4) 0.2330(6)
O12 O 0.9028(7) 0.6402(6) 0.2948(7)
C53 C 0.9967(18) 0.6809(15) 0.3524(19)
H43 H 1.0191(18) 0.7128(15) 0.3228(19)
H44 H 1.0342(18) 0.6479(15) 0.3710(19)
C54 C 0.9927(47) 0.7243(31) 0.4298(45)
H45 H 0.9370(47) 0.7396(31) 0.4030(45)
H46 H 1.0507(47) 0.7725(31) 0.4759(45)
O13 O 0.9843(5) 0.6731(4) 0.4866(5)
C55 C 0.9323(7) 0.6920(6) 0.5287(7)
C56 C 0.8333(7) 0.6521(6) 0.4744(7)
C57 C 0.7851(7) 0.6727(5) 0.5231(7)
H47 H 0.7183(7) 0.6466(5) 0.4867(7)
C58 C 0.8326(7) 0.7299(5) 0.6227(7)
C59 C 0.9341(7) 0.7688(6) 0.6777(7)
C60 C 1.0177(7) 1.2511(6) 0.3715(8)
O14 O 0.9874(5) 0.8217(4) 0.7775(5)
C61 C 1.0164(17) 0.8969(12) 0.7903(16)
H48 H 0.9790(17) 0.9010(12) 0.7250(16)
H49 H 1.0839(17) 0.9156(12) 0.8126(16)
C62 C 1.0052(18) 0.9470(15) 0.8657(21)
H50 H 1.0347(18) 0.9393(15) 0.9295(21)
H51 H 1.0315(18) 1.0031(15) 0.8799(21)
O15 O 0.9102(7) 0.9187(5) 0.8153(7)
C63 C 0.8313(7) 0.9060(6) 0.7221(8)
C64 C 0.7624(7) 0.8311(5) 0.6550(7)
C65 C 0.6795(7) 0.8218(6) 0.5689(7)
H52 H 0.6339(7) 0.7705(6) 0.5228(7)
C66 C 0.6608(7) 0.8876(6) 0.5478(7)
C67 C 0.7328(7) 0.9621(6) 0.6164(7)
C68 C 1.1852(7) 1.0276(6) 0.2983(8)
C69 C 0.7799(6) 0.7564(5) 0.6735(7)
H53 H 0.8255(6) 0.7745(5) 0.7479(7)
C70 C 0.6910(7) 0.6910(5) 0.6445(7)
H54 H 0.6548(7) 0.7151(5) 0.6669(7)
H55 H 0.6502(7) 0.6635(5) 0.5700(7)
C71 C 0.7121(7) 0.6306(6) 0.6899(8)
H56 H 0.7446(7) 0.6567(6) 0.7640(8)
H57 H 0.7564(7) 0.6125(6) 0.6762(8)
C72 C 0.6233(8) 0.5581(6) 0.6491(8)
H58 H 0.5735(8) 0.5763(6) 0.6494(8)
H59 H 0.5987(8) 0.5258(6) 0.5781(8)
C73 C 0.6413(8) 0.5063(7) 0.7091(9)
H60 H 0.6596(8) 0.5369(7) 0.7783(9)
H61 H 0.6953(8) 0.4922(7) 0.7146(9)
C74 C 0.5530(10) 0.4291(8) 0.6602(11)
H62 H 0.5646(31) 0.4036(33) 0.7075(33)
H63 H 0.5425(46) 0.3936(26) 0.5979(43)
H64 H 0.4967(17) 0.4420(10) 0.6446(72)
C75 C 0.7800(6) 0.5925(5) 0.3643(7)
H65 H 0.8266(6) 0.5702(5) 0.3603(7)
C76 C 0.6928(7) 0.5207(6) 0.3305(7)
H66 H 0.6415(7) 0.5387(6) 0.3262(7)
H67 H 0.7112(7) 0.4986(6) 0.3823(7)
C77 C 0.6540(9) 0.4546(7) 0.2255(9)
H68 H 0.6343(9) 0.4769(7) 0.1739(9)
H69 H 0.7066(9) 0.4387(7) 0.2296(9)
C78 C 0.5724(12) 0.3831(10) 0.1906(13)
H70 H 0.5575(12) 0.3490(10) 0.1243(13)
H71 H 0.6007(12) 0.3576(10) 0.2368(13)
C79 C 0.4803(33) 0.3712(27) 0.1762(35)
H72 H 0.4841(33) 0.3886(27) 0.2407(35)
H73 H 0.4347(33) 0.3164(27) 0.1325(35)
C80 C 0.4574(32) 0.4307(25) 0.1192(34)
H74 H 0.424(33) 0.459(22) 0.141(30)
H75 H 0.417(31) 0.4004(41) 0.0459(34)
H76 H 0.5170(38) 0.468(19) 0.137(31)
C81 C 0.5620(7) 0.7114(5) 0.1455(7)
H77 H 0.5503(7) 0.7180(5) 0.0825(7)
C82 C 0.4716(7) 0.6432(6) 0.1129(8)
H78 H 0.4691(7) 0.5936(6) 0.0720(8)
H79 H 0.4776(7) 0.6384(6) 0.1743(8)
C83 C 0.3775(8) 0.6532(7) 0.0519(9)
H80 H 0.3790(8) 0.7015(7) 0.0943(9)
H81 H 0.3734(8) 0.6610(7) -0.0074(9)
C84 C 0.2888(9) 0.5864(8) 0.0149(11)
H82 H 0.2931(9) 0.5776(8) 0.0737(11)
H83 H 0.2858(9) 0.5383(8) -0.0295(11)
C85 C 0.1940(12) 0.5997(10) -0.0448(14)
H84 H 0.1990(12) 0.6491(10) -0.0006(14)
H85 H 0.1900(12) 0.6076(10) -0.1039(14)
C86 C 0.1023(16) 0.5367(13) -0.0819(17)
H86 H 0.0497(22) 0.5540(47) -0.113(13)
H87 H 0.1052(52) 0.5265(77) -0.0250(28)
H88 H 0.0921(68) 0.4887(35) -0.132(11)
C87 C 0.5659(7) 0.8774(6) 0.4543(7)
H89 H 0.5548(7) 0.9270(6) 0.4723(7)
C88 C 0.4785(7) 0.8100(6) 0.4267(8)
H90 H 0.4862(7) 0.7598(6) 0.4051(8)
H91 H 0.4777(7) 0.8166(6) 0.4882(8)
C89 C 0.3837(8) 0.8046(7) 0.3443(9)
H92 H 0.3831(8) 0.7975(7) 0.2820(9)
H93 H 0.3741(8) 0.8538(7) 0.3655(9)
C90 C 0.3001(11) 0.7329(9) 0.3222(12)
H94 H 0.3103(11) 0.6839(9) 0.3018(12)
H95 H 0.3009(11) 0.7403(9) 0.3848(12)
C91 C 0.2065(16) 0.7258(13) 0.2416(17)
H96 H 0.2073(16) 0.7245(13) 0.1812(17)
H97 H 0.1919(16) 0.7716(13) 0.2650(17)
C92 C 0.1262(19) 0.6460(15) 0.2134(21)
H98 H 0.0672(52) 0.6345(75) 0.1502(95)
H99 H 0.115(12) 0.6527(50) 0.2677(83)
H100 H 0.1480(73) 0.6026(31) 0.205(17)
C55A C 1.0677(7) 1.3080(6) 0.4713(7)
O13A O 1.0157(5) 1.3269(4) 0.5134(5)
C54A C 1.0073(47) 1.2757(31) 0.5702(45)
C53A C 1.0033(18) 1.3191(15) 0.6476(19)
O12A O 1.0972(7) 1.3598(6) 0.7052(7)
C43A C 1.1785(7) 1.3373(6) 0.7341(8)
C42A C 1.2410(7) 1.3652(6) 0.7071(7)
C41A C 1.3248(7) 1.3476(5) 0.7471(7)
C40A C 1.3457(6) 1.3061(5) 0.8105(7)
C39A C 1.2777(7) 1.2782(6) 0.8324(7)
O9A O 1.2925(5) 1.2368(4) 0.8936(5)
C38A C 1.2370(20) 1.1513(14) 0.8253(20)
C37A C 1.3007(15) 1.1102(14) 0.8727(17)
O8A O 1.3821(5) 1.1436(4) 0.8764(5)
C27A C 1.3913(6) 1.1401(5) 0.7944(7)
C26A C 1.4212(6) 1.2080(5) 0.7812(7)
C25A C 1.4349(7) 1.2012(6) 0.7011(7)
C24A C 1.4198(7) 1.1290(6) 0.6332(7)
C23A C 1.3889(7) 1.0622(6) 0.6495(7)
O5A O 1.3790(5) 0.9878(4) 0.5888(5)
C22A C 1.2983(17) 0.9231(15) 0.5243(19)
C21A C 1.2247(18) 0.9458(13) 0.4430(18)
O4A O 1.2819(5) 0.9692(4) 0.3996(5)
C67A C 1.2672(7) 1.0379(6) 0.3836(7)
C66A C 1.3392(7) 1.1124(6) 0.4522(7)
C65A C 1.3205(7) 1.1782(6) 0.4311(7)
C64A C 1.2376(7) 1.1689(5) 0.3450(7)
C63A C 1.1687(7) 1.0940(6) 0.2779(8)
O15A O 1.0898(7) 1.0813(5) 0.1847(7)
C62A C 0.9948(18) 1.0530(15) 0.1343(21)
C61A C 0.9836(17) 1.1031(12) 0.2097(16)
O14A O 1.0126(5) 1.1783(4) 0.2225(5)
C59A C 1.0659(7) 1.2312(6) 0.3223(7)
C58A C 1.1674(7) 1.2701(5) 0.3773(7)
C57A C 1.2149(7) 1.3273(5) 0.4769(7)
C56A C 1.1667(7) 1.3479(6) 0.5256(7)
C75A C 1.2200(6) 1.4075(5) 0.6357(7)
H65A H 1.1734(6) 1.4298(5) 0.6397(7)
C76A C 1.3072(7) 1.4793(6) 0.6695(7)
H66A H 1.3585(7) 1.4613(6) 0.6738(7)
H67A H 1.2888(7) 1.5014(6) 0.6177(7)
C77A C 1.3460(9) 1.5454(7) 0.7745(9)
H68A H 1.3657(9) 1.5231(7) 0.8261(9)
H69A H 1.2934(9) 1.5613(7) 0.7704(9)
C78A C 1.4276(12) 1.6169(10) 0.8094(13)
H70A H 1.4425(12) 1.6510(10) 0.8757(13)
H71A H 1.3993(12) 1.6424(10) 0.7632(13)
C79A C 1.5197(33) 1.6288(27) 0.8238(35)
H72A H 1.5159(33) 1.6114(27) 0.7593(35)
H73A H 1.5653(33) 1.6836(27) 0.8675(35)
C80A C 1.5426(32) 1.5693(25) 0.8808(34)
H74A H 1.576(33) 1.541(22) 0.859(30)
H75A H 1.583(31) 1.5996(41) 0.9541(34)
H76A H 1.4830(38) 1.532(19) 0.863(31)
H47A H 1.2817(7) 1.3534(5) 0.5133(7)
C69A C 1.2201(6) 1.2436(5) 0.3265(7)
H53A H 1.1745(6) 1.2255(5) 0.2521(7)
C70A C 1.3090(7) 1.3090(5) 0.3555(7)
H54A H 1.3452(7) 1.2849(5) 0.3331(7)
H55A H 1.3498(7) 1.3365(5) 0.4300(7)
C71A C 1.2879(7) 1.3694(6) 0.3101(8)
H56A H 1.2554(7) 1.3433(6) 0.2360(8)
H57A H 1.2436(7) 1.3875(6) 0.3238(8)
C72A C 1.3767(8) 1.4419(6) 0.3509(8)
H58A H 1.4265(8) 1.4237(6) 0.3506(8)
H59A H 1.4013(8) 1.4742(6) 0.4219(8)
C73A C 1.3587(8) 1.4937(7) 0.2909(9)
H60A H 1.3404(8) 1.4631(7) 0.2217(9)
H61A H 1.3047(8) 1.5078(7) 0.2854(9)
C74A C 1.4470(10) 1.5709(8) 0.3398(11)
H62A H 1.4354(31) 1.5964(33) 0.2925(33)
H63A H 1.4575(46) 1.6064(26) 0.4021(43)
H64A H 1.5033(17) 1.5580(10) 0.3554(72)
H48A H 1.0210(17) 1.0990(12) 0.2750(16)
H49A H 0.9161(17) 1.0844(12) 0.1874(16)
H50A H 0.9653(18) 1.0607(15) 0.0705(21)
H51A H 0.9685(18) 0.9969(15) 0.1201(21)
C60A C 0.9823(7) 0.7489(6) 0.6285(8)
O7A O 1.0811(5) 0.7906(4) 0.6803(5)
C36A C 1.1385(7) 0.7554(6) 0.7415(8)
C34A C 1.2432(6) 0.8003(5) 0.7899(7)
C33A C 1.3085(8) 0.7742(7) 0.8531(8)
C32A C 1.4060(8) 0.8147(7) 0.9017(9)
C31A C 1.4400(9) 0.8809(7) 0.8860(9)
C30A C 1.3753(7) 0.9081(6) 0.8237(7)
C29A C 1.4176(8) 0.9785(6) 0.8118(8)
O6A O 1.3403(5) 0.9973(4) 0.7386(5)
C28A C 1.3724(6) 1.0653(5) 0.7265(7)
H22A H 1.4578(8) 1.0238(6) 0.8780(8)
H23A H 1.4583(8) 0.9682(6) 0.7867(8)
C35A C 1.2766(6) 0.8675(5) 0.7757(7)
H27A H 1.2326(6) 0.8855(5) 0.7336(7)
H24A H 1.5062(9) 0.9069(7) 0.9173(9)
H25A H 1.4497(8) 0.7975(7) 0.9456(9)
H26A H 1.2863(8) 0.7291(7) 0.8628(8)
H28A H 1.1261(7) 0.7552(6) 0.7947(8)
H29A H 1.1207(7) 0.7004(6) 0.6986(8)
C68A C 0.8148(7) 0.9724(6) 0.7017(8)
O11A O 0.8871(5) 1.0474(4) 0.7670(6)
C52A C 0.8737(9) 1.0923(7) 0.8420(9)
C50A C 0.9514(7) 1.1732(5) 0.9076(7)
C49A C 0.9614(8) 1.2184(6) 0.9967(8)
C48A C 1.0304(9) 1.2952(7) 1.0575(10)
C47A C 1.0869(8) 1.3275(7) 1.0272(8)
C46A C 1.0786(7) 1.2834(5) 0.9383(7)
C45A C 1.1473(9) 1.3215(7) 0.9126(9)
O10A O 1.1279(5) 1.2680(4) 0.8182(5)
C44A C 1.1947(7) 1.2969(6) 0.7962(7)
H35A H 1.2135(9) 1.3350(7) 0.9677(9)
H36A H 1.1399(9) 1.3705(7) 0.9063(9)
C51A C 1.0100(7) 1.2073(6) 0.8787(7)
H40A H 1.0026(7) 1.1779(6) 0.8175(7)
H37A H 1.1317(8) 1.3799(7) 1.0669(8)
H38A H 1.0381(9) 1.3248(7) 1.1189(10)
H39A H 0.9213(8) 1.1971(6) 1.0162(8)
H41A H 0.8114(9) 1.0973(7) 0.8075(9)
H42A H 0.8735(9) 1.0641(7) 0.8852(9)
H52A H 1.3661(7) 1.2295(6) 0.4772(7)
C87A C 1.4341(7) 1.1226(6) 0.5457(7)
H89A H 1.4452(7) 1.0730(6) 0.5277(7)
C88A C 1.5215(7) 1.1900(6) 0.5733(8)
H90A H 1.5138(7) 1.2402(6) 0.5949(8)
H91A H 1.5223(7) 1.1834(6) 0.5118(8)
C89A C 1.6163(8) 1.1954(7) 0.6557(9)
H92A H 1.6169(8) 1.2025(7) 0.7180(9)
H93A H 1.6259(8) 1.1462(7) 0.6345(9)
C90A C 1.6999(11) 1.2671(9) 0.6778(12)
H94A H 1.6897(11) 1.3161(9) 0.6982(12)
H95A H 1.6991(11) 1.2597(9) 0.6152(12)
C91A C 1.7935(16) 1.2742(13) 0.7584(17)
H96A H 1.7927(16) 1.2755(13) 0.8188(17)
H97A H 1.8081(16) 1.2284(13) 0.7350(17)
C92A C 1.8738(19) 1.3540(15) 0.7866(21)
H98A H 1.9328(52) 1.3655(75) 0.8498(95)
H99A H 1.885(12) 1.3473(50) 0.7323(83)
H100A H 1.8520(73) 1.3974(31) 0.795(17)
H17A H 1.2120(18) 0.9900(13) 0.4742(18)
H18A H 1.1642(18) 0.9007(13) 0.3918(18)
H19A H 1.3114(17) 0.8802(15) 0.4910(19)
H20A H 1.2724(17) 0.9052(15) 0.5615(19)
H21A H 1.4552(7) 1.2475(6) 0.6925(7)
C81A C 1.4380(7) 1.2886(5) 0.8545(7)
H77A H 1.4497(7) 1.2820(5) 0.9175(7)
C82A C 1.5284(7) 1.3568(6) 0.8871(8)
H78A H 1.5309(7) 1.4064(6) 0.9280(8)
H79A H 1.5224(7) 1.3616(6) 0.8257(8)
C83A C 1.6225(8) 1.3468(7) 0.9481(9)
H80A H 1.6210(8) 1.2985(7) 0.9057(9)
H81A H 1.6266(8) 1.3390(7) 1.0074(9)
C84A C 1.7112(9) 1.4136(8) 0.9851(11)
H82A H 1.7069(9) 1.4224(8) 0.9263(11)
H83A H 1.7142(9) 1.4617(8) 1.0295(11)
C85A C 1.8060(12) 1.4003(10) 1.0448(14)
H84A H 1.8010(12) 1.3509(10) 1.0006(14)
H85A H 1.8100(12) 1.3924(10) 1.1039(14)
C86A C 1.8977(16) 1.4633(13) 1.0819(17)
H86A H 1.9503(22) 1.4460(47) 1.113(13)
H87A H 1.8948(52) 1.4735(77) 1.0250(28)
H88A H 1.9079(68) 1.5113(35) 1.132(11)
H30A H 1.2708(15) 1.0531(14) 0.8310(17)
H31A H 1.3150(15) 1.1190(14) 0.9413(17)
H32A H 1.1769(20) 1.1328(14) 0.8215(20)
H33A H 1.2223(20) 1.1419(14) 0.7564(20)
H34A H 1.3690(7) 1.3648(5) 0.7303(7)
H43A H 0.9809(18) 1.2872(15) 0.6772(19)
H44A H 0.9658(18) 1.3521(15) 0.6290(19)
H45A H 1.0630(47) 1.2604(31) 0.5970(45)
H46A H 0.9493(47) 1.2275(31) 0.5241(45)
C1 C 0.6547(15) 1.1344(12) 0.8854(16)
H1 H 0.7150(23) 1.1769(27) 0.914(12)
H2 H 0.627(11) 1.1485(55) 0.925(11)
H3 H 0.6108(94) 1.1259(32) 0.8152(20)
C2 C 0.6384(7) 1.0026(6) 0.7905(6)
H4 H 0.6037(9) 1.0133(8) 0.7331(7)
C3 C 0.6563(7) 0.9321(5) 0.7785(6)
H5 H 0.6334(11) 0.8958(7) 0.7130(7)
C4 C 0.7085(7) 0.9160(5) 0.8645(8)
C5 C 0.7427(7) 0.9705(6) 0.9627(6)
H6 H 0.7775(9) 0.9598(8) 1.0201(8)
C6 C 0.7249(7) 1.0410(5) 0.9748(5)
H7 H 0.7477(10) 1.0773(7) 1.0402(6)
C7 C 0.6727(7) 1.0571(4) 0.8887(7)
O1 O 0.7223(12) 0.8477(10) 0.8480(13)
C8 C 0.8036(13) 0.8419(11) 0.9418(14)
H8 H 0.7885(51) 0.7871(15) 0.9336(52)
H9 H 0.8092(69) 0.8734(68) 1.0032(19)
H10 H 0.8637(23) 0.8616(78) 0.9472(64)
C93? C 0.7232(15) 1.0470(11) 0.5209(15)
H101? H 0.7668(15) 1.0249(11) 0.5106(15)
H102? H 0.7513(15) 1.1045(11) 0.5437(15)
C94? C 0.7130(18) 0.8457(13) 0.1435(18)
H103? H 0.7365(18) 0.8740(13) 0.1116(18)
H104? H 0.7609(18) 0.8712(13) 0.2172(18)
C95? C 0.9999(31) 0.7126(22) 0.4321(29)
H105? H 1.0642(31) 0.7221(22) 0.4452(29)
H106? H 0.9917(31) 0.7632(22) 0.4480(29)
C96? C 0.9862(17) 0.9126(13) 0.7924(18)
H107? H 1.0491(17) 0.9528(13) 0.8488(18)
H108? H 0.9705(17) 0.9209(13) 0.7300(18)
C97? C 0.9870(17) 1.0757(11) 0.4474(15)
C98? C 1.0778(13) 1.0743(10) 0.5102(14)
C99? C 1.0852(14) 1.0143(13) 0.5474(15)
loop_
_geom_bond_atom_site_label_1
_geom_bond_atom_site_label_2
_geom_bond_site_symmetry_1
_geom_bond_site_symmetry_2
C1 H1 1_555 1_555
H2 C1 1_555 1_555
H3 C1 1_555 1_555
C2 H4 1_555 1_555
C3 C2 1_555 1_555
H5 C3 1_555 1_555
C4 C3 1_555 1_555
C5 C4 1_555 1_555
H6 C5 1_555 1_555
C6 C5 1_555 1_555
H7 C6 1_555 1_555
C7 C1 1_555 1_555
O1 C4 1_555 1_555
C8 O1 1_555 1_555
H8 C8 1_555 1_555
H9 C8 1_555 1_555
H10 C8 1_555 1_555
C9 H11 1_555 1_555
H12 C9 1_555 1_555
H13 C9 1_555 1_555
C10 C9 1_555 1_555
C11 C10 1_555 1_555
C12 C11 1_555 1_555
C13 C12 1_555 1_555
C14 C13 1_555 1_555
C15 C10 1_555 1_555
O2 C13 1_555 1_555
C16 O2 1_555 1_555
H14 C16 1_555 1_555
H15 C16 1_555 1_555
H16 C16 1_555 1_555
C17 C18 1_555 1_555
C18 C19A 1_555 1_555
C19 C17 1_555 1_555
C20 O3 1_555 1_555
O3 C19 1_555 1_555
O4 C21 1_555 1_555
C21 H17 1_555 1_555
H18 C21 1_555 1_555
C22 C21 1_555 1_555
H19 C22 1_555 1_555
H20 C22 1_555 1_555
O5 C22 1_555 1_555
C23 O5 1_555 1_555
C24 C23 1_555 1_555
C25 C24 1_555 1_555
H21 C25 1_555 1_555
C26 C25 1_555 1_555
C27 C26 1_555 1_555
C28 C23 1_555 1_555
O6 C28 1_555 1_555
C29 O6 1_555 1_555
H22 C29 1_555 1_555
H23 C29 1_555 1_555
C30 C29 1_555 1_555
C31 C30 1_555 1_555
H24 C31 1_555 1_555
C32 C31 1_555 1_555
H25 C32 1_555 1_555
C33 C32 1_555 1_555
H26 C33 1_555 1_555
C34 C33 1_555 1_555
C35 C30 1_555 1_555
H27 C35 1_555 1_555
C36 C34 1_555 1_555
H28 C36 1_555 1_555
H29 C36 1_555 1_555
O7 C36 1_555 1_555
O8 C27 1_555 1_555
C37 O8 1_555 1_555
H30 C37 1_555 1_555
H31 C37 1_555 1_555
C38 C37 1_555 1_555
H32 C38 1_555 1_555
H33 C38 1_555 1_555
O9 C38 1_555 1_555
C39 O9 1_555 1_555
C40 C39 1_555 1_555
C41 C40 1_555 1_555
H34 C41 1_555 1_555
C42 C41 1_555 1_555
C43 C42 1_555 1_555
C44 C39 1_555 1_555
O10 C44 1_555 1_555
C45 O10 1_555 1_555
H35 C45 1_555 1_555
H36 C45 1_555 1_555
C46 C45 1_555 1_555
C47 C46 1_555 1_555
H37 C47 1_555 1_555
C48 C47 1_555 1_555
H38 C48 1_555 1_555
C49 C48 1_555 1_555
H39 C49 1_555 1_555
C50 C49 1_555 1_555
C51 C46 1_555 1_555
H40 C51 1_555 1_555
C52 C50 1_555 1_555
H41 C52 1_555 1_555
H42 C52 1_555 1_555
O11 C52 1_555 1_555
O12 C43 1_555 1_555
C53 O12 1_555 1_555
H43 C53 1_555 1_555
H44 C53 1_555 1_555
C54 C53 1_555 1_555
H45 C54 1_555 1_555
H46 C54 1_555 1_555
O13 C54 1_555 1_555
C55 O13 1_555 1_555
C56 C55 1_555 1_555
C57 C56 1_555 1_555
H47 C57 1_555 1_555
C58 C57 1_555 1_555
C59 C58 1_555 1_555
C60 O7 1_555 1_555
O14 C59 1_555 1_555
C61 O14 1_555 1_555
H48 C61 1_555 1_555
H49 C61 1_555 1_555
C62 C61 1_555 1_555
H50 C62 1_555 1_555
H51 C62 1_555 1_555
O15 C62 1_555 1_555
C63 O15 1_555 1_555
C64 C63 1_555 1_555
C65 C64 1_555 1_555
H52 C65 1_555 1_555
C66 C65 1_555 1_555
C67 O4 1_555 1_555
C68 O11 1_555 1_555
C69 C58 1_555 1_555
H53 C69 1_555 1_555
C70 C69 1_555 1_555
H54 C70 1_555 1_555
H55 C70 1_555 1_555
C71 C70 1_555 1_555
H56 C71 1_555 1_555
H57 C71 1_555 1_555
C72 C71 1_555 1_555
H58 C72 1_555 1_555
H59 C72 1_555 1_555
C73 C72 1_555 1_555
H60 C73 1_555 1_555
H61 C73 1_555 1_555
C74 C73 1_555 1_555
H62 C74 1_555 1_555
H63 C74 1_555 1_555
H64 C74 1_555 1_555
C75 C42 1_555 1_555
H65 C75 1_555 1_555
C76 C75 1_555 1_555
H66 C76 1_555 1_555
H67 C76 1_555 1_555
C77 C76 1_555 1_555
H68 C77 1_555 1_555
H69 C77 1_555 1_555
C78 C77 1_555 1_555
H70 C78 1_555 1_555
H71 C78 1_555 1_555
C79 C78 1_555 1_555
H72 C79 1_555 1_555
H73 C79 1_555 1_555
C80 C79 1_555 1_555
H74 C80 1_555 1_555
H75 C80 1_555 1_555
H76 C80 1_555 1_555
C81 C26 1_555 1_555
H77 C81 1_555 1_555
C82 C81 1_555 1_555
H78 C82 1_555 1_555
H79 C82 1_555 1_555
C83 C82 1_555 1_555
H80 C83 1_555 1_555
H81 C83 1_555 1_555
C84 C83 1_555 1_555
H82 C84 1_555 1_555
H83 C84 1_555 1_555
C85 C84 1_555 1_555
H84 C85 1_555 1_555
H85 C85 1_555 1_555
C86 C85 1_555 1_555
H86 C86 1_555 1_555
H87 C86 1_555 1_555
H88 C86 1_555 1_555
C87 C24 1_555 1_555
H89 C87 1_555 1_555
C88 C87 1_555 1_555
H90 C88 1_555 1_555
H91 C88 1_555 1_555
C89 C88 1_555 1_555
H92 C89 1_555 1_555
H93 C89 1_555 1_555
C90 C89 1_555 1_555
H94 C90 1_555 1_555
H95 C90 1_555 1_555
C91 C90 1_555 1_555
H96 C91 1_555 1_555
H97 C91 1_555 1_555
C92 C91 1_555 1_555
H98 C92 1_555 1_555
H99 C92 1_555 1_555
H100 C92 1_555 1_555
C19A C17A 1_555 1_555
C17A C18A 1_555 1_555
C18A C19 1_555 1_555
O3A C19A 1_555 1_555
C20A O3A 1_555 1_555
C55A C60 1_555 1_555
O13A C55A 1_555 1_555
C54A O13A 1_555 1_555
C53A C54A 1_555 1_555
O12A C53A 1_555 1_555
C43A O12A 1_555 1_555
C42A C43A 1_555 1_555
C41A C42A 1_555 1_555
C40A C41A 1_555 1_555
C39A C40A 1_555 1_555
O9A C39A 1_555 1_555
C38A O9A 1_555 1_555
C37A C38A 1_555 1_555
O8A C37A 1_555 1_555
C27A O8A 1_555 1_555
C26A C27A 1_555 1_555
C25A C26A 1_555 1_555
C24A C25A 1_555 1_555
C23A C24A 1_555 1_555
O5A C23A 1_555 1_555
C22A O5A 1_555 1_555
C21A C22A 1_555 1_555
O4A C21A 1_555 1_555
C67A C68 1_555 1_555
C66A C67A 1_555 1_555
C65A C66A 1_555 1_555
C64A C65A 1_555 1_555
C63A C68 1_555 1_555
O15A C63A 1_555 1_555
C62A O15A 1_555 1_555
C61A C62A 1_555 1_555
O14A C61A 1_555 1_555
C59A C60 1_555 1_555
C58A C59A 1_555 1_555
C57A C58A 1_555 1_555
C56A C55A 1_555 1_555
C75A C42A 1_555 1_555
H65A C75A 1_555 1_555
C76A C75A 1_555 1_555
H66A C76A 1_555 1_555
H67A C76A 1_555 1_555
C77A C76A 1_555 1_555
H68A C77A 1_555 1_555
H69A C77A 1_555 1_555
C78A C77A 1_555 1_555
H70A C78A 1_555 1_555
H71A C78A 1_555 1_555
C79A C78A 1_555 1_555
H72A C79A 1_555 1_555
H73A C79A 1_555 1_555
C80A C79A 1_555 1_555
H74A C80A 1_555 1_555
H75A C80A 1_555 1_555
H76A C80A 1_555 1_555
H47A C57A 1_555 1_555
C69A C64A 1_555 1_555
H53A C69A 1_555 1_555
C70A C69A 1_555 1_555
H54A C70A 1_555 1_555
H55A C70A 1_555 1_555
C71A C70A 1_555 1_555
H56A C71A 1_555 1_555
H57A C71A 1_555 1_555
C72A C71A 1_555 1_555
H58A C72A 1_555 1_555
H59A C72A 1_555 1_555
C73A C72A 1_555 1_555
H60A C73A 1_555 1_555
H61A C73A 1_555 1_555
C74A C73A 1_555 1_555
H62A C74A 1_555 1_555
H63A C74A 1_555 1_555
H64A C74A 1_555 1_555
H48A C61A 1_555 1_555
H49A C61A 1_555 1_555
H50A C62A 1_555 1_555
H51A C62A 1_555 1_555
C60A C55 1_555 1_555
O7A C60A 1_555 1_555
C36A O7A 1_555 1_555
C34A C36A 1_555 1_555
C33A C34A 1_555 1_555
C32A C33A 1_555 1_555
C31A C32A 1_555 1_555
C30A C31A 1_555 1_555
C29A C30A 1_555 1_555
O6A C29A 1_555 1_555
C28A C27A 1_555 1_555
H22A C29A 1_555 1_555
H23A C29A 1_555 1_555
C35A C34A 1_555 1_555
H27A C35A 1_555 1_555
H24A C31A 1_555 1_555
H25A C32A 1_555 1_555
H26A C33A 1_555 1_555
H28A C36A 1_555 1_555
H29A C36A 1_555 1_555
C68A C63 1_555 1_555
O11A C68A 1_555 1_555
C52A O11A 1_555 1_555
C50A C52A 1_555 1_555
C49A C50A 1_555 1_555
C48A C49A 1_555 1_555
C47A C48A 1_555 1_555
C46A C47A 1_555 1_555
C45A C46A 1_555 1_555
O10A C45A 1_555 1_555
C44A C43A 1_555 1_555
H35A C45A 1_555 1_555
H36A C45A 1_555 1_555
C51A C50A 1_555 1_555
H40A C51A 1_555 1_555
H37A C47A 1_555 1_555
H38A C48A 1_555 1_555
H39A C49A 1_555 1_555
H41A C52A 1_555 1_555
H42A C52A 1_555 1_555
H52A C65A 1_555 1_555
C87A C24A 1_555 1_555
H89A C87A 1_555 1_555
C88A C87A 1_555 1_555
H90A C88A 1_555 1_555
H91A C88A 1_555 1_555
C89A C88A 1_555 1_555
H92A C89A 1_555 1_555
H93A C89A 1_555 1_555
C90A C89A 1_555 1_555
H94A C90A 1_555 1_555
H95A C90A 1_555 1_555
C91A C90A 1_555 1_555
H96A C91A 1_555 1_555
H97A C91A 1_555 1_555
C92A C91A 1_555 1_555
H98A C92A 1_555 1_555
H99A C92A 1_555 1_555
H100A C92A 1_555 1_555
H17A C21A 1_555 1_555
H18A C21A 1_555 1_555
H19A C22A 1_555 1_555
H20A C22A 1_555 1_555
H21A C25A 1_555 1_555
C81A C40A 1_555 1_555
H77A C81A 1_555 1_555
C82A C81A 1_555 1_555
H78A C82A 1_555 1_555
H79A C82A 1_555 1_555
C83A C82A 1_555 1_555
H80A C83A 1_555 1_555
H81A C83A 1_555 1_555
C84A C83A 1_555 1_555
H82A C84A 1_555 1_555
H83A C84A 1_555 1_555
C85A C84A 1_555 1_555
H84A C85A 1_555 1_555
H85A C85A 1_555 1_555
C86A C85A 1_555 1_555
H86A C86A 1_555 1_555
H87A C86A 1_555 1_555
H88A C86A 1_555 1_555
H30A C37A 1_555 1_555
H31A C37A 1_555 1_555
H32A C38A 1_555 1_555
H33A C38A 1_555 1_555
H34A C41A 1_555 1_555
H43A C53A 1_555 1_555
H44A C53A 1_555 1_555
H45A C54A 1_555 1_555
H46A C54A 1_555 1_555
C2 C7 1_555 1_555
C6 C7 1_555 1_555
C14 C15 1_555 1_555
C27 C28 1_555 1_555
C34 C35 1_555 1_555
C40 C81 1_555 1_555
C43 C44 1_555 1_555
C50 C51 1_555 1_555
C56 C75 1_555 1_555
C59 C60A 1_555 1_555
C64 C69 1_555 1_555
C66 C67 1_555 1_555
C66 C87 1_555 1_555
C67 C68A 1_555 1_555
C39A C44A 1_555 1_555
C26A C81A 1_555 1_555
C23A C28A 1_555 1_555
O4A C67A 1_555 1_555
C66A C87A 1_555 1_555
C64A C63A 1_555 1_555
O14A C59A 1_555 1_555
C58A C69A 1_555 1_555
C57A C56A 1_555 1_555
C56A C75A 1_555 1_555
C30A C35A 1_555 1_555
O6A C28A 1_555 1_555
C46A C51A 1_555 1_555
O10A C44A 1_555 1_555

#END
