
#######################################################################
#
#                 Cambridge Crystallographic Data Centre
#                                CCDC 
#
#######################################################################
#
# If this CIF has been generated from an entry in the Cambridge 
# Structural Database, then it will include bibliographic, chemical, 
# crystal, experimental, refinement or atomic coordinate data resulting 
# from the CCDC's data processing and validation procedures.
#
#######################################################################

data_RAGXIG
_chemical_name_common            
"5,5':11,11':17,17':23,23'-tetrakis(m-xylenedioxy)-bis(2,8,14,20-tetra-n-butyl-6,10:12,16:18,22:24,4-O,O'-tetrakis(propano)calix[4]resorcinarene) p-methoxytoluene clathrate"
_chemical_formula_moiety         'C152 H184 O24,2(C8 H10 O1)'
_chemical_name_systematic        
'Hemicarcerand PE 4-methoxy-p-toluene clathrate'
_symmetry_cell_setting           triclinic
_symmetry_space_group_name_H-M   'P -1'
_symmetry_Int_Tables_number      2
_space_group_name_Hall           '-P 1'
loop_
_symmetry_equiv_pos_site_id
_symmetry_equiv_pos_as_xyz
1 x,y,z
2 -x,-y,-z
_cell_length_a                   15.480(10)
_cell_length_b                   17.349(6)
_cell_length_c                   14.551(7)
_cell_angle_alpha                113.69(3)
_cell_angle_beta                 93.69(5)
_cell_angle_gamma                95.32(5)
_cell_volume                     3540.94
_exptl_crystal_colour            colorless
_cell_formula_units_Z            1
loop_
_atom_site_label
_atom_site_type_symbol
_atom_site_fract_x
_atom_site_fract_y
_atom_site_fract_z
C86 C 0.4648(20) 1.1682(19) 0.5057(22)
C87 C 0.4688(19) 1.0763(19) 0.5010(20)
C88 C 0.5555(16) 1.0684(15) 0.5243(18)
C89 C 0.4133(15) 1.0077(17) 0.4738(18)
C90 C 0.3930(41) 1.1493(36) 0.4694(45)
C89A C 0.5867(15) 0.9923(17) 0.5262(18)
C87A C 0.5312(19) 0.9237(19) 0.4990(20)
C86A C 0.5352(20) 0.8318(19) 0.4943(22)
C90A C 0.6070(41) 0.8507(36) 0.5306(45)
C88A C 0.4445(16) 0.9316(15) 0.4757(18)
C91 C 1.1198(45) 0.6212(51) 0.7058(43)
O13 O 1.1271(40) 0.6059(36) 0.6052(44)
C92 C 1.0601(40) 0.5452(64) 0.5410(44)
C93 C 1.0708(47) 0.5010(58) 0.4398(43)
C94 C 1.0002(53) 0.5484(54) 0.6285(41)
C94A C 0.9998(53) 0.4516(54) 0.3715(41)
C92A C 0.9399(40) 0.4548(64) 0.4590(44)
O13A O 0.8729(40) 0.3941(36) 0.3948(44)
C91A C 0.8802(45) 0.3788(51) 0.2942(43)
C93A C 0.9292(47) 0.4990(58) 0.5602(43)
O1 O 1.1401(4) 0.4042(4) 0.1451(5)
C1 C 1.1903(6) 0.3851(6) 0.0598(7)
H1 H 1.1647(6) 0.4048(6) 0.0120(7)
H2 H 1.1911(6) 0.3243(6) 0.0257(7)
C2 C 1.2805(6) 0.4292(5) 0.0996(7)
C3 C 1.3428(6) 0.4150(6) 0.0320(7)
H3 H 1.3276(6) 0.3792(6) -0.0357(7)
C4 C 1.4286(6) 0.4549(6) 0.0664(7)
H4 H 1.4703(6) 0.4444(6) 0.0212(7)
C5 C 1.4523(6) 0.5093(6) 0.1661(7)
H5 H 1.5091(6) 0.5367(6) 0.1878(7)
C6 C 1.3894(6) 0.5227(6) 0.2340(7)
C7 C 1.3053(6) 0.4831(5) 0.1995(7)
H6 H 1.2638(6) 0.4929(5) 0.2451(7)
C8 C 1.4145(6) 0.5825(6) 0.3429(7)
H7 H 1.4595(6) 0.5618(6) 0.3732(7)
H8 H 1.4369(6) 0.6384(6) 0.3481(7)
O2 O 1.3386(4) 0.5866(4) 0.3928(5)
C9 C 1.3476(6) 0.6374(6) 0.4966(7)
C10 C 1.3196(6) 0.7165(6) 0.5294(7)
C11 C 1.3210(6) 0.7662(6) 0.6317(7)
C12 C 1.3518(6) 0.7331(6) 0.6986(7)
H9 H 1.3532(6) 0.7659(6) 0.7674(7)
C13 C 1.3807(6) 0.6537(6) 0.6681(7)
C14 C 1.3789(6) 0.6060(6) 0.5637(7)
O3 O 1.4114(4) 0.5299(4) 0.5313(5)
C15 C 1.3632(12) 0.4591(12) 0.4496(15)
H10 H 1.3019(12) 0.4664(12) 0.4465(15)
H11 H 1.3842(12) 0.4544(12) 0.3864(15)
C16 C 1.3749(12) 0.3809(11) 0.4661(14)
H12 H 1.4367(12) 0.3801(11) 0.4808(14)
H13 H 1.3541(12) 0.3317(11) 0.4040(14)
C17 C 1.3287(12) 0.3735(13) 0.5490(14)
H14 H 1.3305(12) 0.3173(13) 0.5477(14)
H15 H 1.2680(12) 0.3815(13) 0.5401(14)
O4 O 1.3711(4) 0.4381(4) 0.6461(5)
C20 C 1.3213(6) 0.4836(6) 0.7209(7)
C21 C 1.3414(6) 0.5714(6) 0.7714(7)
C22 C 1.2923(6) 0.6127(6) 0.8486(7)
H20 H 1.3048(6) 0.6714(6) 0.8830(7)
C23 C 1.2245(6) 0.5709(6) 0.8779(7)
C24 C 1.2062(6) 0.4840(6) 0.8237(7)
C25 C 1.2526(6) 0.4396(6) 0.7452(7)
O5 O 1.2313(4) 0.3545(4) 0.6902(5)
C26 C 1.2591(7) 0.3002(7) 0.7330(8)
H21 H 1.2382(7) 0.3150(7) 0.7986(8)
H22 H 1.3224(7) 0.3069(7) 0.7424(8)
C27 C 1.2252(6) 0.2111(6) 0.6661(7)
C28 C 1.2550(7) 0.1450(7) 0.6833(8)
H23 H 1.2983(7) 0.1567(7) 0.7361(8)
C29 C 1.2214(7) 0.0616(7) 0.6232(8)
H24 H 1.2418(7) 0.0177(7) 0.6359(8)
C30 C 1.1569(6) 0.0436(7) 0.5434(8)
H25 H 1.1348(6) -0.0124(7) 0.5021(8)
C31 C 1.1259(6) 0.1092(6) 0.5257(7)
C32 C 1.1586(6) 0.1913(6) 0.5868(7)
H26 H 1.1362(6) 0.2351(6) 0.5756(7)
C33 C 1.0561(6) 0.0879(6) 0.4393(7)
H27 H 1.0811(6) 0.0672(6) 0.3757(7)
H28 H 1.0117(6) 0.0441(6) 0.4381(7)
O6 O 1.0183(5) 0.1639(4) 0.4537(5)
O7 O 1.1394(4) 0.4405(4) 0.8502(5)
C34 C 1.0753(12) 0.3787(13) 0.7766(15)
H29 H 1.0675(12) 0.3911(13) 0.7175(15)
H30 H 1.0932(12) 0.3226(13) 0.7560(15)
C35 C 0.9906(13) 0.3826(13) 0.8251(16)
H31 H 0.9499(13) 0.3326(13) 0.7839(16)
H32 H 1.0024(13) 0.3818(13) 0.8910(16)
C36 C 0.9476(16) 0.4634(14) 0.8374(17)
H33 H 0.8875(16) 0.4569(14) 0.8511(17)
H34 H 0.9483(16) 0.4728(14) 0.7760(17)
O8 O 0.9988(4) 0.5357(4) 0.9227(5)
C39 C 1.0122(6) 0.6082(6) 0.9065(7)
C40 C 1.0953(6) 0.6520(6) 0.9260(7)
C41 C 1.1055(6) 0.7289(6) 0.9177(7)
H39 H 1.1614(6) 0.7586(6) 0.9314(7)
C42 C 1.0369(6) 0.7642(6) 0.8901(7)
C43 C 0.9545(6) 0.7172(6) 0.8690(8)
C44 C 1.0576(6) 0.3593(6) 0.1237(8)
O9 O 0.8838(5) 0.7524(5) 0.8465(6)
C45 C 0.8194(15) 0.7067(14) 0.7722(17)
H40 H 0.8396(15) 0.6561(14) 0.7243(17)
H41 H 0.7696(15) 0.6896(14) 0.8000(17)
C46 C 0.7936(14) 0.7641(14) 0.7194(17)
H42 H 0.7776(14) 0.8161(14) 0.7695(17)
H43 H 0.7427(14) 0.7354(14) 0.6709(17)
C47 C 0.8621(12) 0.7856(12) 0.6681(14)
H44 H 0.8369(12) 0.8063(12) 0.6210(14)
H45 H 0.8869(12) 0.7345(12) 0.6292(14)
O10 O 0.9294(5) 0.8468(5) 0.7324(6)
C50 C 1.0168(7) 0.8438(7) 0.7122(8)
C51 C 1.0780(6) 0.8491(6) 0.7908(8)
C52 C 1.1651(6) 0.8522(6) 0.7719(7)
H50 H 1.2070(6) 0.8559(6) 0.8228(7)
C53 C 1.1939(6) 0.8501(6) 0.6833(7)
C54 C 1.1280(6) 0.8462(6) 0.6088(8)
C55 C 0.9572(7) 0.1573(7) 0.3749(8)
O11 O 1.1562(5) 0.8506(5) 0.5222(5)
C56 C 1.1055(14) 0.7894(13) 0.4287(15)
H51 H 1.0762(14) 0.7418(13) 0.4386(15)
H52 H 1.0624(14) 0.8159(13) 0.4043(15)
C57 C 1.1765(13) 0.7600(13) 0.3533(16)
H53 H 1.2136(13) 0.8095(13) 0.3565(16)
H54 H 1.1479(13) 0.7301(13) 0.2850(16)
C58 C 1.2297(13) 0.7049(12) 0.3776(15)
H55 H 1.2586(13) 0.6735(12) 0.3192(15)
H56 H 1.1921(13) 0.6642(12) 0.3921(15)
O12 O 1.2930(5) 0.7489(5) 0.4604(6)
C61 C 1.2901(6) 0.8537(6) 0.6682(7)
H61 H 1.2964(6) 0.8729(6) 0.6139(7)
C62 C 1.3480(6) 0.9201(6) 0.7622(7)
H62 H 1.3456(6) 0.9012(6) 0.8164(7)
H63 H 1.3232(6) 0.9731(6) 0.7835(7)
C63 C 1.4415(7) 0.9373(7) 0.7490(8)
H64 H 1.4653(7) 0.8838(7) 0.7220(8)
H65 H 1.4446(7) 0.9616(7) 0.6995(8)
C64 C 1.4980(7) 0.9967(7) 0.8449(8)
H66 H 1.4966(7) 0.9713(7) 0.8934(8)
H67 H 1.4727(7) 1.0493(7) 0.8733(8)
C65 C 1.5906(8) 1.0169(8) 0.8318(10)
H68 H 1.6160(8) 0.9646(8) 0.8016(10)
H69 H 1.5929(8) 1.0450(8) 0.7862(10)
C66 C 1.6445(10) 1.0746(10) 0.9335(12)
H70 H 1.7046(16) 1.0829(59) 0.9230(18)
H71 H 1.6228(48) 1.1285(26) 0.9605(43)
H72 H 1.6395(59) 1.0484(34) 0.9801(29)
C67 C 1.0497(7) 0.8522(6) 0.8903(8)
H73 H 0.9917(7) 0.8709(6) 0.8942(8)
C68 C 1.1065(7) 0.9174(7) 0.9835(8)
H74 H 1.1669(7) 0.9077(7) 0.9762(8)
H75 H 1.1016(7) 0.9734(7) 0.9858(8)
C69 C 1.0839(8) 0.9167(8) 1.0866(10)
H76 H 1.1185(8) 0.9654(8) 1.1403(10)
H77 H 1.1030(8) 0.8663(8) 1.0905(10)
C70 C 0.9935(10) 0.9185(11) 1.1077(12)
H78 H 0.9776(10) 0.9734(11) 1.1157(12)
H79 H 0.9578(10) 0.8762(11) 1.0486(12)
C71 C 0.9688(13) 0.9034(12) 1.1972(15)
H80 H 1.0116(13) 0.9370(12) 1.2546(15)
H81 H 0.9127(13) 0.9229(12) 1.2134(15)
C72 C 0.9631(14) 0.8096(14) 1.1811(17)
H82 H 0.950(11) 0.8047(20) 1.2423(43)
H83 H 0.9177(78) 0.7765(22) 1.1278(92)
H84 H 1.0179(40) 0.7892(35) 1.163(13)
C73 C 1.1732(6) 0.6190(6) 0.9653(7)
H85 H 1.1480(6) 0.5775(6) 0.9893(7)
C74 C 1.2295(6) 0.6878(6) 1.0544(7)
H86 H 1.1921(6) 0.7220(6) 1.1012(7)
H87 H 1.2639(6) 0.7245(6) 1.0308(7)
C75 C 1.2891(8) 0.6537(8) 1.1085(9)
H88 H 1.2543(8) 0.6269(8) 1.1434(9)
H89 H 1.3165(8) 0.6097(8) 1.0587(9)
C76 C 1.3607(7) 0.7179(8) 1.1850(9)
H90 H 1.3823(7) 0.6952(8) 1.2317(9)
H91 H 1.3368(7) 0.7696(8) 1.2234(9)
C77 C 1.4350(10) 0.7379(10) 1.1331(12)
H92 H 1.4135(10) 0.7643(10) 1.0902(12)
H93 H 1.4547(10) 0.6852(10) 1.0900(12)
C78 C 1.5096(11) 0.7941(11) 1.2021(13)
H94 H 1.5514(41) 0.8090(69) 1.1640(16)
H95 H 1.4900(17) 0.8446(39) 1.2489(65)
H96 H 1.5365(54) 0.7654(32) 1.2384(74)
C79 C 1.4155(6) 0.6204(6) 0.7435(7)
H97 H 1.4544(6) 0.5792(6) 0.7086(7)
C80 C 1.4709(6) 0.6892(6) 0.8363(7)
H98 H 1.4865(6) 0.6654(6) 0.8841(7)
H99 H 1.4366(6) 0.7349(6) 0.8689(7)
C81 C 1.5525(8) 0.7246(8) 0.8089(9)
H100 H 1.5369(8) 0.7418(8) 0.7549(9)
H101 H 1.5894(8) 0.6800(8) 0.7832(9)
C82 C 1.6034(10) 0.7984(11) 0.8944(13)
H102 H 1.5853(10) 0.7954(11) 0.9556(13)
H103 H 1.5830(10) 0.8487(11) 0.8916(13)
C83 C 1.6978(13) 0.8151(16) 0.9096(16)
H104 H 1.7219(13) 0.7617(16) 0.8856(16)
H105 H 1.7176(13) 0.8459(16) 0.8705(16)
C85 C 1.7306(12) 0.8665(11) 1.0203(13)
H106 H 1.7920(22) 0.8644(77) 1.0308(23)
H107 H 1.7204(86) 0.9244(22) 1.0394(31)
H108 H 1.7002(67) 0.8432(56) 1.0607(15)
C50A C 0.9832(7) 0.1562(7) 0.2878(8)
O10A O 1.0706(5) 0.1532(5) 0.2676(6)
C47A C 1.1379(12) 0.2144(12) 0.3319(14)
C46A C 1.2064(14) 0.2359(14) 0.2806(17)
C45A C 1.1806(15) 0.2933(14) 0.2278(17)
O9A O 1.1162(5) 0.2476(5) 0.1535(6)
C43A C 1.0455(6) 0.2828(6) 0.1310(8)
C42A C 0.9631(6) 0.2358(6) 0.1099(7)
C41A C 0.8945(6) 0.2711(6) 0.0823(7)
C40A C 0.9047(6) 0.3480(6) 0.0740(7)
C39A C 0.9878(6) 0.3918(6) 0.0935(7)
O8A O 1.0012(4) 0.4643(4) 0.0773(5)
C36A C 1.0524(16) 0.5366(14) 0.1626(17)
C35A C 1.0094(13) 0.6174(13) 0.1749(16)
C34A C 0.9247(12) 0.6213(13) 0.2234(15)
O7A O 0.8606(4) 0.5595(4) 0.1498(5)
C24A C 0.7938(6) 0.5160(6) 0.1763(7)
C23A C 0.7755(6) 0.4291(6) 0.1221(7)
C22A C 0.7077(6) 0.3873(6) 0.1514(7)
C21A C 0.6586(6) 0.4286(6) 0.2286(7)
C20A C 0.6787(6) 0.5164(6) 0.2791(7)
O4A O 0.6289(4) 0.5619(4) 0.3539(5)
C17A C 0.6713(12) 0.6265(13) 0.4510(14)
C16A C 0.6251(12) 0.6191(11) 0.5339(14)
C15A C 0.6368(12) 0.5409(12) 0.5504(15)
O3A O 0.5886(4) 0.4701(4) 0.4687(5)
C14A C 0.6211(6) 0.3940(6) 0.4363(7)
C9A C 0.6524(6) 0.3626(6) 0.5034(7)
O2A O 0.6614(4) 0.4134(4) 0.6072(5)
C8A C 0.5855(6) 0.4175(6) 0.6571(7)
C6A C 0.6106(6) 0.4773(6) 0.7660(7)
C5A C 0.5477(6) 0.4907(6) 0.8339(7)
C4A C 0.5714(6) 0.5451(6) 0.9336(7)
C3A C 0.6572(6) 0.5850(6) 0.9680(7)
C2A C 0.7195(6) 0.5708(5) 0.9004(7)
C1A C 0.8097(6) 0.6149(6) 0.9402(7)
O1A O 0.8599(4) 0.5958(4) 0.8549(5)
C44A C 0.9424(6) 0.6407(6) 0.8763(8)
C55A C 1.0428(7) 0.8427(7) 0.6251(8)
O6A O 0.9817(5) 0.8361(4) 0.5463(5)
C33A C 0.9439(6) 0.9121(6) 0.5607(7)
C31A C 0.8741(6) 0.8908(6) 0.4743(7)
C30A C 0.8431(6) 0.9564(7) 0.4566(8)
C29A C 0.7786(7) 0.9384(7) 0.3768(8)
C28A C 0.7450(7) 0.8550(7) 0.3167(8)
C27A C 0.7748(6) 0.7889(6) 0.3339(7)
C26A C 0.7409(7) 0.6998(7) 0.2670(8)
O5A O 0.7687(4) 0.6455(4) 0.3098(5)
C25A C 0.7474(6) 0.5604(6) 0.2548(7)
H21A H 0.7618(7) 0.6850(7) 0.2014(8)
H22A H 0.6776(7) 0.6931(7) 0.2576(8)
C32A C 0.8414(6) 0.8087(6) 0.4132(7)
H26A H 0.8638(6) 0.7649(6) 0.4244(7)
H23A H 0.7017(7) 0.8433(7) 0.2639(8)
H24A H 0.7582(7) 0.9823(7) 0.3641(8)
H25A H 0.8652(6) 1.0124(7) 0.4979(8)
H27A H 0.9189(6) 0.9328(6) 0.6243(7)
H28A H 0.9883(6) 0.9559(6) 0.5619(7)
H1A H 0.8353(6) 0.5952(6) 0.9880(7)
H2A H 0.8089(6) 0.6757(6) 0.9743(7)
C7A C 0.6947(6) 0.5169(5) 0.8005(7)
H6A H 0.7362(6) 0.5071(5) 0.7549(7)
H3A H 0.6724(6) 0.6208(6) 1.0357(7)
H4A H 0.5297(6) 0.5556(6) 0.9788(7)
H5A H 0.4909(6) 0.4633(6) 0.8122(7)
H7A H 0.5405(6) 0.4382(6) 0.6268(7)
H8A H 0.5631(6) 0.3616(6) 0.6519(7)
C10A C 0.6804(6) 0.2835(6) 0.4706(7)
C11A C 0.6790(6) 0.2338(6) 0.3683(7)
C12A C 0.6482(6) 0.2669(6) 0.3014(7)
H9A H 0.6468(6) 0.2341(6) 0.2326(7)
C13A C 0.6193(6) 0.3463(6) 0.3319(7)
C79A C 0.5845(6) 0.3796(6) 0.2565(7)
H97A H 0.5456(6) 0.4208(6) 0.2914(7)
C80A C 0.5291(6) 0.3108(6) 0.1637(7)
H98A H 0.5135(6) 0.3346(6) 0.1159(7)
H99A H 0.5634(6) 0.2651(6) 0.1311(7)
C81A C 0.4475(8) 0.2754(8) 0.1911(9)
H100A H 0.4631(8) 0.2582(8) 0.2451(9)
H101A H 0.4106(8) 0.3200(8) 0.2168(9)
C82A C 0.3966(10) 0.2016(11) 0.1056(13)
H102A H 0.4147(10) 0.2046(11) 0.0444(13)
H103A H 0.4170(10) 0.1513(11) 0.1084(13)
C83A C 0.3022(13) 0.1849(16) 0.0904(16)
H104A H 0.2781(13) 0.2383(16) 0.1144(16)
H105A H 0.2824(13) 0.1541(16) 0.1295(16)
C85A C 0.2694(12) 0.1335(11) -0.0203(13)
H106A H 0.2080(22) 0.1356(77) -0.0308(23)
H107A H 0.2796(86) 0.0756(22) -0.0394(31)
H108A H 0.2998(67) 0.1568(56) -0.0607(15)
C61A C 0.7099(6) 0.1463(6) 0.3318(7)
C53A C 0.8061(6) 0.1499(6) 0.3167(7)
C52A C 0.8349(6) 0.1478(6) 0.2281(7)
C51A C 0.9220(6) 0.1509(6) 0.2092(8)
C67A C 0.9503(7) 0.1478(6) 0.1097(8)
H73A H 1.0083(7) 0.1291(6) 0.1058(8)
C68A C 0.8935(7) 0.0826(7) 0.0165(8)
H74A H 0.8331(7) 0.0923(7) 0.0238(8)
H75A H 0.8984(7) 0.0266(7) 0.0142(8)
C69A C 0.9161(8) 0.0833(8) -0.0866(10)
H76A H 0.8815(8) 0.0346(8) -0.1403(10)
H77A H 0.8970(8) 0.1337(8) -0.0905(10)
C70A C 1.0065(10) 0.0815(11) -0.1077(12)
H78A H 1.0224(10) 0.0266(11) -0.1157(12)
H79A H 1.0422(10) 0.1238(11) -0.0486(12)
C71A C 1.0312(13) 0.0966(12) -0.1972(15)
H80A H 0.9884(13) 0.0630(12) -0.2546(15)
H81A H 1.0873(13) 0.0771(12) -0.2134(15)
C72A C 1.0369(14) 0.1904(14) -0.1811(17)
H82A H 1.050(11) 0.1953(20) -0.2423(43)
H83A H 1.0823(78) 0.2235(22) -0.1278(92)
H84A H 0.9821(40) 0.2108(35) -0.163(13)
H50A H 0.7930(6) 0.1441(6) 0.1772(7)
C54A C 0.8720(6) 0.1538(6) 0.3912(8)
O11A O 0.8438(5) 0.1494(5) 0.4778(5)
C56A C 0.8945(14) 0.2106(13) 0.5713(15)
H51A H 0.9238(14) 0.2582(13) 0.5614(15)
H52A H 0.9376(14) 0.1841(13) 0.5957(15)
C57A C 0.8235(13) 0.2400(13) 0.6467(16)
H53A H 0.7864(13) 0.1905(13) 0.6435(16)
H54A H 0.8521(13) 0.2699(13) 0.7150(16)
C58A C 0.7703(13) 0.2951(12) 0.6224(15)
H55A H 0.7414(13) 0.3265(12) 0.6808(15)
H56A H 0.8079(13) 0.3358(12) 0.6079(15)
O12A O 0.7070(5) 0.2511(5) 0.5396(6)
H61A H 0.7036(6) 0.1271(6) 0.3861(7)
C62A C 0.6520(6) 0.0799(6) 0.2378(7)
H62A H 0.6544(6) 0.0988(6) 0.1836(7)
H63A H 0.6768(6) 0.0269(6) 0.2165(7)
C63A C 0.5585(7) 0.0627(7) 0.2510(8)
H64A H 0.5347(7) 0.1162(7) 0.2780(8)
H65A H 0.5554(7) 0.0384(7) 0.3005(8)
C64A C 0.5020(7) 0.0033(7) 0.1551(8)
H66A H 0.5034(7) 0.0287(7) 0.1066(8)
H67A H 0.5273(7) -0.0493(7) 0.1267(8)
C65A C 0.4094(8) -0.0169(8) 0.1682(10)
H68A H 0.3840(8) 0.0354(8) 0.1984(10)
H69A H 0.4071(8) -0.0450(8) 0.2138(10)
C66A C 0.3555(10) -0.0746(10) 0.0665(12)
H70A H 0.2954(16) -0.0829(59) 0.0770(18)
H71A H 0.3772(48) -0.1285(26) 0.0395(43)
H72A H 0.3605(59) -0.0484(34) 0.0199(29)
H10A H 0.6981(12) 0.5336(12) 0.5535(15)
H11A H 0.6158(12) 0.5456(12) 0.6136(15)
H12A H 0.5633(12) 0.6199(11) 0.5192(14)
H13A H 0.6459(12) 0.6683(11) 0.5960(14)
H14A H 0.6695(12) 0.6827(13) 0.4523(14)
H15A H 0.7320(12) 0.6185(13) 0.4599(14)
H20A H 0.6952(6) 0.3286(6) 0.1170(7)
C73A C 0.8268(6) 0.3810(6) 0.0347(7)
H85A H 0.8520(6) 0.4225(6) 0.0107(7)
C74A C 0.7705(6) 0.3122(6) -0.0544(7)
H86A H 0.8079(6) 0.2780(6) -0.1012(7)
H87A H 0.7361(6) 0.2755(6) -0.0308(7)
C75A C 0.7109(8) 0.3463(8) -0.1085(9)
H88A H 0.7457(8) 0.3731(8) -0.1434(9)
H89A H 0.6835(8) 0.3903(8) -0.0587(9)
C76A C 0.6393(7) 0.2821(8) -0.1850(9)
H90A H 0.6177(7) 0.3048(8) -0.2317(9)
H91A H 0.6632(7) 0.2304(8) -0.2234(9)
C77A C 0.5650(10) 0.2621(10) -0.1331(12)
H92A H 0.5865(10) 0.2357(10) -0.0902(12)
H93A H 0.5453(10) 0.3148(10) -0.0900(12)
C78A C 0.4904(11) 0.2059(11) -0.2021(13)
H94A H 0.4486(41) 0.1910(69) -0.1640(16)
H95A H 0.5100(17) 0.1554(39) -0.2489(65)
H96A H 0.4635(54) 0.2346(32) -0.2384(74)
H29A H 0.9325(12) 0.6089(13) 0.2825(15)
H30A H 0.9068(12) 0.6774(13) 0.2440(15)
H31A H 1.0501(13) 0.6674(13) 0.2161(16)
H32A H 0.9976(13) 0.6182(13) 0.1090(16)
H33A H 1.1125(16) 0.5431(14) 0.1489(17)
H34A H 1.0517(16) 0.5272(14) 0.2240(17)
H39A H 0.8386(6) 0.2414(6) 0.0686(7)
H40A H 1.1604(15) 0.3439(14) 0.2757(17)
H41A H 1.2304(15) 0.3104(14) 0.2000(17)
H42A H 1.2224(14) 0.1839(14) 0.2305(17)
H43A H 1.2573(14) 0.2646(14) 0.3291(17)
H44A H 1.1631(12) 0.1937(12) 0.3790(14)
H45A H 1.1131(12) 0.2655(12) 0.3708(14)
C18? C 0.6629(27) 0.5395(26) 0.4933(34)
H16? H 0.6616(27) 0.5767(26) 0.5637(34)
H17? H 0.7155(27) 0.5126(26) 0.4903(34)
C19? C 0.6751(28) 0.5862(30) 0.4502(33)
H18? H 0.7370(28) 0.5926(30) 0.4433(33)
H19? H 0.6610(28) 0.6416(30) 0.4936(33)
C37? C 0.9428(17) 0.5671(19) 0.2188(21)
H35? H 0.9558(17) 0.6243(19) 0.2712(21)
H36? H 0.9345(17) 0.5279(19) 0.2508(21)
C38? C 1.0165(19) 0.5462(18) 0.1536(20)
H37? H 1.0246(19) 0.5867(18) 0.1234(20)
H38? H 1.0700(19) 0.5518(18) 0.1956(20)
C48? C 1.1367(23) 0.2867(22) 0.2705(26)
H46? H 1.1982(23) 0.2830(22) 0.2826(26)
H47? H 1.1321(23) 0.3467(22) 0.2916(26)
C49? C 1.0978(33) 0.2652(30) 0.3409(38)
H48? H 1.0463(33) 0.2931(30) 0.3606(38)
H49? H 1.1381(33) 0.2777(30) 0.4005(38)
C59? C 0.8504(22) 0.2173(18) 0.5801(23)
H57? H 0.9111(22) 0.2377(18) 0.6068(23)
H58? H 0.8223(22) 0.1967(18) 0.6250(23)
C60? C 0.8033(20) 0.2902(20) 0.5701(27)
H59? H 0.8104(20) 0.3398(20) 0.6338(27)
H60? H 0.8259(20) 0.3062(20) 0.5188(27)
C84? C 0.3440(13) 0.2103(13) 0.0341(16)
C95? C 0.9180(49) 0.4463(51) 0.4043(47)
C96? C 0.9072(41) 0.4906(57) 0.5055(51)
C97? C 0.9782(39) 0.5400(65) 0.5739(47)
C98? C 0.8501(59) 0.3729(52) 0.3392(51)
loop_
_geom_bond_atom_site_label_1
_geom_bond_atom_site_label_2
_geom_bond_site_symmetry_1
_geom_bond_site_symmetry_2
O1 C1 1_555 1_555
C1 H1 1_555 1_555
H2 C1 1_555 1_555
C2 C1 1_555 1_555
C3 C2 1_555 1_555
H3 C3 1_555 1_555
C4 C3 1_555 1_555
H4 C4 1_555 1_555
C5 C4 1_555 1_555
H5 C5 1_555 1_555
C6 C5 1_555 1_555
C7 C2 1_555 1_555
H6 C7 1_555 1_555
C8 C6 1_555 1_555
H7 C8 1_555 1_555
H8 C8 1_555 1_555
O2 C8 1_555 1_555
C9 O2 1_555 1_555
C10 C9 1_555 1_555
C11 C10 1_555 1_555
C12 C11 1_555 1_555
H9 C12 1_555 1_555
C13 C12 1_555 1_555
C14 C9 1_555 1_555
O3 C14 1_555 1_555
C15 O3 1_555 1_555
H10 C15 1_555 1_555
H11 C15 1_555 1_555
C16 C15 1_555 1_555
H12 C16 1_555 1_555
H13 C16 1_555 1_555
C17 C16 1_555 1_555
H14 C17 1_555 1_555
H15 C17 1_555 1_555
O4 C17 1_555 1_555
C20 O4 1_555 1_555
C21 C20 1_555 1_555
C22 C21 1_555 1_555
H20 C22 1_555 1_555
C23 C22 1_555 1_555
C24 C23 1_555 1_555
C25 C20 1_555 1_555
O5 C25 1_555 1_555
C26 O5 1_555 1_555
H21 C26 1_555 1_555
H22 C26 1_555 1_555
C27 C26 1_555 1_555
C28 C27 1_555 1_555
H23 C28 1_555 1_555
C29 C28 1_555 1_555
H24 C29 1_555 1_555
C30 C29 1_555 1_555
H25 C30 1_555 1_555
C31 C30 1_555 1_555
C32 C27 1_555 1_555
H26 C32 1_555 1_555
C33 C31 1_555 1_555
H27 C33 1_555 1_555
H28 C33 1_555 1_555
O6 C33 1_555 1_555
O7 C24 1_555 1_555
C34 O7 1_555 1_555
H29 C34 1_555 1_555
H30 C34 1_555 1_555
C35 C34 1_555 1_555
H31 C35 1_555 1_555
H32 C35 1_555 1_555
C36 C35 1_555 1_555
H33 C36 1_555 1_555
H34 C36 1_555 1_555
O8 C36 1_555 1_555
C39 O8 1_555 1_555
C40 C39 1_555 1_555
C41 C40 1_555 1_555
H39 C41 1_555 1_555
C42 C41 1_555 1_555
C43 C42 1_555 1_555
C44 O1 1_555 1_555
O9 C43 1_555 1_555
C45 O9 1_555 1_555
H40 C45 1_555 1_555
H41 C45 1_555 1_555
C46 C45 1_555 1_555
H42 C46 1_555 1_555
H43 C46 1_555 1_555
C47 C46 1_555 1_555
H44 C47 1_555 1_555
H45 C47 1_555 1_555
O10 C47 1_555 1_555
C50 O10 1_555 1_555
C51 C50 1_555 1_555
C52 C51 1_555 1_555
H50 C52 1_555 1_555
C53 C52 1_555 1_555
C54 C53 1_555 1_555
C55 O6 1_555 1_555
O11 C54 1_555 1_555
C56 O11 1_555 1_555
H51 C56 1_555 1_555
H52 C56 1_555 1_555
C57 C56 1_555 1_555
H53 C57 1_555 1_555
H54 C57 1_555 1_555
C58 C57 1_555 1_555
H55 C58 1_555 1_555
H56 C58 1_555 1_555
O12 C10 1_555 1_555
C61 C11 1_555 1_555
H61 C61 1_555 1_555
C62 C61 1_555 1_555
H62 C62 1_555 1_555
H63 C62 1_555 1_555
C63 C62 1_555 1_555
H64 C63 1_555 1_555
H65 C63 1_555 1_555
C64 C63 1_555 1_555
H66 C64 1_555 1_555
H67 C64 1_555 1_555
C65 C64 1_555 1_555
H68 C65 1_555 1_555
H69 C65 1_555 1_555
C66 C65 1_555 1_555
H70 C66 1_555 1_555
H71 C66 1_555 1_555
H72 C66 1_555 1_555
C67 C42 1_555 1_555
H73 C67 1_555 1_555
C68 C67 1_555 1_555
H74 C68 1_555 1_555
H75 C68 1_555 1_555
C69 C68 1_555 1_555
H76 C69 1_555 1_555
H77 C69 1_555 1_555
C70 C69 1_555 1_555
H78 C70 1_555 1_555
H79 C70 1_555 1_555
C71 C70 1_555 1_555
H80 C71 1_555 1_555
H81 C71 1_555 1_555
C72 C71 1_555 1_555
H82 C72 1_555 1_555
H83 C72 1_555 1_555
H84 C72 1_555 1_555
C73 C23 1_555 1_555
H85 C73 1_555 1_555
C74 C73 1_555 1_555
H86 C74 1_555 1_555
H87 C74 1_555 1_555
C75 C74 1_555 1_555
H88 C75 1_555 1_555
H89 C75 1_555 1_555
C76 C75 1_555 1_555
H90 C76 1_555 1_555
H91 C76 1_555 1_555
C77 C76 1_555 1_555
H92 C77 1_555 1_555
H93 C77 1_555 1_555
C78 C77 1_555 1_555
H94 C78 1_555 1_555
H95 C78 1_555 1_555
H96 C78 1_555 1_555
C79 C13 1_555 1_555
H97 C79 1_555 1_555
C80 C79 1_555 1_555
H98 C80 1_555 1_555
H99 C80 1_555 1_555
C81 C80 1_555 1_555
H100 C81 1_555 1_555
H101 C81 1_555 1_555
C82 C81 1_555 1_555
H102 C82 1_555 1_555
H103 C82 1_555 1_555
C83 C82 1_555 1_555
H104 C83 1_555 1_555
H105 C83 1_555 1_555
C85 C83 1_555 1_555
H106 C85 1_555 1_555
H107 C85 1_555 1_555
H108 C85 1_555 1_555
C86 C87 1_555 1_555
C87 C88 1_555 1_555
C88 C89A 1_555 1_555
C89 C87 1_555 1_555
C90 C86 1_555 1_555
C91 O13 1_555 1_555
O13 C92 1_555 1_555
C92 C93 1_555 1_555
C93 C94A 1_555 1_555
C94 C92 1_555 1_555
C50A C55 1_555 1_555
O10A C50A 1_555 1_555
C47A O10A 1_555 1_555
C46A C47A 1_555 1_555
C45A C46A 1_555 1_555
O9A C45A 1_555 1_555
C43A C44 1_555 1_555
C42A C43A 1_555 1_555
C41A C42A 1_555 1_555
C40A C41A 1_555 1_555
C39A C44 1_555 1_555
O8A C39A 1_555 1_555
C36A O8A 1_555 1_555
C35A C36A 1_555 1_555
C34A C35A 1_555 1_555
O7A C34A 1_555 1_555
C24A O7A 1_555 1_555
C23A C24A 1_555 1_555
C22A C23A 1_555 1_555
C21A C22A 1_555 1_555
C20A C21A 1_555 1_555
O4A C20A 1_555 1_555
C17A O4A 1_555 1_555
C16A C17A 1_555 1_555
C15A C16A 1_555 1_555
O3A C15A 1_555 1_555
C14A O3A 1_555 1_555
C9A C14A 1_555 1_555
O2A C9A 1_555 1_555
C8A O2A 1_555 1_555
C6A C8A 1_555 1_555
C5A C6A 1_555 1_555
C4A C5A 1_555 1_555
C3A C4A 1_555 1_555
C2A C3A 1_555 1_555
C1A C2A 1_555 1_555
O1A C1A 1_555 1_555
C44A C39 1_555 1_555
C55A C50 1_555 1_555
O6A C55A 1_555 1_555
C33A O6A 1_555 1_555
C31A C33A 1_555 1_555
C30A C31A 1_555 1_555
C29A C30A 1_555 1_555
C28A C29A 1_555 1_555
C27A C28A 1_555 1_555
C26A C27A 1_555 1_555
O5A C26A 1_555 1_555
C25A C24A 1_555 1_555
H21A C26A 1_555 1_555
H22A C26A 1_555 1_555
C32A C31A 1_555 1_555
H26A C32A 1_555 1_555
H23A C28A 1_555 1_555
H24A C29A 1_555 1_555
H25A C30A 1_555 1_555
H27A C33A 1_555 1_555
H28A C33A 1_555 1_555
H1A C1A 1_555 1_555
H2A C1A 1_555 1_555
C7A C6A 1_555 1_555
H6A C7A 1_555 1_555
H3A C3A 1_555 1_555
H4A C4A 1_555 1_555
H5A C5A 1_555 1_555
H7A C8A 1_555 1_555
H8A C8A 1_555 1_555
C10A C9A 1_555 1_555
C11A C10A 1_555 1_555
C12A C11A 1_555 1_555
H9A C12A 1_555 1_555
C13A C14A 1_555 1_555
C79A C21A 1_555 1_555
H97A C79A 1_555 1_555
C80A C79A 1_555 1_555
H98A C80A 1_555 1_555
H99A C80A 1_555 1_555
C81A C80A 1_555 1_555
H100A C81A 1_555 1_555
H101A C81A 1_555 1_555
C82A C81A 1_555 1_555
H102A C82A 1_555 1_555
H103A C82A 1_555 1_555
C83A C82A 1_555 1_555
H104A C83A 1_555 1_555
H105A C83A 1_555 1_555
C85A C83A 1_555 1_555
H106A C85A 1_555 1_555
H107A C85A 1_555 1_555
H108A C85A 1_555 1_555
C61A C11A 1_555 1_555
C53A C61A 1_555 1_555
C52A C53A 1_555 1_555
C51A C50A 1_555 1_555
C67A C42A 1_555 1_555
H73A C67A 1_555 1_555
C68A C67A 1_555 1_555
H74A C68A 1_555 1_555
H75A C68A 1_555 1_555
C69A C68A 1_555 1_555
H76A C69A 1_555 1_555
H77A C69A 1_555 1_555
C70A C69A 1_555 1_555
H78A C70A 1_555 1_555
H79A C70A 1_555 1_555
C71A C70A 1_555 1_555
H80A C71A 1_555 1_555
H81A C71A 1_555 1_555
C72A C71A 1_555 1_555
H82A C72A 1_555 1_555
H83A C72A 1_555 1_555
H84A C72A 1_555 1_555
H50A C52A 1_555 1_555
C54A C55 1_555 1_555
O11A C54A 1_555 1_555
C56A O11A 1_555 1_555
H51A C56A 1_555 1_555
H52A C56A 1_555 1_555
C57A C56A 1_555 1_555
H53A C57A 1_555 1_555
H54A C57A 1_555 1_555
C58A C57A 1_555 1_555
H55A C58A 1_555 1_555
H56A C58A 1_555 1_555
O12A C10A 1_555 1_555
H61A C61A 1_555 1_555
C62A C61A 1_555 1_555
H62A C62A 1_555 1_555
H63A C62A 1_555 1_555
C63A C62A 1_555 1_555
H64A C63A 1_555 1_555
H65A C63A 1_555 1_555
C64A C63A 1_555 1_555
H66A C64A 1_555 1_555
H67A C64A 1_555 1_555
C65A C64A 1_555 1_555
H68A C65A 1_555 1_555
H69A C65A 1_555 1_555
C66A C65A 1_555 1_555
H70A C66A 1_555 1_555
H71A C66A 1_555 1_555
H72A C66A 1_555 1_555
H10A C15A 1_555 1_555
H11A C15A 1_555 1_555
H12A C16A 1_555 1_555
H13A C16A 1_555 1_555
H14A C17A 1_555 1_555
H15A C17A 1_555 1_555
H20A C22A 1_555 1_555
C73A C40A 1_555 1_555
H85A C73A 1_555 1_555
C74A C73A 1_555 1_555
H86A C74A 1_555 1_555
H87A C74A 1_555 1_555
C75A C74A 1_555 1_555
H88A C75A 1_555 1_555
H89A C75A 1_555 1_555
C76A C75A 1_555 1_555
H90A C76A 1_555 1_555
H91A C76A 1_555 1_555
C77A C76A 1_555 1_555
H92A C77A 1_555 1_555
H93A C77A 1_555 1_555
C78A C77A 1_555 1_555
H94A C78A 1_555 1_555
H95A C78A 1_555 1_555
H96A C78A 1_555 1_555
H29A C34A 1_555 1_555
H30A C34A 1_555 1_555
H31A C35A 1_555 1_555
H32A C35A 1_555 1_555
H33A C36A 1_555 1_555
H34A C36A 1_555 1_555
H39A C41A 1_555 1_555
H40A C45A 1_555 1_555
H41A C45A 1_555 1_555
H42A C46A 1_555 1_555
H43A C46A 1_555 1_555
H44A C47A 1_555 1_555
H45A C47A 1_555 1_555
C89A C87A 1_555 1_555
C87A C86A 1_555 1_555
C86A C90A 1_555 1_555
C88A C89 1_555 1_555
C94A C92A 1_555 1_555
C92A O13A 1_555 1_555
O13A C91A 1_555 1_555
C93A C94 1_555 1_555
C6 C7 1_555 1_555
C13 C14 1_555 1_555
C21 C79 1_555 1_555
C24 C25 1_555 1_555
C31 C32 1_555 1_555
C40 C73 1_555 1_555
C43 C44A 1_555 1_555
C51 C67 1_555 1_555
C53 C61 1_555 1_555
C54 C55A 1_555 1_555
C58 O12 1_555 1_555
O9A C43A 1_555 1_555
C40A C39A 1_555 1_555
C23A C73A 1_555 1_555
C20A C25A 1_555 1_555
C2A C7A 1_555 1_555
O1A C44A 1_555 1_555
C27A C32A 1_555 1_555
O5A C25A 1_555 1_555
C12A C13A 1_555 1_555
C13A C79A 1_555 1_555
C53A C54A 1_555 1_555
C52A C51A 1_555 1_555
C51A C67A 1_555 1_555
C58A O12A 1_555 1_555
C87A C88A 1_555 1_555
C92A C93A 1_555 1_555

#END
