
#######################################################################
#
#                 Cambridge Crystallographic Data Centre
#                                CCDC 
#
#######################################################################
#
# If this CIF has been generated from an entry in the Cambridge 
# Structural Database, then it will include bibliographic, chemical, 
# crystal, experimental, refinement or atomic coordinate data resulting 
# from the CCDC's data processing and validation procedures.
#
#######################################################################

data_RAGZUX
_chemical_formula_moiety         'C8 H7 Cl1 N6 O2,3(H2 O1)'
_chemical_name_systematic        
'(2-chloro-3-nitropyridin-4-yl)(1-methyl-1H-1,2,4-triazol-4-ium-4-yl)azanide trihydrate'
_symmetry_cell_setting           orthorhombic
_symmetry_space_group_name_H-M   'P b c a'
_symmetry_Int_Tables_number      61
_space_group_name_Hall           '-P 2ac 2ab'
loop_
_symmetry_equiv_pos_site_id
_symmetry_equiv_pos_as_xyz
1 x,y,z
2 1/2-x,-y,1/2+z
3 -x,1/2+y,1/2-z
4 1/2+x,1/2-y,-z
5 -x,-y,-z
6 1/2+x,y,1/2-z
7 x,1/2-y,1/2+z
8 1/2-x,1/2+y,z
_cell_length_a                   10.31409(16)
_cell_length_b                   10.44322(18)
_cell_length_c                   24.0307(4)
_cell_angle_alpha                90
_cell_angle_beta                 90
_cell_angle_gamma                90
_cell_volume                     2588.4
_exptl_crystal_colour            yellow
_exptl_crystal_description       block
_cell_formula_units_Z            8
loop_
_atom_site_label
_atom_site_type_symbol
_atom_site_fract_x
_atom_site_fract_y
_atom_site_fract_z
Cl1 Cl 0.85712(3) 0.48877(3) 0.45928(2)
O1 O 0.77416(11) 0.40248(10) 0.59304(5)
O2 O 0.88519(9) 0.57745(10) 0.59457(4)
N1 N 0.63915(10) 0.61286(10) 0.44607(4)
N2 N 0.79352(10) 0.51325(10) 0.57875(4)
N3 N 0.57671(10) 0.63105(10) 0.61941(4)
N4 N 0.45863(10) 0.68611(10) 0.63678(4)
N5 N 0.32026(11) 0.82384(10) 0.67277(4)
N6 N 0.26278(10) 0.70783(10) 0.66337(4)
C1 C 0.58819(11) 0.63027(11) 0.56336(5)
C2 C 0.69989(11) 0.57254(11) 0.54054(5)
C3 C 0.71937(11) 0.56614(11) 0.48402(5)
C4 C 0.53101(12) 0.66812(12) 0.46705(5)
H1 H 0.4714 0.7011 0.4418
C5 C 0.50206(12) 0.67947(11) 0.52266(5)
H2 H 0.4257 0.7196 0.5336
C6 C 0.44021(13) 0.80759(12) 0.65629(5)
H3 H 0.5042 0.8703 0.6577
C7 C 0.34539(12) 0.62485(12) 0.64230(5)
H4 H 0.3284 0.5400 0.6330
C8 C 0.12683(12) 0.68746(13) 0.67762(6)
H5 H 0.1166 0.6912 0.7173
H6 H 0.0997 0.6050 0.6644
H7 H 0.0748 0.7528 0.6606
O3 O 0.73009(10) 0.21305(10) 0.70270(4)
H8 H 0.7728 0.2007 0.6734
H9 H 0.6868 0.2834 0.6982
O4 O 0.59407(11) 0.43370(10) 0.70149(4)
H10 H 0.5957 0.4865 0.6738
H11 H 0.5286 0.4509 0.7194
O5 O 0.62299(10) -0.01219(10) 0.73690(5)
H12 H 0.6487 0.0615 0.7248
H13 H 0.6833 -0.0544 0.7391
loop_
_geom_bond_atom_site_label_1
_geom_bond_atom_site_label_2
_geom_bond_site_symmetry_1
_geom_bond_site_symmetry_2
Cl1 C3 1_555 1_555
O1 N2 1_555 1_555
O2 N2 1_555 1_555
N1 C3 1_555 1_555
N2 C2 1_555 1_555
N3 N4 1_555 1_555
N4 C6 1_555 1_555
N5 N6 1_555 1_555
N6 C7 1_555 1_555
C1 N3 1_555 1_555
C2 C1 1_555 1_555
C3 C2 1_555 1_555
C4 N1 1_555 1_555
H1 C4 1_555 1_555
C5 C1 1_555 1_555
H2 C5 1_555 1_555
C6 N5 1_555 1_555
H3 C6 1_555 1_555
C7 N4 1_555 1_555
H4 C7 1_555 1_555
C8 N6 1_555 1_555
H5 C8 1_555 1_555
H6 C8 1_555 1_555
H7 C8 1_555 1_555
O3 H8 1_555 1_555
H9 O3 1_555 1_555
O4 H10 1_555 1_555
H11 O4 1_555 1_555
O5 H12 1_555 1_555
H13 O5 1_555 1_555
C4 C5 1_555 1_555

#END
