
#######################################################################
#
#                 Cambridge Crystallographic Data Centre
#                                CCDC 
#
#######################################################################
#
# If this CIF has been generated from an entry in the Cambridge 
# Structural Database, then it will include bibliographic, chemical, 
# crystal, experimental, refinement or atomic coordinate data resulting 
# from the CCDC's data processing and validation procedures.
#
#######################################################################

data_RAGZOR
_chemical_formula_moiety         'I1 1-,C9 H12 N5 1+'
_chemical_name_systematic        
'(1-methylpyridin-1-ium-2-yl)(1-methyl-4H-1,2,4-triazol-1-ium-4-yl)azanide iodide'
_symmetry_cell_setting           monoclinic
_symmetry_space_group_name_H-M   'P 21/c'
_symmetry_Int_Tables_number      14
_space_group_name_Hall           '-P 2ybc'
loop_
_symmetry_equiv_pos_site_id
_symmetry_equiv_pos_as_xyz
1 x,y,z
2 -x,1/2+y,1/2-z
3 -x,-y,-z
4 x,1/2-y,1/2+z
_cell_length_a                   7.2144(4)
_cell_length_b                   11.7273(6)
_cell_length_c                   13.9172(8)
_cell_angle_alpha                90
_cell_angle_beta                 97.560(5)
_cell_angle_gamma                90
_cell_volume                     1167.24
_exptl_crystal_colour            yellow
_exptl_crystal_description       block
_chemical_melting_point          '211-213 deg.C'
_cell_formula_units_Z            4
loop_
_atom_site_label
_atom_site_type_symbol
_atom_site_fract_x
_atom_site_fract_y
_atom_site_fract_z
I1 I 1.15001(4) 0.72377(2) 0.16492(2)
N1 N 0.4252(5) 0.6196(3) 0.4069(3)
N2 N 0.6391(5) 0.6197(3) 0.3010(3)
N3 N 0.6982(5) 0.5588(3) 0.2234(3)
N4 N 0.8676(5) 0.4634(3) 0.1378(3)
N5 N 0.7139(5) 0.4959(3) 0.0752(3)
C1 C 0.5059(6) 0.5621(4) 0.3373(3)
C2 C 0.4406(6) 0.4490(4) 0.3151(3)
H1 H 0.4918 0.4067 0.2685
C3 C 0.3028(7) 0.4021(4) 0.3617(4)
H2 H 0.2622 0.3280 0.3472
C4 C 0.2227(6) 0.4658(5) 0.4316(4)
H3 H 0.1278 0.4352 0.4629
C5 C 0.2870(7) 0.5722(5) 0.4520(4)
H4 H 0.2356 0.6146 0.4983
C6 C 0.4848(9) 0.7382(4) 0.4297(4)
H5 H 0.6136 0.7387 0.4580
H6 H 0.4091 0.7702 0.4747
H7 H 0.4706 0.7826 0.3713
C7 C 0.6138(7) 0.5544(4) 0.1294(4)
H8 H 0.5000 0.5886 0.1070
C8 C 0.8594(6) 0.5022(3) 0.2260(3)
H9 H 0.9489 0.4922 0.2798
C9 C 1.0186(7) 0.3974(4) 0.1047(4)
H10 H 0.9750 0.3630 0.0433
H11 H 1.0581 0.3390 0.1512
H12 H 1.1220 0.4469 0.0978
loop_
_geom_bond_atom_site_label_1
_geom_bond_atom_site_label_2
_geom_bond_site_symmetry_1
_geom_bond_site_symmetry_2
N1 C1 1_555 1_555
N2 N3 1_555 1_555
N3 C7 1_555 1_555
N4 N5 1_555 1_555
N5 C7 1_555 1_555
C1 N2 1_555 1_555
C2 C1 1_555 1_555
H1 C2 1_555 1_555
C3 C2 1_555 1_555
H2 C3 1_555 1_555
C4 C3 1_555 1_555
H3 C4 1_555 1_555
C5 N1 1_555 1_555
H4 C5 1_555 1_555
C6 N1 1_555 1_555
H5 C6 1_555 1_555
H6 C6 1_555 1_555
H7 C6 1_555 1_555
C7 H8 1_555 1_555
C8 N3 1_555 1_555
H9 C8 1_555 1_555
C9 N4 1_555 1_555
H10 C9 1_555 1_555
H11 C9 1_555 1_555
H12 C9 1_555 1_555
N4 C8 1_555 1_555
C4 C5 1_555 1_555

#END
