
#######################################################################
#
#                 Cambridge Crystallographic Data Centre
#                                CCDC 
#
#######################################################################
#
# If this CIF has been generated from an entry in the Cambridge 
# Structural Database, then it will include bibliographic, chemical, 
# crystal, experimental, refinement or atomic coordinate data resulting 
# from the CCDC's data processing and validation procedures.
#
#######################################################################

data_RAHJOB
_chemical_name_common            bis(4-(2-Hydroxybenzylamino)phenyl)methane
_chemical_formula_moiety         'C27 H26 N2 O2'
_chemical_name_systematic        
2,2'-(Methylenebis(4,1-phenyleneiminomethylene))diphenol
_symmetry_cell_setting           monoclinic
_symmetry_space_group_name_H-M   'P 21/n'
_symmetry_Int_Tables_number      14
_space_group_name_Hall           '-P 2yn'
loop_
_symmetry_equiv_pos_site_id
_symmetry_equiv_pos_as_xyz
1 x,y,z
2 1/2-x,1/2+y,1/2-z
3 -x,-y,-z
4 1/2+x,1/2-y,1/2+z
_cell_length_a                   5.7991(7)
_cell_length_b                   43.852(5)
_cell_length_c                   8.5227(9)
_cell_angle_alpha                90
_cell_angle_beta                 91.909(2)
_cell_angle_gamma                90
_cell_volume                     2166.14
_exptl_crystal_colour            colorless
_exptl_crystal_description       block
_cell_formula_units_Z            4
_exptl_crystal_recrystallization_method ethanol
loop_
_atom_site_label
_atom_site_type_symbol
_atom_site_fract_x
_atom_site_fract_y
_atom_site_fract_z
O1 O -0.0941(3) 0.10680(3) 0.9018(2)
N1 N 0.1808(3) 0.12392(4) 0.6788(2)
N2 N 0.2903(3) 0.35435(4) 0.6687(2)
C1 C -0.0510(4) 0.07725(5) 0.8564(2)
O2 O 0.3928(3) 0.39331(4) 0.9070(2)
C2 C 0.3640(4) 0.32427(5) 0.6416(2)
C3 C 0.5589(4) 0.26573(5) 0.6058(2)
C4 C 0.2227(4) 0.17354(5) 0.5572(2)
H1 H 0.0851 0.1703 0.5005
C5 C 0.5458(4) 0.20668(5) 0.6235(2)
C6 C 0.5569(4) 0.31970(5) 0.5507(2)
H2 H 0.6223 0.3362 0.5003
C7 C 0.6263(4) 0.18427(5) 0.7236(3)
H3 H 0.7623 0.1877 0.7819
C8 C 0.0350(4) 0.39392(5) 0.7603(3)
C9 C 0.3398(4) 0.20082(5) 0.5401(2)
H4 H 0.2798 0.2155 0.4714
C10 C 0.1376(4) 0.07094(5) 0.7654(3)
C11 C 0.6520(4) 0.29118(5) 0.5342(2)
H5 H 0.7815 0.2889 0.4738
C12 C 0.2634(4) 0.29888(5) 0.7066(3)
H6 H 0.1297 0.3010 0.7630
C13 C 0.3080(4) 0.15112(5) 0.6578(2)
C14 C 0.2018(4) 0.40897(5) 0.8512(3)
C15 C 0.3609(4) 0.27022(5) 0.6883(3)
H7 H 0.2902 0.2535 0.7331
C16 C 0.6848(4) 0.23550(5) 0.6032(3)
H8 H 0.7612 0.2340 0.5040
H9 H 0.8045 0.2359 0.6854
C17 C 0.5125(4) 0.15690(5) 0.7408(3)
H10 H 0.5738 0.1422 0.8087
C18 C -0.1514(4) 0.41037(6) 0.7023(3)
H11 H -0.2631 0.4006 0.6396
C19 C 0.3042(4) 0.09579(5) 0.7245(3)
H12 H 0.4067 0.0999 0.8143
H13 H 0.3974 0.0891 0.6386
C20 C -0.1966(4) 0.05448(5) 0.9043(3)
H14 H -0.3217 0.0592 0.9654
C21 C 0.1789(5) 0.43962(6) 0.8869(3)
H15 H 0.2906 0.4495 0.9492
C22 C 0.1719(5) 0.04099(5) 0.7224(3)
H16 H 0.2961 0.0362 0.6606
C23 C 0.0627(4) 0.36024(5) 0.7303(3)
H17 H 0.0453 0.3490 0.8273
H18 H -0.0559 0.3534 0.6554
C24 C -0.0123(5) 0.45544(6) 0.8288(3)
H19 H -0.0301 0.4760 0.8531
C25 C -0.1556(4) 0.02471(5) 0.8611(3)
H20 H -0.2517 0.0092 0.8948
C26 C 0.0264(5) 0.01784(6) 0.7685(3)
H21 H 0.0518 -0.0022 0.7370
C27 C -0.1760(5) 0.44089(6) 0.7351(3)
H22 H -0.3026 0.4516 0.6943
H23 H 0.396(5) 0.3749(7) 0.830(4)
H24 H -0.011(5) 0.1191(7) 0.836(4)
H25 H 0.081(4) 0.1199(5) 0.597(3)
H26 H 0.326(4) 0.3675(5) 0.590(3)
loop_
_geom_bond_atom_site_label_1
_geom_bond_atom_site_label_2
_geom_bond_site_symmetry_1
_geom_bond_site_symmetry_2
O1 C1 1_555 1_555
N1 C13 1_555 1_555
N2 C2 1_555 1_555
C1 C10 1_555 1_555
O2 C14 1_555 1_555
C2 C6 1_555 1_555
C3 C11 1_555 1_555
C4 H1 1_555 1_555
C5 C7 1_555 1_555
C6 H2 1_555 1_555
C7 H3 1_555 1_555
C8 C14 1_555 1_555
C9 C4 1_555 1_555
H4 C9 1_555 1_555
C10 C19 1_555 1_555
C11 C6 1_555 1_555
H5 C11 1_555 1_555
C12 C2 1_555 1_555
H6 C12 1_555 1_555
C13 C4 1_555 1_555
C14 C21 1_555 1_555
C15 C3 1_555 1_555
H7 C15 1_555 1_555
C16 C3 1_555 1_555
H8 C16 1_555 1_555
H9 C16 1_555 1_555
C17 C7 1_555 1_555
H10 C17 1_555 1_555
C18 C8 1_555 1_555
H11 C18 1_555 1_555
C19 N1 1_555 1_555
H12 C19 1_555 1_555
H13 C19 1_555 1_555
C20 C1 1_555 1_555
H14 C20 1_555 1_555
C21 H15 1_555 1_555
C22 C10 1_555 1_555
H16 C22 1_555 1_555
C23 N2 1_555 1_555
H17 C23 1_555 1_555
H18 C23 1_555 1_555
C24 C21 1_555 1_555
H19 C24 1_555 1_555
C25 C20 1_555 1_555
H20 C25 1_555 1_555
C26 C22 1_555 1_555
H21 C26 1_555 1_555
C27 C18 1_555 1_555
H22 C27 1_555 1_555
H23 O2 1_555 1_555
H24 O1 1_555 1_555
H25 N1 1_555 1_555
H26 N2 1_555 1_555
C5 C9 1_555 1_555
C5 C16 1_555 1_555
C8 C23 1_555 1_555
C12 C15 1_555 1_555
C13 C17 1_555 1_555
C24 C27 1_555 1_555
C25 C26 1_555 1_555

#END
