
#######################################################################
#
#                 Cambridge Crystallographic Data Centre
#                                CCDC 
#
#######################################################################
#
# If this CIF has been generated from an entry in the Cambridge 
# Structural Database, then it will include bibliographic, chemical, 
# crystal, experimental, refinement or atomic coordinate data resulting 
# from the CCDC's data processing and validation procedures.
#
#######################################################################

data_RAHJOC
_chemical_formula_moiety         'C30 H29 N1 O1 P1 1+,C1 F3 O3 S1 1-,C1 H2 Cl2'
_chemical_name_systematic        
'ethyl((2-hydroxyphenyl)(1-methyl-1H-indol-3-yl)methyl)diphenylphosphanium trifluoromethanesulfonate dichloromethane solvate'
_symmetry_cell_setting           orthorhombic
_symmetry_space_group_name_H-M   'P b c a'
_symmetry_Int_Tables_number      61
_space_group_name_Hall           '-P 2ac 2ab'
loop_
_symmetry_equiv_pos_site_id
_symmetry_equiv_pos_as_xyz
1 x,y,z
2 1/2-x,-y,1/2+z
3 -x,1/2+y,1/2-z
4 1/2+x,1/2-y,-z
5 -x,-y,-z
6 1/2+x,y,1/2-z
7 x,1/2-y,1/2+z
8 1/2-x,1/2+y,z
_cell_length_a                   21.2863(7)
_cell_length_b                   13.2443(3)
_cell_length_c                   22.7998(6)
_cell_angle_alpha                90
_cell_angle_beta                 90
_cell_angle_gamma                90
_cell_volume                     6427.77
_exptl_crystal_colour            colorless
_exptl_crystal_description       prism
_cell_formula_units_Z            8
loop_
_atom_site_label
_atom_site_type_symbol
_atom_site_fract_x
_atom_site_fract_y
_atom_site_fract_z
C1 C 0.4854(2) 0.3963(4) 0.7094(2)
H1 H 0.5224 0.4063 0.7351
H2 H 0.4691 0.3274 0.7166
C2 C 0.5061(3) 0.4046(5) 0.6457(3)
H3 H 0.5383 0.3536 0.6375
H4 H 0.5235 0.4720 0.6385
H5 H 0.4699 0.3936 0.6199
C3 C 0.3647(2) 0.4803(4) 0.6744(2)
C4 C 0.3601(2) 0.5500(4) 0.6294(2)
H6 H 0.3886 0.6051 0.6275
C5 C 0.3140(3) 0.5389(5) 0.5873(3)
H7 H 0.3099 0.5878 0.5570
C6 C 0.2736(3) 0.4572(5) 0.5889(3)
H8 H 0.2421 0.4496 0.5597
C7 C 0.2794(3) 0.3874(5) 0.6330(3)
H9 H 0.2519 0.3309 0.6339
C8 C 0.3243(2) 0.3978(4) 0.6758(3)
H10 H 0.3277 0.3491 0.7062
C9 C 0.3916(2) 0.4521(4) 0.7979(2)
C10 C 0.3305(2) 0.4786(4) 0.8114(2)
H11 H 0.3059 0.5154 0.7840
C11 C 0.3052(3) 0.4515(5) 0.8651(3)
H12 H 0.2634 0.4701 0.8747
C12 C 0.3409(4) 0.3974(5) 0.9046(3)
H13 H 0.3233 0.3781 0.9413
C13 C 0.4017(3) 0.3712(5) 0.8914(3)
H14 H 0.4261 0.3348 0.9190
C14 C 0.4272(3) 0.3974(4) 0.8382(3)
H15 H 0.4690 0.3783 0.8290
C15 C 0.4634(2) 0.6120(3) 0.7301(2)
H16 H 0.4851 0.6183 0.6914
C16 C 0.5154(2) 0.6131(3) 0.7756(2)
C17 C 0.5098(2) 0.6082(4) 0.8354(2)
H17 H 0.4713 0.6010 0.8560
C18 C 0.5798(3) 0.6162(6) 0.9242(3)
H18 H 0.6251 0.6222 0.9312
H19 H 0.5643 0.5534 0.9417
H20 H 0.5581 0.6738 0.9420
C19 C 0.6120(2) 0.6254(4) 0.8181(2)
C20 C 0.6774(2) 0.6369(4) 0.8223(3)
H21 H 0.6977 0.6358 0.8594
C21 C 0.7107(3) 0.6496(4) 0.7726(3)
H22 H 0.7550 0.6570 0.7747
C22 C 0.6808(3) 0.6521(5) 0.7175(3)
H23 H 0.7054 0.6626 0.6833
C23 C 0.6165(2) 0.6396(4) 0.7119(3)
H24 H 0.5970 0.6401 0.6744
C24 C 0.5809(2) 0.6261(3) 0.7632(2)
C25 C 0.4184(2) 0.7015(3) 0.7332(2)
C26 C 0.3832(2) 0.7231(4) 0.7832(2)
H25 H 0.3855 0.6795 0.8162
C27 C 0.3450(2) 0.8075(4) 0.7851(3)
H26 H 0.3206 0.8206 0.8192
C28 C 0.3420(2) 0.8732(4) 0.7378(3)
H27 H 0.3163 0.9318 0.7397
C29 C 0.3763(2) 0.8535(4) 0.6881(3)
H28 H 0.3739 0.8979 0.6555
C30 C 0.4149(2) 0.7677(4) 0.6855(2)
N1 N 0.56781(19) 0.6151(3) 0.86109(19)
O1 O 0.45148(16) 0.7477(3) 0.63787(15)
P1 P 0.42557(6) 0.48719(9) 0.72896(6)
H29 H 0.4325 0.7736 0.6050
C31 C 0.5879(5) 0.5500(11) 0.5193(5)
H30 H 0.5977 0.5464 0.4769
H31 H 0.5767 0.4811 0.5325
Cl1 Cl 0.52545(14) 0.6259(2) 0.52890(16)
Cl2 Cl 0.65401(17) 0.5884(4) 0.55632(17)
C32 C 0.3090(4) 0.7645(8) 0.4599(4)
O2 O 0.3968(4) 0.7588(7) 0.5358(4)
O3 O 0.4194(3) 0.8307(6) 0.4398(2)
O4 O 0.3536(3) 0.9224(6) 0.5067(3)
F1 F 0.2880 0.8035 0.4140
F2 F 0.2661(2) 0.7529(4) 0.5012(2)
F3 F 0.3235(4) 0.6664(5) 0.4427(3)
S1 S 0.38004(9) 0.82023(18) 0.48844(8)
O5? O 0.3878(9) 0.8421(17) 0.5446(9)
O6? O 0.3976(15) 0.7066(15) 0.4848(14)
F4? F 0.2889(11) 0.8813(14) 0.4644(11)
loop_
_geom_bond_atom_site_label_1
_geom_bond_atom_site_label_2
_geom_bond_site_symmetry_1
_geom_bond_site_symmetry_2
C1 H1 1_555 1_555
H2 C1 1_555 1_555
C2 C1 1_555 1_555
H3 C2 1_555 1_555
H4 C2 1_555 1_555
H5 C2 1_555 1_555
C3 C4 1_555 1_555
C4 H6 1_555 1_555
C5 C4 1_555 1_555
H7 C5 1_555 1_555
C6 C5 1_555 1_555
H8 C6 1_555 1_555
C7 C6 1_555 1_555
H9 C7 1_555 1_555
C8 C3 1_555 1_555
H10 C8 1_555 1_555
C9 C10 1_555 1_555
C10 H11 1_555 1_555
C11 C10 1_555 1_555
H12 C11 1_555 1_555
C12 C11 1_555 1_555
H13 C12 1_555 1_555
C13 C12 1_555 1_555
H14 C13 1_555 1_555
C14 C9 1_555 1_555
H15 C14 1_555 1_555
C15 H16 1_555 1_555
C16 C15 1_555 1_555
C17 C16 1_555 1_555
H17 C17 1_555 1_555
C18 H18 1_555 1_555
H19 C18 1_555 1_555
H20 C18 1_555 1_555
C19 C20 1_555 1_555
C20 H21 1_555 1_555
C21 C20 1_555 1_555
H22 C21 1_555 1_555
C22 C21 1_555 1_555
H23 C22 1_555 1_555
C23 C22 1_555 1_555
H24 C23 1_555 1_555
C24 C16 1_555 1_555
C25 C15 1_555 1_555
C26 C25 1_555 1_555
H25 C26 1_555 1_555
C27 C26 1_555 1_555
H26 C27 1_555 1_555
C28 C27 1_555 1_555
H27 C28 1_555 1_555
C29 C28 1_555 1_555
H28 C29 1_555 1_555
C30 C25 1_555 1_555
N1 C17 1_555 1_555
O1 C30 1_555 1_555
P1 C1 1_555 1_555
H29 O1 1_555 1_555
C31 H30 1_555 1_555
H31 C31 1_555 1_555
Cl1 C31 1_555 1_555
Cl2 C31 1_555 1_555
C32 F1 1_555 1_555
O2 S1 1_555 1_555
O3 S1 1_555 1_555
O4 S1 1_555 1_555
F2 C32 1_555 1_555
F3 C32 1_555 1_555
S1 C32 1_555 1_555
C3 P1 1_555 1_555
C7 C8 1_555 1_555
C9 P1 1_555 1_555
C13 C14 1_555 1_555
C15 P1 1_555 1_555
C18 N1 1_555 1_555
C19 C24 1_555 1_555
C19 N1 1_555 1_555
C23 C24 1_555 1_555
C29 C30 1_555 1_555

#END
