
#######################################################################
#
#                 Cambridge Crystallographic Data Centre
#                                CCDC 
#
#######################################################################
#
# If this CIF has been generated from an entry in the Cambridge 
# Structural Database, then it will include bibliographic, chemical, 
# crystal, experimental, refinement or atomic coordinate data resulting 
# from the CCDC's data processing and validation procedures.
#
#######################################################################

data_RAHMEV
_chemical_formula_moiety         'C150 H188'
_chemical_name_systematic        
'2,13-bis(3,5-di-t-butylphenyl)-15,15,18,18-tetrakis(4-(tetradecan-6-yl)phenyl)-15,18-dihydrobenzo[5,6]aceanthryleno[1,10,9-bcde]benzo[kl]indeno[2,1,7,6,5-pqrst]pentaphene unknown solvate'
_symmetry_cell_setting           triclinic
_symmetry_space_group_name_H-M   'P -1'
_symmetry_Int_Tables_number      2
_space_group_name_Hall           '-P 1'
loop_
_symmetry_equiv_pos_site_id
_symmetry_equiv_pos_as_xyz
1 x,y,z
2 -x,-y,-z
_cell_length_a                   18.238(12)
_cell_length_b                   23.624(16)
_cell_length_c                   33.03(2)
_cell_angle_alpha                70.079(8)
_cell_angle_beta                 89.439(8)
_cell_angle_gamma                89.631(9)
_cell_volume                     13378.9
_exptl_crystal_colour            green
_exptl_crystal_description       prism
_cell_formula_units_Z            4
loop_
_atom_site_label
_atom_site_type_symbol
_atom_site_fract_x
_atom_site_fract_y
_atom_site_fract_z
C1 C 0.7350(5) 1.1044(4) -0.1837(3)
H1 H 0.7074 1.0886 -0.2017
C2 C 0.7439(5) 1.1641(4) -0.1939(3)
C3 C 0.7786(5) 1.1947(4) -0.1702(3)
C4 C 0.7839(5) 1.2547(4) -0.1797(3)
H2 H 0.7646 1.2820 -0.2057
C5 C 0.8159(5) 1.2737(4) -0.1524(3)
H3 H 0.8178 1.3162 -0.1595
C6 C 0.8506(4) 1.2372(4) -0.1107(3)
H4 H 0.8743 1.2547 -0.0923
C7 C 0.8454(4) 1.1775(4) -0.1015(3)
C8 C 0.8111(5) 1.1555(4) -0.1306(3)
C9 C 0.7997(5) 1.0999(5) -0.1212(3)
C10 C 0.7680(5) 1.0653(4) -0.1454(3)
C11 C 0.8113(5) 0.9954(4) -0.0759(3)
C12 C 0.8262(5) 1.0528(4) -0.0812(3)
C13 C 0.8645(4) 1.0718(4) -0.0507(3)
C14 C 0.8735(4) 1.1354(4) -0.0609(3)
C15 C 0.9165(4) 1.1473(3) -0.0291(3)
H5 H 0.9298 1.1879 -0.0337
C16 C 0.9388(4) 1.1059(4) 0.0060(3)
H6 H 0.9666 1.1182 0.0257
C17 C 0.9248(4) 1.0464(4) 0.0162(3)
C18 C 0.8868(4) 1.0271(4) -0.0132(3)
C19 C 0.8677(4) 0.9662(4) -0.0081(3)
C20 C 0.8319(4) 0.9510(4) -0.0389(3)
H7 H 0.8213 0.9101 -0.0347
C21 C 0.8751(5) 0.8588(4) 0.0411(3)
H8 H 0.8442 0.8475 0.0222
C22 C 0.8927(4) 0.9187(4) 0.0330(3)
C23 C 0.9312(4) 0.9400(4) 0.0622(2)
C24 C 0.9479(4) 0.9993(4) 0.0549(2)
C25 C 0.9861(4) 1.0118(4) 0.0883(3)
H9 H 0.9947 1.0527 0.0852
C26 C 1.0120(4) 0.9663(4) 0.1263(3)
H10 H 1.0401 0.9769 0.1466
C27 C 0.9964(4) 0.9081(4) 0.1331(3)
C28 C 0.9579(4) 0.8971(4) 0.0986(3)
C29 C 0.9432(4) 0.8358(4) 0.1037(3)
C30 C 0.9029(5) 0.8171(4) 0.0765(3)
C31 C 0.9450(5) 0.7329(4) 0.1396(3)
C32 C 0.9676(5) 0.7847(4) 0.1412(3)
C33 C 1.0068(5) 0.7961(4) 0.1741(3)
C34 C 1.0201(4) 0.8564(4) 0.1709(2)
C35 C 1.0540(4) 0.8662(4) 0.2061(3)
H11 H 1.0618 0.9055 0.2069
C36 C 1.0752(5) 0.8153(4) 0.2396(3)
H12 H 1.1025 0.8212 0.2622
C37 C 1.0603(5) 0.7571(4) 0.2430(3)
H13 H 1.0730 0.7246 0.2682
C38 C 1.0249(5) 0.7463(4) 0.2076(3)
C39 C 1.0062(5) 0.6859(4) 0.2048(3)
C40 C 0.9656(4) 0.6804(4) 0.1716(3)
H14 H 0.9522 0.6421 0.1706
C41 C 0.7040(3) 1.2006(2) -0.23428(17)
C42 C 0.6452(3) 1.2374(3) -0.23252(17)
H15 H 0.6296 1.2398 -0.2056
C43 C 0.6094(3) 1.2708(2) -0.2701(2)
C44 C 0.6323(3) 1.2673(2) -0.30943(17)
H16 H 0.6078 1.2901 -0.3351
C45 C 0.6911(3) 1.2305(3) -0.31120(16)
C46 C 0.7269(3) 1.1971(2) -0.2736(2)
H17 H 0.7671 1.1719 -0.2748
C47 C 0.5404(6) 1.3082(4) -0.2663(3)
C48 C 0.5594(5) 1.3531(5) -0.2437(4)
H18 H 0.6006 1.3782 -0.2587
H19 H 0.5167 1.3788 -0.2442
H20 H 0.5729 1.3311 -0.2138
C49 C 0.5134(6) 1.3478(4) -0.3090(3)
H21 H 0.5530 1.3744 -0.3246
H22 H 0.4970 1.3230 -0.3257
H23 H 0.4722 1.3722 -0.3049
C50 C 0.4795(5) 1.2703(4) -0.2450(4)
H24 H 0.4950 1.2434 -0.2166
H25 H 0.4388 1.2956 -0.2416
H26 H 0.4636 1.2464 -0.2624
C51 C 0.7164(6) 1.2280(5) -0.3546(3)
C52 C 0.7078(7) 1.2859(5) -0.3920(4)
H27 H 0.7254 1.2801 -0.4184
H28 H 0.6559 1.2976 -0.3951
H29 H 0.7364 1.3176 -0.3867
C53 C 0.6609(6) 1.1891(5) -0.3680(4)
H30 H 0.6597 1.1486 -0.3463
H31 H 0.6120 1.2075 -0.3702
H32 H 0.6754 1.1865 -0.3959
C54 C 0.7970(6) 1.2027(6) -0.3507(4)
H33 H 0.8000 1.1652 -0.3260
H34 H 0.8104 1.1949 -0.3771
H35 H 0.8307 1.2324 -0.3465
C55 C 0.8169(4) 0.9609(3) -0.1412(3)
C56 C 0.8425(4) 0.9862(3) -0.1833(2)
H36 H 0.8304 1.0267 -0.1997
C57 C 0.8858(4) 0.9523(4) -0.2014(2)
H37 H 0.9033 0.9697 -0.2302
C58 C 0.9036(4) 0.8931(4) -0.1775(3)
C59 C 0.8780(5) 0.8678(3) -0.1354(3)
H38 H 0.8901 0.8273 -0.1191
C60 C 0.8347(4) 0.9016(4) -0.11729(19)
H39 H 0.8172 0.8843 -0.0885
C61 C 0.7713(5) 0.9956(4) -0.1194(3)
C62 C 0.6930(3) 0.9714(3) -0.1109(3)
C63 C 0.6527(4) 0.9709(3) -0.0749(2)
H40 H 0.6751 0.9823 -0.0530
C64 C 0.5795(4) 0.9537(4) -0.0709(2)
H41 H 0.5519 0.9533 -0.0462
C65 C 0.5466(3) 0.9370(3) -0.1029(3)
C66 C 0.5869(4) 0.9375(3) -0.1389(2)
H42 H 0.5645 0.9261 -0.1608
C67 C 0.6601(4) 0.9547(3) -0.1429(2)
H43 H 0.6877 0.9551 -0.1676
C68 C 0.9396(4) 0.7204(3) 0.0637(2)
C69 C 0.9073(3) 0.7365(3) 0.0234(3)
H44 H 0.8619 0.7576 0.0183
C70 C 0.9413(5) 0.7216(3) -0.0095(2)
H45 H 0.9192 0.7326 -0.0370
C71 C 1.0076(5) 0.6906(4) -0.0021(3)
C72 C 1.0400(3) 0.6745(3) 0.0382(3)
H46 H 1.0853 0.6533 0.0433
C73 C 1.0060(4) 0.6894(3) 0.0711(2)
H47 H 1.0281 0.6784 0.0986
C74 C 0.8997(5) 0.7449(4) 0.0961(3)
C75 C 0.8236(3) 0.7200(3) 0.10792(18)
C76 C 0.7688(4) 0.7547(2) 0.11748(19)
H48 H 0.7775 0.7959 0.1133
C77 C 0.7013(3) 0.7292(3) 0.1332(2)
H49 H 0.6639 0.7529 0.1397
C78 C 0.6886(3) 0.6689(4) 0.1393(2)
C79 C 0.7434(4) 0.6341(2) 0.1297(2)
H50 H 0.7347 0.5929 0.1339
C80 C 0.8109(3) 0.6596(3) 0.1140(2)
H51 H 0.8483 0.6359 0.1075
C81 C 1.0266(3) 0.6318(2) 0.2408(2)
C82 C 1.0989(3) 0.6212(3) 0.2542(2)
H52 H 1.1354 0.6505 0.2414
C83 C 1.1179(2) 0.5676(3) 0.2862(2)
C84 C 1.0645(3) 0.5247(2) 0.3049(2)
H53 H 1.0775 0.4881 0.3268
C85 C 0.9922(3) 0.5353(3) 0.2915(2)
C86 C 0.9732(2) 0.5889(3) 0.2595(2)
H54 H 0.9237 0.5962 0.2503
C87 C 1.1937(7) 0.5601(5) 0.3014(4)
C88 C 1.2271(7) 0.6087(5) 0.3155(4)
H55 H 1.1992 0.6124 0.3399
H56 H 1.2781 0.5981 0.3240
H57 H 1.2258 0.6471 0.2915
C89 C 1.2046(6) 0.5044(4) 0.3389(4)
H58 H 1.1678 0.5025 0.3611
H59 H 1.1995 0.4693 0.3298
H60 H 1.2538 0.5045 0.3506
C90 C 1.2437(6) 0.5665(5) 0.2682(4)
H61 H 1.2936 0.5611 0.2797
H62 H 1.2341 0.5360 0.2549
H63 H 1.2388 0.6067 0.2466
C91 C 0.9324(7) 0.4883(6) 0.3120(4)
C92 C 0.9108(9) 0.4933(7) 0.3555(6)
H64 H 0.8934 0.5343 0.3513
H65 H 0.8716 0.4645 0.3687
H66 H 0.9535 0.4844 0.3745
C93 C 0.8574(8) 0.5003(7) 0.2968(5)
H67 H 0.8447 0.5422 0.2929
H68 H 0.8530 0.4935 0.2693
H69 H 0.8241 0.4733 0.3180
C94 C 0.9569(7) 0.4298(6) 0.3188(6)
H70 H 1.0076 0.4256 0.3289
H71 H 0.9256 0.4012 0.3405
H72 H 0.9545 0.4214 0.2917
C95 C 0.9377(10) 0.8548(8) -0.1995(5)
C96 C 0.4653(7) 0.9188(8) -0.1019(5)
C97 C 1.0541(9) 0.6809(7) -0.0390(5)
C98 C 0.6088(6) 0.6371(6) 0.1605(4)
C99 C 0.5403(4) 0.3105(4) 0.5237(3)
H73 H 0.5550 0.3492 0.5050
C100 C 0.5009(4) 0.3050(4) 0.5609(3)
C101 C 0.4777(4) 0.2442(4) 0.5896(3)
C102 C 0.4425(4) 0.2348(4) 0.6297(3)
H74 H 0.4302 0.2678 0.6387
C103 C 0.4262(4) 0.1762(4) 0.6557(3)
H75 H 0.4019 0.1692 0.6825
C104 C 0.4454(4) 0.1270(4) 0.6426(3)
H76 H 0.4345 0.0871 0.6608
C105 C 0.4786(4) 0.1366(4) 0.6049(3)
C106 C 0.4978(4) 0.1967(4) 0.5792(3)
C107 C 0.5350(4) 0.2078(4) 0.5416(3)
C108 C 0.5583(5) 0.2596(4) 0.5135(3)
C109 C 0.5999(5) 0.1787(4) 0.4888(3)
C110 C 0.5594(4) 0.1599(4) 0.5264(3)
C111 C 0.5441(4) 0.0986(4) 0.5499(3)
C112 C 0.5055(4) 0.0869(4) 0.5897(3)
C113 C 0.4915(4) 0.0258(4) 0.6123(3)
H77 H 0.4672 0.0133 0.6395
C114 C 0.5160(4) -0.0177(4) 0.5924(3)
H78 H 0.5061 -0.0591 0.6074
C115 C 0.5511(4) -0.0035(4) 0.5549(3)
C116 C 0.5686(4) 0.0560(4) 0.5326(3)
C117 C 0.6096(4) 0.0759(4) 0.4931(3)
C118 C 0.6232(4) 0.1385(4) 0.4723(3)
H79 H 0.6497 0.1514 0.4459
C119 C 0.6700(4) 0.0459(4) 0.4349(3)
H80 H 0.6820 0.0867 0.4197
C120 C 0.6320(4) 0.0338(4) 0.4743(3)
C121 C 0.6120(4) -0.0297(4) 0.4995(3)
C122 C 0.5740(4) -0.0475(4) 0.5364(3)
C123 C 0.5568(4) -0.1096(4) 0.5561(3)
H81 H 0.5269 -0.1220 0.5813
C124 C 0.5828(4) -0.1525(4) 0.5392(3)
H82 H 0.5727 -0.1938 0.5541
C125 C 0.6224(4) -0.1366(4) 0.5021(3)
C126 C 0.6352(4) -0.0736(4) 0.4812(3)
C127 C 0.6735(4) -0.0529(4) 0.4406(3)
C128 C 0.6919(4) 0.0034(4) 0.4157(3)
C129 C 0.7346(5) -0.0688(5) 0.3813(3)
C130 C 0.7000(5) -0.0941(4) 0.4228(3)
C131 C 0.6908(4) -0.1576(4) 0.4405(3)
C132 C 0.6517(4) -0.1772(4) 0.4826(3)
C133 C 0.6488(5) -0.2409(4) 0.4988(3)
H83 H 0.6235 -0.2602 0.5251
C134 C 0.6832(5) -0.2776(4) 0.4765(3)
H84 H 0.6825 -0.3201 0.4901
C135 C 0.7141(4) -0.2561(4) 0.4400(3)
H85 H 0.7305 -0.2836 0.4265
C136 C 0.7258(5) -0.1934(4) 0.4178(3)
C137 C 0.7611(4) -0.1637(4) 0.3806(3)
C138 C 0.7700(5) -0.1032(4) 0.3601(3)
H86 H 0.7973 -0.0865 0.3341
C139 C 0.4814(3) 0.3578(2) 0.57136(19)
C140 C 0.4094(3) 0.3702(2) 0.57999(19)
H87 H 0.3718 0.3419 0.5814
C141 C 0.3925(2) 0.4239(3) 0.58655(19)
C142 C 0.4476(3) 0.4652(2) 0.58448(19)
H88 H 0.4360 0.5019 0.5890
C143 C 0.5195(3) 0.4528(2) 0.57586(18)
C144 C 0.5364(2) 0.3991(3) 0.56930(18)
H89 H 0.5856 0.3907 0.5634
C145 C 0.3087(6) 0.4341(5) 0.5957(4)
C146 C 0.2863(6) 0.3836(5) 0.6366(4)
H90 H 0.2936 0.3447 0.6326
H91 H 0.3163 0.3852 0.6606
H92 H 0.2345 0.3883 0.6430
C147 C 0.2591(5) 0.4259(6) 0.5604(5)
H93 H 0.2664 0.3855 0.5591
H94 H 0.2077 0.4310 0.5674
H95 H 0.2718 0.4560 0.5326
C148 C 0.2992(6) 0.4963(5) 0.5990(5)
H96 H 0.3144 0.5269 0.5718
H97 H 0.2475 0.5027 0.6048
H98 H 0.3294 0.4996 0.6224
C149 C 0.5782(6) 0.5010(5) 0.5756(4)
C150 C 0.5791(6) 0.5120(5) 0.6184(4)
H99 H 0.5917 0.4745 0.6415
H100 H 0.6156 0.5429 0.6170
H101 H 0.5305 0.5257 0.6241
C151 C 0.6535(5) 0.4785(5) 0.5735(4)
H102 H 0.6623 0.4426 0.5988
H103 H 0.6593 0.4682 0.5473
H104 H 0.6888 0.5098 0.5729
C152 C 0.5602(5) 0.5532(4) 0.5401(3)
H105 H 0.5098 0.5656 0.5435
H106 H 0.5940 0.5858 0.5390
H107 H 0.5644 0.5441 0.5133
C153 C 0.7991(3) -0.1983(2) 0.3573(2)
C154 C 0.7758(3) -0.1955(2) 0.3167(2)
H108 H 0.7367 -0.1694 0.3032
C155 C 0.8098(3) -0.2309(3) 0.29587(16)
C156 C 0.8671(3) -0.2691(3) 0.3156(2)
H109 H 0.8904 -0.2933 0.3014
C157 C 0.8904(3) -0.2719(2) 0.3562(2)
C158 C 0.8564(3) -0.2365(3) 0.37703(16)
H110 H 0.8724 -0.2384 0.4048
C159 C 0.7885(6) -0.2308(5) 0.2511(4)
C160 C 0.7056(5) -0.2136(6) 0.2467(4)
H111 H 0.6881 -0.2127 0.2185
H112 H 0.6776 -0.2435 0.2694
H113 H 0.6989 -0.1738 0.2493
C161 C 0.8173(7) -0.2915(6) 0.2388(4)
H114 H 0.8012 -0.2876 0.2098
H115 H 0.8710 -0.2939 0.2401
H116 H 0.7964 -0.3282 0.2596
C162 C 0.8388(6) -0.1825(6) 0.2177(4)
H117 H 0.8271 -0.1808 0.1884
H118 H 0.8302 -0.1429 0.2203
H119 H 0.8904 -0.1938 0.2237
C163 C 0.9551(6) -0.3159(5) 0.3772(4)
C164 C 0.9364(5) -0.3464(4) 0.4303(3)
H120 H 0.9759 -0.3742 0.4445
H121 H 0.9326 -0.3143 0.4428
H122 H 0.8899 -0.3683 0.4345
C165 C 1.0249(5) -0.2731(4) 0.3734(4)
H123 H 1.0678 -0.2979 0.3860
H124 H 1.0349 -0.2503 0.3430
H125 H 1.0147 -0.2451 0.3889
C166 C 0.9756(7) -0.3573(6) 0.3493(5)
H126 H 1.0160 -0.3843 0.3631
H127 H 0.9327 -0.3811 0.3475
H128 H 0.9906 -0.3318 0.3203
C167 C 0.5660(4) 0.2780(3) 0.43271(19)
C168 C 0.4982(4) 0.3066(2) 0.4276(2)
H129 H 0.4759 0.3150 0.4511
C169 C 0.4629(3) 0.3229(3) 0.3882(3)
H130 H 0.4165 0.3425 0.3847
C170 C 0.4954(4) 0.3107(3) 0.35382(18)
C171 C 0.5633(4) 0.2821(3) 0.3589(2)
H131 H 0.5856 0.2737 0.3354
C172 C 0.5986(3) 0.2658(3) 0.3984(3)
H132 H 0.6450 0.2462 0.4019
C173 C 0.6025(5) 0.2485(4) 0.4769(3)
C174 C 0.6833(3) 0.2714(3) 0.4753(2)
C175 C 0.7323(4) 0.2370(2) 0.5060(2)
H133 H 0.7184 0.1983 0.5249
C176 C 0.8016(3) 0.2594(3) 0.5090(2)
H134 H 0.8351 0.2359 0.5300
C177 C 0.8219(3) 0.3160(3) 0.4813(3)
C178 C 0.7730(4) 0.3504(2) 0.4506(2)
H135 H 0.7869 0.3891 0.4317
C179 C 0.7037(3) 0.3281(3) 0.4476(2)
H136 H 0.6702 0.3515 0.4266
C180 C 0.6825(3) 0.0378(3) 0.33666(19)
C181 C 0.6580(4) 0.0952(3) 0.3328(2)
H137 H 0.6705 0.1124 0.3539
C182 C 0.6152(4) 0.1276(3) 0.2979(3)
H138 H 0.5984 0.1669 0.2952
C183 C 0.5969(3) 0.1025(3) 0.2669(2)
C184 C 0.6214(4) 0.0451(4) 0.2708(2)
H139 H 0.6089 0.0280 0.2496
C185 C 0.6643(4) 0.0127(2) 0.3057(2)
H140 H 0.6811 -0.0265 0.3083
C186 C 0.7270(5) 0.0027(4) 0.3765(3)
C187 C 0.8088(3) 0.0264(3) 0.3717(3)
C188 C 0.8513(4) 0.0200(3) 0.4077(2)
H141 H 0.8304 0.0041 0.4357
C189 C 0.9246(4) 0.0370(4) 0.4027(2)
H142 H 0.9537 0.0327 0.4273
C190 C 0.9553(3) 0.0604(4) 0.3617(3)
C191 C 0.9128(4) 0.0668(3) 0.3257(2)
H143 H 0.9338 0.0828 0.2977
C192 C 0.8395(4) 0.0498(3) 0.3307(2)
H144 H 0.8104 0.0541 0.3061
C193 C 0.4431(9) 0.3278(7) 0.3144(4)
C194 C 0.9048(6) 0.3386(6) 0.4821(5)
C195 C 0.5473(9) 0.1350(7) 0.2283(4)
C196 C 1.0423(7) 0.0682(8) 0.3540(5)
loop_
_geom_bond_atom_site_label_1
_geom_bond_atom_site_label_2
_geom_bond_site_symmetry_1
_geom_bond_site_symmetry_2
C1 H1 1_555 1_555
C2 C1 1_555 1_555
C3 C2 1_555 1_555
C4 C3 1_555 1_555
H2 C4 1_555 1_555
C5 C4 1_555 1_555
H3 C5 1_555 1_555
C6 C5 1_555 1_555
H4 C6 1_555 1_555
C7 C6 1_555 1_555
C8 C3 1_555 1_555
C9 C8 1_555 1_555
C10 C1 1_555 1_555
C11 C12 1_555 1_555
C12 C9 1_555 1_555
C13 C12 1_555 1_555
C14 C7 1_555 1_555
C15 C14 1_555 1_555
H5 C15 1_555 1_555
C16 C15 1_555 1_555
H6 C16 1_555 1_555
C17 C16 1_555 1_555
C18 C13 1_555 1_555
C19 C18 1_555 1_555
C20 C11 1_555 1_555
H7 C20 1_555 1_555
C21 H8 1_555 1_555
C22 C19 1_555 1_555
C23 C22 1_555 1_555
C24 C17 1_555 1_555
C25 C24 1_555 1_555
H9 C25 1_555 1_555
C26 C25 1_555 1_555
H10 C26 1_555 1_555
C27 C26 1_555 1_555
C28 C23 1_555 1_555
C29 C28 1_555 1_555
C30 C21 1_555 1_555
C31 C32 1_555 1_555
C32 C29 1_555 1_555
C33 C32 1_555 1_555
C34 C27 1_555 1_555
C35 C34 1_555 1_555
H11 C35 1_555 1_555
C36 C35 1_555 1_555
H12 C36 1_555 1_555
C37 C36 1_555 1_555
H13 C37 1_555 1_555
C38 C33 1_555 1_555
C39 C38 1_555 1_555
C40 C31 1_555 1_555
H14 C40 1_555 1_555
C41 C2 1_555 1_555
C42 C41 1_555 1_555
H15 C42 1_555 1_555
C43 C42 1_555 1_555
C44 C43 1_555 1_555
H16 C44 1_555 1_555
C45 C44 1_555 1_555
C46 C41 1_555 1_555
H17 C46 1_555 1_555
C47 C43 1_555 1_555
C48 C47 1_555 1_555
H18 C48 1_555 1_555
H19 C48 1_555 1_555
H20 C48 1_555 1_555
C49 C47 1_555 1_555
H21 C49 1_555 1_555
H22 C49 1_555 1_555
H23 C49 1_555 1_555
C50 C47 1_555 1_555
H24 C50 1_555 1_555
H25 C50 1_555 1_555
H26 C50 1_555 1_555
C51 C45 1_555 1_555
C52 C51 1_555 1_555
H27 C52 1_555 1_555
H28 C52 1_555 1_555
H29 C52 1_555 1_555
C53 C51 1_555 1_555
H30 C53 1_555 1_555
H31 C53 1_555 1_555
H32 C53 1_555 1_555
C54 C51 1_555 1_555
H33 C54 1_555 1_555
H34 C54 1_555 1_555
H35 C54 1_555 1_555
C55 C56 1_555 1_555
C56 H36 1_555 1_555
C57 C56 1_555 1_555
H37 C57 1_555 1_555
C58 C57 1_555 1_555
C59 C58 1_555 1_555
H38 C59 1_555 1_555
C60 C55 1_555 1_555
H39 C60 1_555 1_555
C61 C10 1_555 1_555
C62 C61 1_555 1_555
C63 C62 1_555 1_555
H40 C63 1_555 1_555
C64 C63 1_555 1_555
H41 C64 1_555 1_555
C65 C64 1_555 1_555
C66 C65 1_555 1_555
H42 C66 1_555 1_555
C67 C62 1_555 1_555
H43 C67 1_555 1_555
C68 C69 1_555 1_555
C69 H44 1_555 1_555
C70 C69 1_555 1_555
H45 C70 1_555 1_555
C71 C70 1_555 1_555
C72 C71 1_555 1_555
H46 C72 1_555 1_555
C73 C68 1_555 1_555
H47 C73 1_555 1_555
C74 C30 1_555 1_555
C75 C74 1_555 1_555
C76 C75 1_555 1_555
H48 C76 1_555 1_555
C77 C76 1_555 1_555
H49 C77 1_555 1_555
C78 C77 1_555 1_555
C79 C78 1_555 1_555
H50 C79 1_555 1_555
C80 C75 1_555 1_555
H51 C80 1_555 1_555
C81 C39 1_555 1_555
C82 C81 1_555 1_555
H52 C82 1_555 1_555
C83 C82 1_555 1_555
C84 C83 1_555 1_555
H53 C84 1_555 1_555
C85 C84 1_555 1_555
C86 C81 1_555 1_555
H54 C86 1_555 1_555
C87 C83 1_555 1_555
C88 C87 1_555 1_555
H55 C88 1_555 1_555
H56 C88 1_555 1_555
H57 C88 1_555 1_555
C89 C87 1_555 1_555
H58 C89 1_555 1_555
H59 C89 1_555 1_555
H60 C89 1_555 1_555
C90 C87 1_555 1_555
H61 C90 1_555 1_555
H62 C90 1_555 1_555
H63 C90 1_555 1_555
C91 C85 1_555 1_555
C92 C91 1_555 1_555
H64 C92 1_555 1_555
H65 C92 1_555 1_555
H66 C92 1_555 1_555
C93 C91 1_555 1_555
H67 C93 1_555 1_555
H68 C93 1_555 1_555
H69 C93 1_555 1_555
C94 C91 1_555 1_555
H70 C94 1_555 1_555
H71 C94 1_555 1_555
H72 C94 1_555 1_555
C95 C58 1_555 1_555
C96 C65 1_555 1_555
C97 C71 1_555 1_555
C98 C78 1_555 1_555
C99 H73 1_555 1_555
C100 C99 1_555 1_555
C101 C100 1_555 1_555
C102 C101 1_555 1_555
H74 C102 1_555 1_555
C103 C102 1_555 1_555
H75 C103 1_555 1_555
C104 C103 1_555 1_555
H76 C104 1_555 1_555
C105 C104 1_555 1_555
C106 C101 1_555 1_555
C107 C106 1_555 1_555
C108 C99 1_555 1_555
C109 C110 1_555 1_555
C110 C107 1_555 1_555
C111 C110 1_555 1_555
C112 C105 1_555 1_555
C113 C112 1_555 1_555
H77 C113 1_555 1_555
C114 C113 1_555 1_555
H78 C114 1_555 1_555
C115 C114 1_555 1_555
C116 C111 1_555 1_555
C117 C116 1_555 1_555
C118 C109 1_555 1_555
H79 C118 1_555 1_555
C119 H80 1_555 1_555
C120 C117 1_555 1_555
C121 C120 1_555 1_555
C122 C115 1_555 1_555
C123 C122 1_555 1_555
H81 C123 1_555 1_555
C124 C123 1_555 1_555
H82 C124 1_555 1_555
C125 C124 1_555 1_555
C126 C121 1_555 1_555
C127 C126 1_555 1_555
C128 C119 1_555 1_555
C129 C130 1_555 1_555
C130 C127 1_555 1_555
C131 C130 1_555 1_555
C132 C125 1_555 1_555
C133 C132 1_555 1_555
H83 C133 1_555 1_555
C134 C133 1_555 1_555
H84 C134 1_555 1_555
C135 C134 1_555 1_555
H85 C135 1_555 1_555
C136 C131 1_555 1_555
C137 C136 1_555 1_555
C138 C129 1_555 1_555
H86 C138 1_555 1_555
C139 C100 1_555 1_555
C140 C139 1_555 1_555
H87 C140 1_555 1_555
C141 C140 1_555 1_555
C142 C141 1_555 1_555
H88 C142 1_555 1_555
C143 C142 1_555 1_555
C144 C139 1_555 1_555
H89 C144 1_555 1_555
C145 C141 1_555 1_555
C146 C145 1_555 1_555
H90 C146 1_555 1_555
H91 C146 1_555 1_555
H92 C146 1_555 1_555
C147 C145 1_555 1_555
H93 C147 1_555 1_555
H94 C147 1_555 1_555
H95 C147 1_555 1_555
C148 C145 1_555 1_555
H96 C148 1_555 1_555
H97 C148 1_555 1_555
H98 C148 1_555 1_555
C149 C143 1_555 1_555
C150 C149 1_555 1_555
H99 C150 1_555 1_555
H100 C150 1_555 1_555
H101 C150 1_555 1_555
C151 C149 1_555 1_555
H102 C151 1_555 1_555
H103 C151 1_555 1_555
H104 C151 1_555 1_555
C152 C149 1_555 1_555
H105 C152 1_555 1_555
H106 C152 1_555 1_555
H107 C152 1_555 1_555
C153 C137 1_555 1_555
C154 C153 1_555 1_555
H108 C154 1_555 1_555
C155 C154 1_555 1_555
C156 C155 1_555 1_555
H109 C156 1_555 1_555
C157 C156 1_555 1_555
C158 C153 1_555 1_555
H110 C158 1_555 1_555
C159 C155 1_555 1_555
C160 C159 1_555 1_555
H111 C160 1_555 1_555
H112 C160 1_555 1_555
H113 C160 1_555 1_555
C161 C159 1_555 1_555
H114 C161 1_555 1_555
H115 C161 1_555 1_555
H116 C161 1_555 1_555
C162 C159 1_555 1_555
H117 C162 1_555 1_555
H118 C162 1_555 1_555
H119 C162 1_555 1_555
C163 C157 1_555 1_555
C164 C163 1_555 1_555
H120 C164 1_555 1_555
H121 C164 1_555 1_555
H122 C164 1_555 1_555
C165 C163 1_555 1_555
H123 C165 1_555 1_555
H124 C165 1_555 1_555
H125 C165 1_555 1_555
C166 C163 1_555 1_555
H126 C166 1_555 1_555
H127 C166 1_555 1_555
H128 C166 1_555 1_555
C167 C168 1_555 1_555
C168 H129 1_555 1_555
C169 C168 1_555 1_555
H130 C169 1_555 1_555
C170 C169 1_555 1_555
C171 C170 1_555 1_555
H131 C171 1_555 1_555
C172 C167 1_555 1_555
H132 C172 1_555 1_555
C173 C108 1_555 1_555
C174 C173 1_555 1_555
C175 C174 1_555 1_555
H133 C175 1_555 1_555
C176 C175 1_555 1_555
H134 C176 1_555 1_555
C177 C176 1_555 1_555
C178 C177 1_555 1_555
H135 C178 1_555 1_555
C179 C174 1_555 1_555
H136 C179 1_555 1_555
C180 C181 1_555 1_555
C181 H137 1_555 1_555
C182 C181 1_555 1_555
H138 C182 1_555 1_555
C183 C182 1_555 1_555
C184 C183 1_555 1_555
H139 C184 1_555 1_555
C185 C180 1_555 1_555
H140 C185 1_555 1_555
C186 C128 1_555 1_555
C187 C186 1_555 1_555
C188 C187 1_555 1_555
H141 C188 1_555 1_555
C189 C188 1_555 1_555
H142 C189 1_555 1_555
C190 C189 1_555 1_555
C191 C190 1_555 1_555
H143 C191 1_555 1_555
C192 C187 1_555 1_555
H144 C192 1_555 1_555
C193 C170 1_555 1_555
C194 C177 1_555 1_555
C195 C183 1_555 1_555
C196 C190 1_555 1_555
C7 C8 1_555 1_555
C9 C10 1_555 1_555
C11 C61 1_555 1_555
C13 C14 1_555 1_555
C17 C18 1_555 1_555
C19 C20 1_555 1_555
C21 C22 1_555 1_555
C23 C24 1_555 1_555
C27 C28 1_555 1_555
C29 C30 1_555 1_555
C31 C74 1_555 1_555
C33 C34 1_555 1_555
C37 C38 1_555 1_555
C39 C40 1_555 1_555
C45 C46 1_555 1_555
C55 C61 1_555 1_555
C59 C60 1_555 1_555
C66 C67 1_555 1_555
C68 C74 1_555 1_555
C72 C73 1_555 1_555
C79 C80 1_555 1_555
C85 C86 1_555 1_555
C105 C106 1_555 1_555
C107 C108 1_555 1_555
C109 C173 1_555 1_555
C111 C112 1_555 1_555
C115 C116 1_555 1_555
C117 C118 1_555 1_555
C119 C120 1_555 1_555
C121 C122 1_555 1_555
C125 C126 1_555 1_555
C127 C128 1_555 1_555
C129 C186 1_555 1_555
C131 C132 1_555 1_555
C135 C136 1_555 1_555
C137 C138 1_555 1_555
C143 C144 1_555 1_555
C157 C158 1_555 1_555
C167 C173 1_555 1_555
C171 C172 1_555 1_555
C178 C179 1_555 1_555
C180 C186 1_555 1_555
C184 C185 1_555 1_555
C191 C192 1_555 1_555

#END
