
#######################################################################
#
#                 Cambridge Crystallographic Data Centre
#                                CCDC 
#
#######################################################################
#
# If this CIF has been generated from an entry in the Cambridge 
# Structural Database, then it will include bibliographic, chemical, 
# crystal, experimental, refinement or atomic coordinate data resulting 
# from the CCDC's data processing and validation procedures.
#
#######################################################################

data_RAHMIZ
_chemical_formula_moiety         'C211 H260'
_chemical_name_systematic        
'3,18-bis(3,5-di-t-butylphenyl)-1,28:20,21:24,25-tris(bis(4-(tetradecan-6-yl)phenyl)methylidene)hexarylene unknown solvate'
_symmetry_cell_setting           monoclinic
_symmetry_space_group_name_H-M   'P 21/n'
_symmetry_Int_Tables_number      14
_space_group_name_Hall           '-P 2yn'
loop_
_symmetry_equiv_pos_site_id
_symmetry_equiv_pos_as_xyz
1 x,y,z
2 1/2-x,1/2+y,1/2-z
3 -x,-y,-z
4 1/2+x,1/2-y,1/2+z
_cell_length_a                   16.968(6)
_cell_length_b                   28.972(10)
_cell_length_c                   37.666(13)
_cell_angle_alpha                90
_cell_angle_beta                 95.777(5)
_cell_angle_gamma                90
_cell_volume                     18422.4
_exptl_crystal_colour            green
_exptl_crystal_description       prism
_cell_formula_units_Z            4
loop_
_atom_site_label
_atom_site_type_symbol
_atom_site_fract_x
_atom_site_fract_y
_atom_site_fract_z
C1 C 0.6925(7) 0.8376(4) 0.2949(3)
H1 H 0.7328 0.8596 0.3016
C2 C 0.6576(9) 0.8321(5) 0.2585(3)
C3 C 0.5961(8) 0.8019(5) 0.2447(4)
C4 C 0.5644(8) 0.7991(5) 0.2092(4)
H2 H 0.5819 0.8180 0.1909
C5 C 0.5046(8) 0.7660(5) 0.2028(3)
H3 H 0.4830 0.7640 0.1786
C6 C 0.4716(7) 0.7359(4) 0.2253(3)
H4 H 0.4337 0.7131 0.2173
C7 C 0.5024(8) 0.7429(5) 0.2646(3)
C8 C 0.5642(8) 0.7740(5) 0.2714(4)
C9 C 0.5968(8) 0.7815(5) 0.3067(4)
C10 C 0.6607(8) 0.8066(4) 0.3206(3)
C11 C 0.6143(8) 0.7648(4) 0.3680(3)
C12 C 0.5688(8) 0.7541(5) 0.3360(3)
C13 C 0.5067(7) 0.7186(4) 0.3276(3)
C14 C 0.4743(7) 0.7124(4) 0.2934(3)
C15 C 0.4191(7) 0.6795(4) 0.2899(3)
H5 H 0.3907 0.6747 0.2671
C16 C 0.4002(6) 0.6499(4) 0.3205(3)
H6 H 0.3607 0.6266 0.3180
C17 C 0.4410(7) 0.6582(4) 0.3506(3)
C18 C 0.4951(7) 0.6919(4) 0.3598(3)
C19 C 0.5355(7) 0.7036(4) 0.3944(3)
C20 C 0.5936(7) 0.7386(4) 0.3985(3)
H7 H 0.6193 0.7451 0.4215
C21 C 0.5529(6) 0.6856(4) 0.4586(2)
H8 H 0.5829 0.7129 0.4637
C22 C 0.5186(7) 0.6740(4) 0.4244(3)
C23 C 0.4694(7) 0.6370(4) 0.4156(3)
C24 C 0.4253(7) 0.6254(4) 0.3832(3)
C25 C 0.3748(6) 0.5845(4) 0.3775(3)
H9 H 0.3481 0.5781 0.3546
C26 C 0.3666(6) 0.5549(4) 0.4067(3)
H10 H 0.3349 0.5279 0.4034
C27 C 0.4048(7) 0.5651(4) 0.4405(3)
C28 C 0.4549(7) 0.6036(4) 0.4462(3)
C29 C 0.4958(7) 0.6141(4) 0.4784(3)
C30 C 0.5379(7) 0.6512(4) 0.4857(3)
C31 C 0.5273(7) 0.6044(4) 0.5381(3)
C32 C 0.4852(7) 0.5915(4) 0.5082(3)
C33 C 0.4378(6) 0.5481(4) 0.5090(3)
C34 C 0.3939(7) 0.5376(4) 0.4749(3)
C35 C 0.3480(6) 0.4952(4) 0.4745(3)
H11 H 0.3213 0.4836 0.4530
C36 C 0.3447(6) 0.4731(4) 0.5056(3)
H12 H 0.3128 0.4461 0.5048
C37 C 0.3806(7) 0.4846(4) 0.5373(3)
C38 C 0.4255(7) 0.5235(4) 0.5395(3)
C39 C 0.4757(6) 0.5403(4) 0.5712(3)
C40 C 0.5201(6) 0.5802(4) 0.5718(3)
H13 H 0.5454 0.5918 0.5936
C41 C 0.5140(6) 0.5288(4) 0.6357(3)
H14 H 0.5430 0.5569 0.6367
C42 C 0.4391(9) 0.6170(6) 0.8328(3)
C43 C 0.4831(11) 0.6975(6) 0.7806(4)
C44 C 0.4670(6) 0.5138(4) 0.6027(3)
C45 C 0.4216(7) 0.4768(4) 0.6020(3)
C46 C 0.3775(7) 0.4559(4) 0.5714(3)
C47 C 0.3305(6) 0.4182(3) 0.5726(3)
H15 H 0.2998 0.4093 0.5512
C48 C 0.3243(6) 0.3924(4) 0.6022(3)
H16 H 0.2914 0.3658 0.6021
C49 C 0.3738(7) 0.4089(4) 0.6353(3)
C50 C 0.4193(7) 0.4495(4) 0.6356(3)
C51 C 0.4650(8) 0.4620(5) 0.6639(3)
C52 C 0.5140(7) 0.4973(4) 0.6682(3)
C53 C 0.5188(8) 0.4594(5) 0.7236(3)
C54 C 0.4676(7) 0.4382(5) 0.6965(3)
C55 C 0.4204(7) 0.4004(4) 0.7018(3)
C56 C 0.3661(8) 0.3799(4) 0.6720(3)
C57 C 0.3184(7) 0.3438(4) 0.6784(3)
H17 H 0.2828 0.3320 0.6595
C58 C 0.3206(7) 0.3237(4) 0.7118(3)
H18 H 0.2889 0.2976 0.7160
C59 C 0.3679(7) 0.3421(4) 0.7376(3)
H19 H 0.3672 0.3263 0.7596
C60 C 0.4251(8) 0.3840(5) 0.7398(4)
C61 C 0.4734(9) 0.4034(6) 0.7655(4)
C62 C 0.5172(7) 0.4413(5) 0.7589(3)
H20 H 0.5474 0.4562 0.7782
C63 C 0.6945(5) 0.8655(3) 0.2338(2)
C64 C 0.7217(5) 0.8495(3) 0.2024(3)
H21 H 0.7173 0.8177 0.1964
C65 C 0.7551(5) 0.8801(4) 0.17984(18)
C66 C 0.7615(5) 0.9267(3) 0.1886(2)
H22 H 0.7844 0.9476 0.1732
C67 C 0.7343(5) 0.9426(3) 0.2200(3)
C68 C 0.7008(5) 0.9120(4) 0.24260(18)
H23 H 0.6823 0.9229 0.2640
C69 C 0.7825(12) 0.8632(7) 0.1413(4)
C70 C 0.7235(10) 0.8341(6) 0.1214(4)
H24 H 0.6927 0.8177 0.1381
H25 H 0.6880 0.8534 0.1055
H26 H 0.7500 0.8117 0.1072
C71 C 0.8460(10) 0.8959(6) 0.1288(4)
H27 H 0.8758 0.9101 0.1496
H28 H 0.8823 0.8784 0.1153
H29 H 0.8202 0.9201 0.1136
C72 C 0.8535(11) 0.8284(6) 0.1534(4)
H30 H 0.8964 0.8453 0.1671
H31 H 0.8342 0.8039 0.1683
H32 H 0.8734 0.8146 0.1323
C73 C 0.7420(11) 0.9947(5) 0.2280(5)
C74 C 0.7589(9) 1.0255(5) 0.1987(3)
H33 H 0.7623 1.0574 0.2073
H34 H 0.8094 1.0166 0.1901
H35 H 0.7164 1.0230 0.1791
C75 C 0.6583(9) 1.0109(5) 0.2431(4)
H36 H 0.6467 0.9904 0.2626
H37 H 0.6634 1.0427 0.2518
H38 H 0.6152 1.0091 0.2238
C76 C 0.8058(9) 1.0001(5) 0.2653(4)
H39 H 0.7908 0.9786 0.2835
H40 H 0.8597 0.9931 0.2597
H41 H 0.8038 1.0318 0.2743
C77 C 0.7579(4) 0.7792(3) 0.3734(2)
C78 C 0.8045(5) 0.7592(3) 0.34926(15)
H42 H 0.7877 0.7598 0.3244
C79 C 0.8758(5) 0.7382(2) 0.3615(2)
H43 H 0.9077 0.7245 0.3450
C80 C 0.9005(4) 0.7373(3) 0.3978(3)
C81 C 0.8539(6) 0.7574(3) 0.42190(15)
H44 H 0.8707 0.7567 0.4467
C82 C 0.7826(5) 0.7783(2) 0.4097(2)
H45 H 0.7507 0.7920 0.4262
C83 C 0.6734(8) 0.8020(4) 0.3599(3)
C84 C 0.6613(7) 0.8486(2) 0.37928(18)
C85 C 0.7194(4) 0.8826(4) 0.38360(19)
H46 H 0.7716 0.8761 0.3780
C86 C 0.7010(6) 0.9260(3) 0.3961(2)
H47 H 0.7406 0.9492 0.3991
C87 C 0.6245(7) 0.9354(2) 0.4043(2)
C88 C 0.5665(5) 0.9015(4) 0.4000(2)
H48 H 0.5143 0.9079 0.4056
C89 C 0.5849(6) 0.8581(3) 0.3875(2)
H49 H 0.5453 0.8348 0.3845
C90 C 0.6684(4) 0.6464(3) 0.5341(2)
C91 C 0.7184(6) 0.6526(3) 0.50745(16)
H50 H 0.6979 0.6640 0.4847
C92 C 0.7985(5) 0.6420(3) 0.5140(2)
H51 H 0.8326 0.6462 0.4958
C93 C 0.8285(4) 0.6253(3) 0.5472(3)
C94 C 0.7785(6) 0.6192(3) 0.57391(18)
H52 H 0.7990 0.6078 0.5966
C95 C 0.6984(5) 0.6297(3) 0.56735(19)
H53 H 0.6643 0.6256 0.5856
C96 C 0.5717(7) 0.6495(4) 0.5285(3)
C97 C 0.5419(6) 0.6958(3) 0.54593(19)
C98 C 0.4646(6) 0.6996(3) 0.5548(2)
H54 H 0.4289 0.6745 0.5504
C99 C 0.4397(4) 0.7400(4) 0.5701(2)
H55 H 0.3869 0.7425 0.5762
C100 C 0.4920(7) 0.7767(3) 0.5765(2)
C101 C 0.5693(6) 0.7729(3) 0.5677(2)
H56 H 0.6051 0.7980 0.5720
C102 C 0.5943(4) 0.7325(4) 0.5524(2)
H57 H 0.6471 0.7299 0.5463
C103 C 0.6475(4) 0.4938(4) 0.7047(3)
C104 C 0.6856(7) 0.5248(3) 0.6840(2)
H58 H 0.6571 0.5500 0.6729
C105 C 0.7654(7) 0.5189(4) 0.6797(2)
H59 H 0.7914 0.5402 0.6656
C106 C 0.8071(4) 0.4821(5) 0.6960(3)
C107 C 0.7690(7) 0.4510(3) 0.7167(2)
H60 H 0.7974 0.4258 0.7278
C108 C 0.6892(7) 0.4569(3) 0.72098(19)
H61 H 0.6631 0.4357 0.7351
C109 C 0.5594(8) 0.4999(5) 0.7062(3)
C110 C 0.5424(7) 0.5460(3) 0.7272(2)
C111 C 0.4704(6) 0.5689(4) 0.72028(18)
H62 H 0.4356 0.5609 0.6999
C112 C 0.4495(5) 0.6033(3) 0.7433(3)
H63 H 0.4003 0.6189 0.7385
C113 C 0.5005(7) 0.6149(3) 0.7731(2)
C114 C 0.5724(6) 0.5920(4) 0.78004(19)
H64 H 0.6073 0.5999 0.8005
C115 C 0.5934(5) 0.5576(4) 0.7571(3)
H65 H 0.6426 0.5420 0.7618
C116 C 0.4719(13) 0.3886(7) 0.8026(3)
C117 C 0.5415(10) 0.3784(7) 0.8238(5)
H66 H 0.5913 0.3865 0.8160
C118 C 0.5384(9) 0.3564(7) 0.8564(4)
C119 C 0.4656(12) 0.3446(6) 0.8678(4)
H67 H 0.4635 0.3295 0.8901
C120 C 0.3960(9) 0.3548(6) 0.8466(5)
C121 C 0.3991(10) 0.3768(7) 0.8140(4)
H68 H 0.3516 0.3837 0.7995
C122 C 0.6243(14) 0.3460(9) 0.8793(6)
C123 C 0.6877(14) 0.3625(9) 0.8598(7)
H69 H 0.6715 0.3913 0.8475
H70 H 0.7350 0.3680 0.8764
H71 H 0.6996 0.3393 0.8421
C124 C 0.6096(17) 0.3035(9) 0.9040(7)
H72 H 0.5566 0.3058 0.9120
H73 H 0.6139 0.2748 0.8905
H74 H 0.6493 0.3036 0.9248
C125 C 0.6206(16) 0.3786(9) 0.9128(6)
H75 H 0.5780 0.3682 0.9267
H76 H 0.6712 0.3773 0.9278
H77 H 0.6102 0.4104 0.9048
C126 C 0.3150(14) 0.3364(8) 0.8574(7)
C127 C 0.3282(16) 0.3105(9) 0.8916(6)
H78 H 0.2774 0.2990 0.8983
H79 H 0.3637 0.2843 0.8886
H80 H 0.3523 0.3309 0.9103
C128 C 0.2705(15) 0.3870(9) 0.8627(8)
H81 H 0.2628 0.4030 0.8397
H82 H 0.2190 0.3818 0.8716
H83 H 0.3037 0.4059 0.8798
C129 C 0.2631(15) 0.3069(9) 0.8235(6)
H84 H 0.2570 0.3263 0.8021
H85 H 0.2918 0.2787 0.8185
H86 H 0.2107 0.2988 0.8304
C130 C 0.9771(8) 0.7134(5) 0.4134(4)
H87 H 0.9958 0.7048 0.3900
C131 C 0.6087(12) 0.9864(5) 0.4173(4)
H88 H 0.5520 0.9794 0.4202
C132 C 0.9198(8) 0.6182(7) 0.5525(5)
H89 H 0.9183 0.6148 0.5789
C133 C 0.4468(11) 0.8252(5) 0.5886(4)
H90 H 0.3957 0.8094 0.5921
C134 C 0.8921(9) 0.4728(7) 0.6864(5)
H91 H 0.9066 0.4497 0.7057
C135 C 0.4666(10) 0.6498(5) 0.8005(4)
C136 C 0.9381(11) 0.5177(7) 0.7072(5)
C137 C 0.8883(10) 0.4360(7) 0.6525(5)
C138 C 0.4835(12) 0.8192(6) 0.6307(5)
C139 C 0.4103(10) 0.8535(4) 0.5526(4)
C140 C 0.9206(10) 0.5647(7) 0.5478(5)
C141 C 0.9746(10) 0.6643(6) 0.5584(5)
C142 C 0.6329(13) 0.9844(5) 0.4590(5)
C143 C 0.5850(12) 1.0154(5) 0.3802(5)
C144 C 0.9575(8) 0.6620(5) 0.4253(3)
C145 C 1.0412(8) 0.7496(6) 0.4233(4)
C146? C 0.4948(15) 0.3827(10) 0.8020(4)
C147? C 0.5653(14) 0.3621(9) 0.8158(5)
H92? H 0.6081 0.3595 0.8015
C148? C 0.5730(12) 0.3451(9) 0.8505(6)
C149? C 0.5103(15) 0.3488(9) 0.8714(4)
H93? H 0.5156 0.3373 0.8951
C150? C 0.4398(13) 0.3695(8) 0.8576(5)
C151? C 0.4321(12) 0.3864(9) 0.8229(6)
H94? H 0.3839 0.4005 0.8135
C152? C 0.6606(16) 0.3278(11) 0.8675(7)
C153? C 0.7137(17) 0.3283(13) 0.8399(8)
H95? H 0.7035 0.3558 0.8250
H96? H 0.7686 0.3288 0.8508
H97? H 0.7050 0.3006 0.8251
C154? C 0.658(2) 0.2895(11) 0.8969(8)
H98? H 0.6170 0.2971 0.9124
H99? H 0.6460 0.2596 0.8854
H100? H 0.7096 0.2878 0.9111
C155? C 0.676(2) 0.3653(12) 0.8980(8)
H101? H 0.6369 0.3618 0.9152
H102? H 0.7294 0.3611 0.9102
H103? H 0.6717 0.3962 0.8875
C156? C 0.3702(17) 0.3489(10) 0.8761(7)
C157? C 0.3842(19) 0.3590(11) 0.9149(6)
H104? H 0.3407 0.3463 0.9271
H105? H 0.4343 0.3450 0.9246
H106? H 0.3868 0.3925 0.9185
C158? C 0.2889(19) 0.3716(13) 0.8558(10)
H107? H 0.2844 0.3632 0.8305
H108? H 0.2428 0.3597 0.8667
H109? H 0.2910 0.4052 0.8582
C159? C 0.371(2) 0.2908(9) 0.8656(8)
H110? H 0.3616 0.2870 0.8396
H111? H 0.4229 0.2776 0.8740
H112? H 0.3296 0.2749 0.8771
loop_
_geom_bond_atom_site_label_1
_geom_bond_atom_site_label_2
_geom_bond_site_symmetry_1
_geom_bond_site_symmetry_2
C1 H1 1_555 1_555
C2 C1 1_555 1_555
C3 C2 1_555 1_555
C4 C3 1_555 1_555
H2 C4 1_555 1_555
C5 C4 1_555 1_555
H3 C5 1_555 1_555
C6 C5 1_555 1_555
H4 C6 1_555 1_555
C7 C6 1_555 1_555
C8 C3 1_555 1_555
C9 C8 1_555 1_555
C10 C1 1_555 1_555
C11 C12 1_555 1_555
C12 C9 1_555 1_555
C13 C12 1_555 1_555
C14 C7 1_555 1_555
C15 C14 1_555 1_555
H5 C15 1_555 1_555
C16 C15 1_555 1_555
H6 C16 1_555 1_555
C17 C16 1_555 1_555
C18 C13 1_555 1_555
C19 C18 1_555 1_555
C20 C11 1_555 1_555
H7 C20 1_555 1_555
C21 H8 1_555 1_555
C22 C19 1_555 1_555
C23 C22 1_555 1_555
C24 C17 1_555 1_555
C25 C24 1_555 1_555
H9 C25 1_555 1_555
C26 C25 1_555 1_555
H10 C26 1_555 1_555
C27 C26 1_555 1_555
C28 C23 1_555 1_555
C29 C28 1_555 1_555
C30 C21 1_555 1_555
C31 C32 1_555 1_555
C32 C29 1_555 1_555
C33 C32 1_555 1_555
C34 C27 1_555 1_555
C35 C34 1_555 1_555
H11 C35 1_555 1_555
C36 C35 1_555 1_555
H12 C36 1_555 1_555
C37 C36 1_555 1_555
C38 C33 1_555 1_555
C39 C38 1_555 1_555
C40 C31 1_555 1_555
H13 C40 1_555 1_555
C41 H14 1_555 1_555
C42 C135 1_555 1_555
C43 C135 1_555 1_555
C44 C39 1_555 1_555
C45 C44 1_555 1_555
C46 C37 1_555 1_555
C47 C46 1_555 1_555
H15 C47 1_555 1_555
C48 C47 1_555 1_555
H16 C48 1_555 1_555
C49 C48 1_555 1_555
C50 C45 1_555 1_555
C51 C50 1_555 1_555
C52 C41 1_555 1_555
C53 C54 1_555 1_555
C54 C51 1_555 1_555
C55 C54 1_555 1_555
C56 C49 1_555 1_555
C57 C56 1_555 1_555
H17 C57 1_555 1_555
C58 C57 1_555 1_555
H18 C58 1_555 1_555
C59 C58 1_555 1_555
H19 C59 1_555 1_555
C60 C55 1_555 1_555
C61 C60 1_555 1_555
C62 C53 1_555 1_555
H20 C62 1_555 1_555
C63 C2 1_555 1_555
C64 C63 1_555 1_555
H21 C64 1_555 1_555
C65 C64 1_555 1_555
C66 C65 1_555 1_555
H22 C66 1_555 1_555
C67 C66 1_555 1_555
C68 C63 1_555 1_555
H23 C68 1_555 1_555
C69 C65 1_555 1_555
C70 C69 1_555 1_555
H24 C70 1_555 1_555
H25 C70 1_555 1_555
H26 C70 1_555 1_555
C71 C69 1_555 1_555
H27 C71 1_555 1_555
H28 C71 1_555 1_555
H29 C71 1_555 1_555
C72 C69 1_555 1_555
H30 C72 1_555 1_555
H31 C72 1_555 1_555
H32 C72 1_555 1_555
C73 C67 1_555 1_555
C74 C73 1_555 1_555
H33 C74 1_555 1_555
H34 C74 1_555 1_555
H35 C74 1_555 1_555
C75 C73 1_555 1_555
H36 C75 1_555 1_555
H37 C75 1_555 1_555
H38 C75 1_555 1_555
C76 C73 1_555 1_555
H39 C76 1_555 1_555
H40 C76 1_555 1_555
H41 C76 1_555 1_555
C77 C78 1_555 1_555
C78 H42 1_555 1_555
C79 C78 1_555 1_555
H43 C79 1_555 1_555
C80 C79 1_555 1_555
C81 C80 1_555 1_555
H44 C81 1_555 1_555
C82 C77 1_555 1_555
H45 C82 1_555 1_555
C83 C10 1_555 1_555
C84 C83 1_555 1_555
C85 C84 1_555 1_555
H46 C85 1_555 1_555
C86 C85 1_555 1_555
H47 C86 1_555 1_555
C87 C86 1_555 1_555
C88 C87 1_555 1_555
H48 C88 1_555 1_555
C89 C84 1_555 1_555
H49 C89 1_555 1_555
C90 C91 1_555 1_555
C91 H50 1_555 1_555
C92 C91 1_555 1_555
H51 C92 1_555 1_555
C93 C92 1_555 1_555
C94 C93 1_555 1_555
H52 C94 1_555 1_555
C95 C90 1_555 1_555
H53 C95 1_555 1_555
C96 C30 1_555 1_555
C97 C96 1_555 1_555
C98 C97 1_555 1_555
H54 C98 1_555 1_555
C99 C98 1_555 1_555
H55 C99 1_555 1_555
C100 C99 1_555 1_555
C101 C100 1_555 1_555
H56 C101 1_555 1_555
C102 C97 1_555 1_555
H57 C102 1_555 1_555
C103 C104 1_555 1_555
C104 H58 1_555 1_555
C105 C104 1_555 1_555
H59 C105 1_555 1_555
C106 C105 1_555 1_555
C107 C106 1_555 1_555
H60 C107 1_555 1_555
C108 C103 1_555 1_555
H61 C108 1_555 1_555
C109 C52 1_555 1_555
C110 C109 1_555 1_555
C111 C110 1_555 1_555
H62 C111 1_555 1_555
C112 C111 1_555 1_555
H63 C112 1_555 1_555
C113 C112 1_555 1_555
C114 C113 1_555 1_555
H64 C114 1_555 1_555
C115 C110 1_555 1_555
H65 C115 1_555 1_555
C116 C61 1_555 1_555
C117 C116 1_555 1_555
H66 C117 1_555 1_555
C118 C117 1_555 1_555
C119 C118 1_555 1_555
H67 C119 1_555 1_555
C120 C119 1_555 1_555
C121 C116 1_555 1_555
H68 C121 1_555 1_555
C122 C118 1_555 1_555
C123 C122 1_555 1_555
H69 C123 1_555 1_555
H70 C123 1_555 1_555
H71 C123 1_555 1_555
C124 C122 1_555 1_555
H72 C124 1_555 1_555
H73 C124 1_555 1_555
H74 C124 1_555 1_555
C125 C122 1_555 1_555
H75 C125 1_555 1_555
H76 C125 1_555 1_555
H77 C125 1_555 1_555
C126 C120 1_555 1_555
C127 C126 1_555 1_555
H78 C127 1_555 1_555
H79 C127 1_555 1_555
H80 C127 1_555 1_555
C128 C126 1_555 1_555
H81 C128 1_555 1_555
H82 C128 1_555 1_555
H83 C128 1_555 1_555
C129 C126 1_555 1_555
H84 C129 1_555 1_555
H85 C129 1_555 1_555
H86 C129 1_555 1_555
C130 C80 1_555 1_555
H87 C130 1_555 1_555
C131 C87 1_555 1_555
H88 C131 1_555 1_555
C132 C93 1_555 1_555
H89 C132 1_555 1_555
C133 C100 1_555 1_555
H90 C133 1_555 1_555
C134 C106 1_555 1_555
H91 C134 1_555 1_555
C135 C113 1_555 1_555
C136 C134 1_555 1_555
C137 C134 1_555 1_555
C138 C133 1_555 1_555
C139 C133 1_555 1_555
C140 C132 1_555 1_555
C141 C132 1_555 1_555
C142 C131 1_555 1_555
C143 C131 1_555 1_555
C144 C130 1_555 1_555
C145 C130 1_555 1_555
C7 C8 1_555 1_555
C9 C10 1_555 1_555
C11 C83 1_555 1_555
C13 C14 1_555 1_555
C17 C18 1_555 1_555
C19 C20 1_555 1_555
C21 C22 1_555 1_555
C23 C24 1_555 1_555
C27 C28 1_555 1_555
C29 C30 1_555 1_555
C31 C96 1_555 1_555
C33 C34 1_555 1_555
C37 C38 1_555 1_555
C39 C40 1_555 1_555
C41 C44 1_555 1_555
C45 C46 1_555 1_555
C49 C50 1_555 1_555
C51 C52 1_555 1_555
C53 C109 1_555 1_555
C55 C56 1_555 1_555
C59 C60 1_555 1_555
C61 C62 1_555 1_555
C67 C68 1_555 1_555
C77 C83 1_555 1_555
C81 C82 1_555 1_555
C88 C89 1_555 1_555
C90 C96 1_555 1_555
C94 C95 1_555 1_555
C101 C102 1_555 1_555
C103 C109 1_555 1_555
C107 C108 1_555 1_555
C114 C115 1_555 1_555
C120 C121 1_555 1_555

#END
