
#######################################################################
#
#                 Cambridge Crystallographic Data Centre
#                                CCDC 
#
#######################################################################
#
# If this CIF has been generated from an entry in the Cambridge 
# Structural Database, then it will include bibliographic, chemical, 
# crystal, experimental, refinement or atomic coordinate data resulting 
# from the CCDC's data processing and validation procedures.
#
#######################################################################

data_RAHRAV
_chemical_formula_moiety         'C7 H9 N4 S1 1+,H2 O1,Cl1 1-'
_chemical_name_systematic        
'pyridine-2-carbaldehyde thiosemicarbazonium chloride monohydrate'
_symmetry_cell_setting           monoclinic
_symmetry_space_group_name_H-M   'P 21/n'
_symmetry_Int_Tables_number      14
_space_group_name_Hall           '-P 2yn'
loop_
_symmetry_equiv_pos_site_id
_symmetry_equiv_pos_as_xyz
1 x,y,z
2 1/2-x,1/2+y,1/2-z
3 -x,-y,-z
4 1/2+x,1/2-y,1/2+z
_cell_length_a                   4.9525(9)
_cell_length_b                   13.859(2)
_cell_length_c                   15.799(3)
_cell_angle_alpha                90
_cell_angle_beta                 98.011(2)
_cell_angle_gamma                90
_cell_volume                     1073.81
_exptl_crystal_colour            yellow
_exptl_crystal_description       block
_cell_formula_units_Z            4
loop_
_atom_site_label
_atom_site_type_symbol
_atom_site_fract_x
_atom_site_fract_y
_atom_site_fract_z
C1 C 0.2938(5) 0.75940(16) 0.82907(15)
C2 C 0.1451(5) 0.73169(18) 0.89197(16)
H1 H 0.1546 0.6684 0.9118
C3 C -0.0192(5) 0.7982(2) 0.92597(18)
H2 H -0.1192 0.7798 0.9689
C4 C -0.0335(5) 0.89133(19) 0.89583(19)
H3 H -0.1444 0.9364 0.9178
C5 C 0.1168(5) 0.91685(18) 0.83338(18)
H4 H 0.1091 0.9797 0.8126
C6 C 0.4707(5) 0.69442(17) 0.78990(16)
H5 H 0.4890 0.6302 0.8067
C7 C 0.8930(5) 0.69647(17) 0.62960(16)
N1 N 0.2747(4) 0.85193(13) 0.80199(13)
H6 H 0.3685 0.8697 0.7628
N2 N 0.6004(4) 0.72768(14) 0.73177(13)
N3 N 0.7602(4) 0.66626(13) 0.69483(13)
H7 H 0.7785 0.6076 0.7126
N4 N 0.8736(4) 0.78911(14) 0.61072(14)
H8 H 0.7810 0.8267 0.6390
H9 H 0.9536 0.8119 0.5701
S1 S 1.06229(15) 0.61531(5) 0.57955(5)
Cl1 Cl 0.55978(16) 0.98380(5) 0.67659(5)
O1 O 0.1990(6) 0.9096(2) 0.5025(2)
H10 H 0.270(9) 0.930(3) 0.5497(12)
H11 H 0.211(10) 0.949(2) 0.4639(17)
loop_
_geom_bond_atom_site_label_1
_geom_bond_atom_site_label_2
_geom_bond_site_symmetry_1
_geom_bond_site_symmetry_2
C1 C2 1_555 1_555
C2 H1 1_555 1_555
C3 C2 1_555 1_555
H2 C3 1_555 1_555
C4 C3 1_555 1_555
H3 C4 1_555 1_555
C5 C4 1_555 1_555
H4 C5 1_555 1_555
C6 C1 1_555 1_555
H5 C6 1_555 1_555
C7 N3 1_555 1_555
N1 C1 1_555 1_555
H6 N1 1_555 1_555
N2 C6 1_555 1_555
N3 N2 1_555 1_555
H7 N3 1_555 1_555
N4 C7 1_555 1_555
H8 N4 1_555 1_555
H9 N4 1_555 1_555
S1 C7 1_555 1_555
O1 H10 1_555 1_555
H11 O1 1_555 1_555
C5 N1 1_555 1_555

#END
