
#######################################################################
#
#                 Cambridge Crystallographic Data Centre
#                                CCDC 
#
#######################################################################
#
# If this CIF has been generated from an entry in the Cambridge 
# Structural Database, then it will include bibliographic, chemical, 
# crystal, experimental, refinement or atomic coordinate data resulting 
# from the CCDC's data processing and validation procedures.
#
#######################################################################

data_RAHROJ
_chemical_formula_moiety         'C12 H11 Cl1 N2 O4'
_chemical_name_systematic        
5-(((4-Chloropyridin-3-yl)amino)methylene)-2,2-dimethyl-1,3-dioxane-4,6-dione
_symmetry_cell_setting           monoclinic
_symmetry_space_group_name_H-M   'P 21/n'
_symmetry_Int_Tables_number      14
_space_group_name_Hall           '-P 2yn'
loop_
_symmetry_equiv_pos_site_id
_symmetry_equiv_pos_as_xyz
1 x,y,z
2 1/2-x,1/2+y,1/2-z
3 -x,-y,-z
4 1/2+x,1/2-y,1/2+z
_cell_length_a                   5.1570(10)
_cell_length_b                   22.850(5)
_cell_length_c                   10.786(2)
_cell_angle_alpha                90
_cell_angle_beta                 98.59(3)
_cell_angle_gamma                90
_cell_volume                     1256.74
_exptl_crystal_colour            colorless
_exptl_crystal_description       block
_cell_formula_units_Z            4
loop_
_atom_site_label
_atom_site_type_symbol
_atom_site_fract_x
_atom_site_fract_y
_atom_site_fract_z
Cl1 Cl 0.6845(2) 0.13940(5) 0.26866(10)
O1 O 1.0091(5) 0.18854(13) 0.8184(2)
N1 N 0.5485(6) 0.10359(14) 0.5159(3)
H1 H 0.6808 0.1241 0.5018
C1 C 0.6714(9) 0.2473(2) 0.8856(5)
H2 H 0.5470 0.2350 0.8152
H3 H 0.7623 0.2815 0.8634
H4 H 0.5812 0.2562 0.9550
O2 O 0.7371(6) 0.14616(13) 0.9523(2)
N2 N 0.0587(7) 0.00914(17) 0.3276(3)
C2 C 1.0684(10) 0.2121(3) 1.0332(4)
H5 H 1.1560 0.2480 1.0192
H6 H 1.1939 0.1808 1.0449
H7 H 0.9853 0.2158 1.1068
O3 O 0.4304(6) 0.08141(14) 0.8848(3)
C3 C 0.8651(8) 0.19902(19) 0.9221(3)
O4 O 0.9758(5) 0.16431(13) 0.6194(2)
C4 C 0.8855(6) 0.16065(16) 0.7174(3)
C5 C 0.6541(7) 0.12646(16) 0.7335(3)
C6 C 0.5904(7) 0.11559(17) 0.8581(3)
C7 C 0.5056(7) 0.10022(16) 0.6348(3)
H8 H 0.3629 0.0782 0.6511
C8 C 0.3991(7) 0.07693(17) 0.4118(3)
C9 C 0.4487(7) 0.08860(17) 0.2915(3)
C10 C 0.3043(9) 0.0606(2) 0.1904(4)
H9 H 0.3354 0.0678 0.1090
C11 C 0.1089(9) 0.0208(2) 0.2138(4)
H10 H 0.0109 0.0019 0.1461
C12 C 0.2015(8) 0.03639(19) 0.4228(4)
H11 H 0.1673 0.0278 0.5031
loop_
_geom_bond_atom_site_label_1
_geom_bond_atom_site_label_2
_geom_bond_site_symmetry_1
_geom_bond_site_symmetry_2
Cl1 C9 1_555 1_555
O1 C3 1_555 1_555
N1 H1 1_555 1_555
C1 H2 1_555 1_555
H3 C1 1_555 1_555
H4 C1 1_555 1_555
O2 C3 1_555 1_555
N2 C11 1_555 1_555
C2 H5 1_555 1_555
H6 C2 1_555 1_555
H7 C2 1_555 1_555
O3 C6 1_555 1_555
C3 C1 1_555 1_555
O4 C4 1_555 1_555
C4 O1 1_555 1_555
C5 C4 1_555 1_555
C6 O2 1_555 1_555
C7 N1 1_555 1_555
H8 C7 1_555 1_555
C8 N1 1_555 1_555
C9 C8 1_555 1_555
C10 C9 1_555 1_555
H9 C10 1_555 1_555
C11 C10 1_555 1_555
H10 C11 1_555 1_555
C12 N2 1_555 1_555
H11 C12 1_555 1_555
C2 C3 1_555 1_555
C5 C6 1_555 1_555
C5 C7 1_555 1_555
C8 C12 1_555 1_555

#END
