
#######################################################################
#
#                 Cambridge Crystallographic Data Centre
#                                CCDC 
#
#######################################################################
#
# If this CIF has been generated from an entry in the Cambridge 
# Structural Database, then it will include bibliographic, chemical, 
# crystal, experimental, refinement or atomic coordinate data resulting 
# from the CCDC's data processing and validation procedures.
#
#######################################################################

data_RAHWUU
_chemical_formula_moiety         'C13 H8 Br2 Cl1 N1 O1'
_chemical_name_systematic        
2-Bromo-6-(((4-bromophenyl)imino)methyl)-4-chlorophenol
_symmetry_cell_setting           triclinic
_symmetry_space_group_name_H-M   'P -1'
_symmetry_Int_Tables_number      2
_space_group_name_Hall           '-P 1'
loop_
_symmetry_equiv_pos_site_id
_symmetry_equiv_pos_as_xyz
1 x,y,z
2 -x,-y,-z
_cell_length_a                   7.941(5)
_cell_length_b                   8.486(6)
_cell_length_c                   11.024(8)
_cell_angle_alpha                86.83(3)
_cell_angle_beta                 75.39(3)
_cell_angle_gamma                64.50(2)
_cell_volume                     647.621
_exptl_crystal_colour            orange
_exptl_crystal_description       chunk
_cell_formula_units_Z            2
loop_
_atom_site_label
_atom_site_type_symbol
_atom_site_fract_x
_atom_site_fract_y
_atom_site_fract_z
Br1 Br 0.62745(12) 0.34370(9) 0.11921(7)
Br2 Br 1.20379(13) 0.13310(10) 0.98498(7)
Cl1 Cl 0.2968(3) 1.0357(2) 0.29569(17)
O1 O 0.7969(7) 0.2987(6) 0.3399(4)
H1 H 0.8248 0.2837 0.4183
N1 N 0.8485(8) 0.3908(7) 0.5420(5)
C1 C 0.6819(10) 0.4660(8) 0.3331(6)
C2 C 0.5904(11) 0.5209(9) 0.2337(6)
C3 C 0.4737(10) 0.6934(8) 0.2224(6)
H2 H 0.4153 0.7259 0.1541
C4 C 0.4417(12) 0.8187(9) 0.3102(7)
C5 C 0.5260(11) 0.7709(9) 0.4125(7)
H3 H 0.5025 0.8578 0.4734
C6 C 0.6438(10) 0.5962(8) 0.4243(6)
C7 C 0.7271(11) 0.5496(8) 0.5313(6)
H4 H 0.6920 0.6373 0.5948
C8 C 0.9262(10) 0.3411(8) 0.6470(6)
C9 C 0.9100(10) 0.4566(8) 0.7417(6)
H5 H 0.8399 0.5792 0.7377
C10 C 0.9951(11) 0.3931(9) 0.8398(7)
H6 H 0.9869 0.4717 0.9015
C11 C 1.0909(10) 0.2172(9) 0.8476(6)
C12 C 1.1110(11) 0.0986(9) 0.7570(6)
H7 H 1.1795 -0.0237 0.7630
C13 C 1.0286(10) 0.1633(8) 0.6577(6)
H8 H 1.0427 0.0834 0.5947
loop_
_geom_bond_atom_site_label_1
_geom_bond_atom_site_label_2
_geom_bond_site_symmetry_1
_geom_bond_site_symmetry_2
Br1 C2 1_555 1_555
Br2 C11 1_555 1_555
Cl1 C4 1_555 1_555
O1 H1 1_555 1_555
N1 C7 1_555 1_555
C1 O1 1_555 1_555
C2 C1 1_555 1_555
C3 C2 1_555 1_555
H2 C3 1_555 1_555
C4 C3 1_555 1_555
C5 C4 1_555 1_555
H3 C5 1_555 1_555
C6 C1 1_555 1_555
C7 C6 1_555 1_555
H4 C7 1_555 1_555
C8 N1 1_555 1_555
C9 C8 1_555 1_555
H5 C9 1_555 1_555
C10 C9 1_555 1_555
H6 C10 1_555 1_555
C11 C10 1_555 1_555
C12 C11 1_555 1_555
H7 C12 1_555 1_555
C13 C8 1_555 1_555
H8 C13 1_555 1_555
C5 C6 1_555 1_555
C12 C13 1_555 1_555

#END
