
#######################################################################
#
#                 Cambridge Crystallographic Data Centre
#                                CCDC 
#
#######################################################################
#
# If this CIF has been generated from an entry in the Cambridge 
# Structural Database, then it will include bibliographic, chemical, 
# crystal, experimental, refinement or atomic coordinate data resulting 
# from the CCDC's data processing and validation procedures.
#
#######################################################################

data_RAHXOP
_chemical_formula_moiety         'C7 H11 N3 O1'
_chemical_name_systematic        3,4-Dimethyl-1H-pyrrole-2-carbohydrazide
_symmetry_cell_setting           triclinic
_symmetry_space_group_name_H-M   'P -1'
_symmetry_Int_Tables_number      2
_space_group_name_Hall           '-P 1'
loop_
_symmetry_equiv_pos_site_id
_symmetry_equiv_pos_as_xyz
1 x,y,z
2 -x,-y,-z
_cell_length_a                   6.7187(12)
_cell_length_b                   7.5251(14)
_cell_length_c                   8.1056(14)
_cell_angle_alpha                95.192(2)
_cell_angle_beta                 100.502(3)
_cell_angle_gamma                100.555(3)
_cell_volume                     392.86
_exptl_crystal_description       block
_cell_formula_units_Z            2
loop_
_atom_site_label
_atom_site_type_symbol
_atom_site_fract_x
_atom_site_fract_y
_atom_site_fract_z
O1 O 0.0814(2) 0.2857(2) 0.4838(3)
N1 N 0.2837(3) 0.6081(3) 0.6758(3)
H1 H 0.1629 0.6116 0.6202
N2 N 0.3521(3) 0.1522(3) 0.5483(3)
H2 H 0.4701 0.1552 0.6124
C1 C 0.2615(3) 0.2959(3) 0.5617(3)
N3 N 0.2580(3) -0.0032(3) 0.4317(3)
H3 H 0.1400 -0.0074 0.3672
H4 H 0.3183 -0.0942 0.4249
C2 C 0.3760(4) 0.4601(3) 0.6707(3)
C3 C 0.5685(4) 0.5097(3) 0.7791(3)
C4 C 0.4122(4) 0.7474(4) 0.7817(4)
H5 H 0.3845 0.8626 0.8053
C5 C 0.5898(4) 0.6928(4) 0.8491(3)
C6 C 0.7293(4) 0.3985(4) 0.8196(4)
H6 H 0.6816 0.2788 0.7573
H7 H 0.7551 0.3892 0.9386
H8 H 0.8548 0.4559 0.7888
C7 C 0.7713(5) 0.8041(5) 0.9732(4)
H9 H 0.7461 0.9238 1.0003
H10 H 0.8924 0.8134 0.9248
H11 H 0.7921 0.7467 1.0743
loop_
_geom_bond_atom_site_label_1
_geom_bond_atom_site_label_2
_geom_bond_site_symmetry_1
_geom_bond_site_symmetry_2
O1 C1 1_555 1_555
N1 H1 1_555 1_555
N2 H2 1_555 1_555
C1 N2 1_555 1_555
N3 N2 1_555 1_555
H3 N3 1_555 1_555
H4 N3 1_555 1_555
C2 N1 1_555 1_555
C3 C2 1_555 1_555
C4 N1 1_555 1_555
H5 C4 1_555 1_555
C5 C3 1_555 1_555
C6 C3 1_555 1_555
H6 C6 1_555 1_555
H7 C6 1_555 1_555
H8 C6 1_555 1_555
C7 C5 1_555 1_555
H9 C7 1_555 1_555
H10 C7 1_555 1_555
H11 C7 1_555 1_555
C1 C2 1_555 1_555
C4 C5 1_555 1_555

#END
