
#######################################################################
#
#                 Cambridge Crystallographic Data Centre
#                                CCDC 
#
#######################################################################
#
# If this CIF has been generated from an entry in the Cambridge 
# Structural Database, then it will include bibliographic, chemical, 
# crystal, experimental, refinement or atomic coordinate data resulting 
# from the CCDC's data processing and validation procedures.
#
#######################################################################

data_RAHXUV
_chemical_formula_moiety         'C14 H14 Cl1 N4 O1 1+,C8 H5 O4 1-'
_chemical_name_systematic        
'2,6-bis[(imidazol-1-yl)methyl]-4-chlorophenol terephthalic acid'
_symmetry_cell_setting           triclinic
_symmetry_space_group_name_H-M   'P -1'
_symmetry_Int_Tables_number      2
_space_group_name_Hall           '-P 1'
loop_
_symmetry_equiv_pos_site_id
_symmetry_equiv_pos_as_xyz
1 x,y,z
2 -x,-y,-z
_cell_length_a                   7.207(2)
_cell_length_b                   12.087(7)
_cell_length_c                   12.213(4)
_cell_angle_alpha                103.01(4)
_cell_angle_beta                 90.08(3)
_cell_angle_gamma                102.20(3)
_cell_volume                     1011.83
_exptl_crystal_colour            colorless
_exptl_crystal_description       block
_cell_formula_units_Z            2
loop_
_atom_site_label
_atom_site_type_symbol
_atom_site_fract_x
_atom_site_fract_y
_atom_site_fract_z
C1 C 0.7568(3) 0.8600(2) -0.0233(2)
C2 C 0.7322(3) 0.8723(2) -0.1332(2)
C3 C 0.7175(3) 0.9811(2) -0.1509(2)
C4 C 0.7306(4) 1.0743(2) -0.0608(2)
C5 C 0.7575(4) 1.0620(2) 0.0471(2)
C6 C 0.7711(4) 0.9558(2) 0.0659(2)
Cl1 Cl 0.77759(12) 1.18079(7) 0.16060(6)
C7 C 0.6968(4) 0.9968(3) -0.2694(2)
N1 N 0.8827(3) 1.03277(19) -0.31433(17)
C8 C 0.9717(4) 1.1423(3) -0.3157(2)
N2 N 1.1430(3) 1.1458(2) -0.35386(19)
C9 C 1.1644(5) 1.0335(3) -0.3777(2)
C10 C 1.0064(4) 0.9628(3) -0.3537(2)
O1 O 0.7169(3) 0.78581(18) -0.22699(15)
C11 C 0.7648(4) 0.7453(2) 0.0033(2)
N3 N 0.5724(3) 0.68022(18) 0.01953(17)
C12 C 0.4860(5) 0.6840(3) 0.1174(3)
N4 N 0.3101(4) 0.6223(2) 0.0991(2)
C13 C 0.2848(5) 0.5764(3) -0.0144(3)
C14 C 0.4452(4) 0.6119(3) -0.0639(3)
H1 H 0.716(4) 1.149(3) -0.071(2)
H2 H 0.790(4) 0.949(2) 0.143(2)
H3 H 0.630(4) 1.058(3) -0.269(2)
H4 H 0.622(4) 0.926(2) -0.321(2)
H5 H 0.911(4) 1.209(2) -0.296(2)
H6 H 1.278(5) 1.015(3) -0.410(3)
H7 H 0.974(4) 0.883(2) -0.361(2)
H8 H 0.844(4) 0.758(2) 0.075(2)
H9 H 0.817(4) 0.694(2) -0.057(2)
H10 H 0.555(5) 0.725(3) 0.193(3)
H11 H 0.167(4) 0.528(3) -0.048(2)
H12 H 0.484(5) 0.602(3) -0.138(3)
H13 H 0.745(5) 0.726(3) -0.220(3)
H14 H 0.191(6) 0.592(4) 0.171(4)
C15 C -0.0516(4) 0.4280(2) 0.3465(2)
C16 C 0.0906(4) 0.4752(2) 0.2698(2)
O2 O 0.0597(3) 0.56238(17) 0.23470(17)
O3 O 0.2287(3) 0.43129(17) 0.24382(17)
C17 C -0.0037(4) 0.3559(2) 0.4104(2)
C18 C -0.1342(4) 0.3070(2) 0.4771(2)
C19 C -0.3173(4) 0.3270(2) 0.4803(2)
C20 C -0.4551(4) 0.2690(2) 0.5516(2)
O4 O -0.4117(3) 0.2098(2) 0.6107(2)
O5 O -0.6258(3) 0.28813(19) 0.54753(18)
C21 C -0.3660(4) 0.3994(2) 0.4168(2)
C22 C -0.2316(4) 0.4506(2) 0.3515(2)
H15 H 0.123(4) 0.343(2) 0.407(2)
H16 H -0.100(4) 0.265(2) 0.523(2)
H17 H -0.493(4) 0.414(2) 0.419(2)
H18 H -0.269(4) 0.503(2) 0.310(2)
H19 H -0.711(6) 0.243(4) 0.591(3)
loop_
_geom_bond_atom_site_label_1
_geom_bond_atom_site_label_2
_geom_bond_site_symmetry_1
_geom_bond_site_symmetry_2
C1 C2 1_555 1_555
C2 C3 1_555 1_555
C3 C4 1_555 1_555
C4 C5 1_555 1_555
C5 C6 1_555 1_555
C6 C1 1_555 1_555
Cl1 C5 1_555 1_555
C7 C3 1_555 1_555
N1 C7 1_555 1_555
C8 N1 1_555 1_555
N2 C8 1_555 1_555
C9 N2 1_555 1_555
C10 N1 1_555 1_555
O1 C2 1_555 1_555
C11 C1 1_555 1_555
N3 C11 1_555 1_555
C12 N3 1_555 1_555
N4 C12 1_555 1_555
C13 N4 1_555 1_555
C14 N3 1_555 1_555
H1 C4 1_555 1_555
H2 C6 1_555 1_555
H3 C7 1_555 1_555
H4 C7 1_555 1_555
H5 C8 1_555 1_555
H6 C9 1_555 1_555
H7 C10 1_555 1_555
H8 C11 1_555 1_555
H9 C11 1_555 1_555
H10 C12 1_555 1_555
H11 C13 1_555 1_555
H12 C14 1_555 1_555
H13 O1 1_555 1_555
H14 N4 1_555 1_555
C15 C16 1_555 1_555
C16 O2 1_555 1_555
O3 C16 1_555 1_555
C17 C15 1_555 1_555
C18 C17 1_555 1_555
C19 C18 1_555 1_555
C20 C19 1_555 1_555
O4 C20 1_555 1_555
O5 C20 1_555 1_555
C21 C19 1_555 1_555
C22 C15 1_555 1_555
H15 C17 1_555 1_555
H16 C18 1_555 1_555
H17 C21 1_555 1_555
H18 C22 1_555 1_555
H19 O5 1_555 1_555
C9 C10 1_555 1_555
C13 C14 1_555 1_555
C21 C22 1_555 1_555

#END
