
#######################################################################
#
#                 Cambridge Crystallographic Data Centre
#                                CCDC 
#
#######################################################################
#
# If this CIF has been generated from an entry in the Cambridge 
# Structural Database, then it will include bibliographic, chemical, 
# crystal, experimental, refinement or atomic coordinate data resulting 
# from the CCDC's data processing and validation procedures.
#
#######################################################################

data_RAJCEM
_chemical_formula_moiety         'C13 H8 Br1 Cl2 N1 O1'
_chemical_name_systematic        
2-Bromo-4-chloro-6-(((4-chlorophenyl)imino)methyl)phenol
_symmetry_cell_setting           monoclinic
_symmetry_space_group_name_H-M   'P 21/c'
_symmetry_Int_Tables_number      14
_space_group_name_Hall           '-P 2ybc'
loop_
_symmetry_equiv_pos_site_id
_symmetry_equiv_pos_as_xyz
1 x,y,z
2 -x,1/2+y,1/2-z
3 -x,-y,-z
4 x,1/2-y,1/2+z
_cell_length_a                   7.712(2)
_cell_length_b                   21.437(5)
_cell_length_c                   8.541(2)
_cell_angle_alpha                90
_cell_angle_beta                 113.138(3)
_cell_angle_gamma                90
_cell_volume                     1298.44
_exptl_crystal_colour            orange
_exptl_crystal_description       block
_cell_formula_units_Z            4
loop_
_atom_site_label
_atom_site_type_symbol
_atom_site_fract_x
_atom_site_fract_y
_atom_site_fract_z
Br1 Br 0.33546(4) 0.070489(12) 0.41978(3)
Cl1 Cl -0.12118(8) 0.19969(3) -0.15815(7)
Cl2 Cl 0.93131(10) 0.55644(3) 0.74447(8)
O1 O 0.5078(2) 0.19851(9) 0.5143(2)
N1 N 0.5257(3) 0.31904(9) 0.4862(2)
C1 C 0.3610(3) 0.20012(11) 0.3614(3)
C2 C 0.2637(3) 0.14535(11) 0.2925(3)
C3 C 0.1150(3) 0.14468(12) 0.1343(3)
H1 H 0.0506 0.1069 0.0884
C4 C 0.0617(3) 0.20014(12) 0.0440(3)
C5 C 0.1517(3) 0.25520(12) 0.1104(3)
H2 H 0.1119 0.2928 0.0478
C6 C 0.3014(3) 0.25598(11) 0.2695(3)
C7 C 0.3921(3) 0.31491(11) 0.3378(3)
H3 H 0.3515 0.3515 0.2707
C8 C 0.6153(3) 0.37736(11) 0.5423(3)
C9 C 0.6956(3) 0.38856(12) 0.7173(3)
H4 H 0.6863 0.3579 0.7939
C10 C 0.7891(4) 0.44425(12) 0.7805(3)
H5 H 0.8406 0.4523 0.8994
C11 C 0.8060(3) 0.48756(11) 0.6681(3)
C12 C 0.7290(3) 0.47728(12) 0.4939(3)
H6 H 0.7412 0.5078 0.4181
C13 C 0.6344(4) 0.42211(11) 0.4321(3)
H7 H 0.5817 0.4146 0.3129
H8 H 0.547(5) 0.2353(14) 0.535(4)
loop_
_geom_bond_atom_site_label_1
_geom_bond_atom_site_label_2
_geom_bond_site_symmetry_1
_geom_bond_site_symmetry_2
Br1 C2 1_555 1_555
Cl1 C4 1_555 1_555
Cl2 C11 1_555 1_555
O1 C1 1_555 1_555
N1 C7 1_555 1_555
C1 C2 1_555 1_555
C2 C3 1_555 1_555
C3 H1 1_555 1_555
C4 C3 1_555 1_555
C5 C4 1_555 1_555
H2 C5 1_555 1_555
C6 C1 1_555 1_555
C7 C6 1_555 1_555
H3 C7 1_555 1_555
C8 N1 1_555 1_555
C9 C8 1_555 1_555
H4 C9 1_555 1_555
C10 C9 1_555 1_555
H5 C10 1_555 1_555
C11 C10 1_555 1_555
C12 C11 1_555 1_555
H6 C12 1_555 1_555
C13 C8 1_555 1_555
H7 C13 1_555 1_555
H8 O1 1_555 1_555
C5 C6 1_555 1_555
C12 C13 1_555 1_555

#END
