
#######################################################################
#
#                 Cambridge Crystallographic Data Centre
#                                CCDC 
#
#######################################################################
#
# If this CIF has been generated from an entry in the Cambridge 
# Structural Database, then it will include bibliographic, chemical, 
# crystal, experimental, refinement or atomic coordinate data resulting 
# from the CCDC's data processing and validation procedures.
#
#######################################################################

data_RAJDOW
_chemical_formula_moiety         'C14 H22 O5'
_chemical_name_systematic        
2-(2-(5,5-Dimethyl-1,3-dioxan-2-yl)vinyl)-5-oxiran-2-yltetrahydrofuran-3-ol
_symmetry_cell_setting           orthorhombic
_symmetry_space_group_name_H-M   'P 21 21 21'
_symmetry_Int_Tables_number      19
_space_group_name_Hall           'P 2ac 2ab'
loop_
_symmetry_equiv_pos_site_id
_symmetry_equiv_pos_as_xyz
1 x,y,z
2 1/2-x,-y,1/2+z
3 -x,1/2+y,1/2-z
4 1/2+x,1/2-y,-z
_cell_length_a                   5.546(2)
_cell_length_b                   9.811(4)
_cell_length_c                   26.178(10)
_cell_angle_alpha                90
_cell_angle_beta                 90
_cell_angle_gamma                90
_cell_volume                     1424.39
_exptl_crystal_colour            colorless
_exptl_crystal_description       plate
_cell_formula_units_Z            4
loop_
_atom_site_label
_atom_site_type_symbol
_atom_site_fract_x
_atom_site_fract_y
_atom_site_fract_z
O1 O 0.5749(2) 0.13385(12) 0.50357(4)
O2 O 0.62737(18) 0.00816(10) 0.37367(4)
O3 O 0.52606(16) 0.29156(9) 0.34394(4)
H1 H 0.4435 0.3633 0.3431
O4 O 1.04265(17) 0.14395(10) 0.21135(4)
O5 O 0.82238(16) -0.00756(9) 0.16114(3)
C1 C 0.7924(3) 0.06391(17) 0.48834(6)
H2 H 0.7908 -0.0370 0.4885
H3 H 0.9488 0.1058 0.4977
C2 C 0.6441(3) 0.13369(15) 0.45038(5)
H4 H 0.7093 0.2212 0.4365
C3 C 0.4823(3) 0.05361(13) 0.41576(5)
H5 H 0.4173 -0.0272 0.4346
C4 C 0.2733(2) 0.13487(14) 0.39265(6)
H6 H 0.1270 0.0778 0.3893
H7 H 0.2349 0.2159 0.4137
C5 C 0.3704(2) 0.17624(13) 0.34046(5)
H8 H 0.2370 0.1920 0.3155
C6 C 0.5202(2) 0.05187(13) 0.32619(5)
H9 H 0.4109 -0.0214 0.3132
C7 C 0.7161(2) 0.07618(13) 0.28803(5)
H10 H 0.8166 0.1539 0.2920
C8 C 0.7544(2) -0.00613(14) 0.24917(5)
H11 H 0.6544 -0.0844 0.2465
C9 C 0.9423(2) 0.01322(14) 0.20875(5)
H12 H 1.0722 -0.0566 0.2130
C10 C 1.2211(2) 0.16222(15) 0.17201(5)
H13 H 1.3542 0.0964 0.1773
H14 H 1.2891 0.2553 0.1744
C11 C 1.1127(2) 0.14119(14) 0.11893(5)
C12 C 0.9909(2) 0.00210(13) 0.11940(5)
H15 H 0.9050 -0.0123 0.0867
H16 H 1.1147 -0.0701 0.1228
C13 C 0.9316(2) 0.25394(14) 0.10701(7)
H17 H 1.0147 0.3421 0.1063
H18 H 0.8062 0.2554 0.1334
H19 H 0.8575 0.2367 0.0736
C14 C 1.3129(3) 0.13973(17) 0.07871(6)
H20 H 1.3945 0.2283 0.0783
H21 H 1.2428 0.1218 0.0450
H22 H 1.4297 0.0681 0.0870
loop_
_geom_bond_atom_site_label_1
_geom_bond_atom_site_label_2
_geom_bond_site_symmetry_1
_geom_bond_site_symmetry_2
O1 C1 1_555 1_555
O2 C3 1_555 1_555
O3 H1 1_555 1_555
O4 C9 1_555 1_555
O5 C9 1_555 1_555
C1 H2 1_555 1_555
H3 C1 1_555 1_555
C2 O1 1_555 1_555
H4 C2 1_555 1_555
C3 C2 1_555 1_555
H5 C3 1_555 1_555
C4 C3 1_555 1_555
H6 C4 1_555 1_555
H7 C4 1_555 1_555
C5 O3 1_555 1_555
H8 C5 1_555 1_555
C6 O2 1_555 1_555
H9 C6 1_555 1_555
C7 C6 1_555 1_555
H10 C7 1_555 1_555
C8 C7 1_555 1_555
H11 C8 1_555 1_555
C9 C8 1_555 1_555
H12 C9 1_555 1_555
C10 O4 1_555 1_555
H13 C10 1_555 1_555
H14 C10 1_555 1_555
C11 C10 1_555 1_555
C12 O5 1_555 1_555
H15 C12 1_555 1_555
H16 C12 1_555 1_555
C13 C11 1_555 1_555
H17 C13 1_555 1_555
H18 C13 1_555 1_555
H19 C13 1_555 1_555
C14 C11 1_555 1_555
H20 C14 1_555 1_555
H21 C14 1_555 1_555
H22 C14 1_555 1_555
C1 C2 1_555 1_555
C4 C5 1_555 1_555
C5 C6 1_555 1_555
C11 C12 1_555 1_555

#END
