
#######################################################################
#
#                 Cambridge Crystallographic Data Centre
#                                CCDC 
#
#######################################################################
#
# If this CIF has been generated from an entry in the Cambridge 
# Structural Database, then it will include bibliographic, chemical, 
# crystal, experimental, refinement or atomic coordinate data resulting 
# from the CCDC's data processing and validation procedures.
#
#######################################################################

data_RAJGUE
_chemical_formula_moiety         'C16 H18 N1 O2 1+,Cl1 1-,1.5(H2 O1)'
_chemical_name_systematic        
'Cyclohexeno(2,1-b)(1,3-benzodioxolo)(5,6-e)-1,4-methano-4,7-dihydro-1H,2H-azepinium chloride sesquihydrate'
_symmetry_cell_setting           monoclinic
_symmetry_space_group_name_H-M   'C 2/c'
_symmetry_Int_Tables_number      15
_space_group_name_Hall           '-C 2yn'
loop_
_symmetry_equiv_pos_site_id
_symmetry_equiv_pos_as_xyz
1 x,y,z
2 1/2+x,1/2+y,z
3 x,-y,1/2+z
4 1/2+x,1/2-y,1/2+z
5 -x,-y,-z
6 1/2-x,1/2-y,-z
7 -x,y,1/2-z
8 1/2-x,1/2+y,1/2-z
_cell_length_a                   20.0656(2)
_cell_length_b                   13.9995(2)
_cell_length_c                   13.3059(2)
_cell_angle_alpha                90
_cell_angle_beta                 124.0651(7)
_cell_angle_gamma                90
_cell_volume                     3096.35
_exptl_crystal_colour            colorless
_exptl_crystal_description       prism
_cell_formula_units_Z            8
loop_
_atom_site_label
_atom_site_type_symbol
_atom_site_fract_x
_atom_site_fract_y
_atom_site_fract_z
N1 N -0.6211(1) -0.64658(11) -0.10733(14)
O2 O -0.82877(9) -0.3668(1) -0.53232(13)
O3 O -0.93680(8) -0.45644(11) -0.56788(14)
C1 C -0.75457(13) -0.80839(14) -0.3496(2)
C2 C -0.70517(14) -0.86579(16) -0.3808(2)
C3 C -0.61441(15) -0.85599(15) -0.2896(2)
C4 C -0.58935(13) -0.75584(15) -0.2337(2)
C5 C -0.6277(1) -0.55842(13) -0.17603(16)
C6 C -0.7247(1) -0.45761(12) -0.35348(16)
C7 C -0.80197(11) -0.43920(13) -0.44763(16)
C8 C -0.86652(11) -0.49308(14) -0.46914(17)
C9 C -0.85725(11) -0.56868(13) -0.39667(17)
C10 C -0.75933(11) -0.67583(14) -0.21875(17)
C11 C -0.68926(12) -0.64944(14) -0.09028(17)
C12 C -0.91113(13) -0.39064(16) -0.62240(19)
C13 C -0.63119(12) -0.74160(13) -0.16925(17)
C14 C -0.7132(1) -0.53594(13) -0.27929(16)
C15 C -0.7780(1) -0.58996(13) -0.29971(16)
C16 C -0.72068(12) -0.75133(13) -0.25357(18)
H1 H -0.81454(13) -0.81364(14) -0.4026(2)
H2 H -0.71984(14) -0.93466(16) -0.3853(2)
H3 H -0.71892(14) -0.84421(16) -0.4620(2)
H4 H -0.59647(15) -0.90368(15) -0.2231(2)
H5 H -0.58738(15) -0.86969(15) -0.3323(2)
H6 H -0.60710(13) -0.70639(15) -0.2982(2)
H7 H -0.52966(13) -0.75225(15) -0.1747(2)
H8 H -0.5656(1) -0.64075(11) -0.03220(14)
H9 H -0.6060(1) -0.50305(13) -0.11871(16)
H10 H -0.5946(1) -0.56790(13) -0.21016(16)
H11 H -0.6786(1) -0.41756(12) -0.33823(16)
H12 H -0.90424(11) -0.60683(13) -0.41204(17)
H13 H -0.80915(11) -0.69700(14) -0.22510(17)
H14 H -0.68022(12) -0.69915(14) -0.02987(17)
H15 H -0.69797(12) -0.58601(14) -0.06483(17)
H16 H -0.94505(13) -0.33167(16) -0.64915(19)
H17 H -0.91571(13) -0.42122(16) -0.69395(19)
H18 H -0.60340(12) -0.79251(13) -0.10611(17)
Cl2 Cl -0.57415(6) -0.44519(7) 0.10401(9)
Cl1 Cl -0.45707(3) -0.70253(5) 0.12531(5)
O1? O -0.52570(16) -0.5789(2) 0.2201(3)
loop_
_geom_bond_atom_site_label_1
_geom_bond_atom_site_label_2
_geom_bond_site_symmetry_1
_geom_bond_site_symmetry_2
N1 C5 1_555 1_555
O2 C7 1_555 1_555
O3 C8 1_555 1_555
C1 C2 1_555 1_555
C2 C3 1_555 1_555
C3 C4 1_555 1_555
C4 C13 1_555 1_555
C5 C14 1_555 1_555
C6 C7 1_555 1_555
C7 C8 1_555 1_555
C8 C9 1_555 1_555
C9 C15 1_555 1_555
C10 C11 1_555 1_555
C11 N1 1_555 1_555
C12 O2 1_555 1_555
C13 N1 1_555 1_555
C14 C6 1_555 1_555
C15 C10 1_555 1_555
C16 C1 1_555 1_555
H1 C1 1_555 1_555
H2 C2 1_555 1_555
H3 C2 1_555 1_555
H4 C3 1_555 1_555
H5 C3 1_555 1_555
H6 C4 1_555 1_555
H7 C4 1_555 1_555
H8 N1 1_555 1_555
H9 C5 1_555 1_555
H10 C5 1_555 1_555
H11 C6 1_555 1_555
H12 C9 1_555 1_555
H13 C10 1_555 1_555
H14 C11 1_555 1_555
H15 C11 1_555 1_555
H16 C12 1_555 1_555
H17 C12 1_555 1_555
H18 C13 1_555 1_555
O3 C12 1_555 1_555
C10 C16 1_555 1_555
C13 C16 1_555 1_555
C14 C15 1_555 1_555

#END
