
#######################################################################
#
#                 Cambridge Crystallographic Data Centre
#                                CCDC 
#
#######################################################################
#
# If this CIF has been generated from an entry in the Cambridge 
# Structural Database, then it will include bibliographic, chemical, 
# crystal, experimental, refinement or atomic coordinate data resulting 
# from the CCDC's data processing and validation procedures.
#
#######################################################################

data_RAJHIW
_chemical_formula_moiety         'C30 H16 F4 S2'
_chemical_name_systematic        
2,3,5,6-tetrakis(4-fluorophenyl)thieno[3,2-b]thiophene
_symmetry_cell_setting           monoclinic
_symmetry_space_group_name_H-M   'P 21/n'
_symmetry_Int_Tables_number      14
_space_group_name_Hall           '-P 2yn'
loop_
_symmetry_equiv_pos_site_id
_symmetry_equiv_pos_as_xyz
1 x,y,z
2 1/2-x,1/2+y,1/2-z
3 -x,-y,-z
4 1/2+x,1/2-y,1/2+z
_cell_length_a                   6.2997(8)
_cell_length_b                   14.4057(18)
_cell_length_c                   12.7959(17)
_cell_angle_alpha                90
_cell_angle_beta                 97.634(6)
_cell_angle_gamma                90
_cell_volume                     1150.96
_exptl_crystal_description       needle
_cell_formula_units_Z            2
loop_
_atom_site_label
_atom_site_type_symbol
_atom_site_fract_x
_atom_site_fract_y
_atom_site_fract_z
C1 C 0.2487(4) 0.06865(18) 0.5882(2)
C2 C 0.4011(4) 0.00505(18) 0.6272(2)
C3 C 0.5274(4) -0.02126(18) 0.5481(2)
C4 C 0.0871(5) 0.11854(17) 0.6399(2)
C5 C 0.1280(5) 0.1456(2) 0.7460(2)
H1 H 0.2620 0.1313 0.7860
C6 C -0.0248(5) 0.1928(2) 0.7926(2)
H2 H 0.0023 0.2107 0.8646
C7 C -0.2162(5) 0.2134(2) 0.7336(2)
C8 C -0.2604(5) 0.19046(19) 0.6292(2)
H3 H -0.3932 0.2070 0.5894
C9 C -0.1073(5) 0.14274(19) 0.5831(2)
H4 H -0.1359 0.1261 0.5108
C10 C 0.4330(4) -0.03484(18) 0.7352(2)
C11 C 0.6309(5) -0.02821(19) 0.7964(2)
H5 H 0.7451 0.0029 0.7694
C12 C 0.6639(5) -0.0665(2) 0.8964(2)
H6 H 0.7989 -0.0612 0.9390
C13 C 0.4978(6) -0.1120(2) 0.9327(2)
C14 C 0.3001(6) -0.1208(2) 0.8746(2)
H7 H 0.1878 -0.1529 0.9020
C15 C 0.2683(5) -0.0817(2) 0.7752(2)
H8 H 0.1323 -0.0870 0.7335
F1 F -0.3689(3) 0.25876(13) 0.77827(14)
F2 F 0.5293(4) -0.15068(13) 1.02978(14)
S1 S 0.26298(12) 0.09657(5) 0.45630(5)
C1B C 0.7513(4) -0.06865(18) 0.4118(2)
C2B C 0.5989(4) -0.00505(18) 0.3728(2)
C3B C 0.4726(4) 0.02126(18) 0.4519(2)
C4B C 0.9129(5) -0.11854(17) 0.3601(2)
C5B C 0.8720(5) -0.1456(2) 0.2540(2)
H1B H 0.7380 -0.1313 0.2140
C6B C 1.0248(5) -0.1928(2) 0.2074(2)
H2B H 0.9977 -0.2107 0.1354
C7B C 1.2162(5) -0.2134(2) 0.2664(2)
C8B C 1.2604(5) -0.19046(19) 0.3708(2)
H3B H 1.3932 -0.2070 0.4106
C9B C 1.1073(5) -0.14274(19) 0.4169(2)
H4B H 1.1359 -0.1261 0.4892
C10B C 0.5670(4) 0.03484(18) 0.2648(2)
C11B C 0.3691(5) 0.02821(19) 0.2036(2)
H5B H 0.2549 -0.0029 0.2306
C12B C 0.3361(5) 0.0665(2) 0.1036(2)
H6B H 0.2011 0.0612 0.0610
C13B C 0.5022(6) 0.1120(2) 0.0673(2)
C14B C 0.6999(6) 0.1208(2) 0.1254(2)
H7B H 0.8122 0.1529 0.0980
C15B C 0.7317(5) 0.0817(2) 0.2248(2)
H8B H 0.8677 0.0870 0.2665
F1B F 1.3689(3) -0.25876(13) 0.22173(14)
F2B F 0.4707(4) 0.15068(13) -0.02978(14)
S1B S 0.73702(12) -0.09657(5) 0.54370(5)
loop_
_geom_bond_atom_site_label_1
_geom_bond_atom_site_label_2
_geom_bond_site_symmetry_1
_geom_bond_site_symmetry_2
C1 C2 1_555 1_555
C2 C3 1_555 1_555
C3 C3B 1_555 1_555
C4 C1 1_555 1_555
C5 C4 1_555 1_555
H1 C5 1_555 1_555
C6 C5 1_555 1_555
H2 C6 1_555 1_555
C7 C6 1_555 1_555
C8 C7 1_555 1_555
H3 C8 1_555 1_555
C9 C4 1_555 1_555
H4 C9 1_555 1_555
C10 C2 1_555 1_555
C11 C10 1_555 1_555
H5 C11 1_555 1_555
C12 C11 1_555 1_555
H6 C12 1_555 1_555
C13 C12 1_555 1_555
C14 C13 1_555 1_555
H7 C14 1_555 1_555
C15 C10 1_555 1_555
H8 C15 1_555 1_555
F1 C7 1_555 1_555
F2 C13 1_555 1_555
S1 C1 1_555 1_555
C1B C2B 1_555 1_555
C2B C3B 1_555 1_555
C3B S1 1_555 1_555
C4B C1B 1_555 1_555
C5B C4B 1_555 1_555
H1B C5B 1_555 1_555
C6B C5B 1_555 1_555
H2B C6B 1_555 1_555
C7B C6B 1_555 1_555
C8B C7B 1_555 1_555
H3B C8B 1_555 1_555
C9B C4B 1_555 1_555
H4B C9B 1_555 1_555
C10B C2B 1_555 1_555
C11B C10B 1_555 1_555
H5B C11B 1_555 1_555
C12B C11B 1_555 1_555
H6B C12B 1_555 1_555
C13B C12B 1_555 1_555
C14B C13B 1_555 1_555
H7B C14B 1_555 1_555
C15B C10B 1_555 1_555
H8B C15B 1_555 1_555
F1B C7B 1_555 1_555
F2B C13B 1_555 1_555
S1B C3 1_555 1_555
C8 C9 1_555 1_555
C14 C15 1_555 1_555
C1B S1B 1_555 1_555
C8B C9B 1_555 1_555
C14B C15B 1_555 1_555

#END
