
#######################################################################
#
#                 Cambridge Crystallographic Data Centre
#                                CCDC 
#
#######################################################################
#
# If this CIF has been generated from an entry in the Cambridge 
# Structural Database, then it will include bibliographic, chemical, 
# crystal, experimental, refinement or atomic coordinate data resulting 
# from the CCDC's data processing and validation procedures.
#
#######################################################################

data_RAJHUF
_chemical_name_common            
'bis(bis(Propylenethio)tetraselenafulvalene) hexafluoroarsinate'
_chemical_formula_moiety         'C12 H12 S2 Se4 1+,C12 H12 S2 Se4,As1 F6 1-'
_chemical_name_systematic        
"bis(6,6',7,7'-Tetrahydro-5H,5'H-\D^2,2'^-bis(thiino(2,3-d)-1,3-selenole)) hexafluoroarsinate"
_symmetry_cell_setting           triclinic
_symmetry_space_group_name_H-M   'P -1'
_symmetry_Int_Tables_number      2
_space_group_name_Hall           '-P 1'
loop_
_symmetry_equiv_pos_site_id
_symmetry_equiv_pos_as_xyz
1 x,y,z
2 -x,-y,-z
_cell_length_a                   7.891(6)
_cell_length_b                   16.406(5)
_cell_length_c                   6.629(3)
_cell_angle_alpha                96.09(3)
_cell_angle_beta                 100.43(5)
_cell_angle_gamma                87.10(5)
_cell_volume                     838.813
_exptl_crystal_colour            black
_exptl_crystal_description       rod
_cell_formula_units_Z            1
loop_
_atom_site_label
_atom_site_type_symbol
_atom_site_fract_x
_atom_site_fract_y
_atom_site_fract_z
As1 As 0.0000 0.0000 0.0000
F1 F 0.1849(7) 0.0394(5) -0.0070(8)
F2 F 0.0790(6) -0.0270(3) 0.2401(6)
F3 F 0.0628(10) -0.0891(3) -0.1048(8)
F1A F -0.1849(7) -0.0394(5) 0.0070(8)
F2A F -0.0790(6) 0.0270(3) -0.2401(6)
F3A F -0.0628(10) 0.0891(3) 0.1048(8)
Se1 Se -0.39783(8) -0.37110(4) -0.80743(9)
Se2 Se -0.31575(8) -0.31346(4) -0.33187(9)
Se3 Se -0.19766(9) -0.50669(4) -0.23045(9)
Se4 Se -0.27227(9) -0.56531(4) -0.70566(9)
S1 S -0.4739(3) -0.1972(1) -0.9196(3)
S2 S -0.0826(3) -0.6750(1) -0.1147(3)
C1 C -0.3190(7) -0.4005(3) -0.5388(8)
C2 C -0.3802(7) -0.2324(3) -0.5180(8)
C3 C -0.4158(7) -0.2580(3) -0.7187(9)
C4 C -0.4838(9) -0.0971(4) -0.7796(10)
C5 C -0.3452(9) -0.0864(4) -0.5875(10)
C6 C -0.3733(7) -0.1410(3) -0.4149(8)
C7 C -0.2722(7) -0.4778(3) -0.5001(8)
C8 C -0.1857(7) -0.6430(3) -0.5184(8)
C9 C -0.1556(7) -0.6177(3) -0.3176(9)
C10 C -0.039(1) -0.7681(4) -0.250(1)
C11 C -0.133(1) -0.7938(4) -0.440(1)
C12 C -0.1668(5) -0.7379(2) -0.6353(6)
loop_
_geom_bond_atom_site_label_1
_geom_bond_atom_site_label_2
_geom_bond_site_symmetry_1
_geom_bond_site_symmetry_2
Se1 C1 1_555 1_555
Se2 C1 1_555 1_555
Se3 C7 1_555 1_555
Se4 C7 1_555 1_555
As1 F1 1_555 1_555
S1 C3 1_555 1_555
S2 C9 1_555 1_555
F2 As1 1_555 1_555
F3 As1 1_555 1_555
C1 C7 1_555 1_555
C2 Se2 1_555 1_555
C3 Se1 1_555 1_555
C4 S1 1_555 1_555
C5 C4 1_555 1_555
C6 C2 1_555 1_555
C8 Se4 1_555 1_555
C9 Se3 1_555 1_555
C10 S2 1_555 1_555
C11 C10 1_555 1_555
C12 C8 1_555 1_555
F1A As1 1_555 1_555
F2A As1 1_555 1_555
F3A As1 1_555 1_555
C2 C3 1_555 1_555
C5 C6 1_555 1_555
C8 C9 1_555 1_555
C11 C12 1_555 1_555

#END
