
#######################################################################
#
#                 Cambridge Crystallographic Data Centre
#                                CCDC 
#
#######################################################################
#
# If this CIF has been generated from an entry in the Cambridge 
# Structural Database, then it will include bibliographic, chemical, 
# crystal, experimental, refinement or atomic coordinate data resulting 
# from the CCDC's data processing and validation procedures.
#
#######################################################################

data_RAJHOC
_chemical_formula_moiety         'C30 H16 F4 O2 S2'
_chemical_name_systematic        
'2,3,5,6-tetrakis(4-fluorophenyl)thieno[3,2-b]thiophene 1,4-dioxide'
_symmetry_cell_setting           monoclinic
_symmetry_space_group_name_H-M   'C 2/c'
_symmetry_Int_Tables_number      15
_space_group_name_Hall           '-C 2yn'
loop_
_symmetry_equiv_pos_site_id
_symmetry_equiv_pos_as_xyz
1 x,y,z
2 -x,y,1/2-z
3 1/2+x,1/2+y,z
4 1/2-x,1/2+y,1/2-z
5 -x,-y,-z
6 x,-y,1/2+z
7 1/2-x,1/2-y,-z
8 1/2+x,1/2-y,1/2+z
_cell_length_a                   17.1486(8)
_cell_length_b                   10.1102(8)
_cell_length_c                   14.1478(8)
_cell_angle_alpha                90
_cell_angle_beta                 102.148(3)
_cell_angle_gamma                90
_cell_volume                     2397.96
_exptl_crystal_description       column
_cell_formula_units_Z            4
loop_
_atom_site_label
_atom_site_type_symbol
_atom_site_fract_x
_atom_site_fract_y
_atom_site_fract_z
C1 C 0.3050(2) 0.1915(3) 0.8688(3)
C2 C 0.3167(2) 0.3065(4) 0.9207(2)
C3 C 0.2722(2) 0.3052(3) 0.9971(3)
O1 O 0.1690(3) 0.0750(5) 0.8386(4)
S1 S 0.23774(6) 0.08610(9) 0.91159(6)
C4 C 0.3958(3) 0.0758(6) 0.6267(4)
C5 C 0.3661(3) 0.2004(5) 0.6294(3)
H1 H 0.3667 0.2608 0.5781
C6 C 0.3351(2) 0.2375(4) 0.7081(3)
H2 H 0.3134 0.3236 0.7103
C7 C 0.3354(2) 0.1504(4) 0.7837(3)
C8 C 0.3652(3) 0.0234(5) 0.7773(4)
H3 H 0.3645 -0.0384 0.8277
C9 C 0.3958(4) -0.0134(6) 0.6982(4)
H4 H 0.4165 -0.0999 0.6940
F1 F 0.4282(2) 0.0417(4) 0.5507(3)
C10 C 0.4627(3) 0.6244(5) 0.8739(3)
C11 C 0.3875(3) 0.6512(4) 0.8888(3)
H5 H 0.3686 0.7396 0.8885
C12 C 0.3405(2) 0.5459(4) 0.9043(3)
H6 H 0.2886 0.5619 0.9156
C13 C 0.3681(2) 0.4168(3) 0.9037(2)
C14 C 0.4447(2) 0.3935(4) 0.8880(3)
H7 H 0.4644 0.3056 0.8885
C15 C 0.4920(3) 0.4993(5) 0.8719(3)
H8 H 0.5437 0.4847 0.8597
F2 F 0.5092(2) 0.7283(3) 0.8599(2)
C1F C 0.1950(2) 0.3085(3) 1.1312(3)
C2F C 0.1833(2) 0.1935(4) 1.0793(2)
C3F C 0.2278(2) 0.1948(3) 1.0029(3)
O1F O 0.3310(3) 0.4250(5) 1.1614(4)
S1F S 0.26226(6) 0.41390(9) 1.08841(6)
C4F C 0.1042(3) 0.4242(6) 1.3733(4)
C5F C 0.1339(3) 0.2996(5) 1.3706(3)
H1F H 0.1333 0.2392 1.4219
C6F C 0.1649(2) 0.2625(4) 1.2919(3)
H2F H 0.1866 0.1764 1.2897
C7F C 0.1646(2) 0.3496(4) 1.2163(3)
C8F C 0.1348(3) 0.4766(5) 1.2227(4)
H3F H 0.1355 0.5384 1.1723
C9F C 0.1042(4) 0.5134(6) 1.3018(4)
H4F H 0.0835 0.5999 1.3060
F1F F 0.0718(2) 0.4583(4) 1.4493(3)
C10F C 0.0373(3) -0.1244(5) 1.1261(3)
C11F C 0.1125(3) -0.1512(4) 1.1112(3)
H5F H 0.1314 -0.2396 1.1115
C12F C 0.1595(2) -0.0459(4) 1.0957(3)
H6F H 0.2114 -0.0619 1.0844
C13F C 0.1319(2) 0.0832(3) 1.0963(2)
C14F C 0.0553(2) 0.1065(4) 1.1120(3)
H7F H 0.0356 0.1944 1.1115
C15F C 0.0080(3) 0.0007(5) 1.1281(3)
H8F H -0.0437 0.0153 1.1403
F2F F -0.0092(2) -0.2283(3) 1.1401(2)
O2? O 0.2782(3) -0.0389(5) 0.9457(4)
loop_
_geom_bond_atom_site_label_1
_geom_bond_atom_site_label_2
_geom_bond_site_symmetry_1
_geom_bond_site_symmetry_2
C1 C2 1_555 1_555
C2 C3 1_555 1_555
C3 C3F 1_555 1_555
O1 S1 1_555 1_555
S1 C1 1_555 1_555
C4 C5 1_555 1_555
C5 H1 1_555 1_555
C6 C5 1_555 1_555
H2 C6 1_555 1_555
C7 C1 1_555 1_555
C8 C7 1_555 1_555
H3 C8 1_555 1_555
C9 C4 1_555 1_555
H4 C9 1_555 1_555
F1 C4 1_555 1_555
C10 C11 1_555 1_555
C11 H5 1_555 1_555
C12 C11 1_555 1_555
H6 C12 1_555 1_555
C13 C2 1_555 1_555
C14 C13 1_555 1_555
H7 C14 1_555 1_555
C15 C10 1_555 1_555
H8 C15 1_555 1_555
F2 C10 1_555 1_555
C1F C2F 1_555 1_555
C2F C3F 1_555 1_555
C3F S1 1_555 1_555
O1F S1F 1_555 1_555
S1F C3 1_555 1_555
C4F C5F 1_555 1_555
C5F H1F 1_555 1_555
C6F C5F 1_555 1_555
H2F C6F 1_555 1_555
C7F C1F 1_555 1_555
C8F C7F 1_555 1_555
H3F C8F 1_555 1_555
C9F C4F 1_555 1_555
H4F C9F 1_555 1_555
F1F C4F 1_555 1_555
C10F C11F 1_555 1_555
C11F H5F 1_555 1_555
C12F C11F 1_555 1_555
H6F C12F 1_555 1_555
C13F C2F 1_555 1_555
C14F C13F 1_555 1_555
H7F C14F 1_555 1_555
C15F C10F 1_555 1_555
H8F C15F 1_555 1_555
F2F C10F 1_555 1_555
C6 C7 1_555 1_555
C8 C9 1_555 1_555
C12 C13 1_555 1_555
C14 C15 1_555 1_555
C1F S1F 1_555 1_555
C6F C7F 1_555 1_555
C8F C9F 1_555 1_555
C12F C13F 1_555 1_555
C14F C15F 1_555 1_555

#END
