
#######################################################################
#
#                 Cambridge Crystallographic Data Centre
#                                CCDC 
#
#######################################################################
#
# If this CIF has been generated from an entry in the Cambridge 
# Structural Database, then it will include bibliographic, chemical, 
# crystal, experimental, refinement or atomic coordinate data resulting 
# from the CCDC's data processing and validation procedures.
#
#######################################################################

data_RAJHAO
_chemical_formula_moiety         'C34 H28 S2'
_chemical_name_systematic        
2,3,5,6-tetrakis(4-methylphenyl)thieno[3,2-b]thiophene
_symmetry_cell_setting           triclinic
_symmetry_space_group_name_H-M   'P -1'
_symmetry_Int_Tables_number      2
_space_group_name_Hall           '-P 1'
loop_
_symmetry_equiv_pos_site_id
_symmetry_equiv_pos_as_xyz
1 x,y,z
2 -x,-y,-z
_cell_length_a                   9.5645(5)
_cell_length_b                   11.4510(6)
_cell_length_c                   12.9056(8)
_cell_angle_alpha                97.617(2)
_cell_angle_beta                 101.071(2)
_cell_angle_gamma                105.401(2)
_cell_volume                     1311.94
_exptl_crystal_description       block
_cell_formula_units_Z            2
loop_
_atom_site_label
_atom_site_type_symbol
_atom_site_fract_x
_atom_site_fract_y
_atom_site_fract_z
S1 S 0.13328(8) 0.18805(6) 0.40886(6)
C1 C 0.2719(3) 0.2335(3) 0.5296(2)
C2 C 0.3140(3) 0.3591(3) 0.5675(2)
C3 C 0.2358(3) 0.4171(2) 0.4952(2)
C4 C 0.1334(3) 0.3391(2) 0.4069(2)
C5 C 0.0555(3) 0.3983(2) 0.3346(2)
C6 C 0.1077(3) 0.5241(2) 0.3704(2)
S2 S 0.24042(8) 0.56848(6) 0.49258(6)
C7 C 0.3339(3) 0.1397(3) 0.5715(2)
C8 C 0.4892(3) 0.1646(3) 0.6062(2)
H1 H 0.5539 0.2418 0.6020
C9 C 0.5480(3) 0.0774(3) 0.6463(3)
H2 H 0.6533 0.0955 0.6693
C10 C 0.4563(3) -0.0369(3) 0.6538(3)
C11 C 0.3030(3) -0.0617(3) 0.6178(3)
H3 H 0.2384 -0.1391 0.6217
C12 C 0.2428(3) 0.0243(3) 0.5764(3)
H4 H 0.1377 0.0045 0.5510
C13 C 0.5219(4) -0.1309(3) 0.6985(3)
H5 H 0.4460 -0.1896 0.7228
H6 H 0.6072 -0.0889 0.7595
H7 H 0.5552 -0.1753 0.6424
C14 C 0.4218(3) 0.4261(2) 0.6701(2)
C15 C 0.5252(3) 0.5393(3) 0.6740(3)
H8 H 0.5254 0.5736 0.6109
C16 C 0.6278(3) 0.6021(3) 0.7694(3)
H9 H 0.6969 0.6793 0.7704
C17 C 0.6323(3) 0.5553(3) 0.8634(3)
C18 C 0.5270(3) 0.4431(3) 0.8589(3)
H10 H 0.5269 0.4088 0.9220
C19 C 0.4226(3) 0.3807(3) 0.7648(3)
H11 H 0.3503 0.3055 0.7647
C20 C 0.7468(4) 0.6225(3) 0.9656(3)
H12 H 0.8437 0.6556 0.9490
H13 H 0.7549 0.5652 1.0149
H14 H 0.7164 0.6904 0.9995
C21 C -0.0669(3) 0.3339(3) 0.2387(2)
C22 C -0.1888(3) 0.3789(3) 0.2095(3)
H15 H -0.1925 0.4520 0.2519
C23 C -0.3033(4) 0.3190(3) 0.1204(3)
H16 H -0.3833 0.3528 0.1021
C24 C -0.3051(4) 0.2100(3) 0.0563(3)
C25 C -0.1869(4) 0.1632(3) 0.0878(3)
H17 H -0.1862 0.0877 0.0475
C26 C -0.0698(3) 0.2236(3) 0.1764(2)
H18 H 0.0096 0.1892 0.1950
C27 C -0.4277(4) 0.1488(3) -0.0428(3)
H19 H -0.5241 0.1485 -0.0271
H20 H -0.4276 0.0636 -0.0651
H21 H -0.4117 0.1943 -0.1008
C28 C 0.0794(3) 0.6232(2) 0.3141(2)
C29 C 0.0376(3) 0.7190(3) 0.3637(3)
H22 H 0.0249 0.7213 0.4351
C30 C 0.0139(3) 0.8120(3) 0.3095(3)
H23 H -0.0170 0.8761 0.3440
C31 C 0.0344(3) 0.8126(3) 0.2070(3)
C32 C 0.0797(3) 0.7178(3) 0.1583(3)
H24 H 0.0952 0.7170 0.0877
C33 C 0.1023(3) 0.6253(3) 0.2109(2)
H25 H 0.1340 0.5617 0.1764
C34 C 0.0100(4) 0.9151(3) 0.1493(3)
H26 H -0.0736 0.9402 0.1684
H27 H -0.0128 0.8855 0.0714
H28 H 0.1005 0.9860 0.1710
S3? S 0.0633(14) 0.1931(11) 0.3354(11)
C35? C 0.0062(16) 0.3081(17) 0.2812(13)
C36? C 0.0736(17) 0.4251(17) 0.3363(14)
C37? C 0.1784(15) 0.4150(15) 0.4287(12)
C38? C 0.1895(15) 0.3009(15) 0.4421(12)
C39? C 0.2960(19) 0.2992(19) 0.5370(14)
C40? C 0.3624(19) 0.4195(18) 0.5883(14)
S4? S 0.2979(15) 0.5297(12) 0.5309(11)
C41? C -0.1128(19) 0.2574(17) 0.1838(15)
C42? C -0.233(3) 0.308(3) 0.175(3)
H29? H -0.2330 0.3714 0.2306
C43? C -0.351(4) 0.266(4) 0.086(3)
H30? H -0.4289 0.3029 0.0835
C44? C -0.365(4) 0.178(3) 0.002(3)
C45? C -0.249(4) 0.132(4) 0.014(3)
H31? H -0.2516 0.0686 -0.0425
C46? C -0.125(4) 0.169(3) 0.100(3)
H32? H -0.0477 0.1306 0.1005
C47? C -0.496(4) 0.136(4) -0.093(3)
H33? H -0.5650 0.1846 -0.0843
H34? H -0.5482 0.0483 -0.0987
H35? H -0.4616 0.1476 -0.1588
C48? C 0.0541(17) 0.5424(18) 0.3108(17)
C49? C 0.030(4) 0.633(3) 0.376(3)
H36? H 0.0241 0.6252 0.4477
C50? C 0.015(4) 0.737(3) 0.337(3)
H37? H -0.0023 0.7989 0.3858
C51? C 0.021(3) 0.761(3) 0.239(3)
C52? C 0.044(5) 0.669(3) 0.175(3)
H38? H 0.0496 0.6774 0.1039
C53? C 0.061(4) 0.562(3) 0.207(3)
H39? H 0.0778 0.5014 0.1573
C54? C 0.003(4) 0.876(4) 0.202(4)
H40? H -0.0152 0.9295 0.2609
H41? H -0.0819 0.8539 0.1399
H42? H 0.0940 0.9193 0.1827
C55? C 0.332(2) 0.190(2) 0.5698(15)
C56? C 0.478(4) 0.203(3) 0.622(4)
H43? H 0.5522 0.2804 0.6367
C57? C 0.516(5) 0.103(4) 0.654(4)
H44? H 0.6169 0.1162 0.6898
C58? C 0.422(4) -0.012(4) 0.639(3)
C59? C 0.282(5) -0.020(3) 0.588(4)
H45? H 0.2094 -0.0981 0.5739
C60? C 0.235(4) 0.076(3) 0.553(3)
H46? H 0.1338 0.0612 0.5171
C61? C 0.469(5) -0.117(4) 0.675(4)
H47? H 0.3816 -0.1911 0.6571
H48? H 0.5107 -0.0968 0.7524
H49? H 0.5439 -0.1334 0.6375
C62? C 0.474(2) 0.473(2) 0.6885(16)
C63? C 0.582(4) 0.584(3) 0.709(3)
H50? H 0.5876 0.6324 0.6545
C64? C 0.682(4) 0.627(4) 0.807(3)
H51? H 0.7547 0.7046 0.8171
C65? C 0.687(4) 0.569(4) 0.891(3)
C66? C 0.580(4) 0.460(4) 0.869(3)
H52? H 0.5769 0.4133 0.9242
C67? C 0.476(4) 0.410(4) 0.774(3)
H53? H 0.4038 0.3320 0.7657
C68? C 0.799(4) 0.619(5) 0.997(3)
H54? H 0.8659 0.6991 0.9946
H55? H 0.8575 0.5613 1.0102
H56? H 0.7471 0.6277 1.0543
loop_
_geom_bond_atom_site_label_1
_geom_bond_atom_site_label_2
_geom_bond_site_symmetry_1
_geom_bond_site_symmetry_2
S1 C1 1_555 1_555
C1 C2 1_555 1_555
C2 C3 1_555 1_555
C3 C4 1_555 1_555
C4 S1 1_555 1_555
C5 C4 1_555 1_555
C6 C5 1_555 1_555
S2 C3 1_555 1_555
C7 C1 1_555 1_555
C8 C7 1_555 1_555
H1 C8 1_555 1_555
C9 C8 1_555 1_555
H2 C9 1_555 1_555
C10 C9 1_555 1_555
C11 C10 1_555 1_555
H3 C11 1_555 1_555
C12 C7 1_555 1_555
H4 C12 1_555 1_555
C13 C10 1_555 1_555
H5 C13 1_555 1_555
H6 C13 1_555 1_555
H7 C13 1_555 1_555
C14 C2 1_555 1_555
C15 C14 1_555 1_555
H8 C15 1_555 1_555
C16 C15 1_555 1_555
H9 C16 1_555 1_555
C17 C16 1_555 1_555
C18 C17 1_555 1_555
H10 C18 1_555 1_555
C19 C14 1_555 1_555
H11 C19 1_555 1_555
C20 C17 1_555 1_555
H12 C20 1_555 1_555
H13 C20 1_555 1_555
H14 C20 1_555 1_555
C21 C5 1_555 1_555
C22 C21 1_555 1_555
H15 C22 1_555 1_555
C23 C22 1_555 1_555
H16 C23 1_555 1_555
C24 C23 1_555 1_555
C25 C24 1_555 1_555
H17 C25 1_555 1_555
C26 C21 1_555 1_555
H18 C26 1_555 1_555
C27 C24 1_555 1_555
H19 C27 1_555 1_555
H20 C27 1_555 1_555
H21 C27 1_555 1_555
C28 C6 1_555 1_555
C29 C28 1_555 1_555
H22 C29 1_555 1_555
C30 C29 1_555 1_555
H23 C30 1_555 1_555
C31 C30 1_555 1_555
C32 C31 1_555 1_555
H24 C32 1_555 1_555
C33 C28 1_555 1_555
H25 C33 1_555 1_555
C34 C31 1_555 1_555
H26 C34 1_555 1_555
H27 C34 1_555 1_555
H28 C34 1_555 1_555
C6 S2 1_555 1_555
C11 C12 1_555 1_555
C18 C19 1_555 1_555
C25 C26 1_555 1_555
C32 C33 1_555 1_555

#END
