
#######################################################################
#
#                 Cambridge Crystallographic Data Centre
#                                CCDC 
#
#######################################################################
#
# If this CIF has been generated from an entry in the Cambridge 
# Structural Database, then it will include bibliographic, chemical, 
# crystal, experimental, refinement or atomic coordinate data resulting 
# from the CCDC's data processing and validation procedures.
#
#######################################################################

data_RAJWIJ
_chemical_formula_moiety         'C52 H36 N6 S2 Si1,C4 H8 O2'
_chemical_name_systematic        
'4,4-Diphenyl-2,6-bis(4-(bis(2-pyidyl)amino)phenyl)dithienosilole ethyl acetate solvate'
_symmetry_cell_setting           triclinic
_symmetry_space_group_name_H-M   'P -1'
_symmetry_Int_Tables_number      2
_space_group_name_Hall           '-P 1'
loop_
_symmetry_equiv_pos_site_id
_symmetry_equiv_pos_as_xyz
1 x,y,z
2 -x,-y,-z
_cell_length_a                   9.9720(10)
_cell_length_b                   14.7777(16)
_cell_length_c                   16.6067(18)
_cell_angle_alpha                74.422(2)
_cell_angle_beta                 84.049(2)
_cell_angle_gamma                80.928(2)
_cell_volume                     2322.99
_exptl_crystal_colour            orange
_exptl_crystal_description       plate
_cell_formula_units_Z            2
_exptl_crystal_preparation       fluorescent
loop_
_atom_site_label
_atom_site_type_symbol
_atom_site_fract_x
_atom_site_fract_y
_atom_site_fract_z
Si1 Si 0.53705(7) 0.24851(5) 0.03738(4)
S1 S 0.11181(6) 0.26086(5) 0.01301(4)
S2 S 0.22030(6) 0.19826(5) 0.23053(4)
N1 N -0.1277(2) 0.33946(16) -0.37312(14)
N2 N -0.1629(4) 0.2734(3) -0.48351(19)
N3 N -0.1048(3) 0.5016(2) -0.41308(18)
N4 N 0.3371(2) 0.08187(15) 0.64344(12)
N5 N 0.4354(2) 0.21342(16) 0.64770(14)
N6 N 0.2140(2) -0.04472(17) 0.65740(14)
C1 C 0.2696(2) 0.24892(17) 0.05110(15)
C2 C 0.3707(2) 0.26803(17) -0.01227(15)
C3 C 0.3184(2) 0.29114(17) -0.09224(15)
H1 H 0.3736 0.3061 -0.1430
C4 C 0.1805(2) 0.29005(17) -0.08994(15)
C5 C 0.0971(2) 0.30422(17) -0.16117(15)
C6 C 0.1562(3) 0.2744(2) -0.23175(16)
H2 H 0.2483 0.2455 -0.2319
C7 C 0.0835(3) 0.2861(2) -0.30076(17)
H3 H 0.1260 0.2658 -0.3480
C8 C -0.0514(3) 0.32745(18) -0.30163(15)
C9 C -0.1125(3) 0.35756(18) -0.23251(16)
H4 H -0.2051 0.3854 -0.2325
C10 C -0.0383(3) 0.34689(18) -0.16347(16)
H5 H -0.0803 0.3690 -0.1170
C11 C -0.1379(3) 0.2597(2) -0.40232(18)
C12 C -0.1196(3) 0.1723(2) -0.3484(2)
H6 H -0.0983 0.1642 -0.2922
C13 C -0.1332(3) 0.0952(3) -0.3784(3)
H7 H -0.1216 0.0332 -0.3420
C14 C -0.1634(4) 0.1077(4) -0.4601(4)
H8 H -0.1729 0.0554 -0.4810
C15 C -0.1785(5) 0.1958(4) -0.5084(3)
H9 H -0.2020 0.2050 -0.5643
C16 C -0.1769(3) 0.4335(2) -0.41635(18)
C17 C -0.2918(4) 0.4521(3) -0.4575(3)
H10 H -0.3421 0.4026 -0.4577
C18 C -0.3337(5) 0.5433(3) -0.4988(4)
H11 H -0.4108 0.5569 -0.5314
C19 C -0.2673(4) 0.6157(3) -0.4945(3)
H12 H -0.3006 0.6797 -0.5204
C20 C -0.1525(4) 0.5935(3) -0.4522(2)
H13 H -0.1039 0.6429 -0.4496
C21 C 0.3132(3) 0.22220(18) 0.13615(15)
C22 C 0.4510(3) 0.21631(18) 0.14546(15)
C23 C 0.4791(3) 0.19188(19) 0.23130(16)
H14 H 0.5683 0.1846 0.2496
C24 C 0.3654(2) 0.17967(18) 0.28571(15)
C25 C 0.3557(2) 0.15535(17) 0.37805(15)
C26 C 0.2306(3) 0.1527(2) 0.42409(16)
H15 H 0.1493 0.1674 0.3953
C27 C 0.2223(3) 0.1288(2) 0.51161(16)
H16 H 0.1361 0.1279 0.5419
C28 C 0.3406(3) 0.10667(17) 0.55376(15)
C29 C 0.4655(3) 0.11027(19) 0.50876(16)
H17 H 0.5467 0.0958 0.5376
C30 C 0.4726(3) 0.1348(2) 0.42211(16)
H18 H 0.5590 0.1377 0.3922
C31 C 0.2527(2) 0.01748(18) 0.69286(15)
C32 C 0.2121(3) 0.0197(2) 0.77520(16)
H19 H 0.2365 0.0671 0.7977
C33 C 0.1368(3) -0.0472(2) 0.82310(17)
H20 H 0.1112 -0.0482 0.8800
C34 C 0.0980(3) -0.1133(2) 0.78864(19)
H21 H 0.0469 -0.1612 0.8212
C35 C 0.1357(3) -0.1079(2) 0.7054(2)
H22 H 0.1049 -0.1511 0.6805
C36 C 0.4263(2) 0.12231(18) 0.68164(15)
C37 C 0.4974(3) 0.0681(2) 0.74965(17)
H23 H 0.4918 0.0022 0.7706
C38 C 0.5771(3) 0.1131(2) 0.78619(18)
H24 H 0.6252 0.0788 0.8340
C39 C 0.5857(3) 0.2076(2) 0.75264(19)
H25 H 0.6386 0.2401 0.7771
C40 C 0.5166(3) 0.2540(2) 0.68322(19)
H26 H 0.5264 0.3187 0.6587
C41 C 0.6271(3) 0.35409(19) 0.01545(19)
C42 C 0.6110(3) 0.4266(2) -0.0572(2)
H27 H 0.5476 0.4249 -0.0955
C43 C 0.6871(4) 0.5024(3) -0.0749(3)
H28 H 0.6761 0.5516 -0.1250
C44 C 0.7781(4) 0.5049(3) -0.0186(4)
H29 H 0.8300 0.5561 -0.0305
C45 C 0.7949(4) 0.4352(4) 0.0537(4)
H30 H 0.8575 0.4380 0.0920
C46 C 0.7193(4) 0.3595(3) 0.0710(3)
H31 H 0.7309 0.3109 0.1215
C47 C 0.6535(2) 0.14922(17) 0.00776(15)
C48 C 0.6237(3) 0.05629(19) 0.03393(15)
H32 H 0.5434 0.0430 0.0685
C49 C 0.7094(3) -0.0172(2) 0.01038(17)
H33 H 0.6883 -0.0803 0.0294
C50 C 0.8254(3) 0.0016(2) -0.04077(19)
H34 H 0.8838 -0.0485 -0.0572
C51 C 0.8567(3) 0.0930(2) -0.06801(19)
H35 H 0.9365 0.1059 -0.1032
C52 C 0.7714(3) 0.16611(19) -0.04401(16)
H36 H 0.7936 0.2289 -0.0631
O1 O 0.5475(7) 0.5486(3) 0.2577(3)
O2 O 0.6940(7) 0.4135(3) 0.2967(3)
C53 C 0.4617(9) 0.4027(5) 0.2981(5)
H37 H 0.3753 0.4377 0.3136
H38 H 0.4846 0.3458 0.3434
H39 H 0.4531 0.3842 0.2466
C54 C 0.5692(10) 0.4630(4) 0.2843(4)
C55 C 0.8111(10) 0.4662(5) 0.2808(5)
H40 H 0.8133 0.4979 0.3260
H41 H 0.8035 0.5154 0.2270
C56 C 0.9395(10) 0.3980(6) 0.2773(5)
H42 H 0.9480 0.3508 0.3313
H43 H 1.0182 0.4329 0.2651
H44 H 0.9358 0.3659 0.2332
loop_
_geom_bond_atom_site_label_1
_geom_bond_atom_site_label_2
_geom_bond_site_symmetry_1
_geom_bond_site_symmetry_2
Si1 C2 1_555 1_555
S1 C1 1_555 1_555
S2 C21 1_555 1_555
N1 C8 1_555 1_555
N2 C11 1_555 1_555
N3 C16 1_555 1_555
N4 C28 1_555 1_555
N5 C36 1_555 1_555
N6 C31 1_555 1_555
C1 C2 1_555 1_555
C2 C3 1_555 1_555
C3 H1 1_555 1_555
C4 S1 1_555 1_555
C5 C4 1_555 1_555
C6 C5 1_555 1_555
H2 C6 1_555 1_555
C7 C6 1_555 1_555
H3 C7 1_555 1_555
C8 C7 1_555 1_555
C9 C8 1_555 1_555
H4 C9 1_555 1_555
C10 C5 1_555 1_555
H5 C10 1_555 1_555
C11 N1 1_555 1_555
C12 C11 1_555 1_555
H6 C12 1_555 1_555
C13 C12 1_555 1_555
H7 C13 1_555 1_555
C14 C13 1_555 1_555
H8 C14 1_555 1_555
C15 N2 1_555 1_555
H9 C15 1_555 1_555
C16 N1 1_555 1_555
C17 C16 1_555 1_555
H10 C17 1_555 1_555
C18 C17 1_555 1_555
H11 C18 1_555 1_555
C19 C18 1_555 1_555
H12 C19 1_555 1_555
C20 N3 1_555 1_555
H13 C20 1_555 1_555
C21 C1 1_555 1_555
C22 Si1 1_555 1_555
C23 C22 1_555 1_555
H14 C23 1_555 1_555
C24 S2 1_555 1_555
C25 C24 1_555 1_555
C26 C25 1_555 1_555
H15 C26 1_555 1_555
C27 C26 1_555 1_555
H16 C27 1_555 1_555
C28 C27 1_555 1_555
C29 C28 1_555 1_555
H17 C29 1_555 1_555
C30 C25 1_555 1_555
H18 C30 1_555 1_555
C31 N4 1_555 1_555
C32 C31 1_555 1_555
H19 C32 1_555 1_555
C33 C32 1_555 1_555
H20 C33 1_555 1_555
C34 C33 1_555 1_555
H21 C34 1_555 1_555
C35 N6 1_555 1_555
H22 C35 1_555 1_555
C36 N4 1_555 1_555
C37 C36 1_555 1_555
H23 C37 1_555 1_555
C38 C37 1_555 1_555
H24 C38 1_555 1_555
C39 C38 1_555 1_555
H25 C39 1_555 1_555
C40 N5 1_555 1_555
H26 C40 1_555 1_555
C41 Si1 1_555 1_555
C42 C41 1_555 1_555
H27 C42 1_555 1_555
C43 C42 1_555 1_555
H28 C43 1_555 1_555
C44 C43 1_555 1_555
H29 C44 1_555 1_555
C45 C44 1_555 1_555
H30 C45 1_555 1_555
C46 C41 1_555 1_555
H31 C46 1_555 1_555
C47 Si1 1_555 1_555
C48 C47 1_555 1_555
H32 C48 1_555 1_555
C49 C48 1_555 1_555
H33 C49 1_555 1_555
C50 C49 1_555 1_555
H34 C50 1_555 1_555
C51 C50 1_555 1_555
H35 C51 1_555 1_555
C52 C47 1_555 1_555
H36 C52 1_555 1_555
O1 C54 1_555 1_555
O2 C54 1_555 1_555
C53 H37 1_555 1_555
H38 C53 1_555 1_555
H39 C53 1_555 1_555
C54 C53 1_555 1_555
C55 O2 1_555 1_555
H40 C55 1_555 1_555
H41 C55 1_555 1_555
C56 C55 1_555 1_555
H42 C56 1_555 1_555
H43 C56 1_555 1_555
H44 C56 1_555 1_555
C3 C4 1_555 1_555
C9 C10 1_555 1_555
C14 C15 1_555 1_555
C19 C20 1_555 1_555
C21 C22 1_555 1_555
C23 C24 1_555 1_555
C29 C30 1_555 1_555
C34 C35 1_555 1_555
C39 C40 1_555 1_555
C45 C46 1_555 1_555
C51 C52 1_555 1_555

#END
