
#######################################################################
#
#                 Cambridge Crystallographic Data Centre
#                                CCDC 
#
#######################################################################
#
# If this CIF has been generated from an entry in the Cambridge 
# Structural Database, then it will include bibliographic, chemical, 
# crystal, experimental, refinement or atomic coordinate data resulting 
# from the CCDC's data processing and validation procedures.
#
#######################################################################

data_RAKFOZ
_chemical_formula_moiety         'C24 H30 N3 O6 P3 S3,C1 H1 Cl3'
_chemical_name_systematic        
'cis-2,4,6-Triphenyl-2,4,6-tris(methylsulfonylmethyl)cyclotriphosphazene chloroform solvate'
_symmetry_cell_setting           triclinic
_symmetry_space_group_name_H-M   'P -1'
_symmetry_Int_Tables_number      2
_space_group_name_Hall           '-P 1'
loop_
_symmetry_equiv_pos_site_id
_symmetry_equiv_pos_as_xyz
1 x,y,z
2 -x,-y,-z
_cell_length_a                   11.698(2)
_cell_length_b                   12.727(1)
_cell_length_c                   24.367(2)
_cell_angle_alpha                91.544(6)
_cell_angle_beta                 103.398(7)
_cell_angle_gamma                105.138(8)
_cell_volume                     3391.77
_exptl_crystal_colour            colorless
_exptl_crystal_description       plates
_cell_formula_units_Z            4
loop_
_atom_site_label
_atom_site_type_symbol
_atom_site_fract_x
_atom_site_fract_y
_atom_site_fract_z
P1 P 0.20461(9) 0.59333(8) 0.48868(4)
P2 P 0.31789(9) 0.70122(8) 0.40871(4)
P3 P 0.06764(9) 0.67458(8) 0.39787(4)
N1 N 0.3225(3) 0.6361(3) 0.46435(14)
N2 N 0.1908(3) 0.7234(3) 0.37857(14)
N3 N 0.0785(3) 0.6112(3) 0.45418(13)
S1 S 0.19174(10) 0.36573(8) 0.43924(5)
S2 S 0.50048(10) 0.62508(10) 0.35175(5)
S3 S -0.11507(11) 0.59591(10) 0.27638(5)
O1 O 0.1338(4) 0.2540(2) 0.44549(15)
O2 O 0.1476(3) 0.4096(3) 0.38723(13)
O3 O 0.5577(3) 0.7265(3) 0.33203(18)
O4 O 0.5598(3) 0.5964(3) 0.40526(14)
O5 O -0.2030(4) 0.6523(4) 0.28246(17)
O6 O -0.1598(3) 0.4927(3) 0.24207(14)
C1 C 0.1837(4) 0.4479(3) 0.49784(17)
H1 H 0.2455 0.4409 0.5307
H2 H 0.1047 0.4187 0.5060
C2 C -0.0400(4) 0.5689(3) 0.34462(17)
H3 H 0.0033 0.5161 0.3384
H4 H -0.1039 0.5319 0.3623
C3 C 0.3484(4) 0.6234(3) 0.35197(17)
H5 H 0.3031 0.5477 0.3516
H6 H 0.3133 0.6487 0.3164
C7 C 0.2316(4) 0.6512(3) 0.56064(16)
C8 C 0.3210(5) 0.6324(4) 0.60466(19)
H13 H 0.3704 0.5897 0.5975
C9 C 0.3365(6) 0.6774(5) 0.6594(2)
H14 H 0.3952 0.6632 0.6889
C10 C 0.2670(5) 0.7417(4) 0.6702(2)
H15 H 0.2802 0.7731 0.7068
C11 C 0.1782(5) 0.7610(4) 0.6280(2)
H16 H 0.1300 0.8042 0.6359
C12 C 0.1596(4) 0.7159(4) 0.57322(19)
H17 H 0.0985 0.7289 0.5445
C13 C 0.3503(4) 0.3822(4) 0.4491(2)
H18 H 0.3816 0.3555 0.4844
H19 H 0.3916 0.4583 0.4498
H20 H 0.3639 0.3418 0.4185
C14 C 0.4379(4) 0.8269(3) 0.42557(18)
C15 C 0.4506(5) 0.9055(4) 0.3875(2)
H21 H 0.3957 0.8949 0.3521
C16 C 0.5468(6) 1.0006(4) 0.4029(3)
H22 H 0.5551 1.0543 0.3778
C17 C 0.6285(5) 1.0158(4) 0.4540(3)
H23 H 0.6925 1.0797 0.4634
C18 C 0.6182(4) 0.9389(4) 0.4916(3)
H24 H 0.6748 0.9501 0.5265
C19 C 0.5231(4) 0.8440(4) 0.4778(2)
H25 H 0.5160 0.7914 0.5035
C20 C 0.4797(5) 0.5197(5) 0.2992(2)
H26 H 0.5561 0.5237 0.2901
H27 H 0.4210 0.5276 0.2659
H28 H 0.4504 0.4503 0.3130
C21 C 0.0004(4) 0.7848(3) 0.40495(16)
C22 C -0.1214(4) 0.7667(4) 0.4069(2)
H29 H -0.1724 0.6957 0.4012
C23 C -0.1669(5) 0.8525(4) 0.4170(2)
H30 H -0.2487 0.8401 0.4173
C24 C -0.0905(5) 0.9566(4) 0.4266(2)
H31 H -0.1202 1.0146 0.4348
C25 C 0.0287(5) 0.9762(4) 0.4244(2)
H32 H 0.0790 1.0475 0.4304
C26 C 0.0753(4) 0.8904(4) 0.4133(2)
H33 H 0.1564 0.9040 0.4115
C27 C -0.0009(6) 0.6814(5) 0.2499(2)
H34 H -0.0349 0.6936 0.2116
H35 H 0.0636 0.6475 0.2507
H36 H 0.0310 0.7501 0.2728
P4 P 0.78265(9) 0.39016(8) 0.00932(4)
P5 P 0.66219(9) 0.28196(8) 0.08723(4)
P6 P 0.91046(9) 0.30061(8) 0.09917(4)
N4 N 0.6626(3) 0.3484(3) 0.03230(13)
N5 N 0.7871(3) 0.2578(3) 0.11938(14)
N6 N 0.9044(3) 0.3625(3) 0.04257(13)
S4 S 0.80924(10) 0.61724(8) 0.06577(5)
S5 S 0.47880(11) 0.37825(10) 0.13527(5)
S6 S 1.09567(10) 0.36789(10) 0.21985(5)
O7 O 0.8712(3) 0.7288(2) 0.06181(15)
O8 O 0.8525(3) 0.5668(3) 0.11556(12)
O9 O 0.4922(4) 0.4687(4) 0.17415(17)
O10 O 0.4258(3) 0.3854(3) 0.07688(13)
O11 O 1.1670(3) 0.2959(3) 0.21044(15)
O12 O 1.1580(3) 0.4698(3) 0.25390(15)
C4 C 0.8128(4) 0.5383(3) 0.00521(16)
H7 H 0.8926 0.5653 -0.0024
H8 H 0.7531 0.5509 -0.0270
C5 C 0.6264(4) 0.3583(4) 0.14312(17)
H9 H 0.6433 0.3221 0.1774
H10 H 0.6844 0.4301 0.1499
C6 C 1.0228(4) 0.4020(3) 0.15302(18)
H11 H 1.0873 0.4377 0.1354
H12 H 0.9832 0.4569 0.1607
C28 C 0.7537(4) 0.3436(3) -0.06461(17)
C29 C 0.6538(4) 0.3573(4) -0.10437(18)
H37 H 0.5997 0.3898 -0.0928
C30 C 0.6339(6) 0.3231(5) -0.1611(2)
H38 H 0.5673 0.3329 -0.1878
C31 C 0.7144(6) 0.2742(4) -0.1775(2)
H39 H 0.7011 0.2505 -0.2155
C32 C 0.8132(5) 0.2597(4) -0.1391(2)
H40 H 0.8662 0.2265 -0.1511
C33 C 0.8346(4) 0.2940(4) -0.08271(19)
H41 H 0.9022 0.2844 -0.0567
C34 C 0.6528(4) 0.6061(4) 0.0586(2)
H42 H 0.6422 0.6381 0.0925
H43 H 0.6074 0.5304 0.0523
H44 H 0.6238 0.6437 0.0270
C35 C 0.5415(4) 0.1568(3) 0.06899(18)
C36 C 0.4543(4) 0.1406(4) 0.01792(19)
H45 H 0.4594 0.1940 -0.0074
C37 C 0.3593(4) 0.0451(4) 0.0044(2)
H46 H 0.3011 0.0347 -0.0300
C38 C 0.3509(5) -0.0342(4) 0.0414(3)
H47 H 0.2866 -0.0977 0.0323
C39 C 0.4375(6) -0.0198(4) 0.0923(3)
H48 H 0.4314 -0.0743 0.1170
C40 C 0.5332(5) 0.0743(4) 0.1070(2)
H49 H 0.5914 0.0834 0.1412
C41 C 0.3906(6) 0.2601(6) 0.1565(3)
H50 H 0.4313 0.2474 0.1936
H51 H 0.3800 0.1986 0.1302
H52 H 0.3121 0.2695 0.1572
C42 C 0.9720(4) 0.1863(3) 0.09279(17)
C43 C 0.9308(4) 0.0909(4) 0.1172(2)
H53 H 0.8716 0.0861 0.1374
C44 C 0.9774(5) 0.0031(4) 0.1116(3)
H54 H 0.9486 -0.0611 0.1275
C45 C 1.0659(6) 0.0106(5) 0.0826(3)
H55 H 1.0987 -0.0479 0.0796
C46 C 1.1065(6) 0.1046(5) 0.0578(3)
H56 H 1.1653 0.1091 0.0373
C47 C 1.0596(5) 0.1922(4) 0.0634(2)
H57 H 1.0878 0.2559 0.0470
C48 C 0.9803(5) 0.2975(4) 0.2503(2)
H58 H 0.9363 0.2297 0.2278
H59 H 0.9252 0.3411 0.2519
H60 H 1.0158 0.2829 0.2879
C49 C 0.7146(6) 0.8808(6) 0.2471(3)
H61 H 0.7061 0.8167 0.2688
Cl1 Cl 0.8582(3) 0.9682(3) 0.27229(13)
Cl2 Cl 0.6031(3) 0.9456(2) 0.25305(12)
Cl3 Cl 0.6952(3) 0.8396(2) 0.17712(10)
C51 C 0.2441(6) 0.0861(6) 0.2623(3)
H63 H 0.2123 0.1310 0.2339
Cl7 Cl 0.3543(7) 0.0432(7) 0.2431(3)
Cl8 Cl 0.1309(6) -0.0226(7) 0.2674(4)
Cl9 Cl 0.3015(10) 0.1602(6) 0.3254(3)
C50? C 0.2475(5) 0.1032(6) 0.2723(3)
H62? H 0.2093 0.1457 0.2444
Cl4? Cl 0.3926(4) 0.1741(5) 0.3021(3)
Cl5? Cl 0.2448(9) -0.0159(6) 0.2402(4)
Cl6? Cl 0.1711(5) 0.0798(9) 0.3231(3)
loop_
_geom_bond_atom_site_label_1
_geom_bond_atom_site_label_2
_geom_bond_site_symmetry_1
_geom_bond_site_symmetry_2
P1 N1 1_555 1_555
P2 N1 1_555 1_555
P3 N2 1_555 1_555
P4 N4 1_555 1_555
P5 N4 1_555 1_555
P6 N5 1_555 1_555
N2 P2 1_555 1_555
N3 P1 1_555 1_555
N5 P5 1_555 1_555
N6 P4 1_555 1_555
S1 O1 1_555 1_555
S2 O3 1_555 1_555
S3 O5 1_555 1_555
S4 O7 1_555 1_555
S5 O9 1_555 1_555
S6 O11 1_555 1_555
O2 S1 1_555 1_555
O4 S2 1_555 1_555
O6 S3 1_555 1_555
O8 S4 1_555 1_555
O10 S5 1_555 1_555
O12 S6 1_555 1_555
C1 P1 1_555 1_555
H1 C1 1_555 1_555
H2 C1 1_555 1_555
C2 P3 1_555 1_555
H3 C2 1_555 1_555
H4 C2 1_555 1_555
C3 P2 1_555 1_555
H5 C3 1_555 1_555
H6 C3 1_555 1_555
C4 P4 1_555 1_555
H7 C4 1_555 1_555
H8 C4 1_555 1_555
C5 P5 1_555 1_555
H9 C5 1_555 1_555
H10 C5 1_555 1_555
C6 P6 1_555 1_555
H11 C6 1_555 1_555
H12 C6 1_555 1_555
C7 P1 1_555 1_555
C8 C7 1_555 1_555
H13 C8 1_555 1_555
C9 C8 1_555 1_555
H14 C9 1_555 1_555
C10 C9 1_555 1_555
H15 C10 1_555 1_555
C11 C10 1_555 1_555
H16 C11 1_555 1_555
C12 C7 1_555 1_555
H17 C12 1_555 1_555
C13 S1 1_555 1_555
H18 C13 1_555 1_555
H19 C13 1_555 1_555
H20 C13 1_555 1_555
C14 P2 1_555 1_555
C15 C14 1_555 1_555
H21 C15 1_555 1_555
C16 C15 1_555 1_555
H22 C16 1_555 1_555
C17 C16 1_555 1_555
H23 C17 1_555 1_555
C18 C17 1_555 1_555
H24 C18 1_555 1_555
C19 C14 1_555 1_555
H25 C19 1_555 1_555
C20 S2 1_555 1_555
H26 C20 1_555 1_555
H27 C20 1_555 1_555
H28 C20 1_555 1_555
C21 P3 1_555 1_555
C22 C21 1_555 1_555
H29 C22 1_555 1_555
C23 C22 1_555 1_555
H30 C23 1_555 1_555
C24 C23 1_555 1_555
H31 C24 1_555 1_555
C25 C24 1_555 1_555
H32 C25 1_555 1_555
C26 C21 1_555 1_555
H33 C26 1_555 1_555
C27 S3 1_555 1_555
H34 C27 1_555 1_555
H35 C27 1_555 1_555
H36 C27 1_555 1_555
C28 P4 1_555 1_555
C29 C28 1_555 1_555
H37 C29 1_555 1_555
C30 C29 1_555 1_555
H38 C30 1_555 1_555
C31 C30 1_555 1_555
H39 C31 1_555 1_555
C32 C31 1_555 1_555
H40 C32 1_555 1_555
C33 C28 1_555 1_555
H41 C33 1_555 1_555
C34 S4 1_555 1_555
H42 C34 1_555 1_555
H43 C34 1_555 1_555
H44 C34 1_555 1_555
C35 P5 1_555 1_555
C36 C35 1_555 1_555
H45 C36 1_555 1_555
C37 C36 1_555 1_555
H46 C37 1_555 1_555
C38 C37 1_555 1_555
H47 C38 1_555 1_555
C39 C38 1_555 1_555
H48 C39 1_555 1_555
C40 C35 1_555 1_555
H49 C40 1_555 1_555
C41 S5 1_555 1_555
H50 C41 1_555 1_555
H51 C41 1_555 1_555
H52 C41 1_555 1_555
C42 P6 1_555 1_555
C43 C42 1_555 1_555
H53 C43 1_555 1_555
C44 C43 1_555 1_555
H54 C44 1_555 1_555
C45 C44 1_555 1_555
H55 C45 1_555 1_555
C46 C45 1_555 1_555
H56 C46 1_555 1_555
C47 C42 1_555 1_555
H57 C47 1_555 1_555
C48 S6 1_555 1_555
H58 C48 1_555 1_555
H59 C48 1_555 1_555
H60 C48 1_555 1_555
C49 H61 1_555 1_555
Cl1 C49 1_555 1_555
Cl2 C49 1_555 1_555
Cl3 C49 1_555 1_555
C51 H63 1_555 1_555
Cl7 C51 1_555 1_555
Cl8 C51 1_555 1_555
Cl9 C51 1_555 1_555
P3 N3 1_555 1_555
P6 N6 1_555 1_555
S1 C1 1_555 1_555
S2 C3 1_555 1_555
S3 C2 1_555 1_555
S4 C4 1_555 1_555
S5 C5 1_555 1_555
S6 C6 1_555 1_555
C11 C12 1_555 1_555
C18 C19 1_555 1_555
C25 C26 1_555 1_555
C32 C33 1_555 1_555
C39 C40 1_555 1_555
C46 C47 1_555 1_555

#END
