
#######################################################################
#
#                 Cambridge Crystallographic Data Centre
#                                CCDC 
#
#######################################################################
#
# If this CIF has been generated from an entry in the Cambridge 
# Structural Database, then it will include bibliographic, chemical, 
# crystal, experimental, refinement or atomic coordinate data resulting 
# from the CCDC's data processing and validation procedures.
#
#######################################################################

data_RAKHUH
_chemical_formula_moiety         'C21 H21 N3 O1'
_chemical_name_systematic        
N'-Cyclopentylidene-5-methyl-3-phenyl-1H-indole-2-carbohydrazide
_symmetry_cell_setting           orthorhombic
_symmetry_space_group_name_H-M   'P 21 21 21'
_symmetry_Int_Tables_number      19
_space_group_name_Hall           'P 2ac 2ab'
loop_
_symmetry_equiv_pos_site_id
_symmetry_equiv_pos_as_xyz
1 x,y,z
2 1/2-x,-y,1/2+z
3 1/2+x,1/2-y,-z
4 -x,1/2+y,1/2-z
_cell_length_a                   8.4815(5)
_cell_length_b                   11.446(2)
_cell_length_c                   18.998(3)
_cell_angle_alpha                90
_cell_angle_beta                 90
_cell_angle_gamma                90
_cell_volume                     1844.31
_exptl_crystal_colour            'light yellow'
_exptl_crystal_description       prism
_chemical_melting_point          'above 250 deg.C'
_cell_formula_units_Z            4
_exptl_crystal_recrystallization_method ethanol/chloroform
loop_
_atom_site_label
_atom_site_type_symbol
_atom_site_fract_x
_atom_site_fract_y
_atom_site_fract_z
H1 H 0.884(4) 0.139(2) -0.0073(14)
H2 H 0.474(4) 0.092(3) 0.1101(18)
C1 C 0.7367(3) 0.0787(2) 0.06830(13)
C2 C 0.7402(3) -0.0244(2) 0.10572(12)
C3 C 0.9440(4) -0.1947(2) 0.09970(14)
H3 H 0.8966 -0.2423 0.1333
C4 C 1.0797(4) -0.2302(3) 0.06628(16)
C5 C 1.1519(4) -0.1567(3) 0.01705(17)
H4 H 1.2446 -0.1815 -0.0044
C6 C 1.0909(4) -0.0484(3) -0.00100(16)
H5 H 1.1406 -0.0007 -0.0338
C7 C 0.9527(3) -0.0144(2) 0.03202(13)
C8 C 0.8774(3) -0.0854(2) 0.08254(13)
C9 C 1.1483(5) -0.3494(3) 0.0816(2)
H6 H 1.2435 -0.3597 0.055
H7 H 1.0736 -0.4086 0.0687
H8 H 1.1714 -0.3555 0.131
C10 C 0.6246(3) 0.1776(2) 0.06767(13)
C11 C 0.6340(3) -0.0621(2) 0.16309(14)
C12 C 0.5309(5) -0.1539(3) 0.1548(2)
H9 H 0.5273 -0.1939 0.1122
C13 C 0.4320(6) -0.1872(4) 0.2097(3)
H10 H 0.3616 -0.2486 0.2032
C14 C 0.4368(5) -0.1311(4) 0.2732(2)
H11 H 0.3709 -0.1542 0.3097
C15 C 0.5381(5) -0.0420(4) 0.28211(18)
H12 H 0.5425 -0.0033 0.3251
C16 C 0.6361(4) -0.0077(3) 0.22739(15)
H13 H 0.7055 0.0541 0.2346
C17 C 0.2428(3) 0.2182(3) 0.12955(15)
C18 C 0.2096(4) 0.1155(4) 0.17560(19)
H14 H 0.2912 0.1061 0.2109
H15 H 0.2024 0.0443 0.1481
C19 C 0.0528(5) 0.1445(5) 0.2094(2)
H16 H -0.0308 0.0994 0.1876
H17 H 0.0556 0.1258 0.2592
C20 C 0.0240(6) 0.2700(6) 0.1995(2)
H18 H 0.0645 0.3141 0.2392
H19 H -0.088 0.2853 0.1951
C21 C 0.1085(4) 0.3032(4) 0.1334(2)
H20 H 0.1469 0.3829 0.136
H21 H 0.04 0.2956 0.0928
N1 N 0.8653(3) 0.08510(18) 0.02467(12)
N2 N 0.4794(3) 0.1537(2) 0.09305(13)
N3 N 0.3660(3) 0.2394(2) 0.09297(12)
O1 O 0.6610(3) 0.27281(17) 0.04444(12)
loop_
_geom_bond_atom_site_label_1
_geom_bond_atom_site_label_2
_geom_bond_site_symmetry_1
_geom_bond_site_symmetry_2
H1 N1 1_555 1_555
H2 N2 1_555 1_555
C1 C2 1_555 1_555
C2 C8 1_555 1_555
C3 H3 1_555 1_555
C4 C3 1_555 1_555
C5 C4 1_555 1_555
H4 C5 1_555 1_555
C6 C5 1_555 1_555
H5 C6 1_555 1_555
C7 C6 1_555 1_555
C8 C3 1_555 1_555
C9 C4 1_555 1_555
H6 C9 1_555 1_555
H7 C9 1_555 1_555
H8 C9 1_555 1_555
C10 C1 1_555 1_555
C11 C2 1_555 1_555
C12 C11 1_555 1_555
H9 C12 1_555 1_555
C13 C12 1_555 1_555
H10 C13 1_555 1_555
C14 C13 1_555 1_555
H11 C14 1_555 1_555
C15 C14 1_555 1_555
H12 C15 1_555 1_555
C16 C11 1_555 1_555
H13 C16 1_555 1_555
C17 C18 1_555 1_555
C18 H14 1_555 1_555
H15 C18 1_555 1_555
C19 C18 1_555 1_555
H16 C19 1_555 1_555
H17 C19 1_555 1_555
C20 C19 1_555 1_555
H18 C20 1_555 1_555
H19 C20 1_555 1_555
C21 C17 1_555 1_555
H20 C21 1_555 1_555
H21 C21 1_555 1_555
N1 C1 1_555 1_555
N2 C10 1_555 1_555
N3 C17 1_555 1_555
O1 C10 1_555 1_555
C7 C8 1_555 1_555
C7 N1 1_555 1_555
C15 C16 1_555 1_555
C20 C21 1_555 1_555
N2 N3 1_555 1_555

#END
