
#######################################################################
#
#                 Cambridge Crystallographic Data Centre
#                                CCDC 
#
#######################################################################
#
# If this CIF has been generated from an entry in the Cambridge 
# Structural Database, then it will include bibliographic, chemical, 
# crystal, experimental, refinement or atomic coordinate data resulting 
# from the CCDC's data processing and validation procedures.
#
#######################################################################

data_RAKHIW
_chemical_formula_moiety         'C12 H4 N7 O12 1-,C1 H8 N5 1+'
_chemical_name_systematic        '1,3-Diaminoguanidinium dipicrylamide'
_symmetry_cell_setting           monoclinic
_symmetry_space_group_name_H-M   'P 21/c'
_symmetry_Int_Tables_number      14
_space_group_name_Hall           '-P 2ybc'
loop_
_symmetry_equiv_pos_site_id
_symmetry_equiv_pos_as_xyz
1 x,y,z
2 -x,1/2+y,1/2-z
3 -x,-y,-z
4 x,1/2-y,1/2+z
_cell_length_a                   19.3010(14)
_cell_length_b                   10.4600(7)
_cell_length_c                   19.7250(14)
_cell_angle_alpha                90
_cell_angle_beta                 90.9130(10)
_cell_angle_gamma                90
_cell_volume                     3981.74
_exptl_crystal_colour            red
_exptl_crystal_description       platelet
_chemical_melting_point          '408 K'
_cell_formula_units_Z            8
loop_
_atom_site_label
_atom_site_type_symbol
_atom_site_fract_x
_atom_site_fract_y
_atom_site_fract_z
O1 O 0.06613(12) 0.7563(2) 0.23724(11)
O2 O -0.03319(14) 0.7970(2) 0.19195(12)
O3 O -0.20995(11) 0.9699(2) 0.33007(11)
O4 O -0.18224(12) 1.0809(2) 0.41884(11)
O5 O 0.05000(13) 1.1263(2) 0.48794(10)
O6 O 0.12526(11) 1.1376(2) 0.40885(12)
O7 O 0.13291(13) 1.0977(3) 0.23428(13)
O8 O 0.22215(15) 1.2174(2) 0.24547(13)
O9 O 0.42140(12) 1.0746(2) 0.35696(12)
O10 O 0.41759(12) 0.9306(2) 0.43530(11)
O11 O 0.20323(12) 0.7080(2) 0.47061(11)
O12 O 0.11009(12) 0.8151(2) 0.44902(12)
N1 N 0.11193(14) 0.9198(3) 0.32433(13)
N2 N 0.01035(13) 0.8098(2) 0.23757(12)
N3 N -0.16641(13) 1.0157(2) 0.36913(12)
N4 N 0.06948(13) 1.1027(2) 0.43072(12)
N5 N 0.18893(15) 1.1232(3) 0.26006(12)
N6 N 0.39006(13) 0.9942(3) 0.38982(12)
N7 N 0.17180(14) 0.7951(2) 0.44149(12)
C1 C 0.04845(14) 0.9485(3) 0.33472(13)
C2 C -0.00674(15) 0.8932(3) 0.29370(13)
C3 C -0.07530(15) 0.9153(2) 0.30373(13)
H17 H -0.1093 0.8771 0.2748
C4 C -0.09510(15) 0.9941(3) 0.35658(14)
C5 C -0.04547(15) 1.0517(2) 0.39824(13)
H18 H -0.0593 1.1041 0.4350
C6 C 0.02270(15) 1.0328(3) 0.38624(13)
C7 C 0.17513(15) 0.9472(3) 0.34488(13)
C8 C 0.21872(16) 1.0361(3) 0.31073(13)
C9 C 0.28707(16) 1.0506(3) 0.32461(14)
H19 H 0.3135 1.1121 0.3007
C10 C 0.31819(15) 0.9751(3) 0.37393(14)
C11 C 0.28004(15) 0.8892(3) 0.41120(13)
H20 H 0.3016 0.8385 0.4455
C12 C 0.21069(15) 0.8786(3) 0.39772(13)
O13 O 0.38532(12) 0.3333(2) 0.43703(11)
O14 O 0.29550(12) 0.21940(19) 0.45825(11)
O15 O 0.07519(12) 0.4241(2) 0.43312(11)
O16 O 0.06128(13) 0.5674(3) 0.35534(13)
O17 O 0.24348(12) 0.7231(2) 0.23070(12)
O18 O 0.34859(13) 0.6665(3) 0.24914(14)
O19 O 0.36437(12) 0.6437(2) 0.41598(14)
O20 O 0.44518(13) 0.6242(2) 0.49156(11)
O21 O 0.67162(12) 0.5857(2) 0.41874(12)
O22 O 0.69574(12) 0.4932(2) 0.32428(12)
O23 O 0.51349(13) 0.3182(2) 0.18691(11)
O24 O 0.41492(13) 0.2798(2) 0.23302(12)
N13 N 0.37341(13) 0.4552(3) 0.31463(12)
N14 N 0.32328(14) 0.3107(2) 0.43080(12)
N15 N 0.09761(14) 0.4912(3) 0.38762(13)
N16 N 0.28750(14) 0.6562(3) 0.25947(12)
N17 N 0.42177(14) 0.6078(2) 0.43430(13)
N18 N 0.65373(13) 0.5304(2) 0.36620(13)
N19 N 0.47136(14) 0.3327(2) 0.23292(12)
C14 C 0.31133(15) 0.4739(3) 0.33891(13)
C15 C 0.28070(16) 0.3962(3) 0.39009(13)
C16 C 0.21183(15) 0.3978(3) 0.40480(14)
H21 H 0.1937 0.3422 0.4382
C17 C 0.16903(15) 0.4819(3) 0.37021(14)
C18 C 0.19482(16) 0.5655(3) 0.32259(14)
H22 H 0.1650 0.6252 0.3005
C19 C 0.26353(15) 0.5614(3) 0.30775(13)
C20 C 0.43767(15) 0.4713(3) 0.32994(13)
C21 C 0.46623(15) 0.5451(3) 0.38581(13)
C22 C 0.53472(15) 0.5611(3) 0.39771(14)
H23 H 0.5504 0.6080 0.4362
C23 C 0.58188(15) 0.5089(3) 0.35352(14)
C24 C 0.56011(16) 0.4360(3) 0.29897(14)
H24 H 0.5928 0.4004 0.2689
C25 C 0.49105(16) 0.4158(3) 0.28890(13)
N8 N 0.06162(14) 0.1624(3) 0.07993(13)
H1 H 0.019(2) 0.146(4) 0.085(2)
H2 H 0.075(2) 0.236(4) 0.065(2)
N9 N 0.17624(14) 0.1083(2) 0.08386(13)
H3 H 0.206(2) 0.051(4) 0.0957(19)
N10 N 0.19150(14) 0.2395(2) 0.08497(13)
H4 H 0.2110(19) 0.256(4) 0.129(2)
H5 H 0.229(2) 0.251(4) 0.053(2)
N11 N 0.09340(15) -0.0457(2) 0.09865(14)
H6 H 0.050(2) -0.069(4) 0.097(2)
N12 N 0.14705(16) -0.1320(3) 0.11338(15)
H7 H 0.148(2) -0.195(4) 0.082(2)
H8 H 0.139(2) -0.170(4) 0.153(2)
C13 C 0.10999(15) 0.0763(3) 0.08789(13)
N20 N 0.44748(15) 0.6786(3) 0.09448(14)
H9 H 0.493(2) 0.653(4) 0.099(2)
H10 H 0.435(2) 0.751(4) 0.084(2)
N21 N 0.33271(14) 0.6265(2) 0.08589(13)
H11 H 0.305(2) 0.567(4) 0.093(2)
N22 N 0.31711(14) 0.7577(2) 0.09102(13)
H12 H 0.293(2) 0.773(4) 0.131(2)
H13 H 0.291(2) 0.780(4) 0.052(2)
N23 N 0.41440(15) 0.4688(2) 0.09533(14)
H14 H 0.460(2) 0.445(4) 0.096(2)
N24 N 0.36044(16) 0.3795(3) 0.09355(16)
H15 H 0.366(2) 0.325(4) 0.131(2)
H16 H 0.362(2) 0.336(4) 0.054(2)
C26 C 0.39841(16) 0.5924(3) 0.09207(14)
loop_
_geom_bond_atom_site_label_1
_geom_bond_atom_site_label_2
_geom_bond_site_symmetry_1
_geom_bond_site_symmetry_2
O1 N2 1_555 1_555
O2 N2 1_555 1_555
O3 N3 1_555 1_555
O4 N3 1_555 1_555
O5 N4 1_555 1_555
O6 N4 1_555 1_555
O7 N5 1_555 1_555
O8 N5 1_555 1_555
O9 N6 1_555 1_555
O10 N6 1_555 1_555
O11 N7 1_555 1_555
O12 N7 1_555 1_555
O13 N14 1_555 1_555
O14 N14 1_555 1_555
O15 N15 1_555 1_555
O16 N15 1_555 1_555
O17 N16 1_555 1_555
O18 N16 1_555 1_555
O19 N17 1_555 1_555
O20 N17 1_555 1_555
O21 N18 1_555 1_555
O22 N18 1_555 1_555
O23 N19 1_555 1_555
O24 N19 1_555 1_555
N1 C1 1_555 1_555
N2 C2 1_555 1_555
N3 C4 1_555 1_555
N4 C6 1_555 1_555
N5 C8 1_555 1_555
N6 C10 1_555 1_555
N7 C12 1_555 1_555
N8 H1 1_555 1_555
H2 N8 1_555 1_555
N9 H3 1_555 1_555
N10 N9 1_555 1_555
H4 N10 1_555 1_555
H5 N10 1_555 1_555
N11 H6 1_555 1_555
N12 N11 1_555 1_555
H7 N12 1_555 1_555
H8 N12 1_555 1_555
N13 C14 1_555 1_555
N14 C15 1_555 1_555
N15 C17 1_555 1_555
N16 C19 1_555 1_555
N17 C21 1_555 1_555
N18 C23 1_555 1_555
N19 C25 1_555 1_555
N20 H9 1_555 1_555
H10 N20 1_555 1_555
N21 H11 1_555 1_555
N22 N21 1_555 1_555
H12 N22 1_555 1_555
H13 N22 1_555 1_555
N23 H14 1_555 1_555
N24 N23 1_555 1_555
H15 N24 1_555 1_555
H16 N24 1_555 1_555
C1 C2 1_555 1_555
C2 C3 1_555 1_555
C3 H17 1_555 1_555
C4 C3 1_555 1_555
C5 C4 1_555 1_555
H18 C5 1_555 1_555
C6 C1 1_555 1_555
C7 N1 1_555 1_555
C8 C7 1_555 1_555
C9 C8 1_555 1_555
H19 C9 1_555 1_555
C10 C9 1_555 1_555
C11 C10 1_555 1_555
H20 C11 1_555 1_555
C12 C7 1_555 1_555
C13 N8 1_555 1_555
C14 C15 1_555 1_555
C15 C16 1_555 1_555
C16 H21 1_555 1_555
C17 C16 1_555 1_555
C18 C17 1_555 1_555
H22 C18 1_555 1_555
C19 C14 1_555 1_555
C20 N13 1_555 1_555
C21 C20 1_555 1_555
C22 C21 1_555 1_555
H23 C22 1_555 1_555
C23 C22 1_555 1_555
C24 C23 1_555 1_555
H24 C24 1_555 1_555
C25 C20 1_555 1_555
C26 N20 1_555 1_555
N9 C13 1_555 1_555
N11 C13 1_555 1_555
N21 C26 1_555 1_555
N23 C26 1_555 1_555
C5 C6 1_555 1_555
C11 C12 1_555 1_555
C18 C19 1_555 1_555
C24 C25 1_555 1_555

#END
