
#######################################################################
#
#                 Cambridge Crystallographic Data Centre
#                                CCDC 
#
#######################################################################
#
# If this CIF has been generated from an entry in the Cambridge 
# Structural Database, then it will include bibliographic, chemical, 
# crystal, experimental, refinement or atomic coordinate data resulting 
# from the CCDC's data processing and validation procedures.
#
#######################################################################

data_RAKHET
_chemical_compound_source        'aerial parts of Isodon wikstroemioides'
_chemical_name_common            'isowikstroemin A acetone solvate'
_chemical_formula_moiety         'C23 H32 O6,0.5(C3 H6 O1)'
_chemical_name_systematic        
'(20S)-18-hydroxy-20-methoxy-14\b-acetoxy-7,20-epoxy-ent-kaur-16-en-15-one acetone solvate'
_chemical_properties_biological  
'cytotoxic activity; inhibitory activity against nitric oxide (NO) production'
_symmetry_cell_setting           monoclinic
_symmetry_space_group_name_H-M   'C 2'
_symmetry_Int_Tables_number      5
_space_group_name_Hall           'C 2y'
loop_
_symmetry_equiv_pos_site_id
_symmetry_equiv_pos_as_xyz
1 x,y,z
2 -x,y,-z
3 1/2+x,1/2+y,z
4 1/2-x,1/2+y,-z
_cell_length_a                   14.0233(4)
_cell_length_b                   11.2595(3)
_cell_length_c                   27.8404(8)
_cell_angle_alpha                90
_cell_angle_beta                 97.1520(10)
_cell_angle_gamma                90
_cell_volume                     4361.67
_exptl_crystal_colour            colorless
_exptl_crystal_description       block
_cell_formula_units_Z            8
_exptl_crystal_recrystallization_method methanol
loop_
_atom_site_label
_atom_site_type_symbol
_atom_site_fract_x
_atom_site_fract_y
_atom_site_fract_z
O1 O 0.5626(2) 0.4953(3) 0.12310(10)
O2 O 0.48339(16) 0.3954(2) 0.17528(8)
O3 O 0.26062(19) -0.2277(3) 0.18315(10)
H1 H 0.2448 -0.2475 0.2102
O4 O 0.29161(18) 0.2295(2) 0.22515(9)
O5 O 0.49619(16) 0.1516(2) 0.06363(8)
C1 C 0.5527(2) 0.4685(3) 0.16392(12)
C2 C 0.4205(2) 0.3435(3) 0.13557(11)
H2 H 0.4534 0.3300 0.1062
C3 C 0.3813(2) 0.2285(3) 0.15519(11)
C4 C 0.4578(2) 0.1436(3) 0.17945(11)
H3 H 0.4914 0.1818 0.2093
C5 C 0.4140(2) 0.0256(3) 0.19302(11)
H4 H 0.3648 0.0403 0.2149
H5 H 0.4647 -0.0256 0.2102
C6 C 0.3675(2) -0.0378(3) 0.14660(11)
H6 H 0.2971 -0.0399 0.1493
C7 C 0.3985(2) -0.1709(3) 0.14310(12)
C8 C 0.3614(3) -0.2389(3) 0.18411(13)
H7 H 0.3780 -0.3240 0.1816
H8 H 0.3935 -0.2089 0.2154
C9 C 0.6147(2) 0.5096(3) 0.20795(13)
H9 H 0.6675 0.4533 0.2159
H10 H 0.5765 0.5146 0.2351
H11 H 0.6409 0.5882 0.2019
C10 C 0.3135(2) 0.2771(3) 0.18897(11)
C11 C 0.2806(2) 0.3969(3) 0.16979(12)
C12 C 0.2219(2) 0.4664(3) 0.19048(13)
H12 H 0.1978 0.4415 0.2193
H13 H 0.2036 0.5414 0.1766
C13 C 0.3279(2) 0.4176(3) 0.12468(12)
H14 H 0.3427 0.5036 0.1205
C14 C 0.2664(3) 0.3666(3) 0.07928(12)
H15 H 0.1980 0.3662 0.0848
H16 H 0.2726 0.4191 0.0513
C15 C 0.2964(2) 0.2400(3) 0.06706(11)
H17 H 0.2434 0.2029 0.0454
H18 H 0.3530 0.2447 0.0491
C16 C 0.3213(2) 0.1598(3) 0.11132(10)
H19 H 0.2592 0.1351 0.1225
C17 C 0.3781(2) 0.0430(3) 0.10237(11)
O6 O 0.52627(16) 0.1189(2) 0.14659(8)
C18 C 0.4847(2) 0.0711(3) 0.10147(11)
H20 H 0.5189 -0.0043 0.0954
C19 C 0.5948(3) 0.1775(4) 0.06086(14)
H21 H 0.6211 0.2229 0.0895
H22 H 0.6004 0.2243 0.0317
H23 H 0.6306 0.1031 0.0595
C20 C 0.5079(3) -0.1936(3) 0.14773(13)
H24 H 0.5401 -0.1463 0.1745
H25 H 0.5322 -0.1709 0.1175
H26 H 0.5207 -0.2781 0.1541
C21 C 0.3511(2) -0.2198(3) 0.09420(12)
H27 H 0.3751 -0.3013 0.0898
H28 H 0.2808 -0.2250 0.0950
C22 C 0.3701(2) -0.1446(3) 0.05096(12)
H29 H 0.3377 -0.1809 0.0209
H30 H 0.4400 -0.1428 0.0488
C23 C 0.3334(2) -0.0176(3) 0.05558(11)
H31 H 0.2626 -0.0193 0.0549
H32 H 0.3484 0.0295 0.0275
O7 O 0.73840(19) -0.1989(3) 0.31648(10)
H33 H 0.7559 -0.2211 0.2901
O8 O 0.51939(16) 0.4205(2) 0.32728(8)
O9 O 0.4353(2) 0.5172(3) 0.37818(10)
O10 O 0.71850(19) 0.2580(2) 0.28071(9)
C24 C 0.6378(3) -0.2131(3) 0.31463(13)
H34 H 0.6225 -0.2986 0.3169
H35 H 0.6061 -0.1832 0.2832
C25 C 0.5989(2) -0.1464(3) 0.35559(12)
C26 C 0.6307(2) -0.0129(3) 0.35354(12)
H36 H 0.7017 -0.0157 0.3524
C27 C 0.5895(3) 0.0528(3) 0.30699(12)
H37 H 0.6412 0.0680 0.2866
H38 H 0.5397 0.0032 0.2882
C28 C 0.5454(2) 0.1705(3) 0.32069(11)
H39 H 0.5146 0.2108 0.2907
C29 C 0.6202(2) 0.2531(3) 0.34746(11)
C30 C 0.5800(2) 0.3670(3) 0.36716(11)
H40 H 0.5449 0.3519 0.3957
C31 C 0.4479(2) 0.4914(3) 0.33776(12)
C32 C 0.6426(2) -0.1975(3) 0.40465(12)
H41 H 0.6182 -0.2793 0.4078
H42 H 0.7132 -0.2022 0.4053
C33 C 0.6198(3) -0.1247(3) 0.44774(12)
H43 H 0.6491 -0.1629 0.4781
H44 H 0.5493 -0.1222 0.4482
C34 C 0.6585(2) 0.0025(3) 0.44516(12)
H45 H 0.6414 0.0486 0.4731
H46 H 0.7295 0.0001 0.4473
C35 C 0.6178(2) 0.0650(3) 0.39824(11)
O11 O 0.47349(16) 0.1451(2) 0.35170(8)
C36 C 0.5113(2) 0.0954(3) 0.39704(11)
H47 H 0.4755 0.0204 0.4018
O12 O 0.49746(16) 0.1740(2) 0.43492(8)
C37 C 0.3985(3) 0.2000(4) 0.43656(14)
H48 H 0.3742 0.2491 0.4086
H49 H 0.3912 0.2430 0.4665
H50 H 0.3619 0.1257 0.4357
C38 C 0.6767(2) 0.1818(3) 0.39121(10)
H51 H 0.7395 0.1569 0.3809
C39 C 0.6997(2) 0.2603(3) 0.43664(11)
H52 H 0.7510 0.2216 0.4589
H53 H 0.6418 0.2654 0.4535
C40 C 0.7323(2) 0.3871(3) 0.42539(12)
H54 H 0.8008 0.3851 0.4200
H55 H 0.7269 0.4387 0.4537
C41 C 0.6723(2) 0.4411(3) 0.38038(12)
H56 H 0.6572 0.5266 0.3855
C42 C 0.7211(2) 0.4238(3) 0.33568(12)
C43 C 0.7780(3) 0.4968(4) 0.31537(14)
H57 H 0.7931 0.5726 0.3293
H58 H 0.8039 0.4735 0.2869
C44 C 0.6914(2) 0.3033(3) 0.31565(11)
C45 C 0.3868(3) 0.5315(4) 0.29316(13)
H59 H 0.3414 0.4683 0.2818
H60 H 0.4276 0.5496 0.2680
H61 H 0.3511 0.6028 0.3004
C46 C 0.4894(3) -0.1690(3) 0.34859(13)
H62 H 0.4596 -0.1232 0.3208
H63 H 0.4621 -0.1443 0.3778
H64 H 0.4771 -0.2538 0.3428
C47 C 0.0651(5) 0.1428(7) 0.0396(3)
H65 H 0.0355 0.1382 0.0696
H66 H 0.0783 0.2260 0.0325
H67 H 0.1254 0.0979 0.0434
C48 C 0.0000 0.0928(12) 0.0000
O13 O 0.0000 -0.023(2) 0.0000
C47A C -0.0651(5) 0.1428(7) -0.0396(3)
H65A H -0.0355 0.1382 -0.0696
H66A H -0.0783 0.2260 -0.0325
H67A H -0.1254 0.0979 -0.0434
C49 C 1.0000 0.1142(15) 0.5000
C50 C 0.9306(6) 0.1586(9) 0.4623(3)
H68 H 0.9597 0.1640 0.4321
H69 H 0.9092 0.2375 0.4712
H70 H 0.8754 0.1046 0.4577
O14 O 1.0000 0.004(3) 0.5000
C50A C 1.0694(6) 0.1586(9) 0.5377(3)
H68A H 1.0403 0.1640 0.5679
H69A H 1.0908 0.2375 0.5288
H70A H 1.1246 0.1046 0.5423
loop_
_geom_bond_atom_site_label_1
_geom_bond_atom_site_label_2
_geom_bond_site_symmetry_1
_geom_bond_site_symmetry_2
O1 C1 1_555 1_555
O2 C1 1_555 1_555
O3 H1 1_555 1_555
O4 C10 1_555 1_555
O5 C18 1_555 1_555
C1 C9 1_555 1_555
C2 O2 1_555 1_555
H2 C2 1_555 1_555
C3 C2 1_555 1_555
C4 C3 1_555 1_555
H3 C4 1_555 1_555
C5 C4 1_555 1_555
H4 C5 1_555 1_555
H5 C5 1_555 1_555
C6 C5 1_555 1_555
H6 C6 1_555 1_555
C7 C6 1_555 1_555
C8 O3 1_555 1_555
H7 C8 1_555 1_555
H8 C8 1_555 1_555
C9 H9 1_555 1_555
H10 C9 1_555 1_555
H11 C9 1_555 1_555
C10 C3 1_555 1_555
C11 C10 1_555 1_555
C12 C11 1_555 1_555
H12 C12 1_555 1_555
H13 C12 1_555 1_555
C13 C2 1_555 1_555
H14 C13 1_555 1_555
C14 C13 1_555 1_555
H15 C14 1_555 1_555
H16 C14 1_555 1_555
C15 C14 1_555 1_555
H17 C15 1_555 1_555
H18 C15 1_555 1_555
C16 C3 1_555 1_555
H19 C16 1_555 1_555
C17 C6 1_555 1_555
O6 C4 1_555 1_555
C18 C17 1_555 1_555
H20 C18 1_555 1_555
C19 O5 1_555 1_555
H21 C19 1_555 1_555
H22 C19 1_555 1_555
H23 C19 1_555 1_555
C20 C7 1_555 1_555
H24 C20 1_555 1_555
H25 C20 1_555 1_555
H26 C20 1_555 1_555
C21 C7 1_555 1_555
H27 C21 1_555 1_555
H28 C21 1_555 1_555
C22 C21 1_555 1_555
H29 C22 1_555 1_555
H30 C22 1_555 1_555
C23 C17 1_555 1_555
H31 C23 1_555 1_555
H32 C23 1_555 1_555
O7 H33 1_555 1_555
O8 C30 1_555 1_555
O9 C31 1_555 1_555
O10 C44 1_555 1_555
C24 O7 1_555 1_555
H34 C24 1_555 1_555
H35 C24 1_555 1_555
C25 C24 1_555 1_555
C26 C25 1_555 1_555
H36 C26 1_555 1_555
C27 C26 1_555 1_555
H37 C27 1_555 1_555
H38 C27 1_555 1_555
C28 C27 1_555 1_555
H39 C28 1_555 1_555
C29 C28 1_555 1_555
C30 C29 1_555 1_555
H40 C30 1_555 1_555
C31 O8 1_555 1_555
C32 C25 1_555 1_555
H41 C32 1_555 1_555
H42 C32 1_555 1_555
C33 C32 1_555 1_555
H43 C33 1_555 1_555
H44 C33 1_555 1_555
C34 C33 1_555 1_555
H45 C34 1_555 1_555
H46 C34 1_555 1_555
C35 C26 1_555 1_555
O11 C28 1_555 1_555
C36 C35 1_555 1_555
H47 C36 1_555 1_555
O12 C36 1_555 1_555
C37 O12 1_555 1_555
H48 C37 1_555 1_555
H49 C37 1_555 1_555
H50 C37 1_555 1_555
C38 C29 1_555 1_555
H51 C38 1_555 1_555
C39 C38 1_555 1_555
H52 C39 1_555 1_555
H53 C39 1_555 1_555
C40 C39 1_555 1_555
H54 C40 1_555 1_555
H55 C40 1_555 1_555
C41 C30 1_555 1_555
H56 C41 1_555 1_555
C42 C41 1_555 1_555
C43 C42 1_555 1_555
H57 C43 1_555 1_555
H58 C43 1_555 1_555
C44 C29 1_555 1_555
C45 C31 1_555 1_555
H59 C45 1_555 1_555
H60 C45 1_555 1_555
H61 C45 1_555 1_555
C46 C25 1_555 1_555
H62 C46 1_555 1_555
H63 C46 1_555 1_555
H64 C46 1_555 1_555
C47 H65 1_555 1_555
H66 C47 1_555 1_555
H67 C47 1_555 1_555
C48 C47 1_555 1_555
O13 C48 1_555 1_555
C49 C50 1_555 1_555
C50 H68 1_555 1_555
H69 C50 1_555 1_555
H70 C50 1_555 1_555
O14 C49 1_555 1_555
C47A C48 1_555 1_555
H65A C47A 1_555 1_555
H66A C47A 1_555 1_555
H67A C47A 1_555 1_555
C50A C49 1_555 1_555
H68A C50A 1_555 1_555
H69A C50A 1_555 1_555
H70A C50A 1_555 1_555
C7 C8 1_555 1_555
C11 C13 1_555 1_555
C15 C16 1_555 1_555
C16 C17 1_555 1_555
O6 C18 1_555 1_555
C22 C23 1_555 1_555
C34 C35 1_555 1_555
C35 C38 1_555 1_555
O11 C36 1_555 1_555
C40 C41 1_555 1_555
C42 C44 1_555 1_555

#END
