
#######################################################################
#
#                 Cambridge Crystallographic Data Centre
#                                CCDC 
#
#######################################################################
#
# If this CIF has been generated from an entry in the Cambridge 
# Structural Database, then it will include bibliographic, chemical, 
# crystal, experimental, refinement or atomic coordinate data resulting 
# from the CCDC's data processing and validation procedures.
#
#######################################################################

data_RAKKAR
_chemical_formula_moiety         'C17 H16 Cl1 N1 O2'
_chemical_name_systematic        
6-Chloro-N-phenyl-2,3,3a,9a-tetrahydro-4H-furo[2,3-b]chromen-4-amine
_symmetry_cell_setting           orthorhombic
_symmetry_space_group_name_H-M   'P 21 21 21'
_symmetry_Int_Tables_number      19
_space_group_name_Hall           'P 2ac 2ab'
loop_
_symmetry_equiv_pos_site_id
_symmetry_equiv_pos_as_xyz
1 x,y,z
2 1/2-x,-y,1/2+z
3 1/2+x,1/2-y,-z
4 -x,1/2+y,1/2-z
_cell_length_a                   8.1681(8)
_cell_length_b                   11.8437(9)
_cell_length_c                   14.9908(11)
_cell_angle_alpha                90
_cell_angle_beta                 90
_cell_angle_gamma                90
_cell_volume                     1450.22
_exptl_crystal_colour            colorless
_exptl_crystal_description       block
_cell_formula_units_Z            4
loop_
_atom_site_label
_atom_site_type_symbol
_atom_site_fract_x
_atom_site_fract_y
_atom_site_fract_z
Cl1 Cl -0.19315(12) -0.70985(8) -0.61121(5)
O1 O -0.0464(3) -1.05506(17) -0.34281(15)
O2 O 0.0045(3) -1.09504(17) -0.19887(15)
N1 N -0.2928(3) -0.75690(18) -0.26341(15)
H1 H -0.208(3) -0.721(2) -0.2655(18)
C1 C -0.1533(4) -0.8115(3) -0.53053(18)
C2 C -0.2195(3) -0.8012(2) -0.44661(18)
H2 H -0.295(3) -0.735(2) -0.4340(17)
C3 C -0.1888(3) -0.8806(2) -0.38100(17)
C4 C -0.0879(4) -0.9713(2) -0.4022(2)
C5 C -0.0213(4) -0.9813(3) -0.4875(2)
H3 H 0.040(4) -1.043(2) -0.4959(19)
C6 C -0.0538(4) -0.9024(3) -0.5516(2)
H4 H -0.011(3) -0.910(2) -0.6102(18)
C7 C -0.2685(3) -0.8743(2) -0.28984(18)
H5 H -0.384(3) -0.9092(17) -0.2949(14)
C8 C -0.1700(4) -0.9429(2) -0.22226(19)
H6 H -0.236(3) -0.954(2) -0.1692(17)
C9 C -0.1180(4) -1.0583(2) -0.2560(2)
H7 H -0.209(4) -1.117(2) -0.2554(18)
C10 C -0.0057(4) -0.8933(3) -0.1943(2)
H8 H -0.014(4) -0.834(2) -0.1494(19)
H9 H 0.056(4) -0.858(2) -0.249(2)
C11 C 0.0844(6) -0.9980(4) -0.1601(3)
H10 H 0.084(5) -1.007(4) -0.099(3)
H11 H 0.209(5) -1.001(3) -0.180(2)
C12 C -0.3941(3) -0.7283(2) -0.19214(16)
C13 C -0.3720(4) -0.6232(3) -0.1511(2)
H12 H -0.285(4) -0.579(2) -0.172(2)
C14 C -0.4745(5) -0.5880(3) -0.0841(2)
H13 H -0.451(5) -0.518(3) -0.057(3)
C15 C -0.6018(5) -0.6548(3) -0.0556(2)
H14 H -0.675(3) -0.634(2) -0.0116(17)
C16 C -0.6247(4) -0.7581(3) -0.0952(2)
H15 H -0.717(4) -0.806(2) -0.080(2)
C17 C -0.5232(4) -0.7947(3) -0.16327(19)
H16 H -0.540(3) -0.866(2) -0.1900(18)
loop_
_geom_bond_atom_site_label_1
_geom_bond_atom_site_label_2
_geom_bond_site_symmetry_1
_geom_bond_site_symmetry_2
Cl1 C1 1_555 1_555
O1 C4 1_555 1_555
O2 C9 1_555 1_555
N1 H1 1_555 1_555
C1 C2 1_555 1_555
C2 H2 1_555 1_555
C3 C2 1_555 1_555
C4 C3 1_555 1_555
C5 C4 1_555 1_555
H3 C5 1_555 1_555
C6 C1 1_555 1_555
H4 C6 1_555 1_555
C7 N1 1_555 1_555
H5 C7 1_555 1_555
C8 C7 1_555 1_555
H6 C8 1_555 1_555
C9 O1 1_555 1_555
H7 C9 1_555 1_555
C10 C8 1_555 1_555
H8 C10 1_555 1_555
H9 C10 1_555 1_555
C11 O2 1_555 1_555
H10 C11 1_555 1_555
H11 C11 1_555 1_555
C12 N1 1_555 1_555
C13 C12 1_555 1_555
H12 C13 1_555 1_555
C14 C13 1_555 1_555
H13 C14 1_555 1_555
C15 C14 1_555 1_555
H14 C15 1_555 1_555
C16 C15 1_555 1_555
H15 C16 1_555 1_555
C17 C12 1_555 1_555
H16 C17 1_555 1_555
C3 C7 1_555 1_555
C5 C6 1_555 1_555
C8 C9 1_555 1_555
C10 C11 1_555 1_555
C16 C17 1_555 1_555

#END
