
#######################################################################
#
#                 Cambridge Crystallographic Data Centre
#                                CCDC 
#
#######################################################################
#
# If this CIF has been generated from an entry in the Cambridge 
# Structural Database, then it will include bibliographic, chemical, 
# crystal, experimental, refinement or atomic coordinate data resulting 
# from the CCDC's data processing and validation procedures.
#
#######################################################################

data_RAKNUM
_chemical_formula_moiety         'C16 H9 Cl3 N2 O1 S2'
_chemical_name_systematic        
(3S,4R)-3-Chloro-1-(4-chlorophenyl)-3-phenylazetidin-2-one-4-spiro-5'-(4'-chloro-5'H-1',2',3'-dithiazole)
_symmetry_cell_setting           monoclinic
_symmetry_space_group_name_H-M   'P 2/c'
_symmetry_Int_Tables_number      13
_space_group_name_Hall           '-P 2yc'
loop_
_symmetry_equiv_pos_site_id
_symmetry_equiv_pos_as_xyz
1 x,y,z
2 x,-y,1/2+z
3 -x,-y,-z
4 -x,y,1/2-z
_cell_length_a                   16.946(2)
_cell_length_b                   7.4460(5)
_cell_length_c                   15.026(3)
_cell_angle_alpha                90.00
_cell_angle_beta                 113.080(10)
_cell_angle_gamma                90.00
_cell_volume                     1744.22
_exptl_crystal_colour            yellow
_exptl_crystal_description       prism
_chemical_melting_point          '147-149 deg.C'
_cell_formula_units_Z            4
loop_
_atom_site_label
_atom_site_type_symbol
_atom_site_fract_x
_atom_site_fract_y
_atom_site_fract_z
C1 C 0.11334(19) 0.6835(4) 0.9924(2)
C2 C 0.0293(2) 0.7055(5) 0.9278(2)
H1 H 0.0148 0.6903 0.8618
C3 C -0.0326(2) 0.7499(5) 0.9618(3)
H2 H -0.0892 0.7653 0.9188
C4 C -0.0109(2) 0.7713(5) 1.0592(3)
C5 C 0.0724(2) 0.7495(5) 1.1240(3)
H3 H 0.0867 0.7642 1.1899
C6 C 0.1346(2) 0.7057(5) 1.0901(2)
H4 H 0.1912 0.6910 1.1333
C7 C 0.1756(2) 0.6220(5) 0.8654(2)
C8 C 0.27026(19) 0.5727(4) 0.9027(2)
C9 C 0.26636(18) 0.5904(4) 1.00793(19)
C10 C 0.32264(18) 0.7354(4) 1.0734(2)
C11 C 0.3315(2) 0.6933(4) 0.8817(2)
C12 C 0.3016(3) 0.8196(5) 0.8082(2)
H5 H 0.2434 0.8281 0.7696
C13 C 0.3608(4) 0.9338(6) 0.7933(3)
H6 H 0.3414 1.0200 0.7447
C14 C 0.4463(4) 0.9212(7) 0.8489(3)
H7 H 0.4848 0.9978 0.8378
C15 C 0.4754(3) 0.7955(6) 0.9211(3)
H8 H 0.5337 0.7870 0.9594
C16 C 0.4181(2) 0.6815(5) 0.9368(2)
H9 H 0.4382 0.5954 0.9853
O1 O 0.12017(16) 0.6428(5) 0.78660(16)
N1 N 0.17646(15) 0.6366(3) 0.95675(16)
N2 N 0.38145(17) 0.7053(4) 1.15580(18)
S1 S 0.28508(6) 0.38958(11) 1.08206(6)
S2 S 0.39084(6) 0.49369(15) 1.19315(7)
Cl1 Cl -0.09072(6) 0.82209(16) 1.10098(8)
Cl2 Cl 0.28348(6) 0.34561(11) 0.87248(7)
Cl3 Cl 0.30209(6) 0.95233(10) 1.03288(6)
loop_
_geom_bond_atom_site_label_1
_geom_bond_atom_site_label_2
_geom_bond_site_symmetry_1
_geom_bond_site_symmetry_2
C1 C2 1_555 1_555
C2 H1 1_555 1_555
C3 C2 1_555 1_555
H2 C3 1_555 1_555
C4 C3 1_555 1_555
C5 C4 1_555 1_555
H3 C5 1_555 1_555
C6 C1 1_555 1_555
H4 C6 1_555 1_555
C7 C8 1_555 1_555
C8 C9 1_555 1_555
C9 C10 1_555 1_555
C10 N2 1_555 1_555
C11 C8 1_555 1_555
C12 C11 1_555 1_555
H5 C12 1_555 1_555
C13 C12 1_555 1_555
H6 C13 1_555 1_555
C14 C13 1_555 1_555
H7 C14 1_555 1_555
C15 C14 1_555 1_555
H8 C15 1_555 1_555
C16 C11 1_555 1_555
H9 C16 1_555 1_555
O1 C7 1_555 1_555
N1 C1 1_555 1_555
N2 S2 1_555 1_555
S1 C9 1_555 1_555
S2 S1 1_555 1_555
Cl1 C4 1_555 1_555
Cl2 C8 1_555 1_555
Cl3 C10 1_555 1_555
C5 C6 1_555 1_555
C7 N1 1_555 1_555
C9 N1 1_555 1_555
C15 C16 1_555 1_555

#END
