
#######################################################################
#
#                 Cambridge Crystallographic Data Centre
#                                CCDC 
#
#######################################################################
#
# If this CIF has been generated from an entry in the Cambridge 
# Structural Database, then it will include bibliographic, chemical, 
# crystal, experimental, refinement or atomic coordinate data resulting 
# from the CCDC's data processing and validation procedures.
#
#######################################################################

data_RAKPUP
_chemical_formula_moiety         'C19 H24 B1 N1 O4 S1'
_chemical_name_systematic        
N-(p-tolylsulfonyl)-2-(4,4,5,5-tetramethyl-1,3,2-dioxaborolan-2-yl)aniline
_symmetry_cell_setting           monoclinic
_symmetry_space_group_name_H-M   'P 21/c'
_symmetry_Int_Tables_number      14
_space_group_name_Hall           '-P 2ybc'
loop_
_symmetry_equiv_pos_site_id
_symmetry_equiv_pos_as_xyz
1 x,y,z
2 -x,1/2+y,1/2-z
3 -x,-y,-z
4 x,1/2-y,1/2+z
_cell_length_a                   9.8379(10)
_cell_length_b                   11.4745(12)
_cell_length_c                   16.4414(16)
_cell_angle_alpha                90
_cell_angle_beta                 90.685(2)
_cell_angle_gamma                90
_cell_volume                     1855.85
_exptl_crystal_colour            colorless
_exptl_crystal_description       Irregular
_chemical_melting_point          164-166deg.C
_cell_formula_units_Z            4
loop_
_atom_site_label
_atom_site_type_symbol
_atom_site_fract_x
_atom_site_fract_y
_atom_site_fract_z
S1 S 1.04905(3) 0.69641(3) 0.132069(19)
O1 O 0.72936(9) 0.88891(8) 0.20372(5)
O2 O 0.56789(9) 0.83058(8) 0.29262(5)
O3 O 1.06000(11) 0.78584(9) 0.07261(6)
C1 C 0.79824(13) 0.73305(11) 0.30938(7)
C2 C 0.92302(13) 0.70056(11) 0.27737(7)
N1 N 0.97094(12) 0.75947(10) 0.20761(6)
O4 O 1.16766(10) 0.64072(9) 0.16338(6)
C3 C 0.75779(15) 0.67842(12) 0.38132(8)
C4 C 0.60127(13) 0.93630(11) 0.17197(8)
C5 C 0.50554(13) 0.92557(11) 0.24651(8)
C6 C 0.93857(13) 0.58865(11) 0.09553(7)
C7 C 1.00186(15) 0.61489(12) 0.31468(9)
C8 C 0.83361(15) 0.62062(13) 0.04399(8)
C9 C 0.75550(14) 0.42231(12) 0.04082(8)
C10 C 0.95460(15) 0.47414(12) 0.11889(9)
C11 C 0.95700(16) 0.56219(13) 0.38460(9)
C12 C 0.83570(16) 0.59419(13) 0.41848(8)
C13 C 0.74297(15) 0.53730(13) 0.01695(9)
C14 C 0.56017(19) 0.85909(16) 0.10159(9)
B1 B 0.69821(15) 0.82009(12) 0.26860(8)
C15 C 0.50796(17) 1.03172(14) 0.30084(10)
C16 C 0.86299(16) 0.39202(13) 0.09100(9)
C17 C 0.65427(19) 0.33301(16) 0.01378(11)
C18 C 0.62622(16) 1.05927(13) 0.14367(10)
C19 C 0.36170(15) 0.89103(16) 0.22610(11)
H1 H 0.598(2) 1.0524(17) 0.3171(12)
H2 H 0.6683(18) 0.7020(14) 0.4039(10)
H3 H 0.4537(18) 1.0119(17) 0.3517(11)
H4 H 0.6632(17) 1.1119(15) 0.1871(10)
H5 H 0.9201(18) 0.8095(16) 0.1903(10)
H6 H 1.0160(17) 0.5039(16) 0.4080(10)
H7 H 1.0850(18) 0.5929(15) 0.2929(10)
H8 H 0.8064(17) 0.5566(15) 0.4690(10)
H9 H 1.0294(19) 0.4534(16) 0.1537(11)
H10 H 0.6868(18) 1.0551(15) 0.0986(10)
H11 H 0.8769(19) 0.3144(18) 0.1050(11)
H12 H 0.4751(19) 0.8893(16) 0.0775(10)
H13 H 0.5481(18) 0.7737(18) 0.1192(11)
H14 H 0.4631(19) 1.0957(16) 0.2706(10)
H15 H 0.5424(19) 1.0928(17) 0.1269(10)
H16 H 0.8281(19) 0.7026(17) 0.0252(11)
H17 H 0.6699(18) 0.5599(15) -0.0194(11)
H18 H 0.631(2) 0.8588(17) 0.0621(12)
H19 H 0.357(2) 0.8155(19) 0.1978(13)
H20 H 0.3206(19) 0.9541(17) 0.1928(11)
H21 H 0.310(2) 0.8856(18) 0.2768(12)
H22 H 0.599(3) 0.355(2) -0.0319(16)
H23 H 0.697(2) 0.264(2) -0.0026(14)
H24 H 0.596(3) 0.317(2) 0.0533(15)
loop_
_geom_bond_atom_site_label_1
_geom_bond_atom_site_label_2
_geom_bond_site_symmetry_1
_geom_bond_site_symmetry_2
S1 O3 1_555 1_555
O1 C4 1_555 1_555
O2 C5 1_555 1_555
C1 C2 1_555 1_555
C2 N1 1_555 1_555
N1 S1 1_555 1_555
O4 S1 1_555 1_555
C3 C1 1_555 1_555
C4 C5 1_555 1_555
C5 C15 1_555 1_555
C6 S1 1_555 1_555
C7 C2 1_555 1_555
C8 C6 1_555 1_555
C9 C13 1_555 1_555
C10 C6 1_555 1_555
C11 C7 1_555 1_555
C12 C3 1_555 1_555
C13 C8 1_555 1_555
C14 C4 1_555 1_555
B1 O1 1_555 1_555
C15 H1 1_555 1_555
C16 C9 1_555 1_555
C17 C9 1_555 1_555
C18 C4 1_555 1_555
C19 C5 1_555 1_555
H2 C3 1_555 1_555
H3 C15 1_555 1_555
H4 C18 1_555 1_555
H5 N1 1_555 1_555
H6 C11 1_555 1_555
H7 C7 1_555 1_555
H8 C12 1_555 1_555
H9 C10 1_555 1_555
H10 C18 1_555 1_555
H11 C16 1_555 1_555
H12 C14 1_555 1_555
H13 C14 1_555 1_555
H14 C15 1_555 1_555
H15 C18 1_555 1_555
H16 C8 1_555 1_555
H17 C13 1_555 1_555
H18 C14 1_555 1_555
H19 C19 1_555 1_555
H20 C19 1_555 1_555
H21 C19 1_555 1_555
H22 C17 1_555 1_555
H23 C17 1_555 1_555
H24 C17 1_555 1_555
O2 B1 1_555 1_555
C1 B1 1_555 1_555
C10 C16 1_555 1_555
C11 C12 1_555 1_555

#END
