
#######################################################################
#
#                 Cambridge Crystallographic Data Centre
#                                CCDC 
#
#######################################################################
#
# If this CIF has been generated from an entry in the Cambridge 
# Structural Database, then it will include bibliographic, chemical, 
# crystal, experimental, refinement or atomic coordinate data resulting 
# from the CCDC's data processing and validation procedures.
#
#######################################################################

data_RAKTUU
_chemical_compound_source        
'Atrhoisma proteiforme (Humbert) Mattf. (Asteraceae)'
_chemical_name_common            'Athrolide A'
_chemical_formula_moiety         'C23 H32 O8'
_chemical_name_systematic        
'4,5-Diacetoxy-4a,8-dimethyl-3-methylene-2-oxododecahydroazuleno[6,5-b]furan-7-yl 2-methylpropanoate'
_chemical_properties_biological  'tested for anti-malarial activity'
_symmetry_cell_setting           monoclinic
_symmetry_space_group_name_H-M   'C 2'
_symmetry_Int_Tables_number      5
_space_group_name_Hall           'C 2y'
loop_
_symmetry_equiv_pos_site_id
_symmetry_equiv_pos_as_xyz
1 x,y,z
2 -x,y,-z
3 1/2+x,1/2+y,z
4 1/2-x,1/2+y,-z
_cell_length_a                   32.7331(12)
_cell_length_b                   7.1315(3)
_cell_length_c                   9.7799(3)
_cell_angle_alpha                90
_cell_angle_beta                 92.961(3)
_cell_angle_gamma                90
_cell_volume                     2279.93
_exptl_crystal_colour            colorless
_exptl_crystal_description       needle
_cell_formula_units_Z            4
loop_
_atom_site_label
_atom_site_type_symbol
_atom_site_fract_x
_atom_site_fract_y
_atom_site_fract_z
O1 O 0.24473(4) 0.36502(19) 0.11539(12)
O2 O 0.21336(4) 0.3820(2) 0.31257(13)
O3 O 0.34329(4) -0.0627(2) 0.28165(13)
O4 O 0.30243(7) -0.3135(3) 0.23838(17)
O5 O 0.40842(4) 0.1751(2) 0.24362(13)
O6 O 0.43631(6) -0.0402(3) 0.38946(16)
O7 O 0.42539(4) 0.4012(2) -0.10173(13)
O8 O 0.47660(4) 0.2782(2) -0.21674(14)
C1 C 0.24184(6) 0.3296(3) 0.25066(18)
C2 C 0.27857(5) 0.2206(3) 0.30150(17)
C3 C 0.30773(5) 0.2143(3) 0.18666(16)
H1 H 0.3290 0.3141 0.2012
C4 C 0.32840(5) 0.0279(3) 0.15577(17)
H2 H 0.3072 -0.0558 0.1106
C5 C 0.36461(5) 0.0430(3) 0.05856(17)
C6 C 0.40716(5) 0.0383(3) 0.13318(17)
H3 H 0.4142 -0.0903 0.1677
C7 C 0.43638(6) 0.1028(3) 0.02479(18)
H4 H 0.4494 -0.0065 -0.0179
H5 H 0.4581 0.1843 0.0665
C8 C 0.40981(5) 0.2126(3) -0.08270(17)
H6 H 0.4079 0.1435 -0.1718
C9 C 0.36730(5) 0.2304(3) -0.02365(16)
H7 H 0.3691 0.3341 0.0452
C10 C 0.33083(5) 0.2770(3) -0.12485(17)
H8 H 0.3192 0.1565 -0.1618
C11 C 0.29712(5) 0.3804(3) -0.05090(16)
H9 H 0.3086 0.4974 -0.0104
H10 H 0.2750 0.4156 -0.1188
C12 C 0.27915(5) 0.2649(3) 0.06083(16)
H11 H 0.2685 0.1454 0.0190
C13 C 0.28191(6) 0.1628(3) 0.43046(19)
H12 H 0.2609 0.1906 0.4909
H13 H 0.3053 0.0936 0.4624
C14 C 0.32785(7) -0.2342(3) 0.3100(2)
C15 C 0.34614(8) -0.3058(4) 0.4436(2)
H14 H 0.3313 -0.2527 0.5190
H15 H 0.3750 -0.2687 0.4535
H16 H 0.3441 -0.4429 0.4457
C16 C 0.36246(6) -0.1309(3) -0.03569(18)
H17 H 0.3369 -0.1283 -0.0923
H18 H 0.3634 -0.2449 0.0203
H19 H 0.3857 -0.1298 -0.0949
C17 C 0.42424(7) 0.1164(4) 0.3661(2)
C18 C 0.42382(10) 0.2716(5) 0.4689(2)
H20 H 0.4303 0.3904 0.4247
H21 H 0.4442 0.2461 0.5435
H22 H 0.3966 0.2800 0.5060
C19 C 0.45956(6) 0.4130(3) -0.17251(17)
C20 C 0.47253(7) 0.6148(3) -0.1891(2)
H23 H 0.4680 0.6829 -0.1018
C21 C 0.51777(8) 0.6267(5) -0.2171(3)
H24 H 0.5230 0.5559 -0.3003
H25 H 0.5340 0.5737 -0.1395
H26 H 0.5254 0.7582 -0.2296
C22 C 0.44646(8) 0.7082(4) -0.3045(2)
H27 H 0.4513 0.6458 -0.3915
H28 H 0.4540 0.8409 -0.3107
H29 H 0.4175 0.6978 -0.2852
C23 C 0.34218(6) 0.3996(3) -0.24600(18)
H30 H 0.3639 0.3382 -0.2949
H31 H 0.3518 0.5219 -0.2121
H32 H 0.3181 0.4170 -0.3083
loop_
_geom_bond_atom_site_label_1
_geom_bond_atom_site_label_2
_geom_bond_site_symmetry_1
_geom_bond_site_symmetry_2
O1 C1 1_555 1_555
O2 C1 1_555 1_555
O3 C4 1_555 1_555
O4 C14 1_555 1_555
O5 C6 1_555 1_555
O6 C17 1_555 1_555
O7 C8 1_555 1_555
O8 C19 1_555 1_555
C1 C2 1_555 1_555
C2 C3 1_555 1_555
C3 H1 1_555 1_555
C4 C3 1_555 1_555
H2 C4 1_555 1_555
C5 C4 1_555 1_555
C6 C5 1_555 1_555
H3 C6 1_555 1_555
C7 C6 1_555 1_555
H4 C7 1_555 1_555
H5 C7 1_555 1_555
C8 C7 1_555 1_555
H6 C8 1_555 1_555
C9 C5 1_555 1_555
H7 C9 1_555 1_555
C10 C9 1_555 1_555
H8 C10 1_555 1_555
C11 C10 1_555 1_555
H9 C11 1_555 1_555
H10 C11 1_555 1_555
C12 O1 1_555 1_555
H11 C12 1_555 1_555
C13 C2 1_555 1_555
H12 C13 1_555 1_555
H13 C13 1_555 1_555
C14 O3 1_555 1_555
C15 C14 1_555 1_555
H14 C15 1_555 1_555
H15 C15 1_555 1_555
H16 C15 1_555 1_555
C16 C5 1_555 1_555
H17 C16 1_555 1_555
H18 C16 1_555 1_555
H19 C16 1_555 1_555
C17 O5 1_555 1_555
C18 C17 1_555 1_555
H20 C18 1_555 1_555
H21 C18 1_555 1_555
H22 C18 1_555 1_555
C19 O7 1_555 1_555
C20 C19 1_555 1_555
H23 C20 1_555 1_555
C21 C20 1_555 1_555
H24 C21 1_555 1_555
H25 C21 1_555 1_555
H26 C21 1_555 1_555
C22 C20 1_555 1_555
H27 C22 1_555 1_555
H28 C22 1_555 1_555
H29 C22 1_555 1_555
C23 C10 1_555 1_555
H30 C23 1_555 1_555
H31 C23 1_555 1_555
H32 C23 1_555 1_555
C3 C12 1_555 1_555
C8 C9 1_555 1_555
C11 C12 1_555 1_555

#END
