
#######################################################################
#
#                 Cambridge Crystallographic Data Centre
#                                CCDC 
#
#######################################################################
#
# If this CIF has been generated from an entry in the Cambridge 
# Structural Database, then it will include bibliographic, chemical, 
# crystal, experimental, refinement or atomic coordinate data resulting 
# from the CCDC's data processing and validation procedures.
#
#######################################################################

data_RALCUF
_chemical_formula_moiety         'C57 H35 N7 O1,C1 H2 Cl2'
_chemical_name_systematic        
"11,11'-(6-phenoxy-1,3,5-triazine-2,4-diyl)bis(12-phenyl-11,12-dihydroindolo[2,3-a]carbazole) dichloromethane solvate"
_symmetry_cell_setting           monoclinic
_symmetry_space_group_name_H-M   'P 21/n'
_symmetry_Int_Tables_number      14
_space_group_name_Hall           '-P 2yn'
loop_
_symmetry_equiv_pos_site_id
_symmetry_equiv_pos_as_xyz
1 x,y,z
2 1/2-x,1/2+y,1/2-z
3 -x,-y,-z
4 1/2+x,1/2-y,1/2+z
_cell_length_a                   10.661(2)
_cell_length_b                   13.930(3)
_cell_length_c                   29.965(6)
_cell_angle_alpha                90
_cell_angle_beta                 91.76(3)
_cell_angle_gamma                90
_cell_volume                     4447.93
_exptl_crystal_colour            colorless
_exptl_crystal_description       chunk
_cell_formula_units_Z            4
loop_
_atom_site_label
_atom_site_type_symbol
_atom_site_fract_x
_atom_site_fract_y
_atom_site_fract_z
Cl1 Cl 0.73361(8) 0.22354(7) 0.17889(3)
Cl2 Cl 0.54728(12) 0.17224(9) 0.11101(3)
C1 C 0.5950(3) 0.1619(2) 0.16622(9)
H1 H 0.6069 0.0945 0.1733
H2 H 0.5293 0.1864 0.1848
O1 O 0.12354(14) 0.61348(10) -0.01612(5)
N1 N 0.24071(15) 0.60370(12) 0.04692(5)
N2 N 0.25345(14) 0.73965(11) 0.09522(5)
N3 N 0.13852(15) 0.75035(12) 0.02632(5)
N4 N 0.34970(15) 0.59759(12) 0.11547(5)
N5 N 0.17868(15) 0.71124(12) 0.18893(5)
N6 N 0.15158(15) 0.88032(12) 0.07496(5)
N7 N 0.42639(15) 0.88972(12) 0.13029(5)
C2 C 0.16903(18) 0.65956(14) 0.02061(6)
C3 C 0.27808(17) 0.64943(14) 0.08422(6)
C4 C 0.18331(17) 0.78623(13) 0.06494(6)
C5 C 0.02776(19) 0.66041(15) -0.04139(6)
C6 C 0.0572(2) 0.73076(16) -0.07135(7)
H3 H 0.1397 0.7513 -0.0740
C7 C -0.0387(2) 0.77054(17) -0.09754(8)
H4 H -0.0206 0.8185 -0.1180
C8 C -0.1606(2) 0.73960(19) -0.09359(9)
H5 H -0.2247 0.7669 -0.1111
C9 C -0.1871(2) 0.6680(2) -0.06358(9)
H6 H -0.2693 0.6468 -0.0611
C10 C -0.0924(2) 0.62724(18) -0.03697(8)
H7 H -0.1099 0.5788 -0.0167
C11 C 0.45138(18) 0.53777(14) 0.10337(6)
C12 C 0.46915(19) 0.48722(14) 0.06418(7)
H8 H 0.4101 0.4887 0.0407
C13 C 0.5787(2) 0.43441(16) 0.06162(7)
H9 H 0.5935 0.3999 0.0357
C14 C 0.6672(2) 0.43155(17) 0.09676(7)
H10 H 0.7386 0.3937 0.0944
C15 C 0.65004(19) 0.48425(16) 0.13501(7)
H11 H 0.7101 0.4833 0.1582
C16 C 0.54161(18) 0.53893(14) 0.13847(6)
C17 C 0.49685(18) 0.60175(14) 0.17315(6)
C18 C 0.5538(2) 0.63255(16) 0.21357(7)
H12 H 0.6339 0.6117 0.2221
C19 C 0.4887(2) 0.69420(15) 0.24037(7)
H13 H 0.5272 0.7198 0.2660
C20 C 0.36460(19) 0.71806(14) 0.22886(6)
C21 C 0.2720(2) 0.77240(15) 0.25243(6)
C22 C 0.2766(2) 0.82376(16) 0.29250(7)
H14 H 0.3513 0.8292 0.3092
C23 C 0.1679(2) 0.86636(18) 0.30693(8)
H15 H 0.1698 0.9021 0.3332
C24 C 0.0555(2) 0.85609(18) 0.28237(8)
H16 H -0.0168 0.8846 0.2929
C25 C 0.0484(2) 0.80467(16) 0.24274(7)
H17 H -0.0274 0.7970 0.2269
C26 C 0.1588(2) 0.76504(14) 0.22766(6)
C27 C 0.30459(18) 0.68400(14) 0.18939(6)
C28 C 0.37718(18) 0.63302(14) 0.15921(6)
C29 C 0.08123(18) 0.67386(15) 0.16038(6)
C30 C -0.00906(19) 0.73544(17) 0.14214(7)
H18 H -0.0096 0.7999 0.1502
C31 C -0.0983(2) 0.7001(2) 0.11185(8)
H19 H -0.1585 0.7412 0.0993
C32 C -0.0985(2) 0.6042(2) 0.10017(8)
H20 H -0.1574 0.5811 0.0793
C33 C -0.0109(2) 0.54237(19) 0.11957(8)
H21 H -0.0125 0.4775 0.1123
C34 C 0.0794(2) 0.57710(16) 0.14997(7)
H22 H 0.1381 0.5356 0.1631
C35 C 0.5065(2) 0.91039(16) 0.16700(7)
C36 C 0.6350(2) 0.89341(18) 0.17273(8)
H23 H 0.6807 0.8639 0.1506
C37 C 0.6915(3) 0.9225(2) 0.21276(9)
H24 H 0.7769 0.9119 0.2176
C38 C 0.6237(3) 0.9671(2) 0.24583(8)
H25 H 0.6641 0.9843 0.2726
C39 C 0.4975(3) 0.9861(2) 0.23948(8)
H26 H 0.4528 1.0171 0.2614
C40 C 0.4383(2) 0.95802(16) 0.19949(7)
C41 C 0.3128(2) 0.97053(15) 0.18182(6)
C42 C 0.2096(2) 1.01765(16) 0.19923(7)
H27 H 0.2152 1.0450 0.2275
C43 C 0.0995(2) 1.02333(15) 0.17420(7)
H28 H 0.0313 1.0573 0.1847
C44 C 0.09132(19) 0.97732(15) 0.13271(7)
C45 C -0.01138(19) 0.97147(15) 0.09998(7)
C46 C -0.1324(2) 1.00902(17) 0.09917(9)
H29 H -0.1599 1.0461 0.1227
C47 C -0.2105(2) 0.99018(19) 0.06275(10)
H30 H -0.2919 1.0142 0.0620
C48 C -0.1696(2) 0.93617(18) 0.02732(9)
H31 H -0.2239 0.9256 0.0029
C49 C -0.0500(2) 0.89729(16) 0.02716(7)
H32 H -0.0227 0.8612 0.0032
C50 C 0.02710(18) 0.91472(14) 0.06438(7)
C51 C 0.19126(18) 0.92385(14) 0.11615(6)
C52 C 0.30739(18) 0.92555(14) 0.13930(6)
C53 C 0.46873(18) 0.85693(14) 0.08842(6)
C54 C 0.54398(18) 0.77591(15) 0.08647(7)
H33 H 0.5684 0.7440 0.1126
C55 C 0.5827(2) 0.74264(16) 0.04558(7)
H34 H 0.6335 0.6885 0.0443
C56 C 0.5458(2) 0.78971(18) 0.00665(8)
H35 H 0.5711 0.7669 -0.0208
C57 C 0.4714(2) 0.87060(17) 0.00879(7)
H36 H 0.4464 0.9020 -0.0174
C58 C 0.43369(19) 0.90549(15) 0.04962(7)
H37 H 0.3853 0.9609 0.0509
loop_
_geom_bond_atom_site_label_1
_geom_bond_atom_site_label_2
_geom_bond_site_symmetry_1
_geom_bond_site_symmetry_2
Cl1 C1 1_555 1_555
Cl2 C1 1_555 1_555
C1 H1 1_555 1_555
H2 C1 1_555 1_555
O1 C2 1_555 1_555
N1 C2 1_555 1_555
N2 C3 1_555 1_555
N3 C2 1_555 1_555
N4 C3 1_555 1_555
N5 C26 1_555 1_555
N6 C4 1_555 1_555
N7 C35 1_555 1_555
C3 N1 1_555 1_555
C4 N2 1_555 1_555
C5 O1 1_555 1_555
C6 C5 1_555 1_555
H3 C6 1_555 1_555
C7 C6 1_555 1_555
H4 C7 1_555 1_555
C8 C7 1_555 1_555
H5 C8 1_555 1_555
C9 C8 1_555 1_555
H6 C9 1_555 1_555
C10 C5 1_555 1_555
H7 C10 1_555 1_555
C11 N4 1_555 1_555
C12 C11 1_555 1_555
H8 C12 1_555 1_555
C13 C12 1_555 1_555
H9 C13 1_555 1_555
C14 C13 1_555 1_555
H10 C14 1_555 1_555
C15 C14 1_555 1_555
H11 C15 1_555 1_555
C16 C11 1_555 1_555
C17 C16 1_555 1_555
C18 C17 1_555 1_555
H12 C18 1_555 1_555
C19 C18 1_555 1_555
H13 C19 1_555 1_555
C20 C19 1_555 1_555
C21 C20 1_555 1_555
C22 C21 1_555 1_555
H14 C22 1_555 1_555
C23 C22 1_555 1_555
H15 C23 1_555 1_555
C24 C23 1_555 1_555
H16 C24 1_555 1_555
C25 C24 1_555 1_555
H17 C25 1_555 1_555
C26 C21 1_555 1_555
C27 N5 1_555 1_555
C28 N4 1_555 1_555
C29 N5 1_555 1_555
C30 C29 1_555 1_555
H18 C30 1_555 1_555
C31 C30 1_555 1_555
H19 C31 1_555 1_555
C32 C31 1_555 1_555
H20 C32 1_555 1_555
C33 C32 1_555 1_555
H21 C33 1_555 1_555
C34 C29 1_555 1_555
H22 C34 1_555 1_555
C35 C36 1_555 1_555
C36 H23 1_555 1_555
C37 C36 1_555 1_555
H24 C37 1_555 1_555
C38 C37 1_555 1_555
H25 C38 1_555 1_555
C39 C38 1_555 1_555
H26 C39 1_555 1_555
C40 C35 1_555 1_555
C41 C40 1_555 1_555
C42 C41 1_555 1_555
H27 C42 1_555 1_555
C43 C42 1_555 1_555
H28 C43 1_555 1_555
C44 C43 1_555 1_555
C45 C44 1_555 1_555
C46 C45 1_555 1_555
H29 C46 1_555 1_555
C47 C46 1_555 1_555
H30 C47 1_555 1_555
C48 C47 1_555 1_555
H31 C48 1_555 1_555
C49 C48 1_555 1_555
H32 C49 1_555 1_555
C50 N6 1_555 1_555
C51 N6 1_555 1_555
C52 N7 1_555 1_555
C53 N7 1_555 1_555
C54 C53 1_555 1_555
H33 C54 1_555 1_555
C55 C54 1_555 1_555
H34 C55 1_555 1_555
C56 C55 1_555 1_555
H35 C56 1_555 1_555
C57 C56 1_555 1_555
H36 C57 1_555 1_555
C58 C53 1_555 1_555
H37 C58 1_555 1_555
N3 C4 1_555 1_555
C9 C10 1_555 1_555
C15 C16 1_555 1_555
C17 C28 1_555 1_555
C20 C27 1_555 1_555
C25 C26 1_555 1_555
C27 C28 1_555 1_555
C33 C34 1_555 1_555
C39 C40 1_555 1_555
C41 C52 1_555 1_555
C44 C51 1_555 1_555
C45 C50 1_555 1_555
C49 C50 1_555 1_555
C51 C52 1_555 1_555
C57 C58 1_555 1_555

#END
