
#######################################################################
#
#                 Cambridge Crystallographic Data Centre
#                                CCDC 
#
#######################################################################
#
# If this CIF has been generated from an entry in the Cambridge 
# Structural Database, then it will include bibliographic, chemical, 
# crystal, experimental, refinement or atomic coordinate data resulting 
# from the CCDC's data processing and validation procedures.
#
#######################################################################

data_RALFOC
_chemical_formula_moiety         'C22 H23 N3 O3'
_chemical_name_systematic        1,2,3-tris(2-methoxyphenyl)guanidine
_symmetry_cell_setting           monoclinic
_symmetry_space_group_name_H-M   'P 21/c'
_symmetry_Int_Tables_number      14
_space_group_name_Hall           '-P 2ybc'
loop_
_symmetry_equiv_pos_site_id
_symmetry_equiv_pos_as_xyz
1 x,y,z
2 -x,1/2+y,1/2-z
3 -x,-y,-z
4 x,1/2-y,1/2+z
_cell_length_a                   16.025(4)
_cell_length_b                   7.9470(19)
_cell_length_c                   16.052(4)
_cell_angle_alpha                90
_cell_angle_beta                 105.841(5)
_cell_angle_gamma                90
_cell_volume                     1966.6
_exptl_crystal_colour            colorless
_exptl_crystal_description       rectangular
_cell_formula_units_Z            4
loop_
_atom_site_label
_atom_site_type_symbol
_atom_site_fract_x
_atom_site_fract_y
_atom_site_fract_z
C1 C 0.27490(19) 0.5585(4) 0.07971(19)
C2 C 0.40171(18) 0.3786(4) 0.1486(2)
C3 C 0.4423(2) 0.3673(5) 0.0830(2)
H1 H 0.4129 0.4005 0.0272
C4 C 0.5256(2) 0.3076(5) 0.0998(3)
H2 H 0.5526 0.3011 0.0555
C5 C 0.5688(2) 0.2578(5) 0.1816(3)
H3 H 0.6252 0.2171 0.1924
C6 C 0.5299(2) 0.2670(5) 0.2486(2)
H4 H 0.5600 0.2340 0.3043
C7 C 0.4459(2) 0.3258(4) 0.2315(2)
C8 C 0.4451(3) 0.3108(7) 0.3793(3)
H5 H 0.4656 0.1968 0.3864
H6 H 0.4068 0.3300 0.4150
H7 H 0.4935 0.3864 0.3961
C9 C 0.27117(18) 0.7605(4) -0.0263(2)
C10 C 0.2713(2) 0.9330(5) -0.0126(2)
H8 H 0.2961 0.9754 0.0426
C11 C 0.2355(3) 1.0423(5) -0.0794(3)
H9 H 0.2357 1.1574 -0.0689
C12 C 0.1995(2) 0.9822(5) -0.1613(2)
H10 H 0.1753 1.0562 -0.2063
C13 C 0.1991(2) 0.8116(5) -0.1770(2)
H11 H 0.1745 0.7706 -0.2325
C14 C 0.23525(19) 0.7015(4) -0.1104(2)
C15 C 0.2255(3) 0.4682(6) -0.2062(3)
H12 H 0.1664 0.4866 -0.2387
H13 H 0.2379 0.3498 -0.2040
H14 H 0.2635 0.5258 -0.2337
C16 C 0.12948(18) 0.4520(4) 0.08730(19)
C17 C 0.1391(2) 0.2810(5) 0.0754(2)
H15 H 0.1885 0.2421 0.0617
C18 C 0.0763(2) 0.1669(5) 0.0836(2)
H16 H 0.0835 0.0525 0.0756
C19 C 0.0030(2) 0.2248(5) 0.1038(2)
H17 H -0.0396 0.1491 0.1087
C20 C -0.0075(2) 0.3934(5) 0.1166(2)
H18 H -0.0572 0.4314 0.1301
C21 C 0.05579(18) 0.5067(4) 0.10954(18)
C22 C -0.0183(2) 0.7394(6) 0.1506(3)
H19 H -0.0724 0.7125 0.1094
H20 H -0.0131 0.8593 0.1573
H21 H -0.0165 0.6888 0.2054
N1 N 0.31646(16) 0.4375(4) 0.13710(17)
H22 H 0.2875 0.3931 0.1694
N2 N 0.31630(15) 0.6501(4) 0.03965(17)
N3 N 0.18755(16) 0.5742(4) 0.07420(18)
H23 H 0.1659 0.6728 0.0609
O1 O 0.39987(15) 0.3392(3) 0.29122(15)
O2 O 0.23838(18) 0.5304(3) -0.12121(16)
O3 O 0.05114(13) 0.6769(3) 0.12074(15)
loop_
_geom_bond_atom_site_label_1
_geom_bond_atom_site_label_2
_geom_bond_site_symmetry_1
_geom_bond_site_symmetry_2
C1 N1 1_555 1_555
C2 C3 1_555 1_555
C3 H1 1_555 1_555
C4 C3 1_555 1_555
H2 C4 1_555 1_555
C5 C4 1_555 1_555
H3 C5 1_555 1_555
C6 C5 1_555 1_555
H4 C6 1_555 1_555
C7 C2 1_555 1_555
C8 H5 1_555 1_555
H6 C8 1_555 1_555
H7 C8 1_555 1_555
C9 C10 1_555 1_555
C10 H8 1_555 1_555
C11 C10 1_555 1_555
H9 C11 1_555 1_555
C12 C11 1_555 1_555
H10 C12 1_555 1_555
C13 C12 1_555 1_555
H11 C13 1_555 1_555
C14 C9 1_555 1_555
C15 H12 1_555 1_555
H13 C15 1_555 1_555
H14 C15 1_555 1_555
C16 C17 1_555 1_555
C17 H15 1_555 1_555
C18 C17 1_555 1_555
H16 C18 1_555 1_555
C19 C18 1_555 1_555
H17 C19 1_555 1_555
C20 C19 1_555 1_555
H18 C20 1_555 1_555
C21 C16 1_555 1_555
C22 H19 1_555 1_555
H20 C22 1_555 1_555
H21 C22 1_555 1_555
N1 C2 1_555 1_555
H22 N1 1_555 1_555
N2 C1 1_555 1_555
N3 C1 1_555 1_555
H23 N3 1_555 1_555
O1 C7 1_555 1_555
O2 C14 1_555 1_555
O3 C21 1_555 1_555
C6 C7 1_555 1_555
C8 O1 1_555 1_555
C9 N2 1_555 1_555
C13 C14 1_555 1_555
C15 O2 1_555 1_555
C16 N3 1_555 1_555
C20 C21 1_555 1_555
C22 O3 1_555 1_555

#END
