
#######################################################################
#
#                 Cambridge Crystallographic Data Centre
#                                CCDC 
#
#######################################################################
#
# If this CIF has been generated from an entry in the Cambridge 
# Structural Database, then it will include bibliographic, chemical, 
# crystal, experimental, refinement or atomic coordinate data resulting 
# from the CCDC's data processing and validation procedures.
#
#######################################################################

data_RALGAP
_chemical_formula_moiety         'C22 H23 N3'
_chemical_name_systematic        1,2,3-tris(4-methylphenyl)guanidine
_symmetry_cell_setting           monoclinic
_symmetry_space_group_name_H-M   'P 21/c'
_symmetry_Int_Tables_number      14
_space_group_name_Hall           '-P 2ybc'
loop_
_symmetry_equiv_pos_site_id
_symmetry_equiv_pos_as_xyz
1 x,y,z
2 -x,1/2+y,1/2-z
3 -x,-y,-z
4 x,1/2-y,1/2+z
_cell_length_a                   6.0873(13)
_cell_length_b                   18.085(4)
_cell_length_c                   17.207(4)
_cell_angle_alpha                90
_cell_angle_beta                 98.833(4)
_cell_angle_gamma                90
_cell_volume                     1871.83
_exptl_crystal_colour            colorless
_exptl_crystal_description       rectangular
_cell_formula_units_Z            4
loop_
_atom_site_label
_atom_site_type_symbol
_atom_site_fract_x
_atom_site_fract_y
_atom_site_fract_z
C1 C 0.1410(4) 0.39412(12) 0.54568(13)
C2 C 0.3346(4) 0.38477(12) 0.43819(13)
C3 C 0.2537(4) 0.31979(14) 0.40166(15)
H1 H 0.1192 0.3005 0.4116
C4 C 0.3711(5) 0.28364(15) 0.35068(15)
H2 H 0.3136 0.2402 0.3269
C5 C 0.5717(4) 0.31001(15) 0.33383(14)
C6 C 0.6487(4) 0.37631(15) 0.36880(15)
H3 H 0.7806 0.3965 0.3573
C7 C 0.5329(4) 0.41283(13) 0.42033(14)
H4 H 0.5888 0.4569 0.4433
C8 C 0.7018(6) 0.2667(2) 0.28149(19)
H5 H 0.7907 0.2301 0.3122
H6 H 0.7968 0.2996 0.2581
H7 H 0.6009 0.2427 0.2409
C9 C -0.0279(4) 0.42544(12) 0.66411(14)
C10 C 0.1443(5) 0.40382(16) 0.72176(17)
H8 H 0.2792 0.3888 0.7080
C11 C 0.1152(6) 0.40463(16) 0.79990(17)
H9 H 0.2320 0.3896 0.8379
C12 C -0.0805(6) 0.42690(16) 0.82335(17)
C13 C -0.2489(5) 0.44934(19) 0.76545(18)
H10 H -0.3819 0.4660 0.7796
C14 C -0.2253(5) 0.44773(16) 0.68707(17)
H11 H -0.3437 0.4618 0.6492
C15 C -0.1083(8) 0.4274(3) 0.9088(2)
H12 H 0.0057 0.3977 0.9384
H13 H -0.2515 0.4076 0.9143
H14 H -0.0970 0.4772 0.9283
C16 C 0.0579(4) 0.26617(12) 0.58446(13)
C17 C 0.1370(5) 0.20590(15) 0.62992(16)
H15 H 0.2824 0.2056 0.6562
C18 C -0.0006(5) 0.14612(16) 0.63609(19)
H16 H 0.0553 0.1057 0.6662
C19 C -0.2177(5) 0.14453(14) 0.59918(18)
C20 C -0.2943(5) 0.20524(15) 0.55513(17)
H17 H -0.4410 0.2059 0.5301
C21 C -0.1588(5) 0.26546(14) 0.54697(15)
H18 H -0.2144 0.3055 0.5161
C22 C -0.3682(7) 0.07934(19) 0.6069(3)
H19 H -0.5126 0.0887 0.5774
H20 H -0.3811 0.0721 0.6613
H21 H -0.3064 0.0357 0.5869
N1 N 0.2147(3) 0.42637(10) 0.48831(11)
N2 N -0.0073(4) 0.43035(11) 0.58369(11)
H22 H -0.0988 0.4595 0.5555
N3 N 0.2076(3) 0.32439(11) 0.57417(12)
H23 H 0.3478 0.3160 0.5863
loop_
_geom_bond_atom_site_label_1
_geom_bond_atom_site_label_2
_geom_bond_site_symmetry_1
_geom_bond_site_symmetry_2
C1 N1 1_555 1_555
C2 C3 1_555 1_555
C3 H1 1_555 1_555
C4 C3 1_555 1_555
H2 C4 1_555 1_555
C5 C4 1_555 1_555
C6 C5 1_555 1_555
H3 C6 1_555 1_555
C7 C2 1_555 1_555
H4 C7 1_555 1_555
C8 C5 1_555 1_555
H5 C8 1_555 1_555
H6 C8 1_555 1_555
H7 C8 1_555 1_555
C9 C10 1_555 1_555
C10 H8 1_555 1_555
C11 C10 1_555 1_555
H9 C11 1_555 1_555
C12 C11 1_555 1_555
C13 C12 1_555 1_555
H10 C13 1_555 1_555
C14 C9 1_555 1_555
H11 C14 1_555 1_555
C15 C12 1_555 1_555
H12 C15 1_555 1_555
H13 C15 1_555 1_555
H14 C15 1_555 1_555
C16 C17 1_555 1_555
C17 H15 1_555 1_555
C18 C17 1_555 1_555
H16 C18 1_555 1_555
C19 C18 1_555 1_555
C20 C19 1_555 1_555
H17 C20 1_555 1_555
C21 C16 1_555 1_555
H18 C21 1_555 1_555
C22 C19 1_555 1_555
H19 C22 1_555 1_555
H20 C22 1_555 1_555
H21 C22 1_555 1_555
N1 C2 1_555 1_555
N2 C1 1_555 1_555
H22 N2 1_555 1_555
N3 C1 1_555 1_555
H23 N3 1_555 1_555
C6 C7 1_555 1_555
C9 N2 1_555 1_555
C13 C14 1_555 1_555
C16 N3 1_555 1_555
C20 C21 1_555 1_555

#END
