
#######################################################################
#
#                 Cambridge Crystallographic Data Centre
#                                CCDC 
#
#######################################################################
#
# If this CIF has been generated from an entry in the Cambridge 
# Structural Database, then it will include bibliographic, chemical, 
# crystal, experimental, refinement or atomic coordinate data resulting 
# from the CCDC's data processing and validation procedures.
#
#######################################################################

data_RALNOH
_chemical_formula_moiety         'C52 H61 N5 O4,2(C1 H4 O1)'
_chemical_name_systematic        
N,N'-bis(4-(1-(4-Amino-3,5-dimethylphenyl)-1-cyclohexyl)-2,6-dimethylphenyl)-5-nitrobenzene-1,3-dicarboxamide
_symmetry_cell_setting           monoclinic
_symmetry_space_group_name_H-M   'P 21/c'
_symmetry_Int_Tables_number      14
_space_group_name_Hall           '-P 2ybc'
loop_
_symmetry_equiv_pos_site_id
_symmetry_equiv_pos_as_xyz
1 x,y,z
2 x,1/2-y,1/2+z
3 -x,-y,-z
4 -x,1/2+y,1/2-z
_cell_length_a                   16.689(6)
_cell_length_b                   14.735(5)
_cell_length_c                   20.660(6)
_cell_angle_alpha                90
_cell_angle_beta                 102.93(3)
_cell_angle_gamma                90
_cell_volume                     4951.73
_exptl_crystal_colour            orange
_exptl_crystal_description       prisms
_cell_formula_units_Z            4
loop_
_atom_site_label
_atom_site_type_symbol
_atom_site_fract_x
_atom_site_fract_y
_atom_site_fract_z
N1 N 0.7063(2) 0.4388(3) 0.37733(16)
H1 H 0.719(3) 0.470(3) 0.4138(14)
H2 H 0.731(2) 0.3859(18) 0.378(2)
C1 C 0.6233(2) 0.4270(3) 0.34128(16)
C2 C 0.5997(2) 0.3503(3) 0.30360(16)
C3 C 0.6602(2) 0.2760(3) 0.29928(19)
H3 H 0.7041 0.3002 0.2813
H4 H 0.6329 0.2285 0.2709
H5 H 0.6823 0.2520 0.3428
C4 C 0.5180(2) 0.3428(3) 0.26895(15)
H6 H 0.5024 0.2913 0.2432
C5 C 0.4589(2) 0.4080(3) 0.27096(14)
C6 C 0.4859(2) 0.4847(3) 0.30867(15)
H7 H 0.4482 0.5307 0.3105
C7 C 0.5664(2) 0.4958(3) 0.34371(16)
C8 C 0.5918(2) 0.5821(3) 0.3813(2)
H8 H 0.6343 0.6111 0.3643
H9 H 0.6120 0.5685 0.4275
H10 H 0.5453 0.6219 0.3762
C9 C 0.3665(2) 0.3975(3) 0.23748(14)
C10 C 0.3333(2) 0.4848(3) 0.20217(16)
H11 H 0.3432 0.5345 0.2338
H12 H 0.2743 0.4791 0.1859
C11 C 0.3725(3) 0.5073(3) 0.14389(18)
H13 H 0.3495 0.5636 0.1233
H14 H 0.4312 0.5158 0.1601
C12 C 0.3574(3) 0.4327(4) 0.09342(18)
H15 H 0.3856 0.4465 0.0584
H16 H 0.2990 0.4289 0.0737
C13 C 0.3874(3) 0.3417(3) 0.12475(17)
H17 H 0.4469 0.3426 0.1385
H18 H 0.3721 0.2940 0.0919
C14 C 0.3511(2) 0.3207(3) 0.18500(15)
H19 H 0.3750 0.2648 0.2055
H20 H 0.2923 0.3112 0.1701
C15 C 0.3200(2) 0.3718(3) 0.29178(14)
C16 C 0.2413(2) 0.4013(3) 0.29105(16)
H21 H 0.2152 0.4392 0.2567
C17 C 0.1992(2) 0.3767(3) 0.33964(16)
C18 C 0.1141(3) 0.4104(4) 0.3363(2)
H22 H 0.0806 0.3615 0.3460
H23 H 0.0912 0.4332 0.2925
H24 H 0.1156 0.4581 0.3682
C19 C 0.2390(2) 0.3208(3) 0.39053(15)
N2 N 0.19898(19) 0.2956(2) 0.44264(13)
H25 H 0.184(2) 0.2373(14) 0.4400(17)
C20 C 0.3168(2) 0.2878(3) 0.39229(15)
C21 C 0.3604(3) 0.2253(4) 0.44812(18)
H26 H 0.3681 0.2566 0.4898
H27 H 0.4129 0.2079 0.4404
H28 H 0.3275 0.1721 0.4493
C22 C 0.3566(2) 0.3136(3) 0.34296(15)
H29 H 0.4091 0.2915 0.3441
C23 C 0.1992(2) 0.3500(3) 0.49392(16)
O1 O 0.22677(18) 0.4275(2) 0.49713(12)
C24 C 0.1649(2) 0.3131(3) 0.55015(14)
C25 C 0.1218(2) 0.2342(3) 0.54912(15)
H30 H 0.1108 0.1977 0.5114
C26 C 0.0950(2) 0.2097(3) 0.60508(17)
N3 N 0.0485(2) 0.1257(3) 0.60336(19)
O2 O 0.0267(2) 0.0846(2) 0.55160(15)
O3 O 0.0328(3) 0.0975(3) 0.65403(16)
C27 C 0.1125(2) 0.2596(3) 0.66284(16)
H31 H 0.0951 0.2398 0.7002
C28 C 0.1561(2) 0.3391(3) 0.66474(15)
C29 C 0.1801(2) 0.3664(3) 0.60799(15)
H32 H 0.2072 0.4216 0.6081
C30 C 0.1761(2) 0.3932(3) 0.72755(16)
O4 O 0.14762(18) 0.3690(2) 0.77528(11)
N4 N 0.2220(2) 0.4660(2) 0.72858(13)
H33 H 0.240(2) 0.487(2) 0.6950(13)
C31 C 0.2417(2) 0.5295(3) 0.78295(15)
C32 C 0.1863(2) 0.5979(3) 0.78801(16)
C33 C 0.1028(2) 0.6026(3) 0.74135(19)
H34 H 0.1093 0.6148 0.6971
H35 H 0.0712 0.6503 0.7552
H36 H 0.0749 0.5458 0.7420
C34 C 0.2087(2) 0.6613(3) 0.83795(16)
H37 H 0.1715 0.7067 0.8423
C35 C 0.2859(2) 0.6598(3) 0.88239(15)
C36 C 0.3380(2) 0.5901(3) 0.87539(16)
H38 H 0.3890 0.5871 0.9047
C37 C 0.3178(2) 0.5240(3) 0.82656(16)
C38 C 0.3786(3) 0.4498(3) 0.82003(19)
H39 H 0.3507 0.3924 0.8139
H40 H 0.4216 0.4478 0.8596
H41 H 0.4019 0.4623 0.7825
C39 C 0.3084(2) 0.7368(3) 0.93303(17)
C40 C 0.3250(3) 0.8229(3) 0.8958(2)
H42 H 0.3630 0.8076 0.8682
H43 H 0.2738 0.8416 0.8664
C41 C 0.3600(3) 0.9036(4) 0.9395(3)
H44 H 0.3177 0.9279 0.9602
H45 H 0.3753 0.9509 0.9120
C42 C 0.4351(3) 0.8776(5) 0.9936(3)
H46 H 0.4810 0.8639 0.9737
H47 H 0.4506 0.9280 1.0240
C43 C 0.4150(3) 0.7954(4) 1.0313(2)
H48 H 0.3711 0.8105 1.0531
H49 H 0.4630 0.7787 1.0652
C44 C 0.3887(2) 0.7148(3) 0.98460(18)
H50 H 0.3802 0.6620 1.0103
H51 H 0.4320 0.7006 0.9617
C45 C 0.2374(2) 0.7494(3) 0.96915(16)
C46 C 0.2225(2) 0.6809(3) 1.01188(16)
H52 H 0.2554 0.6293 1.0172
C47 C 0.1603(2) 0.6872(3) 1.04674(16)
C48 C 0.1478(3) 0.6125(4) 1.0923(2)
H53 H 0.1557 0.6356 1.1367
H54 H 0.1866 0.5648 1.0912
H55 H 0.0929 0.5891 1.0783
C49 C 0.1105(2) 0.7639(3) 1.03853(18)
N5 N 0.0474(3) 0.7717(3) 1.0735(2)
H56 H 0.049(3) 0.727(3) 1.102(2)
H57 H 0.028(3) 0.8266(19) 1.068(3)
C50 C 0.1212(2) 0.8321(3) 0.9946(2)
C51 C 0.0671(3) 0.9154(3) 0.9837(3)
H58 H 0.0874 0.9574 0.9557
H59 H 0.0675 0.9436 1.0257
H60 H 0.0119 0.8981 0.9628
C52 C 0.1851(2) 0.8224(3) 0.96105(18)
H61 H 0.1923 0.8679 0.9317
O5 O -0.0125(3) 0.3146(3) 0.7985(2)
H62 H 0.0363 0.3219 0.7988
C53 C -0.0605(5) 0.3705(5) 0.7497(4)
H63 H -0.0545 0.4326 0.7641
H64 H -0.1172 0.3529 0.7427
H65 H -0.0425 0.3641 0.7089
O6 O 0.1573(3) 0.3849(3) 0.90996(15)
H66 H 0.1534 0.3857 0.8697
C54 C 0.1430(4) 0.4658(4) 0.9302(2)
H67 H 0.1349 0.4623 0.9747
H68 H 0.0946 0.4903 0.9014
H69 H 0.1891 0.5045 0.9294
loop_
_geom_bond_atom_site_label_1
_geom_bond_atom_site_label_2
_geom_bond_site_symmetry_1
_geom_bond_site_symmetry_2
N1 H1 1_555 1_555
H2 N1 1_555 1_555
C1 N1 1_555 1_555
C2 C1 1_555 1_555
C3 C2 1_555 1_555
H3 C3 1_555 1_555
H4 C3 1_555 1_555
H5 C3 1_555 1_555
C4 C2 1_555 1_555
H6 C4 1_555 1_555
C5 C4 1_555 1_555
C6 C5 1_555 1_555
H7 C6 1_555 1_555
C7 C1 1_555 1_555
C8 C7 1_555 1_555
H8 C8 1_555 1_555
H9 C8 1_555 1_555
H10 C8 1_555 1_555
C9 C5 1_555 1_555
C10 C9 1_555 1_555
H11 C10 1_555 1_555
H12 C10 1_555 1_555
C11 C10 1_555 1_555
H13 C11 1_555 1_555
H14 C11 1_555 1_555
C12 C11 1_555 1_555
H15 C12 1_555 1_555
H16 C12 1_555 1_555
C13 C12 1_555 1_555
H17 C13 1_555 1_555
H18 C13 1_555 1_555
C14 C9 1_555 1_555
H19 C14 1_555 1_555
H20 C14 1_555 1_555
C15 C9 1_555 1_555
C16 C15 1_555 1_555
H21 C16 1_555 1_555
C17 C16 1_555 1_555
C18 C17 1_555 1_555
H22 C18 1_555 1_555
H23 C18 1_555 1_555
H24 C18 1_555 1_555
C19 C17 1_555 1_555
N2 C19 1_555 1_555
H25 N2 1_555 1_555
C20 C19 1_555 1_555
C21 C20 1_555 1_555
H26 C21 1_555 1_555
H27 C21 1_555 1_555
H28 C21 1_555 1_555
C22 C15 1_555 1_555
H29 C22 1_555 1_555
C23 N2 1_555 1_555
O1 C23 1_555 1_555
C24 C23 1_555 1_555
C25 C24 1_555 1_555
H30 C25 1_555 1_555
C26 C25 1_555 1_555
N3 C26 1_555 1_555
O2 N3 1_555 1_555
O3 N3 1_555 1_555
C27 C26 1_555 1_555
H31 C27 1_555 1_555
C28 C27 1_555 1_555
C29 C24 1_555 1_555
H32 C29 1_555 1_555
C30 C28 1_555 1_555
O4 C30 1_555 1_555
N4 C30 1_555 1_555
H33 N4 1_555 1_555
C31 N4 1_555 1_555
C32 C31 1_555 1_555
C33 C32 1_555 1_555
H34 C33 1_555 1_555
H35 C33 1_555 1_555
H36 C33 1_555 1_555
C34 C32 1_555 1_555
H37 C34 1_555 1_555
C35 C34 1_555 1_555
C36 C35 1_555 1_555
H38 C36 1_555 1_555
C37 C31 1_555 1_555
C38 C37 1_555 1_555
H39 C38 1_555 1_555
H40 C38 1_555 1_555
H41 C38 1_555 1_555
C39 C35 1_555 1_555
C40 C39 1_555 1_555
H42 C40 1_555 1_555
H43 C40 1_555 1_555
C41 C40 1_555 1_555
H44 C41 1_555 1_555
H45 C41 1_555 1_555
C42 C41 1_555 1_555
H46 C42 1_555 1_555
H47 C42 1_555 1_555
C43 C42 1_555 1_555
H48 C43 1_555 1_555
H49 C43 1_555 1_555
C44 C39 1_555 1_555
H50 C44 1_555 1_555
H51 C44 1_555 1_555
C45 C39 1_555 1_555
C46 C45 1_555 1_555
H52 C46 1_555 1_555
C47 C46 1_555 1_555
C48 C47 1_555 1_555
H53 C48 1_555 1_555
H54 C48 1_555 1_555
H55 C48 1_555 1_555
C49 C47 1_555 1_555
N5 C49 1_555 1_555
H56 N5 1_555 1_555
H57 N5 1_555 1_555
C50 C49 1_555 1_555
C51 C50 1_555 1_555
H58 C51 1_555 1_555
H59 C51 1_555 1_555
H60 C51 1_555 1_555
C52 C45 1_555 1_555
H61 C52 1_555 1_555
O5 H62 1_555 1_555
C53 O5 1_555 1_555
H63 C53 1_555 1_555
H64 C53 1_555 1_555
H65 C53 1_555 1_555
O6 H66 1_555 1_555
C54 O6 1_555 1_555
H67 C54 1_555 1_555
H68 C54 1_555 1_555
H69 C54 1_555 1_555
C6 C7 1_555 1_555
C13 C14 1_555 1_555
C20 C22 1_555 1_555
C28 C29 1_555 1_555
C36 C37 1_555 1_555
C43 C44 1_555 1_555
C50 C52 1_555 1_555

#END
