
#######################################################################
#
#                 Cambridge Crystallographic Data Centre
#                                CCDC 
#
#######################################################################
#
# If this CIF has been generated from an entry in the Cambridge 
# Structural Database, then it will include bibliographic, chemical, 
# crystal, experimental, refinement or atomic coordinate data resulting 
# from the CCDC's data processing and validation procedures.
#
#######################################################################

data_RALTEE
_chemical_compound_source        'root of Salvia miltiorrhiza'
_chemical_name_common            1,2-Dihydrotanshinquinone
_chemical_formula_moiety         'C18 H14 O3'
_chemical_name_systematic        
8,9-Dihydro-1,6-dimethylphenanthro(1,2-b)furan-10,11-dione
_chemical_properties_biological  'source plant has pharmacological activity'
_symmetry_cell_setting           triclinic
_symmetry_space_group_name_H-M   'P -1'
_symmetry_Int_Tables_number      2
_space_group_name_Hall           '-P 1'
loop_
_symmetry_equiv_pos_site_id
_symmetry_equiv_pos_as_xyz
1 x,y,z
2 -x,-y,-z
_cell_length_a                   7.9225(11)
_cell_length_b                   8.0119(10)
_cell_length_c                   11.7565(14)
_cell_angle_alpha                83.979(2)
_cell_angle_beta                 86.251(2)
_cell_angle_gamma                64.422(2)
_cell_volume                     669.222
_exptl_crystal_colour            red
_exptl_crystal_description       block
_cell_formula_units_Z            2
_exptl_crystal_recrystallization_method 'ethyl acetate/petroleum ether'
loop_
_atom_site_label
_atom_site_type_symbol
_atom_site_fract_x
_atom_site_fract_y
_atom_site_fract_z
O1 O 0.43422(13) 0.76152(13) 1.27599(8)
C1 C 0.47464(16) 0.76202(15) 1.06875(10)
C2 C 0.58849(15) 0.67123(15) 0.97551(10)
O2 O 0.85833(15) 0.39747(13) 0.93063(9)
C3 C 0.53361(16) 0.74373(15) 0.86310(10)
C4 C 0.35897(16) 0.90082(16) 0.84509(11)
C5 C 0.70103(17) 0.53941(17) 1.21521(11)
C6 C 0.76294(16) 0.49864(16) 1.00195(11)
O3 O 0.97464(13) 0.29844(14) 1.14610(10)
C7 C 0.25025(17) 0.98456(17) 0.93923(11)
H1 H 0.1362 1.0874 0.9271
C8 C 0.30766(16) 0.91881(16) 1.04920(11)
H2 H 0.2348 0.9792 1.1105
C9 C 0.53853(16) 0.68679(16) 1.18276(11)
C10 C 0.64998(17) 0.66180(17) 0.75878(11)
H3 H 0.6188 0.5653 0.7369
H4 H 0.7813 0.6048 0.7779
C11 C 0.82761(17) 0.43377(17) 1.12817(12)
C12 C 0.29400(18) 0.97353(18) 0.72767(12)
C13 C 0.61910(19) 0.8060(2) 0.65810(12)
H5 H 0.6811 0.8831 0.6717
H6 H 0.6748 0.7438 0.5895
C14 C 0.4168(2) 0.9256(2) 0.63984(12)
H7 H 0.3746 0.9680 0.5657
C15 C 0.5374(2) 0.6573(2) 1.36903(12)
H8 H 0.4985 0.6789 1.4446
C16 C 0.70083(19) 0.5207(2) 1.33808(12)
C17 C 0.0923(2) 1.1035(2) 0.70972(14)
H9 H 0.0714 1.1386 0.6294
H10 H 0.0610 1.2124 0.7493
H11 H 0.0151 1.0429 0.7389
C18 C 0.8494(2) 0.3809(3) 1.41446(15)
H12 H 0.8114 0.4016 1.4929
H13 H 0.9642 0.3932 1.3991
H14 H 0.8681 0.2582 1.4004
loop_
_geom_bond_atom_site_label_1
_geom_bond_atom_site_label_2
_geom_bond_site_symmetry_1
_geom_bond_site_symmetry_2
O1 C9 1_555 1_555
C1 C2 1_555 1_555
C2 C3 1_555 1_555
O2 C6 1_555 1_555
C3 C4 1_555 1_555
C4 C7 1_555 1_555
C5 C9 1_555 1_555
C6 C2 1_555 1_555
O3 C11 1_555 1_555
C7 H1 1_555 1_555
C8 C1 1_555 1_555
H2 C8 1_555 1_555
C9 C1 1_555 1_555
C10 C3 1_555 1_555
H3 C10 1_555 1_555
H4 C10 1_555 1_555
C11 C5 1_555 1_555
C12 C4 1_555 1_555
C13 C10 1_555 1_555
H5 C13 1_555 1_555
H6 C13 1_555 1_555
C14 C12 1_555 1_555
H7 C14 1_555 1_555
C15 O1 1_555 1_555
H8 C15 1_555 1_555
C16 C5 1_555 1_555
C17 C12 1_555 1_555
H9 C17 1_555 1_555
H10 C17 1_555 1_555
H11 C17 1_555 1_555
C18 C16 1_555 1_555
H12 C18 1_555 1_555
H13 C18 1_555 1_555
H14 C18 1_555 1_555
C6 C11 1_555 1_555
C7 C8 1_555 1_555
C13 C14 1_555 1_555
C15 C16 1_555 1_555

#END
