
#######################################################################
#
#                 Cambridge Crystallographic Data Centre
#                                CCDC 
#
#######################################################################
#
# If this CIF has been generated from an entry in the Cambridge 
# Structural Database, then it will include bibliographic, chemical, 
# crystal, experimental, refinement or atomic coordinate data resulting 
# from the CCDC's data processing and validation procedures.
#
#######################################################################

data_RALTAA
_chemical_formula_moiety         'C28 H34 O6 S1'
_chemical_name_systematic        
16\a,17-Epoxy-11\a-(p-tolylsulfonyloxy)pregn-4-ene-3,20-dione
_symmetry_cell_setting           monoclinic
_symmetry_space_group_name_H-M   'C 2'
_symmetry_Int_Tables_number      5
_space_group_name_Hall           'C 2y'
loop_
_symmetry_equiv_pos_site_id
_symmetry_equiv_pos_as_xyz
1 x,y,z
2 -x,y,-z
3 1/2+x,1/2+y,z
4 1/2-x,1/2+y,-z
_cell_length_a                   19.508(2)
_cell_length_b                   10.7310(10)
_cell_length_c                   25.920(4)
_cell_angle_alpha                90
_cell_angle_beta                 108.666(2)
_cell_angle_gamma                90
_cell_volume                     5140.69
_exptl_crystal_colour            colorless
_exptl_crystal_description       plate
_chemical_melting_point          '443.2 K(dec.)'
_cell_formula_units_Z            8
_exptl_crystal_recrystallization_method chloroform/methanol
loop_
_atom_site_label
_atom_site_type_symbol
_atom_site_fract_x
_atom_site_fract_y
_atom_site_fract_z
S1 S 0.14917(4) 0.76783(6) 0.04498(3)
O1 O 0.15451(16) 0.2570(3) 0.21662(10)
O2 O -0.03755(11) 0.4546(2) -0.16639(8)
O3 O 0.07332(14) 0.6915(2) -0.19011(9)
O4 O 0.10915(9) 0.63909(14) 0.03187(6)
O5 O 0.22502(11) 0.7462(2) 0.06415(8)
O6 O 0.12114(12) 0.84966(18) -0.00016(7)
C1 C 0.17071(16) 0.4665(3) 0.11502(10)
H1 H 0.1948 0.5450 0.1137
H2 H 0.1198 0.4843 0.1083
C2 C 0.2021(2) 0.4118(3) 0.17194(12)
H3 H 0.2538 0.4000 0.1803
H4 H 0.1945 0.4695 0.1984
C3 C 0.16758(19) 0.2907(3) 0.17598(14)
C4 C 0.15348(19) 0.2127(3) 0.12830(14)
H5 H 0.1378 0.1316 0.1306
C5 C 0.16135(17) 0.2489(3) 0.08106(13)
C6 C 0.1551(2) 0.1550(3) 0.03681(14)
H6 H 0.1387 0.0763 0.0470
H7 H 0.2024 0.1417 0.0330
C7 C 0.1030(2) 0.1967(3) -0.01719(13)
H8 H 0.0542 0.1975 -0.0151
H9 H 0.1042 0.1378 -0.0452
C8 C 0.12163(15) 0.3253(2) -0.03265(11)
H10 H 0.1700 0.3226 -0.0365
C9 C 0.12240(14) 0.4203(2) 0.01298(9)
H11 H 0.0744 0.4158 0.0173
C10 C 0.17804(14) 0.3822(3) 0.06969(11)
C11 C 0.13022(14) 0.5536(2) -0.00571(9)
H12 H 0.1808 0.5688 -0.0029
C12 C 0.08142(15) 0.5889(2) -0.06267(10)
H13 H 0.0316 0.5929 -0.0630
H14 H 0.0949 0.6708 -0.0720
C13 C 0.08764(14) 0.4950(2) -0.10465(10)
C14 C 0.06820(15) 0.3679(2) -0.08591(10)
H15 H 0.0222 0.3802 -0.0788
C15 C 0.05054(18) 0.2867(3) -0.13727(12)
H16 H 0.0942 0.2550 -0.1429
H17 H 0.0194 0.2173 -0.1355
C16 C 0.01217(17) 0.3774(3) -0.18092(12)
H18 H 0.0038 0.3566 -0.2193
C17 C 0.03241(15) 0.5055(3) -0.16154(10)
C18 C 0.02832(18) 0.6107(3) -0.19988(12)
C19 C -0.0366(2) 0.6123(4) -0.25091(13)
H19 H -0.0397 0.6918 -0.2685
H20 H -0.0798 0.5982 -0.2415
H21 H -0.0317 0.5478 -0.2752
C20 C 0.25656(16) 0.3885(3) 0.06833(12)
H22 H 0.2890 0.3577 0.1021
H23 H 0.2686 0.4733 0.0632
H24 H 0.2608 0.3384 0.0388
C21 C 0.16291(15) 0.4976(3) -0.11162(12)
H25 H 0.1649 0.4369 -0.1383
H26 H 0.1990 0.4784 -0.0775
H27 H 0.1719 0.5789 -0.1234
C22 C 0.11970(14) 0.8161(2) 0.09850(10)
C23 C 0.16646(15) 0.8187(3) 0.15084(11)
H28 H 0.2136 0.7899 0.1585
C24 C 0.14316(19) 0.8640(3) 0.19168(11)
H29 H 0.1752 0.8660 0.2271
C25 C 0.0737(2) 0.9064(3) 0.18175(11)
C26 C 0.02669(17) 0.9003(3) 0.12895(12)
H30 H -0.0210 0.9262 0.1216
C27 C 0.04928(16) 0.8566(3) 0.08720(10)
H31 H 0.0175 0.8543 0.0518
C28 C 0.0488(2) 0.9627(4) 0.22601(14)
H32 H 0.0770 0.9292 0.2606
H33 H -0.0013 0.9433 0.2193
H34 H 0.0549 1.0515 0.2262
S2 S 0.04399(4) -0.17478(6) 0.40521(3)
O7 O -0.18067(16) 0.2998(3) 0.25287(12)
O8 O 0.16056(12) 0.1750(2) 0.61593(7)
O9 O 0.27533(14) -0.0581(3) 0.59514(9)
O10 O 0.02704(9) -0.04128(14) 0.42237(6)
O11 O 0.07556(10) -0.1642(2) 0.36303(8)
O12 O 0.08220(11) -0.24484(19) 0.45204(8)
C29 C -0.03460(14) 0.1124(3) 0.33188(11)
H35 H -0.0104 0.0365 0.3269
H36 H -0.0640 0.0922 0.3547
C30 C -0.08393(16) 0.1556(3) 0.27682(11)
H37 H -0.0558 0.1662 0.2523
H38 H -0.1203 0.0924 0.2616
C31 C -0.12001(19) 0.2745(4) 0.28104(13)
C32 C -0.07537(18) 0.3633(3) 0.31953(13)
H39 H -0.0937 0.4432 0.3199
C33 C -0.00984(16) 0.3385(3) 0.35446(11)
C34 C 0.03445(17) 0.4399(3) 0.38793(12)
H40 H 0.0052 0.5147 0.3834
H41 H 0.0747 0.4578 0.3748
C35 C 0.06355(17) 0.4080(3) 0.44786(11)
H42 H 0.0238 0.4027 0.4626
H43 H 0.0959 0.4735 0.4672
C36 C 0.10395(15) 0.2847(2) 0.45648(10)
H44 H 0.1444 0.2918 0.4419
C37 C 0.05285(13) 0.1806(2) 0.42521(10)
H45 H 0.0107 0.1826 0.4380
C38 C 0.02323(14) 0.2086(2) 0.36194(10)
C39 C 0.08684(13) 0.0506(2) 0.43993(9)
H46 H 0.1213 0.0355 0.4202
C40 C 0.12354(14) 0.0257(2) 0.50034(10)
H47 H 0.0871 0.0193 0.5184
H48 H 0.1492 -0.0531 0.5049
C41 C 0.17611(14) 0.1287(2) 0.52638(10)
C42 C 0.13392(14) 0.2500(2) 0.51652(10)
H49 H 0.0916 0.2350 0.5283
C43 C 0.18297(19) 0.3395(3) 0.55899(12)
H50 H 0.2209 0.3739 0.5466
H51 H 0.1553 0.4071 0.5675
C44 C 0.21313(19) 0.2553(3) 0.60669(12)
H52 H 0.2547 0.2822 0.6374
C45 C 0.20793(15) 0.1245(3) 0.58808(11)
C46 C 0.25354(17) 0.0196(3) 0.61858(12)
C47 C 0.2668(2) 0.0117(5) 0.67858(13)
H53 H 0.2225 -0.0090 0.6852
H54 H 0.2841 0.0906 0.6951
H55 H 0.3023 -0.0514 0.6940
C48 C 0.08494(16) 0.2073(3) 0.33734(10)
H56 H 0.0663 0.2285 0.2994
H57 H 0.1061 0.1257 0.3413
H58 H 0.1211 0.2670 0.3559
C49 C 0.24034(16) 0.1309(3) 0.50380(12)
H59 H 0.2636 0.0509 0.5092
H60 H 0.2744 0.1934 0.5226
H61 H 0.2230 0.1498 0.4656
C50 C -0.04442(14) -0.2304(2) 0.37935(9)
C51 C -0.07831(15) -0.2395(3) 0.32387(10)
H62 H -0.0564 -0.2080 0.2996
C52 C -0.14514(17) -0.2959(3) 0.30510(12)
H63 H -0.1677 -0.3040 0.2678
C53 C -0.17925(15) -0.3408(3) 0.34031(14)
C54 C -0.14525(18) -0.3245(3) 0.39544(13)
H64 H -0.1686 -0.3503 0.4197
C55 C -0.07798(18) -0.2714(3) 0.41545(11)
H65 H -0.0555 -0.2632 0.4528
C56 C -0.24980(18) -0.4107(4) 0.31904(17)
H66 H -0.2856 -0.3579 0.2949
H67 H -0.2657 -0.4352 0.3490
H68 H -0.2430 -0.4835 0.2997
loop_
_geom_bond_atom_site_label_1
_geom_bond_atom_site_label_2
_geom_bond_site_symmetry_1
_geom_bond_site_symmetry_2
S1 O4 1_555 1_555
O1 C3 1_555 1_555
O2 C16 1_555 1_555
O3 C18 1_555 1_555
O4 C11 1_555 1_555
O5 S1 1_555 1_555
O6 S1 1_555 1_555
C1 H1 1_555 1_555
H2 C1 1_555 1_555
C2 C1 1_555 1_555
H3 C2 1_555 1_555
H4 C2 1_555 1_555
C3 C2 1_555 1_555
C4 C3 1_555 1_555
H5 C4 1_555 1_555
C5 C4 1_555 1_555
C6 C5 1_555 1_555
H6 C6 1_555 1_555
H7 C6 1_555 1_555
C7 C6 1_555 1_555
H8 C7 1_555 1_555
H9 C7 1_555 1_555
C8 C7 1_555 1_555
H10 C8 1_555 1_555
C9 C8 1_555 1_555
H11 C9 1_555 1_555
C10 C1 1_555 1_555
C11 C9 1_555 1_555
H12 C11 1_555 1_555
C12 C11 1_555 1_555
H13 C12 1_555 1_555
H14 C12 1_555 1_555
C13 C12 1_555 1_555
C14 C8 1_555 1_555
H15 C14 1_555 1_555
C15 C14 1_555 1_555
H16 C15 1_555 1_555
H17 C15 1_555 1_555
C16 C15 1_555 1_555
H18 C16 1_555 1_555
C17 O2 1_555 1_555
C18 C17 1_555 1_555
C19 C18 1_555 1_555
H19 C19 1_555 1_555
H20 C19 1_555 1_555
H21 C19 1_555 1_555
C20 C10 1_555 1_555
H22 C20 1_555 1_555
H23 C20 1_555 1_555
H24 C20 1_555 1_555
C21 C13 1_555 1_555
H25 C21 1_555 1_555
H26 C21 1_555 1_555
H27 C21 1_555 1_555
C22 S1 1_555 1_555
C23 C22 1_555 1_555
H28 C23 1_555 1_555
C24 C23 1_555 1_555
H29 C24 1_555 1_555
C25 C24 1_555 1_555
C26 C25 1_555 1_555
H30 C26 1_555 1_555
C27 C22 1_555 1_555
H31 C27 1_555 1_555
C28 C25 1_555 1_555
H32 C28 1_555 1_555
H33 C28 1_555 1_555
H34 C28 1_555 1_555
S2 O10 1_555 1_555
O7 C31 1_555 1_555
O8 C44 1_555 1_555
O9 C46 1_555 1_555
O10 C39 1_555 1_555
O11 S2 1_555 1_555
O12 S2 1_555 1_555
C29 H35 1_555 1_555
H36 C29 1_555 1_555
C30 C29 1_555 1_555
H37 C30 1_555 1_555
H38 C30 1_555 1_555
C31 C30 1_555 1_555
C32 C31 1_555 1_555
H39 C32 1_555 1_555
C33 C32 1_555 1_555
C34 C33 1_555 1_555
H40 C34 1_555 1_555
H41 C34 1_555 1_555
C35 C34 1_555 1_555
H42 C35 1_555 1_555
H43 C35 1_555 1_555
C36 C35 1_555 1_555
H44 C36 1_555 1_555
C37 C36 1_555 1_555
H45 C37 1_555 1_555
C38 C29 1_555 1_555
C39 C37 1_555 1_555
H46 C39 1_555 1_555
C40 C39 1_555 1_555
H47 C40 1_555 1_555
H48 C40 1_555 1_555
C41 C40 1_555 1_555
C42 C36 1_555 1_555
H49 C42 1_555 1_555
C43 C42 1_555 1_555
H50 C43 1_555 1_555
H51 C43 1_555 1_555
C44 C43 1_555 1_555
H52 C44 1_555 1_555
C45 O8 1_555 1_555
C46 C45 1_555 1_555
C47 C46 1_555 1_555
H53 C47 1_555 1_555
H54 C47 1_555 1_555
H55 C47 1_555 1_555
C48 C38 1_555 1_555
H56 C48 1_555 1_555
H57 C48 1_555 1_555
H58 C48 1_555 1_555
C49 C41 1_555 1_555
H59 C49 1_555 1_555
H60 C49 1_555 1_555
H61 C49 1_555 1_555
C50 S2 1_555 1_555
C51 C50 1_555 1_555
H62 C51 1_555 1_555
C52 C51 1_555 1_555
H63 C52 1_555 1_555
C53 C52 1_555 1_555
C54 C53 1_555 1_555
H64 C54 1_555 1_555
C55 C50 1_555 1_555
H65 C55 1_555 1_555
C56 C53 1_555 1_555
H66 C56 1_555 1_555
H67 C56 1_555 1_555
H68 C56 1_555 1_555
C5 C10 1_555 1_555
C9 C10 1_555 1_555
C13 C14 1_555 1_555
C13 C17 1_555 1_555
C16 C17 1_555 1_555
C26 C27 1_555 1_555
C33 C38 1_555 1_555
C37 C38 1_555 1_555
C41 C42 1_555 1_555
C41 C45 1_555 1_555
C44 C45 1_555 1_555
C54 C55 1_555 1_555

#END
