
#######################################################################
#
#                 Cambridge Crystallographic Data Centre
#                                CCDC 
#
#######################################################################
#
# If this CIF has been generated from an entry in the Cambridge 
# Structural Database, then it will include bibliographic, chemical, 
# crystal, experimental, refinement or atomic coordinate data resulting 
# from the CCDC's data processing and validation procedures.
#
#######################################################################

data_RALVOS
_chemical_formula_moiety         'C40 H42,2(C6 H2 F4)'
_chemical_name_systematic        
'1,3,6,8-tetrakis(3,3-dimethylbut-1-yn-1-yl)pyrene bis(1,2,3,4-tetrafluorobenzene)'
_symmetry_cell_setting           triclinic
_symmetry_space_group_name_H-M   'P -1'
_symmetry_Int_Tables_number      2
_space_group_name_Hall           '-P 1'
loop_
_symmetry_equiv_pos_site_id
_symmetry_equiv_pos_as_xyz
1 x,y,z
2 -x,-y,-z
_cell_length_a                   6.672(3)
_cell_length_b                   11.972(4)
_cell_length_c                   14.349(5)
_cell_angle_alpha                78.402(19)
_cell_angle_beta                 89.63(2)
_cell_angle_gamma                76.61(2)
_cell_volume                     1091.27
_exptl_crystal_colour            'light yellow'
_exptl_crystal_description       block
_cell_formula_units_Z            1
loop_
_atom_site_label
_atom_site_type_symbol
_atom_site_fract_x
_atom_site_fract_y
_atom_site_fract_z
F1 F 0.9348(10) 0.6884(5) 0.2100(4)
F2 F 0.9648(10) 0.5965(5) 0.3957(4)
F3 F 1.0028(11) 0.5486(7) 0.0829(4)
F4 F 1.1066(11) 0.3118(7) 0.1440(5)
C1 C 1.0191(15) 0.5010(10) 0.1780(8)
C2 C 0.9843(16) 0.5709(9) 0.2396(8)
C3 C 1.0027(17) 0.5219(10) 0.3351(7)
C4 C 1.0582(15) 0.4053(9) 0.3683(8)
H1 H 1.0737 0.3747 0.4334
C5 C 1.0911(15) 0.3330(9) 0.3050(8)
H2 H 1.1236 0.2520 0.3262
C6 C 1.0758(16) 0.3812(10) 0.2101(8)
C7 C 0.4990(14) 0.5304(8) 0.2823(6)
C8 C 0.6048(14) 0.2802(8) 0.5406(6)
H3 H 0.6408 0.2006 0.5396
C9 C 0.5725(14) 0.3607(7) 0.4545(6)
C10 C 0.5114(13) 0.4822(7) 0.4543(6)
C11 C 0.4765(13) 0.5680(8) 0.3692(6)
C12 C 0.5580(14) 0.4114(8) 0.2828(7)
H4 H 0.5722 0.3881 0.2246
C13 C 0.4068(16) 0.7689(8) 0.0284(7)
C14 C 0.5965(15) 0.3263(8) 0.3642(6)
C15 C 0.4638(15) 0.6137(8) 0.1935(7)
C16 C 0.4394(15) 0.6816(9) 0.1194(7)
C17 C 0.5857(14) 0.3134(8) 0.6272(6)
H5 H 0.6141 0.2568 0.6833
C18 C 0.6595(15) 0.2049(8) 0.3615(6)
C19 C 0.7165(16) 0.1044(9) 0.3514(6)
C20 C 0.3950(19) 0.7022(8) -0.0523(7)
H6 H 0.5222 0.6449 -0.0526
H7 H 0.3720 0.7566 -0.1124
H8 H 0.2834 0.6635 -0.0420
C21 C 0.7852(16) -0.0181(8) 0.3370(8)
C22 C 0.6194(18) -0.0419(9) 0.2805(9)
H9 H 0.4963 -0.0365 0.3160
H10 H 0.6627 -0.1192 0.2674
H11 H 0.5923 0.0148 0.2216
C23 C 0.212(2) 0.8610(11) 0.0280(9)
H12 H 0.0958 0.8276 0.0241
H13 H 0.2074 0.9239 -0.0260
H14 H 0.2092 0.8906 0.0855
C24 C 0.9895(17) -0.0293(9) 0.2883(8)
H15 H 0.9709 0.0240 0.2276
H16 H 1.0383 -0.1082 0.2792
H17 H 1.0886 -0.0107 0.3272
C25 C 0.8137(19) -0.1019(8) 0.4358(7)
H18 H 0.9082 -0.0805 0.4753
H19 H 0.8675 -0.1811 0.4283
H20 H 0.6830 -0.0961 0.4652
C26 C 0.5911(17) 0.8277(10) 0.0161(8)
H21 H 0.5709 0.8887 0.0520
H22 H 0.6009 0.8608 -0.0501
H23 H 0.7160 0.7702 0.0386
C7A C 0.5010(14) 0.4696(8) 0.7177(6)
C8A C 0.3952(14) 0.7198(8) 0.4594(6)
H3A H 0.3592 0.7994 0.4604
C9A C 0.4275(14) 0.6393(7) 0.5455(6)
C10A C 0.4886(13) 0.5178(7) 0.5457(6)
C11A C 0.5235(13) 0.4320(8) 0.6308(6)
C12A C 0.4420(14) 0.5886(8) 0.7172(7)
H4A H 0.4278 0.6119 0.7754
C13A C 0.5932(16) 0.2311(8) 0.9716(7)
C14A C 0.4035(15) 0.6737(8) 0.6358(6)
C15A C 0.5362(15) 0.3863(8) 0.8065(7)
C16A C 0.5606(15) 0.3184(9) 0.8806(7)
C17A C 0.4143(14) 0.6866(8) 0.3728(6)
H5A H 0.3859 0.7432 0.3167
C18A C 0.3405(15) 0.7951(8) 0.6385(6)
C19A C 0.2835(16) 0.8956(9) 0.6486(6)
C20A C 0.6050(19) 0.2978(8) 1.0523(7)
H6A H 0.4778 0.3551 1.0526
H7A H 0.6280 0.2434 1.1124
H8A H 0.7166 0.3365 1.0420
C21A C 0.2148(16) 1.0181(8) 0.6630(8)
C22A C 0.3806(18) 1.0419(9) 0.7195(9)
H9A H 0.5037 1.0365 0.6840
H10A H 0.3373 1.1192 0.7326
H11A H 0.4077 0.9852 0.7784
C23A C 0.788(2) 0.1390(11) 0.9720(9)
H12A H 0.9042 0.1724 0.9759
H13A H 0.7926 0.0761 1.0260
H14A H 0.7908 0.1094 0.9145
C24A C 0.0105(17) 1.0293(9) 0.7117(8)
H15A H 0.0291 0.9760 0.7724
H16A H -0.0383 1.1082 0.7208
H17A H -0.0886 1.0107 0.6728
C25A C 0.1863(19) 1.1019(8) 0.5642(7)
H18A H 0.0918 1.0805 0.5247
H19A H 0.1325 1.1811 0.5717
H20A H 0.3170 1.0961 0.5348
C26A C 0.4089(17) 0.1723(10) 0.9839(8)
H21A H 0.4291 0.1113 0.9480
H22A H 0.3991 0.1392 1.0501
H23A H 0.2840 0.2298 0.9614
loop_
_geom_bond_atom_site_label_1
_geom_bond_atom_site_label_2
_geom_bond_site_symmetry_1
_geom_bond_site_symmetry_2
F1 C2 1_555 1_555
F2 C3 1_555 1_555
F3 C1 1_555 1_555
F4 C6 1_555 1_555
C1 C2 1_555 1_555
C2 C3 1_555 1_555
C3 C4 1_555 1_555
C4 H1 1_555 1_555
C5 C4 1_555 1_555
H2 C5 1_555 1_555
C6 C1 1_555 1_555
C7 C11 1_555 1_555
C8 H3 1_555 1_555
C9 C8 1_555 1_555
C10 C9 1_555 1_555
C11 C10 1_555 1_555
C12 C7 1_555 1_555
H4 C12 1_555 1_555
C13 C16 1_555 1_555
C14 C9 1_555 1_555
C15 C7 1_555 1_555
C16 C15 1_555 1_555
C17 C8 1_555 1_555
H5 C17 1_555 1_555
C18 C14 1_555 1_555
C19 C18 1_555 1_555
C20 C13 1_555 1_555
H6 C20 1_555 1_555
H7 C20 1_555 1_555
H8 C20 1_555 1_555
C21 C19 1_555 1_555
C22 C21 1_555 1_555
H9 C22 1_555 1_555
H10 C22 1_555 1_555
H11 C22 1_555 1_555
C23 C13 1_555 1_555
H12 C23 1_555 1_555
H13 C23 1_555 1_555
H14 C23 1_555 1_555
C24 C21 1_555 1_555
H15 C24 1_555 1_555
H16 C24 1_555 1_555
H17 C24 1_555 1_555
C25 C21 1_555 1_555
H18 C25 1_555 1_555
H19 C25 1_555 1_555
H20 C25 1_555 1_555
C26 C13 1_555 1_555
H21 C26 1_555 1_555
H22 C26 1_555 1_555
H23 C26 1_555 1_555
C7A C11A 1_555 1_555
C8A H3A 1_555 1_555
C9A C8A 1_555 1_555
C10A C10 1_555 1_555
C11A C17 1_555 1_555
C12A C7A 1_555 1_555
H4A C12A 1_555 1_555
C13A C16A 1_555 1_555
C14A C9A 1_555 1_555
C15A C7A 1_555 1_555
C16A C15A 1_555 1_555
C17A C11 1_555 1_555
H5A C17A 1_555 1_555
C18A C14A 1_555 1_555
C19A C18A 1_555 1_555
C20A C13A 1_555 1_555
H6A C20A 1_555 1_555
H7A C20A 1_555 1_555
H8A C20A 1_555 1_555
C21A C19A 1_555 1_555
C22A C21A 1_555 1_555
H9A C22A 1_555 1_555
H10A C22A 1_555 1_555
H11A C22A 1_555 1_555
C23A C13A 1_555 1_555
H12A C23A 1_555 1_555
H13A C23A 1_555 1_555
H14A C23A 1_555 1_555
C24A C21A 1_555 1_555
H15A C24A 1_555 1_555
H16A C24A 1_555 1_555
H17A C24A 1_555 1_555
C25A C21A 1_555 1_555
H18A C25A 1_555 1_555
H19A C25A 1_555 1_555
H20A C25A 1_555 1_555
C26A C13A 1_555 1_555
H21A C26A 1_555 1_555
H22A C26A 1_555 1_555
H23A C26A 1_555 1_555
C5 C6 1_555 1_555
C12 C14 1_555 1_555
C8A C17A 1_555 1_555
C9A C10A 1_555 1_555
C10A C11A 1_555 1_555
C12A C14A 1_555 1_555

#END
