
#######################################################################
#
#                 Cambridge Crystallographic Data Centre
#                                CCDC 
#
#######################################################################
#
# If this CIF has been generated from an entry in the Cambridge 
# Structural Database, then it will include bibliographic, chemical, 
# crystal, experimental, refinement or atomic coordinate data resulting 
# from the CCDC's data processing and validation procedures.
#
#######################################################################

data_RALVUY
_chemical_formula_moiety         'C40 H42,2(C6 H1 F5)'
_chemical_name_systematic        
'1,3,6,8-tetrakis(3,3-dimethylbut-1-yn-1-yl)pyrene bis(1,2,3,4,5-pentafluorobenzene)'
_symmetry_cell_setting           triclinic
_symmetry_space_group_name_H-M   'P -1'
_symmetry_Int_Tables_number      2
_space_group_name_Hall           '-P 1'
loop_
_symmetry_equiv_pos_site_id
_symmetry_equiv_pos_as_xyz
1 x,y,z
2 -x,-y,-z
_cell_length_a                   6.712(4)
_cell_length_b                   12.071(7)
_cell_length_c                   14.442(9)
_cell_angle_alpha                78.490(11)
_cell_angle_beta                 89.905(15)
_cell_angle_gamma                76.710(16)
_cell_volume                     1114.66
_exptl_crystal_colour            'light yellow'
_exptl_crystal_description       block
_cell_formula_units_Z            1
loop_
_atom_site_label
_atom_site_type_symbol
_atom_site_fract_x
_atom_site_fract_y
_atom_site_fract_z
C1 C 0.0559(14) 0.4125(5) 0.2801(4)
H1 H 0.0700 0.3897 0.2222
C2 C 0.0923(15) 0.3264(5) 0.3641(4)
C3 C 0.0757(14) 0.3614(5) 0.4529(3)
C4 C 0.0114(13) 0.4821(5) 0.4554(4)
C5 C -0.0225(14) 0.5689(5) 0.3697(4)
C6 C -0.0009(14) 0.5314(5) 0.2813(3)
C7 C -0.0881(14) 0.6881(5) 0.3742(4)
H2 H -0.1163 0.7437 0.3182
C8 C 0.1109(16) 0.2764(5) 0.5410(4)
H3 H 0.1491 0.1975 0.5402
C9 C -0.0384(14) 0.6155(5) 0.1928(4)
C10 C -0.0696(14) 0.6847(5) 0.1195(4)
C11 C 0.1590(16) 0.2053(5) 0.3582(4)
C12 C 0.2118(16) 0.1059(5) 0.3499(4)
C13 C 0.2865(17) -0.0150(5) 0.3371(4)
C14 C 0.482(2) -0.0306(6) 0.2862(6)
H4 H 0.4625 0.0235 0.2265
H5 H 0.5204 -0.1085 0.2755
H6 H 0.5879 -0.0167 0.3237
C15 C 0.117(2) -0.0403(6) 0.2770(5)
H7 H -0.0076 -0.0336 0.3108
H8 H 0.1597 -0.1177 0.2654
H9 H 0.0926 0.0146 0.2179
C16 C 0.309(2) -0.0992(5) 0.4348(4)
H10 H 0.4068 -0.0820 0.4747
H11 H 0.3542 -0.1779 0.4265
H12 H 0.1784 -0.0898 0.4636
C17 C -0.1006(17) 0.7699(5) 0.0279(4)
C18 C -0.289(2) 0.8613(7) 0.0313(5)
H13 H -0.2822 0.8924 0.0871
H14 H -0.4066 0.8282 0.0327
H15 H -0.3011 0.9224 -0.0238
C19 C 0.089(2) 0.8288(6) 0.0148(5)
H16 H 0.0961 0.8697 0.0649
H17 H 0.0734 0.8824 -0.0450
H18 H 0.2136 0.7698 0.0167
C20 C -0.109(2) 0.7056(6) -0.0519(4)
H19 H -0.2187 0.6666 -0.0431
H20 H 0.0188 0.6495 -0.0518
H21 H -0.1306 0.7602 -0.1113
C1A C -0.0559(14) 0.5875(5) 0.7199(4)
H1A H -0.0700 0.6103 0.7778
C2A C -0.0923(15) 0.6736(5) 0.6359(4)
C3A C -0.0757(14) 0.6386(5) 0.5471(3)
C4A C -0.0114(13) 0.5179(5) 0.5446(4)
C5A C 0.0225(14) 0.4311(5) 0.6303(4)
C6A C 0.0009(14) 0.4686(5) 0.7187(3)
C7A C 0.0881(14) 0.3119(5) 0.6258(4)
H2A H 0.1163 0.2563 0.6818
C8A C -0.1109(16) 0.7236(5) 0.4590(4)
H3A H -0.1491 0.8025 0.4598
C9A C 0.0384(14) 0.3845(5) 0.8072(4)
C10A C 0.0696(14) 0.3153(5) 0.8805(4)
C11A C -0.1590(16) 0.7947(5) 0.6418(4)
C12A C -0.2118(16) 0.8941(5) 0.6501(4)
C13A C -0.2865(17) 1.0150(5) 0.6629(4)
C14A C -0.482(2) 1.0306(6) 0.7138(6)
H4A H -0.4625 0.9765 0.7735
H5A H -0.5204 1.1085 0.7245
H6A H -0.5879 1.0167 0.6763
C15A C -0.117(2) 1.0403(6) 0.7230(5)
H7A H 0.0076 1.0336 0.6892
H8A H -0.1597 1.1177 0.7346
H9A H -0.0926 0.9854 0.7821
C16A C -0.309(2) 1.0992(5) 0.5652(4)
H10A H -0.4068 1.0820 0.5253
H11A H -0.3542 1.1779 0.5735
H12A H -0.1784 1.0898 0.5364
C17A C 0.1006(17) 0.2301(5) 0.9721(4)
C18A C 0.289(2) 0.1387(7) 0.9687(5)
H13A H 0.2822 0.1076 0.9129
H14A H 0.4066 0.1718 0.9673
H15A H 0.3011 0.0776 1.0238
C19A C -0.089(2) 0.1712(6) 0.9852(5)
H16A H -0.0961 0.1303 0.9351
H17A H -0.0734 0.1176 1.0450
H18A H -0.2136 0.2302 0.9833
C20A C 0.109(2) 0.2944(6) 1.0519(4)
H19A H 0.2187 0.3334 1.0431
H20A H -0.0188 0.3505 1.0518
H21A H 0.1306 0.2398 1.1113
F1 F 0.6066(12) 0.3192(4) 0.1388(3)
F2 F 0.6568(12) 0.2217(4) 0.3251(4)
F3 F 0.4900(13) 0.5541(4) 0.0827(3)
F4 F 0.4263(12) 0.6933(4) 0.2133(3)
F5 F 0.4639(11) 0.5949(4) 0.4001(3)
C21 C 0.5696(18) 0.3846(6) 0.2046(5)
C22 C 0.5935(19) 0.3353(6) 0.3022(5)
C23 C 0.5550(18) 0.4070(6) 0.3662(4)
H22 H 0.5648 0.3753 0.4307
C24 C 0.5023(18) 0.5254(6) 0.3351(5)
C25 C 0.4790(18) 0.5772(6) 0.2409(5)
C26 C 0.5070(17) 0.5051(6) 0.1757(4)
loop_
_geom_bond_atom_site_label_1
_geom_bond_atom_site_label_2
_geom_bond_site_symmetry_1
_geom_bond_site_symmetry_2
C1 H1 1_555 1_555
C2 C1 1_555 1_555
C3 C2 1_555 1_555
C4 C3 1_555 1_555
C5 C4 1_555 1_555
C6 C1 1_555 1_555
C7 C5 1_555 1_555
H2 C7 1_555 1_555
C8 C3 1_555 1_555
H3 C8 1_555 1_555
C9 C6 1_555 1_555
C10 C9 1_555 1_555
C11 C2 1_555 1_555
C12 C11 1_555 1_555
C13 C12 1_555 1_555
C14 C13 1_555 1_555
H4 C14 1_555 1_555
H5 C14 1_555 1_555
H6 C14 1_555 1_555
C15 C13 1_555 1_555
H7 C15 1_555 1_555
H8 C15 1_555 1_555
H9 C15 1_555 1_555
C16 C13 1_555 1_555
H10 C16 1_555 1_555
H11 C16 1_555 1_555
H12 C16 1_555 1_555
C17 C10 1_555 1_555
C18 C17 1_555 1_555
H13 C18 1_555 1_555
H14 C18 1_555 1_555
H15 C18 1_555 1_555
C19 C17 1_555 1_555
H16 C19 1_555 1_555
H17 C19 1_555 1_555
H18 C19 1_555 1_555
C20 C17 1_555 1_555
H19 C20 1_555 1_555
H20 C20 1_555 1_555
H21 C20 1_555 1_555
F1 C21 1_555 1_555
F2 C22 1_555 1_555
F3 C26 1_555 1_555
F4 C25 1_555 1_555
F5 C24 1_555 1_555
C21 C22 1_555 1_555
C22 C23 1_555 1_555
C23 H22 1_555 1_555
C24 C23 1_555 1_555
C25 C24 1_555 1_555
C26 C21 1_555 1_555
C1A H1A 1_555 1_555
C2A C1A 1_555 1_555
C3A C2A 1_555 1_555
C4A C4 1_555 1_555
C5A C4A 1_555 1_555
C6A C1A 1_555 1_555
C7A C8 1_555 1_555
H2A C7A 1_555 1_555
C8A C7 1_555 1_555
H3A C8A 1_555 1_555
C9A C6A 1_555 1_555
C10A C9A 1_555 1_555
C11A C2A 1_555 1_555
C12A C11A 1_555 1_555
C13A C12A 1_555 1_555
C14A C13A 1_555 1_555
H4A C14A 1_555 1_555
H5A C14A 1_555 1_555
H6A C14A 1_555 1_555
C15A C13A 1_555 1_555
H7A C15A 1_555 1_555
H8A C15A 1_555 1_555
H9A C15A 1_555 1_555
C16A C13A 1_555 1_555
H10A C16A 1_555 1_555
H11A C16A 1_555 1_555
H12A C16A 1_555 1_555
C17A C10A 1_555 1_555
C18A C17A 1_555 1_555
H13A C18A 1_555 1_555
H14A C18A 1_555 1_555
H15A C18A 1_555 1_555
C19A C17A 1_555 1_555
H16A C19A 1_555 1_555
H17A C19A 1_555 1_555
H18A C19A 1_555 1_555
C20A C17A 1_555 1_555
H19A C20A 1_555 1_555
H20A C20A 1_555 1_555
H21A C20A 1_555 1_555
C5 C6 1_555 1_555
C25 C26 1_555 1_555
C3A C4A 1_555 1_555
C3A C8A 1_555 1_555
C5A C6A 1_555 1_555
C5A C7A 1_555 1_555

#END
