
#######################################################################
#
#                 Cambridge Crystallographic Data Centre
#                                CCDC 
#
#######################################################################
#
# If this CIF has been generated from an entry in the Cambridge 
# Structural Database, then it will include bibliographic, chemical, 
# crystal, experimental, refinement or atomic coordinate data resulting 
# from the CCDC's data processing and validation procedures.
#
#######################################################################

data_RAMGUI
_chemical_name_common            Monoethoxyldaidzein
_chemical_formula_moiety         'C17 H14 O4'
_chemical_name_systematic        7-Ethoxyl-4'-hydroxyisoflavone
_symmetry_cell_setting           monoclinic
_symmetry_space_group_name_H-M   'P 21/c'
_symmetry_Int_Tables_number      14
_space_group_name_Hall           '-P 2ybc'
loop_
_symmetry_equiv_pos_site_id
_symmetry_equiv_pos_as_xyz
1 x,y,z
2 -x,1/2+y,1/2-z
3 -x,-y,-z
4 x,1/2-y,1/2+z
_cell_length_a                   11.144(2)
_cell_length_b                   10.209(1)
_cell_length_c                   13.191(2)
_cell_angle_alpha                90
_cell_angle_beta                 113.43(1)
_cell_angle_gamma                90
_cell_volume                     1376.99
_exptl_crystal_colour            colorless
_exptl_crystal_description       hexagonal
_chemical_melting_point          131-133deg.C
_cell_formula_units_Z            4
_exptl_crystal_recrystallization_method ethanol
loop_
_atom_site_label
_atom_site_type_symbol
_atom_site_fract_x
_atom_site_fract_y
_atom_site_fract_z
O1 O 0.35787(12) 0.30723(12) 0.55337(10)
O2 O 0.00072(15) 0.32706(14) 0.95551(11)
O3 O 0.14197(17) 0.60845(15) 0.59463(13)
O4 O 0.40487(12) 0.50372(12) 0.25269(10)
C1 C 0.11165(17) 0.25904(17) 0.73405(14)
H1 H 0.1085 0.1920 0.6853
C2 C 0.05583(17) 0.23958(18) 0.80967(14)
H2 H 0.0172 0.1596 0.8123
C3 C 0.05755(17) 0.33873(18) 0.88114(14)
C4 C 0.11760(18) 0.45622(19) 0.87865(14)
H3 H 0.1194 0.5233 0.9270
C5 C 0.17511(18) 0.47380(19) 0.80394(15)
H4 H 0.2167 0.5527 0.8037
C6 C 0.17232(16) 0.37661(18) 0.72938(14)
C7 C 0.30425(17) 0.30360(18) 0.62898(14)
H5 H 0.3207 0.2291 0.6731
C8 C 0.22992(17) 0.39625(17) 0.64687(14)
C9 C 0.20415(19) 0.51499(19) 0.58028(16)
C10 C 0.25518(17) 0.51675(17) 0.49477(14)
C11 C 0.33046(16) 0.41317(16) 0.48389(14)
C12 C 0.38057(16) 0.41136(17) 0.40397(13)
H6 H 0.4323 0.3418 0.3999
C13 C 0.35338(17) 0.51344(17) 0.33013(14)
C14 C 0.27545(19) 0.61777(19) 0.33666(15)
H7 H 0.2557 0.6863 0.2861
C15 C 0.22862(19) 0.61816(19) 0.41790(15)
H8 H 0.1774 0.6882 0.4221
C16 C 0.3719(2) 0.6019(2) 0.16781(15)
H9 H 0.4029 0.6871 0.2002
H10 H 0.2778 0.6063 0.1274
C17 C 0.4364(2) 0.5637(2) 0.09211(15)
H11 H 0.5294 0.5607 0.1328
H12 H 0.4156 0.6270 0.0337
H13 H 0.4055 0.4790 0.0611
H14 H -0.040(2) 0.2567(14) 0.9457(18)
loop_
_geom_bond_atom_site_label_1
_geom_bond_atom_site_label_2
_geom_bond_site_symmetry_1
_geom_bond_site_symmetry_2
O1 C7 1_555 1_555
O2 C3 1_555 1_555
O3 C9 1_555 1_555
O4 C13 1_555 1_555
C1 H1 1_555 1_555
C2 C1 1_555 1_555
H2 C2 1_555 1_555
C3 C2 1_555 1_555
C4 C3 1_555 1_555
H3 C4 1_555 1_555
C5 C4 1_555 1_555
H4 C5 1_555 1_555
C6 C1 1_555 1_555
C7 H5 1_555 1_555
C8 C6 1_555 1_555
C9 C8 1_555 1_555
C10 C9 1_555 1_555
C11 O1 1_555 1_555
C12 C11 1_555 1_555
H6 C12 1_555 1_555
C13 C12 1_555 1_555
C14 C13 1_555 1_555
H7 C14 1_555 1_555
C15 C10 1_555 1_555
H8 C15 1_555 1_555
C16 O4 1_555 1_555
H9 C16 1_555 1_555
H10 C16 1_555 1_555
C17 C16 1_555 1_555
H11 C17 1_555 1_555
H12 C17 1_555 1_555
H13 C17 1_555 1_555
H14 O2 1_555 1_555
C5 C6 1_555 1_555
C7 C8 1_555 1_555
C10 C11 1_555 1_555
C14 C15 1_555 1_555

#END
