
#######################################################################
#
#                 Cambridge Crystallographic Data Centre
#                                CCDC 
#
#######################################################################
#
# If this CIF has been generated from an entry in the Cambridge 
# Structural Database, then it will include bibliographic, chemical, 
# crystal, experimental, refinement or atomic coordinate data resulting 
# from the CCDC's data processing and validation procedures.
#
#######################################################################

data_RAMGOB02
_chemical_name_common            Baicalein
_chemical_formula_moiety         'C15 H10 O5'
_chemical_name_systematic        5,6,7-Trihydroxy-2-phenyl-4H-chromen-4-one
_symmetry_cell_setting           monoclinic
_symmetry_space_group_name_H-M   'P c'
_symmetry_Int_Tables_number      7
_space_group_name_Hall           'P -2yc'
loop_
_symmetry_equiv_pos_site_id
_symmetry_equiv_pos_as_xyz
1 x,y,z
2 x,-y,1/2+z
_cell_length_a                   13.562(2)
_cell_length_b                   3.8415(7)
_cell_length_c                   22.846(4)
_cell_angle_alpha                90
_cell_angle_beta                 93.241(7)
_cell_angle_gamma                90
_cell_volume                     1188.34
_exptl_crystal_colour            yellow
_exptl_crystal_description       plate
_cell_formula_units_Z            4
loop_
_atom_site_label
_atom_site_type_symbol
_atom_site_fract_x
_atom_site_fract_y
_atom_site_fract_z
O1 O 1.02412(19) 0.2456(8) 0.79072(12)
O2 O 0.8952(2) 0.8665(10) 0.98963(15)
H1 H 0.845(4) 0.935(15) 0.991(2)
O3 O 0.7554(2) 0.6989(11) 0.89589(16)
H2 H 0.718(4) 0.617(14) 0.862(2)
O4 O 1.0836(2) 0.7320(10) 0.97897(13)
H3 H 1.043(4) 0.830(15) 1.000(2)
O5 O 0.7285(2) 0.4410(10) 0.79196(14)
C1 C 1.1161(4) -0.2635(12) 0.6028(2)
H4 H 1.1496 -0.3563 0.5720
C2 C 1.0151(4) -0.2530(12) 0.60011(19)
H5 H 0.9798 -0.3378 0.5671
C3 C 0.9657(4) -0.1191(12) 0.6455(2)
H6 H 0.8971 -0.1121 0.6430
C4 C 1.0176(3) 0.0072(12) 0.6956(2)
C5 C 0.9625(3) 0.1604(12) 0.74374(18)
C6 C 0.9870(3) 0.4010(12) 0.8396(2)
C7 C 1.0535(3) 0.4808(13) 0.8853(2)
H7 H 1.1202 0.4274 0.8837
C8 C 1.0174(3) 0.6442(12) 0.93383(19)
C9 C 0.9182(4) 0.7132(12) 0.9377(2)
C10 C 0.8862(3) 0.4701(12) 0.84172(19)
C11 C 0.8531(3) 0.6258(12) 0.8926(2)
C12 C 0.8200(4) 0.3799(12) 0.7917(2)
C13 C 0.8649(3) 0.2207(13) 0.74338(19)
H8 H 0.8253 0.1566 0.7106
C14 C 1.1190(3) -0.0027(13) 0.69850(19)
H9 H 1.1547 0.0790 0.7317
C15 C 1.1677(4) -0.1347(13) 0.6519(2)
H10 H 1.2364 -0.1367 0.6536
O6 O 0.4409(2) 0.7006(8) 0.49773(13)
O7 O 0.5830(3) 0.2439(10) 0.71510(13)
H11 H 0.644(3) 0.329(14) 0.731(2)
O8 O 0.7170(2) 0.5309(11) 0.63725(16)
H12 H 0.744(4) 0.656(14) 0.609(2)
O9 O 0.3934(2) 0.2192(10) 0.68366(15)
O10 O 0.7375(2) 0.8123(9) 0.53476(14)
C16 C 0.3411(4) 1.2165(13) 0.3046(2)
H13 H 0.3065 1.3032 0.2715
C17 C 0.4424(4) 1.2140(13) 0.3073(2)
H14 H 0.4765 1.2974 0.2760
C18 C 0.4939(3) 1.0863(12) 0.3570(2)
H15 H 0.5626 1.0819 0.3585
C19 C 0.4442(3) 0.9647(12) 0.40462(19)
C20 C 0.4997(3) 0.8480(12) 0.45803(19)
C21 C 0.4828(3) 0.5920(11) 0.55189(19)
C22 C 0.5830(3) 0.6254(12) 0.56545(19)
C23 C 0.6181(3) 0.5075(12) 0.6208(2)
C24 C 0.5560(4) 0.3712(13) 0.66011(19)
C25 C 0.4564(4) 0.3523(12) 0.6438(2)
C26 C 0.4180(3) 0.4540(13) 0.5894(2)
H16 H 0.3512 0.4301 0.5787
C27 C 0.6460(4) 0.7719(13) 0.5237(2)
C28 C 0.5973(3) 0.8823(12) 0.46971(19)
H17 H 0.6350 0.9824 0.4414
C29 C 0.3419(4) 0.9680(12) 0.4015(2)
H18 H 0.3073 0.8886 0.4329
C30 C 0.2907(4) 1.0919(12) 0.3506(2)
H19 H 0.2221 1.0894 0.3480
H20 H 0.428(5) 0.162(18) 0.715(3)
loop_
_geom_bond_atom_site_label_1
_geom_bond_atom_site_label_2
_geom_bond_site_symmetry_1
_geom_bond_site_symmetry_2
O1 C5 1_555 1_555
O2 H1 1_555 1_555
O3 H2 1_555 1_555
O4 H3 1_555 1_555
O5 C12 1_555 1_555
C1 H4 1_555 1_555
C2 C1 1_555 1_555
H5 C2 1_555 1_555
C3 C2 1_555 1_555
H6 C3 1_555 1_555
C4 C3 1_555 1_555
C5 C4 1_555 1_555
C6 O1 1_555 1_555
C7 C6 1_555 1_555
H7 C7 1_555 1_555
C8 O4 1_555 1_555
C9 O2 1_555 1_555
C10 C6 1_555 1_555
C11 O3 1_555 1_555
C12 C10 1_555 1_555
C13 C5 1_555 1_555
H8 C13 1_555 1_555
C14 C4 1_555 1_555
H9 C14 1_555 1_555
C15 C1 1_555 1_555
H10 C15 1_555 1_555
O6 C20 1_555 1_555
O7 H11 1_555 1_555
O8 H12 1_555 1_555
O9 C25 1_555 1_555
O10 C27 1_555 1_555
C16 H13 1_555 1_555
C17 C16 1_555 1_555
H14 C17 1_555 1_555
C18 C17 1_555 1_555
H15 C18 1_555 1_555
C19 C18 1_555 1_555
C20 C19 1_555 1_555
C21 O6 1_555 1_555
C22 C21 1_555 1_555
C23 O8 1_555 1_555
C24 O7 1_555 1_555
C25 C24 1_555 1_555
C26 C21 1_555 1_555
H16 C26 1_555 1_555
C27 C22 1_555 1_555
C28 C20 1_555 1_555
H17 C28 1_555 1_555
C29 C19 1_555 1_555
H18 C29 1_555 1_555
C30 C16 1_555 1_555
H19 C30 1_555 1_555
H20 O9 1_555 1_555
C7 C8 1_555 1_555
C8 C9 1_555 1_555
C9 C11 1_555 1_555
C10 C11 1_555 1_555
C12 C13 1_555 1_555
C14 C15 1_555 1_555
C22 C23 1_555 1_555
C23 C24 1_555 1_555
C25 C26 1_555 1_555
C27 C28 1_555 1_555
C29 C30 1_555 1_555

#END
