
#######################################################################
#
#                 Cambridge Crystallographic Data Centre
#                                CCDC 
#
#######################################################################
#
# If this CIF has been generated from an entry in the Cambridge 
# Structural Database, then it will include bibliographic, chemical, 
# crystal, experimental, refinement or atomic coordinate data resulting 
# from the CCDC's data processing and validation procedures.
#
#######################################################################

data_RAMGOC
_chemical_compound_source        'leaves and stems of Schisandra lancifolia'
_chemical_formula_moiety         'C25 H40 O6,H2 O1'
_chemical_name_systematic        'Lancifodilactone F monohydrate'
_chemical_properties_biological  
'minimal cytotoxicity against C8166 cells and antiHIV activity with EC!50!'
_symmetry_cell_setting           monoclinic
_symmetry_space_group_name_H-M   'C 2'
_symmetry_Int_Tables_number      5
_space_group_name_Hall           'C 2y'
loop_
_symmetry_equiv_pos_site_id
_symmetry_equiv_pos_as_xyz
1 x,y,z
2 -x,y,-z
3 1/2+x,1/2+y,z
4 1/2-x,1/2+y,-z
_cell_length_a                   29.832(6)
_cell_length_b                   5.9410(12)
_cell_length_c                   15.108(3)
_cell_angle_alpha                90
_cell_angle_beta                 115.27(3)
_cell_angle_gamma                90
_cell_volume                     2421.39
_exptl_crystal_colour            colorless
_exptl_crystal_description       block
_chemical_melting_point          189-190deg.C
_cell_formula_units_Z            4
_exptl_crystal_recrystallization_method acetone/methanol
loop_
_atom_site_label
_atom_site_type_symbol
_atom_site_fract_x
_atom_site_fract_y
_atom_site_fract_z
C1 C 0.5150(4) 0.471(3) 0.2238(9)
H1 H 0.5233 0.4249 0.1710
H2 H 0.5044 0.3383 0.2474
C2 C 0.5586(6) 0.567(4) 0.3030(10)
H3 H 0.5879 0.5437 0.2915
H4 H 0.5641 0.4992 0.3651
C3 C 0.5476(4) 0.825(3) 0.3037(12)
C4 C 0.4483(5) 0.586(3) 0.3346(8)
C5 C 0.4317(4) 0.647(2) 0.2215(6)
H5 H 0.4186 0.8002 0.2103
C6 C 0.3885(4) 0.480(2) 0.1558(7)
H6 H 0.4013 0.3676 0.1258
H7 H 0.3751 0.4028 0.1957
C7 C 0.3477(4) 0.621(2) 0.0758(7)
H8 H 0.3170 0.5365 0.0518
H9 H 0.3426 0.7571 0.1062
C8 C 0.3572(5) 0.690(2) -0.0109(7)
H10 H 0.3585 0.5504 -0.0445
C9 C 0.4087(4) 0.8130(19) 0.0185(8)
H11 H 0.4103 0.9423 0.0600
C10 C 0.4752(5) 0.633(3) 0.1879(9)
C11 C 0.4161(3) 0.900(2) -0.0728(7)
H12 H 0.4443 1.0019 -0.0497
H13 H 0.4246 0.7724 -0.1027
C12 C 0.3713(4) 1.023(2) -0.1533(8)
H14 H 0.3777 1.0488 -0.2103
H15 H 0.3666 1.1684 -0.1290
C13 C 0.3232(3) 0.878(2) -0.1827(7)
C14 C 0.3174(4) 0.835(2) -0.0856(8)
C15 C 0.2627(4) 0.732(3) -0.1282(9)
H16 H 0.2628 0.5731 -0.1433
H17 H 0.2481 0.7505 -0.0823
C16 C 0.2347(4) 0.871(3) -0.2215(9)
H18 H 0.2134 0.9792 -0.2102
H19 H 0.2139 0.7718 -0.2742
C17 C 0.2715(4) 0.995(2) -0.2515(7)
H20 H 0.2731 1.1519 -0.2303
C18 C 0.3276(5) 0.665(3) -0.2313(9)
H21 H 0.3583 0.5919 -0.1912
H22 H 0.3269 0.6998 -0.2939
H23 H 0.3005 0.5672 -0.2400
C19 C 0.4536(3) 0.658(3) 0.0754(7)
H24 H 0.4805 0.7081 0.0602
H25 H 0.4446 0.5081 0.0480
C20 C 0.2586(4) 0.997(3) -0.3626(8)
H26 H 0.2536 0.8425 -0.3882
C21 C 0.2964(5) 1.122(3) -0.3905(11)
H27 H 0.3279 1.0473 -0.3608
H28 H 0.2998 1.2742 -0.3678
H29 H 0.2847 1.1205 -0.4604
C22 C 0.2088(4) 1.130(2) -0.4078(7)
C23 C 0.3122(4) 1.066(2) -0.0389(8)
H30 H 0.3080 1.0367 0.0196
H31 H 0.2840 1.1461 -0.0848
H32 H 0.3416 1.1540 -0.0230
C24 C 0.4023(6) 0.668(4) 0.3556(10)
H33 H 0.3753 0.5623 0.3258
H34 H 0.4123 0.6657 0.4257
C25 C 0.4643(8) 0.329(4) 0.3646(10)
H35 H 0.4715 0.3068 0.4323
H36 H 0.4932 0.2946 0.3544
H37 H 0.4377 0.2307 0.3250
O1 O 0.5733(4) 0.971(2) 0.3354(6)
O2 O 0.5013(3) 0.8546(16) 0.2236(6)
O3 O 0.4876(4) 0.738(3) 0.3909(6)
H38 H 0.4941 0.7246 0.4491
O4 O 0.1687(4) 1.0431(19) -0.4648(8)
O5 O 0.2115(3) 1.345(2) -0.3859(8)
H39 H 0.2404 1.3785 -0.3507
O6 O 0.3854(7) 0.881(4) 0.3211(10)
H40 H 0.3734 0.9385 0.3553
O7 O 0.1329(3) 1.6052(15) -0.4728(6)
H41 H 0.120(4) 1.522(17) -0.524(6)
H42 H 0.142(4) 1.743(7) -0.470(9)
loop_
_geom_bond_atom_site_label_1
_geom_bond_atom_site_label_2
_geom_bond_site_symmetry_1
_geom_bond_site_symmetry_2
C1 H1 1_555 1_555
H2 C1 1_555 1_555
C2 C1 1_555 1_555
H3 C2 1_555 1_555
H4 C2 1_555 1_555
C3 C2 1_555 1_555
C4 C5 1_555 1_555
C5 H5 1_555 1_555
C6 C5 1_555 1_555
H6 C6 1_555 1_555
H7 C6 1_555 1_555
C7 C6 1_555 1_555
H8 C7 1_555 1_555
H9 C7 1_555 1_555
C8 C7 1_555 1_555
H10 C8 1_555 1_555
C9 C8 1_555 1_555
H11 C9 1_555 1_555
C10 C1 1_555 1_555
C11 C9 1_555 1_555
H12 C11 1_555 1_555
H13 C11 1_555 1_555
C12 C11 1_555 1_555
H14 C12 1_555 1_555
H15 C12 1_555 1_555
C13 C12 1_555 1_555
C14 C8 1_555 1_555
C15 C14 1_555 1_555
H16 C15 1_555 1_555
H17 C15 1_555 1_555
C16 C15 1_555 1_555
H18 C16 1_555 1_555
H19 C16 1_555 1_555
C17 C13 1_555 1_555
H20 C17 1_555 1_555
C18 C13 1_555 1_555
H21 C18 1_555 1_555
H22 C18 1_555 1_555
H23 C18 1_555 1_555
C19 C9 1_555 1_555
H24 C19 1_555 1_555
H25 C19 1_555 1_555
C20 C17 1_555 1_555
H26 C20 1_555 1_555
C21 C20 1_555 1_555
H27 C21 1_555 1_555
H28 C21 1_555 1_555
H29 C21 1_555 1_555
C22 C20 1_555 1_555
C23 C14 1_555 1_555
H30 C23 1_555 1_555
H31 C23 1_555 1_555
H32 C23 1_555 1_555
C24 C4 1_555 1_555
H33 C24 1_555 1_555
H34 C24 1_555 1_555
C25 C4 1_555 1_555
H35 C25 1_555 1_555
H36 C25 1_555 1_555
H37 C25 1_555 1_555
O1 C3 1_555 1_555
O2 C3 1_555 1_555
O3 C4 1_555 1_555
H38 O3 1_555 1_555
O4 C22 1_555 1_555
O5 C22 1_555 1_555
H39 O5 1_555 1_555
O6 C24 1_555 1_555
H40 O6 1_555 1_555
O7 H41 1_555 1_555
H42 O7 1_555 1_555
C5 C10 1_555 1_555
C10 C19 1_555 1_555
C10 O2 1_555 1_555
C13 C14 1_555 1_555
C16 C17 1_555 1_555

#END
