
#######################################################################
#
#                 Cambridge Crystallographic Data Centre
#                                CCDC 
#
#######################################################################
#
# If this CIF has been generated from an entry in the Cambridge 
# Structural Database, then it will include bibliographic, chemical, 
# crystal, experimental, refinement or atomic coordinate data resulting 
# from the CCDC's data processing and validation procedures.
#
#######################################################################

data_RAMHEV
_chemical_formula_moiety         'C18 H15 N1 O3 S1'
_chemical_name_systematic        
'9-(4-methylphenyl)-8,9-dihydro-7H-pyrido[1,2-b][1,2]benzothiazol-7-one 5,5-dioxide'
_symmetry_cell_setting           orthorhombic
_symmetry_space_group_name_H-M   'P 21 21 21'
_symmetry_Int_Tables_number      19
_space_group_name_Hall           'P 2ac 2ab'
loop_
_symmetry_equiv_pos_site_id
_symmetry_equiv_pos_as_xyz
1 x,y,z
2 1/2-x,-y,1/2+z
3 -x,1/2+y,1/2-z
4 1/2+x,1/2-y,-z
_cell_length_a                   8.5607(17)
_cell_length_b                   13.566(3)
_cell_length_c                   13.838(3)
_cell_angle_alpha                90
_cell_angle_beta                 90
_cell_angle_gamma                90
_cell_volume                     1607.07
_exptl_crystal_colour            colorless
_exptl_crystal_description       block
_cell_formula_units_Z            4
loop_
_atom_site_label
_atom_site_type_symbol
_atom_site_fract_x
_atom_site_fract_y
_atom_site_fract_z
S1 S 0.82627(4) 0.95024(2) 0.34220(2)
O1 O 0.67175(15) 0.96073(8) 0.37993(8)
O2 O 0.92349(15) 1.03608(8) 0.34214(9)
O3 O 0.67390(15) 1.02082(9) 0.16501(8)
N1 N 0.81996(18) 0.89932(9) 0.23115(9)
C1 C 0.9228(2) 0.84820(11) 0.39037(11)
C2 C 0.9651(2) 0.83641(14) 0.48720(11)
H1 H 0.9448 0.8861 0.5339
C3 C 1.0377(3) 0.74937(16) 0.51183(13)
H2 H 1.0667 0.7380 0.5771
C4 C 1.0691(3) 0.67769(15) 0.44222(13)
H3 H 1.1184 0.6180 0.4612
C5 C 1.0303(2) 0.69149(13) 0.34613(12)
H4 H 1.0548 0.6429 0.2991
C6 C 0.9545(2) 0.77824(12) 0.31994(11)
C7 C 0.90144(19) 0.80767(11) 0.22375(11)
C8 C 0.92596(19) 0.76644(12) 0.13759(12)
H5 H 0.9806 0.7056 0.1335
C9 C 0.8681(2) 0.81518(13) 0.04720(10)
H6 H 0.9493 0.8638 0.0265
C10 C 0.7183(2) 0.87324(12) 0.06979(11)
H7 H 0.6901 0.9134 0.0126
H8 H 0.6322 0.8260 0.0814
C11 C 0.73281(18) 0.94028(11) 0.15632(11)
C12 C 0.8431(2) 0.74401(13) -0.03590(11)
C13 C 0.8668(2) 0.77517(16) -0.13101(12)
H9 H 0.8945 0.8418 -0.1434
C14 C 0.8504(3) 0.7101(2) -0.20744(14)
H10 H 0.8665 0.7332 -0.2715
C15 C 0.8111(2) 0.6120(2) -0.19258(15)
C16 C 0.7845(2) 0.58132(18) -0.09845(17)
H11 H 0.7552 0.5148 -0.0867
C17 C 0.7998(2) 0.64605(14) -0.02040(13)
H12 H 0.7806 0.6233 0.0434
C18 C 0.8007(3) 0.5403(3) -0.2758(2)
H13 H 0.7224 0.4898 -0.2612
H14 H 0.9026 0.5090 -0.2857
H15 H 0.7704 0.5758 -0.3346
loop_
_geom_bond_atom_site_label_1
_geom_bond_atom_site_label_2
_geom_bond_site_symmetry_1
_geom_bond_site_symmetry_2
S1 O1 1_555 1_555
O2 S1 1_555 1_555
O3 C11 1_555 1_555
N1 S1 1_555 1_555
C1 S1 1_555 1_555
C2 C1 1_555 1_555
H1 C2 1_555 1_555
C3 C2 1_555 1_555
H2 C3 1_555 1_555
C4 C3 1_555 1_555
H3 C4 1_555 1_555
C5 C4 1_555 1_555
H4 C5 1_555 1_555
C6 C1 1_555 1_555
C7 N1 1_555 1_555
C8 C7 1_555 1_555
H5 C8 1_555 1_555
C9 C8 1_555 1_555
H6 C9 1_555 1_555
C10 C9 1_555 1_555
H7 C10 1_555 1_555
H8 C10 1_555 1_555
C11 N1 1_555 1_555
C12 C9 1_555 1_555
C13 C12 1_555 1_555
H9 C13 1_555 1_555
C14 C13 1_555 1_555
H10 C14 1_555 1_555
C15 C14 1_555 1_555
C16 C15 1_555 1_555
H11 C16 1_555 1_555
C17 C12 1_555 1_555
H12 C17 1_555 1_555
C18 C15 1_555 1_555
H13 C18 1_555 1_555
H14 C18 1_555 1_555
H15 C18 1_555 1_555
C5 C6 1_555 1_555
C6 C7 1_555 1_555
C10 C11 1_555 1_555
C16 C17 1_555 1_555

#END
