
#######################################################################
#
#                 Cambridge Crystallographic Data Centre
#                                CCDC 
#
#######################################################################
#
# If this CIF has been generated from an entry in the Cambridge 
# Structural Database, then it will include bibliographic, chemical, 
# crystal, experimental, refinement or atomic coordinate data resulting 
# from the CCDC's data processing and validation procedures.
#
#######################################################################

data_RAMNUP01
_chemical_formula_moiety         'C22 H17 N1'
_chemical_name_systematic        1-methyl-3,4-diphenylisoquinoline
_symmetry_cell_setting           monoclinic
_symmetry_space_group_name_H-M   'C 2/c'
_symmetry_Int_Tables_number      15
_space_group_name_Hall           '-C 2yn'
loop_
_symmetry_equiv_pos_site_id
_symmetry_equiv_pos_as_xyz
1 x,y,z
2 -x,y,1/2-z
3 1/2+x,1/2+y,z
4 1/2-x,1/2+y,1/2-z
5 -x,-y,-z
6 x,-y,1/2+z
7 1/2-x,1/2-y,-z
8 1/2+x,1/2-y,1/2+z
_cell_length_a                   16.4531(9)
_cell_length_b                   12.9636(6)
_cell_length_c                   15.6226(9)
_cell_angle_alpha                90
_cell_angle_beta                 102.578(6)
_cell_angle_gamma                90
_cell_volume                     3252.2
_cell_formula_units_Z            8
loop_
_atom_site_label
_atom_site_type_symbol
_atom_site_fract_x
_atom_site_fract_y
_atom_site_fract_z
N1 N 0.34291(11) 0.27207(14) 0.41878(12)
C1 C 0.40829(15) 0.21148(17) 0.44187(16)
C2 C 0.47487(13) 0.23352(17) 0.51402(16)
C3 C 0.54714(16) 0.1713(2) 0.5357(2)
H1 H 0.5528 0.1147 0.5009
C4 C 0.60833(18) 0.1937(2) 0.6069(2)
H2 H 0.6557 0.1525 0.6203
C5 C 0.60071(17) 0.2777(2) 0.6600(2)
H3 H 0.6425 0.2915 0.7092
C6 C 0.53221(15) 0.3403(2) 0.64059(17)
H4 H 0.5278 0.3962 0.6766
C7 C 0.46810(13) 0.32065(17) 0.56624(15)
C8 C 0.39565(13) 0.38474(16) 0.54184(15)
C9 C 0.33784(13) 0.35974(16) 0.46667(15)
C10 C 0.40622(18) 0.1148(2) 0.3881(2)
H5 H 0.3965 0.0564 0.4222
H6 H 0.4585 0.1066 0.3712
H7 H 0.3623 0.1198 0.3366
C11 C 0.38264(14) 0.47130(17) 0.59996(15)
C12 C 0.43012(16) 0.56114(19) 0.60810(19)
H8 H 0.4720 0.5681 0.5770
C13 C 0.41522(19) 0.6397(2) 0.6621(2)
H9 H 0.4462 0.7002 0.6659
C14 C 0.3550(2) 0.6295(2) 0.71042(19)
H10 H 0.3458 0.6824 0.7474
C15 C 0.30884(17) 0.5409(2) 0.70356(17)
H11 H 0.2683 0.5334 0.7364
C16 C 0.32186(14) 0.46249(19) 0.64843(16)
H12 H 0.2895 0.4031 0.6438
C17 C 0.26337(14) 0.42395(18) 0.42883(14)
C18 C 0.26712(17) 0.5304(2) 0.42572(18)
H13 H 0.3164 0.5640 0.4511
C19 C 0.1985(2) 0.5877(2) 0.3853(2)
H14 H 0.2019 0.6593 0.3837
C20 C 0.1252(2) 0.5387(3) 0.3475(2)
H15 H 0.0791 0.5772 0.3202
C21 C 0.12017(17) 0.4334(3) 0.34997(19)
H16 H 0.0705 0.4004 0.3248
C22 C 0.18901(15) 0.3759(2) 0.39005(17)
H17 H 0.1854 0.3043 0.3910
loop_
_geom_bond_atom_site_label_1
_geom_bond_atom_site_label_2
_geom_bond_site_symmetry_1
_geom_bond_site_symmetry_2
N1 C1 1_555 1_555
C1 C2 1_555 1_555
C2 C3 1_555 1_555
C3 H1 1_555 1_555
C4 C3 1_555 1_555
H2 C4 1_555 1_555
C5 C4 1_555 1_555
H3 C5 1_555 1_555
C6 C5 1_555 1_555
H4 C6 1_555 1_555
C7 C2 1_555 1_555
C8 C7 1_555 1_555
C9 N1 1_555 1_555
C10 C1 1_555 1_555
H5 C10 1_555 1_555
H6 C10 1_555 1_555
H7 C10 1_555 1_555
C11 C8 1_555 1_555
C12 C11 1_555 1_555
H8 C12 1_555 1_555
C13 C12 1_555 1_555
H9 C13 1_555 1_555
C14 C13 1_555 1_555
H10 C14 1_555 1_555
C15 C14 1_555 1_555
H11 C15 1_555 1_555
C16 C11 1_555 1_555
H12 C16 1_555 1_555
C17 C9 1_555 1_555
C18 C17 1_555 1_555
H13 C18 1_555 1_555
C19 C18 1_555 1_555
H14 C19 1_555 1_555
C20 C19 1_555 1_555
H15 C20 1_555 1_555
C21 C20 1_555 1_555
H16 C21 1_555 1_555
C22 C17 1_555 1_555
H17 C22 1_555 1_555
C6 C7 1_555 1_555
C8 C9 1_555 1_555
C15 C16 1_555 1_555
C21 C22 1_555 1_555

#END
