
#######################################################################
#
#                 Cambridge Crystallographic Data Centre
#                                CCDC 
#
#######################################################################
#
# If this CIF has been generated from an entry in the Cambridge 
# Structural Database, then it will include bibliographic, chemical, 
# crystal, experimental, refinement or atomic coordinate data resulting 
# from the CCDC's data processing and validation procedures.
#
#######################################################################

data_RAMPIF
_chemical_formula_moiety         
'C37 H45 N1 O14,C12 H14 N2 2+,2(F6 P1 1-),3(C3 H6 O1)'
_chemical_name_systematic        
"2,5,8,11,14,16,19,22,25,28,30,34-Dodecaoxa-1,15(1,3,5)-dibenzena-32(2,6)-pyridinabicyclo(13.13.7)pentatriacontaphane-31,33-dione N,N'-dimethyl-4,4'-bipyridinium clathrate bis(hexafluorophosphate) acetone solvate"
_symmetry_cell_setting           monoclinic
_symmetry_space_group_name_H-M   'P 21/c'
_symmetry_Int_Tables_number      14
_space_group_name_Hall           '-P 2ybc'
loop_
_symmetry_equiv_pos_site_id
_symmetry_equiv_pos_as_xyz
1 x,y,z
2 -x,1/2+y,1/2-z
3 -x,-y,-z
4 x,1/2-y,1/2+z
_cell_length_a                   13.9159(17)
_cell_length_b                   21.217(2)
_cell_length_c                   21.768(2)
_cell_angle_alpha                90
_cell_angle_beta                 95.423(9)
_cell_angle_gamma                90
_cell_volume                     6398.31
_exptl_crystal_colour            yellow
_exptl_crystal_description       prism
_cell_formula_units_Z            4
_exptl_crystal_recrystallization_method acetone/pentane
loop_
_atom_site_label
_atom_site_type_symbol
_atom_site_fract_x
_atom_site_fract_y
_atom_site_fract_z
P1 P 0.17231(14) 0.12706(9) 0.1836(1)
F1 F 0.1358(7) 0.1007(7) 0.1212(4)
F2 F 0.1772(6) 0.0597(3) 0.2021(7)
F3 F 0.0652(4) 0.1304(3) 0.1935(5)
F4 F 0.1693(5) 0.1948(3) 0.1628(6)
F5 F 0.2765(5) 0.1267(4) 0.1622(5)
F6 F 0.2164(9) 0.1513(6) 0.2423(3)
P2 P 0.10460(13) 0.19166(9) -0.08845(9)
F7 F 0.2142(3) 0.2011(2) -0.0629(3)
F8 F -0.0057(3) 0.1835(3) -0.1108(3)
F9 F 0.0990(4) 0.1356(3) -0.0426(3)
F10 F 0.1122(4) 0.2452(3) -0.1366(3)
F11 F 0.0739(5) 0.2392(4) -0.0412(4)
F12 F 0.1344(6) 0.1431(4) -0.1358(4)
C1 C 0.6102(5) 0.0318(3) -0.0375(3)
C2 C 0.5619(5) 0.0709(3) -0.0886(4)
O1 O 0.5163(3) 0.1213(2) -0.0683(2)
C3 C 0.4608(5) 0.1594(3) -0.1150(3)
C4 C 0.4845(5) 0.2279(3) -0.1057(3)
C5 C 0.5801(5) 0.2479(3) -0.1017(3)
C6 C 0.5983(5) 0.3125(3) -0.0973(3)
C7 C 0.5236(5) 0.3554(3) -0.0950(3)
C8 C 0.4293(5) 0.3343(3) -0.0987(3)
C9 C 0.4096(5) 0.2707(3) -0.1039(3)
O2 O 0.3606(3) 0.3801(2) -0.0957(2)
C10 C 0.2619(5) 0.3596(3) -0.1038(3)
C11 C 0.1973(5) 0.4147(3) -0.0976(3)
O3 O 0.1972(3) 0.4374(2) -0.0360(2)
C12 C 0.2635(5) 0.4884(3) -0.0213(3)
C13 C 0.2554(5) 0.5106(3) 0.0427(3)
O4 O 0.2930(4) 0.4636(2) 0.0851(2)
C14 C 0.3012(6) 0.4849(4) 0.1468(4)
C15 C 0.3378(6) 0.4326(4) 0.1890(4)
O5 O 0.2640(3) 0.3868(2) 0.1926(2)
C16 C 0.2758(5) 0.3467(4) 0.2445(3)
C17 C 0.3376(5) 0.2896(4) 0.2351(3)
O6 O 0.4365(3) 0.3103(2) 0.2368(2)
C18 C 0.5052(5) 0.2651(4) 0.2299(3)
C19 C 0.4847(5) 0.2019(4) 0.2175(3)
C20 C 0.5617(6) 0.1610(3) 0.2106(3)
C21 C 0.6563(5) 0.1820(3) 0.2174(3)
C22 C 0.6745(5) 0.2446(3) 0.2312(3)
C23 C 0.5989(5) 0.2866(3) 0.2374(3)
O7 O 0.7652(3) 0.2708(2) 0.2401(2)
C24 C 0.8452(5) 0.2301(3) 0.2322(3)
C25 C 0.9356(5) 0.2689(4) 0.2393(3)
O8 O 0.9326(3) 0.3138(2) 0.1903(2)
C26 C 1.0231(5) 0.3446(4) 0.1900(3)
C27 C 1.0151(5) 0.3964(4) 0.1440(3)
O9 O 0.9923(3) 0.3704(2) 0.0833(2)
C28 C 0.9880(5) 0.4168(3) 0.0367(3)
C29 C 0.9720(5) 0.3869(3) -0.0256(3)
O10 O 0.8801(3) 0.3572(2) -0.0323(2)
C30 C 0.8597(5) 0.3329(3) -0.0928(3)
C31 C 0.7681(4) 0.2950(3) -0.0970(3)
O11 O 0.6900(3) 0.3378(2) -0.0930(2)
C32 C 0.5399(6) 0.0920(4) 0.1961(4)
O12 O 0.5675(4) 0.0773(2) 0.1351(2)
C33 C 0.6257(6) 0.0281(4) 0.1306(4)
C34 C 0.6412(5) 0.0120(3) 0.0650(3)
N1 N 0.5980(4) 0.0477(2) 0.0200(3)
C35 C 0.6998(5) -0.0394(3) 0.0540(4)
C36 C 0.7130(5) -0.0542(3) -0.0063(4)
C37 C 0.6663(5) -0.0192(3) -0.0528(4)
O13 O 0.6639(4) -0.0022(3) 0.1733(3)
O14 O 0.5641(4) 0.0575(3) -0.1419(3)
H1 H 0.4765(5) 0.1460(3) -0.1569(3)
H2 H 0.3903(5) 0.1531(3) -0.1114(3)
H3 H 0.6343(5) 0.2170(3) -0.1024(3)
H4 H 0.5379(5) 0.4014(3) -0.0907(3)
H5 H 0.3415(5) 0.2552(3) -0.1060(3)
H6 H 0.2481(5) 0.3397(3) -0.1453(3)
H7 H 0.2501(5) 0.3282(3) -0.0710(3)
H8 H 0.2212(5) 0.4494(3) -0.1233(3)
H9 H 0.1298(5) 0.4033(3) -0.1137(3)
H10 H 0.2484(5) 0.5237(3) -0.0511(3)
H11 H 0.3308(5) 0.4732(3) -0.0248(3)
H12 H 0.2929(5) 0.5505(3) 0.0503(3)
H13 H 0.1860(5) 0.5184(3) 0.0486(3)
H14 H 0.3463(6) 0.5217(4) 0.1514(4)
H15 H 0.2361(6) 0.4981(4) 0.1580(4)
H16 H 0.3583(6) 0.4493(4) 0.2311(4)
H17 H 0.3942(6) 0.4125(4) 0.1715(4)
H18 H 0.3080(5) 0.3714(4) 0.2799(3)
H19 H 0.2107(5) 0.3326(4) 0.2548(3)
H20 H 0.3315(5) 0.2581(4) 0.2686(3)
H21 H 0.3167(5) 0.2700(4) 0.1942(3)
H22 H 0.4166(5) 0.1863(4) 0.2143(3)
H23 H 0.7108(5) 0.1525(3) 0.2117(3)
H24 H 0.6128(5) 0.3319(3) 0.2473(3)
H25 H 0.8481(5) 0.1954(3) 0.2634(3)
H26 H 0.8380(5) 0.2117(3) 0.1898(3)
H27 H 0.9940(5) 0.2415(4) 0.2387(3)
H28 H 0.9380(5) 0.2918(4) 0.2796(3)
H29 H 1.0424(5) 0.3620(4) 0.2321(3)
H30 H 1.0729(5) 0.3138(4) 0.1788(3)
H31 H 1.0773(5) 0.4202(4) 0.1455(3)
H32 H 0.9621(5) 0.4256(4) 0.1536(3)
H33 H 1.0497(5) 0.4413(3) 0.0402(3)
H34 H 0.9329(5) 0.4459(3) 0.0422(3)
H35 H 0.9748(5) 0.4195(3) -0.0585(3)
H36 H 1.0234(5) 0.3546(3) -0.0298(3)
H37 H 0.8517(5) 0.3685(3) -0.1230(3)
H38 H 0.9145(5) 0.3055(3) -0.1029(3)
H39 H 0.7593(4) 0.2719(3) -0.1372(3)
H40 H 0.7706(4) 0.2640(3) -0.0622(3)
H41 H 0.5785(6) 0.0652(4) 0.2271(4)
H42 H 0.4696(6) 0.0834(4) 0.1980(4)
H43 H 0.7328(5) -0.0641(3) 0.0890(4)
H44 H 0.7551(5) -0.0903(3) -0.0160(4)
H45 H 0.6715(5) -0.0299(3) -0.0971(4)
C38 C 0.6167(5) 0.2522(3) 0.0607(3)
C39 C 0.5111(5) 0.2636(3) 0.0588(3)
C40 C 0.4452(5) 0.2147(3) 0.0587(3)
C41 C 0.3485(5) 0.2273(3) 0.0594(3)
N2 N 0.3163(4) 0.2865(3) 0.0594(3)
C42 C 0.3776(5) 0.3350(3) 0.0581(3)
C43 C 0.4748(5) 0.3248(3) 0.0577(3)
C44 C 0.2117(5) 0.3002(4) 0.0630(3)
C45 C 0.6836(5) 0.3007(3) 0.0717(3)
C46 C 0.7811(5) 0.2882(3) 0.0728(3)
N3 N 0.8116(4) 0.2288(3) 0.0648(3)
C47 C 0.7488(5) 0.1810(3) 0.0551(3)
C48 C 0.6518(5) 0.1919(3) 0.0530(3)
C49 C 0.9165(5) 0.2158(3) 0.0650(3)
H46 H 0.4687(5) 0.1702(3) 0.0583(3)
H47 H 0.3013(5) 0.1918(3) 0.0592(3)
H48 H 0.3522(5) 0.3791(3) 0.0581(3)
H49 H 0.5201(5) 0.3612(3) 0.0555(3)
H50 H 0.2010(5) 0.3468(4) 0.0633(3)
H51 H 0.1898(5) 0.2813(4) 0.1015(3)
H52 H 0.1740(5) 0.2812(4) 0.0262(3)
H53 H 0.6606(5) 0.3446(3) 0.0785(3)
H54 H 0.8292(5) 0.3231(3) 0.0800(3)
H55 H 0.7736(5) 0.1373(3) 0.0497(3)
H56 H 0.6052(5) 0.1562(3) 0.0459(3)
H57 H 0.9264(5) 0.1697(3) 0.0584(3)
H58 H 0.9509(5) 0.2286(3) 0.1055(3)
H59 H 0.9428(5) 0.2401(3) 0.0310(3)
C50 C 0.6465(6) 0.4543(3) 0.1675(4)
O15 O 0.6031(4) 0.4382(2) 0.1200(2)
C51 C 0.6029(6) 0.4975(4) 0.2121(4)
C52 C 0.7482(5) 0.4318(4) 0.1849(4)
H60 H 0.6501(6) 0.5050(4) 0.2490(4)
H61 H 0.5860(6) 0.5386(4) 0.1913(4)
H62 H 0.5432(6) 0.4776(4) 0.2255(4)
H63 H 0.7727(5) 0.4494(4) 0.2261(4)
H64 H 0.7901(5) 0.4466(4) 0.1530(4)
H65 H 0.7495(5) 0.3847(4) 0.1868(4)
C53 C -0.1779(6) 0.1018(4) -0.0885(4)
O16 O -0.2291(4) 0.1401(3) -0.0668(3)
C54 C -0.1133(6) 0.0594(4) -0.0484(4)
C55 C -0.1793(7) 0.0944(4) -0.1560(4)
H66 H -0.0772(6) 0.0310(4) -0.0747(4)
H67 H -0.1529(6) 0.0335(4) -0.0218(4)
H68 H -0.0665(6) 0.0855(4) -0.0216(4)
H69 H -0.1330(7) 0.0607(4) -0.1659(4)
H70 H -0.2460(7) 0.0827(4) -0.1733(4)
H71 H -0.1604(7) 0.1352(4) -0.1744(4)
C56 C -0.1168(6) 0.0504(4) 0.1768(4)
O17 O -0.1657(4) 0.0931(3) 0.1524(3)
C57 C -0.0615(6) 0.0082(4) 0.1409(4)
C58 C -0.1133(7) 0.0391(5) 0.2438(5)
H72 H -0.0705(7) 0.0022(5) 0.2553(5)
H73 H -0.1797(7) 0.0304(5) 0.2556(5)
H74 H -0.0869(7) 0.0775(5) 0.2660(5)
H75 H -0.0267(6) -0.0240(4) 0.1683(4)
H76 H -0.1061(6) -0.0136(4) 0.1090(4)
H77 H -0.0136(6) 0.0338(4) 0.1202(4)
loop_
_geom_bond_atom_site_label_1
_geom_bond_atom_site_label_2
_geom_bond_site_symmetry_1
_geom_bond_site_symmetry_2
P1 F1 1_555 1_555
F2 P1 1_555 1_555
F3 P1 1_555 1_555
F4 P1 1_555 1_555
F5 P1 1_555 1_555
F6 P1 1_555 1_555
P2 F7 1_555 1_555
F8 P2 1_555 1_555
F9 P2 1_555 1_555
F10 P2 1_555 1_555
F11 P2 1_555 1_555
F12 P2 1_555 1_555
C1 C2 1_555 1_555
C2 O1 1_555 1_555
O1 C3 1_555 1_555
C3 C4 1_555 1_555
C4 C5 1_555 1_555
C5 C6 1_555 1_555
C6 C7 1_555 1_555
C7 C8 1_555 1_555
C8 C9 1_555 1_555
C9 C4 1_555 1_555
O2 C8 1_555 1_555
C10 O2 1_555 1_555
C11 C10 1_555 1_555
O3 C11 1_555 1_555
C12 O3 1_555 1_555
C13 C12 1_555 1_555
O4 C13 1_555 1_555
C14 O4 1_555 1_555
C15 C14 1_555 1_555
O5 C15 1_555 1_555
C16 O5 1_555 1_555
C17 C16 1_555 1_555
O6 C17 1_555 1_555
C18 O6 1_555 1_555
C19 C18 1_555 1_555
C20 C19 1_555 1_555
C21 C20 1_555 1_555
C22 C21 1_555 1_555
C23 C18 1_555 1_555
O7 C22 1_555 1_555
C24 O7 1_555 1_555
C25 C24 1_555 1_555
O8 C25 1_555 1_555
C26 O8 1_555 1_555
C27 C26 1_555 1_555
O9 C27 1_555 1_555
C28 O9 1_555 1_555
C29 C28 1_555 1_555
O10 C29 1_555 1_555
C30 O10 1_555 1_555
C31 C30 1_555 1_555
O11 C6 1_555 1_555
C32 C20 1_555 1_555
O12 C32 1_555 1_555
C33 O12 1_555 1_555
C34 C33 1_555 1_555
N1 C1 1_555 1_555
C35 C34 1_555 1_555
C36 C35 1_555 1_555
C37 C1 1_555 1_555
O13 C33 1_555 1_555
O14 C2 1_555 1_555
C38 C39 1_555 1_555
C39 C40 1_555 1_555
C40 C41 1_555 1_555
C41 N2 1_555 1_555
N2 C42 1_555 1_555
C42 C43 1_555 1_555
C43 C39 1_555 1_555
C44 N2 1_555 1_555
C45 C38 1_555 1_555
C46 C45 1_555 1_555
N3 C46 1_555 1_555
C47 N3 1_555 1_555
C48 C38 1_555 1_555
C49 N3 1_555 1_555
C50 O15 1_555 1_555
C51 C50 1_555 1_555
C52 C50 1_555 1_555
C53 O16 1_555 1_555
C54 C53 1_555 1_555
C55 C53 1_555 1_555
C56 O17 1_555 1_555
C57 C56 1_555 1_555
C58 C56 1_555 1_555
H1 C3 1_555 1_555
H2 C3 1_555 1_555
H3 C5 1_555 1_555
H4 C7 1_555 1_555
H5 C9 1_555 1_555
H6 C10 1_555 1_555
H7 C10 1_555 1_555
H8 C11 1_555 1_555
H9 C11 1_555 1_555
H10 C12 1_555 1_555
H11 C12 1_555 1_555
H12 C13 1_555 1_555
H13 C13 1_555 1_555
H14 C14 1_555 1_555
H15 C14 1_555 1_555
H16 C15 1_555 1_555
H17 C15 1_555 1_555
H18 C16 1_555 1_555
H19 C16 1_555 1_555
H20 C17 1_555 1_555
H21 C17 1_555 1_555
H22 C19 1_555 1_555
H23 C21 1_555 1_555
H24 C23 1_555 1_555
H25 C24 1_555 1_555
H26 C24 1_555 1_555
H27 C25 1_555 1_555
H28 C25 1_555 1_555
H29 C26 1_555 1_555
H30 C26 1_555 1_555
H31 C27 1_555 1_555
H32 C27 1_555 1_555
H33 C28 1_555 1_555
H34 C28 1_555 1_555
H35 C29 1_555 1_555
H36 C29 1_555 1_555
H37 C30 1_555 1_555
H38 C30 1_555 1_555
H39 C31 1_555 1_555
H40 C31 1_555 1_555
H41 C32 1_555 1_555
H42 C32 1_555 1_555
H43 C35 1_555 1_555
H44 C36 1_555 1_555
H45 C37 1_555 1_555
H46 C40 1_555 1_555
H47 C41 1_555 1_555
H48 C42 1_555 1_555
H49 C43 1_555 1_555
H50 C44 1_555 1_555
H51 C44 1_555 1_555
H52 C44 1_555 1_555
H53 C45 1_555 1_555
H54 C46 1_555 1_555
H55 C47 1_555 1_555
H56 C48 1_555 1_555
H57 C49 1_555 1_555
H58 C49 1_555 1_555
H59 C49 1_555 1_555
H60 C51 1_555 1_555
H61 C51 1_555 1_555
H62 C51 1_555 1_555
H63 C52 1_555 1_555
H64 C52 1_555 1_555
H65 C52 1_555 1_555
H66 C54 1_555 1_555
H67 C54 1_555 1_555
H68 C54 1_555 1_555
H69 C55 1_555 1_555
H70 C55 1_555 1_555
H71 C55 1_555 1_555
H72 C58 1_555 1_555
H73 C58 1_555 1_555
H74 C58 1_555 1_555
H75 C57 1_555 1_555
H76 C57 1_555 1_555
H77 C57 1_555 1_555
C22 C23 1_555 1_555
C31 O11 1_555 1_555
C34 N1 1_555 1_555
C36 C37 1_555 1_555
C47 C48 1_555 1_555

#END
