
#######################################################################
#
#                 Cambridge Crystallographic Data Centre
#                                CCDC 
#
#######################################################################
#
# If this CIF has been generated from an entry in the Cambridge 
# Structural Database, then it will include bibliographic, chemical, 
# crystal, experimental, refinement or atomic coordinate data resulting 
# from the CCDC's data processing and validation procedures.
#
#######################################################################

data_RAMQAA
_chemical_formula_moiety         'C39 H36 O4 Se1'
_chemical_name_systematic        
'diisopropyl 5-(3-methylphenyl)-4-((3-methylphenyl)ethynyl)-1,3-dihydro-2H-benzo[b]indeno[5,4-d]selenophene-2,2-dicarboxylate'
_symmetry_cell_setting           monoclinic
_symmetry_space_group_name_H-M   'P 21/n'
_symmetry_Int_Tables_number      14
_space_group_name_Hall           '-P 2yn'
loop_
_symmetry_equiv_pos_site_id
_symmetry_equiv_pos_as_xyz
1 x,y,z
2 1/2-x,1/2+y,1/2-z
3 -x,-y,-z
4 1/2+x,1/2-y,1/2+z
_cell_length_a                   14.263(2)
_cell_length_b                   8.8263(13)
_cell_length_c                   27.540(4)
_cell_angle_alpha                90
_cell_angle_beta                 97.494(2)
_cell_angle_gamma                90
_cell_volume                     3437.38
_exptl_crystal_colour            colorless
_exptl_crystal_description       block
_cell_formula_units_Z            4
loop_
_atom_site_label
_atom_site_type_symbol
_atom_site_fract_x
_atom_site_fract_y
_atom_site_fract_z
C1 C 0.0036(3) 1.2305(5) 0.12499(17)
C2 C -0.0774(4) 1.3065(6) 0.1351(2)
H1 H -0.1363 1.2834 0.1181
C3 C -0.0681(4) 1.4154(6) 0.1704(2)
H2 H -0.1212 1.4671 0.1779
C4 C 0.0199(4) 1.4492(6) 0.1951(2)
H3 H 0.0257 1.5246 0.2189
C5 C 0.0996(4) 1.3724(5) 0.18492(19)
H4 H 0.1584 1.3971 0.2018
C6 C 0.0929(3) 1.2597(5) 0.15002(16)
C7 C 0.1672(3) 1.1616(4) 0.13570(14)
C8 C 0.2631(3) 1.1553(5) 0.15475(14)
C9 C 0.3211(3) 1.0472(5) 0.13614(16)
C10 C 0.2839(3) 0.9467(5) 0.09956(17)
C11 C 0.3355(4) 0.8211(7) 0.0771(2)
H5 H 0.3580 0.7451 0.1013
H6 H 0.3887 0.8601 0.0623
C12 C 0.2569(3) 0.7538(7) 0.0369(2)
C13 C 0.1622(4) 0.8318(7) 0.0436(2)
H7 H 0.1332 0.8762 0.0131
H8 H 0.1184 0.7601 0.0550
C14 C 0.1894(4) 0.9523(6) 0.08138(17)
C15 C 0.1317(3) 1.0581(5) 0.09919(16)
C16 C 0.3082(3) 1.2563(4) 0.19435(15)
C17 C 0.3574(3) 1.3833(5) 0.18365(17)
H9 H 0.3590 1.4095 0.1511
C18 C 0.4041(3) 1.4727(5) 0.2200(2)
C19 C 0.4022(4) 1.4336(6) 0.2678(2)
H10 H 0.4348 1.4921 0.2926
C20 C 0.3526(4) 1.3083(6) 0.27961(17)
H11 H 0.3507 1.2828 0.3122
C21 C 0.3056(3) 1.2208(5) 0.24286(16)
H12 H 0.2717 1.1365 0.2509
C22 C 0.4572(6) 1.6135(8) 0.2064(3)
H13 H 0.4135 1.6833 0.1891
H14 H 0.5040 1.5848 0.1860
H15 H 0.4877 1.6607 0.2357
C23 C 0.4206(4) 1.0395(5) 0.15394(16)
C24 C 0.5034(4) 1.0346(5) 0.16688(17)
C25 C 0.6036(4) 1.0379(6) 0.18149(18)
C26 C 0.6431(4) 1.1474(7) 0.2135(2)
H16 H 0.6045 1.2169 0.2267
C27 C 0.7386(6) 1.1538(10) 0.2257(3)
H17 H 0.7655 1.2277 0.2472
C28 C 0.7935(5) 1.0534(11) 0.2065(3)
H18 H 0.8586 1.0588 0.2157
C29 C 0.7594(5) 0.9440(8) 0.1746(3)
C30 C 0.6608(4) 0.9374(6) 0.1623(2)
H19 H 0.6344 0.8632 0.1408
C31 C 0.8212(5) 0.8352(10) 0.1533(3)
H20 H 0.8373 0.8745 0.1230
H21 H 0.7886 0.7405 0.1474
H22 H 0.8778 0.8199 0.1757
C32 C 0.2475(4) 0.5870(8) 0.0423(2)
C33 C 0.1695(6) 0.3691(7) 0.0040(3)
H23 H 0.1564 0.3373 0.0366
C34 C 0.0827(5) 0.3507(8) -0.0318(3)
H24 H 0.0932 0.3928 -0.0628
H25 H 0.0310 0.4026 -0.0200
H26 H 0.0678 0.2450 -0.0358
C35 C 0.2507(6) 0.2878(8) -0.0086(4)
H27 H 0.2676 0.3264 -0.0389
H28 H 0.2357 0.1821 -0.0122
H29 H 0.3028 0.3010 0.0168
C36 C 0.2853(4) 0.7862(6) -0.0128(2)
C37 C 0.4016(6) 0.7274(12) -0.0644(4)
H30 H 0.3839 0.8252 -0.0797
C38 C 0.366(2) 0.586(3) -0.1002(8)
H31 H 0.3838 0.6028 -0.1321
H32 H 0.2983 0.5772 -0.1027
H33 H 0.3944 0.4936 -0.0868
C39 C 0.5078(11) 0.711(5) -0.0526(8)
H34 H 0.5226 0.6125 -0.0388
H35 H 0.5318 0.7874 -0.0294
H36 H 0.5365 0.7223 -0.0820
O1 O 0.2837(4) 0.5136(7) 0.07564(18)
O2 O 0.1925(3) 0.5306(4) 0.00486(13)
O3 O 0.2463(3) 0.8741(5) -0.04202(18)
O4 O 0.3600(3) 0.7059(4) -0.02062(13)
Se1 Se 0.00172(3) 1.07296(6) 0.079059(19)
C40? C 0.430(6) 0.613(7) -0.079(2)
H37? H 0.4663 0.5590 -0.0532
H38? H 0.4683 0.6344 -0.1046
H39? H 0.3769 0.5512 -0.0928
C41? C 0.474(4) 0.867(8) -0.0437(10)
H40? H 0.5215 0.8286 -0.0189
H41? H 0.4386 0.9452 -0.0301
H42? H 0.5035 0.9077 -0.0702
loop_
_geom_bond_atom_site_label_1
_geom_bond_atom_site_label_2
_geom_bond_site_symmetry_1
_geom_bond_site_symmetry_2
C1 C2 1_555 1_555
C2 H1 1_555 1_555
C3 C2 1_555 1_555
H2 C3 1_555 1_555
C4 C3 1_555 1_555
H3 C4 1_555 1_555
C5 C4 1_555 1_555
H4 C5 1_555 1_555
C6 C1 1_555 1_555
C7 C6 1_555 1_555
C8 C7 1_555 1_555
C9 C8 1_555 1_555
C10 C9 1_555 1_555
C11 C10 1_555 1_555
H5 C11 1_555 1_555
H6 C11 1_555 1_555
C12 C11 1_555 1_555
C13 C12 1_555 1_555
H7 C13 1_555 1_555
H8 C13 1_555 1_555
C14 C10 1_555 1_555
C15 C7 1_555 1_555
C16 C8 1_555 1_555
C17 C16 1_555 1_555
H9 C17 1_555 1_555
C18 C17 1_555 1_555
C19 C18 1_555 1_555
H10 C19 1_555 1_555
C20 C19 1_555 1_555
H11 C20 1_555 1_555
C21 C16 1_555 1_555
H12 C21 1_555 1_555
C22 C18 1_555 1_555
H13 C22 1_555 1_555
H14 C22 1_555 1_555
H15 C22 1_555 1_555
C23 C9 1_555 1_555
C24 C23 1_555 1_555
C25 C24 1_555 1_555
C26 C25 1_555 1_555
H16 C26 1_555 1_555
C27 C26 1_555 1_555
H17 C27 1_555 1_555
C28 C27 1_555 1_555
H18 C28 1_555 1_555
C29 C28 1_555 1_555
C30 C25 1_555 1_555
H19 C30 1_555 1_555
C31 C29 1_555 1_555
H20 C31 1_555 1_555
H21 C31 1_555 1_555
H22 C31 1_555 1_555
C32 C12 1_555 1_555
C33 H23 1_555 1_555
C34 C33 1_555 1_555
H24 C34 1_555 1_555
H25 C34 1_555 1_555
H26 C34 1_555 1_555
C35 C33 1_555 1_555
H27 C35 1_555 1_555
H28 C35 1_555 1_555
H29 C35 1_555 1_555
C36 C12 1_555 1_555
C37 H30 1_555 1_555
C38 C37 1_555 1_555
H31 C38 1_555 1_555
H32 C38 1_555 1_555
H33 C38 1_555 1_555
C39 C37 1_555 1_555
H34 C39 1_555 1_555
H35 C39 1_555 1_555
H36 C39 1_555 1_555
O1 C32 1_555 1_555
O2 C32 1_555 1_555
O3 C36 1_555 1_555
O4 C36 1_555 1_555
Se1 C1 1_555 1_555
C5 C6 1_555 1_555
C13 C14 1_555 1_555
C14 C15 1_555 1_555
C15 Se1 1_555 1_555
C20 C21 1_555 1_555
C29 C30 1_555 1_555
C33 O2 1_555 1_555
C37 O4 1_555 1_555

#END
