
#######################################################################
#
#                 Cambridge Crystallographic Data Centre
#                                CCDC 
#
#######################################################################
#
# If this CIF has been generated from an entry in the Cambridge 
# Structural Database, then it will include bibliographic, chemical, 
# crystal, experimental, refinement or atomic coordinate data resulting 
# from the CCDC's data processing and validation procedures.
#
#######################################################################

data_RAMREF
_chemical_formula_moiety         'C21 H19 F1 N2 O1'
_chemical_name_systematic        
2-(1-(4-fluorophenyl)cyclobutyl)-N-(quinolin-8-yl)acetamide
_symmetry_cell_setting           monoclinic
_symmetry_space_group_name_H-M   'P 21/c'
_symmetry_Int_Tables_number      14
_space_group_name_Hall           '-P 2ybc'
loop_
_symmetry_equiv_pos_site_id
_symmetry_equiv_pos_as_xyz
1 x,y,z
2 -x,1/2+y,1/2-z
3 -x,-y,-z
4 x,1/2-y,1/2+z
_cell_length_a                   9.4896(12)
_cell_length_b                   14.7995(18)
_cell_length_c                   12.088(2)
_cell_angle_alpha                90
_cell_angle_beta                 91.000(11)
_cell_angle_gamma                90
_cell_volume                     1697.4
_exptl_crystal_colour            colorless
_cell_formula_units_Z            4
_exptl_crystal_recrystallization_method 'ethyl acetate/cyclohexane'
loop_
_atom_site_label
_atom_site_type_symbol
_atom_site_fract_x
_atom_site_fract_y
_atom_site_fract_z
F1 F -0.11704(10) 0.15061(6) -0.03989(9)
N1 N 0.38057(13) 0.40016(9) -0.03311(11)
O1 O 0.25823(12) 0.52231(7) 0.02470(10)
C1 C 0.47355(14) 0.35563(9) -0.20703(13)
N2 N 0.54732(12) 0.29197(8) -0.14844(11)
C2 C 0.32122(14) 0.45243(10) 0.04597(14)
C3 C 0.38306(14) 0.41419(9) -0.14722(13)
C4 C 0.19655(14) 0.39717(10) 0.21811(13)
C5 C 0.01875(14) 0.36104(10) 0.06711(14)
H1 H 0.0086 0.4241 0.0544
C6 C 0.11057(14) 0.33144(9) 0.15029(13)
C7 C -0.04202(15) 0.21092(10) 0.02325(14)
C8 C 0.12128(16) 0.48432(11) 0.25734(14)
H2 H 0.1522 0.5398 0.2189
H3 H 0.0172 0.4796 0.2567
C9 C 0.33789(15) 0.41715(10) 0.16208(13)
H4 H 0.3907 0.4621 0.2071
H5 H 0.3945 0.3610 0.1606
C10 C 0.48409(15) 0.36492(10) -0.32267(14)
C11 C 0.12181(15) 0.23885(10) 0.16780(14)
H6 H 0.1835 0.2171 0.2245
C12 C 0.31624(18) 0.48573(11) -0.31857(16)
H7 H 0.2615 0.5301 -0.3564
C13 C -0.05815(15) 0.30113(11) 0.00252(14)
H8 H -0.1202 0.3220 -0.0545
C14 C 0.30500(16) 0.47784(10) -0.20301(15)
H9 H 0.2435 0.5165 -0.1639
C15 C 0.04528(16) 0.17775(10) 0.10466(15)
H10 H 0.0531 0.1146 0.1174
C16 C 0.63145(16) 0.23882(11) -0.20399(16)
H11 H 0.6835 0.1945 -0.1637
C17 C 0.40275(17) 0.43187(11) -0.37734(15)
H12 H 0.4087 0.4391 -0.4552
C18 C 0.22473(17) 0.37329(11) 0.34152(14)
H13 H 0.1581 0.3283 0.3714
H14 H 0.3235 0.3559 0.3583
C19 C 0.57604(17) 0.30573(12) -0.37722(15)
H15 H 0.5865 0.3098 -0.4551
C20 C 0.64954(18) 0.24305(12) -0.31842(17)
H16 H 0.7121 0.2028 -0.3542
C21 C 0.18970(18) 0.47159(11) 0.37283(15)
H17 H 0.1226 0.4769 0.4343
H18 H 0.2738 0.5099 0.3862
H19 H 0.4315(16) 0.3545(11) -0.0126(14)
loop_
_geom_bond_atom_site_label_1
_geom_bond_atom_site_label_2
_geom_bond_site_symmetry_1
_geom_bond_site_symmetry_2
F1 C7 1_555 1_555
N1 C2 1_555 1_555
O1 C2 1_555 1_555
C1 N2 1_555 1_555
N2 C16 1_555 1_555
C2 C9 1_555 1_555
C3 N1 1_555 1_555
C4 C6 1_555 1_555
C5 H1 1_555 1_555
C6 C5 1_555 1_555
C7 C13 1_555 1_555
C8 C4 1_555 1_555
H2 C8 1_555 1_555
H3 C8 1_555 1_555
C9 C4 1_555 1_555
H4 C9 1_555 1_555
H5 C9 1_555 1_555
C10 C1 1_555 1_555
C11 C6 1_555 1_555
H6 C11 1_555 1_555
C12 H7 1_555 1_555
C13 C5 1_555 1_555
H8 C13 1_555 1_555
C14 C3 1_555 1_555
H9 C14 1_555 1_555
C15 C7 1_555 1_555
H10 C15 1_555 1_555
C16 H11 1_555 1_555
C17 C10 1_555 1_555
H12 C17 1_555 1_555
C18 C4 1_555 1_555
H13 C18 1_555 1_555
H14 C18 1_555 1_555
C19 C10 1_555 1_555
H15 C19 1_555 1_555
C20 C16 1_555 1_555
H16 C20 1_555 1_555
C21 C8 1_555 1_555
H17 C21 1_555 1_555
H18 C21 1_555 1_555
H19 N1 1_555 1_555
C1 C3 1_555 1_555
C11 C15 1_555 1_555
C12 C14 1_555 1_555
C12 C17 1_555 1_555
C18 C21 1_555 1_555
C19 C20 1_555 1_555

#END
