
#######################################################################
#
#                 Cambridge Crystallographic Data Centre
#                                CCDC 
#
#######################################################################
#
# If this CIF has been generated from an entry in the Cambridge 
# Structural Database, then it will include bibliographic, chemical, 
# crystal, experimental, refinement or atomic coordinate data resulting 
# from the CCDC's data processing and validation procedures.
#
#######################################################################

data_RANTUY
_chemical_formula_moiety         'C22 H10 Br2 F6 O2'
_chemical_name_systematic        
(2,5-dibromo-1,4-phenylene)bis((4-(trifluoromethyl)phenyl)methanone)
_symmetry_cell_setting           triclinic
_symmetry_space_group_name_H-M   'P -1'
_symmetry_Int_Tables_number      2
_space_group_name_Hall           '-P 1'
loop_
_symmetry_equiv_pos_site_id
_symmetry_equiv_pos_as_xyz
1 x,y,z
2 -x,-y,-z
_cell_length_a                   5.3312(17)
_cell_length_b                   6.884(2)
_cell_length_c                   14.727(5)
_cell_angle_alpha                86.329(6)
_cell_angle_beta                 84.451(6)
_cell_angle_gamma                76.826(5)
_cell_volume                     523.299
_exptl_crystal_colour            colorless
_exptl_crystal_description       prism
_cell_formula_units_Z            1
_exptl_crystal_preparation       Luminescent
loop_
_atom_site_label
_atom_site_type_symbol
_atom_site_fract_x
_atom_site_fract_y
_atom_site_fract_z
Br1 Br 0.15280(9) 0.16534(6) 0.03201(3)
C1 C 0.3577(7) 0.3579(5) 0.0151(3)
C2 C 0.3762(8) 0.4750(6) 0.0862(3)
C3 C 0.4811(8) 0.3804(6) -0.0696(3)
H1 H 0.4688 0.2983 -0.1159
C4 C 0.2298(9) 0.4611(7) 0.1789(3)
C5 C 0.2985(8) 0.2769(7) 0.2370(3)
C6 C 0.5275(9) 0.1400(7) 0.2206(3)
H2 H 0.6433 0.1617 0.1717
C7 C 0.1278(11) 0.2437(8) 0.3088(4)
H3 H -0.0272 0.3367 0.3196
O1 O 0.0660(9) 0.6049(6) 0.2028(3)
C8 C 0.4114(11) -0.0632(7) 0.3474(3)
C9 C 0.5859(10) -0.0283(7) 0.2762(3)
H4 H 0.7431 -0.1191 0.2660
F1 F 0.4996(15) -0.4086(7) 0.3640(4)
C10 C 0.1820(11) 0.0755(8) 0.3649(4)
H5 H 0.0662 0.0549 0.4140
F2 F 0.7123(14) -0.2805(9) 0.4324(5)
C11 C 0.4752(15) -0.2469(9) 0.4065(4)
F3 F 0.3337(14) -0.2503(9) 0.4789(4)
Br1A Br 0.84720(9) 0.83466(6) -0.03201(3)
C1A C 0.6423(7) 0.6421(5) -0.0151(3)
C2A C 0.6238(8) 0.5250(6) -0.0862(3)
C3A C 0.5189(8) 0.6196(6) 0.0696(3)
H1A H 0.5312 0.7017 0.1159
C4A C 0.7702(9) 0.5389(7) -0.1789(3)
C5A C 0.7015(8) 0.7231(7) -0.2370(3)
C6A C 0.4725(9) 0.8600(7) -0.2206(3)
H2A H 0.3567 0.8383 -0.1717
C7A C 0.8722(11) 0.7563(8) -0.3088(4)
H3A H 1.0272 0.6633 -0.3196
O1A O 0.9340(9) 0.3951(6) -0.2028(3)
C8A C 0.5886(11) 1.0632(7) -0.3474(3)
C9A C 0.4141(10) 1.0283(7) -0.2762(3)
H4A H 0.2569 1.1191 -0.2660
F1A F 0.5004(15) 1.4086(7) -0.3640(4)
C10A C 0.8180(11) 0.9245(8) -0.3649(4)
H5A H 0.9338 0.9451 -0.4140
F2A F 0.2877(14) 1.2805(9) -0.4324(5)
C11A C 0.5248(15) 1.2469(9) -0.4065(4)
F3A F 0.6663(14) 1.2503(9) -0.4789(4)
loop_
_geom_bond_atom_site_label_1
_geom_bond_atom_site_label_2
_geom_bond_site_symmetry_1
_geom_bond_site_symmetry_2
Br1 C1 1_555 1_555
C1 C2 1_555 1_555
C2 C4 1_555 1_555
C3 C1 1_555 1_555
H1 C3 1_555 1_555
C4 C5 1_555 1_555
C5 C6 1_555 1_555
C6 H2 1_555 1_555
C7 C5 1_555 1_555
H3 C7 1_555 1_555
O1 C4 1_555 1_555
C8 C9 1_555 1_555
C9 C6 1_555 1_555
H4 C9 1_555 1_555
F1 C11 1_555 1_555
C10 C7 1_555 1_555
H5 C10 1_555 1_555
F2 C11 1_555 1_555
C11 C8 1_555 1_555
F3 C11 1_555 1_555
Br1A C1A 1_555 1_555
C1A C2A 1_555 1_555
C2A C3 1_555 1_555
C3A C2 1_555 1_555
H1A C3A 1_555 1_555
C4A C2A 1_555 1_555
C5A C4A 1_555 1_555
C6A C5A 1_555 1_555
H2A C6A 1_555 1_555
C7A C5A 1_555 1_555
H3A C7A 1_555 1_555
O1A C4A 1_555 1_555
C8A C9A 1_555 1_555
C9A C6A 1_555 1_555
H4A C9A 1_555 1_555
F1A C11A 1_555 1_555
C10A C7A 1_555 1_555
H5A C10A 1_555 1_555
F2A C11A 1_555 1_555
C11A C8A 1_555 1_555
F3A C11A 1_555 1_555
C8 C10 1_555 1_555
C1A C3A 1_555 1_555
C8A C10A 1_555 1_555

#END
