
#######################################################################
#
#                 Cambridge Crystallographic Data Centre
#                                CCDC 
#
#######################################################################
#
# If this CIF has been generated from an entry in the Cambridge 
# Structural Database, then it will include bibliographic, chemical, 
# crystal, experimental, refinement or atomic coordinate data resulting 
# from the CCDC's data processing and validation procedures.
#
#######################################################################

data_RANVOU
_chemical_formula_moiety         'C20 H12 Br2 O2'
_chemical_name_systematic        
(2,5-dibromo-1,4-phenylene)bis(phenylmethanone)
_symmetry_cell_setting           rhombohedral
_symmetry_space_group_name_H-M   'R -3'
_symmetry_Int_Tables_number      148
_space_group_name_Hall           '-R 3'
loop_
_symmetry_equiv_pos_site_id
_symmetry_equiv_pos_as_xyz
1 x,y,z
2 -y,x-y,z
3 -x+y,-x,z
4 2/3+x,1/3+y,1/3+z
5 2/3-y,1/3+x-y,1/3+z
6 2/3-x+y,1/3-x,1/3+z
7 1/3+x,2/3+y,2/3+z
8 1/3-y,2/3+x-y,2/3+z
9 1/3-x+y,2/3-x,2/3+z
10 -x,-y,-z
11 y,-x+y,-z
12 x-y,x,-z
13 1/3-x,2/3-y,2/3-z
14 1/3+y,2/3-x+y,2/3-z
15 1/3+x-y,2/3+x,2/3-z
16 2/3-x,1/3-y,1/3-z
17 2/3+y,1/3-x+y,1/3-z
18 2/3+x-y,1/3+x,1/3-z
_cell_length_a                   24.0602(12)
_cell_length_b                   24.0602(12)
_cell_length_c                   7.7792(8)
_cell_angle_alpha                90
_cell_angle_beta                 90
_cell_angle_gamma                120
_cell_volume                     3899.99
_exptl_crystal_colour            colorless
_exptl_crystal_description       needles
_cell_formula_units_Z            9
_exptl_crystal_preparation       Luminescent
loop_
_atom_site_label
_atom_site_type_symbol
_atom_site_fract_x
_atom_site_fract_y
_atom_site_fract_z
Br1 Br -0.07638(3) 0.57972(2) 0.01439(5)
O1 O -0.00350(13) 0.43752(12) 0.4253(3)
C1 C 0.03930(16) 0.47056(14) 0.3254(4)
C2 C 0.10735(16) 0.49747(15) 0.3717(4)
C3 C -0.01323(16) 0.51845(15) 0.1551(4)
H1 H -0.0224 0.5312 0.2590
C4 C 0.02081(15) 0.48665(14) 0.1540(4)
C5 C -0.03398(16) 0.53163(15) 0.0025(4)
C6 C 0.1240(2) 0.46754(19) 0.4990(4)
H2 H 0.0922 0.4300 0.5498
C7 C 0.15585(18) 0.55412(18) 0.2993(4)
H3 H 0.1457 0.5747 0.2140
C8 C 0.2334(2) 0.5489(2) 0.4788(5)
H4 H 0.2757 0.5664 0.5154
C9 C 0.2183(2) 0.5799(2) 0.3526(5)
H5 H 0.2503 0.6179 0.3044
C10 C 0.1867(2) 0.4930(2) 0.5500(5)
H6 H 0.1974 0.4721 0.6331
Br1I Br 0.07638(3) 0.42028(2) -0.01439(5)
O1I O 0.00350(13) 0.56248(12) -0.4253(3)
C1I C -0.03930(16) 0.52944(14) -0.3254(4)
C2I C -0.10735(16) 0.50253(15) -0.3717(4)
C3I C 0.01323(16) 0.48155(15) -0.1551(4)
H1I H 0.0224 0.4688 -0.2590
C4I C -0.02081(15) 0.51335(14) -0.1540(4)
C5I C 0.03398(16) 0.46837(15) -0.0025(4)
C6I C -0.1240(2) 0.53246(19) -0.4990(4)
H2I H -0.0922 0.5700 -0.5498
C7I C -0.15585(18) 0.44588(18) -0.2993(4)
H3I H -0.1457 0.4253 -0.2140
C8I C -0.2334(2) 0.4511(2) -0.4788(5)
H4I H -0.2757 0.4336 -0.5154
C9I C -0.2183(2) 0.4201(2) -0.3526(5)
H5I H -0.2503 0.3821 -0.3044
C10I C -0.1867(2) 0.5070(2) -0.5500(5)
H6I H -0.1974 0.5279 -0.6331
loop_
_geom_bond_atom_site_label_1
_geom_bond_atom_site_label_2
_geom_bond_site_symmetry_1
_geom_bond_site_symmetry_2
Br1 C5 1_555 1_555
O1 C1 1_555 1_555
C1 C2 1_555 1_555
C2 C6 1_555 1_555
C3 H1 1_555 1_555
C4 C1 1_555 1_555
C5 C3 1_555 1_555
C6 H2 1_555 1_555
C7 C2 1_555 1_555
H3 C7 1_555 1_555
C8 H4 1_555 1_555
C9 C7 1_555 1_555
H5 C9 1_555 1_555
C10 C6 1_555 1_555
H6 C10 1_555 1_555
Br1I C5I 1_555 1_555
O1I C1I 1_555 1_555
C1I C2I 1_555 1_555
C2I C6I 1_555 1_555
C3I H1I 1_555 1_555
C4I C5 1_555 1_555
C5I C4 1_555 1_555
C6I H2I 1_555 1_555
C7I C2I 1_555 1_555
H3I C7I 1_555 1_555
C8I H4I 1_555 1_555
C9I C7I 1_555 1_555
H5I C9I 1_555 1_555
C10I C6I 1_555 1_555
H6I C10I 1_555 1_555
C3 C4 1_555 1_555
C8 C9 1_555 1_555
C8 C10 1_555 1_555
C1I C4I 1_555 1_555
C3I C4I 1_555 1_555
C3I C5I 1_555 1_555
C8I C9I 1_555 1_555
C8I C10I 1_555 1_555

#END
