
#######################################################################
#
#                 Cambridge Crystallographic Data Centre
#                                CCDC 
#
#######################################################################
#
# If this CIF has been generated from an entry in the Cambridge 
# Structural Database, then it will include bibliographic, chemical, 
# crystal, experimental, refinement or atomic coordinate data resulting 
# from the CCDC's data processing and validation procedures.
#
#######################################################################

data_RAPFEW01
_chemical_formula_moiety         'C28 H20 Cl4 N2 O2'
_chemical_name_systematic        
2,2'-(ethane-1,2-diylbis(2,1-phenylenenitrilomethylylidene))bis(4,6-dichlorophenol)
_symmetry_cell_setting           monoclinic
_symmetry_space_group_name_H-M   'P 21/c'
_symmetry_Int_Tables_number      14
_space_group_name_Hall           '-P 2ybc'
loop_
_symmetry_equiv_pos_site_id
_symmetry_equiv_pos_as_xyz
1 x,y,z
2 -x,1/2+y,1/2-z
3 -x,-y,-z
4 x,1/2-y,1/2+z
_cell_length_a                   7.9980(16)
_cell_length_b                   23.566(5)
_cell_length_c                   7.2830(15)
_cell_angle_alpha                90
_cell_angle_beta                 116.75(3)
_cell_angle_gamma                90
_cell_volume                     1225.8
_exptl_crystal_colour            yellow
_cell_formula_units_Z            2
loop_
_atom_site_label
_atom_site_type_symbol
_atom_site_fract_x
_atom_site_fract_y
_atom_site_fract_z
Cl1 Cl 0.81924(8) 0.74248(2) 1.06242(9)
Cl2 Cl 0.17238(8) 0.65353(2) 0.49821(9)
O1 O 0.6409(2) 0.85144(7) 0.8987(3)
H1 H 0.5876 0.8816 0.8401
N1 N 0.3709(3) 0.91498(8) 0.6515(3)
C1 C 0.5322(3) 0.80705(9) 0.8023(3)
C2 C 0.5967(3) 0.75193(9) 0.8637(4)
C3 C 0.4884(3) 0.70481(9) 0.7712(3)
H2 H 0.5351 0.6677 0.8162
C4 C 0.3096(3) 0.71281(10) 0.6104(3)
C5 C 0.2414(3) 0.76638(10) 0.5428(4)
H3 H 0.1198 0.7711 0.4321
C6 C 0.3514(3) 0.81391(9) 0.6369(3)
C7 C 0.2763(3) 0.87049(10) 0.5630(4)
H4 H 0.1565 0.8744 0.4486
C8 C 0.2991(3) 0.96978(10) 0.5759(4)
C9 C 0.2242(3) 0.98260(10) 0.3669(4)
H5 H 0.2169 0.9541 0.2713
C10 C 0.1606(3) 1.03700(10) 0.2989(4)
H6 H 0.1103 1.0458 0.1567
C11 C 0.1702(3) 1.07858(11) 0.4381(4)
H7 H 0.1266 1.1159 0.3916
C12 C 0.2440(3) 1.06543(10) 0.6458(4)
H8 H 0.2492 1.0940 0.7401
C13 C 0.3104(3) 1.01119(9) 0.7191(4)
C14 C 0.3928(3) 0.99771(10) 0.9458(3)
H9 H 0.3560 0.9587 0.9633
H10 H 0.3401 1.0242 1.0118
Cl1B Cl 0.18076(8) 1.25752(2) 0.93758(9)
Cl2B Cl 0.82762(8) 1.34647(2) 1.50179(9)
O1B O 0.3591(2) 1.14856(7) 1.1013(3)
H1B H 0.4124 1.1184 1.1599
N1B N 0.6291(3) 1.08502(8) 1.3485(3)
C1B C 0.4678(3) 1.19295(9) 1.1977(3)
C2B C 0.4033(3) 1.24807(9) 1.1363(4)
C3B C 0.5116(3) 1.29519(9) 1.2288(3)
H2B H 0.4649 1.3323 1.1838
C4B C 0.6904(3) 1.28719(10) 1.3896(3)
C5B C 0.7586(3) 1.23362(10) 1.4572(4)
H3B H 0.8802 1.2289 1.5679
C6B C 0.6486(3) 1.18609(9) 1.3631(3)
C7B C 0.7237(3) 1.12951(10) 1.4370(4)
H4B H 0.8435 1.1256 1.5514
C8B C 0.7009(3) 1.03022(10) 1.4241(4)
C9B C 0.7758(3) 1.01740(10) 1.6331(4)
H5B H 0.7831 1.0459 1.7287
C10B C 0.8394(3) 0.96300(10) 1.7011(4)
H6B H 0.8897 0.9542 1.8433
C11B C 0.8298(3) 0.92142(11) 1.5619(4)
H7B H 0.8734 0.8841 1.6084
C12B C 0.7560(3) 0.93457(10) 1.3542(4)
H8B H 0.7508 0.9060 1.2599
C13B C 0.6896(3) 0.98881(9) 1.2809(4)
C14B C 0.6072(3) 1.00229(10) 1.0542(3)
H9B H 0.6440 1.0413 1.0367
H10B H 0.6599 0.9758 0.9882
loop_
_geom_bond_atom_site_label_1
_geom_bond_atom_site_label_2
_geom_bond_site_symmetry_1
_geom_bond_site_symmetry_2
Cl1 C2 1_555 1_555
Cl2 C4 1_555 1_555
O1 H1 1_555 1_555
N1 C7 1_555 1_555
C1 O1 1_555 1_555
C2 C1 1_555 1_555
C3 C2 1_555 1_555
H2 C3 1_555 1_555
C4 C3 1_555 1_555
C5 C4 1_555 1_555
H3 C5 1_555 1_555
C6 C1 1_555 1_555
C7 C6 1_555 1_555
H4 C7 1_555 1_555
C8 N1 1_555 1_555
C9 C8 1_555 1_555
H5 C9 1_555 1_555
C10 C9 1_555 1_555
H6 C10 1_555 1_555
C11 C10 1_555 1_555
H7 C11 1_555 1_555
C12 C11 1_555 1_555
H8 C12 1_555 1_555
C13 C8 1_555 1_555
C14 C13 1_555 1_555
H9 C14 1_555 1_555
H10 C14 1_555 1_555
Cl1B C2B 1_555 1_555
Cl2B C4B 1_555 1_555
O1B H1B 1_555 1_555
N1B C7B 1_555 1_555
C1B O1B 1_555 1_555
C2B C1B 1_555 1_555
C3B C2B 1_555 1_555
H2B C3B 1_555 1_555
C4B C3B 1_555 1_555
C5B C4B 1_555 1_555
H3B C5B 1_555 1_555
C6B C1B 1_555 1_555
C7B C6B 1_555 1_555
H4B C7B 1_555 1_555
C8B N1B 1_555 1_555
C9B C8B 1_555 1_555
H5B C9B 1_555 1_555
C10B C9B 1_555 1_555
H6B C10B 1_555 1_555
C11B C10B 1_555 1_555
H7B C11B 1_555 1_555
C12B C11B 1_555 1_555
H8B C12B 1_555 1_555
C13B C8B 1_555 1_555
C14B C14 1_555 1_555
H9B C14B 1_555 1_555
H10B C14B 1_555 1_555
C5 C6 1_555 1_555
C12 C13 1_555 1_555
C5B C6B 1_555 1_555
C12B C13B 1_555 1_555
C13B C14B 1_555 1_555

#END
