
#######################################################################
#
#                 Cambridge Crystallographic Data Centre
#                                CCDC 
#
#######################################################################
#
# If this CIF has been generated from an entry in the Cambridge 
# Structural Database, then it will include bibliographic, chemical, 
# crystal, experimental, refinement or atomic coordinate data resulting 
# from the CCDC's data processing and validation procedures.
#
#######################################################################

data_RAPGOH
_chemical_formula_moiety         'C10 H13 N1 O3'
_chemical_name_systematic        
(R)-1-(2,3-dihydro-1H-pyrrolizin-5-yl)-2,3-dihydroxypropan-1-one
_symmetry_cell_setting           monoclinic
_symmetry_space_group_name_H-M   'P 21'
_symmetry_Int_Tables_number      4
_space_group_name_Hall           'P 2yb'
loop_
_symmetry_equiv_pos_site_id
_symmetry_equiv_pos_as_xyz
1 x,y,z
2 -x,1/2+y,-z
_cell_length_a                   11.8118(5)
_cell_length_b                   4.9299(2)
_cell_length_c                   16.5436(7)
_cell_angle_alpha                90
_cell_angle_beta                 101.116(2)
_cell_angle_gamma                90
_cell_volume                     945.277
_exptl_crystal_colour            colorless
_exptl_crystal_description       block
_cell_formula_units_Z            4
loop_
_atom_site_label
_atom_site_type_symbol
_atom_site_fract_x
_atom_site_fract_y
_atom_site_fract_z
O1 O 0.61299(10) 0.9928(3) 0.11529(8)
H1 H 0.5536 1.0560 0.0878
O2 O 0.59988(10) 0.6984(3) -0.03748(7)
H2 H 0.6367 0.8158 -0.0562
O3 O 0.80900(10) 0.8687(3) -0.00537(7)
N1 N 0.98851(11) 0.6759(3) 0.12807(8)
C1 C 0.61006(14) 0.7074(4) 0.10931(11)
H3 H 0.5305 0.6467 0.1009
H4 H 0.6507 0.6303 0.1607
C2 C 0.66478(13) 0.6034(4) 0.03881(10)
H5 H 0.6639 0.4046 0.0390
C3 C 0.78949(13) 0.7019(4) 0.04525(10)
C4 C 0.87513(13) 0.5894(4) 0.10990(10)
C5 C 1.05908(13) 0.8670(4) 0.09102(11)
H6 H 1.0282 1.0496 0.0896
H7 H 1.0647 0.8123 0.0356
C6 C 1.17633(16) 0.8466(6) 0.15000(13)
H8 H 1.2367 0.8111 0.1191
H9 H 1.1937 1.0160 0.1796
C7 C 1.04638(14) 0.5346(4) 0.19192(11)
C8 C 0.97262(15) 0.3489(5) 0.21740(11)
H10 H 0.9909 0.2259 0.2606
C9 C 0.86532(14) 0.3827(4) 0.16557(10)
H11 H 0.7988 0.2843 0.1678
C10 C 1.17049(16) 0.6190(6) 0.20972(15)
H12 H 1.2201 0.4700 0.2006
H13 H 1.1933 0.6811 0.2661
O4 O 0.37342(9) 0.1183(3) 0.30346(8)
H14 H 0.3995 -0.0281 0.3219
O5 O 0.47257(10) 0.6339(2) 0.36607(7)
O6 O 0.57102(10) 0.2859(2) 0.47526(7)
N2 N 0.74433(11) -0.0991(3) 0.45470(8)
C11 C 0.45855(14) 0.2603(4) 0.27099(10)
H15 H 0.4210 0.3789 0.2271
H16 H 0.5050 0.1313 0.2474
C12 C 0.53723(13) 0.4293(3) 0.33602(10)
H17 H 0.5957 0.5166 0.3100
C13 C 0.59878(12) 0.2567(3) 0.40769(9)
C14 C 0.68662(12) 0.0693(3) 0.39377(9)
C15 C 0.73494(14) -0.1636(4) 0.53988(10)
H18 H 0.6661 -0.2688 0.5419
H19 H 0.7347 -0.0006 0.5727
C16 C 0.84450(17) -0.3304(5) 0.56835(13)
H20 H 0.8290 -0.4811 0.6023
H21 H 0.9044 -0.2185 0.6004
C17 C 0.88310(14) -0.4353(4) 0.49058(13)
H22 H 0.9663 -0.4268 0.4963
H23 H 0.8577 -0.6205 0.4783
C18 C 0.82480(13) -0.2445(4) 0.42592(11)
C19 C 0.82227(14) -0.1706(4) 0.34472(11)
H24 H 0.8691 -0.2386 0.3102
C20 C 0.73589(13) 0.0257(4) 0.32457(11)
H25 H 0.7149 0.1122 0.2739
H26 H 0.474(2) 0.594(6) 0.4151(17)
loop_
_geom_bond_atom_site_label_1
_geom_bond_atom_site_label_2
_geom_bond_site_symmetry_1
_geom_bond_site_symmetry_2
O1 H1 1_555 1_555
O2 H2 1_555 1_555
O3 C3 1_555 1_555
N1 C4 1_555 1_555
C1 O1 1_555 1_555
H3 C1 1_555 1_555
H4 C1 1_555 1_555
C2 O2 1_555 1_555
H5 C2 1_555 1_555
C3 C2 1_555 1_555
C4 C3 1_555 1_555
C5 N1 1_555 1_555
H6 C5 1_555 1_555
H7 C5 1_555 1_555
C6 C5 1_555 1_555
H8 C6 1_555 1_555
H9 C6 1_555 1_555
C7 N1 1_555 1_555
C8 C7 1_555 1_555
H10 C8 1_555 1_555
C9 C4 1_555 1_555
H11 C9 1_555 1_555
C10 C6 1_555 1_555
H12 C10 1_555 1_555
H13 C10 1_555 1_555
O4 H14 1_555 1_555
O5 C12 1_555 1_555
O6 C13 1_555 1_555
N2 C14 1_555 1_555
C11 O4 1_555 1_555
H15 C11 1_555 1_555
H16 C11 1_555 1_555
C12 C11 1_555 1_555
H17 C12 1_555 1_555
C13 C12 1_555 1_555
C14 C13 1_555 1_555
C15 N2 1_555 1_555
H18 C15 1_555 1_555
H19 C15 1_555 1_555
C16 C15 1_555 1_555
H20 C16 1_555 1_555
H21 C16 1_555 1_555
C17 C16 1_555 1_555
H22 C17 1_555 1_555
H23 C17 1_555 1_555
C18 N2 1_555 1_555
C19 C18 1_555 1_555
H24 C19 1_555 1_555
C20 C14 1_555 1_555
H25 C20 1_555 1_555
H26 O5 1_555 1_555
C1 C2 1_555 1_555
C7 C10 1_555 1_555
C8 C9 1_555 1_555
C17 C18 1_555 1_555
C19 C20 1_555 1_555

#END
