
#######################################################################
#
#                 Cambridge Crystallographic Data Centre
#                                CCDC 
#
#######################################################################
#
# If this CIF has been generated from an entry in the Cambridge 
# Structural Database, then it will include bibliographic, chemical, 
# crystal, experimental, refinement or atomic coordinate data resulting 
# from the CCDC's data processing and validation procedures.
#
#######################################################################

data_RAPNUT
_chemical_formula_moiety         'C17 H24 O4'
_chemical_name_systematic        
'Methyl (4,5-diethyl-2-oxo-1-oxaspiro[5.5]undec-4-en-3-ylidene)acetate'
_symmetry_cell_setting           triclinic
_symmetry_space_group_name_H-M   'P -1'
_symmetry_Int_Tables_number      2
_space_group_name_Hall           '-P 1'
loop_
_symmetry_equiv_pos_site_id
_symmetry_equiv_pos_as_xyz
1 x,y,z
2 -x,-y,-z
_cell_length_a                   7.6821(15)
_cell_length_b                   10.452(2)
_cell_length_c                   10.920(2)
_cell_angle_alpha                69.53(3)
_cell_angle_beta                 76.91(3)
_cell_angle_gamma                81.67(3)
_cell_volume                     798.018
_exptl_crystal_colour            colorless
_exptl_crystal_description       block
_cell_formula_units_Z            2
loop_
_atom_site_label
_atom_site_type_symbol
_atom_site_fract_x
_atom_site_fract_y
_atom_site_fract_z
O1 O -0.92854(11) 0.06795(8) 0.79368(9)
C1 C -1.11683(15) 0.11813(12) 0.78586(12)
C2 C -0.79293(16) 0.14650(12) 0.72825(12)
C3 C -1.01235(17) 0.35214(12) 0.71500(12)
C4 C -0.83806(16) 0.29450(12) 0.66086(12)
C5 C -1.15927(17) 0.09189(13) 0.66672(12)
H1 H -1.0800 0.1440 0.5845
H2 H -1.2846 0.1259 0.6583
C6 C -1.13444(18) -0.06007(14) 0.67983(14)
H3 H -1.1732 -0.0726 0.6045
H4 H -1.0059 -0.0914 0.6757
C7 C -1.14784(16) 0.26930(13) 0.77167(12)
C8 C -1.24280(19) -0.14644(14) 0.81071(15)
H5 H -1.3722 -0.1208 0.8116
H6 H -1.2205 -0.2444 0.8184
C9 C -1.19154(19) -0.12496(14) 0.92858(14)
H7 H -1.0643 -0.1569 0.9315
H8 H -1.2656 -0.1797 1.0123
C10 C -1.21952(17) 0.02587(13) 0.91732(12)
H9 H -1.1795 0.0378 0.9925
H10 H -1.3490 0.0546 0.9243
O2 O -0.64091(11) 0.09728(9) 0.73258(9)
C11 C -1.33801(18) 0.32157(15) 0.81505(16)
H11 H -1.4217 0.2584 0.8141
H12 H -1.3634 0.4123 0.7500
C12 C -0.71907(17) 0.36693(12) 0.55979(13)
H13 H -0.7465 0.4628 0.5249
C13 C -1.02461(19) 0.50185(13) 0.70282(15)
H14 H -1.1517 0.5335 0.7260
H15 H -0.9781 0.5566 0.6095
C14 C -0.9174(2) 0.52469(16) 0.79464(17)
H16 H -0.9280 0.6222 0.7850
H17 H -0.7911 0.4951 0.7706
H18 H -0.9643 0.4715 0.8872
C15 C -1.3729(2) 0.33453(19) 0.95400(19)
H19 H -1.4977 0.3684 0.9765
H20 H -1.2928 0.3988 0.9552
H21 H -1.3506 0.2447 1.0193
O3 O -0.40250(12) 0.34373(9) 0.49326(11)
O4 O -0.57416(12) 0.22294(10) 0.43932(10)
C16 C -0.54740(17) 0.30971(12) 0.49756(12)
C17 C -0.4131(2) 0.16344(17) 0.37580(16)
H22 H -0.4454 0.1018 0.3357
H23 H -0.3396 0.1117 0.4422
H24 H -0.3452 0.2364 0.3064
loop_
_geom_bond_atom_site_label_1
_geom_bond_atom_site_label_2
_geom_bond_site_symmetry_1
_geom_bond_site_symmetry_2
O1 C1 1_555 1_555
C1 C5 1_555 1_555
C2 O1 1_555 1_555
C3 C4 1_555 1_555
C4 C2 1_555 1_555
C5 H1 1_555 1_555
H2 C5 1_555 1_555
C6 C5 1_555 1_555
H3 C6 1_555 1_555
H4 C6 1_555 1_555
C7 C1 1_555 1_555
C8 C6 1_555 1_555
H5 C8 1_555 1_555
H6 C8 1_555 1_555
C9 C8 1_555 1_555
H7 C9 1_555 1_555
H8 C9 1_555 1_555
C10 C1 1_555 1_555
H9 C10 1_555 1_555
H10 C10 1_555 1_555
O2 C2 1_555 1_555
C11 C7 1_555 1_555
H11 C11 1_555 1_555
H12 C11 1_555 1_555
C12 C4 1_555 1_555
H13 C12 1_555 1_555
C13 C3 1_555 1_555
H14 C13 1_555 1_555
H15 C13 1_555 1_555
C14 C13 1_555 1_555
H16 C14 1_555 1_555
H17 C14 1_555 1_555
H18 C14 1_555 1_555
C15 C11 1_555 1_555
H19 C15 1_555 1_555
H20 C15 1_555 1_555
H21 C15 1_555 1_555
O3 C16 1_555 1_555
O4 C16 1_555 1_555
C16 C12 1_555 1_555
C17 O4 1_555 1_555
H22 C17 1_555 1_555
H23 C17 1_555 1_555
H24 C17 1_555 1_555
C3 C7 1_555 1_555
C9 C10 1_555 1_555

#END
