
#######################################################################
#
#                 Cambridge Crystallographic Data Centre
#                                CCDC 
#
#######################################################################
#
# If this CIF has been generated from an entry in the Cambridge 
# Structural Database, then it will include bibliographic, chemical, 
# crystal, experimental, refinement or atomic coordinate data resulting 
# from the CCDC's data processing and validation procedures.
#
#######################################################################

data_RAPNEE
_chemical_compound_source        'leaves of Isodon rubescens'
_chemical_name_common            
"3,3,10'-trimethyl-2',6,11'-trioxo-3'-oxaspiro[cyclohexane-1,5'-tricyclo[7.2.1.0$1,6!]dodecane]-4-ene-2-carboxylic acid"
_chemical_formula_moiety         'C20 H24 O6'
_chemical_name_systematic        
'16(S)- methyl-6\a-carboxy-1,15-dioxo-6,7- seco-ent-kaur-2-en-7,20-olide'
_symmetry_cell_setting           orthorhombic
_symmetry_space_group_name_H-M   'P 21 21 21'
_symmetry_Int_Tables_number      19
_space_group_name_Hall           'P 2ac 2ab'
loop_
_symmetry_equiv_pos_site_id
_symmetry_equiv_pos_as_xyz
1 x,y,z
2 1/2-x,-y,1/2+z
3 1/2+x,1/2-y,-z
4 -x,1/2+y,1/2-z
_cell_length_a                   7.697(14)
_cell_length_b                   13.91(2)
_cell_length_c                   16.75(3)
_cell_angle_alpha                90
_cell_angle_beta                 90
_cell_angle_gamma                90
_cell_volume                     1793.34
_exptl_crystal_colour            colorless
_exptl_crystal_description       block
_cell_formula_units_Z            4
_exptl_crystal_recrystallization_method methanol
loop_
_atom_site_label
_atom_site_type_symbol
_atom_site_fract_x
_atom_site_fract_y
_atom_site_fract_z
C1 C 0.2181(3) 0.20318(17) 0.20048(13)
C2 C 0.0937(4) 0.1500(2) 0.24967(15)
H1 H 0.0493 0.0924 0.2303
C3 C 0.0426(4) 0.1804(2) 0.31994(15)
H2 H -0.0314 0.1401 0.3483
C4 C 0.0909(3) 0.27313(18) 0.35911(13)
C5 C 0.1925(3) 0.33691(15) 0.29904(12)
H3 H 0.1037 0.3665 0.2651
C6 C 0.2808(3) 0.41966(17) 0.34100(13)
C7 C 0.6013(3) 0.21400(18) 0.15093(15)
C8 C 0.5430(3) 0.31356(16) 0.12817(13)
C9 C 0.3919(3) 0.35780(16) 0.17948(12)
H4 H 0.4449 0.4093 0.2111
C10 C 0.3190(3) 0.28497(15) 0.24043(12)
C11 C 0.2579(3) 0.40658(18) 0.12593(14)
H5 H 0.1925 0.3578 0.0975
H6 H 0.1771 0.4426 0.1588
C12 C 0.3424(3) 0.47436(19) 0.06578(15)
H7 H 0.3690 0.5347 0.0920
H8 H 0.2604 0.4877 0.0233
C13 C 0.5102(3) 0.43320(17) 0.02926(14)
H9 H 0.5198 0.4510 -0.0272
C14 C 0.5083(3) 0.32376(17) 0.03875(13)
H10 H 0.3966 0.2968 0.0241
H11 H 0.5989 0.2936 0.0073
C15 C 0.6958(3) 0.38373(18) 0.13675(13)
C16 C 0.6755(3) 0.46194(17) 0.07494(14)
H12 H 0.6560 0.5235 0.1019
C17 C 0.8374(3) 0.4690(2) 0.02353(16)
H13 H 0.8226 0.5192 -0.0152
H14 H 0.8560 0.4090 -0.0034
H15 H 0.9358 0.4832 0.0566
C18 C -0.0779(4) 0.3264(2) 0.38106(16)
H16 H -0.0498 0.3867 0.4058
H17 H -0.1445 0.2879 0.4174
H18 H -0.1446 0.3379 0.3336
C19 C 0.1867(4) 0.2507(2) 0.43728(14)
H19 H 0.2192 0.3097 0.4629
H20 H 0.2890 0.2137 0.4259
H21 H 0.1117 0.2146 0.4719
C20 C 0.4757(3) 0.23948(18) 0.28090(13)
H22 H 0.5497 0.2895 0.3025
H23 H 0.4369 0.1995 0.3248
O1 O 0.2457(3) 0.18088(13) 0.13163(10)
O2 O 0.1920(2) 0.49999(13) 0.33388(12)
H24 H 0.2433 0.5434 0.3571
O3 O 0.4139(3) 0.41425(14) 0.37736(12)
O4 O 0.6800(3) 0.16234(13) 0.10546(11)
O5 O 0.5744(2) 0.18158(12) 0.22487(10)
O6 O 0.8116(2) 0.37705(15) 0.18469(11)
loop_
_geom_bond_atom_site_label_1
_geom_bond_atom_site_label_2
_geom_bond_site_symmetry_1
_geom_bond_site_symmetry_2
C1 C2 1_555 1_555
C2 H1 1_555 1_555
C3 C2 1_555 1_555
H2 C3 1_555 1_555
C4 C3 1_555 1_555
C5 C4 1_555 1_555
H3 C5 1_555 1_555
C6 C5 1_555 1_555
C7 C8 1_555 1_555
C8 C9 1_555 1_555
C9 H4 1_555 1_555
C10 C1 1_555 1_555
C11 C9 1_555 1_555
H5 C11 1_555 1_555
H6 C11 1_555 1_555
C12 C11 1_555 1_555
H7 C12 1_555 1_555
H8 C12 1_555 1_555
C13 C12 1_555 1_555
H9 C13 1_555 1_555
C14 C8 1_555 1_555
H10 C14 1_555 1_555
H11 C14 1_555 1_555
C15 C8 1_555 1_555
C16 C13 1_555 1_555
H12 C16 1_555 1_555
C17 C16 1_555 1_555
H13 C17 1_555 1_555
H14 C17 1_555 1_555
H15 C17 1_555 1_555
C18 C4 1_555 1_555
H16 C18 1_555 1_555
H17 C18 1_555 1_555
H18 C18 1_555 1_555
C19 C4 1_555 1_555
H19 C19 1_555 1_555
H20 C19 1_555 1_555
H21 C19 1_555 1_555
C20 C10 1_555 1_555
H22 C20 1_555 1_555
H23 C20 1_555 1_555
O1 C1 1_555 1_555
O2 C6 1_555 1_555
H24 O2 1_555 1_555
O3 C6 1_555 1_555
O4 C7 1_555 1_555
O5 C7 1_555 1_555
O6 C15 1_555 1_555
C5 C10 1_555 1_555
C9 C10 1_555 1_555
C13 C14 1_555 1_555
C15 C16 1_555 1_555
C20 O5 1_555 1_555

#END
