
#######################################################################
#
#                 Cambridge Crystallographic Data Centre
#                                CCDC 
#
#######################################################################
#
# If this CIF has been generated from an entry in the Cambridge 
# Structural Database, then it will include bibliographic, chemical, 
# crystal, experimental, refinement or atomic coordinate data resulting 
# from the CCDC's data processing and validation procedures.
#
#######################################################################

data_RAPPEG
_chemical_formula_moiety         'C18 H18 N2 O5'
_chemical_name_systematic        
2-amino-5-oxo-4-(3,4,5-trimethoxyphenyl)-4,5,6,7-tetrahydrocyclopenta[b]pyran-3-carbonitrile
_symmetry_cell_setting           monoclinic
_symmetry_space_group_name_H-M   'P 21/n'
_symmetry_Int_Tables_number      14
_space_group_name_Hall           '-P 2yn'
loop_
_symmetry_equiv_pos_site_id
_symmetry_equiv_pos_as_xyz
1 x,y,z
2 1/2-x,1/2+y,1/2-z
3 -x,-y,-z
4 1/2+x,1/2-y,1/2+z
_cell_length_a                   8.605(5)
_cell_length_b                   8.496(4)
_cell_length_c                   23.771(5)
_cell_angle_alpha                90
_cell_angle_beta                 95.853(19)
_cell_angle_gamma                90
_cell_volume                     1728.79
_exptl_crystal_colour            colorless
_exptl_crystal_description       block
_cell_formula_units_Z            4
loop_
_atom_site_label
_atom_site_type_symbol
_atom_site_fract_x
_atom_site_fract_y
_atom_site_fract_z
N1 N 0.8123(2) 1.0451(2) 0.01158(9)
N2 N 1.00818(19) 0.6845(2) 0.04280(8)
H1 H 1.0359 0.7715 0.0282
H2 H 1.0739 0.6084 0.0482
C1 C 0.7802(2) 0.9242(3) 0.02946(9)
C2 C 0.7445(2) 0.7751(2) 0.05173(8)
C3 C 0.8629(2) 0.6678(2) 0.05715(8)
C4 C 0.6944(2) 0.4769(2) 0.08666(8)
C5 C 0.5695(2) 0.5721(2) 0.07979(8)
C6 C 0.5810(2) 0.7465(2) 0.06923(8)
H3 H 0.5045 0.7745 0.0374
C7 C 0.4306(3) 0.4763(2) 0.08262(9)
C8 C 0.4827(3) 0.3097(2) 0.09900(10)
H4 H 0.4386 0.2347 0.0710
H5 H 0.4495 0.2816 0.1355
C9 C 0.6624(3) 0.3103(2) 0.10160(10)
H6 H 0.7102 0.2841 0.1392
H7 H 0.6992 0.2375 0.0744
C10 C 0.5444(2) 0.8420(2) 0.12145(8)
C11 C 0.6590(2) 0.8680(2) 0.16691(8)
H8 H 0.7597 0.8297 0.1654
C12 C 0.6219(3) 0.9515(3) 0.21457(9)
C13 C 0.4717(2) 1.0114(2) 0.21694(9)
C14 C 0.3591(2) 0.9870(2) 0.17102(10)
C15 C 0.3939(2) 0.9013(2) 0.12385(9)
H9 H 0.3171 0.8836 0.0941
C16 C 0.8881(3) 0.9768(4) 0.25528(11)
H10 H 0.9469 1.0012 0.2907
H11 H 0.9123 1.0517 0.2272
H12 H 0.9147 0.8729 0.2436
C17 C 0.3517(4) 1.0338(4) 0.30189(12)
H13 H 0.3360 1.1076 0.3314
H14 H 0.4059 0.9430 0.3179
H15 H 0.2523 1.0023 0.2833
C18 C 0.1045(3) 1.0585(3) 0.12766(12)
H16 H 0.0119 1.1117 0.1367
H17 H 0.0792 0.9521 0.1167
H18 H 0.1466 1.1120 0.0970
O1 O 0.84418(15) 0.51881(15) 0.07943(6)
O2 O 0.29468(19) 0.51813(19) 0.07199(8)
O3 O 0.7275(2) 0.9834(2) 0.26161(7)
O4 O 0.44150(19) 1.1052(2) 0.26220(7)
O5 O 0.21707(18) 1.0581(2) 0.17584(7)
loop_
_geom_bond_atom_site_label_1
_geom_bond_atom_site_label_2
_geom_bond_site_symmetry_1
_geom_bond_site_symmetry_2
N1 C1 1_555 1_555
N2 H1 1_555 1_555
H2 N2 1_555 1_555
C1 C2 1_555 1_555
C2 C3 1_555 1_555
C3 N2 1_555 1_555
C4 C5 1_555 1_555
C5 C6 1_555 1_555
C6 C2 1_555 1_555
H3 C6 1_555 1_555
C7 C5 1_555 1_555
C8 C7 1_555 1_555
H4 C8 1_555 1_555
H5 C8 1_555 1_555
C9 C4 1_555 1_555
H6 C9 1_555 1_555
H7 C9 1_555 1_555
C10 C6 1_555 1_555
C11 C10 1_555 1_555
H8 C11 1_555 1_555
C12 C11 1_555 1_555
C13 C12 1_555 1_555
C14 C13 1_555 1_555
C15 C10 1_555 1_555
H9 C15 1_555 1_555
C16 H10 1_555 1_555
H11 C16 1_555 1_555
H12 C16 1_555 1_555
C17 H13 1_555 1_555
H14 C17 1_555 1_555
H15 C17 1_555 1_555
C18 H16 1_555 1_555
H17 C18 1_555 1_555
H18 C18 1_555 1_555
O1 C3 1_555 1_555
O2 C7 1_555 1_555
O3 C12 1_555 1_555
O4 C13 1_555 1_555
O5 C14 1_555 1_555
C4 O1 1_555 1_555
C8 C9 1_555 1_555
C14 C15 1_555 1_555
C16 O3 1_555 1_555
C17 O4 1_555 1_555
C18 O5 1_555 1_555

#END
