
#######################################################################
#
#                 Cambridge Crystallographic Data Centre
#                                CCDC 
#
#######################################################################
#
# If this CIF has been generated from an entry in the Cambridge 
# Structural Database, then it will include bibliographic, chemical, 
# crystal, experimental, refinement or atomic coordinate data resulting 
# from the CCDC's data processing and validation procedures.
#
#######################################################################

data_RAPRIJ
_chemical_formula_moiety         'C18 H16 S12,C1 H1 Cl3'
_chemical_name_systematic        
'trans,trans-2,6,8,12-Tetrathia-1,7(2,6)-ditetrathiafulvalenacyclododecaphane chloroform solvate'
_symmetry_cell_setting           orthorhombic
_symmetry_space_group_name_H-M   'A b a 2'
_symmetry_Int_Tables_number      41
_space_group_name_Hall           'A 2 -2ab'
loop_
_symmetry_equiv_pos_site_id
_symmetry_equiv_pos_as_xyz
1 x,y,z
2 -x,-y,z
3 1/2-x,1/2+y,z
4 1/2+x,1/2-y,z
5 x,1/2+y,1/2+z
6 -x,1/2-y,1/2+z
7 1/2-x,y,1/2+z
8 1/2+x,-y,1/2+z
_cell_length_a                   16.304(1)
_cell_length_b                   20.238(3)
_cell_length_c                   9.104(1)
_cell_angle_alpha                90
_cell_angle_beta                 90
_cell_angle_gamma                90
_cell_volume                     3003.96
_exptl_crystal_colour            orange
_chemical_melting_point          204-205deg.C
_cell_formula_units_Z            4
loop_
_atom_site_label
_atom_site_type_symbol
_atom_site_fract_x
_atom_site_fract_y
_atom_site_fract_z
S1 S 1.2327(2) 0.0250(2) 0.9029
C1 C 1.1740(7) -0.0377(6) 0.825(1)
S2 S 1.1116(2) -0.0113(2) 0.6782(6)
C2 C 1.1265(8) 0.0745(7) 0.711(1)
C3 C 1.1816(8) 0.0906(6) 0.811(2)
S3 S 1.1134(2) -0.1639(2) 0.7988(5)
C4 C 1.1730(7) -0.1001(6) 0.874(2)
S4 S 1.2326(2) -0.1259(2) 1.0250(6)
C5 C 1.1692(7) -0.1941(6) 1.064(2)
C6 C 1.1136(7) -0.2129(6) 0.961(1)
S5 S 1.2115(2) 0.1700(2) 0.8581(6)
C7 C 1.1644(7) 0.1815(7) 1.037(2)
C8 C 1.0706(8) 0.1930(7) 1.031(2)
C9 C 1.0487(7) 0.2501(6) 0.934(2)
S6 S 1.0555(2) -0.2824(2) 0.9719(6)
S6A S 0.9445(2) 0.2824(2) 0.9719(6)
C6A C 0.8864(7) 0.2129(6) 0.961(1)
S3A S 0.8866(2) 0.1639(2) 0.7988(5)
C4A C 0.8270(7) 0.1001(6) 0.874(2)
C1A C 0.8260(7) 0.0377(6) 0.825(1)
S1A S 0.7673(2) -0.0250(2) 0.9029
C3A C 0.8184(8) -0.0906(6) 0.811(2)
C2A C 0.8735(8) -0.0745(7) 0.711(1)
S2A S 0.8884(2) 0.0113(2) 0.6782(6)
S5A S 0.7885(2) -0.1700(2) 0.8581(6)
C7A C 0.8356(7) -0.1815(7) 1.037(2)
C8A C 0.9294(8) -0.1930(7) 1.031(2)
C9A C 0.9513(7) -0.2501(6) 0.934(2)
S4A S 0.7674(2) 0.1259(2) 1.0250(6)
C5A C 0.8308(7) 0.1941(6) 1.064(2)
Cl1? Cl 0.5000 -0.5000 0.0460(10)
Cl2? Cl 0.0110(9) 0.0683(3) 0.3159(9)
C10? C 0.552(2) 0.508(3) 0.213(10)
loop_
_geom_bond_atom_site_label_1
_geom_bond_atom_site_label_2
_geom_bond_site_symmetry_1
_geom_bond_site_symmetry_2
S1 C1 1_555 1_555
C1 S2 1_555 1_555
S2 C2 1_555 1_555
C2 C3 1_555 1_555
C3 S1 1_555 1_555
S3 C4 1_555 1_555
C4 C1 1_555 1_555
S4 C4 1_555 1_555
C5 S4 1_555 1_555
C6 S3 1_555 1_555
S5 C3 1_555 1_555
C7 S5 1_555 1_555
C8 C7 1_555 1_555
C9 C8 1_555 1_555
S6 C6 1_555 1_555
S6A C9 1_555 1_555
C6A S6A 1_555 1_555
S3A C6A 1_555 1_555
C4A S3A 1_555 1_555
C1A C4A 1_555 1_555
S1A C1A 1_555 1_555
C3A S1A 1_555 1_555
C2A C3A 1_555 1_555
S2A C1A 1_555 1_555
S5A C3A 1_555 1_555
C7A S5A 1_555 1_555
C8A C7A 1_555 1_555
C9A S6 1_555 1_555
S4A C4A 1_555 1_555
C5A C6A 1_555 1_555
C5 C6 1_555 1_555
C2A S2A 1_555 1_555
C8A C9A 1_555 1_555
S4A C5A 1_555 1_555

#END
