
#######################################################################
#
#                 Cambridge Crystallographic Data Centre
#                                CCDC 
#
#######################################################################
#
# If this CIF has been generated from an entry in the Cambridge 
# Structural Database, then it will include bibliographic, chemical, 
# crystal, experimental, refinement or atomic coordinate data resulting 
# from the CCDC's data processing and validation procedures.
#
#######################################################################

data_RAPSEH
_chemical_formula_moiety         'C17 H13 Cl2 N1 O1 S1'
_chemical_name_systematic        
(Z)-1-(2,5-Dichlorophenyl)-2-(3-phenylthiazolidin-2-ylidene)ethanone
_symmetry_cell_setting           orthorhombic
_symmetry_space_group_name_H-M   'F d d 2'
_symmetry_Int_Tables_number      43
_space_group_name_Hall           'F 2 -2d'
loop_
_symmetry_equiv_pos_site_id
_symmetry_equiv_pos_as_xyz
1 x,y,z
2 -x,-y,z
3 1/4+x,1/4-y,1/4+z
4 1/4-x,1/4+y,1/4+z
5 x,1/2+y,1/2+z
6 -x,1/2-y,1/2+z
7 1/4+x,3/4-y,3/4+z
8 1/4-x,3/4+y,3/4+z
9 1/2+x,y,1/2+z
10 1/2-x,-y,1/2+z
11 3/4+x,1/4-y,3/4+z
12 3/4-x,1/4+y,3/4+z
13 1/2+x,1/2+y,z
14 1/2-x,1/2-y,z
15 3/4+x,3/4-y,1/4+z
16 3/4-x,3/4+y,1/4+z
_cell_length_a                   26.088(4)
_cell_length_b                   37.204(6)
_cell_length_c                   6.5952(11)
_cell_angle_alpha                90
_cell_angle_beta                 90
_cell_angle_gamma                90
_cell_volume                     6401.16
_exptl_crystal_colour            yellow
_exptl_crystal_description       block
_cell_formula_units_Z            16
_exptl_crystal_recrystallization_method ethanol
loop_
_atom_site_label
_atom_site_type_symbol
_atom_site_fract_x
_atom_site_fract_y
_atom_site_fract_z
S1 S 0.02421(3) 0.24054(2) 0.24524(14)
Cl1 Cl 0.15863(4) 0.26073(3) 0.89450(13)
Cl2 Cl 0.28175(4) 0.34881(3) 0.2596(2)
N1 N 0.05074(10) 0.18636(7) 0.4641(4)
O1 O 0.09828(9) 0.29119(6) 0.3179(4)
C1 C -0.01887(14) 0.20255(9) 0.2527(7)
H1 H -0.0518 0.2099 0.3067
H2 H -0.0241 0.1933 0.1167
C2 C 0.00299(17) 0.17495(12) 0.3793(8)
H3 H -0.0207 0.1692 0.4879
H4 H 0.0083 0.1534 0.2995
C3 C 0.06673(12) 0.21970(8) 0.4100(5)
C4 C 0.11136(12) 0.23544(8) 0.4754(5)
H5 H 0.1339 0.2220 0.5540
C5 C 0.12427(13) 0.27151(8) 0.4272(5)
C6 C 0.17417(12) 0.28681(8) 0.5084(5)
C7 C 0.19281(13) 0.28323(9) 0.7060(5)
C8 C 0.23825(14) 0.29949(9) 0.7650(7)
H6 H 0.2499 0.2970 0.8975
C9 C 0.26605(14) 0.31930(10) 0.6273(6)
H7 H 0.2969 0.3299 0.6652
C10 C 0.24775(14) 0.32318(10) 0.4339(6)
C11 C 0.20267(13) 0.30727(9) 0.3751(6)
H8 H 0.1911 0.3103 0.2428
C12 C 0.07613(12) 0.16530(9) 0.6145(5)
C13 C 0.09360(13) 0.13134(9) 0.5668(6)
H9 H 0.0893 0.1222 0.4367
C14 C 0.11777(14) 0.11097(9) 0.7159(7)
H10 H 0.1294 0.0880 0.6853
C15 C 0.12459(15) 0.12443(11) 0.9067(7)
H11 H 0.1411 0.1107 1.0049
C16 C 0.10716(14) 0.15812(10) 0.9535(6)
H12 H 0.1121 0.1674 1.0830
C17 C 0.08226(14) 0.17828(9) 0.8082(5)
H13 H 0.0695 0.2009 0.8415
loop_
_geom_bond_atom_site_label_1
_geom_bond_atom_site_label_2
_geom_bond_site_symmetry_1
_geom_bond_site_symmetry_2
S1 C1 1_555 1_555
Cl1 C7 1_555 1_555
Cl2 C10 1_555 1_555
N1 C2 1_555 1_555
O1 C5 1_555 1_555
C1 H1 1_555 1_555
H2 C1 1_555 1_555
C2 C1 1_555 1_555
H3 C2 1_555 1_555
H4 C2 1_555 1_555
C3 S1 1_555 1_555
C4 C3 1_555 1_555
H5 C4 1_555 1_555
C5 C4 1_555 1_555
C6 C5 1_555 1_555
C7 C6 1_555 1_555
C8 C7 1_555 1_555
H6 C8 1_555 1_555
C9 C8 1_555 1_555
H7 C9 1_555 1_555
C10 C9 1_555 1_555
C11 C6 1_555 1_555
H8 C11 1_555 1_555
C12 N1 1_555 1_555
C13 C12 1_555 1_555
H9 C13 1_555 1_555
C14 C13 1_555 1_555
H10 C14 1_555 1_555
C15 C14 1_555 1_555
H11 C15 1_555 1_555
C16 C15 1_555 1_555
H12 C16 1_555 1_555
C17 C12 1_555 1_555
H13 C17 1_555 1_555
N1 C3 1_555 1_555
C10 C11 1_555 1_555
C16 C17 1_555 1_555

#END
