
#######################################################################
#
#                 Cambridge Crystallographic Data Centre
#                                CCDC 
#
#######################################################################
#
# If this CIF has been generated from an entry in the Cambridge 
# Structural Database, then it will include bibliographic, chemical, 
# crystal, experimental, refinement or atomic coordinate data resulting 
# from the CCDC's data processing and validation procedures.
#
#######################################################################

data_RAPSUX
_chemical_formula_moiety         'C17 H14 N4 O1 S1'
_chemical_name_systematic        
3-(2-Ethoxyphenyl)-6-phenyl-1,2,4-triazolo(3,4-b)(1,3,4)thiadiazole
_symmetry_cell_setting           monoclinic
_symmetry_space_group_name_H-M   'P 21/n'
_symmetry_Int_Tables_number      14
_space_group_name_Hall           '-P 2yn'
loop_
_symmetry_equiv_pos_site_id
_symmetry_equiv_pos_as_xyz
1 x,y,z
2 1/2-x,1/2+y,1/2-z
3 -x,-y,-z
4 1/2+x,1/2-y,1/2+z
_cell_length_a                   10.3988(9)
_cell_length_b                   8.7056(8)
_cell_length_c                   17.5354(16)
_cell_angle_alpha                90
_cell_angle_beta                 102.184(2)
_cell_angle_gamma                90
_cell_volume                     1551.68
_exptl_crystal_colour            colorless
_exptl_crystal_description       block
_chemical_melting_point          '443-445 K'
_cell_formula_units_Z            4
_exptl_crystal_recrystallization_method 'absolute alcohol'
loop_
_atom_site_label
_atom_site_type_symbol
_atom_site_fract_x
_atom_site_fract_y
_atom_site_fract_z
S1 S 0.98525(6) 0.69338(7) 0.99453(3)
O1 O 0.77199(13) 0.81593(17) 0.72026(8)
N1 N 0.89636(16) 0.88766(18) 0.88214(9)
N2 N 0.98319(15) 0.78843(18) 0.85854(9)
N3 N 1.12241(18) 0.5947(2) 0.87935(11)
N4 N 1.11415(17) 0.6530(2) 0.80381(11)
C1 C 0.6414(3) 1.0815(3) 1.07834(17)
H1 H 0.5882 1.1335 1.1062
C2 C 0.6495(3) 1.1320(3) 1.00532(16)
H2 H 0.6010 1.2169 0.9837
C3 C 0.7297(2) 1.0563(3) 0.96402(14)
H3 H 0.7354 1.0910 0.9147
C4 C 0.8014(2) 0.9294(2) 0.99565(11)
C5 C 0.7904(3) 0.8783(3) 1.06929(13)
H4 H 0.8368 0.7919 1.0909
C6 C 0.7107(3) 0.9560(4) 1.11034(15)
H5 H 0.7045 0.9225 1.1598
C7 C 0.88718(19) 0.8502(2) 0.95227(11)
C8 C 1.0424(2) 0.6792(2) 0.90934(12)
C9 C 1.03075(19) 0.7677(2) 0.79206(12)
C10 C 0.9946(2) 0.8596(2) 0.72058(11)
C11 C 0.86274(19) 0.8855(2) 0.68611(11)
C12 C 0.8314(2) 0.9742(3) 0.61903(12)
H6 H 0.7438 0.9931 0.5960
C13 C 0.9300(3) 1.0345(3) 0.58647(13)
H7 H 0.9083 1.0945 0.5417
C14 C 1.0594(3) 1.0071(3) 0.61915(14)
H8 H 1.1252 1.0469 0.5963
C15 C 1.0917(2) 0.9205(3) 0.68587(13)
H9 H 1.1797 0.9023 0.7081
C16 C 0.6457(2) 0.8878(3) 0.71047(14)
H10 H 0.6013 0.8843 0.6560
H11 H 0.6563 0.9946 0.7263
C17 C 0.5667(3) 0.8073(4) 0.75805(18)
H12 H 0.5574 0.7014 0.7427
H13 H 0.4813 0.8540 0.7505
H14 H 0.6095 0.8140 0.8121
loop_
_geom_bond_atom_site_label_1
_geom_bond_atom_site_label_2
_geom_bond_site_symmetry_1
_geom_bond_site_symmetry_2
S1 C7 1_555 1_555
O1 C11 1_555 1_555
N1 N2 1_555 1_555
N2 C8 1_555 1_555
N3 N4 1_555 1_555
N4 C9 1_555 1_555
C1 H1 1_555 1_555
C2 C1 1_555 1_555
H2 C2 1_555 1_555
C3 C2 1_555 1_555
H3 C3 1_555 1_555
C4 C3 1_555 1_555
C5 C4 1_555 1_555
H4 C5 1_555 1_555
C6 C1 1_555 1_555
H5 C6 1_555 1_555
C7 N1 1_555 1_555
C8 S1 1_555 1_555
C9 N2 1_555 1_555
C10 C9 1_555 1_555
C11 C10 1_555 1_555
C12 C11 1_555 1_555
H6 C12 1_555 1_555
C13 C12 1_555 1_555
H7 C13 1_555 1_555
C14 C13 1_555 1_555
H8 C14 1_555 1_555
C15 C10 1_555 1_555
H9 C15 1_555 1_555
C16 O1 1_555 1_555
H10 C16 1_555 1_555
H11 C16 1_555 1_555
C17 C16 1_555 1_555
H12 C17 1_555 1_555
H13 C17 1_555 1_555
H14 C17 1_555 1_555
N3 C8 1_555 1_555
C4 C7 1_555 1_555
C5 C6 1_555 1_555
C14 C15 1_555 1_555

#END
