
#######################################################################
#
#                 Cambridge Crystallographic Data Centre
#                                CCDC 
#
#######################################################################
#
# If this CIF has been generated from an entry in the Cambridge 
# Structural Database, then it will include bibliographic, chemical, 
# crystal, experimental, refinement or atomic coordinate data resulting 
# from the CCDC's data processing and validation procedures.
#
#######################################################################

data_RAPXOV
_chemical_formula_moiety         'C20 H20 S12,2(C1 S2)'
_chemical_name_systematic        
'cis,cis-2,7,9,14-Tetrathia-1,8(2,7)-ditetrathiafulvalenacyclotetradecaphane carbon disulfide solvate'
_symmetry_cell_setting           triclinic
_symmetry_space_group_name_H-M   'P -1'
_symmetry_Int_Tables_number      2
_space_group_name_Hall           '-P 1'
loop_
_symmetry_equiv_pos_site_id
_symmetry_equiv_pos_as_xyz
1 x,y,z
2 -x,-y,-z
_cell_length_a                   8.987(4)
_cell_length_b                   12.150(5)
_cell_length_c                   8.329(3)
_cell_angle_alpha                99.83(3)
_cell_angle_beta                 96.53(4)
_cell_angle_gamma                76.71(3)
_cell_volume                     869.475
_exptl_crystal_colour            yellow
_exptl_crystal_description       prism
_cell_formula_units_Z            1
loop_
_atom_site_label
_atom_site_type_symbol
_atom_site_fract_x
_atom_site_fract_y
_atom_site_fract_z
S1 S 1.0227(1) 0.51427(9) 0.2323(1)
S2 S 0.8163(1) 0.39027(8) 0.3431(1)
S3 S 0.8155(1) 0.75511(9) 0.3873(1)
S4 S 0.6071(1) 0.63388(8) 0.4992(1)
S5 S 0.9906(1) 0.16024(8) 0.1957(1)
S6 S 0.3707(1) 0.84983(9) 0.5855(1)
C1 C 0.8585(4) 0.5228(3) 0.3331(4)
C2 C 0.9647(4) 0.3093(3) 0.2264(4)
C3 C 1.0549(5) 0.3675(4) 0.1780(5)
C4 C 0.7714(4) 0.6227(3) 0.3975(4)
C5 C 0.5463(4) 0.7826(3) 0.5064(4)
C6 C 0.6438(5) 0.8344(3) 0.4561(5)
C7 C 0.8410(5) 0.1404(4) 0.0353(5)
C8 C 0.8655(5) 0.1720(4) -0.1247(5)
C9 C 0.7454(5) 0.1448(4) -0.2597(5)
C10 C 0.2379(5) 0.8127(4) 0.4143(5)
H1 H 1.140(4) 0.335(3) 0.118(4)
H2 H 0.635(4) 0.899(3) 0.450(4)
H3 H 0.835(4) 0.073(3) 0.033(4)
H4 H 0.745(4) 0.183(3) 0.080(4)
H5 H 0.962(4) 0.137(3) -0.153(4)
H6 H 0.856(4) 0.262(3) -0.107(4)
H7 H 0.753(4) 0.059(3) -0.285(4)
H8 H 0.642(4) 0.179(3) -0.236(4)
H9 H 0.136(5) 0.851(4) 0.461(5)
H10 H 0.254(5) 0.734(4) 0.394(5)
C10A C 0.7621(5) 0.1873(4) -0.4143(5)
S6A S 0.6293(1) 0.15017(9) -0.5855(1)
C5A C 0.4537(4) 0.2174(3) -0.5064(4)
S4A S 0.3929(1) 0.36612(8) -0.4992(1)
C4A C 0.2286(4) 0.3773(3) -0.3975(4)
S3A S 0.1845(1) 0.24489(9) -0.3873(1)
C6A C 0.3562(5) 0.1656(3) -0.4561(5)
H2A H 0.365(4) 0.101(3) -0.450(4)
C1A C 0.1415(4) 0.4772(3) -0.3331(4)
S1A S -0.0227(1) 0.48573(9) -0.2323(1)
C3A C -0.0549(5) 0.6325(4) -0.1780(5)
C2A C 0.0353(4) 0.6907(3) -0.2264(4)
S2A S 0.1837(1) 0.60973(8) -0.3431(1)
S5A S 0.0094(1) 0.83976(8) -0.1957(1)
C7A C 0.1590(5) 0.8596(4) -0.0353(5)
C8A C 0.1345(5) 0.8280(4) 0.1247(5)
C9A C 0.2546(5) 0.8552(4) 0.2597(5)
H7A H 0.247(4) 0.941(3) 0.285(4)
H8A H 0.358(4) 0.821(3) 0.236(4)
H5A H 0.038(4) 0.863(3) 0.153(4)
H6A H 0.144(4) 0.738(3) 0.107(4)
H3A H 0.165(4) 0.927(3) -0.033(4)
H4A H 0.255(4) 0.817(3) -0.080(4)
H1A H -0.140(4) 0.665(3) -0.118(4)
H9A H 0.864(5) 0.149(4) -0.461(5)
H10A H 0.746(5) 0.266(4) -0.394(5)
S7 S 0.4052(4) 0.4417(5) 0.0675(5)
C11 C 0.5000 0.5000 0.0000
S7A S 0.5948(4) 0.5583(5) -0.0675(5)
S8 S 0.3849(2) 0.1108(2) 0.9984(3)
C12 C 0.5000 0.0000 1.0000
S8A S 0.6151(2) -0.1108(2) 1.0016(3)
loop_
_geom_bond_atom_site_label_1
_geom_bond_atom_site_label_2
_geom_bond_site_symmetry_1
_geom_bond_site_symmetry_2
S1 C1 1_555 1_555
S2 C1 1_555 1_555
S3 C4 1_555 1_555
S4 C4 1_555 1_555
S5 C2 1_555 1_555
S6 C5 1_555 1_555
S7 C11 1_555 1_555
S8 C12 1_555 1_555
C1 C4 1_555 1_555
C2 S2 1_555 1_555
C3 S1 1_555 1_555
C5 S4 1_555 1_555
C6 S3 1_555 1_555
C7 S5 1_555 1_555
C8 C7 1_555 1_555
C9 C8 1_555 1_555
C10 S6 1_555 1_555
C11 S7A 1_555 1_555
C12 S8A 1_555 1_555
H1 C3 1_555 1_555
H2 C6 1_555 1_555
H3 C7 1_555 1_555
H4 C7 1_555 1_555
H5 C8 1_555 1_555
H6 C8 1_555 1_555
H7 C9 1_555 1_555
H8 C9 1_555 1_555
H9 C10 1_555 1_555
H10 C10 1_555 1_555
C10A C9 1_555 1_555
S6A C10A 1_555 1_555
C5A S6A 1_555 1_555
S4A C5A 1_555 1_555
C4A S4A 1_555 1_555
S3A C4A 1_555 1_555
C6A C5A 1_555 1_555
H2A C6A 1_555 1_555
C1A C4A 1_555 1_555
S1A C1A 1_555 1_555
C3A S1A 1_555 1_555
C2A C3A 1_555 1_555
S2A C1A 1_555 1_555
S5A C2A 1_555 1_555
C7A S5A 1_555 1_555
C8A C7A 1_555 1_555
C9A C10 1_555 1_555
H7A C9A 1_555 1_555
H8A C9A 1_555 1_555
H5A C8A 1_555 1_555
H6A C8A 1_555 1_555
H3A C7A 1_555 1_555
H4A C7A 1_555 1_555
H1A C3A 1_555 1_555
H9A C10A 1_555 1_555
H10A C10A 1_555 1_555
C2 C3 1_555 1_555
C5 C6 1_555 1_555
S3A C6A 1_555 1_555
C2A S2A 1_555 1_555
C8A C9A 1_555 1_555

#END
