
#######################################################################
#
#                 Cambridge Crystallographic Data Centre
#                                CCDC 
#
#######################################################################
#
# If this CIF has been generated from an entry in the Cambridge 
# Structural Database, then it will include bibliographic, chemical, 
# crystal, experimental, refinement or atomic coordinate data resulting 
# from the CCDC's data processing and validation procedures.
#
#######################################################################

data_RAQCIY
_chemical_formula_moiety         'C30 H28 N4 O4 S1'
_chemical_name_systematic        
1-methyl-8'-(1-methyl-2-oxo-1,2-dihydro-3H-indol-3-ylidene)-1'-(pyridin-2-ylsulfonyl)-1',5',6',7',8',8a'-hexahydro-2'H-spiro[indole-3,3'-indolizin]-2(1H)-one
_symmetry_cell_setting           monoclinic
_symmetry_space_group_name_H-M   'P 21/c'
_symmetry_Int_Tables_number      14
_space_group_name_Hall           '-P 2ybc'
loop_
_symmetry_equiv_pos_site_id
_symmetry_equiv_pos_as_xyz
1 x,y,z
2 -x,1/2+y,1/2-z
3 -x,-y,-z
4 x,1/2-y,1/2+z
_cell_length_a                   14.539(2)
_cell_length_b                   10.3664(9)
_cell_length_c                   17.820(2)
_cell_angle_alpha                90
_cell_angle_beta                 108.211(15)
_cell_angle_gamma                90
_cell_volume                     2551.25
_exptl_crystal_description       block
_cell_formula_units_Z            4
loop_
_atom_site_label
_atom_site_type_symbol
_atom_site_fract_x
_atom_site_fract_y
_atom_site_fract_z
S1 S 0.90965(4) 0.62673(6) 0.71732(4)
O1 O 0.72226(14) 0.19006(18) 0.68697(11)
N1 N 0.75545(14) 0.44151(17) 0.78799(11)
O2 O 0.90321(14) 0.68775(18) 0.78824(10)
O3 O 1.00420(12) 0.58762(18) 0.71514(12)
O4 O 0.53551(15) 0.84239(19) 0.66302(11)
N2 N 0.78551(15) 0.11353(18) 0.81485(13)
N3 N 0.51024(15) 0.7857(2) 0.53337(12)
N4 N 0.84260(17) 0.6849(2) 0.56514(12)
C1 C 0.60993(16) 0.6110(2) 0.54483(14)
C2 C 0.67489(16) 0.6129(2) 0.69711(13)
C3 C 0.62192(16) 0.6590(2) 0.62523(13)
C4 C 0.82016(17) 0.3307(2) 0.79519(13)
C5 C 0.73361(16) 0.4901(2) 0.70616(13)
H1 H 0.6929 0.4255 0.6710
C6 C 0.83494(16) 0.4850(2) 0.69435(13)
H2 H 0.8272 0.4591 0.6398
C7 C 0.86722(17) 0.2894(2) 0.88018(14)
C8 C 0.54240(17) 0.6915(2) 0.49130(14)
C9 C 0.64660(18) 0.5072(2) 0.51385(14)
H3 H 0.6904 0.4508 0.5473
C10 C 0.86135(16) 0.7358(2) 0.63714(14)
C11 C 0.84503(17) 0.1607(2) 0.88821(14)
C12 C 0.55368(18) 0.7724(3) 0.61381(16)
C13 C 0.66794(17) 0.4253(2) 0.81106(14)
H4 H 0.6840 0.3843 0.8625
H5 H 0.6219 0.3709 0.7731
C14 C 0.66927(19) 0.6618(2) 0.77535(14)
H6 H 0.6307 0.7400 0.7672
H7 H 0.7338 0.6822 0.8098
C15 C 0.76863(18) 0.2048(2) 0.75696(15)
C16 C 0.62337(19) 0.5588(2) 0.81407(15)
H8 H 0.5543 0.5552 0.7870
H9 H 0.6329 0.5822 0.8687
C17 C 0.61731(19) 0.4881(3) 0.43218(15)
H10 H 0.6409 0.4176 0.4116
C18 C 0.9237(2) 0.3557(3) 0.94488(15)
H11 H 0.9394 0.4416 0.9402
C19 C 0.88989(18) 0.3775(2) 0.75083(15)
H12 H 0.9061 0.3072 0.7213
H13 H 0.9492 0.4109 0.7877
C20 C 0.8515(2) 0.8630(3) 0.65199(17)
H14 H 0.8656 0.8934 0.7035
C21 C 0.8791(2) 0.0975(3) 0.96040(17)
H15 H 0.8643 0.0113 0.9653
C22 C 0.55348(19) 0.5727(3) 0.38141(16)
H16 H 0.5369 0.5602 0.3271
C23 C 0.51449(19) 0.6748(3) 0.41016(14)
H17 H 0.4708 0.7308 0.3763
C24 C 0.9355(2) 0.1662(3) 1.02449(17)
H18 H 0.9590 0.1254 1.0732
C25 C 0.7554(2) -0.0204(2) 0.79965(19)
H19 H 0.8114 -0.0740 0.8071
H20 H 0.7133 -0.0289 0.7463
H21 H 0.7216 -0.0466 0.8356
C26 C 0.4261(2) 0.8683(3) 0.49834(19)
H22 H 0.4337 0.9118 0.4531
H23 H 0.4209 0.9308 0.5365
H24 H 0.3686 0.8164 0.4824
C27 C 0.8201(2) 0.9455(3) 0.5884(2)
H25 H 0.8129 1.0331 0.5961
C28 C 0.9574(2) 0.2930(3) 1.01807(16)
H26 H 0.9949 0.3377 1.0623
C29 C 0.8114(2) 0.7671(3) 0.50512(17)
H27 H 0.7964 0.7345 0.4541
C30 C 0.7999(2) 0.8965(3) 0.5139(2)
H28 H 0.7786 0.9501 0.4700
loop_
_geom_bond_atom_site_label_1
_geom_bond_atom_site_label_2
_geom_bond_site_symmetry_1
_geom_bond_site_symmetry_2
S1 O2 1_555 1_555
O1 C15 1_555 1_555
N1 C4 1_555 1_555
O3 S1 1_555 1_555
O4 C12 1_555 1_555
N2 C11 1_555 1_555
N3 C8 1_555 1_555
N4 C10 1_555 1_555
C1 C3 1_555 1_555
C2 C3 1_555 1_555
C3 C12 1_555 1_555
C4 C7 1_555 1_555
C5 N1 1_555 1_555
H1 C5 1_555 1_555
C6 S1 1_555 1_555
H2 C6 1_555 1_555
C7 C11 1_555 1_555
C8 C1 1_555 1_555
C9 C1 1_555 1_555
H3 C9 1_555 1_555
C10 S1 1_555 1_555
C11 C21 1_555 1_555
C12 N3 1_555 1_555
C13 N1 1_555 1_555
H4 C13 1_555 1_555
H5 C13 1_555 1_555
C14 C2 1_555 1_555
H6 C14 1_555 1_555
H7 C14 1_555 1_555
C15 N2 1_555 1_555
C16 C13 1_555 1_555
H8 C16 1_555 1_555
H9 C16 1_555 1_555
C17 C9 1_555 1_555
H10 C17 1_555 1_555
C18 C7 1_555 1_555
H11 C18 1_555 1_555
C19 C4 1_555 1_555
H12 C19 1_555 1_555
H13 C19 1_555 1_555
C20 C10 1_555 1_555
H14 C20 1_555 1_555
C21 H15 1_555 1_555
C22 C17 1_555 1_555
H16 C22 1_555 1_555
C23 C8 1_555 1_555
H17 C23 1_555 1_555
C24 C21 1_555 1_555
H18 C24 1_555 1_555
C25 N2 1_555 1_555
H19 C25 1_555 1_555
H20 C25 1_555 1_555
H21 C25 1_555 1_555
C26 N3 1_555 1_555
H22 C26 1_555 1_555
H23 C26 1_555 1_555
H24 C26 1_555 1_555
C27 C20 1_555 1_555
H25 C27 1_555 1_555
C28 C18 1_555 1_555
H26 C28 1_555 1_555
C29 N4 1_555 1_555
H27 C29 1_555 1_555
C30 C27 1_555 1_555
H28 C30 1_555 1_555
C2 C5 1_555 1_555
C4 C15 1_555 1_555
C5 C6 1_555 1_555
C6 C19 1_555 1_555
C14 C16 1_555 1_555
C22 C23 1_555 1_555
C24 C28 1_555 1_555
C29 C30 1_555 1_555

#END
