
#######################################################################
#
#                 Cambridge Crystallographic Data Centre
#                                CCDC 
#
#######################################################################
#
# If this CIF has been generated from an entry in the Cambridge 
# Structural Database, then it will include bibliographic, chemical, 
# crystal, experimental, refinement or atomic coordinate data resulting 
# from the CCDC's data processing and validation procedures.
#
#######################################################################

data_RAQDOF
_chemical_formula_moiety         'C30 H23 B1 F15 N1'
_chemical_name_systematic        
tris(pentafluorophenyl)(1-(2,2,6,6-tetramethylpiperidinium-1-ylidene)propan-2-yl)borate
_symmetry_cell_setting           monoclinic
_symmetry_space_group_name_H-M   'P 21'
_symmetry_Int_Tables_number      4
_space_group_name_Hall           'P 2yb'
loop_
_symmetry_equiv_pos_site_id
_symmetry_equiv_pos_as_xyz
1 x,y,z
2 -x,1/2+y,-z
_cell_length_a                   9.1176(12)
_cell_length_b                   16.071(2)
_cell_length_c                   19.360(2)
_cell_angle_alpha                90
_cell_angle_beta                 98.211(4)
_cell_angle_gamma                90
_cell_volume                     2807.72
_exptl_crystal_colour            colorless
_exptl_crystal_description       plate
_cell_formula_units_Z            4
loop_
_atom_site_label
_atom_site_type_symbol
_atom_site_fract_x
_atom_site_fract_y
_atom_site_fract_z
N1 N 0.5292(7) 0.7728(4) 0.4659(3)
B1 B 0.2923(10) 0.7718(6) 0.6099(5)
C1 C 0.4044(8) 0.7820(5) 0.4887(4)
H1 H 0.355 0.8322 0.4737
C2 C 0.3229(8) 0.7308(5) 0.5329(4)
H2 H 0.3836 0.6796 0.5444
C3 C 0.1780(8) 0.7021(5) 0.4870(4)
H3 H 0.1189 0.751 0.4702
H4 H 0.1208 0.6669 0.5147
H5 H 0.2028 0.6704 0.447
C4 C 0.5773(9) 0.8401(5) 0.4161(4)
C5 C 0.6348(9) 0.7921(5) 0.3572(4)
H6 H 0.5551 0.755 0.3351
H7 H 0.657 0.8324 0.3214
C6 C 0.7722(9) 0.7403(6) 0.3798(4)
H8 H 0.8615 0.7744 0.3768
H9 H 0.7737 0.6924 0.3478
C7 C 0.7769(9) 0.7085(5) 0.4539(4)
H10 H 0.8363 0.7482 0.4855
H11 H 0.8307 0.6548 0.4575
C8 C 0.6297(9) 0.6954(5) 0.4809(4)
C9 C 0.4470(8) 0.8944(5) 0.3850(4)
H12 H 0.4791 0.9322 0.3504
H13 H 0.4117 0.9268 0.4222
H14 H 0.3667 0.8589 0.3625
C10 C 0.6951(9) 0.8961(5) 0.4571(4)
H15 H 0.7508 0.9249 0.4246
H16 H 0.763 0.8621 0.4893
H17 H 0.6467 0.9372 0.4837
C11 C 0.5469(9) 0.6214(5) 0.4422(4)
H18 H 0.5354 0.6313 0.3917
H19 H 0.449 0.6156 0.4569
H20 H 0.6039 0.5702 0.4532
C12 C 0.6677(9) 0.6793(5) 0.5588(4)
H21 H 0.743 0.6355 0.5668
H22 H 0.5784 0.6616 0.5775
H23 H 0.7061 0.7305 0.5823
C13 C 0.1980(8) 0.8606(5) 0.6095(4)
C14 C 0.1328(8) 0.9093(5) 0.5542(4)
C15 C 0.0596(8) 0.9838(5) 0.5618(4)
C16 C 0.0517(8) 1.0151(5) 0.6260(4)
C17 C 0.1153(9) 0.9710(5) 0.6835(4)
C18 C 0.1864(8) 0.8965(5) 0.6739(4)
C19 C 0.2025(8) 0.6969(5) 0.6453(4)
C20 C 0.0593(9) 0.7008(5) 0.6604(4)
C21 C -0.0156(9) 0.6357(5) 0.6887(4)
C22 C 0.0554(10) 0.5613(5) 0.7014(4)
C23 C 0.1938(10) 0.5526(5) 0.6862(4)
C24 C 0.2654(8) 0.6171(5) 0.6594(4)
C25 C 0.4551(8) 0.7969(5) 0.6559(4)
C26 C 0.5358(8) 0.8630(5) 0.6333(4)
C27 C 0.6715(9) 0.8898(5) 0.6654(4)
C28 C 0.7367(8) 0.8509(6) 0.7237(4)
C29 C 0.6594(9) 0.7862(6) 0.7513(4)
C30 C 0.5234(8) 0.7628(5) 0.7176(4)
F1 F 0.1354(5) 0.8863(3) 0.4872(2)
F2 F -0.0018(5) 1.0254(3) 0.5039(2)
F3 F -0.0189(5) 1.0874(3) 0.6349(2)
F4 F 0.1084(5) 1.0010(3) 0.7477(2)
F5 F 0.2418(5) 0.8562(3) 0.7332(2)
F6 F -0.0244(5) 0.7708(3) 0.6478(2)
F7 F -0.1531(5) 0.6467(3) 0.7040(2)
F8 F -0.0146(5) 0.4979(3) 0.7292(2)
F9 F 0.2661(5) 0.4786(3) 0.6987(2)
F10 F 0.4033(5) 0.6020(3) 0.6457(2)
F11 F 0.4773(5) 0.9063(3) 0.5755(2)
F12 F 0.7399(5) 0.9542(3) 0.6385(2)
F13 F 0.8701(5) 0.8746(4) 0.7566(3)
F14 F 0.7208(5) 0.7505(3) 0.8113(2)
F15 F 0.4563(5) 0.7043(3) 0.7526(2)
N2 N 0.0233(7) 0.2239(5) 1.0336(3)
B2 B 0.2737(10) 0.2251(6) 0.8946(5)
C31 C 0.3956(8) 0.2645(6) 1.0258(4)
H24 H 0.3796 0.2951 1.0678
H25 H 0.4675 0.2944 1.0019
H26 H 0.4339 0.2088 1.0389
C32 C 0.1479(9) 0.2075(6) 1.0112(4)
H27 H 0.1809 0.152 1.0201
C33 C 0.2458(8) 0.2565(6) 0.9758(4)
H28 H 0.2022 0.3137 0.9706
C34 C -0.0561(10) 0.3091(6) 1.0228(5)
C35 C -0.2059(11) 0.3054(8) 1.0488(6)
H29 H -0.2464 0.3626 1.048
H30 H -0.2738 0.272 1.0151
C36 C -0.2089(11) 0.2696(8) 1.1211(5)
H31 H -0.3107 0.2509 1.1252
H32 H -0.1814 0.3135 1.1564
C37 C -0.1025(10) 0.1966(6) 1.1355(4)
H33 H -0.0138 0.2159 1.167
H34 H -0.151 0.1534 1.1609
C38 C -0.0514(9) 0.1564(6) 1.0722(4)
C39 C 0.0435(11) 0.3739(7) 1.0634(5)
H35 H 0.1336 0.381 1.0418
H36 H 0.0703 0.3553 1.1118
H37 H -0.0093 0.4271 1.0627
C40 C -0.0897(10) 0.3289(6) 0.9456(4)
H38 H -0.1427 0.2821 0.921
H39 H 0.0033 0.3385 0.9269
H40 H -0.1514 0.379 0.939
C41 C 0.0583(11) 0.0878(6) 1.0981(5)
H41 H 0.1439 0.1122 1.1276
H42 H 0.0915 0.0599 1.0581
H43 H 0.0101 0.0473 1.1253
C42 C -0.1793(10) 0.1179(7) 1.0216(5)
H44 H -0.2416 0.0841 1.0479
H45 H -0.1385 0.0827 0.9876
H46 H -0.2391 0.1624 0.997
C43 C 0.1154(9) 0.2111(5) 0.8436(4)
C44 C 0.0577(9) 0.2548(5) 0.7828(4)
C45 C -0.0743(9) 0.2362(6) 0.7426(4)
C46 C -0.1600(9) 0.1723(7) 0.7594(4)
C47 C -0.1093(10) 0.1244(6) 0.8160(5)
C48 C 0.0230(9) 0.1457(6) 0.8560(4)
C49 C 0.3746(9) 0.3043(5) 0.8692(4)
C50 C 0.3205(9) 0.3864(6) 0.8650(4)
C51 C 0.3972(11) 0.4528(5) 0.8441(5)
C52 C 0.5315(10) 0.4450(6) 0.8244(4)
C53 C 0.5941(9) 0.3657(6) 0.8270(4)
C54 C 0.5157(9) 0.3003(5) 0.8514(4)
C55 C 0.3603(8) 0.1346(5) 0.8875(4)
C56 C 0.3877(8) 0.1094(5) 0.8215(4)
C57 C 0.4542(9) 0.0379(5) 0.8056(4)
C58 C 0.5053(10) -0.0166(5) 0.8590(5)
C59 C 0.4818(10) 0.0031(5) 0.9243(4)
C60 C 0.4089(9) 0.0754(5) 0.9378(4)
F16 F 0.1342(5) 0.3183(3) 0.7593(2)
F17 F -0.1211(5) 0.2814(3) 0.6850(2)
F18 F -0.2896(5) 0.1532(4) 0.7200(3)
F19 F -0.1889(6) 0.0587(3) 0.8344(3)
F20 F 0.0681(5) 0.0936(3) 0.9111(2)
F21 F 0.1826(5) 0.4024(3) 0.8799(2)
F22 F 0.3327(6) 0.5307(3) 0.8415(3)
F23 F 0.6052(6) 0.5099(3) 0.8015(3)
F24 F 0.7251(5) 0.3544(3) 0.8063(3)
F25 F 0.5934(5) 0.2271(3) 0.8555(2)
F26 F 0.3462(5) 0.1619(3) 0.7667(2)
F27 F 0.4727(5) 0.0201(3) 0.7397(2)
F28 F 0.5753(6) -0.0871(3) 0.8453(3)
F29 F 0.5299(7) -0.0488(3) 0.9782(3)
F30 F 0.3856(5) 0.0837(3) 1.0050(2)
loop_
_geom_bond_atom_site_label_1
_geom_bond_atom_site_label_2
_geom_bond_site_symmetry_1
_geom_bond_site_symmetry_2
N1 C1 1_555 1_555
B1 C2 1_555 1_555
C1 H1 1_555 1_555
C2 C1 1_555 1_555
H2 C2 1_555 1_555
C3 C2 1_555 1_555
H3 C3 1_555 1_555
H4 C3 1_555 1_555
H5 C3 1_555 1_555
C4 N1 1_555 1_555
C5 C4 1_555 1_555
H6 C5 1_555 1_555
H7 C5 1_555 1_555
C6 C5 1_555 1_555
H8 C6 1_555 1_555
H9 C6 1_555 1_555
C7 C6 1_555 1_555
H10 C7 1_555 1_555
H11 C7 1_555 1_555
C8 N1 1_555 1_555
C9 C4 1_555 1_555
H12 C9 1_555 1_555
H13 C9 1_555 1_555
H14 C9 1_555 1_555
C10 C4 1_555 1_555
H15 C10 1_555 1_555
H16 C10 1_555 1_555
H17 C10 1_555 1_555
C11 C8 1_555 1_555
H18 C11 1_555 1_555
H19 C11 1_555 1_555
H20 C11 1_555 1_555
C12 C8 1_555 1_555
H21 C12 1_555 1_555
H22 C12 1_555 1_555
H23 C12 1_555 1_555
C13 B1 1_555 1_555
C14 C13 1_555 1_555
C15 C14 1_555 1_555
C16 C15 1_555 1_555
C17 C16 1_555 1_555
C18 C13 1_555 1_555
C19 B1 1_555 1_555
C20 C19 1_555 1_555
C21 C20 1_555 1_555
C22 C21 1_555 1_555
C23 C22 1_555 1_555
C24 C19 1_555 1_555
C25 B1 1_555 1_555
C26 C25 1_555 1_555
C27 C26 1_555 1_555
C28 C27 1_555 1_555
C29 C28 1_555 1_555
C30 C25 1_555 1_555
F1 C14 1_555 1_555
F2 C15 1_555 1_555
F3 C16 1_555 1_555
F4 C17 1_555 1_555
F5 C18 1_555 1_555
F6 C20 1_555 1_555
F7 C21 1_555 1_555
F8 C22 1_555 1_555
F9 C23 1_555 1_555
F10 C24 1_555 1_555
F11 C26 1_555 1_555
F12 C27 1_555 1_555
F13 C28 1_555 1_555
F14 C29 1_555 1_555
F15 C30 1_555 1_555
N2 C32 1_555 1_555
B2 C33 1_555 1_555
C31 H24 1_555 1_555
H25 C31 1_555 1_555
H26 C31 1_555 1_555
C32 H27 1_555 1_555
C33 C31 1_555 1_555
H28 C33 1_555 1_555
C34 N2 1_555 1_555
C35 C34 1_555 1_555
H29 C35 1_555 1_555
H30 C35 1_555 1_555
C36 C35 1_555 1_555
H31 C36 1_555 1_555
H32 C36 1_555 1_555
C37 C36 1_555 1_555
H33 C37 1_555 1_555
H34 C37 1_555 1_555
C38 N2 1_555 1_555
C39 C34 1_555 1_555
H35 C39 1_555 1_555
H36 C39 1_555 1_555
H37 C39 1_555 1_555
C40 C34 1_555 1_555
H38 C40 1_555 1_555
H39 C40 1_555 1_555
H40 C40 1_555 1_555
C41 C38 1_555 1_555
H41 C41 1_555 1_555
H42 C41 1_555 1_555
H43 C41 1_555 1_555
C42 C38 1_555 1_555
H44 C42 1_555 1_555
H45 C42 1_555 1_555
H46 C42 1_555 1_555
C43 B2 1_555 1_555
C44 C43 1_555 1_555
C45 C44 1_555 1_555
C46 C45 1_555 1_555
C47 C46 1_555 1_555
C48 C43 1_555 1_555
C49 B2 1_555 1_555
C50 C49 1_555 1_555
C51 C50 1_555 1_555
C52 C51 1_555 1_555
C53 C52 1_555 1_555
C54 C49 1_555 1_555
C55 B2 1_555 1_555
C56 C55 1_555 1_555
C57 C56 1_555 1_555
C58 C57 1_555 1_555
C59 C58 1_555 1_555
C60 C55 1_555 1_555
F16 C44 1_555 1_555
F17 C45 1_555 1_555
F18 C46 1_555 1_555
F19 C47 1_555 1_555
F20 C48 1_555 1_555
F21 C50 1_555 1_555
F22 C51 1_555 1_555
F23 C52 1_555 1_555
F24 C53 1_555 1_555
F25 C54 1_555 1_555
F26 C56 1_555 1_555
F27 C57 1_555 1_555
F28 C58 1_555 1_555
F29 C59 1_555 1_555
F30 C60 1_555 1_555
C7 C8 1_555 1_555
C17 C18 1_555 1_555
C23 C24 1_555 1_555
C29 C30 1_555 1_555
C32 C33 1_555 1_555
C37 C38 1_555 1_555
C47 C48 1_555 1_555
C53 C54 1_555 1_555
C59 C60 1_555 1_555

#END
