
#######################################################################
#
#                 Cambridge Crystallographic Data Centre
#                                CCDC 
#
#######################################################################
#
# If this CIF has been generated from an entry in the Cambridge 
# Structural Database, then it will include bibliographic, chemical, 
# crystal, experimental, refinement or atomic coordinate data resulting 
# from the CCDC's data processing and validation procedures.
#
#######################################################################

data_RAQFOH
_chemical_name_common            
'[1,2-bis(hydroxy)-1-[3-methyl-1-(2,2,6,6-tetramethylpiperidin-1-yl)butan-2-yl]diazen-1-iumato][bis(pentafluorophenyl)]boron'
_chemical_formula_moiety         'C26 H28 B1 F10 N3 O2'
_chemical_name_systematic        
1-(2-(2,2-bis(pentafluorophenyl)-1,3,4,5,2-dioxadiazaborol-4-yl)-3-methylbutyl)-2,2,6,6-tetramethylpiperidine
_symmetry_cell_setting           monoclinic
_symmetry_space_group_name_H-M   'P 21/c'
_symmetry_Int_Tables_number      14
_space_group_name_Hall           '-P 2ybc'
loop_
_symmetry_equiv_pos_site_id
_symmetry_equiv_pos_as_xyz
1 x,y,z
2 -x,1/2+y,1/2-z
3 -x,-y,-z
4 x,1/2-y,1/2+z
_cell_length_a                   11.4759(7)
_cell_length_b                   11.5926(7)
_cell_length_c                   20.7695(13)
_cell_angle_alpha                90
_cell_angle_beta                 95.877(2)
_cell_angle_gamma                90
_cell_volume                     2748.56
_exptl_crystal_colour            colorless
_exptl_crystal_description       prism
_cell_formula_units_Z            4
loop_
_atom_site_label
_atom_site_type_symbol
_atom_site_fract_x
_atom_site_fract_y
_atom_site_fract_z
B1 B 0.5471(5) 0.6987(4) 0.3905(3)
N1 N 0.1401(3) 0.8054(3) 0.33780(17)
N2 N 0.3653(3) 0.7271(3) 0.42065(17)
N3 N 0.3662(3) 0.6209(3) 0.40999(18)
O1 O 0.4612(2) 0.7867(2) 0.41058(14)
O2 O 0.4676(3) 0.5920(3) 0.38938(16)
C1 C 0.2100(4) 0.8680(4) 0.3888(2)
H1 H 0.1598 0.9263 0.4073
H2 H 0.2735 0.9095 0.3697
C2 C 0.2651(4) 0.7890(4) 0.4443(2)
H3 H 0.2052 0.7309 0.4544
C3 C 0.3085(4) 0.8531(4) 0.5070(2)
H4 H 0.3586 0.9191 0.4958
C4 C 0.2043(5) 0.9010(5) 0.5385(2)
H5 H 0.1609 0.9552 0.5088
H6 H 0.2324 0.941 0.5787
H7 H 0.1526 0.8375 0.5483
C5 C 0.3814(5) 0.7746(5) 0.5547(2)
H8 H 0.3353 0.7064 0.5638
H9 H 0.4033 0.8166 0.5951
H10 H 0.4524 0.7504 0.5358
C6 C 0.0115(4) 0.8090(4) 0.3449(2)
C7 C -0.0518(4) 0.7273(4) 0.2946(2)
H11 H -0.0274 0.647 0.3053
H12 H -0.1372 0.7327 0.2974
C8 C -0.0270(4) 0.7534(5) 0.2259(2)
H13 H -0.0554 0.8317 0.2133
H14 H -0.0678 0.6971 0.1957
C9 C 0.1049(4) 0.7458(5) 0.2230(2)
H15 H 0.1224 0.7656 0.1786
H16 H 0.1302 0.6651 0.2316
C10 C 0.1759(4) 0.8249(4) 0.2709(2)
C11 C -0.0442(4) 0.9300(4) 0.3385(2)
H17 H 0.0047 0.9849 0.365
H18 H -0.1226 0.9277 0.3532
H19 H -0.0501 0.9544 0.2931
C12 C -0.0097(4) 0.7606(5) 0.4107(2)
H20 H 0.0266 0.6842 0.4162
H21 H -0.0941 0.754 0.4136
H22 H 0.0248 0.8123 0.4448
C13 C 0.1638(4) 0.9512(5) 0.2478(2)
H23 H 0.0811 0.9684 0.2348
H24 H 0.2091 0.9625 0.2108
H25 H 0.1934 1.0028 0.2831
C14 C 0.3040(4) 0.7908(5) 0.2707(2)
H26 H 0.3537 0.8484 0.2946
H27 H 0.3239 0.7869 0.2259
H28 H 0.317 0.7152 0.2913
C15 C 0.6596(4) 0.6822(4) 0.4451(2)
C16 C 0.6998(4) 0.7650(4) 0.4903(2)
F1 F 0.6442(2) 0.8673(2) 0.49290(13)
C17 C 0.7957(4) 0.7475(4) 0.5352(2)
F2 F 0.8313(2) 0.8313(3) 0.57710(13)
C18 C 0.8526(4) 0.6442(5) 0.5371(2)
F3 F 0.9444(2) 0.6249(3) 0.58116(13)
C19 C 0.8161(4) 0.5590(4) 0.4932(2)
F4 F 0.8713(3) 0.4574(3) 0.49415(15)
C20 C 0.7226(4) 0.5816(4) 0.4480(2)
F5 F 0.6924(2) 0.4978(2) 0.40369(14)
C21 C 0.5867(4) 0.7309(4) 0.3197(2)
C22 C 0.5848(4) 0.6564(4) 0.2676(2)
F6 F 0.5540(2) 0.5450(2) 0.27343(14)
C23 C 0.6146(4) 0.6906(5) 0.2076(2)
F7 F 0.6114(3) 0.6148(3) 0.15873(14)
C24 C 0.6494(4) 0.8020(5) 0.1985(2)
F8 F 0.6775(3) 0.8367(3) 0.14054(14)
C25 C 0.6548(4) 0.8799(4) 0.2493(2)
F9 F 0.6912(2) 0.9868(3) 0.24117(14)
C26 C 0.6232(4) 0.8415(4) 0.3083(2)
F10 F 0.6289(2) 0.9199(2) 0.35637(13)
loop_
_geom_bond_atom_site_label_1
_geom_bond_atom_site_label_2
_geom_bond_site_symmetry_1
_geom_bond_site_symmetry_2
B1 O1 1_555 1_555
N1 C1 1_555 1_555
N2 N3 1_555 1_555
N3 O2 1_555 1_555
O1 N2 1_555 1_555
O2 B1 1_555 1_555
C1 H1 1_555 1_555
H2 C1 1_555 1_555
C2 N2 1_555 1_555
H3 C2 1_555 1_555
C3 C2 1_555 1_555
H4 C3 1_555 1_555
C4 C3 1_555 1_555
H5 C4 1_555 1_555
H6 C4 1_555 1_555
H7 C4 1_555 1_555
C5 C3 1_555 1_555
H8 C5 1_555 1_555
H9 C5 1_555 1_555
H10 C5 1_555 1_555
C6 N1 1_555 1_555
C7 C6 1_555 1_555
H11 C7 1_555 1_555
H12 C7 1_555 1_555
C8 C7 1_555 1_555
H13 C8 1_555 1_555
H14 C8 1_555 1_555
C9 C8 1_555 1_555
H15 C9 1_555 1_555
H16 C9 1_555 1_555
C10 N1 1_555 1_555
C11 C6 1_555 1_555
H17 C11 1_555 1_555
H18 C11 1_555 1_555
H19 C11 1_555 1_555
C12 C6 1_555 1_555
H20 C12 1_555 1_555
H21 C12 1_555 1_555
H22 C12 1_555 1_555
C13 C10 1_555 1_555
H23 C13 1_555 1_555
H24 C13 1_555 1_555
H25 C13 1_555 1_555
C14 C10 1_555 1_555
H26 C14 1_555 1_555
H27 C14 1_555 1_555
H28 C14 1_555 1_555
C15 B1 1_555 1_555
C16 C15 1_555 1_555
F1 C16 1_555 1_555
C17 C16 1_555 1_555
F2 C17 1_555 1_555
C18 C17 1_555 1_555
F3 C18 1_555 1_555
C19 C18 1_555 1_555
F4 C19 1_555 1_555
C20 C15 1_555 1_555
F5 C20 1_555 1_555
C21 B1 1_555 1_555
C22 C21 1_555 1_555
F6 C22 1_555 1_555
C23 C22 1_555 1_555
F7 C23 1_555 1_555
C24 C23 1_555 1_555
F8 C24 1_555 1_555
C25 C24 1_555 1_555
F9 C25 1_555 1_555
C26 C21 1_555 1_555
F10 C26 1_555 1_555
C1 C2 1_555 1_555
C9 C10 1_555 1_555
C19 C20 1_555 1_555
C25 C26 1_555 1_555

#END
