
#######################################################################
#
#                 Cambridge Crystallographic Data Centre
#                                CCDC 
#
#######################################################################
#
# If this CIF has been generated from an entry in the Cambridge 
# Structural Database, then it will include bibliographic, chemical, 
# crystal, experimental, refinement or atomic coordinate data resulting 
# from the CCDC's data processing and validation procedures.
#
#######################################################################

data_RAQFUN
_chemical_formula_moiety         'C32 H30 B1 F10 N1'
_chemical_name_systematic        
'bis(pentafluorophenyl)(phenylethynyl)(1-(2,2,6,6-tetramethylpiperidinium-1-yl)propan-2-yl)borate unknown solvate'
_symmetry_cell_setting           triclinic
_symmetry_space_group_name_H-M   'P -1'
_symmetry_Int_Tables_number      2
_space_group_name_Hall           '-P 1'
loop_
_symmetry_equiv_pos_site_id
_symmetry_equiv_pos_as_xyz
1 x,y,z
2 -x,-y,-z
_cell_length_a                   10.9697(2)
_cell_length_b                   11.2538(2)
_cell_length_c                   13.9662(4)
_cell_angle_alpha                93.564(1)
_cell_angle_beta                 101.334(1)
_cell_angle_gamma                106.008(1)
_cell_volume                     1612.53
_exptl_crystal_colour            colorless
_exptl_crystal_description       plate
_cell_formula_units_Z            2
loop_
_atom_site_label
_atom_site_type_symbol
_atom_site_fract_x
_atom_site_fract_y
_atom_site_fract_z
N1 N 0.71073(16) 0.66786(17) 0.32651(13)
H1 H 0.714(2) 0.592(2) 0.3488(16)
C1 C 0.56597(19) 0.6433(2) 0.27741(15)
H2 H 0.5255 0.6803 0.3233
H3 H 0.5609 0.6876 0.2192
C2 C 0.48480(19) 0.50713(19) 0.24571(15)
H4 H 0.5085 0.4759 0.1863
C3 C 0.5085(2) 0.4248(2) 0.32621(17)
H5 H 0.5980 0.4229 0.3378
H6 H 0.4506 0.3410 0.3055
H7 H 0.4918 0.4583 0.3864
C4 C 0.2989(2) 0.5628(2) 0.31320(15)
C5 C 0.2892(2) 0.6144(2) 0.38845(16)
C6 C 0.8033(2) 0.6873(2) 0.25315(18)
C7 C 0.9422(2) 0.7080(3) 0.3132(2)
H8 H 0.9478 0.6305 0.3396
H9 H 1.0024 0.7262 0.2689
C8 C 0.9863(2) 0.8122(3) 0.3975(2)
H10 H 1.0761 0.8213 0.4315
H11 H 0.9829 0.8910 0.3726
C9 C 0.8968(2) 0.7804(2) 0.46785(18)
H12 H 0.9255 0.8473 0.5230
H13 H 0.9054 0.7039 0.4945
C10 C 0.7532(2) 0.7621(2) 0.42258(16)
C11 C 0.7944(3) 0.7953(3) 0.19479(19)
H14 H 0.8493 0.8010 0.1476
H15 H 0.8232 0.8722 0.2393
H16 H 0.7050 0.7817 0.1602
C12 C 0.7637(2) 0.5673(3) 0.18312(19)
H17 H 0.8297 0.5693 0.1456
H18 H 0.6813 0.5593 0.1385
H19 H 0.7549 0.4968 0.2206
C13 C 0.6738(3) 0.7009(3) 0.49450(17)
H20 H 0.6837 0.6186 0.5014
H21 H 0.5827 0.6938 0.4696
H22 H 0.7046 0.7515 0.5581
C14 C 0.7268(3) 0.8849(2) 0.4020(2)
H23 H 0.7381 0.9354 0.4638
H24 H 0.6384 0.8686 0.3643
H25 H 0.7872 0.9289 0.3648
B1 B 0.3270(2) 0.5005(2) 0.21750(17)
C15 C 0.24042(19) 0.3518(2) 0.18808(15)
F1 F 0.34298(14) 0.33497(13) 0.05564(10)
C16 C 0.2598(2) 0.2801(2) 0.11087(16)
F2 F 0.22614(16) 0.09125(14) 0.01068(11)
C17 C 0.1992(2) 0.1548(2) 0.08425(17)
F3 F 0.05293(17) -0.02993(14) 0.11198(13)
C18 C 0.1113(2) 0.0929(2) 0.13549(19)
F4 F -0.00173(16) 0.10047(15) 0.26164(13)
C19 C 0.0857(2) 0.1589(2) 0.21108(18)
F5 F 0.11420(14) 0.34011(14) 0.30989(10)
C20 C 0.1484(2) 0.2846(2) 0.23559(16)
C21 C 0.28149(19) 0.57370(19) 0.12333(14)
F6 F 0.07733(12) 0.54616(14) 0.16582(10)
C22 C 0.1596(2) 0.5929(2) 0.10733(16)
F7 F -0.00532(14) 0.67283(17) 0.02580(12)
C23 C 0.1130(2) 0.6563(2) 0.03478(18)
F8 F 0.14589(18) 0.76522(19) -0.10162(13)
C24 C 0.1889(3) 0.7025(2) -0.02977(18)
F9 F 0.38311(16) 0.72772(17) -0.08320(11)
C25 C 0.3090(2) 0.6844(2) -0.02005(16)
F10 F 0.47008(13) 0.60596(14) 0.05693(10)
C26 C 0.3513(2) 0.6207(2) 0.05474(15)
C27 C 0.2700(2) 0.6676(2) 0.47872(15)
C28 C 0.3501(3) 0.7814(2) 0.52769(19)
H26 H 0.4179 0.8273 0.5007
C29 C 0.3317(3) 0.8284(3) 0.6162(2)
H27 H 0.3878 0.9053 0.6491
C30 C 0.2321(3) 0.7636(3) 0.65605(19)
H28 H 0.2195 0.7962 0.7157
C31 C 0.1511(3) 0.6508(3) 0.60833(19)
H29 H 0.0826 0.6064 0.6353
C32 C 0.1699(2) 0.6022(2) 0.52087(17)
H30 H 0.1146 0.5243 0.4893
loop_
_geom_bond_atom_site_label_1
_geom_bond_atom_site_label_2
_geom_bond_site_symmetry_1
_geom_bond_site_symmetry_2
N1 H1 1_555 1_555
C1 N1 1_555 1_555
H2 C1 1_555 1_555
H3 C1 1_555 1_555
C2 C1 1_555 1_555
H4 C2 1_555 1_555
C3 C2 1_555 1_555
H5 C3 1_555 1_555
H6 C3 1_555 1_555
H7 C3 1_555 1_555
C4 C5 1_555 1_555
C5 C27 1_555 1_555
C6 N1 1_555 1_555
C7 C6 1_555 1_555
H8 C7 1_555 1_555
H9 C7 1_555 1_555
C8 C7 1_555 1_555
H10 C8 1_555 1_555
H11 C8 1_555 1_555
C9 C8 1_555 1_555
H12 C9 1_555 1_555
H13 C9 1_555 1_555
C10 N1 1_555 1_555
C11 C6 1_555 1_555
H14 C11 1_555 1_555
H15 C11 1_555 1_555
H16 C11 1_555 1_555
C12 C6 1_555 1_555
H17 C12 1_555 1_555
H18 C12 1_555 1_555
H19 C12 1_555 1_555
C13 C10 1_555 1_555
H20 C13 1_555 1_555
H21 C13 1_555 1_555
H22 C13 1_555 1_555
C14 C10 1_555 1_555
H23 C14 1_555 1_555
H24 C14 1_555 1_555
H25 C14 1_555 1_555
B1 C2 1_555 1_555
C15 B1 1_555 1_555
F1 C16 1_555 1_555
C16 C15 1_555 1_555
F2 C17 1_555 1_555
C17 C16 1_555 1_555
F3 C18 1_555 1_555
C18 C17 1_555 1_555
F4 C19 1_555 1_555
C19 C18 1_555 1_555
F5 C20 1_555 1_555
C20 C15 1_555 1_555
C21 B1 1_555 1_555
F6 C22 1_555 1_555
C22 C21 1_555 1_555
F7 C23 1_555 1_555
C23 C22 1_555 1_555
F8 C24 1_555 1_555
C24 C23 1_555 1_555
F9 C25 1_555 1_555
C25 C24 1_555 1_555
F10 C26 1_555 1_555
C26 C21 1_555 1_555
C27 C28 1_555 1_555
C28 H26 1_555 1_555
C29 C28 1_555 1_555
H27 C29 1_555 1_555
C30 C29 1_555 1_555
H28 C30 1_555 1_555
C31 C30 1_555 1_555
H29 C31 1_555 1_555
C32 C27 1_555 1_555
H30 C32 1_555 1_555
C4 B1 1_555 1_555
C9 C10 1_555 1_555
C19 C20 1_555 1_555
C25 C26 1_555 1_555
C31 C32 1_555 1_555

#END
