
#######################################################################
#
#                 Cambridge Crystallographic Data Centre
#                                CCDC 
#
#######################################################################
#
# If this CIF has been generated from an entry in the Cambridge 
# Structural Database, then it will include bibliographic, chemical, 
# crystal, experimental, refinement or atomic coordinate data resulting 
# from the CCDC's data processing and validation procedures.
#
#######################################################################

data_RAQHAV
_chemical_compound_source        'solid cultures of Gloeophyllum abietinum'
_chemical_name_common            'gloeophyllin B'
_chemical_formula_moiety         'C32 H50 O5,C1 H4 O1'
_chemical_name_systematic        
'12-acetoxy-3-hydroxy-4-methylergosta-8,24(28)-diene-4-carboxylic acid methanol solvate'
_symmetry_cell_setting           orthorhombic
_symmetry_space_group_name_H-M   'P 21 21 21'
_symmetry_Int_Tables_number      19
_space_group_name_Hall           'P 2ac 2ab'
loop_
_symmetry_equiv_pos_site_id
_symmetry_equiv_pos_as_xyz
1 x,y,z
2 1/2-x,-y,1/2+z
3 1/2+x,1/2-y,-z
4 -x,1/2+y,1/2-z
_cell_length_a                   7.75385(8)
_cell_length_b                   18.4782(2)
_cell_length_c                   22.0447(3)
_cell_angle_alpha                90
_cell_angle_beta                 90
_cell_angle_gamma                90
_cell_volume                     3158.5
_cell_formula_units_Z            4
loop_
_atom_site_label
_atom_site_type_symbol
_atom_site_fract_x
_atom_site_fract_y
_atom_site_fract_z
O1 O 0.7564(3) 0.27248(12) 0.22985(11)
C1 C 0.8871(4) 0.49838(15) 0.02686(14)
H1 H 0.9605 0.5156 0.0601
O2 O 0.6397(4) 0.67583(14) 0.01724(16)
H2 H 0.7164 0.7056 0.0115
C2 C 0.9858(4) 0.26276(16) 0.15227(13)
C3 C 1.1027(4) 0.31568(17) 0.11662(15)
H3 H 1.1615 0.3446 0.1476
C4 C 0.8709(4) 0.31255(16) 0.18928(14)
H4 H 0.9448 0.3438 0.2140
C5 C 0.6404(4) 0.49797(17) 0.09976(16)
H5 H 0.7111 0.5131 0.1338
H6 H 0.5453 0.4698 0.1158
C6 C 1.1246(4) 0.21976(17) 0.18691(15)
H7 H 1.1717 0.2541 0.2165
C7 C 0.7583(4) 0.36032(17) 0.14980(15)
H8 H 0.7138 0.3996 0.1744
H9 H 0.6605 0.3321 0.1358
C8 C 0.8784(5) 0.21463(17) 0.10981(15)
H10 H 0.8186 0.2444 0.0810
H11 H 0.7963 0.1876 0.1332
H12 H 0.9533 0.1818 0.0887
C9 C 1.0057(4) 0.36985(16) 0.07815(14)
C10 C 0.8492(4) 0.39242(15) 0.09485(13)
C11 C 1.0060(5) 0.45365(19) -0.01323(15)
H13 H 1.0853 0.4853 -0.0345
H14 H 0.9385 0.4276 -0.0431
C12 C 1.1068(5) 0.4003(2) 0.02562(18)
H15 H 1.1450 0.3605 0.0002
H16 H 1.2088 0.4243 0.0413
C13 C 0.7489(4) 0.44966(15) 0.05800(13)
C14 C 0.6288(5) 0.4091(2) 0.01438(19)
H17 H 0.5487 0.4426 -0.0034
H18 H 0.5666 0.3725 0.0363
H19 H 0.6960 0.3868 -0.0171
C15 C 0.5676(5) 0.56571(19) 0.06817(18)
H20 H 0.4909 0.5512 0.0356
H21 H 0.5017 0.5941 0.0970
C16 C 0.7126(5) 0.61111(16) 0.04279(17)
H22 H 0.7891 0.6249 0.0762
C17 C 0.8199(5) 0.56879(17) -0.00493(15)
C18 C 1.2416(5) 0.2666(2) 0.09022(19)
H23 H 1.3468 0.2935 0.0824
H24 H 1.2028 0.2444 0.0527
O3 O 1.0752(5) 0.6302(2) 0.02412(19)
C19 C 0.8518(6) 0.0104(2) 0.25276(18)
C20 C 1.0836(5) 0.07974(18) 0.19193(19)
H25 H 1.2005 0.0735 0.1772
H26 H 1.0082 0.0818 0.1568
C21 C 1.0729(5) 0.15192(17) 0.22520(16)
H27 H 0.9534 0.1585 0.2386
C22 C 1.0345(5) 0.0125(2) 0.2301(2)
H28 H 1.0546 -0.0304 0.2057
H29 H 1.1113 0.0100 0.2647
C23 C 0.9748(7) 0.6149(2) -0.0199(3)
C24 C 0.7175(7) 0.5562(2) -0.06346(18)
H30 H 0.7792 0.5232 -0.0891
H31 H 0.7024 0.6014 -0.0843
H32 H 0.6066 0.5362 -0.0537
O4 O 1.0088(8) 0.6346(3) -0.07124(18)
C25 C 0.7210(7) -0.0112(3) 0.2061(2)
H33 H 0.7787 -0.0118 0.1665
C26 C 1.2700(5) 0.2094(2) 0.1396(2)
H34 H 1.3820 0.2159 0.1585
H35 H 1.2649 0.1612 0.1224
O5 O 0.8860(11) 0.3167(3) 0.30997(17)
C27 C 0.7761(8) 0.2805(2) 0.2883(2)
C28 C 0.6552(9) 0.2350(3) 0.3249(2)
H36 H 0.5634 0.2180 0.2994
H37 H 0.6080 0.2634 0.3574
H38 H 0.7165 0.1944 0.3414
C29 C 1.1867(10) 0.1500(3) 0.2815(2)
H39 H 1.3055 0.1467 0.2695
H40 H 1.1570 0.1088 0.3058
H41 H 1.1695 0.1934 0.3046
C30 C 0.8109(10) 0.0236(4) 0.3102(2)
C31 C 0.6567(14) -0.0883(4) 0.2192(4)
H42 H 0.7494 -0.1167 0.2356
H43 H 0.6169 -0.1101 0.1822
H44 H 0.5637 -0.0864 0.2479
C32 C 0.5734(14) 0.0380(6) 0.2017(5)
H45 H 0.5044 0.0339 0.2377
H46 H 0.5052 0.0254 0.1670
H47 H 0.6140 0.0868 0.1977
H48 H 1.142(9) 0.660(4) 0.009(3)
C33 C 0.8382(5) 0.7950(2) 0.0209(2)
O6 O 0.8631(6) 0.7973(2) 0.0760(3)
loop_
_geom_bond_atom_site_label_1
_geom_bond_atom_site_label_2
_geom_bond_site_symmetry_1
_geom_bond_site_symmetry_2
O1 C4 1_555 1_555
C1 H1 1_555 1_555
O2 H2 1_555 1_555
C2 C3 1_555 1_555
C3 H3 1_555 1_555
C4 C2 1_555 1_555
H4 C4 1_555 1_555
C5 H5 1_555 1_555
H6 C5 1_555 1_555
C6 C2 1_555 1_555
H7 C6 1_555 1_555
C7 C4 1_555 1_555
H8 C7 1_555 1_555
H9 C7 1_555 1_555
C8 C2 1_555 1_555
H10 C8 1_555 1_555
H11 C8 1_555 1_555
H12 C8 1_555 1_555
C9 C3 1_555 1_555
C10 C7 1_555 1_555
C11 C1 1_555 1_555
H13 C11 1_555 1_555
H14 C11 1_555 1_555
C12 C9 1_555 1_555
H15 C12 1_555 1_555
H16 C12 1_555 1_555
C13 C1 1_555 1_555
C14 C13 1_555 1_555
H17 C14 1_555 1_555
H18 C14 1_555 1_555
H19 C14 1_555 1_555
C15 C5 1_555 1_555
H20 C15 1_555 1_555
H21 C15 1_555 1_555
C16 O2 1_555 1_555
H22 C16 1_555 1_555
C17 C1 1_555 1_555
C18 C3 1_555 1_555
H23 C18 1_555 1_555
H24 C18 1_555 1_555
O3 C23 1_555 1_555
C19 C22 1_555 1_555
C20 H25 1_555 1_555
H26 C20 1_555 1_555
C21 C6 1_555 1_555
H27 C21 1_555 1_555
C22 C20 1_555 1_555
H28 C22 1_555 1_555
H29 C22 1_555 1_555
C23 C17 1_555 1_555
C24 C17 1_555 1_555
H30 C24 1_555 1_555
H31 C24 1_555 1_555
H32 C24 1_555 1_555
O4 C23 1_555 1_555
C25 C19 1_555 1_555
H33 C25 1_555 1_555
C26 C6 1_555 1_555
H34 C26 1_555 1_555
H35 C26 1_555 1_555
O5 C27 1_555 1_555
C27 O1 1_555 1_555
C28 C27 1_555 1_555
H36 C28 1_555 1_555
H37 C28 1_555 1_555
H38 C28 1_555 1_555
C29 C21 1_555 1_555
H39 C29 1_555 1_555
H40 C29 1_555 1_555
H41 C29 1_555 1_555
C30 C19 1_555 1_555
C31 C25 1_555 1_555
H42 C31 1_555 1_555
H43 C31 1_555 1_555
H44 C31 1_555 1_555
C32 C25 1_555 1_555
H45 C32 1_555 1_555
H46 C32 1_555 1_555
H47 C32 1_555 1_555
H48 O3 1_555 1_555
C33 O6 1_555 1_555
C5 C13 1_555 1_555
C9 C10 1_555 1_555
C10 C13 1_555 1_555
C11 C12 1_555 1_555
C15 C16 1_555 1_555
C16 C17 1_555 1_555
C18 C26 1_555 1_555
C20 C21 1_555 1_555

#END
