
#######################################################################
#
#                 Cambridge Crystallographic Data Centre
#                                CCDC 
#
#######################################################################
#
# If this CIF has been generated from an entry in the Cambridge 
# Structural Database, then it will include bibliographic, chemical, 
# crystal, experimental, refinement or atomic coordinate data resulting 
# from the CCDC's data processing and validation procedures.
#
#######################################################################

data_RAQJOL
_chemical_formula_moiety         'C19 H19 N3 O3 S1'
_chemical_name_systematic        
5-(dimethylamino)-N'-(2-hydroxybenzylidene)naphthalene-1-sulfonohydrazide
_symmetry_cell_setting           triclinic
_symmetry_space_group_name_H-M   'P -1'
_symmetry_Int_Tables_number      2
_space_group_name_Hall           '-P 1'
loop_
_symmetry_equiv_pos_site_id
_symmetry_equiv_pos_as_xyz
1 x,y,z
2 -x,-y,-z
_cell_length_a                   8.6067(7)
_cell_length_b                   10.4451(19)
_cell_length_c                   20.0371(9)
_cell_angle_alpha                83.80
_cell_angle_beta                 87.727(11)
_cell_angle_gamma                83.26
_cell_volume                     1777.72
_exptl_crystal_colour            yellow
_cell_formula_units_Z            4
loop_
_atom_site_label
_atom_site_type_symbol
_atom_site_fract_x
_atom_site_fract_y
_atom_site_fract_z
C1 C 0.8983(5) 1.1351(3) 0.08192(19)
H1 H 0.9231 1.1546 0.1258
H2 H 0.8864 1.2137 0.0520
H3 H 0.9813 1.0762 0.0653
C2 C 0.7134(4) 1.0458(3) 0.01916(15)
H4 H 0.6177 1.0064 0.0223
H5 H 0.7962 0.9872 0.0022
H6 H 0.7006 1.1244 -0.0107
C3 C 0.7498(4) 0.9645(3) 0.13482(15)
C4 C 0.8808(4) 0.8890(3) 0.15636(17)
H7 H 0.9785 0.9105 0.1407
C5 C 0.8704(4) 0.7787(3) 0.20208(17)
H8 H 0.9620 0.7295 0.2170
C6 C 0.7308(4) 0.7417(3) 0.22518(16)
H9 H 0.7274 0.6669 0.2547
C7 C 0.5917(4) 0.8158(3) 0.20457(14)
C8 C 0.6003(4) 0.9342(3) 0.16075(14)
C9 C 0.4618(4) 1.0158(3) 0.14460(14)
H10 H 0.4684 1.0934 0.1177
C10 C 0.3193(4) 0.9843(3) 0.16713(15)
H11 H 0.2301 1.0410 0.1565
C11 C 0.3059(4) 0.8661(3) 0.20653(15)
H12 H 0.2076 0.8429 0.2200
C12 C 0.4379(4) 0.7847(3) 0.22513(13)
C13 C 0.4478(4) 0.4398(3) 0.12562(14)
H13 H 0.5370 0.3842 0.1377
C14 C 0.3767(4) 0.4293(3) 0.06294(15)
C15 C 0.4408(5) 0.3311(3) 0.02448(15)
H14 H 0.5274 0.2758 0.0401
C16 C 0.3791(5) 0.3140(4) -0.03597(17)
H15 H 0.4214 0.2469 -0.0605
C17 C 0.2522(5) 0.3994(4) -0.05947(17)
H16 H 0.2094 0.3891 -0.1002
C18 C 0.1894(5) 0.4977(4) -0.02401(16)
H17 H 0.1050 0.5541 -0.0409
C19 C 0.2505(4) 0.5147(3) 0.03770(16)
H18 H 0.233(6) 0.622(4) 0.112(2)
N1 N 0.7526(3) 1.0757(2) 0.08604(12)
N2 N 0.4710(3) 0.5216(2) 0.22500(12)
H19 H 0.5473 0.4634 0.2362
N3 N 0.3921(3) 0.5234(2) 0.16532(12)
O1 O 0.5086(3) 0.6120(2) 0.32847(10)
O2 O 0.2448(3) 0.6329(2) 0.28154(11)
O3 O 0.1842(3) 0.6155(2) 0.07061(12)
S1 S 0.41018(9) 0.63606(7) 0.27216(4)
C20 C 0.2691(8) -0.0975(5) 0.4717(2)
H20 H 0.1634 -0.0603 0.4633
H21 H 0.3169 -0.0455 0.5000
H22 H 0.2688 -0.1838 0.4937
H23 H -0.2699 0.4015 0.3874
C21 C 0.5193(6) -0.1575(4) 0.4189(3)
H24 H 0.5751 -0.1587 0.3765
H25 H 0.5208 -0.2444 0.4403
H26 H 0.5682 -0.1061 0.4470
C22 C 0.3372(5) 0.0119(3) 0.36327(18)
C23 C 0.4555(5) 0.0859(3) 0.3439(2)
H27 H 0.5558 0.0597 0.3594
C24 C 0.4273(4) 0.2004(3) 0.30091(19)
H28 H 0.5097 0.2488 0.2882
C25 C 0.2830(4) 0.2424(3) 0.27735(16)
H29 H 0.2672 0.3193 0.2492
C26 C 0.1568(4) 0.1702(3) 0.29523(14)
C27 C 0.1842(4) 0.0503(3) 0.33627(16)
C28 C 0.0641(5) -0.0313(3) 0.34531(17)
H30 H 0.0849 -0.1130 0.3688
C29 C -0.0808(4) 0.0054(3) 0.32081(18)
H31 H -0.1574 -0.0509 0.3273
C30 C -0.1146(4) 0.1273(3) 0.28609(17)
H32 H -0.2157 0.1546 0.2718
C31 C 0.0003(4) 0.2075(3) 0.27272(15)
C32 C -0.0639(4) 0.5582(3) 0.37222(14)
H33 H 0.0125 0.6117 0.3577
C33 C -0.1412(4) 0.5722(3) 0.43697(14)
C34 C -0.1047(4) 0.6704(3) 0.47388(16)
H34 H -0.0331 0.7259 0.4560
C35 C -0.1732(5) 0.6863(3) 0.53656(17)
H35 H -0.1497 0.7527 0.5604
C36 C -0.2762(5) 0.6026(4) 0.56280(17)
H36 H -0.3216 0.6125 0.6051
C37 C -0.3144(4) 0.5046(4) 0.52848(16)
H37 H -0.3844 0.4488 0.5475
C38 C -0.2481(4) 0.4889(3) 0.46500(15)
N4 N 0.3577(5) -0.1018(3) 0.40803(19)
N5 N -0.0151(3) 0.4716(2) 0.27359(12)
H38 H 0.0512 0.5255 0.2612
N6 N -0.0972(3) 0.4742(2) 0.33419(12)
O4 O -0.2172(3) 0.3732(2) 0.21898(11)
O5 O 0.0494(3) 0.3762(2) 0.16901(10)
O6 O -0.2889(3) 0.3910(2) 0.43245(12)
S2 S -0.05124(9) 0.36003(7) 0.22677(4)
loop_
_geom_bond_atom_site_label_1
_geom_bond_atom_site_label_2
_geom_bond_site_symmetry_1
_geom_bond_site_symmetry_2
C1 H1 1_555 1_555
H2 C1 1_555 1_555
H3 C1 1_555 1_555
C2 H4 1_555 1_555
H5 C2 1_555 1_555
H6 C2 1_555 1_555
C3 C4 1_555 1_555
C4 H7 1_555 1_555
C5 C4 1_555 1_555
H8 C5 1_555 1_555
C6 C5 1_555 1_555
H9 C6 1_555 1_555
C7 C6 1_555 1_555
C8 C3 1_555 1_555
C9 C8 1_555 1_555
H10 C9 1_555 1_555
C10 C9 1_555 1_555
H11 C10 1_555 1_555
C11 C10 1_555 1_555
H12 C11 1_555 1_555
C12 C7 1_555 1_555
C13 H13 1_555 1_555
C14 C13 1_555 1_555
C15 C14 1_555 1_555
H14 C15 1_555 1_555
C16 C15 1_555 1_555
H15 C16 1_555 1_555
C17 C16 1_555 1_555
H16 C17 1_555 1_555
C18 C17 1_555 1_555
H17 C18 1_555 1_555
C19 C14 1_555 1_555
H18 O3 1_555 1_555
N1 C1 1_555 1_555
N2 H19 1_555 1_555
N3 C13 1_555 1_555
O1 S1 1_555 1_555
O2 S1 1_555 1_555
O3 C19 1_555 1_555
S1 C12 1_555 1_555
C20 H20 1_555 1_555
H21 C20 1_555 1_555
H22 C20 1_555 1_555
H23 O6 1_555 1_555
C21 H24 1_555 1_555
H25 C21 1_555 1_555
H26 C21 1_555 1_555
C22 C23 1_555 1_555
C23 H27 1_555 1_555
C24 C23 1_555 1_555
H28 C24 1_555 1_555
C25 C24 1_555 1_555
H29 C25 1_555 1_555
C26 C25 1_555 1_555
C27 C22 1_555 1_555
C28 C27 1_555 1_555
H30 C28 1_555 1_555
C29 C28 1_555 1_555
H31 C29 1_555 1_555
C30 C29 1_555 1_555
H32 C30 1_555 1_555
C31 C26 1_555 1_555
C32 H33 1_555 1_555
C33 C32 1_555 1_555
C34 C33 1_555 1_555
H34 C34 1_555 1_555
C35 C34 1_555 1_555
H35 C35 1_555 1_555
C36 C35 1_555 1_555
H36 C36 1_555 1_555
C37 C36 1_555 1_555
H37 C37 1_555 1_555
C38 C33 1_555 1_555
N4 C20 1_555 1_555
N5 H38 1_555 1_555
N6 C32 1_555 1_555
O4 S2 1_555 1_555
O5 S2 1_555 1_555
O6 C38 1_555 1_555
S2 C31 1_555 1_555
C2 N1 1_555 1_555
C3 N1 1_555 1_555
C7 C8 1_555 1_555
C11 C12 1_555 1_555
C18 C19 1_555 1_555
N2 N3 1_555 1_555
N2 S1 1_555 1_555
C21 N4 1_555 1_555
C22 N4 1_555 1_555
C26 C27 1_555 1_555
C30 C31 1_555 1_555
C37 C38 1_555 1_555
N5 N6 1_555 1_555
N5 S2 1_555 1_555

#END
