
#######################################################################
#
#                 Cambridge Crystallographic Data Centre
#                                CCDC 
#
#######################################################################
#
# If this CIF has been generated from an entry in the Cambridge 
# Structural Database, then it will include bibliographic, chemical, 
# crystal, experimental, refinement or atomic coordinate data resulting 
# from the CCDC's data processing and validation procedures.
#
#######################################################################

data_RAQKUS
_chemical_formula_moiety         'C25 H26 O4'
_chemical_name_systematic        
2-(diphenylmethyl)-5,6-dimethoxy-2-methylindane-1,3-diol
_symmetry_cell_setting           monoclinic
_symmetry_space_group_name_H-M   'P 21/n'
_symmetry_Int_Tables_number      14
_space_group_name_Hall           '-P 2yn'
loop_
_symmetry_equiv_pos_site_id
_symmetry_equiv_pos_as_xyz
1 x,y,z
2 1/2-x,1/2+y,1/2-z
3 -x,-y,-z
4 1/2+x,1/2-y,1/2+z
_cell_length_a                   12.7954(6)
_cell_length_b                   10.4000(6)
_cell_length_c                   16.4115(8)
_cell_angle_alpha                90
_cell_angle_beta                 105.687(6)
_cell_angle_gamma                90
_cell_volume                     2102.57
_exptl_crystal_colour            'light colorless'
_exptl_crystal_description       block
_cell_formula_units_Z            4
loop_
_atom_site_label
_atom_site_type_symbol
_atom_site_fract_x
_atom_site_fract_y
_atom_site_fract_z
O1 O 0.47000(15) 1.0314(2) -0.11157(12)
H1 H 0.4713 0.9803 -0.1493
O2 O 0.70183(15) 0.9667(2) 0.03013(11)
H2 H 0.6437 0.9639 0.0421
O3 O 0.42969(16) 1.4288(2) 0.09218(12)
O4 O 0.61839(17) 1.4009(2) 0.19626(12)
C1 C 0.5933(2) 0.9440(3) -0.23700(16)
C2 C 0.6620(2) 1.0957(3) -0.10578(15)
C3 C 0.5427(2) 1.1361(3) -0.11308(16)
H3 H 0.5143 1.1896 -0.1634
C4 C 0.5529(2) 1.2136(3) -0.03376(15)
C5 C 0.4762(2) 1.2943(3) -0.01440(16)
H4 H 0.4100 1.3089 -0.0539
C6 C 0.4996(2) 1.3521(3) 0.06395(17)
C7 C 0.6010(2) 1.3341(3) 0.12231(17)
C8 C 0.6765(2) 1.2514(3) 0.10317(16)
H5 H 0.7432 1.2369 0.1421
C9 C 0.6502(2) 1.1910(3) 0.02449(15)
C10 C 0.7124(2) 1.0885(3) -0.00768(15)
H6 H 0.7892 1.1124 0.0060
C11 C 0.7194(2) 1.2073(3) -0.13629(17)
H7 H 0.7961 1.1909 -0.1218
H8 H 0.7061 1.2855 -0.1097
H9 H 0.6922 1.2156 -0.1966
C12 C 0.3216(2) 1.4372(3) 0.0397(2)
H10 H 0.3214 1.4818 -0.0116
H11 H 0.2777 1.4834 0.0689
H12 H 0.2927 1.3523 0.0263
C13 C 0.7216(3) 1.3887(5) 0.2558(2)
H13 H 0.7773 1.4128 0.2296
H14 H 0.7324 1.3012 0.2748
H15 H 0.7248 1.4440 0.3033
C14 C 0.6717(2) 0.9654(3) -0.14949(15)
H16 H 0.6532 0.8994 -0.1131
C15 C 0.5595(3) 1.0370(3) -0.29849(17)
H17 H 0.5831 1.1212 -0.2865
C16 C 0.4914(3) 1.0086(4) -0.37748(19)
H18 H 0.4697 1.0737 -0.4174
C17 C 0.4559(3) 0.8857(4) -0.3972(2)
H19 H 0.4110 0.8661 -0.4505
C18 C 0.4875(3) 0.7917(3) -0.3372(2)
H20 H 0.4631 0.7079 -0.3496
C19 C 0.5554(2) 0.8202(3) -0.25829(18)
H21 H 0.5761 0.7549 -0.2185
C20 C 0.7890(2) 0.9375(3) -0.14940(16)
C21 C 0.8300(2) 0.9703(3) -0.21702(17)
H22 H 0.7841 1.0076 -0.2650
C22 C 0.9373(2) 0.9488(3) -0.21463(19)
H23 H 0.9629 0.9712 -0.2606
C23 C 1.0058(2) 0.8944(3) -0.1442(2)
H24 H 1.0782 0.8801 -0.1423
C24 C 0.9680(2) 0.8608(3) -0.07621(19)
H25 H 1.0147 0.8241 -0.0284
C25 C 0.8604(2) 0.8819(3) -0.07919(17)
H26 H 0.8353 0.8583 -0.0332
loop_
_geom_bond_atom_site_label_1
_geom_bond_atom_site_label_2
_geom_bond_site_symmetry_1
_geom_bond_site_symmetry_2
O1 H1 1_555 1_555
O2 H2 1_555 1_555
O3 C6 1_555 1_555
O4 C7 1_555 1_555
C1 C14 1_555 1_555
C2 C3 1_555 1_555
C3 O1 1_555 1_555
H3 C3 1_555 1_555
C4 C3 1_555 1_555
C5 C4 1_555 1_555
H4 C5 1_555 1_555
C6 C5 1_555 1_555
C7 C6 1_555 1_555
C8 C7 1_555 1_555
H5 C8 1_555 1_555
C9 C4 1_555 1_555
C10 O2 1_555 1_555
H6 C10 1_555 1_555
C11 C2 1_555 1_555
H7 C11 1_555 1_555
H8 C11 1_555 1_555
H9 C11 1_555 1_555
C12 O3 1_555 1_555
H10 C12 1_555 1_555
H11 C12 1_555 1_555
H12 C12 1_555 1_555
C13 O4 1_555 1_555
H13 C13 1_555 1_555
H14 C13 1_555 1_555
H15 C13 1_555 1_555
C14 C2 1_555 1_555
H16 C14 1_555 1_555
C15 C1 1_555 1_555
H17 C15 1_555 1_555
C16 C15 1_555 1_555
H18 C16 1_555 1_555
C17 C16 1_555 1_555
H19 C17 1_555 1_555
C18 C17 1_555 1_555
H20 C18 1_555 1_555
C19 C1 1_555 1_555
H21 C19 1_555 1_555
C20 C14 1_555 1_555
C21 C20 1_555 1_555
H22 C21 1_555 1_555
C22 C21 1_555 1_555
H23 C22 1_555 1_555
C23 C22 1_555 1_555
H24 C23 1_555 1_555
C24 C23 1_555 1_555
H25 C24 1_555 1_555
C25 C20 1_555 1_555
H26 C25 1_555 1_555
C2 C10 1_555 1_555
C8 C9 1_555 1_555
C9 C10 1_555 1_555
C18 C19 1_555 1_555
C24 C25 1_555 1_555

#END
