
#######################################################################
#
#                 Cambridge Crystallographic Data Centre
#                                CCDC 
#
#######################################################################
#
# If this CIF has been generated from an entry in the Cambridge 
# Structural Database, then it will include bibliographic, chemical, 
# crystal, experimental, refinement or atomic coordinate data resulting 
# from the CCDC's data processing and validation procedures.
#
#######################################################################

data_RAQLAZ
_chemical_formula_moiety         'C25 H22 O2'
_chemical_name_systematic        
2,3-dimethoxy-12d-methyl-4b,8b,12b,12d-tetrahydrodibenzo[2,3:4,5]pentaleno[1,6-ab]indene
_symmetry_cell_setting           monoclinic
_symmetry_space_group_name_H-M   'P 21/c'
_symmetry_Int_Tables_number      14
_space_group_name_Hall           '-P 2ybc'
loop_
_symmetry_equiv_pos_site_id
_symmetry_equiv_pos_as_xyz
1 x,y,z
2 -x,1/2+y,1/2-z
3 -x,-y,-z
4 x,1/2-y,1/2+z
_cell_length_a                   12.8918(5)
_cell_length_b                   11.5509(5)
_cell_length_c                   12.5129(5)
_cell_angle_alpha                90
_cell_angle_beta                 100.235(4)
_cell_angle_gamma                90
_cell_volume                     1833.67
_exptl_crystal_colour            'light colorless'
_exptl_crystal_description       block
_cell_formula_units_Z            4
loop_
_atom_site_label
_atom_site_type_symbol
_atom_site_fract_x
_atom_site_fract_y
_atom_site_fract_z
O1 O 0.54541(8) 0.24710(8) 0.01902(8)
O2 O 0.65200(8) 0.17248(8) 0.19929(7)
C1 C 0.59229(10) 0.08033(11) -0.08248(10)
H1 H 0.5521 0.1058 -0.1474
C2 C 0.71187(10) 0.00137(11) 0.11321(10)
H2 H 0.7513 -0.0253 0.1781
C3 C 0.95787(10) -0.13468(11) 0.10601(11)
H3 H 0.9351 -0.1160 0.1704
C4 C 0.81160(11) -0.11206(11) -0.25766(10)
C5 C 0.59565(9) 0.14367(11) 0.01199(10)
C6 C 0.48867(11) 0.29332(13) -0.07988(12)
H4 H 0.5353 0.3016 -0.1313
H5 H 0.4604 0.3677 -0.0662
H6 H 0.4321 0.2419 -0.1087
C7 C 0.91924(10) -0.18912(11) -0.08296(11)
C8 C 0.71784(10) -0.05258(11) -0.25649(10)
C9 C 0.76640(10) -0.17261(11) 0.00157(10)
H7 H 0.7474 -0.2331 0.0495
C10 C 0.65807(10) -0.10245(11) -0.17296(10)
H8 H 0.5881 -0.1294 -0.2077
C11 C 1.06465(11) -0.13434(12) 0.10104(11)
H9 H 1.1136 -0.1147 0.1622
C12 C 0.65533(10) 0.10344(11) 0.11091(10)
C13 C 1.02651(11) -0.19051(12) -0.08745(11)
H10 H 1.0494 -0.2095 -0.1517
C14 C 0.70930(9) -0.06152(11) 0.01713(10)
C15 C 0.88510(10) -0.16339(10) 0.01346(10)
C16 C 0.65009(10) -0.02257(11) -0.07904(10)
C17 C 0.69058(11) 0.04214(12) -0.32470(11)
H11 H 0.6280 0.0819 -0.3241
C18 C 0.82768(10) -0.20920(11) -0.17482(11)
H12 H 0.8342 -0.2840 -0.2099
C19 C 0.73087(12) 0.15381(13) 0.29244(11)
H13 H 0.7988 0.1512 0.2712
H14 H 0.7178 0.0818 0.3259
H15 H 0.7293 0.2159 0.3432
C20 C 0.66768(11) -0.32100(12) -0.13299(11)
H16 H 0.7111 -0.3805 -0.0945
H17 H 0.6505 -0.3410 -0.2085
H18 H 0.6040 -0.3137 -0.1038
C21 C 1.09867(11) -0.16319(12) 0.00520(12)
H19 H 1.1704 -0.1642 0.0031
C22 C 0.87906(12) -0.07813(12) -0.32763(11)
H20 H 0.9414 -0.1182 -0.3290
C23 C 0.85156(13) 0.01657(13) -0.39532(11)
H21 H 0.8960 0.0402 -0.4421
C24 C 0.72726(10) -0.20615(11) -0.12055(10)
C25 C 0.75835(13) 0.07624(13) -0.39368(11)
H22 H 0.7411 0.1396 -0.4392
loop_
_geom_bond_atom_site_label_1
_geom_bond_atom_site_label_2
_geom_bond_site_symmetry_1
_geom_bond_site_symmetry_2
O1 C5 1_555 1_555
O2 C12 1_555 1_555
C1 H1 1_555 1_555
C2 H2 1_555 1_555
C3 H3 1_555 1_555
C4 C8 1_555 1_555
C5 C1 1_555 1_555
C6 O1 1_555 1_555
H4 C6 1_555 1_555
H5 C6 1_555 1_555
H6 C6 1_555 1_555
C7 C13 1_555 1_555
C8 C10 1_555 1_555
C9 H7 1_555 1_555
C10 H8 1_555 1_555
C11 C3 1_555 1_555
H9 C11 1_555 1_555
C12 C2 1_555 1_555
C13 H10 1_555 1_555
C14 C2 1_555 1_555
C15 C3 1_555 1_555
C16 C1 1_555 1_555
C17 C8 1_555 1_555
H11 C17 1_555 1_555
C18 C4 1_555 1_555
H12 C18 1_555 1_555
C19 O2 1_555 1_555
H13 C19 1_555 1_555
H14 C19 1_555 1_555
H15 C19 1_555 1_555
C20 H16 1_555 1_555
H17 C20 1_555 1_555
H18 C20 1_555 1_555
C21 C11 1_555 1_555
H19 C21 1_555 1_555
C22 C4 1_555 1_555
H20 C22 1_555 1_555
C23 C22 1_555 1_555
H21 C23 1_555 1_555
C24 C9 1_555 1_555
C25 C17 1_555 1_555
H22 C25 1_555 1_555
C5 C12 1_555 1_555
C7 C15 1_555 1_555
C7 C18 1_555 1_555
C9 C14 1_555 1_555
C9 C15 1_555 1_555
C10 C16 1_555 1_555
C10 C24 1_555 1_555
C13 C21 1_555 1_555
C14 C16 1_555 1_555
C18 C24 1_555 1_555
C20 C24 1_555 1_555
C23 C25 1_555 1_555

#END
