
#######################################################################
#
#                 Cambridge Crystallographic Data Centre
#                                CCDC 
#
#######################################################################
#
# If this CIF has been generated from an entry in the Cambridge 
# Structural Database, then it will include bibliographic, chemical, 
# crystal, experimental, refinement or atomic coordinate data resulting 
# from the CCDC's data processing and validation procedures.
#
#######################################################################

data_RAQPEE
_chemical_formula_moiety         'C11 H10 N3 1+,B1 F4 1-'
_chemical_name_systematic        '2-(phenylazonia)pyridine tetrafluoroborate'
_symmetry_cell_setting           monoclinic
_symmetry_space_group_name_H-M   'C 2/c'
_symmetry_Int_Tables_number      15
_space_group_name_Hall           '-C 2yn'
loop_
_symmetry_equiv_pos_site_id
_symmetry_equiv_pos_as_xyz
1 x,y,z
2 -x,y,1/2-z
3 1/2+x,1/2+y,z
4 1/2-x,1/2+y,1/2-z
5 -x,-y,-z
6 x,-y,1/2+z
7 1/2-x,1/2-y,-z
8 1/2+x,1/2-y,1/2+z
_cell_length_a                   29.875(4)
_cell_length_b                   5.930(1)
_cell_length_c                   13.743(2)
_cell_angle_alpha                90
_cell_angle_beta                 91.16(1)
_cell_angle_gamma                90
_cell_volume                     2434.19
_exptl_crystal_colour            brown
_cell_formula_units_Z            8
_exptl_crystal_recrystallization_method hexane
loop_
_atom_site_label
_atom_site_type_symbol
_atom_site_fract_x
_atom_site_fract_y
_atom_site_fract_z
N1 N 0.1778(1) 0.2606(5) 0.3810(2)
N2 N 0.1650(1) 0.0652(5) 0.3615(2)
N3 N 0.0927(1) 0.1926(5) 0.4104(2)
C1 C 0.2244(1) 0.2942(5) 0.3758(2)
C2 C 0.2404(1) 0.5083(6) 0.4039(2)
C3 C 0.2850(1) 0.5504(6) 0.4028(2)
C4 C 0.3150(1) 0.3897(6) 0.3735(2)
C5 C 0.2990(1) 0.1816(6) 0.3440(2)
C6 C 0.2542(1) 0.1332(5) 0.3444(2)
C7 C 0.1182(1) 0.0368(5) 0.3672(2)
C8 C 0.0480(1) 0.1680(7) 0.4147(3)
C9 C 0.0273(1) -0.0178(8) 0.3736(3)
C10 C 0.0531(1) -0.1786(7) 0.3305(3)
C11 C 0.0989(1) -0.1538(6) 0.3278(2)
B1 B 0.4189(1) 0.8661(8) 0.3904(3)
F1 F 0.3981(1) 0.8956(5) 0.3029(2)
F2 F 0.3907(1) 0.9484(5) 0.4628(2)
F3 F 0.4246(1) 0.6398(5) 0.4066(2)
F4 F 0.4585(1) 0.9723(6) 0.3957(3)
O1? O 0.3541(3) 0.4792(17) 0.3846(6)
loop_
_geom_bond_atom_site_label_1
_geom_bond_atom_site_label_2
_geom_bond_site_symmetry_1
_geom_bond_site_symmetry_2
N1 N2 1_555 1_555
N2 C7 1_555 1_555
N3 C7 1_555 1_555
C1 N1 1_555 1_555
C2 C1 1_555 1_555
C3 C2 1_555 1_555
C4 C3 1_555 1_555
C5 C4 1_555 1_555
C6 C1 1_555 1_555
C7 C11 1_555 1_555
C8 N3 1_555 1_555
C9 C8 1_555 1_555
C10 C9 1_555 1_555
C11 C10 1_555 1_555
B1 F1 1_555 1_555
F2 B1 1_555 1_555
F3 B1 1_555 1_555
F4 B1 1_555 1_555
C5 C6 1_555 1_555

#END
