
#######################################################################
#
#                 Cambridge Crystallographic Data Centre
#                                CCDC 
#
#######################################################################
#
# If this CIF has been generated from an entry in the Cambridge 
# Structural Database, then it will include bibliographic, chemical, 
# crystal, experimental, refinement or atomic coordinate data resulting 
# from the CCDC's data processing and validation procedures.
#
#######################################################################

data_RAQPUX
_chemical_formula_moiety         'C19 H19 N3 O4'
_chemical_name_systematic        
"t-butyl 6'-amino-5'-cyano-2'-methyl-2-oxo-1,2-dihydrospiro[indole-3,4'-pyran]-3'-carboxylate"
_symmetry_cell_setting           triclinic
_symmetry_space_group_name_H-M   'P -1'
_symmetry_Int_Tables_number      2
_space_group_name_Hall           '-P 1'
loop_
_symmetry_equiv_pos_site_id
_symmetry_equiv_pos_as_xyz
1 x,y,z
2 -x,-y,-z
_cell_length_a                   8.3534(7)
_cell_length_b                   10.1431(6)
_cell_length_c                   11.4164(7)
_cell_angle_alpha                101.905(5)
_cell_angle_beta                 106.637(7)
_cell_angle_gamma                97.181(6)
_cell_volume                     889.226
_exptl_crystal_colour            white
_exptl_crystal_description       block
_cell_formula_units_Z            2
loop_
_atom_site_label
_atom_site_type_symbol
_atom_site_fract_x
_atom_site_fract_y
_atom_site_fract_z
N1 N 0.22503(18) 0.58722(14) 0.57293(12)
H1 H 0.1788 0.5032 0.5332
C1 C 0.1390(2) 0.68991(17) 0.57950(15)
C2 C 0.2699(2) 0.82787(17) 0.64431(15)
C3 C 0.5956(2) 0.8439(2) 0.75974(15)
H2 H 0.6185 0.9386 0.7931
C4 C 0.7238(3) 0.7688(2) 0.78213(17)
H3 H 0.8341 0.8136 0.8313
C5 C 0.6896(3) 0.6280(2) 0.73222(18)
H4 H 0.7780 0.5798 0.7471
C6 C 0.5260(3) 0.5575(2) 0.66049(17)
H5 H 0.5022 0.4627 0.6283
C7 C 0.4007(2) 0.63347(18) 0.63905(15)
C8 C 0.4339(2) 0.77514(17) 0.68715(14)
O1 O -0.01602(15) 0.67935(12) 0.53660(11)
C9 C 0.2709(2) 0.90508(18) 0.54417(15)
C10 C 0.2223(2) 1.02690(19) 0.54723(16)
O2 O 0.16382(17) 1.08902(12) 0.63995(12)
C11 C 0.1689(2) 1.03236(18) 0.74038(16)
C12 C 0.2211(2) 0.91476(16) 0.74876(15)
C13 C 0.3189(3) 0.8438(2) 0.43912(17)
N2 N 0.3549(3) 0.7928(2) 0.35365(18)
N3 N 0.2188(2) 1.10278(17) 0.46407(15)
H6 H 0.2503 1.0746 0.3994
H7 H 0.1851 1.1798 0.4753
C14 C 0.1017(3) 1.1223(2) 0.82809(18)
H8 H 0.0631 1.0705 0.8797
H9 H 0.0084 1.1556 0.7800
H10 H 0.1905 1.1986 0.8811
C15 C 0.2307(2) 0.86599(19) 0.86338(16)
O3 O 0.2501(2) 0.93835(15) 0.96592(12)
O4 O 0.21492(16) 0.72970(12) 0.83811(10)
C16 C 0.2519(3) 0.6579(2) 0.94050(17)
C17 C 0.4381(3) 0.7071(3) 1.0196(2)
H11 H 0.5079 0.6922 0.9662
H12 H 0.4661 0.6569 1.0830
H13 H 0.4582 0.8033 1.0598
C18 C 0.2145(4) 0.5088(2) 0.8670(2)
H14 H 0.0995 0.4849 0.8105
H15 H 0.2289 0.4512 0.9248
H16 H 0.2916 0.4958 0.8193
C19 C 0.1342(3) 0.6797(2) 1.01801(19)
H17 H 0.1587 0.7745 1.0638
H18 H 0.1507 0.6230 1.0765
H19 H 0.0182 0.6555 0.9631
loop_
_geom_bond_atom_site_label_1
_geom_bond_atom_site_label_2
_geom_bond_site_symmetry_1
_geom_bond_site_symmetry_2
N1 H1 1_555 1_555
C1 N1 1_555 1_555
C2 C1 1_555 1_555
C3 H2 1_555 1_555
C4 C3 1_555 1_555
H3 C4 1_555 1_555
C5 C4 1_555 1_555
H4 C5 1_555 1_555
C6 C5 1_555 1_555
H5 C6 1_555 1_555
C7 N1 1_555 1_555
C8 C2 1_555 1_555
O1 C1 1_555 1_555
C9 C2 1_555 1_555
C10 C9 1_555 1_555
O2 C10 1_555 1_555
C11 O2 1_555 1_555
C12 C2 1_555 1_555
C13 C9 1_555 1_555
N2 C13 1_555 1_555
N3 C10 1_555 1_555
H6 N3 1_555 1_555
H7 N3 1_555 1_555
C14 C11 1_555 1_555
H8 C14 1_555 1_555
H9 C14 1_555 1_555
H10 C14 1_555 1_555
C15 C12 1_555 1_555
O3 C15 1_555 1_555
O4 C15 1_555 1_555
C16 O4 1_555 1_555
C17 C16 1_555 1_555
H11 C17 1_555 1_555
H12 C17 1_555 1_555
H13 C17 1_555 1_555
C18 C16 1_555 1_555
H14 C18 1_555 1_555
H15 C18 1_555 1_555
H16 C18 1_555 1_555
C19 C16 1_555 1_555
H17 C19 1_555 1_555
H18 C19 1_555 1_555
H19 C19 1_555 1_555
C3 C8 1_555 1_555
C6 C7 1_555 1_555
C7 C8 1_555 1_555
C11 C12 1_555 1_555

#END
