
#######################################################################
#
#                 Cambridge Crystallographic Data Centre
#                                CCDC 
#
#######################################################################
#
# If this CIF has been generated from an entry in the Cambridge 
# Structural Database, then it will include bibliographic, chemical, 
# crystal, experimental, refinement or atomic coordinate data resulting 
# from the CCDC's data processing and validation procedures.
#
#######################################################################

data_RAQQIK
_chemical_formula_moiety         'C30 H35 F3 I1 N1 O4'
_chemical_name_systematic        
(1R,5S,7R,1'R)-1-(2'-p-Iodobenzoyloxy-1'-methylethyl)-7-(2''-benzyloxy-1''-methylethyl)-6-trifluoroacetyl-6-aza-5-spiro(4.5)decane
_symmetry_cell_setting           monoclinic
_symmetry_space_group_name_H-M   'P 21'
_symmetry_Int_Tables_number      4
_space_group_name_Hall           'P 2yb'
loop_
_symmetry_equiv_pos_site_id
_symmetry_equiv_pos_as_xyz
1 x,y,z
2 -x,1/2+y,-z
_cell_length_a                   7.2203(7)
_cell_length_b                   14.0238(13)
_cell_length_c                   14.0714(13)
_cell_angle_alpha                90
_cell_angle_beta                 91.101(2)
_cell_angle_gamma                90
_cell_volume                     1424.55
_exptl_crystal_colour            colorless
_chemical_melting_point          153.4-154.4deg.C
_cell_formula_units_Z            2
loop_
_atom_site_label
_atom_site_type_symbol
_atom_site_fract_x
_atom_site_fract_y
_atom_site_fract_z
I1 I 0.82641(6) 0.29026(3) 0.04040(2)
O1 O 0.1395(6) 0.5419(3) 0.6559(3)
O2 O 0.2192(6) 0.2694(3) 0.9143(3)
O3 O 0.0802(6) 0.2525(3) 0.3536(3)
O4 O 0.3097(6) 0.1864(3) 0.4394(3)
N1 N 0.0587(6) 0.3855(3) 0.6374(3)
F1 F 0.3819(5) 0.3912(3) 0.5184(3)
F2 F 0.1775(6) 0.4745(3) 0.4454(2)
F3 F 0.3862(7) 0.5415(3) 0.5306(3)
C1 C 0.3007(7) 0.3194(4) 0.8378(4)
H1 H 0.2717 0.2874 0.7782
H2 H 0.4343 0.3206 0.8464
C2 C 0.2251(8) 0.4213(4) 0.8350(4)
C3 C 0.0174(8) 0.4247(4) 0.8176(4)
C4 C -0.0804(9) 0.5197(4) 0.8370(5)
H3 H -0.0864 0.5319 0.9047
H4 H -0.0166 0.5722 0.8069
C5 C -0.2691(9) 0.5066(5) 0.7946(5)
H5 H -0.3312 0.5675 0.7862
H6 H -0.3440 0.4660 0.8344
C6 C -0.2347(9) 0.4599(5) 0.6999(5)
H7 H -0.2013 0.5070 0.6527
H8 H -0.3438 0.4257 0.6774
C7 C -0.0706(7) 0.3896(4) 0.7201(4)
C8 C -0.1468(6) 0.2880(5) 0.7357(3)
H9 H -0.0449 0.2470 0.7555
H10 H -0.2338 0.2900 0.7873
C9 C -0.2436(8) 0.2430(5) 0.6490(5)
H11 H -0.2286 0.1743 0.6516
H12 H -0.3751 0.2569 0.6506
C10 C -0.1654(7) 0.2802(7) 0.5569(4)
H13 H -0.2348 0.3361 0.5367
H14 H -0.1799 0.2319 0.5079
C11 C 0.0395(7) 0.3062(4) 0.5679(3)
C12 C 0.1616(8) 0.2204(4) 0.5914(4)
H15 H 0.2835 0.2428 0.6110
H16 H 0.1093 0.1864 0.6446
C13 C 0.1819(10) 0.1519(4) 0.5093(4)
H17 H 0.2251 0.0909 0.5334
H18 H 0.0616 0.1420 0.4790
C14 C 0.2396(8) 0.2315(4) 0.3627(4)
C15 C 0.3822(7) 0.2479(4) 0.2908(4)
C16 C 0.5636(8) 0.2210(4) 0.3037(4)
H19 H 0.6016 0.1943 0.3613
C17 C 0.6896(8) 0.2329(4) 0.2333(4)
H20 H 0.8120 0.2140 0.2430
C18 C 0.6340(7) 0.2733(4) 0.1472(4)
C19 C 0.4517(8) 0.3021(5) 0.1339(4)
H21 H 0.4143 0.3297 0.0766
C20 C 0.3264(7) 0.2902(6) 0.2048(3)
H22 H 0.2045 0.3101 0.1958
C21 C 0.1477(7) 0.4671(4) 0.6140(3)
C22 C 0.2758(9) 0.4673(4) 0.5265(4)
C23 C 0.2809(10) 0.4718(5) 0.9266(5)
H23 H 0.2549 0.5387 0.9207
H24 H 0.4111 0.4628 0.9388
H25 H 0.2122 0.4458 0.9783
C24 C 0.3001(10) 0.1785(5) 0.9317(5)
H26 H 0.2550 0.1541 0.9914
H27 H 0.4333 0.1861 0.9383
C25 C 0.2594(10) 0.1062(4) 0.8546(5)
C26 C 0.3926(15) 0.0720(6) 0.7984(6)
H28 H 0.5134 0.0946 0.8044
C27 C 0.347(2) 0.0007(8) 0.7292(8)
H29 H 0.4395 -0.0255 0.6923
C28 C 0.173(3) -0.0285(8) 0.7172(10)
H30 H 0.1433 -0.0729 0.6703
C29 C 0.043(2) 0.0059(7) 0.7728(10)
H31 H -0.0780 -0.0157 0.7648
C30 C 0.0822(14) 0.0730(6) 0.8421(6)
H32 H -0.0119 0.0956 0.8803
H33 H 0.297(8) 0.442(4) 0.782(3)
H34 H -0.041(8) 0.383(4) 0.862(4)
H35 H 0.067(7) 0.329(3) 0.507(2)
loop_
_geom_bond_atom_site_label_1
_geom_bond_atom_site_label_2
_geom_bond_site_symmetry_1
_geom_bond_site_symmetry_2
I1 C18 1_555 1_555
O1 C21 1_555 1_555
O2 C1 1_555 1_555
O3 C14 1_555 1_555
O4 C13 1_555 1_555
N1 C7 1_555 1_555
F1 C22 1_555 1_555
F2 C22 1_555 1_555
F3 C22 1_555 1_555
C1 H1 1_555 1_555
H2 C1 1_555 1_555
C2 C1 1_555 1_555
C3 C2 1_555 1_555
C4 C3 1_555 1_555
H3 C4 1_555 1_555
H4 C4 1_555 1_555
C5 C4 1_555 1_555
H5 C5 1_555 1_555
H6 C5 1_555 1_555
C6 C5 1_555 1_555
H7 C6 1_555 1_555
H8 C6 1_555 1_555
C7 C3 1_555 1_555
C8 C7 1_555 1_555
H9 C8 1_555 1_555
H10 C8 1_555 1_555
C9 C8 1_555 1_555
H11 C9 1_555 1_555
H12 C9 1_555 1_555
C10 C9 1_555 1_555
H13 C10 1_555 1_555
H14 C10 1_555 1_555
C11 N1 1_555 1_555
C12 C11 1_555 1_555
H15 C12 1_555 1_555
H16 C12 1_555 1_555
C13 C12 1_555 1_555
H17 C13 1_555 1_555
H18 C13 1_555 1_555
C14 O4 1_555 1_555
C15 C14 1_555 1_555
C16 C15 1_555 1_555
H19 C16 1_555 1_555
C17 C16 1_555 1_555
H20 C17 1_555 1_555
C18 C17 1_555 1_555
C19 C18 1_555 1_555
H21 C19 1_555 1_555
C20 C15 1_555 1_555
H22 C20 1_555 1_555
C21 N1 1_555 1_555
C22 C21 1_555 1_555
C23 C2 1_555 1_555
H23 C23 1_555 1_555
H24 C23 1_555 1_555
H25 C23 1_555 1_555
C24 O2 1_555 1_555
H26 C24 1_555 1_555
H27 C24 1_555 1_555
C25 C24 1_555 1_555
C26 C25 1_555 1_555
H28 C26 1_555 1_555
C27 C26 1_555 1_555
H29 C27 1_555 1_555
C28 C27 1_555 1_555
H30 C28 1_555 1_555
C29 C28 1_555 1_555
H31 C29 1_555 1_555
C30 C25 1_555 1_555
H32 C30 1_555 1_555
H33 C2 1_555 1_555
H34 C3 1_555 1_555
H35 C11 1_555 1_555
C6 C7 1_555 1_555
C10 C11 1_555 1_555
C19 C20 1_555 1_555
C29 C30 1_555 1_555

#END
