
#######################################################################
#
#                 Cambridge Crystallographic Data Centre
#                                CCDC 
#
#######################################################################
#
# If this CIF has been generated from an entry in the Cambridge 
# Structural Database, then it will include bibliographic, chemical, 
# crystal, experimental, refinement or atomic coordinate data resulting 
# from the CCDC's data processing and validation procedures.
#
#######################################################################

data_RAQWOY
_chemical_formula_moiety         'C21 H17 N3 S1'
_chemical_name_systematic        
1-benzyl-5-phenyl-4-(phenylsulfanyl)-1H-1,2,3-triazole
_symmetry_cell_setting           triclinic
_symmetry_space_group_name_H-M   'P -1'
_symmetry_Int_Tables_number      2
_space_group_name_Hall           '-P 1'
loop_
_symmetry_equiv_pos_site_id
_symmetry_equiv_pos_as_xyz
1 x,y,z
2 -x,-y,-z
_cell_length_a                   9.6482(11)
_cell_length_b                   10.3330(12)
_cell_length_c                   10.6553(12)
_cell_angle_alpha                115.638(2)
_cell_angle_beta                 104.751(2)
_cell_angle_gamma                101.771(2)
_cell_volume                     863.906
_exptl_crystal_colour            colorless
_exptl_crystal_description       prismatic
_cell_formula_units_Z            2
loop_
_atom_site_label
_atom_site_type_symbol
_atom_site_fract_x
_atom_site_fract_y
_atom_site_fract_z
S1 S 0.46340(6) 0.26041(6) 0.42331(5)
N1 N 0.31842(16) 0.43619(16) 0.18690(16)
N2 N 0.46468(18) 0.46487(18) 0.19762(18)
N3 N 0.52731(17) 0.40492(19) 0.27108(18)
C1 C 0.42022(19) 0.3353(2) 0.30617(18)
C2 C 0.28513(19) 0.35442(18) 0.25301(18)
C3 C 0.2219(2) 0.4942(2) 0.1097(2)
H1 H 0.2864 0.5896 0.1253
H2 H 0.1481 0.5171 0.1551
C4 C 0.1367(2) 0.3831(2) -0.0570(2)
C5 C -0.0046(2) 0.2699(2) -0.1132(2)
H3 H -0.0468 0.2604 -0.0469
C6 C -0.0831(3) 0.1714(3) -0.2661(3)
H4 H -0.1781 0.0957 -0.3027
C7 C -0.0217(3) 0.1842(3) -0.3652(3)
H5 H -0.0746 0.1165 -0.4686
C8 C 0.1175(3) 0.2967(3) -0.3115(2)
H6 H 0.1584 0.3065 -0.3785
C9 C 0.1968(2) 0.3955(2) -0.1579(2)
H7 H 0.2916 0.4712 -0.1219
C10 C 0.13414(19) 0.3002(2) 0.25743(18)
C11 C 0.0640(2) 0.1450(2) 0.2035(2)
H8 H 0.1134 0.0774 0.1667
C12 C -0.0778(2) 0.0905(3) 0.2040(3)
H9 H -0.1236 -0.0138 0.1680
C13 C -0.1521(2) 0.1884(3) 0.2571(2)
H10 H -0.2487 0.1506 0.2562
C14 C -0.0841(2) 0.3430(3) 0.3120(2)
H11 H -0.1350 0.4095 0.3478
C15 C 0.0598(2) 0.3996(2) 0.3141(2)
H12 H 0.1066 0.5045 0.3535
C16 C 0.48359(18) 0.0867(2) 0.30811(19)
C17 C 0.4169(2) 0.0025(2) 0.15168(19)
H13 H 0.3566 0.0367 0.0992
C18 C 0.4403(2) -0.1327(2) 0.0741(2)
H14 H 0.3968 -0.1883 -0.0310
C19 C 0.5267(2) -0.1855(2) 0.1497(2)
H15 H 0.5417 -0.2767 0.0964
C20 C 0.5916(2) -0.1031(2) 0.3054(2)
H16 H 0.6496 -0.1391 0.3574
C21 C 0.5707(2) 0.0320(2) 0.3835(2)
H17 H 0.6155 0.0876 0.4885
loop_
_geom_bond_atom_site_label_1
_geom_bond_atom_site_label_2
_geom_bond_site_symmetry_1
_geom_bond_site_symmetry_2
S1 C1 1_555 1_555
N1 N2 1_555 1_555
N2 N3 1_555 1_555
N3 C1 1_555 1_555
C1 C2 1_555 1_555
C2 N1 1_555 1_555
C3 N1 1_555 1_555
H1 C3 1_555 1_555
H2 C3 1_555 1_555
C4 C3 1_555 1_555
C5 C4 1_555 1_555
H3 C5 1_555 1_555
C6 C5 1_555 1_555
H4 C6 1_555 1_555
C7 C6 1_555 1_555
H5 C7 1_555 1_555
C8 C7 1_555 1_555
H6 C8 1_555 1_555
C9 C4 1_555 1_555
H7 C9 1_555 1_555
C10 C2 1_555 1_555
C11 C10 1_555 1_555
H8 C11 1_555 1_555
C12 C11 1_555 1_555
H9 C12 1_555 1_555
C13 C12 1_555 1_555
H10 C13 1_555 1_555
C14 C13 1_555 1_555
H11 C14 1_555 1_555
C15 C10 1_555 1_555
H12 C15 1_555 1_555
C16 S1 1_555 1_555
C17 C16 1_555 1_555
H13 C17 1_555 1_555
C18 C17 1_555 1_555
H14 C18 1_555 1_555
C19 C18 1_555 1_555
H15 C19 1_555 1_555
C20 C19 1_555 1_555
H16 C20 1_555 1_555
C21 C16 1_555 1_555
H17 C21 1_555 1_555
C8 C9 1_555 1_555
C14 C15 1_555 1_555
C20 C21 1_555 1_555

#END
