
#######################################################################
#
#                 Cambridge Crystallographic Data Centre
#                                CCDC 
#
#######################################################################
#
# If this CIF has been generated from an entry in the Cambridge 
# Structural Database, then it will include bibliographic, chemical, 
# crystal, experimental, refinement or atomic coordinate data resulting 
# from the CCDC's data processing and validation procedures.
#
#######################################################################

data_RARBIY
_chemical_formula_moiety         'C9 H9 N4 O1 1+,N1 O3 1-,H2 O1'
_chemical_name_systematic        
'4-((4-hydroxybenzylidene)amino)-4H-1,2,4-triazol-1-ium nitrate monohydrate'
_symmetry_cell_setting           monoclinic
_symmetry_space_group_name_H-M   'P 21/c'
_symmetry_Int_Tables_number      14
_space_group_name_Hall           '-P 2ybc'
loop_
_symmetry_equiv_pos_site_id
_symmetry_equiv_pos_as_xyz
1 x,y,z
2 -x,1/2+y,1/2-z
3 -x,-y,-z
4 x,1/2-y,1/2+z
_cell_length_a                   7.1440(14)
_cell_length_b                   18.168(4)
_cell_length_c                   9.3760(19)
_cell_angle_alpha                90
_cell_angle_beta                 104.84(3)
_cell_angle_gamma                90
_cell_volume                     1176.34
_exptl_crystal_colour            yellow
_exptl_crystal_description       stick
_cell_formula_units_Z            4
loop_
_atom_site_label
_atom_site_type_symbol
_atom_site_fract_x
_atom_site_fract_y
_atom_site_fract_z
O1 O 0.6544(4) 0.22135(12) 0.3094(3)
H1 H 0.7222 0.1909 0.3636
N1 N 0.7422(4) 0.74245(15) 0.5785(3)
H2 H 0.7168 0.7883 0.5602
C1 C 0.6862(5) 0.69024(18) 0.4838(4)
H3 H 0.6123 0.6958 0.3872
N2 N 0.8462(4) 0.71604(16) 0.7107(3)
C2 C 0.8530(5) 0.64546(19) 0.6900(4)
H4 H 0.9169 0.6120 0.7610
C3 C 0.7846(4) 0.50364(18) 0.5485(4)
H5 H 0.8523 0.5087 0.6469
N3 N 0.7532(4) 0.62700(13) 0.5493(3)
N4 N 0.7198(4) 0.56016(14) 0.4748(3)
C4 C 0.7562(4) 0.43127(17) 0.4840(3)
C5 C 0.8343(5) 0.37054(17) 0.5683(4)
H6 H 0.9074 0.3776 0.6648
C6 C 0.8062(5) 0.30012(17) 0.5125(3)
H7 H 0.8613 0.2601 0.5700
C7 C 0.6941(4) 0.28964(17) 0.3689(3)
C8 C 0.6213(5) 0.34977(18) 0.2833(3)
H8 H 0.5513 0.3427 0.1861
C9 C 0.6495(5) 0.41937(18) 0.3381(4)
H9 H 0.5979 0.4592 0.2786
N5 N 0.8113(5) 0.06016(16) 0.4960(4)
O2 O 0.8827(4) 0.12267(13) 0.4928(3)
O3 O 0.6725(4) 0.04059(16) 0.3934(3)
O4 O 0.8832(4) 0.01885(14) 0.6010(3)
O5 O 0.3261(4) 0.11481(13) 0.4136(4)
H10 H 0.2688 0.1308 0.4764
H11 H 0.3006 0.0720 0.3771
loop_
_geom_bond_atom_site_label_1
_geom_bond_atom_site_label_2
_geom_bond_site_symmetry_1
_geom_bond_site_symmetry_2
O1 H1 1_555 1_555
N1 H2 1_555 1_555
C1 N1 1_555 1_555
H3 C1 1_555 1_555
N2 N1 1_555 1_555
C2 N2 1_555 1_555
H4 C2 1_555 1_555
C3 H5 1_555 1_555
N3 C1 1_555 1_555
N4 C3 1_555 1_555
C4 C3 1_555 1_555
C5 C4 1_555 1_555
H6 C5 1_555 1_555
C6 C5 1_555 1_555
H7 C6 1_555 1_555
C7 O1 1_555 1_555
C8 C7 1_555 1_555
H8 C8 1_555 1_555
C9 C4 1_555 1_555
H9 C9 1_555 1_555
N5 O2 1_555 1_555
O3 N5 1_555 1_555
O4 N5 1_555 1_555
O5 H10 1_555 1_555
H11 O5 1_555 1_555
C2 N3 1_555 1_555
N3 N4 1_555 1_555
C6 C7 1_555 1_555
C8 C9 1_555 1_555

#END
