
#######################################################################
#
#                 Cambridge Crystallographic Data Centre
#                                CCDC 
#
#######################################################################
#
# If this CIF has been generated from an entry in the Cambridge 
# Structural Database, then it will include bibliographic, chemical, 
# crystal, experimental, refinement or atomic coordinate data resulting 
# from the CCDC's data processing and validation procedures.
#
#######################################################################

data_RARGOI
_chemical_formula_moiety         'C14 H21 N5 O4 S1,C1 H4 O1'
_chemical_name_systematic        
'4-(6,7-bis(Hydroxymethyl)-5,6,7,8-tetrahydroimidazo[1,5-a]pyridin-5-yl)-N,N-dimethyl-1H-imidazole-1-sulfonamide methanol solvate'
_symmetry_cell_setting           triclinic
_symmetry_space_group_name_H-M   'P -1'
_symmetry_Int_Tables_number      2
_space_group_name_Hall           '-P 1'
loop_
_symmetry_equiv_pos_site_id
_symmetry_equiv_pos_as_xyz
1 x,y,z
2 -x,-y,-z
_cell_length_a                   9.0406(14)
_cell_length_b                   9.2323(14)
_cell_length_c                   11.7807(17)
_cell_angle_alpha                83.999(3)
_cell_angle_beta                 79.454(3)
_cell_angle_gamma                75.926(3)
_cell_volume                     935.796
_exptl_crystal_colour            colorless
_exptl_crystal_description       prismatic
_cell_formula_units_Z            2
loop_
_atom_site_label
_atom_site_type_symbol
_atom_site_fract_x
_atom_site_fract_y
_atom_site_fract_z
S1 S 0.23959(9) 0.33146(8) 1.32502(6)
O1 O 0.6295(4) 0.1545(4) 0.4972(3)
H1 H 0.5703 0.1921 0.4516
O2 O 0.6600(2) 0.1251(2) 0.8734(2)
O3 O 0.3625(3) 0.2089(3) 1.34614(19)
O4 O 0.2379(3) 0.4782(3) 1.3495(2)
N1 N 0.1910(2) 0.1843(2) 0.84566(19)
N2 N -0.0378(3) 0.1481(3) 0.8356(3)
N3 N 0.2099(3) 0.4288(2) 1.0042(2)
N4 N 0.2446(3) 0.3396(3) 1.18051(19)
N5 N 0.0794(3) 0.2933(3) 1.3860(2)
C1 C 0.0549(3) 0.1614(3) 0.9064(3)
H3 H 0.0305 0.1558 0.9867
C2 C 0.0427(3) 0.1630(4) 0.7264(3)
H4 H 0.0049 0.1593 0.6587
C3 C 0.1851(3) 0.1839(3) 0.7300(2)
C4 C 0.3169(4) 0.2076(4) 0.6394(2)
H5 H 0.2913 0.3081 0.6037
H6 H 0.3327 0.1378 0.5799
C5 C 0.4668(3) 0.1863(3) 0.6886(2)
H7 H 0.5037 0.0793 0.7081
C6 C 0.4337(3) 0.2691(3) 0.8003(2)
H8 H 0.3789 0.3725 0.7839
C7 C 0.3277(3) 0.1952(3) 0.8936(2)
H9 H 0.3846 0.0935 0.9127
C8 C 0.2792(3) 0.2766(3) 1.0025(2)
C9 C 0.3002(3) 0.2206(3) 1.1095(2)
H10 H 0.3432 0.1219 1.1318
C10 C 0.1910(3) 0.4612(3) 1.1107(2)
H11 H 0.1462 0.5562 1.1367
C11 C 0.5901(4) 0.2370(4) 0.5969(3)
H12 H 0.5529 0.3418 0.5743
H13 H 0.6824 0.2280 0.6306
C12 C 0.5783(3) 0.2728(3) 0.8478(3)
H14 H 0.6439 0.3237 0.7912
H15 H 0.5496 0.3277 0.9174
C13 C 0.0596(6) 0.1431(4) 1.3704(4)
H16 H -0.0357 0.1287 1.4162
H17 H 0.1442 0.0687 1.3946
H18 H 0.0573 0.1341 1.2903
C14 C -0.0615(4) 0.4134(5) 1.3826(4)
H19 H -0.0954 0.4171 1.3095
H20 H -0.0395 0.5077 1.3921
H21 H -0.1414 0.3937 1.4439
H25 H 0.746(3) 0.138(4) 0.871(4)
O5 O 0.1473(4) 0.6926(3) 0.8527(3)
H2 H 0.1571 0.6214 0.9007
C15 C 0.2810(7) 0.7466(6) 0.8310(5)
H22 H 0.2713 0.8270 0.7723
H23 H 0.3678 0.6676 0.8051
H24 H 0.2962 0.7824 0.9007
loop_
_geom_bond_atom_site_label_1
_geom_bond_atom_site_label_2
_geom_bond_site_symmetry_1
_geom_bond_site_symmetry_2
S1 O3 1_555 1_555
O1 H1 1_555 1_555
O2 C12 1_555 1_555
O4 S1 1_555 1_555
O5 H2 1_555 1_555
N1 C1 1_555 1_555
N2 C1 1_555 1_555
N3 C8 1_555 1_555
N4 S1 1_555 1_555
N5 S1 1_555 1_555
C1 H3 1_555 1_555
C2 N2 1_555 1_555
H4 C2 1_555 1_555
C3 N1 1_555 1_555
C4 C3 1_555 1_555
H5 C4 1_555 1_555
H6 C4 1_555 1_555
C5 C4 1_555 1_555
H7 C5 1_555 1_555
C6 C5 1_555 1_555
H8 C6 1_555 1_555
C7 N1 1_555 1_555
H9 C7 1_555 1_555
C8 C7 1_555 1_555
C9 N4 1_555 1_555
H10 C9 1_555 1_555
C10 N3 1_555 1_555
H11 C10 1_555 1_555
C11 O1 1_555 1_555
H12 C11 1_555 1_555
H13 C11 1_555 1_555
C12 C6 1_555 1_555
H14 C12 1_555 1_555
H15 C12 1_555 1_555
C13 N5 1_555 1_555
H16 C13 1_555 1_555
H17 C13 1_555 1_555
H18 C13 1_555 1_555
C14 N5 1_555 1_555
H19 C14 1_555 1_555
H20 C14 1_555 1_555
H21 C14 1_555 1_555
C15 O5 1_555 1_555
H22 C15 1_555 1_555
H23 C15 1_555 1_555
H24 C15 1_555 1_555
H25 O2 1_555 1_555
N4 C10 1_555 1_555
C2 C3 1_555 1_555
C5 C11 1_555 1_555
C6 C7 1_555 1_555
C8 C9 1_555 1_555

#END
