
#######################################################################
#
#                 Cambridge Crystallographic Data Centre
#                                CCDC 
#
#######################################################################
#
# If this CIF has been generated from an entry in the Cambridge 
# Structural Database, then it will include bibliographic, chemical, 
# crystal, experimental, refinement or atomic coordinate data resulting 
# from the CCDC's data processing and validation procedures.
#
#######################################################################

data_RARMAB
_chemical_formula_moiety         'C15 H20 N4 O4'
_chemical_name_systematic        
'ethyl 1-((4-(ethoxycarbonyl)-5-methyl-1H-pyrazol-1-yl)methyl)-3-methyl-1H-pyrazole-4-carboxylate'
_symmetry_cell_setting           orthorhombic
_symmetry_space_group_name_H-M   'P b c a'
_symmetry_Int_Tables_number      61
_space_group_name_Hall           '-P 2ac 2ab'
loop_
_symmetry_equiv_pos_site_id
_symmetry_equiv_pos_as_xyz
1 x,y,z
2 1/2-x,-y,1/2+z
3 -x,1/2+y,1/2-z
4 1/2+x,1/2-y,-z
5 -x,-y,-z
6 1/2+x,y,1/2-z
7 x,1/2-y,1/2+z
8 1/2-x,1/2+y,z
_cell_length_a                   12.259(4)
_cell_length_b                   8.409(3)
_cell_length_c                   32.758(9)
_cell_angle_alpha                90
_cell_angle_beta                 90
_cell_angle_gamma                90
_cell_volume                     3376.89
_exptl_crystal_colour            colorless
_exptl_crystal_description       block
_cell_formula_units_Z            8
loop_
_atom_site_label
_atom_site_type_symbol
_atom_site_fract_x
_atom_site_fract_y
_atom_site_fract_z
O1 O 0.9063(3) 0.7658(4) 0.55470(9)
O2 O 0.7318(2) 0.8159(3) 0.56827(8)
O3 O 1.03286(16) 1.0599(3) 0.83713(6)
O4 O 0.88213(15) 0.9491(3) 0.86272(6)
N1 N 0.84183(17) 1.0831(3) 0.66401(6)
N2 N 0.95183(18) 1.0624(3) 0.65991(7)
N3 N 0.81577(15) 1.1141(2) 0.73638(6)
N4 N 0.73939(16) 1.0075(3) 0.74972(7)
C1 C 0.9619(3) 0.9664(4) 0.62816(10)
C2 C 0.8599(2) 0.9248(4) 0.61180(8)
C3 C 0.7857(2) 1.0033(3) 0.63593(8)
H1 H 0.7102 1.0010 0.6332
C4 C 1.0736(3) 0.9176(6) 0.61376(13)
H2 H 1.1279 0.9644 0.6311
H3 H 1.0844 0.9535 0.5862
H4 H 1.0799 0.8039 0.6147
C5 C 0.8379(4) 0.8283(4) 0.57596(10)
C6 C 0.6810(13) 0.7205(8) 0.5346(2)
H5 H 0.7334 0.6445 0.5240
H6 H 0.6185 0.6623 0.5449
C7 C 0.6484(11) 0.8238(15) 0.5036(3)
H7 H 0.6098 0.9121 0.5153
H8 H 0.6015 0.7685 0.4850
H9 H 0.7115 0.8621 0.4893
C8 C 0.8012(2) 1.1841(3) 0.69642(8)
H10 H 0.8390 1.2854 0.6955
H11 H 0.7242 1.2043 0.6920
C9 C 0.7750(2) 0.9667(3) 0.78621(8)
H12 H 0.7390 0.8952 0.8032
C10 C 0.87282(18) 1.0426(3) 0.79671(7)
C11 C 0.89748(17) 1.1369(3) 0.76350(7)
C12 C 0.9896(2) 1.2471(4) 0.75570(9)
H13 H 0.9815 1.2940 0.7291
H14 H 1.0571 1.1894 0.7569
H15 H 0.9899 1.3294 0.7760
C13 C 0.9385(2) 1.0206(3) 0.83343(8)
C14 C 0.9395(3) 0.9103(5) 0.90017(9)
H16 H 0.9756 1.0040 0.9110
H17 H 0.9942 0.8294 0.8950
C15 C 0.8583(4) 0.8515(8) 0.92924(13)
H18 H 0.8936 0.8243 0.9545
H19 H 0.8232 0.7590 0.9182
H20 H 0.8048 0.9328 0.9341
C16? C 0.7329(13) 0.749(2) 0.5265(6)
H21? H 0.7720 0.6490 0.5252
H22? H 0.7632 0.8230 0.5068
C17? C 0.6065(13) 0.726(3) 0.5208(5)
H23? H 0.5770 0.6731 0.5442
H24? H 0.5931 0.6638 0.4968
H25? H 0.5724 0.8285 0.5179
loop_
_geom_bond_atom_site_label_1
_geom_bond_atom_site_label_2
_geom_bond_site_symmetry_1
_geom_bond_site_symmetry_2
O1 C5 1_555 1_555
O2 C5 1_555 1_555
O3 C13 1_555 1_555
O4 C13 1_555 1_555
N1 N2 1_555 1_555
N2 C1 1_555 1_555
N3 N4 1_555 1_555
N4 C9 1_555 1_555
C1 C2 1_555 1_555
C2 C3 1_555 1_555
C3 N1 1_555 1_555
H1 C3 1_555 1_555
C4 C1 1_555 1_555
H2 C4 1_555 1_555
H3 C4 1_555 1_555
H4 C4 1_555 1_555
C5 C2 1_555 1_555
C6 O2 1_555 1_555
H5 C6 1_555 1_555
H6 C6 1_555 1_555
C7 C6 1_555 1_555
H7 C7 1_555 1_555
H8 C7 1_555 1_555
H9 C7 1_555 1_555
C8 N1 1_555 1_555
H10 C8 1_555 1_555
H11 C8 1_555 1_555
C9 H12 1_555 1_555
C10 C9 1_555 1_555
C11 N3 1_555 1_555
C12 C11 1_555 1_555
H13 C12 1_555 1_555
H14 C12 1_555 1_555
H15 C12 1_555 1_555
C13 C10 1_555 1_555
C14 O4 1_555 1_555
H16 C14 1_555 1_555
H17 C14 1_555 1_555
C15 C14 1_555 1_555
H18 C15 1_555 1_555
H19 C15 1_555 1_555
H20 C15 1_555 1_555
N3 C8 1_555 1_555
C10 C11 1_555 1_555

#END
