
#######################################################################
#
#                 Cambridge Crystallographic Data Centre
#                                CCDC 
#
#######################################################################
#
# If this CIF has been generated from an entry in the Cambridge 
# Structural Database, then it will include bibliographic, chemical, 
# crystal, experimental, refinement or atomic coordinate data resulting 
# from the CCDC's data processing and validation procedures.
#
#######################################################################

data_RARPAC
_chemical_formula_moiety         'C21 H30 N2 O5'
_chemical_name_systematic        
"(2S,3'S,4'R)-2-(3'-t-butoxycarbonylamino-4'-methyl-2'-oxopiperidin-1'-yl)-3-phenylpropionic acid methyl ester"
_symmetry_cell_setting           orthorhombic
_symmetry_space_group_name_H-M   'P 21 21 21'
_symmetry_Int_Tables_number      19
_space_group_name_Hall           'P 2ac 2ab'
loop_
_symmetry_equiv_pos_site_id
_symmetry_equiv_pos_as_xyz
1 x,y,z
2 1/2-x,-y,1/2+z
3 1/2+x,1/2-y,-z
4 -x,1/2+y,1/2-z
_cell_length_a                   9.792(4)
_cell_length_b                   10.144(5)
_cell_length_c                   22.818(14)
_cell_angle_alpha                90
_cell_angle_beta                 90
_cell_angle_gamma                90
_cell_volume                     2266.51
_exptl_crystal_colour            colorless
_exptl_crystal_description       prism
_chemical_melting_point          112-113deg.C
_cell_formula_units_Z            4
_exptl_crystal_recrystallization_method dichloromethane/heptane
loop_
_atom_site_label
_atom_site_type_symbol
_atom_site_fract_x
_atom_site_fract_y
_atom_site_fract_z
N1 N 0.5210(2) 0.2348(2) 0.18330(8)
C1 C 0.4653(3) 0.3500(2) 0.16819(10)
C2 C 0.4164(3) 0.3638(2) 0.10552(10)
H1 H 0.3264(3) 0.3217(2) 0.10353(10)
C3 C 0.5066(4) 0.2933(3) 0.06178(12)
H2 H 0.6012 0.3245 0.0636
C4 C 0.4970(6) 0.1470(3) 0.0802(2)
H4 H 0.4022(6) 0.1198(3) 0.0821(2)
H5 H 0.5437(6) 0.0919(3) 0.0519(2)
C5 C 0.5644(7) 0.1323(4) 0.1411(2)
H6 H 0.5418(7) 0.0463(4) 0.1569(2)
H7 H 0.6628(7) 0.1365(4) 0.1366(2)
O1 O 0.4523(3) 0.4392(2) 0.20362(8)
C8 C 0.5604(3) 0.2130(3) 0.24417(11)
H12 H 0.5814(3) 0.1188(3) 0.24751(11)
C9 C 0.6907(3) 0.2863(3) 0.26253(12)
H13 H 0.6764(3) 0.3803(3) 0.25773(12)
H14 H 0.7081(3) 0.2697(3) 0.30372(12)
C10 C 0.8136(3) 0.2457(3) 0.22760(12)
C11 C 0.8761(4) 0.3321(3) 0.18905(15)
H15 H 0.8422(4) 0.4173(3) 0.18520(15)
C12 C 0.9882(5) 0.2942(4) 0.1562(2)
H16 H 1.0295(5) 0.3539(4) 0.1308(2)
C13 C 1.0369(5) 0.1720(5) 0.1609(2)
H17 H 1.1117(5) 0.1468(5) 0.1384(2)
C14 C 0.9786(4) 0.0833(4) 0.1983(2)
H18 H 1.0133(4) -0.0018(4) 0.2012(2)
C15 C 0.8676(3) 0.1206(3) 0.2319(2)
H19 H 0.8288(3) 0.0604(3) 0.2577(2)
C16 C 0.4464(3) 0.2393(3) 0.28694(12)
O2 O 0.4643(3) 0.2737(3) 0.33621(9)
O3 O 0.3242(2) 0.2120(2) 0.26524(9)
C17 C 0.2111(4) 0.2354(4) 0.3047(2)
H20 H 0.2199(14) 0.1795(18) 0.3384(5)
H21 H 0.1268(4) 0.2162(23) 0.2850(4)
H22 H 0.2116(15) 0.3260(7) 0.3169(8)
N2 N 0.3957(2) 0.5025(2) 0.09214(9)
H23 H 0.4517 0.5600 0.1156
C18 C 0.2760(3) 0.5463(3) 0.07013(11)
O4 O 0.1823(2) 0.4771(2) 0.05472(10)
O5 O 0.2793(2) 0.6787(2) 0.06753(9)
C19 C 0.1634(3) 0.7546(3) 0.04554(13)
C20 C 0.0419(4) 0.7346(5) 0.0852(2)
H24 H 0.0112(17) 0.6450(8) 0.0823(9)
H25 H -0.0305(10) 0.7929(19) 0.0735(7)
H26 H 0.0676(8) 0.7533(25) 0.1249(2)
C21 C 0.1355(4) 0.7208(4) -0.01738(14)
H27 H 0.0652(17) 0.7776(16) -0.0323(3)
H28 H 0.1062(22) 0.6307(8) -0.0201(2)
H29 H 0.2174(7) 0.7326(21) -0.0400(2)
C22 C 0.2168(4) 0.8940(3) 0.0511(2)
H30 H 0.1475(11) 0.9550(4) 0.0388(11)
H31 H 0.2961(17) 0.9043(8) 0.0267(9)
H32 H 0.2408(25) 0.9111(9) 0.0911(3)
C23 C 0.4500(6) 0.2975(4) -0.00026(13)
H33 H 0.4381(29) 0.3876(4) -0.0121(5)
H34 H 0.3636(15) 0.2529(25) -0.0014(3)
H35 H 0.5127(15) 0.2547(26) -0.0264(2)
H3? H 0.5843 0.3535 0.0590
C6? C 0.5796(10) 0.1694(8) 0.0865(4)
H8? H 0.6739(10) 0.1905(8) 0.0956(4)
H9? H 0.5789(10) 0.0997(8) 0.0575(4)
C7? C 0.5053(12) 0.1222(7) 0.1429(3)
H10? H 0.4097(12) 0.1041(7) 0.1352(3)
H11? H 0.5479(12) 0.0435(7) 0.1587(3)
loop_
_geom_bond_atom_site_label_1
_geom_bond_atom_site_label_2
_geom_bond_site_symmetry_1
_geom_bond_site_symmetry_2
N1 C1 1_555 1_555
C1 C2 1_555 1_555
C2 H1 1_555 1_555
C3 C2 1_555 1_555
H2 C3 1_555 1_555
C4 C3 1_555 1_555
H4 C4 1_555 1_555
H5 C4 1_555 1_555
C5 N1 1_555 1_555
H6 C5 1_555 1_555
H7 C5 1_555 1_555
O1 C1 1_555 1_555
C8 N1 1_555 1_555
H12 C8 1_555 1_555
C9 C8 1_555 1_555
H13 C9 1_555 1_555
H14 C9 1_555 1_555
C10 C9 1_555 1_555
C11 C10 1_555 1_555
H15 C11 1_555 1_555
C12 C11 1_555 1_555
H16 C12 1_555 1_555
C13 C12 1_555 1_555
H17 C13 1_555 1_555
C14 C13 1_555 1_555
H18 C14 1_555 1_555
C15 C10 1_555 1_555
H19 C15 1_555 1_555
C16 C8 1_555 1_555
O2 C16 1_555 1_555
O3 C16 1_555 1_555
C17 O3 1_555 1_555
H20 C17 1_555 1_555
H21 C17 1_555 1_555
H22 C17 1_555 1_555
N2 C2 1_555 1_555
H23 N2 1_555 1_555
C18 N2 1_555 1_555
O4 C18 1_555 1_555
O5 C18 1_555 1_555
C19 O5 1_555 1_555
C20 C19 1_555 1_555
H24 C20 1_555 1_555
H25 C20 1_555 1_555
H26 C20 1_555 1_555
C21 C19 1_555 1_555
H27 C21 1_555 1_555
H28 C21 1_555 1_555
H29 C21 1_555 1_555
C22 C19 1_555 1_555
H30 C22 1_555 1_555
H31 C22 1_555 1_555
H32 C22 1_555 1_555
C23 C3 1_555 1_555
H33 C23 1_555 1_555
H34 C23 1_555 1_555
H35 C23 1_555 1_555
C4 C5 1_555 1_555
C14 C15 1_555 1_555

#END
