
#######################################################################
#
#                 Cambridge Crystallographic Data Centre
#                                CCDC 
#
#######################################################################
#
# If this CIF has been generated from an entry in the Cambridge 
# Structural Database, then it will include bibliographic, chemical, 
# crystal, experimental, refinement or atomic coordinate data resulting 
# from the CCDC's data processing and validation procedures.
#
#######################################################################

data_RARTEJ
_chemical_formula_moiety         'C48 H64 O4 Si2'
_chemical_name_systematic        
25,26:27,28-bis(Dimethylsilyl)-p-t-butylcalix(4)arene
_symmetry_cell_setting           monoclinic
_symmetry_space_group_name_H-M   'P 21/c'
_symmetry_Int_Tables_number      14
_space_group_name_Hall           '-P 2ybc'
loop_
_symmetry_equiv_pos_site_id
_symmetry_equiv_pos_as_xyz
1 x,y,z
2 -x,1/2+y,1/2-z
3 -x,-y,-z
4 x,1/2-y,1/2+z
_cell_length_a                   11.490(2)
_cell_length_b                   15.566(2)
_cell_length_c                   12.769(2)
_cell_angle_alpha                90
_cell_angle_beta                 108.51(2)
_cell_angle_gamma                90
_cell_volume                     2165.63
_exptl_crystal_colour            colorless
_chemical_melting_point          392-394deg.C
_cell_formula_units_Z            2
loop_
_atom_site_label
_atom_site_type_symbol
_atom_site_fract_x
_atom_site_fract_y
_atom_site_fract_z
Si1 Si 0.1132(1) 0.4343(1) 0.1762(1)
C1 C -0.0354(5) 0.4172(3) 0.1978(4)
C2 C 0.2365(5) 0.3983(4) 0.3010(4)
O1 O 0.1123(3) 0.3771(2) 0.0677(3)
O2 O 0.1251(3) 0.5365(2) 0.1522(3)
C3 C 0.1504(5) 0.3849(3) -0.0242(4)
C4 C 0.0781(4) 0.3435(3) -0.1200(4)
C5 C 0.1149(4) 0.3499(3) -0.2134(4)
C6 C 0.2192(5) 0.3943(3) -0.2154(4)
C7 C 0.2891(5) 0.4320(3) -0.1168(4)
C8 C 0.2562(4) 0.4283(3) -0.0211(4)
C9 C 0.3307(4) 0.4790(3) 0.0794(4)
C10 C 0.1820(4) 0.5945(3) 0.1026(4)
C11 C 0.2838(4) 0.5710(4) 0.0724(4)
C12 C 0.3390(5) 0.6320(4) 0.0255(4)
C13 C 0.2943(5) 0.7157(4) 0.0033(4)
C14 C 0.1921(5) 0.7358(3) 0.0331(4)
C15 C 0.1358(4) 0.6780(3) 0.0845(4)
C16 C -0.0318(5) 0.2900(3) -0.1248(4)
C17 C 0.2535(5) 0.4007(3) -0.3230(4)
C18 C 0.2707(6) 0.3109(4) -0.3633(5)
C19 C 0.3705(6) 0.4522(4) -0.3079(5)
C20 C 0.1461(6) 0.4446(5) -0.4112(5)
C21 C 0.3600(5) 0.7807(4) -0.0490(4)
C22 C 0.3781(6) 0.7425(4) -0.1532(5)
C23 C 0.4851(6) 0.8016(4) 0.0349(5)
C24 C 0.2873(6) 0.8633(4) -0.0819(5)
H1 H -0.0386 0.4496 0.2607
H2 H -0.0452 0.3572 0.2104
H3 H -0.1001 0.4356 0.1335
H4 H 0.2352 0.4326 0.3631
H5 H 0.3146 0.4045 0.2894
H6 H 0.2236 0.3391 0.3153
H7 H 0.0659 0.3222 -0.2800
H8 H 0.3629 0.4619 -0.1146
H9 H 0.4153 0.4795 0.0825
H10 H 0.3235 0.4525 0.1449
H11 H 0.4112 0.6164 0.0074
H12 H 0.1582 0.7925 0.0173
H13 H -0.0001 0.2378 -0.0822
H14 H -0.0675 0.2711 -0.1994
H15 H 0.1975 0.2778 -0.3731
H16 H 0.3386 0.2835 -0.3095
H17 H 0.2872 0.3149 -0.4323
H18 H 0.3605 0.5090 -0.2828
H19 H 0.3866 0.4557 -0.3771
H20 H 0.4380 0.4243 -0.2543
H21 H 0.1342 0.5013 -0.3869
H22 H 0.0726 0.4115 -0.4224
H23 H 0.1646 0.4482 -0.4793
H24 H 0.4239 0.6900 -0.1349
H25 H 0.4220 0.7826 -0.1837
H26 H 0.2994 0.7309 -0.2065
H27 H 0.5313 0.7495 0.0560
H28 H 0.4736 0.8279 0.0989
H29 H 0.5289 0.8404 0.0023
H30 H 0.2745 0.8889 -0.0181
H31 H 0.2094 0.8507 -0.1357
H32 H 0.3320 0.9024 -0.1130
C16B C 0.0318(5) 0.7100(3) 0.1248(4)
C4B C -0.0781(4) 0.6565(3) 0.1200(4)
C3B C -0.1504(5) 0.6151(3) 0.0242(4)
O1B O -0.1123(3) 0.6229(2) -0.0677(3)
Si1B Si -0.1132(1) 0.5657(1) -0.1762(1)
C1B C 0.0354(5) 0.5828(3) -0.1978(4)
H1B H 0.0386 0.5504 -0.2607
H2B H 0.0452 0.6428 -0.2104
H3B H 0.1001 0.5644 -0.1335
C2B C -0.2365(5) 0.6017(4) -0.3010(4)
H4B H -0.2352 0.5674 -0.3631
H5B H -0.3146 0.5955 -0.2894
H6B H -0.2236 0.6609 -0.3153
O2B O -0.1251(3) 0.4635(2) -0.1522(3)
C10B C -0.1820(4) 0.4055(3) -0.1026(4)
C11B C -0.2838(4) 0.4290(4) -0.0724(4)
C9B C -0.3307(4) 0.5210(3) -0.0794(4)
C8B C -0.2562(4) 0.5717(3) 0.0211(4)
C7B C -0.2891(5) 0.5680(3) 0.1168(4)
C6B C -0.2192(5) 0.6057(3) 0.2154(4)
C5B C -0.1149(4) 0.6501(3) 0.2134(4)
H7B H -0.0659 0.6778 0.2800
C17B C -0.2535(5) 0.5993(3) 0.3230(4)
C18B C -0.2707(6) 0.6891(4) 0.3633(5)
H15B H -0.1975 0.7222 0.3731
H16B H -0.3386 0.7165 0.3095
H17B H -0.2872 0.6851 0.4323
C19B C -0.3705(6) 0.5478(4) 0.3079(5)
H18B H -0.3605 0.4910 0.2828
H19B H -0.3866 0.5443 0.3771
H20B H -0.4380 0.5757 0.2543
C20B C -0.1461(6) 0.5554(5) 0.4112(5)
H21B H -0.1342 0.4987 0.3869
H22B H -0.0726 0.5885 0.4224
H23B H -0.1646 0.5518 0.4793
H8B H -0.3629 0.5381 0.1146
H9B H -0.4153 0.5205 -0.0825
H10B H -0.3235 0.5475 -0.1449
C12B C -0.3390(5) 0.3680(4) -0.0255(4)
C13B C -0.2943(5) 0.2843(4) -0.0033(4)
C14B C -0.1921(5) 0.2642(3) -0.0331(4)
C15B C -0.1358(4) 0.3220(3) -0.0845(4)
H12B H -0.1582 0.2075 -0.0173
C21B C -0.3600(5) 0.2193(4) 0.0490(4)
C22B C -0.3781(6) 0.2575(4) 0.1532(5)
H24B H -0.4239 0.3100 0.1349
H25B H -0.4220 0.2174 0.1837
H26B H -0.2994 0.2691 0.2065
C23B C -0.4851(6) 0.1984(4) -0.0349(5)
H27B H -0.5313 0.2505 -0.0560
H28B H -0.4736 0.1721 -0.0989
H29B H -0.5289 0.1596 -0.0023
C24B C -0.2873(6) 0.1367(4) 0.0819(5)
H30B H -0.2745 0.1111 0.0181
H31B H -0.2094 0.1493 0.1357
H32B H -0.3320 0.0976 0.1130
H11B H -0.4112 0.3836 -0.0074
H13B H 0.0001 0.7622 0.0822
H14B H 0.0675 0.7289 0.1994
loop_
_geom_bond_atom_site_label_1
_geom_bond_atom_site_label_2
_geom_bond_site_symmetry_1
_geom_bond_site_symmetry_2
Si1 C1 1_555 1_555
C1 H1 1_555 1_555
C2 Si1 1_555 1_555
O1 Si1 1_555 1_555
O2 Si1 1_555 1_555
C3 O1 1_555 1_555
C4 C3 1_555 1_555
C5 C4 1_555 1_555
C6 C5 1_555 1_555
C7 C6 1_555 1_555
C8 C3 1_555 1_555
C9 C8 1_555 1_555
C10 O2 1_555 1_555
C11 C9 1_555 1_555
C12 C11 1_555 1_555
C13 C12 1_555 1_555
C14 C13 1_555 1_555
C15 C10 1_555 1_555
C16 C4 1_555 1_555
C17 C6 1_555 1_555
C18 C17 1_555 1_555
C19 C17 1_555 1_555
C20 C17 1_555 1_555
C21 C13 1_555 1_555
C22 C21 1_555 1_555
C23 C21 1_555 1_555
C24 C21 1_555 1_555
H2 C1 1_555 1_555
H3 C1 1_555 1_555
H4 C2 1_555 1_555
H5 C2 1_555 1_555
H6 C2 1_555 1_555
H7 C5 1_555 1_555
H8 C7 1_555 1_555
H9 C9 1_555 1_555
H10 C9 1_555 1_555
H11 C12 1_555 1_555
H12 C14 1_555 1_555
H13 C16 1_555 1_555
H14 C16 1_555 1_555
H15 C18 1_555 1_555
H16 C18 1_555 1_555
H17 C18 1_555 1_555
H18 C19 1_555 1_555
H19 C19 1_555 1_555
H20 C19 1_555 1_555
H21 C20 1_555 1_555
H22 C20 1_555 1_555
H23 C20 1_555 1_555
H24 C22 1_555 1_555
H25 C22 1_555 1_555
H26 C22 1_555 1_555
H27 C23 1_555 1_555
H28 C23 1_555 1_555
H29 C23 1_555 1_555
H30 C24 1_555 1_555
H31 C24 1_555 1_555
H32 C24 1_555 1_555
C16B C15 1_555 1_555
C4B C16B 1_555 1_555
C3B C4B 1_555 1_555
O1B C3B 1_555 1_555
Si1B O1B 1_555 1_555
C1B Si1B 1_555 1_555
H1B C1B 1_555 1_555
H2B C1B 1_555 1_555
H3B C1B 1_555 1_555
C2B Si1B 1_555 1_555
H4B C2B 1_555 1_555
H5B C2B 1_555 1_555
H6B C2B 1_555 1_555
O2B Si1B 1_555 1_555
C10B O2B 1_555 1_555
C11B C10B 1_555 1_555
C9B C11B 1_555 1_555
C8B C3B 1_555 1_555
C7B C8B 1_555 1_555
C6B C7B 1_555 1_555
C5B C4B 1_555 1_555
H7B C5B 1_555 1_555
C17B C6B 1_555 1_555
C18B C17B 1_555 1_555
H15B C18B 1_555 1_555
H16B C18B 1_555 1_555
H17B C18B 1_555 1_555
C19B C17B 1_555 1_555
H18B C19B 1_555 1_555
H19B C19B 1_555 1_555
H20B C19B 1_555 1_555
C20B C17B 1_555 1_555
H21B C20B 1_555 1_555
H22B C20B 1_555 1_555
H23B C20B 1_555 1_555
H8B C7B 1_555 1_555
H9B C9B 1_555 1_555
H10B C9B 1_555 1_555
C12B C11B 1_555 1_555
C13B C12B 1_555 1_555
C14B C13B 1_555 1_555
C15B C16 1_555 1_555
H12B C14B 1_555 1_555
C21B C13B 1_555 1_555
C22B C21B 1_555 1_555
H24B C22B 1_555 1_555
H25B C22B 1_555 1_555
H26B C22B 1_555 1_555
C23B C21B 1_555 1_555
H27B C23B 1_555 1_555
H28B C23B 1_555 1_555
H29B C23B 1_555 1_555
C24B C21B 1_555 1_555
H30B C24B 1_555 1_555
H31B C24B 1_555 1_555
H32B C24B 1_555 1_555
H11B C12B 1_555 1_555
H13B C16B 1_555 1_555
H14B C16B 1_555 1_555
C7 C8 1_555 1_555
C10 C11 1_555 1_555
C14 C15 1_555 1_555
C10B C15B 1_555 1_555
C9B C8B 1_555 1_555
C6B C5B 1_555 1_555
C14B C15B 1_555 1_555

#END
