
#######################################################################
#
#                 Cambridge Crystallographic Data Centre
#                                CCDC 
#
#######################################################################
#
# If this CIF has been generated from an entry in the Cambridge 
# Structural Database, then it will include bibliographic, chemical, 
# crystal, experimental, refinement or atomic coordinate data resulting 
# from the CCDC's data processing and validation procedures.
#
#######################################################################

data_RARVOY
_chemical_formula_moiety         'C3 H9 N1 O9 P3 3-,3(C4 H12 N1 1+),0.5(H2 O1)'
_chemical_name_systematic        
'tris(2-methylpropan-2-aminium) [nitrilotris(methylene)]tris[hydrogen (phosphonate)] hemihydrate'
_symmetry_cell_setting           rhombohedral
_symmetry_space_group_name_H-M   'R -3'
_symmetry_Int_Tables_number      148
_space_group_name_Hall           '-R 3'
loop_
_symmetry_equiv_pos_site_id
_symmetry_equiv_pos_as_xyz
1 x,y,z
2 -y,x-y,z
3 -x+y,-x,z
4 2/3+x,1/3+y,1/3+z
5 2/3-y,1/3+x-y,1/3+z
6 2/3-x+y,1/3-x,1/3+z
7 1/3+x,2/3+y,2/3+z
8 1/3-y,2/3+x-y,2/3+z
9 1/3-x+y,2/3-x,2/3+z
10 -x,-y,-z
11 y,-x+y,-z
12 x-y,x,-z
13 1/3-x,2/3-y,2/3-z
14 1/3+y,2/3-x+y,2/3-z
15 1/3+x-y,2/3+x,2/3-z
16 2/3-x,1/3-y,1/3-z
17 2/3+y,1/3-x+y,1/3-z
18 2/3+x-y,1/3+x,1/3-z
_cell_length_a                   14.7280(17)
_cell_length_b                   14.7280(17)
_cell_length_c                   23.716(5)
_cell_angle_alpha                90
_cell_angle_beta                 90
_cell_angle_gamma                120
_cell_volume                     4455.12
_exptl_crystal_colour            colorless
_exptl_crystal_description       Prism
_cell_formula_units_Z            6
loop_
_atom_site_label
_atom_site_type_symbol
_atom_site_fract_x
_atom_site_fract_y
_atom_site_fract_z
P1 P 0.05710(7) 0.20661(7) 0.88304(4)
O1 O 0.0284(2) 0.2850(2) 0.85431(13)
H1 H 0.0769 0.3403 0.8388
O2 O 0.0096(2) 0.18231(19) 0.94081(10)
O3 O 0.1740(2) 0.2496(2) 0.88115(12)
N1 N 0.0000 0.0000 0.85945(18)
C1 C -0.0103(3) 0.0902(3) 0.84007(14)
H2 H -0.0842 0.0688 0.8390
H3 H 0.0163 0.1077 0.8018
P1A P -0.20661(7) -0.14951(10) 0.88304(4)
O1A O -0.2850(2) -0.2566(3) 0.85431(13)
H1A H -0.3403 -0.2634 0.8388
O2A O -0.18231(19) -0.17271(28) 0.94081(10)
O3A O -0.2496(2) -0.0756(3) 0.88115(12)
C1A C -0.0902(3) -0.1005(4) 0.84007(14)
H2A H -0.0688 -0.1530 0.8390
H3A H -0.1077 -0.0914 0.8018
P1B P 0.14951(10) -0.05710(7) 0.88304(4)
O1B O 0.2566(3) -0.0284(2) 0.85431(13)
H1B H 0.2634 -0.0769 0.8388
O2B O 0.17271(28) -0.0096(2) 0.94081(10)
O3B O 0.0756(3) -0.1740(2) 0.88115(12)
C1B C 0.1005(4) 0.0103(3) 0.84007(14)
H2B H 0.1530 0.0842 0.8390
H3B H 0.0914 -0.0163 0.8018
N2 N 0.2918(2) 0.2097(3) 0.95842(14)
H4 H 0.2750 0.2159 0.9937
H5 H 0.2637 0.2360 0.9349
H6 H 0.2673 0.1424 0.9505
C2 C 0.4419(6) 0.3831(5) 0.9569(5)
H7 H 0.4226 0.3968 0.9932
H8 H 0.4087 0.4020 0.9280
H9 H 0.5166 0.4238 0.9525
C3 C 0.4068(4) 0.2678(4) 0.9520(2)
C4 C 0.4506(6) 0.2265(10) 0.9962(5)
H10 H 0.4134 0.1513 0.9951
H11 H 0.4428 0.2497 1.0328
H12 H 0.5236 0.2524 0.9888
C5 C 0.4331(5) 0.2470(7) 0.8931(3)
H13 H 0.3930 0.2605 0.8658
H14 H 0.4162 0.1752 0.8903
H15 H 0.5065 0.2923 0.8860
O4 O 0.0000 0.0000 1.0000
H16? H 0.0108 0.0567 0.9842
H17? H 0.0000 0.0000 0.9640
loop_
_geom_bond_atom_site_label_1
_geom_bond_atom_site_label_2
_geom_bond_site_symmetry_1
_geom_bond_site_symmetry_2
P1 O1 1_555 1_555
O1 H1 1_555 1_555
O2 P1 1_555 1_555
O3 P1 1_555 1_555
N1 C1 1_555 1_555
C1 P1 1_555 1_555
H2 C1 1_555 1_555
H3 C1 1_555 1_555
N2 H4 1_555 1_555
H5 N2 1_555 1_555
H6 N2 1_555 1_555
C2 H7 1_555 1_555
H8 C2 1_555 1_555
H9 C2 1_555 1_555
C3 N2 1_555 1_555
C4 C3 1_555 1_555
H10 C4 1_555 1_555
H11 C4 1_555 1_555
H12 C4 1_555 1_555
C5 C3 1_555 1_555
H13 C5 1_555 1_555
H14 C5 1_555 1_555
H15 C5 1_555 1_555
P1A O1A 1_555 1_555
O1A H1A 1_555 1_555
O2A P1A 1_555 1_555
O3A P1A 1_555 1_555
C1A N1 1_555 1_555
H2A C1A 1_555 1_555
H3A C1A 1_555 1_555
P1B O1B 1_555 1_555
O1B H1B 1_555 1_555
O2B P1B 1_555 1_555
O3B P1B 1_555 1_555
C1B N1 1_555 1_555
H2B C1B 1_555 1_555
H3B C1B 1_555 1_555
C2 C3 1_555 1_555
P1A C1A 1_555 1_555
P1B C1B 1_555 1_555

#END
