
#######################################################################
#
#                 Cambridge Crystallographic Data Centre
#                                CCDC 
#
#######################################################################
#
# If this CIF has been generated from an entry in the Cambridge 
# Structural Database, then it will include bibliographic, chemical, 
# crystal, experimental, refinement or atomic coordinate data resulting 
# from the CCDC's data processing and validation procedures.
#
#######################################################################

data_RARVEO
_chemical_formula_moiety         'C3 H10 N1 O9 P3 2-,2(C4 H12 N1 1+),3(H2 O1)'
_chemical_name_systematic        
'bis(2-methylpropan-2-aminium) (azaniumyltris(methylene))tris(hydrogen (phosphonate)) trihydrate'
_symmetry_cell_setting           triclinic
_symmetry_space_group_name_H-M   'P -1'
_symmetry_Int_Tables_number      2
_space_group_name_Hall           '-P 1'
loop_
_symmetry_equiv_pos_site_id
_symmetry_equiv_pos_as_xyz
1 x,y,z
2 -x,-y,-z
_cell_length_a                   9.528(3)
_cell_length_b                   10.348(4)
_cell_length_c                   14.003(5)
_cell_angle_alpha                98.391(4)
_cell_angle_beta                 105.168(2)
_cell_angle_gamma                115.423(2)
_cell_volume                     1149.47
_exptl_crystal_colour            colorless
_exptl_crystal_description       Prism
_cell_formula_units_Z            2
loop_
_atom_site_label
_atom_site_type_symbol
_atom_site_fract_x
_atom_site_fract_y
_atom_site_fract_z
C1 C 0.8730(3) 0.1664(2) 0.45767(17)
H1 H 0.9921 0.2075 0.4923
H2 H 0.8545 0.1696 0.3868
C2 C 0.8154(3) 0.2517(2) 0.61230(16)
H3 H 0.9112 0.2430 0.6485
H4 H 0.7165 0.1579 0.6000
C3 C 0.6669(3) 0.2584(3) 0.43637(17)
H5 H 0.6111 0.2885 0.4764
H6 H 0.5916 0.1549 0.3947
N1 N 0.8231(2) 0.27050(19) 0.50906(13)
H7 H 0.9153 0.3602 0.5212
O1 O 0.8311(2) -0.09907(18) 0.38108(13)
O2 O 0.8491(2) -0.03095(18) 0.56744(13)
H8 H 0.9545 0.0157 0.5930
O3 O 0.58871(19) -0.09267(18) 0.42361(14)
O4 O 0.9113(2) 0.55049(17) 0.68470(13)
O5 O 0.8631(2) 0.3815(2) 0.80299(13)
O6 O 0.6253(2) 0.36753(19) 0.66133(14)
H9 H 0.5484 0.2822 0.6439
O7 O 0.7709(2) 0.30188(19) 0.27387(13)
H10 H 0.8793 0.3406 0.2970
O8 O 0.5540(2) 0.3690(2) 0.29304(14)
O9 O 0.85597(19) 0.52619(17) 0.42023(13)
P1 P 0.77200(7) -0.02971(6) 0.45390(4)
P2 P 0.71430(7) 0.37628(6) 0.35129(4)
P3 P 0.81082(7) 0.40059(6) 0.69806(4)
C4 C 0.8368(3) 0.7643(3) 0.8792(2)
H11 H 0.7202 0.7108 0.8681
H12 H 0.8973 0.8307 0.9486
H13 H 0.8766 0.6943 0.8692
C5 C 0.8628(3) 0.8544(3) 0.80283(18)
C6 C 1.0450(3) 0.9343(3) 0.8132(2)
H14 H 1.0816 0.8620 0.8026
H15 H 1.1117 1.0041 0.8813
H16 H 1.0566 0.9872 0.7624
C7 C 0.7966(4) 0.9649(3) 0.8132(2)
H17 H 0.8092 1.0158 0.7613
H18 H 0.8583 1.0368 0.8807
H19 H 0.6807 0.9113 0.8040
N2 N 0.7636(2) 0.7457(2) 0.69648(15)
H20 H 0.6572 0.6941 0.6897
H21 H 0.8031 0.6829 0.6869
H22 H 0.7717 0.7954 0.6496
C8 C 0.4936(4) 0.2507(4) 1.0078(2)
H23 H 0.5627 0.3286 1.0725
H24 H 0.4419 0.1561 1.0210
H25 H 0.4090 0.2705 0.9700
C9 C 0.5995(3) 0.2460(3) 0.94488(19)
C10 C 0.5002(3) 0.1150(3) 0.8463(2)
H26 H 0.4045 0.1197 0.8067
H27 H 0.4643 0.0227 0.8638
H28 H 0.5689 0.1199 0.8061
C11 C 0.7541(3) 0.2434(3) 1.0093(2)
H29 H 0.8185 0.2400 0.9675
H30 H 0.7206 0.1564 1.0333
H31 H 0.8203 0.3320 1.0677
N3 N 0.6584(2) 0.3873(2) 0.91339(15)
H32 H 0.7152 0.4664 0.9697
H33 H 0.5708 0.3904 0.8737
H34 H 0.7241 0.3888 0.8781
O10 O 0.6434(2) 0.6249(2) 0.22030(13)
H35 H 0.6982 0.6968 0.2728
H36 H 0.6111 0.5523 0.2442
O11 O 0.8473(2) 0.6312(2) 0.09878(14)
H37 H 0.9452 0.6402 0.1343
H38 H 0.8039 0.6404 0.1439
O12 O 0.6447(5) 0.6183(4) 0.4914(2)
H39 H 0.691(3) 0.571(3) 0.471(3)
H40 H 0.552(3) 0.584(5) 0.442(2)
loop_
_geom_bond_atom_site_label_1
_geom_bond_atom_site_label_2
_geom_bond_site_symmetry_1
_geom_bond_site_symmetry_2
C1 H1 1_555 1_555
H2 C1 1_555 1_555
C2 H3 1_555 1_555
H4 C2 1_555 1_555
C3 H5 1_555 1_555
H6 C3 1_555 1_555
N1 C1 1_555 1_555
H7 N1 1_555 1_555
O1 P1 1_555 1_555
O2 H8 1_555 1_555
O3 P1 1_555 1_555
O4 P3 1_555 1_555
O5 P3 1_555 1_555
O6 H9 1_555 1_555
O7 H10 1_555 1_555
O8 P2 1_555 1_555
O9 P2 1_555 1_555
P1 C1 1_555 1_555
P2 C3 1_555 1_555
P3 C2 1_555 1_555
C4 H11 1_555 1_555
H12 C4 1_555 1_555
H13 C4 1_555 1_555
C5 C4 1_555 1_555
C6 C5 1_555 1_555
H14 C6 1_555 1_555
H15 C6 1_555 1_555
H16 C6 1_555 1_555
C7 C5 1_555 1_555
H17 C7 1_555 1_555
H18 C7 1_555 1_555
H19 C7 1_555 1_555
N2 C5 1_555 1_555
H20 N2 1_555 1_555
H21 N2 1_555 1_555
H22 N2 1_555 1_555
C8 H23 1_555 1_555
H24 C8 1_555 1_555
H25 C8 1_555 1_555
C9 C8 1_555 1_555
C10 C9 1_555 1_555
H26 C10 1_555 1_555
H27 C10 1_555 1_555
H28 C10 1_555 1_555
C11 C9 1_555 1_555
H29 C11 1_555 1_555
H30 C11 1_555 1_555
H31 C11 1_555 1_555
N3 C9 1_555 1_555
H32 N3 1_555 1_555
H33 N3 1_555 1_555
H34 N3 1_555 1_555
O10 H35 1_555 1_555
H36 O10 1_555 1_555
O11 H37 1_555 1_555
H38 O11 1_555 1_555
O12 H39 1_555 1_555
H40 O12 1_555 1_555
C2 N1 1_555 1_555
C3 N1 1_555 1_555
O2 P1 1_555 1_555
O6 P3 1_555 1_555
O7 P2 1_555 1_555

#END
