
#######################################################################
#
#                 Cambridge Crystallographic Data Centre
#                                CCDC 
#
#######################################################################
#
# If this CIF has been generated from an entry in the Cambridge 
# Structural Database, then it will include bibliographic, chemical, 
# crystal, experimental, refinement or atomic coordinate data resulting 
# from the CCDC's data processing and validation procedures.
#
#######################################################################

data_RARXUG
_chemical_compound_source        
'stems and leaves of Hypericum perforatum (St John s Wort)'
_chemical_name_common            '32-epi-Hyperforatin A'
_chemical_formula_moiety         'C35 H52 O6'
_chemical_name_systematic        
8-(3-hydroxy-4-methylpent-4-en-1-yl)-2-(2-hydroxypropan-2-yl)-8-methyl-5,7-bis(3-methylbut-2-en-1-yl)-9-(2-methylpropanoyl)-3,5,6,7,8,9-hexahydro-5,9-methanocycloocta[b]furan-4,10(2H)-dione
_chemical_properties_biological  'cytotoxic activity'
_symmetry_cell_setting           monoclinic
_symmetry_space_group_name_H-M   'P 21'
_symmetry_Int_Tables_number      4
_space_group_name_Hall           'P 2yb'
loop_
_symmetry_equiv_pos_site_id
_symmetry_equiv_pos_as_xyz
1 x,y,z
2 -x,1/2+y,-z
_cell_length_a                   9.1451(3)
_cell_length_b                   10.3954(3)
_cell_length_c                   17.2561(5)
_cell_angle_alpha                90
_cell_angle_beta                 92.8350(10)
_cell_angle_gamma                90
_cell_volume                     1638.48
_exptl_crystal_colour            colorless
_exptl_crystal_description       prism
_chemical_melting_point          '163-165 deg.C'
_cell_formula_units_Z            2
loop_
_atom_site_label
_atom_site_type_symbol
_atom_site_fract_x
_atom_site_fract_y
_atom_site_fract_z
O1 O 0.29389(19) 0.4786(2) 0.41536(10)
H1 H 0.2687 0.4463 0.4573
O2 O 0.8123(2) 1.0141(2) 0.28885(11)
O3 O 0.78535(19) 0.8039(2) 0.06807(10)
O4 O 0.82117(18) 0.58230(18) 0.29953(10)
O5 O 1.11108(18) 0.4982(2) 0.27649(10)
H2 H 1.1514 0.4880 0.3209
O6 O 0.7543(2) 0.8447(2) 0.44617(10)
C1 C 0.4774(4) 1.3458(4) 0.1380(3)
H3 H 0.5121 1.3628 0.1917
H4 H 0.3704 1.3388 0.1354
H5 H 0.5071 1.4165 0.1047
C2 C 0.5428(3) 1.2222(4) 0.1109(2)
C3 C 0.6394(3) 1.1572(3) 0.15589(17)
H6 H 0.6583 1.1882 0.2072
C4 C 0.7214(3) 1.0391(3) 0.13259(15)
H7 H 0.8276 1.0573 0.1391
H8 H 0.6988 1.0233 0.0767
C5 C 0.6894(2) 0.9157(3) 0.17716(13)
C6 C 0.7494(2) 0.9213(3) 0.26087(14)
C7 C 0.7188(2) 0.8005(3) 0.30929(12)
C8 C 0.5451(2) 0.7946(3) 0.31583(12)
C9 C 0.4956(3) 0.6874(3) 0.37080(14)
H9 H 0.5595 0.6918 0.4187
H10 H 0.3951 0.7085 0.3855
C10 C 0.4946(3) 0.5475(3) 0.34298(15)
H11 H 0.4264 0.5385 0.2970
H12 H 0.5938 0.5233 0.3276
C11 C 0.4474(3) 0.4575(3) 0.40733(14)
H13 H 0.5012 0.4822 0.4570
C12 C 0.4814(3) 0.3185(3) 0.38957(17)
C13 C 0.6018(3) 0.2642(3) 0.42121(19)
H14 H 0.6269 0.1787 0.4075
H15 H 0.6627 0.3108 0.4575
C14 C 0.3784(4) 0.2521(3) 0.3316(2)
H16 H 0.4320 0.1866 0.3037
H17 H 0.3369 0.3155 0.2947
H18 H 0.2993 0.2111 0.3589
C15 C 0.4927(4) 1.1808(6) 0.0307(2)
H19 H 0.5399 1.2344 -0.0075
H20 H 0.3862 1.1903 0.0241
H21 H 0.5193 1.0905 0.0230
C16 C 0.5231(3) 0.8876(3) 0.17806(14)
H22 H 0.4731 0.9676 0.1931
H23 H 0.4875 0.8663 0.1245
C17 C 0.4756(2) 0.7792(3) 0.23175(13)
H24 H 0.5116 0.6962 0.2105
C18 C 0.3062(3) 0.7741(3) 0.22824(14)
H25 H 0.2733 0.7168 0.2698
H26 H 0.2671 0.8613 0.2376
C19 C 0.2463(3) 0.7259(3) 0.15101(15)
H27 H 0.2573 0.6364 0.1419
C20 C 0.1796(3) 0.7930(4) 0.09346(15)
C21 C 0.1271(3) 0.7268(5) 0.01951(17)
H28 H 0.1503 0.6349 0.0231
H29 H 0.1759 0.7646 -0.0244
H30 H 0.0210 0.7379 0.0118
C22 C 0.1514(3) 0.9341(4) 0.0951(2)
H31 H 0.1771 0.9675 0.1471
H32 H 0.0476 0.9505 0.0822
H33 H 0.2111 0.9770 0.0572
C23 C 0.7641(2) 0.8011(3) 0.13731(13)
C24 C 0.8011(2) 0.6926(3) 0.18612(14)
C25 C 0.7796(2) 0.6916(3) 0.26290(14)
C26 C 0.8578(3) 0.4881(3) 0.23863(14)
H34 H 0.7735 0.4276 0.2303
C27 C 0.9917(3) 0.4109(3) 0.26607(15)
C28 C 1.0260(3) 0.3148(3) 0.20208(17)
H35 H 1.0581 0.3615 0.1566
H36 H 0.9378 0.2649 0.1876
H37 H 1.1039 0.2564 0.2211
C29 C 0.9614(3) 0.3395(3) 0.34093(16)
H38 H 1.0495 0.2928 0.3593
H39 H 0.8809 0.2785 0.3311
H40 H 0.9343 0.4015 0.3805
C30 C 0.8724(3) 0.5676(3) 0.16450(14)
H41 H 0.9763 0.5804 0.1528
H42 H 0.8199 0.5268 0.1194
C31 C 0.8115(3) 0.8182(3) 0.38684(13)
C32 C 0.9771(3) 0.8039(3) 0.38644(13)
H43 H 1.0059 0.7823 0.3328
C33 C 1.0227(3) 0.6946(3) 0.44166(16)
H44 H 0.9976 0.7171 0.4945
H45 H 1.1286 0.6809 0.4404
H46 H 0.9712 0.6156 0.4255
C34 C 1.0522(3) 0.9295(3) 0.41313(17)
H47 H 1.0319 0.9966 0.3742
H48 H 1.1581 0.9156 0.4194
H49 H 1.0146 0.9563 0.4628
C35 C 0.4938(3) 0.9229(3) 0.35067(15)
H50 H 0.3869 0.9286 0.3448
H51 H 0.5376 0.9949 0.3234
H52 H 0.5244 0.9264 0.4059
loop_
_geom_bond_atom_site_label_1
_geom_bond_atom_site_label_2
_geom_bond_site_symmetry_1
_geom_bond_site_symmetry_2
O1 H1 1_555 1_555
O2 C6 1_555 1_555
O3 C23 1_555 1_555
O4 C25 1_555 1_555
O5 H2 1_555 1_555
O6 C31 1_555 1_555
C1 H3 1_555 1_555
H4 C1 1_555 1_555
H5 C1 1_555 1_555
C2 C1 1_555 1_555
C3 C2 1_555 1_555
H6 C3 1_555 1_555
C4 C3 1_555 1_555
H7 C4 1_555 1_555
H8 C4 1_555 1_555
C5 C4 1_555 1_555
C6 C5 1_555 1_555
C7 C6 1_555 1_555
C8 C7 1_555 1_555
C9 C8 1_555 1_555
H9 C9 1_555 1_555
H10 C9 1_555 1_555
C10 C9 1_555 1_555
H11 C10 1_555 1_555
H12 C10 1_555 1_555
C11 O1 1_555 1_555
H13 C11 1_555 1_555
C12 C11 1_555 1_555
C13 C12 1_555 1_555
H14 C13 1_555 1_555
H15 C13 1_555 1_555
C14 C12 1_555 1_555
H16 C14 1_555 1_555
H17 C14 1_555 1_555
H18 C14 1_555 1_555
C15 C2 1_555 1_555
H19 C15 1_555 1_555
H20 C15 1_555 1_555
H21 C15 1_555 1_555
C16 C5 1_555 1_555
H22 C16 1_555 1_555
H23 C16 1_555 1_555
C17 C8 1_555 1_555
H24 C17 1_555 1_555
C18 C17 1_555 1_555
H25 C18 1_555 1_555
H26 C18 1_555 1_555
C19 C18 1_555 1_555
H27 C19 1_555 1_555
C20 C19 1_555 1_555
C21 C20 1_555 1_555
H28 C21 1_555 1_555
H29 C21 1_555 1_555
H30 C21 1_555 1_555
C22 C20 1_555 1_555
H31 C22 1_555 1_555
H32 C22 1_555 1_555
H33 C22 1_555 1_555
C23 C5 1_555 1_555
C24 C23 1_555 1_555
C25 C7 1_555 1_555
C26 O4 1_555 1_555
H34 C26 1_555 1_555
C27 O5 1_555 1_555
C28 C27 1_555 1_555
H35 C28 1_555 1_555
H36 C28 1_555 1_555
H37 C28 1_555 1_555
C29 C27 1_555 1_555
H38 C29 1_555 1_555
H39 C29 1_555 1_555
H40 C29 1_555 1_555
C30 C24 1_555 1_555
H41 C30 1_555 1_555
H42 C30 1_555 1_555
C31 C7 1_555 1_555
C32 C31 1_555 1_555
H43 C32 1_555 1_555
C33 C32 1_555 1_555
H44 C33 1_555 1_555
H45 C33 1_555 1_555
H46 C33 1_555 1_555
C34 C32 1_555 1_555
H47 C34 1_555 1_555
H48 C34 1_555 1_555
H49 C34 1_555 1_555
C35 C8 1_555 1_555
H50 C35 1_555 1_555
H51 C35 1_555 1_555
H52 C35 1_555 1_555
C10 C11 1_555 1_555
C16 C17 1_555 1_555
C24 C25 1_555 1_555
C26 C27 1_555 1_555
C26 C30 1_555 1_555

#END
