
#######################################################################
#
#                 Cambridge Crystallographic Data Centre
#                                CCDC 
#
#######################################################################
#
# If this CIF has been generated from an entry in the Cambridge 
# Structural Database, then it will include bibliographic, chemical, 
# crystal, experimental, refinement or atomic coordinate data resulting 
# from the CCDC's data processing and validation procedures.
#
#######################################################################

data_RASCAS
_chemical_compound_source        'roots of Peucedanum japonicum Thunberg'
_chemical_name_common            
'(3 S,4 S)-3 -O-Isobutyroyl-4 -O-(2S-methylbutyroyl)khellactone'
_chemical_formula_moiety         'C23 H28 O7'
_chemical_name_systematic        
'9-(isobutyryloxy)-8,8-dimethyl-2-oxo-9,10-dihydro-2H,8H-pyrano[2,3-f]chromen-10-yl 2-methylbutanoate'
_symmetry_cell_setting           monoclinic
_symmetry_space_group_name_H-M   'P 21'
_symmetry_Int_Tables_number      4
_space_group_name_Hall           'P 2yb'
loop_
_symmetry_equiv_pos_site_id
_symmetry_equiv_pos_as_xyz
1 x,y,z
2 -x,1/2+y,-z
_cell_length_a                   24.3633(4)
_cell_length_b                   9.12727(13)
_cell_length_c                   31.0898(6)
_cell_angle_alpha                90
_cell_angle_beta                 109.128(2)
_cell_angle_gamma                90
_cell_volume                     6531.75
_exptl_crystal_colour            'light colorless'
_exptl_crystal_description       needle
_cell_formula_units_Z            12
loop_
_atom_site_label
_atom_site_type_symbol
_atom_site_fract_x
_atom_site_fract_y
_atom_site_fract_z
C1 C 0.66569(16) 0.3619(4) 0.55930(12)
C2 C 0.68129(15) 0.4668(5) 0.45452(10)
C3 C 0.70275(18) 0.3012(4) 0.60424(12)
H1 H 0.7256 0.3893 0.6163
C4 C 0.6605(3) 0.1809(9) 0.6160(2)
H2 H 0.6795 0.1407 0.6458
H3 H 0.6522 0.1037 0.5938
H4 H 0.6249 0.2272 0.6155
C5 C 0.73538(17) 0.3823(5) 0.45561(12)
H5 H 0.7593 0.3648 0.4873
C6 C 0.6736(2) 0.7959(5) 0.51279(13)
C7 C 0.7497(2) 0.2099(7) 0.59775(16)
H6 H 0.7725 0.2699 0.5842
H7 H 0.7323 0.1319 0.5765
C8 C 0.48986(18) 0.4318(8) 0.57665(13)
C9 C 0.77015(18) 0.4770(6) 0.43180(16)
H8 H 0.7478 0.4887 0.4002
H9 H 0.8062 0.4293 0.4344
H10 H 0.7779 0.5715 0.4461
C10 C 0.64643(17) 0.6491(4) 0.49370(11)
H11 H 0.6189 0.6650 0.4630
C11 C 0.7893(2) 0.1436(6) 0.64047(15)
H12 H 0.8183 0.0857 0.6336
H13 H 0.7673 0.0824 0.6539
H14 H 0.8079 0.2199 0.6614
C12 C 0.4530(2) 0.5318(9) 0.58908(16)
H15 H 0.4248 0.4953 0.6005
C13 C 0.7189(2) 0.2377(5) 0.43150(18)
H16 H 0.6988 0.1789 0.4472
H17 H 0.7533 0.1875 0.4311
H18 H 0.6939 0.2545 0.4008
C14 C 0.61480(15) 0.5752(4) 0.52233(10)
H19 H 0.5885 0.5006 0.5040
C15 C 0.4574(2) 0.6789(10) 0.58490(14)
H20 H 0.4318 0.7408 0.5926
C16 C 0.6981(3) 0.8713(6) 0.47936(17)
H21 H 0.7092 0.9697 0.4894
H22 H 0.6691 0.8735 0.4497
H23 H 0.7315 0.8184 0.4779
C17 C 0.5111(3) 0.8905(7) 0.56370(15)
H24 H 0.4885 0.9588 0.5725
C18 C 0.7211(2) 0.7827(5) 0.55936(14)
H25 H 0.7035 0.7665 0.5824
H26 H 0.7434 0.8714 0.5659
H27 H 0.7461 0.7018 0.5589
C19 C 0.5521(3) 0.9372(5) 0.54656(14)
H28 H 0.5571 1.0370 0.5430
C20 C 0.5876(3) 0.8345(4) 0.53388(12)
C21 C 0.58032(18) 0.6854(4) 0.53806(10)
C22 C 0.53760(18) 0.6417(5) 0.55594(11)
C23 C 0.5018(2) 0.7406(6) 0.56853(13)
O1 O 0.53146(11) 0.4931(3) 0.56044(8)
O2 O 0.48826(14) 0.2994(5) 0.57930(11)
O3 O 0.62649(19) 0.8906(3) 0.51576(10)
O4 O 0.69322(10) 0.5585(3) 0.49029(7)
O5 O 0.63458(10) 0.4605(3) 0.42521(7)
O6 O 0.65523(10) 0.5061(2) 0.56254(7)
O7 O 0.64676(13) 0.2936(3) 0.52446(9)
C25 C -0.09337(13) 0.5594(3) 0.61849(9)
C26 C 0.12482(14) 0.8738(4) 0.63819(12)
H32 H 0.1369 0.8281 0.6149
H33 H 0.1579 0.9167 0.6606
H34 H 0.0968 0.9487 0.6248
C27 C 0.12447(16) 0.8867(5) 0.73780(12)
H35 H 0.1085 0.9242 0.7600
H36 H 0.1439 0.9642 0.7276
H37 H 0.1517 0.8102 0.7512
C28 C 0.07582(14) 0.8258(4) 0.69747(11)
H38 H 0.0486 0.9038 0.6840
H39 H 0.0551 0.7512 0.7083
C29 C -0.10254(15) 0.6423(4) 0.65781(10)
H40 H -0.0680 0.6332 0.6849
C30 C -0.00489(13) 0.2488(3) 0.62122(9)
C31 C 0.11051(15) 0.6361(5) 0.50380(11)
C32 C -0.1552(2) 0.5785(5) 0.66724(15)
H41 H -0.1878 0.5779 0.6396
H42 H -0.1642 0.6372 0.6897
H43 H -0.1468 0.4801 0.6783
C33 C -0.02954(12) 0.3945(3) 0.59882(9)
H44 H -0.0654 0.3746 0.5737
C34 C 0.13746(16) 0.5393(6) 0.48047(11)
H45 H 0.1603 0.5785 0.4645
C35 C -0.1140(2) 0.8023(4) 0.64498(14)
H46 H -0.0819 0.8420 0.6373
H47 H -0.1186 0.8556 0.6702
H48 H -0.1489 0.8108 0.6193
C36 C 0.01175(12) 0.4772(3) 0.58018(8)
H49 H -0.0100 0.5505 0.5581
C37 C 0.13071(15) 0.3929(5) 0.48105(11)
H50 H 0.1477 0.3335 0.4646
C38 C -0.04929(15) 0.1665(4) 0.63612(12)
H51 H -0.0541 0.2138 0.6622
H52 H -0.0363 0.0677 0.6438
H53 H -0.0858 0.1657 0.6118
C39 C 0.09045(14) 0.1763(4) 0.51090(10)
H54 H 0.1068 0.1114 0.4955
C40 C 0.05241(13) 0.2645(3) 0.66011(9)
H55 H 0.0817 0.3006 0.6484
H56 H 0.0640 0.1707 0.6741
H57 H 0.0476 0.3320 0.6823
C41 C 0.05977(13) 0.1225(4) 0.53736(10)
H58 H 0.0556 0.0220 0.5400
C42 C 0.03465(12) 0.2203(3) 0.56049(9)
C43 C 0.04039(11) 0.3720(3) 0.55709(9)
C44 C 0.07219(12) 0.4217(4) 0.52989(9)
C45 C 0.09756(13) 0.3273(4) 0.50669(9)
C46 C 0.04671(13) 0.6920(3) 0.62391(10)
C47 C 0.09764(12) 0.7591(3) 0.66073(10)
H59 H 0.1263 0.6828 0.6744
O8 O 0.07813(9) 0.5711(3) 0.52812(7)
O9 O 0.11273(11) 0.7687(3) 0.50474(9)
O10 O 0.00459(9) 0.1589(2) 0.58570(7)
O11 O -0.04367(9) 0.4807(2) 0.63248(6)
O12 O -0.12591(9) 0.5611(3) 0.58010(7)
O13 O 0.05711(8) 0.5498(2) 0.61658(6)
O14 O 0.00287(10) 0.7570(2) 0.60374(8)
C48 C 1.02268(12) 0.5070(4) 0.80651(9)
C49 C 0.99054(11) 0.3766(3) 0.90280(9)
C50 C 0.79412(12) 0.4044(3) 0.88415(9)
C51 C 1.07812(13) 0.4243(4) 0.81106(11)
H60 H 1.1022 0.4200 0.8432
C52 C 0.99743(12) 0.8197(3) 0.86747(10)
C53 C 1.01527(12) 0.3117(3) 0.94986(9)
H61 H 1.0220 0.3907 0.9723
C54 C 0.74790(12) 0.4959(4) 0.88855(9)
H62 H 0.7153 0.4523 0.8924
C55 C 1.11049(14) 0.5083(4) 0.78425(13)
H63 H 1.0871 0.5114 0.7527
H64 H 1.1466 0.4599 0.7874
H65 H 1.1181 0.6064 0.7959
C56 C 0.97734(11) 0.6753(3) 0.84210(9)
H66 H 0.9552 0.6979 0.8103
C57 C 1.07321(12) 0.2348(3) 0.95540(9)
H67 H 1.0668 0.1571 0.9330
H68 H 1.0999 0.3046 0.9495
C58 C 0.75090(12) 0.6429(4) 0.88718(9)
H69 H 0.7203 0.6989 0.8898
C59 C 1.06403(15) 0.2688(4) 0.79251(13)
H70 H 1.0443 0.2172 0.8100
H71 H 1.0994 0.2185 0.7946
H72 H 1.0395 0.2730 0.7613
C60 C 0.93931(11) 0.5843(3) 0.86181(8)
H73 H 0.9197 0.5084 0.8399
C61 C 1.10070(15) 0.1699(4) 1.00288(11)
H74 H 1.1054 0.2455 1.0253
H75 H 1.1380 0.1293 1.0054
H76 H 1.0760 0.0942 1.0078
C62 C 0.80716(13) 0.8677(3) 0.88028(9)
H77 H 0.7781 0.9289 0.8833
C63 C 1.03148(14) 0.9102(4) 0.84416(13)
H78 H 1.0696 0.8691 0.8505
H79 H 1.0347 1.0090 0.8553
H80 H 1.0117 0.9098 0.8119
C64 C 0.96912(14) 0.2081(4) 0.95612(11)
H81 H 0.9638 0.1272 0.9355
H82 H 0.9331 0.2599 0.9500
H83 H 0.9815 0.1723 0.9868
C65 C 0.85569(12) 0.9277(3) 0.87454(9)
H84 H 0.8598 1.0289 0.8740
C66 C 1.03130(14) 0.8019(3) 0.91802(11)
H85 H 1.0070 0.7560 0.9329
H86 H 1.0433 0.8964 0.9313
H87 H 1.0649 0.7421 0.9216
C67 C 0.89929(12) 0.8356(3) 0.86947(8)
C68 C 0.89448(11) 0.6836(3) 0.87035(8)
C69 C 0.84494(11) 0.6267(3) 0.87724(8)
C70 C 0.80041(12) 0.7146(3) 0.88168(8)
O15 O 0.84228(8) 0.4766(2) 0.87927(6)
O16 O 0.79581(9) 0.2723(2) 0.88491(7)
O17 O 0.94526(9) 0.9049(2) 0.86271(7)
O18 O 1.02834(8) 0.5942(2) 0.84305(7)
O19 O 0.97911(9) 0.5009(3) 0.77406(7)
O20 O 0.97203(8) 0.5157(2) 0.90487(6)
O21 O 0.98603(10) 0.3130(2) 0.86797(6)
C71 C 0.37333(12) 0.4538(3) 0.16408(10)
C72 C 0.32518(17) 0.3496(3) 0.26005(10)
C73 C 0.3891(2) 0.1527(4) 0.30783(12)
H88 H 0.3656 0.0808 0.2868
H89 H 0.4011 0.1098 0.3380
C74 C 0.3518(2) 0.2870(4) 0.30754(11)
H90 H 0.3763 0.3623 0.3272
C75 C 0.4433(2) 0.1846(5) 0.29476(15)
H91 H 0.4320 0.2289 0.2651
H92 H 0.4635 0.0946 0.2943
H93 H 0.4684 0.2501 0.3167
C76 C 0.3027(3) 0.2515(6) 0.32494(16)
H94 H 0.2782 0.3359 0.3218
H95 H 0.3181 0.2242 0.3564
H96 H 0.2805 0.1717 0.3077
C77 C 0.42793(12) 0.3670(3) 0.16898(11)
H97 H 0.4538 0.3729 0.2006
C78 C 0.36154(13) 0.7749(3) 0.22445(10)
C79 C 0.13648(15) 0.4654(5) 0.24274(10)
C80 C 0.45805(13) 0.4352(4) 0.13786(11)
H98 H 0.4322 0.4335 0.1070
H99 H 0.4925 0.3804 0.1400
H100 H 0.4684 0.5347 0.1470
C81 C 0.33251(12) 0.6361(3) 0.19942(9)
H101 H 0.3125 0.6608 0.1674
C82 C 0.09698(16) 0.5781(6) 0.24694(11)
H102 H 0.0627 0.5505 0.2517
C83 C 0.41212(14) 0.2070(4) 0.15683(12)
H103 H 0.3912 0.1692 0.1758
H104 H 0.4470 0.1509 0.1616
H105 H 0.3882 0.2002 0.1255
C84 C 0.28891(12) 0.5695(3) 0.21889(8)
H106 H 0.2645 0.4990 0.1972
C85 C 0.10793(16) 0.7211(6) 0.24420(11)
H107 H 0.0810 0.7903 0.2465
C86 C 0.40258(15) 0.8398(4) 0.20187(12)
H108 H 0.4175 0.9314 0.2161
H109 H 0.3820 0.8557 0.1701
H110 H 0.4342 0.7733 0.2051
C87 C 0.17660(15) 0.9140(4) 0.23458(10)
H111 H 0.1515 0.9881 0.2369
C88 C 0.39190(14) 0.7553(3) 0.27562(10)
H112 H 0.4123 0.8436 0.2881
H113 H 0.4190 0.6755 0.2807
H114 H 0.3635 0.7344 0.2901
C89 C 0.22838(14) 0.9509(4) 0.22826(9)
H115 H 0.2383 1.0485 0.2263
C90 C 0.26585(13) 0.8374(3) 0.22484(9)
C91 C 0.25168(13) 0.6906(3) 0.22694(9)
C92 C 0.19907(13) 0.6594(4) 0.23379(9)
C93 C 0.16097(14) 0.7682(5) 0.23765(9)
O22 O 0.18715(10) 0.5129(3) 0.23623(7)
O23 O 0.13025(12) 0.3331(3) 0.24418(8)
O24 O 0.31513(9) 0.8827(2) 0.21739(7)
O25 O 0.37890(8) 0.5351(2) 0.20168(6)
O26 O 0.33115(8) 0.4572(2) 0.13055(7)
O27 O 0.31764(9) 0.4964(2) 0.26195(6)
O28 O 0.31176(12) 0.2803(2) 0.22546(7)
C94 C 0.38229(11) 0.6696(3) 0.98015(9)
C95 C 0.22699(12) 0.5721(3) 0.97068(9)
C96 C 0.21380(12) 0.6563(3) 1.00761(9)
H116 H 0.2476 0.6526 1.0354
C97 C 0.30888(13) 0.2496(3) 0.98473(9)
C98 C 0.43113(12) 0.5542(4) 0.85488(9)
C99 C 0.16235(14) 0.5815(4) 1.01653(10)
H117 H 0.1548 0.6287 1.0416
H118 H 0.1714 0.4802 1.0237
H119 H 0.1286 0.5887 0.9899
C100 C 0.29048(11) 0.3913(3) 0.95760(8)
H120 H 0.2555 0.3719 0.9316
C101 C 0.45188(12) 0.4412(4) 0.83180(10)
H121 H 0.4705 0.4679 0.8112
C102 C 0.20035(15) 0.8153(3) 0.99340(11)
H122 H 0.2321 0.8566 0.9855
H123 H 0.1950 0.8697 1.0182
H124 H 0.1655 0.8201 0.9675
C103 C 0.33688(10) 0.4546(3) 0.94009(8)
H125 H 0.3193 0.5274 0.9164
C104 C 0.44517(12) 0.2981(4) 0.83916(9)
H126 H 0.4594 0.2278 0.8239
C105 C 0.36211(14) 0.2653(3) 1.02710(9)
H127 H 0.3950 0.2932 1.0184
H128 H 0.3700 0.1735 1.0430
H129 H 0.3550 0.3391 1.0466
C106 C 0.43807(11) 0.7242(3) 1.01488(9)
H130 H 0.4532 0.6477 1.0378
C107 C 0.40681(11) 0.1064(3) 0.88034(9)
H131 H 0.4216 0.0313 0.8672
C108 C 0.25827(16) 0.1865(4) 0.99680(12)
H132 H 0.2247 0.1815 0.9699
H133 H 0.2500 0.2481 1.0190
H134 H 0.2680 0.0899 1.0092
C109 C 0.42698(12) 0.8626(3) 1.03863(10)
H135 H 0.4639 0.9021 1.0576
H136 H 0.4086 0.9355 1.0158
C110 C 0.37625(11) 0.0724(3) 0.90894(9)
H137 H 0.3706 -0.0249 0.9153
C111 C 0.48191(13) 0.7511(4) 0.99029(12)
H138 H 0.4666 0.8219 0.9666
H139 H 0.4893 0.6609 0.9773
H140 H 0.5175 0.7873 1.0115
C112 C 0.35345(11) 0.1859(3) 0.92861(8)
C113 C 0.38870(16) 0.8353(4) 1.06807(12)
H141 H 0.4065 0.7629 1.0907
H142 H 0.3513 0.8010 1.0493
H143 H 0.3842 0.9249 1.0827
C114 C 0.36240(11) 0.3323(3) 0.92046(8)
C115 C 0.39410(10) 0.3621(3) 0.89142(8)
C116 C 0.41616(11) 0.2531(3) 0.87056(9)
O29 O 0.40234(8) 0.5085(2) 0.88428(6)
O30 O 0.43610(9) 0.6854(3) 0.85131(8)
O31 O 0.32102(9) 0.1422(2) 0.95448(7)
O32 O 0.27610(8) 0.4936(2) 0.98751(6)
O33 O 0.19748(10) 0.5704(3) 0.93124(7)
O34 O 0.38383(7) 0.52193(19) 0.97624(6)
O35 O 0.34256(8) 0.7448(2) 0.95790(7)
C117 C 0.74840(14) 0.8139(4) 0.34706(10)
H144 H 0.7212 0.8929 0.3345
H145 H 0.7282 0.7396 0.3585
C118 C 0.58299(11) 0.5423(3) 0.27344(10)
C119 C 0.79874(16) 0.8727(5) 0.38638(11)
H146 H 0.8175 0.9503 0.3757
H147 H 0.8261 0.7954 0.3987
H148 H 0.7844 0.9096 0.4096
C120 C 0.57711(13) 0.6198(4) 0.31448(11)
H149 H 0.6150 0.6199 0.3386
C121 C 0.66778(13) 0.2281(3) 0.26851(10)
C122 C 0.76770(12) 0.7475(3) 0.30902(9)
H150 H 0.7973 0.6726 0.3220
C123 C 0.77520(13) 0.6424(4) 0.15257(10)
C124 C 0.53415(14) 0.5330(5) 0.33091(12)
H151 H 0.4985 0.5202 0.3062
H152 H 0.5265 0.5855 0.3551
H153 H 0.5504 0.4389 0.3418
C125 C 0.64191(12) 0.3760(3) 0.24869(9)
H154 H 0.6049 0.3587 0.2244
C126 C 0.79199(13) 0.8612(4) 0.28388(10)
H155 H 0.8030 0.8137 0.2604
H156 H 0.8254 0.9076 0.3050
H157 H 0.7628 0.9337 0.2705
C127 C 0.80268(15) 0.5496(5) 0.12789(10)
H158 H 0.8249 0.5927 0.1121
C128 C 0.55778(17) 0.7768(5) 0.30292(16)
H159 H 0.5870 0.8289 0.2946
H160 H 0.5522 0.8228 0.3289
H161 H 0.5219 0.7780 0.2779
C129 C 0.68125(11) 0.4639(3) 0.22931(9)
H162 H 0.6581 0.5376 0.2082
C130 C 0.79706(15) 0.4036(5) 0.12713(10)
H163 H 0.8143 0.3477 0.1100
C131 C 0.72585(13) 0.2409(3) 0.30719(10)
H164 H 0.7212 0.3030 0.3307
H165 H 0.7545 0.2822 0.2957
H166 H 0.7383 0.1454 0.3195
C132 C 0.75826(14) 0.1799(4) 0.15446(10)
H167 H 0.7740 0.1187 0.1376
C133 C 0.62432(15) 0.1392(4) 0.28300(13)
H168 H 0.6202 0.1808 0.3102
H169 H 0.6378 0.0400 0.2889
H170 H 0.5874 0.1405 0.2592
C134 C 0.72895(13) 0.1204(4) 0.18096(10)
H171 H 0.7250 0.0193 0.1822
C135 C 0.70481(12) 0.2122(3) 0.20622(9)
C136 C 0.70941(11) 0.3649(3) 0.20443(9)
C137 C 0.71602(12) 0.6771(3) 0.27448(9)
C138 C 0.74004(12) 0.4209(3) 0.17763(9)
C139 C 0.76489(13) 0.3323(4) 0.15229(9)
O36 O 0.74520(8) 0.5712(2) 0.17731(6)
O37 O 0.77602(10) 0.7751(3) 0.15408(8)
O38 O 0.67674(9) 0.1443(2) 0.23179(7)
O39 O 0.63070(8) 0.4552(2) 0.28486(6)
O40 O 0.54925(9) 0.5512(3) 0.23543(7)
O41 O 0.72701(8) 0.5372(2) 0.26548(6)
O42 O 0.67035(8) 0.7388(2) 0.25647(8)
C24? C 0.6729(5) 0.2880(15) 0.6379(3)
H29? H 0.6657 0.3840 0.6476
H30? H 0.6968 0.2337 0.6637
H31? H 0.6367 0.2378 0.6246
loop_
_geom_bond_atom_site_label_1
_geom_bond_atom_site_label_2
_geom_bond_site_symmetry_1
_geom_bond_site_symmetry_2
C1 C3 1_555 1_555
C2 C5 1_555 1_555
C3 H1 1_555 1_555
C4 C3 1_555 1_555
H2 C4 1_555 1_555
H3 C4 1_555 1_555
H4 C4 1_555 1_555
C5 H5 1_555 1_555
C6 C10 1_555 1_555
C7 C3 1_555 1_555
H6 C7 1_555 1_555
H7 C7 1_555 1_555
C8 C12 1_555 1_555
C9 C5 1_555 1_555
H8 C9 1_555 1_555
H9 C9 1_555 1_555
H10 C9 1_555 1_555
C10 H11 1_555 1_555
C11 C7 1_555 1_555
H12 C11 1_555 1_555
H13 C11 1_555 1_555
H14 C11 1_555 1_555
C12 H15 1_555 1_555
C13 C5 1_555 1_555
H16 C13 1_555 1_555
H17 C13 1_555 1_555
H18 C13 1_555 1_555
C14 C10 1_555 1_555
H19 C14 1_555 1_555
C15 C12 1_555 1_555
H20 C15 1_555 1_555
C16 C6 1_555 1_555
H21 C16 1_555 1_555
H22 C16 1_555 1_555
H23 C16 1_555 1_555
C17 H24 1_555 1_555
C18 C6 1_555 1_555
H25 C18 1_555 1_555
H26 C18 1_555 1_555
H27 C18 1_555 1_555
C19 C17 1_555 1_555
H28 C19 1_555 1_555
C20 C19 1_555 1_555
C21 C14 1_555 1_555
C22 C21 1_555 1_555
C23 C15 1_555 1_555
O1 C8 1_555 1_555
O2 C8 1_555 1_555
O3 C6 1_555 1_555
O4 C2 1_555 1_555
O5 C2 1_555 1_555
O6 C1 1_555 1_555
O7 C1 1_555 1_555
C25 C29 1_555 1_555
C26 H32 1_555 1_555
H33 C26 1_555 1_555
H34 C26 1_555 1_555
C27 H35 1_555 1_555
H36 C27 1_555 1_555
H37 C27 1_555 1_555
C28 C27 1_555 1_555
H38 C28 1_555 1_555
H39 C28 1_555 1_555
C29 H40 1_555 1_555
C30 C33 1_555 1_555
C31 C34 1_555 1_555
C32 C29 1_555 1_555
H41 C32 1_555 1_555
H42 C32 1_555 1_555
H43 C32 1_555 1_555
C33 H44 1_555 1_555
C34 H45 1_555 1_555
C35 C29 1_555 1_555
H46 C35 1_555 1_555
H47 C35 1_555 1_555
H48 C35 1_555 1_555
C36 C33 1_555 1_555
H49 C36 1_555 1_555
C37 C34 1_555 1_555
H50 C37 1_555 1_555
C38 C30 1_555 1_555
H51 C38 1_555 1_555
H52 C38 1_555 1_555
H53 C38 1_555 1_555
C39 H54 1_555 1_555
C40 C30 1_555 1_555
H55 C40 1_555 1_555
H56 C40 1_555 1_555
H57 C40 1_555 1_555
C41 C39 1_555 1_555
H58 C41 1_555 1_555
C42 C41 1_555 1_555
C43 C36 1_555 1_555
C44 C43 1_555 1_555
C45 C37 1_555 1_555
C46 C47 1_555 1_555
C47 C26 1_555 1_555
H59 C47 1_555 1_555
O8 C31 1_555 1_555
O9 C31 1_555 1_555
O10 C30 1_555 1_555
O11 C25 1_555 1_555
O12 C25 1_555 1_555
O13 C36 1_555 1_555
O14 C46 1_555 1_555
C48 C51 1_555 1_555
C49 C53 1_555 1_555
C50 C54 1_555 1_555
C51 H60 1_555 1_555
C52 C56 1_555 1_555
C53 H61 1_555 1_555
C54 H62 1_555 1_555
C55 C51 1_555 1_555
H63 C55 1_555 1_555
H64 C55 1_555 1_555
H65 C55 1_555 1_555
C56 H66 1_555 1_555
C57 C53 1_555 1_555
H67 C57 1_555 1_555
H68 C57 1_555 1_555
C58 C54 1_555 1_555
H69 C58 1_555 1_555
C59 C51 1_555 1_555
H70 C59 1_555 1_555
H71 C59 1_555 1_555
H72 C59 1_555 1_555
C60 C56 1_555 1_555
H73 C60 1_555 1_555
C61 C57 1_555 1_555
H74 C61 1_555 1_555
H75 C61 1_555 1_555
H76 C61 1_555 1_555
C62 H77 1_555 1_555
C63 C52 1_555 1_555
H78 C63 1_555 1_555
H79 C63 1_555 1_555
H80 C63 1_555 1_555
C64 C53 1_555 1_555
H81 C64 1_555 1_555
H82 C64 1_555 1_555
H83 C64 1_555 1_555
C65 C62 1_555 1_555
H84 C65 1_555 1_555
C66 C52 1_555 1_555
H85 C66 1_555 1_555
H86 C66 1_555 1_555
H87 C66 1_555 1_555
C67 C65 1_555 1_555
C68 C60 1_555 1_555
C69 C68 1_555 1_555
C70 C58 1_555 1_555
O15 C50 1_555 1_555
O16 C50 1_555 1_555
O17 C52 1_555 1_555
O18 C48 1_555 1_555
O19 C48 1_555 1_555
O20 C49 1_555 1_555
O21 C49 1_555 1_555
C71 C77 1_555 1_555
C72 C74 1_555 1_555
C73 H88 1_555 1_555
H89 C73 1_555 1_555
C74 C73 1_555 1_555
H90 C74 1_555 1_555
C75 C73 1_555 1_555
H91 C75 1_555 1_555
H92 C75 1_555 1_555
H93 C75 1_555 1_555
C76 C74 1_555 1_555
H94 C76 1_555 1_555
H95 C76 1_555 1_555
H96 C76 1_555 1_555
C77 H97 1_555 1_555
C78 C81 1_555 1_555
C79 C82 1_555 1_555
C80 C77 1_555 1_555
H98 C80 1_555 1_555
H99 C80 1_555 1_555
H100 C80 1_555 1_555
C81 H101 1_555 1_555
C82 H102 1_555 1_555
C83 C77 1_555 1_555
H103 C83 1_555 1_555
H104 C83 1_555 1_555
H105 C83 1_555 1_555
C84 C81 1_555 1_555
H106 C84 1_555 1_555
C85 C82 1_555 1_555
H107 C85 1_555 1_555
C86 C78 1_555 1_555
H108 C86 1_555 1_555
H109 C86 1_555 1_555
H110 C86 1_555 1_555
C87 H111 1_555 1_555
C88 C78 1_555 1_555
H112 C88 1_555 1_555
H113 C88 1_555 1_555
H114 C88 1_555 1_555
C89 C87 1_555 1_555
H115 C89 1_555 1_555
C90 C89 1_555 1_555
C91 C84 1_555 1_555
C92 C91 1_555 1_555
C93 C85 1_555 1_555
O22 C79 1_555 1_555
O23 C79 1_555 1_555
O24 C78 1_555 1_555
O25 C71 1_555 1_555
O26 C71 1_555 1_555
O27 C72 1_555 1_555
O28 C72 1_555 1_555
C94 C106 1_555 1_555
C95 C96 1_555 1_555
C96 H116 1_555 1_555
C97 C100 1_555 1_555
C98 C101 1_555 1_555
C99 C96 1_555 1_555
H117 C99 1_555 1_555
H118 C99 1_555 1_555
H119 C99 1_555 1_555
C100 H120 1_555 1_555
C101 H121 1_555 1_555
C102 C96 1_555 1_555
H122 C102 1_555 1_555
H123 C102 1_555 1_555
H124 C102 1_555 1_555
C103 C100 1_555 1_555
H125 C103 1_555 1_555
C104 C101 1_555 1_555
H126 C104 1_555 1_555
C105 C97 1_555 1_555
H127 C105 1_555 1_555
H128 C105 1_555 1_555
H129 C105 1_555 1_555
C106 H130 1_555 1_555
C107 H131 1_555 1_555
C108 C97 1_555 1_555
H132 C108 1_555 1_555
H133 C108 1_555 1_555
H134 C108 1_555 1_555
C109 C106 1_555 1_555
H135 C109 1_555 1_555
H136 C109 1_555 1_555
C110 C107 1_555 1_555
H137 C110 1_555 1_555
C111 C106 1_555 1_555
H138 C111 1_555 1_555
H139 C111 1_555 1_555
H140 C111 1_555 1_555
C112 C110 1_555 1_555
C113 C109 1_555 1_555
H141 C113 1_555 1_555
H142 C113 1_555 1_555
H143 C113 1_555 1_555
C114 C103 1_555 1_555
C115 C114 1_555 1_555
C116 C104 1_555 1_555
O29 C98 1_555 1_555
O30 C98 1_555 1_555
O31 C97 1_555 1_555
O32 C95 1_555 1_555
O33 C95 1_555 1_555
O34 C94 1_555 1_555
O35 C94 1_555 1_555
C117 H144 1_555 1_555
H145 C117 1_555 1_555
C118 C120 1_555 1_555
C119 C117 1_555 1_555
H146 C119 1_555 1_555
H147 C119 1_555 1_555
H148 C119 1_555 1_555
C120 H149 1_555 1_555
C121 C125 1_555 1_555
C122 C117 1_555 1_555
H150 C122 1_555 1_555
C123 C127 1_555 1_555
C124 C120 1_555 1_555
H151 C124 1_555 1_555
H152 C124 1_555 1_555
H153 C124 1_555 1_555
C125 H154 1_555 1_555
C126 C122 1_555 1_555
H155 C126 1_555 1_555
H156 C126 1_555 1_555
H157 C126 1_555 1_555
C127 H158 1_555 1_555
C128 C120 1_555 1_555
H159 C128 1_555 1_555
H160 C128 1_555 1_555
H161 C128 1_555 1_555
C129 C125 1_555 1_555
H162 C129 1_555 1_555
C130 C127 1_555 1_555
H163 C130 1_555 1_555
C131 C121 1_555 1_555
H164 C131 1_555 1_555
H165 C131 1_555 1_555
H166 C131 1_555 1_555
C132 H167 1_555 1_555
C133 C121 1_555 1_555
H168 C133 1_555 1_555
H169 C133 1_555 1_555
H170 C133 1_555 1_555
C134 C132 1_555 1_555
H171 C134 1_555 1_555
C135 C134 1_555 1_555
C136 C129 1_555 1_555
C137 C122 1_555 1_555
C138 C136 1_555 1_555
C139 C130 1_555 1_555
O36 C123 1_555 1_555
O37 C123 1_555 1_555
O38 C121 1_555 1_555
O39 C118 1_555 1_555
O40 C118 1_555 1_555
O41 C129 1_555 1_555
O42 C137 1_555 1_555
C10 O4 1_555 1_555
C14 O6 1_555 1_555
C17 C23 1_555 1_555
C20 C21 1_555 1_555
C20 O3 1_555 1_555
C22 C23 1_555 1_555
C22 O1 1_555 1_555
C28 C47 1_555 1_555
C33 O11 1_555 1_555
C39 C45 1_555 1_555
C42 C43 1_555 1_555
C42 O10 1_555 1_555
C44 C45 1_555 1_555
C44 O8 1_555 1_555
C46 O13 1_555 1_555
C56 O18 1_555 1_555
C60 O20 1_555 1_555
C62 C70 1_555 1_555
C67 C68 1_555 1_555
C67 O17 1_555 1_555
C69 C70 1_555 1_555
C69 O15 1_555 1_555
C81 O25 1_555 1_555
C84 O27 1_555 1_555
C87 C93 1_555 1_555
C90 C91 1_555 1_555
C90 O24 1_555 1_555
C92 C93 1_555 1_555
C92 O22 1_555 1_555
C100 O32 1_555 1_555
C103 O34 1_555 1_555
C107 C116 1_555 1_555
C112 C114 1_555 1_555
C112 O31 1_555 1_555
C115 C116 1_555 1_555
C115 O29 1_555 1_555
C125 O39 1_555 1_555
C132 C139 1_555 1_555
C135 C136 1_555 1_555
C135 O38 1_555 1_555
C137 O41 1_555 1_555
C138 C139 1_555 1_555
C138 O36 1_555 1_555

#END
