
#######################################################################
#
#                 Cambridge Crystallographic Data Centre
#                                CCDC 
#
#######################################################################
#
# If this CIF has been generated from an entry in the Cambridge 
# Structural Database, then it will include bibliographic, chemical, 
# crystal, experimental, refinement or atomic coordinate data resulting 
# from the CCDC's data processing and validation procedures.
#
#######################################################################

data_RASDUN
_chemical_formula_moiety         'C42 H58 O6'
_chemical_name_systematic        
"4'-hydroxy-3,6',6',9a'-tetramethyl-2-((5,5,9-trimethyl-11-oxo-10-oxatricyclo[7.2.1.0^1,6^]dodecan-12-yl)methyl)-4',5',5a',6',7',8',9',9a'-octahydrospiro[cyclohex-3-ene-1,3'-phenanthro[2,1-b]furan]-2'-yl acetate"
_symmetry_cell_setting           orthorhombic
_symmetry_space_group_name_H-M   'P 21 21 21'
_symmetry_Int_Tables_number      19
_space_group_name_Hall           'P 2ac 2ab'
loop_
_symmetry_equiv_pos_site_id
_symmetry_equiv_pos_as_xyz
1 x,y,z
2 1/2-x,-y,1/2+z
3 1/2+x,1/2-y,-z
4 -x,1/2+y,1/2-z
_cell_length_a                   14.1115(16)
_cell_length_b                   14.1355(15)
_cell_length_c                   22.675(3)
_cell_angle_alpha                90
_cell_angle_beta                 90
_cell_angle_gamma                90
_cell_volume                     4523.05
_exptl_crystal_description       block
_cell_formula_units_Z            4
loop_
_atom_site_label
_atom_site_type_symbol
_atom_site_fract_x
_atom_site_fract_y
_atom_site_fract_z
O1 O 0.6587(3) 0.4638(2) 0.31243(16)
O2 O 0.7548(2) 0.6265(2) 0.51167(16)
O3 O 0.7105(3) 0.7660(3) 0.54794(19)
O4 O 0.5841(3) 0.4856(3) 0.22453(15)
O5 O 0.3672(3) 0.6178(2) 0.41077(19)
H1 H 0.3198 0.6413 0.4257
C1 C 0.6894(4) 0.6939(3) 0.5230(2)
C2 C 0.5856(4) 0.4339(3) 0.3481(2)
C3 C 0.7094(3) 0.5480(3) 0.4774(2)
C4 C 0.5084(3) 0.4944(3) 0.3479(2)
C5 C 0.5933(3) 0.6638(3) 0.4997(2)
C6 C 0.3417(4) 0.5333(3) 0.3803(2)
H2 H 0.3270 0.5498 0.3394
C7 C 0.6258(3) 0.5983(3) 0.4477(2)
H3 H 0.5759 0.5518 0.4400
C8 C 0.4269(3) 0.4702(3) 0.3804(2)
C9 C 0.4280(4) 0.3859(3) 0.4146(2)
C10 C 0.6188(4) 0.5335(4) 0.2758(2)
H4 H 0.6658 0.5816 0.2652
C11 C 0.5695(3) 0.6666(3) 0.3450(2)
H5 H 0.5153 0.6874 0.3686
C12 C 0.5882(4) 0.3523(3) 0.3808(2)
H6 H 0.6413 0.3134 0.3806
C13 C 0.5095(4) 0.3298(4) 0.4140(2)
H7 H 0.5108 0.2752 0.4368
C14 C 0.5347(4) 0.5777(3) 0.3083(2)
C15 C 0.6521(4) 0.6465(4) 0.3894(2)
H8 H 0.6987 0.6073 0.3696
H9 H 0.6825 0.7063 0.3986
C16 C 0.6475(6) 0.4624(6) 0.1830(3)
C17 C 0.5410(4) 0.5991(3) 0.5456(2)
H10 H 0.4931 0.5643 0.5231
C18 C 0.5322(4) 0.7491(4) 0.4813(2)
H11 H 0.5719 0.7944 0.4606
H12 H 0.4837 0.7278 0.4541
O6 O 0.7252(5) 0.4910(6) 0.1826(3)
C19 C 0.4585(4) 0.6128(4) 0.2668(2)
H13 H 0.4303 0.5589 0.2470
H14 H 0.4092 0.6433 0.2897
C20 C 0.6717(4) 0.4797(4) 0.5237(3)
H15 H 0.6357 0.4306 0.5040
H16 H 0.7250 0.4496 0.5431
C21 C 0.3424(4) 0.3504(4) 0.4482(3)
C22 C 0.7879(4) 0.5078(4) 0.4414(3)
H17 H 0.8358 0.4825 0.4670
H18 H 0.8149 0.5567 0.4172
H19 H 0.7637 0.4583 0.4166
C23 C 0.5930(4) 0.7478(4) 0.3033(3)
C24 C 0.4862(4) 0.6507(5) 0.5956(3)
C25 C 0.2780(4) 0.4366(3) 0.4636(2)
H20 H 0.3192 0.4798 0.4856
C26 C 0.4931(5) 0.6802(5) 0.2216(3)
H21 H 0.4396 0.7128 0.2040
H22 H 0.5259 0.6459 0.1908
C27 C 0.6108(4) 0.5234(4) 0.5692(2)
H23 H 0.6511 0.5524 0.5988
H24 H 0.5747 0.4739 0.5885
C28 C 0.2531(4) 0.4896(4) 0.4081(3)
H25 H 0.2079 0.5391 0.4172
H26 H 0.2238 0.4466 0.3802
C29 C 0.5587(5) 0.7509(5) 0.2484(3)
H27 H 0.5773 0.8015 0.2249
C30 C 0.4857(5) 0.7977(5) 0.5325(3)
H28 H 0.4455 0.8482 0.5178
H29 H 0.5340 0.8260 0.5572
C31 C 0.1922(5) 0.4184(4) 0.5054(3)
C32 C 0.2294(6) 0.3675(5) 0.5594(3)
H30 H 0.2695 0.4104 0.5817
H31 H 0.1764 0.3501 0.5844
C33 C 0.4268(5) 0.7306(5) 0.5689(3)
H32 H 0.3775 0.7036 0.5443
H33 H 0.3963 0.7656 0.6005
C34 C 0.6531(5) 0.8259(4) 0.3245(3)
H34 H 0.7178 0.8053 0.3261
H35 H 0.6327 0.8447 0.3631
H36 H 0.6478 0.8786 0.2980
C35 C 0.3700(5) 0.3039(4) 0.5058(3)
H37 H 0.4117 0.3461 0.5274
H38 H 0.4051 0.2465 0.4974
C36 C 0.2854(6) 0.2795(5) 0.5446(3)
H39 H 0.2449 0.2348 0.5242
H40 H 0.3074 0.2500 0.5807
C37 C 0.5502(6) 0.6902(6) 0.6422(3)
H41 H 0.5999 0.7261 0.6239
H42 H 0.5773 0.6393 0.6645
H43 H 0.5144 0.7306 0.6679
C38 C 0.6064(7) 0.4020(7) 0.1362(3)
H44 H 0.5733 0.4410 0.1083
H45 H 0.5630 0.3577 0.1534
H46 H 0.6562 0.3683 0.1165
C39 C 0.1094(5) 0.3687(6) 0.4769(4)
H47 H 0.1265 0.3045 0.4682
H48 H 0.0928 0.4007 0.4410
H49 H 0.0562 0.3694 0.5033
C40 C 0.2900(6) 0.2762(5) 0.4093(3)
H50 H 0.3319 0.2243 0.4010
H51 H 0.2708 0.3052 0.3729
H52 H 0.2352 0.2533 0.4299
C41 C 0.4201(6) 0.5825(6) 0.6237(3)
H53 H 0.4556 0.5312 0.6406
H54 H 0.3771 0.5582 0.5946
H55 H 0.3849 0.6139 0.6542
C42 C 0.1565(6) 0.5154(5) 0.5275(4)
H56 H 0.1316 0.5508 0.4949
H57 H 0.2081 0.5495 0.5450
H58 H 0.1076 0.5060 0.5563
loop_
_geom_bond_atom_site_label_1
_geom_bond_atom_site_label_2
_geom_bond_site_symmetry_1
_geom_bond_site_symmetry_2
O1 C2 1_555 1_555
O2 C1 1_555 1_555
O3 C1 1_555 1_555
O4 C10 1_555 1_555
O5 H1 1_555 1_555
C1 C5 1_555 1_555
C2 C4 1_555 1_555
C3 O2 1_555 1_555
C4 C8 1_555 1_555
C5 C7 1_555 1_555
C6 O5 1_555 1_555
H2 C6 1_555 1_555
C7 C3 1_555 1_555
H3 C7 1_555 1_555
C8 C6 1_555 1_555
C9 C8 1_555 1_555
C10 O1 1_555 1_555
H4 C10 1_555 1_555
C11 H5 1_555 1_555
C12 C2 1_555 1_555
H6 C12 1_555 1_555
C13 C9 1_555 1_555
H7 C13 1_555 1_555
C14 C4 1_555 1_555
C15 C7 1_555 1_555
H8 C15 1_555 1_555
H9 C15 1_555 1_555
C16 O4 1_555 1_555
C17 C5 1_555 1_555
H10 C17 1_555 1_555
C18 C5 1_555 1_555
H11 C18 1_555 1_555
H12 C18 1_555 1_555
O6 C16 1_555 1_555
C19 C14 1_555 1_555
H13 C19 1_555 1_555
H14 C19 1_555 1_555
C20 C3 1_555 1_555
H15 C20 1_555 1_555
H16 C20 1_555 1_555
C21 C9 1_555 1_555
C22 C3 1_555 1_555
H17 C22 1_555 1_555
H18 C22 1_555 1_555
H19 C22 1_555 1_555
C23 C11 1_555 1_555
C24 C17 1_555 1_555
C25 C21 1_555 1_555
H20 C25 1_555 1_555
C26 C19 1_555 1_555
H21 C26 1_555 1_555
H22 C26 1_555 1_555
C27 C17 1_555 1_555
H23 C27 1_555 1_555
H24 C27 1_555 1_555
C28 C6 1_555 1_555
H25 C28 1_555 1_555
H26 C28 1_555 1_555
C29 C23 1_555 1_555
H27 C29 1_555 1_555
C30 C18 1_555 1_555
H28 C30 1_555 1_555
H29 C30 1_555 1_555
C31 C25 1_555 1_555
C32 C31 1_555 1_555
H30 C32 1_555 1_555
H31 C32 1_555 1_555
C33 C24 1_555 1_555
H32 C33 1_555 1_555
H33 C33 1_555 1_555
C34 C23 1_555 1_555
H34 C34 1_555 1_555
H35 C34 1_555 1_555
H36 C34 1_555 1_555
C35 C21 1_555 1_555
H37 C35 1_555 1_555
H38 C35 1_555 1_555
C36 C32 1_555 1_555
H39 C36 1_555 1_555
H40 C36 1_555 1_555
C37 C24 1_555 1_555
H41 C37 1_555 1_555
H42 C37 1_555 1_555
H43 C37 1_555 1_555
C38 C16 1_555 1_555
H44 C38 1_555 1_555
H45 C38 1_555 1_555
H46 C38 1_555 1_555
C39 C31 1_555 1_555
H47 C39 1_555 1_555
H48 C39 1_555 1_555
H49 C39 1_555 1_555
C40 C21 1_555 1_555
H50 C40 1_555 1_555
H51 C40 1_555 1_555
H52 C40 1_555 1_555
C41 C24 1_555 1_555
H53 C41 1_555 1_555
H54 C41 1_555 1_555
H55 C41 1_555 1_555
C42 C31 1_555 1_555
H56 C42 1_555 1_555
H57 C42 1_555 1_555
H58 C42 1_555 1_555
C10 C14 1_555 1_555
C11 C14 1_555 1_555
C11 C15 1_555 1_555
C12 C13 1_555 1_555
C20 C27 1_555 1_555
C25 C28 1_555 1_555
C26 C29 1_555 1_555
C30 C33 1_555 1_555
C35 C36 1_555 1_555

#END
