
#######################################################################
#
#                 Cambridge Crystallographic Data Centre
#                                CCDC 
#
#######################################################################
#
# If this CIF has been generated from an entry in the Cambridge 
# Structural Database, then it will include bibliographic, chemical, 
# crystal, experimental, refinement or atomic coordinate data resulting 
# from the CCDC's data processing and validation procedures.
#
#######################################################################

data_RASFOJ
_chemical_compound_source        'isolated from the leaves of Vitex trifolia'
_chemical_name_common            'vitepyrroloid A'
_chemical_formula_moiety         'C21 H32 N2 O1'
_chemical_name_systematic        
3-(2-(1-hydroxy-2,5,5,8a-tetramethyldecahydronaphthalen-1-yl)ethyl)-1H-pyrrole-2-carbonitrile
_chemical_properties_biological  
'Cytotoxic activity against a human nasopharyngeal carcinoma cell line (CNE1) with an IC50 value of 8.7  M.'
_symmetry_cell_setting           orthorhombic
_symmetry_space_group_name_H-M   'P 21 21 21'
_symmetry_Int_Tables_number      19
_space_group_name_Hall           'P 2ac 2ab'
loop_
_symmetry_equiv_pos_site_id
_symmetry_equiv_pos_as_xyz
1 x,y,z
2 1/2+x,1/2-y,-z
3 -x,1/2+y,1/2-z
4 1/2-x,-y,1/2+z
_cell_length_a                   7.45094(6)
_cell_length_b                   9.21543(8)
_cell_length_c                   26.7264(2)
_cell_angle_alpha                90
_cell_angle_beta                 90
_cell_angle_gamma                90
_cell_volume                     1835.13
_exptl_crystal_colour            colorless
_exptl_crystal_description       block
_cell_formula_units_Z            4
loop_
_atom_site_label
_atom_site_type_symbol
_atom_site_fract_x
_atom_site_fract_y
_atom_site_fract_z
O1 O 0.14204(11) 0.93989(8) 0.06460(3)
C1 C 0.30724(15) 0.84477(11) 0.15327(4)
N1 N -0.11330(14) 1.64152(11) 0.05169(4)
N2 N 0.33679(14) 1.59990(12) 0.01843(4)
C2 C 0.22107(15) 1.08762(12) 0.19487(4)
C3 C 0.49999(14) 0.89535(13) 0.14440(4)
C4 C 0.17567(14) 0.97745(11) 0.15342(4)
C5 C 0.38586(15) 1.09864(12) 0.08873(4)
C6 C -0.03478(16) 0.82261(13) 0.20735(4)
C7 C -0.01736(14) 0.92216(13) 0.16186(4)
C8 C -0.01713(15) 1.44543(12) 0.09367(4)
C9 C 0.19005(15) 1.05190(12) 0.10022(4)
C10 C -0.25604(16) 1.58657(14) 0.07614(5)
C11 C 0.05713(15) 1.17889(12) 0.09178(4)
C12 C 0.10187(16) 1.32878(11) 0.11415(4)
C13 C 0.28716(15) 0.73286(12) 0.19689(4)
C14 C 0.51493(15) 0.97050(13) 0.09372(4)
C15 C 0.36111(17) 0.78088(13) 0.24804(4)
C16 C 0.20167(16) 1.58205(12) 0.03846(4)
C17 C 0.08814(16) 0.69145(12) 0.20186(4)
C18 C 0.03415(15) 1.55713(12) 0.06187(4)
C19 C 0.40639(18) 1.16913(14) 0.03704(5)
C20 C 0.39058(17) 0.59412(13) 0.18244(4)
C21 C -0.20197(16) 1.46594(13) 0.10242(5)
H1 H 0.0766(17) 0.9744(4) 0.0430(3)
H2 H 0.27581(15) 0.79018(11) 0.12305(4)
H3 H -0.11433(14) 1.71707(11) 0.03280(4)
H4 H 0.2383(12) 1.03731(16) 0.22595(8)
H5 H 0.3290(7) 1.1386(7) 0.18621(17)
H6 H 0.1242(6) 1.1556(6) 0.1983(2)
H7 H 0.53533(14) 0.96205(13) 0.17069(4)
H8 H 0.58033(14) 0.81258(13) 0.14537(4)
H9 H 0.42044(15) 1.17105(12) 0.11379(4)
H10 H -0.00326(16) 0.87578(13) 0.23741(4)
H11 H -0.15815(16) 0.79033(13) 0.21056(4)
H12 H -0.09645(14) 1.00482(13) 0.16620(4)
H13 H -0.05642(14) 0.86992(13) 0.13229(4)
H14 H -0.37192(16) 1.62401(14) 0.07538(5)
H15 H 0.04266(15) 1.19114(12) 0.05596(4)
H16 H -0.05849(15) 1.14933(12) 0.10498(4)
H17 H 0.22598(16) 1.35244(11) 0.10683(4)
H18 H 0.08842(16) 1.32480(11) 0.15022(4)
H19 H 0.63694(15) 1.00475(13) 0.08918(4)
H20 H 0.48976(15) 0.90073(13) 0.06747(4)
H21 H 0.4793(6) 0.8205(10) 0.24382(7)
H22 H 0.2836(7) 0.8534(8) 0.26214(17)
H23 H 0.3665(12) 0.6987(3) 0.27008(12)
H24 H 0.07341(16) 0.62910(12) 0.23081(4)
H25 H 0.05228(16) 0.63667(12) 0.17252(4)
H26 H 0.3606(13) 1.1047(5) 0.01188(6)
H27 H 0.3405(12) 1.2586(6) 0.03622(13)
H28 H 0.5310(2) 1.1882(10) 0.03069(17)
H29 H 0.3624(10) 0.5682(6) 0.14854(12)
H30 H 0.51720(17) 0.6114(3) 0.1854(3)
H31 H 0.3565(9) 0.5164(3) 0.2044(2)
H32 H -0.27464(16) 1.40803(13) 0.12246(5)
loop_
_geom_bond_atom_site_label_1
_geom_bond_atom_site_label_2
_geom_bond_site_symmetry_1
_geom_bond_site_symmetry_2
O1 C9 1_555 1_555
C1 C3 1_555 1_555
N1 C10 1_555 1_555
N2 C16 1_555 1_555
C2 C4 1_555 1_555
C3 C14 1_555 1_555
C4 C1 1_555 1_555
C5 C9 1_555 1_555
C6 C7 1_555 1_555
C7 C4 1_555 1_555
C8 C12 1_555 1_555
C9 C4 1_555 1_555
C10 C21 1_555 1_555
C11 C9 1_555 1_555
C12 C11 1_555 1_555
C13 C1 1_555 1_555
C14 C5 1_555 1_555
C15 C13 1_555 1_555
C16 C18 1_555 1_555
C17 C6 1_555 1_555
C18 N1 1_555 1_555
C19 C5 1_555 1_555
C20 C13 1_555 1_555
C21 C8 1_555 1_555
H1 O1 1_555 1_555
H2 C1 1_555 1_555
H3 N1 1_555 1_555
H4 C2 1_555 1_555
H5 C2 1_555 1_555
H6 C2 1_555 1_555
H7 C3 1_555 1_555
H8 C3 1_555 1_555
H9 C5 1_555 1_555
H10 C6 1_555 1_555
H11 C6 1_555 1_555
H12 C7 1_555 1_555
H13 C7 1_555 1_555
H14 C10 1_555 1_555
H15 C11 1_555 1_555
H16 C11 1_555 1_555
H17 C12 1_555 1_555
H18 C12 1_555 1_555
H19 C14 1_555 1_555
H20 C14 1_555 1_555
H21 C15 1_555 1_555
H22 C15 1_555 1_555
H23 C15 1_555 1_555
H24 C17 1_555 1_555
H25 C17 1_555 1_555
H26 C19 1_555 1_555
H27 C19 1_555 1_555
H28 C19 1_555 1_555
H29 C20 1_555 1_555
H30 C20 1_555 1_555
H31 C20 1_555 1_555
H32 C21 1_555 1_555
C8 C18 1_555 1_555
C13 C17 1_555 1_555

#END
