
#######################################################################
#
#                 Cambridge Crystallographic Data Centre
#                                CCDC 
#
#######################################################################
#
# If this CIF has been generated from an entry in the Cambridge 
# Structural Database, then it will include bibliographic, chemical, 
# crystal, experimental, refinement or atomic coordinate data resulting 
# from the CCDC's data processing and validation procedures.
#
#######################################################################

data_RASJAZ
_chemical_formula_moiety         'C22 H28 F1 N1 O1'
_chemical_name_systematic        
3-(3,7-dimethyl-2,4,5,6,7,7a-hexahydro-1H-inden-4-yl)-N-(4-fluorobenzyl)-2-methylacrylamide
_chemical_properties_biological  
'moderate ability to inhibit IL-17 and TNF-alpha induced IL-8 release from primary human keratinocytes'
_symmetry_cell_setting           orthorhombic
_symmetry_space_group_name_H-M   'P 21 21 21'
_symmetry_Int_Tables_number      19
_space_group_name_Hall           'P 2ac 2ab'
loop_
_symmetry_equiv_pos_site_id
_symmetry_equiv_pos_as_xyz
1 x,y,z
2 1/2-x,-y,1/2+z
3 -x,1/2+y,1/2-z
4 1/2+x,1/2-y,-z
_cell_length_a                   9.8805(3)
_cell_length_b                   15.8603(6)
_cell_length_c                   24.9640(11)
_cell_angle_alpha                90
_cell_angle_beta                 90
_cell_angle_gamma                90
_cell_volume                     3912.05
_exptl_crystal_colour            colorless
_exptl_crystal_description       ROD
_cell_formula_units_Z            8
loop_
_atom_site_label
_atom_site_type_symbol
_atom_site_fract_x
_atom_site_fract_y
_atom_site_fract_z
C6 C 0.8970(4) 0.5551(3) 0.74622(16)
C7 C 0.8696(5) 0.6494(3) 0.73913(18)
C8 C 1.1472(7) 0.6086(9) 0.7212(4)
H6 H 1.1490 0.5876 0.6843
C9 C 1.2865(8) 0.5922(7) 0.7471(5)
H7 H 1.3566 0.5878 0.7200
H8 H 1.3102 0.6371 0.7718
C10 C 1.2685(14) 0.5093(8) 0.7764(9)
H9 H 1.3035 0.4628 0.7553
H10 H 1.3149 0.5104 0.8107
C11 C 1.1188(9) 0.5012(6) 0.7841(5)
C12 C 1.0543(13) 0.5533(8) 0.7538(5)
H11 H 0.8498 0.5323 0.7776
H12 H 0.8779 0.6750 0.7743
H13 H 0.7755 0.6550 0.7286
C13 C 0.9525(10) 0.7037(6) 0.7003(4)
H14 H 0.9192 0.7612 0.7002
H15 H 0.9466 0.6813 0.6642
C14 C 1.1000(9) 0.7007(7) 0.7206(4)
H16 H 1.1553 0.7300 0.6939
C15 C 1.0612(13) 0.4361(9) 0.8201(6)
H17 H 1.1334 0.4066 0.8377
H18 H 1.0046 0.4626 0.8464
H19 H 1.0085 0.3970 0.7995
C16 C 1.1159(13) 0.7489(7) 0.7730(5)
H20 H 1.0836 0.8055 0.7684
H21 H 1.0644 0.7215 0.8005
H22 H 1.2097 0.7501 0.7830
C17 C 0.8626(4) 0.5066(3) 0.69589(16)
H23 H 0.9284 0.5056 0.6693
C18 C 0.7477(3) 0.4649(2) 0.68548(15)
C19 C 0.7248(3) 0.4231(2) 0.63296(16)
C20 C 0.6289(4) 0.4610(3) 0.72273(16)
H24 H 0.6520 0.4877 0.7560
H25 H 0.6053 0.4032 0.7292
H26 H 0.5534 0.4897 0.7069
C21 C 0.8184(4) 0.3718(3) 0.54808(17)
H27 H 0.8887 0.3965 0.5260
H28 H 0.7318 0.3898 0.5337
C22 C 0.8275(4) 0.2762(3) 0.54407(17)
C23 C 0.7568(6) 0.2266(4) 0.5786(3)
H29 H 0.7030 0.2516 0.6048
C24 C 0.7636(8) 0.1396(4) 0.5756(3)
H30 H 0.7152 0.1062 0.5995
C25 C 0.8422(5) 0.1036(3) 0.5371(2)
C26 C 0.9118(5) 0.1502(3) 0.50073(19)
H31 H 0.9631 0.1247 0.4741
C27 C 0.9035(4) 0.2375(3) 0.50474(18)
H32 H 0.9504 0.2707 0.4803
N1 N 0.8319(3) 0.4041(2) 0.60211(14)
O1 O 0.6077(2) 0.4076(2) 0.61699(12)
F1 F 0.8521(4) 0.0178(2) 0.53479(14)
H33 H 0.916(6) 0.412(3) 0.612(2)
C32 C 0.5605(14) 0.6977(9) 0.6377(5)
H46 H 0.5592 0.6470 0.6601
C33 C 0.538(2) 0.7743(11) 0.6738(7)
H47 H 0.6199 0.8080 0.6760
H48 H 0.5133 0.7565 0.7097
C34 C 0.422(2) 0.8256(9) 0.6480(6)
H49 H 0.3553 0.8413 0.6746
H50 H 0.4570 0.8763 0.6312
C35 C 0.3617(17) 0.7666(7) 0.6066(5)
C36 C 0.4372(13) 0.6971(7) 0.6031(5)
C37 C 0.3986(6) 0.6313(3) 0.56571(17)
H51 H 0.3249 0.6499 0.5422
C38 C 0.5326(7) 0.6252(4) 0.5351(2)
H52 H 0.5369 0.6739 0.5116
H53 H 0.5262 0.5760 0.5121
C39 C 0.6710(14) 0.6198(14) 0.5641(7)
H54 H 0.6765 0.5674 0.5841
H55 H 0.7436 0.6204 0.5380
C40 C 0.6866(14) 0.6947(11) 0.6025(6)
H56 H 0.7659 0.6852 0.6252
C41 C 0.238(2) 0.7901(11) 0.5758(8)
H57 H 0.2145 0.7453 0.5516
H58 H 0.2544 0.8408 0.5558
H59 H 0.1639 0.7995 0.6002
C42 C 0.709(2) 0.7755(12) 0.5696(8)
H60 H 0.7896 0.7697 0.5484
H61 H 0.6329 0.7847 0.5465
H62 H 0.7190 0.8226 0.5935
C43 C 0.3634(4) 0.5502(2) 0.59362(15)
H63 H 0.4285 0.5281 0.6166
C44 C 0.2483(3) 0.5065(2) 0.58882(14)
C45 C 0.2234(3) 0.4294(2) 0.62140(14)
C46 C 0.1310(4) 0.5310(3) 0.5535(2)
H64 H 0.0575 0.5506 0.5754
H65 H 0.1021 0.4828 0.5332
H66 H 0.1587 0.5750 0.5295
C47 C 0.3137(4) 0.3150(2) 0.67646(15)
H67 H 0.2293 0.3210 0.6959
H68 H 0.3867 0.3151 0.7025
C48 C 0.3132(3) 0.2316(2) 0.64781(14)
C49 C 0.2057(4) 0.2087(2) 0.61511(15)
H69 H 0.1346 0.2463 0.6100
C50 C 0.2025(4) 0.1309(3) 0.59004(17)
H70 H 0.1300 0.1159 0.5683
C51 C 0.3077(5) 0.0767(2) 0.59793(18)
C52 C 0.4146(5) 0.0957(3) 0.6306(2)
H71 H 0.4843 0.0572 0.6360
C53 C 0.4162(4) 0.1741(3) 0.6554(2)
H72 H 0.4883 0.1881 0.6776
N2 N 0.3301(3) 0.38739(18) 0.64126(12)
O2 O 0.1063(2) 0.40519(17) 0.63091(11)
F2 F 0.3066(4) 0.00090(17) 0.57249(13)
H73 H 0.406(5) 0.400(2) 0.6325(15)
C1? C 1.1493(9) 0.5658(8) 0.7377(4)
H1? H 1.1535 0.5404 0.7020
C2? C 1.2736(15) 0.5368(12) 0.7701(9)
H2? H 1.3379 0.5085 0.7469
H3? H 1.3181 0.5849 0.7864
C3? C 1.2233(10) 0.4772(7) 0.8127(5)
H4? H 1.2533 0.4201 0.8055
H5? H 1.2557 0.4941 0.8478
C4? C 1.0729(11) 0.4832(7) 0.8098(4)
C5? C 1.0316(14) 0.5280(8) 0.7678(6)
H34? H 0.8309 0.5362 0.7729
H35? H 0.8638 0.6779 0.7734
H36? H 0.7869 0.6591 0.7191
C28? C 0.9956(11) 0.6782(8) 0.7071(5)
H37? H 0.9926 0.6512 0.6723
H38? H 0.9879 0.7385 0.7011
C29? C 1.1356(11) 0.6609(9) 0.7317(4)
H39? H 1.2054 0.6811 0.7069
C30? C 0.9823(14) 0.4377(6) 0.8491(5)
H40? H 1.0369 0.4102 0.8757
H41? H 0.9234 0.4776 0.8662
H42? H 0.9292 0.3965 0.8304
C31? C 1.1513(14) 0.7079(10) 0.7856(6)
H43? H 1.1419 0.7675 0.7798
H44? H 1.0827 0.6891 0.8101
H45? H 1.2390 0.6963 0.8004
C54? C 0.5037(13) 0.7120(9) 0.6458(5)
H74? H 0.5096 0.6599 0.6667
C55? C 0.4707(15) 0.7856(10) 0.6840(5)
H75? H 0.5464 0.8244 0.6860
H76? H 0.4521 0.7645 0.7197
C56? C 0.3443(18) 0.8303(8) 0.6609(5)
H77? H 0.2757 0.8379 0.6882
H78? H 0.3679 0.8850 0.6461
C57? C 0.2953(16) 0.7711(7) 0.6173(5)
C58? C 0.3807(12) 0.7067(7) 0.6095(5)
H79? H 0.3282 0.6402 0.5387
H80? H 0.5366 0.6673 0.5069
H81? H 0.5430 0.5698 0.5191
C59? C 0.6436(13) 0.6411(12) 0.5771(6)
H82? H 0.6466 0.5926 0.6007
H83? H 0.7298 0.6436 0.5586
C60? C 0.6311(16) 0.7203(10) 0.6119(5)
H84? H 0.7080 0.7198 0.6367
C61? C 0.1677(18) 0.7887(12) 0.5882(7)
H85? H 0.1749 0.8419 0.5702
H86? H 0.0939 0.7906 0.6132
H87? H 0.1516 0.7449 0.5625
C62? C 0.640(2) 0.8039(11) 0.5796(7)
H88? H 0.7224 0.8047 0.5593
H89? H 0.5640 0.8078 0.5557
H90? H 0.6387 0.8508 0.6039
loop_
_geom_bond_atom_site_label_1
_geom_bond_atom_site_label_2
_geom_bond_site_symmetry_1
_geom_bond_site_symmetry_2
C6 C7 1_555 1_555
C7 H12 1_555 1_555
C8 H6 1_555 1_555
C9 C8 1_555 1_555
H7 C9 1_555 1_555
H8 C9 1_555 1_555
C10 C9 1_555 1_555
H9 C10 1_555 1_555
H10 C10 1_555 1_555
C11 C10 1_555 1_555
C12 C6 1_555 1_555
H11 C6 1_555 1_555
H13 C7 1_555 1_555
C13 C7 1_555 1_555
H14 C13 1_555 1_555
H15 C13 1_555 1_555
C14 C8 1_555 1_555
H16 C14 1_555 1_555
C15 C11 1_555 1_555
H17 C15 1_555 1_555
H18 C15 1_555 1_555
H19 C15 1_555 1_555
C16 C14 1_555 1_555
H20 C16 1_555 1_555
H21 C16 1_555 1_555
H22 C16 1_555 1_555
C17 C6 1_555 1_555
H23 C17 1_555 1_555
C18 C17 1_555 1_555
C19 C18 1_555 1_555
C20 C18 1_555 1_555
H24 C20 1_555 1_555
H25 C20 1_555 1_555
H26 C20 1_555 1_555
C21 H27 1_555 1_555
H28 C21 1_555 1_555
C22 C21 1_555 1_555
C23 C22 1_555 1_555
H29 C23 1_555 1_555
C24 C23 1_555 1_555
H30 C24 1_555 1_555
C25 C24 1_555 1_555
C26 C25 1_555 1_555
H31 C26 1_555 1_555
C27 C22 1_555 1_555
H32 C27 1_555 1_555
N1 C19 1_555 1_555
O1 C19 1_555 1_555
F1 C25 1_555 1_555
H33 N1 1_555 1_555
C32 H46 1_555 1_555
C33 C32 1_555 1_555
H47 C33 1_555 1_555
H48 C33 1_555 1_555
C34 C33 1_555 1_555
H49 C34 1_555 1_555
H50 C34 1_555 1_555
C35 C34 1_555 1_555
C36 C32 1_555 1_555
C37 C36 1_555 1_555
H51 C37 1_555 1_555
C38 C37 1_555 1_555
H52 C38 1_555 1_555
H53 C38 1_555 1_555
C39 C38 1_555 1_555
H54 C39 1_555 1_555
H55 C39 1_555 1_555
C40 C32 1_555 1_555
H56 C40 1_555 1_555
C41 C35 1_555 1_555
H57 C41 1_555 1_555
H58 C41 1_555 1_555
H59 C41 1_555 1_555
C42 C40 1_555 1_555
H60 C42 1_555 1_555
H61 C42 1_555 1_555
H62 C42 1_555 1_555
C43 C37 1_555 1_555
H63 C43 1_555 1_555
C44 C43 1_555 1_555
C45 C44 1_555 1_555
C46 C44 1_555 1_555
H64 C46 1_555 1_555
H65 C46 1_555 1_555
H66 C46 1_555 1_555
C47 H67 1_555 1_555
H68 C47 1_555 1_555
C48 C47 1_555 1_555
C49 C48 1_555 1_555
H69 C49 1_555 1_555
C50 C49 1_555 1_555
H70 C50 1_555 1_555
C51 C50 1_555 1_555
C52 C51 1_555 1_555
H71 C52 1_555 1_555
C53 C48 1_555 1_555
H72 C53 1_555 1_555
N2 C45 1_555 1_555
O2 C45 1_555 1_555
F2 C51 1_555 1_555
H73 N2 1_555 1_555
C8 C12 1_555 1_555
C11 C12 1_555 1_555
C13 C14 1_555 1_555
C21 N1 1_555 1_555
C26 C27 1_555 1_555
C35 C36 1_555 1_555
C39 C40 1_555 1_555
C47 N2 1_555 1_555
C52 C53 1_555 1_555

#END
