
#######################################################################
#
#                 Cambridge Crystallographic Data Centre
#                                CCDC 
#
#######################################################################
#
# If this CIF has been generated from an entry in the Cambridge 
# Structural Database, then it will include bibliographic, chemical, 
# crystal, experimental, refinement or atomic coordinate data resulting 
# from the CCDC's data processing and validation procedures.
#
#######################################################################

data_RATVOY
_chemical_formula_moiety         'C27 H33 N3 O5'
_chemical_name_systematic        
3,29,35-Triaza-10,13,16,19,22-pentaoxatetracyclo[29.3.1.0^4,9^.0^23,28^]pentacosa-1(35),4,6,8,23,25,27,31,33-nonaene
_symmetry_cell_setting           orthorhombic
_symmetry_space_group_name_H-M   'P b c a'
_symmetry_Int_Tables_number      61
_space_group_name_Hall           '-P 2ac 2ab'
loop_
_symmetry_equiv_pos_site_id
_symmetry_equiv_pos_as_xyz
1 x,y,z
2 1/2-x,-y,1/2+z
3 -x,1/2+y,1/2-z
4 1/2+x,1/2-y,-z
5 -x,-y,-z
6 1/2+x,y,1/2-z
7 x,1/2-y,1/2+z
8 1/2-x,1/2+y,z
_cell_length_a                   12.447(2)
_cell_length_b                   7.8008(13)
_cell_length_c                   49.623(8)
_cell_angle_alpha                90
_cell_angle_beta                 90
_cell_angle_gamma                90
_cell_volume                     4818.22
_exptl_crystal_colour            colorless
_exptl_crystal_description       needle
_chemical_melting_point          143-144deg.C
_cell_formula_units_Z            8
_exptl_crystal_recrystallization_method chloroform/hexane
loop_
_atom_site_label
_atom_site_type_symbol
_atom_site_fract_x
_atom_site_fract_y
_atom_site_fract_z
O1 O 0.52899(13) -0.1168(2) 0.05361(3)
O2 O 0.64346(14) 0.2262(2) 0.05695(3)
O3 O 0.62617(13) 0.4386(2) 0.10401(3)
O4 O 0.71812(13) 0.5574(2) 0.15661(3)
O5 O 0.66035(13) 0.4724(2) 0.21131(3)
N1 N 0.39156(16) -0.0222(3) 0.13454(4)
N2 N 0.38184(16) -0.2105(3) 0.08757(4)
H1 H 0.4375 -0.1454 0.0914
N3 N 0.53596(16) 0.2831(3) 0.17793(4)
H2 H 0.6062 0.2698 0.1779
C1 C 0.43244(19) 0.0421(3) 0.15758(5)
C2 C 0.43228(19) -0.0491(3) 0.18147(5)
H3 H 0.4632 -0.0016 0.1973
C3 C 0.38651(19) -0.2103(3) 0.18193(5)
H4 H 0.3844 -0.2743 0.1982
C4 C 0.34360(19) -0.2779(3) 0.15843(5)
H5 H 0.3116 -0.3885 0.1583
C5 C 0.34844(18) -0.1805(3) 0.13503(5)
C6 C 0.30639(19) -0.2478(4) 0.10855(5)
H6 H 0.2952 -0.3732 0.1098
H7 H 0.2365 -0.1934 0.1044
C7 C 0.37169(19) -0.2717(3) 0.06161(5)
C8 C 0.2915(2) -0.3825(3) 0.05326(5)
H8 H 0.2377 -0.4179 0.0656
C9 C 0.2891(2) -0.4423(4) 0.02685(5)
H9 H 0.2333 -0.5175 0.0213
C10 C 0.3670(2) -0.3932(4) 0.00879(5)
H10 H 0.3647 -0.4339 -0.0092
C11 C 0.4491(2) -0.2840(3) 0.01691(5)
H11 H 0.5031 -0.2507 0.0045
C12 C 0.45213(19) -0.2241(3) 0.04295(5)
C13 C 0.61296(19) -0.0580(3) 0.03625(5)
H12 H 0.5824 0.0056 0.0208
H13 H 0.6547 -0.1565 0.0292
C14 C 0.6843(2) 0.0576(3) 0.05270(5)
H14 H 0.6966 0.0033 0.0705
H15 H 0.7548 0.0667 0.0436
C15 C 0.5508(2) 0.2363(4) 0.07370(5)
H16 H 0.5566 0.1530 0.0887
H17 H 0.4855 0.2088 0.0631
C16 C 0.5434(2) 0.4155(4) 0.08465(5)
H18 H 0.5518 0.4995 0.0699
H19 H 0.4724 0.4337 0.0931
C17 C 0.6409(2) 0.6125(3) 0.11178(5)
H20 H 0.5760 0.6550 0.1212
H21 H 0.6530 0.6845 0.0956
C18 C 0.7363(2) 0.6229(4) 0.13017(5)
H22 H 0.7964 0.5587 0.1219
H23 H 0.7586 0.7444 0.1316
C19 C 0.6625(2) 0.6752(3) 0.17364(5)
H24 H 0.5840 0.6611 0.1715
H25 H 0.6817 0.7944 0.1688
C20 C 0.6945(2) 0.6390(4) 0.20228(5)
H26 H 0.7736 0.6470 0.2039
H27 H 0.6628 0.7275 0.2142
C21 C 0.55115(19) 0.4618(3) 0.21724(5)
C22 C 0.5077(2) 0.5416(4) 0.23937(5)
H28 H 0.5521 0.6089 0.2508
C23 C 0.3994(2) 0.5244(4) 0.24511(5)
H29 H 0.3694 0.5798 0.2604
C24 C 0.3352(2) 0.4260(3) 0.22846(5)
H30 H 0.2609 0.4139 0.2324
C25 C 0.37847(19) 0.3447(3) 0.20611(5)
H31 H 0.3336 0.2767 0.1949
C26 C 0.48744(19) 0.3619(3) 0.19994(5)
C27 C 0.4751(2) 0.2225(3) 0.15508(5)
H32 H 0.5214 0.2286 0.1389
H33 H 0.4137 0.3010 0.1522
loop_
_geom_bond_atom_site_label_1
_geom_bond_atom_site_label_2
_geom_bond_site_symmetry_1
_geom_bond_site_symmetry_2
O1 C12 1_555 1_555
O2 C14 1_555 1_555
O3 C16 1_555 1_555
O4 C18 1_555 1_555
O5 C20 1_555 1_555
N1 C1 1_555 1_555
N2 H1 1_555 1_555
N3 H2 1_555 1_555
C1 C2 1_555 1_555
C2 H3 1_555 1_555
C3 C2 1_555 1_555
H4 C3 1_555 1_555
C4 C3 1_555 1_555
H5 C4 1_555 1_555
C5 N1 1_555 1_555
C6 N2 1_555 1_555
H6 C6 1_555 1_555
H7 C6 1_555 1_555
C7 N2 1_555 1_555
C8 C7 1_555 1_555
H8 C8 1_555 1_555
C9 C8 1_555 1_555
H9 C9 1_555 1_555
C10 C9 1_555 1_555
H10 C10 1_555 1_555
C11 C10 1_555 1_555
H11 C11 1_555 1_555
C12 C7 1_555 1_555
C13 O1 1_555 1_555
H12 C13 1_555 1_555
H13 C13 1_555 1_555
C14 C13 1_555 1_555
H14 C14 1_555 1_555
H15 C14 1_555 1_555
C15 O2 1_555 1_555
H16 C15 1_555 1_555
H17 C15 1_555 1_555
C16 C15 1_555 1_555
H18 C16 1_555 1_555
H19 C16 1_555 1_555
C17 O3 1_555 1_555
H20 C17 1_555 1_555
H21 C17 1_555 1_555
C18 C17 1_555 1_555
H22 C18 1_555 1_555
H23 C18 1_555 1_555
C19 O4 1_555 1_555
H24 C19 1_555 1_555
H25 C19 1_555 1_555
C20 C19 1_555 1_555
H26 C20 1_555 1_555
H27 C20 1_555 1_555
C21 O5 1_555 1_555
C22 C21 1_555 1_555
H28 C22 1_555 1_555
C23 C22 1_555 1_555
H29 C23 1_555 1_555
C24 C23 1_555 1_555
H30 C24 1_555 1_555
C25 C24 1_555 1_555
H31 C25 1_555 1_555
C26 N3 1_555 1_555
C27 N3 1_555 1_555
H32 C27 1_555 1_555
H33 C27 1_555 1_555
C1 C27 1_555 1_555
C4 C5 1_555 1_555
C5 C6 1_555 1_555
C11 C12 1_555 1_555
C21 C26 1_555 1_555
C25 C26 1_555 1_555

#END
