
#######################################################################
#
#                 Cambridge Crystallographic Data Centre
#                                CCDC 
#
#######################################################################
#
# If this CIF has been generated from an entry in the Cambridge 
# Structural Database, then it will include bibliographic, chemical, 
# crystal, experimental, refinement or atomic coordinate data resulting 
# from the CCDC's data processing and validation procedures.
#
#######################################################################

data_RATVUE
_chemical_formula_moiety         
'C60 H68 N6 O10,2(C18 H24 N1 O4 1+),2(F6 P1 1-),C1 H2 Cl2,4(C2 H6 O1)'
_chemical_name_systematic        
'[3]-bis(bis(3,5-Dimethoxybenzyl)ammonium)-(1,4-bis( 3,29,35-triaza-10,13,16,19,22-pentaoxatetracyclo[29.3.1.0^4,9^.0^23,28^]pentacosa-1(35),4,6,8,23,25,27,31,33-nonaen-33-yl)benzene)-rotaxane bis(hexafluorophosphate) dichloromethane ethanol solvate'
_symmetry_cell_setting           triclinic
_symmetry_space_group_name_H-M   'P -1'
_symmetry_Int_Tables_number      2
_space_group_name_Hall           '-P 1'
loop_
_symmetry_equiv_pos_site_id
_symmetry_equiv_pos_as_xyz
1 x,y,z
2 -x,-y,-z
_cell_length_a                   13.0403(13)
_cell_length_b                   13.7116(14)
_cell_length_c                   16.0171(16)
_cell_angle_alpha                94.527(2)
_cell_angle_beta                 96.019(2)
_cell_angle_gamma                99.526(2)
_cell_volume                     2795.28
_exptl_crystal_colour            colorless
_exptl_crystal_description       irregular
_chemical_melting_point          132-133deg.C
_cell_formula_units_Z            1
loop_
_atom_site_label
_atom_site_type_symbol
_atom_site_fract_x
_atom_site_fract_y
_atom_site_fract_z
O1 O 0.1334(2) 0.0852(2) 0.42769(17)
O2 O 0.3123(2) 0.2473(2) 0.47338(19)
O3 O 0.4131(4) 0.3770(3) 0.3586(3)
O5 O 0.5381(2) 0.3114(2) 0.23977(19)
O6 O 0.5228(2) 0.1182(2) 0.15246(18)
N1 N 0.1983(2) -0.1289(2) 0.18026(19)
N2 N 0.1436(2) -0.0817(2) 0.34328(19)
H1 H 0.2004 -0.0375 0.3609
N3 N 0.3480(2) -0.0047(2) 0.1002(2)
H2 H 0.3475 0.0524 0.1292
C1 C 0.0181(5) -0.4161(4) -0.0419(3)
H3 H 0.0309 -0.3590 -0.0718
C3 C 0.0309(5) -0.4935(4) 0.0852(3)
H5 H 0.0527 -0.4902 0.1440
C5 C 0.0484(3) -0.4081(3) 0.0442(2)
C6 C 0.0990(3) -0.3112(3) 0.0910(2)
C7 C 0.0970(3) -0.2921(3) 0.1778(2)
H7 H 0.0612 -0.3412 0.2081
C8 C 0.1469(3) -0.2020(3) 0.2195(2)
C9 C 0.1514(3) -0.1829(3) 0.3141(2)
H8 H 0.0937 -0.2288 0.3332
H9 H 0.2182 -0.1982 0.3406
C10 C 0.0448(3) -0.0557(3) 0.3429(2)
C11 C -0.0463(3) -0.1124(3) 0.3005(2)
H10 H -0.0436 -0.1736 0.2692
C12 C -0.1429(3) -0.0799(4) 0.3036(3)
H11 H -0.2048 -0.1182 0.2731
C13 C -0.1480(4) 0.0074(3) 0.3509(3)
H12 H -0.2136 0.0280 0.3544
C14 C -0.0563(3) 0.0656(3) 0.3939(3)
H13 H -0.0598 0.1259 0.4261
C15 C 0.0380(3) 0.0357(3) 0.3894(2)
C16 C 0.1348(4) 0.1672(3) 0.4907(3)
H14 H 0.0903 0.1456 0.5346
H15 H 0.1077 0.2223 0.4644
C17 C 0.2467(4) 0.2007(3) 0.5290(3)
H16 H 0.2482 0.2477 0.5795
H17 H 0.2750 0.1424 0.5478
C18 C 0.3044(5) 0.3472(4) 0.4675(4)
H18 H 0.2941 0.3774 0.5235
H19 H 0.2417 0.3505 0.4279
C19 C 0.3945(4) 0.4048(4) 0.4391(4)
H20 H 0.3857 0.4753 0.4425
H21 H 0.4571 0.4004 0.4784
C20 C 0.5076(5) 0.4390(4) 0.3381(4)
H24 H 0.5702 0.4274 0.3741
H25 H 0.5025 0.5102 0.3465
C21 C 0.5141(4) 0.4088(3) 0.2485(3)
H28 H 0.4465 0.4102 0.2145
H29 H 0.5692 0.4559 0.2273
C22 C 0.5831(4) 0.2921(3) 0.1639(3)
H30 H 0.6447 0.3441 0.1609
H31 H 0.5312 0.2934 0.1144
C23 C 0.6152(3) 0.1937(3) 0.1625(3)
H32 H 0.6570 0.1845 0.1152
H33 H 0.6591 0.1888 0.2158
C24 C 0.5359(3) 0.0224(3) 0.1284(2)
C25 C 0.6302(3) -0.0101(3) 0.1320(3)
H34 H 0.6930 0.0338 0.1543
C26 C 0.6331(3) -0.1069(4) 0.1031(3)
H35 H 0.6985 -0.1290 0.1043
C27 C 0.5427(3) -0.1714(3) 0.0726(3)
H36 H 0.5455 -0.2378 0.0523
C28 C 0.4465(3) -0.1395(3) 0.0713(3)
H37 H 0.3838 -0.1848 0.0512
C29 C 0.4414(3) -0.0431(3) 0.0988(2)
C30 C 0.2520(3) -0.0609(3) 0.0528(2)
H38 H 0.2685 -0.0880 -0.0024
H39 H 0.2021 -0.0150 0.0417
C31 C 0.1997(3) -0.1455(3) 0.0969(2)
C32 C 0.1529(3) -0.2346(3) 0.0504(2)
H40 H 0.1572 -0.2437 -0.0084
O1A O -0.1334(2) -1.0852(2) -0.42769(17)
O2A O -0.3123(2) -1.2473(2) -0.47338(19)
O3A O -0.4131(4) -1.3770(3) -0.3586(3)
O5A O -0.5381(2) -1.3114(2) -0.23977(19)
O6A O -0.5228(2) -1.1182(2) -0.15246(18)
N1A N -0.1983(2) -0.8711(2) -0.18026(19)
N2A N -0.1436(2) -0.9183(2) -0.34328(19)
H1A H -0.2004 -0.9625 -0.3609
N3A N -0.3480(2) -0.9953(2) -0.1002(2)
H2A H -0.3475 -1.0524 -0.1292
C1A C -0.0181(5) -0.5839(4) 0.0419(3)
H3A H -0.0309 -0.6410 0.0718
C3A C -0.0309(5) -0.5065(4) -0.0852(3)
H5A H -0.0527 -0.5098 -0.1440
C5A C -0.0484(3) -0.5919(3) -0.0442(2)
C6A C -0.0990(3) -0.6888(3) -0.0910(2)
C7A C -0.0970(3) -0.7079(3) -0.1778(2)
H7A H -0.0612 -0.6588 -0.2081
C8A C -0.1469(3) -0.7980(3) -0.2195(2)
C9A C -0.1514(3) -0.8171(3) -0.3141(2)
H8A H -0.0937 -0.7712 -0.3332
H9A H -0.2182 -0.8018 -0.3406
C10A C -0.0448(3) -0.9443(3) -0.3429(2)
C11A C 0.0463(3) -0.8876(3) -0.3005(2)
H10A H 0.0436 -0.8264 -0.2692
C12A C 0.1429(3) -0.9201(4) -0.3036(3)
H11A H 0.2048 -0.8818 -0.2731
C13A C 0.1480(4) -1.0074(3) -0.3509(3)
H12A H 0.2136 -1.0280 -0.3544
C14A C 0.0563(3) -1.0656(3) -0.3939(3)
H13A H 0.0598 -1.1259 -0.4261
C15A C -0.0380(3) -1.0357(3) -0.3894(2)
C16A C -0.1348(4) -1.1672(3) -0.4907(3)
H14A H -0.0903 -1.1456 -0.5346
H15A H -0.1077 -1.2223 -0.4644
C17A C -0.2467(4) -1.2007(3) -0.5290(3)
H16A H -0.2482 -1.2477 -0.5795
H17A H -0.2750 -1.1424 -0.5478
C18A C -0.3044(5) -1.3472(4) -0.4675(4)
H18A H -0.2941 -1.3774 -0.5235
H19A H -0.2417 -1.3505 -0.4279
C19A C -0.3945(4) -1.4048(4) -0.4391(4)
H20A H -0.3857 -1.4753 -0.4425
H21A H -0.4571 -1.4004 -0.4784
C20A C -0.5076(5) -1.4390(4) -0.3381(4)
H24A H -0.5702 -1.4274 -0.3741
H25A H -0.5025 -1.5102 -0.3465
C21A C -0.5141(4) -1.4088(3) -0.2485(3)
H28A H -0.4465 -1.4102 -0.2145
H29A H -0.5692 -1.4559 -0.2273
C22A C -0.5831(4) -1.2921(3) -0.1639(3)
H30A H -0.6447 -1.3441 -0.1609
H31A H -0.5312 -1.2934 -0.1144
C23A C -0.6152(3) -1.1937(3) -0.1625(3)
H32A H -0.6570 -1.1845 -0.1152
H33A H -0.6591 -1.1888 -0.2158
C24A C -0.5359(3) -1.0224(3) -0.1284(2)
C25A C -0.6302(3) -0.9899(3) -0.1320(3)
H34A H -0.6930 -1.0338 -0.1543
C26A C -0.6331(3) -0.8931(4) -0.1031(3)
H35A H -0.6985 -0.8710 -0.1043
C27A C -0.5427(3) -0.8286(3) -0.0726(3)
H36A H -0.5455 -0.7622 -0.0523
C28A C -0.4465(3) -0.8605(3) -0.0713(3)
H37A H -0.3838 -0.8152 -0.0512
C29A C -0.4414(3) -0.9569(3) -0.0988(2)
C30A C -0.2520(3) -0.9391(3) -0.0528(2)
H38A H -0.2685 -0.9120 0.0024
H39A H -0.2021 -0.9850 -0.0417
C31A C -0.1997(3) -0.8545(3) -0.0969(2)
C32A C -0.1529(3) -0.7654(3) -0.0504(2)
H40A H -0.1572 -0.7563 0.0084
O7 O -0.0289(2) 0.0813(2) 0.07061(18)
O8 O 0.2651(2) 0.2975(2) -0.0027(2)
O9 O 0.3305(3) -0.1472(3) 0.5657(2)
O10 O 0.5011(3) -0.2730(3) 0.3440(2)
N4 N 0.3193(2) 0.0597(2) 0.27899(19)
H41 H 0.2601 0.0235 0.2953
H42 H 0.3332 0.0285 0.2295
C33 C -0.0695(3) 0.0119(4) 0.1250(3)
H43 H -0.0241 -0.0380 0.1312
H44 H -0.1402 -0.0209 0.1011
H45 H -0.0722 0.0465 0.1804
C34 C 0.0738(3) 0.1279(3) 0.0933(3)
C35 C 0.1133(3) 0.1885(3) 0.0345(3)
H46 H 0.0709 0.1961 -0.0158
C36 C 0.2159(3) 0.2377(3) 0.0507(3)
C37 C 0.2063(4) 0.3126(4) -0.0800(3)
H47 H 0.1800 0.2484 -0.1129
H48 H 0.2515 0.3553 -0.1125
H49 H 0.1470 0.3446 -0.0672
C38 C 0.2764(3) 0.2264(3) 0.1247(3)
H50 H 0.3473 0.2592 0.1350
C39 C 0.2351(3) 0.1681(3) 0.1836(2)
C40 C 0.1323(3) 0.1177(3) 0.1679(2)
H51 H 0.1029 0.0772 0.2079
C41 C 0.3011(3) 0.1635(3) 0.2650(2)
H52 H 0.2664 0.1891 0.3122
H53 H 0.3696 0.2074 0.2655
C42 C 0.4102(3) 0.0646(3) 0.3461(3)
H54 H 0.4060 0.1160 0.3920
H55 H 0.4763 0.0848 0.3218
C43 C 0.4128(3) -0.0333(3) 0.3827(3)
C44 C 0.4565(3) -0.1069(3) 0.3407(3)
H56 H 0.4835 -0.0968 0.2887
C45 C 0.4591(4) -0.1959(4) 0.3775(3)
C46 C 0.5438(5) -0.2608(5) 0.2670(4)
H57 H 0.4873 -0.2600 0.2217
H58 H 0.5803 -0.3159 0.2536
H59 H 0.5933 -0.1979 0.2723
C47 C 0.4184(4) -0.2116(4) 0.4522(3)
H60 H 0.4209 -0.2724 0.4763
C48 C 0.3737(4) -0.1389(4) 0.4921(3)
C49 C 0.3197(7) -0.2420(5) 0.5982(4)
H61 H 0.2729 -0.2914 0.5578
H62 H 0.2903 -0.2379 0.6520
H63 H 0.3886 -0.2619 0.6071
C50 C 0.3720(3) -0.0483(3) 0.4575(2)
H64 H 0.3428 0.0024 0.4855
P1 P 0.82957(10) 0.55749(9) 0.30011(8)
F1 F 0.8743(3) 0.6168(3) 0.3896(2)
F2 F 0.7858(3) 0.4991(2) 0.2102(2)
F3 F 0.8668(3) 0.6535(2) 0.2555(2)
F4 F 0.7943(4) 0.4596(3) 0.3405(3)
F5 F 0.9414(3) 0.5278(3) 0.2920(2)
F6 F 0.7205(3) 0.5899(3) 0.3071(3)
O11 O 0.8591(4) 0.2979(4) 0.1882(4)
H65 H 0.8549 0.3576 0.2010
C51 C 0.9157(9) 0.2656(6) 0.2502(6)
H66 H 0.9126 0.1934 0.2367
H67 H 0.8818 0.2742 0.3022
C52 C 1.0306(8) 0.3141(6) 0.2699(5)
H68 H 1.0459 0.3677 0.2336
H69 H 1.0749 0.2643 0.2596
H70 H 1.0447 0.3416 0.3292
C53 C 0.1001(11) 0.5649(11) 0.4574(8)
H71 H 0.1172 0.5222 0.5020
H72 H 0.0321 0.5328 0.4255
Cl1 Cl 0.1944(4) 0.5703(4) 0.3902(3)
Cl2 Cl 0.0858(3) 0.6786(3) 0.5048(3)
O4? O 0.4745(14) 0.3782(12) 0.4062(10)
C2? C 0.0792(18) -0.4396(15) -0.0354(14)
H4? H 0.1335 -0.3995 -0.0587
C4? C -0.029(2) -0.4714(16) 0.0775(12)
H6? H -0.0478 -0.4520 0.1313
H22? H 0.3643 0.4449 0.3972
H23? H 0.4257 0.4526 0.4883
H26? H 0.5787 0.4754 0.3598
H27? H 0.4618 0.4897 0.3368
C54? C 0.158(5) 0.539(4) 0.439(3)
H73? H 0.2142 0.5360 0.4845
H74? H 0.1104 0.4739 0.4313
Cl3? Cl 0.213(2) 0.5551(16) 0.3487(15)
Cl4? Cl 0.0893(17) 0.6282(17) 0.4697(14)
O12? O 0.456(3) 0.438(2) 0.021(2)
H75? H 0.4454 0.4091 0.0646
C55? C 0.4298(19) 0.5315(17) 0.0308(14)
H76? H 0.4884 0.5737 0.0682
H77? H 0.4307 0.5571 -0.0253
C56? C 0.342(2) 0.551(2) 0.059(2)
H78? H 0.3601 0.5960 0.1113
H79? H 0.2997 0.4887 0.0712
H80? H 0.3026 0.5819 0.0167
O13? O 0.3379(18) 0.5864(15) 0.0168(13)
H81? H 0.3492 0.5384 -0.0148
C57? C 0.337(2) 0.558(2) 0.1070(19)
H82? H 0.3061 0.4865 0.0941
H83? H 0.4129 0.5575 0.1205
C58? C 0.3138(14) 0.5702(13) 0.1814(12)
H84? H 0.3718 0.5589 0.2215
H85? H 0.2505 0.5230 0.1875
H86? H 0.3012 0.6382 0.1927
loop_
_geom_bond_atom_site_label_1
_geom_bond_atom_site_label_2
_geom_bond_site_symmetry_1
_geom_bond_site_symmetry_2
O1 C15 1_555 1_555
O2 C17 1_555 1_555
O3 C19 1_555 1_555
O5 C21 1_555 1_555
O6 C23 1_555 1_555
N1 C8 1_555 1_555
N2 H1 1_555 1_555
N3 H2 1_555 1_555
C1 H3 1_555 1_555
C3 H5 1_555 1_555
C5 C1 1_555 1_555
C6 C5 1_555 1_555
C7 C6 1_555 1_555
H7 C7 1_555 1_555
C8 C7 1_555 1_555
C9 N2 1_555 1_555
H8 C9 1_555 1_555
H9 C9 1_555 1_555
C10 N2 1_555 1_555
C11 C10 1_555 1_555
H10 C11 1_555 1_555
C12 C11 1_555 1_555
H11 C12 1_555 1_555
C13 C12 1_555 1_555
H12 C13 1_555 1_555
C14 C13 1_555 1_555
H13 C14 1_555 1_555
C15 C10 1_555 1_555
C16 O1 1_555 1_555
H14 C16 1_555 1_555
H15 C16 1_555 1_555
C17 C16 1_555 1_555
H16 C17 1_555 1_555
H17 C17 1_555 1_555
C18 O2 1_555 1_555
H18 C18 1_555 1_555
H19 C18 1_555 1_555
C19 C18 1_555 1_555
H20 C19 1_555 1_555
H21 C19 1_555 1_555
C20 O3 1_555 1_555
H24 C20 1_555 1_555
H25 C20 1_555 1_555
C21 C20 1_555 1_555
H28 C21 1_555 1_555
H29 C21 1_555 1_555
C22 O5 1_555 1_555
H30 C22 1_555 1_555
H31 C22 1_555 1_555
C23 C22 1_555 1_555
H32 C23 1_555 1_555
H33 C23 1_555 1_555
C24 O6 1_555 1_555
C25 C24 1_555 1_555
H34 C25 1_555 1_555
C26 C25 1_555 1_555
H35 C26 1_555 1_555
C27 C26 1_555 1_555
H36 C27 1_555 1_555
C28 C27 1_555 1_555
H37 C28 1_555 1_555
C29 N3 1_555 1_555
C30 N3 1_555 1_555
H38 C30 1_555 1_555
H39 C30 1_555 1_555
C31 N1 1_555 1_555
C32 C6 1_555 1_555
H40 C32 1_555 1_555
O7 C33 1_555 1_555
O8 C36 1_555 1_555
O9 C48 1_555 1_555
O10 C45 1_555 1_555
N4 H41 1_555 1_555
H42 N4 1_555 1_555
C33 H43 1_555 1_555
H44 C33 1_555 1_555
H45 C33 1_555 1_555
C34 O7 1_555 1_555
C35 C34 1_555 1_555
H46 C35 1_555 1_555
C36 C35 1_555 1_555
C37 O8 1_555 1_555
H47 C37 1_555 1_555
H48 C37 1_555 1_555
H49 C37 1_555 1_555
C38 C36 1_555 1_555
H50 C38 1_555 1_555
C39 C38 1_555 1_555
C40 C34 1_555 1_555
H51 C40 1_555 1_555
C41 N4 1_555 1_555
H52 C41 1_555 1_555
H53 C41 1_555 1_555
C42 N4 1_555 1_555
H54 C42 1_555 1_555
H55 C42 1_555 1_555
C43 C42 1_555 1_555
C44 C43 1_555 1_555
H56 C44 1_555 1_555
C45 C44 1_555 1_555
C46 O10 1_555 1_555
H57 C46 1_555 1_555
H58 C46 1_555 1_555
H59 C46 1_555 1_555
C47 C45 1_555 1_555
H60 C47 1_555 1_555
C48 C47 1_555 1_555
C49 O9 1_555 1_555
H61 C49 1_555 1_555
H62 C49 1_555 1_555
H63 C49 1_555 1_555
C50 C43 1_555 1_555
H64 C50 1_555 1_555
P1 F1 1_555 1_555
F2 P1 1_555 1_555
F3 P1 1_555 1_555
F4 P1 1_555 1_555
F5 P1 1_555 1_555
F6 P1 1_555 1_555
O11 H65 1_555 1_555
C51 O11 1_555 1_555
H66 C51 1_555 1_555
H67 C51 1_555 1_555
C52 C51 1_555 1_555
H68 C52 1_555 1_555
H69 C52 1_555 1_555
H70 C52 1_555 1_555
C53 H71 1_555 1_555
H72 C53 1_555 1_555
Cl1 C53 1_555 1_555
Cl2 C53 1_555 1_555
O1A C15A 1_555 1_555
O2A C17A 1_555 1_555
O3A C19A 1_555 1_555
O5A C21A 1_555 1_555
O6A C23A 1_555 1_555
N1A C8A 1_555 1_555
N2A H1A 1_555 1_555
N3A H2A 1_555 1_555
C1A C3 1_555 1_555
H3A C1A 1_555 1_555
C3A C1 1_555 1_555
H5A C3A 1_555 1_555
C5A C1A 1_555 1_555
C6A C5A 1_555 1_555
C7A C6A 1_555 1_555
H7A C7A 1_555 1_555
C8A C7A 1_555 1_555
C9A N2A 1_555 1_555
H8A C9A 1_555 1_555
H9A C9A 1_555 1_555
C10A N2A 1_555 1_555
C11A C10A 1_555 1_555
H10A C11A 1_555 1_555
C12A C11A 1_555 1_555
H11A C12A 1_555 1_555
C13A C12A 1_555 1_555
H12A C13A 1_555 1_555
C14A C13A 1_555 1_555
H13A C14A 1_555 1_555
C15A C10A 1_555 1_555
C16A O1A 1_555 1_555
H14A C16A 1_555 1_555
H15A C16A 1_555 1_555
C17A C16A 1_555 1_555
H16A C17A 1_555 1_555
H17A C17A 1_555 1_555
C18A O2A 1_555 1_555
H18A C18A 1_555 1_555
H19A C18A 1_555 1_555
C19A C18A 1_555 1_555
H20A C19A 1_555 1_555
H21A C19A 1_555 1_555
C20A O3A 1_555 1_555
H24A C20A 1_555 1_555
H25A C20A 1_555 1_555
C21A C20A 1_555 1_555
H28A C21A 1_555 1_555
H29A C21A 1_555 1_555
C22A O5A 1_555 1_555
H30A C22A 1_555 1_555
H31A C22A 1_555 1_555
C23A C22A 1_555 1_555
H32A C23A 1_555 1_555
H33A C23A 1_555 1_555
C24A O6A 1_555 1_555
C25A C24A 1_555 1_555
H34A C25A 1_555 1_555
C26A C25A 1_555 1_555
H35A C26A 1_555 1_555
C27A C26A 1_555 1_555
H36A C27A 1_555 1_555
C28A C27A 1_555 1_555
H37A C28A 1_555 1_555
C29A N3A 1_555 1_555
C30A N3A 1_555 1_555
H38A C30A 1_555 1_555
H39A C30A 1_555 1_555
C31A N1A 1_555 1_555
C32A C6A 1_555 1_555
H40A C32A 1_555 1_555
C3 C5 1_555 1_555
C8 C9 1_555 1_555
C14 C15 1_555 1_555
C24 C29 1_555 1_555
C28 C29 1_555 1_555
C30 C31 1_555 1_555
C31 C32 1_555 1_555
C39 C40 1_555 1_555
C39 C41 1_555 1_555
C48 C50 1_555 1_555
C3A C5A 1_555 1_555
C8A C9A 1_555 1_555
C14A C15A 1_555 1_555
C24A C29A 1_555 1_555
C28A C29A 1_555 1_555
C30A C31A 1_555 1_555
C31A C32A 1_555 1_555

#END
