
#######################################################################
#
#                 Cambridge Crystallographic Data Centre
#                                CCDC 
#
#######################################################################
#
# If this CIF has been generated from an entry in the Cambridge 
# Structural Database, then it will include bibliographic, chemical, 
# crystal, experimental, refinement or atomic coordinate data resulting 
# from the CCDC's data processing and validation procedures.
#
#######################################################################

data_RATWAL
_chemical_formula_moiety         
'2(C27 H33 N3 O5),C26 H34 N2 O4 2+,2(F6 P1 1-),2(C1 H2 Cl2)'
_chemical_name_systematic        
'[3]-(1,4-bis(3,5-Dimethoxyphenylammonio)benzene)-bis(3,29,35-triaza-10,13,16,19,22-pentaoxatetracyclo[29.3.1.0^4,9^.0^23,28^]pentacosa-1(35),4,6,8,23,25,27,31,33-nonaene)-rotaxane bis(hexafluorophosphate) dichloromethane solvate'
_symmetry_cell_setting           triclinic
_symmetry_space_group_name_H-M   'P -1'
_symmetry_Int_Tables_number      2
_space_group_name_Hall           '-P 1'
loop_
_symmetry_equiv_pos_site_id
_symmetry_equiv_pos_as_xyz
1 x,y,z
2 -x,-y,-z
_cell_length_a                   11.856(3)
_cell_length_b                   12.214(3)
_cell_length_c                   17.628(4)
_cell_angle_alpha                93.068(4)
_cell_angle_beta                 107.538(4)
_cell_angle_gamma                117.122(3)
_cell_volume                     2110.87
_exptl_crystal_colour            colorless
_exptl_crystal_description       parallelepiped
_chemical_melting_point          160-162deg.C
_cell_formula_units_Z            1
_exptl_crystal_recrystallization_method ethanol/chloroform
loop_
_atom_site_label
_atom_site_type_symbol
_atom_site_fract_x
_atom_site_fract_y
_atom_site_fract_z
O1 O 0.5500(2) 0.3138(2) 0.44147(13)
O2 O 0.5923(2) 0.1682(2) 0.32963(14)
O3 O 0.5130(3) -0.0839(2) 0.24708(16)
O4 O 0.2172(3) -0.2208(2) 0.13730(16)
O5 O -0.0248(2) -0.2038(2) 0.12673(14)
N1 N -0.0792(3) -0.1529(3) 0.25208(17)
H1 H -0.0798 -0.2385 0.2421
N2 N 0.0346(3) 0.0799(3) 0.36058(17)
N3 N 0.3121(3) 0.3001(3) 0.40719(16)
H2 H 0.3790 0.3640 0.3880
C1 C -0.1203(4) -0.1495(3) 0.3212(2)
H3 H -0.0837 -0.1912 0.3602
H4 H -0.2209 -0.1992 0.3018
C2 C -0.0736(4) -0.0175(3) 0.3663(2)
C3 C -0.1479(4) -0.0046(4) 0.4108(2)
H5 H -0.2257 -0.0764 0.4124
C4 C -0.1064(4) 0.1138(4) 0.4522(2)
H6 H -0.1531 0.1249 0.4847
C5 C 0.0037(4) 0.2159(4) 0.4460(2)
H7 H 0.0327 0.2988 0.4729
C6 C 0.0718(3) 0.1965(3) 0.4001(2)
C7 C 0.1855(3) 0.3060(3) 0.3865(2)
H8 H 0.1550 0.3101 0.3285
H9 H 0.2051 0.3849 0.4198
C8 C 0.3980(4) 0.3374(3) 0.4908(2)
C9 C 0.3645(4) 0.3666(3) 0.5548(2)
H10 H 0.2791 0.3628 0.5438
C10 C 0.4546(4) 0.4015(3) 0.6350(2)
H11 H 0.4305 0.4212 0.6786
C11 C 0.5782(4) 0.4075(3) 0.6514(2)
H12 H 0.6402 0.4328 0.7062
C12 C 0.6131(4) 0.3767(3) 0.5883(2)
H13 H 0.6976 0.3785 0.6001
C13 C 0.5257(3) 0.3439(3) 0.5092(2)
C14 C 0.6771(3) 0.3138(3) 0.4564(2)
H14 H 0.6773 0.2459 0.4846
H15 H 0.7544 0.3956 0.4917
C15 C 0.6913(4) 0.2932(3) 0.3773(2)
H16 H 0.6800 0.3554 0.3467
H17 H 0.7839 0.3065 0.3870
C16 C 0.6239(4) 0.1391(3) 0.2615(2)
H18 H 0.7104 0.1373 0.2813
H19 H 0.6353 0.2051 0.2295
C17 C 0.5093(4) 0.0114(3) 0.2077(2)
H20 H 0.4205 0.0075 0.1968
H21 H 0.5200 -0.0006 0.1548
C18 C 0.4374(4) -0.2067(3) 0.1951(2)
H22 H 0.4797 -0.2572 0.2180
H23 H 0.4449 -0.1990 0.1410
C19 C 0.2893(4) -0.2775(4) 0.1834(2)
H24 H 0.2488 -0.3661 0.1544
H25 H 0.2800 -0.2783 0.2373
C20 C 0.0793(4) -0.3126(4) 0.0910(2)
H26 H 0.0397 -0.3682 0.1257
H27 H 0.0749 -0.3656 0.0445
C21 C -0.0008(4) -0.2477(4) 0.0598(2)
H28 H 0.0510 -0.1758 0.0381
H29 H -0.0884 -0.3073 0.0154
C22 C -0.1073(3) -0.1523(3) 0.1118(2)
C23 C -0.1593(4) -0.1256(4) 0.0385(2)
H30 H -0.1382 -0.1434 -0.0069
C24 C -0.2433(4) -0.0722(4) 0.0312(3)
H31 H -0.2788 -0.0527 -0.0188
C25 C -0.2737(4) -0.0486(4) 0.0970(3)
H32 H -0.3313 -0.0130 0.0918
C26 C -0.2230(4) -0.0751(4) 0.1707(2)
H33 H -0.2462 -0.0576 0.2152
C27 C -0.1386(3) -0.1269(3) 0.1802(2)
O6 O 0.5475(2) 0.4362(2) 0.18241(15)
O7 O 0.1065(3) 0.3827(2) 0.13036(15)
N4 N 0.3170(3) 0.0849(2) 0.32186(16)
H34 H 0.4031 0.1183 0.3203
H35 H 0.3179 0.1426 0.3581
C28 C 0.3834(3) 0.2589(3) 0.2075(2)
H36 H 0.4499 0.2335 0.2258
C29 C 0.4167(3) 0.3691(3) 0.1795(2)
C30 C 0.3210(4) 0.4081(3) 0.1531(2)
H37 H 0.3429 0.4836 0.1338
C31 C 0.1915(4) 0.3335(3) 0.1557(2)
C32 C 0.1570(3) 0.2225(3) 0.1824(2)
H38 H 0.0680 0.1721 0.1825
C33 C 0.2553(3) 0.1854(3) 0.20918(19)
C34 C 0.5877(4) 0.5497(3) 0.1532(2)
H39 H 0.5275 0.5313 0.0964
H40 H 0.6818 0.5841 0.1561
H41 H 0.5813 0.6114 0.1869
C35 C -0.0253(4) 0.3153(4) 0.1350(2)
H42 H -0.0747 0.2299 0.1006
H43 H -0.0761 0.3596 0.1159
H44 H -0.0158 0.3103 0.1917
C36 C 0.2179(3) 0.0649(3) 0.23840(19)
H45 H 0.2161 0.0022 0.1993
H46 H 0.1254 0.0302 0.2401
C37 C 0.2825(4) -0.0349(3) 0.3518(2)
H47 H 0.2665 -0.1016 0.3089
H48 H 0.1975 -0.0631 0.3628
C38 C 0.3953(3) -0.0166(3) 0.4286(2)
C39 C 0.4852(3) -0.0604(3) 0.4256(2)
H49 H 0.4756 -0.1016 0.3749
C40 C 0.4123(3) 0.0434(3) 0.5033(2)
H50 H 0.3522 0.0736 0.5059
O6A O 0.4525(2) -0.4362(2) 0.81759(15)
O7A O 0.8935(3) -0.3827(2) 0.86964(15)
N4A N 0.6830(3) -0.0849(2) 0.67814(16)
H34A H 0.5969 -0.1183 0.6797
H35A H 0.6821 -0.1426 0.6419
C28A C 0.6166(3) -0.2589(3) 0.7925(2)
H36A H 0.5501 -0.2335 0.7742
C29A C 0.5833(3) -0.3691(3) 0.8205(2)
C30A C 0.6790(4) -0.4081(3) 0.8469(2)
H37A H 0.6571 -0.4836 0.8662
C31A C 0.8085(4) -0.3335(3) 0.8443(2)
C32A C 0.8430(3) -0.2225(3) 0.8176(2)
H38A H 0.9320 -0.1721 0.8175
C33A C 0.7447(3) -0.1854(3) 0.79082(19)
C34A C 0.4123(4) -0.5497(3) 0.8468(2)
H39A H 0.4725 -0.5313 0.9036
H40A H 0.3182 -0.5841 0.8439
H41A H 0.4187 -0.6114 0.8131
C35A C 1.0253(4) -0.3153(4) 0.8650(2)
H42A H 1.0747 -0.2299 0.8994
H43A H 1.0761 -0.3596 0.8841
H44A H 1.0158 -0.3103 0.8083
C36A C 0.7821(3) -0.0649(3) 0.76160(19)
H45A H 0.7839 -0.0022 0.8007
H46A H 0.8746 -0.0302 0.7599
C37A C 0.7175(4) 0.0349(3) 0.6482(2)
H47A H 0.7335 0.1016 0.6911
H48A H 0.8025 0.0631 0.6372
C38A C 0.6047(3) 0.0166(3) 0.5714(2)
C39A C 0.5148(3) 0.0604(3) 0.5744(2)
H49A H 0.5244 0.1016 0.6251
C40A C 0.5877(3) -0.0434(3) 0.4967(2)
H50A H 0.6478 -0.0736 0.4941
P1 P 0.97657(10) 0.55560(9) 0.31679(6)
F1 F 0.8635(2) 0.4162(2) 0.26657(14)
F2 F 1.0849(2) 0.5407(2) 0.28729(16)
F3 F 1.0911(3) 0.6962(2) 0.36684(18)
F4 F 0.8687(2) 0.5719(2) 0.34547(15)
F5 F 0.9358(3) 0.6083(3) 0.23847(16)
F6 F 1.0180(3) 0.5028(2) 0.39471(15)
Cl1 Cl 0.71236(12) 0.42951(11) 0.01566(7)
Cl2 Cl 0.62158(12) 0.17443(11) 0.03980(7)
C41 C 0.6198(6) 0.3140(5) 0.0600(3)
H51 H 0.6579 0.3468 0.1199
H52 H 0.5243 0.2961 0.0395
loop_
_geom_bond_atom_site_label_1
_geom_bond_atom_site_label_2
_geom_bond_site_symmetry_1
_geom_bond_site_symmetry_2
O1 C13 1_555 1_555
O2 C15 1_555 1_555
O3 C17 1_555 1_555
O4 C19 1_555 1_555
O5 C21 1_555 1_555
N1 H1 1_555 1_555
N2 C2 1_555 1_555
N3 H2 1_555 1_555
C1 N1 1_555 1_555
H3 C1 1_555 1_555
H4 C1 1_555 1_555
C2 C1 1_555 1_555
C3 C2 1_555 1_555
H5 C3 1_555 1_555
C4 C3 1_555 1_555
H6 C4 1_555 1_555
C5 C4 1_555 1_555
H7 C5 1_555 1_555
C6 N2 1_555 1_555
C7 N3 1_555 1_555
H8 C7 1_555 1_555
H9 C7 1_555 1_555
C8 N3 1_555 1_555
C9 C8 1_555 1_555
H10 C9 1_555 1_555
C10 C9 1_555 1_555
H11 C10 1_555 1_555
C11 C10 1_555 1_555
H12 C11 1_555 1_555
C12 C11 1_555 1_555
H13 C12 1_555 1_555
C13 C8 1_555 1_555
C14 O1 1_555 1_555
H14 C14 1_555 1_555
H15 C14 1_555 1_555
C15 C14 1_555 1_555
H16 C15 1_555 1_555
H17 C15 1_555 1_555
C16 O2 1_555 1_555
H18 C16 1_555 1_555
H19 C16 1_555 1_555
C17 C16 1_555 1_555
H20 C17 1_555 1_555
H21 C17 1_555 1_555
C18 O3 1_555 1_555
H22 C18 1_555 1_555
H23 C18 1_555 1_555
C19 C18 1_555 1_555
H24 C19 1_555 1_555
H25 C19 1_555 1_555
C20 O4 1_555 1_555
H26 C20 1_555 1_555
H27 C20 1_555 1_555
C21 C20 1_555 1_555
H28 C21 1_555 1_555
H29 C21 1_555 1_555
C22 O5 1_555 1_555
C23 C22 1_555 1_555
H30 C23 1_555 1_555
C24 C23 1_555 1_555
H31 C24 1_555 1_555
C25 C24 1_555 1_555
H32 C25 1_555 1_555
C26 C25 1_555 1_555
H33 C26 1_555 1_555
C27 N1 1_555 1_555
O6 C29 1_555 1_555
O7 C31 1_555 1_555
N4 H34 1_555 1_555
H35 N4 1_555 1_555
C28 H36 1_555 1_555
C29 C28 1_555 1_555
C30 C29 1_555 1_555
H37 C30 1_555 1_555
C31 C30 1_555 1_555
C32 C31 1_555 1_555
H38 C32 1_555 1_555
C33 C28 1_555 1_555
C34 O6 1_555 1_555
H39 C34 1_555 1_555
H40 C34 1_555 1_555
H41 C34 1_555 1_555
C35 O7 1_555 1_555
H42 C35 1_555 1_555
H43 C35 1_555 1_555
H44 C35 1_555 1_555
C36 N4 1_555 1_555
H45 C36 1_555 1_555
H46 C36 1_555 1_555
C37 N4 1_555 1_555
H47 C37 1_555 1_555
H48 C37 1_555 1_555
C38 C37 1_555 1_555
C39 C38 1_555 1_555
H49 C39 1_555 1_555
C40 C38 1_555 1_555
H50 C40 1_555 1_555
P1 F1 1_555 1_555
F2 P1 1_555 1_555
F3 P1 1_555 1_555
F4 P1 1_555 1_555
F5 P1 1_555 1_555
F6 P1 1_555 1_555
Cl1 C41 1_555 1_555
Cl2 C41 1_555 1_555
C41 H51 1_555 1_555
H52 C41 1_555 1_555
O6A C29A 1_555 1_555
O7A C31A 1_555 1_555
N4A H34A 1_555 1_555
H35A N4A 1_555 1_555
C28A H36A 1_555 1_555
C29A C28A 1_555 1_555
C30A C29A 1_555 1_555
H37A C30A 1_555 1_555
C31A C30A 1_555 1_555
C32A C31A 1_555 1_555
H38A C32A 1_555 1_555
C33A C28A 1_555 1_555
C34A O6A 1_555 1_555
H39A C34A 1_555 1_555
H40A C34A 1_555 1_555
H41A C34A 1_555 1_555
C35A O7A 1_555 1_555
H42A C35A 1_555 1_555
H43A C35A 1_555 1_555
H44A C35A 1_555 1_555
C36A N4A 1_555 1_555
H45A C36A 1_555 1_555
H46A C36A 1_555 1_555
C37A N4A 1_555 1_555
H47A C37A 1_555 1_555
H48A C37A 1_555 1_555
C38A C37A 1_555 1_555
C39A C40 1_555 1_555
H49A C39A 1_555 1_555
C40A C39 1_555 1_555
H50A C40A 1_555 1_555
C5 C6 1_555 1_555
C6 C7 1_555 1_555
C12 C13 1_555 1_555
C22 C27 1_555 1_555
C26 C27 1_555 1_555
C32 C33 1_555 1_555
C33 C36 1_555 1_555
C32A C33A 1_555 1_555
C33A C36A 1_555 1_555
C38A C39A 1_555 1_555
C38A C40A 1_555 1_555

#END
