
#######################################################################
#
#                 Cambridge Crystallographic Data Centre
#                                CCDC 
#
#######################################################################
#
# If this CIF has been generated from an entry in the Cambridge 
# Structural Database, then it will include bibliographic, chemical, 
# crystal, experimental, refinement or atomic coordinate data resulting 
# from the CCDC's data processing and validation procedures.
#
#######################################################################

data_RATYIX
_chemical_name_common            
3,7-bis(5-(triisopropylsilyl)-2-thienyl)thieno[2,3-f][1]benzothiophene-2,6-dione
_chemical_formula_moiety         'C36 H48 O2 S4 Si2'
_chemical_name_systematic        
3,7-bis(5-(triisopropylsilyl)thiophen-2-yl)benzo[1,2-b:4,5-b']dithiophene-2,6-dione
_symmetry_cell_setting           monoclinic
_symmetry_space_group_name_H-M   'P 21/n'
_symmetry_Int_Tables_number      14
_space_group_name_Hall           '-P 2yn'
loop_
_symmetry_equiv_pos_site_id
_symmetry_equiv_pos_as_xyz
1 x,y,z
2 1/2-x,1/2+y,1/2-z
3 -x,-y,-z
4 1/2+x,1/2-y,1/2+z
_cell_length_a                   7.67012(15)
_cell_length_b                   18.9564(4)
_cell_length_c                   12.4302(3)
_cell_angle_alpha                90
_cell_angle_beta                 92.3571(14)
_cell_angle_gamma                90
_cell_volume                     1805.8
_exptl_crystal_colour            black
_exptl_crystal_description       needle
_chemical_melting_point          '214-217 deg.C (dec.)'
_cell_formula_units_Z            2
_exptl_crystal_recrystallization_method methanol/toluene
loop_
_atom_site_label
_atom_site_type_symbol
_atom_site_fract_x
_atom_site_fract_y
_atom_site_fract_z
S1 S 0.12460(6) 0.17768(3) 0.52583(4)
S2 S 0.28458(7) -0.06102(3) 0.30294(4)
Si1 Si -0.11937(6) 0.31023(3) 0.56654(4)
O1 O -0.0159(2) 0.00339(10) 0.27510(15)
C1 C 0.1718(2) 0.04740(10) 0.42251(15)
C2 C -0.2309(3) 0.30056(13) 0.69728(18)
H1 H -0.2451 0.3490 0.7275
C3 C 0.4272(3) 0.05688(10) 0.55809(15)
H2 H 0.3788 0.0945 0.5975
C4 C 0.4145(2) -0.03019(10) 0.41138(15)
C5 C 0.0572(2) 0.10456(10) 0.45078(15)
C6 C -0.1870(3) 0.17673(11) 0.45335(17)
H3 H -0.3052 0.1893 0.4377
C7 C -0.0742(2) 0.21977(10) 0.51191(15)
C8 C 0.3330(2) 0.02824(10) 0.46639(15)
C9 C -0.1155(3) 0.11317(11) 0.41848(17)
H4 H -0.1797 0.0793 0.3767
C10 C -0.2724(3) 0.35492(11) 0.46449(17)
H5 H -0.3822 0.3264 0.4625
C11 C 0.1180(3) 0.00134(11) 0.32907(17)
C12 C 0.0971(3) 0.35547(12) 0.5935(2)
H6 H 0.1736 0.3203 0.6325
C13 C -0.3242(4) 0.42881(13) 0.5016(2)
H7 H -0.3613 0.4266 0.5760
H8 H -0.2238 0.4606 0.4977
H9 H -0.4204 0.4465 0.4548
C14 C -0.1151(4) 0.25854(16) 0.7789(2)
H10 H 0.0009 0.2802 0.7853
H11 H -0.1682 0.2590 0.8493
H12 H -0.1043 0.2097 0.7541
C15 C 0.0870(4) 0.41918(15) 0.6678(2)
H13 H 0.0272 0.4058 0.7329
H14 H 0.2052 0.4355 0.6876
H15 H 0.0222 0.4571 0.6306
C16 C -0.2145(4) 0.35767(16) 0.3492(2)
H16 H -0.1816 0.3102 0.3261
H17 H -0.3105 0.3753 0.3021
H18 H -0.1139 0.3893 0.3449
C17 C -0.4121(3) 0.26781(17) 0.6860(3)
H19 H -0.4841 0.2950 0.6340
H20 H -0.4025 0.2190 0.6608
H21 H -0.4663 0.2683 0.7561
C18 C 0.1900(3) 0.37453(15) 0.4908(3)
H22 H 0.1951 0.3329 0.4443
H23 H 0.1257 0.4123 0.4527
H24 H 0.3088 0.3906 0.5097
S1B S 0.87540(6) -0.17768(3) 0.47417(4)
S2B S 0.71542(7) 0.06102(3) 0.69706(4)
Si1B Si 1.11937(6) -0.31023(3) 0.43346(4)
O1B O 1.0159(2) -0.00339(10) 0.72490(15)
C1B C 0.8282(2) -0.04740(10) 0.57749(15)
C2B C 1.2309(3) -0.30056(13) 0.30272(18)
H1B H 1.2451 -0.3490 0.2725
C3B C 0.5728(3) -0.05688(10) 0.44191(15)
H2B H 0.6212 -0.0945 0.4025
C4B C 0.5855(2) 0.03019(10) 0.58862(15)
C5B C 0.9428(2) -0.10456(10) 0.54922(15)
C6B C 1.1870(3) -0.17673(11) 0.54665(17)
H3B H 1.3052 -0.1893 0.5623
C7B C 1.0742(2) -0.21977(10) 0.48809(15)
C8B C 0.6670(2) -0.02824(10) 0.53361(15)
C9B C 1.1155(3) -0.11317(11) 0.58152(17)
H4B H 1.1797 -0.0793 0.6233
C10B C 1.2724(3) -0.35492(11) 0.53551(17)
H5B H 1.3822 -0.3264 0.5375
C11B C 0.8820(3) -0.00134(11) 0.67093(17)
C12B C 0.9029(3) -0.35547(12) 0.4065(2)
H6B H 0.8264 -0.3203 0.3675
C13B C 1.3242(4) -0.42881(13) 0.4984(2)
H7B H 1.3613 -0.4266 0.4240
H8B H 1.2238 -0.4606 0.5023
H9B H 1.4204 -0.4465 0.5452
C14B C 1.1151(4) -0.25854(16) 0.2211(2)
H10B H 0.9991 -0.2802 0.2147
H11B H 1.1682 -0.2590 0.1507
H12B H 1.1043 -0.2097 0.2459
C15B C 0.9130(4) -0.41918(15) 0.3322(2)
H13B H 0.9728 -0.4058 0.2671
H14B H 0.7948 -0.4355 0.3124
H15B H 0.9778 -0.4571 0.3694
C16B C 1.2145(4) -0.35767(16) 0.6508(2)
H16B H 1.1816 -0.3102 0.6739
H17B H 1.3105 -0.3753 0.6979
H18B H 1.1139 -0.3893 0.6551
C17B C 1.4121(3) -0.26781(17) 0.3140(3)
H19B H 1.4841 -0.2950 0.3660
H20B H 1.4025 -0.2190 0.3392
H21B H 1.4663 -0.2683 0.2439
C18B C 0.8100(3) -0.37453(15) 0.5092(3)
H22B H 0.8049 -0.3329 0.5557
H23B H 0.8743 -0.4123 0.5473
H24B H 0.6912 -0.3906 0.4903
loop_
_geom_bond_atom_site_label_1
_geom_bond_atom_site_label_2
_geom_bond_site_symmetry_1
_geom_bond_site_symmetry_2
S1 C5 1_555 1_555
S2 C4 1_555 1_555
Si1 C2 1_555 1_555
O1 C11 1_555 1_555
C1 C5 1_555 1_555
C2 H1 1_555 1_555
C3 H2 1_555 1_555
C4 C8 1_555 1_555
C5 C9 1_555 1_555
C6 H3 1_555 1_555
C7 S1 1_555 1_555
C8 C1 1_555 1_555
C9 C6 1_555 1_555
H4 C9 1_555 1_555
C10 Si1 1_555 1_555
H5 C10 1_555 1_555
C11 S2 1_555 1_555
C12 Si1 1_555 1_555
H6 C12 1_555 1_555
C13 C10 1_555 1_555
H7 C13 1_555 1_555
H8 C13 1_555 1_555
H9 C13 1_555 1_555
C14 C2 1_555 1_555
H10 C14 1_555 1_555
H11 C14 1_555 1_555
H12 C14 1_555 1_555
C15 C12 1_555 1_555
H13 C15 1_555 1_555
H14 C15 1_555 1_555
H15 C15 1_555 1_555
C16 C10 1_555 1_555
H16 C16 1_555 1_555
H17 C16 1_555 1_555
H18 C16 1_555 1_555
C17 C2 1_555 1_555
H19 C17 1_555 1_555
H20 C17 1_555 1_555
H21 C17 1_555 1_555
C18 C12 1_555 1_555
H22 C18 1_555 1_555
H23 C18 1_555 1_555
H24 C18 1_555 1_555
S1B C5B 1_555 1_555
S2B C4B 1_555 1_555
Si1B C2B 1_555 1_555
O1B C11B 1_555 1_555
C1B C5B 1_555 1_555
C2B H1B 1_555 1_555
C3B C4 1_555 1_555
H2B C3B 1_555 1_555
C4B C3 1_555 1_555
C5B C9B 1_555 1_555
C6B H3B 1_555 1_555
C7B S1B 1_555 1_555
C8B C1B 1_555 1_555
C9B C6B 1_555 1_555
H4B C9B 1_555 1_555
C10B Si1B 1_555 1_555
H5B C10B 1_555 1_555
C11B S2B 1_555 1_555
C12B Si1B 1_555 1_555
H6B C12B 1_555 1_555
C13B C10B 1_555 1_555
H7B C13B 1_555 1_555
H8B C13B 1_555 1_555
H9B C13B 1_555 1_555
C14B C2B 1_555 1_555
H10B C14B 1_555 1_555
H11B C14B 1_555 1_555
H12B C14B 1_555 1_555
C15B C12B 1_555 1_555
H13B C15B 1_555 1_555
H14B C15B 1_555 1_555
H15B C15B 1_555 1_555
C16B C10B 1_555 1_555
H16B C16B 1_555 1_555
H17B C16B 1_555 1_555
H18B C16B 1_555 1_555
C17B C2B 1_555 1_555
H19B C17B 1_555 1_555
H20B C17B 1_555 1_555
H21B C17B 1_555 1_555
C18B C12B 1_555 1_555
H22B C18B 1_555 1_555
H23B C18B 1_555 1_555
H24B C18B 1_555 1_555
Si1 C7 1_555 1_555
C1 C11 1_555 1_555
C3 C8 1_555 1_555
C6 C7 1_555 1_555
Si1B C7B 1_555 1_555
C1B C11B 1_555 1_555
C3B C8B 1_555 1_555
C4B C8B 1_555 1_555
C6B C7B 1_555 1_555

#END
