
#######################################################################
#
#                 Cambridge Crystallographic Data Centre
#                                CCDC 
#
#######################################################################
#
# If this CIF has been generated from an entry in the Cambridge 
# Structural Database, then it will include bibliographic, chemical, 
# crystal, experimental, refinement or atomic coordinate data resulting 
# from the CCDC's data processing and validation procedures.
#
#######################################################################

data_RAVLUW
_chemical_formula_moiety         'C16 H22 N2 2+,2(Cl1 O4 1-)'
_chemical_name_systematic        
'1-Ethyl-4-(2-(1-ethylpyridinium-4-yl)ethyl)pyridinium diperchlorate'
_symmetry_cell_setting           monoclinic
_symmetry_space_group_name_H-M   'P 21/n'
_symmetry_Int_Tables_number      14
_space_group_name_Hall           '-P 2yn'
loop_
_symmetry_equiv_pos_site_id
_symmetry_equiv_pos_as_xyz
1 x,y,z
2 1/2-x,1/2+y,1/2-z
3 -x,-y,-z
4 1/2+x,1/2-y,1/2+z
_cell_length_a                   6.5924(5)
_cell_length_b                   10.8631(9)
_cell_length_c                   13.816(1)
_cell_angle_alpha                90
_cell_angle_beta                 102.128(2)
_cell_angle_gamma                90
_cell_volume                     967.335
_exptl_crystal_colour            colorless
_chemical_melting_point          '239-241deg. C(dec.)'
_cell_formula_units_Z            2
_chemical_properties_physical    air-sensitive
_exptl_crystal_recrystallization_method acetonitrile
loop_
_atom_site_label
_atom_site_type_symbol
_atom_site_fract_x
_atom_site_fract_y
_atom_site_fract_z
Cl1 Cl 0.15561(4) 0.20581(3) 0.33349(2)
O1 O 0.28507(17) 0.30750(9) 0.31805(8)
O2 O 0.04293(16) 0.16019(10) 0.23951(7)
O3 O 0.28357(17) 0.10899(10) 0.38485(8)
O4 O 0.01161(19) 0.24700(13) 0.39155(9)
N1 N -0.01114(16) 0.21837(9) 0.64324(8)
C1 C 0.04477(19) 0.33738(12) 0.65463(9)
C2 C -0.07852(19) 0.42821(11) 0.60299(9)
C3 C -0.26112(18) 0.39663(11) 0.53668(8)
C4 C -0.31322(19) 0.27225(12) 0.52609(9)
C5 C -0.18823(19) 0.18496(12) 0.58067(9)
C6 C -0.39938(18) 0.49349(12) 0.48022(9)
C7 C 0.1269(2) 0.12165(12) 0.69765(9)
C8 C 0.2699(3) 0.07293(16) 0.63458(12)
H1 H 0.169(2) 0.3544(15) 0.6965(12)
H2 H -0.040(3) 0.5115(16) 0.6137(12)
H3 H -0.429(3) 0.2477(18) 0.4846(13)
H4 H -0.215(3) 0.0989(17) 0.5771(13)
H5 H -0.327(2) 0.5733(15) 0.4873(11)
H6 H -0.435(3) 0.4707(15) 0.4103(13)
H7 H 0.201(3) 0.1608(16) 0.7562(12)
H8 H 0.038(3) 0.0629(15) 0.7147(12)
H9 H 0.194(3) 0.0344(18) 0.5788(15)
H10 H 0.355(3) 0.138(2) 0.6163(17)
H11 H 0.367(3) 0.015(2) 0.6706(16)
N1B N -0.98886(16) 0.78163(9) 0.35676(8)
C1B C -1.04477(19) 0.66262(12) 0.34537(9)
C2B C -0.92148(19) 0.57179(11) 0.39701(9)
C3B C -0.73888(18) 0.60337(11) 0.46332(8)
C4B C -0.68678(19) 0.72775(12) 0.47391(9)
C5B C -0.81177(19) 0.81504(12) 0.41933(9)
C6B C -0.60062(18) 0.50651(12) 0.51978(9)
C7B C -1.1269(2) 0.87835(12) 0.30235(9)
C8B C -1.2699(3) 0.92707(16) 0.36542(12)
H1B H -1.169(2) 0.6456(15) 0.3035(12)
H2B H -0.960(3) 0.4885(16) 0.3863(12)
H3B H -0.571(3) 0.7523(18) 0.5154(13)
H4B H -0.785(3) 0.9011(17) 0.4229(13)
H5B H -0.673(2) 0.4267(15) 0.5127(11)
H6B H -0.565(3) 0.5293(15) 0.5897(13)
H7B H -1.201(3) 0.8392(16) 0.2438(12)
H8B H -1.038(3) 0.9371(15) 0.2853(12)
H9B H -1.194(3) 0.9656(18) 0.4212(15)
H10B H -1.355(3) 0.862(2) 0.3837(17)
H11B H -1.367(3) 0.985(2) 0.3294(16)
loop_
_geom_bond_atom_site_label_1
_geom_bond_atom_site_label_2
_geom_bond_site_symmetry_1
_geom_bond_site_symmetry_2
Cl1 O1 1_555 1_555
O2 Cl1 1_555 1_555
O3 Cl1 1_555 1_555
O4 Cl1 1_555 1_555
N1 C1 1_555 1_555
C1 C2 1_555 1_555
C2 C3 1_555 1_555
C3 C4 1_555 1_555
C4 C5 1_555 1_555
C5 N1 1_555 1_555
C6 C3 1_555 1_555
C7 N1 1_555 1_555
C8 C7 1_555 1_555
H1 C1 1_555 1_555
H2 C2 1_555 1_555
H3 C4 1_555 1_555
H4 C5 1_555 1_555
H5 C6 1_555 1_555
H6 C6 1_555 1_555
H7 C7 1_555 1_555
H8 C7 1_555 1_555
H9 C8 1_555 1_555
H10 C8 1_555 1_555
H11 C8 1_555 1_555
N1B C1B 1_555 1_555
C1B C2B 1_555 1_555
C2B C3B 1_555 1_555
C3B C4B 1_555 1_555
C4B C5B 1_555 1_555
C5B N1B 1_555 1_555
C6B C6 1_555 1_555
C7B N1B 1_555 1_555
C8B C7B 1_555 1_555
H1B C1B 1_555 1_555
H2B C2B 1_555 1_555
H3B C4B 1_555 1_555
H4B C5B 1_555 1_555
H5B C6B 1_555 1_555
H6B C6B 1_555 1_555
H7B C7B 1_555 1_555
H8B C7B 1_555 1_555
H9B C8B 1_555 1_555
H10B C8B 1_555 1_555
H11B C8B 1_555 1_555
C3B C6B 1_555 1_555

#END
