
#######################################################################
#
#                 Cambridge Crystallographic Data Centre
#                                CCDC 
#
#######################################################################
#
# If this CIF has been generated from an entry in the Cambridge 
# Structural Database, then it will include bibliographic, chemical, 
# crystal, experimental, refinement or atomic coordinate data resulting 
# from the CCDC's data processing and validation procedures.
#
#######################################################################

data_RAVLIK
_chemical_formula_moiety         'C16 H20 N2 2+,2(Cl1 O4 1-)'
_chemical_name_systematic        
'1-Ethyl-4-((E)-2-(1-ethylpyridinium-4-yl)-1-ethenyl)pyridinium diperchlorate'
_symmetry_cell_setting           monoclinic
_symmetry_space_group_name_H-M   'P 21'
_symmetry_Int_Tables_number      4
_space_group_name_Hall           'P 2yb'
loop_
_symmetry_equiv_pos_site_id
_symmetry_equiv_pos_as_xyz
1 x,y,z
2 -x,1/2+y,-z
_cell_length_a                   8.1781(2)
_cell_length_b                   11.6614(4)
_cell_length_c                   10.6492(3)
_cell_angle_alpha                90
_cell_angle_beta                 107.295(1)
_cell_angle_gamma                90
_cell_volume                     969.676
_exptl_crystal_colour            colorless
_exptl_crystal_description       block
_chemical_melting_point          '297-298deg. C(dec.)'
_cell_formula_units_Z            2
_chemical_properties_physical    air-sensitive
_exptl_crystal_recrystallization_method acetonitrile
loop_
_atom_site_label
_atom_site_type_symbol
_atom_site_fract_x
_atom_site_fract_y
_atom_site_fract_z
Cl1 Cl -0.08994(8) -0.06491(6) 1.16387(6)
O1 O -0.2522(3) -0.1074(3) 1.1673(3)
O2 O -0.1113(5) 0.0484(3) 1.1062(3)
O3 O 0.0234(3) -0.0570(3) 1.2958(2)
O4 O -0.0177(3) -0.1394(3) 1.0860(3)
Cl2 Cl 0.40063(8) 0.76320(6) 0.66769(6)
O5 O 0.4817(4) 0.8530(3) 0.7563(3)
O6 O 0.2708(4) 0.8099(3) 0.5564(3)
O7 O 0.3184(3) 0.6830(3) 0.7342(3)
O8 O 0.5244(4) 0.7011(3) 0.6206(3)
N1 N 0.1123(3) -0.7357(3) 1.4455(3)
N2 N 0.3830(3) -0.0623(3) 1.0808(3)
C1 C 0.2311(4) -0.4537(3) 1.2367(3)
C2 C 0.1918(3) -0.5497(3) 1.3118(3)
C3 C 0.1122(4) -0.6471(3) 1.2452(3)
C4 C 0.0742(4) -0.7387(3) 1.3123(3)
C5 C 0.2314(4) -0.5495(3) 1.4499(3)
C6 C 0.1898(4) -0.6424(3) 1.5131(3)
C7 C 0.0729(4) -0.8356(3) 1.5182(4)
C8 C 0.2341(5) -0.9025(4) 1.5855(5)
H1 H 0.2067 -0.9640 1.6386
H2 H 0.3190 -0.8510 1.6424
H3 H 0.2809 -0.9358 1.5189
C9 C 0.2927(4) -0.3520(3) 1.2892(3)
C10 C 0.3282(4) -0.2544(3) 1.2160(3)
C11 C 0.3714(4) -0.1489(3) 1.2791(3)
C12 C 0.3972(4) -0.0544(3) 1.2109(3)
C13 C 0.3166(4) -0.2601(3) 1.0809(3)
C14 C 0.3456(4) -0.1626(3) 1.0178(3)
C15 C 0.4088(4) 0.0418(3) 1.0089(3)
C16 C 0.2479(7) 0.1115(5) 0.9636(7)
H4 H 0.2679 0.1784 0.9144
H5 H 0.2145 0.1372 1.0402
H6 H 0.1561 0.0645 0.9068
H7 H 0.209(6) -0.470(5) 1.136(5)
H8 H 0.084(5) -0.650(4) 1.151(4)
H9 H 0.019(4) -0.808(4) 1.269(3)
H10 H 0.296(5) -0.487(4) 1.503(4)
H11 H 0.208(5) -0.643(4) 1.600(4)
H12 H 0.028(5) -0.804(4) 1.577(4)
H13 H -0.008(7) -0.885(6) 1.446(5)
H14 H 0.311(5) -0.337(4) 1.382(4)
H15 H 0.391(6) -0.129(5) 1.380(5)
H16 H 0.432(6) 0.018(5) 1.246(5)
H17 H 0.285(5) -0.326(4) 1.030(4)
H18 H 0.348(8) -0.171(7) 0.926(6)
H19 H 0.453(8) 0.020(6) 0.930(6)
H20 H 0.487(6) 0.085(5) 1.054(5)
loop_
_geom_bond_atom_site_label_1
_geom_bond_atom_site_label_2
_geom_bond_site_symmetry_1
_geom_bond_site_symmetry_2
Cl1 O1 1_555 1_555
O2 Cl1 1_555 1_555
O3 Cl1 1_555 1_555
O4 Cl1 1_555 1_555
Cl2 O5 1_555 1_555
O6 Cl2 1_555 1_555
O7 Cl2 1_555 1_555
O8 Cl2 1_555 1_555
N1 C4 1_555 1_555
N2 C12 1_555 1_555
C1 C2 1_555 1_555
C2 C3 1_555 1_555
C3 C4 1_555 1_555
C4 H9 1_555 1_555
C5 C2 1_555 1_555
C6 N1 1_555 1_555
C7 N1 1_555 1_555
C8 C7 1_555 1_555
H1 C8 1_555 1_555
H2 C8 1_555 1_555
H3 C8 1_555 1_555
C9 C1 1_555 1_555
C10 C9 1_555 1_555
C11 C10 1_555 1_555
C12 C11 1_555 1_555
C13 C10 1_555 1_555
C14 N2 1_555 1_555
C15 N2 1_555 1_555
C16 C15 1_555 1_555
H4 C16 1_555 1_555
H5 C16 1_555 1_555
H6 C16 1_555 1_555
H7 C1 1_555 1_555
H8 C3 1_555 1_555
H10 C5 1_555 1_555
H11 C6 1_555 1_555
H12 C7 1_555 1_555
H13 C7 1_555 1_555
H14 C9 1_555 1_555
H15 C11 1_555 1_555
H16 C12 1_555 1_555
H17 C13 1_555 1_555
H18 C14 1_555 1_555
H19 C15 1_555 1_555
H20 C15 1_555 1_555
C5 C6 1_555 1_555
C13 C14 1_555 1_555

#END
