
#######################################################################
#
#                 Cambridge Crystallographic Data Centre
#                                CCDC 
#
#######################################################################
#
# If this CIF has been generated from an entry in the Cambridge 
# Structural Database, then it will include bibliographic, chemical, 
# crystal, experimental, refinement or atomic coordinate data resulting 
# from the CCDC's data processing and validation procedures.
#
#######################################################################

data_RAVMEH
_chemical_formula_moiety         'C18 H18 N2 2+,2(Cl1 O4 1-),0.5(C6 H6)'
_chemical_name_systematic        
'2,7-Diethylbenzo(lmn)(3,8)phenanthrolinedi-ium diperchlorate benzene solvate'
_symmetry_cell_setting           triclinic
_symmetry_space_group_name_H-M   'P -1'
_symmetry_Int_Tables_number      2
_space_group_name_Hall           '-P 1'
loop_
_symmetry_equiv_pos_site_id
_symmetry_equiv_pos_as_xyz
1 x,y,z
2 -x,-y,-z
_cell_length_a                   9.664(2)
_cell_length_b                   9.670(2)
_cell_length_c                   12.951(2)
_cell_angle_alpha                77.204(6)
_cell_angle_beta                 75.258(5)
_cell_angle_gamma                66.010(5)
_cell_volume                     1059.75
_cell_formula_units_Z            2
_chemical_properties_physical    air-sensitive
_exptl_crystal_recrystallization_method acetonitrile
loop_
_atom_site_label
_atom_site_type_symbol
_atom_site_fract_x
_atom_site_fract_y
_atom_site_fract_z
Cl1 Cl 0.37974(15) 0.80409(15) 0.19610(11)
O1 O 0.2653(5) 0.8759(6) 0.2844(4)
O2 O 0.3207(7) 0.7199(8) 0.1509(5)
O3 O 0.4135(7) 0.9215(7) 0.1147(5)
O4 O 0.5191(7) 0.7046(7) 0.2362(5)
Cl2 Cl 1.15378(19) -0.25604(18) 0.81385(14)
O8 O 1.0587(5) -0.3409(5) 0.8509(5)
O9 O 1.2659(7) -0.3292(7) 0.7239(5)
O10 O 1.2313(7) -0.2506(7) 0.8927(5)
O11 O 1.0601(9) -0.1031(6) 0.7755(5)
N1 N 0.9296(6) -0.3142(6) 0.2504(4)
N2 N 0.6563(6) -0.2924(6) 0.7944(4)
C1 C 0.9847(7) -0.2484(7) 0.3032(5)
H1 H 1.0515 -0.1972 0.2638
C2 C 0.9452(7) -0.2543(6) 0.4155(5)
C3 C 0.8447(7) -0.3314(6) 0.4713(5)
C4 C 0.7948(7) -0.4078(7) 0.4145(5)
C5 C 0.8400(7) -0.3956(7) 0.3026(5)
H2 H 0.8079 -0.4446 0.2625
C6 C 0.7628(7) -0.2298(7) 0.7448(5)
H3 H 0.7902 -0.1752 0.7837
C7 C 0.8324(7) -0.2447(7) 0.6378(5)
C8 C 0.7877(6) -0.3273(6) 0.5837(4)
C9 C 0.6811(7) -0.3956(7) 0.6375(5)
C10 C 0.6155(7) -0.3753(7) 0.7447(5)
H4 H 0.5423 -0.4196 0.7828
C11 C 0.9978(7) -0.1823(7) 0.4750(5)
H5 H 1.0715 -0.1377 0.4390
C12 C 0.9430(7) -0.1771(7) 0.5827(5)
H6 H 0.9782 -0.1287 0.6212
C13 C 0.6965(7) -0.4886(7) 0.4727(5)
H7 H 0.6702 -0.5468 0.4361
C14 C 0.6400(7) -0.4824(7) 0.5814(5)
H8 H 0.5740 -0.5352 0.6192
C15 C 0.9585(8) -0.2871(8) 0.1301(5)
H9 H 0.9616 -0.3756 0.1018
H10 H 1.0595 -0.2763 0.1028
C16 C 0.8312(9) -0.1422(8) 0.0905(6)
H11 H 0.8512 -0.1256 0.0116
H12 H 0.8293 -0.0545 0.1177
H13 H 0.7314 -0.1536 0.1168
C17 C 0.5858(8) -0.2743(8) 0.9103(5)
H14 H 0.4802 -0.2746 0.9257
H15 H 0.5794 -0.1758 0.9257
C18 C 0.6852(10) -0.4058(9) 0.9809(6)
H16 H 0.6402 -0.3949 1.0569
H17 H 0.7894 -0.4044 0.9655
H18 H 0.6903 -0.5028 0.9657
C19 C 0.4845(11) 0.0454(9) 0.5993(8)
C20 C 0.4036(10) -0.0399(9) 0.5923(7)
C21 C 0.5807(10) 0.0868(9) 0.5070(10)
C19A C 0.5155(11) -0.0454(9) 0.4007(8)
C20A C 0.5964(10) 0.0399(9) 0.4077(7)
C21A C 0.4193(10) -0.0868(9) 0.4930(10)
O5? O 0.298(3) 0.788(4) 0.116(2)
O6? O 0.481(4) 0.886(4) 0.150(3)
O7? O 0.482(5) 0.653(5) 0.232(3)
loop_
_geom_bond_atom_site_label_1
_geom_bond_atom_site_label_2
_geom_bond_site_symmetry_1
_geom_bond_site_symmetry_2
Cl1 O1 1_555 1_555
Cl2 O8 1_555 1_555
O2 Cl1 1_555 1_555
O3 Cl1 1_555 1_555
O4 Cl1 1_555 1_555
O9 Cl2 1_555 1_555
O10 Cl2 1_555 1_555
O11 Cl2 1_555 1_555
N1 C1 1_555 1_555
N2 C6 1_555 1_555
C1 H1 1_555 1_555
C2 C1 1_555 1_555
C3 C2 1_555 1_555
C4 C3 1_555 1_555
C5 N1 1_555 1_555
H2 C5 1_555 1_555
C6 H3 1_555 1_555
C7 C6 1_555 1_555
C8 C3 1_555 1_555
C9 C8 1_555 1_555
C10 N2 1_555 1_555
H4 C10 1_555 1_555
C11 C2 1_555 1_555
H5 C11 1_555 1_555
C12 C7 1_555 1_555
H6 C12 1_555 1_555
C13 C4 1_555 1_555
H7 C13 1_555 1_555
C14 C9 1_555 1_555
H8 C14 1_555 1_555
C15 N1 1_555 1_555
H9 C15 1_555 1_555
H10 C15 1_555 1_555
C16 C15 1_555 1_555
H11 C16 1_555 1_555
H12 C16 1_555 1_555
H13 C16 1_555 1_555
C17 N2 1_555 1_555
H14 C17 1_555 1_555
H15 C17 1_555 1_555
C18 C17 1_555 1_555
H16 C18 1_555 1_555
H17 C18 1_555 1_555
H18 C18 1_555 1_555
C19 C20 1_555 1_555
C20 C21A 1_555 1_555
C21 C19 1_555 1_555
C19A C20A 1_555 1_555
C20A C21 1_555 1_555
C21A C19A 1_555 1_555
C4 C5 1_555 1_555
C7 C8 1_555 1_555
C9 C10 1_555 1_555
C11 C12 1_555 1_555
C13 C14 1_555 1_555

#END
