
#######################################################################
#
#                 Cambridge Crystallographic Data Centre
#                                CCDC 
#
#######################################################################
#
# If this CIF has been generated from an entry in the Cambridge 
# Structural Database, then it will include bibliographic, chemical, 
# crystal, experimental, refinement or atomic coordinate data resulting 
# from the CCDC's data processing and validation procedures.
#
#######################################################################

data_RAVMEG
_chemical_formula_moiety         'C16 H16 N3 1+,C1 N1 S1 1-'
_chemical_name_systematic        
"N-(Acridinium-9-yl)-N'-(propylidene)hydrazine thiocyanate"
_symmetry_cell_setting           triclinic
_symmetry_space_group_name_H-M   'P -1'
_symmetry_Int_Tables_number      2
_space_group_name_Hall           '-P 1'
loop_
_symmetry_equiv_pos_site_id
_symmetry_equiv_pos_as_xyz
1 x,y,z
2 -x,-y,-z
_cell_length_a                   9.054(5)
_cell_length_b                   11.467(4)
_cell_length_c                   8.512(3)
_cell_angle_alpha                110.66(3)
_cell_angle_beta                 109.01(4)
_cell_angle_gamma                76.51(4)
_cell_volume                     774.777
_exptl_crystal_colour            gold
_chemical_melting_point          466-468K
_cell_formula_units_Z            2
loop_
_atom_site_label
_atom_site_type_symbol
_atom_site_fract_x
_atom_site_fract_y
_atom_site_fract_z
S1 S 0.2768(1) 0.47947(7) 0.1811(1)
N1 N 0.2959(3) 0.2963(2) 0.3369(4)
C1 C 0.2884(3) 0.3715(2) 0.2717(4)
N2 N 0.3057(3) 0.7509(2) 0.5233(3)
N3 N 0.2452(3) 0.7298(2) 0.6399(3)
N4 N 0.2508(3) 1.0785(2) 0.3977(3)
C2 C 0.1610(3) 0.9979(3) 0.7377(3)
C3 C 0.0947(3) 1.1143(3) 0.8215(4)
C4 C 0.0753(3) 1.2175(3) 0.7617(4)
C5 C 0.1253(3) 1.2047(3) 0.6214(4)
C6 C 0.1983(3) 1.0863(2) 0.5345(3)
C7 C 0.3846(3) 0.9714(3) 0.1747(4)
C8 C 0.3301(3) 0.9704(2) 0.3117(3)
C9 C 0.4674(3) 0.8650(3) 0.0907(4)
C10 C 0.5019(3) 0.7562(3) 0.1429(4)
C11 C 0.4479(3) 0.7539(3) 0.2737(4)
C12 C 0.3562(3) 0.8608(2) 0.3611(3)
C13 C 0.2909(3) 0.8618(2) 0.4961(3)
C14 C 0.2154(3) 0.9795(2) 0.5904(3)
C15 C 0.2871(4) 0.6182(3) 0.6531(4)
C16 C 0.2293(5) 0.5749(3) 0.7646(5)
C17 C 0.1183(4) 0.6721(4) 0.8600(5)
H1 H 0.173(3) 0.929(2) 0.787(3)
H2 H 0.065(3) 1.122(2) 0.921(4)
H3 H 0.037(4) 1.301(3) 0.823(4)
H4 H 0.114(3) 1.273(2) 0.573(3)
H5 H 0.359(3) 1.048(3) 0.142(3)
H6 H 0.500(3) 0.865(2) -0.002(4)
H7 H 0.563(3) 0.686(3) 0.088(4)
H8 H 0.472(3) 0.683(2) 0.310(3)
H9 H 0.250(3) 1.147(3) 0.367(4)
H10 H 0.364(4) 0.559(3) 0.588(4)
H11 H 0.341(3) 0.683(3) 0.443(4)
H12 H 0.324(4) 0.546(3) 0.854(5)
H13 H 0.151(4) 0.503(3) 0.687(4)
H14 H 0.180(4) 0.751(3) 0.953(5)
H15 H 0.025(4) 0.708(3) 0.770(5)
H16 H 0.083(4) 0.628(3) 0.925(4)
loop_
_geom_bond_atom_site_label_1
_geom_bond_atom_site_label_2
_geom_bond_site_symmetry_1
_geom_bond_site_symmetry_2
S1 C1 1_555 1_555
N1 C1 1_555 1_555
N2 N3 1_555 1_555
N3 C15 1_555 1_555
N4 C6 1_555 1_555
C2 C3 1_555 1_555
C3 C4 1_555 1_555
C4 C5 1_555 1_555
C5 C6 1_555 1_555
C6 C14 1_555 1_555
C7 C8 1_555 1_555
C8 N4 1_555 1_555
C9 C7 1_555 1_555
C10 C9 1_555 1_555
C11 C10 1_555 1_555
C12 C8 1_555 1_555
C13 N2 1_555 1_555
C14 C2 1_555 1_555
C15 C16 1_555 1_555
C16 C17 1_555 1_555
C17 H14 1_555 1_555
H1 C2 1_555 1_555
H2 C3 1_555 1_555
H3 C4 1_555 1_555
H4 C5 1_555 1_555
H5 C7 1_555 1_555
H6 C9 1_555 1_555
H7 C10 1_555 1_555
H8 C11 1_555 1_555
H9 N4 1_555 1_555
H10 C15 1_555 1_555
H11 N2 1_555 1_555
H12 C16 1_555 1_555
H13 C16 1_555 1_555
H15 C17 1_555 1_555
H16 C17 1_555 1_555
C11 C12 1_555 1_555
C12 C13 1_555 1_555
C13 C14 1_555 1_555

#END
