
#######################################################################
#
#                 Cambridge Crystallographic Data Centre
#                                CCDC 
#
#######################################################################
#
# If this CIF has been generated from an entry in the Cambridge 
# Structural Database, then it will include bibliographic, chemical, 
# crystal, experimental, refinement or atomic coordinate data resulting 
# from the CCDC's data processing and validation procedures.
#
#######################################################################

data_RAVNUA
_chemical_formula_moiety         'C6 H11 N10 1+,C2 H1 N4 O3 1-'
_chemical_name_systematic        
'4,5-diamino-3-(2-(4,5-diamino-4H-1,2,4-triazol-3-yl)ethenyl)-4H-1,2,4-triazol-1-ium 3-nitro-5-oxo-1,5-dihydro-1,2,4-triazol-4-ide'
_symmetry_cell_setting           monoclinic
_symmetry_space_group_name_H-M   'C 2/c'
_symmetry_Int_Tables_number      15
_space_group_name_Hall           '-C 2yn'
loop_
_symmetry_equiv_pos_site_id
_symmetry_equiv_pos_as_xyz
1 x,y,z
2 -x,y,1/2-z
3 1/2+x,1/2+y,z
4 1/2-x,1/2+y,1/2-z
5 -x,-y,-z
6 x,-y,1/2+z
7 1/2-x,1/2-y,-z
8 1/2+x,1/2-y,1/2+z
_cell_length_a                   12.8678(14)
_cell_length_b                   6.4849(7)
_cell_length_c                   33.243(4)
_cell_angle_alpha                90
_cell_angle_beta                 94.281(2)
_cell_angle_gamma                90
_cell_volume                     2766.27
_exptl_crystal_colour            yellow
_exptl_crystal_description       plate
_cell_formula_units_Z            8
loop_
_atom_site_label
_atom_site_type_symbol
_atom_site_fract_x
_atom_site_fract_y
_atom_site_fract_z
N1 N 0.39834(12) 0.8025(2) 0.57991(4)
N2 N 0.35162(12) 0.7754(2) 0.54108(4)
N3 N 0.42373(10) 1.0843(2) 0.54542(4)
N4 N 0.45171(13) 1.2805(2) 0.53236(4)
H1 H 0.4160(18) 1.378(4) 0.5464(7)
H2 H 0.520(2) 1.298(4) 0.5383(8)
N5 N 0.33940(12) 0.9858(3) 0.48176(4)
H3 H 0.2812(19) 0.923(4) 0.4731(7)
H4 H 0.3432(19) 1.113(4) 0.4737(7)
N6 N 0.62371(10) 1.1746(2) 0.74227(4)
H5 H 0.6355(18) 1.272(4) 0.7580(7)
N7 N 0.58294(11) 1.2027(2) 0.70283(4)
N8 N 0.59461(10) 0.8702(2) 0.71853(4)
N9 N 0.59084(11) 0.6539(2) 0.71704(4)
H6 H 0.6283(18) 0.615(4) 0.6975(7)
H7 H 0.5232(18) 0.610(3) 0.7098(7)
N10 N 0.66435(11) 0.8906(2) 0.78683(4)
H8 H 0.6640(18) 0.761(4) 0.7891(7)
H9 H 0.6877(19) 0.974(4) 0.8060(7)
C1 C 0.36827(13) 0.9480(3) 0.52099(5)
C2 C 0.44130(12) 0.9868(3) 0.58216(4)
C3 C 0.49513(12) 1.0725(2) 0.61810(5)
H10 H 0.5119(18) 1.217(4) 0.6188(7)
C4 C 0.52182(12) 0.9503(2) 0.64973(4)
H11 H 0.5091(16) 0.807(3) 0.6470(6)
C5 C 0.56648(11) 1.0156(2) 0.68883(4)
C6 C 0.63105(11) 0.9749(2) 0.75200(4)
O1 O 0.85268(10) 0.97072(19) 0.69698(3)
O2 O 0.65687(12) 0.5603(2) 0.56186(4)
O3 O 0.66735(16) 0.3945(3) 0.61885(5)
N11 N 0.82190(12) 0.9859(2) 0.62648(4)
H12 H 0.847(2) 1.107(4) 0.6188(8)
N12 N 0.77348(11) 0.8676(2) 0.59662(4)
N13 N 0.76152(10) 0.7166(2) 0.65814(4)
N14 N 0.68380(13) 0.5457(3) 0.59795(5)
C7 C 0.81500(13) 0.8970(2) 0.66377(5)
C8 C 0.74095(12) 0.7141(2) 0.61778(5)
loop_
_geom_bond_atom_site_label_1
_geom_bond_atom_site_label_2
_geom_bond_site_symmetry_1
_geom_bond_site_symmetry_2
N1 N2 1_555 1_555
N2 C1 1_555 1_555
N3 N4 1_555 1_555
N4 H1 1_555 1_555
H2 N4 1_555 1_555
N5 H3 1_555 1_555
H4 N5 1_555 1_555
N6 H5 1_555 1_555
N7 N6 1_555 1_555
N8 N9 1_555 1_555
N9 H6 1_555 1_555
H7 N9 1_555 1_555
N10 H8 1_555 1_555
H9 N10 1_555 1_555
C1 N3 1_555 1_555
C2 N1 1_555 1_555
C3 C2 1_555 1_555
H10 C3 1_555 1_555
C4 C3 1_555 1_555
H11 C4 1_555 1_555
C5 N7 1_555 1_555
C6 N6 1_555 1_555
O1 C7 1_555 1_555
O2 N14 1_555 1_555
O3 N14 1_555 1_555
N11 H12 1_555 1_555
N12 N11 1_555 1_555
N13 C7 1_555 1_555
N14 C8 1_555 1_555
C7 N11 1_555 1_555
C8 N12 1_555 1_555
N3 C2 1_555 1_555
N5 C1 1_555 1_555
N8 C5 1_555 1_555
N8 C6 1_555 1_555
N10 C6 1_555 1_555
C4 C5 1_555 1_555
N13 C8 1_555 1_555

#END
