
#######################################################################
#
#                 Cambridge Crystallographic Data Centre
#                                CCDC 
#
#######################################################################
#
# If this CIF has been generated from an entry in the Cambridge 
# Structural Database, then it will include bibliographic, chemical, 
# crystal, experimental, refinement or atomic coordinate data resulting 
# from the CCDC's data processing and validation procedures.
#
#######################################################################

data_RAVNIO
_chemical_formula_moiety         'C6 H12 N10 2+,2(C3 H1 N4 O4 1-),3(H2 O1)'
_chemical_name_systematic        
"5,5'-(ethene-1,2-diyl)bis(4-amino-2,4-dihydro-3H-1,2,4-triazol-3-iminium) bis(2,4-dinitroimidazol-1-ide) trihydrate"
_symmetry_cell_setting           triclinic
_symmetry_space_group_name_H-M   'P -1'
_symmetry_Int_Tables_number      2
_space_group_name_Hall           '-P 1'
loop_
_symmetry_equiv_pos_site_id
_symmetry_equiv_pos_as_xyz
1 x,y,z
2 -x,-y,-z
_cell_length_a                   6.413(2)
_cell_length_b                   10.1729(13)
_cell_length_c                   10.5386(13)
_cell_angle_alpha                117.773(2)
_cell_angle_beta                 100.209(3)
_cell_angle_gamma                97.012(3)
_cell_volume                     581.921
_exptl_crystal_colour            colorless
_exptl_crystal_description       block
_cell_formula_units_Z            1
loop_
_atom_site_label
_atom_site_type_symbol
_atom_site_fract_x
_atom_site_fract_y
_atom_site_fract_z
N1 N 0.67271(15) 0.27508(11) 0.58408(10)
H1 H 0.552(3) 0.267(2) 0.526(2)
N2 N 0.71556(15) 0.37488(11) 0.73557(9)
N3 N 1.00653(14) 0.29048(10) 0.67602(9)
N4 N 1.21351(15) 0.25913(12) 0.68232(10)
H2 H 1.233(3) 0.229(2) 0.7512(19)
H3 H 1.308(3) 0.345(2) 0.711(2)
N5 N 0.86865(17) 0.12782(12) 0.41473(10)
H4 H 0.757(3) 0.080(2) 0.3381(19)
H5 H 0.995(3) 0.106(2) 0.4100(19)
C1 C 0.84694(16) 0.22349(12) 0.54721(11)
C2 C 0.91900(16) 0.38122(11) 0.78940(10)
C3 C 1.04606(16) 0.46959(11) 0.94361(10)
H6 H 1.206(3) 0.4853(17) 0.9650(16)
N1A N 1.32729(15) 0.72492(11) 1.41592(10)
H1A H 1.448(3) 0.733(2) 1.474(2)
N2A N 1.28444(15) 0.62512(11) 1.26443(9)
N3A N 0.99347(14) 0.70952(10) 1.32398(9)
N4A N 0.78649(15) 0.74087(12) 1.31768(10)
H2A H 0.767(3) 0.771(2) 1.2488(19)
H3A H 0.692(3) 0.655(2) 1.289(2)
N5A N 1.13135(17) 0.87218(12) 1.58527(10)
H4A H 1.243(3) 0.920(2) 1.6619(19)
H5A H 1.005(3) 0.894(2) 1.5900(19)
C1A C 1.15306(16) 0.77651(12) 1.45279(11)
C2A C 1.08100(16) 0.61878(11) 1.21060(10)
C3A C 0.95394(16) 0.53041(11) 1.05639(10)
H6A H 0.794(3) 0.5147(17) 1.0350(16)
O1 O 0.54887(14) 0.35547(11) 0.20256(10)
O2 O 0.49899(14) 0.31187(11) -0.02460(11)
O3 O -0.29007(14) -0.00648(10) -0.32633(9)
O4 O -0.46719(13) -0.01220(11) -0.16975(10)
N6 N 0.11739(15) 0.23430(11) 0.14811(10)
N7 N 0.08488(14) 0.15465(10) -0.09983(10)
N8 N 0.43395(15) 0.30230(11) 0.07494(11)
N9 N -0.29847(15) 0.02633(10) -0.19882(10)
C4 C 0.20896(17) 0.22649(12) 0.03962(11)
C5 C -0.10871(16) 0.11193(12) -0.07786(11)
C6 C -0.09227(18) 0.15959(13) 0.07181(12)
H7 H -0.200(3) 0.1464(18) 0.1177(17)
O5 O 0.34214(15) 0.36776(11) 0.45445(10)
H8 H 0.290924 0.323700 0.358381
H9 H 0.242(4) 0.415(3) 0.484(3)
H10? H 0.446(8) 0.457(5) 0.494(5)
O6? O 0.0394(4) 0.5210(3) 0.5599(3)
H11? H -0.088(3) 0.530(3) 0.527(3)
H12? H 0.099(8) 0.600(5) 0.653(5)
loop_
_geom_bond_atom_site_label_1
_geom_bond_atom_site_label_2
_geom_bond_site_symmetry_1
_geom_bond_site_symmetry_2
N1 H1 1_555 1_555
N2 N1 1_555 1_555
N3 N4 1_555 1_555
N4 H2 1_555 1_555
H3 N4 1_555 1_555
N5 H4 1_555 1_555
H5 N5 1_555 1_555
C1 N1 1_555 1_555
C2 N2 1_555 1_555
C3 C2 1_555 1_555
H6 C3 1_555 1_555
O1 N8 1_555 1_555
O2 N8 1_555 1_555
O3 N9 1_555 1_555
O4 N9 1_555 1_555
N6 C4 1_555 1_555
N7 C4 1_555 1_555
N8 C4 1_555 1_555
N9 C5 1_555 1_555
C5 N7 1_555 1_555
C6 N6 1_555 1_555
H7 C6 1_555 1_555
O5 H8 1_555 1_555
H9 O5 1_555 1_555
N1A H1A 1_555 1_555
N2A N1A 1_555 1_555
N3A N4A 1_555 1_555
N4A H2A 1_555 1_555
H3A N4A 1_555 1_555
N5A H4A 1_555 1_555
H5A N5A 1_555 1_555
C1A N1A 1_555 1_555
C2A N2A 1_555 1_555
C3A C3 1_555 1_555
H6A C3A 1_555 1_555
N3 C1 1_555 1_555
N3 C2 1_555 1_555
N5 C1 1_555 1_555
C5 C6 1_555 1_555
N3A C1A 1_555 1_555
N3A C2A 1_555 1_555
N5A C1A 1_555 1_555
C2A C3A 1_555 1_555

#END
