
#######################################################################
#
#                 Cambridge Crystallographic Data Centre
#                                CCDC 
#
#######################################################################
#
# If this CIF has been generated from an entry in the Cambridge 
# Structural Database, then it will include bibliographic, chemical, 
# crystal, experimental, refinement or atomic coordinate data resulting 
# from the CCDC's data processing and validation procedures.
#
#######################################################################

data_RAVPUA
_chemical_formula_moiety         'C20 H14 O2,1.5(C3 H7 N1 O1)'
_chemical_name_systematic        
"(S)-(-)-1,1'-Bi-2-naphthol dimethylformamide solvate"
_symmetry_cell_setting           tetragonal
_symmetry_space_group_name_H-M   'P 43 21 2'
_symmetry_Int_Tables_number      96
_space_group_name_Hall           'P 4nw 2abw'
loop_
_symmetry_equiv_pos_site_id
_symmetry_equiv_pos_as_xyz
1 x,y,z
2 1/2+x,1/2-y,1/4-z
3 -x,-y,1/2+z
4 1/2-x,1/2+y,3/4-z
5 y,x,-z
6 1/2+y,1/2-x,1/4+z
7 1/2-y,1/2+x,3/4+z
8 -y,-x,1/2-z
_cell_length_a                   8.8430(5)
_cell_length_b                   8.8430(5)
_cell_length_c                   54.486(3)
_cell_angle_alpha                90
_cell_angle_beta                 90
_cell_angle_gamma                90
_cell_volume                     4260.73
_exptl_crystal_colour            colorless
_exptl_crystal_description       block
_cell_formula_units_Z            8
loop_
_atom_site_label
_atom_site_type_symbol
_atom_site_fract_x
_atom_site_fract_y
_atom_site_fract_z
O1 O 0.9689(4) 0.8528(5) -0.09380(10)
O2 O 0.9407(4) 0.9637(4) -0.03630(10)
C1 C 0.7438(5) 0.8479(4) -0.07110(10)
C2 C 0.8228(5) 0.8976(5) -0.09130(10)
C3 C 0.7550(6) 0.9930(6) -0.10880(10)
C4 C 0.6083(6) 1.0344(6) -0.10630(10)
C5 C 0.5202(5) 0.9829(5) -0.08660(10)
C6 C 0.5896(5) 0.8906(5) -0.06850(10)
C7 C 0.5004(5) 0.8420(6) -0.04840(10)
C8 C 0.3513(6) 0.8813(8) -0.04670(10)
C9 C 0.2833(6) 0.9703(8) -0.06500(10)
C10 C 0.3649(6) 1.0209(7) -0.08390(10)
C11 C 0.8179(5) 0.7504(5) -0.05230(10)
C12 C 0.9144(4) 0.8115(5) -0.03550(10)
C13 C 0.9830(5) 0.7211(6) -0.01720(10)
C14 C 0.9540(5) 0.5709(6) -0.01620(10)
C15 C 0.8551(5) 0.5010(5) -0.03300(10)
C16 C 0.7850(5) 0.5921(5) -0.05130(10)
C17 C 0.6843(5) 0.5206(5) -0.06790(10)
C18 C 0.6548(7) 0.3690(6) -0.06640(10)
C19 C 0.7262(7) 0.2801(6) -0.04870(10)
C20 C 0.8220(6) 0.3446(6) -0.03240(10)
H1 H 1.0072 0.8968 -0.1055
H2 H 1.0054 0.9860 -0.0261
H3 H 0.8110 1.0277 -0.1221
H4 H 0.5651 1.0982 -0.1179
H5 H 0.5438 0.7826 -0.0362
H6 H 0.2944 0.8487 -0.0334
H7 H 0.1811 0.9941 -0.0639
H8 H 0.3191 1.0825 -0.0956
H9 H 1.0482 0.7648 -0.0059
H10 H 1.0006 0.5126 -0.0042
H11 H 0.6374 0.5778 -0.0800
H12 H 0.5865 0.3250 -0.0772
H13 H 0.7082 0.1765 -0.0482
H14 H 0.8672 0.2844 -0.0205
O3 O 1.1137(5) 0.9680(6) -0.13280(10)
N1 N 1.3244(6) 0.9178(6) -0.15460(10)
C21 C 1.2277(7) 0.8935(7) -0.13690(10)
C22 C 1.3040(10) 1.0453(9) -0.17110(10)
C23 C 1.4567(8) 0.8230(10) -0.1577(2)
H15 H 1.2472 0.8125 -0.1265
H16 H 1.2036 1.0851 -0.1693
H17 H 1.3186 1.0125 -0.1877
H18 H 1.3764 1.1226 -0.1672
H19 H 1.4632 0.7528 -0.1442
H20 H 1.5458 0.8845 -0.1580
H21 H 1.4485 0.7674 -0.1728
O4? O 1.1125(5) 1.1125(5) 0.0000
N2? N 1.2937(5) 1.2937(5) 0.0000
C24? C 1.1980(8) 1.2008(8) 0.01150(10)
C25? C 1.298(2) 1.291(2) -0.02690(10)
C26? C 1.3940(10) 1.3960(10) 0.0125(2)
H22? H 1.1946 1.2015 0.0286
H23? H 1.1984 1.2681 -0.0331
H24? H 1.3674 1.2146 -0.0323
H25? H 1.3293 1.3877 -0.0330
H26? H 1.3493 1.4277 0.0277
H27? H 1.4119 1.4833 0.0023
H28? H 1.4885 1.3464 0.0157
loop_
_geom_bond_atom_site_label_1
_geom_bond_atom_site_label_2
_geom_bond_site_symmetry_1
_geom_bond_site_symmetry_2
O1 C2 1_555 1_555
O2 C12 1_555 1_555
O3 C21 1_555 1_555
N1 C21 1_555 1_555
C1 C2 1_555 1_555
C2 C3 1_555 1_555
C3 C4 1_555 1_555
C4 C5 1_555 1_555
C5 C6 1_555 1_555
C6 C1 1_555 1_555
C7 C6 1_555 1_555
C8 C7 1_555 1_555
C9 C8 1_555 1_555
C10 C5 1_555 1_555
C11 C1 1_555 1_555
C12 C11 1_555 1_555
C13 C12 1_555 1_555
C14 C13 1_555 1_555
C15 C14 1_555 1_555
C16 C11 1_555 1_555
C17 C16 1_555 1_555
C18 C17 1_555 1_555
C19 C18 1_555 1_555
C20 C15 1_555 1_555
C21 H15 1_555 1_555
C22 N1 1_555 1_555
C23 N1 1_555 1_555
H1 O1 1_555 1_555
H2 O2 1_555 1_555
H3 C3 1_555 1_555
H4 C4 1_555 1_555
H5 C7 1_555 1_555
H6 C8 1_555 1_555
H7 C9 1_555 1_555
H8 C10 1_555 1_555
H9 C13 1_555 1_555
H10 C14 1_555 1_555
H11 C17 1_555 1_555
H12 C18 1_555 1_555
H13 C19 1_555 1_555
H14 C20 1_555 1_555
H16 C22 1_555 1_555
H17 C22 1_555 1_555
H18 C22 1_555 1_555
H19 C23 1_555 1_555
H20 C23 1_555 1_555
H21 C23 1_555 1_555
C9 C10 1_555 1_555
C15 C16 1_555 1_555
C19 C20 1_555 1_555

#END
