
#######################################################################
#
#                 Cambridge Crystallographic Data Centre
#                                CCDC 
#
#######################################################################
#
# If this CIF has been generated from an entry in the Cambridge 
# Structural Database, then it will include bibliographic, chemical, 
# crystal, experimental, refinement or atomic coordinate data resulting 
# from the CCDC's data processing and validation procedures.
#
#######################################################################

data_RAVQIR
_chemical_formula_moiety         'C6 H12 N10 2+,2(N1 O3 1-)'
_chemical_name_systematic        
"3,3'-(ethene-1,2-diyl)bis(4,5-diamino-4H-1,2,4-triazol-1-ium) dinitrate"
_symmetry_cell_setting           orthorhombic
_symmetry_space_group_name_H-M   'P b c n'
_symmetry_Int_Tables_number      60
_space_group_name_Hall           '-P 2n 2ab'
loop_
_symmetry_equiv_pos_site_id
_symmetry_equiv_pos_as_xyz
1 x,y,z
2 1/2+x,1/2-y,-z
3 -x,y,1/2-z
4 1/2-x,1/2-y,1/2+z
5 -x,-y,-z
6 1/2-x,1/2+y,z
7 x,-y,1/2+z
8 1/2+x,1/2+y,1/2-z
_cell_length_a                   15.095(3)
_cell_length_b                   6.7677(12)
_cell_length_c                   13.289(2)
_cell_angle_alpha                90
_cell_angle_beta                 90
_cell_angle_gamma                90
_cell_volume                     1357.58
_exptl_crystal_colour            colorless
_exptl_crystal_description       block
_cell_formula_units_Z            4
loop_
_atom_site_label
_atom_site_type_symbol
_atom_site_fract_x
_atom_site_fract_y
_atom_site_fract_z
N1 N 0.84503(11) -0.0007(3) 0.16352(12)
H1 H 0.8933 -0.0136 0.1973
H2 H 0.8471 0.0265 0.1003
N2 N 0.68812(9) -0.0092(2) 0.16336(10)
N3 N 0.75104(10) -0.0643(2) 0.30470(11)
H3 H 0.7913 -0.0805 0.3498
N4 N 0.68046(11) 0.0381(2) 0.06094(10)
H4 H 0.6637 -0.0645 0.0276
H5 H 0.6419 0.1308 0.0536
C1 C 0.76781(12) -0.0226(2) 0.20860(13)
C2 C 0.62415(12) -0.0462(2) 0.23587(13)
C3 C 0.53045(12) -0.0480(3) 0.21429(14)
H6 H 0.5122 -0.0493 0.1474
N5 N 0.66153(11) -0.0785(2) 0.32316(11)
N1B N 0.15497(11) -0.0007(3) 0.33648(12)
H1B H 0.1067 -0.0136 0.3027
H2B H 0.1529 0.0265 0.3997
N2B N 0.31188(9) -0.0092(2) 0.33664(10)
N3B N 0.24896(10) -0.0643(2) 0.19530(11)
H3B H 0.2087 -0.0805 0.1502
N4B N 0.31954(11) 0.0381(2) 0.43906(10)
H4B H 0.3363 -0.0645 0.4724
H5B H 0.3581 0.1308 0.4464
C1B C 0.23219(12) -0.0226(2) 0.29140(13)
C2B C 0.37585(12) -0.0462(2) 0.26413(13)
C3B C 0.46955(12) -0.0480(3) 0.28571(14)
H6B H 0.4878 -0.0493 0.3526
N5B N 0.33847(11) -0.0785(2) 0.17684(11)
O1 O 0.53939(11) 0.4127(3) 0.34264(10)
O2 O 0.49860(9) 0.2698(2) 0.48035(11)
O3 O 0.63587(9) 0.3517(2) 0.45879(9)
N6 N 0.55626(10) 0.3454(2) 0.42700(11)
loop_
_geom_bond_atom_site_label_1
_geom_bond_atom_site_label_2
_geom_bond_site_symmetry_1
_geom_bond_site_symmetry_2
N1 H1 1_555 1_555
H2 N1 1_555 1_555
N2 N4 1_555 1_555
N3 H3 1_555 1_555
N4 H4 1_555 1_555
H5 N4 1_555 1_555
C1 N1 1_555 1_555
C2 N2 1_555 1_555
C3 C2 1_555 1_555
H6 C3 1_555 1_555
N5 N3 1_555 1_555
O1 N6 1_555 1_555
O2 N6 1_555 1_555
O3 N6 1_555 1_555
N1B H1B 1_555 1_555
H2B N1B 1_555 1_555
N2B N4B 1_555 1_555
N3B H3B 1_555 1_555
N4B H4B 1_555 1_555
H5B N4B 1_555 1_555
C1B N1B 1_555 1_555
C2B N2B 1_555 1_555
C3B C3 1_555 1_555
H6B C3B 1_555 1_555
N5B N3B 1_555 1_555
N2 C1 1_555 1_555
N3 C1 1_555 1_555
C2 N5 1_555 1_555
N2B C1B 1_555 1_555
N3B C1B 1_555 1_555
C2B C3B 1_555 1_555
C2B N5B 1_555 1_555

#END
