
#######################################################################
#
#                 Cambridge Crystallographic Data Centre
#                                CCDC 
#
#######################################################################
#
# If this CIF has been generated from an entry in the Cambridge 
# Structural Database, then it will include bibliographic, chemical, 
# crystal, experimental, refinement or atomic coordinate data resulting 
# from the CCDC's data processing and validation procedures.
#
#######################################################################

data_RAVSOX
_chemical_compound_source        
'Salvia miltiorrhiza Bunge and Salvia przewalskii Maxim (Labiatae)'
_chemical_name_common            cryptotanshinone
_chemical_formula_moiety         'C19 H20 O3'
_chemical_name_systematic        
1,6,6-Trimethyl-1,2,6,7,8,9-hexahydrophenanthro(1,2-b)furan-10,11-dione
_chemical_properties_biological  
'used to treat angina pectoris and myocardial infarction in China'
_symmetry_cell_setting           orthorhombic
_symmetry_space_group_name_H-M   'P 21 21 2'
_symmetry_Int_Tables_number      18
_space_group_name_Hall           'P 2 2ab'
loop_
_symmetry_equiv_pos_site_id
_symmetry_equiv_pos_as_xyz
1 x,y,z
2 -x,-y,z
3 1/2-x,1/2+y,-z
4 1/2+x,1/2-y,-z
_cell_length_a                   14.458(3)
_cell_length_b                   21.356(4)
_cell_length_c                   9.874(2)
_cell_angle_alpha                90
_cell_angle_beta                 90
_cell_angle_gamma                90
_cell_volume                     3048.75
_exptl_crystal_colour            orange
_exptl_crystal_description       Plate
_chemical_melting_point          '460.2 K'
_cell_formula_units_Z            8
_exptl_crystal_recrystallization_method methanol
loop_
_atom_site_label
_atom_site_type_symbol
_atom_site_fract_x
_atom_site_fract_y
_atom_site_fract_z
O1 O 0.87137(19) 1.00832(10) 0.2624(2)
O2 O 0.90714(18) 1.08203(9) 0.7756(2)
O3 O 0.8790(2) 1.16690(9) 0.5785(3)
C1 C 0.7585(3) 0.79976(16) 0.7912(5)
H1 H 0.7478 0.7857 0.7002
H2 H 0.7114 0.8292 0.8166
H3 H 0.7569 0.7646 0.8517
C2 C 0.9283(3) 0.78243(15) 0.7692(5)
H4 H 0.9188 0.7652 0.6805
H5 H 0.9256 0.7495 0.8353
H6 H 0.9878 0.8023 0.7730
C3 C 0.8525(2) 0.83106(13) 0.7995(4)
C4 C 0.8728(3) 0.85530(16) 0.9435(4)
H7 H 0.8523 0.8243 1.0086
H8 H 0.9391 0.8602 0.9541
C5 C 0.8274(3) 0.91526(16) 0.9738(4)
H9 H 0.8384 0.9262 1.0678
H10 H 0.7612 0.9111 0.9608
C6 C 0.8640(3) 0.96649(14) 0.8836(3)
H11 H 0.9260 0.9774 0.9125
H12 H 0.8254 1.0034 0.8942
C7 C 0.86645(18) 0.94856(12) 0.7356(3)
C8 C 0.85864(19) 0.88477(12) 0.6973(3)
C9 C 0.8555(2) 0.87038(12) 0.5608(3)
H13 H 0.8490 0.8286 0.5360
C10 C 0.8614(2) 0.91450(12) 0.4600(3)
H14 H 0.8589 0.9028 0.3693
C11 C 0.8712(2) 0.97691(12) 0.4965(3)
C12 C 0.8749(2) 1.02556(13) 0.3934(3)
C13 C 0.87488(18) 0.99414(12) 0.6333(3)
C14 C 0.88794(19) 1.06275(12) 0.6644(3)
C15 C 0.8813(2) 1.11134(12) 0.5476(3)
C16 C 0.8785(2) 1.08752(12) 0.4132(3)
C17 C 0.8720(3) 1.12087(15) 0.2798(4)
H15 H 0.8104 1.1397 0.2721
C18 C 0.9440(3) 1.17106(18) 0.2544(5)
H16 H 0.9360 1.2044 0.3186
H17 H 0.9368 1.1872 0.1642
H18 H 1.0046 1.1534 0.2642
C19 C 0.8778(4) 1.06611(17) 0.1834(4)
H19 H 0.8276 1.0681 0.1183
H20 H 0.9359 1.0673 0.1344
O4 O 0.89413(15) 0.36548(8) 0.4585(2)
O5 O 0.85608(18) 0.58846(10) 0.6978(2)
O6 O 0.8791(2) 0.48509(11) 0.8459(2)
C20 C 0.7971(3) 0.6300(2) 0.0532(5)
H21 H 0.8064 0.5920 0.0030
H22 H 0.7985 0.6651 -0.0075
H23 H 0.7382 0.6285 0.0980
C21 C 0.9633(3) 0.6368(2) 0.0785(6)
H24 H 0.9708 0.5971 0.0341
H25 H 1.0141 0.6436 0.1393
H26 H 0.9620 0.6696 0.0119
C22 C 0.8731(2) 0.63695(13) 0.1577(3)
C23 C 0.8410(6) 0.6974(3) 0.2320(8)
H27 H 0.8505 0.7333 0.1736
H28 H 0.7755 0.6944 0.2519
C24 C 0.8945(7) 0.7062(3) 0.3624(6)
H29 H 0.8815 0.7471 0.4009
H30 H 0.9604 0.7031 0.3455
C27 C 0.8637(3) 0.65498(12) 0.4585(3)
H35 H 0.9019 0.6566 0.5392
H36 H 0.8004 0.6631 0.4857
C28 C 0.86932(19) 0.59014(11) 0.3991(3)
C29 C 0.87235(19) 0.58157(12) 0.2578(3)
C30 C 0.8763(2) 0.52137(12) 0.2052(3)
H39 H 0.8766 0.5159 0.1117
C31 C 0.8798(2) 0.46961(12) 0.2876(3)
H40 H 0.8831 0.4298 0.2499
C32 C 0.87851(18) 0.47673(11) 0.4262(3)
C33 C 0.88620(18) 0.42247(12) 0.5161(3)
C34 C 0.87149(18) 0.53666(12) 0.4848(3)
C35 C 0.8676(2) 0.53998(12) 0.6358(3)
C36 C 0.8794(2) 0.47976(14) 0.7229(3)
C37 C 0.88841(19) 0.42228(13) 0.6515(3)
C38 C 0.9037(2) 0.35655(14) 0.7008(4)
H41 H 0.9681 0.3522 0.7302
C39 C 0.8407(3) 0.33347(18) 0.8133(4)
H42 H 0.8514 0.3577 0.8937
H43 H 0.8536 0.2902 0.8315
H44 H 0.7774 0.3379 0.7858
C40 C 0.8905(3) 0.32022(13) 0.5693(4)
H45 H 0.9390 0.2892 0.5589
H46 H 0.8313 0.2989 0.5697
C25? C 0.9006(11) 0.6972(5) 0.2264(11)
H31? H 0.8919 0.7322 0.1653
H32? H 0.9652 0.6956 0.2526
C26? C 0.8397(10) 0.7050(6) 0.3515(13)
H33? H 0.7751 0.7010 0.3260
H34? H 0.8488 0.7464 0.3896
H37? H 0.8152 0.6552 0.5249
H38? H 0.9207 0.6635 0.5051
loop_
_geom_bond_atom_site_label_1
_geom_bond_atom_site_label_2
_geom_bond_site_symmetry_1
_geom_bond_site_symmetry_2
O1 C12 1_555 1_555
O2 C14 1_555 1_555
O3 C15 1_555 1_555
O4 C33 1_555 1_555
O5 C35 1_555 1_555
O6 C36 1_555 1_555
C1 H1 1_555 1_555
H2 C1 1_555 1_555
H3 C1 1_555 1_555
C2 H4 1_555 1_555
H5 C2 1_555 1_555
H6 C2 1_555 1_555
C3 C1 1_555 1_555
C4 C3 1_555 1_555
H7 C4 1_555 1_555
H8 C4 1_555 1_555
C5 C4 1_555 1_555
H9 C5 1_555 1_555
H10 C5 1_555 1_555
C6 C5 1_555 1_555
H11 C6 1_555 1_555
H12 C6 1_555 1_555
C7 C6 1_555 1_555
C8 C3 1_555 1_555
C9 C8 1_555 1_555
H13 C9 1_555 1_555
C10 C9 1_555 1_555
H14 C10 1_555 1_555
C11 C10 1_555 1_555
C12 C11 1_555 1_555
C13 C7 1_555 1_555
C14 C13 1_555 1_555
C15 C14 1_555 1_555
C16 C12 1_555 1_555
C17 C16 1_555 1_555
H15 C17 1_555 1_555
C18 C17 1_555 1_555
H16 C18 1_555 1_555
H17 C18 1_555 1_555
H18 C18 1_555 1_555
C19 O1 1_555 1_555
H19 C19 1_555 1_555
H20 C19 1_555 1_555
C20 H21 1_555 1_555
H22 C20 1_555 1_555
H23 C20 1_555 1_555
C21 H24 1_555 1_555
H25 C21 1_555 1_555
H26 C21 1_555 1_555
C22 C20 1_555 1_555
C23 C22 1_555 1_555
H27 C23 1_555 1_555
H28 C23 1_555 1_555
C24 C23 1_555 1_555
H29 C24 1_555 1_555
H30 C24 1_555 1_555
C27 C24 1_555 1_555
H35 C27 1_555 1_555
H36 C27 1_555 1_555
C28 C27 1_555 1_555
C29 C22 1_555 1_555
C30 C29 1_555 1_555
H39 C30 1_555 1_555
C31 C30 1_555 1_555
H40 C31 1_555 1_555
C32 C31 1_555 1_555
C33 C32 1_555 1_555
C34 C28 1_555 1_555
C35 C34 1_555 1_555
C36 C35 1_555 1_555
C37 C33 1_555 1_555
C38 C37 1_555 1_555
H41 C38 1_555 1_555
C39 C38 1_555 1_555
H42 C39 1_555 1_555
H43 C39 1_555 1_555
H44 C39 1_555 1_555
C40 O4 1_555 1_555
H45 C40 1_555 1_555
H46 C40 1_555 1_555
C2 C3 1_555 1_555
C7 C8 1_555 1_555
C11 C13 1_555 1_555
C15 C16 1_555 1_555
C17 C19 1_555 1_555
C21 C22 1_555 1_555
C28 C29 1_555 1_555
C32 C34 1_555 1_555
C36 C37 1_555 1_555
C38 C40 1_555 1_555

#END
