
#######################################################################
#
#                 Cambridge Crystallographic Data Centre
#                                CCDC 
#
#######################################################################
#
# If this CIF has been generated from an entry in the Cambridge 
# Structural Database, then it will include bibliographic, chemical, 
# crystal, experimental, refinement or atomic coordinate data resulting 
# from the CCDC's data processing and validation procedures.
#
#######################################################################

data_RAVTUF
_chemical_compound_source        'Dried roots of Euphorbia prolifera'
_chemical_name_common            'Euphorbialoid I hemihydrate'
_chemical_formula_moiety         'C44 H51 N1 O15,0.5(H2 O1)'
_chemical_name_systematic        
'2,7,14-Triacetoxy-11-(2-acetoxypropan-2-yl)-8-(benzoyloxy)-5,9-dimethyl-4-(propionyloxy)-16-oxatetracyclo[7.5.2.0^1,10^.0^3,7^]hexadec-12-en-5-yl nicotinate hemihydrate'
_symmetry_cell_setting           orthorhombic
_symmetry_space_group_name_H-M   'P 21 21 21'
_symmetry_Int_Tables_number      19
_space_group_name_Hall           'P 2ac 2ab'
loop_
_symmetry_equiv_pos_site_id
_symmetry_equiv_pos_as_xyz
1 x,y,z
2 1/2+x,1/2-y,-z
3 -x,1/2+y,1/2-z
4 1/2-x,-y,1/2+z
_cell_length_a                   10.3731(9)
_cell_length_b                   12.8650(12)
_cell_length_c                   32.356(3)
_cell_angle_alpha                90
_cell_angle_beta                 90
_cell_angle_gamma                90
_cell_volume                     4317.91
_exptl_crystal_colour            colorless
_exptl_crystal_description       prism
_cell_formula_units_Z            4
loop_
_atom_site_label
_atom_site_type_symbol
_atom_site_fract_x
_atom_site_fract_y
_atom_site_fract_z
O1 O 0.16041(10) 0.29622(8) 0.21569(3)
O2 O 0.25357(12) 0.26678(11) 0.27788(4)
O3 O 0.31108(11) 0.21724(8) 0.12060(4)
O4 O 0.13576(13) 0.13253(11) 0.09708(5)
O5 O 0.15838(11) 0.42362(9) 0.08592(4)
O6 O 0.23298(13) 0.31364(10) 0.03705(4)
O7 O 0.36537(12) 0.52934(9) 0.03079(4)
O8 O 0.20903(14) 0.52907(11) -0.01756(4)
O9 O 0.70375(11) 0.61558(9) 0.12699(4)
O10 O 0.90286(14) 0.59161(17) 0.10048(5)
O11 O 0.26718(10) 0.60876(8) 0.17058(3)
O12 O 0.35796(10) 0.49593(9) 0.22854(3)
O13 O 0.52254(11) 0.46482(10) 0.27264(4)
O14 O 0.50914(10) 0.36890(8) 0.13913(3)
O15 O 0.66856(11) 0.34305(10) 0.18570(4)
N1 N -0.07495(14) 0.36018(11) 0.33931(5)
C1 C 0.39811(15) 0.29450(12) 0.19973(5)
H1 H 0.4667 0.2431 0.1938
H2 H 0.4065 0.3171 0.2289
C2 C 0.26490(15) 0.24634(12) 0.19230(5)
C3 C 0.23351(15) 0.27947(11) 0.14797(5)
H3 H 0.1394 0.2738 0.1416
C4 C 0.28130(14) 0.39168(11) 0.14645(5)
H4 H 0.2199 0.4341 0.1633
C5 C 0.28557(14) 0.44049(11) 0.10341(5)
H5 H 0.3517 0.4042 0.0862
C6 C 0.30917(15) 0.55972(11) 0.10192(5)
C7 C 0.28985(17) 0.59735(12) 0.05741(5)
H6 H 0.1966 0.5922 0.0498
C8 C 0.3357(2) 0.70619(13) 0.05086(6)
H7 H 0.2931 0.7487 0.0311
C9 C 0.4337(2) 0.74494(13) 0.07179(6)
H8 H 0.4592 0.8142 0.0657
C10 C 0.64827(18) 0.66483(13) 0.08992(6)
C11 C 0.50831(17) 0.68779(12) 0.10459(5)
H9 H 0.5163 0.7369 0.1284
C12 C 0.44084(15) 0.58887(11) 0.12185(5)
H10 H 0.5008 0.5288 0.1180
C13 C 0.40545(14) 0.59522(11) 0.16897(5)
C14 C 0.43881(14) 0.49283(11) 0.19229(5)
H11 H 0.5314 0.4945 0.2009
C15 C 0.41029(14) 0.38893(11) 0.17039(5)
C16 C 0.25959(17) 0.12977(12) 0.19987(6)
H12 H 0.2786 0.1154 0.2290
H13 H 0.3235 0.0949 0.1824
H14 H 0.1733 0.1038 0.1931
C17 C 0.21468(16) 0.61665(12) 0.13005(5)
H15 H 0.2066 0.6904 0.1217
H16 H 0.1284 0.5838 0.1288
C18 C 0.7202(2) 0.76563(17) 0.08161(8)
H17 H 0.7160 0.8101 0.1062
H18 H 0.6804 0.8016 0.0582
H19 H 0.8105 0.7502 0.0751
C19 C 0.65456(19) 0.59198(15) 0.05310(6)
H20 H 0.7449 0.5781 0.0462
H21 H 0.6115 0.6243 0.0294
H22 H 0.6113 0.5265 0.0600
C20 C 0.46405(16) 0.68398(12) 0.19372(5)
H23 H 0.4336 0.7505 0.1826
H24 H 0.5582 0.6809 0.1917
H25 H 0.4381 0.6778 0.2227
C21 C 0.16207(15) 0.29390(12) 0.25734(5)
C22 C 0.03742(15) 0.32582(11) 0.27585(5)
C23 C -0.07503(15) 0.34055(12) 0.25322(5)
H26 H -0.0750 0.3340 0.2240
C24 C -0.18681(16) 0.36502(13) 0.27431(6)
H27 H -0.2654 0.3758 0.2599
C25 C -0.18176(16) 0.37340(12) 0.31683(6)
H28 H -0.2593 0.3896 0.3310
C26 C 0.03209(17) 0.33658(13) 0.31854(6)
H29 H 0.1093 0.3265 0.3338
C27 C 0.25129(18) 0.14488(13) 0.09724(6)
C28 C 0.3486(2) 0.08502(16) 0.07253(7)
H30 H 0.4064 0.1349 0.0584
H31 H 0.4021 0.0433 0.0917
C29 C 0.2914(3) 0.01418(18) 0.04098(8)
H32 H 0.2335 -0.0353 0.0546
H33 H 0.3604 -0.0238 0.0268
H34 H 0.2427 0.0551 0.0208
C30 C 0.14603(17) 0.36021(13) 0.05275(5)
C31 C 0.0084(2) 0.35649(19) 0.03936(7)
H35 H 0.0041 0.3385 0.0100
H36 H -0.0315 0.4246 0.0438
H37 H -0.0376 0.3039 0.0555
C32 C 0.31349(19) 0.50224(13) -0.00584(5)
C33 C 0.4053(2) 0.43555(19) -0.02948(7)
H38 H 0.3574 0.3807 -0.0439
H39 H 0.4672 0.4039 -0.0104
H40 H 0.4515 0.4782 -0.0497
C34 C 0.82862(17) 0.58858(15) 0.12890(6)
C35 C 0.86488(18) 0.55225(15) 0.17132(7)
H41 H 0.9110 0.4859 0.1693
H42 H 0.7868 0.5429 0.1879
H43 H 0.9207 0.6041 0.1845
C36 C 0.41283(15) 0.49136(12) 0.26628(5)
C37 C 0.31862(15) 0.52306(11) 0.29823(5)
C38 C 0.20691(16) 0.57645(12) 0.28791(5)
H44 H 0.1892 0.5930 0.2599
C39 C 0.12108(18) 0.60565(14) 0.31873(6)
H45 H 0.0451 0.6431 0.3118
C40 C 0.1464(2) 0.58016(14) 0.35952(6)
H46 H 0.0861 0.5980 0.3804
C41 C 0.2595(2) 0.52869(14) 0.37004(6)
H47 H 0.2775 0.5131 0.3982
C42 C 0.34574(18) 0.50016(13) 0.33954(5)
H48 H 0.4232 0.4651 0.3466
C43 C 0.63088(15) 0.34527(12) 0.15049(5)
C44 C 0.71112(18) 0.32327(15) 0.11321(6)
H49 H 0.7986 0.3043 0.1218
H50 H 0.7146 0.3853 0.0957
H51 H 0.6729 0.2657 0.0976
O16 O 0.0432(4) 0.8256(4) 0.07085(14)
loop_
_geom_bond_atom_site_label_1
_geom_bond_atom_site_label_2
_geom_bond_site_symmetry_1
_geom_bond_site_symmetry_2
O1 C2 1_555 1_555
O2 C21 1_555 1_555
O3 C3 1_555 1_555
O4 C27 1_555 1_555
O5 C5 1_555 1_555
O6 C30 1_555 1_555
O7 C7 1_555 1_555
O8 C32 1_555 1_555
O9 C10 1_555 1_555
O10 C34 1_555 1_555
O11 C13 1_555 1_555
O12 C14 1_555 1_555
O13 C36 1_555 1_555
O14 C15 1_555 1_555
O15 C43 1_555 1_555
N1 C25 1_555 1_555
C1 H1 1_555 1_555
H2 C1 1_555 1_555
C2 C1 1_555 1_555
C3 C2 1_555 1_555
H3 C3 1_555 1_555
C4 C3 1_555 1_555
H4 C4 1_555 1_555
C5 C4 1_555 1_555
H5 C5 1_555 1_555
C6 C5 1_555 1_555
C7 C6 1_555 1_555
H6 C7 1_555 1_555
C8 C7 1_555 1_555
H7 C8 1_555 1_555
C9 C8 1_555 1_555
H8 C9 1_555 1_555
C10 C11 1_555 1_555
C11 C9 1_555 1_555
H9 C11 1_555 1_555
C12 C6 1_555 1_555
H10 C12 1_555 1_555
C13 C12 1_555 1_555
C14 C13 1_555 1_555
H11 C14 1_555 1_555
C15 C1 1_555 1_555
C16 C2 1_555 1_555
H12 C16 1_555 1_555
H13 C16 1_555 1_555
H14 C16 1_555 1_555
C17 O11 1_555 1_555
H15 C17 1_555 1_555
H16 C17 1_555 1_555
C18 C10 1_555 1_555
H17 C18 1_555 1_555
H18 C18 1_555 1_555
H19 C18 1_555 1_555
C19 C10 1_555 1_555
H20 C19 1_555 1_555
H21 C19 1_555 1_555
H22 C19 1_555 1_555
C20 C13 1_555 1_555
H23 C20 1_555 1_555
H24 C20 1_555 1_555
H25 C20 1_555 1_555
C21 O1 1_555 1_555
C22 C21 1_555 1_555
C23 C22 1_555 1_555
H26 C23 1_555 1_555
C24 C23 1_555 1_555
H27 C24 1_555 1_555
C25 C24 1_555 1_555
H28 C25 1_555 1_555
C26 N1 1_555 1_555
H29 C26 1_555 1_555
C27 O3 1_555 1_555
C28 C27 1_555 1_555
H30 C28 1_555 1_555
H31 C28 1_555 1_555
C29 C28 1_555 1_555
H32 C29 1_555 1_555
H33 C29 1_555 1_555
H34 C29 1_555 1_555
C30 O5 1_555 1_555
C31 C30 1_555 1_555
H35 C31 1_555 1_555
H36 C31 1_555 1_555
H37 C31 1_555 1_555
C32 O7 1_555 1_555
C33 C32 1_555 1_555
H38 C33 1_555 1_555
H39 C33 1_555 1_555
H40 C33 1_555 1_555
C34 O9 1_555 1_555
C35 C34 1_555 1_555
H41 C35 1_555 1_555
H42 C35 1_555 1_555
H43 C35 1_555 1_555
C36 O12 1_555 1_555
C37 C36 1_555 1_555
C38 C37 1_555 1_555
H44 C38 1_555 1_555
C39 C38 1_555 1_555
H45 C39 1_555 1_555
C40 C39 1_555 1_555
H46 C40 1_555 1_555
C41 C40 1_555 1_555
H47 C41 1_555 1_555
C42 C37 1_555 1_555
H48 C42 1_555 1_555
C43 O14 1_555 1_555
C44 C43 1_555 1_555
H49 C44 1_555 1_555
H50 C44 1_555 1_555
H51 C44 1_555 1_555
C4 C15 1_555 1_555
C6 C17 1_555 1_555
C11 C12 1_555 1_555
C14 C15 1_555 1_555
C22 C26 1_555 1_555
C41 C42 1_555 1_555

#END
