
#######################################################################
#
#                 Cambridge Crystallographic Data Centre
#                                CCDC 
#
#######################################################################
#
# If this CIF has been generated from an entry in the Cambridge 
# Structural Database, then it will include bibliographic, chemical, 
# crystal, experimental, refinement or atomic coordinate data resulting 
# from the CCDC's data processing and validation procedures.
#
#######################################################################

data_RAVWUG
_chemical_compound_source        'Ajuga lupulina (Labiatae)'
_chemical_name_common            
'3-Deoxy-14,15-dihydro-2-hydroxy-15-methoxycaryoptinol 2-methylbutanoate'
_chemical_formula_moiety         'C30 H46 O11'
_chemical_name_systematic        2\b-Hydroxy-2-methylbutanoyl-3\a-lupulin
_chemical_properties_biological  
'antibacterial activity against Pseudomonas aeruginose and Escherichia coli'
_symmetry_cell_setting           orthorhombic
_symmetry_space_group_name_H-M   'P 21 21 21'
_symmetry_Int_Tables_number      19
_space_group_name_Hall           'P 2ac 2ab'
loop_
_symmetry_equiv_pos_site_id
_symmetry_equiv_pos_as_xyz
1 x,y,z
2 1/2-x,-y,1/2+z
3 1/2+x,1/2-y,-z
4 -x,1/2+y,1/2-z
_cell_length_a                   10.750(2)
_cell_length_b                   26.735(6)
_cell_length_c                   10.533(1)
_cell_angle_alpha                90
_cell_angle_beta                 90
_cell_angle_gamma                90
_cell_volume                     3027.2
_exptl_crystal_colour            colorless
_chemical_melting_point          445-447K
_cell_formula_units_Z            4
loop_
_atom_site_label
_atom_site_type_symbol
_atom_site_fract_x
_atom_site_fract_y
_atom_site_fract_z
O1 O 0.7144(1) 0.5451(1) 0.4550(1)
O2 O 0.5602(1) 0.5955(1) 0.3615(1)
O3 O 0.5193(1) 0.8345(1) 0.3536(1)
O4 O 0.9046(1) 0.7640(1) 0.2018(1)
O5 O 0.8661(1) 0.5711(1) 0.3099(1)
O6 O 0.2324(1) 0.7893(1) 0.4475(2)
O7 O 0.2998(1) 0.7878(1) 0.2479(1)
O8 O 0.4867(1) 0.8266(1) 0.0891(1)
O9 O 0.5137(1) 0.8294(1) -0.1199(1)
O10 O 0.7728(1) 0.8400(1) 0.3229(1)
O11 O 0.7630(1) 0.8922(1) 0.1567(1)
C1 C 0.8107(1) 0.5303(1) 0.3715(1)
C2 C 0.7491(1) 0.4978(1) 0.2745(1)
C3 C 0.6175(1) 0.5192(1) 0.2636(1)
C4 C 0.5991(1) 0.5467(1) 0.3883(1)
C5 C 0.5967(1) 0.5593(1) 0.1611(1)
C6 C 0.5997(1) 0.6091(1) 0.2360(1)
C7 C 0.5225(1) 0.6545(1) 0.1859(1)
C8 C 0.5854(1) 0.7031(1) 0.2391(1)
C9 C 0.7187(1) 0.7117(1) 0.1922(1)
C10 C 0.7872(1) 0.7537(1) 0.2592(1)
C11 C 0.7113(1) 0.8015(1) 0.2504(1)
C12 C 0.5831(1) 0.7918(1) 0.3040(1)
C13 C 0.5089(1) 0.7538(1) 0.2237(1)
C14 C 0.3773(1) 0.7445(1) 0.2739(1)
C15 C 0.3162(1) 0.6996(1) 0.2129(1)
C16 C 0.3876(1) 0.6516(1) 0.2374(1)
C17 C 0.9196(1) 0.6075(1) 0.3927(1)
C18 C 0.5271(1) 0.6534(1) 0.0401(1)
C19 C 0.3113(1) 0.6069(1) 0.1936(1)
C20 C 0.5652(1) 0.7973(1) 0.4426(1)
C21 C 0.2338(1) 0.8064(1) 0.3433(1)
C22 C 0.1616(1) 0.8515(1) 0.3044(1)
C23 C 0.5009(1) 0.7727(1) 0.0860(1)
C24 C 0.4969(1) 0.8505(1) -0.0215(1)
C25 C 0.4830(1) 0.9053(1) -0.0057(2)
C26 C 0.7912(1) 0.8842(1) 0.2647(1)
C27 C 0.8471(1) 0.9217(1) 0.3558(1)
C28 C 0.9230(1) 0.9598(1) 0.2828(1)
C29 C 0.7587(1) 0.9387(1) 0.4489(1)
C30 C 0.6561(1) 0.9640(1) 0.3945(1)
H1 H 0.9378 0.7368 0.1773
H2 H 0.8725 0.5116 0.4173
H3 H 0.7920 0.5007 0.1949
H4 H 0.7482 0.4634 0.3002
H5 H 0.5577 0.4928 0.2544
H6 H 0.5365 0.5301 0.4377
H7 H 0.6625 0.5583 0.0995
H8 H 0.5185 0.5551 0.1184
H9 H 0.6850 0.6194 0.2423
H10 H 0.5928 0.6978 0.3289
H11 H 0.7649 0.6812 0.2026
H12 H 0.7161 0.7193 0.1032
H13 H 0.7991 0.7450 0.3468
H14 H 0.7048 0.8117 0.1633
H15 H 0.3812 0.7391 0.3639
H16 H 0.2330 0.6963 0.2448
H17 H 0.3112 0.7050 0.1229
H18 H 0.3941 0.6487 0.3280
H19 H 0.9553 0.6343 0.3443
H20 H 0.9831 0.5918 0.4428
H21 H 0.8561 0.6205 0.4475
H22 H 0.6119 0.6554 0.0121
H23 H 0.4812 0.6813 0.0071
H24 H 0.4906 0.6228 0.0101
H25 H 0.2298 0.6085 0.2306
H26 H 0.3514 0.5764 0.2196
H27 H 0.3045 0.6075 0.1028
H28 H 0.6368 0.8059 0.4925
H29 H 0.5062 0.7759 0.4840
H30 H 0.1157 0.8639 0.3759
H31 H 0.1048 0.8425 0.2378
H32 H 0.2171 0.8770 0.2743
H33 H 0.4305 0.7578 0.0447
H34 H 0.5747 0.7635 0.0401
H35 H 0.4900 0.9215 -0.0867
H36 H 0.5473 0.9172 0.0498
H37 H 0.4031 0.9126 0.0306
H38 H 0.9067 0.9031 0.4045
H39 H 0.9593 0.9834 0.3405
H40 H 0.8695 0.9770 0.2244
H41 H 0.9877 0.9430 0.2366
H42 H 0.7917 0.9663 0.4965
H44 H 0.7323 0.9128 0.5059
H45 H 0.6043 0.9738 0.4644
H46 H 0.6098 0.9426 0.3385
H47 H 0.6829 0.9932 0.3491
C31? C 0.7437(1) 0.9883(1) 0.4952(1)
H43? H 0.6889 0.9505 0.4006
H48? H 0.6692 0.9893 0.5454
H49? H 0.7409 1.0144 0.4326
H50? H 0.8147 0.9931 0.5490
loop_
_geom_bond_atom_site_label_1
_geom_bond_atom_site_label_2
_geom_bond_site_symmetry_1
_geom_bond_site_symmetry_2
O1 C1 1_555 1_555
O2 C4 1_555 1_555
O3 C12 1_555 1_555
O4 C10 1_555 1_555
O5 C1 1_555 1_555
O6 C21 1_555 1_555
O7 C14 1_555 1_555
O8 C23 1_555 1_555
O9 C24 1_555 1_555
O10 C11 1_555 1_555
O11 C26 1_555 1_555
C1 C2 1_555 1_555
C2 C3 1_555 1_555
C3 C4 1_555 1_555
C4 O1 1_555 1_555
C5 C3 1_555 1_555
C6 O2 1_555 1_555
C7 C6 1_555 1_555
C8 C7 1_555 1_555
C9 C8 1_555 1_555
C10 C9 1_555 1_555
C11 C10 1_555 1_555
C12 C11 1_555 1_555
C13 C8 1_555 1_555
C14 C13 1_555 1_555
C15 C14 1_555 1_555
C16 C7 1_555 1_555
C17 O5 1_555 1_555
C18 C7 1_555 1_555
C19 C16 1_555 1_555
C20 O3 1_555 1_555
C21 O7 1_555 1_555
C22 C21 1_555 1_555
C23 C13 1_555 1_555
C24 O8 1_555 1_555
C25 C24 1_555 1_555
C26 O10 1_555 1_555
C27 C26 1_555 1_555
C28 C27 1_555 1_555
C29 C27 1_555 1_555
C30 C29 1_555 1_555
H1 O4 1_555 1_555
H2 C1 1_555 1_555
H3 C2 1_555 1_555
H4 C2 1_555 1_555
H5 C3 1_555 1_555
H6 C4 1_555 1_555
H7 C5 1_555 1_555
H8 C5 1_555 1_555
H9 C6 1_555 1_555
H10 C8 1_555 1_555
H11 C9 1_555 1_555
H12 C9 1_555 1_555
H13 C10 1_555 1_555
H14 C11 1_555 1_555
H15 C14 1_555 1_555
H16 C15 1_555 1_555
H17 C15 1_555 1_555
H18 C16 1_555 1_555
H19 C17 1_555 1_555
H20 C17 1_555 1_555
H21 C17 1_555 1_555
H22 C18 1_555 1_555
H23 C18 1_555 1_555
H24 C18 1_555 1_555
H25 C19 1_555 1_555
H26 C19 1_555 1_555
H27 C19 1_555 1_555
H28 C20 1_555 1_555
H29 C20 1_555 1_555
H30 C22 1_555 1_555
H31 C22 1_555 1_555
H32 C22 1_555 1_555
H33 C23 1_555 1_555
H34 C23 1_555 1_555
H35 C25 1_555 1_555
H36 C25 1_555 1_555
H37 C25 1_555 1_555
H38 C27 1_555 1_555
H39 C28 1_555 1_555
H40 C28 1_555 1_555
H41 C28 1_555 1_555
H42 C29 1_555 1_555
H44 C29 1_555 1_555
H45 C30 1_555 1_555
H46 C30 1_555 1_555
H47 C30 1_555 1_555
C5 C6 1_555 1_555
C12 C13 1_555 1_555
C12 C20 1_555 1_555
C15 C16 1_555 1_555

#END
