
#######################################################################
#
#                 Cambridge Crystallographic Data Centre
#                                CCDC 
#
#######################################################################
#
# If this CIF has been generated from an entry in the Cambridge 
# Structural Database, then it will include bibliographic, chemical, 
# crystal, experimental, refinement or atomic coordinate data resulting 
# from the CCDC's data processing and validation procedures.
#
#######################################################################

data_RAVXAQ
_chemical_formula_moiety         'C22 H33 B2 Br1 O4'
_chemical_name_systematic        
2-(2-(4-bromophenyl)-3-(4,4,5,5-tetramethyl-1,3,2-dioxaborolan-2-yl)but-3-en-2-yl)-4,4,5,5-tetramethyl-1,3,2-dioxaborolane
_symmetry_cell_setting           monoclinic
_symmetry_space_group_name_H-M   'P 21'
_symmetry_Int_Tables_number      4
_space_group_name_Hall           'P 2yb'
loop_
_symmetry_equiv_pos_site_id
_symmetry_equiv_pos_as_xyz
1 x,y,z
2 -x,1/2+y,-z
_cell_length_a                   11.1006(17)
_cell_length_b                   6.9951(10)
_cell_length_c                   30.827(5)
_cell_angle_alpha                90
_cell_angle_beta                 94.930(3)
_cell_angle_gamma                90
_cell_volume                     2384.85
_exptl_crystal_colour            colorless
_exptl_crystal_description       block
_cell_formula_units_Z            4
loop_
_atom_site_label
_atom_site_type_symbol
_atom_site_fract_x
_atom_site_fract_y
_atom_site_fract_z
Br1 Br 0.60334(4) 0.23567(8) 0.33605(2)
O1 O 0.9440(3) 0.4373(4) 0.15453(9)
O2 O 0.8628(3) 0.1439(4) 0.13768(9)
O3 O 0.7739(2) 0.3486(5) 0.05277(8)
O4 O 0.5841(2) 0.2469(4) 0.02918(8)
C1 C 0.7092(4) 0.4216(6) 0.14573(13)
C2 C 0.6196(4) 0.3333(7) 0.11063(12)
C3 C 0.5061(4) 0.2885(7) 0.11824(14)
C4 C 0.7155(4) 0.6390(6) 0.13583(14)
H1 H 0.7365 0.6576 0.1059
H2 H 0.7773 0.6988 0.1561
H3 H 0.6368 0.6978 0.1393
C5 C 0.6753(4) 0.3810(7) 0.19173(12)
C6 C 0.6745(4) 0.1915(7) 0.20662(13)
H4 H 0.6902 0.0907 0.1873
C7 C 0.6513(4) 0.1483(7) 0.24880(14)
H5 H 0.6510 0.0190 0.2582
C8 C 0.6286(4) 0.2931(7) 0.27725(13)
C9 C 0.6256(4) 0.4804(7) 0.26333(14)
H6 H 0.6074 0.5797 0.2827
C10 C 0.6493(4) 0.5240(7) 0.22095(13)
H7 H 0.6478 0.6536 0.2117
C11 C 1.0459(4) 0.3128(6) 0.14776(14)
C12 C 0.9902(4) 0.1097(6) 0.14997(14)
C13 C 1.0354(4) -0.0352(7) 0.11825(17)
H8 H 0.9972 -0.1593 0.1225
H9 H 1.1234 -0.0481 0.1235
H10 H 1.0147 0.0085 0.0883
C14 C 0.9995(5) 0.0260(8) 0.19577(15)
H11 H 0.9660 0.1169 0.2157
H12 H 1.0845 0.0012 0.2053
H13 H 0.9539 -0.0939 0.1957
C15 C 1.1473(4) 0.3582(8) 0.18189(14)
H14 H 1.1768 0.4881 0.1773
H15 H 1.2134 0.2668 0.1797
H16 H 1.1177 0.3494 0.2109
C16 C 1.0851(4) 0.3666(8) 0.10275(13)
H17 H 1.0198 0.3365 0.0804
H18 H 1.1576 0.2938 0.0971
H19 H 1.1030 0.5037 0.1020
C17 C 0.7711(4) 0.3375(6) 0.00507(12)
C18 C 0.6590(4) 0.2086(6) -0.00652(12)
C19 C 0.5873(4) 0.2598(8) -0.04949(13)
H20 H 0.5180 0.1735 -0.0544
H21 H 0.6395 0.2468 -0.0734
H22 H 0.5586 0.3920 -0.0482
C20 C 0.6873(4) -0.0015(6) -0.00521(15)
H23 H 0.7336 -0.0326 0.0224
H24 H 0.7350 -0.0342 -0.0295
H25 H 0.6118 -0.0748 -0.0077
C21 C 0.7570(5) 0.5408(7) -0.01125(17)
H26 H 0.6791 0.5918 -0.0039
H27 H 0.7602 0.5428 -0.0429
H28 H 0.8226 0.6196 0.0025
C22 C 0.8907(4) 0.2556(7) -0.00662(13)
H29 H 0.9559 0.3461 0.0019
H30 H 0.8872 0.2333 -0.0381
H31 H 0.9064 0.1344 0.0088
B1 B 0.8409(5) 0.3323(8) 0.14466(14)
B2 B 0.6605(4) 0.3089(7) 0.06352(15)
Br2 Br 0.39087(4) 0.86043(9) 0.16948(2)
O5 O 0.4077(2) 0.5968(4) 0.47125(8)
O6 O 0.2126(3) 0.6854(4) 0.45097(9)
O7 O 0.0367(3) 0.8314(4) 0.35806(9)
O8 O 0.1280(3) 0.5414(4) 0.35134(9)
C23 C 0.2715(4) 0.8342(6) 0.36304(12)
C24 C 0.3644(4) 0.7182(6) 0.39247(11)
C25 C 0.4758(4) 0.6786(7) 0.38201(14)
C26 C 0.2624(4) 1.0332(6) 0.38374(14)
H32 H 0.2444 1.0194 0.4142
H33 H 0.1976 1.1061 0.3677
H34 H 0.3393 1.1009 0.3825
C27 C 0.3050(3) 0.8461(7) 0.31562(12)
C28 C 0.3197(4) 1.0172(7) 0.29419(14)
H35 H 0.3115 1.1342 0.3093
C29 C 0.3459(4) 1.0212(8) 0.25134(15)
H36 H 0.3563 1.1400 0.2372
C30 C 0.3570(4) 0.8529(8) 0.22916(12)
C31 C 0.3444(4) 0.6801(7) 0.24908(14)
H37 H 0.3534 0.5644 0.2336
C32 C 0.3181(4) 0.6768(7) 0.29227(14)
H38 H 0.3089 0.5573 0.3063
C33 C 0.3370(4) 0.5453(6) 0.50763(13)
C34 C 0.2217(4) 0.6683(6) 0.49851(13)
C35 C 0.2355(5) 0.8702(7) 0.51600(15)
H39 H 0.3124 0.9237 0.5083
H40 H 0.2344 0.8683 0.5478
H41 H 0.1686 0.9492 0.5033
C36 C 0.1048(4) 0.5804(7) 0.51145(15)
H42 H 0.0373 0.6670 0.5032
H43 H 0.1109 0.5597 0.5430
H44 H 0.0910 0.4578 0.4965
C37 C 0.3131(4) 0.3319(6) 0.50402(15)
H45 H 0.2667 0.3043 0.4762
H46 H 0.2669 0.2907 0.5281
H47 H 0.3902 0.2630 0.5054
C38 C 0.4118(4) 0.5895(7) 0.54975(14)
H48 H 0.4844 0.5093 0.5521
H49 H 0.3640 0.5632 0.5744
H50 H 0.4353 0.7245 0.5501
C39 C -0.0017(4) 0.5007(7) 0.34804(14)
C40 C -0.0575(4) 0.7035(7) 0.34005(15)
C41 C -0.1710(4) 0.7392(9) 0.36172(18)
H51 H -0.1540 0.7286 0.3933
H52 H -0.2322 0.6446 0.3516
H53 H -0.2012 0.8679 0.3543
C42 C -0.0758(5) 0.7547(9) 0.29153(16)
H54 H -0.0933 0.8916 0.2884
H55 H -0.1437 0.6809 0.2777
H56 H -0.0022 0.7243 0.2775
C43 C -0.0282(4) 0.4141(8) 0.39144(16)
H57 H 0.0227 0.3010 0.3973
H58 H -0.1136 0.3771 0.3903
H59 H -0.0108 0.5084 0.4146
C44 C -0.0290(4) 0.3571(8) 0.31168(16)
H60 H 0.0018 0.4052 0.2849
H61 H -0.1166 0.3381 0.3069
H62 H 0.0102 0.2351 0.3197
B3 B 0.3280(4) 0.6636(7) 0.43840(15)
B4 B 0.1424(4) 0.7314(8) 0.35934(13)
loop_
_geom_bond_atom_site_label_1
_geom_bond_atom_site_label_2
_geom_bond_site_symmetry_1
_geom_bond_site_symmetry_2
Br1 C8 1_555 1_555
O1 C11 1_555 1_555
O2 C12 1_555 1_555
O3 C17 1_555 1_555
O4 C18 1_555 1_555
C1 C2 1_555 1_555
C2 C3 1_555 1_555
C4 C1 1_555 1_555
H1 C4 1_555 1_555
H2 C4 1_555 1_555
H3 C4 1_555 1_555
C5 C1 1_555 1_555
C6 C5 1_555 1_555
H4 C6 1_555 1_555
C7 C6 1_555 1_555
H5 C7 1_555 1_555
C8 C7 1_555 1_555
C9 C8 1_555 1_555
H6 C9 1_555 1_555
C10 C5 1_555 1_555
H7 C10 1_555 1_555
C11 C12 1_555 1_555
C12 C13 1_555 1_555
C13 H8 1_555 1_555
H9 C13 1_555 1_555
H10 C13 1_555 1_555
C14 C12 1_555 1_555
H11 C14 1_555 1_555
H12 C14 1_555 1_555
H13 C14 1_555 1_555
C15 C11 1_555 1_555
H14 C15 1_555 1_555
H15 C15 1_555 1_555
H16 C15 1_555 1_555
C16 C11 1_555 1_555
H17 C16 1_555 1_555
H18 C16 1_555 1_555
H19 C16 1_555 1_555
C17 C18 1_555 1_555
C18 C19 1_555 1_555
C19 H20 1_555 1_555
H21 C19 1_555 1_555
H22 C19 1_555 1_555
C20 C18 1_555 1_555
H23 C20 1_555 1_555
H24 C20 1_555 1_555
H25 C20 1_555 1_555
C21 C17 1_555 1_555
H26 C21 1_555 1_555
H27 C21 1_555 1_555
H28 C21 1_555 1_555
C22 C17 1_555 1_555
H29 C22 1_555 1_555
H30 C22 1_555 1_555
H31 C22 1_555 1_555
B1 O1 1_555 1_555
B2 O3 1_555 1_555
Br2 C30 1_555 1_555
O5 C33 1_555 1_555
O6 C34 1_555 1_555
O7 C40 1_555 1_555
O8 C39 1_555 1_555
C23 C24 1_555 1_555
C24 C25 1_555 1_555
C26 C23 1_555 1_555
H32 C26 1_555 1_555
H33 C26 1_555 1_555
H34 C26 1_555 1_555
C27 C23 1_555 1_555
C28 C27 1_555 1_555
H35 C28 1_555 1_555
C29 C28 1_555 1_555
H36 C29 1_555 1_555
C30 C29 1_555 1_555
C31 C30 1_555 1_555
H37 C31 1_555 1_555
C32 C27 1_555 1_555
H38 C32 1_555 1_555
C33 C34 1_555 1_555
C34 C35 1_555 1_555
C35 H39 1_555 1_555
H40 C35 1_555 1_555
H41 C35 1_555 1_555
C36 C34 1_555 1_555
H42 C36 1_555 1_555
H43 C36 1_555 1_555
H44 C36 1_555 1_555
C37 C33 1_555 1_555
H45 C37 1_555 1_555
H46 C37 1_555 1_555
H47 C37 1_555 1_555
C38 C33 1_555 1_555
H48 C38 1_555 1_555
H49 C38 1_555 1_555
H50 C38 1_555 1_555
C39 C40 1_555 1_555
C40 C41 1_555 1_555
C41 H51 1_555 1_555
H52 C41 1_555 1_555
H53 C41 1_555 1_555
C42 C40 1_555 1_555
H54 C42 1_555 1_555
H55 C42 1_555 1_555
H56 C42 1_555 1_555
C43 C39 1_555 1_555
H57 C43 1_555 1_555
H58 C43 1_555 1_555
H59 C43 1_555 1_555
C44 C39 1_555 1_555
H60 C44 1_555 1_555
H61 C44 1_555 1_555
H62 C44 1_555 1_555
B3 O5 1_555 1_555
B4 O7 1_555 1_555
O2 B1 1_555 1_555
O4 B2 1_555 1_555
C1 B1 1_555 1_555
C2 B2 1_555 1_555
C9 C10 1_555 1_555
O6 B3 1_555 1_555
O8 B4 1_555 1_555
C23 B4 1_555 1_555
C24 B3 1_555 1_555
C31 C32 1_555 1_555

#END
