
#######################################################################
#
#                 Cambridge Crystallographic Data Centre
#                                CCDC 
#
#######################################################################
#
# If this CIF has been generated from an entry in the Cambridge 
# Structural Database, then it will include bibliographic, chemical, 
# crystal, experimental, refinement or atomic coordinate data resulting 
# from the CCDC's data processing and validation procedures.
#
#######################################################################

data_RAVZEU
_chemical_formula_moiety         'C8 H12 N4 O3,2(H2 O1)'
_chemical_name_systematic        'Glycyl-histidine dihydrate'
_symmetry_cell_setting           monoclinic
_symmetry_space_group_name_H-M   'P 21'
_symmetry_Int_Tables_number      4
_space_group_name_Hall           'P 2yb'
loop_
_symmetry_equiv_pos_site_id
_symmetry_equiv_pos_as_xyz
1 x,y,z
2 -x,1/2+y,-z
_cell_length_a                   6.0389(7)
_cell_length_b                   7.2672(9)
_cell_length_c                   12.9258(15)
_cell_angle_alpha                90
_cell_angle_beta                 99.908(2)
_cell_angle_gamma                90
_cell_volume                     558.8
_exptl_crystal_colour            colorless
_exptl_crystal_description       tabular
_cell_formula_units_Z            2
loop_
_atom_site_label
_atom_site_type_symbol
_atom_site_fract_x
_atom_site_fract_y
_atom_site_fract_z
O1 O 0.93093(15) 1.19941(16) 0.26965(8)
N1 N 0.37962(18) 1.00460(15) 0.27710(9)
H1 H 0.2946 1.0804 0.3062
C1 C 0.55863(19) 1.08129(18) 0.22817(9)
H2 H 0.6082 0.9834 0.1828
N2 N 0.07083(18) 1.15938(18) 0.07642(9)
H3 H 0.0156 1.1640 0.1351
O4 O 0.76250(17) 1.1257(2) 0.40403(8)
O5 O 0.4493(2) 0.70240(17) 0.24630(9)
C2 C 0.3380(2) 0.82226(18) 0.27993(10)
C3 C 0.4704(2) 1.24477(18) 0.15652(10)
H4 H 0.4097 1.3394 0.1992
H5 H 0.5978 1.3004 0.1287
C4 C 0.2966(2) 1.1692(2) -0.03837(10)
H6 H 0.4269 1.1832 -0.0697
N3 N 0.0589(2) 0.58637(16) 0.30743(8)
H7 H 0.0117 0.5747 0.2370
H8 H -0.0570 0.5608 0.3417
H9 H 0.1738 0.5065 0.3286
C5 C 0.1369(2) 0.7755(2) 0.33154(12)
H10 H 0.1790 0.7901 0.4086
H11 H 0.0129 0.8624 0.3066
C6 C 0.76585(19) 1.14114(18) 0.30782(9)
C7 C 0.2910(2) 1.1925(2) 0.06615(10)
N4 N 0.0859(2) 1.1224(2) -0.09197(9)
C8 C -0.0441(2) 1.1187(2) -0.01964(11)
H12 H -0.2001 1.0907 -0.0337
O2 O 0.39839(18) 0.40153(17) 0.45944(9)
H13 H 0.536(4) 0.413(4) 0.4490(18)
H14 H 0.391(3) 0.480(4) 0.5162(18)
O3 O 0.18411(18) 0.09156(17) 0.52210(9)
H15 H 0.068(4) 0.095(4) 0.4892(17)
H16 H 0.276(3) 0.184(4) 0.5062(17)
loop_
_geom_bond_atom_site_label_1
_geom_bond_atom_site_label_2
_geom_bond_site_symmetry_1
_geom_bond_site_symmetry_2
O1 C6 1_555 1_555
O2 H13 1_555 1_555
N1 H1 1_555 1_555
O3 H15 1_555 1_555
C1 N1 1_555 1_555
H2 C1 1_555 1_555
N2 H3 1_555 1_555
O4 C6 1_555 1_555
O5 C2 1_555 1_555
C2 N1 1_555 1_555
C3 C1 1_555 1_555
H4 C3 1_555 1_555
H5 C3 1_555 1_555
C4 H6 1_555 1_555
N3 H7 1_555 1_555
H8 N3 1_555 1_555
H9 N3 1_555 1_555
C5 C2 1_555 1_555
H10 C5 1_555 1_555
H11 C5 1_555 1_555
C6 C1 1_555 1_555
C7 N2 1_555 1_555
N4 C4 1_555 1_555
C8 N2 1_555 1_555
H12 C8 1_555 1_555
H14 O2 1_555 1_555
H16 O3 1_555 1_555
C3 C7 1_555 1_555
C4 C7 1_555 1_555
N3 C5 1_555 1_555
N4 C8 1_555 1_555

#END
