
#######################################################################
#
#                 Cambridge Crystallographic Data Centre
#                                CCDC 
#
#######################################################################
#
# If this CIF has been generated from an entry in the Cambridge 
# Structural Database, then it will include bibliographic, chemical, 
# crystal, experimental, refinement or atomic coordinate data resulting 
# from the CCDC's data processing and validation procedures.
#
#######################################################################

data_RAVZIY
_chemical_formula_moiety         'C12 H20 N4 O3,H2 O1'
_chemical_name_systematic        'Leucyl-histidine monohydrate'
_symmetry_cell_setting           orthorhombic
_symmetry_space_group_name_H-M   'P 21 21 2'
_symmetry_Int_Tables_number      18
_space_group_name_Hall           'P 2 2ab'
loop_
_symmetry_equiv_pos_site_id
_symmetry_equiv_pos_as_xyz
1 x,y,z
2 -x,-y,z
3 1/2-x,1/2+y,-z
4 1/2+x,1/2-y,-z
_cell_length_a                   12.240(3)
_cell_length_b                   21.081(5)
_cell_length_c                   6.1137(14)
_cell_angle_alpha                90
_cell_angle_beta                 90
_cell_angle_gamma                90
_cell_volume                     1577.53
_exptl_crystal_colour            colorless
_exptl_crystal_description       tabular
_cell_formula_units_Z            4
loop_
_atom_site_label
_atom_site_type_symbol
_atom_site_fract_x
_atom_site_fract_y
_atom_site_fract_z
N1 N 0.63250(15) 0.64753(9) 0.7986(3)
H1 H 0.6677 0.6489 0.6731
O1 O 0.71141(16) 0.62743(8) 1.3572(3)
O2 O 0.48942(14) 0.67860(9) 1.0000(3)
O3 O 0.75855(16) 0.70281(8) 1.1229(3)
N2 N 0.6607(2) 0.41388(10) 0.6572(4)
N3 N 0.38246(16) 0.71506(9) 0.6157(3)
H2 H 0.3633 0.6744 0.6473
H3 H 0.3619 0.7245 0.4764
H4 H 0.3485 0.7419 0.7105
C1 C 0.7172(2) 0.65073(11) 1.1678(4)
C2 C 0.5402(2) 0.68020(11) 0.8264(4)
N4 N 0.68627(19) 0.51283(10) 0.5575(3)
H5 H 0.6869 0.5471 0.4752
C3 C 0.7046(2) 0.44731(12) 0.8281(5)
H6 H 0.7210 0.4298 0.9675
C4 C 0.50303(19) 0.72226(11) 0.6370(4)
H7 H 0.5392 0.7081 0.4988
C5 C 0.4997(2) 0.83912(12) 0.5077(4)
H8 H 0.4196 0.8343 0.4798
C6 C 0.6508(3) 0.45534(12) 0.4981(5)
H9 H 0.6220 0.4457 0.3578
C7 C 0.67392(19) 0.60970(11) 0.9786(4)
H10 H 0.6122 0.5835 1.0362
C8 C 0.7216(2) 0.50873(12) 0.7711(4)
C9 C 0.7638(2) 0.56413(11) 0.8994(4)
H11 H 0.8159 0.5881 0.8072
H12 H 0.8043 0.5481 1.0281
C10 C 0.5328(2) 0.79124(11) 0.6830(5)
H13 H 0.6129 0.7939 0.7034
H14 H 0.4982 0.8039 0.8227
C11 C 0.5201(3) 0.90644(13) 0.5910(6)
H15 H 0.5978 0.9117 0.6249
H16 H 0.4767 0.9138 0.7234
H17 H 0.4988 0.9370 0.4782
C12 C 0.5596(3) 0.82827(15) 0.2944(5)
H18 H 0.6385 0.8303 0.3200
H19 H 0.5386 0.8611 0.1889
H20 H 0.5403 0.7864 0.2360
O4 O 0.8055(2) 0.78371(13) 0.8004(3)
H21 H 0.857(4) 0.794(2) 0.870(7)
H22 H 0.779(3) 0.7528(17) 0.871(6)
loop_
_geom_bond_atom_site_label_1
_geom_bond_atom_site_label_2
_geom_bond_site_symmetry_1
_geom_bond_site_symmetry_2
N1 H1 1_555 1_555
O1 C1 1_555 1_555
O2 C2 1_555 1_555
O3 C1 1_555 1_555
N2 C3 1_555 1_555
N3 H2 1_555 1_555
H3 N3 1_555 1_555
H4 N3 1_555 1_555
C1 C7 1_555 1_555
C2 N1 1_555 1_555
N4 H5 1_555 1_555
C3 H6 1_555 1_555
C4 N3 1_555 1_555
H7 C4 1_555 1_555
C5 H8 1_555 1_555
C6 N2 1_555 1_555
H9 C6 1_555 1_555
C7 N1 1_555 1_555
H10 C7 1_555 1_555
C8 N4 1_555 1_555
C9 C7 1_555 1_555
H11 C9 1_555 1_555
H12 C9 1_555 1_555
C10 C4 1_555 1_555
H13 C10 1_555 1_555
H14 C10 1_555 1_555
C11 C5 1_555 1_555
H15 C11 1_555 1_555
H16 C11 1_555 1_555
H17 C11 1_555 1_555
C12 C5 1_555 1_555
H18 C12 1_555 1_555
H19 C12 1_555 1_555
H20 C12 1_555 1_555
O4 H21 1_555 1_555
H22 O4 1_555 1_555
C2 C4 1_555 1_555
N4 C6 1_555 1_555
C3 C8 1_555 1_555
C5 C10 1_555 1_555
C8 C9 1_555 1_555

#END
