
#######################################################################
#
#                 Cambridge Crystallographic Data Centre
#                                CCDC 
#
#######################################################################
#
# If this CIF has been generated from an entry in the Cambridge 
# Structural Database, then it will include bibliographic, chemical, 
# crystal, experimental, refinement or atomic coordinate data resulting 
# from the CCDC's data processing and validation procedures.
#
#######################################################################

data_RAVZOE
_chemical_formula_moiety         'C10 H14 N4 O5,3(H2 O1)'
_chemical_name_systematic        'Histidinyl-aspartate trihydrate'
_symmetry_cell_setting           monoclinic
_symmetry_space_group_name_H-M   'P 21'
_symmetry_Int_Tables_number      4
_space_group_name_Hall           'P 2yb'
loop_
_symmetry_equiv_pos_site_id
_symmetry_equiv_pos_as_xyz
1 x,y,z
2 -x,1/2+y,-z
_cell_length_a                   4.8451(18)
_cell_length_b                   18.326(7)
_cell_length_c                   8.678(3)
_cell_angle_alpha                90
_cell_angle_beta                 104.029(7)
_cell_angle_gamma                90
_cell_volume                     747.548
_exptl_crystal_colour            colorless
_exptl_crystal_description       prism
_cell_formula_units_Z            2
loop_
_atom_site_label
_atom_site_type_symbol
_atom_site_fract_x
_atom_site_fract_y
_atom_site_fract_z
C1 C 0.0366(7) 0.44161(17) 0.4944(4)
H1 H 0.0170 0.4433 0.3828
C2 C 0.1814(7) 0.46394(17) 0.7494(4)
H2 H 0.2820 0.4846 0.8472
C3 C -0.0250(7) 0.41215(17) 0.7309(4)
C4 C -0.1475(7) 0.37325(19) 0.8512(4)
H3 H -0.3553 0.3679 0.8081
H4 H -0.1174 0.4037 0.9481
C5 C -0.0179(6) 0.29738(19) 0.8971(4)
H5 H 0.1941 0.3010 0.9203
C6 C -0.1041(6) 0.26971(19) 1.0461(3)
C7 C 0.0662(6) 0.23441(16) 1.3246(3)
H6 H -0.1116 0.2599 1.3337
C8 C 0.3093(6) 0.26526(16) 1.4568(3)
C9 C 0.0159(7) 0.15181(16) 1.3437(4)
H7 H -0.0273 0.1435 1.4481
H8 H -0.1526 0.1365 1.2606
C10 C 0.2695(6) 0.10391(17) 1.3321(4)
N1 N -0.1193(5) 0.24268(15) 0.7665(3)
H15 H -0.3088 0.2490 0.7241
H16 H -0.0875 0.1967 0.8068
H17 H -0.0229 0.2492 0.6896
N2 N 0.1116(5) 0.25318(15) 1.1686(3)
H18 H 0.2860 0.2535 1.1553
N3 N -0.1149(6) 0.39920(14) 0.5678(3)
H19 H -0.2485 0.3683 0.5215
N4 N 0.2192(6) 0.48120(15) 0.6007(3)
H20 H 0.3423 0.5128 0.5802
O1 O -0.3555(5) 0.2655(2) 1.0479(3)
O2 O 0.5028(5) 0.30038(14) 1.4158(3)
O3 O 0.2975(4) 0.25440(13) 1.5989(2)
O4 O 0.3133(5) 0.09082(13) 1.1988(3)
O5 O 0.4281(5) 0.08009(13) 1.4613(3)
H9 H 0.460(14) 0.386(4) 0.195(13)
H10 H 0.435(11) 0.462(3) 0.172(7)
O7 O 0.2995(10) 0.42071(19) 0.1747(4)
H11 H 0.283(9) 0.077(3) 0.807(6)
H12 H 0.416(10) 0.068(3) 0.665(4)
O8 O 0.4405(6) 0.05677(16) 0.7735(3)
H13 H 1.103(10) 0.101(3) 1.008(4)
H14 H 0.826(7) 0.083(3) 0.888(6)
O6 O 0.9980(5) 0.10584(13) 0.9023(3)
loop_
_geom_bond_atom_site_label_1
_geom_bond_atom_site_label_2
_geom_bond_site_symmetry_1
_geom_bond_site_symmetry_2
C1 H1 1_555 1_555
C2 H2 1_555 1_555
C3 C2 1_555 1_555
C4 C3 1_555 1_555
H3 C4 1_555 1_555
H4 C4 1_555 1_555
C5 C4 1_555 1_555
H5 C5 1_555 1_555
C6 C5 1_555 1_555
C7 H6 1_555 1_555
C8 C7 1_555 1_555
C9 C7 1_555 1_555
H7 C9 1_555 1_555
H8 C9 1_555 1_555
C10 C9 1_555 1_555
H9 O7 1_555 1_555
H10 O7 1_555 1_555
H11 O8 1_555 1_555
H12 O8 1_555 1_555
H13 O6 1_555 1_555
H14 O6 1_555 1_555
N1 C5 1_555 1_555
H15 N1 1_555 1_555
H16 N1 1_555 1_555
H17 N1 1_555 1_555
N2 C6 1_555 1_555
H18 N2 1_555 1_555
N3 C1 1_555 1_555
H19 N3 1_555 1_555
N4 C1 1_555 1_555
H20 N4 1_555 1_555
O1 C6 1_555 1_555
O2 C8 1_555 1_555
O3 C8 1_555 1_555
O4 C10 1_555 1_555
O5 C10 1_555 1_555
C2 N4 1_555 1_555
C3 N3 1_555 1_555
C7 N2 1_555 1_555

#END
