
#######################################################################
#
#                 Cambridge Crystallographic Data Centre
#                                CCDC 
#
#######################################################################
#
# If this CIF has been generated from an entry in the Cambridge 
# Structural Database, then it will include bibliographic, chemical, 
# crystal, experimental, refinement or atomic coordinate data resulting 
# from the CCDC's data processing and validation procedures.
#
#######################################################################

data_RAWGON
_chemical_formula_moiety         'C12 H12 F1 N1 O4'
_chemical_name_systematic        
'Ethyl 6-fluoro-3-hydroxy-1-methyl-2-oxoindoline-3-carboxylate'
_symmetry_cell_setting           triclinic
_symmetry_space_group_name_H-M   'P -1'
_symmetry_Int_Tables_number      2
_space_group_name_Hall           '-P 1'
loop_
_symmetry_equiv_pos_site_id
_symmetry_equiv_pos_as_xyz
1 x,y,z
2 -x,-y,-z
_cell_length_a                   7.2341(14)
_cell_length_b                   9.0463(18)
_cell_length_c                   18.335(4)
_cell_angle_alpha                86.03(3)
_cell_angle_beta                 85.74(3)
_cell_angle_gamma                82.12(3)
_cell_volume                     1183.14
_exptl_crystal_colour            yellow
_exptl_crystal_description       block
_cell_formula_units_Z            4
loop_
_atom_site_label
_atom_site_type_symbol
_atom_site_fract_x
_atom_site_fract_y
_atom_site_fract_z
C1 C 0.1955(6) 0.1132(4) 0.1047(2)
C2 C 0.2322(5) 0.0625(4) 0.0342(2)
C3 C 0.2545(6) 0.1596(5) -0.0260(3)
H1 H 0.2787 0.1268 -0.0732
C4 C 0.2387(8) 0.3091(5) -0.0119(3)
C5 C 0.2042(8) 0.3633(5) 0.0557(3)
H2 H 0.1950 0.4654 0.0616
C6 C 0.1829(7) 0.2642(5) 0.1156(3)
H3 H 0.1604 0.2984 0.1625
C7 C 0.1747(6) -0.0188(4) 0.1577(2)
C8 C 0.1875(6) -0.1476(5) 0.1056(3)
C9 C 0.2623(7) -0.1816(5) -0.0274(3)
H4 H 0.3944 -0.2035 -0.0390
H5 H 0.2041 -0.1267 -0.0682
H6 H 0.2099 -0.2733 -0.0170
C10 C 0.3465(8) -0.0526(7) 0.2035(3)
C11 C 0.4738(10) -0.0386(10) 0.3163(4)
H7 H 0.4753 -0.1379 0.3400
H8 H 0.5913 -0.0347 0.2875
C12 C 0.4516(11) 0.0708(7) 0.3702(4)
H9 H 0.4616 0.1677 0.3465
H10 H 0.5472 0.0464 0.4042
H11 H 0.3309 0.0716 0.3959
F1 F 0.2573(7) 0.4073(4) -0.0704(2)
N1 N 0.2300(5) -0.0933(4) 0.03589(19)
O1 O 0.3168(5) -0.0065(4) 0.26853(18)
O2 O 0.4920(6) -0.1141(8) 0.1805(2)
O3 O 0.1640(5) -0.2768(3) 0.1236(2)
O4 O 0.0035(4) 0.0016(3) 0.19914(18)
H23 H 0.0008 -0.0660 0.2312
C13 C -0.0241(6) 0.4219(4) 0.3497(2)
C14 C -0.1274(5) 0.4742(4) 0.4114(2)
C15 C -0.2028(6) 0.3809(5) 0.4644(2)
H12 H -0.2707 0.4167 0.5061
C16 C -0.1711(7) 0.2306(5) 0.4518(3)
C17 C -0.0736(7) 0.1721(5) 0.3905(3)
H13 H -0.0591 0.0700 0.3841
C18 C 0.0023(7) 0.2702(5) 0.3386(3)
H14 H 0.0700 0.2344 0.2969
C19 C 0.0421(6) 0.5511(4) 0.3037(2)
C20 C -0.0535(6) 0.6864(5) 0.3467(2)
C21 C -0.2510(7) 0.7230(5) 0.4628(3)
H15 H -0.2302 0.8253 0.4532
H16 H -0.2144 0.6890 0.5110
H17 H -0.3813 0.7154 0.4597
C22 C 0.2550(6) 0.5425(4) 0.3076(2)
C23 C 0.5514(6) 0.4667(7) 0.2471(3)
H18 H 0.5936 0.5621 0.2322
H19 H 0.5965 0.4339 0.2949
C24 C 0.6222(8) 0.3571(7) 0.1941(4)
H20 H 0.5879 0.2613 0.2113
H21 H 0.7560 0.3505 0.1880
H22 H 0.5696 0.3870 0.1480
F2 F -0.2417(5) 0.1338(3) 0.50280(19)
N2 N -0.1415(5) 0.6319(3) 0.4093(2)
O5 O 0.3455(4) 0.4817(4) 0.25059(18)
O6 O 0.3258(5) 0.5825(5) 0.3584(2)
O7 O -0.0521(5) 0.8178(3) 0.32741(19)
O8 O -0.0175(4) 0.5566(3) 0.23218(16)
H24 H 0.0300 0.6216 0.2069
loop_
_geom_bond_atom_site_label_1
_geom_bond_atom_site_label_2
_geom_bond_site_symmetry_1
_geom_bond_site_symmetry_2
C1 C2 1_555 1_555
C2 C3 1_555 1_555
C3 H1 1_555 1_555
C4 C3 1_555 1_555
C5 C4 1_555 1_555
H2 C5 1_555 1_555
C6 C1 1_555 1_555
H3 C6 1_555 1_555
C7 C1 1_555 1_555
C8 C7 1_555 1_555
C9 H4 1_555 1_555
H5 C9 1_555 1_555
H6 C9 1_555 1_555
C10 C7 1_555 1_555
C11 H7 1_555 1_555
H8 C11 1_555 1_555
C12 C11 1_555 1_555
H9 C12 1_555 1_555
H10 C12 1_555 1_555
H11 C12 1_555 1_555
C13 C14 1_555 1_555
C14 C15 1_555 1_555
C15 H12 1_555 1_555
C16 C15 1_555 1_555
C17 C16 1_555 1_555
H13 C17 1_555 1_555
C18 C13 1_555 1_555
H14 C18 1_555 1_555
C19 C13 1_555 1_555
C20 C19 1_555 1_555
C21 H15 1_555 1_555
H16 C21 1_555 1_555
H17 C21 1_555 1_555
C22 C19 1_555 1_555
C23 H18 1_555 1_555
H19 C23 1_555 1_555
C24 C23 1_555 1_555
H20 C24 1_555 1_555
H21 C24 1_555 1_555
H22 C24 1_555 1_555
F1 C4 1_555 1_555
F2 C16 1_555 1_555
N1 C2 1_555 1_555
N2 C14 1_555 1_555
O1 C10 1_555 1_555
O2 C10 1_555 1_555
O3 C8 1_555 1_555
O4 C7 1_555 1_555
H23 O4 1_555 1_555
O5 C22 1_555 1_555
O6 C22 1_555 1_555
O7 C20 1_555 1_555
O8 C19 1_555 1_555
H24 O8 1_555 1_555
C5 C6 1_555 1_555
C8 N1 1_555 1_555
C9 N1 1_555 1_555
C11 O1 1_555 1_555
C17 C18 1_555 1_555
C20 N2 1_555 1_555
C21 N2 1_555 1_555
C23 O5 1_555 1_555

#END
