
#######################################################################
#
#                 Cambridge Crystallographic Data Centre
#                                CCDC 
#
#######################################################################
#
# If this CIF has been generated from an entry in the Cambridge 
# Structural Database, then it will include bibliographic, chemical, 
# crystal, experimental, refinement or atomic coordinate data resulting 
# from the CCDC's data processing and validation procedures.
#
#######################################################################

data_RAWGEC
_chemical_formula_moiety         'C10 H8 Br2 N2 O2 S1'
_chemical_name_systematic        'Ethyl (4,6-dibromobenzothiazol-2-yl)carbamate'
_symmetry_cell_setting           monoclinic
_symmetry_space_group_name_H-M   'C 2/c'
_symmetry_Int_Tables_number      15
_space_group_name_Hall           '-C 2yn'
loop_
_symmetry_equiv_pos_site_id
_symmetry_equiv_pos_as_xyz
1 x,y,z
2 1/2+x,1/2+y,z
3 -x,y,1/2-z
4 1/2-x,1/2+y,1/2-z
5 -x,-y,-z
6 1/2-x,1/2-y,-z
7 x,-y,1/2+z
8 1/2+x,1/2-y,1/2+z
_cell_length_a                   19.915(18)
_cell_length_b                   7.679(6)
_cell_length_c                   16.481(14)
_cell_angle_alpha                90
_cell_angle_beta                 93.91(2)
_cell_angle_gamma                90
_cell_volume                     2514.53
_chemical_melting_point          '180-182 deg.C'
_cell_formula_units_Z            8
loop_
_atom_site_label
_atom_site_type_symbol
_atom_site_fract_x
_atom_site_fract_y
_atom_site_fract_z
Br1 Br 1.08659(6) 0.08475(18) 1.20726(8)
Br2 Br 1.16444(6) 0.13910(18) 0.88752(8)
N1 N 0.9197(4) 0.4125(11) 0.7862(6)
H1 H 0.9404 0.4050 0.7422
N2 N 1.0139(4) 0.2986(12) 0.8588(6)
O1 O 0.8429(4) 0.5344(11) 0.7040(5)
O2 O 0.8209(4) 0.5052(12) 0.8353(6)
S1 S 0.91342(14) 0.3538(4) 0.95001(19)
C1 C 0.8559(6) 0.4833(16) 0.7822(8)
C2 C 0.9520(6) 0.3533(14) 0.8578(7)
C3 C 1.0347(5) 0.2458(14) 0.9368(7)
C4 C 0.9883(5) 0.2646(14) 0.9954(7)
C5 C 1.0010(6) 0.2180(15) 1.0774(7)
H2 H 0.9682 0.2287 1.1146
C6 C 1.0653(6) 0.1547(14) 1.1004(8)
C7 C 1.1128(5) 0.1417(14) 1.0433(7)
H3 H 1.1562 0.1069 1.0606
C8 C 1.0986(5) 0.1783(15) 0.9616(7)
C9 C 0.7753(6) 0.6098(18) 0.6842(9)
H4 H 0.7408 0.5259 0.6956
H5 H 0.7692 0.7129 0.7169
C10 C 0.7701(6) 0.6552(17) 0.5978(8)
H6 H 0.7267 0.7048 0.5836
H7 H 0.7759 0.5523 0.5659
H8 H 0.8045 0.7383 0.5871
loop_
_geom_bond_atom_site_label_1
_geom_bond_atom_site_label_2
_geom_bond_site_symmetry_1
_geom_bond_site_symmetry_2
Br1 C6 1_555 1_555
Br2 C8 1_555 1_555
N1 H1 1_555 1_555
N2 C2 1_555 1_555
O1 C1 1_555 1_555
O2 C1 1_555 1_555
S1 C2 1_555 1_555
C1 N1 1_555 1_555
C2 N1 1_555 1_555
C3 N2 1_555 1_555
C4 S1 1_555 1_555
C5 C4 1_555 1_555
H2 C5 1_555 1_555
C6 C5 1_555 1_555
C7 C6 1_555 1_555
H3 C7 1_555 1_555
C8 C3 1_555 1_555
C9 O1 1_555 1_555
H4 C9 1_555 1_555
H5 C9 1_555 1_555
C10 C9 1_555 1_555
H6 C10 1_555 1_555
H7 C10 1_555 1_555
H8 C10 1_555 1_555
C3 C4 1_555 1_555
C7 C8 1_555 1_555

#END
