
#######################################################################
#
#                 Cambridge Crystallographic Data Centre
#                                CCDC 
#
#######################################################################
#
# If this CIF has been generated from an entry in the Cambridge 
# Structural Database, then it will include bibliographic, chemical, 
# crystal, experimental, refinement or atomic coordinate data resulting 
# from the CCDC's data processing and validation procedures.
#
#######################################################################

data_RAWJOQ
_chemical_formula_moiety         'C20 H17 Cl1 F1 N1 O3'
_chemical_name_systematic        
"Ethyl (S*,S*,S*)-3-(4-chlorophenyl)-2-fluoro-1'-methyl-2'-oxo-1',2'-dihydrospiro[cyclopropane-1,3'-indole]-2-carboxylate"
_symmetry_cell_setting           triclinic
_symmetry_space_group_name_H-M   'P -1'
_symmetry_Int_Tables_number      2
_space_group_name_Hall           '-P 1'
loop_
_symmetry_equiv_pos_site_id
_symmetry_equiv_pos_as_xyz
1 x,y,z
2 -x,-y,-z
_cell_length_a                   9.0634(11)
_cell_length_b                   10.6447(12)
_cell_length_c                   11.1028(13)
_cell_angle_alpha                106.435(2)
_cell_angle_beta                 109.313(2)
_cell_angle_gamma                103.333(2)
_cell_volume                     905.267
_cell_formula_units_Z            2
loop_
_atom_site_label
_atom_site_type_symbol
_atom_site_fract_x
_atom_site_fract_y
_atom_site_fract_z
C1 C 1.1003(3) 0.8710(2) 0.1103(2)
C2 C 1.1498(4) 0.9113(3) 0.0195(3)
C3 C 1.2545(3) 1.0481(3) 0.0624(2)
C4 C 1.3127(2) 1.1426(2) 0.1965(2)
C5 C 1.2620(3) 1.0978(2) 0.2861(2)
C6 C 1.1558(3) 0.9627(2) 0.2438(2)
C7 C 1.4202(2) 1.2925(2) 0.2479(2)
C8 C 1.6116(2) 1.3449(2) 0.3335(2)
C9 C 1.6951(2) 1.4779(2) 0.4625(2)
C10 C 1.9349(3) 1.5636(3) 0.6913(2)
C11 C 1.8393(2) 1.3307(2) 0.4938(2)
C12 C 1.7104(2) 1.2555(2) 0.3600(2)
C13 C 1.7022(3) 1.1254(2) 0.2816(2)
C14 C 1.8244(3) 1.0743(3) 0.3370(3)
C15 C 1.9520(3) 1.1515(3) 0.4682(3)
C16 C 1.9602(3) 1.2799(3) 0.5499(3)
C17 C 1.5333(2) 1.3500(2) 0.1915(2)
C18 C 1.5569(3) 1.4893(2) 0.1770(2)
C19 C 1.4610(7) 1.6794(4) 0.1979(5)
C20 C 1.4415(7) 1.7613(4) 0.3076(5)
Cl1 Cl 0.9610(1) 0.7018(1) 0.0557(1)
N1 N 1.8252(2) 1.4600(2) 0.5525(2)
O1 O 1.6569(2) 1.5810(2) 0.4835(2)
O2 O 1.6690(2) 1.5435(2) 0.1539(2)
O3 O 1.4414(3) 1.5381(2) 0.1930(2)
F1 F 1.5574(2) 1.2599(1) 0.0909(1)
H1 H 1.1136 0.8475 -0.0706
H2 H 1.2858 1.0764 -0.0002
H3 H 1.3005 1.1602 0.3771
H4 H 1.1223 0.9343 0.3055
H5 H 1.3692 1.3578 0.2829
H6 H 1.9214 1.6520 0.6993
H7 H 2.0490 1.5737 0.7093
H8 H 1.9068 1.5338 0.7574
H9 H 1.6162 1.0731 0.1932
H10 H 1.8205 0.9869 0.2852
H11 H 2.0343 1.1162 0.5024
H12 H 2.0442 1.3302 0.6395
H13 H 1.5714 1.7236 0.2048
H14 H 1.3791 1.6737 0.1121
H15 H 1.3331 1.7172 0.3022
H16 H 1.4511 1.8518 0.3041
H17 H 1.5266 1.7720 0.3930
loop_
_geom_bond_atom_site_label_1
_geom_bond_atom_site_label_2
_geom_bond_site_symmetry_1
_geom_bond_site_symmetry_2
C1 C2 1_555 1_555
C2 C3 1_555 1_555
C3 C4 1_555 1_555
C4 C5 1_555 1_555
C5 C6 1_555 1_555
C6 C1 1_555 1_555
C7 C4 1_555 1_555
C8 C7 1_555 1_555
C9 C8 1_555 1_555
C10 N1 1_555 1_555
C11 C12 1_555 1_555
C12 C8 1_555 1_555
C13 C12 1_555 1_555
C14 C13 1_555 1_555
C15 C14 1_555 1_555
C16 C11 1_555 1_555
C17 C7 1_555 1_555
C18 C17 1_555 1_555
C19 C20 1_555 1_555
C20 H15 1_555 1_555
Cl1 C1 1_555 1_555
N1 C9 1_555 1_555
O1 C9 1_555 1_555
O2 C18 1_555 1_555
O3 C18 1_555 1_555
F1 C17 1_555 1_555
H1 C2 1_555 1_555
H2 C3 1_555 1_555
H3 C5 1_555 1_555
H4 C6 1_555 1_555
H5 C7 1_555 1_555
H6 C10 1_555 1_555
H7 C10 1_555 1_555
H8 C10 1_555 1_555
H9 C13 1_555 1_555
H10 C14 1_555 1_555
H11 C15 1_555 1_555
H12 C16 1_555 1_555
H13 C19 1_555 1_555
H14 C19 1_555 1_555
H16 C20 1_555 1_555
H17 C20 1_555 1_555
C8 C17 1_555 1_555
C11 N1 1_555 1_555
C15 C16 1_555 1_555
C19 O3 1_555 1_555

#END
