
#######################################################################
#
#                 Cambridge Crystallographic Data Centre
#                                CCDC 
#
#######################################################################
#
# If this CIF has been generated from an entry in the Cambridge 
# Structural Database, then it will include bibliographic, chemical, 
# crystal, experimental, refinement or atomic coordinate data resulting 
# from the CCDC's data processing and validation procedures.
#
#######################################################################

data_RAWKEH01
_chemical_formula_moiety         'C25 H19 N1 O3'
_chemical_name_systematic        
'Ethyl 4-benzoyl-2-phenylquinoline-3-carboxylate'
_symmetry_cell_setting           monoclinic
_symmetry_space_group_name_H-M   'P 21/c'
_symmetry_Int_Tables_number      14
_space_group_name_Hall           '-P 2ybc'
loop_
_symmetry_equiv_pos_site_id
_symmetry_equiv_pos_as_xyz
1 x,y,z
2 -x,1/2+y,1/2-z
3 -x,-y,-z
4 x,1/2-y,1/2+z
_cell_length_a                   12.2143(19)
_cell_length_b                   20.809(3)
_cell_length_c                   7.8088(12)
_cell_angle_alpha                90
_cell_angle_beta                 101.253(2)
_cell_angle_gamma                90
_cell_volume                     1946.59
_exptl_crystal_colour            yellow
_exptl_crystal_description       block
_cell_formula_units_Z            4
loop_
_atom_site_label
_atom_site_type_symbol
_atom_site_fract_x
_atom_site_fract_y
_atom_site_fract_z
C1 C -0.00607(14) -0.01238(8) 0.7303(2)
C2 C -0.03826(16) -0.07662(9) 0.6878(3)
H1 H -0.1134 -0.0879 0.6674
C3 C 0.04035(17) -0.12200(9) 0.6766(3)
H2 H 0.0184 -0.1641 0.6482
C4 C 0.15353(17) -0.10601(9) 0.7073(3)
H3 H 0.2064 -0.1377 0.7015
C5 C 0.18672(16) -0.04467(9) 0.7455(3)
H4 H 0.2623 -0.0345 0.7639
C6 C 0.10802(14) 0.00398(8) 0.7577(2)
C7 C 0.13642(14) 0.06962(8) 0.7875(2)
C8 C 0.05373(14) 0.11422(8) 0.7897(2)
C9 C -0.05933(14) 0.09221(8) 0.7735(2)
C10 C -0.15227(14) 0.13580(8) 0.7942(2)
C11 C -0.25896(15) 0.12462(9) 0.6985(3)
H5 H -0.2711 0.0907 0.6195
C12 C -0.34703(16) 0.16341(11) 0.7196(3)
H6 H -0.4179 0.1560 0.6536
C13 C -0.33022(18) 0.21295(10) 0.8379(3)
H7 H -0.3896 0.2391 0.8519
C14 C -0.22548(18) 0.22392(10) 0.9358(3)
H8 H -0.2143 0.2571 1.0170
C15 C -0.13722(16) 0.18576(9) 0.9137(2)
H9 H -0.0666 0.1936 0.9799
C16 C 0.08040(14) 0.18399(8) 0.7831(2)
C17 C 0.21724(15) 0.26430(9) 0.8834(3)
H10 H 0.1871 0.2928 0.9608
H11 H 0.1956 0.2804 0.7651
C18 C 0.34126(17) 0.26179(11) 0.9349(3)
H12 H 0.3619 0.2435 1.0495
H13 H 0.3711 0.3045 0.9354
H14 H 0.3707 0.2358 0.8529
C19 C 0.25725(15) 0.08840(8) 0.7985(3)
C20 C 0.33605(14) 0.08016(8) 0.9662(3)
C21 C 0.30254(17) 0.05618(10) 1.1125(3)
H15 H 0.2290 0.0431 1.1059
C22 C 0.3781(2) 0.05161(13) 1.2691(3)
H16 H 0.3558 0.0352 1.3676
C23 C 0.4866(3) 0.07143(15) 1.2779(5)
H17 H 0.5375 0.0687 1.3830
C24 C 0.5197(2) 0.09509(14) 1.1337(5)
H18 H 0.5930 0.1087 1.1411
C25 C 0.44603(17) 0.09890(11) 0.9780(4)
H19 H 0.4699 0.1142 0.8795
N1 N -0.08712(11) 0.03156(7) 0.74374(19)
O1 O 0.02689(11) 0.22127(6) 0.68306(18)
O2 O 0.17404(10) 0.19938(6) 0.89475(16)
O3 O 0.28598(12) 0.10806(7) 0.6676(2)
loop_
_geom_bond_atom_site_label_1
_geom_bond_atom_site_label_2
_geom_bond_site_symmetry_1
_geom_bond_site_symmetry_2
C1 C2 1_555 1_555
C2 H1 1_555 1_555
C3 C2 1_555 1_555
H2 C3 1_555 1_555
C4 C3 1_555 1_555
H3 C4 1_555 1_555
C5 C4 1_555 1_555
H4 C5 1_555 1_555
C6 C1 1_555 1_555
C7 C6 1_555 1_555
C8 C7 1_555 1_555
C9 C8 1_555 1_555
C10 C9 1_555 1_555
C11 C10 1_555 1_555
H5 C11 1_555 1_555
C12 C11 1_555 1_555
H6 C12 1_555 1_555
C13 C12 1_555 1_555
H7 C13 1_555 1_555
C14 C13 1_555 1_555
H8 C14 1_555 1_555
C15 C10 1_555 1_555
H9 C15 1_555 1_555
C16 C8 1_555 1_555
C17 H10 1_555 1_555
H11 C17 1_555 1_555
C18 C17 1_555 1_555
H12 C18 1_555 1_555
H13 C18 1_555 1_555
H14 C18 1_555 1_555
C19 C7 1_555 1_555
C20 C19 1_555 1_555
C21 C20 1_555 1_555
H15 C21 1_555 1_555
C22 C21 1_555 1_555
H16 C22 1_555 1_555
C23 C22 1_555 1_555
H17 C23 1_555 1_555
C24 C23 1_555 1_555
H18 C24 1_555 1_555
C25 C20 1_555 1_555
H19 C25 1_555 1_555
N1 C1 1_555 1_555
O1 C16 1_555 1_555
O2 C16 1_555 1_555
O3 C19 1_555 1_555
C5 C6 1_555 1_555
C9 N1 1_555 1_555
C14 C15 1_555 1_555
C17 O2 1_555 1_555
C24 C25 1_555 1_555

#END
