
#######################################################################
#
#                 Cambridge Crystallographic Data Centre
#                                CCDC 
#
#######################################################################
#
# If this CIF has been generated from an entry in the Cambridge 
# Structural Database, then it will include bibliographic, chemical, 
# crystal, experimental, refinement or atomic coordinate data resulting 
# from the CCDC's data processing and validation procedures.
#
#######################################################################

data_RAWLUY
_chemical_formula_moiety         'C7 H6 Br1 N1 O1'
_chemical_name_systematic        N-(4-Bromophenyl)formamide
_symmetry_cell_setting           orthorhombic
_symmetry_space_group_name_H-M   'P b c a'
_symmetry_Int_Tables_number      61
_space_group_name_Hall           '-P 2ac 2ab'
loop_
_symmetry_equiv_pos_site_id
_symmetry_equiv_pos_as_xyz
1 x,y,z
2 1/2-x,-y,1/2+z
3 1/2+x,1/2-y,-z
4 -x,1/2+y,1/2-z
5 -x,-y,-z
6 1/2+x,y,1/2-z
7 1/2-x,1/2+y,z
8 x,1/2-y,1/2+z
_cell_length_a                   10.8222(6)
_cell_length_b                   9.7805(6)
_cell_length_c                   13.6084(9)
_cell_angle_alpha                90
_cell_angle_beta                 90
_cell_angle_gamma                90
_cell_volume                     1440.4
_exptl_crystal_colour            colorless
_exptl_crystal_description       block
_cell_formula_units_Z            8
loop_
_atom_site_label
_atom_site_type_symbol
_atom_site_fract_x
_atom_site_fract_y
_atom_site_fract_z
Br1 Br 0.37520(3) 0.46775(3) 0.08001(2)
O1 O -0.23697(18) 0.26048(19) 0.15279(17)
N1 N -0.1779(2) 0.4838(2) 0.15125(17)
H1 H -0.2074 0.5673 0.1567
C1 C -0.2602(3) 0.3825(3) 0.15788(19)
H2 H -0.3441 0.4075 0.1674
C2 C -0.0492(3) 0.4727(3) 0.13658(19)
C3 C 0.0234(2) 0.5828(3) 0.16475(18)
H3 H -0.0141 0.6592 0.1958
C4 C 0.1494(3) 0.5829(3) 0.1482(2)
H4 H 0.1988 0.6588 0.1671
C5 C 0.2017(3) 0.4702(3) 0.1036(2)
C6 C 0.1319(2) 0.3592(3) 0.07573(18)
H5 H 0.1700 0.2828 0.0451
C7 C 0.0057(3) 0.3597(3) 0.09265(18)
H6 H -0.0432 0.2831 0.0743
loop_
_geom_bond_atom_site_label_1
_geom_bond_atom_site_label_2
_geom_bond_site_symmetry_1
_geom_bond_site_symmetry_2
Br1 C5 1_555 1_555
O1 C1 1_555 1_555
N1 H1 1_555 1_555
C1 N1 1_555 1_555
H2 C1 1_555 1_555
C2 N1 1_555 1_555
C3 C2 1_555 1_555
H3 C3 1_555 1_555
C4 C3 1_555 1_555
H4 C4 1_555 1_555
C5 C4 1_555 1_555
C6 C5 1_555 1_555
H5 C6 1_555 1_555
C7 C2 1_555 1_555
H6 C7 1_555 1_555
C6 C7 1_555 1_555

#END
