
#######################################################################
#
#                 Cambridge Crystallographic Data Centre
#                                CCDC 
#
#######################################################################
#
# If this CIF has been generated from an entry in the Cambridge 
# Structural Database, then it will include bibliographic, chemical, 
# crystal, experimental, refinement or atomic coordinate data resulting 
# from the CCDC's data processing and validation procedures.
#
#######################################################################

data_RAWNUA
_chemical_formula_moiety         'C17 H15 N1 O2'
_chemical_name_systematic        5-(4-Methoxybenzyl)-3-phenyl-1,2-oxazole
_symmetry_cell_setting           monoclinic
_symmetry_space_group_name_H-M   'P 21'
_symmetry_Int_Tables_number      4
_space_group_name_Hall           'P 2yb'
loop_
_symmetry_equiv_pos_site_id
_symmetry_equiv_pos_as_xyz
1 x,y,z
2 -x,1/2+y,-z
_cell_length_a                   8.6503(5)
_cell_length_b                   5.6960(3)
_cell_length_c                   14.1476(9)
_cell_angle_alpha                90
_cell_angle_beta                 98.468(4)
_cell_angle_gamma                90
_cell_volume                     689.483
_exptl_crystal_colour            colorless
_exptl_crystal_description       needle
_cell_formula_units_Z            2
loop_
_atom_site_label
_atom_site_type_symbol
_atom_site_fract_x
_atom_site_fract_y
_atom_site_fract_z
C1 C 0.81923(17) 0.2854(3) 0.41520(10)
C2 C 0.69040(18) 0.5807(3) -0.04946(10)
C3 C 0.75040(17) 0.2756(3) 0.50389(10)
C4 C 0.89249(17) 0.5343(3) 0.12177(11)
N1 N 0.82681(19) 0.0975(3) 0.36351(10)
C5 C 0.6598(2) 0.0867(3) 0.52442(11)
H1 H 0.6433 -0.0381 0.4818
O1 O 0.89774(15) 0.1701(2) 0.28467(8)
C6 C 0.79237(19) 0.3934(3) -0.03494(12)
H2 H 0.7938 0.2816 -0.0827
C7 C 0.6889(2) 0.7448(3) 0.02124(11)
H3 H 0.6206 0.8717 0.0123
C8 C 0.6165(2) 0.2643(4) 0.67085(12)
H4 H 0.5710 0.2611 0.7264
C9 C 0.92893(19) 0.4024(4) 0.29331(12)
C10 C 1.0016(2) 0.5117(4) 0.21532(12)
H5 H 1.0913 0.4185 0.2047
H6 H 1.0393 0.6667 0.2357
C11 C 0.7727(2) 0.4581(3) 0.56909(12)
H7 H 0.8330 0.5867 0.5569
C12 C 0.7903(2) 0.7196(3) 0.10628(12)
H8 H 0.7890 0.8313 0.1541
C13 C 0.89174(19) 0.3711(3) 0.04981(12)
H9 H 0.9596 0.2438 0.0587
C14 C 0.5942(2) 0.0819(4) 0.60696(12)
H10 H 0.5340 -0.0462 0.6197
C15 C 0.7066(2) 0.4511(4) 0.65182(13)
H11 H 0.7232 0.5746 0.6952
C16 C 0.8825(2) 0.4818(3) 0.37284(12)
H12 H 0.8901 0.6348 0.3960
O2 O 0.59680(14) 0.5860(3) -0.13638(8)
C17 C 0.4905(2) 0.7748(5) -0.15585(14)
H13 H 0.4324 0.7563 -0.2186
H14 H 0.5472 0.9202 -0.1526
H15 H 0.4199 0.7761 -0.1095
loop_
_geom_bond_atom_site_label_1
_geom_bond_atom_site_label_2
_geom_bond_site_symmetry_1
_geom_bond_site_symmetry_2
C1 C3 1_555 1_555
C2 C6 1_555 1_555
C3 C5 1_555 1_555
C4 C10 1_555 1_555
N1 C1 1_555 1_555
C5 H1 1_555 1_555
O1 N1 1_555 1_555
C6 H2 1_555 1_555
C7 C2 1_555 1_555
H3 C7 1_555 1_555
C8 H4 1_555 1_555
C9 O1 1_555 1_555
C10 C9 1_555 1_555
H5 C10 1_555 1_555
H6 C10 1_555 1_555
C11 C3 1_555 1_555
H7 C11 1_555 1_555
C12 C4 1_555 1_555
H8 C12 1_555 1_555
C13 C4 1_555 1_555
H9 C13 1_555 1_555
C14 C5 1_555 1_555
H10 C14 1_555 1_555
C15 C8 1_555 1_555
H11 C15 1_555 1_555
C16 C1 1_555 1_555
H12 C16 1_555 1_555
O2 C2 1_555 1_555
C17 O2 1_555 1_555
H13 C17 1_555 1_555
H14 C17 1_555 1_555
H15 C17 1_555 1_555
C6 C13 1_555 1_555
C7 C12 1_555 1_555
C8 C14 1_555 1_555
C9 C16 1_555 1_555
C11 C15 1_555 1_555

#END
