
#######################################################################
#
#                 Cambridge Crystallographic Data Centre
#                                CCDC 
#
#######################################################################
#
# If this CIF has been generated from an entry in the Cambridge 
# Structural Database, then it will include bibliographic, chemical, 
# crystal, experimental, refinement or atomic coordinate data resulting 
# from the CCDC's data processing and validation procedures.
#
#######################################################################

data_RAWSUG
_chemical_name_common            
tetrabromobis(1,3-dibutyl-benzimidazole-2-selone)-tellurium
_chemical_formula_moiety         'C30 H44 Br4 N4 Se2 Te1'
_chemical_name_systematic        
1,3-dibutyl-2-((tetrabromo((1,3-dibutyl-benzimidazol-2-ylidene)selanyl)tellanyl)selanylidene)-benzimidazole
_symmetry_cell_setting           monoclinic
_symmetry_space_group_name_H-M   'C 2/c'
_symmetry_Int_Tables_number      15
_space_group_name_Hall           '-C 2yn'
loop_
_symmetry_equiv_pos_site_id
_symmetry_equiv_pos_as_xyz
1 x,y,z
2 -x,y,1/2-z
3 1/2+x,1/2+y,z
4 1/2-x,1/2+y,1/2-z
5 -x,-y,-z
6 x,-y,1/2+z
7 1/2-x,1/2-y,-z
8 1/2+x,1/2-y,1/2+z
_cell_length_a                   27.549(2)
_cell_length_b                   9.3385(3)
_cell_length_c                   18.8634(17)
_cell_angle_alpha                90
_cell_angle_beta                 129.811(13)
_cell_angle_gamma                90
_cell_volume                     3727.82
_exptl_crystal_colour            colorless
_exptl_crystal_description       prism
_cell_formula_units_Z            4
loop_
_atom_site_label
_atom_site_type_symbol
_atom_site_fract_x
_atom_site_fract_y
_atom_site_fract_z
Te1 Te 0.7500 0.2500 0.0000
Br1 Br 0.79794(3) -0.00144(5) 0.00172(4)
Br2 Br 0.87462(3) 0.37248(6) 0.08811(4)
Se1 Se 0.79675(3) 0.21090(6) 0.16998(4)
N1 N 0.9232(2) 0.0449(5) 0.2712(3)
N2 N 0.8287(2) -0.0901(5) 0.1876(3)
C1 C 0.8527(3) 0.0476(5) 0.2117(3)
C2 C 0.9459(3) -0.0959(5) 0.2863(3)
C3 C 1.0137(3) -0.1549(6) 0.3431(4)
H1 H 1.0500 -0.0949 0.3752
C4 C 1.0172(3) -0.3022(7) 0.3432(4)
H2 H 1.0569 -0.3491 0.3766
C5 C 0.9562(3) -0.3880(6) 0.2889(4)
H3 H 0.9604 -0.4892 0.2903
C6 C 0.8896(3) -0.3299(6) 0.2328(4)
H4 H 0.8533 -0.3898 0.2001
C7 C 0.8860(3) -0.1810(5) 0.2333(3)
C8 C 0.9698(3) 0.1721(6) 0.3131(3)
H5 H 1.0050 0.1461 0.3139
H6 H 0.9476 0.2545 0.2707
C9 C 0.9964(3) 0.2189(6) 0.4025(4)
H7 H 0.9621 0.2287 0.4060
H8 H 1.0150 0.3151 0.4126
C10 C 1.0489(3) 0.1169(6) 0.4828(4)
H9 H 1.0294 0.0237 0.4767
H10 H 1.0812 0.0993 0.4760
C11 C 1.0792(4) 0.1736(7) 0.5728(4)
H11 H 1.1063 0.0999 0.6192
H12 H 1.0472 0.2033 0.5773
H13 H 1.1051 0.2564 0.5835
C12 C 0.7539(3) -0.1364(6) 0.1236(4)
H14 H 0.7273 -0.0506 0.0910
H15 H 0.7441 -0.2059 0.0763
C13 C 0.7387(3) -0.1972(7) 0.1746(4)
H16 H 0.7526 -0.1325 0.2262
H17 H 0.7614 -0.2892 0.2013
C14 C 0.6591(3) -0.2263(6) 0.1074(4)
H18 H 0.6447 -0.2777 0.0510
H19 H 0.6516 -0.2900 0.1415
C15 C 0.6166(4) -0.0870(8) 0.0771(5)
H20 H 0.5719 -0.1134 0.0321
H21 H 0.6268 -0.0180 0.0492
H22 H 0.6250 -0.0439 0.1313
Br1F Br 0.70206(3) 0.50144(5) -0.00172(4)
Br2F Br 0.62538(3) 0.12752(6) -0.08811(4)
Se1F Se 0.70325(3) 0.28910(6) -0.16998(4)
N1F N 0.5768(2) 0.4551(5) -0.2712(3)
N2F N 0.6713(2) 0.5901(5) -0.1876(3)
C1F C 0.6473(3) 0.4524(5) -0.2117(3)
C2F C 0.5541(3) 0.5959(5) -0.2863(3)
C3F C 0.4863(3) 0.6549(6) -0.3431(4)
H1F H 0.4500 0.5949 -0.3752
C4F C 0.4828(3) 0.8022(7) -0.3432(4)
H2F H 0.4431 0.8491 -0.3766
C5F C 0.5438(3) 0.8880(6) -0.2889(4)
H3F H 0.5396 0.9892 -0.2903
C6F C 0.6104(3) 0.8299(6) -0.2328(4)
H4F H 0.6467 0.8898 -0.2001
C7F C 0.6140(3) 0.6810(5) -0.2333(3)
C8F C 0.5302(3) 0.3279(6) -0.3131(3)
H5F H 0.4950 0.3539 -0.3139
H6F H 0.5524 0.2455 -0.2707
C9F C 0.5036(3) 0.2811(6) -0.4025(4)
H7F H 0.5379 0.2713 -0.4060
H8F H 0.4850 0.1849 -0.4126
C10F C 0.4511(3) 0.3831(6) -0.4828(4)
H9F H 0.4706 0.4763 -0.4767
H10F H 0.4188 0.4007 -0.4760
C11F C 0.4208(4) 0.3264(7) -0.5728(4)
H11F H 0.3937 0.4001 -0.6192
H12F H 0.4528 0.2967 -0.5773
H13F H 0.3949 0.2436 -0.5835
C12F C 0.7461(3) 0.6364(6) -0.1236(4)
H14F H 0.7727 0.5506 -0.0910
H15F H 0.7559 0.7059 -0.0763
C13F C 0.7613(3) 0.6972(7) -0.1746(4)
H16F H 0.7474 0.6325 -0.2262
H17F H 0.7386 0.7892 -0.2013
C14F C 0.8409(3) 0.7263(6) -0.1074(4)
H18F H 0.8553 0.7777 -0.0510
H19F H 0.8484 0.7900 -0.1415
C15F C 0.8834(4) 0.5870(8) -0.0771(5)
H20F H 0.9281 0.6134 -0.0321
H21F H 0.8732 0.5180 -0.0492
H22F H 0.8750 0.5439 -0.1313
loop_
_geom_bond_atom_site_label_1
_geom_bond_atom_site_label_2
_geom_bond_site_symmetry_1
_geom_bond_site_symmetry_2
Te1 Br1 1_555 1_555
Br2 Te1 1_555 1_555
Se1 Te1 1_555 1_555
N1 C1 1_555 1_555
N2 C1 1_555 1_555
C1 Se1 1_555 1_555
C2 N1 1_555 1_555
C3 C2 1_555 1_555
H1 C3 1_555 1_555
C4 C3 1_555 1_555
H2 C4 1_555 1_555
C5 C4 1_555 1_555
H3 C5 1_555 1_555
C6 C5 1_555 1_555
H4 C6 1_555 1_555
C7 N2 1_555 1_555
C8 N1 1_555 1_555
H5 C8 1_555 1_555
H6 C8 1_555 1_555
C9 C8 1_555 1_555
H7 C9 1_555 1_555
H8 C9 1_555 1_555
C10 C9 1_555 1_555
H9 C10 1_555 1_555
H10 C10 1_555 1_555
C11 C10 1_555 1_555
H11 C11 1_555 1_555
H12 C11 1_555 1_555
H13 C11 1_555 1_555
C12 N2 1_555 1_555
H14 C12 1_555 1_555
H15 C12 1_555 1_555
C13 C12 1_555 1_555
H16 C13 1_555 1_555
H17 C13 1_555 1_555
C14 C13 1_555 1_555
H18 C14 1_555 1_555
H19 C14 1_555 1_555
C15 C14 1_555 1_555
H20 C15 1_555 1_555
H21 C15 1_555 1_555
H22 C15 1_555 1_555
Br1F Te1 1_555 1_555
Br2F Te1 1_555 1_555
Se1F Te1 1_555 1_555
N1F C1F 1_555 1_555
N2F C1F 1_555 1_555
C1F Se1F 1_555 1_555
C2F N1F 1_555 1_555
C3F C2F 1_555 1_555
H1F C3F 1_555 1_555
C4F C3F 1_555 1_555
H2F C4F 1_555 1_555
C5F C4F 1_555 1_555
H3F C5F 1_555 1_555
C6F C5F 1_555 1_555
H4F C6F 1_555 1_555
C7F N2F 1_555 1_555
C8F N1F 1_555 1_555
H5F C8F 1_555 1_555
H6F C8F 1_555 1_555
C9F C8F 1_555 1_555
H7F C9F 1_555 1_555
H8F C9F 1_555 1_555
C10F C9F 1_555 1_555
H9F C10F 1_555 1_555
H10F C10F 1_555 1_555
C11F C10F 1_555 1_555
H11F C11F 1_555 1_555
H12F C11F 1_555 1_555
H13F C11F 1_555 1_555
C12F N2F 1_555 1_555
H14F C12F 1_555 1_555
H15F C12F 1_555 1_555
C13F C12F 1_555 1_555
H16F C13F 1_555 1_555
H17F C13F 1_555 1_555
C14F C13F 1_555 1_555
H18F C14F 1_555 1_555
H19F C14F 1_555 1_555
C15F C14F 1_555 1_555
H20F C15F 1_555 1_555
H21F C15F 1_555 1_555
H22F C15F 1_555 1_555
C2 C7 1_555 1_555
C6 C7 1_555 1_555
C2F C7F 1_555 1_555
C6F C7F 1_555 1_555

#END
