
#######################################################################
#
#                 Cambridge Crystallographic Data Centre
#                                CCDC 
#
#######################################################################
#
# If this CIF has been generated from an entry in the Cambridge 
# Structural Database, then it will include bibliographic, chemical, 
# crystal, experimental, refinement or atomic coordinate data resulting 
# from the CCDC's data processing and validation procedures.
#
#######################################################################

data_RAWWIV
_chemical_formula_moiety         'C18 H18 O4 Si1'
_chemical_name_systematic        
trans-Methyl(1-(3-propenyl)cyclohepta-2,4,6-trien-1,2-diolato)(troponolato)silicon
_symmetry_cell_setting           orthorhombic
_symmetry_space_group_name_H-M   'P b c a'
_symmetry_Int_Tables_number      61
_space_group_name_Hall           '-P 2ac 2ab'
loop_
_symmetry_equiv_pos_site_id
_symmetry_equiv_pos_as_xyz
1 x,y,z
2 1/2-x,-y,1/2+z
3 1/2+x,1/2-y,-z
4 -x,1/2+y,1/2-z
5 -x,-y,-z
6 1/2+x,y,1/2-z
7 1/2-x,1/2+y,z
8 x,1/2-y,1/2+z
_cell_length_a                   14.398(4)
_cell_length_b                   14.107(5)
_cell_length_c                   16.4763(12)
_cell_angle_alpha                90
_cell_angle_beta                 90
_cell_angle_gamma                90
_cell_volume                     3346.54
_exptl_crystal_colour            colorless
_chemical_melting_point          240deg.C(dec.)
_cell_formula_units_Z            8
loop_
_atom_site_label
_atom_site_type_symbol
_atom_site_fract_x
_atom_site_fract_y
_atom_site_fract_z
Si1 Si 0.0643(1) 0.2483(1) 0.9702(1)
O1 O 0.1679(2) 0.2327(2) 1.0336(2)
O2 O 0.0638(2) 0.1257(2) 0.9675(2)
O3 O -0.0180(2) 0.2471(3) 0.8929(2)
O4 O 0.1295(2) 0.3227(3) 0.9172(2)
C1 C 0.1939(3) 0.1453(3) 1.0431(3)
C2 C 0.1318(3) 0.0808(3) 1.0053(3)
C3 C 0.1360(4) -0.0171(3) 1.0045(3)
C4 C 0.2004(4) -0.0756(3) 1.0401(4)
C5 C 0.2769(4) -0.0531(4) 1.0840(3)
C6 C 0.3100(4) 0.0358(4) 1.1038(3)
C7 C 0.2738(3) 0.1229(4) 1.0861(3)
C8 C 0.0004(3) 0.3057(3) 0.8314(3)
C9 C 0.0953(3) 0.3506(4) 0.8401(3)
C10 C 0.0872(4) 0.4575(4) 0.8373(3)
C11 C 0.0497(4) 0.5060(4) 0.7759(4)
C12 C -0.0021(4) 0.4704(4) 0.7091(3)
C13 C -0.0502(4) 0.3891(4) 0.7078(3)
C14 C -0.0567(3) 0.3185(4) 0.7689(3)
C15 C -0.0109(5) 0.2963(4) 1.0509(3)
C16 C 0.1620(4) 0.3117(4) 0.7753(3)
C17 C 0.1682(5) 0.2087(5) 0.7741(4)
C18 C 0.2324(5) 0.1552(5) 0.8056(5)
H1 H 0.083(4) -0.056(4) 0.983(3)
H2 H 0.188(4) -0.146(4) 1.034(3)
H3 H 0.319(4) -0.105(4) 1.092(3)
H4 H 0.369(4) 0.045(4) 1.137(4)
H5 H 0.308(4) 0.187(4) 1.104(3)
H6 H 0.117(3) 0.493(3) 0.885(3)
H7 H 0.059(4) 0.572(4) 0.782(3)
H8 H -0.011(4) 0.514(4) 0.668(3)
H9 H -0.098(4) 0.369(4) 0.662(3)
H10 H -0.109(3) 0.269(3) 0.763(3)
H11 H -0.070(4) 0.271(4) 1.050(3)
H12 H 0.012(4) 0.266(4) 1.098(4)
H13 H -0.018(4) 0.365(4) 1.042(3)
H14 H 0.233(4) 0.342(4) 0.789(3)
H15 H 0.141(4) 0.328(3) 0.722(3)
H16 H 0.107(5) 0.168(5) 0.754(4)
H17 H 0.230(5) 0.087(5) 0.798(4)
H18 H 0.282(4) 0.190(4) 0.834(4)
O5? O 0.087(1) 0.364(1) 0.944(1)
O6? O 0.028(2) 0.222(2) 0.876(2)
C19? C 0.069(4) 0.394(4) 0.867(3)
C20? C 0.045(2) 0.303(2) 0.819(2)
loop_
_geom_bond_atom_site_label_1
_geom_bond_atom_site_label_2
_geom_bond_site_symmetry_1
_geom_bond_site_symmetry_2
Si1 O1 1_555 1_555
O1 C1 1_555 1_555
O2 Si1 1_555 1_555
O3 Si1 1_555 1_555
O4 Si1 1_555 1_555
C1 C2 1_555 1_555
C2 O2 1_555 1_555
C3 C2 1_555 1_555
C4 C3 1_555 1_555
C5 C4 1_555 1_555
C6 C5 1_555 1_555
C7 C1 1_555 1_555
C8 O3 1_555 1_555
C9 O4 1_555 1_555
C10 C9 1_555 1_555
C11 C10 1_555 1_555
C12 C11 1_555 1_555
C13 C12 1_555 1_555
C14 C8 1_555 1_555
C15 Si1 1_555 1_555
C16 C9 1_555 1_555
C17 C16 1_555 1_555
C18 C17 1_555 1_555
H1 C3 1_555 1_555
H2 C4 1_555 1_555
H3 C5 1_555 1_555
H4 C6 1_555 1_555
H5 C7 1_555 1_555
H6 C10 1_555 1_555
H7 C11 1_555 1_555
H8 C12 1_555 1_555
H9 C13 1_555 1_555
H10 C14 1_555 1_555
H11 C15 1_555 1_555
H12 C15 1_555 1_555
H13 C15 1_555 1_555
H14 C16 1_555 1_555
H15 C16 1_555 1_555
H16 C17 1_555 1_555
H17 C18 1_555 1_555
H18 C18 1_555 1_555
C6 C7 1_555 1_555
C8 C9 1_555 1_555
C13 C14 1_555 1_555

#END
