
#######################################################################
#
#                 Cambridge Crystallographic Data Centre
#                                CCDC 
#
#######################################################################
#
# If this CIF has been generated from an entry in the Cambridge 
# Structural Database, then it will include bibliographic, chemical, 
# crystal, experimental, refinement or atomic coordinate data resulting 
# from the CCDC's data processing and validation procedures.
#
#######################################################################

data_RAWWUI
_chemical_formula_moiety         'C12 H15 N3 O1'
_chemical_name_systematic        2-(1-Benzyl-1H-1,2,3-triazol-5-yl)propan-2-ol
_symmetry_cell_setting           orthorhombic
_symmetry_space_group_name_H-M   'P 21 21 21'
_symmetry_Int_Tables_number      19
_space_group_name_Hall           'P 2ac 2ab'
loop_
_symmetry_equiv_pos_site_id
_symmetry_equiv_pos_as_xyz
1 x,y,z
2 1/2-x,-y,1/2+z
3 -x,1/2+y,1/2-z
4 1/2+x,1/2-y,-z
_cell_length_a                   7.1861(8)
_cell_length_b                   10.2628(12)
_cell_length_c                   15.5477(17)
_cell_angle_alpha                90
_cell_angle_beta                 90
_cell_angle_gamma                90
_cell_volume                     1146.64
_exptl_crystal_colour            colorless
_exptl_crystal_description       block
_cell_formula_units_Z            4
loop_
_atom_site_label
_atom_site_type_symbol
_atom_site_fract_x
_atom_site_fract_y
_atom_site_fract_z
O1 O 0.03988(12) 0.35439(10) 0.69452(6)
H1 H -0.0729 0.3442 0.6794
N1 N 0.39905(15) 0.44080(11) 0.64494(7)
N2 N 0.58544(16) 0.45489(12) 0.64828(7)
N3 N 0.65746(16) 0.33829(12) 0.65885(7)
C1 C 0.51702(18) 0.25005(14) 0.66230(7)
H2 H 0.5322 0.1588 0.6697
C2 C 0.34946(18) 0.31307(12) 0.65347(8)
C3 C 0.15343(18) 0.25988(12) 0.65211(8)
C4 C 0.08933(18) 0.23873(14) 0.55865(8)
H3 H 0.0934 0.3218 0.5276
H4 H -0.0382 0.2050 0.5584
H5 H 0.1720 0.1759 0.5305
C5 C 0.1471(2) 0.13089(14) 0.70094(9)
H6 H 0.1883 0.1448 0.7603
H7 H 0.2295 0.0678 0.6729
H8 H 0.0195 0.0973 0.7010
C6 C 0.2869(2) 0.55995(13) 0.63512(8)
H9 H 0.3665 0.6365 0.6473
H10 H 0.1856 0.5589 0.6783
C7 C 0.20250(19) 0.57538(12) 0.54647(8)
C8 C 0.0118(2) 0.59014(12) 0.53703(8)
H11 H -0.0667 0.5875 0.5862
C9 C -0.0651(2) 0.60889(14) 0.45561(9)
H12 H -0.1958 0.6191 0.4493
C10 C 0.0492(2) 0.61264(13) 0.38378(8)
H13 H -0.0034 0.6251 0.3283
C11 C 0.2396(2) 0.59828(13) 0.39265(9)
H14 H 0.3177 0.6012 0.3434
C12 C 0.3172(2) 0.57946(13) 0.47397(9)
H15 H 0.4479 0.5694 0.4800
loop_
_geom_bond_atom_site_label_1
_geom_bond_atom_site_label_2
_geom_bond_site_symmetry_1
_geom_bond_site_symmetry_2
O1 H1 1_555 1_555
N1 N2 1_555 1_555
N2 N3 1_555 1_555
N3 C1 1_555 1_555
C1 H2 1_555 1_555
C2 N1 1_555 1_555
C3 O1 1_555 1_555
C4 C3 1_555 1_555
H3 C4 1_555 1_555
H4 C4 1_555 1_555
H5 C4 1_555 1_555
C5 C3 1_555 1_555
H6 C5 1_555 1_555
H7 C5 1_555 1_555
H8 C5 1_555 1_555
C6 N1 1_555 1_555
H9 C6 1_555 1_555
H10 C6 1_555 1_555
C7 C6 1_555 1_555
C8 C7 1_555 1_555
H11 C8 1_555 1_555
C9 C8 1_555 1_555
H12 C9 1_555 1_555
C10 C9 1_555 1_555
H13 C10 1_555 1_555
C11 C10 1_555 1_555
H14 C11 1_555 1_555
C12 C7 1_555 1_555
H15 C12 1_555 1_555
C1 C2 1_555 1_555
C2 C3 1_555 1_555
C11 C12 1_555 1_555

#END
