
#######################################################################
#
#                 Cambridge Crystallographic Data Centre
#                                CCDC 
#
#######################################################################
#
# If this CIF has been generated from an entry in the Cambridge 
# Structural Database, then it will include bibliographic, chemical, 
# crystal, experimental, refinement or atomic coordinate data resulting 
# from the CCDC's data processing and validation procedures.
#
#######################################################################

data_RAWXIX01
_chemical_formula_moiety         'C15 H13 N3'
_chemical_name_systematic        1-Benzyl-5-phenyl-1H-1,2,3-triazole
_symmetry_cell_setting           monoclinic
_symmetry_space_group_name_H-M   'C 2/c'
_symmetry_Int_Tables_number      15
_space_group_name_Hall           '-C 2yn'
loop_
_symmetry_equiv_pos_site_id
_symmetry_equiv_pos_as_xyz
1 x,y,z
2 -x,y,1/2-z
3 1/2+x,1/2+y,z
4 1/2-x,1/2+y,1/2-z
5 -x,-y,-z
6 x,-y,1/2+z
7 1/2-x,1/2-y,-z
8 1/2+x,1/2-y,1/2+z
_cell_length_a                   17.719(4)
_cell_length_b                   6.4750(14)
_cell_length_c                   22.501(5)
_cell_angle_alpha                90
_cell_angle_beta                 100.868(3)
_cell_angle_gamma                90
_cell_volume                     2535.25
_exptl_crystal_description       block
_cell_formula_units_Z            8
loop_
_atom_site_label
_atom_site_type_symbol
_atom_site_fract_x
_atom_site_fract_y
_atom_site_fract_z
N1 N 0.16158(7) 0.72122(18) 0.06874(5)
N2 N 0.19127(8) 0.8967(2) 0.05055(7)
N3 N 0.13859(9) 1.0395(2) 0.04762(8)
C1 C 0.30644(10) 0.3309(3) 0.14063(8)
H1 H 0.3037 0.2372 0.1090
C2 C 0.35651(12) 0.2951(3) 0.19418(10)
H2 H 0.3880 0.1791 0.1982
C3 C 0.36022(11) 0.4291(3) 0.24158(9)
H3 H 0.3940 0.4044 0.2778
C4 C 0.31418(10) 0.5987(3) 0.23525(8)
H4 H 0.3160 0.6892 0.2676
C5 C 0.26467(8) 0.6379(3) 0.18114(7)
H5 H 0.2341 0.7558 0.1771
C6 C 0.26033(7) 0.5036(2) 0.13325(7)
C7 C 0.20719(8) 0.5346(2) 0.07315(7)
H6 H 0.2377 0.5367 0.0416
H7 H 0.1728 0.4170 0.0656
C8 C 0.07607(10) 0.9554(3) 0.06358(8)
H8 H 0.0307 1.0259 0.0650
C9 C 0.08872(8) 0.7520(2) 0.07745(6)
C10 C 0.03875(7) 0.5944(2) 0.09664(6)
C11 C 0.06291(8) 0.4718(3) 0.14690(7)
H9 H 0.1127 0.4860 0.1688
C12 C 0.01428(9) 0.3290(3) 0.16486(8)
H10 H 0.0311 0.2485 0.1990
C13 C -0.05915(9) 0.3050(3) 0.13239(9)
H11 H -0.0917 0.2066 0.1441
C14 C -0.08405(9) 0.4265(3) 0.08290(8)
H12 H -0.1339 0.4112 0.0612
C15 C -0.03611(8) 0.5711(3) 0.06495(7)
H13 H -0.0539 0.6538 0.0314
loop_
_geom_bond_atom_site_label_1
_geom_bond_atom_site_label_2
_geom_bond_site_symmetry_1
_geom_bond_site_symmetry_2
N1 N2 1_555 1_555
N2 N3 1_555 1_555
N3 C8 1_555 1_555
C1 H1 1_555 1_555
C2 C1 1_555 1_555
H2 C2 1_555 1_555
C3 C2 1_555 1_555
H3 C3 1_555 1_555
C4 C3 1_555 1_555
H4 C4 1_555 1_555
C5 C4 1_555 1_555
H5 C5 1_555 1_555
C6 C1 1_555 1_555
C7 N1 1_555 1_555
H6 C7 1_555 1_555
H7 C7 1_555 1_555
C8 H8 1_555 1_555
C9 N1 1_555 1_555
C10 C9 1_555 1_555
C11 C10 1_555 1_555
H9 C11 1_555 1_555
C12 C11 1_555 1_555
H10 C12 1_555 1_555
C13 C12 1_555 1_555
H11 C13 1_555 1_555
C14 C13 1_555 1_555
H12 C14 1_555 1_555
C15 C10 1_555 1_555
H13 C15 1_555 1_555
C5 C6 1_555 1_555
C6 C7 1_555 1_555
C8 C9 1_555 1_555
C14 C15 1_555 1_555

#END
