
#######################################################################
#
#                 Cambridge Crystallographic Data Centre
#                                CCDC 
#
#######################################################################
#
# If this CIF has been generated from an entry in the Cambridge 
# Structural Database, then it will include bibliographic, chemical, 
# crystal, experimental, refinement or atomic coordinate data resulting 
# from the CCDC's data processing and validation procedures.
#
#######################################################################

data_RAWXIX
_chemical_formula_moiety         'C15 H13 N3'
_chemical_name_systematic        1-Benzyl-5-phenyl-1H-1,2,3-triazole
_symmetry_cell_setting           monoclinic
_symmetry_space_group_name_H-M   'C 2/c'
_symmetry_Int_Tables_number      15
_space_group_name_Hall           '-C 2yn'
loop_
_symmetry_equiv_pos_site_id
_symmetry_equiv_pos_as_xyz
1 x,y,z
2 1/2+x,1/2+y,z
3 -x,y,1/2-z
4 1/2-x,1/2+y,1/2-z
5 -x,-y,-z
6 1/2-x,1/2-y,-z
7 x,-y,1/2+z
8 1/2+x,1/2-y,1/2+z
_cell_length_a                   17.6093(18)
_cell_length_b                   6.4190(6)
_cell_length_c                   22.173(2)
_cell_angle_alpha                90
_cell_angle_beta                 100.713(2)
_cell_angle_gamma                90
_cell_volume                     2462.62
_exptl_crystal_colour            colorless
_exptl_crystal_description       bar
_cell_formula_units_Z            8
loop_
_atom_site_label
_atom_site_type_symbol
_atom_site_fract_x
_atom_site_fract_y
_atom_site_fract_z
N1 N 0.66017(5) 0.72005(14) 0.06779(4)
N2 N 0.68941(6) 0.89832(15) 0.04915(5)
N3 N 0.63582(6) 1.04241(15) 0.04642(5)
C1 C 0.57272(7) 0.95616(18) 0.06306(5)
H1 H 0.5259 1.0275 0.0648
C2 C 0.58665(6) 0.74965(17) 0.07701(5)
C3 C 0.53729(6) 0.58854(17) 0.09712(5)
C4 C 0.46176(6) 0.56246(18) 0.06515(5)
H2 H 0.4429 0.6472 0.0305
C5 C 0.41418(6) 0.4131(2) 0.08389(5)
H3 H 0.3630 0.3950 0.0617
C6 C 0.44092(6) 0.29001(19) 0.13478(5)
H4 H 0.4083 0.1869 0.1472
C7 C 0.51541(6) 0.31789(19) 0.16743(5)
H5 H 0.5335 0.2356 0.2028
C8 C 0.56343(6) 0.46568(18) 0.14853(5)
H6 H 0.6146 0.4832 0.1708
C9 C 0.70624(6) 0.53059(17) 0.07127(5)
H7 H 0.7376 0.5347 0.0386
H8 H 0.6709 0.4097 0.0630
C10 C 0.75968(6) 0.49737(17) 0.13224(5)
C11 C 0.76368(6) 0.63338(19) 0.18138(5)
H9 H 0.7324 0.7550 0.1772
C12 C 0.81323(7) 0.5926(2) 0.23669(5)
H10 H 0.8147 0.6846 0.2704
C13 C 0.86028(7) 0.4186(2) 0.24263(6)
H11 H 0.8947 0.3921 0.2802
C14 C 0.85700(7) 0.2828(2) 0.19357(6)
H12 H 0.8893 0.1632 0.1975
C15 C 0.80659(7) 0.32138(18) 0.13895(5)
H13 H 0.8040 0.2267 0.1057
loop_
_geom_bond_atom_site_label_1
_geom_bond_atom_site_label_2
_geom_bond_site_symmetry_1
_geom_bond_site_symmetry_2
N1 N2 1_555 1_555
N2 N3 1_555 1_555
N3 C1 1_555 1_555
C1 H1 1_555 1_555
C2 N1 1_555 1_555
C3 C2 1_555 1_555
C4 C3 1_555 1_555
H2 C4 1_555 1_555
C5 C4 1_555 1_555
H3 C5 1_555 1_555
C6 C5 1_555 1_555
H4 C6 1_555 1_555
C7 C6 1_555 1_555
H5 C7 1_555 1_555
C8 C3 1_555 1_555
H6 C8 1_555 1_555
C9 N1 1_555 1_555
H7 C9 1_555 1_555
H8 C9 1_555 1_555
C10 C9 1_555 1_555
C11 C10 1_555 1_555
H9 C11 1_555 1_555
C12 C11 1_555 1_555
H10 C12 1_555 1_555
C13 C12 1_555 1_555
H11 C13 1_555 1_555
C14 C13 1_555 1_555
H12 C14 1_555 1_555
C15 C10 1_555 1_555
H13 C15 1_555 1_555
C1 C2 1_555 1_555
C7 C8 1_555 1_555
C14 C15 1_555 1_555

#END
