
#######################################################################
#
#                 Cambridge Crystallographic Data Centre
#                                CCDC 
#
#######################################################################
#
# If this CIF has been generated from an entry in the Cambridge 
# Structural Database, then it will include bibliographic, chemical, 
# crystal, experimental, refinement or atomic coordinate data resulting 
# from the CCDC's data processing and validation procedures.
#
#######################################################################

data_RAWXET
_chemical_formula_moiety         'C21 H17 N3'
_chemical_name_systematic        1-Benzyl-4,5-diphenyl-1H-1,2,3-triazole
_symmetry_cell_setting           monoclinic
_symmetry_space_group_name_H-M   'P 21/n'
_symmetry_Int_Tables_number      14
_space_group_name_Hall           '-P 2yn'
loop_
_symmetry_equiv_pos_site_id
_symmetry_equiv_pos_as_xyz
1 x,y,z
2 1/2-x,1/2+y,1/2-z
3 -x,-y,-z
4 1/2+x,1/2-y,1/2+z
_cell_length_a                   9.8358(7)
_cell_length_b                   18.6733(13)
_cell_length_c                   10.1820(7)
_cell_angle_alpha                90
_cell_angle_beta                 117.3070(10)
_cell_angle_gamma                90
_cell_volume                     1661.69
_exptl_crystal_colour            colorless
_exptl_crystal_description       block
_cell_formula_units_Z            4
loop_
_atom_site_label
_atom_site_type_symbol
_atom_site_fract_x
_atom_site_fract_y
_atom_site_fract_z
N1 N 0.53639(10) 0.17381(4) 0.31677(9)
N2 N 0.38966(10) 0.17049(5) 0.29024(10)
N3 N 0.30925(10) 0.15061(5) 0.15270(10)
C1 C 0.40410(11) 0.14053(5) 0.08972(11)
C2 C 0.55228(11) 0.15507(5) 0.19557(11)
C3 C 0.65358(12) 0.19391(6) 0.46382(11)
H1 H 0.6189 0.2369 0.4969
H2 H 0.7485 0.2067 0.4582
C4 C 0.68915(11) 0.13512(5) 0.57712(11)
C5 C 0.66621(11) 0.06315(6) 0.53850(12)
H3 H 0.6245 0.0496 0.4375
C6 C 0.70397(12) 0.01084(6) 0.64671(12)
H4 H 0.6874 -0.0382 0.6193
C7 C 0.76568(12) 0.02996(6) 0.79417(12)
H5 H 0.7919 -0.0058 0.8682
C8 C 0.78903(12) 0.10182(7) 0.83312(12)
H6 H 0.8316 0.1152 0.9342
C9 C 0.75057(12) 0.15409(6) 0.72532(12)
H7 H 0.7663 0.2032 0.7529
C10 C 0.34035(11) 0.12081(5) -0.06726(11)
C11 C 0.18152(12) 0.11536(6) -0.15251(12)
H8 H 0.1167 0.1224 -0.1074
C12 C 0.11809(12) 0.09979(6) -0.30161(13)
H9 H 0.0101 0.0963 -0.3583
C13 C 0.21110(13) 0.08923(6) -0.36906(12)
H10 H 0.1672 0.0789 -0.4717
C14 C 0.36865(12) 0.09382(6) -0.28541(12)
H11 H 0.4329 0.0862 -0.3309
C15 C 0.43285(12) 0.10943(5) -0.13602(11)
H12 H 0.5409 0.1124 -0.0798
C16 C 0.70446(11) 0.15253(5) 0.19982(11)
C17 C 0.77841(14) 0.21499(6) 0.19435(15)
H13 H 0.7285 0.2599 0.1816
C18 C 0.92488(15) 0.21194(7) 0.20749(16)
H14 H 0.9751 0.2549 0.2044
C19 C 0.99828(13) 0.14729(7) 0.22490(13)
H15 H 1.0988 0.1456 0.2341
C20 C 0.92501(12) 0.08494(6) 0.22892(12)
H16 H 0.9752 0.0402 0.2403
C21 C 0.77886(12) 0.08718(6) 0.21645(12)
H17 H 0.7292 0.0440 0.2192
loop_
_geom_bond_atom_site_label_1
_geom_bond_atom_site_label_2
_geom_bond_site_symmetry_1
_geom_bond_site_symmetry_2
N1 N2 1_555 1_555
N2 N3 1_555 1_555
N3 C1 1_555 1_555
C1 C2 1_555 1_555
C2 N1 1_555 1_555
C3 N1 1_555 1_555
H1 C3 1_555 1_555
H2 C3 1_555 1_555
C4 C3 1_555 1_555
C5 C4 1_555 1_555
H3 C5 1_555 1_555
C6 C5 1_555 1_555
H4 C6 1_555 1_555
C7 C6 1_555 1_555
H5 C7 1_555 1_555
C8 C7 1_555 1_555
H6 C8 1_555 1_555
C9 C4 1_555 1_555
H7 C9 1_555 1_555
C10 C1 1_555 1_555
C11 C10 1_555 1_555
H8 C11 1_555 1_555
C12 C11 1_555 1_555
H9 C12 1_555 1_555
C13 C12 1_555 1_555
H10 C13 1_555 1_555
C14 C13 1_555 1_555
H11 C14 1_555 1_555
C15 C10 1_555 1_555
H12 C15 1_555 1_555
C16 C2 1_555 1_555
C17 C16 1_555 1_555
H13 C17 1_555 1_555
C18 C17 1_555 1_555
H14 C18 1_555 1_555
C19 C18 1_555 1_555
H15 C19 1_555 1_555
C20 C19 1_555 1_555
H16 C20 1_555 1_555
C21 C16 1_555 1_555
H17 C21 1_555 1_555
C8 C9 1_555 1_555
C14 C15 1_555 1_555
C20 C21 1_555 1_555

#END
