
#######################################################################
#
#                 Cambridge Crystallographic Data Centre
#                                CCDC 
#
#######################################################################
#
# If this CIF has been generated from an entry in the Cambridge 
# Structural Database, then it will include bibliographic, chemical, 
# crystal, experimental, refinement or atomic coordinate data resulting 
# from the CCDC's data processing and validation procedures.
#
#######################################################################

data_RAWXAP
_chemical_formula_moiety         'C22 H19 N3 O1'
_chemical_name_systematic        
(1-Benzyl-1H-1,2,3-triazol-5-yl)diphenylmethanol
_symmetry_cell_setting           triclinic
_symmetry_space_group_name_H-M   'P -1'
_symmetry_Int_Tables_number      2
_space_group_name_Hall           '-P 1'
loop_
_symmetry_equiv_pos_site_id
_symmetry_equiv_pos_as_xyz
1 x,y,z
2 -x,-y,-z
_cell_length_a                   9.5472(9)
_cell_length_b                   10.0099(10)
_cell_length_c                   10.6006(10)
_cell_angle_alpha                89.779(2)
_cell_angle_beta                 74.853(2)
_cell_angle_gamma                64.089(2)
_cell_volume                     872.436
_exptl_crystal_colour            colorless
_exptl_crystal_description       block
_cell_formula_units_Z            2
loop_
_atom_site_label
_atom_site_type_symbol
_atom_site_fract_x
_atom_site_fract_y
_atom_site_fract_z
O1 O 0.19105(12) 0.48606(11) 0.45427(10)
H1 H 0.2409 0.4638 0.5128
N1 N 0.36845(14) 0.66810(13) 0.37730(12)
N2 N 0.49207(15) 0.69187(14) 0.38965(12)
N3 N 0.62331(15) 0.56142(14) 0.35921(12)
C1 C 0.58166(18) 0.45571(17) 0.32666(14)
H2 H 0.6542 0.3524 0.3003
C2 C 0.41909(18) 0.52083(16) 0.33758(14)
C3 C 0.30443(18) 0.45772(16) 0.32745(14)
C4 C 0.20457(18) 0.79679(16) 0.40927(15)
H3 H 0.1344 0.7699 0.3716
H4 H 0.2130 0.8825 0.3672
C5 C 0.12501(17) 0.84462(16) 0.55569(15)
C6 C 0.16840(18) 0.93094(17) 0.62482(16)
H5 H 0.2504 0.9581 0.5801
C7 C 0.09324(19) 0.97778(18) 0.75831(16)
H6 H 0.1240 1.0365 0.8048
C8 C -0.02672(19) 0.93905(18) 0.82405(16)
H7 H -0.0780 0.9708 0.9157
C9 C -0.07202(19) 0.85389(17) 0.75604(16)
H8 H -0.1546 0.8275 0.8010
C10 C 0.00314(18) 0.80734(17) 0.62250(16)
H9 H -0.0287 0.7495 0.5761
C11 C 0.20430(18) 0.53423(16) 0.23278(14)
C12 C 0.26575(19) 0.59007(17) 0.12339(15)
H10 H 0.3701 0.5862 0.1082
C13 C 0.17553(19) 0.65153(17) 0.03611(15)
H11 H 0.2182 0.6897 -0.0385
C14 C 0.0240(2) 0.65736(18) 0.05742(16)
H12 H -0.0371 0.6982 -0.0030
C15 C -0.03863(19) 0.60346(17) 0.16719(16)
H13 H -0.1435 0.6086 0.1826
C16 C 0.05076(19) 0.54215(17) 0.25464(15)
H14 H 0.0070 0.5054 0.3298
C17 C 0.39977(17) 0.28777(17) 0.27975(15)
C18 C 0.39692(19) 0.18493(17) 0.36736(16)
H15 H 0.3400 0.2190 0.4580
C19 C 0.4769(2) 0.03233(18) 0.32333(17)
H16 H 0.4746 -0.0372 0.3841
C20 C 0.5596(2) -0.01869(18) 0.19182(18)
H17 H 0.6126 -0.1229 0.1619
C21 C 0.56489(19) 0.08290(18) 0.10366(17)
H18 H 0.6226 0.0483 0.0132
C22 C 0.48580(18) 0.23506(18) 0.14768(16)
H19 H 0.4904 0.3042 0.0870
loop_
_geom_bond_atom_site_label_1
_geom_bond_atom_site_label_2
_geom_bond_site_symmetry_1
_geom_bond_site_symmetry_2
O1 H1 1_555 1_555
N1 N2 1_555 1_555
N2 N3 1_555 1_555
N3 C1 1_555 1_555
C1 H2 1_555 1_555
C2 N1 1_555 1_555
C3 O1 1_555 1_555
C4 N1 1_555 1_555
H3 C4 1_555 1_555
H4 C4 1_555 1_555
C5 C4 1_555 1_555
C6 C5 1_555 1_555
H5 C6 1_555 1_555
C7 C6 1_555 1_555
H6 C7 1_555 1_555
C8 C7 1_555 1_555
H7 C8 1_555 1_555
C9 C8 1_555 1_555
H8 C9 1_555 1_555
C10 C5 1_555 1_555
H9 C10 1_555 1_555
C11 C3 1_555 1_555
C12 C11 1_555 1_555
H10 C12 1_555 1_555
C13 C12 1_555 1_555
H11 C13 1_555 1_555
C14 C13 1_555 1_555
H12 C14 1_555 1_555
C15 C14 1_555 1_555
H13 C15 1_555 1_555
C16 C11 1_555 1_555
H14 C16 1_555 1_555
C17 C3 1_555 1_555
C18 C17 1_555 1_555
H15 C18 1_555 1_555
C19 C18 1_555 1_555
H16 C19 1_555 1_555
C20 C19 1_555 1_555
H17 C20 1_555 1_555
C21 C20 1_555 1_555
H18 C21 1_555 1_555
C22 C17 1_555 1_555
H19 C22 1_555 1_555
C1 C2 1_555 1_555
C2 C3 1_555 1_555
C9 C10 1_555 1_555
C15 C16 1_555 1_555
C21 C22 1_555 1_555

#END
