
#######################################################################
#
#                 Cambridge Crystallographic Data Centre
#                                CCDC 
#
#######################################################################
#
# If this CIF has been generated from an entry in the Cambridge 
# Structural Database, then it will include bibliographic, chemical, 
# crystal, experimental, refinement or atomic coordinate data resulting 
# from the CCDC's data processing and validation procedures.
#
#######################################################################

data_RAXCOL
_chemical_formula_moiety         'C14 H8 Cl1 N1 O2'
_chemical_name_systematic        6-chloro-1-phenyl-1H-indole-2,3-dione
_symmetry_cell_setting           orthorhombic
_symmetry_space_group_name_H-M   'P 21 21 21'
_symmetry_Int_Tables_number      19
_space_group_name_Hall           'P 2ac 2ab'
loop_
_symmetry_equiv_pos_site_id
_symmetry_equiv_pos_as_xyz
1 x,y,z
2 1/2+x,1/2-y,-z
3 -x,1/2+y,1/2-z
4 1/2-x,-y,1/2+z
_cell_length_a                   6.8190(3)
_cell_length_b                   7.7062(3)
_cell_length_c                   21.7492(9)
_cell_angle_alpha                90
_cell_angle_beta                 90
_cell_angle_gamma                90
_cell_volume                     1142.89
_exptl_crystal_colour            orange
_exptl_crystal_description       bar
_cell_formula_units_Z            4
loop_
_atom_site_label
_atom_site_type_symbol
_atom_site_fract_x
_atom_site_fract_y
_atom_site_fract_z
Cl1 Cl 1.36000(5) 0.40110(5) 0.561115(17)
C1 C 1.10733(16) 0.54301(15) 0.64149(5)
O1 O 0.48463(15) 0.81725(15) 0.61436(5)
O2 O 0.58784(14) 0.83661(15) 0.74488(5)
C2 C 1.0114(2) 0.5438(2) 0.53283(6)
C3 C 1.14176(18) 0.50392(15) 0.57981(5)
C4 C 0.93314(16) 0.62745(14) 0.65401(5)
N1 N 0.86151(14) 0.68187(13) 0.71209(4)
C5 C 0.95746(17) 0.65986(15) 0.76993(5)
C6 C 0.8529(2) 0.58710(17) 0.81830(6)
C7 C 0.9437(3) 0.5724(2) 0.87499(6)
H1 H 0.8757 0.5247 0.9080
C8 C 1.1351(3) 0.6281(2) 0.88297(6)
C9 C 0.79945(17) 0.66972(16) 0.60753(5)
C10 C 0.8377(2) 0.62747(18) 0.54664(6)
C11 C 0.63341(17) 0.75880(16) 0.63578(6)
C12 C 0.68398(16) 0.76703(16) 0.70553(6)
C13 C 1.2390(2) 0.6983(2) 0.83442(6)
C14 C 1.15006(18) 0.71514(15) 0.77716(5)
H2 H 1.042(3) 0.510(2) 0.4916(9)
H3 H 0.739(3) 0.659(2) 0.5147(9)
H4 H 1.219(3) 0.768(2) 0.7437(8)
H5 H 1.369(3) 0.735(2) 0.8379(9)
H6 H 1.195(4) 0.618(3) 0.9210(11)
H7 H 0.724(3) 0.548(3) 0.8112(9)
H8 H 1.195(3) 0.509(2) 0.6711(8)
loop_
_geom_bond_atom_site_label_1
_geom_bond_atom_site_label_2
_geom_bond_site_symmetry_1
_geom_bond_site_symmetry_2
Cl1 C3 1_555 1_555
C1 C3 1_555 1_555
O1 C11 1_555 1_555
O2 C12 1_555 1_555
C2 C3 1_555 1_555
C4 C1 1_555 1_555
N1 C4 1_555 1_555
C5 N1 1_555 1_555
C6 C5 1_555 1_555
C7 C6 1_555 1_555
H1 C7 1_555 1_555
C8 C7 1_555 1_555
C9 C4 1_555 1_555
C10 C2 1_555 1_555
C11 C9 1_555 1_555
C12 N1 1_555 1_555
C13 C8 1_555 1_555
C14 C5 1_555 1_555
H2 C2 1_555 1_555
H3 C10 1_555 1_555
H4 C14 1_555 1_555
H5 C13 1_555 1_555
H6 C8 1_555 1_555
H7 C6 1_555 1_555
H8 C1 1_555 1_555
C9 C10 1_555 1_555
C11 C12 1_555 1_555
C13 C14 1_555 1_555

#END
