
#######################################################################
#
#                 Cambridge Crystallographic Data Centre
#                                CCDC 
#
#######################################################################
#
# If this CIF has been generated from an entry in the Cambridge 
# Structural Database, then it will include bibliographic, chemical, 
# crystal, experimental, refinement or atomic coordinate data resulting 
# from the CCDC's data processing and validation procedures.
#
#######################################################################

data_RAXDUS
_chemical_formula_moiety         'C22 H21 F3 N2 O2'
_chemical_name_systematic        
N-[4-benzyl-6-oxo-10b-(trifluoromethyl)-1,2,3,4,6,10b-hexahydropyrido[2,1-a]isoindol-2-yl]acetamide
_symmetry_cell_setting           monoclinic
_symmetry_space_group_name_H-M   'P 21/c'
_symmetry_Int_Tables_number      14
_space_group_name_Hall           '-P 2ybc'
loop_
_symmetry_equiv_pos_site_id
_symmetry_equiv_pos_as_xyz
1 x,y,z
2 -x,1/2+y,1/2-z
3 -x,-y,-z
4 x,1/2-y,1/2+z
_cell_length_a                   16.934(15)
_cell_length_b                   10.835(10)
_cell_length_c                   22.188(16)
_cell_angle_alpha                90
_cell_angle_beta                 104.04(3)
_cell_angle_gamma                90
_cell_volume                     3949.44
_exptl_crystal_colour            white
_exptl_crystal_description       block
_cell_formula_units_Z            8
_exptl_crystal_recrystallization_method 'ethyl acetate/dichloromethane/hexane'
loop_
_atom_site_label
_atom_site_type_symbol
_atom_site_fract_x
_atom_site_fract_y
_atom_site_fract_z
C1 C 0.46340(14) 0.4250(2) 0.65641(10)
H1 H 0.4859 0.4707 0.6292
C2 C 0.47263(15) 0.2982(2) 0.66031(11)
H2 H 0.5019 0.2581 0.6356
C3 C 0.43891(15) 0.2308(2) 0.70037(11)
H3 H 0.4455 0.1456 0.7022
C4 C 0.39547(15) 0.2874(2) 0.73784(11)
H4 H 0.3728 0.2417 0.7649
C5 C 0.38663(14) 0.4150(2) 0.73378(10)
C6 C 0.33980(13) 0.50147(19) 0.76565(9)
C7 C 0.24856(14) 0.4714(2) 0.74786(11)
H5 H 0.2337 0.4466 0.7046
H6 H 0.2389 0.4014 0.7724
C8 C 0.19265(14) 0.5771(2) 0.75699(11)
H7 H 0.2 0.5906 0.8017
C9 C 0.21518(15) 0.6953(2) 0.72846(12)
H8 H 0.1817 0.7623 0.7374
H9 H 0.2037 0.6857 0.6837
C10 C 0.30428(14) 0.72887(19) 0.75294(10)
H10 H 0.3137 0.737 0.7981
C11 C 0.39703(13) 0.6133(2) 0.69615(10)
C12 C 0.41999(13) 0.4823(2) 0.69378(9)
C13 C 0.32710(15) 0.8530(2) 0.72873(10)
H11 H 0.3856 0.8644 0.7417
H12 H 0.3114 0.8532 0.6837
C14 C 0.28512(15) 0.9581(2) 0.75316(10)
C15 C 0.30300(16) 0.9871(2) 0.81460(11)
H13 H 0.3433 0.9429 0.8421
C16 C 0.26283(19) 1.0804(2) 0.83704(13)
H14 H 0.2759 1.0972 0.8794
C17 C 0.20423(19) 1.1486(3) 0.79820(15)
H15 H 0.1775 1.2119 0.8135
C18 C 0.18604(18) 1.1222(2) 0.73721(15)
H16 H 0.146 1.1673 0.71
C19 C 0.22624(17) 1.0283(2) 0.71442(12)
H17 H 0.2132 1.0124 0.672
C20 C 0.37503(16) 0.4944(2) 0.83454(10)
C21 C 0.06904(15) 0.4610(2) 0.75848(12)
C22 C -0.01395(17) 0.4241(3) 0.72265(13)
H18 H -0.0169 0.3358 0.7193
H19 H -0.0247 0.4598 0.6819
H20 H -0.0536 0.453 0.7437
F1 F 0.45418(9) 0.51849(15) 0.84975(6)
F2 F 0.36516(9) 0.38160(13) 0.85564(6)
F3 F 0.33996(10) 0.57201(13) 0.86701(6)
H21 H 0.0911(15) 0.556(2) 0.6927(11)
N1 N 0.35496(11) 0.62358(15) 0.74142(8)
N2 N 0.10869(13) 0.5430(2) 0.73091(11)
O1 O 0.41079(10) 0.69681(15) 0.66344(7)
O2 O 0.09870(11) 0.42021(17) 0.80933(8)
C23 C 0.03076(15) 0.8253(2) 0.60535(10)
H22 H 0.0026 0.7824 0.6299
C24 C 0.02968(15) 0.9525(2) 0.60330(11)
H23 H -0.0001 0.9962 0.6263
C25 C 0.07239(15) 1.0155(2) 0.56739(11)
H24 H 0.0712 1.1013 0.5669
C26 C 0.11701(14) 0.9537(2) 0.53213(10)
H25 H 0.1458 0.9965 0.508
C27 C 0.11722(13) 0.8263(2) 0.53405(9)
C28 C 0.16079(14) 0.73374(19) 0.50227(10)
C29 C 0.25310(14) 0.7540(2) 0.51867(11)
H26 H 0.2653 0.8225 0.4942
H27 H 0.2706 0.7771 0.5621
C30 C 0.30228(14) 0.6413(2) 0.50743(10)
H28 H 0.2918 0.6277 0.4625
C31 C 0.27500(14) 0.5273(2) 0.53686(11)
H29 H 0.2885 0.5376 0.5816
H30 H 0.3048 0.4562 0.5275
C32 C 0.18405(14) 0.5023(2) 0.51428(10)
H31 H 0.1727 0.4919 0.4691
C33 C 0.08947(14) 0.6291(2) 0.56594(10)
C34 C 0.07504(13) 0.7631(2) 0.56989(9)
C35 C 0.12474(16) 0.7416(2) 0.43332(11)
C36 C 0.44203(16) 0.6639(3) 0.49661(12)
C37 C 0.52840(18) 0.6891(3) 0.53019(15)
H32 H 0.5596 0.6145 0.5327
H33 H 0.5301 0.7183 0.5713
H34 H 0.5509 0.7507 0.5081
C38 C 0.15772(16) 0.3826(2) 0.54058(11)
H35 H 0.168 0.3888 0.5854
H36 H 0.0998 0.37 0.5241
C39 C 0.20412(15) 0.2746(2) 0.52347(11)
C40 C 0.18977(16) 0.2325(2) 0.46342(11)
H37 H 0.1476 0.267 0.4333
C41 C 0.23628(18) 0.1407(2) 0.44690(12)
H38 H 0.2253 0.1143 0.4058
C42 C 0.29797(18) 0.0878(2) 0.48956(13)
H39 H 0.33 0.027 0.4779
C43 C 0.31217(17) 0.1251(2) 0.54946(13)
H40 H 0.3534 0.0882 0.5795
C44 C 0.26540(17) 0.2182(2) 0.56620(11)
H41 H 0.276 0.2428 0.6075
F4 F 0.04500(9) 0.72324(15) 0.41896(6)
F5 F 0.13813(10) 0.85311(14) 0.41184(6)
F6 F 0.15693(9) 0.66043(13) 0.40057(6)
H42 H 0.4034(15) 0.679(2) 0.5683(11)
N3 N 0.13905(11) 0.61398(16) 0.52581(8)
N4 N 0.38788(12) 0.66539(18) 0.53102(10)
O3 O 0.06454(11) 0.54761(16) 0.59442(8)
O4 O 0.42327(13) 0.6429(3) 0.44263(9)
loop_
_geom_bond_atom_site_label_1
_geom_bond_atom_site_label_2
_geom_bond_site_symmetry_1
_geom_bond_site_symmetry_2
C1 H1 1_555 1_555
C2 C1 1_555 1_555
H2 C2 1_555 1_555
C3 C2 1_555 1_555
H3 C3 1_555 1_555
C4 C3 1_555 1_555
H4 C4 1_555 1_555
C5 C4 1_555 1_555
C6 C5 1_555 1_555
C7 C6 1_555 1_555
H5 C7 1_555 1_555
H6 C7 1_555 1_555
C8 C7 1_555 1_555
H7 C8 1_555 1_555
C9 C8 1_555 1_555
H8 C9 1_555 1_555
H9 C9 1_555 1_555
C10 C9 1_555 1_555
H10 C10 1_555 1_555
C11 C12 1_555 1_555
C12 C1 1_555 1_555
C13 C10 1_555 1_555
H11 C13 1_555 1_555
H12 C13 1_555 1_555
C14 C13 1_555 1_555
C15 C14 1_555 1_555
H13 C15 1_555 1_555
C16 C15 1_555 1_555
H14 C16 1_555 1_555
C17 C16 1_555 1_555
H15 C17 1_555 1_555
C18 C17 1_555 1_555
H16 C18 1_555 1_555
C19 C14 1_555 1_555
H17 C19 1_555 1_555
C20 C6 1_555 1_555
C21 C22 1_555 1_555
C22 H18 1_555 1_555
H19 C22 1_555 1_555
H20 C22 1_555 1_555
F1 C20 1_555 1_555
F2 C20 1_555 1_555
F3 C20 1_555 1_555
H21 N2 1_555 1_555
N1 C6 1_555 1_555
N2 C8 1_555 1_555
O1 C11 1_555 1_555
O2 C21 1_555 1_555
C23 H22 1_555 1_555
C24 C23 1_555 1_555
H23 C24 1_555 1_555
C25 C24 1_555 1_555
H24 C25 1_555 1_555
C26 C25 1_555 1_555
H25 C26 1_555 1_555
C27 C26 1_555 1_555
C28 C27 1_555 1_555
C29 C28 1_555 1_555
H26 C29 1_555 1_555
H27 C29 1_555 1_555
C30 C29 1_555 1_555
H28 C30 1_555 1_555
C31 C30 1_555 1_555
H29 C31 1_555 1_555
H30 C31 1_555 1_555
C32 C31 1_555 1_555
H31 C32 1_555 1_555
C33 C34 1_555 1_555
C34 C23 1_555 1_555
C35 C28 1_555 1_555
C36 C37 1_555 1_555
C37 H32 1_555 1_555
H33 C37 1_555 1_555
H34 C37 1_555 1_555
C38 C32 1_555 1_555
H35 C38 1_555 1_555
H36 C38 1_555 1_555
C39 C38 1_555 1_555
C40 C39 1_555 1_555
H37 C40 1_555 1_555
C41 C40 1_555 1_555
H38 C41 1_555 1_555
C42 C41 1_555 1_555
H39 C42 1_555 1_555
C43 C42 1_555 1_555
H40 C43 1_555 1_555
C44 C39 1_555 1_555
H41 C44 1_555 1_555
F4 C35 1_555 1_555
F5 C35 1_555 1_555
F6 C35 1_555 1_555
H42 N4 1_555 1_555
N3 C28 1_555 1_555
N4 C30 1_555 1_555
O3 C33 1_555 1_555
O4 C36 1_555 1_555
C5 C12 1_555 1_555
C10 N1 1_555 1_555
C11 N1 1_555 1_555
C18 C19 1_555 1_555
C21 N2 1_555 1_555
C27 C34 1_555 1_555
C32 N3 1_555 1_555
C33 N3 1_555 1_555
C36 N4 1_555 1_555
C43 C44 1_555 1_555

#END
