
#######################################################################
#
#                 Cambridge Crystallographic Data Centre
#                                CCDC 
#
#######################################################################
#
# If this CIF has been generated from an entry in the Cambridge 
# Structural Database, then it will include bibliographic, chemical, 
# crystal, experimental, refinement or atomic coordinate data resulting 
# from the CCDC's data processing and validation procedures.
#
#######################################################################

data_RAXDIG
_chemical_formula_moiety         'C38 H43 Cl4 N3 O4'
_chemical_name_systematic        
'1-[3-(t-butylcarbamoyl)octahydroisoquinolin-2(1H)-yl]-3-[(3,5-dichlorobenzoyl)amino]-4-phenylbutan-2-yl 3,5-dichlorobenzoate'
_symmetry_cell_setting           orthorhombic
_symmetry_space_group_name_H-M   'P 21 21 21'
_symmetry_Int_Tables_number      19
_space_group_name_Hall           'P 2ac 2ab'
loop_
_symmetry_equiv_pos_site_id
_symmetry_equiv_pos_as_xyz
1 x,y,z
2 1/2-x,-y,1/2+z
3 1/2+x,1/2-y,-z
4 -x,1/2+y,1/2-z
_cell_length_a                   10.45390(10)
_cell_length_b                   15.19170(10)
_cell_length_c                   24.3677(2)
_cell_angle_alpha                90
_cell_angle_beta                 90
_cell_angle_gamma                90
_cell_volume                     3869.9
_exptl_crystal_colour            colorless
_exptl_crystal_description       slab
_cell_formula_units_Z            4
loop_
_atom_site_label
_atom_site_type_symbol
_atom_site_fract_x
_atom_site_fract_y
_atom_site_fract_z
C1 C 0.3339(3) 0.3116(2) 0.28983(12)
H1 H 0.4228 0.3055 0.2764
H2 H 0.2948 0.3629 0.2712
C2 C 0.2587(3) 0.2289(2) 0.27568(12)
H3 H 0.1702 0.2335 0.2910
C3 C 0.3188(3) 0.1407(2) 0.29311(12)
H4 H 0.2717 0.0929 0.2734
C4 C 0.3109(3) 0.1206(2) 0.35483(13)
H5 H 0.3595 0.1657 0.3755
H6 H 0.2205 0.1235 0.3669
C5 C 0.4901(3) 0.09795(19) 0.22901(12)
C6 C 0.1687(3) 0.2720(2) 0.18833(14)
C7 C 0.4476(3) 0.37726(19) 0.36694(12)
H7 H 0.4450 0.4368 0.3495
C8 C 0.4452(3) 0.3883(2) 0.42941(12)
H8 H 0.4500 0.3297 0.4471
H9 H 0.5209 0.4228 0.4411
C9 C 0.3234(3) 0.4354(2) 0.44809(13)
H10 H 0.3238 0.4952 0.4309
C10 C 0.3151(4) 0.4484(2) 0.51013(14)
H11 H 0.3968 0.4735 0.5235
H12 H 0.2464 0.4913 0.5183
C11 C 0.2880(4) 0.3630(3) 0.54077(14)
H13 H 0.2758 0.3760 0.5802
H14 H 0.3625 0.3232 0.5372
C12 C 0.1691(4) 0.3171(3) 0.51853(16)
H15 H 0.0930 0.3542 0.5257
H16 H 0.1571 0.2603 0.5378
C13 C 0.1815(3) 0.3005(2) 0.45668(14)
H17 H 0.2534 0.2596 0.4498
H18 H 0.1021 0.2727 0.4428
C14 C 0.2048(3) 0.3865(2) 0.42625(13)
H19 H 0.1289 0.4252 0.4327
C15 C 0.2175(3) 0.3736(2) 0.36460(13)
H20 H 0.1428 0.3399 0.3511
H21 H 0.2164 0.4319 0.3464
C16 C 0.5715(3) 0.33129(19) 0.35033(12)
C17 C 0.7959(3) 0.3617(2) 0.31935(14)
C18 C 0.8574(3) 0.2958(3) 0.3576(2)
H22 H 0.8061 0.2418 0.3584
H23 H 0.8622 0.3208 0.3947
H24 H 0.9439 0.2821 0.3446
C19 C 0.7847(4) 0.3250(3) 0.26108(16)
H25 H 0.7327 0.2714 0.2616
H26 H 0.8702 0.3112 0.2470
H27 H 0.7441 0.3689 0.2373
C20 C 0.8752(3) 0.4461(2) 0.31835(15)
H28 H 0.8331 0.4897 0.2949
H29 H 0.9606 0.4333 0.3038
H30 H 0.8829 0.4694 0.3557
C21 C 0.3644(4) 0.0305(2) 0.36758(13)
C22 C 0.4947(4) 0.0212(3) 0.38043(15)
H31 H 0.5464 0.0723 0.3843
C23 C 0.5494(5) -0.0614(3) 0.38766(17)
H32 H 0.6376 -0.0664 0.3965
C24 C 0.4763(6) -0.1352(3) 0.38198(17)
H33 H 0.5144 -0.1916 0.3858
C25 C 0.3478(5) -0.1284(3) 0.37081(18)
H34 H 0.2969 -0.1800 0.3679
C26 C 0.2912(4) -0.0445(2) 0.36356(16)
H35 H 0.2024 -0.0400 0.3559
C27 C 0.6317(3) 0.10128(19) 0.21805(13)
C28 C 0.7207(3) 0.0856(2) 0.25959(14)
H36 H 0.6934 0.0722 0.2958
C29 C 0.8505(3) 0.0899(2) 0.24673(15)
C30 C 0.8922(3) 0.1106(2) 0.19463(16)
H37 H 0.9810 0.1148 0.1867
C31 C 0.8013(3) 0.1254(2) 0.15382(15)
C32 C 0.6711(3) 0.12013(19) 0.16489(13)
H38 H 0.6100 0.1293 0.1366
C33 C 0.1663(3) 0.2464(2) 0.12927(13)
C34 C 0.2152(3) 0.1651(2) 0.11265(14)
H39 H 0.2583 0.1278 0.1379
C35 C 0.1993(3) 0.1402(2) 0.05848(14)
C36 C 0.1413(3) 0.1945(2) 0.02003(14)
H40 H 0.1330 0.1769 -0.0172
C37 C 0.0960(3) 0.2754(2) 0.03776(15)
C38 C 0.1059(3) 0.3019(2) 0.09184(15)
H41 H 0.0721 0.3570 0.1033
N1 N 0.3352(2) 0.32700(16) 0.34911(10)
N2 N 0.6672(2) 0.38628(17) 0.33856(10)
H42 H 0.651(4) 0.440(3) 0.3363(14)
N3 N 0.4523(2) 0.13695(16) 0.27536(10)
H43 H 0.510(4) 0.166(2) 0.2945(15)
O1 O 0.58152(19) 0.24951(13) 0.34972(9)
O2 O 0.4177(2) 0.06170(14) 0.19576(9)
O3 O 0.2526(2) 0.22167(14) 0.21627(9)
O4 O 0.1021(2) 0.32785(16) 0.20878(10)
Cl1 Cl 0.96231(8) 0.07105(6) 0.29804(4)
Cl2 Cl 0.85139(8) 0.14928(6) 0.08777(4)
Cl3 Cl 0.24876(9) 0.03602(6) 0.03774(4)
Cl4 Cl 0.01738(10) 0.34193(6) -0.00931(4)
loop_
_geom_bond_atom_site_label_1
_geom_bond_atom_site_label_2
_geom_bond_site_symmetry_1
_geom_bond_site_symmetry_2
C1 H1 1_555 1_555
H2 C1 1_555 1_555
C2 C1 1_555 1_555
H3 C2 1_555 1_555
C3 C2 1_555 1_555
H4 C3 1_555 1_555
C4 C3 1_555 1_555
H5 C4 1_555 1_555
H6 C4 1_555 1_555
C5 C27 1_555 1_555
C6 C33 1_555 1_555
C7 H7 1_555 1_555
C8 C7 1_555 1_555
H8 C8 1_555 1_555
H9 C8 1_555 1_555
C9 C8 1_555 1_555
H10 C9 1_555 1_555
C10 C9 1_555 1_555
H11 C10 1_555 1_555
H12 C10 1_555 1_555
C11 C10 1_555 1_555
H13 C11 1_555 1_555
H14 C11 1_555 1_555
C12 C11 1_555 1_555
H15 C12 1_555 1_555
H16 C12 1_555 1_555
C13 C12 1_555 1_555
H17 C13 1_555 1_555
H18 C13 1_555 1_555
C14 C9 1_555 1_555
H19 C14 1_555 1_555
C15 C14 1_555 1_555
H20 C15 1_555 1_555
H21 C15 1_555 1_555
C16 C7 1_555 1_555
C17 C18 1_555 1_555
C18 H22 1_555 1_555
H23 C18 1_555 1_555
H24 C18 1_555 1_555
C19 C17 1_555 1_555
H25 C19 1_555 1_555
H26 C19 1_555 1_555
H27 C19 1_555 1_555
C20 C17 1_555 1_555
H28 C20 1_555 1_555
H29 C20 1_555 1_555
H30 C20 1_555 1_555
C21 C4 1_555 1_555
C22 C21 1_555 1_555
H31 C22 1_555 1_555
C23 C22 1_555 1_555
H32 C23 1_555 1_555
C24 C23 1_555 1_555
H33 C24 1_555 1_555
C25 C24 1_555 1_555
H34 C25 1_555 1_555
C26 C21 1_555 1_555
H35 C26 1_555 1_555
C27 C28 1_555 1_555
C28 H36 1_555 1_555
C29 C28 1_555 1_555
C30 C29 1_555 1_555
H37 C30 1_555 1_555
C31 C30 1_555 1_555
C32 C27 1_555 1_555
H38 C32 1_555 1_555
C33 C34 1_555 1_555
C34 H39 1_555 1_555
C35 C34 1_555 1_555
C36 C35 1_555 1_555
H40 C36 1_555 1_555
C37 C36 1_555 1_555
C38 C33 1_555 1_555
H41 C38 1_555 1_555
N1 C1 1_555 1_555
N2 C16 1_555 1_555
H42 N2 1_555 1_555
N3 C3 1_555 1_555
H43 N3 1_555 1_555
O1 C16 1_555 1_555
O2 C5 1_555 1_555
O3 C2 1_555 1_555
O4 C6 1_555 1_555
Cl1 C29 1_555 1_555
Cl2 C31 1_555 1_555
Cl3 C35 1_555 1_555
Cl4 C37 1_555 1_555
C5 N3 1_555 1_555
C6 O3 1_555 1_555
C7 N1 1_555 1_555
C13 C14 1_555 1_555
C15 N1 1_555 1_555
C17 N2 1_555 1_555
C25 C26 1_555 1_555
C31 C32 1_555 1_555
C37 C38 1_555 1_555

#END
