
#######################################################################
#
#                 Cambridge Crystallographic Data Centre
#                                CCDC 
#
#######################################################################
#
# If this CIF has been generated from an entry in the Cambridge 
# Structural Database, then it will include bibliographic, chemical, 
# crystal, experimental, refinement or atomic coordinate data resulting 
# from the CCDC's data processing and validation procedures.
#
#######################################################################

data_RAXFEE
_chemical_formula_moiety         'C25 H19 F3 N2 O2,C1 H1 Cl3'
_chemical_name_systematic        
'N-((6-oxo-10b-(trifluoromethyl)-10b,11-dihydro-6H-isoindolo[2,1-a]indol-11-yl)(phenyl)methyl)acetamide chloroform solvate'
_symmetry_cell_setting           monoclinic
_symmetry_space_group_name_H-M   'C 2/c'
_symmetry_Int_Tables_number      15
_space_group_name_Hall           '-C 2yn'
loop_
_symmetry_equiv_pos_site_id
_symmetry_equiv_pos_as_xyz
1 x,y,z
2 -x,y,1/2-z
3 1/2+x,1/2+y,z
4 1/2-x,1/2+y,1/2-z
5 -x,-y,-z
6 x,-y,1/2+z
7 1/2-x,1/2-y,-z
8 1/2+x,1/2-y,1/2+z
_cell_length_a                   17.1569(5)
_cell_length_b                   12.5876(4)
_cell_length_c                   24.4178(8)
_cell_angle_alpha                90
_cell_angle_beta                 104.8324(13)
_cell_angle_gamma                90
_cell_volume                     5097.66
_exptl_crystal_colour            colorless
_exptl_crystal_description       Block
_cell_formula_units_Z            8
_exptl_crystal_recrystallization_method chloroform/hexane
loop_
_atom_site_label
_atom_site_type_symbol
_atom_site_fract_x
_atom_site_fract_y
_atom_site_fract_z
C1 C 0.39347(17) 0.7734(3) 0.21478(13)
H1 H 0.4275 0.7149 0.2234
C2 C 0.35560(19) 0.7973(3) 0.15917(13)
H2 H 0.3641 0.7544 0.1302
C3 C 0.3052(2) 0.8843(3) 0.14619(13)
H3 H 0.2801 0.8992 0.1085
C4 C 0.2913(2) 0.9498(3) 0.18827(13)
H4 H 0.2575 1.0086 0.1796
C5 C 0.32936(17) 0.9243(2) 0.24345(12)
C6 C 0.25521(17) 1.0047(2) 0.30918(12)
C7 C 0.27519(18) 0.9944(2) 0.37160(12)
C8 C 0.2271(2) 1.0160(3) 0.40807(14)
H5 H 0.1753 1.043 0.3948
C9 C 0.2593(2) 0.9959(3) 0.46472(15)
H6 H 0.2285 1.0091 0.4902
C10 C 0.3365(2) 0.9567(3) 0.48442(14)
H7 H 0.3568 0.9446 0.523
C11 C 0.3843(2) 0.9349(3) 0.44788(13)
H8 H 0.4365 0.9092 0.4614
C12 C 0.35204(18) 0.9525(2) 0.39100(12)
C13 C 0.38907(16) 0.9391(2) 0.34134(12)
C14 C 0.41084(16) 0.8276(2) 0.32145(12)
H9 H 0.4697 0.8205 0.3312
C15 C 0.38029(15) 0.8376(2) 0.25748(12)
C16 C 0.37515(17) 0.7321(2) 0.34732(12)
H10 H 0.3996 0.7336 0.3883
C17 C 0.28481(19) 0.7316(2) 0.33927(15)
C18 C 0.23084(19) 0.7332(3) 0.28630(17)
H11 H 0.2499 0.7346 0.2539
C19 C 0.1484(2) 0.7328(3) 0.2813(2)
H12 H 0.1122 0.7344 0.2457
C20 C 0.1202(3) 0.7298(4) 0.3296(4)
H13 H 0.065 0.7309 0.3265
C21 C 0.1730(4) 0.7255(4) 0.3817(3)
H14 H 0.1536 0.7217 0.4139
C22 C 0.2548(3) 0.7265(3) 0.3871(2)
H15 H 0.2903 0.7238 0.423
C23 C 0.47256(18) 0.5878(2) 0.34871(12)
C24 C 0.4887(2) 0.4843(3) 0.32380(15)
H16 H 0.5347 0.4915 0.3085
H17 H 0.4425 0.4642 0.2942
H18 H 0.4994 0.4307 0.3527
C25 C 0.4621(2) 1.0128(3) 0.34924(14)
F1 F 0.49249(12) 1.01475(18) 0.30458(9)
F2 F 0.52086(11) 0.9818(2) 0.39353(9)
F3 F 0.44344(14) 1.11278(17) 0.35915(10)
N1 N 0.32471(14) 0.97878(19) 0.29353(9)
N2 N 0.40059(16) 0.6326(2) 0.32615(11)
O1 O 0.19099(13) 1.02833(19) 0.27702(9)
O2 O 0.52288(13) 0.62975(19) 0.38789(9)
H19 H 0.368(2) 0.605(3) 0.2986(14)
C26 C 0.0605(3) 0.8425(4) 0.01486(16)
H20 H 0.0458 0.8652 -0.0249
Cl1 Cl 0.10384(7) 0.95150(12) 0.05632(6)
Cl2 Cl 0.12710(17) 0.73928(17) 0.02116(10)
Cl3 Cl -0.02822(11) 0.80452(15) 0.03289(7)
loop_
_geom_bond_atom_site_label_1
_geom_bond_atom_site_label_2
_geom_bond_site_symmetry_1
_geom_bond_site_symmetry_2
C1 H1 1_555 1_555
C2 C1 1_555 1_555
H2 C2 1_555 1_555
C3 C2 1_555 1_555
H3 C3 1_555 1_555
C4 C3 1_555 1_555
H4 C4 1_555 1_555
C5 C4 1_555 1_555
C6 C7 1_555 1_555
C7 C8 1_555 1_555
C8 H5 1_555 1_555
C9 C8 1_555 1_555
H6 C9 1_555 1_555
C10 C9 1_555 1_555
H7 C10 1_555 1_555
C11 C10 1_555 1_555
H8 C11 1_555 1_555
C12 C7 1_555 1_555
C13 C12 1_555 1_555
C14 C13 1_555 1_555
H9 C14 1_555 1_555
C15 C1 1_555 1_555
C16 C14 1_555 1_555
H10 C16 1_555 1_555
C17 C16 1_555 1_555
C18 C17 1_555 1_555
H11 C18 1_555 1_555
C19 C18 1_555 1_555
H12 C19 1_555 1_555
C20 C19 1_555 1_555
H13 C20 1_555 1_555
C21 C20 1_555 1_555
H14 C21 1_555 1_555
C22 C17 1_555 1_555
H15 C22 1_555 1_555
C23 C24 1_555 1_555
C24 H16 1_555 1_555
H17 C24 1_555 1_555
H18 C24 1_555 1_555
C25 C13 1_555 1_555
F1 C25 1_555 1_555
F2 C25 1_555 1_555
F3 C25 1_555 1_555
N1 C5 1_555 1_555
N2 C16 1_555 1_555
O1 C6 1_555 1_555
O2 C23 1_555 1_555
H19 N2 1_555 1_555
C26 H20 1_555 1_555
Cl1 C26 1_555 1_555
Cl2 C26 1_555 1_555
Cl3 C26 1_555 1_555
C5 C15 1_555 1_555
C6 N1 1_555 1_555
C11 C12 1_555 1_555
C13 N1 1_555 1_555
C14 C15 1_555 1_555
C21 C22 1_555 1_555
C23 N2 1_555 1_555

#END
