
#######################################################################
#
#                 Cambridge Crystallographic Data Centre
#                                CCDC 
#
#######################################################################
#
# If this CIF has been generated from an entry in the Cambridge 
# Structural Database, then it will include bibliographic, chemical, 
# crystal, experimental, refinement or atomic coordinate data resulting 
# from the CCDC's data processing and validation procedures.
#
#######################################################################

data_RAXJUY
_chemical_formula_moiety         'C24 H21 Br1 F3 N3 O4'
_chemical_name_systematic        
"ethyl 5''-bromo-1,1''-dimethyl-2,2''-dioxo-5'-(trifluoromethyl)-1,1'',2,2''-tetrahydrodispiro[indole-3,2'-pyrrolidine-3',3''-indole]-4'-carboxylate"
_symmetry_cell_setting           monoclinic
_symmetry_space_group_name_H-M   'P 21/c'
_symmetry_Int_Tables_number      14
_space_group_name_Hall           '-P 2ybc'
loop_
_symmetry_equiv_pos_site_id
_symmetry_equiv_pos_as_xyz
1 x,y,z
2 -x,1/2+y,1/2-z
3 -x,-y,-z
4 x,1/2-y,1/2+z
_cell_length_a                   14.1140(2)
_cell_length_b                   11.22330(10)
_cell_length_c                   15.3813(2)
_cell_angle_alpha                90
_cell_angle_beta                 111.768(2)
_cell_angle_gamma                90
_cell_volume                     2262.75
_exptl_crystal_colour            colorless
_exptl_crystal_description       block
_cell_formula_units_Z            4
loop_
_atom_site_label
_atom_site_type_symbol
_atom_site_fract_x
_atom_site_fract_y
_atom_site_fract_z
Br1 Br 0.591742(18) 0.72780(2) 0.022197(17)
F1 F 0.06129(11) 0.57896(13) 0.10224(11)
F2 F -0.01610(11) 0.74683(13) 0.09255(11)
F3 F 0.07976(11) 0.67896(13) 0.22716(10)
O1 O 0.38241(12) 0.80026(15) 0.21863(11)
O2 O 0.05512(12) 0.96476(14) -0.06581(11)
O3 O 0.26775(13) 0.57147(15) 0.06719(11)
N1 N 0.39864(14) 1.00399(17) 0.22818(13)
O4 O 0.19961(13) 0.63895(15) -0.08140(11)
N2 N 0.16548(14) 0.87729(16) 0.15740(13)
H1 H 0.1311 0.9113 0.1864
N3 N 0.19593(14) 0.99878(17) -0.10359(13)
C1 C 0.33651(16) 1.1034(2) 0.19043(15)
C2 C 0.14492(17) 0.94941(18) -0.05299(15)
C3 C 0.29324(17) 0.94810(19) -0.07897(15)
C4 C 0.16538(17) 0.7511(2) 0.03081(15)
H2 H 0.0950 0.7540 -0.0146
C5 C 0.40116(17) 0.8023(2) 0.02737(15)
H3 H 0.4148 0.7488 0.0767
C6 C 0.28551(18) 1.3059(2) 0.16533(16)
H4 H 0.3002 1.3867 0.1754
C7 C 0.49738(17) 1.0104(2) 0.30544(16)
H5 H 0.5261 0.9320 0.3195
H6 H 0.4885 1.0429 0.3597
H7 H 0.5425 1.0607 0.2880
C8 C 0.36110(18) 1.2221(2) 0.20927(16)
H8 H 0.4257 1.2453 0.2497
C9 C 0.16293(17) 0.7520(2) 0.13028(16)
H9 H 0.2250 0.7132 0.1728
C10 C 0.21997(16) 0.87050(19) 0.02427(15)
C11 C 0.24071(17) 1.06633(19) 0.12840(15)
C12 C 0.45230(18) 0.8995(2) -0.08974(17)
H10 H 0.5007 0.9095 -0.1169
C13 C 0.21726(17) 0.6422(2) 0.00996(15)
C14 C 0.18875(19) 1.2705(2) 0.10683(17)
H11 H 0.1389 1.3277 0.0795
C15 C 0.34877(16) 0.8998(2) 0.19497(14)
C16 C 0.46959(17) 0.8188(2) -0.01743(16)
C17 C 0.15120(18) 1.0810(2) -0.18096(16)
H12 H 0.0844 1.1038 -0.1844
H13 H 0.1462 1.0431 -0.2384
H14 H 0.1935 1.1506 -0.1712
C18 C 0.23977(16) 0.93145(19) 0.12388(15)
C19 C 0.31174(16) 0.86874(19) -0.00441(15)
C20 C 0.16498(16) 1.1489(2) 0.08825(15)
H15 H 0.0998 1.1251 0.0498
C21 C 0.36281(18) 0.9657(2) -0.12182(16)
H16 H 0.3500 1.0201 -0.1705
C22 C 0.07220(17) 0.6897(2) 0.13838(16)
C23 C 0.25238(18) 0.5476(2) -0.11334(17)
H17 H 0.3151 0.5258 -0.0626
H18 H 0.2699 0.5787 -0.1643
C24 C 0.1860(2) 0.4390(2) -0.14610(19)
H19 H 0.2218 0.3797 -0.1669
H20 H 0.1243 0.4605 -0.1969
H21 H 0.1694 0.4077 -0.0954
loop_
_geom_bond_atom_site_label_1
_geom_bond_atom_site_label_2
_geom_bond_site_symmetry_1
_geom_bond_site_symmetry_2
Br1 C16 1_555 1_555
F1 C22 1_555 1_555
F2 C22 1_555 1_555
F3 C22 1_555 1_555
O1 C15 1_555 1_555
O2 C2 1_555 1_555
O3 C13 1_555 1_555
N1 C1 1_555 1_555
O4 C13 1_555 1_555
N2 H1 1_555 1_555
N3 C2 1_555 1_555
C1 C8 1_555 1_555
C2 C10 1_555 1_555
C3 N3 1_555 1_555
C4 H2 1_555 1_555
C5 H3 1_555 1_555
C6 H4 1_555 1_555
C7 N1 1_555 1_555
H5 C7 1_555 1_555
H6 C7 1_555 1_555
H7 C7 1_555 1_555
C8 C6 1_555 1_555
H8 C8 1_555 1_555
C9 N2 1_555 1_555
H9 C9 1_555 1_555
C10 C4 1_555 1_555
C11 C1 1_555 1_555
C12 H10 1_555 1_555
C13 C4 1_555 1_555
C14 C6 1_555 1_555
H11 C14 1_555 1_555
C15 N1 1_555 1_555
C16 C5 1_555 1_555
C17 N3 1_555 1_555
H12 C17 1_555 1_555
H13 C17 1_555 1_555
H14 C17 1_555 1_555
C18 N2 1_555 1_555
C19 C3 1_555 1_555
C20 C11 1_555 1_555
H15 C20 1_555 1_555
C21 C3 1_555 1_555
H16 C21 1_555 1_555
C22 C9 1_555 1_555
C23 O4 1_555 1_555
H17 C23 1_555 1_555
H18 C23 1_555 1_555
C24 C23 1_555 1_555
H19 C24 1_555 1_555
H20 C24 1_555 1_555
H21 C24 1_555 1_555
C4 C9 1_555 1_555
C5 C19 1_555 1_555
C10 C18 1_555 1_555
C10 C19 1_555 1_555
C11 C18 1_555 1_555
C12 C16 1_555 1_555
C12 C21 1_555 1_555
C14 C20 1_555 1_555
C15 C18 1_555 1_555

#END
