
#######################################################################
#
#                 Cambridge Crystallographic Data Centre
#                                CCDC 
#
#######################################################################
#
# If this CIF has been generated from an entry in the Cambridge 
# Structural Database, then it will include bibliographic, chemical, 
# crystal, experimental, refinement or atomic coordinate data resulting 
# from the CCDC's data processing and validation procedures.
#
#######################################################################

data_RAXWOD
_chemical_formula_moiety         'C25 H23 N3 O9'
_chemical_name_systematic        
'1-Acetyl-1,2,3,4,5,7,8,8a-octahydrocyclopenta(b)azepine-7,8-diyl bis(4-nitrobenzoate)'
_symmetry_cell_setting           triclinic
_symmetry_space_group_name_H-M   'P -1'
_symmetry_Int_Tables_number      2
_space_group_name_Hall           '-P 1'
loop_
_symmetry_equiv_pos_site_id
_symmetry_equiv_pos_as_xyz
1 x,y,z
2 -x,-y,-z
_cell_length_a                   9.5136(13)
_cell_length_b                   10.9065(9)
_cell_length_c                   12.1105(16)
_cell_angle_alpha                74.844(7)
_cell_angle_beta                 81.724(12)
_cell_angle_gamma                85.942(8)
_cell_volume                     1199.53
_exptl_crystal_colour            colorless
_exptl_crystal_description       prism
_chemical_melting_point          '211-213 deg.C'
_cell_formula_units_Z            2
loop_
_atom_site_label
_atom_site_type_symbol
_atom_site_fract_x
_atom_site_fract_y
_atom_site_fract_z
O1 O 0.14101(13) 0.85412(12) 0.28400(10)
O2 O 0.27252(14) 0.81090(16) 0.43100(13)
O3 O 0.26495(13) 0.62127(12) 0.29637(10)
O4 O 0.45939(19) 0.50637(16) 0.25560(13)
O5 O -0.4617(2) 0.9211(2) 0.63988(19)
O6 O -0.3576(2) 0.8422(3) 0.78795(18)
O7 O 0.14866(16) 0.21945(16) 0.83791(13)
O8 O 0.37080(18) 0.17416(18) 0.82947(14)
O9 O 0.07444(18) 0.46951(15) 0.15076(15)
N1 N 0.23388(15) 0.60727(14) 0.03760(12)
N2 N -0.3584(2) 0.8752(2) 0.68465(19)
N3 N 0.26824(18) 0.22818(16) 0.78667(15)
C1 C 0.2656(2) 0.84778(18) 0.19887(16)
H1 H 0.3503 0.8821 0.2156
C2 C 0.28989(18) 0.71197(17) 0.18620(15)
H2 H 0.3879 0.7008 0.1514
C3 C 0.18831(18) 0.70083(16) 0.10336(14)
H3 H 0.0948 0.6785 0.1473
C4 C 0.3449(2) 0.64304(19) -0.06105(15)
H4 H 0.3992 0.5672 -0.0714
H5 H 0.4093 0.6991 -0.0445
C5 C 0.2856(2) 0.7093(2) -0.17271(16)
H6 H 0.3580 0.7063 -0.2372
H7 H 0.2055 0.6626 -0.1795
C6 C 0.2376(2) 0.8462(2) -0.18141(16)
H8 H 0.1996 0.8797 -0.2539
H9 H 0.3202 0.8946 -0.1836
C7 C 0.1258(2) 0.86814(19) -0.08385(16)
H10 H 0.0934 0.9566 -0.1024
H11 H 0.0447 0.8168 -0.0786
C8 C 0.17956(18) 0.83615(17) 0.03061(15)
C9 C 0.2236(2) 0.91523(18) 0.08374(17)
H12 H 0.2279 1.0026 0.0529
C10 C 0.1596(2) 0.83180(18) 0.39499(16)
C11 C 0.02201(18) 0.83835(16) 0.46917(15)
C12 C -0.09629(19) 0.90006(17) 0.42304(16)
H13 H -0.0917 0.9335 0.3437
C13 C -0.2209(2) 0.91247(19) 0.49331(17)
H14 H -0.3002 0.9553 0.4628
C14 C -0.2247(2) 0.85981(19) 0.60986(17)
C15 C -0.1109(2) 0.7949(2) 0.65819(17)
H15 H -0.1178 0.7582 0.7372
C16 C 0.0142(2) 0.78524(19) 0.58701(16)
H16 H 0.0935 0.7430 0.6182
C17 C 0.3602(2) 0.52578(18) 0.32175(16)
C18 C 0.32995(18) 0.44904(16) 0.44349(15)
C19 C 0.20964(19) 0.46977(18) 0.51659(16)
H17 H 0.1429 0.5327 0.4892
C20 C 0.1875(2) 0.39831(18) 0.62949(17)
H18 H 0.1063 0.4113 0.6784
C21 C 0.29024(19) 0.30675(17) 0.66741(16)
C22 C 0.41079(19) 0.28495(18) 0.59771(17)
H19 H 0.4783 0.2232 0.6261
C23 C 0.4304(2) 0.35577(18) 0.48521(17)
H20 H 0.5113 0.3413 0.4366
C24 C 0.1683(2) 0.49520(19) 0.06819(19)
C25 C 0.2146(3) 0.4016(2) -0.0034(2)
H21 H 0.2088 0.4422 -0.0832
H22 H 0.1536 0.3304 0.0214
H23 H 0.3109 0.3727 0.0062
loop_
_geom_bond_atom_site_label_1
_geom_bond_atom_site_label_2
_geom_bond_site_symmetry_1
_geom_bond_site_symmetry_2
O1 C1 1_555 1_555
O2 C10 1_555 1_555
O3 C2 1_555 1_555
O4 C17 1_555 1_555
O5 N2 1_555 1_555
O6 N2 1_555 1_555
O7 N3 1_555 1_555
O8 N3 1_555 1_555
O9 C24 1_555 1_555
N1 C3 1_555 1_555
N2 C14 1_555 1_555
N3 C21 1_555 1_555
C1 H1 1_555 1_555
C2 C1 1_555 1_555
H2 C2 1_555 1_555
C3 C2 1_555 1_555
H3 C3 1_555 1_555
C4 N1 1_555 1_555
H4 C4 1_555 1_555
H5 C4 1_555 1_555
C5 C4 1_555 1_555
H6 C5 1_555 1_555
H7 C5 1_555 1_555
C6 C5 1_555 1_555
H8 C6 1_555 1_555
H9 C6 1_555 1_555
C7 C6 1_555 1_555
H10 C7 1_555 1_555
H11 C7 1_555 1_555
C8 C3 1_555 1_555
C9 C1 1_555 1_555
H12 C9 1_555 1_555
C10 O1 1_555 1_555
C11 C10 1_555 1_555
C12 C11 1_555 1_555
H13 C12 1_555 1_555
C13 C12 1_555 1_555
H14 C13 1_555 1_555
C14 C13 1_555 1_555
C15 C14 1_555 1_555
H15 C15 1_555 1_555
C16 C11 1_555 1_555
H16 C16 1_555 1_555
C17 O3 1_555 1_555
C18 C17 1_555 1_555
C19 C18 1_555 1_555
H17 C19 1_555 1_555
C20 C19 1_555 1_555
H18 C20 1_555 1_555
C21 C20 1_555 1_555
C22 C21 1_555 1_555
H19 C22 1_555 1_555
C23 C18 1_555 1_555
H20 C23 1_555 1_555
C24 N1 1_555 1_555
C25 C24 1_555 1_555
H21 C25 1_555 1_555
H22 C25 1_555 1_555
H23 C25 1_555 1_555
C7 C8 1_555 1_555
C8 C9 1_555 1_555
C15 C16 1_555 1_555
C22 C23 1_555 1_555

#END
