
#######################################################################
#
#                 Cambridge Crystallographic Data Centre
#                                CCDC 
#
#######################################################################
#
# If this CIF has been generated from an entry in the Cambridge 
# Structural Database, then it will include bibliographic, chemical, 
# crystal, experimental, refinement or atomic coordinate data resulting 
# from the CCDC's data processing and validation procedures.
#
#######################################################################

data_RAXWIX
_chemical_formula_moiety         'C19 H20 Br1 N1 O5'
_chemical_name_systematic        
'1-Acetyl-9-(acetoxy)-1-azaspiro(4.4)non-7-en-6-yl 4-bromobenzoate'
_symmetry_cell_setting           orthorhombic
_symmetry_space_group_name_H-M   'P 21 21 21'
_symmetry_Int_Tables_number      19
_space_group_name_Hall           'P 2ac 2ab'
loop_
_symmetry_equiv_pos_site_id
_symmetry_equiv_pos_as_xyz
1 x,y,z
2 1/2-x,-y,1/2+z
3 -x,1/2+y,1/2-z
4 1/2+x,1/2-y,-z
_cell_length_a                   7.6330(5)
_cell_length_b                   8.8059(15)
_cell_length_c                   27.8722(18)
_cell_angle_alpha                90
_cell_angle_beta                 90
_cell_angle_gamma                90
_cell_volume                     1873.44
_exptl_crystal_colour            colorless
_exptl_crystal_description       'long prism'
_chemical_melting_point          '177-179 deg.C'
_cell_formula_units_Z            4
loop_
_atom_site_label
_atom_site_type_symbol
_atom_site_fract_x
_atom_site_fract_y
_atom_site_fract_z
Br1 Br 1.39332(11) 0.69244(10) 0.73968(3)
O1 O 0.6270(8) 0.5242(6) 0.8542(2)
O2 O 0.7951(6) 0.3337(5) 0.88153(15)
O3 O 0.2969(6) 0.1604(6) 0.90087(15)
O4 O 0.7018(7) -0.0288(7) 0.99436(17)
O5 O 0.4879(11) -0.0843(9) 1.0447(3)
N1 N 0.5400(7) 0.0237(6) 0.88429(17)
C1 C 0.7672(9) 0.4567(8) 0.8551(2)
C2 C 0.6479(8) 0.2829(7) 0.9108(2)
H1 H 0.5367 0.3123 0.8958
C3 C 0.6547(8) 0.1083(7) 0.9183(2)
C4 C 0.8337(8) 0.0376(7) 0.9072(3)
H2 H 0.8929 0.0936 0.8820
H3 H 0.9074 0.0367 0.9355
C5 C 0.7924(11) -0.1229(9) 0.8910(3)
H4 H 0.7697 -0.1887 0.9182
H5 H 0.8878 -0.1651 0.8723
C6 C 0.6291(11) -0.1023(8) 0.8606(2)
H6 H 0.6589 -0.0771 0.8278
H7 H 0.5573 -0.1932 0.8608
C7 C 0.5966(10) 0.0899(8) 0.97146(19)
H8 H 0.4716 0.0652 0.9733
C8 C 0.6310(11) 0.2399(10) 0.9928(3)
H9 H 0.6330 0.2586 1.0256
C9 C 0.6582(10) 0.3430(9) 0.9604(3)
H10 H 0.6817 0.4441 0.9676
C10 C 0.3687(9) 0.0606(8) 0.8772(2)
C11 C 0.2716(11) -0.0257(11) 0.8398(3)
H11 H 0.1594 0.0206 0.8346
H12 H 0.2557 -0.1287 0.8503
H13 H 0.3372 -0.0248 0.8104
C12 C 0.6314(14) -0.1030(10) 1.0304(3)
C13 C 0.785(2) -0.186(2) 1.0551(6)
H14 H 0.7403 -0.2536 1.0792
H15 H 0.8617 -0.1128 1.0696
H16 H 0.8490 -0.2432 1.0316
C15 C 0.9204(9) 0.5051(7) 0.8273(2)
C16 C 1.0888(9) 0.4524(8) 0.8361(2)
H20 H 1.1066 0.3794 0.8597
C17 C 1.2302(10) 0.5065(8) 0.8104(2)
H21 H 1.3427 0.4721 0.8171
C18 C 1.2028(9) 0.6122(8) 0.7746(2)
C19 C 1.0361(9) 0.6649(8) 0.7647(2)
H22 H 1.0181 0.7359 0.7405
C20 C 0.8977(11) 0.6111(8) 0.7910(2)
H23 H 0.7855 0.6467 0.7844
C14? C 0.729(3) -0.242(2) 1.0483(8)
H17? H 0.7388 -0.2390 1.0824
H18? H 0.8431 -0.2459 1.0340
H19? H 0.6646 -0.3325 1.0391
loop_
_geom_bond_atom_site_label_1
_geom_bond_atom_site_label_2
_geom_bond_site_symmetry_1
_geom_bond_site_symmetry_2
Br1 C18 1_555 1_555
O1 C1 1_555 1_555
O2 C1 1_555 1_555
O3 C10 1_555 1_555
O4 C7 1_555 1_555
O5 C12 1_555 1_555
N1 C3 1_555 1_555
C1 C15 1_555 1_555
C2 O2 1_555 1_555
H1 C2 1_555 1_555
C3 C2 1_555 1_555
C4 C3 1_555 1_555
H2 C4 1_555 1_555
H3 C4 1_555 1_555
C5 C4 1_555 1_555
H4 C5 1_555 1_555
H5 C5 1_555 1_555
C6 N1 1_555 1_555
H6 C6 1_555 1_555
H7 C6 1_555 1_555
C7 C3 1_555 1_555
H8 C7 1_555 1_555
C8 C7 1_555 1_555
H9 C8 1_555 1_555
C9 C2 1_555 1_555
H10 C9 1_555 1_555
C10 N1 1_555 1_555
C11 C10 1_555 1_555
H11 C11 1_555 1_555
H12 C11 1_555 1_555
H13 C11 1_555 1_555
C12 O4 1_555 1_555
C13 C12 1_555 1_555
H14 C13 1_555 1_555
H15 C13 1_555 1_555
H16 C13 1_555 1_555
C15 C16 1_555 1_555
C16 H20 1_555 1_555
C17 C16 1_555 1_555
H21 C17 1_555 1_555
C18 C17 1_555 1_555
C19 C18 1_555 1_555
H22 C19 1_555 1_555
C20 C15 1_555 1_555
H23 C20 1_555 1_555
C5 C6 1_555 1_555
C8 C9 1_555 1_555
C19 C20 1_555 1_555

#END
