
#######################################################################
#
#                 Cambridge Crystallographic Data Centre
#                                CCDC 
#
#######################################################################
#
# If this CIF has been generated from an entry in the Cambridge 
# Structural Database, then it will include bibliographic, chemical, 
# crystal, experimental, refinement or atomic coordinate data resulting 
# from the CCDC's data processing and validation procedures.
#
#######################################################################

data_RAXWIY
_chemical_formula_moiety         'C24 H14 B2 Cl2 F4 N4'
_chemical_name_systematic        
10-(2,6-Dichlorophenyl)-5,5,5',5'-tetrafluoro-5,5'-dihydro-8,10'-bi-4\l^5^,5\l^5^-dipyrrolo[1,2-c:2',1'-f][1,3,2]diazaborinine
_symmetry_cell_setting           monoclinic
_symmetry_space_group_name_H-M   'P 21/c'
_symmetry_Int_Tables_number      14
_space_group_name_Hall           '-P 2ybc'
loop_
_symmetry_equiv_pos_site_id
_symmetry_equiv_pos_as_xyz
1 x,y,z
2 -x,1/2+y,1/2-z
3 -x,-y,-z
4 x,1/2-y,1/2+z
_cell_length_a                   10.6288(9)
_cell_length_b                   11.0950(9)
_cell_length_c                   19.9094(17)
_cell_angle_alpha                90
_cell_angle_beta                 103.6880(10)
_cell_angle_gamma                90
_cell_volume                     2281.16
_cell_formula_units_Z            4
loop_
_atom_site_label
_atom_site_type_symbol
_atom_site_fract_x
_atom_site_fract_y
_atom_site_fract_z
B1 B 0.2107(3) 1.0034(2) 0.04840(15)
C1 C 0.4087(3) 1.1395(3) 0.0541(2)
H1 H 0.3635 1.2008 0.0268
Cl1 Cl 0.54107(8) 0.65431(8) 0.07173(4)
F1 F 0.17507(18) 0.99253(19) -0.02145(9)
N1 N 0.3554(2) 1.03944(19) 0.07131(12)
B2 B -0.1083(3) 0.3796(2) 0.13481(15)
C2 C 0.5432(3) 1.1397(4) 0.0829(3)
H2 H 0.6011 1.2005 0.0787
Cl2 Cl 0.51680(9) 0.93472(9) 0.29021(5)
F2 F 0.13569(16) 1.08863(14) 0.06970(11)
N2 N 0.20005(17) 0.88048(16) 0.08444(10)
C3 C 0.5724(3) 1.0348(3) 0.1179(2)
H3 H 0.6544 1.0092 0.1413
F3 F -0.04313(18) 0.28243(14) 0.11736(9)
N3 N -0.02300(18) 0.44973(17) 0.19597(10)
C4 C 0.4545(2) 0.9709(2) 0.11232(14)
F4 F -0.22147(16) 0.34280(15) 0.15152(9)
N4 N -0.13854(18) 0.47138(16) 0.07463(10)
C5 C 0.4295(2) 0.8626(2) 0.13995(12)
C6 C 0.3023(2) 0.81788(19) 0.12710(12)
C7 C 0.2530(2) 0.71261(19) 0.14945(12)
H4 H 0.2998 0.6549 0.1790
C8 C 0.1198(2) 0.70988(19) 0.11906(11)
C9 C 0.0921(2) 0.81548(19) 0.07920(12)
H5 H 0.0107 0.8370 0.0530
C10 C 0.5397(2) 0.7940(2) 0.18377(12)
C11 C 0.6009(2) 0.7015(2) 0.15662(13)
C12 C 0.7088(3) 0.6429(3) 0.19532(17)
H6 H 0.7476 0.5812 0.1759
C13 C 0.7576(3) 0.6765(3) 0.26219(18)
H7 H 0.8316 0.6390 0.2881
C14 C 0.6987(3) 0.7653(3) 0.29172(16)
H8 H 0.7312 0.7866 0.3377
C15 C 0.5906(3) 0.8227(2) 0.25253(14)
C16 C 0.0324(2) 0.61131(18) 0.12545(11)
C17 C 0.0482(2) 0.55219(19) 0.18960(12)
C18 C 0.1147(2) 0.5869(2) 0.25635(12)
H9 H 0.1702 0.6525 0.2675
C19 C 0.0831(3) 0.5062(3) 0.30242(13)
H10 H 0.1122 0.5075 0.3503
C20 C -0.0007(3) 0.4228(2) 0.26346(13)
H11 H -0.0363 0.3574 0.2816
C21 C -0.0662(2) 0.57375(19) 0.06872(11)
C22 C -0.1114(2) 0.6202(2) 0.00156(12)
H12 H -0.0799 0.6875 -0.0169
C23 C -0.2118(3) 0.5463(2) -0.03162(13)
H13 H -0.2618 0.5556 -0.0764
C24 C -0.2240(2) 0.4560(2) 0.01424(13)
H14 H -0.2835 0.3933 0.0044
loop_
_geom_bond_atom_site_label_1
_geom_bond_atom_site_label_2
_geom_bond_site_symmetry_1
_geom_bond_site_symmetry_2
B1 F1 1_555 1_555
C1 H1 1_555 1_555
Cl1 C11 1_555 1_555
N1 B1 1_555 1_555
B2 F3 1_555 1_555
C2 C1 1_555 1_555
H2 C2 1_555 1_555
Cl2 C15 1_555 1_555
F2 B1 1_555 1_555
N2 B1 1_555 1_555
C3 C2 1_555 1_555
H3 C3 1_555 1_555
N3 B2 1_555 1_555
C4 N1 1_555 1_555
F4 B2 1_555 1_555
N4 B2 1_555 1_555
C5 C4 1_555 1_555
C6 N2 1_555 1_555
C7 C6 1_555 1_555
H4 C7 1_555 1_555
C8 C7 1_555 1_555
C9 N2 1_555 1_555
H5 C9 1_555 1_555
C10 C5 1_555 1_555
C11 C10 1_555 1_555
C12 C11 1_555 1_555
H6 C12 1_555 1_555
C13 C12 1_555 1_555
H7 C13 1_555 1_555
C14 C13 1_555 1_555
H8 C14 1_555 1_555
C15 C10 1_555 1_555
C16 C8 1_555 1_555
C17 N3 1_555 1_555
C18 C17 1_555 1_555
H9 C18 1_555 1_555
C19 C18 1_555 1_555
H10 C19 1_555 1_555
C20 N3 1_555 1_555
H11 C20 1_555 1_555
C21 N4 1_555 1_555
C22 C21 1_555 1_555
H12 C22 1_555 1_555
C23 C22 1_555 1_555
H13 C23 1_555 1_555
C24 N4 1_555 1_555
H14 C24 1_555 1_555
C1 N1 1_555 1_555
C3 C4 1_555 1_555
C5 C6 1_555 1_555
C8 C9 1_555 1_555
C14 C15 1_555 1_555
C16 C17 1_555 1_555
C16 C21 1_555 1_555
C19 C20 1_555 1_555
C23 C24 1_555 1_555

#END
