
#######################################################################
#
#                 Cambridge Crystallographic Data Centre
#                                CCDC 
#
#######################################################################
#
# If this CIF has been generated from an entry in the Cambridge 
# Structural Database, then it will include bibliographic, chemical, 
# crystal, experimental, refinement or atomic coordinate data resulting 
# from the CCDC's data processing and validation procedures.
#
#######################################################################

data_RAXWAQ
_chemical_formula_moiety         'C25 H18 B2 F4 N4 O1'
_chemical_name_systematic        
5,5,5',5'-Tetrafluoro-10-(4-methoxyphenyl)-5H,5'H-8,10'-bi-4\l^5^,5\l^5^-dipyrrolo[1,2-c:2',1'-f][1,3,2]diazaborinine
_symmetry_cell_setting           monoclinic
_symmetry_space_group_name_H-M   'C 2/c'
_symmetry_Int_Tables_number      15
_space_group_name_Hall           '-C 2yn'
loop_
_symmetry_equiv_pos_site_id
_symmetry_equiv_pos_as_xyz
1 x,y,z
2 -x,y,1/2-z
3 1/2+x,1/2+y,z
4 1/2-x,1/2+y,1/2-z
5 -x,-y,-z
6 x,-y,1/2+z
7 1/2-x,1/2-y,-z
8 1/2+x,1/2-y,1/2+z
_cell_length_a                   21.151(11)
_cell_length_b                   7.492(4)
_cell_length_c                   28.471(15)
_cell_angle_alpha                90
_cell_angle_beta                 99.012(6)
_cell_angle_gamma                90
_cell_volume                     4455.92
_cell_formula_units_Z            8
loop_
_atom_site_label
_atom_site_type_symbol
_atom_site_fract_x
_atom_site_fract_y
_atom_site_fract_z
B1 B 0.3397(3) 0.4222(9) 0.0597(2)
C1 C 0.4282(3) 0.3252(8) 0.1244(2)
H1 H 0.4573 0.3008 0.1039
F1 F 0.37405(17) 0.5389(5) 0.03685(11)
N1 N 0.3708(2) 0.3924(5) 0.11086(13)
O1 O 0.4602(2) 0.5979(7) 0.42876(15)
B2 B 0.1053(3) 0.3942(8) 0.2457(2)
C2 C 0.4399(3) 0.2950(8) 0.1735(2)
H2 H 0.4770 0.2500 0.1914
F2 F 0.33410(18) 0.2614(5) 0.03565(11)
N2 N 0.2733(2) 0.4967(5) 0.06194(14)
C3 C 0.3846(2) 0.3465(7) 0.18941(18)
H3 H 0.3769 0.3398 0.2207
F3 F 0.07834(14) 0.2392(4) 0.22585(11)
N3 N 0.17085(18) 0.4238(5) 0.23215(13)
C4 C 0.3419(2) 0.4105(6) 0.15084(16)
F4 F 0.06575(15) 0.5360(5) 0.22959(11)
N4 N 0.11494(19) 0.3827(5) 0.29985(14)
C5 C 0.2796(2) 0.4741(6) 0.14698(16)
C6 C 0.2466(3) 0.5239(6) 0.10243(16)
C7 C 0.1870(3) 0.6033(7) 0.08904(19)
H4 H 0.1586 0.6361 0.1094
C8 C 0.1773(3) 0.6248(8) 0.0406(2)
H5 H 0.1416 0.6743 0.0219
C9 C 0.2309(3) 0.5583(8) 0.02537(19)
H6 H 0.2372 0.5560 -0.0062
C10 C 0.1845(2) 0.4285(6) 0.18826(17)
H7 H 0.1555 0.4018 0.1611
C11 C 0.2474(2) 0.4781(6) 0.18809(16)
C12 C 0.2727(2) 0.5086(6) 0.23617(16)
H8 H 0.3140 0.5472 0.2478
C13 C 0.2255(2) 0.4710(6) 0.26282(15)
C14 C 0.2269(2) 0.4628(6) 0.31262(16)
C15 C 0.1719(2) 0.4155(6) 0.33013(17)
C16 C 0.1607(3) 0.3776(7) 0.37680(18)
H9 H 0.1906 0.3845 0.4044
C17 C 0.0985(3) 0.3295(7) 0.3739(2)
H10 H 0.0774 0.3020 0.3992
C18 C 0.0722(3) 0.3290(7) 0.3260(2)
H11 H 0.0304 0.2955 0.3141
C19 C 0.2865(2) 0.4943(6) 0.34496(16)
C20 C 0.2888(2) 0.5889(6) 0.38674(15)
H12 H 0.2507 0.6295 0.3953
C21 C 0.3453(3) 0.6255(7) 0.41619(17)
H13 H 0.3452 0.6892 0.4442
C22 C 0.4013(3) 0.5674(9) 0.4039(2)
C23 C 0.4000(3) 0.4674(8) 0.36254(19)
H14 H 0.4381 0.4248 0.3543
C24 C 0.3438(2) 0.4313(7) 0.33406(17)
H15 H 0.3439 0.3631 0.3068
C25 C 0.4649(3) 0.7100(12) 0.4689(2)
H16 H 0.4477 0.8253 0.4595
H17 H 0.5091 0.7221 0.4829
H18 H 0.4413 0.6589 0.4918
loop_
_geom_bond_atom_site_label_1
_geom_bond_atom_site_label_2
_geom_bond_site_symmetry_1
_geom_bond_site_symmetry_2
B1 F1 1_555 1_555
C1 H1 1_555 1_555
N1 B1 1_555 1_555
O1 C22 1_555 1_555
B2 F3 1_555 1_555
C2 C1 1_555 1_555
H2 C2 1_555 1_555
F2 B1 1_555 1_555
N2 B1 1_555 1_555
C3 C2 1_555 1_555
H3 C3 1_555 1_555
N3 B2 1_555 1_555
C4 N1 1_555 1_555
F4 B2 1_555 1_555
N4 B2 1_555 1_555
C5 C4 1_555 1_555
C6 N2 1_555 1_555
C7 C6 1_555 1_555
H4 C7 1_555 1_555
C8 C7 1_555 1_555
H5 C8 1_555 1_555
C9 N2 1_555 1_555
H6 C9 1_555 1_555
C10 N3 1_555 1_555
H7 C10 1_555 1_555
C11 C5 1_555 1_555
C12 C11 1_555 1_555
H8 C12 1_555 1_555
C13 N3 1_555 1_555
C14 C13 1_555 1_555
C15 N4 1_555 1_555
C16 C15 1_555 1_555
H9 C16 1_555 1_555
C17 C16 1_555 1_555
H10 C17 1_555 1_555
C18 N4 1_555 1_555
H11 C18 1_555 1_555
C19 C14 1_555 1_555
C20 C19 1_555 1_555
H12 C20 1_555 1_555
C21 C20 1_555 1_555
H13 C21 1_555 1_555
C22 C21 1_555 1_555
C23 C22 1_555 1_555
H14 C23 1_555 1_555
C24 C19 1_555 1_555
H15 C24 1_555 1_555
C25 O1 1_555 1_555
H16 C25 1_555 1_555
H17 C25 1_555 1_555
H18 C25 1_555 1_555
C1 N1 1_555 1_555
C3 C4 1_555 1_555
C5 C6 1_555 1_555
C8 C9 1_555 1_555
C10 C11 1_555 1_555
C12 C13 1_555 1_555
C14 C15 1_555 1_555
C17 C18 1_555 1_555
C23 C24 1_555 1_555

#END
