
#######################################################################
#
#                 Cambridge Crystallographic Data Centre
#                                CCDC 
#
#######################################################################
#
# If this CIF has been generated from an entry in the Cambridge 
# Structural Database, then it will include bibliographic, chemical, 
# crystal, experimental, refinement or atomic coordinate data resulting 
# from the CCDC's data processing and validation procedures.
#
#######################################################################

data_RAXXUK
_chemical_formula_moiety         'C19 H19 N3 O2'
_chemical_name_systematic        
4-(\a-(Hydroxy)-4-(dimethylamino)benzylidene)-3-methyl-1-phenyl-1,4-dihydro-5H-pyrazol-5-one
_symmetry_cell_setting           monoclinic
_symmetry_space_group_name_H-M   'P 21/c'
_symmetry_Int_Tables_number      14
_space_group_name_Hall           '-P 2ybc'
loop_
_symmetry_equiv_pos_site_id
_symmetry_equiv_pos_as_xyz
1 x,y,z
2 -x,1/2+y,1/2-z
3 -x,-y,-z
4 x,1/2-y,1/2+z
_cell_length_a                   7.625(2)
_cell_length_b                   17.919(6)
_cell_length_c                   12.219(4)
_cell_angle_alpha                90
_cell_angle_beta                 106.286(4)
_cell_angle_gamma                90
_cell_volume                     1602.52
_chemical_melting_point          '194-195 deg.C'
_cell_formula_units_Z            4
_exptl_crystal_recrystallization_method acetone/water
loop_
_atom_site_label
_atom_site_type_symbol
_atom_site_fract_x
_atom_site_fract_y
_atom_site_fract_z
O1 O 0.3953(2) 0.58648(10) 0.18104(13)
O2 O 0.3861(3) 0.72415(10) 0.21884(13)
N1 N 0.2238(2) 0.55640(10) -0.00555(14)
N2 N 0.1130(3) 0.59460(10) -0.09938(15)
N3 N 0.2500(3) 1.04264(12) -0.01367(17)
C1 C 0.2417(3) 0.47798(12) -0.01362(17)
C2 C 0.1409(4) 0.44246(14) -0.1113(2)
H1 H 0.0607 0.4695 -0.1690
C3 C 0.1600(4) 0.36654(16) -0.1228(2)
H2 H 0.0931 0.3427 -0.1890
C4 C 0.2770(4) 0.32559(15) -0.0375(3)
H3 H 0.2898 0.2744 -0.0456
C5 C 0.3736(4) 0.36155(15) 0.0589(3)
H4 H 0.4522 0.3342 0.1170
C6 C 0.3577(3) 0.43703(14) 0.0721(2)
H5 H 0.4248 0.4604 0.1386
C7 C 0.2965(3) 0.60408(12) 0.08066(17)
C8 C 0.2412(3) 0.67673(12) 0.04017(17)
C9 C 0.1235(3) 0.66544(13) -0.07195(18)
C10 C 0.0053(4) 0.71849(14) -0.1541(2)
H6 H -0.0567 0.6923 -0.2226
H7 H 0.0794 0.7574 -0.1720
H8 H -0.0830 0.7400 -0.1208
C11 C 0.3029(3) 0.73869(13) 0.11208(18)
C12 C 0.2847(3) 0.81633(12) 0.07768(17)
C13 C 0.2983(3) 0.83979(13) -0.02807(18)
H9 H 0.3162 0.8043 -0.0795
C14 C 0.2862(3) 0.91323(13) -0.05880(18)
H10 H 0.2948 0.9265 -0.1307
C15 C 0.2610(3) 0.96940(13) 0.01594(18)
C16 C 0.2498(3) 0.94586(13) 0.12372(18)
H11 H 0.2323 0.9810 0.1757
C17 C 0.2644(3) 0.87220(14) 0.15298(18)
H12 H 0.2606 0.8586 0.2258
C18 C 0.2513(4) 1.06681(16) -0.1264(2)
H13 H 0.2686 1.0244 -0.1703
H14 H 0.3490 1.1017 -0.1203
H15 H 0.1369 1.0903 -0.1635
C19 C 0.2247(4) 1.09957(14) 0.0640(3)
H16 H 0.2266 1.0771 0.1357
H17 H 0.1094 1.1239 0.0325
H18 H 0.3214 1.1356 0.0755
loop_
_geom_bond_atom_site_label_1
_geom_bond_atom_site_label_2
_geom_bond_site_symmetry_1
_geom_bond_site_symmetry_2
O1 C7 1_555 1_555
O2 C11 1_555 1_555
N1 N2 1_555 1_555
N2 C9 1_555 1_555
N3 C15 1_555 1_555
C1 N1 1_555 1_555
C2 C1 1_555 1_555
H1 C2 1_555 1_555
C3 C2 1_555 1_555
H2 C3 1_555 1_555
C4 C3 1_555 1_555
H3 C4 1_555 1_555
C5 C4 1_555 1_555
H4 C5 1_555 1_555
C6 C1 1_555 1_555
H5 C6 1_555 1_555
C7 N1 1_555 1_555
C8 C7 1_555 1_555
C9 C8 1_555 1_555
C10 C9 1_555 1_555
H6 C10 1_555 1_555
H7 C10 1_555 1_555
H8 C10 1_555 1_555
C11 C8 1_555 1_555
C12 C11 1_555 1_555
C13 C12 1_555 1_555
H9 C13 1_555 1_555
C14 C13 1_555 1_555
H10 C14 1_555 1_555
C15 C14 1_555 1_555
C16 C15 1_555 1_555
H11 C16 1_555 1_555
C17 C12 1_555 1_555
H12 C17 1_555 1_555
C18 N3 1_555 1_555
H13 C18 1_555 1_555
H14 C18 1_555 1_555
H15 C18 1_555 1_555
C19 N3 1_555 1_555
H16 C19 1_555 1_555
H17 C19 1_555 1_555
H18 C19 1_555 1_555
C5 C6 1_555 1_555
C16 C17 1_555 1_555

#END
