
#######################################################################
#
#                 Cambridge Crystallographic Data Centre
#                                CCDC 
#
#######################################################################
#
# If this CIF has been generated from an entry in the Cambridge 
# Structural Database, then it will include bibliographic, chemical, 
# crystal, experimental, refinement or atomic coordinate data resulting 
# from the CCDC's data processing and validation procedures.
#
#######################################################################

data_RAYGAC
_chemical_formula_moiety         'C15 H19 N1 O3'
_chemical_name_systematic        
'(3S,5S)-ethyl 5-benzyl-3-methyl-2-oxopyrrolidine-3-carboxylate'
_symmetry_cell_setting           orthorhombic
_symmetry_space_group_name_H-M   'P 21 21 21'
_symmetry_Int_Tables_number      19
_space_group_name_Hall           'P 2ac 2ab'
loop_
_symmetry_equiv_pos_site_id
_symmetry_equiv_pos_as_xyz
1 x,y,z
2 1/2-x,-y,1/2+z
3 -x,1/2+y,1/2-z
4 1/2+x,1/2-y,-z
_cell_length_a                   8.2960(4)
_cell_length_b                   12.0188(6)
_cell_length_c                   13.9373(7)
_cell_angle_alpha                90
_cell_angle_beta                 90
_cell_angle_gamma                90
_cell_volume                     1389.66
_exptl_crystal_colour            colorless
_exptl_crystal_description       block
_chemical_melting_point          '360-362 K'
_cell_formula_units_Z            4
_chemical_properties_physical    ', Hygroscopic'
_exptl_crystal_recrystallization_method 'dichloromethane/diethyl ether/hexanes'
loop_
_atom_site_label
_atom_site_type_symbol
_atom_site_fract_x
_atom_site_fract_y
_atom_site_fract_z
N1 N 0.59811(15) 0.29071(10) 0.89917(8)
H1 H 0.674(3) 0.2836(16) 0.9401(14)
C1 C 0.44162(17) 0.27271(12) 0.91687(10)
C2 C 0.34493(16) 0.29534(11) 0.82406(9)
C3 C 0.47801(16) 0.30590(13) 0.74759(10)
H2 H 0.4878 0.2359 0.7106
H3 H 0.4530 0.3673 0.7026
C4 C 0.63538(16) 0.33023(11) 0.80234(9)
H4 H 0.6544 0.4124 0.8040
O1 O 0.38237(13) 0.24390(11) 0.99377(8)
C5 C 0.22567(18) 0.20064(12) 0.80541(11)
H5 H 0.1648 0.2162 0.7466
H6 H 0.1510 0.1945 0.8596
H7 H 0.2848 0.1306 0.7980
C6 C 0.26215(16) 0.40745(12) 0.84158(9)
O2 O 0.32363(14) 0.49615(9) 0.82484(9)
O3 O 0.11725(13) 0.39326(9) 0.88102(8)
C7 C 0.03098(18) 0.49158(13) 0.91395(11)
H8 H -0.0866 0.4790 0.9082
H9 H 0.0599 0.5560 0.8732
C8 C 0.0730(2) 0.51660(13) 1.01722(12)
H10 H 0.1869 0.5377 1.0216
H11 H 0.0536 0.4504 1.0566
H12 H 0.0058 0.5780 1.0404
C9 C 0.78423(16) 0.27207(12) 0.76111(10)
H13 H 0.8772 0.2841 0.8044
H14 H 0.7640 0.1910 0.7573
C10 C 0.82440(16) 0.31608(12) 0.66225(10)
C11 C 0.76694(18) 0.26287(13) 0.58038(10)
H15 H 0.7058 0.1965 0.5867
C12 C 0.7980(2) 0.30584(14) 0.48910(11)
H16 H 0.7573 0.2689 0.4339
C13 C 0.8884(2) 0.40235(14) 0.47883(11)
H17 H 0.9102 0.4313 0.4168
C14 C 0.9468(2) 0.45630(14) 0.55996(12)
H18 H 1.0083 0.5226 0.5533
C15 C 0.91537(18) 0.41336(12) 0.65107(11)
H19 H 0.9561 0.4505 0.7061
loop_
_geom_bond_atom_site_label_1
_geom_bond_atom_site_label_2
_geom_bond_site_symmetry_1
_geom_bond_site_symmetry_2
N1 H1 1_555 1_555
C1 N1 1_555 1_555
C2 C1 1_555 1_555
C3 C2 1_555 1_555
H2 C3 1_555 1_555
H3 C3 1_555 1_555
C4 N1 1_555 1_555
H4 C4 1_555 1_555
O1 C1 1_555 1_555
C5 C2 1_555 1_555
H5 C5 1_555 1_555
H6 C5 1_555 1_555
H7 C5 1_555 1_555
C6 C2 1_555 1_555
O2 C6 1_555 1_555
O3 C6 1_555 1_555
C7 O3 1_555 1_555
H8 C7 1_555 1_555
H9 C7 1_555 1_555
C8 C7 1_555 1_555
H10 C8 1_555 1_555
H11 C8 1_555 1_555
H12 C8 1_555 1_555
C9 C4 1_555 1_555
H13 C9 1_555 1_555
H14 C9 1_555 1_555
C10 C9 1_555 1_555
C11 C10 1_555 1_555
H15 C11 1_555 1_555
C12 C11 1_555 1_555
H16 C12 1_555 1_555
C13 C12 1_555 1_555
H17 C13 1_555 1_555
C14 C13 1_555 1_555
H18 C14 1_555 1_555
C15 C10 1_555 1_555
H19 C15 1_555 1_555
C3 C4 1_555 1_555
C14 C15 1_555 1_555

#END
