
#######################################################################
#
#                 Cambridge Crystallographic Data Centre
#                                CCDC 
#
#######################################################################
#
# If this CIF has been generated from an entry in the Cambridge 
# Structural Database, then it will include bibliographic, chemical, 
# crystal, experimental, refinement or atomic coordinate data resulting 
# from the CCDC's data processing and validation procedures.
#
#######################################################################

data_RAYJOS
_chemical_formula_moiety         'C54 H36 N2 O2,C1 H1 Cl3'
_chemical_name_systematic        
'8,30-Dimethyl-3,7,10,14-tetraphenyl-8,30-diazaoctacyclo[14.10.2.2^7,10^.0^2,15^.0^4,13^.0^6,11^.0^20,28^.0^23,27^]triaconta-1,3,5,11,13,15,17,19,21,23,25,27-dodecaene-9,29-dione chloroform solvate'
_symmetry_cell_setting           triclinic
_symmetry_space_group_name_H-M   'P -1'
_symmetry_Int_Tables_number      2
_space_group_name_Hall           '-P 1'
loop_
_symmetry_equiv_pos_site_id
_symmetry_equiv_pos_as_xyz
1 x,y,z
2 -x,-y,-z
_cell_length_a                   10.887(4)
_cell_length_b                   11.448(4)
_cell_length_c                   17.595(6)
_cell_angle_alpha                102.152(5)
_cell_angle_beta                 96.560(5)
_cell_angle_gamma                104.691(5)
_cell_volume                     2040.88
_exptl_crystal_colour            colorless
_exptl_crystal_description       plate
_cell_formula_units_Z            2
loop_
_atom_site_label
_atom_site_type_symbol
_atom_site_fract_x
_atom_site_fract_y
_atom_site_fract_z
O1 O -0.01016(18) 0.58530(16) 0.91647(11)
O2 O -0.23251(17) 0.22610(17) 0.93249(11)
N1 N 0.1019(2) 0.44234(19) 0.92015(12)
N2 N -0.0261(2) 0.23741(19) 0.91740(12)
C1 C 0.2008(2) 0.0564(2) 0.45594(15)
H1 H 0.2224 0.0389 0.5054
C2 C 0.2409(2) -0.0040(2) 0.39009(15)
H2 H 0.2901 -0.0603 0.3955
C3 C 0.2097(2) 0.0174(2) 0.31723(15)
H3 H 0.2384 -0.0232 0.2728
C4 C 0.1358(2) 0.0987(2) 0.30879(15)
C5 C 0.1012(3) 0.1211(3) 0.23264(16)
H4 H 0.1272 0.0781 0.1878
C6 C 0.0327(3) 0.2016(3) 0.22387(16)
H5 H 0.0139 0.2167 0.1734
C7 C -0.0125(2) 0.2649(2) 0.28941(15)
C8 C -0.0812(3) 0.3508(2) 0.28049(16)
H6 H -0.0998 0.3668 0.2302
C9 C -0.1217(2) 0.4119(2) 0.34444(16)
H7 H -0.1648 0.4729 0.3388
C10 C -0.0998(2) 0.3849(2) 0.41783(15)
H8 H -0.1281 0.4285 0.4614
C11 C -0.0376(2) 0.2957(2) 0.42881(14)
C12 C -0.0172(2) 0.2627(2) 0.50590(14)
C13 C -0.0907(2) 0.2886(2) 0.56434(14)
C14 C -0.2164(2) 0.3165(2) 0.54643(14)
C15 C -0.3175(2) 0.2254(2) 0.49407(15)
H9 H -0.3058 0.1472 0.4706
C16 C -0.4360(3) 0.2479(3) 0.47579(16)
H10 H -0.5050 0.1851 0.4402
C17 C -0.4526(3) 0.3624(3) 0.50974(17)
H11 H -0.5325 0.3788 0.4964
C18 C -0.3533(3) 0.4524(3) 0.56276(17)
H12 H -0.3656 0.5302 0.5864
C19 C -0.2359(3) 0.4302(2) 0.58173(15)
H13 H -0.1684 0.4924 0.6188
C20 C -0.0510(2) 0.2815(2) 0.64266(14)
C21 C -0.1203(2) 0.3120(2) 0.70490(14)
H14 H -0.2001 0.3294 0.6931
C22 C -0.0730(2) 0.3162(2) 0.78121(14)
C23 C -0.1266(2) 0.3659(2) 0.85529(14)
C24 C -0.2452(2) 0.4100(2) 0.83663(14)
C25 C -0.2324(3) 0.5078(2) 0.79936(15)
H15 H -0.1505 0.5459 0.7882
C26 C -0.3368(3) 0.5508(2) 0.77820(16)
H16 H -0.3258 0.6172 0.7528
C27 C -0.4566(3) 0.4967(3) 0.79420(16)
H17 H -0.5283 0.5257 0.7800
C28 C -0.4709(3) 0.3997(3) 0.83113(17)
H18 H -0.5529 0.3625 0.8425
C29 C -0.3669(3) 0.3559(2) 0.85185(16)
H19 H -0.3788 0.2886 0.8766
C30 C -0.0077(2) 0.4776(2) 0.90219(14)
C31 C 0.0857(2) 0.3063(2) 0.88804(14)
C32 C 0.2030(2) 0.2662(2) 0.91408(15)
C33 C 0.2906(3) 0.3312(3) 0.98328(15)
H20 H 0.2776 0.4032 1.0157
C34 C 0.3969(3) 0.2917(3) 1.00527(16)
H21 H 0.4580 0.3385 1.0515
C35 C 0.4142(3) 0.1841(3) 0.96010(17)
H22 H 0.4882 0.1586 0.9744
C36 C 0.3232(3) 0.1141(3) 0.89411(16)
H23 H 0.3326 0.0384 0.8644
C37 C 0.2186(3) 0.1547(2) 0.87149(15)
H24 H 0.1563 0.1060 0.8263
C38 C -0.1376(2) 0.2686(2) 0.90520(14)
C39 C 0.0445(2) 0.2863(2) 0.79901(14)
C40 C 0.1121(2) 0.2574(2) 0.74133(14)
H25 H 0.1928 0.2423 0.7546
C41 C 0.0639(2) 0.2492(2) 0.66070(14)
C42 C 0.1274(2) 0.2049(2) 0.59921(14)
C43 C 0.2401(2) 0.1616(2) 0.62513(14)
C44 C 0.2215(3) 0.0528(2) 0.65172(15)
H26 H 0.1364 0.0051 0.6518
C45 C 0.3255(3) 0.0133(3) 0.67807(15)
H27 H 0.3114 -0.0614 0.6954
C46 C 0.4497(3) 0.0835(3) 0.67894(16)
H28 H 0.5213 0.0568 0.6966
C47 C 0.4698(3) 0.1929(3) 0.65398(16)
H29 H 0.5551 0.2411 0.6546
C48 C 0.3652(2) 0.2323(2) 0.62799(15)
H30 H 0.3797 0.3083 0.6121
C49 C 0.0831(2) 0.2045(2) 0.52069(14)
C50 C 0.1301(2) 0.1415(2) 0.45176(14)
C51 C 0.0938(2) 0.1603(2) 0.37569(14)
C52 C 0.0147(2) 0.2402(2) 0.36512(14)
C53 C 0.2226(2) 0.5335(2) 0.91669(16)
H31 H 0.2584 0.5001 0.8711
H32 H 0.2848 0.5496 0.9652
H33 H 0.2049 0.6115 0.9115
C54 C -0.0133(3) 0.1586(2) 0.97194(16)
H34 H -0.0966 0.1283 0.9879
H35 H 0.0513 0.2073 1.0188
H36 H 0.0138 0.0874 0.9456
C55 C 0.4718(3) 0.1814(3) 0.17581(17)
H37 H 0.4217 0.2345 0.1562
Cl1 Cl 0.38359(7) 0.02432(6) 0.13645(4)
Cl2 Cl 0.49617(8) 0.22099(7) 0.28010(4)
Cl3 Cl 0.62102(7) 0.21178(7) 0.14354(5)
loop_
_geom_bond_atom_site_label_1
_geom_bond_atom_site_label_2
_geom_bond_site_symmetry_1
_geom_bond_site_symmetry_2
O1 C30 1_555 1_555
O2 C38 1_555 1_555
N1 C30 1_555 1_555
N2 C31 1_555 1_555
C1 H1 1_555 1_555
C2 C1 1_555 1_555
H2 C2 1_555 1_555
C3 C2 1_555 1_555
H3 C3 1_555 1_555
C4 C3 1_555 1_555
C5 C4 1_555 1_555
H4 C5 1_555 1_555
C6 C5 1_555 1_555
H5 C6 1_555 1_555
C7 C6 1_555 1_555
C8 C7 1_555 1_555
H6 C8 1_555 1_555
C9 C8 1_555 1_555
H7 C9 1_555 1_555
C10 C9 1_555 1_555
H8 C10 1_555 1_555
C11 C10 1_555 1_555
C12 C11 1_555 1_555
C13 C12 1_555 1_555
C14 C13 1_555 1_555
C15 C14 1_555 1_555
H9 C15 1_555 1_555
C16 C15 1_555 1_555
H10 C16 1_555 1_555
C17 C16 1_555 1_555
H11 C17 1_555 1_555
C18 C17 1_555 1_555
H12 C18 1_555 1_555
C19 C14 1_555 1_555
H13 C19 1_555 1_555
C20 C13 1_555 1_555
C21 C20 1_555 1_555
H14 C21 1_555 1_555
C22 C21 1_555 1_555
C23 C22 1_555 1_555
C24 C23 1_555 1_555
C25 C24 1_555 1_555
H15 C25 1_555 1_555
C26 C25 1_555 1_555
H16 C26 1_555 1_555
C27 C26 1_555 1_555
H17 C27 1_555 1_555
C28 C27 1_555 1_555
H18 C28 1_555 1_555
C29 C24 1_555 1_555
H19 C29 1_555 1_555
C30 C23 1_555 1_555
C31 N1 1_555 1_555
C32 C31 1_555 1_555
C33 C32 1_555 1_555
H20 C33 1_555 1_555
C34 C33 1_555 1_555
H21 C34 1_555 1_555
C35 C34 1_555 1_555
H22 C35 1_555 1_555
C36 C35 1_555 1_555
H23 C36 1_555 1_555
C37 C32 1_555 1_555
H24 C37 1_555 1_555
C38 N2 1_555 1_555
C39 C22 1_555 1_555
C40 C39 1_555 1_555
H25 C40 1_555 1_555
C41 C20 1_555 1_555
C42 C41 1_555 1_555
C43 C42 1_555 1_555
C44 C43 1_555 1_555
H26 C44 1_555 1_555
C45 C44 1_555 1_555
H27 C45 1_555 1_555
C46 C45 1_555 1_555
H28 C46 1_555 1_555
C47 C46 1_555 1_555
H29 C47 1_555 1_555
C48 C43 1_555 1_555
H30 C48 1_555 1_555
C49 C12 1_555 1_555
C50 C1 1_555 1_555
C51 C4 1_555 1_555
C52 C7 1_555 1_555
C53 N1 1_555 1_555
H31 C53 1_555 1_555
H32 C53 1_555 1_555
H33 C53 1_555 1_555
C54 N2 1_555 1_555
H34 C54 1_555 1_555
H35 C54 1_555 1_555
H36 C54 1_555 1_555
C55 H37 1_555 1_555
Cl1 C55 1_555 1_555
Cl2 C55 1_555 1_555
Cl3 C55 1_555 1_555
C11 C52 1_555 1_555
C18 C19 1_555 1_555
C23 C38 1_555 1_555
C28 C29 1_555 1_555
C31 C39 1_555 1_555
C36 C37 1_555 1_555
C40 C41 1_555 1_555
C42 C49 1_555 1_555
C47 C48 1_555 1_555
C49 C50 1_555 1_555
C50 C51 1_555 1_555
C51 C52 1_555 1_555

#END
