
#######################################################################
#
#                 Cambridge Crystallographic Data Centre
#                                CCDC 
#
#######################################################################
#
# If this CIF has been generated from an entry in the Cambridge 
# Structural Database, then it will include bibliographic, chemical, 
# crystal, experimental, refinement or atomic coordinate data resulting 
# from the CCDC's data processing and validation procedures.
#
#######################################################################

data_RAYLUB
_chemical_formula_moiety         'C14 H17 B1 N2 O2'
_chemical_name_systematic        
1-methyl-5-nitro-2-(2,4,6-trimethylphenyl)-1,2-dihydro-1,2-azaborinine
_symmetry_cell_setting           orthorhombic
_symmetry_space_group_name_H-M   'P 21 21 21'
_symmetry_Int_Tables_number      19
_space_group_name_Hall           'P 2ac 2ab'
loop_
_symmetry_equiv_pos_site_id
_symmetry_equiv_pos_as_xyz
1 x,y,z
2 1/2-x,-y,1/2+z
3 -x,1/2+y,1/2-z
4 1/2+x,1/2-y,-z
_cell_length_a                   8.4174(13)
_cell_length_b                   15.627(4)
_cell_length_c                   21.286(5)
_cell_angle_alpha                90
_cell_angle_beta                 90
_cell_angle_gamma                90
_cell_volume                     2799.93
_exptl_crystal_colour            colorless
_exptl_crystal_description       block
_cell_formula_units_Z            8
loop_
_atom_site_label
_atom_site_type_symbol
_atom_site_fract_x
_atom_site_fract_y
_atom_site_fract_z
B1 B 0.0729(3) 0.51383(18) 0.38169(12)
N1 N 0.0831(2) 0.42335(13) 0.36787(10)
N2 N -0.3039(3) 0.36856(18) 0.30006(11)
O1 O -0.4325(2) 0.40367(18) 0.29018(11)
O2 O -0.2768(3) 0.29359(14) 0.28686(10)
C1 C -0.0858(3) 0.55402(17) 0.36665(13)
H1 H -0.1028 0.6130 0.3753
C2 C -0.2041(3) 0.50682(18) 0.34100(13)
H2 H -0.3036 0.5325 0.3316
C3 C -0.1787(3) 0.41962(17) 0.32831(12)
C4 C -0.0395(3) 0.38029(17) 0.34173(12)
H3 H -0.0276 0.3211 0.3326
C5 C 0.2290(3) 0.37455(17) 0.38069(15)
H4 H 0.2042 0.3133 0.3821
H5 H 0.2734 0.3924 0.4212
H6 H 0.3068 0.3854 0.3473
C6 C 0.2195(3) 0.56291(14) 0.40980(11)
C7 C 0.2404(3) 0.57032(15) 0.47488(11)
C8 C 0.3638(3) 0.61922(15) 0.49900(11)
H7 H 0.3763 0.6237 0.5432
C9 C 0.4693(3) 0.66175(15) 0.45985(13)
C10 C 0.4502(3) 0.65245(16) 0.39557(13)
H8 H 0.5234 0.6797 0.3681
C11 C 0.3284(3) 0.60491(15) 0.37021(11)
C12 C 0.3117(4) 0.5978(2) 0.29959(13)
H9 H 0.3551 0.6493 0.2797
H10 H 0.1992 0.5920 0.2886
H11 H 0.3701 0.5474 0.2847
C13 C 0.1287(3) 0.5250(2) 0.51903(13)
H12 H 0.1494 0.5439 0.5622
H13 H 0.1453 0.4631 0.5160
H14 H 0.0188 0.5387 0.5077
C14 C 0.6006(4) 0.7168(2) 0.48603(17)
H15 H 0.7029 0.6882 0.4797
H16 H 0.5829 0.7259 0.5310
H17 H 0.6012 0.7721 0.4643
B2 B 0.2311(3) 0.05741(17) 0.37799(13)
N3 N 0.2439(2) 0.07564(12) 0.44441(9)
N4 N 0.5376(3) 0.24647(14) 0.45478(10)
O3 O 0.6172(3) 0.29104(15) 0.42006(10)
O4 O 0.5385(3) 0.25474(16) 0.51198(9)
C15 C 0.3373(3) 0.11010(17) 0.33623(12)
H18 H 0.3352 0.1015 0.2921
C16 C 0.4363(3) 0.17004(16) 0.36122(12)
H19 H 0.5037 0.2032 0.3350
C17 C 0.4364(3) 0.18186(15) 0.42686(11)
C18 C 0.3432(3) 0.13598(15) 0.46648(11)
H20 H 0.3482 0.1466 0.5104
C19 C 0.1479(3) 0.02959(18) 0.49097(12)
H21 H 0.1737 0.0505 0.5332
H22 H 0.1711 -0.0318 0.4884
H23 H 0.0350 0.0392 0.4824
C20 C 0.1085(3) -0.01267(15) 0.35535(10)
C21 C 0.1554(3) -0.09840(15) 0.34835(11)
C22 C 0.0467(3) -0.15948(16) 0.32855(11)
H24 H 0.0798 -0.2173 0.3243
C23 C -0.1102(3) -0.13782(17) 0.31473(11)
C24 C -0.1558(3) -0.05330(17) 0.32171(11)
H25 H -0.2622 -0.0375 0.3125
C25 C -0.0501(3) 0.00894(16) 0.34180(11)
C26 C 0.3244(3) -0.12499(17) 0.36318(13)
H26 H 0.3419 -0.1220 0.4086
H27 H 0.3986 -0.0864 0.3418
H28 H 0.3420 -0.1837 0.3487
C27 C -0.2268(4) -0.2053(2) 0.29399(15)
H29 H -0.3239 -0.1778 0.2786
H30 H -0.2526 -0.2425 0.3296
H31 H -0.1796 -0.2395 0.2602
C28 C -0.1048(3) 0.10060(18) 0.35023(15)
H32 H -0.2197 0.1040 0.3432
H33 H -0.0498 0.1374 0.3200
H34 H -0.0804 0.1197 0.3930
loop_
_geom_bond_atom_site_label_1
_geom_bond_atom_site_label_2
_geom_bond_site_symmetry_1
_geom_bond_site_symmetry_2
B1 N1 1_555 1_555
N1 C4 1_555 1_555
N2 O1 1_555 1_555
O2 N2 1_555 1_555
C1 B1 1_555 1_555
H1 C1 1_555 1_555
C2 C1 1_555 1_555
H2 C2 1_555 1_555
C3 N2 1_555 1_555
C4 C3 1_555 1_555
H3 C4 1_555 1_555
C5 N1 1_555 1_555
H4 C5 1_555 1_555
H5 C5 1_555 1_555
H6 C5 1_555 1_555
C6 B1 1_555 1_555
C7 C6 1_555 1_555
C8 C7 1_555 1_555
H7 C8 1_555 1_555
C9 C8 1_555 1_555
C10 C9 1_555 1_555
H8 C10 1_555 1_555
C11 C6 1_555 1_555
C12 C11 1_555 1_555
H9 C12 1_555 1_555
H10 C12 1_555 1_555
H11 C12 1_555 1_555
C13 C7 1_555 1_555
H12 C13 1_555 1_555
H13 C13 1_555 1_555
H14 C13 1_555 1_555
C14 C9 1_555 1_555
H15 C14 1_555 1_555
H16 C14 1_555 1_555
H17 C14 1_555 1_555
B2 N3 1_555 1_555
N3 C18 1_555 1_555
N4 O3 1_555 1_555
O4 N4 1_555 1_555
C15 B2 1_555 1_555
H18 C15 1_555 1_555
C16 C15 1_555 1_555
H19 C16 1_555 1_555
C17 N4 1_555 1_555
C18 C17 1_555 1_555
H20 C18 1_555 1_555
C19 N3 1_555 1_555
H21 C19 1_555 1_555
H22 C19 1_555 1_555
H23 C19 1_555 1_555
C20 B2 1_555 1_555
C21 C20 1_555 1_555
C22 C21 1_555 1_555
H24 C22 1_555 1_555
C23 C22 1_555 1_555
C24 C23 1_555 1_555
H25 C24 1_555 1_555
C25 C20 1_555 1_555
C26 C21 1_555 1_555
H26 C26 1_555 1_555
H27 C26 1_555 1_555
H28 C26 1_555 1_555
C27 C23 1_555 1_555
H29 C27 1_555 1_555
H30 C27 1_555 1_555
H31 C27 1_555 1_555
C28 C25 1_555 1_555
H32 C28 1_555 1_555
H33 C28 1_555 1_555
H34 C28 1_555 1_555
C2 C3 1_555 1_555
C10 C11 1_555 1_555
C16 C17 1_555 1_555
C24 C25 1_555 1_555

#END
