
#######################################################################
#
#                 Cambridge Crystallographic Data Centre
#                                CCDC 
#
#######################################################################
#
# If this CIF has been generated from an entry in the Cambridge 
# Structural Database, then it will include bibliographic, chemical, 
# crystal, experimental, refinement or atomic coordinate data resulting 
# from the CCDC's data processing and validation procedures.
#
#######################################################################

data_RAYNEN
_chemical_formula_moiety         
'C18 H36 K1 N2 O6 1+,C30 H40 N2 S1,C30 H39 N2 S1 1-'
_chemical_name_systematic        
'(4,7,13,16,21,24-hexaoxa-1,10-diazabicyclo[8.8.8]hexacosane)-potassium(i) [2,6-bis(propan-2-yl)phenyl]{1-[2,6-bis(propan-2-yl)phenyl]-6-methyl-2-sulfanylidene-1,2-dihydropyridin-4-yl}azanide 1-[2,6-bis(propan-2-yl)phenyl]-4-{[2,6-bis(propan-2-yl)phenyl]amino}-6-methylpyridine-2(1H)-thione unknown solvate'
_symmetry_cell_setting           triclinic
_symmetry_space_group_name_H-M   'P -1'
_symmetry_Int_Tables_number      2
_space_group_name_Hall           '-P 1'
loop_
_symmetry_equiv_pos_site_id
_symmetry_equiv_pos_as_xyz
1 x,y,z
2 -x,-y,-z
_cell_length_a                   14.739(4)
_cell_length_b                   16.894(4)
_cell_length_c                   19.816(5)
_cell_angle_alpha                75.797(4)
_cell_angle_beta                 71.313(4)
_cell_angle_gamma                80.812(4)
_cell_volume                     4513.52
_exptl_crystal_colour            yellow
_exptl_crystal_description       block
_cell_formula_units_Z            2
loop_
_atom_site_label
_atom_site_type_symbol
_atom_site_fract_x
_atom_site_fract_y
_atom_site_fract_z
C1 C 0.8293(2) 0.1142(2) 0.32157(17)
C2 C 0.9159(2) 0.0889(2) 0.33749(17)
H1 H 0.9721 0.0907 0.2987
C3 C 0.9242(2) 0.0610(2) 0.40751(17)
C4 C 0.8362(2) 0.0623(3) 0.46475(19)
H2 H 0.8378 0.0477 0.5128
C5 C 0.7512(3) 0.0840(3) 0.45127(19)
C6 C 0.6577(3) 0.0812(4) 0.5120(2)
H3 H 0.6050 0.0983 0.4916
H4 H 0.6572 0.1172 0.5428
H5 H 0.6516 0.0262 0.5400
C7 C 0.6509(3) 0.1233(3) 0.36797(19)
C8 C 0.6022(3) 0.1999(4) 0.3704(2)
C9 C 0.5084(4) 0.2090(5) 0.3655(3)
H6 H 0.4727 0.2595 0.3676
C10 C 0.4690(4) 0.1477(5) 0.3578(3)
H7 H 0.4062 0.1558 0.3553
C11 C 0.5193(4) 0.0727(5) 0.3535(3)
H8 H 0.4905 0.0311 0.3470
C12 C 0.6139(3) 0.0575(4) 0.3586(2)
C13 C 0.6467(4) 0.2721(4) 0.3739(3)
H9 H 0.7092 0.2535 0.3827
C14 C 0.5799(8) 0.3163(6) 0.4372(4)
H10 H 0.6100 0.3623 0.4380
H11 H 0.5706 0.2783 0.4832
H12 H 0.5188 0.3350 0.4286
C15 C 0.6606(5) 0.3383(4) 0.3043(4)
H13 H 0.6887 0.3832 0.3094
H14 H 0.5995 0.3573 0.2959
H15 H 0.7025 0.3159 0.2640
C16 C 0.6698(4) -0.0245(4) 0.3548(3)
H16 H 0.7363 -0.0179 0.3510
C17 C 0.6326(7) -0.0884(5) 0.4234(5)
H17 H 0.6340 -0.0697 0.4650
H18 H 0.6726 -0.1390 0.4202
H19 H 0.5678 -0.0971 0.4284
C18 C 0.6725(6) -0.0565(5) 0.2879(5)
H20 H 0.7098 -0.1086 0.2881
H21 H 0.7011 -0.0182 0.2444
H22 H 0.6082 -0.0628 0.2895
C19 C 1.0963(2) 0.0216(2) 0.37422(16)
C20 C 1.1268(3) -0.0556(2) 0.35643(18)
C21 C 1.2210(3) -0.0680(3) 0.3132(2)
H23 H 1.2429 -0.1192 0.3016
C22 C 1.2810(3) -0.0087(4) 0.2878(2)
H24 H 1.3436 -0.0194 0.2593
C23 C 1.2515(3) 0.0679(3) 0.3034(2)
H25 H 1.2934 0.1090 0.2840
C24 C 1.1594(3) 0.0845(2) 0.3479(2)
C25 C 1.0603(4) -0.1235(3) 0.3849(3)
H26 H 1.0047 -0.1059 0.4227
C26 C 1.0230(5) -0.1364(4) 0.3259(3)
H27 H 0.9814 -0.1800 0.3454
H28 H 1.0761 -0.1504 0.2864
H29 H 0.9879 -0.0868 0.3084
C27 C 1.1059(5) -0.2043(3) 0.4204(4)
H30 H 1.0607 -0.2451 0.4372
H31 H 1.1230 -0.1961 0.4609
H32 H 1.1625 -0.2223 0.3854
C28 C 1.1281(4) 0.1666(3) 0.3683(3)
H33 H 1.0578 0.1747 0.3803
C29 C 1.1551(5) 0.1702(4) 0.4335(3)
H34 H 1.1343 0.2234 0.4451
H35 H 1.2236 0.1605 0.4236
H36 H 1.1247 0.1291 0.4740
C30 C 1.1684(6) 0.2358(4) 0.3077(4)
H37 H 1.1465 0.2867 0.3236
H38 H 1.1473 0.2365 0.2665
H39 H 1.2374 0.2286 0.2942
N1 N 0.74617(19) 0.1079(2) 0.38033(15)
N2 N 1.00538(18) 0.03333(17) 0.42548(13)
S1 S 0.81947(7) 0.15020(8) 0.23609(5)
C31 C 0.3561(3) 0.6651(2) 0.18104(19)
C32 C 0.3928(2) 0.6604(2) 0.10865(18)
H40 H 0.3880 0.7076 0.0736
C33 C 0.4369(2) 0.5881(2) 0.08512(18)
C34 C 0.4471(3) 0.5197(2) 0.1412(2)
H41 H 0.4809 0.4715 0.1283
C35 C 0.4097(3) 0.5219(2) 0.2125(2)
C36 C 0.4143(4) 0.4475(3) 0.2717(2)
H42 H 0.3846 0.4618 0.3183
H43 H 0.4803 0.4276 0.2673
H44 H 0.3809 0.4056 0.2672
C37 C 0.3118(3) 0.5935(2) 0.3098(2)
C38 C 0.2183(4) 0.5718(3) 0.3353(3)
C39 C 0.1699(5) 0.5696(3) 0.4083(4)
H45 H 0.1066 0.5561 0.4272
C40 C 0.2154(8) 0.5872(4) 0.4528(4)
H46 H 0.1828 0.5851 0.5018
C41 C 0.3080(6) 0.6080(4) 0.4258(3)
H47 H 0.3377 0.6196 0.4568
C42 C 0.3581(5) 0.6119(3) 0.3534(2)
C43 C 0.1696(4) 0.5531(3) 0.2869(4)
H48 H 0.2177 0.5543 0.2392
C44 C 0.0861(5) 0.6191(4) 0.2747(5)
H49 H 0.0570 0.6045 0.2430
H50 H 0.1112 0.6715 0.2530
H51 H 0.0388 0.6218 0.3207
C45 C 0.1331(7) 0.4682(5) 0.3117(6)
H52 H 0.1022 0.4602 0.2783
H53 H 0.0877 0.4636 0.3594
H54 H 0.1862 0.4274 0.3132
C46 C 0.4582(5) 0.6375(4) 0.3251(3)
H55 H 0.4807 0.6387 0.2727
C47 C 0.4648(6) 0.7206(4) 0.3353(4)
H56 H 0.5305 0.7338 0.3156
H57 H 0.4428 0.7214 0.3863
H58 H 0.4255 0.7603 0.3106
C48 C 0.5263(6) 0.5708(5) 0.3621(6)
H59 H 0.5225 0.5181 0.3535
H60 H 0.5063 0.5688 0.4136
H61 H 0.5914 0.5853 0.3416
C49 C 0.4472(3) 0.6406(2) -0.04205(18)
C50 C 0.5169(3) 0.6938(3) -0.0866(2)
C51 C 0.4986(3) 0.7468(3) -0.1482(2)
H62 H 0.5452 0.7810 -0.1793
C52 C 0.4150(4) 0.7497(3) -0.1638(2)
H63 H 0.4042 0.7859 -0.2047
C53 C 0.3469(3) 0.6992(3) -0.1192(2)
H64 H 0.2893 0.7022 -0.1299
C54 C 0.3605(3) 0.6428(2) -0.0578(2)
C55 C 0.6099(3) 0.6906(3) -0.0698(3)
H65 H 0.5998 0.6631 -0.0186
C56 C 0.6413(4) 0.7756(4) -0.0785(4)
H66 H 0.7010 0.7698 -0.0671
H67 H 0.5930 0.8051 -0.0460
H68 H 0.6497 0.8051 -0.1277
C57 C 0.6892(4) 0.6390(4) -0.1154(4)
H69 H 0.7480 0.6380 -0.1040
H70 H 0.6983 0.6624 -0.1662
H71 H 0.6712 0.5841 -0.1047
C58 C 0.2852(3) 0.5862(3) -0.0113(3)
H72 H 0.3098 0.5508 0.0274
C59 C 0.1928(4) 0.6302(4) 0.0242(4)
H73 H 0.1474 0.5911 0.0532
H74 H 0.1676 0.6663 -0.0124
H75 H 0.2038 0.6615 0.0548
C60 C 0.2652(5) 0.5309(4) -0.0546(4)
H76 H 0.3244 0.5024 -0.0779
H77 H 0.2369 0.5637 -0.0910
H78 H 0.2217 0.4918 -0.0223
N3 N 0.3631(2) 0.59438(17) 0.23333(15)
N4 N 0.4675(2) 0.57911(17) 0.01629(15)
H79 H 0.5008 0.5345 0.0066
S2 S 0.30293(9) 0.75396(6) 0.20984(6)
C31A C 0.6439(3) 0.3349(2) -0.18104(19)
C32A C 0.6072(2) 0.3396(2) -0.10865(18)
H40A H 0.6120 0.2924 -0.0736
C33A C 0.5631(2) 0.4119(2) -0.08512(18)
C34A C 0.5529(3) 0.4803(2) -0.1412(2)
H41A H 0.5191 0.5285 -0.1283
C35A C 0.5903(3) 0.4781(2) -0.2125(2)
C36A C 0.5857(4) 0.5525(3) -0.2717(2)
H42A H 0.6154 0.5382 -0.3183
H43A H 0.5197 0.5724 -0.2673
H44A H 0.6191 0.5944 -0.2672
C37A C 0.6882(3) 0.4065(2) -0.3098(2)
C38A C 0.7817(4) 0.4282(3) -0.3353(3)
C39A C 0.8301(5) 0.4304(3) -0.4083(4)
H45A H 0.8934 0.4439 -0.4272
C40A C 0.7846(8) 0.4128(4) -0.4528(4)
H46A H 0.8172 0.4149 -0.5018
C41A C 0.6920(6) 0.3920(4) -0.4258(3)
H47A H 0.6623 0.3804 -0.4568
C42A C 0.6419(5) 0.3881(3) -0.3534(2)
C43A C 0.8304(4) 0.4469(3) -0.2869(4)
H48A H 0.7823 0.4457 -0.2392
C44A C 0.9139(5) 0.3809(4) -0.2747(5)
H49A H 0.9430 0.3955 -0.2430
H50A H 0.8888 0.3285 -0.2530
H51A H 0.9612 0.3782 -0.3207
C45A C 0.8669(7) 0.5318(5) -0.3117(6)
H52A H 0.8978 0.5398 -0.2783
H53A H 0.9123 0.5364 -0.3594
H54A H 0.8138 0.5726 -0.3132
C46A C 0.5418(5) 0.3625(4) -0.3251(3)
H55A H 0.5193 0.3613 -0.2727
C47A C 0.5352(6) 0.2794(4) -0.3353(4)
H56A H 0.4695 0.2662 -0.3156
H57A H 0.5572 0.2786 -0.3863
H58A H 0.5745 0.2397 -0.3106
C48A C 0.4737(6) 0.4292(5) -0.3621(6)
H59A H 0.4775 0.4819 -0.3535
H60A H 0.4937 0.4312 -0.4136
H61A H 0.4086 0.4147 -0.3416
C49A C 0.5528(3) 0.3594(2) 0.04205(18)
C50A C 0.4831(3) 0.3062(3) 0.0866(2)
C51A C 0.5014(3) 0.2532(3) 0.1482(2)
H62A H 0.4548 0.2190 0.1793
C52A C 0.5850(4) 0.2503(3) 0.1638(2)
H63A H 0.5958 0.2141 0.2047
C53A C 0.6531(3) 0.3008(3) 0.1192(2)
H64A H 0.7107 0.2978 0.1299
C54A C 0.6395(3) 0.3572(2) 0.0578(2)
C55A C 0.3901(3) 0.3094(3) 0.0698(3)
H65A H 0.4002 0.3369 0.0186
C56A C 0.3587(4) 0.2244(4) 0.0785(4)
H66A H 0.2990 0.2302 0.0671
H67A H 0.4070 0.1949 0.0460
H68A H 0.3503 0.1949 0.1277
C57A C 0.3108(4) 0.3610(4) 0.1154(4)
H69A H 0.2520 0.3620 0.1040
H70A H 0.3017 0.3376 0.1662
H71A H 0.3288 0.4159 0.1047
C58A C 0.7148(3) 0.4138(3) 0.0113(3)
H72A H 0.6902 0.4492 -0.0274
C59A C 0.8072(4) 0.3698(4) -0.0242(4)
H73A H 0.8526 0.4089 -0.0532
H74A H 0.8324 0.3337 0.0124
H75A H 0.7962 0.3385 -0.0548
C60A C 0.7348(5) 0.4691(4) 0.0546(4)
H76A H 0.6756 0.4976 0.0779
H77A H 0.7631 0.4363 0.0910
H78A H 0.7783 0.5082 0.0223
N3A N 0.6369(2) 0.40562(17) -0.23333(15)
N4A N 0.5325(2) 0.42089(17) -0.01629(15)
H79A H 0.4992 0.4655 -0.0066
S2A S 0.69707(9) 0.24604(6) -0.20984(6)
C61 C 0.7756(6) 0.6701(4) 0.1452(5)
H80 H 0.7888 0.6112 0.1498
H81 H 0.7734 0.6825 0.1910
C62 C 0.6811(5) 0.6941(4) 0.1336(4)
H82 H 0.6833 0.6849 0.0866
H83 H 0.6341 0.6604 0.1709
C63 C 0.5577(4) 0.8025(4) 0.1300(3)
H84 H 0.5125 0.7671 0.1673
H85 H 0.5551 0.7981 0.0828
C64 C 0.5320(4) 0.8883(4) 0.1391(3)
H86 H 0.4646 0.9032 0.1424
H87 H 0.5414 0.8933 0.1841
C65 C 0.5613(4) 1.0237(4) 0.0899(4)
H88 H 0.5777 1.0320 0.1312
H89 H 0.4926 1.0371 0.0979
C66 C 0.6173(5) 1.0781(4) 0.0194(4)
H90 H 0.6054 1.0651 -0.0219
H91 H 0.5951 1.1351 0.0202
C67 C 0.7403(6) 1.1110(4) 0.0584(4)
H92 H 0.6941 1.0992 0.1063
H93 H 0.7319 1.1693 0.0389
C68 C 0.8392(7) 1.0900(5) 0.0659(3)
H94 H 0.8862 1.1020 0.0184
H95 H 0.8494 1.1229 0.0962
C69 C 0.9369(5) 0.9813(6) 0.1195(4)
H96 H 0.9424 1.0190 0.1476
H97 H 0.9923 0.9844 0.0765
C70 C 0.9354(5) 0.8988(6) 0.1628(4)
H98 H 0.9933 0.8842 0.1781
H99 H 0.8804 0.8957 0.2060
C71 C 0.9289(6) 0.7630(6) 0.1641(5)
H100 H 0.8686 0.7565 0.2025
H101 H 0.9809 0.7507 0.1862
C72 C 0.9407(6) 0.7057(5) 0.1137(5)
H102 H 0.9968 0.7183 0.0721
H103 H 0.9525 0.6499 0.1390
C73 C 0.8829(5) 0.6762(4) 0.0217(5)
H104 H 0.8251 0.6626 0.0152
H105 H 0.9235 0.6256 0.0291
C74 C 0.9343(5) 0.7313(4) -0.0459(4)
H106 H 0.9903 0.7483 -0.0395
H107 H 0.9557 0.7029 -0.0860
C75 C 0.9108(4) 0.8479(4) -0.1338(3)
H108 H 0.9204 0.8152 -0.1699
H109 H 0.9725 0.8653 -0.1384
C76 C 0.8435(4) 0.9200(3) -0.1467(3)
H110 H 0.8668 0.9503 -0.1964
H111 H 0.7811 0.9026 -0.1402
C77 C 0.7780(4) 1.0452(4) -0.1147(3)
H112 H 0.7133 1.0338 -0.1093
H113 H 0.8057 1.0729 -0.1647
C78 C 0.7750(5) 1.0985(3) -0.0644(3)
H114 H 0.8402 1.1040 -0.0659
H115 H 0.7463 1.1526 -0.0808
K1 K 0.78690(6) 0.89056(6) 0.04959(5)
N5 N 0.8560(4) 0.7103(3) 0.0870(3)
N6 N 0.7201(3) 1.0659(2) 0.0109(2)
O1 O 0.6528(3) 0.7777(2) 0.1359(2)
O2 O 0.5872(2) 0.9412(3) 0.0816(2)
O3 O 0.8514(3) 1.0043(3) 0.0983(2)
O4 O 0.9302(3) 0.8450(3) 0.1227(2)
O5 O 0.8725(2) 0.7985(2) -0.06075(19)
O6 O 0.8346(2) 0.9703(2) -0.09839(15)
H116? H 1.0022 0.0220 0.4709
loop_
_geom_bond_atom_site_label_1
_geom_bond_atom_site_label_2
_geom_bond_site_symmetry_1
_geom_bond_site_symmetry_2
C1 C2 1_555 1_555
C2 H1 1_555 1_555
C3 C2 1_555 1_555
C4 C3 1_555 1_555
H2 C4 1_555 1_555
C5 C4 1_555 1_555
C6 C5 1_555 1_555
H3 C6 1_555 1_555
H4 C6 1_555 1_555
H5 C6 1_555 1_555
C7 C8 1_555 1_555
C8 C9 1_555 1_555
C9 H6 1_555 1_555
C10 C9 1_555 1_555
H7 C10 1_555 1_555
C11 C10 1_555 1_555
H8 C11 1_555 1_555
C12 C7 1_555 1_555
C13 C8 1_555 1_555
H9 C13 1_555 1_555
C14 C13 1_555 1_555
H10 C14 1_555 1_555
H11 C14 1_555 1_555
H12 C14 1_555 1_555
C15 C13 1_555 1_555
H13 C15 1_555 1_555
H14 C15 1_555 1_555
H15 C15 1_555 1_555
C16 C12 1_555 1_555
H16 C16 1_555 1_555
C17 C16 1_555 1_555
H17 C17 1_555 1_555
H18 C17 1_555 1_555
H19 C17 1_555 1_555
C18 C16 1_555 1_555
H20 C18 1_555 1_555
H21 C18 1_555 1_555
H22 C18 1_555 1_555
C19 C20 1_555 1_555
C20 C21 1_555 1_555
C21 H23 1_555 1_555
C22 C21 1_555 1_555
H24 C22 1_555 1_555
C23 C22 1_555 1_555
H25 C23 1_555 1_555
C24 C19 1_555 1_555
C25 C20 1_555 1_555
H26 C25 1_555 1_555
C26 C25 1_555 1_555
H27 C26 1_555 1_555
H28 C26 1_555 1_555
H29 C26 1_555 1_555
C27 C25 1_555 1_555
H30 C27 1_555 1_555
H31 C27 1_555 1_555
H32 C27 1_555 1_555
C28 C24 1_555 1_555
H33 C28 1_555 1_555
C29 C28 1_555 1_555
H34 C29 1_555 1_555
H35 C29 1_555 1_555
H36 C29 1_555 1_555
C30 C28 1_555 1_555
H37 C30 1_555 1_555
H38 C30 1_555 1_555
H39 C30 1_555 1_555
N1 C1 1_555 1_555
N2 C3 1_555 1_555
S1 C1 1_555 1_555
C31 C32 1_555 1_555
C32 H40 1_555 1_555
C33 C32 1_555 1_555
C34 C33 1_555 1_555
H41 C34 1_555 1_555
C35 C34 1_555 1_555
C36 C35 1_555 1_555
H42 C36 1_555 1_555
H43 C36 1_555 1_555
H44 C36 1_555 1_555
C37 C38 1_555 1_555
C38 C39 1_555 1_555
C39 H45 1_555 1_555
C40 C39 1_555 1_555
H46 C40 1_555 1_555
C41 C40 1_555 1_555
H47 C41 1_555 1_555
C42 C37 1_555 1_555
C43 C38 1_555 1_555
H48 C43 1_555 1_555
C44 C43 1_555 1_555
H49 C44 1_555 1_555
H50 C44 1_555 1_555
H51 C44 1_555 1_555
C45 C43 1_555 1_555
H52 C45 1_555 1_555
H53 C45 1_555 1_555
H54 C45 1_555 1_555
C46 C42 1_555 1_555
H55 C46 1_555 1_555
C47 C46 1_555 1_555
H56 C47 1_555 1_555
H57 C47 1_555 1_555
H58 C47 1_555 1_555
C48 C46 1_555 1_555
H59 C48 1_555 1_555
H60 C48 1_555 1_555
H61 C48 1_555 1_555
C49 C50 1_555 1_555
C50 C51 1_555 1_555
C51 H62 1_555 1_555
C52 C51 1_555 1_555
H63 C52 1_555 1_555
C53 C52 1_555 1_555
H64 C53 1_555 1_555
C54 C49 1_555 1_555
C55 C50 1_555 1_555
H65 C55 1_555 1_555
C56 C55 1_555 1_555
H66 C56 1_555 1_555
H67 C56 1_555 1_555
H68 C56 1_555 1_555
C57 C55 1_555 1_555
H69 C57 1_555 1_555
H70 C57 1_555 1_555
H71 C57 1_555 1_555
C58 C54 1_555 1_555
H72 C58 1_555 1_555
C59 C58 1_555 1_555
H73 C59 1_555 1_555
H74 C59 1_555 1_555
H75 C59 1_555 1_555
C60 C58 1_555 1_555
H76 C60 1_555 1_555
H77 C60 1_555 1_555
H78 C60 1_555 1_555
N3 C31 1_555 1_555
N4 C33 1_555 1_555
H79 N4 1_555 1_555
S2 C31 1_555 1_555
C61 H80 1_555 1_555
H81 C61 1_555 1_555
C62 C61 1_555 1_555
H82 C62 1_555 1_555
H83 C62 1_555 1_555
C63 H84 1_555 1_555
H85 C63 1_555 1_555
C64 C63 1_555 1_555
H86 C64 1_555 1_555
H87 C64 1_555 1_555
C65 H88 1_555 1_555
H89 C65 1_555 1_555
C66 C65 1_555 1_555
H90 C66 1_555 1_555
H91 C66 1_555 1_555
C67 H92 1_555 1_555
H93 C67 1_555 1_555
C68 C67 1_555 1_555
H94 C68 1_555 1_555
H95 C68 1_555 1_555
C69 H96 1_555 1_555
H97 C69 1_555 1_555
C70 C69 1_555 1_555
H98 C70 1_555 1_555
H99 C70 1_555 1_555
C71 H100 1_555 1_555
H101 C71 1_555 1_555
C72 C71 1_555 1_555
H102 C72 1_555 1_555
H103 C72 1_555 1_555
C73 H104 1_555 1_555
H105 C73 1_555 1_555
C74 C73 1_555 1_555
H106 C74 1_555 1_555
H107 C74 1_555 1_555
C75 H108 1_555 1_555
H109 C75 1_555 1_555
C76 C75 1_555 1_555
H110 C76 1_555 1_555
H111 C76 1_555 1_555
C77 H112 1_555 1_555
H113 C77 1_555 1_555
C78 C77 1_555 1_555
H114 C78 1_555 1_555
H115 C78 1_555 1_555
K1 N5 1_555 1_555
N5 C61 1_555 1_555
N6 C66 1_555 1_555
O1 C62 1_555 1_555
O2 C64 1_555 1_555
O3 C68 1_555 1_555
O4 C70 1_555 1_555
O5 C74 1_555 1_555
O6 C76 1_555 1_555
C31A C32A 1_555 1_555
C32A H40A 1_555 1_555
C33A C32A 1_555 1_555
C34A C33A 1_555 1_555
H41A C34A 1_555 1_555
C35A C34A 1_555 1_555
C36A C35A 1_555 1_555
H42A C36A 1_555 1_555
H43A C36A 1_555 1_555
H44A C36A 1_555 1_555
C37A C38A 1_555 1_555
C38A C39A 1_555 1_555
C39A H45A 1_555 1_555
C40A C39A 1_555 1_555
H46A C40A 1_555 1_555
C41A C40A 1_555 1_555
H47A C41A 1_555 1_555
C42A C37A 1_555 1_555
C43A C38A 1_555 1_555
H48A C43A 1_555 1_555
C44A C43A 1_555 1_555
H49A C44A 1_555 1_555
H50A C44A 1_555 1_555
H51A C44A 1_555 1_555
C45A C43A 1_555 1_555
H52A C45A 1_555 1_555
H53A C45A 1_555 1_555
H54A C45A 1_555 1_555
C46A C42A 1_555 1_555
H55A C46A 1_555 1_555
C47A C46A 1_555 1_555
H56A C47A 1_555 1_555
H57A C47A 1_555 1_555
H58A C47A 1_555 1_555
C48A C46A 1_555 1_555
H59A C48A 1_555 1_555
H60A C48A 1_555 1_555
H61A C48A 1_555 1_555
C49A C50A 1_555 1_555
C50A C51A 1_555 1_555
C51A H62A 1_555 1_555
C52A C51A 1_555 1_555
H63A C52A 1_555 1_555
C53A C52A 1_555 1_555
H64A C53A 1_555 1_555
C54A C49A 1_555 1_555
C55A C50A 1_555 1_555
H65A C55A 1_555 1_555
C56A C55A 1_555 1_555
H66A C56A 1_555 1_555
H67A C56A 1_555 1_555
H68A C56A 1_555 1_555
C57A C55A 1_555 1_555
H69A C57A 1_555 1_555
H70A C57A 1_555 1_555
H71A C57A 1_555 1_555
C58A C54A 1_555 1_555
H72A C58A 1_555 1_555
C59A C58A 1_555 1_555
H73A C59A 1_555 1_555
H74A C59A 1_555 1_555
H75A C59A 1_555 1_555
C60A C58A 1_555 1_555
H76A C60A 1_555 1_555
H77A C60A 1_555 1_555
H78A C60A 1_555 1_555
N3A C31A 1_555 1_555
N4A C33A 1_555 1_555
H79A N4A 1_555 1_555
S2A C31A 1_555 1_555
C5 N1 1_555 1_555
C7 N1 1_555 1_555
C11 C12 1_555 1_555
C19 N2 1_555 1_555
C23 C24 1_555 1_555
C35 N3 1_555 1_555
C37 N3 1_555 1_555
C41 C42 1_555 1_555
C49 N4 1_555 1_555
C53 C54 1_555 1_555
C63 O1 1_555 1_555
C65 O2 1_555 1_555
C67 N6 1_555 1_555
C69 O3 1_555 1_555
C71 O4 1_555 1_555
C72 N5 1_555 1_555
C73 N5 1_555 1_555
C75 O5 1_555 1_555
C77 O6 1_555 1_555
C78 N6 1_555 1_555
K1 N6 1_555 1_555
K1 O1 1_555 1_555
K1 O2 1_555 1_555
K1 O3 1_555 1_555
K1 O4 1_555 1_555
K1 O5 1_555 1_555
K1 O6 1_555 1_555
C35A N3A 1_555 1_555
C37A N3A 1_555 1_555
C41A C42A 1_555 1_555
C49A N4A 1_555 1_555
C53A C54A 1_555 1_555

#END
