
#######################################################################
#
#                 Cambridge Crystallographic Data Centre
#                                CCDC 
#
#######################################################################
#
# If this CIF has been generated from an entry in the Cambridge 
# Structural Database, then it will include bibliographic, chemical, 
# crystal, experimental, refinement or atomic coordinate data resulting 
# from the CCDC's data processing and validation procedures.
#
#######################################################################

data_RAYWIX
_chemical_formula_moiety         'C11 H12 Cl1 N1 O4'
_chemical_name_systematic        '(2S,3S)-3-(4-Chlorophenyl)glutamic acid'
_symmetry_cell_setting           monoclinic
_symmetry_space_group_name_H-M   'P 21'
_symmetry_Int_Tables_number      4
_space_group_name_Hall           'P 2yb'
loop_
_symmetry_equiv_pos_site_id
_symmetry_equiv_pos_as_xyz
1 x,y,z
2 -x,1/2+y,-z
_cell_length_a                   7.329(3)
_cell_length_b                   5.932(3)
_cell_length_c                   12.944(6)
_cell_angle_alpha                90
_cell_angle_beta                 104.91(4)
_cell_angle_gamma                90
_cell_volume                     543.801
_exptl_crystal_colour            colorless
_chemical_melting_point          181.9-182.2deg.C
_cell_formula_units_Z            2
loop_
_atom_site_label
_atom_site_type_symbol
_atom_site_fract_x
_atom_site_fract_y
_atom_site_fract_z
Cl1 Cl 0.9235(2) 0.6985(2) 0.05774(9)
O1 O 0.4920(4) 1.1650(7) -0.3903(2)
O2 O 0.2044(5) 1.3251(6) -0.4194(3)
O3 O -0.2704(5) 0.6500(7) -0.3675(3)
O4 O -0.1746(5) 0.9947(7) -0.3037(3)
N1 N 0.3322(6) 0.7510(8) -0.4396(3)
C1 C 0.3150(6) 1.1578(9) -0.4044(3)
C2 C 0.2219(7) 0.9285(9) -0.4003(4)
C3 C 0.2062(7) 0.8873(9) -0.2838(4)
C4 C 0.0577(6) 0.7052(11) -0.2783(4)
C5 C -0.1445(7) 0.7812(9) -0.3227(4)
C6 C 0.3936(7) 0.8383(9) -0.2045(4)
C7 C 0.4768(7) 1.0063(1) -0.1325(4)
C8 C 0.6421(8) 0.9646(10) -0.0532(4)
C9 C 0.7266(6) 0.7541(9) -0.0467(4)
C10 C 0.6497(7) 0.5883(10) -0.1189(4)
C11 C 0.4834(7) 0.6295(9) -0.1978(4)
H1 H -0.2861(5) 1.0253(7) -0.3296(3)
H2 H 0.2783(6) 0.6173(8) -0.4374(3)
H3 H 0.4498(6) 0.7483(8) -0.3983(3)
H4 H 0.3341(6) 0.7818(8) -0.5067(3)
H5 H 0.0942(7) 0.9329(9) -0.4480(4)
H6 H 0.1600(7) 1.0286(9) -0.2606(4)
H7 H 0.0801(6) 0.5734(11) -0.3177(4)
H8 H 0.0750(6) 0.6607(11) -0.2043(4)
H9 H 0.4214(7) 1.1483(10) -0.1375(4)
H10 H 0.6954(8) 1.0773(10) -0.0049(4)
H11 H 0.7085(7) 0.4485(10) -0.1153(4)
H12 H 0.4318(7) 0.5166(9) -0.2464(4)
loop_
_geom_bond_atom_site_label_1
_geom_bond_atom_site_label_2
_geom_bond_site_symmetry_1
_geom_bond_site_symmetry_2
Cl1 C9 1_555 1_555
O1 C1 1_555 1_555
O2 C1 1_555 1_555
O3 C5 1_555 1_555
O4 C5 1_555 1_555
N1 C2 1_555 1_555
C1 C2 1_555 1_555
C2 C3 1_555 1_555
C3 C4 1_555 1_555
C4 C5 1_555 1_555
C6 C3 1_555 1_555
C7 C6 1_555 1_555
C8 C7 1_555 1_555
C9 C8 1_555 1_555
C10 C9 1_555 1_555
C11 C6 1_555 1_555
H1 O4 1_555 1_555
H2 N1 1_555 1_555
H3 N1 1_555 1_555
H4 N1 1_555 1_555
H5 C2 1_555 1_555
H6 C3 1_555 1_555
H7 C4 1_555 1_555
H8 C4 1_555 1_555
H9 C7 1_555 1_555
H10 C8 1_555 1_555
H11 C10 1_555 1_555
H12 C11 1_555 1_555
C10 C11 1_555 1_555

#END
