
#######################################################################
#
#                 Cambridge Crystallographic Data Centre
#                                CCDC 
#
#######################################################################
#
# If this CIF has been generated from an entry in the Cambridge 
# Structural Database, then it will include bibliographic, chemical, 
# crystal, experimental, refinement or atomic coordinate data resulting 
# from the CCDC's data processing and validation procedures.
#
#######################################################################

data_RAYXIB
_chemical_name_common            'Emodin ethanol solvate'
_chemical_formula_moiety         'C15 H10 O5,C2 H6 O1'
_chemical_name_systematic        
'1,3,8-trihydroxy-6-methyl-9,10-anthraquinone ethanol solvate'
_symmetry_cell_setting           triclinic
_symmetry_space_group_name_H-M   'P -1'
_symmetry_Int_Tables_number      2
_space_group_name_Hall           '-P 1'
loop_
_symmetry_equiv_pos_site_id
_symmetry_equiv_pos_as_xyz
1 x,y,z
2 -x,-y,-z
_cell_length_a                   4.2914(3)
_cell_length_b                   10.3982(7)
_cell_length_c                   16.1764(10)
_cell_angle_alpha                81.924(4)
_cell_angle_beta                 89.829(4)
_cell_angle_gamma                85.327(4)
_cell_volume                     712.276
_exptl_crystal_colour            yellow
_exptl_crystal_description       prism
_cell_formula_units_Z            2
loop_
_atom_site_label
_atom_site_type_symbol
_atom_site_fract_x
_atom_site_fract_y
_atom_site_fract_z
O1 O 0.7658(3) 0.45969(13) 0.12951(9)
H1 H 0.7052 0.4347 0.1781
O2 O 0.4341(3) 0.46889(13) 0.26150(8)
O3 O 0.1102(4) 0.47173(13) 0.39375(8)
H2 H 0.2375 0.4415 0.3604
O4 O -0.5670(4) 0.85065(15) 0.41482(9)
H3 H -0.610(6) 0.805(2) 0.4659(17)
C1 C -0.2274(5) 0.6577(2) 0.40534(12)
H4 H -0.2859 0.6184 0.4591
C2 C -0.0116(5) 0.59183(19) 0.35938(12)
C3 C 0.0774(5) 0.64773(19) 0.27880(12)
C4 C 0.3071(5) 0.57937(19) 0.23144(12)
C5 C 0.3923(5) 0.63985(18) 0.14788(12)
C6 C 0.6139(5) 0.57601(19) 0.10037(13)
C7 C 0.6844(5) 0.6334(2) 0.01990(12)
H5 H 0.8318 0.5887 -0.0121
C8 C 0.5460(5) 0.7528(2) -0.01405(12)
C9 C 0.6278(5) 0.8117(2) -0.10102(12)
H6 H 0.7415 0.8890 -0.0983
H7 H 0.4357 0.8366 -0.1340
H8 H 0.7595 0.7477 -0.1274
C10 C 0.2524(5) 0.76327(19) 0.11308(12)
C11 C 0.3303(5) 0.81883(19) 0.03353(12)
H9 H 0.2367 0.9023 0.0111
C12 C 0.0204(5) 0.83565(19) 0.16151(12)
C13 C -0.0614(5) 0.77232(19) 0.24727(12)
C14 C -0.3588(5) 0.7809(2) 0.37321(12)
C15 C -0.2736(5) 0.83813(19) 0.29301(12)
H10 H -0.3632 0.9223 0.2706
O5 O -0.1009(4) 0.94193(14) 0.13332(9)
O6 O 0.7240(4) 0.25275(15) 0.43285(9)
H11 H 0.8164 0.3213 0.4226
C16 C 0.9550(7) 0.1737(2) 0.30907(15)
H12 H 0.7519 0.1873 0.2803
H13 H 1.0766 0.0991 0.2907
H14 H 1.0687 0.2519 0.2958
C17 C 0.9059(6) 0.1473(2) 0.40139(14)
H15 H 0.7978 0.0664 0.4146
H16 H 1.1119 0.1330 0.4301
loop_
_geom_bond_atom_site_label_1
_geom_bond_atom_site_label_2
_geom_bond_site_symmetry_1
_geom_bond_site_symmetry_2
O1 H1 1_555 1_555
O2 C4 1_555 1_555
O3 H2 1_555 1_555
O4 H3 1_555 1_555
C1 H4 1_555 1_555
C2 O3 1_555 1_555
C3 C2 1_555 1_555
C4 C3 1_555 1_555
C5 C4 1_555 1_555
C6 O1 1_555 1_555
C7 C6 1_555 1_555
H5 C7 1_555 1_555
C8 C7 1_555 1_555
C9 C8 1_555 1_555
H6 C9 1_555 1_555
H7 C9 1_555 1_555
H8 C9 1_555 1_555
C10 C5 1_555 1_555
C11 C8 1_555 1_555
H9 C11 1_555 1_555
C12 C10 1_555 1_555
C13 C3 1_555 1_555
C14 O4 1_555 1_555
C15 C13 1_555 1_555
H10 C15 1_555 1_555
O5 C12 1_555 1_555
O6 H11 1_555 1_555
C16 H12 1_555 1_555
H13 C16 1_555 1_555
H14 C16 1_555 1_555
C17 O6 1_555 1_555
H15 C17 1_555 1_555
H16 C17 1_555 1_555
C1 C2 1_555 1_555
C1 C14 1_555 1_555
C5 C6 1_555 1_555
C10 C11 1_555 1_555
C12 C13 1_555 1_555
C14 C15 1_555 1_555
C16 C17 1_555 1_555

#END
