
#######################################################################
#
#                 Cambridge Crystallographic Data Centre
#                                CCDC 
#
#######################################################################
#
# If this CIF has been generated from an entry in the Cambridge 
# Structural Database, then it will include bibliographic, chemical, 
# crystal, experimental, refinement or atomic coordinate data resulting 
# from the CCDC's data processing and validation procedures.
#
#######################################################################

data_RAYYAU
_chemical_name_common            'Emodin chloroform solvate'
_chemical_formula_moiety         'C15 H10 O5,C1 H1 Cl3'
_chemical_name_systematic        
'1,3,8-trihydroxy-6-methyl-9,10-anthraquinone chloroform solvate'
_symmetry_cell_setting           triclinic
_symmetry_space_group_name_H-M   'P -1'
_symmetry_Int_Tables_number      2
_space_group_name_Hall           '-P 1'
loop_
_symmetry_equiv_pos_site_id
_symmetry_equiv_pos_as_xyz
1 x,y,z
2 -x,-y,-z
_cell_length_a                   6.9658(4)
_cell_length_b                   8.0624(5)
_cell_length_c                   14.6322(9)
_cell_angle_alpha                75.678(4)
_cell_angle_beta                 81.535(4)
_cell_angle_gamma                88.527(4)
_cell_volume                     787.497
_exptl_crystal_colour            orange
_exptl_crystal_description       block
_cell_formula_units_Z            2
loop_
_atom_site_label
_atom_site_type_symbol
_atom_site_fract_x
_atom_site_fract_y
_atom_site_fract_z
Cl1 Cl 0.81173(14) 0.02809(12) 0.61030(7)
Cl2 Cl 0.82472(15) 0.38650(12) 0.60869(7)
Cl3 Cl 1.18277(13) 0.20229(12) 0.58095(6)
C1 C 0.9412(5) 0.1884(4) 0.6397(2)
H1 H 0.9432 0.1572 0.7101
O1 O 0.6718(3) 0.1071(3) -0.16674(16)
H2 H 0.750(6) 0.087(5) -0.123(3)
O2 O 0.0645(3) 0.3565(3) -0.20285(16)
H3 H -0.002(6) 0.412(5) -0.174(3)
O3 O 0.1907(3) 0.4364(3) 0.11465(16)
O4 O 0.9621(3) 0.0866(3) 0.14004(16)
H4 H 0.951(6) 0.076(5) 0.084(3)
O5 O 0.8160(3) 0.1036(3) -0.01363(15)
C2 C 0.5200(4) 0.1876(4) -0.1292(2)
C3 C 0.5105(4) 0.2242(4) -0.0391(2)
C4 C 0.6685(4) 0.1781(4) 0.0170(2)
C5 C 0.6539(4) 0.2175(4) 0.1099(2)
C6 C 0.4900(4) 0.3029(4) 0.1454(2)
C7 C 0.4781(4) 0.3414(4) 0.2326(2)
H5 H 0.3660 0.3967 0.2557
C8 C 0.6297(5) 0.2998(4) 0.2881(2)
C9 C 0.6194(5) 0.3453(5) 0.3820(2)
H6 H 0.7089 0.2734 0.4202
H7 H 0.4867 0.3263 0.4162
H8 H 0.6557 0.4660 0.3711
C10 C 0.2074(4) 0.3143(4) -0.1475(2)
C11 C 0.1946(4) 0.3516(4) -0.0586(2)
H9 H 0.0829 0.4067 -0.0349
C12 C 0.3444(4) 0.3085(4) -0.0053(2)
C13 C 0.3297(4) 0.3540(4) 0.0882(2)
C14 C 0.7913(5) 0.2166(4) 0.2535(2)
H10 H 0.8950 0.1885 0.2899
C15 C 0.8032(4) 0.1736(4) 0.1661(2)
C16 C 0.3682(4) 0.2327(4) -0.1827(2)
H11 H 0.3752 0.2075 -0.2432
loop_
_geom_bond_atom_site_label_1
_geom_bond_atom_site_label_2
_geom_bond_site_symmetry_1
_geom_bond_site_symmetry_2
Cl1 C1 1_555 1_555
Cl2 C1 1_555 1_555
Cl3 C1 1_555 1_555
C1 H1 1_555 1_555
O1 H2 1_555 1_555
O2 H3 1_555 1_555
O3 C13 1_555 1_555
O4 H4 1_555 1_555
O5 C4 1_555 1_555
C2 O1 1_555 1_555
C3 C2 1_555 1_555
C4 C3 1_555 1_555
C5 C4 1_555 1_555
C6 C5 1_555 1_555
C7 C6 1_555 1_555
H5 C7 1_555 1_555
C8 C7 1_555 1_555
C9 C8 1_555 1_555
H6 C9 1_555 1_555
H7 C9 1_555 1_555
H8 C9 1_555 1_555
C10 O2 1_555 1_555
C11 C10 1_555 1_555
H9 C11 1_555 1_555
C12 C3 1_555 1_555
C13 C6 1_555 1_555
C14 C8 1_555 1_555
H10 C14 1_555 1_555
C15 O4 1_555 1_555
C16 C2 1_555 1_555
H11 C16 1_555 1_555
C5 C15 1_555 1_555
C10 C16 1_555 1_555
C11 C12 1_555 1_555
C12 C13 1_555 1_555
C14 C15 1_555 1_555

#END
