
#######################################################################
#
#                 Cambridge Crystallographic Data Centre
#                                CCDC 
#
#######################################################################
#
# If this CIF has been generated from an entry in the Cambridge 
# Structural Database, then it will include bibliographic, chemical, 
# crystal, experimental, refinement or atomic coordinate data resulting 
# from the CCDC's data processing and validation procedures.
#
#######################################################################

data_RAYYEY
_chemical_name_common            'Emodin 1,4-dioxane solvate'
_chemical_formula_moiety         'C15 H10 O5,C4 H8 O2'
_chemical_name_systematic        
'1,3,8-trihydroxy-6-methyl-9,10-anthraquinone 1,4-dioxane solvate'
_symmetry_cell_setting           triclinic
_symmetry_space_group_name_H-M   'P -1'
_symmetry_Int_Tables_number      2
_space_group_name_Hall           '-P 1'
loop_
_symmetry_equiv_pos_site_id
_symmetry_equiv_pos_as_xyz
1 x,y,z
2 -x,-y,-z
_cell_length_a                   5.0520(7)
_cell_length_b                   13.1936(17)
_cell_length_c                   13.2923(17)
_cell_angle_alpha                112.280(5)
_cell_angle_beta                 97.693(5)
_cell_angle_gamma                92.622(5)
_cell_volume                     807.95
_exptl_crystal_colour            'yellowish yellow'
_exptl_crystal_description       needle
_cell_formula_units_Z            2
loop_
_atom_site_label
_atom_site_type_symbol
_atom_site_fract_x
_atom_site_fract_y
_atom_site_fract_z
O1 O 1.0408(4) -0.02438(15) 0.20379(15)
H1 H 0.9227 -0.0196 0.1554
O2 O 0.6355(4) 0.05461(14) 0.12843(15)
O3 O 0.2466(4) 0.13693(16) 0.04836(15)
H2 H 0.3587 0.0914 0.0466
O4 O 0.6014(4) 0.34999(15) 0.53849(14)
O5 O 1.3446(4) 0.12021(16) 0.58369(15)
H3 H 1.3275 0.1730 0.6419
C1 C 1.1830(5) 0.0481(2) 0.3940(2)
H4 H 1.3131 -0.0032 0.3837
C2 C 1.0085(5) 0.0480(2) 0.3037(2)
C3 C 0.8133(5) 0.12303(19) 0.3177(2)
C4 C 0.8040(5) 0.1990(2) 0.4260(2)
C5 C 0.6104(5) 0.2833(2) 0.4456(2)
C6 C 0.4282(5) 0.2847(2) 0.3485(2)
C7 C 0.2538(5) 0.3655(2) 0.3645(2)
H5 H 0.2500 0.4176 0.4368
C8 C 0.0832(5) 0.3708(2) 0.2749(2)
C9 C -0.1010(6) 0.4599(2) 0.2920(2)
H6 H -0.2140 0.4584 0.3460
H7 H -0.2151 0.4476 0.2219
H8 H 0.0058 0.5316 0.3192
C10 C 0.6295(5) 0.1234(2) 0.2244(2)
C11 C 0.4356(5) 0.2059(2) 0.2419(2)
C12 C 0.0898(5) 0.2934(2) 0.1706(2)
H9 H -0.0243 0.2970 0.1095
C13 C 0.2597(5) 0.2100(2) 0.1528(2)
C14 C 0.9769(5) 0.1990(2) 0.5152(2)
H10 H 0.9674 0.2501 0.5874
C15 C 1.1677(5) 0.1225(2) 0.4984(2)
O6 O 0.3635(5) 0.28872(18) 0.77688(16)
O7 O 0.7220(9) 0.4050(4) 0.9829(4)
C16 C 0.5789(11) 0.3708(4) 0.7946(3)
H11 H 0.7293 0.3312 0.7631
H12 H 0.5187 0.4125 0.7491
C17 C 0.3730(12) 0.2574(4) 0.8686(3)
H13 H 0.4762 0.1927 0.8538
H14 H 0.1873 0.2329 0.8718
C18 C 0.4859(13) 0.3374(6) 0.9747(5)
H15 H 0.3465 0.3863 1.0028
H16 H 0.5267 0.2984 1.0246
C19 C 0.6836(13) 0.4460(5) 0.8961(5)
H17 H 0.5639 0.5054 0.9167
H18 H 0.8594 0.4793 0.8921
H19? H 0.6206 0.3637 0.7217
H20? H 0.5141 0.4439 0.8284
H21? H 0.2708 0.3084 0.9211
H22? H 0.2729 0.1833 0.8415
O8? O 0.7761(10) 0.3480(5) 0.9489(4)
C20? C 0.7955(12) 0.3693(6) 0.8539(5)
H23? H 0.9024 0.4416 0.8772
H24? H 0.8985 0.3130 0.8072
C21? C 0.5835(16) 0.2540(6) 0.9203(7)
H25? H 0.6629 0.1872 0.8769
H26? H 0.5491 0.2467 0.9890
loop_
_geom_bond_atom_site_label_1
_geom_bond_atom_site_label_2
_geom_bond_site_symmetry_1
_geom_bond_site_symmetry_2
O1 H1 1_555 1_555
O2 C10 1_555 1_555
O3 H2 1_555 1_555
O4 C5 1_555 1_555
O5 H3 1_555 1_555
C1 H4 1_555 1_555
C2 O1 1_555 1_555
C3 C2 1_555 1_555
C4 C3 1_555 1_555
C5 C4 1_555 1_555
C6 C5 1_555 1_555
C7 C6 1_555 1_555
H5 C7 1_555 1_555
C8 C7 1_555 1_555
C9 C8 1_555 1_555
H6 C9 1_555 1_555
H7 C9 1_555 1_555
H8 C9 1_555 1_555
C10 C3 1_555 1_555
C11 C6 1_555 1_555
C12 C8 1_555 1_555
H9 C12 1_555 1_555
C13 O3 1_555 1_555
C14 C4 1_555 1_555
H10 C14 1_555 1_555
C15 O5 1_555 1_555
O6 C16 1_555 1_555
O7 C18 1_555 1_555
C16 H11 1_555 1_555
H12 C16 1_555 1_555
C17 O6 1_555 1_555
H13 C17 1_555 1_555
H14 C17 1_555 1_555
C18 C17 1_555 1_555
H15 C18 1_555 1_555
H16 C18 1_555 1_555
C19 O7 1_555 1_555
H17 C19 1_555 1_555
H18 C19 1_555 1_555
C1 C2 1_555 1_555
C1 C15 1_555 1_555
C10 C11 1_555 1_555
C11 C13 1_555 1_555
C12 C13 1_555 1_555
C14 C15 1_555 1_555
C16 C19 1_555 1_555

#END
