
#######################################################################
#
#                 Cambridge Crystallographic Data Centre
#                                CCDC 
#
#######################################################################
#
# If this CIF has been generated from an entry in the Cambridge 
# Structural Database, then it will include bibliographic, chemical, 
# crystal, experimental, refinement or atomic coordinate data resulting 
# from the CCDC's data processing and validation procedures.
#
#######################################################################

data_RAZDAX
_chemical_formula_moiety         'C23 H14 N2 O6,C1 H3 N1 O2,H2 O1'
_chemical_name_systematic        
"3a',8'b-Dihydroxy-3'-(4-pyrimidinyl)-3a',8b'-dihydrospiro(indane-2,2'(3'H)-4'H-indeno(1,2-b)furan)-1,3,4'-trione nitromethane solvate monohydrate"
_symmetry_cell_setting           triclinic
_symmetry_space_group_name_H-M   'P -1'
_symmetry_Int_Tables_number      2
_space_group_name_Hall           '-P 1'
loop_
_symmetry_equiv_pos_site_id
_symmetry_equiv_pos_as_xyz
1 x,y,z
2 -x,-y,-z
_cell_length_a                   9.562(2)
_cell_length_b                   10.560(2)
_cell_length_c                   12.343(2)
_cell_angle_alpha                107.54(1)
_cell_angle_beta                 98.62(1)
_cell_angle_gamma                105.03(1)
_cell_volume                     1111.99
_exptl_crystal_colour            yellow
_chemical_melting_point          200-201deg.C
_cell_formula_units_Z            2
loop_
_atom_site_label
_atom_site_type_symbol
_atom_site_fract_x
_atom_site_fract_y
_atom_site_fract_z
C1 C 0.4121(2) 0.5587(2) 0.1681(2)
C2 C 0.3674(2) 0.5194(2) 0.2710(2)
C3 C 0.4948(2) 0.6236(2) 0.3768(2)
C4 C 0.6108(2) 0.7008(2) 0.3327(2)
C5 C 0.7476(3) 0.8017(3) 0.3961(2)
C6 C 0.8350(3) 0.8619(3) 0.3341(3)
C7 C 0.7878(3) 0.8251(3) 0.2139(3)
C8 C 0.6532(3) 0.7245(3) 0.1510(2)
C9 C 0.5638(2) 0.6622(2) 0.2119(2)
O1 O 0.3277(2) 0.5247(2) 0.0722(1)
O2 O 0.4959(2) 0.6362(2) 0.4778(1)
C10 C 0.0895(2) 0.2103(2) 0.2718(2)
C11 C 0.1705(2) 0.2943(2) 0.2040(2)
C12 C 0.1060(2) 0.4186(2) 0.2189(2)
C13 C -0.0053(2) 0.3976(2) 0.2912(2)
C14 C -0.0933(2) 0.4797(2) 0.3281(2)
C15 C -0.1855(3) 0.4416(3) 0.3973(2)
C16 C -0.1911(3) 0.3263(3) 0.4296(2)
C17 C -0.1041(3) 0.2445(3) 0.3927(2)
C18 C -0.0110(2) 0.2808(2) 0.3225(2)
O3 O 0.1101(2) 0.1047(2) 0.2806(2)
O4 O 0.1502(2) 0.2118(2) 0.0862(1)
O5 O 0.0388(2) 0.4266(2) 0.1148(1)
O6 O 0.2302(2) 0.5438(1) 0.2863(1)
C19 C 0.3390(2) 0.3665(2) 0.2651(2)
C20 C 0.4395(2) 0.2907(2) 0.2120(2)
N1 N 0.5213(2) 0.3465(2) 0.1492(2)
C21 C 0.6108(3) 0.2792(3) 0.1038(2)
N2 N 0.6268(2) 0.1625(2) 0.1131(2)
C22 C 0.5439(3) 0.1081(3) 0.1761(3)
C23 C 0.4497(3) 0.1701(2) 0.2291(2)
H1 H 0.7790(3) 0.8276(3) 0.4770(2)
H2 H 0.9279(3) 0.9288(3) 0.3739(3)
H3 H 0.8486(3) 0.8695(3) 0.1750(3)
H4 H 0.6228(3) 0.6989(3) 0.0701(2)
H5 H -0.0904(2) 0.5576(2) 0.3071(2)
H6 H -0.2455(3) 0.4953(3) 0.4228(2)
H7 H -0.2540(3) 0.3039(3) 0.4764(2)
H8 H -0.1073(3) 0.1667(3) 0.4141(2)
H9 H 0.0613(4) 0.167(2) 0.0571(6)
H10 H 0.0990(9) 0.433(3) 0.074(1)
H11 H 0.3513(2) 0.3687(2) 0.3460(2)
H12 H 0.6684(3) 0.3190(3) 0.0607(2)
H13 H 0.5502(3) 0.0251(3) 0.1846(3)
H14 H 0.3950(3) 0.1321(2) 0.2746(2)
C24 C 0.1575(5) 0.7892(4) 0.1881(4)
N3 N 0.2509(4) 0.8477(3) 0.3068(3)
O7 O 0.1871(4) 0.8563(4) 0.3849(3)
O8 O 0.3821(4) 0.8790(4) 0.3177(4)
H15 H 0.117(3) 0.858(1) 0.172(1)
H16 H 0.077(2) 0.708(2) 0.1798(8)
H17 H 0.2163(9) 0.764(3) 0.1338(4)
O9 O -0.1453(2) 0.0707(2) 0.0226(2)
H18 H -0.213(2) 0.092(2) 0.046(2)
H19 H -0.176(2) -0.0109(8) -0.017(2)
loop_
_geom_bond_atom_site_label_1
_geom_bond_atom_site_label_2
_geom_bond_site_symmetry_1
_geom_bond_site_symmetry_2
C1 C2 1_555 1_555
C2 C3 1_555 1_555
C3 C4 1_555 1_555
C4 C5 1_555 1_555
C5 C6 1_555 1_555
C6 C7 1_555 1_555
C7 C8 1_555 1_555
C8 C9 1_555 1_555
C9 C1 1_555 1_555
O1 C1 1_555 1_555
O2 C3 1_555 1_555
C10 C11 1_555 1_555
C11 C12 1_555 1_555
C12 C13 1_555 1_555
C13 C14 1_555 1_555
C14 C15 1_555 1_555
C15 C16 1_555 1_555
C16 C17 1_555 1_555
C17 C18 1_555 1_555
C18 C10 1_555 1_555
O3 C10 1_555 1_555
O4 C11 1_555 1_555
O5 C12 1_555 1_555
O6 C2 1_555 1_555
C19 C2 1_555 1_555
C20 C19 1_555 1_555
N1 C20 1_555 1_555
C21 N1 1_555 1_555
N2 C21 1_555 1_555
C22 N2 1_555 1_555
C23 C20 1_555 1_555
H1 C5 1_555 1_555
H2 C6 1_555 1_555
H3 C7 1_555 1_555
H4 C8 1_555 1_555
H5 C14 1_555 1_555
H6 C15 1_555 1_555
H7 C16 1_555 1_555
H8 C17 1_555 1_555
H9 O4 1_555 1_555
H10 O5 1_555 1_555
H11 C19 1_555 1_555
H12 C21 1_555 1_555
H13 C22 1_555 1_555
H14 C23 1_555 1_555
C24 N3 1_555 1_555
N3 O7 1_555 1_555
O8 N3 1_555 1_555
H15 C24 1_555 1_555
H16 C24 1_555 1_555
H17 C24 1_555 1_555
O9 H18 1_555 1_555
H19 O9 1_555 1_555
C4 C9 1_555 1_555
C11 C19 1_555 1_555
C12 O6 1_555 1_555
C13 C18 1_555 1_555
C22 C23 1_555 1_555

#END
