
#######################################################################
#
#                 Cambridge Crystallographic Data Centre
#                                CCDC 
#
#######################################################################
#
# If this CIF has been generated from an entry in the Cambridge 
# Structural Database, then it will include bibliographic, chemical, 
# crystal, experimental, refinement or atomic coordinate data resulting 
# from the CCDC's data processing and validation procedures.
#
#######################################################################

data_RAZDEB
_chemical_formula_moiety         'C27 H16 N2 O6'
_chemical_name_systematic        
3a',8'b-Dihydroxy-3'-(2-quinoxalinyl)-3a',8b'-dihydrospiro(indane-2,2'(3'H)-4'H-indeno(1,2-b)furan)-1,3,4'-trione
_symmetry_cell_setting           monoclinic
_symmetry_space_group_name_H-M   'P 21'
_symmetry_Int_Tables_number      4
_space_group_name_Hall           'P 2yb'
loop_
_symmetry_equiv_pos_site_id
_symmetry_equiv_pos_as_xyz
1 x,y,z
2 -x,1/2+y,-z
_cell_length_a                   9.281(1)
_cell_length_b                   11.154(2)
_cell_length_c                   10.465(2)
_cell_angle_alpha                90
_cell_angle_beta                 94.62(1)
_cell_angle_gamma                90
_cell_volume                     1079.82
_exptl_crystal_colour            yellow
_chemical_melting_point          235-236deg.C
_cell_formula_units_Z            2
loop_
_atom_site_label
_atom_site_type_symbol
_atom_site_fract_x
_atom_site_fract_y
_atom_site_fract_z
C1 C 0.5681(2) 0.1354(1) 0.4069(2)
C2 C 0.6967(2) 0.2176(1) 0.3802(1)
C3 C 0.7228(2) 0.2873(1) 0.5074(1)
C4 C 0.6118(2) 0.2520(1) 0.5928(1)
C5 C 0.5903(2) 0.2960(2) 0.7139(2)
C6 C 0.4703(2) 0.2569(2) 0.7705(2)
C7 C 0.3755(2) 0.1754(2) 0.7095(2)
C8 C 0.3979(2) 0.1287(2) 0.5905(2)
C9 C 0.5185(2) 0.1682(1) 0.5330(2)
O1 O 0.5257(1) 0.0515(1) 0.3405(1)
O2 O 0.8156(1) 0.3617(1) 0.5274(1)
C10 C 0.8248(2) 0.2800(2) 0.0642(1)
C11 C 0.7231(2) 0.2172(1) 0.1521(1)
C12 C 0.8213(2) 0.1206(1) 0.2248(1)
C13 C 0.9699(2) 0.1400(1) 0.1810(2)
C14 C 1.0968(2) 0.0789(2) 0.2186(2)
C15 C 1.2207(2) 0.1115(2) 0.1629(2)
C16 C 1.2210(2) 0.2021(2) 0.0725(2)
C17 C 1.0966(2) 0.2634(2) 0.0345(2)
C18 C 0.9705(2) 0.2312(1) 0.0906(2)
O3 O 0.7854(1) 0.3549(1) -0.0149(1)
O4 O 0.5977(1) 0.1716(1) 0.0849(1)
O5 O 0.7774(2) 0.0031(1) 0.2002(1)
O6 O 0.8214(1) 0.1486(1) 0.3589(1)
C19 C 0.6790(2) 0.2990(1) 0.2612(1)
C20 C 0.5355(2) 0.3621(1) 0.2379(1)
N1 N 0.4455(1) 0.3527(1) 0.3267(1)
C21 C 0.3193(2) 0.4159(1) 0.3110(1)
C22 C 0.2883(2) 0.4886(1) 0.2023(2)
N2 N 0.3840(1) 0.4964(1) 0.1092(1)
C23 C 0.5035(2) 0.4340(1) 0.1271(1)
C24 C 0.2204(2) 0.4100(2) 0.4051(2)
C25 C 0.0962(2) 0.4753(2) 0.3913(2)
C26 C 0.0659(2) 0.5467(2) 0.2836(2)
C27 C 0.1590(2) 0.5533(2) 0.1901(2)
H1 H 0.6547(2) 0.3499(2) 0.7552(2)
H2 H 0.4524(2) 0.2857(2) 0.8512(2)
H3 H 0.2944(2) 0.1516(2) 0.7497(2)
H4 H 0.3347(2) 0.0730(2) 0.5507(2)
H5 H 1.0981(2) 0.0181(2) 0.2794(2)
H6 H 1.3065(2) 0.0714(2) 0.1867(2)
H7 H 1.3066(2) 0.2217(2) 0.0370(2)
H8 H 1.0963(2) 0.3242(2) -0.0263(2)
H9 H 0.621(3) 0.109(2) 0.026(2)
H10 H 0.694(3) 0.000(2) 0.228(2)
H11 H 0.7530(2) 0.3615(1) 0.2731(1)
H12 H 0.5698(2) 0.4369(1) 0.0651(1)
H13 H 0.2395(2) 0.3615(2) 0.4768(2)
H14 H 0.0312(2) 0.4721(2) 0.4543(2)
H15 H -0.0195(2) 0.5907(2) 0.2754(2)
H16 H 0.1367(2) 0.6007(2) 0.1181(2)
loop_
_geom_bond_atom_site_label_1
_geom_bond_atom_site_label_2
_geom_bond_site_symmetry_1
_geom_bond_site_symmetry_2
C1 C2 1_555 1_555
C2 C3 1_555 1_555
C3 C4 1_555 1_555
C4 C5 1_555 1_555
C5 C6 1_555 1_555
C6 C7 1_555 1_555
C7 C8 1_555 1_555
C8 C9 1_555 1_555
C9 C1 1_555 1_555
O1 C1 1_555 1_555
O2 C3 1_555 1_555
C10 C11 1_555 1_555
C11 C12 1_555 1_555
C12 C13 1_555 1_555
C13 C14 1_555 1_555
C14 C15 1_555 1_555
C15 C16 1_555 1_555
C16 C17 1_555 1_555
C17 C18 1_555 1_555
C18 C10 1_555 1_555
O3 C10 1_555 1_555
O4 C11 1_555 1_555
O5 C12 1_555 1_555
O6 C2 1_555 1_555
C19 C2 1_555 1_555
C20 C19 1_555 1_555
N1 C20 1_555 1_555
C21 N1 1_555 1_555
C22 C21 1_555 1_555
N2 C22 1_555 1_555
C23 C20 1_555 1_555
C24 C21 1_555 1_555
C25 C24 1_555 1_555
C26 C25 1_555 1_555
C27 C22 1_555 1_555
H1 C5 1_555 1_555
H2 C6 1_555 1_555
H3 C7 1_555 1_555
H4 C8 1_555 1_555
H5 C14 1_555 1_555
H6 C15 1_555 1_555
H7 C16 1_555 1_555
H8 C17 1_555 1_555
H9 O4 1_555 1_555
H10 O5 1_555 1_555
H11 C19 1_555 1_555
H12 C23 1_555 1_555
H13 C24 1_555 1_555
H14 C25 1_555 1_555
H15 C26 1_555 1_555
H16 C27 1_555 1_555
C4 C9 1_555 1_555
C11 C19 1_555 1_555
C12 O6 1_555 1_555
C13 C18 1_555 1_555
N2 C23 1_555 1_555
C26 C27 1_555 1_555

#END
