
#######################################################################
#
#                 Cambridge Crystallographic Data Centre
#                                CCDC 
#
#######################################################################
#
# If this CIF has been generated from an entry in the Cambridge 
# Structural Database, then it will include bibliographic, chemical, 
# crystal, experimental, refinement or atomic coordinate data resulting 
# from the CCDC's data processing and validation procedures.
#
#######################################################################

data_RAZLIQ
_chemical_formula_moiety         'C17 H20 Cl1 N5 O3'
_chemical_name_systematic        
4-chloro-N-(2-(3,5-dimethyl-4-nitro-1H-pyrazol-1-yl)cyclohexyl)pyridine-2-carboxamide
_symmetry_cell_setting           monoclinic
_symmetry_space_group_name_H-M   'P 21'
_symmetry_Int_Tables_number      4
_space_group_name_Hall           'P 2yb'
loop_
_symmetry_equiv_pos_site_id
_symmetry_equiv_pos_as_xyz
1 x,y,z
2 -x,1/2+y,-z
_cell_length_a                   10.4928(16)
_cell_length_b                   5.2117(8)
_cell_length_c                   16.500(3)
_cell_angle_alpha                90
_cell_angle_beta                 92.846(13)
_cell_angle_gamma                90
_cell_volume                     901.195
_exptl_crystal_colour            colorless
_exptl_crystal_description       prism
_cell_formula_units_Z            2
loop_
_atom_site_label
_atom_site_type_symbol
_atom_site_fract_x
_atom_site_fract_y
_atom_site_fract_z
Cl1 Cl 0.0703(3) 0.1905(9) 0.5767(2)
O1 O 0.3783(7) 0.1828(17) 0.3230(4)
O2 O -0.0862(7) 0.211(2) 0.1303(5)
O3 O -0.0633(7) 0.416(2) 0.2433(5)
N1 N 0.3775(8) 0.667(2) 0.4707(4)
N2 N 0.4352(7) 0.6013(17) 0.3167(4)
H1 H 0.4337 0.7441 0.3428
N3 N 0.2889(7) 0.5844(17) 0.1586(4)
N4 N 0.2866(8) 0.3970(19) 0.1006(4)
N5 N -0.0246(8) 0.343(2) 0.1786(6)
C1 C 0.3286(10) 0.723(3) 0.5428(5)
H2 H 0.3613 0.8651 0.5710
C2 C 0.2341(10) 0.586(3) 0.5769(6)
H3 H 0.2018 0.6341 0.6261
C3 C 0.1895(10) 0.376(3) 0.5360(6)
C4 C 0.2390(9) 0.302(2) 0.4642(6)
H4 H 0.2108 0.1541 0.4374
C5 C 0.3304(9) 0.453(2) 0.4335(5)
C6 C 0.3843(8) 0.397(2) 0.3519(5)
C7 C 0.4930(8) 0.604(2) 0.2383(5)
H5 H 0.5071 0.4261 0.2216
C8 C 0.6223(9) 0.738(3) 0.2481(5)
H6 H 0.6102 0.9074 0.2710
H7 H 0.6771 0.6416 0.2861
C9 C 0.6884(9) 0.766(3) 0.1687(6)
H8 H 0.7073 0.5974 0.1472
H9 H 0.7681 0.8580 0.1777
C10 C 0.6003(9) 0.912(3) 0.1087(6)
H10 H 0.5832 1.0810 0.1300
H11 H 0.6415 0.9324 0.0578
C11 C 0.4759(9) 0.767(2) 0.0942(5)
H12 H 0.4930 0.5997 0.0714
H13 H 0.4210 0.8603 0.0554
C12 C 0.4075(8) 0.734(2) 0.1737(5)
H14 H 0.3846 0.9043 0.1935
C13 C 0.1769(8) 0.598(2) 0.1947(5)
C14 C 0.1031(9) 0.409(3) 0.1579(6)
C15 C 0.1711(9) 0.294(2) 0.0989(6)
C16 C 0.1472(9) 0.786(2) 0.2590(6)
H15 H 0.1526 0.7022 0.3109
H16 H 0.0625 0.8515 0.2486
H17 H 0.2074 0.9244 0.2588
C17 C 0.1391(10) 0.090(3) 0.0378(6)
H18 H 0.2116 0.0588 0.0061
H19 H 0.0685 0.1459 0.0029
H20 H 0.1165 -0.0644 0.0652
H21? H 0.3483 0.3544 0.0709
loop_
_geom_bond_atom_site_label_1
_geom_bond_atom_site_label_2
_geom_bond_site_symmetry_1
_geom_bond_site_symmetry_2
Cl1 C3 1_555 1_555
O1 C6 1_555 1_555
O2 N5 1_555 1_555
O3 N5 1_555 1_555
N1 C1 1_555 1_555
N2 H1 1_555 1_555
N3 N4 1_555 1_555
N4 C15 1_555 1_555
N5 C14 1_555 1_555
C1 H2 1_555 1_555
C2 C1 1_555 1_555
H3 C2 1_555 1_555
C3 C2 1_555 1_555
C4 C3 1_555 1_555
H4 C4 1_555 1_555
C5 N1 1_555 1_555
C6 N2 1_555 1_555
C7 N2 1_555 1_555
H5 C7 1_555 1_555
C8 C7 1_555 1_555
H6 C8 1_555 1_555
H7 C8 1_555 1_555
C9 C8 1_555 1_555
H8 C9 1_555 1_555
H9 C9 1_555 1_555
C10 C9 1_555 1_555
H10 C10 1_555 1_555
H11 C10 1_555 1_555
C11 C10 1_555 1_555
H12 C11 1_555 1_555
H13 C11 1_555 1_555
C12 N3 1_555 1_555
H14 C12 1_555 1_555
C13 N3 1_555 1_555
C14 C13 1_555 1_555
C15 C14 1_555 1_555
C16 C13 1_555 1_555
H15 C16 1_555 1_555
H16 C16 1_555 1_555
H17 C16 1_555 1_555
C17 C15 1_555 1_555
H18 C17 1_555 1_555
H19 C17 1_555 1_555
H20 C17 1_555 1_555
C4 C5 1_555 1_555
C5 C6 1_555 1_555
C7 C12 1_555 1_555
C11 C12 1_555 1_555

#END
