
#######################################################################
#
#                 Cambridge Crystallographic Data Centre
#                                CCDC 
#
#######################################################################
#
# If this CIF has been generated from an entry in the Cambridge 
# Structural Database, then it will include bibliographic, chemical, 
# crystal, experimental, refinement or atomic coordinate data resulting 
# from the CCDC's data processing and validation procedures.
#
#######################################################################

data_RAZLAG
_chemical_formula_moiety         'C16 H15 N3 O2'
_chemical_name_systematic        
(+-)-(3aSR,4RS,8aSR,8bRS)-4-(1,3-dioxodecahydropyrrolo[3,4-a]pyrolizin-4-yl)benzonitrile
_symmetry_cell_setting           monoclinic
_symmetry_space_group_name_H-M   'P 21/c'
_symmetry_Int_Tables_number      14
_space_group_name_Hall           '-P 2ybc'
loop_
_symmetry_equiv_pos_site_id
_symmetry_equiv_pos_as_xyz
1 x,y,z
2 -x,1/2+y,1/2-z
3 -x,-y,-z
4 x,1/2-y,1/2+z
_cell_length_a                   5.0730(10)
_cell_length_b                   13.424(2)
_cell_length_c                   20.244(5)
_cell_angle_alpha                90
_cell_angle_beta                 92.12(2)
_cell_angle_gamma                90
_cell_volume                     1377.67
_exptl_crystal_colour            colorless
_chemical_melting_point          'above 220 deg.C(dec.)'
_cell_formula_units_Z            4
loop_
_atom_site_label
_atom_site_type_symbol
_atom_site_fract_x
_atom_site_fract_y
_atom_site_fract_z
C1 C 0.8111(3) -0.17957(11) 0.44086(7)
N1 N 0.6618(3) -0.24253(9) 0.40117(6)
H1 H 0.5459 -0.2823 0.4164
C2 C 0.7132(3) -0.23647(11) 0.33519(7)
C3 C 0.9355(3) -0.16306(10) 0.32735(6)
H2 H 1.0902 -0.1960 0.3096
C4 C 0.8579(3) -0.07011(10) 0.28572(6)
H3 H 0.6660 -0.0617 0.2856
N2 N 0.9832(2) 0.01183(8) 0.32314(5)
C5 C 0.8488(3) 0.10826(11) 0.31210(8)
H4 H 0.7626 0.1097 0.2685
H5 H 0.9756 0.1623 0.3151
C6 C 0.6452(4) 0.11961(13) 0.36537(9)
H6 H 0.6770 0.1802 0.3906
H7 H 0.4683 0.1222 0.3455
C7 C 0.6777(3) 0.02837(12) 0.40978(7)
H8 H 0.5422 -0.0208 0.3995
H9 H 0.6705 0.0466 0.4561
C8 C 0.9508(3) -0.01095(10) 0.39366(6)
H10 H 1.0864 0.0238 0.4206
C9 C 0.9967(3) -0.12391(11) 0.39746(7)
H11 H 1.1804 -0.1382 0.4109
O1 O 0.5926(3) -0.28180(10) 0.29230(6)
O2 O 0.7886(3) -0.17091(10) 0.49982(5)
C10 C 0.9453(3) -0.07536(10) 0.21484(7)
C11 C 0.8163(3) -0.14042(12) 0.17130(7)
H12 H 0.6737 -0.1773 0.1854
C12 C 0.8972(4) -0.15109(13) 0.10710(8)
H13 H 0.8110 -0.1954 0.0783
C13 C 1.1081(3) -0.09503(12) 0.08617(7)
C14 C 1.2347(3) -0.02801(13) 0.12860(8)
H14 H 1.3741 0.0103 0.1141
C15 C 1.1522(3) -0.01836(12) 0.19290(7)
H15 H 1.2365 0.0267 0.2215
C16 C 1.2007(4) -0.11021(14) 0.02045(8)
N3 N 1.2756(4) -0.12449(14) -0.03112(8)
loop_
_geom_bond_atom_site_label_1
_geom_bond_atom_site_label_2
_geom_bond_site_symmetry_1
_geom_bond_site_symmetry_2
C1 N1 1_555 1_555
N1 H1 1_555 1_555
C2 N1 1_555 1_555
C3 C2 1_555 1_555
H2 C3 1_555 1_555
C4 C3 1_555 1_555
H3 C4 1_555 1_555
N2 C4 1_555 1_555
C5 N2 1_555 1_555
H4 C5 1_555 1_555
H5 C5 1_555 1_555
C6 C5 1_555 1_555
H6 C6 1_555 1_555
H7 C6 1_555 1_555
C7 C6 1_555 1_555
H8 C7 1_555 1_555
H9 C7 1_555 1_555
C8 N2 1_555 1_555
H10 C8 1_555 1_555
C9 C1 1_555 1_555
H11 C9 1_555 1_555
O1 C2 1_555 1_555
O2 C1 1_555 1_555
C10 C4 1_555 1_555
C11 C10 1_555 1_555
H12 C11 1_555 1_555
C12 C11 1_555 1_555
H13 C12 1_555 1_555
C13 C12 1_555 1_555
C14 C13 1_555 1_555
H14 C14 1_555 1_555
C15 C10 1_555 1_555
H15 C15 1_555 1_555
C16 C13 1_555 1_555
N3 C16 1_555 1_555
C3 C9 1_555 1_555
C7 C8 1_555 1_555
C8 C9 1_555 1_555
C14 C15 1_555 1_555

#END
