
#######################################################################
#
#                 Cambridge Crystallographic Data Centre
#                                CCDC 
#
#######################################################################
#
# If this CIF has been generated from an entry in the Cambridge 
# Structural Database, then it will include bibliographic, chemical, 
# crystal, experimental, refinement or atomic coordinate data resulting 
# from the CCDC's data processing and validation procedures.
#
#######################################################################

data_RAZXAU
_chemical_formula_moiety         'C30 H29 B1 Br1 N1 S1'
_chemical_name_systematic        3-bromo-10-(dimesitylboryl)-10H-phenothiazine
_symmetry_cell_setting           triclinic
_symmetry_space_group_name_H-M   'P -1'
_symmetry_Int_Tables_number      2
_space_group_name_Hall           '-P 1'
loop_
_symmetry_equiv_pos_site_id
_symmetry_equiv_pos_as_xyz
1 x,y,z
2 -x,-y,-z
_cell_length_a                   8.4785(15)
_cell_length_b                   11.466(2)
_cell_length_c                   14.761(3)
_cell_angle_alpha                75.477(3)
_cell_angle_beta                 80.567(3)
_cell_angle_gamma                70.585(3)
_cell_volume                     1305.03
_exptl_crystal_colour            colorless
_exptl_crystal_description       block
_cell_formula_units_Z            2
loop_
_atom_site_label
_atom_site_type_symbol
_atom_site_fract_x
_atom_site_fract_y
_atom_site_fract_z
C1 C 1.2728(7) 0.1210(5) 0.6284(3)
C2 C 1.4441(8) 0.0529(5) 0.6163(3)
H1 H 1.4764 -0.0204 0.5928
C3 C 1.5629(8) 0.0943(6) 0.6392(4)
H2 H 1.6757 0.0474 0.6335
C4 C 1.5164(6) 0.2045(5) 0.6704(3)
H3 H 1.5983 0.2338 0.6836
C5 C 1.3491(6) 0.2729(4) 0.6828(3)
H4 H 1.3193 0.3478 0.7040
C6 C 1.2258(6) 0.2304(4) 0.6636(3)
C7 C 0.9501(6) 0.3170(4) 0.6052(3)
C8 C 0.8335(6) 0.4313(4) 0.5707(3)
H5 H 0.8228 0.5018 0.5943
C9 C 0.7328(6) 0.4429(4) 0.5021(3)
H6 H 0.6523 0.5193 0.4812
C10 C 0.7544(6) 0.3386(5) 0.4654(3)
Br1 Br 0.62213(7) 0.35112(6) 0.37002(4)
C11 C 0.8741(6) 0.2253(5) 0.4940(3)
H7 H 0.8903 0.1569 0.4666
C12 C 0.9700(6) 0.2154(4) 0.5645(3)
C13 C 1.0933(5) 0.2686(4) 0.8574(3)
C14 C 1.1343(5) 0.1362(4) 0.8912(3)
C15 C 1.2147(6) 0.0791(4) 0.9731(3)
H8 H 1.2404 -0.0081 0.9936
C16 C 1.2579(6) 0.1464(4) 1.0253(3)
C17 C 1.2177(5) 0.2770(4) 0.9929(3)
H9 H 1.2459 0.3246 1.0265
C18 C 1.1363(5) 0.3382(4) 0.9113(3)
C19 C 0.8066(5) 0.4360(4) 0.7848(3)
C20 C 0.6791(5) 0.3951(4) 0.8436(3)
C21 C 0.5317(6) 0.4818(4) 0.8707(3)
H10 H 0.4498 0.4521 0.9103
C22 C 0.5023(6) 0.6106(4) 0.8410(3)
C23 C 0.6256(6) 0.6510(4) 0.7802(3)
H11 H 0.6072 0.7374 0.7576
C24 C 0.7754(5) 0.5675(4) 0.7516(3)
C25 C 1.0955(6) 0.0478(4) 0.8430(3)
H12 H 1.1973 0.0001 0.8131
H13 H 1.0182 0.0964 0.7966
H14 H 1.0464 -0.0090 0.8888
C26 C 1.3402(7) 0.0825(5) 1.1142(4)
H15 H 1.2563 0.0865 1.1666
H16 H 1.4175 0.1243 1.1208
H17 H 1.3998 -0.0043 1.1126
C27 C 1.0996(6) 0.4790(4) 0.8821(3)
H18 H 1.1341 0.5093 0.9282
H19 H 0.9814 0.5182 0.8769
H20 H 1.1600 0.4997 0.8224
C28 C 0.6988(6) 0.2552(4) 0.8807(3)
H21 H 0.5951 0.2454 0.9136
H22 H 0.7860 0.2192 0.9228
H23 H 0.7279 0.2128 0.8291
C29 C 0.3417(6) 0.7048(5) 0.8728(4)
H24 H 0.3672 0.7756 0.8834
H25 H 0.2917 0.6647 0.9300
H26 H 0.2647 0.7336 0.8251
C30 C 0.9034(6) 0.6235(4) 0.6886(3)
H27 H 0.8565 0.6731 0.6310
H28 H 1.0018 0.5565 0.6750
H29 H 0.9332 0.6763 0.7197
N1 N 1.0499(4) 0.3000(3) 0.6800(2)
B1 B 0.9863(6) 0.3359(4) 0.7689(3)
S1 S 1.1208(2) 0.06668(12) 0.60044(10)
Br2? Br 1.7483(4) -0.0296(3) 0.6300(2)
H30? H 0.6859 0.3453 0.4200
loop_
_geom_bond_atom_site_label_1
_geom_bond_atom_site_label_2
_geom_bond_site_symmetry_1
_geom_bond_site_symmetry_2
C1 C2 1_555 1_555
C2 H1 1_555 1_555
C3 C2 1_555 1_555
H2 C3 1_555 1_555
C4 C3 1_555 1_555
H3 C4 1_555 1_555
C5 C4 1_555 1_555
H4 C5 1_555 1_555
C6 C1 1_555 1_555
C7 C8 1_555 1_555
C8 H5 1_555 1_555
C9 C8 1_555 1_555
H6 C9 1_555 1_555
C10 C9 1_555 1_555
Br1 C10 1_555 1_555
C11 C10 1_555 1_555
H7 C11 1_555 1_555
C12 C7 1_555 1_555
C13 C14 1_555 1_555
C14 C15 1_555 1_555
C15 H8 1_555 1_555
C16 C15 1_555 1_555
C17 C16 1_555 1_555
H9 C17 1_555 1_555
C18 C13 1_555 1_555
C19 C20 1_555 1_555
C20 C21 1_555 1_555
C21 H10 1_555 1_555
C22 C21 1_555 1_555
C23 C22 1_555 1_555
H11 C23 1_555 1_555
C24 C19 1_555 1_555
C25 C14 1_555 1_555
H12 C25 1_555 1_555
H13 C25 1_555 1_555
H14 C25 1_555 1_555
C26 C16 1_555 1_555
H15 C26 1_555 1_555
H16 C26 1_555 1_555
H17 C26 1_555 1_555
C27 C18 1_555 1_555
H18 C27 1_555 1_555
H19 C27 1_555 1_555
H20 C27 1_555 1_555
C28 C20 1_555 1_555
H21 C28 1_555 1_555
H22 C28 1_555 1_555
H23 C28 1_555 1_555
C29 C22 1_555 1_555
H24 C29 1_555 1_555
H25 C29 1_555 1_555
H26 C29 1_555 1_555
C30 C24 1_555 1_555
H27 C30 1_555 1_555
H28 C30 1_555 1_555
H29 C30 1_555 1_555
N1 C6 1_555 1_555
B1 C13 1_555 1_555
S1 C1 1_555 1_555
C5 C6 1_555 1_555
C7 N1 1_555 1_555
C11 C12 1_555 1_555
C12 S1 1_555 1_555
C17 C18 1_555 1_555
C19 B1 1_555 1_555
C23 C24 1_555 1_555
N1 B1 1_555 1_555

#END
