
#######################################################################
#
#                 Cambridge Crystallographic Data Centre
#                                CCDC 
#
#######################################################################
#
# If this CIF has been generated from an entry in the Cambridge 
# Structural Database, then it will include bibliographic, chemical, 
# crystal, experimental, refinement or atomic coordinate data resulting 
# from the CCDC's data processing and validation procedures.
#
#######################################################################

data_RAZYUO
_chemical_formula_moiety         'C13 H13 Br1 N2 O5'
_chemical_name_systematic        
'(S)-Ethyl 2-amino-6-bromo-4-(nitromethyl)-4H-chromene-3-carboxylate'
_symmetry_cell_setting           monoclinic
_symmetry_space_group_name_H-M   'P 21'
_symmetry_Int_Tables_number      4
_space_group_name_Hall           'P 2yb'
loop_
_symmetry_equiv_pos_site_id
_symmetry_equiv_pos_as_xyz
1 x,y,z
2 -x,1/2+y,-z
_cell_length_a                   5.413(2)
_cell_length_b                   17.675(7)
_cell_length_c                   7.539(3)
_cell_angle_alpha                90
_cell_angle_beta                 96.083(5)
_cell_angle_gamma                90
_cell_volume                     717.231
_exptl_crystal_colour            yellow
_cell_formula_units_Z            2
_exptl_crystal_recrystallization_method dichloromethane/n-hexane
loop_
_atom_site_label
_atom_site_type_symbol
_atom_site_fract_x
_atom_site_fract_y
_atom_site_fract_z
Br1 Br 0.62245(12) 0.43862(5) 0.18284(9)
O1 O 0.1083(8) 0.3472(3) 0.8169(6)
C1 C 0.4702(12) 0.4085(4) 0.3854(8)
C2 C 0.3934(11) 0.2478(4) 0.9016(8)
C3 C 0.4317(10) 0.3214(3) 0.6252(7)
C4 C 0.5471(10) 0.3449(3) 0.4800(9)
H1 H 0.6796 0.3170 0.4455
C5 C 0.2382(11) 0.3658(3) 0.6754(8)
C6 C 0.5016(10) 0.2497(3) 0.7264(7)
H2 H 0.6823 0.2514 0.7553
C7 C 0.1576(12) 0.4309(5) 0.5788(8)
H3 H 0.0235 0.4586 0.6114
C8 C 0.2762(11) 0.4531(3) 0.4378(9)
H4 H 0.2294 0.4974 0.3766
C9 C 0.2059(12) 0.2944(4) 0.9373(7)
C10 C 0.4918(13) 0.1971(4) 1.0417(8)
O2 O 0.6714(9) 0.1519(3) 0.9895(5)
O3 O 0.4272(11) 0.1918(3) 1.1899(5)
C11 C 0.7905(16) 0.1010(5) 1.1239(10)
H5 H 0.6690 0.0670 1.1665
H6 H 0.8688 0.1295 1.2245
C12 C 0.4469(11) 0.1783(3) 0.6115(7)
H7 H 0.5258 0.1832 0.5024
H8 H 0.5185 0.1346 0.6759
N1 N 0.1751(12) 0.1654(4) 0.5652(6)
O4 O 0.0432(10) 0.2166(4) 0.5105(11)
O5 O 0.103(2) 0.1035(6) 0.5808(18)
N2 N 0.0890(11) 0.2968(4) 1.0843(7)
H9 H 0.1310 0.2661 1.1709
H10 H -0.0284 0.3290 1.0926
C13 C 0.9803(14) 0.0572(5) 1.0376(11)
H11 H 0.8989 0.0211 0.9561
H12 H 1.0872 0.0311 1.1273
H13 H 1.0773 0.0912 0.9737
loop_
_geom_bond_atom_site_label_1
_geom_bond_atom_site_label_2
_geom_bond_site_symmetry_1
_geom_bond_site_symmetry_2
Br1 C1 1_555 1_555
O1 C5 1_555 1_555
C1 C4 1_555 1_555
C2 C6 1_555 1_555
C3 C4 1_555 1_555
C4 H1 1_555 1_555
C5 C3 1_555 1_555
C6 C3 1_555 1_555
H2 C6 1_555 1_555
C7 C5 1_555 1_555
H3 C7 1_555 1_555
C8 C1 1_555 1_555
H4 C8 1_555 1_555
C9 O1 1_555 1_555
C10 C2 1_555 1_555
O2 C10 1_555 1_555
O3 C10 1_555 1_555
C11 O2 1_555 1_555
H5 C11 1_555 1_555
H6 C11 1_555 1_555
C12 C6 1_555 1_555
H7 C12 1_555 1_555
H8 C12 1_555 1_555
N1 C12 1_555 1_555
O4 N1 1_555 1_555
O5 N1 1_555 1_555
N2 C9 1_555 1_555
H9 N2 1_555 1_555
H10 N2 1_555 1_555
C13 C11 1_555 1_555
H11 C13 1_555 1_555
H12 C13 1_555 1_555
H13 C13 1_555 1_555
C2 C9 1_555 1_555
C7 C8 1_555 1_555

#END
