
#######################################################################
#
#                 Cambridge Crystallographic Data Centre
#                                CCDC 
#
#######################################################################
#
# If this CIF has been generated from an entry in the Cambridge 
# Structural Database, then it will include bibliographic, chemical, 
# crystal, experimental, refinement or atomic coordinate data resulting 
# from the CCDC's data processing and validation procedures.
#
#######################################################################

data_RAZZEZ
_chemical_formula_moiety         'C10 H6 N2 O1'
_chemical_name_systematic        2-Imino-2H-chromene-3-carbonitrile
_symmetry_cell_setting           monoclinic
_symmetry_space_group_name_H-M   'P 21/c'
_symmetry_Int_Tables_number      14
_space_group_name_Hall           '-P 2ybc'
loop_
_symmetry_equiv_pos_site_id
_symmetry_equiv_pos_as_xyz
1 x,y,z
2 -x,1/2+y,1/2-z
3 -x,-y,-z
4 x,1/2-y,1/2+z
_cell_length_a                   11.833(4)
_cell_length_b                   9.268(3)
_cell_length_c                   7.280(2)
_cell_angle_alpha                90
_cell_angle_beta                 95.842(4)
_cell_angle_gamma                90
_cell_volume                     794.238
_cell_formula_units_Z            4
_exptl_crystal_recrystallization_method dichloromethane
loop_
_atom_site_label
_atom_site_type_symbol
_atom_site_fract_x
_atom_site_fract_y
_atom_site_fract_z
O1 O 0.87138(10) 0.51709(15) 0.10058(18)
C1 C 0.65653(14) 0.5708(2) -0.0735(2)
H1 H 0.5848 0.5883 -0.1342
N1 N 0.83688(14) 0.28329(16) 0.0967(3)
H2 H 0.8957 0.2883 0.1456
C2 C 0.83643(15) 0.6580(2) 0.0691(2)
C3 C 0.69704(18) 0.8337(2) -0.0431(3)
H3 H 0.6254 0.8572 -0.0996
C4 C 0.62307(16) 0.3117(2) -0.1006(3)
C5 C 0.72825(15) 0.6888(2) -0.0163(2)
C6 C 0.69121(15) 0.4338(2) -0.0408(2)
C7 C 0.80263(15) 0.4023(2) 0.0560(3)
C8 C 0.7728(2) 0.9412(2) 0.0144(3)
H4 H 0.7521 1.0373 -0.0036
C9 C 0.87871(19) 0.9071(2) 0.0983(3)
H5 H 0.9287 0.9810 0.1369
C10 C 0.91272(17) 0.7655(2) 0.1266(3)
H6 H 0.9848 0.7434 0.1827
N2 N 0.56830(17) 0.2154(2) -0.1507(3)
loop_
_geom_bond_atom_site_label_1
_geom_bond_atom_site_label_2
_geom_bond_site_symmetry_1
_geom_bond_site_symmetry_2
O1 C2 1_555 1_555
C1 H1 1_555 1_555
N1 H2 1_555 1_555
C2 C5 1_555 1_555
C3 H3 1_555 1_555
C4 C6 1_555 1_555
C5 C1 1_555 1_555
C6 C1 1_555 1_555
C7 O1 1_555 1_555
C8 C3 1_555 1_555
H4 C8 1_555 1_555
C9 C8 1_555 1_555
H5 C9 1_555 1_555
C10 C2 1_555 1_555
H6 C10 1_555 1_555
N2 C4 1_555 1_555
N1 C7 1_555 1_555
C3 C5 1_555 1_555
C6 C7 1_555 1_555
C9 C10 1_555 1_555

#END
