
#######################################################################
#
#                 Cambridge Crystallographic Data Centre
#                                CCDC 
#
#######################################################################
#
# If this CIF has been generated from an entry in the Cambridge 
# Structural Database, then it will include bibliographic, chemical, 
# crystal, experimental, refinement or atomic coordinate data resulting 
# from the CCDC's data processing and validation procedures.
#
#######################################################################

data_RBOXAL
_chemical_formula_moiety         'C2 O4 2-,2(Rb1 1+),H2 O1'
_chemical_name_systematic        'Rubidium oxalate monohydrate'
_symmetry_cell_setting           monoclinic
_symmetry_space_group_name_H-M   'C 2/c'
_symmetry_Int_Tables_number      15
_space_group_name_Hall           '-C 2yn'
loop_
_symmetry_equiv_pos_site_id
_symmetry_equiv_pos_as_xyz
1 x,y,z
2 1/2+x,1/2+y,z
3 -x,y,1/2-z
4 1/2-x,1/2+y,1/2-z
5 -x,-y,-z
6 1/2-x,1/2-y,-z
7 x,-y,1/2+z
8 1/2+x,1/2-y,1/2+z
_cell_length_a                   9.662
_cell_length_b                   6.350
_cell_length_c                   11.088
_cell_angle_alpha                90
_cell_angle_beta                 109.40
_cell_angle_gamma                90
_cell_volume                     641.665
_cell_formula_units_Z            4
loop_
_atom_site_label
_atom_site_type_symbol
_atom_site_fract_x
_atom_site_fract_y
_atom_site_fract_z
C1 C 0.23960 0.32160 0.05460
O1 O 0.13350 0.27480 0.09330
O2 O 0.32620 0.47680 0.09400
C1E C 0.26040 0.17840 -0.05460
O1E O 0.36650 0.22520 -0.09330
O2E O 0.17380 0.02320 -0.09400
O3 O 0.00000 0.47330 0.25000
Rb1 Rb 0.12900 -0.18440 0.12970
loop_
_geom_bond_atom_site_label_1
_geom_bond_atom_site_label_2
_geom_bond_site_symmetry_1
_geom_bond_site_symmetry_2
C1 O1 1_555 1_555
O2 C1 1_555 1_555
C1E C1 1_555 1_555
O1E C1E 1_555 1_555
O2E C1E 1_555 1_555

#END
