
#######################################################################
#
#                 Cambridge Crystallographic Data Centre
#                                CCDC 
#
#######################################################################
#
# If this CIF has been generated from an entry in the Cambridge 
# Structural Database, then it will include bibliographic, chemical, 
# crystal, experimental, refinement or atomic coordinate data resulting 
# from the CCDC's data processing and validation procedures.
#
#######################################################################

data_RBOXPH10
_chemical_formula_moiety         'C2 O4 2-,2(Rb1 1+),H2 O2'
_chemical_name_systematic        'Rubidium oxalate monoperhydrate'
_symmetry_cell_setting           monoclinic
_symmetry_space_group_name_H-M   'C 2/c'
_symmetry_Int_Tables_number      15
_space_group_name_Hall           '-C 2yn'
loop_
_symmetry_equiv_pos_site_id
_symmetry_equiv_pos_as_xyz
1 x,y,z
2 1/2+x,1/2+y,z
3 -x,y,1/2-z
4 1/2-x,1/2+y,1/2-z
5 -x,-y,-z
6 1/2-x,1/2-y,-z
7 x,-y,1/2+z
8 1/2+x,1/2-y,1/2+z
_cell_length_a                   9.251
_cell_length_b                   6.808
_cell_length_c                   11.199
_cell_angle_alpha                90
_cell_angle_beta                 107.45
_cell_angle_gamma                90
_cell_volume                     672.862
_cell_formula_units_Z            4
loop_
_atom_site_label
_atom_site_type_symbol
_atom_site_fract_x
_atom_site_fract_y
_atom_site_fract_z
C1 C 0.22870 0.31790 0.04900
O1 O 0.30540 0.46350 0.09050
O2 O 0.12320 0.25980 0.08750
C1E C 0.27130 0.18210 -0.04900
O1E O 0.19460 0.03650 -0.09050
O2E O 0.37680 0.24020 -0.08750
O3 O 0.45710 -0.01110 0.18450
O3B O 0.54290 -0.01110 0.31550
Rb1 Rb 0.36120 0.33630 0.36450
loop_
_geom_bond_atom_site_label_1
_geom_bond_atom_site_label_2
_geom_bond_site_symmetry_1
_geom_bond_site_symmetry_2
C1 O1 1_555 1_555
O2 C1 1_555 1_555
O3 O3B 1_555 1_555
C1E C1 1_555 1_555
O1E C1E 1_555 1_555
O2E C1E 1_555 1_555

#END
