
#######################################################################
#
#                 Cambridge Crystallographic Data Centre
#                                CCDC 
#
#######################################################################
#
# If this CIF has been generated from an entry in the Cambridge 
# Structural Database, then it will include bibliographic, chemical, 
# crystal, experimental, refinement or atomic coordinate data resulting 
# from the CCDC's data processing and validation procedures.
#
#######################################################################

data_REBBIM
_chemical_formula_moiety         'C54 H52 Li2 N6,C7 H8'
_chemical_name_systematic        
"bis(\m-N'-(2,6-diethylphenyl)-N-(2-methylquinolin-8-yl)benzenecarboximidamido)-di-lithium toluene solvate"
_symmetry_cell_setting           triclinic
_symmetry_space_group_name_H-M   'P -1'
_symmetry_Int_Tables_number      2
_space_group_name_Hall           '-P 1'
loop_
_symmetry_equiv_pos_site_id
_symmetry_equiv_pos_as_xyz
1 x,y,z
2 -x,-y,-z
_cell_length_a                   12.880(3)
_cell_length_b                   12.898(3)
_cell_length_c                   15.572(3)
_cell_angle_alpha                99.33(3)
_cell_angle_beta                 91.62(3)
_cell_angle_gamma                104.68(3)
_cell_volume                     2462.84
_exptl_crystal_colour            yellow
_exptl_crystal_description       block
_cell_formula_units_Z            2
loop_
_atom_site_label
_atom_site_type_symbol
_atom_site_fract_x
_atom_site_fract_y
_atom_site_fract_z
N1 N 0.81813(11) 0.98281(11) 0.09434(9)
N2 N 0.69846(11) 1.19508(11) 0.17682(9)
N3 N 0.62043(11) 1.02582(11) 0.26071(9)
N4 N 0.89407(11) 1.07321(11) 0.26207(9)
N5 N 0.62841(11) 0.89135(11) 0.33655(9)
N6 N 0.86799(11) 1.15260(11) 0.39702(9)
C1 C 0.59743(13) 1.18437(13) 0.20635(10)
C2 C 0.96659(15) 0.89748(13) 0.07176(11)
C3 C 0.53882(14) 1.26209(14) 0.19780(11)
C4 C 0.95736(13) 1.01875(13) 0.21077(10)
C5 C 0.59961(13) 0.78188(13) 0.35211(11)
C6 C 1.05548(14) 1.00359(14) 0.23786(11)
H1 H 1.0872 1.0387 0.2928
C7 C 0.89793(14) 1.20755(14) 0.55369(11)
C8 C 0.91278(13) 0.96544(13) 0.12415(11)
C9 C 0.55426(13) 1.09248(13) 0.24745(11)
C10 C 0.57515(13) 0.92367(13) 0.27834(10)
C11 C 0.88632(13) 1.23623(13) 0.47167(10)
C12 C 0.93510(13) 1.14629(13) 0.33604(10)
C13 C 0.47636(14) 0.85393(13) 0.22375(11)
C14 C 0.87849(13) 1.34147(14) 0.46430(11)
C15 C 0.77717(15) 0.93735(14) 0.01407(11)
C16 C 1.06479(15) 0.88364(15) 0.10395(12)
H2 H 1.0997 0.8385 0.0702
C17 C 0.74350(15) 1.28061(14) 0.14151(11)
C18 C 0.68993(16) 1.36155(14) 0.13094(12)
H3 H 0.7233 1.4210 0.1058
C19 C 0.53589(14) 0.75608(15) 0.42142(12)
C20 C 0.45166(14) 1.08337(15) 0.27713(12)
H4 H 0.4209 1.0249 0.3043
C21 C 0.90497(16) 1.28560(16) 0.62808(12)
H5 H 0.9143 1.2678 0.6828
C22 C 0.67721(16) 0.96213(17) -0.01892(12)
H6 H 0.6557 1.0120 0.0253
H7 H 0.6207 0.8960 -0.0329
H8 H 0.6913 0.9943 -0.0703
C23 C 1.10829(15) 0.93706(14) 0.18505(12)
H9 H 1.1739 0.9293 0.2056
C24 C 1.04723(14) 1.21979(13) 0.34578(11)
C25 C 0.82569(16) 0.86812(15) -0.04151(12)
H10 H 0.7947 0.8365 -0.0974
C26 C 0.88495(16) 1.41660(15) 0.54041(12)
H11 H 0.8802 1.4865 0.5367
C27 C 0.64196(14) 0.70378(14) 0.30244(12)
C28 C 0.91801(16) 0.84821(15) -0.01253(12)
H12 H 0.9496 0.8017 -0.0485
C29 C 0.58883(16) 1.35094(14) 0.15810(12)
H13 H 0.5524 1.4028 0.1504
C30 C 0.89843(15) 1.09275(15) 0.56215(12)
H14 H 0.9439 1.0946 0.6134
H15 H 0.9288 1.0604 0.5116
C31 C 0.39340(16) 1.15961(16) 0.26728(13)
H16 H 0.3250 1.1500 0.2875
C32 C 1.11215(15) 1.23839(16) 0.42264(13)
H17 H 1.0868 1.2031 0.4684
C33 C 0.43470(16) 1.24734(16) 0.22881(13)
H18 H 0.3949 1.2971 0.2230
C34 C 1.08726(15) 1.27298(15) 0.27766(14)
H19 H 1.0458 1.2600 0.2252
C35 C 0.49737(16) 0.84296(16) 0.47910(13)
H20 H 0.4854 0.8950 0.4439
H21 H 0.5544 0.8815 0.5236
C36 C 0.38826(15) 0.79011(16) 0.25684(13)
H22 H 0.3890 0.7871 0.3161
C37 C 0.61367(16) 0.59778(15) 0.31950(14)
H23 H 0.6398 0.5446 0.2861
C38 C 0.85959(17) 1.36824(15) 0.37517(12)
H24 H 0.8099 1.3053 0.3400
H25 H 0.9272 1.3803 0.3476
C39 C 0.89834(17) 1.38931(16) 0.62158(13)
H26 H 0.9029 1.4408 0.6718
C40 C 0.85513(16) 1.28929(16) 0.11331(14)
H27 H 0.9062 1.3365 0.1580
H28 H 0.8626 1.3186 0.0603
H29 H 0.8682 1.2184 0.1036
C41 C 0.51014(16) 0.64892(16) 0.43572(14)
H30 H 0.4667 0.6300 0.4804
C42 C 0.72315(17) 0.73337(17) 0.23658(13)
H31 H 0.7075 0.7907 0.2093
H32 H 0.7177 0.6705 0.1914
C43 C 0.47318(17) 0.85598(15) 0.13470(12)
H33 H 0.5314 0.8987 0.1116
C44 C 0.29766(18) 0.73324(18) 0.11328(15)
H34 H 0.2380 0.6929 0.0766
C45 C 1.18857(18) 1.34505(17) 0.28799(18)
H35 H 1.2144 1.3814 0.2429
C46 C 0.29904(16) 0.73073(18) 0.20166(15)
H36 H 0.2399 0.6890 0.2244
C47 C 0.78565(17) 1.02243(17) 0.56971(15)
H37 H 0.7409 1.0188 0.5184
H38 H 0.7557 1.0538 0.6201
H39 H 0.7893 0.9504 0.5754
C48 C 0.83690(18) 0.7716(2) 0.27992(17)
H40 H 0.8874 0.7869 0.2365
H41 H 0.8516 0.7157 0.3084
H42 H 0.8435 0.8364 0.3222
C49 C 0.54794(17) 0.57033(16) 0.38473(16)
H43 H 0.5289 0.4989 0.3945
C50 C 0.8156(2) 1.46613(19) 0.37372(16)
H44 H 0.8044 1.4750 0.3144
H45 H 0.8660 1.5301 0.4052
H46 H 0.7485 1.4555 0.4006
C51 C 1.25173(17) 1.36320(18) 0.36532(19)
H47 H 1.3195 1.4121 0.3722
C52 C 1.21419(16) 1.30900(19) 0.43160(16)
H48 H 1.2574 1.3197 0.4828
C53 C 0.39563(18) 0.8028(2) 0.52376(15)
H49 H 0.3393 0.7610 0.4808
H50 H 0.3743 0.8640 0.5545
H51 H 0.4087 0.7580 0.5642
C54 C 0.38461(19) 0.79542(17) 0.07981(14)
H52 H 0.3841 0.7969 0.0203
Li1 Li 0.7577(2) 1.0694(2) 0.19218(19)
Li2 Li 0.7496(2) 1.0277(2) 0.3463(2)
C55? C 0.5340(4) 1.5228(4) -0.0041(4)
C56? C 0.4735(4) 1.4201(4) -0.0441(3)
H53? H 0.4944 1.3859 -0.0954
C57? C 0.3817(3) 1.3685(3) -0.0073(3)
H54? H 0.3412 1.2998 -0.0340
C58? C 0.3505(4) 1.4196(5) 0.0695(3)
H55? H 0.2891 1.3851 0.0941
C59? C 0.4110(6) 1.5224(5) 0.1094(3)
H56? H 0.3900 1.5566 0.1608
C60? C 0.5027(5) 1.5739(3) 0.0726(4)
H57? H 0.5432 1.6427 0.0994
C61? C 0.6271(9) 1.5536(12) -0.0581(9)
H58? H 0.6589 1.4937 -0.0715
H59? H 0.6797 1.6156 -0.0262
H60? H 0.6027 1.5714 -0.1113
C62? C 1.0056(3) 1.4636(3) -0.0473(2)
C63? C 0.9309(3) 1.5239(3) -0.0299(2)
H61? H 0.8838 1.5285 -0.0747
C64? C 0.9266(3) 1.5775(3) 0.0543(3)
H62? H 0.8766 1.6179 0.0659
C65? C 0.9970(4) 1.5707(3) 0.1212(2)
H63? H 0.9941 1.6065 0.1776
C66? C 1.0717(3) 1.5103(3) 0.1039(2)
H64? H 1.1188 1.5058 0.1486
C67? C 1.0760(3) 1.4567(3) 0.0196(3)
H65? H 1.1260 1.4163 0.0080
C68? C 1.0146(7) 1.4075(7) -0.1377(5)
H66? H 0.9593 1.4162 -0.1764
H67? H 1.0064 1.3314 -0.1377
H68? H 1.0839 1.4388 -0.1570
loop_
_geom_bond_atom_site_label_1
_geom_bond_atom_site_label_2
_geom_bond_site_symmetry_1
_geom_bond_site_symmetry_2
N1 C8 1_555 1_555
N2 C1 1_555 1_555
N3 C9 1_555 1_555
N4 C4 1_555 1_555
N5 C5 1_555 1_555
N6 C11 1_555 1_555
C1 C3 1_555 1_555
C2 C8 1_555 1_555
C3 C29 1_555 1_555
C4 C6 1_555 1_555
C5 C19 1_555 1_555
C6 H1 1_555 1_555
C7 C11 1_555 1_555
C8 C4 1_555 1_555
C9 C1 1_555 1_555
C10 N3 1_555 1_555
C11 C14 1_555 1_555
C12 N4 1_555 1_555
C13 C10 1_555 1_555
C14 C26 1_555 1_555
C15 N1 1_555 1_555
C16 C2 1_555 1_555
H2 C16 1_555 1_555
C17 N2 1_555 1_555
C18 C17 1_555 1_555
H3 C18 1_555 1_555
C19 C35 1_555 1_555
C20 C9 1_555 1_555
H4 C20 1_555 1_555
C21 C7 1_555 1_555
H5 C21 1_555 1_555
C22 C15 1_555 1_555
H6 C22 1_555 1_555
H7 C22 1_555 1_555
H8 C22 1_555 1_555
C23 C6 1_555 1_555
H9 C23 1_555 1_555
C24 C12 1_555 1_555
C25 C15 1_555 1_555
H10 C25 1_555 1_555
C26 H11 1_555 1_555
C27 C5 1_555 1_555
C28 C2 1_555 1_555
H12 C28 1_555 1_555
C29 C18 1_555 1_555
H13 C29 1_555 1_555
C30 C7 1_555 1_555
H14 C30 1_555 1_555
H15 C30 1_555 1_555
C31 C20 1_555 1_555
H16 C31 1_555 1_555
C32 C24 1_555 1_555
H17 C32 1_555 1_555
C33 C3 1_555 1_555
H18 C33 1_555 1_555
C34 C24 1_555 1_555
H19 C34 1_555 1_555
C35 H20 1_555 1_555
H21 C35 1_555 1_555
C36 C13 1_555 1_555
H22 C36 1_555 1_555
C37 C27 1_555 1_555
H23 C37 1_555 1_555
C38 C14 1_555 1_555
H24 C38 1_555 1_555
H25 C38 1_555 1_555
C39 C21 1_555 1_555
H26 C39 1_555 1_555
C40 C17 1_555 1_555
H27 C40 1_555 1_555
H28 C40 1_555 1_555
H29 C40 1_555 1_555
C41 C19 1_555 1_555
H30 C41 1_555 1_555
C42 C27 1_555 1_555
H31 C42 1_555 1_555
H32 C42 1_555 1_555
C43 C13 1_555 1_555
H33 C43 1_555 1_555
C44 H34 1_555 1_555
C45 C34 1_555 1_555
H35 C45 1_555 1_555
C46 C36 1_555 1_555
H36 C46 1_555 1_555
C47 C30 1_555 1_555
H37 C47 1_555 1_555
H38 C47 1_555 1_555
H39 C47 1_555 1_555
C48 C42 1_555 1_555
H40 C48 1_555 1_555
H41 C48 1_555 1_555
H42 C48 1_555 1_555
C49 C37 1_555 1_555
H43 C49 1_555 1_555
C50 C38 1_555 1_555
H44 C50 1_555 1_555
H45 C50 1_555 1_555
H46 C50 1_555 1_555
C51 C45 1_555 1_555
H47 C51 1_555 1_555
C52 C32 1_555 1_555
H48 C52 1_555 1_555
C53 C35 1_555 1_555
H49 C53 1_555 1_555
H50 C53 1_555 1_555
H51 C53 1_555 1_555
C54 C43 1_555 1_555
H52 C54 1_555 1_555
Li1 N1 1_555 1_555
Li2 N3 1_555 1_555
N2 Li1 1_555 1_555
N3 Li1 1_555 1_555
N4 Li1 1_555 1_555
N4 Li2 1_555 1_555
N5 C10 1_555 1_555
N5 Li2 1_555 1_555
N6 C12 1_555 1_555
N6 Li2 1_555 1_555
C16 C23 1_555 1_555
C25 C28 1_555 1_555
C26 C39 1_555 1_555
C31 C33 1_555 1_555
C41 C49 1_555 1_555
C44 C46 1_555 1_555
C44 C54 1_555 1_555
C51 C52 1_555 1_555

#END
