
#######################################################################
#
#                 Cambridge Crystallographic Data Centre
#                                CCDC 
#
#######################################################################
#
# If this CIF has been generated from an entry in the Cambridge 
# Structural Database, then it will include bibliographic, chemical, 
# crystal, experimental, refinement or atomic coordinate data resulting 
# from the CCDC's data processing and validation procedures.
#
#######################################################################

data_REBBOS
_chemical_formula_moiety         'C58 H60 Li2 N6'
_chemical_name_systematic        
bis(\m-N'-(2,6-di-isopropylphenyl)-N-(2-methylquinolin-8-yl)benzenecarboximidamido)-di-lithium
_symmetry_cell_setting           monoclinic
_symmetry_space_group_name_H-M   'P 21/n'
_symmetry_Int_Tables_number      14
_space_group_name_Hall           '-P 2yn'
loop_
_symmetry_equiv_pos_site_id
_symmetry_equiv_pos_as_xyz
1 x,y,z
2 1/2-x,1/2+y,1/2-z
3 -x,-y,-z
4 1/2+x,1/2-y,1/2+z
_cell_length_a                   12.902(3)
_cell_length_b                   19.522(4)
_cell_length_c                   20.648(4)
_cell_angle_alpha                90
_cell_angle_beta                 106.96(3)
_cell_angle_gamma                90
_cell_volume                     4974.49
_exptl_crystal_colour            yellow
_exptl_crystal_description       block
_cell_formula_units_Z            4
loop_
_atom_site_label
_atom_site_type_symbol
_atom_site_fract_x
_atom_site_fract_y
_atom_site_fract_z
N1 N 0.61653(13) 0.28122(9) 0.09356(8)
N2 N 0.43627(14) 0.38083(9) 0.18668(9)
N3 N 0.35364(14) 0.36223(9) 0.07499(9)
N4 N 0.27821(15) 0.18023(9) 0.10350(10)
C1 C 0.57542(16) 0.21934(10) 0.08509(10)
N5 N 0.26678(15) 0.28122(10) -0.03593(10)
C2 C 0.54427(19) 0.09971(11) 0.16324(11)
H1 H 0.6159 0.1079 0.1647
N6 N 0.48537(14) 0.21065(9) 0.10678(9)
C3 C 0.43957(17) 0.39848(11) 0.25396(11)
C4 C 0.69804(17) 0.30316(11) 0.06458(11)
C5 C 0.80072(17) 0.31905(11) 0.10976(12)
C6 C 0.35688(18) 0.13322(11) 0.13350(11)
C7 C 0.38054(19) 0.36031(12) 0.28881(12)
C8 C 0.35533(17) 0.39648(10) 0.13289(11)
C9 C 0.5186(2) 0.03863(12) 0.19117(11)
H2 H 0.5733 0.0071 0.2096
C10 C 0.46618(17) 0.14807(11) 0.13352(10)
C11 C 0.26626(18) 0.44548(11) 0.13437(11)
C12 C 0.61408(18) 0.16302(11) 0.04783(11)
C13 C 0.8191(2) 0.31395(12) 0.18566(12)
H3 H 0.7503 0.3261 0.1939
C14 C 0.2227(2) 0.06080(13) 0.15975(13)
H4 H 0.2029 0.0213 0.1784
C15 C 0.4157(2) 0.02434(12) 0.19199(11)
H5 H 0.4006 -0.0160 0.2115
C16 C 0.52281(19) 0.46214(12) 0.35620(12)
H6 H 0.5707 0.4957 0.3793
C17 C 0.30784(18) 0.39387(12) 0.01210(11)
C18 C 0.33241(19) 0.07161(11) 0.16281(11)
C19 C 0.51214(17) 0.45028(11) 0.28829(11)
C20 C 0.58028(19) 0.48917(12) 0.25142(12)
H7 H 0.5433 0.4863 0.2028
C21 C 0.26142(18) 0.35083(12) -0.04529(12)
C22 C 0.4635(2) 0.42495(14) 0.39033(13)
H8 H 0.4709 0.4340 0.4357
C23 C 0.7227(2) 0.15270(12) 0.05247(12)
H9 H 0.7752 0.1808 0.0804
C24 C 0.3083(2) 0.46342(13) 0.00029(13)
H10 H 0.3424 0.4923 0.0360
C25 C 0.2890(2) 0.50803(12) 0.16813(12)
H11 H 0.3602 0.5191 0.1916
C26 C 0.5370(2) 0.12006(13) 0.00511(12)
H12 H 0.4639 0.1261 0.0010
C27 C 0.1005(2) 0.53812(14) 0.13288(14)
H13 H 0.0453 0.5689 0.1326
C28 C 0.88254(19) 0.33898(13) 0.08279(15)
H14 H 0.9512 0.3480 0.1118
C29 C 0.1462(2) 0.10785(14) 0.12976(15)
H15 H 0.0742 0.1006 0.1279
C30 C 0.3059(2) 0.30246(14) 0.25396(15)
H16 H 0.3073 0.3021 0.2067
C31 C 0.3941(2) 0.37494(14) 0.35687(13)
H17 H 0.3549 0.3500 0.3802
C32 C 0.6771(2) 0.31301(12) -0.00517(12)
C33 C 0.15902(19) 0.43043(13) 0.10000(14)
H18 H 0.1422 0.3889 0.0773
C34 C 0.2064(2) 0.55395(13) 0.16707(13)
H19 H 0.2226 0.5956 0.1896
C35 C 0.0766(2) 0.47659(14) 0.09917(15)
H20 H 0.0053 0.4659 0.0758
C36 C 0.5640(2) 0.30393(15) -0.05397(13)
H21 H 0.5177 0.2845 -0.0285
C37 C 0.2116(2) 0.38012(15) -0.10979(13)
C38 C 0.1760(2) 0.16774(13) 0.10144(14)
C39 C 0.7618(2) 0.33417(15) -0.02929(14)
H22 H 0.7492 0.3407 -0.0756
C40 C 0.7538(3) 0.10078(15) 0.01579(15)
H23 H 0.8268 0.0945 0.0196
C41 C 0.2247(2) 0.24017(15) -0.08833(13)
C42 C 0.2103(3) 0.45174(16) -0.11733(15)
H24 H 0.1759 0.4714 -0.1591
C43 C 0.8643(2) 0.34566(15) 0.01402(17)
H25 H 0.9208 0.3579 -0.0032
C44 C 0.5686(3) 0.06869(16) -0.03107(16)
H26 H 0.5167 0.0403 -0.0592
C45 C 0.2593(3) 0.49232(15) -0.06373(16)
H27 H 0.2604 0.5395 -0.0694
C46 C 0.9038(2) 0.36375(15) 0.22685(16)
H28 H 0.9742 0.3501 0.2248
H29 H 0.9024 0.3634 0.2731
H30 H 0.8880 0.4091 0.2086
C47 C 0.5165(2) 0.37312(19) -0.08198(17)
H31 H 0.5148 0.4028 -0.0452
H32 H 0.4442 0.3668 -0.1112
H33 H 0.5606 0.3933 -0.1071
C48 C 0.0920(2) 0.21933(16) 0.0661(2)
H34 H 0.0643 0.2421 0.0988
H35 H 0.0338 0.1964 0.0335
H36 H 0.1242 0.2524 0.0435
C49 C 0.5940(3) 0.56481(15) 0.27046(16)
H37 H 0.5240 0.5856 0.2625
H38 H 0.6330 0.5873 0.2434
H39 H 0.6336 0.5691 0.3175
C50 C 0.1662(3) 0.33438(19) -0.16331(15)
H40 H 0.1313 0.3515 -0.2062
C51 C 0.8464(3) 0.24125(14) 0.21236(15)
H41 H 0.7876 0.2112 0.1908
H42 H 0.8576 0.2407 0.2604
H43 H 0.9111 0.2262 0.2027
C52 C 0.6780(3) 0.05904(17) -0.02573(16)
H44 H 0.6990 0.0245 -0.0502
C53 C 0.2343(3) 0.16418(16) -0.07677(17)
H45 H 0.2892 0.1463 -0.0951
H46 H 0.1662 0.1427 -0.0988
H47 H 0.2538 0.1549 -0.0291
C54 C 0.6894(3) 0.4544(2) 0.2644(2)
H48 H 0.7297 0.4595 0.3112
H49 H 0.7289 0.4751 0.2366
H50 H 0.6790 0.4066 0.2536
C55 C 0.1727(3) 0.26622(19) -0.15309(15)
H51 H 0.1428 0.2364 -0.1888
Li1 Li 0.3402(3) 0.25790(19) 0.06163(19)
Li2 Li 0.5062(3) 0.3199(2) 0.1324(2)
C56 C 0.3478(4) 0.23380(17) 0.2831(2)
H52 H 0.4193 0.2269 0.2791
H53 H 0.3006 0.1984 0.2588
H54 H 0.3501 0.2323 0.3299
C57 C 0.1896(3) 0.3158(2) 0.2522(3)
H55 H 0.1833 0.3136 0.2974
H56 H 0.1434 0.2819 0.2245
H57 H 0.1682 0.3605 0.2337
C58 C 0.5644(4) 0.2540(2) -0.11125(17)
H58 H 0.6014 0.2745 -0.1405
H59 H 0.4911 0.2436 -0.1368
H60 H 0.6008 0.2125 -0.0923
loop_
_geom_bond_atom_site_label_1
_geom_bond_atom_site_label_2
_geom_bond_site_symmetry_1
_geom_bond_site_symmetry_2
N1 C1 1_555 1_555
N2 C3 1_555 1_555
N3 C8 1_555 1_555
N4 C6 1_555 1_555
C1 N6 1_555 1_555
N5 C21 1_555 1_555
C2 H1 1_555 1_555
N6 C10 1_555 1_555
C3 C7 1_555 1_555
C4 N1 1_555 1_555
C5 C4 1_555 1_555
C6 C10 1_555 1_555
C7 C30 1_555 1_555
C8 N2 1_555 1_555
C9 C2 1_555 1_555
H2 C9 1_555 1_555
C10 C2 1_555 1_555
C11 C8 1_555 1_555
C12 C1 1_555 1_555
C13 C5 1_555 1_555
H3 C13 1_555 1_555
C14 H4 1_555 1_555
C15 C9 1_555 1_555
H5 C15 1_555 1_555
C16 H6 1_555 1_555
C17 N3 1_555 1_555
C18 C6 1_555 1_555
C19 C3 1_555 1_555
C20 C19 1_555 1_555
H7 C20 1_555 1_555
C21 C17 1_555 1_555
C22 C16 1_555 1_555
H8 C22 1_555 1_555
C23 C12 1_555 1_555
H9 C23 1_555 1_555
C24 C17 1_555 1_555
H10 C24 1_555 1_555
C25 C11 1_555 1_555
H11 C25 1_555 1_555
C26 C12 1_555 1_555
H12 C26 1_555 1_555
C27 H13 1_555 1_555
C28 C5 1_555 1_555
H14 C28 1_555 1_555
C29 C14 1_555 1_555
H15 C29 1_555 1_555
C30 H16 1_555 1_555
C31 C7 1_555 1_555
H17 C31 1_555 1_555
C32 C4 1_555 1_555
C33 C11 1_555 1_555
H18 C33 1_555 1_555
C34 C25 1_555 1_555
H19 C34 1_555 1_555
C35 C27 1_555 1_555
H20 C35 1_555 1_555
C36 C32 1_555 1_555
H21 C36 1_555 1_555
C37 C21 1_555 1_555
C38 N4 1_555 1_555
C39 C32 1_555 1_555
H22 C39 1_555 1_555
C40 C23 1_555 1_555
H23 C40 1_555 1_555
C41 N5 1_555 1_555
C42 C37 1_555 1_555
H24 C42 1_555 1_555
C43 C28 1_555 1_555
H25 C43 1_555 1_555
C44 C26 1_555 1_555
H26 C44 1_555 1_555
C45 C24 1_555 1_555
H27 C45 1_555 1_555
C46 C13 1_555 1_555
H28 C46 1_555 1_555
H29 C46 1_555 1_555
H30 C46 1_555 1_555
C47 C36 1_555 1_555
H31 C47 1_555 1_555
H32 C47 1_555 1_555
H33 C47 1_555 1_555
C48 C38 1_555 1_555
H34 C48 1_555 1_555
H35 C48 1_555 1_555
H36 C48 1_555 1_555
C49 C20 1_555 1_555
H37 C49 1_555 1_555
H38 C49 1_555 1_555
H39 C49 1_555 1_555
C50 C37 1_555 1_555
H40 C50 1_555 1_555
C51 C13 1_555 1_555
H41 C51 1_555 1_555
H42 C51 1_555 1_555
H43 C51 1_555 1_555
C52 C40 1_555 1_555
H44 C52 1_555 1_555
C53 C41 1_555 1_555
H45 C53 1_555 1_555
H46 C53 1_555 1_555
H47 C53 1_555 1_555
C54 C20 1_555 1_555
H48 C54 1_555 1_555
H49 C54 1_555 1_555
H50 C54 1_555 1_555
C55 C41 1_555 1_555
H51 C55 1_555 1_555
Li1 N3 1_555 1_555
Li2 N1 1_555 1_555
C56 C30 1_555 1_555
H52 C56 1_555 1_555
H53 C56 1_555 1_555
H54 C56 1_555 1_555
C57 C30 1_555 1_555
H55 C57 1_555 1_555
H56 C57 1_555 1_555
H57 C57 1_555 1_555
C58 C36 1_555 1_555
H58 C58 1_555 1_555
H59 C58 1_555 1_555
H60 C58 1_555 1_555
N2 Li2 1_555 1_555
N3 Li2 1_555 1_555
N4 Li1 1_555 1_555
N5 Li1 1_555 1_555
N6 Li1 1_555 1_555
N6 Li2 1_555 1_555
C14 C18 1_555 1_555
C15 C18 1_555 1_555
C16 C19 1_555 1_555
C22 C31 1_555 1_555
C27 C34 1_555 1_555
C29 C38 1_555 1_555
C33 C35 1_555 1_555
C39 C43 1_555 1_555
C42 C45 1_555 1_555
C44 C52 1_555 1_555
C50 C55 1_555 1_555

#END
