
#######################################################################
#
#                 Cambridge Crystallographic Data Centre
#                                CCDC 
#
#######################################################################
#
# If this CIF has been generated from an entry in the Cambridge 
# Structural Database, then it will include bibliographic, chemical, 
# crystal, experimental, refinement or atomic coordinate data resulting 
# from the CCDC's data processing and validation procedures.
#
#######################################################################

data_REBBAC
_chemical_formula_moiety         'C10 H18 N8 S2'
_chemical_name_systematic        
1,6-bis(1-Methyl-1H-tetrazol-5-ylsulfanyl)hexane
_symmetry_cell_setting           monoclinic
_symmetry_space_group_name_H-M   'C 2/c'
_symmetry_Int_Tables_number      15
_space_group_name_Hall           '-C 2yn'
loop_
_symmetry_equiv_pos_site_id
_symmetry_equiv_pos_as_xyz
1 x,y,z
2 1/2+x,1/2+y,z
3 -x,y,1/2-z
4 1/2-x,1/2+y,1/2-z
5 -x,-y,-z
6 1/2-x,1/2-y,-z
7 x,-y,1/2+z
8 1/2+x,1/2-y,1/2+z
_cell_length_a                   18.485(8)
_cell_length_b                   9.818(4)
_cell_length_c                   9.632(4)
_cell_angle_alpha                90
_cell_angle_beta                 118.286(5)
_cell_angle_gamma                90
_cell_volume                     1539.34
_exptl_crystal_colour            colorless
_exptl_crystal_description       block
_chemical_melting_point          '353-354 K'
_cell_formula_units_Z            4
_exptl_crystal_recrystallization_method acetone
loop_
_atom_site_label
_atom_site_type_symbol
_atom_site_fract_x
_atom_site_fract_y
_atom_site_fract_z
N1 N 0.25181(11) 0.08183(18) 0.4119(2)
N2 N 0.32461(12) 0.1390(2) 0.4448(3)
N3 N 0.30754(13) 0.2401(2) 0.3489(3)
N4 N 0.22533(12) 0.25164(19) 0.2525(2)
S1 S 0.08958(3) 0.10880(7) 0.21874(7)
C1 C 0.19225(12) 0.1513(2) 0.2946(2)
C2 C 0.04225(17) 0.2532(3) 0.0902(3)
C3 C 0.04237(16) 0.2444(2) -0.0672(3)
C4 C -0.00054(15) 0.3659(3) -0.1716(3)
C5 C 0.2464(2) -0.0344(3) 0.5012(4)
H1 H -0.011(2) 0.261(3) 0.080(3)
H2 H 0.0708(17) 0.334(3) 0.149(3)
H3 H 0.0166(16) 0.159(3) -0.123(3)
H4 H 0.0958(19) 0.237(3) -0.049(3)
H5 H -0.0585(19) 0.366(3) -0.192(3)
H6 H 0.0266(19) 0.450(3) -0.107(3)
H7 H 0.207(2) -0.012(3) 0.539(4)
H8 H 0.295(3) -0.041(5) 0.588(6)
H9 H 0.228(2) -0.113(4) 0.436(5)
N1B N -0.25181(11) 0.08183(18) -0.9119(2)
N2B N -0.32461(12) 0.1390(2) -0.9448(3)
N3B N -0.30754(13) 0.2401(2) -0.8489(3)
N4B N -0.22533(12) 0.25164(19) -0.7525(2)
S1B S -0.08958(3) 0.10880(7) -0.71874(7)
C1B C -0.19225(12) 0.1513(2) -0.7946(2)
C2B C -0.04225(17) 0.2532(3) -0.5902(3)
C3B C -0.04237(16) 0.2444(2) -0.4328(3)
C4B C 0.00054(15) 0.3659(3) -0.3284(3)
C5B C -0.2464(2) -0.0344(3) -1.0012(4)
H1B H 0.011(2) 0.261(3) -0.580(3)
H2B H -0.0708(17) 0.334(3) -0.649(3)
H3B H -0.0166(16) 0.159(3) -0.377(3)
H4B H -0.0958(19) 0.237(3) -0.451(3)
H5B H 0.0585(19) 0.366(3) -0.308(3)
H6B H -0.0266(19) 0.450(3) -0.393(3)
H7B H -0.207(2) -0.012(3) -1.039(4)
H8B H -0.295(3) -0.041(5) -1.088(6)
H9B H -0.228(2) -0.113(4) -0.936(5)
loop_
_geom_bond_atom_site_label_1
_geom_bond_atom_site_label_2
_geom_bond_site_symmetry_1
_geom_bond_site_symmetry_2
N1 N2 1_555 1_555
N2 N3 1_555 1_555
N3 N4 1_555 1_555
N4 C1 1_555 1_555
S1 C1 1_555 1_555
C1 N1 1_555 1_555
C2 S1 1_555 1_555
C3 C2 1_555 1_555
C4 C3 1_555 1_555
C5 N1 1_555 1_555
H1 C2 1_555 1_555
H2 C2 1_555 1_555
H3 C3 1_555 1_555
H4 C3 1_555 1_555
H5 C4 1_555 1_555
H6 C4 1_555 1_555
H7 C5 1_555 1_555
H8 C5 1_555 1_555
H9 C5 1_555 1_555
N1B N2B 1_555 1_555
N2B N3B 1_555 1_555
N3B N4B 1_555 1_555
N4B C1B 1_555 1_555
S1B C1B 1_555 1_555
C1B N1B 1_555 1_555
C2B S1B 1_555 1_555
C3B C2B 1_555 1_555
C4B C4 1_555 1_555
C5B N1B 1_555 1_555
H1B C2B 1_555 1_555
H2B C2B 1_555 1_555
H3B C3B 1_555 1_555
H4B C3B 1_555 1_555
H5B C4B 1_555 1_555
H6B C4B 1_555 1_555
H7B C5B 1_555 1_555
H8B C5B 1_555 1_555
H9B C5B 1_555 1_555
C3B C4B 1_555 1_555

#END
