
#######################################################################
#
#                 Cambridge Crystallographic Data Centre
#                                CCDC 
#
#######################################################################
#
# If this CIF has been generated from an entry in the Cambridge 
# Structural Database, then it will include bibliographic, chemical, 
# crystal, experimental, refinement or atomic coordinate data resulting 
# from the CCDC's data processing and validation procedures.
#
#######################################################################

data_REBGUB
_chemical_formula_moiety         'C24 H26 O6'
_chemical_name_systematic        
'Butyl 3-(2-(3,4-dimethoxyphenyl)-7-methoxy-1-benzofuran-5-yl)-2-propenoate'
_symmetry_cell_setting           monoclinic
_symmetry_space_group_name_H-M   'P 21/n'
_symmetry_Int_Tables_number      14
_space_group_name_Hall           '-P 2yn'
loop_
_symmetry_equiv_pos_site_id
_symmetry_equiv_pos_as_xyz
1 x,y,z
2 1/2-x,1/2+y,1/2-z
3 -x,-y,-z
4 1/2+x,1/2-y,1/2+z
_cell_length_a                   18.381(5)
_cell_length_b                   4.8068(13)
_cell_length_c                   27.575(7)
_cell_angle_alpha                90
_cell_angle_beta                 103.655(4)
_cell_angle_gamma                90
_cell_volume                     2367.49
_exptl_crystal_colour            colorless
_exptl_crystal_description       needle
_cell_formula_units_Z            4
_exptl_crystal_recrystallization_method 'petroleum ether/ethyl acetate'
loop_
_atom_site_label
_atom_site_type_symbol
_atom_site_fract_x
_atom_site_fract_y
_atom_site_fract_z
O1 O 0.16509(14) -0.0626(6) 0.10585(9)
O2 O 0.27657(18) 0.3369(8) 0.11039(11)
O3 O 0.2780(2) 0.8767(9) -0.13771(12)
O4 O 0.1814(2) 0.6069(9) -0.17232(15)
O5 O 0.14152(18) -0.6189(7) 0.25736(9)
O6 O 0.02771(18) -0.9424(6) 0.22996(10)
C1 C 0.1048(2) -0.2358(8) 0.08843(13)
C2 C 0.0771(2) -0.1995(9) 0.03904(14)
H1 H 0.0360 -0.2911 0.0193
C3 C 0.1218(2) 0.0037(9) 0.02259(14)
C4 C 0.1248(3) 0.1263(9) -0.02260(14)
H2 H 0.0894 0.0805 -0.0516
C5 C 0.1803(2) 0.3157(9) -0.02409(14)
C6 C 0.2316(2) 0.3940(10) 0.01957(16)
H3 H 0.2677 0.5273 0.0180
C7 C 0.2300(2) 0.2770(10) 0.06533(15)
C8 C 0.1747(2) 0.0843(9) 0.06537(14)
C9 C 0.2266(3) 0.7000(13) -0.13594(19)
C10 C 0.2283(3) 0.6112(12) -0.08418(18)
H4 H 0.2637 0.6921 -0.0583
C11 C 0.1840(3) 0.4295(10) -0.07317(17)
H5 H 0.1487 0.3584 -0.1002
C12 C 0.2824(4) 0.9734(14) -0.18584(19)
H6 H 0.2409 1.0972 -0.1994
H7 H 0.2804 0.8179 -0.2085
C13 C 0.3555(4) 1.1254(16) -0.1794(3)
H8 H 0.3581 1.2041 -0.2113
H9 H 0.3558 1.2789 -0.1565
C14 C 0.4233(4) 0.9562(16) -0.1606(3)
H10 H 0.4222 0.7978 -0.1825
H11 H 0.4224 0.8855 -0.1277
C15 C 0.4940(4) 1.1107(18) -0.1571(3)
H12 H 0.5357 0.9877 -0.1457
H13 H 0.4969 1.2617 -0.1339
H14 H 0.4952 1.1830 -0.1893
C16 C 0.3324(3) 0.5419(12) 0.1131(2)
H15 H 0.3606 0.5601 0.1470
H16 H 0.3092 0.7167 0.1017
H17 H 0.3652 0.4884 0.0923
C17 C 0.0837(2) -0.4174(8) 0.12524(13)
C18 C 0.1252(2) -0.4246(8) 0.17435(13)
H18 H 0.1668 -0.3098 0.1844
C19 C 0.1049(2) -0.6019(9) 0.20829(13)
C20 C 0.0427(2) -0.7773(9) 0.19357(14)
C21 C 0.0022(2) -0.7672(9) 0.14507(14)
H19 H -0.0394 -0.8816 0.1349
C22 C 0.0223(2) -0.5893(9) 0.11110(14)
H20 H -0.0059 -0.5854 0.0783
C23 C 0.1932(3) -0.4033(11) 0.27668(17)
H21 H 0.2150 -0.4376 0.3114
H22 H 0.1675 -0.2278 0.2731
H23 H 0.2319 -0.3987 0.2586
C24 C -0.0364(3) -1.1204(11) 0.21625(19)
H24 H -0.0414 -1.2265 0.2448
H25 H -0.0302 -1.2444 0.1902
H26 H -0.0805 -1.0094 0.2046
loop_
_geom_bond_atom_site_label_1
_geom_bond_atom_site_label_2
_geom_bond_site_symmetry_1
_geom_bond_site_symmetry_2
O1 C1 1_555 1_555
O2 C7 1_555 1_555
O3 C9 1_555 1_555
O4 C9 1_555 1_555
O5 C19 1_555 1_555
O6 C20 1_555 1_555
C1 C2 1_555 1_555
C2 H1 1_555 1_555
C3 C2 1_555 1_555
C4 C3 1_555 1_555
H2 C4 1_555 1_555
C5 C4 1_555 1_555
C6 C5 1_555 1_555
H3 C6 1_555 1_555
C7 C6 1_555 1_555
C8 O1 1_555 1_555
C9 C10 1_555 1_555
C10 H4 1_555 1_555
C11 C5 1_555 1_555
H5 C11 1_555 1_555
C12 O3 1_555 1_555
H6 C12 1_555 1_555
H7 C12 1_555 1_555
C13 C12 1_555 1_555
H8 C13 1_555 1_555
H9 C13 1_555 1_555
C14 C13 1_555 1_555
H10 C14 1_555 1_555
H11 C14 1_555 1_555
C15 C14 1_555 1_555
H12 C15 1_555 1_555
H13 C15 1_555 1_555
H14 C15 1_555 1_555
C16 O2 1_555 1_555
H15 C16 1_555 1_555
H16 C16 1_555 1_555
H17 C16 1_555 1_555
C17 C1 1_555 1_555
C18 C17 1_555 1_555
H18 C18 1_555 1_555
C19 C18 1_555 1_555
C20 C19 1_555 1_555
C21 C20 1_555 1_555
H19 C21 1_555 1_555
C22 C17 1_555 1_555
H20 C22 1_555 1_555
C23 O5 1_555 1_555
H21 C23 1_555 1_555
H22 C23 1_555 1_555
H23 C23 1_555 1_555
C24 O6 1_555 1_555
H24 C24 1_555 1_555
H25 C24 1_555 1_555
H26 C24 1_555 1_555
C3 C8 1_555 1_555
C7 C8 1_555 1_555
C10 C11 1_555 1_555
C21 C22 1_555 1_555

#END
