
#######################################################################
#
#                 Cambridge Crystallographic Data Centre
#                                CCDC 
#
#######################################################################
#
# If this CIF has been generated from an entry in the Cambridge 
# Structural Database, then it will include bibliographic, chemical, 
# crystal, experimental, refinement or atomic coordinate data resulting 
# from the CCDC's data processing and validation procedures.
#
#######################################################################

data_REBGEM
_chemical_formula_moiety         'C25 H29 N1 O9,2(H2 O1)'
_chemical_name_systematic        
'(S)-(-)-2-(Hydroxymethyl)-6-((10-methoxy-5,8,13,13a-tetrahydro-6H-[1,3]dioxolo[4,5-g]isoquinolino[3,2-a]isoquinolin-9-yl)oxy)tetrahydro-2H-pyran-3,4,5-triol dihydrate'
_symmetry_cell_setting           monoclinic
_symmetry_space_group_name_H-M   'P 21'
_symmetry_Int_Tables_number      4
_space_group_name_Hall           'P 2yb'
loop_
_symmetry_equiv_pos_site_id
_symmetry_equiv_pos_as_xyz
1 x,y,z
2 -x,1/2+y,-z
_cell_length_a                   6.1710(12)
_cell_length_b                   10.688(2)
_cell_length_c                   18.481(4)
_cell_angle_alpha                90
_cell_angle_beta                 90.15(3)
_cell_angle_gamma                90
_cell_volume                     1218.92
_cell_formula_units_Z            2
loop_
_atom_site_label
_atom_site_type_symbol
_atom_site_fract_x
_atom_site_fract_y
_atom_site_fract_z
N1 N 0.7733(8) 0.6801(5) 0.8161(3)
O1 O 1.4806(8) 0.6704(5) 1.0528(3)
C1 C 1.3211(11) 0.7083(7) 1.0046(4)
O2 O 1.5080(9) 0.8826(5) 1.0304(3)
C2 C 1.6020(12) 0.7790(8) 1.0655(4)
H1 H 1.7278 0.7822 1.0933
O3 O 0.3247(8) 0.2141(5) 0.6995(3)
C3 C 1.3387(11) 0.8331(8) 0.9908(4)
O4 O 0.2876(7) 0.4579(4) 0.7119(2)
C4 C 1.2031(11) 0.8948(7) 0.9458(4)
H2 H 1.2147 0.9808 0.9392
O5 O 0.3654(6) 0.5919(4) 0.6202(2)
C5 C 1.0417(10) 0.8240(7) 0.9086(3)
C6 C 0.8951(12) 0.8878(7) 0.8552(4)
H3 H 0.9771 0.9086 0.8121
H4 H 0.8423 0.9653 0.8760
O6 O 0.1573(13) 0.6300(6) 0.4364(3)
H5 H 0.0396 0.6329 0.4125
C7 C 0.7038(11) 0.8064(6) 0.8342(4)
H6 H 0.6022 0.8031 0.8741
H7 H 0.6300 0.8432 0.7930
O7 O -0.1836(10) 0.4993(8) 0.5095(4)
H8 H -0.1900 0.5166 0.4646
C8 C 0.5833(11) 0.6117(6) 0.7870(4)
H9 H 0.5452 0.6465 0.7402
H10 H 0.4612 0.6245 0.8191
O8 O -0.0374(9) 0.3430(6) 0.6236(3)
H11 H 0.0524 0.2999 0.6449
C9 C 0.6224(9) 0.4728(6) 0.7787(3)
O9 O 0.4035(9) 0.8343(5) 0.5717(3)
H12 H 0.4775 0.9004 0.5652
C10 C 0.4752(12) 0.4030(7) 0.7410(3)
C11 C 0.4924(11) 0.2722(7) 0.7348(3)
C12 C 0.6773(11) 0.2166(7) 0.7647(4)
H13 H 0.7020 0.1315 0.7584
C13 C 0.8211(11) 0.2871(7) 0.8030(4)
H14 H 0.9393 0.2476 0.8244
C14 C 0.7992(10) 0.4154(6) 0.8116(4)
C15 C 0.9536(10) 0.4919(6) 0.8576(3)
H15 H 0.9922 0.4441 0.9003
H16 H 1.0853 0.5069 0.8304
C16 C 0.8605(10) 0.6151(6) 0.8807(3)
H17 H 0.7399 0.5987 0.9138
C17 C 1.0266(11) 0.6951(6) 0.9203(3)
C18 C 1.1702(11) 0.6365(8) 0.9707(4)
H18 H 1.1606 0.5512 0.9801
C19 C 0.3207(16) 0.0818(9) 0.6980(7)
H19 H 0.1958 0.0541 0.6714
H20 H 0.3141 0.0502 0.7465
H21 H 0.4496 0.0514 0.6749
C20 C 0.2818(10) 0.4720(6) 0.6354(3)
H22 H 0.3690 0.4070 0.6119
C21 C 0.3713(11) 0.6151(7) 0.5430(4)
H23 H 0.4488 0.5459 0.5198
C22 C 0.1432(14) 0.6179(8) 0.5136(4)
H24 H 0.0627 0.6884 0.5342
C23 C 0.0317(10) 0.4963(7) 0.5308(4)
H25 H 0.1040 0.4298 0.5034
C24 C 0.0506(10) 0.4651(7) 0.6108(4)
H26 H -0.0341 0.5262 0.6384
C25 C 0.5004(15) 0.7334(8) 0.5319(5)
H27 H 0.6482 0.7207 0.5483
H28 H 0.5041 0.7541 0.4808
O10 O 0.7529(9) 0.9231(7) 0.6482(3)
H29 H 0.8124 0.8586 0.6302
H30 H 0.7687 0.9236 0.6939
O11 O 1.0645(10) 0.7666(7) 0.7011(3)
H31 H 1.0817 0.7362 0.7432
H32 H 1.1894 0.7854 0.6852
loop_
_geom_bond_atom_site_label_1
_geom_bond_atom_site_label_2
_geom_bond_site_symmetry_1
_geom_bond_site_symmetry_2
N1 C7 1_555 1_555
O1 C1 1_555 1_555
C1 C3 1_555 1_555
O2 C2 1_555 1_555
C2 O1 1_555 1_555
H1 C2 1_555 1_555
O3 C11 1_555 1_555
C3 O2 1_555 1_555
O4 C10 1_555 1_555
C4 C3 1_555 1_555
H2 C4 1_555 1_555
O5 C20 1_555 1_555
C5 C4 1_555 1_555
C6 C5 1_555 1_555
H3 C6 1_555 1_555
H4 C6 1_555 1_555
O6 H5 1_555 1_555
C7 C6 1_555 1_555
H6 C7 1_555 1_555
H7 C7 1_555 1_555
O7 H8 1_555 1_555
C8 N1 1_555 1_555
H9 C8 1_555 1_555
H10 C8 1_555 1_555
O8 H11 1_555 1_555
C9 C8 1_555 1_555
O9 H12 1_555 1_555
C10 C9 1_555 1_555
C11 C10 1_555 1_555
C12 C11 1_555 1_555
H13 C12 1_555 1_555
C13 C12 1_555 1_555
H14 C13 1_555 1_555
C14 C9 1_555 1_555
C15 C14 1_555 1_555
H15 C15 1_555 1_555
H16 C15 1_555 1_555
C16 N1 1_555 1_555
H17 C16 1_555 1_555
C17 C5 1_555 1_555
C18 C1 1_555 1_555
H18 C18 1_555 1_555
C19 O3 1_555 1_555
H19 C19 1_555 1_555
H20 C19 1_555 1_555
H21 C19 1_555 1_555
C20 O4 1_555 1_555
H22 C20 1_555 1_555
C21 O5 1_555 1_555
H23 C21 1_555 1_555
C22 O6 1_555 1_555
H24 C22 1_555 1_555
C23 O7 1_555 1_555
H25 C23 1_555 1_555
C24 O8 1_555 1_555
H26 C24 1_555 1_555
C25 O9 1_555 1_555
H27 C25 1_555 1_555
H28 C25 1_555 1_555
O10 H29 1_555 1_555
H30 O10 1_555 1_555
O11 H31 1_555 1_555
H32 O11 1_555 1_555
C13 C14 1_555 1_555
C15 C16 1_555 1_555
C16 C17 1_555 1_555
C17 C18 1_555 1_555
C20 C24 1_555 1_555
C21 C22 1_555 1_555
C21 C25 1_555 1_555
C22 C23 1_555 1_555
C23 C24 1_555 1_555

#END
