
#######################################################################
#
#                 Cambridge Crystallographic Data Centre
#                                CCDC 
#
#######################################################################
#
# If this CIF has been generated from an entry in the Cambridge 
# Structural Database, then it will include bibliographic, chemical, 
# crystal, experimental, refinement or atomic coordinate data resulting 
# from the CCDC's data processing and validation procedures.
#
#######################################################################

data_REBJIS
_chemical_formula_moiety         'C9 H14 N1 1+,Br1 1-'
_chemical_name_systematic        'N-n-Butylpyridinium bromide'
_symmetry_cell_setting           orthorhombic
_symmetry_space_group_name_H-M   'P 21 21 21'
_symmetry_Int_Tables_number      19
_space_group_name_Hall           'P 2ac 2ab'
loop_
_symmetry_equiv_pos_site_id
_symmetry_equiv_pos_as_xyz
1 x,y,z
2 1/2-x,-y,1/2+z
3 -x,1/2+y,1/2-z
4 1/2+x,1/2-y,-z
_cell_length_a                   8.3040(17)
_cell_length_b                   10.783(2)
_cell_length_c                   11.699(2)
_cell_angle_alpha                90
_cell_angle_beta                 90
_cell_angle_gamma                90
_cell_volume                     1047.55
_exptl_crystal_colour            colorless
_exptl_crystal_description       block
_cell_formula_units_Z            4
loop_
_atom_site_label
_atom_site_type_symbol
_atom_site_fract_x
_atom_site_fract_y
_atom_site_fract_z
Br1 Br 0.97562(13) 0.28210(12) 0.39186(10)
N1 N 0.6028(12) 0.4970(10) 0.2147(9)
C1 C 0.750(4) 0.267(3) -0.089(3)
H1 H 0.6703 0.2496 -0.1463
H2 H 0.7754 0.1924 -0.0483
H3 H 0.8449 0.2994 -0.1245
C2 C 0.683(3) 0.363(2) -0.0055(17)
H4 H 0.5828 0.3325 0.0269
H5 H 0.6601 0.4393 -0.0459
C3 C 0.804(3) 0.388(2) 0.090(2)
H6 H 0.8096 0.3143 0.1379
H7 H 0.9088 0.3994 0.0559
C7 C 0.7704(18) 0.4987(15) 0.1678(13)
H15 H 0.8466 0.4982 0.2307
H16 H 0.7865 0.5747 0.1249
C8 C 0.5695(16) 0.4232(12) 0.3036(10)
H19 H 0.6517 0.3759 0.3355
C9 C 0.4214(19) 0.4156(13) 0.3480(11)
H20 H 0.3995 0.3653 0.4107
C10 C 0.3030(18) 0.4854(15) 0.2971(13)
H21 H 0.1979 0.4807 0.3241
C11 C 0.3378(19) 0.5613(15) 0.2078(14)
H22 H 0.2583 0.6115 0.1762
C12 C 0.490(2) 0.5631(11) 0.1651(10)
H23 H 0.5136 0.6109 0.1012
C4? C 0.743(6) 0.229(4) -0.056(3)
H8? H 0.7228 0.1426 -0.0439
H9? H 0.8441 0.2398 -0.0942
H10? H 0.6582 0.2640 -0.1017
C5? C 0.748(4) 0.296(2) 0.060(2)
H11? H 0.8271 0.2549 0.1076
H12? H 0.6439 0.2867 0.0962
C6? C 0.789(4) 0.434(2) 0.0534(18)
H13? H 0.8993 0.4430 0.0272
H14? H 0.7193 0.4733 -0.0022
H17? H 0.8437 0.4615 0.2212
H18? H 0.8018 0.5836 0.1568
loop_
_geom_bond_atom_site_label_1
_geom_bond_atom_site_label_2
_geom_bond_site_symmetry_1
_geom_bond_site_symmetry_2
N1 C7 1_555 1_555
C1 H1 1_555 1_555
H2 C1 1_555 1_555
H3 C1 1_555 1_555
C2 C1 1_555 1_555
H4 C2 1_555 1_555
H5 C2 1_555 1_555
C3 C2 1_555 1_555
H6 C3 1_555 1_555
H7 C3 1_555 1_555
C7 C3 1_555 1_555
H15 C7 1_555 1_555
H16 C7 1_555 1_555
C8 N1 1_555 1_555
H19 C8 1_555 1_555
C9 C8 1_555 1_555
H20 C9 1_555 1_555
C10 C9 1_555 1_555
H21 C10 1_555 1_555
C11 C10 1_555 1_555
H22 C11 1_555 1_555
C12 N1 1_555 1_555
H23 C12 1_555 1_555
C11 C12 1_555 1_555

#END
