
#######################################################################
#
#                 Cambridge Crystallographic Data Centre
#                                CCDC 
#
#######################################################################
#
# If this CIF has been generated from an entry in the Cambridge 
# Structural Database, then it will include bibliographic, chemical, 
# crystal, experimental, refinement or atomic coordinate data resulting 
# from the CCDC's data processing and validation procedures.
#
#######################################################################

data_REBNIX
_chemical_formula_moiety         'C19 H16 Cl1 F3 O6'
_chemical_name_systematic        
'Ethyl 4-(4-chlorophenyl)-2-hydroxy-7-methyl-5-oxo-2-(trifluoromethyl)-3,4-dihydro-2H,5H-pyrano[4,3-b]pyran-3-carboxylate'
_symmetry_cell_setting           monoclinic
_symmetry_space_group_name_H-M   'P 21/c'
_symmetry_Int_Tables_number      14
_space_group_name_Hall           '-P 2ybc'
loop_
_symmetry_equiv_pos_site_id
_symmetry_equiv_pos_as_xyz
1 x,y,z
2 -x,1/2+y,1/2-z
3 -x,-y,-z
4 x,1/2-y,1/2+z
_cell_length_a                   15.4753(16)
_cell_length_b                   12.0960(12)
_cell_length_c                   11.1812(12)
_cell_angle_alpha                90
_cell_angle_beta                 106.819(3)
_cell_angle_gamma                90
_cell_volume                     2003.47
_exptl_crystal_description       needle/block
_cell_formula_units_Z            4
loop_
_atom_site_label
_atom_site_type_symbol
_atom_site_fract_x
_atom_site_fract_y
_atom_site_fract_z
Cl1 Cl 0.37373(7) 0.24904(8) 0.92407(12)
O1 O -0.03441(12) -0.13384(16) 0.92857(17)
O2 O 0.01656(12) -0.02172(17) 0.80987(19)
O3 O 0.13077(12) -0.38507(14) 0.89425(16)
O4 O 0.12407(13) -0.38639(17) 0.68476(16)
O5 O 0.37862(13) -0.2530(2) 0.80941(19)
O6 O 0.26881(13) -0.23990(17) 0.62969(18)
F1 F 0.29732(13) -0.47272(16) 0.95221(17)
F2 F 0.19749(13) -0.57060(15) 0.8229(2)
F3 F 0.29620(12) -0.48230(15) 0.76194(17)
C1 C -0.03854(18) -0.2344(3) 0.9811(3)
C2 C 0.01464(18) -0.3164(2) 0.9671(2)
H1 H 0.0094 -0.3863 0.9991
C3 C 0.07952(17) -0.2960(2) 0.9028(2)
C4 C 0.08893(16) -0.1952(2) 0.8545(2)
C5 C 0.02515(17) -0.1118(2) 0.8604(2)
C6 C 0.16012(16) -0.1714(2) 0.7903(2)
H2 H 0.1308 -0.1719 0.7000
C7 C 0.22995(16) -0.2662(2) 0.8203(2)
H3 H 0.2656 -0.2594 0.9081
C8 C 0.18045(17) -0.3766(2) 0.8040(2)
C9 C 0.20846(17) -0.0619(2) 0.8232(2)
C10 C 0.2204(2) 0.0077(3) 0.7317(3)
H4 H 0.1942 -0.0101 0.6481
C11 C 0.2705(2) 0.1031(3) 0.7620(3)
H5 H 0.2776 0.1495 0.6992
C12 C 0.3097(2) 0.1293(2) 0.8847(4)
C13 C 0.2982(2) 0.0621(3) 0.9776(3)
H6 H 0.3245 0.0803 1.0610
C14 C 0.24740(19) -0.0325(2) 0.9465(3)
H7 H 0.2391 -0.0775 1.0097
C15 C 0.2429(2) -0.4765(3) 0.8363(3)
C16 C 0.29301(18) -0.2525(2) 0.7404(3)
C17 C 0.4472(2) -0.2343(4) 0.7452(4)
H8 H 0.4260 -0.2614 0.6600
H9 H 0.5021 -0.2737 0.7876
C18 C 0.4657(3) -0.1125(5) 0.7452(5)
H10 H 0.5104 -0.0988 0.7027
H11 H 0.4875 -0.0866 0.8298
H12 H 0.4110 -0.0742 0.7031
C19 C -0.1071(2) -0.2365(3) 1.0512(3)
H13 H -0.1079 -0.3084 1.0872
H14 H -0.1656 -0.2204 0.9952
H15 H -0.0919 -0.1820 1.1164
H16 H 0.082(2) -0.434(3) 0.685(3)
loop_
_geom_bond_atom_site_label_1
_geom_bond_atom_site_label_2
_geom_bond_site_symmetry_1
_geom_bond_site_symmetry_2
Cl1 C12 1_555 1_555
O1 C1 1_555 1_555
O2 C5 1_555 1_555
O3 C3 1_555 1_555
O4 C8 1_555 1_555
O5 C16 1_555 1_555
O6 C16 1_555 1_555
F1 C15 1_555 1_555
F2 C15 1_555 1_555
F3 C15 1_555 1_555
C1 C2 1_555 1_555
C2 H1 1_555 1_555
C3 C2 1_555 1_555
C4 C3 1_555 1_555
C5 O1 1_555 1_555
C6 C4 1_555 1_555
H2 C6 1_555 1_555
C7 C6 1_555 1_555
H3 C7 1_555 1_555
C8 O3 1_555 1_555
C9 C6 1_555 1_555
C10 C9 1_555 1_555
H4 C10 1_555 1_555
C11 C10 1_555 1_555
H5 C11 1_555 1_555
C12 C11 1_555 1_555
C13 C12 1_555 1_555
H6 C13 1_555 1_555
C14 C9 1_555 1_555
H7 C14 1_555 1_555
C15 C8 1_555 1_555
C16 C7 1_555 1_555
C17 O5 1_555 1_555
H8 C17 1_555 1_555
H9 C17 1_555 1_555
C18 C17 1_555 1_555
H10 C18 1_555 1_555
H11 C18 1_555 1_555
H12 C18 1_555 1_555
C19 C1 1_555 1_555
H13 C19 1_555 1_555
H14 C19 1_555 1_555
H15 C19 1_555 1_555
H16 O4 1_555 1_555
C4 C5 1_555 1_555
C7 C8 1_555 1_555
C13 C14 1_555 1_555

#END
