
#######################################################################
#
#                 Cambridge Crystallographic Data Centre
#                                CCDC 
#
#######################################################################
#
# If this CIF has been generated from an entry in the Cambridge 
# Structural Database, then it will include bibliographic, chemical, 
# crystal, experimental, refinement or atomic coordinate data resulting 
# from the CCDC's data processing and validation procedures.
#
#######################################################################

data_REBTEY
_chemical_formula_moiety         'C14 H10 N4 O4'
_chemical_name_systematic        
(E,E)-1,4-bis(3-Nitrophenyl)-2,3-diazabuta-1,3-diene
_symmetry_cell_setting           monoclinic
_symmetry_space_group_name_H-M   'P 21/c'
_symmetry_Int_Tables_number      14
_space_group_name_Hall           '-P 2ybc'
loop_
_symmetry_equiv_pos_site_id
_symmetry_equiv_pos_as_xyz
1 x,y,z
2 -x,1/2+y,1/2-z
3 -x,-y,-z
4 x,1/2-y,1/2+z
_cell_length_a                   3.8044(2)
_cell_length_b                   15.0015(11)
_cell_length_c                   11.6159(8)
_cell_angle_alpha                90
_cell_angle_beta                 90.658(4)
_cell_angle_gamma                90
_cell_volume                     662.896
_exptl_crystal_colour            yellow
_exptl_crystal_description       plate
_cell_formula_units_Z            2
_exptl_crystal_recrystallization_method 1,2-dichloroethane
loop_
_atom_site_label
_atom_site_type_symbol
_atom_site_fract_x
_atom_site_fract_y
_atom_site_fract_z
C1 C 0.7504(11) 0.6384(3) 0.6679(4)
C2 C 0.6444(11) 0.7182(3) 0.6152(4)
C3 C 0.6967(12) 0.7970(3) 0.6740(4)
C4 C 0.8539(12) 0.8002(3) 0.7837(4)
C5 C 0.9582(12) 0.7212(3) 0.8335(4)
C6 C 0.9090(11) 0.6408(3) 0.7761(4)
C7 C 0.6901(12) 0.5521(3) 0.6116(4)
N1 N 0.5144(10) 0.5455(2) 0.5176(3)
N2 N 0.583(2) 0.8814(8) 0.6238(9)
O1 O 0.6258(19) 0.9487(4) 0.6818(6)
O2 O 0.462(2) 0.8768(5) 0.5263(6)
H1 H 0.5389 0.7180 0.5407
H2 H 0.8874 0.8553 0.8225
H3 H 1.0649 0.7216 0.9078
H4 H 0.9848 0.5868 0.8113
H5 H 0.7845 0.4997 0.6459
C1B C 0.2496(11) 0.3616(3) 0.3321(4)
C2B C 0.3556(11) 0.2818(3) 0.3848(4)
C3B C 0.3033(12) 0.2030(3) 0.3260(4)
C4B C 0.1461(12) 0.1998(3) 0.2163(4)
C5B C 0.0418(12) 0.2788(3) 0.1665(4)
C6B C 0.0910(11) 0.3592(3) 0.2239(4)
C7B C 0.3099(12) 0.4479(3) 0.3884(4)
N1B N 0.4856(10) 0.4545(2) 0.4824(3)
N2B N 0.417(2) 0.1186(8) 0.3762(9)
O1B O 0.3742(19) 0.0513(4) 0.3182(6)
O2B O 0.538(2) 0.1232(5) 0.4737(6)
H1B H 0.4611 0.2820 0.4593
H2B H 0.1126 0.1447 0.1775
H3B H -0.0649 0.2784 0.0922
H4B H 0.0152 0.4132 0.1887
H5B H 0.2155 0.5003 0.3541
I1? I 0.5582(3) 0.91975(8) 0.58541(9)
loop_
_geom_bond_atom_site_label_1
_geom_bond_atom_site_label_2
_geom_bond_site_symmetry_1
_geom_bond_site_symmetry_2
C1 C2 1_555 1_555
C2 C3 1_555 1_555
C3 C4 1_555 1_555
C4 C5 1_555 1_555
C5 C6 1_555 1_555
C6 C1 1_555 1_555
C7 C1 1_555 1_555
N1 C7 1_555 1_555
N2 C3 1_555 1_555
O1 N2 1_555 1_555
O2 N2 1_555 1_555
H1 C2 1_555 1_555
H2 C4 1_555 1_555
H3 C5 1_555 1_555
H4 C6 1_555 1_555
H5 C7 1_555 1_555
C1B C2B 1_555 1_555
C2B C3B 1_555 1_555
C3B C4B 1_555 1_555
C4B C5B 1_555 1_555
C5B C6B 1_555 1_555
C6B C1B 1_555 1_555
C7B C1B 1_555 1_555
N1B N1 1_555 1_555
N2B C3B 1_555 1_555
O1B N2B 1_555 1_555
O2B N2B 1_555 1_555
H1B C2B 1_555 1_555
H2B C4B 1_555 1_555
H3B C5B 1_555 1_555
H4B C6B 1_555 1_555
H5B C7B 1_555 1_555
C7B N1B 1_555 1_555

#END
