
#######################################################################
#
#                 Cambridge Crystallographic Data Centre
#                                CCDC 
#
#######################################################################
#
# If this CIF has been generated from an entry in the Cambridge 
# Structural Database, then it will include bibliographic, chemical, 
# crystal, experimental, refinement or atomic coordinate data resulting 
# from the CCDC's data processing and validation procedures.
#
#######################################################################

data_REBVIF
_chemical_compound_source        'brown alga Dictyopteris divaricata'
_chemical_name_common            
'(+)-(1R,6S,9R)-1-hydroxyl-6-isopropyl- 9-methylbicyclo[4.3.0]non-4-en-3-one'
_chemical_formula_moiety         'C13 H20 O2'
_chemical_name_systematic        
7a-Hydroxy-4-isopropyl-7-methyl-1,4,5,6,7,7a-hexahydro-2H-inden-2-one
_symmetry_cell_setting           orthorhombic
_symmetry_space_group_name_H-M   'P 21 21 21'
_symmetry_Int_Tables_number      19
_space_group_name_Hall           'P 2ac 2ab'
loop_
_symmetry_equiv_pos_site_id
_symmetry_equiv_pos_as_xyz
1 x,y,z
2 1/2-x,-y,1/2+z
3 -x,1/2+y,1/2-z
4 1/2+x,1/2-y,-z
_cell_length_a                   7.131(1)
_cell_length_b                   10.111(1)
_cell_length_c                   17.009(1)
_cell_angle_alpha                90
_cell_angle_beta                 90
_cell_angle_gamma                90
_cell_volume                     1226.38
_exptl_crystal_colour            colorless
_exptl_crystal_description       prisms
_chemical_melting_point          146.0-147.5deg.C
_cell_formula_units_Z            4
loop_
_atom_site_label
_atom_site_type_symbol
_atom_site_fract_x
_atom_site_fract_y
_atom_site_fract_z
O1 O -0.1980(5) -0.0093(3) -0.3155(2)
O2 O -0.5376(5) -0.3929(4) -0.2835(2)
C1 C -0.1724(7) -0.1469(4) -0.2957(3)
C2 C -0.3138(7) -0.2385(6) -0.3381(3)
C3 C -0.4168(7) -0.3106(5) -0.2726(3)
C4 C -0.3434(7) -0.2644(5) -0.1977(3)
C5 C -0.2124(7) -0.1709(5) -0.2086(3)
C6 C -0.0924(7) -0.0984(5) -0.1504(3)
C7 C 0.1122(8) -0.1349(6) -0.1705(4)
C8 C 0.1587(7) -0.1062(6) -0.2556(4)
C9 C 0.0326(7) -0.1827(5) -0.3128(3)
C10 C 0.0881(9) -0.1583(7) -0.3980(4)
C11 C -0.1488(10) -0.1229(6) -0.0633(3)
C12 C -0.0046(14) -0.0599(9) -0.0060(4)
C13 C -0.3432(12) -0.0635(7) -0.0452(3)
H1 H -0.344 0.019 -0.304
H2 H -0.413 -0.181 -0.374
H3 H -0.242 -0.307 -0.377
H4 H -0.389 -0.301 -0.140
H5 H -0.109 0.006 -0.161
H6 H 0.205 -0.078 -0.133
H7 H 0.133 -0.239 -0.159
H8 H 0.139 0.000 -0.267
H9 H 0.306 -0.128 -0.267
H10 H 0.050 -0.287 -0.301
H11 H 0.061 -0.244 -0.435
H12 H 0.008 -0.075 -0.422
H13 H 0.239 -0.134 -0.399
H14 H -0.149 -0.228 -0.053
H15 H -0.047 -0.061 0.054
H16 H 0.126 -0.114 -0.011
H17 H 0.017 0.042 -0.023
H18 H -0.387 -0.072 0.016
H19 H -0.362 0.039 -0.063
H20 H -0.436 -0.124 -0.080
loop_
_geom_bond_atom_site_label_1
_geom_bond_atom_site_label_2
_geom_bond_site_symmetry_1
_geom_bond_site_symmetry_2
O1 C1 1_555 1_555
O2 C3 1_555 1_555
C1 C2 1_555 1_555
C2 C3 1_555 1_555
C3 C4 1_555 1_555
C4 C5 1_555 1_555
C5 C1 1_555 1_555
C6 C5 1_555 1_555
C7 C6 1_555 1_555
C8 C7 1_555 1_555
C9 C1 1_555 1_555
C10 C9 1_555 1_555
C11 C6 1_555 1_555
C12 C11 1_555 1_555
C13 C11 1_555 1_555
H1 O1 1_555 1_555
H2 C2 1_555 1_555
H3 C2 1_555 1_555
H4 C4 1_555 1_555
H5 C6 1_555 1_555
H6 C7 1_555 1_555
H7 C7 1_555 1_555
H8 C8 1_555 1_555
H9 C8 1_555 1_555
H10 C9 1_555 1_555
H11 C10 1_555 1_555
H12 C10 1_555 1_555
H13 C10 1_555 1_555
H14 C11 1_555 1_555
H15 C12 1_555 1_555
H16 C12 1_555 1_555
H17 C12 1_555 1_555
H18 C13 1_555 1_555
H19 C13 1_555 1_555
H20 C13 1_555 1_555
C8 C9 1_555 1_555

#END
