
#######################################################################
#
#                 Cambridge Crystallographic Data Centre
#                                CCDC 
#
#######################################################################
#
# If this CIF has been generated from an entry in the Cambridge 
# Structural Database, then it will include bibliographic, chemical, 
# crystal, experimental, refinement or atomic coordinate data resulting 
# from the CCDC's data processing and validation procedures.
#
#######################################################################

data_REBYEE01
_chemical_formula_moiety         'C28 H20 O16 S4 4-,4(Na1 1+),14(H2 O1)'
_chemical_name_systematic        
'Tetra-sodium 25,26,27,28-tetrahydroxycalix(4)arene-5,11,17,23-tetrasulfonate tetradecahydrate'
_symmetry_cell_setting           monoclinic
_symmetry_space_group_name_H-M   'P 2/n'
_symmetry_Int_Tables_number      13
_space_group_name_Hall           '-P 2yac'
loop_
_symmetry_equiv_pos_site_id
_symmetry_equiv_pos_as_xyz
1 x,y,z
2 1/2-x,y,1/2-z
3 -x,-y,-z
4 1/2+x,-y,1/2+z
_cell_length_a                   10.2175(16)
_cell_length_b                   15.257(2)
_cell_length_c                   28.820(5)
_cell_angle_alpha                90
_cell_angle_beta                 99.578(2)
_cell_angle_gamma                90
_cell_volume                     4430.08
_exptl_crystal_colour            colorless
_exptl_crystal_description       prism
_cell_formula_units_Z            4
loop_
_atom_site_label
_atom_site_type_symbol
_atom_site_fract_x
_atom_site_fract_y
_atom_site_fract_z
S1 S 0.66632(8) 0.64020(5) 0.68121(3)
S2 S -0.00904(9) 0.86430(6) 0.68056(3)
S3 S 0.59227(11) 1.12564(6) 0.61449(4)
S4 S 0.01077(11) 0.37445(6) 0.61152(4)
O1 O 0.4328(3) 0.67608(16) 0.48125(8)
H1 H 0.4536 0.7223 0.4699
O2 O 0.0480(3) 0.82674(16) 0.48188(8)
H2 H 0.0161 0.7808 0.4704
O3 O 0.3266(3) 0.83740(16) 0.50194(10)
H3 H 0.2461 0.8446 0.4957
C1 C 0.0852(3) 0.90626(19) 0.55194(11)
C2 C 0.6206(3) 0.7276(2) 0.59805(11)
H4 H 0.6726 0.7714 0.6143
C3 C -0.0241(3) 0.76345(19) 0.55083(11)
C4 C 0.4606(3) 0.59655(19) 0.55113(11)
C5 C 0.5687(3) 0.73921(19) 0.55057(11)
O4 O 0.1740(3) 0.66624(17) 0.50241(10)
H5 H 0.2487 0.6592 0.4962
C6 C -0.0343(3) 0.7755(2) 0.59766(12)
H6 H -0.0722 0.7317 0.6135
C7 C 0.5971(3) 0.8242(2) 0.52693(12)
H7 H 0.6913 0.8368 0.5344
H8 H 0.5747 0.8172 0.4931
C8 C 0.5958(3) 0.6518(2) 0.62131(11)
C9 C 0.0705(3) 0.9164(2) 0.59882(11)
H9 H 0.1010 0.9672 0.6150
C10 C 0.3819(3) 0.90473(19) 0.52896(11)
C11 C -0.0741(3) 0.6787(2) 0.52717(12)
H10 H -0.0839 0.6860 0.4933
H11 H -0.1610 0.6657 0.5348
O5 O 0.6407(3) 0.72139(18) 0.70395(10)
C12 C 0.1889(3) 0.4613(2) 0.56781(11)
H12 H 0.2455 0.4146 0.5773
C13 C 0.3063(3) 0.97337(19) 0.54290(11)
C14 C 0.4888(3) 0.6723(2) 0.52761(11)
C15 C 0.1567(3) 0.9762(2) 0.52844(12)
H13 H 0.1248 1.0333 0.5362
H14 H 0.1350 0.9691 0.4946
O6 O 0.5988(3) 0.56722(17) 0.69941(10)
O7 O 0.0536(3) 0.29520(17) 0.59058(10)
C16 C 0.3673(3) 0.5264(2) 0.52731(12)
H15 H 0.3573 0.5339 0.4935
H16 H 0.4068 0.4693 0.5350
C17 C 0.1433(3) 0.59807(19) 0.52861(11)
C18 C 0.0111(3) 0.8517(2) 0.62143(12)
C19 C 0.2313(3) 0.52886(19) 0.54179(11)
C20 C 0.0627(4) 0.4626(2) 0.57984(12)
C21 C 0.5110(3) 1.0379(2) 0.58223(12)
C22 C 0.5165(3) 0.5868(2) 0.59825(12)
H17 H 0.5003 0.5361 0.6143
C23 C -0.0217(3) 0.5326(2) 0.56760(12)
H18 H -0.1050 0.5334 0.5766
C24 C 0.3738(3) 1.0396(2) 0.56989(12)
H19 H 0.3263 1.0860 0.5799
C25 C 0.0350(3) 0.83041(19) 0.52820(11)
C26 C 0.0176(3) 0.6018(2) 0.54189(12)
O8 O 0.8066(3) 0.6233(2) 0.68264(11)
O9 O 0.0707(4) 0.9384(2) 0.69904(11)
C27 C 0.5836(3) 0.9683(2) 0.56881(13)
H20 H 0.6753 0.9671 0.5778
C28 C 0.5200(3) 0.9006(2) 0.54206(12)
O10 O 0.0421(4) 0.7845(2) 0.70434(11)
O11 O 0.5386(4) 1.20465(18) 0.59129(11)
O12 O -0.1297(4) 0.3816(3) 0.6081(2)
O13 O 0.0778(6) 0.3847(2) 0.65956(12)
O14 O 0.7306(4) 1.1151(3) 0.6138(2)
O15 O -0.1486(3) 0.8748(3) 0.68065(13)
O16 O 0.5611(7) 1.1204(3) 0.66096(13)
Na1 Na -0.00691(16) 0.65868(11) 0.74021(6)
Na2 Na 0.7500 0.83357(15) 0.7500
Na3 Na 0.60309(18) 0.41268(11) 0.70612(6)
Na4 Na 0.09442(18) 1.09083(11) 0.70982(6)
Na5 Na 0.2500 0.8279(3) 0.7500
O17 O 0.6583(3) 0.4373(2) 0.78894(11)
O18 O 0.0133(4) 1.1246(2) 0.62983(13)
O19 O 0.6034(4) 0.3786(2) 0.62682(13)
O20 O 0.3227(3) 1.0662(3) 0.70481(13)
O21 O 0.3005(4) 0.7528(3) 0.61198(14)
O22 O 0.1167(4) 1.2461(2) 0.72690(14)
O23 O 0.3582(4) 0.8811(3) 0.68646(16)
O24 O 0.6126(4) 0.9438(3) 0.70758(19)
O25 O 0.1150(5) 0.5432(3) 0.7124(2)
O26 O 0.1888(5) 0.6719(4) 0.79726(18)
O27 O 0.6132(5) 0.2606(2) 0.72593(14)
O28 O -0.1367(4) 1.0856(4) 0.71865(16)
O29 O 0.3701(5) 0.4249(6) 0.6989(3)
O30 O 0.3167(7) 0.2501(7) 0.6433(3)
loop_
_geom_bond_atom_site_label_1
_geom_bond_atom_site_label_2
_geom_bond_site_symmetry_1
_geom_bond_site_symmetry_2
S1 C8 1_555 1_555
S2 C18 1_555 1_555
S3 C21 1_555 1_555
S4 O7 1_555 1_555
O1 H1 1_555 1_555
O2 H2 1_555 1_555
O3 H3 1_555 1_555
C1 C9 1_555 1_555
C2 H4 1_555 1_555
C3 C6 1_555 1_555
C4 C14 1_555 1_555
C5 C2 1_555 1_555
O4 H5 1_555 1_555
C6 H6 1_555 1_555
C7 C5 1_555 1_555
H7 C7 1_555 1_555
H8 C7 1_555 1_555
C8 C2 1_555 1_555
C9 H9 1_555 1_555
C10 O3 1_555 1_555
C11 C3 1_555 1_555
H10 C11 1_555 1_555
H11 C11 1_555 1_555
O5 S1 1_555 1_555
C12 H12 1_555 1_555
C13 C10 1_555 1_555
C14 O1 1_555 1_555
C15 C1 1_555 1_555
H13 C15 1_555 1_555
H14 C15 1_555 1_555
O6 S1 1_555 1_555
C16 C4 1_555 1_555
H15 C16 1_555 1_555
H16 C16 1_555 1_555
C17 O4 1_555 1_555
C18 C6 1_555 1_555
C19 C12 1_555 1_555
C20 S4 1_555 1_555
C21 C24 1_555 1_555
C22 C4 1_555 1_555
H17 C22 1_555 1_555
C23 C20 1_555 1_555
H18 C23 1_555 1_555
C24 C13 1_555 1_555
H19 C24 1_555 1_555
C25 O2 1_555 1_555
C26 C11 1_555 1_555
O8 S1 1_555 1_555
O9 S2 1_555 1_555
C27 C21 1_555 1_555
H20 C27 1_555 1_555
C28 C7 1_555 1_555
O10 S2 1_555 1_555
O11 S3 1_555 1_555
O12 S4 1_555 1_555
O13 S4 1_555 1_555
O14 S3 1_555 1_555
O15 S2 1_555 1_555
O16 S3 1_555 1_555
C1 C25 1_555 1_555
C3 C25 1_555 1_555
C5 C14 1_555 1_555
C8 C22 1_555 1_555
C9 C18 1_555 1_555
C10 C28 1_555 1_555
C12 C20 1_555 1_555
C13 C15 1_555 1_555
C16 C19 1_555 1_555
C17 C19 1_555 1_555
C17 C26 1_555 1_555
C23 C26 1_555 1_555
C27 C28 1_555 1_555

#END
