
#######################################################################
#
#                 Cambridge Crystallographic Data Centre
#                                CCDC 
#
#######################################################################
#
# If this CIF has been generated from an entry in the Cambridge 
# Structural Database, then it will include bibliographic, chemical, 
# crystal, experimental, refinement or atomic coordinate data resulting 
# from the CCDC's data processing and validation procedures.
#
#######################################################################

data_REBYEE04
_chemical_formula_moiety         'C28 H20 O16 S4 4-,4(Na1 1+),14(H2 O1)'
_chemical_name_systematic        
'Tetra-sodium 25,26,27,28-tetrahydroxycalix(4)arene-5,11,17,23-tetrasulfonate tetradecahydrate'
_symmetry_cell_setting           orthorhombic
_symmetry_space_group_name_H-M   'P n n 2'
_symmetry_Int_Tables_number      34
_space_group_name_Hall           'P 2 -2n'
loop_
_symmetry_equiv_pos_site_id
_symmetry_equiv_pos_as_xyz
1 x,y,z
2 -x,-y,z
3 1/2-x,1/2+y,1/2+z
4 1/2+x,1/2-y,1/2+z
_cell_length_a                   28.237(12)
_cell_length_b                   10.142(3)
_cell_length_c                   15.167(6)
_cell_angle_alpha                90
_cell_angle_beta                 90
_cell_angle_gamma                90
_cell_volume                     4343.52
_exptl_crystal_colour            colorless
_exptl_crystal_description       block
_cell_formula_units_Z            4
loop_
_atom_site_label
_atom_site_type_symbol
_atom_site_fract_x
_atom_site_fract_y
_atom_site_fract_z
Na1 Na 0.4596(3) 0.3646(8) 0.5679(7)
Na2 Na 0.4567(3) 0.8738(7) -0.1110(7)
C1 C 0.32984(11) 0.3938(3) -0.0592(3)
C2 C 0.33223(12) 0.8414(4) 0.5167(3)
O1 O 0.34108(16) 0.3785(5) -0.2266(4)
O2 O 0.34128(17) 0.8635(6) 0.6837(4)
O4 O 0.3589(3) 0.1880(6) -0.1391(6)
O7 O 0.41131(19) 0.8532(11) 0.6003(6)
O8 O 0.3628(5) 1.0468(7) 0.5953(7)
O16 O 0.40956(18) 0.3738(9) -0.1368(5)
S1 S 0.4318(2) 0.9498(7) 0.1177(6)
S2 S 0.4307(3) 0.2731(7) 0.3418(7)
S3 S 0.3619(3) 0.3287(10) -0.1475(8)
S4 S 0.3646(3) 0.9073(10) 0.6050(7)
O21 O 0.23143(14) 0.4265(4) 0.3043(4)
H1 H 0.2179(3) 0.4156(10) 0.2495(8)
C3 C 0.30006(11) 0.3217(3) 0.2412(3)
C4 C 0.29152(10) 0.5807(3) 0.0071(3)
C5 C 0.27769(10) 0.8452(3) 0.1496(3)
O22 O 0.23138(12) 0.8125(4) 0.1545(4)
H2 H 0.2176(3) 0.8249(9) 0.2110(7)
C6 C 0.37188(10) 0.9070(3) 0.1292(3)
C7 C 0.27925(10) 0.7377(3) 0.3826(3)
C8 C 0.34841(10) 0.9432(3) 0.2061(3)
H3 H 0.3675(3) 0.9930(8) 0.2569(7)
O23 O 0.25186(15) 0.5426(4) 0.1432(4)
H4 H 0.2396(3) 0.6293(8) 0.1361(7)
C9 C 0.30160(10) 0.8057(3) 0.0741(3)
C10 C 0.34878(10) 0.8388(3) 0.0640(3)
H5 H 0.3671(3) 0.8084(9) 0.0062(7)
C11 C 0.30100(10) 0.9139(3) 0.2173(3)
C12 C 0.29119(11) 0.3675(3) 0.0799(3)
C13 C 0.27754(11) 0.7238(3) 0.0038(3)
H6 H 0.2879(3) 0.7640(8) -0.0590(7)
H7 H 0.2390(2) 0.7343(7) 0.0104(7)
C14 C 0.37083(10) 0.3211(3) 0.3293(3)
C15 C 0.29313(10) 0.6556(3) 0.4517(3)
C16 C 0.27808(10) 0.4994(3) 0.0758(3)
C17 C 0.34724(11) 0.2874(3) 0.2529(3)
H8 H 0.3656(2) 0.2349(8) 0.2017(6)
C18 C 0.31779(11) 0.5260(3) -0.0614(3)
H9 H 0.3286(3) 0.5864(8) -0.1157(7)
C19 C 0.27749(11) 0.3921(3) 0.3087(3)
O24 O 0.25234(14) 0.6949(4) 0.3152(3)
H10 H 0.2398(3) 0.6083(8) 0.3228(7)
C20 C 0.30151(11) 0.4299(3) 0.3844(3)
C21 C 0.27619(12) 0.2835(3) 0.1563(3)
H11 H 0.2856(3) 0.1812(7) 0.1411(8)
H12 H 0.2383(3) 0.2867(9) 0.1621(7)
C22 C 0.34848(11) 0.3927(3) 0.3951(3)
H13 H 0.3677(3) 0.4190(9) 0.4532(7)
C23 C 0.29251(11) 0.8699(3) 0.3788(3)
C24 C 0.27776(12) 0.9537(3) 0.3021(3)
H14 H 0.2388(3) 0.9505(9) 0.2952(7)
H15 H 0.2873(3) 1.0551(7) 0.3161(6)
C25 C 0.27862(11) 0.5122(3) 0.4547(3)
H16 H 0.2885(3) 0.4737(8) 0.5187(7)
H17 H 0.2399(2) 0.5046(8) 0.4494(6)
C26 C 0.31709(11) 0.3151(3) 0.0105(3)
H18 H 0.3271(3) 0.2122(8) 0.0115(8)
C27 C 0.31993(11) 0.7094(3) 0.5181(3)
H19 H 0.3309(3) 0.6464(9) 0.5731(7)
O25 O 0.45364(16) 0.3147(7) 0.2620(5)
O26 O 0.44979(14) 0.8719(4) 0.0450(4)
C28 C 0.31943(12) 0.9206(3) 0.4463(3)
H20 H 0.3295(3) 1.0222(8) 0.4460(7)
O27 O 0.45425(14) 0.9122(5) 0.1989(4)
O28 O 0.44819(17) 0.3433(6) 0.4164(4)
O29 O 0.43314(16) 1.0881(4) 0.1013(4)
O30 O 0.43031(19) 0.1329(5) 0.3519(6)
O3 O 0.45518(19) 0.5934(5) 0.5440(6)
H29 H 0.4469(5) 0.6021(12) 0.4858(10)
H32 H 0.4359(4) 0.6526(18) 0.5719(13)
O5 O 0.36212(17) 0.6166(7) 0.2323(6)
H41 H 0.3464(7) 0.6865(17) 0.2182(17)
H42 H 0.3420(7) 0.550(2) 0.2375(15)
O6 O 0.46081(16) 1.1103(5) -0.0836(5)
H23 H 0.4371(4) 1.1585(12) -0.1128(11)
H25 H 0.4534(4) 1.1078(11) -0.0259(12)
O9 O 0.4685(3) 0.1285(7) 0.5639(7)
H48 H 0.4867(12) 0.089(5) 0.602(5)
H51 H 0.4572(16) 0.125(3) 0.489(2)
O10 O 0.3771(2) 0.9121(7) -0.1442(5)
H22 H 0.3655(4) 0.8886(13) -0.1990(11)
H27 H 0.3676(4) 1.0001(14) -0.1381(10)
O11 O 0.3801(2) 0.3215(8) 0.6024(5)
H21 H 0.3716(4) 0.2351(15) 0.5962(11)
H24 H 0.3673(4) 0.3447(14) 0.6569(11)
O12 O 0.4773(2) 0.3786(10) 0.7243(6)
H46 H 0.4962(13) 0.299(6) 0.736(5)
H47 H 0.4900(10) 0.464(3) 0.7269(13)
O13 O 0.4765(2) 0.8748(11) -0.2609(6)
H44 H 0.4957(11) 0.784(5) -0.269(3)
H45 H 0.4907(10) 0.966(4) -0.2682(16)
O14 O 0.4664(4) 0.3850(9) 0.0177(7)
H31 H 0.4417(5) 0.3702(13) -0.0243(11)
H37 H 0.4890(9) 0.389(2) -0.009(2)
O15 O 0.4595(5) 0.8815(7) 0.4197(6)
H34 H 0.4418(7) 0.8868(19) 0.4747(16)
H50 H 0.4858(9) 0.864(2) 0.462(2)
O17 O 0.4486(5) 0.6450(9) -0.0916(16)
H38 H 0.4314(13) 0.600(4) -0.135(4)
H49 H 0.435(2) 0.620(6) -0.047(6)
O18 O 0.5468(3) 0.4168(8) 0.1502(7)
H35 H 0.5471(5) 0.4852(15) 0.1089(16)
H36 H 0.5778(5) 0.4040(16) 0.1711(11)
Na3 Na 0.5000 0.5000 0.3029(14)
O19 O 0.4368(3) 0.6367(6) 0.3594(6)
H33 H 0.4434(4) 0.7260(12) 0.3664(12)
H40 H 0.4097(5) 0.6304(14) 0.3295(11)
O20 O 0.3920(6) 0.6174(19) 0.726(2)
H39 H 0.3767(10) 0.553(2) 0.7379(18)
H43 H 0.3783(10) 0.682(2) 0.7124(18)
Na4 Na 0.4903(3) 0.2481(7) 0.1353(6)
Na5 Na 0.5000 1.0000 0.3115(9)
H26? H 0.4516(5) 0.8723(16) -0.3039(10)
H28? H 0.4521(4) 0.3780(13) 0.7675(10)
H30? H 0.4413(7) 0.0872(14) 0.5756(11)
H52? H 0.4330(7) 0.963(2) 0.412(2)
loop_
_geom_bond_atom_site_label_1
_geom_bond_atom_site_label_2
_geom_bond_site_symmetry_1
_geom_bond_site_symmetry_2
C1 S3 1_555 1_555
C2 S4 1_555 1_555
O1 S3 1_555 1_555
O2 S4 1_555 1_555
O3 H29 1_555 1_555
O4 S3 1_555 1_555
O5 H41 1_555 1_555
O6 H23 1_555 1_555
O7 S4 1_555 1_555
O8 S4 1_555 1_555
O9 H48 1_555 1_555
O10 H22 1_555 1_555
O11 H21 1_555 1_555
O12 H46 1_555 1_555
O13 H44 1_555 1_555
O14 H31 1_555 1_555
O15 H34 1_555 1_555
O16 S3 1_555 1_555
O17 H38 1_555 1_555
O18 H35 1_555 1_555
O19 H33 1_555 1_555
O20 H39 1_555 1_555
S1 C6 1_555 1_555
S2 C14 1_555 1_555
O21 H1 1_555 1_555
C3 C17 1_555 1_555
C4 C13 1_555 1_555
C5 O22 1_555 1_555
O22 H2 1_555 1_555
C6 C8 1_555 1_555
C7 C15 1_555 1_555
C8 H3 1_555 1_555
O23 H4 1_555 1_555
C9 C5 1_555 1_555
C10 C6 1_555 1_555
H5 C10 1_555 1_555
C11 C5 1_555 1_555
C12 C16 1_555 1_555
C13 C9 1_555 1_555
H6 C13 1_555 1_555
H7 C13 1_555 1_555
C14 C17 1_555 1_555
C15 C25 1_555 1_555
C16 C4 1_555 1_555
C17 H8 1_555 1_555
C18 C1 1_555 1_555
H9 C18 1_555 1_555
C19 O21 1_555 1_555
O24 C7 1_555 1_555
H10 O24 1_555 1_555
C20 C19 1_555 1_555
C21 C3 1_555 1_555
H11 C21 1_555 1_555
H12 C21 1_555 1_555
C22 C14 1_555 1_555
H13 C22 1_555 1_555
C23 C7 1_555 1_555
C24 C11 1_555 1_555
H14 C24 1_555 1_555
H15 C24 1_555 1_555
C25 C20 1_555 1_555
H16 C25 1_555 1_555
H17 C25 1_555 1_555
C26 C1 1_555 1_555
H18 C26 1_555 1_555
C27 C2 1_555 1_555
H19 C27 1_555 1_555
O25 S2 1_555 1_555
O26 S1 1_555 1_555
C28 C2 1_555 1_555
H20 C28 1_555 1_555
O27 S1 1_555 1_555
O28 S2 1_555 1_555
O29 S1 1_555 1_555
O30 S2 1_555 1_555
H24 O11 1_555 1_555
H25 O6 1_555 1_555
H27 O10 1_555 1_555
H32 O3 1_555 1_555
H36 O18 1_555 1_555
H37 O14 1_555 1_555
H40 O19 1_555 1_555
H42 O5 1_555 1_555
H43 O20 1_555 1_555
H45 O13 1_555 1_555
H47 O12 1_555 1_555
H49 O17 1_555 1_555
H50 O15 1_555 1_555
H51 O9 1_555 1_555
C3 C19 1_555 1_555
C4 C18 1_555 1_555
C8 C11 1_555 1_555
O23 C16 1_555 1_555
C9 C10 1_555 1_555
C12 C21 1_555 1_555
C12 C26 1_555 1_555
C15 C27 1_555 1_555
C20 C22 1_555 1_555
C23 C24 1_555 1_555
C23 C28 1_555 1_555

#END
