
#######################################################################
#
#                 Cambridge Crystallographic Data Centre
#                                CCDC 
#
#######################################################################
#
# If this CIF has been generated from an entry in the Cambridge 
# Structural Database, then it will include bibliographic, chemical, 
# crystal, experimental, refinement or atomic coordinate data resulting 
# from the CCDC's data processing and validation procedures.
#
#######################################################################

data_REBYEE03
_chemical_formula_moiety         'C28 H20 O16 S4 4-,4(Na1 1+),14(H2 O1)'
_chemical_name_systematic        
'Tetra-sodium 25,26,27,28-tetrahydroxycalix(4)arene-5,11,17,23-tetrasulfonate tetradecahydrate'
_symmetry_cell_setting           orthorhombic
_symmetry_space_group_name_H-M   'P n n 2'
_symmetry_Int_Tables_number      34
_space_group_name_Hall           'P 2 -2n'
loop_
_symmetry_equiv_pos_site_id
_symmetry_equiv_pos_as_xyz
1 x,y,z
2 -x,-y,z
3 1/2-x,1/2+y,1/2+z
4 1/2+x,1/2-y,1/2+z
_cell_length_a                   28.237(12)
_cell_length_b                   10.142(3)
_cell_length_c                   15.167(6)
_cell_angle_alpha                90
_cell_angle_beta                 90
_cell_angle_gamma                90
_cell_volume                     4343.52
_exptl_crystal_colour            'light brown'
_exptl_crystal_description       prism
_cell_formula_units_Z            4
loop_
_atom_site_label
_atom_site_type_symbol
_atom_site_fract_x
_atom_site_fract_y
_atom_site_fract_z
Na1 Na 0.45961(5) 0.36359(14) 0.56868(9)
Na2 Na 0.45613(5) 0.87407(13) -0.10978(9)
C1 C 0.32994(10) 0.3945(3) -0.05911(17)
C2 C 0.33254(10) 0.8412(3) 0.51597(17)
O1 O 0.34072(8) 0.3785(2) -0.22675(13)
O2 O 0.34106(9) 0.8630(3) 0.68327(15)
O4 O 0.35886(15) 0.1876(3) -0.1391(2)
O7 O 0.41107(11) 0.8533(5) 0.5992(3)
O8 O 0.3636(2) 1.0463(3) 0.5942(3)
O16 O 0.40969(10) 0.3730(4) -0.13730(19)
S1 S 0.43155(2) 0.94816(6) 0.11785(4)
S2 S 0.43006(2) 0.27337(6) 0.34187(5)
S3 S 0.36164(3) 0.32755(8) -0.14721(5)
S4 S 0.36455(3) 0.90695(8) 0.60405(5)
O21 O 0.23147(7) 0.4272(2) 0.30461(13)
H1 H 0.2199 0.4018 0.2580
C3 C 0.30047(9) 0.3209(2) 0.24136(15)
C4 C 0.29160(8) 0.5806(2) 0.00674(15)
C5 C 0.27797(9) 0.8457(2) 0.14973(16)
O22 O 0.23145(6) 0.81223(19) 0.15325(13)
H2 H 0.2201 0.8378 0.2000
C6 C 0.37185(9) 0.9064(2) 0.12965(16)
C7 C 0.27940(9) 0.7375(2) 0.38223(15)
C8 C 0.34834(9) 0.9425(2) 0.20546(16)
H3 H 0.3647 0.9872 0.2495
O23 O 0.25176(8) 0.54296(19) 0.14382(13)
H4 H 0.2456 0.6212 0.1366
C9 C 0.30138(8) 0.8050(2) 0.07409(15)
C10 C 0.34862(9) 0.8382(2) 0.06478(16)
H5 H 0.3648 0.8140 0.0139
C11 C 0.30118(9) 0.9136(2) 0.21716(16)
C12 C 0.29107(9) 0.3675(2) 0.08015(16)
C13 C 0.27751(9) 0.7241(2) 0.00435(15)
H6 H 0.2853 0.7601 -0.0531
H7 H 0.2435 0.7307 0.0119
C14 C 0.37082(9) 0.3213(2) 0.32925(17)
C15 C 0.29302(9) 0.6557(2) 0.45113(15)
C16 C 0.27798(9) 0.4993(2) 0.07576(15)
C17 C 0.34722(9) 0.2876(2) 0.25312(18)
H8 H 0.3631 0.2417 0.2090
C18 C 0.31785(9) 0.5263(2) -0.06087(16)
H9 H 0.3274 0.5788 -0.1079
C19 C 0.27780(9) 0.3919(2) 0.30798(15)
O24 O 0.25229(8) 0.69541(19) 0.31499(13)
H10 H 0.2460 0.6172 0.3220
C20 C 0.30175(9) 0.4293(2) 0.38459(15)
C21 C 0.27614(10) 0.2838(2) 0.15596(16)
H11 H 0.2831 0.1923 0.1425
H12 H 0.2422 0.2918 0.1637
C22 C 0.34841(9) 0.3923(2) 0.39454(17)
H13 H 0.3648 0.4153 0.4454
C23 C 0.29259(9) 0.8696(2) 0.37875(15)
C24 C 0.27769(10) 0.9538(2) 0.30164(17)
H14 H 0.2436 0.9477 0.2945
H15 H 0.2854 1.0451 0.3141
C25 C 0.27831(9) 0.5128(2) 0.45423(15)
H16 H 0.2860 0.4772 0.5118
H17 H 0.2442 0.5074 0.4469
C26 C 0.31698(10) 0.3154(2) 0.01108(16)
H18 H 0.3257 0.2269 0.0119
C27 C 0.32016(10) 0.7100(3) 0.51796(17)
H19 H 0.3301 0.6573 0.5646
O25 O 0.45375(9) 0.3143(3) 0.26167(17)
O26 O 0.44944(7) 0.8708(2) 0.04442(14)
C28 C 0.31951(10) 0.9206(2) 0.44700(17)
H20 H 0.3287 1.0086 0.4460
O27 O 0.45414(8) 0.9118(2) 0.19892(15)
O28 O 0.44853(9) 0.3436(3) 0.41581(17)
O29 O 0.43324(8) 1.0882(2) 0.10087(19)
O30 O 0.43065(11) 0.1337(2) 0.3517(3)
O3 O 0.45493(10) 0.5938(3) 0.5436(2)
O5 O 0.36251(10) 0.6150(3) 0.2311(3)
O6 O 0.46080(9) 1.1093(2) -0.08504(16)
O9 O 0.46851(13) 0.1293(3) 0.5631(3)
O10 O 0.37693(10) 0.9116(3) -0.1443(2)
O11 O 0.38003(10) 0.3211(3) 0.6023(2)
O12 O 0.47722(11) 0.3780(4) 0.7240(2)
O13 O 0.47614(11) 0.8743(4) -0.2605(2)
O14 O 0.46273(19) 0.3815(3) 0.0201(3)
O15 O 0.45780(17) -0.1179(3) 0.4212(3)
O17 O 0.4488(2) 0.6452(4) -0.0974(5)
O18 O 0.54705(14) 0.4161(3) 0.1501(3)
Na3 Na 0.5000 0.5000 0.3047(2)
O19 O 0.43673(12) 0.6382(3) 0.3600(2)
O20 O 0.3930(3) 0.6167(6) -0.2760(7)
Na4 Na 0.48999(5) 0.24786(12) 0.13624(9)
Na5 Na 0.5000 0.0000 0.31108(12)
loop_
_geom_bond_atom_site_label_1
_geom_bond_atom_site_label_2
_geom_bond_site_symmetry_1
_geom_bond_site_symmetry_2
C1 S3 1_555 1_555
C2 S4 1_555 1_555
O1 S3 1_555 1_555
O2 S4 1_555 1_555
O4 S3 1_555 1_555
O7 S4 1_555 1_555
O8 S4 1_555 1_555
O16 S3 1_555 1_555
S1 C6 1_555 1_555
S2 C14 1_555 1_555
O21 H1 1_555 1_555
C3 C17 1_555 1_555
C4 C13 1_555 1_555
C5 O22 1_555 1_555
O22 H2 1_555 1_555
C6 C8 1_555 1_555
C7 C15 1_555 1_555
C8 H3 1_555 1_555
O23 H4 1_555 1_555
C9 C5 1_555 1_555
C10 C6 1_555 1_555
H5 C10 1_555 1_555
C11 C5 1_555 1_555
C12 C16 1_555 1_555
C13 C9 1_555 1_555
H6 C13 1_555 1_555
H7 C13 1_555 1_555
C14 C17 1_555 1_555
C15 C25 1_555 1_555
C16 C4 1_555 1_555
C17 H8 1_555 1_555
C18 C1 1_555 1_555
H9 C18 1_555 1_555
C19 O21 1_555 1_555
O24 C7 1_555 1_555
H10 O24 1_555 1_555
C20 C19 1_555 1_555
C21 C3 1_555 1_555
H11 C21 1_555 1_555
H12 C21 1_555 1_555
C22 C14 1_555 1_555
H13 C22 1_555 1_555
C23 C7 1_555 1_555
C24 C11 1_555 1_555
H14 C24 1_555 1_555
H15 C24 1_555 1_555
C25 C20 1_555 1_555
H16 C25 1_555 1_555
H17 C25 1_555 1_555
C26 C1 1_555 1_555
H18 C26 1_555 1_555
C27 C2 1_555 1_555
H19 C27 1_555 1_555
O25 S2 1_555 1_555
O26 S1 1_555 1_555
C28 C2 1_555 1_555
H20 C28 1_555 1_555
O27 S1 1_555 1_555
O28 S2 1_555 1_555
O29 S1 1_555 1_555
O30 S2 1_555 1_555
C3 C19 1_555 1_555
C4 C18 1_555 1_555
C8 C11 1_555 1_555
O23 C16 1_555 1_555
C9 C10 1_555 1_555
C12 C21 1_555 1_555
C12 C26 1_555 1_555
C15 C27 1_555 1_555
C20 C22 1_555 1_555
C23 C24 1_555 1_555
C23 C28 1_555 1_555

#END
