
#######################################################################
#
#                 Cambridge Crystallographic Data Centre
#                                CCDC 
#
#######################################################################
#
# If this CIF has been generated from an entry in the Cambridge 
# Structural Database, then it will include bibliographic, chemical, 
# crystal, experimental, refinement or atomic coordinate data resulting 
# from the CCDC's data processing and validation procedures.
#
#######################################################################

data_REBYEE02
_chemical_formula_moiety         'C28 H20 O16 S4 4-,4(Na1 1+),14(H2 O1)'
_chemical_name_systematic        
'Tetra-sodium 25,26,27,28-tetrahydroxycalix(4)arene-5,11,17,23-tetrasulfonate tetradecahydrate'
_symmetry_cell_setting           monoclinic
_symmetry_space_group_name_H-M   'P 2/n'
_symmetry_Int_Tables_number      13
_space_group_name_Hall           '-P 2yac'
loop_
_symmetry_equiv_pos_site_id
_symmetry_equiv_pos_as_xyz
1 x,y,z
2 1/2-x,y,1/2-z
3 -x,-y,-z
4 1/2+x,-y,1/2+z
_cell_length_a                   10.2387(10)
_cell_length_b                   15.3190(10)
_cell_length_c                   28.924(2)
_cell_angle_alpha                90
_cell_angle_beta                 99.676(5)
_cell_angle_gamma                90
_cell_volume                     4472.09
_exptl_crystal_colour            'light brown'
_exptl_crystal_description       block
_cell_formula_units_Z            4
loop_
_atom_site_label
_atom_site_type_symbol
_atom_site_fract_x
_atom_site_fract_y
_atom_site_fract_z
S1 S 0.8333(4) 0.1401(2) 0.31878(12)
S2 S 1.5094(4) 0.3641(3) 0.31962(12)
S3 S 0.9083(5) 0.6260(3) 0.38548(15)
S4 S 1.4885(5) -0.1254(2) 0.38836(15)
O1 O 1.0668(2) 0.17611(12) 0.51880(6)
C1 C 1.03944(15) 0.09639(9) 0.44866(5)
C2 C 1.41485(15) 0.40635(9) 0.44808(5)
C3 C 0.87880(15) 0.22792(9) 0.40206(5)
C4 C 1.46481(15) 0.33050(9) 0.47202(5)
O2 O 1.4525(2) 0.32661(12) 0.51825(6)
C5 C 0.93153(15) 0.23920(9) 0.44936(5)
C6 C 0.90386(15) 0.15182(9) 0.37845(5)
C7 C 1.52373(15) 0.26327(9) 0.44919(5)
C8 C 1.01163(15) 0.17216(9) 0.47253(5)
C9 C 1.26865(15) 0.02872(9) 0.45828(5)
C10 C 1.34319(16) 0.47643(9) 0.47143(5)
C11 C 1.19387(15) 0.47327(9) 0.45716(5)
C12 C 1.35670(15) 0.09817(9) 0.47147(5)
C13 C 0.98354(16) 0.08634(9) 0.40153(5)
C14 C 0.90363(16) 0.32412(9) 0.47300(5)
C15 C 1.11849(15) 0.40461(9) 0.47109(5)
C16 C 1.53447(16) 0.27524(9) 0.40223(5)
O3 O 1.1743(2) 0.33747(13) 0.49812(7)
C17 C 1.13258(16) 0.02618(9) 0.47249(5)
C18 C 1.48919(16) 0.35154(9) 0.37856(5)
C19 C 1.31058(17) -0.03898(9) 0.43210(5)
O4 O 1.3255(2) 0.16611(13) 0.49762(7)
C20 C 1.48256(15) 0.10183(9) 0.45821(5)
C21 C 1.43694(17) -0.03742(10) 0.41995(5)
C22 C 1.57332(16) 0.17840(9) 0.47304(5)
C23 C 1.42924(16) 0.41674(9) 0.40115(5)
C24 C 1.52184(17) 0.03284(10) 0.43252(6)
C25 C 0.97990(15) 0.40077(9) 0.45775(5)
C26 C 0.98910(17) 0.53800(10) 0.41768(6)
C27 C 1.12677(17) 0.53996(10) 0.43003(5)
O5 O 0.8597(2) 0.22151(13) 0.29609(7)
O6 O 0.9016(2) 0.06739(13) 0.30063(7)
O7 O 1.4466(3) -0.20474(12) 0.40937(7)
C28 C 0.91625(17) 0.46842(10) 0.43099(6)
O8 O 0.6930(2) 0.12337(17) 0.31727(8)
O9 O 0.9620(3) 0.70479(13) 0.40893(8)
O10 O 1.4293(3) 0.43844(15) 0.30086(8)
O11 O 1.4572(3) 0.28433(16) 0.29591(8)
O12 O 1.4216(5) -0.11558(18) 0.34019(9)
O13 O 0.9396(6) 0.6205(2) 0.33874(10)
O14 O 1.6489(3) 0.3738(3) 0.31929(10)
O15 O 1.6294(4) -0.1183(2) 0.39174(19)
O16 O 0.7695(4) 0.6157(3) 0.3865(2)
H1 H 0.8186(4) 0.2797(2) 0.38310(13)
H2 H 1.3778(4) 0.5404(2) 0.46160(15)
H3 H 1.3701(4) 0.4711(3) 0.50974(12)
H4 H 1.0031(4) 0.0275(2) 0.38289(13)
H5 H 0.7967(4) 0.3387(3) 0.46355(16)
H6 H 0.9242(4) 0.3182(3) 0.51093(12)
H7 H 1.5787(4) 0.2239(2) 0.38385(13)
H8 H 1.2674(4) 0.3453(3) 0.51014(15)
H9 H 1.1418(4) 0.0322(3) 0.51067(12)
H10 H 1.0885(4) -0.0378(2) 0.46261(15)
H11 H 1.2446(4) -0.0940(2) 0.42212(15)
H12 H 1.6710(4) 0.1634(3) 0.46376(16)
H13 H 1.5894(4) 0.1851(3) 0.51108(13)
H14 H 1.3938(4) 0.4758(2) 0.38260(13)
H15 H 1.6188(4) 0.0326(3) 0.42244(16)
H16 H 1.1826(4) 0.5942(3) 0.41909(16)
H17 H 0.8089(4) 0.4673(3) 0.42074(17)
H18 H 1.0618(5) 0.2337(3) 0.53216(14)
H19 H 1.4702(5) 0.2689(3) 0.53181(14)
H20 H 1.2453(5) 0.1583(3) 0.51034(15)
Na1 Na 1.5069(4) 0.1586(2) 0.25946(13)
Na2 Na 0.7500 0.3342(3) 0.2500
Na3 Na 0.8969(4) -0.0874(2) 0.29382(13)
Na4 Na 1.4056(4) 0.5908(2) 0.29025(13)
Na5 Na 1.2500 0.3280(6) 0.2500
O17 O 0.8414(3) -0.06255(16) 0.21096(8)
H21 H 0.8352(6) -0.0022(3) 0.2026(2)
H22 H 0.8792(7) -0.0889(4) 0.1870(2)
O18 O 0.8962(4) -0.12152(18) 0.37304(10)
H23 H 0.9252(7) -0.1771(4) 0.3847(2)
H29 H 0.8128(8) -0.1170(5) 0.3822(2)
O19 O 1.1772(3) 0.5659(2) 0.29471(10)
H27 H 1.1738(7) 0.5069(5) 0.3041(2)
H36 H 1.1277(10) 0.5944(7) 0.3140(3)
O20 O 1.1419(4) 0.3815(3) 0.31329(14)
H30 H 1.0499(8) 0.3906(5) 0.3081(3)
H34 H 1.1641(8) 0.3498(6) 0.3413(3)
O21 O 0.8884(6) -0.2392(2) 0.27387(12)
H28 H 0.9023(8) -0.2825(4) 0.2982(2)
H45 H 0.790(2) -0.2432(8) 0.2578(6)
O22 O 1.3822(5) 0.0398(4) 0.2845(2)
H32 H 1.4067(8) -0.0009(5) 0.3087(3)
H41 H 1.3652(12) 0.0098(9) 0.2608(5)
O23 O 0.8879(4) 0.4436(3) 0.2922(2)
H42 H 0.8915(10) 0.4957(6) 0.3064(4)
H43 H 0.8184(14) 0.4320(10) 0.3176(4)
O24 O 1.3106(5) 0.1719(4) 0.20325(17)
H33 H 1.2467(10) 0.1333(8) 0.2021(3)
H35 H 1.3105(9) 0.1932(7) 0.1725(3)
O25 O 1.4863(4) 0.6244(2) 0.37006(11)
H24 H 1.4685(7) 0.6790(4) 0.3830(2)
H26 H 1.5772(8) 0.6175(5) 0.3788(2)
O26 O 1.3834(5) 0.74584(19) 0.27310(12)
H25 H 1.3951(7) 0.7871(4) 0.2980(2)
O27 O 1.6358(4) 0.5838(4) 0.28153(16)
H31 H 1.6899(8) 0.5978(6) 0.3090(3)
H48 H 1.6420(16) 0.5168(14) 0.2896(8)
O28 O 1.1292(6) -0.0680(8) 0.3018(4)
H44 H 1.1902(17) -0.1048(17) 0.3181(6)
H49 H 1.147(3) -0.021(2) 0.3136(12)
O29 O 1.1827(10) 0.7498(9) 0.3578(4)
H37 H 1.2585(13) 0.7613(8) 0.3746(5)
H38 H 1.1233(12) 0.7368(8) 0.3724(5)
O30 O 1.1991(4) 0.2531(2) 0.38786(11)
H39 H 1.1399(13) 0.2409(9) 0.4053(4)
H40 H 1.2741(11) 0.2588(8) 0.4075(4)
H46? H 1.2871(18) 0.7493(8) 0.2578(5)
H47? H 0.969(2) -0.2482(9) 0.2562(6)
H50? H 0.8959(14) 0.4862(10) 0.2628(5)
H51? H 1.463(2) 0.7574(11) 0.2580(6)
H52? H 1.666(4) 0.630(3) 0.2653(8)
loop_
_geom_bond_atom_site_label_1
_geom_bond_atom_site_label_2
_geom_bond_site_symmetry_1
_geom_bond_site_symmetry_2
S1 C6 1_555 1_555
S2 C18 1_555 1_555
S3 C26 1_555 1_555
S4 C21 1_555 1_555
O1 C8 1_555 1_555
C1 C8 1_555 1_555
C2 C4 1_555 1_555
C3 C5 1_555 1_555
C4 O2 1_555 1_555
O2 H19 1_555 1_555
C5 C8 1_555 1_555
C6 C3 1_555 1_555
C7 C4 1_555 1_555
C9 C12 1_555 1_555
C10 C2 1_555 1_555
C11 C10 1_555 1_555
C12 O4 1_555 1_555
C13 C1 1_555 1_555
C14 C5 1_555 1_555
C15 C11 1_555 1_555
C16 C7 1_555 1_555
O3 C15 1_555 1_555
C17 C1 1_555 1_555
C18 C16 1_555 1_555
C19 C9 1_555 1_555
O4 H20 1_555 1_555
C20 C12 1_555 1_555
C21 C19 1_555 1_555
C22 C7 1_555 1_555
C23 C2 1_555 1_555
C24 C20 1_555 1_555
C25 C14 1_555 1_555
C26 C27 1_555 1_555
C27 C11 1_555 1_555
O5 S1 1_555 1_555
O6 S1 1_555 1_555
O7 S4 1_555 1_555
C28 C25 1_555 1_555
O8 S1 1_555 1_555
O9 S3 1_555 1_555
O10 S2 1_555 1_555
O11 S2 1_555 1_555
O12 S4 1_555 1_555
O13 S3 1_555 1_555
O14 S2 1_555 1_555
O15 S4 1_555 1_555
O16 S3 1_555 1_555
O17 H21 1_555 1_555
O18 H23 1_555 1_555
O19 H27 1_555 1_555
O20 H30 1_555 1_555
O21 H28 1_555 1_555
O22 H32 1_555 1_555
O23 H42 1_555 1_555
O24 H33 1_555 1_555
O25 H24 1_555 1_555
O26 H25 1_555 1_555
O27 H31 1_555 1_555
O28 H44 1_555 1_555
O29 H37 1_555 1_555
O30 H39 1_555 1_555
H1 C3 1_555 1_555
H2 C10 1_555 1_555
H3 C10 1_555 1_555
H4 C13 1_555 1_555
H5 C14 1_555 1_555
H6 C14 1_555 1_555
H7 C16 1_555 1_555
H8 O3 1_555 1_555
H9 C17 1_555 1_555
H10 C17 1_555 1_555
H11 C19 1_555 1_555
H12 C22 1_555 1_555
H13 C22 1_555 1_555
H14 C23 1_555 1_555
H15 C24 1_555 1_555
H16 C27 1_555 1_555
H17 C28 1_555 1_555
H18 O1 1_555 1_555
H22 O17 1_555 1_555
H26 O25 1_555 1_555
H29 O18 1_555 1_555
H34 O20 1_555 1_555
H35 O24 1_555 1_555
H36 O19 1_555 1_555
H38 O29 1_555 1_555
H40 O30 1_555 1_555
H41 O22 1_555 1_555
H43 O23 1_555 1_555
H45 O21 1_555 1_555
H48 O27 1_555 1_555
H49 O28 1_555 1_555
C6 C13 1_555 1_555
C9 C17 1_555 1_555
C15 C25 1_555 1_555
C18 C23 1_555 1_555
C20 C22 1_555 1_555
C21 C24 1_555 1_555
C26 C28 1_555 1_555

#END
