
#######################################################################
#
#                 Cambridge Crystallographic Data Centre
#                                CCDC 
#
#######################################################################
#
# If this CIF has been generated from an entry in the Cambridge 
# Structural Database, then it will include bibliographic, chemical, 
# crystal, experimental, refinement or atomic coordinate data resulting 
# from the CCDC's data processing and validation procedures.
#
#######################################################################

data_RECHOY
_chemical_formula_moiety         'C52 H48 N2 O1 Si2'
_chemical_name_systematic        
7-(t-Butyl(diphenyl)silyl)-6-((t-butyl(diphenyl)silyl)ethynyl)-2,5-diphenyl[1,3]oxazolo[5,4-b]pyridine
_symmetry_cell_setting           monoclinic
_symmetry_space_group_name_H-M   'P 21/c'
_symmetry_Int_Tables_number      14
_space_group_name_Hall           '-P 2ybc'
loop_
_symmetry_equiv_pos_site_id
_symmetry_equiv_pos_as_xyz
1 x,y,z
2 -x,1/2+y,1/2-z
3 -x,-y,-z
4 x,1/2-y,1/2+z
_cell_length_a                   9.9174(9)
_cell_length_b                   16.9126(16)
_cell_length_c                   25.282(3)
_cell_angle_alpha                90
_cell_angle_beta                 101.032(2)
_cell_angle_gamma                90
_cell_volume                     4162.16
_exptl_crystal_colour            colorless
_exptl_crystal_description       block
_cell_formula_units_Z            4
loop_
_atom_site_label
_atom_site_type_symbol
_atom_site_fract_x
_atom_site_fract_y
_atom_site_fract_z
Si1 Si 0.07029(5) 0.62254(3) 0.165098(18)
Si2 Si -0.00065(5) 0.65030(3) 0.369597(19)
O1 O 0.39098(12) 0.38161(7) 0.15972(5)
N1 N 0.33531(14) 0.39905(8) 0.24510(6)
N2 N 0.26954(14) 0.48216(8) 0.11434(6)
C1 C 0.35056(17) 0.42289(10) 0.11221(7)
C2 C 0.32467(16) 0.42105(10) 0.19523(7)
C3 C 0.24970(16) 0.48280(9) 0.16774(7)
C4 C 0.17303(16) 0.53182(9) 0.19520(7)
C5 C 0.18242(16) 0.51024(9) 0.25055(7)
C6 C 0.26121(16) 0.44384(9) 0.27385(7)
C7 C 0.11693(17) 0.55917(10) 0.28494(7)
C8 C 0.06585(18) 0.59886(10) 0.31562(7)
C9 C 0.27455(18) 0.41673(9) 0.33056(7)
C10 C 0.39822(18) 0.38200(11) 0.35538(7)
H1 H 0.4717 0.3782 0.3363
C11 C 0.4151(2) 0.35286(11) 0.40760(8)
H2 H 0.4997 0.3290 0.4239
C12 C 0.3097(2) 0.35832(12) 0.43594(8)
H3 H 0.3217 0.3388 0.4718
C13 C 0.1871(2) 0.39224(12) 0.41190(8)
H4 H 0.1144 0.3962 0.4314
C14 C 0.16844(19) 0.42078(10) 0.35943(8)
H5 H 0.0827 0.4432 0.3432
C15 C 0.40052(17) 0.39496(10) 0.06475(7)
C16 C 0.35844(19) 0.43453(11) 0.01636(7)
H6 H 0.3011 0.4798 0.0149
C17 C 0.4001(2) 0.40803(12) -0.02980(8)
H7 H 0.3706 0.4348 -0.0631
C18 C 0.48439(19) 0.34280(12) -0.02746(8)
H8 H 0.5125 0.3246 -0.0592
C19 C 0.5281(2) 0.30392(12) 0.02051(8)
H9 H 0.5870 0.2594 0.0218
C20 C 0.48622(19) 0.32954(11) 0.06714(8)
H10 H 0.5160 0.3026 0.1003
C21 C 0.05680(18) 0.63774(10) 0.08918(7)
C22 C -0.0423(2) 0.70765(12) 0.07230(8)
H11 H -0.0544 0.7157 0.0333
H12 H -0.0040 0.7557 0.0911
H13 H -0.1315 0.6959 0.0818
C23 C 0.1960(2) 0.65986(12) 0.07498(8)
H14 H 0.2620 0.6171 0.0861
H15 H 0.2301 0.7087 0.0938
H16 H 0.1847 0.6679 0.0360
C24 C -0.00524(19) 0.56573(12) 0.05675(7)
H17 H -0.0192 0.5778 0.0182
H18 H -0.0936 0.5526 0.0665
H19 H 0.0574 0.5207 0.0648
C25 C 0.16713(17) 0.70938(10) 0.19972(7)
C26 C 0.30476(18) 0.70076(11) 0.22534(7)
H20 H 0.3440 0.6494 0.2294
C27 C 0.38515(19) 0.76540(12) 0.24495(8)
H21 H 0.4783 0.7580 0.2620
C28 C 0.3298(2) 0.84055(11) 0.23965(8)
H22 H 0.3852 0.8850 0.2524
C29 C 0.1944(2) 0.85084(11) 0.21584(9)
H23 H 0.1556 0.9024 0.2130
C30 C 0.11374(19) 0.78643(10) 0.19591(8)
H24 H 0.0205 0.7947 0.1793
C31 C -0.11051(17) 0.60666(10) 0.17570(7)
C32 C -0.16360(18) 0.52969(10) 0.17297(7)
H25 H -0.1037 0.4863 0.1713
C33 C -0.30154(18) 0.51519(11) 0.17262(7)
H26 H -0.3351 0.4625 0.1703
C34 C -0.39018(18) 0.57756(12) 0.17566(7)
H27 H -0.4847 0.5678 0.1752
C35 C -0.34057(18) 0.65392(12) 0.17940(7)
H28 H -0.4008 0.6968 0.1821
C36 C -0.20272(18) 0.66837(10) 0.17920(7)
H29 H -0.1702 0.7213 0.1815
C37 C 0.02133(18) 0.76025(10) 0.36031(7)
C38 C -0.0683(2) 0.78448(12) 0.30655(8)
H30 H -0.0542 0.8407 0.3000
H31 H -0.1652 0.7752 0.3079
H32 H -0.0430 0.7530 0.2774
C39 C -0.0216(2) 0.80786(12) 0.40619(9)
H33 H 0.0318 0.7901 0.4408
H34 H -0.1197 0.7996 0.4057
H35 H -0.0043 0.8642 0.4013
C40 C 0.17177(19) 0.77790(12) 0.35903(9)
H36 H 0.1991 0.7489 0.3292
H37 H 0.2294 0.7614 0.3931
H38 H 0.1833 0.8348 0.3539
C41 C 0.110(2) 0.6120(15) 0.4370(7)
C42 C 0.0680(5) 0.6274(3) 0.4849(2)
H39 H -0.0165 0.6539 0.4849
C43 C 0.1500(5) 0.6040(4) 0.5333(2)
H40 H 0.1210 0.6139 0.5664
C44 C 0.2685(16) 0.5679(7) 0.5333(6)
H41 H 0.3175 0.5454 0.5658
C45 C 0.3197(14) 0.5625(7) 0.4887(5)
H42 H 0.4101 0.5429 0.4901
C46 C 0.2400(15) 0.5860(5) 0.4394(6)
H43 H 0.2773 0.5836 0.4076
C47 C -0.18656(17) 0.62304(10) 0.36338(7)
C48 C -0.25351(19) 0.57748(11) 0.32019(8)
H44 H -0.2032 0.5590 0.2942
C49 C -0.3916(2) 0.55849(12) 0.31429(8)
H45 H -0.4343 0.5269 0.2847
C50 C -0.46747(19) 0.58521(11) 0.35119(8)
H46 H -0.5622 0.5725 0.3470
C51 C -0.40386(19) 0.63057(12) 0.39423(8)
H47 H -0.4550 0.6490 0.4199
C52 C -0.26620(19) 0.64931(12) 0.40012(8)
H48 H -0.2244 0.6808 0.4299
C53? C 0.1025(18) 0.6162(15) 0.4314(7)
C54? C 0.0489(5) 0.5816(3) 0.47725(18)
C55? C 0.1333(5) 0.5529(3) 0.52299(18)
C56? C 0.2782(15) 0.5503(7) 0.5263(6)
C57? C 0.3302(14) 0.5756(7) 0.4808(5)
C58? C 0.2453(14) 0.6054(5) 0.4361(5)
H49? H -0.0477 0.5791 0.4750
H50? H 0.0946 0.5347 0.5524
H51? H 0.3378 0.5322 0.5580
H52? H 0.4260 0.5720 0.4813
H53? H 0.2853 0.6196 0.4062
loop_
_geom_bond_atom_site_label_1
_geom_bond_atom_site_label_2
_geom_bond_site_symmetry_1
_geom_bond_site_symmetry_2
Si1 C4 1_555 1_555
Si2 C8 1_555 1_555
O1 C1 1_555 1_555
N1 C2 1_555 1_555
N2 C1 1_555 1_555
C1 C15 1_555 1_555
C2 O1 1_555 1_555
C3 N2 1_555 1_555
C4 C3 1_555 1_555
C5 C4 1_555 1_555
C6 N1 1_555 1_555
C7 C5 1_555 1_555
C8 C7 1_555 1_555
C9 C6 1_555 1_555
C10 C9 1_555 1_555
H1 C10 1_555 1_555
C11 C10 1_555 1_555
H2 C11 1_555 1_555
C12 C11 1_555 1_555
H3 C12 1_555 1_555
C13 C12 1_555 1_555
H4 C13 1_555 1_555
C14 C9 1_555 1_555
H5 C14 1_555 1_555
C15 C16 1_555 1_555
C16 H6 1_555 1_555
C17 C16 1_555 1_555
H7 C17 1_555 1_555
C18 C17 1_555 1_555
H8 C18 1_555 1_555
C19 C18 1_555 1_555
H9 C19 1_555 1_555
C20 C15 1_555 1_555
H10 C20 1_555 1_555
C21 Si1 1_555 1_555
C22 C21 1_555 1_555
H11 C22 1_555 1_555
H12 C22 1_555 1_555
H13 C22 1_555 1_555
C23 C21 1_555 1_555
H14 C23 1_555 1_555
H15 C23 1_555 1_555
H16 C23 1_555 1_555
C24 C21 1_555 1_555
H17 C24 1_555 1_555
H18 C24 1_555 1_555
H19 C24 1_555 1_555
C25 Si1 1_555 1_555
C26 C25 1_555 1_555
H20 C26 1_555 1_555
C27 C26 1_555 1_555
H21 C27 1_555 1_555
C28 C27 1_555 1_555
H22 C28 1_555 1_555
C29 C28 1_555 1_555
H23 C29 1_555 1_555
C30 C25 1_555 1_555
H24 C30 1_555 1_555
C31 Si1 1_555 1_555
C32 C31 1_555 1_555
H25 C32 1_555 1_555
C33 C32 1_555 1_555
H26 C33 1_555 1_555
C34 C33 1_555 1_555
H27 C34 1_555 1_555
C35 C34 1_555 1_555
H28 C35 1_555 1_555
C36 C31 1_555 1_555
H29 C36 1_555 1_555
C37 Si2 1_555 1_555
C38 C37 1_555 1_555
H30 C38 1_555 1_555
H31 C38 1_555 1_555
H32 C38 1_555 1_555
C39 C37 1_555 1_555
H33 C39 1_555 1_555
H34 C39 1_555 1_555
H35 C39 1_555 1_555
C40 C37 1_555 1_555
H36 C40 1_555 1_555
H37 C40 1_555 1_555
H38 C40 1_555 1_555
C41 Si2 1_555 1_555
C42 C41 1_555 1_555
H39 C42 1_555 1_555
C43 C42 1_555 1_555
H40 C43 1_555 1_555
C44 C43 1_555 1_555
H41 C44 1_555 1_555
C45 C44 1_555 1_555
H42 C45 1_555 1_555
C46 C41 1_555 1_555
H43 C46 1_555 1_555
C47 Si2 1_555 1_555
C48 C47 1_555 1_555
H44 C48 1_555 1_555
C49 C48 1_555 1_555
H45 C49 1_555 1_555
C50 C49 1_555 1_555
H46 C50 1_555 1_555
C51 C50 1_555 1_555
H47 C51 1_555 1_555
C52 C47 1_555 1_555
H48 C52 1_555 1_555
C2 C3 1_555 1_555
C5 C6 1_555 1_555
C13 C14 1_555 1_555
C19 C20 1_555 1_555
C29 C30 1_555 1_555
C35 C36 1_555 1_555
C45 C46 1_555 1_555
C51 C52 1_555 1_555

#END
