
#######################################################################
#
#                 Cambridge Crystallographic Data Centre
#                                CCDC 
#
#######################################################################
#
# If this CIF has been generated from an entry in the Cambridge 
# Structural Database, then it will include bibliographic, chemical, 
# crystal, experimental, refinement or atomic coordinate data resulting 
# from the CCDC's data processing and validation procedures.
#
#######################################################################

data_RECJEQ
_chemical_formula_moiety         'C20 H16 Br1 N1 O2'
_chemical_name_systematic        
2-(4-Bromophenyl)-4-methyl-2'-oxo-1',2'-dihydrospiro[cyclopent-3-ene-1,3'-indole]-3-carbaldehyde
_symmetry_cell_setting           orthorhombic
_symmetry_space_group_name_H-M   'P 21 21 21'
_symmetry_Int_Tables_number      19
_space_group_name_Hall           'P 2ac 2ab'
loop_
_symmetry_equiv_pos_site_id
_symmetry_equiv_pos_as_xyz
1 x,y,z
2 1/2-x,-y,1/2+z
3 -x,1/2+y,1/2-z
4 1/2+x,1/2-y,-z
_cell_length_a                   5.972(5)
_cell_length_b                   13.858(11)
_cell_length_c                   21.596(18)
_cell_angle_alpha                90
_cell_angle_beta                 90
_cell_angle_gamma                90
_cell_volume                     1787.28
_exptl_crystal_colour            yellow
_exptl_crystal_description       block
_cell_formula_units_Z            4
loop_
_atom_site_label
_atom_site_type_symbol
_atom_site_fract_x
_atom_site_fract_y
_atom_site_fract_z
Br1 Br 0.2575(2) 0.65237(5) 0.97242(3)
C1 C 0.5400(9) 0.2084(4) 0.8625(2)
C2 C 0.3768(10) 0.2274(4) 0.9059(2)
H1 H 0.2636 0.2717 0.8977
C3 C 0.3848(10) 0.1788(4) 0.9627(2)
H2 H 0.2753 0.1904 0.9924
C4 C 0.5517(12) 0.1146(4) 0.9746(3)
H3 H 0.5536 0.0828 1.0125
C5 C 0.7202(11) 0.0953(3) 0.9316(2)
H4 H 0.8348 0.0518 0.9400
C6 C 0.7082(10) 0.1440(4) 0.8758(2)
C7 C 0.7715(9) 0.1860(3) 0.7756(3)
C8 C 0.5729(8) 0.2451(3) 0.7970(2)
C9 C 0.6387(8) 0.3541(3) 0.78678(19)
H5 H 0.8022 0.3600 0.7879
C10 C 0.5581(8) 0.3704(3) 0.7207(2)
C11 C 0.4080(8) 0.3037(4) 0.7031(2)
C12 C 0.3721(8) 0.2300(3) 0.7525(2)
H6 H 0.3728 0.1654 0.7353
H7 H 0.2310 0.2407 0.7737
C13 C 0.2817(11) 0.2975(3) 0.64321(18)
H8 H 0.3134 0.3535 0.6185
H9 H 0.1240 0.2945 0.6516
H10 H 0.3269 0.2406 0.6212
C14 C 0.6502(10) 0.4473(4) 0.6833(2)
H11 H 0.5911 0.4568 0.6440
C15 C 0.5379(10) 0.4251(3) 0.8327(2)
C16 C 0.6568(11) 0.4504(4) 0.8846(3)
H12 H 0.7958 0.4221 0.8913
C17 C 0.5764(15) 0.5176(5) 0.9279(3)
H13 H 0.6605 0.5341 0.9626
C18 C 0.3696(16) 0.5584(4) 0.9176(3)
C19 C 0.2450(13) 0.5335(4) 0.8667(3)
H14 H 0.1047 0.5610 0.8604
C20 C 0.3293(10) 0.4669(3) 0.8245(2)
H15 H 0.2439 0.4501 0.7901
N1 N 0.8451(6) 0.1321(3) 0.8244(2)
H16 H 0.9613 0.0955 0.8234
O1 O 0.8639(6) 0.1889(2) 0.72494(15)
O2 O 0.8003(9) 0.5000(3) 0.70040(16)
loop_
_geom_bond_atom_site_label_1
_geom_bond_atom_site_label_2
_geom_bond_site_symmetry_1
_geom_bond_site_symmetry_2
Br1 C18 1_555 1_555
C1 C2 1_555 1_555
C2 H1 1_555 1_555
C3 C2 1_555 1_555
H2 C3 1_555 1_555
C4 C3 1_555 1_555
H3 C4 1_555 1_555
C5 C4 1_555 1_555
H4 C5 1_555 1_555
C6 C1 1_555 1_555
C7 C8 1_555 1_555
C8 C1 1_555 1_555
C9 C8 1_555 1_555
H5 C9 1_555 1_555
C10 C9 1_555 1_555
C11 C10 1_555 1_555
C12 C8 1_555 1_555
H6 C12 1_555 1_555
H7 C12 1_555 1_555
C13 C11 1_555 1_555
H8 C13 1_555 1_555
H9 C13 1_555 1_555
H10 C13 1_555 1_555
C14 C10 1_555 1_555
H11 C14 1_555 1_555
C15 C9 1_555 1_555
C16 C15 1_555 1_555
H12 C16 1_555 1_555
C17 C16 1_555 1_555
H13 C17 1_555 1_555
C18 C17 1_555 1_555
C19 C18 1_555 1_555
H14 C19 1_555 1_555
C20 C15 1_555 1_555
H15 C20 1_555 1_555
N1 C6 1_555 1_555
H16 N1 1_555 1_555
O1 C7 1_555 1_555
O2 C14 1_555 1_555
C5 C6 1_555 1_555
C7 N1 1_555 1_555
C11 C12 1_555 1_555
C19 C20 1_555 1_555

#END
