
#######################################################################
#
#                 Cambridge Crystallographic Data Centre
#                                CCDC 
#
#######################################################################
#
# If this CIF has been generated from an entry in the Cambridge 
# Structural Database, then it will include bibliographic, chemical, 
# crystal, experimental, refinement or atomic coordinate data resulting 
# from the CCDC's data processing and validation procedures.
#
#######################################################################

data_RECLIX
_chemical_name_common            'resveratrol bis(piperine) trihydrate'
_chemical_formula_moiety         'C14 H12 O3,2(C17 H19 N1 O3),3(H2 O1)'
_chemical_name_systematic        
'5-(2-(4-hydroxyphenyl)vinyl)benzene-1,3-diol bis(5-(1,3-benzodioxol-5-yl)-1-(piperidin-1-yl)penta-2,4-dien-1-one) trihydrate'
_symmetry_cell_setting           monoclinic
_symmetry_space_group_name_H-M   'P 21/c'
_symmetry_Int_Tables_number      14
_space_group_name_Hall           '-P 2ybc'
loop_
_symmetry_equiv_pos_site_id
_symmetry_equiv_pos_as_xyz
1 x,y,z
2 -x,1/2+y,1/2-z
3 -x,-y,-z
4 x,1/2-y,1/2+z
_cell_length_a                   21.6976(7)
_cell_length_b                   7.7355(3)
_cell_length_c                   26.0438(9)
_cell_angle_alpha                90
_cell_angle_beta                 93.278(2)
_cell_angle_gamma                90
_cell_volume                     4364.09
_exptl_crystal_colour            colorless
_exptl_crystal_description       block
_cell_formula_units_Z            4
loop_
_atom_site_label
_atom_site_type_symbol
_atom_site_fract_x
_atom_site_fract_y
_atom_site_fract_z
O1 O 0.91757(13) 0.6410(4) 0.94295(12)
H1 H 0.9510 0.6702 0.9609
H2 H 0.9102 0.5316 0.9475
O2 O 0.46379(13) 0.0972(4) 0.53710(11)
O3 O 0.05477(12) 0.5025(4) 0.43458(11)
O4 O 0.46522(12) 0.0047(4) 0.62186(11)
C1 C 0.49859(19) 0.0014(6) 0.57553(17)
H3 H 0.5399 0.0538 0.5820
H4 H 0.5040 -0.1194 0.5640
C2 C 0.40624(17) 0.1211(5) 0.55583(15)
C3 C 0.35457(17) 0.1858(5) 0.53068(15)
H5 H 0.3547 0.2212 0.4958
C4 C 0.30097(16) 0.1981(4) 0.55844(14)
C5 C 0.24249(16) 0.2612(5) 0.53439(15)
H6 H 0.2073 0.2503 0.5543
C6 C 0.23269(17) 0.3323(5) 0.48784(14)
H7 H 0.2670 0.3480 0.4672
C7 C 0.17327(17) 0.3856(5) 0.46771(15)
H8 H 0.1393 0.3649 0.4884
C8 C 0.16120(17) 0.4616(5) 0.42250(15)
H9 H 0.1943 0.4834 0.4011
C9 C 0.09839(16) 0.5134(5) 0.40447(15)
N1 N 0.08677(13) 0.5720(4) 0.35749(12)
C10 C 0.02537(17) 0.6391(6) 0.34047(16)
H10 H 0.0292 0.7616 0.3301
H11 H -0.0021 0.6344 0.3695
C11 C -0.00288(18) 0.5371(5) 0.29626(16)
H12 H -0.0425 0.5909 0.2841
H13 H -0.0116 0.4181 0.3078
C12 C 0.04032(18) 0.5307(5) 0.25242(16)
H14 H 0.0442 0.6478 0.2376
H15 H 0.0228 0.4535 0.2250
C13 C 0.10387(17) 0.4651(5) 0.27099(15)
H16 H 0.1008 0.3424 0.2813
H17 H 0.1321 0.4720 0.2425
C14 C 0.12997(16) 0.5703(5) 0.31608(14)
H18 H 0.1698 0.5201 0.3290
H19 H 0.1376 0.6902 0.3048
C15 C 0.30323(17) 0.1460(5) 0.60988(15)
H20 H 0.2671 0.1569 0.6286
C16 C 0.35654(17) 0.0786(5) 0.63471(15)
H21 H 0.3573 0.0431 0.6697
C17 C 0.40730(16) 0.0658(5) 0.60681(15)
O5 O 0.43456(13) 0.4785(5) 0.45374(12)
H22 H 0.432(2) 0.494(6) 0.4851(8)
H23 H 0.4724(10) 0.475(6) 0.4494(18)
O6 O 0.01398(14) 0.7911(4) 0.00590(11)
H24 H 0.0296 0.8539 -0.0179
H25 H -0.0118 0.8531 0.0225
O7 O 0.61753(13) 0.7524(4) 0.60875(11)
H26 H 0.6007 0.6821 0.5877
O8 O 0.86515(13) -0.2515(3) 0.85390(11)
H27 H 0.8822 -0.2864 0.8818
O9 O 0.88729(13) 0.2972(4) 0.93886(11)
H28 H 0.9081 0.2356 0.9600
C18 C 0.64907(16) 0.6648(5) 0.64648(15)
C19 C 0.66453(16) 0.7515(6) 0.69227(15)
H29 H 0.6522 0.8682 0.6965
C20 C 0.69747(16) 0.6681(5) 0.73121(15)
H30 H 0.7080 0.7299 0.7620
C21 C 0.71610(15) 0.4972(5) 0.72770(14)
C22 C 0.75096(16) 0.4152(5) 0.77056(15)
H31 H 0.7623 0.4881 0.7989
C23 C 0.76890(16) 0.2520(5) 0.77505(15)
H32 H 0.7564 0.1770 0.7475
C24 C 0.80610(16) 0.1743(5) 0.81802(15)
C25 C 0.81883(16) -0.0009(5) 0.81740(15)
H33 H 0.8029 -0.0697 0.7895
C26 C 0.85453(16) -0.0774(5) 0.85698(15)
C27 C 0.87859(16) 0.0205(5) 0.89834(15)
H34 H 0.9033 -0.0310 0.9255
C28 C 0.86513(17) 0.1969(5) 0.89846(15)
C29 C 0.82965(17) 0.2736(5) 0.85936(16)
H35 H 0.8212 0.3940 0.8605
C30 C 0.69999(16) 0.4109(5) 0.68124(15)
H36 H 0.7118 0.2936 0.6773
C31 C 0.66743(16) 0.4935(5) 0.64151(15)
H37 H 0.6574 0.4330 0.6104
O10 O 0.06476(11) 0.3944(3) -0.15834(10)
C32 C 0.12024(16) 0.4444(5) -0.13530(14)
C33 C 0.11218(17) 0.5158(5) -0.08774(14)
C34 C 0.15907(16) 0.5813(5) -0.05719(14)
H38 H 0.1519 0.6314 -0.0248
C35 C 0.21935(16) 0.5724(5) -0.07550(14)
C36 C 0.27334(17) 0.6379(5) -0.04586(15)
H39 H 0.3119 0.6214 -0.0607
C37 C 0.27522(17) 0.7184(5) -0.00029(15)
H40 H 0.2378 0.7365 0.0162
C38 C 0.33267(17) 0.7787(5) 0.02460(15)
H41 H 0.3692 0.7576 0.0072
C39 C 0.33914(16) 0.8608(5) 0.06960(14)
H42 H 0.3043 0.8788 0.0894
C40 C 0.40059(16) 0.9238(5) 0.08865(14)
N2 N 0.41086(13) 0.9672(4) 0.13773(12)
C41 C 0.46933(17) 1.0506(6) 0.15583(15)
H43 H 0.4606 1.1673 0.1692
H44 H 0.4961 1.0639 0.1266
C42 C 0.50260(17) 0.9462(5) 0.19738(16)
H45 H 0.5406 1.0077 0.2099
H46 H 0.5148 0.8332 0.1833
C43 C 0.46126(18) 0.9179(6) 0.24180(16)
H47 H 0.4525 1.0301 0.2581
H48 H 0.4825 0.8427 0.2680
O11 O 0.05000(11) 0.5108(4) -0.07819(10)
C44 C 0.02215(17) 0.4068(5) -0.11837(15)
H49 H -0.0169 0.4602 -0.1319
H50 H 0.0129 0.2903 -0.1051
C45 C 0.17788(17) 0.4321(5) -0.15453(14)
H51 H 0.1838 0.3828 -0.1873
C46 C 0.22723(17) 0.4960(5) -0.12327(15)
H52 H 0.2678 0.4871 -0.1350
O12 O 0.44212(11) 0.9389(4) 0.05723(10)
C47 C 0.36945(17) 0.9378(6) 0.17915(15)
H53 H 0.3322 0.8754 0.1654
H54 H 0.3561 1.0504 0.1928
C48 C 0.40095(19) 0.8334(6) 0.22216(15)
H55 H 0.4095 0.7156 0.2096
H56 H 0.3731 0.8230 0.2508
loop_
_geom_bond_atom_site_label_1
_geom_bond_atom_site_label_2
_geom_bond_site_symmetry_1
_geom_bond_site_symmetry_2
O1 H1 1_555 1_555
H2 O1 1_555 1_555
O2 C1 1_555 1_555
O3 C9 1_555 1_555
O4 C1 1_555 1_555
C1 H3 1_555 1_555
H4 C1 1_555 1_555
C2 O2 1_555 1_555
C3 C2 1_555 1_555
H5 C3 1_555 1_555
C4 C3 1_555 1_555
C5 C4 1_555 1_555
H6 C5 1_555 1_555
C6 C5 1_555 1_555
H7 C6 1_555 1_555
C7 C6 1_555 1_555
H8 C7 1_555 1_555
C8 C7 1_555 1_555
H9 C8 1_555 1_555
C9 C8 1_555 1_555
N1 C9 1_555 1_555
C10 N1 1_555 1_555
H10 C10 1_555 1_555
H11 C10 1_555 1_555
C11 C10 1_555 1_555
H12 C11 1_555 1_555
H13 C11 1_555 1_555
C12 C11 1_555 1_555
H14 C12 1_555 1_555
H15 C12 1_555 1_555
C13 C12 1_555 1_555
H16 C13 1_555 1_555
H17 C13 1_555 1_555
C14 N1 1_555 1_555
H18 C14 1_555 1_555
H19 C14 1_555 1_555
C15 C4 1_555 1_555
H20 C15 1_555 1_555
C16 C15 1_555 1_555
H21 C16 1_555 1_555
C17 O4 1_555 1_555
O5 H22 1_555 1_555
H23 O5 1_555 1_555
O6 H24 1_555 1_555
H25 O6 1_555 1_555
O7 H26 1_555 1_555
O8 H27 1_555 1_555
O9 H28 1_555 1_555
C18 O7 1_555 1_555
C19 C18 1_555 1_555
H29 C19 1_555 1_555
C20 C19 1_555 1_555
H30 C20 1_555 1_555
C21 C20 1_555 1_555
C22 C21 1_555 1_555
H31 C22 1_555 1_555
C23 C22 1_555 1_555
H32 C23 1_555 1_555
C24 C23 1_555 1_555
C25 C24 1_555 1_555
H33 C25 1_555 1_555
C26 O8 1_555 1_555
C27 C26 1_555 1_555
H34 C27 1_555 1_555
C28 O9 1_555 1_555
C29 C24 1_555 1_555
H35 C29 1_555 1_555
C30 C21 1_555 1_555
H36 C30 1_555 1_555
C31 C18 1_555 1_555
H37 C31 1_555 1_555
O10 C32 1_555 1_555
C32 C33 1_555 1_555
C33 C34 1_555 1_555
C34 H38 1_555 1_555
C35 C34 1_555 1_555
C36 C35 1_555 1_555
H39 C36 1_555 1_555
C37 C36 1_555 1_555
H40 C37 1_555 1_555
C38 C37 1_555 1_555
H41 C38 1_555 1_555
C39 C38 1_555 1_555
H42 C39 1_555 1_555
C40 C39 1_555 1_555
N2 C40 1_555 1_555
C41 N2 1_555 1_555
H43 C41 1_555 1_555
H44 C41 1_555 1_555
C42 C41 1_555 1_555
H45 C42 1_555 1_555
H46 C42 1_555 1_555
C43 C42 1_555 1_555
H47 C43 1_555 1_555
H48 C43 1_555 1_555
O11 C33 1_555 1_555
C44 O10 1_555 1_555
H49 C44 1_555 1_555
H50 C44 1_555 1_555
C45 C32 1_555 1_555
H51 C45 1_555 1_555
C46 C35 1_555 1_555
H52 C46 1_555 1_555
O12 C40 1_555 1_555
C47 N2 1_555 1_555
H53 C47 1_555 1_555
H54 C47 1_555 1_555
C48 C43 1_555 1_555
H55 C48 1_555 1_555
H56 C48 1_555 1_555
C2 C17 1_555 1_555
C13 C14 1_555 1_555
C16 C17 1_555 1_555
C25 C26 1_555 1_555
C27 C28 1_555 1_555
C28 C29 1_555 1_555
C30 C31 1_555 1_555
O11 C44 1_555 1_555
C45 C46 1_555 1_555
C47 C48 1_555 1_555

#END
