
#######################################################################
#
#                 Cambridge Crystallographic Data Centre
#                                CCDC 
#
#######################################################################
#
# If this CIF has been generated from an entry in the Cambridge 
# Structural Database, then it will include bibliographic, chemical, 
# crystal, experimental, refinement or atomic coordinate data resulting 
# from the CCDC's data processing and validation procedures.
#
#######################################################################

data_RECLOD
_chemical_name_common            
'resveratrol bis(piperine) acetonitrile solvate monohydrate'
_chemical_formula_moiety         'C14 H12 O3,2(C17 H19 N1 O3),C2 H3 N1,H2 O1'
_chemical_name_systematic        
'5-(2-(4-hydroxyphenyl)vinyl)benzene-1,3-diol bis(5-(1,3-benzodioxol-5-yl)-1-(piperidin-1-yl)penta-2,4-dien-1-one) acetonitrile solvate monohydrate'
_symmetry_cell_setting           monoclinic
_symmetry_space_group_name_H-M   'C 2/c'
_symmetry_Int_Tables_number      15
_space_group_name_Hall           '-C 2yn'
loop_
_symmetry_equiv_pos_site_id
_symmetry_equiv_pos_as_xyz
1 x,y,z
2 -x,y,1/2-z
3 1/2+x,1/2+y,z
4 1/2-x,1/2+y,1/2-z
5 -x,-y,-z
6 x,-y,1/2+z
7 1/2-x,1/2-y,-z
8 1/2+x,1/2-y,1/2+z
_cell_length_a                   58.8257(10)
_cell_length_b                   8.88310(10)
_cell_length_c                   17.2873(3)
_cell_angle_alpha                90
_cell_angle_beta                 100.3180(10)
_cell_angle_gamma                90
_cell_volume                     8887.47
_exptl_crystal_colour            colorless
_exptl_crystal_description       plate
_cell_formula_units_Z            8
loop_
_atom_site_label
_atom_site_type_symbol
_atom_site_fract_x
_atom_site_fract_y
_atom_site_fract_z
O1 O 0.39060(2) 0.75985(17) 0.68214(9)
O2 O 0.24102(2) 1.05689(16) 0.39381(9)
O3 O 0.41292(3) 0.69413(17) 0.59016(10)
C1 C 0.18744(5) 1.0058(3) 0.56521(15)
H1 H 0.1811 1.0983 0.5823
H2 H 0.1777 0.9232 0.5761
C2 C 0.21176(5) 0.9829(3) 0.61040(14)
H3 H 0.2116 0.9855 0.6664
H4 H 0.2174 0.8850 0.5978
C3 C 0.22773(4) 1.1042(3) 0.58990(13)
H5 H 0.2229 1.2014 0.6070
H6 H 0.2434 1.0850 0.6170
N1 N 0.22717(3) 1.1067(2) 0.50456(10)
C4 C 0.24402(4) 1.0584(2) 0.46838(13)
C5 C 0.26619(4) 1.0075(2) 0.51352(13)
H7 H 0.2681 1.0034 0.5681
C6 C 0.28363(4) 0.9670(2) 0.47851(13)
H8 H 0.2810 0.9708 0.4239
C7 C 0.30617(4) 0.9181(2) 0.51667(13)
H9 H 0.3094 0.9129 0.5713
C8 C 0.32269(4) 0.8798(2) 0.47632(13)
H10 H 0.3186 0.8864 0.4219
C9 C 0.34621(4) 0.8293(2) 0.50567(12)
C10 C 0.35554(4) 0.8228(2) 0.58673(12)
H11 H 0.3467 0.8482 0.6245
C11 C 0.37790(4) 0.7781(2) 0.60739(13)
C12 C 0.41385(4) 0.7340(3) 0.67142(14)
H12 H 0.4207 0.6530 0.7054
H13 H 0.4231 0.8240 0.6842
C13 C 0.18747(4) 1.0135(3) 0.47755(15)
H14 H 0.1720 1.0345 0.4496
H15 H 0.1923 0.9173 0.4594
C14 C 0.20385(4) 1.1364(2) 0.46031(14)
H16 H 0.2042 1.1388 0.4044
H17 H 0.1985 1.2335 0.4754
C15 C 0.35996(4) 0.7871(2) 0.45148(14)
H18 H 0.3536 0.7898 0.3982
C16 C 0.38282(4) 0.7411(3) 0.47374(14)
H19 H 0.3918 0.7135 0.4369
C17 C 0.39138(4) 0.7386(2) 0.55270(13)
O4 O -0.03310(3) 0.5078(2) 0.00066(12)
O5 O -0.06017(3) 0.49153(19) 0.08214(11)
O6 O 0.07832(3) -0.28510(18) 0.14582(10)
C18 C 0.13648(4) -0.2736(3) -0.03046(15)
H20 H 0.1316 -0.3600 -0.0637
H21 H 0.1518 -0.2445 -0.0379
C19 C 0.13674(4) -0.3130(3) 0.05450(14)
H22 H 0.1423 -0.2274 0.0873
H23 H 0.1473 -0.3962 0.0695
C20 C 0.11301(4) -0.3560(3) 0.06836(16)
H24 H 0.1082 -0.4482 0.0401
H25 H 0.1136 -0.3749 0.1240
N2 N 0.09601(3) -0.2373(2) 0.04236(11)
C21 C 0.07916(4) -0.2125(2) 0.08454(14)
C22 C 0.06191(4) -0.0933(3) 0.05954(14)
H26 H 0.0634 -0.0326 0.0169
C23 C 0.04433(4) -0.0711(3) 0.09664(14)
H27 H 0.0432 -0.1360 0.1381
C24 C 0.02679(4) 0.0426(3) 0.07953(14)
H28 H 0.0275 0.1091 0.0385
C25 C 0.00959(4) 0.0574(3) 0.11957(14)
H29 H 0.0092 -0.0138 0.1587
C26 C -0.00883(4) 0.1704(3) 0.11042(14)
C27 C -0.01031(4) 0.2865(3) 0.05424(14)
H30 H 0.0004 0.2944 0.0208
C28 C -0.02800(4) 0.3868(3) 0.05078(14)
C29 C -0.05282(4) 0.5790(3) 0.02147(17)
H31 H -0.0651 0.5849 -0.0240
H32 H -0.0489 0.6804 0.0402
C30 C -0.04396(4) 0.3784(3) 0.09982(15)
C31 C -0.02517(4) 0.1639(3) 0.15885(15)
H33 H -0.0242 0.0864 0.1954
C32 C -0.04299(4) 0.2683(3) 0.15519(15)
H34 H -0.0537 0.2632 0.1888
C33 C 0.11983(4) -0.1447(3) -0.05205(16)
H35 H 0.1192 -0.1187 -0.1069
H36 H 0.1253 -0.0573 -0.0205
C34 C 0.09589(4) -0.1857(3) -0.03867(14)
H37 H 0.0859 -0.0985 -0.0494
H38 H 0.0896 -0.2647 -0.0751
O7 O 0.07629(3) 1.42123(17) 0.19595(10)
H39 H 0.0800 1.5097 0.2035
O8 O 0.23904(2) 0.80020(17) 0.31739(10)
H40 H 0.2391 0.8901 0.3282
O9 O 0.18801(2) 0.39828(16) 0.22689(9)
H41 H 0.2004 0.3532 0.2326
C35 C 0.09537(4) 1.3315(2) 0.21554(13)
C36 C 0.09225(4) 1.1767(2) 0.20585(13)
H42 H 0.0775 1.1380 0.1896
C37 C 0.11094(4) 1.0804(2) 0.22022(12)
H43 H 0.1086 0.9775 0.2130
C38 C 0.13334(3) 1.1342(2) 0.24530(12)
C39 C 0.15404(4) 1.0384(2) 0.25724(12)
H44 H 0.1681 1.0874 0.2718
C40 C 0.15496(4) 0.8893(2) 0.24957(12)
H45 H 0.1408 0.8400 0.2367
C41 C 0.17568(3) 0.7939(2) 0.25911(12)
C42 C 0.19798(3) 0.8486(2) 0.28618(12)
H46 H 0.2002 0.9492 0.3005
C43 C 0.21672(3) 0.7534(2) 0.29166(12)
C44 C 0.11723(4) 1.3862(2) 0.24338(13)
H47 H 0.1195 1.4887 0.2525
C45 C 0.13585(4) 1.2891(2) 0.25774(13)
H48 H 0.1505 1.3280 0.2762
C46 C 0.17290(3) 0.6412(2) 0.23970(12)
H49 H 0.1582 0.6027 0.2224
C47 C 0.19195(4) 0.5466(2) 0.24596(12)
C48 C 0.21402(4) 0.6026(2) 0.27086(12)
H50 H 0.2268 0.5402 0.2736
O10 O 0.22658(3) 0.2432(2) 0.27073(12)
H51 H 0.2309(5) 0.189(4) 0.3107(19)
H52 H 0.2372(5) 0.256(3) 0.2465(16)
N3 N 0.02973(5) 0.7478(4) 0.29877(19)
C49 C 0.02693(5) 0.6619(4) 0.2482(2)
C50 C 0.02314(5) 0.5550(4) 0.1838(2)
H53 H 0.0207 0.4566 0.2038
H54 H 0.0364 0.5531 0.1587
H55 H 0.0098 0.5846 0.1464
loop_
_geom_bond_atom_site_label_1
_geom_bond_atom_site_label_2
_geom_bond_site_symmetry_1
_geom_bond_site_symmetry_2
O1 C11 1_555 1_555
O2 C4 1_555 1_555
O3 C12 1_555 1_555
C1 H1 1_555 1_555
H2 C1 1_555 1_555
C2 C1 1_555 1_555
H3 C2 1_555 1_555
H4 C2 1_555 1_555
C3 C2 1_555 1_555
H5 C3 1_555 1_555
H6 C3 1_555 1_555
N1 C3 1_555 1_555
C4 N1 1_555 1_555
C5 C4 1_555 1_555
H7 C5 1_555 1_555
C6 C5 1_555 1_555
H8 C6 1_555 1_555
C7 C6 1_555 1_555
H9 C7 1_555 1_555
C8 C7 1_555 1_555
H10 C8 1_555 1_555
C9 C8 1_555 1_555
C10 C9 1_555 1_555
H11 C10 1_555 1_555
C11 C10 1_555 1_555
C12 O1 1_555 1_555
H12 C12 1_555 1_555
H13 C12 1_555 1_555
C13 C1 1_555 1_555
H14 C13 1_555 1_555
H15 C13 1_555 1_555
C14 N1 1_555 1_555
H16 C14 1_555 1_555
H17 C14 1_555 1_555
C15 C9 1_555 1_555
H18 C15 1_555 1_555
C16 C15 1_555 1_555
H19 C16 1_555 1_555
C17 O3 1_555 1_555
O4 C28 1_555 1_555
O5 C29 1_555 1_555
O6 C21 1_555 1_555
C18 H20 1_555 1_555
H21 C18 1_555 1_555
C19 C18 1_555 1_555
H22 C19 1_555 1_555
H23 C19 1_555 1_555
C20 C19 1_555 1_555
H24 C20 1_555 1_555
H25 C20 1_555 1_555
N2 C20 1_555 1_555
C21 N2 1_555 1_555
C22 C21 1_555 1_555
H26 C22 1_555 1_555
C23 C22 1_555 1_555
H27 C23 1_555 1_555
C24 C23 1_555 1_555
H28 C24 1_555 1_555
C25 C24 1_555 1_555
H29 C25 1_555 1_555
C26 C25 1_555 1_555
C27 C26 1_555 1_555
H30 C27 1_555 1_555
C28 C27 1_555 1_555
C29 O4 1_555 1_555
H31 C29 1_555 1_555
H32 C29 1_555 1_555
C30 O5 1_555 1_555
C31 C26 1_555 1_555
H33 C31 1_555 1_555
C32 C30 1_555 1_555
H34 C32 1_555 1_555
C33 C18 1_555 1_555
H35 C33 1_555 1_555
H36 C33 1_555 1_555
C34 N2 1_555 1_555
H37 C34 1_555 1_555
H38 C34 1_555 1_555
O7 H39 1_555 1_555
O8 H40 1_555 1_555
O9 H41 1_555 1_555
C35 O7 1_555 1_555
C36 C35 1_555 1_555
H42 C36 1_555 1_555
C37 C36 1_555 1_555
H43 C37 1_555 1_555
C38 C37 1_555 1_555
C39 C38 1_555 1_555
H44 C39 1_555 1_555
C40 C39 1_555 1_555
H45 C40 1_555 1_555
C41 C40 1_555 1_555
C42 C41 1_555 1_555
H46 C42 1_555 1_555
C43 O8 1_555 1_555
C44 C35 1_555 1_555
H47 C44 1_555 1_555
C45 C38 1_555 1_555
H48 C45 1_555 1_555
C46 C41 1_555 1_555
H49 C46 1_555 1_555
C47 O9 1_555 1_555
C48 C43 1_555 1_555
H50 C48 1_555 1_555
O10 H51 1_555 1_555
H52 O10 1_555 1_555
N3 C49 1_555 1_555
C49 C50 1_555 1_555
C50 H53 1_555 1_555
H54 C50 1_555 1_555
H55 C50 1_555 1_555
C11 C17 1_555 1_555
C13 C14 1_555 1_555
C16 C17 1_555 1_555
C28 C30 1_555 1_555
C31 C32 1_555 1_555
C33 C34 1_555 1_555
C42 C43 1_555 1_555
C44 C45 1_555 1_555
C46 C47 1_555 1_555
C47 C48 1_555 1_555

#END
