
#######################################################################
#
#                 Cambridge Crystallographic Data Centre
#                                CCDC 
#
#######################################################################
#
# If this CIF has been generated from an entry in the Cambridge 
# Structural Database, then it will include bibliographic, chemical, 
# crystal, experimental, refinement or atomic coordinate data resulting 
# from the CCDC's data processing and validation procedures.
#
#######################################################################

data_RECMEU
_chemical_formula_moiety         'C28 H33 Cl1 N2 O4'
_chemical_name_systematic        
(S)-1,3-di-t-butyl-5-(1-(4-chlorophenyl)-3-(4-methylphenyl)-3-oxopropyl)pyrimidine-2,4,6(1H,3H,5H)-trione
_symmetry_cell_setting           monoclinic
_symmetry_space_group_name_H-M   'P 21'
_symmetry_Int_Tables_number      4
_space_group_name_Hall           'P 2yb'
loop_
_symmetry_equiv_pos_site_id
_symmetry_equiv_pos_as_xyz
1 x,y,z
2 -x,1/2+y,-z
_cell_length_a                   10.660(4)
_cell_length_b                   9.536(4)
_cell_length_c                   13.873(5)
_cell_angle_alpha                90
_cell_angle_beta                 107.324(7)
_cell_angle_gamma                90
_cell_volume                     1346.27
_exptl_crystal_colour            colorless
_exptl_crystal_description       block
_chemical_melting_point          '140.6-145.8 deg.C'
_cell_formula_units_Z            2
_exptl_crystal_recrystallization_method n-hexane
loop_
_atom_site_label
_atom_site_type_symbol
_atom_site_fract_x
_atom_site_fract_y
_atom_site_fract_z
Cl1 Cl 0.62698(19) 0.3184(3) 0.62212(11)
O1 O 0.3150(3) 0.4481(3) 0.1150(3)
O2 O 0.8246(3) 0.5416(3) 0.1927(2)
O3 O 0.9559(3) 0.1800(3) 0.3935(2)
O4 O 0.6285(3) 0.0979(3) 0.1208(2)
N1 N 0.9312(3) 0.3476(3) 0.2713(2)
N2 N 0.8312(3) 0.1206(3) 0.2339(2)
C1 C 0.1622(5) 1.1081(5) 0.0612(4)
H1 H 0.1317 1.1287 -0.0097
H2 H 0.2274 1.1756 0.0947
H3 H 0.0897 1.1121 0.0888
C2 C 0.2218(4) 0.9622(4) 0.0768(3)
C3 C 0.1446(4) 0.8435(5) 0.0554(3)
H4 H 0.0538 0.8529 0.0310
C4 C 0.1992(4) 0.7110(4) 0.0696(3)
H5 H 0.1446 0.6328 0.0554
C5 C 0.3347(4) 0.6930(4) 0.1049(3)
C6 C 0.4116(4) 0.8111(4) 0.1240(3)
H6 H 0.5026 0.8017 0.1463
C7 C 0.3564(4) 0.9447(4) 0.1108(3)
H7 H 0.4108 1.0230 0.1251
C8 C 0.3878(4) 0.5479(5) 0.1191(3)
C9 C 0.5336(4) 0.5248(4) 0.1363(3)
H8 H 0.5827 0.5956 0.1825
H9 H 0.5531 0.5355 0.0727
C10 C 0.5777(4) 0.3793(4) 0.1797(3)
H10 H 0.5084 0.3137 0.1446
C11 C 0.5912(4) 0.3670(4) 0.2916(3)
C12 C 0.6540(5) 0.4651(6) 0.3617(3)
H11 H 0.6896 0.5441 0.3404
C13 C 0.6659(5) 0.4500(7) 0.4629(4)
H12 H 0.7093 0.5179 0.5089
C14 C 0.6143(5) 0.3359(7) 0.4949(4)
C15 C 0.5528(6) 0.2336(6) 0.4290(4)
H13 H 0.5186 0.1547 0.4516
C16 C 0.5424(5) 0.2496(5) 0.3271(3)
H14 H 0.5017 0.1798 0.2818
C17 C 0.7181(4) 0.1723(4) 0.1682(3)
C18 C 0.7060(4) 0.3309(4) 0.1565(3)
H15 H 0.6899 0.3485 0.0843
C19 C 0.8249(4) 0.4164(4) 0.2083(3)
C20 C 0.9083(4) 0.2130(4) 0.3071(3)
C21 C 0.8557(4) -0.0374(4) 0.2481(3)
C22 C 1.0021(5) -0.0639(5) 0.2996(4)
H16 H 1.0532 -0.0133 0.2646
H17 H 1.0201 -0.1624 0.2981
H18 H 1.0249 -0.0325 0.3685
C23 C 0.8213(5) -0.1056(5) 0.1444(4)
H19 H 0.7276 -0.1081 0.1155
H20 H 0.8554 -0.1995 0.1508
H21 H 0.8594 -0.0523 0.1014
C24 C 0.7719(5) -0.0958(5) 0.3104(3)
H22 H 0.7943 -0.0494 0.3747
H23 H 0.7877 -0.1946 0.3203
H24 H 0.6807 -0.0801 0.2753
C25 C 1.0581(4) 0.4249(4) 0.3230(3)
C26 C 1.1683(4) 0.3211(6) 0.3680(4)
H25 H 1.1522 0.2744 0.4245
H26 H 1.2505 0.3703 0.3902
H27 H 1.1718 0.2532 0.3178
C27 C 1.0969(5) 0.5077(5) 0.2414(4)
H28 H 1.1070 0.4443 0.1904
H29 H 1.1784 0.5557 0.2714
H30 H 1.0295 0.5748 0.2113
C28 C 1.0378(5) 0.5213(5) 0.4035(3)
H31 H 0.9691 0.5870 0.3733
H32 H 1.1178 0.5712 0.4348
H33 H 1.0136 0.4670 0.4534
loop_
_geom_bond_atom_site_label_1
_geom_bond_atom_site_label_2
_geom_bond_site_symmetry_1
_geom_bond_site_symmetry_2
Cl1 C14 1_555 1_555
O1 C8 1_555 1_555
O2 C19 1_555 1_555
O3 C20 1_555 1_555
O4 C17 1_555 1_555
N1 C19 1_555 1_555
N2 C17 1_555 1_555
C1 H1 1_555 1_555
H2 C1 1_555 1_555
H3 C1 1_555 1_555
C2 C1 1_555 1_555
C3 C2 1_555 1_555
H4 C3 1_555 1_555
C4 C3 1_555 1_555
H5 C4 1_555 1_555
C5 C4 1_555 1_555
C6 C5 1_555 1_555
H6 C6 1_555 1_555
C7 C2 1_555 1_555
H7 C7 1_555 1_555
C8 C5 1_555 1_555
C9 C8 1_555 1_555
H8 C9 1_555 1_555
H9 C9 1_555 1_555
C10 C9 1_555 1_555
H10 C10 1_555 1_555
C11 C10 1_555 1_555
C12 C11 1_555 1_555
H11 C12 1_555 1_555
C13 C12 1_555 1_555
H12 C13 1_555 1_555
C14 C13 1_555 1_555
C15 C14 1_555 1_555
H13 C15 1_555 1_555
C16 C11 1_555 1_555
H14 C16 1_555 1_555
C17 C18 1_555 1_555
C18 C10 1_555 1_555
H15 C18 1_555 1_555
C19 C18 1_555 1_555
C20 N1 1_555 1_555
C21 N2 1_555 1_555
C22 C21 1_555 1_555
H16 C22 1_555 1_555
H17 C22 1_555 1_555
H18 C22 1_555 1_555
C23 C21 1_555 1_555
H19 C23 1_555 1_555
H20 C23 1_555 1_555
H21 C23 1_555 1_555
C24 C21 1_555 1_555
H22 C24 1_555 1_555
H23 C24 1_555 1_555
H24 C24 1_555 1_555
C25 N1 1_555 1_555
C26 C25 1_555 1_555
H25 C26 1_555 1_555
H26 C26 1_555 1_555
H27 C26 1_555 1_555
C27 C25 1_555 1_555
H28 C27 1_555 1_555
H29 C27 1_555 1_555
H30 C27 1_555 1_555
C28 C25 1_555 1_555
H31 C28 1_555 1_555
H32 C28 1_555 1_555
H33 C28 1_555 1_555
N2 C20 1_555 1_555
C6 C7 1_555 1_555
C15 C16 1_555 1_555

#END
