
#######################################################################
#
#                 Cambridge Crystallographic Data Centre
#                                CCDC 
#
#######################################################################
#
# If this CIF has been generated from an entry in the Cambridge 
# Structural Database, then it will include bibliographic, chemical, 
# crystal, experimental, refinement or atomic coordinate data resulting 
# from the CCDC's data processing and validation procedures.
#
#######################################################################

data_RECNOF
_chemical_formula_moiety         'C3 H2 N6 O2'
_chemical_name_systematic        5-(1,2,4-oxadiazol-3-yl)-1H-tetrazol-1-ol
_symmetry_cell_setting           orthorhombic
_symmetry_space_group_name_H-M   'P b c a'
_symmetry_Int_Tables_number      61
_space_group_name_Hall           '-P 2ac 2ab'
loop_
_symmetry_equiv_pos_site_id
_symmetry_equiv_pos_as_xyz
1 x,y,z
2 1/2-x,-y,1/2+z
3 -x,1/2+y,1/2-z
4 1/2+x,1/2-y,-z
5 -x,-y,-z
6 1/2+x,y,1/2-z
7 x,1/2-y,1/2+z
8 1/2-x,1/2+y,z
_cell_length_a                   9.0167(19)
_cell_length_b                   10.224(2)
_cell_length_c                   13.146(3)
_cell_angle_alpha                90
_cell_angle_beta                 90
_cell_angle_gamma                90
_cell_volume                     1211.89
_exptl_crystal_colour            'whiteish colorless'
_exptl_crystal_description       block
_chemical_melting_point          '133 deg.C'
_cell_formula_units_Z            8
loop_
_atom_site_label
_atom_site_type_symbol
_atom_site_fract_x
_atom_site_fract_y
_atom_site_fract_z
O1 O 0.58428(9) 0.65320(8) 0.53351(7)
O2 O 0.47190(11) 0.36213(9) 0.76004(7)
N1 N 0.68952(11) 0.56324(9) 0.51142(7)
N2 N 0.81328(12) 0.38552(10) 0.50408(7)
N3 N 0.64225(13) 0.26236(9) 0.66742(8)
N4 N 0.52567(13) 0.45649(10) 0.69159(8)
N5 N 0.85908(13) 0.46670(10) 0.42912(8)
N6 N 0.78309(12) 0.57588(10) 0.43237(8)
C1 C 0.70788(13) 0.44717(10) 0.55537(8)
C2 C 0.62438(13) 0.39142(10) 0.64003(8)
C3 C 0.54665(17) 0.25248(13) 0.73989(11)
H1 H 0.631(2) 0.745(2) 0.5213(15)
H2 H 0.5234(18) 0.1810(18) 0.7817(14)
loop_
_geom_bond_atom_site_label_1
_geom_bond_atom_site_label_2
_geom_bond_site_symmetry_1
_geom_bond_site_symmetry_2
O1 N1 1_555 1_555
O2 N4 1_555 1_555
N1 N6 1_555 1_555
N2 N5 1_555 1_555
N3 C2 1_555 1_555
N4 C2 1_555 1_555
N5 N6 1_555 1_555
C1 N1 1_555 1_555
C2 C1 1_555 1_555
C3 O2 1_555 1_555
H1 O1 1_555 1_555
H2 C3 1_555 1_555
N2 C1 1_555 1_555
N3 C3 1_555 1_555

#END
