
#######################################################################
#
#                 Cambridge Crystallographic Data Centre
#                                CCDC 
#
#######################################################################
#
# If this CIF has been generated from an entry in the Cambridge 
# Structural Database, then it will include bibliographic, chemical, 
# crystal, experimental, refinement or atomic coordinate data resulting 
# from the CCDC's data processing and validation procedures.
#
#######################################################################

data_RECQEY
_chemical_formula_moiety         'C3 H1 N4 O5 1-,K1 1+'
_chemical_name_systematic        
'potassium dinitro(1,2,4-oxadiazol-3-yl)methanide'
_symmetry_cell_setting           triclinic
_symmetry_space_group_name_H-M   'P -1'
_symmetry_Int_Tables_number      2
_space_group_name_Hall           '-P 1'
loop_
_symmetry_equiv_pos_site_id
_symmetry_equiv_pos_as_xyz
1 x,y,z
2 -x,-y,-z
_cell_length_a                   6.8618(10)
_cell_length_b                   7.1833(10)
_cell_length_c                   7.7371(11)
_cell_angle_alpha                84.776(3)
_cell_angle_beta                 82.401(3)
_cell_angle_gamma                64.520(2)
_cell_volume                     340.999
_exptl_crystal_colour            'whiteish colorless'
_exptl_crystal_description       block
_cell_formula_units_Z            2
loop_
_atom_site_label
_atom_site_type_symbol
_atom_site_fract_x
_atom_site_fract_y
_atom_site_fract_z
O1 O 0.1996(3) 0.8253(2) 0.7799(2)
O2 O 0.1990(3) 0.5402(2) 0.9001(2)
O3 O 0.5727(3) 0.2182(2) 0.8792(2)
O4 O 0.8376(3) 0.2704(2) 0.7290(2)
O5 O 0.7292(3) 0.8136(3) 0.4428(2)
N1 N 0.6425(3) 0.3353(3) 0.7915(2)
N2 N 0.2976(3) 0.6344(3) 0.8150(2)
C1 C 0.6138(3) 0.6664(3) 0.6564(3)
N3 N 0.7072(3) 0.7724(3) 0.7290(2)
N4 N 0.6213(4) 0.6837(3) 0.4878(2)
C2 C 0.5138(3) 0.5409(3) 0.7569(2)
C3 C 0.7724(4) 0.8565(4) 0.5930(3)
H1 H 0.843(5) 0.952(4) 0.593(4)
K1 K 0.81147(7) 0.83603(6) 1.06186(5)
loop_
_geom_bond_atom_site_label_1
_geom_bond_atom_site_label_2
_geom_bond_site_symmetry_1
_geom_bond_site_symmetry_2
O1 N2 1_555 1_555
O2 N2 1_555 1_555
O3 N1 1_555 1_555
O4 N1 1_555 1_555
O5 N4 1_555 1_555
N1 C2 1_555 1_555
N2 C2 1_555 1_555
C1 N3 1_555 1_555
N3 C3 1_555 1_555
N4 C1 1_555 1_555
C2 C1 1_555 1_555
C3 O5 1_555 1_555
H1 C3 1_555 1_555

#END
