
#######################################################################
#
#                 Cambridge Crystallographic Data Centre
#                                CCDC 
#
#######################################################################
#
# If this CIF has been generated from an entry in the Cambridge 
# Structural Database, then it will include bibliographic, chemical, 
# crystal, experimental, refinement or atomic coordinate data resulting 
# from the CCDC's data processing and validation procedures.
#
#######################################################################

data_RECQOH
_chemical_formula_moiety         'C19 H14 Br2 O1 S1'
_chemical_name_systematic        
"2',6-Dibromobiphenyl-2-yl 4-methylphenyl sulfoxide"
_symmetry_cell_setting           orthorhombic
_symmetry_space_group_name_H-M   'P 21 21 21'
_symmetry_Int_Tables_number      19
_space_group_name_Hall           'P 2ac 2ab'
loop_
_symmetry_equiv_pos_site_id
_symmetry_equiv_pos_as_xyz
1 x,y,z
2 1/2-x,-y,1/2+z
3 1/2+x,1/2-y,-z
4 -x,1/2+y,1/2-z
_cell_length_a                   7.6523(2)
_cell_length_b                   14.5399(6)
_cell_length_c                   15.7751(7)
_cell_angle_alpha                90
_cell_angle_beta                 90
_cell_angle_gamma                90
_cell_volume                     1755.2
_exptl_crystal_colour            colorless
_exptl_crystal_description       prism
_cell_formula_units_Z            4
loop_
_atom_site_label
_atom_site_type_symbol
_atom_site_fract_x
_atom_site_fract_y
_atom_site_fract_z
C1 C 0.6534(4) 0.5512(2) 0.2362(2)
C2 C 0.5815(5) 0.6090(2) 0.2960(2)
H1 H 0.6481 0.6584 0.3187
C3 C 0.4104(5) 0.5944(2) 0.3230(2)
H2 H 0.3593 0.6345 0.3635
C4 C 0.3153(5) 0.5221(3) 0.2912(2)
H3 H 0.2000 0.5106 0.3108
C5 C 0.3895(4) 0.4663(2) 0.2302(2)
C6 C 0.5602(4) 0.4790(2) 0.1996(2)
C7 C 0.6377(4) 0.4184(2) 0.1343(2)
C8 C 0.5914(4) 0.4230(2) 0.0487(2)
C9 C 0.6650(4) 0.3667(2) -0.0117(3)
H4 H 0.6315 0.3714 -0.0695
C10 C 0.7900(5) 0.3026(2) 0.0140(3)
H5 H 0.8404 0.2624 -0.0267
C11 C 0.8414(5) 0.2968(3) 0.0978(3)
H6 H 0.9274 0.2533 0.1145
C12 C 0.7668(4) 0.3547(2) 0.1572(2)
H7 H 0.8038 0.3513 0.2146
C13 C 0.8598(4) 0.6195(2) 0.1087(2)
C14 C 0.7934(5) 0.7073(3) 0.0997(3)
H8 H 0.7553 0.7406 0.1481
C15 C 0.7826(5) 0.7463(3) 0.0211(3)
H9 H 0.7367 0.8067 0.0157
C16 C 0.8368(5) 0.6999(3) -0.0504(3)
C17 C 0.9019(5) 0.6121(3) -0.0408(3)
H10 H 0.9378 0.5785 -0.0895
C18 C 0.9158(5) 0.5721(3) 0.0385(3)
H11 H 0.9638 0.5122 0.0444
C19 C 0.8259(6) 0.7453(3) -0.1358(3)
H12 H 0.7030 0.7532 -0.1516
H13 H 0.8844 0.7067 -0.1781
H14 H 0.8832 0.8055 -0.1334
O1 O 0.9409(3) 0.64398(18) 0.27038(17)
S1 S 0.88341(11) 0.56959(6) 0.21175(6)
Br1 Br 0.25393(5) 0.36563(3) 0.19102(3)
Br2 Br 0.42653(6) 0.51170(3) 0.01149(3)
loop_
_geom_bond_atom_site_label_1
_geom_bond_atom_site_label_2
_geom_bond_site_symmetry_1
_geom_bond_site_symmetry_2
C1 C2 1_555 1_555
C2 H1 1_555 1_555
C3 C2 1_555 1_555
H2 C3 1_555 1_555
C4 C3 1_555 1_555
H3 C4 1_555 1_555
C5 C4 1_555 1_555
C6 C1 1_555 1_555
C7 C6 1_555 1_555
C8 C7 1_555 1_555
C9 C8 1_555 1_555
H4 C9 1_555 1_555
C10 C9 1_555 1_555
H5 C10 1_555 1_555
C11 C10 1_555 1_555
H6 C11 1_555 1_555
C12 C7 1_555 1_555
H7 C12 1_555 1_555
C13 C14 1_555 1_555
C14 H8 1_555 1_555
C15 C14 1_555 1_555
H9 C15 1_555 1_555
C16 C15 1_555 1_555
C17 C16 1_555 1_555
H10 C17 1_555 1_555
C18 C13 1_555 1_555
H11 C18 1_555 1_555
C19 C16 1_555 1_555
H12 C19 1_555 1_555
H13 C19 1_555 1_555
H14 C19 1_555 1_555
O1 S1 1_555 1_555
S1 C1 1_555 1_555
Br1 C5 1_555 1_555
Br2 C8 1_555 1_555
C5 C6 1_555 1_555
C11 C12 1_555 1_555
C13 S1 1_555 1_555
C17 C18 1_555 1_555

#END
