
#######################################################################
#
#                 Cambridge Crystallographic Data Centre
#                                CCDC 
#
#######################################################################
#
# If this CIF has been generated from an entry in the Cambridge 
# Structural Database, then it will include bibliographic, chemical, 
# crystal, experimental, refinement or atomic coordinate data resulting 
# from the CCDC's data processing and validation procedures.
#
#######################################################################

data_RECRIC
_chemical_formula_moiety         'C13 H8 Br2 O1'
_chemical_name_systematic        2',6-Dibromobiphenyl-2-carbaldehyde
_symmetry_cell_setting           orthorhombic
_symmetry_space_group_name_H-M   'P 21 21 21'
_symmetry_Int_Tables_number      19
_space_group_name_Hall           'P 2ac 2ab'
loop_
_symmetry_equiv_pos_site_id
_symmetry_equiv_pos_as_xyz
1 x,y,z
2 1/2+x,1/2-y,-z
3 -x,1/2+y,1/2-z
4 1/2-x,-y,1/2+z
_cell_length_a                   7.2496(2)
_cell_length_b                   8.4708(3)
_cell_length_c                   19.1139(7)
_cell_angle_alpha                90
_cell_angle_beta                 90
_cell_angle_gamma                90
_cell_volume                     1173.78
_exptl_crystal_colour            colorless
_exptl_crystal_description       prism
_cell_formula_units_Z            4
loop_
_atom_site_label
_atom_site_type_symbol
_atom_site_fract_x
_atom_site_fract_y
_atom_site_fract_z
C1 C 0.1311(2) 1.03100(18) 0.84148(9)
C2 C 0.1850(2) 1.01566(19) 0.77097(9)
C3 C 0.3233(2) 1.1107(2) 0.74308(10)
H1 H 0.3582 1.0986 0.6955
C4 C 0.4105(3) 1.2227(2) 0.78416(11)
H2 H 0.5046 1.2875 0.7648
C5 C 0.3603(2) 1.23996(19) 0.85333(11)
H3 H 0.4199 1.3164 0.8818
C6 C 0.2221(2) 1.14495(18) 0.88131(9)
C7 C 0.0969(2) 0.89771(19) 0.72419(10)
H4 H -0.0135 0.8480 0.7394
C8 C -0.0146(2) 0.92814(18) 0.87266(10)
C9 C -0.1859(3) 0.9932(2) 0.89000(10)
H5 H -0.2103 1.1009 0.8796
C10 C -0.3210(3) 0.9024(2) 0.92223(11)
H6 H -0.4376 0.9477 0.9328
C11 C -0.2863(2) 0.7456(2) 0.93899(10)
H7 H -0.3778 0.6844 0.9620
C12 C -0.1177(2) 0.6789(2) 0.92212(8)
H8 H -0.0928 0.5718 0.9334
C13 C 0.0140(2) 0.76982(19) 0.88864(9)
O1 O 0.1587(2) 0.86217(14) 0.66796(7)
Br1 Br 0.16555(3) 1.17203(3) 0.977338(10)
Br2 Br 0.24066(2) 0.67065(2) 0.864753(11)
loop_
_geom_bond_atom_site_label_1
_geom_bond_atom_site_label_2
_geom_bond_site_symmetry_1
_geom_bond_site_symmetry_2
C1 C2 1_555 1_555
C2 C3 1_555 1_555
C3 H1 1_555 1_555
C4 C3 1_555 1_555
H2 C4 1_555 1_555
C5 C4 1_555 1_555
H3 C5 1_555 1_555
C6 C1 1_555 1_555
C7 C2 1_555 1_555
H4 C7 1_555 1_555
C8 C1 1_555 1_555
C9 C8 1_555 1_555
H5 C9 1_555 1_555
C10 C9 1_555 1_555
H6 C10 1_555 1_555
C11 C10 1_555 1_555
H7 C11 1_555 1_555
C12 C11 1_555 1_555
H8 C12 1_555 1_555
C13 C8 1_555 1_555
O1 C7 1_555 1_555
Br1 C6 1_555 1_555
Br2 C13 1_555 1_555
C5 C6 1_555 1_555
C12 C13 1_555 1_555

#END
