
#######################################################################
#
#                 Cambridge Crystallographic Data Centre
#                                CCDC 
#
#######################################################################
#
# If this CIF has been generated from an entry in the Cambridge 
# Structural Database, then it will include bibliographic, chemical, 
# crystal, experimental, refinement or atomic coordinate data resulting 
# from the CCDC's data processing and validation procedures.
#
#######################################################################

data_RECRAU
_chemical_formula_moiety         'C19 H14 Br1 Cl1 O1 S1'
_chemical_name_systematic        
"(SaR)-2'-bromo-6-chlorobiphenyl-2-yl 4-methylphenyl sulfoxide"
_symmetry_cell_setting           orthorhombic
_symmetry_space_group_name_H-M   'P 21 21 21'
_symmetry_Int_Tables_number      19
_space_group_name_Hall           'P 2ac 2ab'
loop_
_symmetry_equiv_pos_site_id
_symmetry_equiv_pos_as_xyz
1 x,y,z
2 1/2+x,1/2-y,-z
3 -x,1/2+y,1/2-z
4 1/2-x,-y,1/2+z
_cell_length_a                   7.5666(3)
_cell_length_b                   14.3960(6)
_cell_length_c                   15.7732(7)
_cell_angle_alpha                90
_cell_angle_beta                 90
_cell_angle_gamma                90
_cell_volume                     1718.16
_exptl_crystal_colour            colorless
_exptl_crystal_description       block
_cell_formula_units_Z            4
loop_
_atom_site_label
_atom_site_type_symbol
_atom_site_fract_x
_atom_site_fract_y
_atom_site_fract_z
C1 C 0.8520(2) 0.95096(11) 0.76324(11)
C2 C 0.9286(3) 0.89344(12) 0.70361(12)
H1 H 0.8642 0.8426 0.6808
C3 C 1.1002(3) 0.91059(12) 0.67735(12)
H2 H 1.1546 0.8708 0.6370
C4 C 1.1921(2) 0.98506(13) 0.70954(12)
H3 H 1.3087 0.9978 0.6904
C5 C 1.1139(2) 1.04149(12) 0.77002(12)
C6 C 0.9418(2) 1.02580(10) 0.79966(11)
C7 C 0.8598(2) 1.08566(10) 0.86584(11)
C8 C 0.9080(2) 1.08076(11) 0.95103(11)
C9 C 0.8283(2) 1.13505(12) 1.01229(13)
H4 H 0.8625 1.1298 1.0700
C10 C 0.6974(2) 1.19740(12) 0.98832(14)
H5 H 0.6435 1.2361 1.0297
C11 C 0.6455(2) 1.20344(12) 0.90467(13)
H6 H 0.5555 1.2459 0.8886
C12 C 0.7249(2) 1.14723(11) 0.84391(12)
H7 H 0.6868 1.1508 0.7866
C13 C 0.6430(2) 0.88014(12) 0.89005(12)
C14 C 0.7076(3) 0.79081(13) 0.89851(13)
H8 H 0.7444 0.7569 0.8500
C15 C 0.7181(3) 0.75142(13) 0.97785(14)
H9 H 0.7616 0.6898 0.9835
C16 C 0.6666(3) 0.79972(14) 1.04938(13)
C17 C 0.6030(3) 0.88923(13) 1.04004(13)
H10 H 0.5688 0.9236 1.0888
C18 C 0.5884(2) 0.92974(12) 0.96002(13)
H11 H 0.5416 0.9906 0.9539
C19 C 0.6795(3) 0.75385(15) 1.13530(16)
H12 H 0.6329 0.6905 1.1318
H13 H 0.6106 0.7895 1.1766
H14 H 0.8035 0.7518 1.1532
S1 S 0.61955(5) 0.93075(3) 0.78707(3)
Cl1 Cl 1.23354(6) 1.13601(3) 0.80735(4)
Br1 Br 1.08160(3) 0.994385(14) 0.986740(13)
O1 O 0.56453(18) 0.85533(9) 0.72793(9)
loop_
_geom_bond_atom_site_label_1
_geom_bond_atom_site_label_2
_geom_bond_site_symmetry_1
_geom_bond_site_symmetry_2
C1 C2 1_555 1_555
C2 H1 1_555 1_555
C3 C2 1_555 1_555
H2 C3 1_555 1_555
C4 C3 1_555 1_555
H3 C4 1_555 1_555
C5 C4 1_555 1_555
C6 C1 1_555 1_555
C7 C6 1_555 1_555
C8 C7 1_555 1_555
C9 C8 1_555 1_555
H4 C9 1_555 1_555
C10 C9 1_555 1_555
H5 C10 1_555 1_555
C11 C10 1_555 1_555
H6 C11 1_555 1_555
C12 C7 1_555 1_555
H7 C12 1_555 1_555
C13 C14 1_555 1_555
C14 H8 1_555 1_555
C15 C14 1_555 1_555
H9 C15 1_555 1_555
C16 C15 1_555 1_555
C17 C16 1_555 1_555
H10 C17 1_555 1_555
C18 C13 1_555 1_555
H11 C18 1_555 1_555
C19 C16 1_555 1_555
H12 C19 1_555 1_555
H13 C19 1_555 1_555
H14 C19 1_555 1_555
S1 C1 1_555 1_555
Cl1 C5 1_555 1_555
Br1 C8 1_555 1_555
O1 S1 1_555 1_555
C5 C6 1_555 1_555
C11 C12 1_555 1_555
C13 S1 1_555 1_555
C17 C18 1_555 1_555

#END
