
#######################################################################
#
#                 Cambridge Crystallographic Data Centre
#                                CCDC 
#
#######################################################################
#
# If this CIF has been generated from an entry in the Cambridge 
# Structural Database, then it will include bibliographic, chemical, 
# crystal, experimental, refinement or atomic coordinate data resulting 
# from the CCDC's data processing and validation procedures.
#
#######################################################################

data_RECREY
_chemical_formula_moiety         'C13 H10 Br2'
_chemical_name_systematic        2,2'-Dibromo-6-methylbiphenyl
_symmetry_cell_setting           monoclinic
_symmetry_space_group_name_H-M   'P 21'
_symmetry_Int_Tables_number      4
_space_group_name_Hall           'P 2yb'
loop_
_symmetry_equiv_pos_site_id
_symmetry_equiv_pos_as_xyz
1 x,y,z
2 -x,1/2+y,-z
_cell_length_a                   10.7809(5)
_cell_length_b                   7.6424(6)
_cell_length_c                   15.3814(11)
_cell_angle_alpha                90
_cell_angle_beta                 103.881(4)
_cell_angle_gamma                90
_cell_volume                     1230.29
_exptl_crystal_colour            colorless
_exptl_crystal_description       block
_cell_formula_units_Z            4
loop_
_atom_site_label
_atom_site_type_symbol
_atom_site_fract_x
_atom_site_fract_y
_atom_site_fract_z
C1 C 0.7508(6) 0.2416(10) 0.5560(4)
C2 C 0.7815(6) 0.1916(12) 0.4744(4)
C3 C 0.8587(7) 0.3066(13) 0.4408(5)
H1 H 0.8804 0.2762 0.3864
C4 C 0.9049(7) 0.4590(17) 0.4807(5)
H2 H 0.9561 0.5326 0.4538
C5 C 0.8773(6) 0.5078(11) 0.5610(5)
H3 H 0.9102 0.6128 0.5909
C6 C 0.7994(6) 0.3965(11) 0.5957(4)
C7 C 0.7333(8) 0.0240(13) 0.4291(5)
H4 H 0.7791 -0.0017 0.3827
H5 H 0.6417 0.0345 0.4016
H6 H 0.7475 -0.0709 0.4732
C8 C 0.6641(6) 0.1318(10) 0.5943(4)
C9 C 0.5301(6) 0.1546(11) 0.5655(5)
H7 H 0.4965 0.2399 0.5212
C10 C 0.4476(6) 0.0545(13) 0.6009(5)
H8 H 0.3581 0.0726 0.5812
C11 C 0.4928(7) -0.0692(12) 0.6635(5)
H9 H 0.4351 -0.1405 0.6857
C12 C 0.6247(6) -0.0917(11) 0.6954(5)
H10 H 0.6570 -0.1739 0.7416
C13 C 0.7070(6) 0.0055(10) 0.6595(4)
Br1 Br 0.76337(7) 0.46224(10) 0.70637(5)
Br2 Br 0.88599(6) -0.02881(10) 0.70359(4)
C14 C 0.2508(6) 0.6933(11) 0.9449(4)
C15 C 0.2204(6) 0.6361(12) 1.0246(4)
C16 C 0.1430(7) 0.7477(13) 1.0628(5)
H11 H 0.1210 0.7117 1.1163
C17 C 0.0990(7) 0.9032(16) 1.0263(5)
H12 H 0.0490 0.9749 1.0552
C18 C 0.1260(6) 0.9591(12) 0.9474(5)
H13 H 0.0929 1.0661 0.9199
C19 C 0.2032(6) 0.8528(12) 0.9100(4)
C20 C 0.2640(8) 0.4643(15) 1.0650(5)
H14 H 0.2126 0.4311 1.1070
H15 H 0.3541 0.4721 1.0971
H16 H 0.2542 0.3758 1.0177
C21 C 0.3363(6) 0.5856(11) 0.9035(4)
C22 C 0.4686(6) 0.6055(13) 0.9332(5)
H17 H 0.5032 0.6861 0.9798
C23 C 0.5496(7) 0.5066(12) 0.8944(6)
H18 H 0.6394 0.5208 0.9149
C24 C 0.5031(6) 0.3903(12) 0.8277(5)
H19 H 0.5601 0.3226 0.8030
C25 C 0.3710(7) 0.3704(12) 0.7955(5)
H20 H 0.3374 0.2928 0.7473
C26 C 0.2895(6) 0.4666(10) 0.8353(4)
Br3 Br 0.24112(9) 0.93199(12) 0.80153(6)
Br4 Br 0.11081(6) 0.44042(11) 0.79093(4)
loop_
_geom_bond_atom_site_label_1
_geom_bond_atom_site_label_2
_geom_bond_site_symmetry_1
_geom_bond_site_symmetry_2
C1 C2 1_555 1_555
C2 C3 1_555 1_555
C3 H1 1_555 1_555
C4 C3 1_555 1_555
H2 C4 1_555 1_555
C5 C4 1_555 1_555
H3 C5 1_555 1_555
C6 C1 1_555 1_555
C7 C2 1_555 1_555
H4 C7 1_555 1_555
H5 C7 1_555 1_555
H6 C7 1_555 1_555
C8 C1 1_555 1_555
C9 C8 1_555 1_555
H7 C9 1_555 1_555
C10 C9 1_555 1_555
H8 C10 1_555 1_555
C11 C10 1_555 1_555
H9 C11 1_555 1_555
C12 C11 1_555 1_555
H10 C12 1_555 1_555
C13 C8 1_555 1_555
C14 C15 1_555 1_555
C15 C16 1_555 1_555
C16 H11 1_555 1_555
C17 C16 1_555 1_555
H12 C17 1_555 1_555
C18 C17 1_555 1_555
H13 C18 1_555 1_555
C19 C14 1_555 1_555
C20 C15 1_555 1_555
H14 C20 1_555 1_555
H15 C20 1_555 1_555
H16 C20 1_555 1_555
C21 C14 1_555 1_555
C22 C21 1_555 1_555
H17 C22 1_555 1_555
C23 C22 1_555 1_555
H18 C23 1_555 1_555
C24 C23 1_555 1_555
H19 C24 1_555 1_555
C25 C24 1_555 1_555
H20 C25 1_555 1_555
C26 C21 1_555 1_555
Br1 C6 1_555 1_555
Br2 C13 1_555 1_555
Br3 C19 1_555 1_555
Br4 C26 1_555 1_555
C5 C6 1_555 1_555
C12 C13 1_555 1_555
C18 C19 1_555 1_555
C25 C26 1_555 1_555

#END
