
#######################################################################
#
#                 Cambridge Crystallographic Data Centre
#                                CCDC 
#
#######################################################################
#
# If this CIF has been generated from an entry in the Cambridge 
# Structural Database, then it will include bibliographic, chemical, 
# crystal, experimental, refinement or atomic coordinate data resulting 
# from the CCDC's data processing and validation procedures.
#
#######################################################################

data_RECSAV
_chemical_formula_moiety         'C12 H7 Br1 Cl1 I1'
_chemical_name_systematic        2'-Bromo-2-chloro-6-iodobiphenyl
_symmetry_cell_setting           monoclinic
_symmetry_space_group_name_H-M   'C 2'
_symmetry_Int_Tables_number      5
_space_group_name_Hall           'C 2y'
loop_
_symmetry_equiv_pos_site_id
_symmetry_equiv_pos_as_xyz
1 x,y,z
2 -x,y,-z
3 1/2+x,1/2+y,z
4 1/2-x,1/2+y,-z
_cell_length_a                   21.2611(10)
_cell_length_b                   7.9582(2)
_cell_length_c                   16.1680(8)
_cell_angle_alpha                90
_cell_angle_beta                 114.519(2)
_cell_angle_gamma                90
_cell_volume                     2488.94
_exptl_crystal_colour            colorless
_exptl_crystal_description       prism
_cell_formula_units_Z            8
loop_
_atom_site_label
_atom_site_type_symbol
_atom_site_fract_x
_atom_site_fract_y
_atom_site_fract_z
C1 C 0.8921(3) 0.8939(8) 0.6112(4)
C2 C 0.8747(5) 0.9789(9) 0.6732(5)
H1 H 0.9059 1.0559 0.7152
C3 C 0.8108(4) 0.9486(11) 0.6721(5)
H2 H 0.7976 1.0072 0.7136
C4 C 0.7652(4) 0.8354(10) 0.6125(5)
H3 H 0.7217 0.8145 0.6140
C5 C 0.7835(4) 0.7538(11) 0.5514(4)
H4 H 0.7516 0.6784 0.5090
C6 C 0.8479(3) 0.7792(10) 0.5500(4)
C7 C 0.8662(3) 0.6847(9) 0.4831(4)
C8 C 0.8966(4) 0.5283(11) 0.5043(6)
C9 C 0.9109(4) 0.4376(16) 0.4395(8)
H5 H 0.9312 0.3290 0.4535
C10 C 0.8947(5) 0.510(2) 0.3535(8)
H6 H 0.9047 0.4510 0.3093
C11 C 0.8650(5) 0.6638(18) 0.3338(6)
H7 H 0.8533 0.7095 0.2750
C12 C 0.8512(4) 0.7570(15) 0.3970(4)
Cl1 Cl 0.81629(17) 0.9525(4) 0.37110(13)
Br1 Br 0.98056(4) 0.93097(12) 0.61049(5)
I1 I 0.92219(3) 0.42494(8) 0.63355(5)
C13 C 1.0974(3) 0.3007(8) 0.8816(4)
C14 C 1.1158(4) 0.1880(9) 0.8297(5)
H8 H 1.0847 0.1035 0.7945
C15 C 1.1817(4) 0.2034(10) 0.8312(5)
H9 H 1.1959 0.1280 0.7966
C16 C 1.2264(4) 0.3270(10) 0.8823(5)
H10 H 1.2710 0.3361 0.8827
C17 C 1.2065(3) 0.4382(11) 0.9332(4)
H11 H 1.2374 0.5236 0.9678
C18 C 1.1414(3) 0.4249(9) 0.9335(4)
C19 C 1.1221(3) 0.5418(8) 0.9912(4)
C20 C 1.1354(3) 0.5073(9) 1.0809(4)
C21 C 1.1221(3) 0.6231(11) 1.1373(5)
H12 H 1.1318 0.5955 1.1986
C22 C 1.0944(3) 0.7780(12) 1.1018(4)
H13 H 1.0857 0.8580 1.1394
C23 C 1.0795(4) 0.8176(9) 1.0127(5)
H14 H 1.0604 0.9238 0.9883
C24 C 1.0931(3) 0.6989(9) 0.9592(4)
Cl2 Cl 1.06909(10) 0.7484(2) 0.84524(11)
Br2 Br 1.00787(3) 0.27690(10) 0.88107(4)
I2 I 1.17725(3) 0.27362(8) 1.13546(3)
loop_
_geom_bond_atom_site_label_1
_geom_bond_atom_site_label_2
_geom_bond_site_symmetry_1
_geom_bond_site_symmetry_2
C1 C2 1_555 1_555
C2 H1 1_555 1_555
C3 C2 1_555 1_555
H2 C3 1_555 1_555
C4 C3 1_555 1_555
H3 C4 1_555 1_555
C5 C4 1_555 1_555
H4 C5 1_555 1_555
C6 C1 1_555 1_555
C7 C6 1_555 1_555
C8 C7 1_555 1_555
C9 C8 1_555 1_555
H5 C9 1_555 1_555
C10 C9 1_555 1_555
H6 C10 1_555 1_555
C11 C10 1_555 1_555
H7 C11 1_555 1_555
C12 C7 1_555 1_555
C13 C14 1_555 1_555
C14 H8 1_555 1_555
C15 C14 1_555 1_555
H9 C15 1_555 1_555
C16 C15 1_555 1_555
H10 C16 1_555 1_555
C17 C16 1_555 1_555
H11 C17 1_555 1_555
C18 C13 1_555 1_555
C19 C18 1_555 1_555
C20 C19 1_555 1_555
C21 C20 1_555 1_555
H12 C21 1_555 1_555
C22 C21 1_555 1_555
H13 C22 1_555 1_555
C23 C22 1_555 1_555
H14 C23 1_555 1_555
C24 C19 1_555 1_555
Cl1 C12 1_555 1_555
Cl2 C24 1_555 1_555
Br1 C1 1_555 1_555
Br2 C13 1_555 1_555
I1 C8 1_555 1_555
I2 C20 1_555 1_555
C5 C6 1_555 1_555
C11 C12 1_555 1_555
C17 C18 1_555 1_555
C23 C24 1_555 1_555

#END
