
#######################################################################
#
#                 Cambridge Crystallographic Data Centre
#                                CCDC 
#
#######################################################################
#
# If this CIF has been generated from an entry in the Cambridge 
# Structural Database, then it will include bibliographic, chemical, 
# crystal, experimental, refinement or atomic coordinate data resulting 
# from the CCDC's data processing and validation procedures.
#
#######################################################################

data_RECZOO
_chemical_formula_moiety         'C30 H41 N1 O4 S1'
_chemical_name_systematic        
'2-(3-Methyl-2-pyridyl)-3,5-di-t-butylphenyl (S)-(+)-camphorsulfonate'
_symmetry_cell_setting           orthorhombic
_symmetry_space_group_name_H-M   'P 21 21 21'
_symmetry_Int_Tables_number      19
_space_group_name_Hall           'P 2ac 2ab'
loop_
_symmetry_equiv_pos_site_id
_symmetry_equiv_pos_as_xyz
1 x,y,z
2 1/2-x,-y,1/2+z
3 1/2+x,1/2-y,-z
4 -x,1/2+y,1/2-z
_cell_length_a                   11.284(2)
_cell_length_b                   12.846(2)
_cell_length_c                   19.739(2)
_cell_angle_alpha                90
_cell_angle_beta                 90
_cell_angle_gamma                90
_cell_volume                     2861.25
_exptl_crystal_colour            colorless
_cell_formula_units_Z            4
loop_
_atom_site_label
_atom_site_type_symbol
_atom_site_fract_x
_atom_site_fract_y
_atom_site_fract_z
S1 S 0.1918(2) -0.0063(1) 0.8960(1)
N1 N -0.0576(4) 0.1011(3) 1.0367(2)
O1 O 0.2052(3) -0.0051(3) 0.9763(2)
O2 O 0.1435(5) -0.1004(3) 0.8744(2)
O3 O 0.3039(4) 0.0263(4) 0.8725(2)
O4 O -0.1445(4) 0.1223(4) 0.8346(3)
C1 C 0.1484(5) -0.0777(4) 1.0203(3)
C2 C 0.0723(5) -0.0382(4) 1.0684(3)
C3 C 0.0262(4) -0.1098(4) 1.1168(2)
C4 C 0.0568(5) -0.2150(4) 1.1087(3)
C5 C 0.1321(5) -0.2531(4) 1.0594(3)
C6 C 0.1790(5) -0.1814(4) 1.0138(3)
C7 C 0.0465(5) 0.0756(4) 1.0651(3)
C8 C 0.1288(6) 0.1494(5) 1.0860(3)
C9 C 0.0986(8) 0.2525(5) 1.0789(3)
C10 C -0.0074(8) 0.2796(5) 1.0516(3)
C11 C -0.0833(7) 0.2032(5) 1.0311(3)
C12 C 0.2462(6) 0.1179(5) 1.1159(4)
C13 C -0.0552(5) -0.0779(5) 1.1757(3)
C14 C -0.0022(7) 0.0117(6) 1.2147(3)
C15 C -0.1787(6) -0.0502(6) 1.1498(3)
C16 C -0.0734(6) -0.1678(6) 1.2264(3)
C17 C 0.1628(6) -0.3682(4) 1.0514(3)
C18 C 0.2960(7) -0.3816(5) 1.0412(3)
C19 C 0.1287(8) -0.4318(5) 1.1138(3)
C20 C 0.0965(7) -0.4099(5) 0.9898(3)
C21 C 0.0672(5) 0.1320(4) 0.8133(2)
C22 C -0.0637(6) 0.1555(5) 0.8017(3)
C23 C -0.0718(6) 0.2272(6) 0.7407(3)
C24 C 0.0580(6) 0.2389(5) 0.7221(3)
C25 C 0.0987(7) 0.1357(5) 0.6910(3)
C26 C 0.1002(7) 0.0618(5) 0.7528(3)
C27 C 0.1213(5) 0.2392(5) 0.7912(3)
C28 C 0.0834(6) 0.3281(4) 0.8383(3)
C29 C 0.2566(4) 0.2400(4) 0.7860(2)
C30 C 0.0892 0.0941 0.8854
H1 H 0.0235 -0.2645 1.1398
H2 H 0.2299 -0.2043 0.9778
H3 H 0.1531 0.3052 1.0938
H4 H -0.0297 0.3513 1.0464
H5 H -0.1571 0.2223 1.0103
H6 H 0.2523 0.0434 1.1174
H7 H 0.3091 0.1457 1.0886
H8 H 0.2520 0.1454 1.1610
H9 H 0.0098 0.0704 1.1853
H10 H -0.0535 0.0314 1.2513
H11 H 0.0727 -0.0107 1.2326
H12 H -0.1746 0.0072 1.1188
H13 H -0.2096 -0.1102 1.1269
H14 H -0.2298 -0.0324 1.1869
H15 H -0.1232 -0.1467 1.2634
H16 H -0.1102 -0.2243 1.2026
H17 H 0.0021 -0.1899 1.2436
H18 H 0.3171 -0.4535 1.0356
H19 H 0.3189 -0.3433 1.0016
H20 H 0.3362 -0.3538 1.0801
H21 H 0.0446 -0.4262 1.1203
H22 H 0.1497 -0.5036 1.1076
H23 H 0.1690 -0.4048 1.1528
H24 H 0.0128 -0.4034 0.9974
H25 H 0.1185 -0.3695 0.9508
H26 H 0.1158 -0.4817 0.9821
H27 H -0.1059 0.2931 0.7530
H28 H -0.1168 0.1965 0.7046
H29 H 0.0757 0.2985 0.6946
H30 H 0.1752 0.1424 0.6703
H31 H 0.0428 0.1127 0.6576
H32 H 0.0435 0.0066 0.7477
H33 H 0.1779 0.0325 0.7584
H34 H 0.1178 0.3922 0.8228
H35 H -0.0014 0.3341 0.8382
H36 H 0.1103 0.3138 0.8835
H37 H 0.2841 0.3075 0.7724
H38 H 0.2903 0.2224 0.8292
H39 H 0.2801 0.1892 0.7530
H40 H 0.1138 0.1523 0.9124
H41 H 0.0146 0.0705 0.9029
loop_
_geom_bond_atom_site_label_1
_geom_bond_atom_site_label_2
_geom_bond_site_symmetry_1
_geom_bond_site_symmetry_2
S1 O1 1_555 1_555
N1 C7 1_555 1_555
O1 C1 1_555 1_555
O2 S1 1_555 1_555
O3 S1 1_555 1_555
O4 C22 1_555 1_555
C1 C2 1_555 1_555
C2 C3 1_555 1_555
C3 C4 1_555 1_555
C4 C5 1_555 1_555
C5 C6 1_555 1_555
C6 C1 1_555 1_555
C7 C2 1_555 1_555
C8 C7 1_555 1_555
C9 C8 1_555 1_555
C10 C9 1_555 1_555
C11 N1 1_555 1_555
C12 C8 1_555 1_555
C13 C3 1_555 1_555
C14 C13 1_555 1_555
C15 C13 1_555 1_555
C16 C13 1_555 1_555
C17 C5 1_555 1_555
C18 C17 1_555 1_555
C19 C17 1_555 1_555
C20 C17 1_555 1_555
C21 C22 1_555 1_555
C22 C23 1_555 1_555
C23 C24 1_555 1_555
C24 C25 1_555 1_555
C25 C26 1_555 1_555
C26 C21 1_555 1_555
C27 C21 1_555 1_555
C28 C27 1_555 1_555
C29 C27 1_555 1_555
C30 S1 1_555 1_555
H1 C4 1_555 1_555
H2 C6 1_555 1_555
H3 C9 1_555 1_555
H4 C10 1_555 1_555
H5 C11 1_555 1_555
H6 C12 1_555 1_555
H7 C12 1_555 1_555
H8 C12 1_555 1_555
H9 C14 1_555 1_555
H10 C14 1_555 1_555
H11 C14 1_555 1_555
H12 C15 1_555 1_555
H13 C15 1_555 1_555
H14 C15 1_555 1_555
H15 C16 1_555 1_555
H16 C16 1_555 1_555
H17 C16 1_555 1_555
H18 C18 1_555 1_555
H19 C18 1_555 1_555
H20 C18 1_555 1_555
H21 C19 1_555 1_555
H22 C19 1_555 1_555
H23 C19 1_555 1_555
H24 C20 1_555 1_555
H25 C20 1_555 1_555
H26 C20 1_555 1_555
H27 C23 1_555 1_555
H28 C23 1_555 1_555
H29 C24 1_555 1_555
H30 C25 1_555 1_555
H31 C25 1_555 1_555
H32 C26 1_555 1_555
H33 C26 1_555 1_555
H34 C28 1_555 1_555
H35 C28 1_555 1_555
H36 C28 1_555 1_555
H37 C29 1_555 1_555
H38 C29 1_555 1_555
H39 C29 1_555 1_555
H40 C30 1_555 1_555
H41 C30 1_555 1_555
C10 C11 1_555 1_555
C21 C30 1_555 1_555
C24 C27 1_555 1_555

#END
