
#######################################################################
#
#                 Cambridge Crystallographic Data Centre
#                                CCDC 
#
#######################################################################
#
# If this CIF has been generated from an entry in the Cambridge 
# Structural Database, then it will include bibliographic, chemical, 
# crystal, experimental, refinement or atomic coordinate data resulting 
# from the CCDC's data processing and validation procedures.
#
#######################################################################

data_REDCOV
_chemical_formula_moiety         'C32 H36 Br1 N1 O4'
_chemical_name_systematic        
2-bromo-N-[4-(3,5-di-t-butyl-4-hydroxyphenyl)-3-ethyl-2-oxo-3,4-dihydro-2H-1-benzopyran-3-yl]benzamide
_symmetry_cell_setting           orthorhombic
_symmetry_space_group_name_H-M   'P 21 21 21'
_symmetry_Int_Tables_number      19
_space_group_name_Hall           'P 2ac 2ab'
loop_
_symmetry_equiv_pos_site_id
_symmetry_equiv_pos_as_xyz
1 x,y,z
2 1/2-x,-y,1/2+z
3 -x,1/2+y,1/2-z
4 1/2+x,1/2-y,-z
_cell_length_a                   10.3304(5)
_cell_length_b                   11.1679(5)
_cell_length_c                   24.5971(12)
_cell_angle_alpha                90
_cell_angle_beta                 90
_cell_angle_gamma                90
_cell_volume                     2837.74
_exptl_crystal_colour            colorless
_exptl_crystal_description       block
_cell_formula_units_Z            4
loop_
_atom_site_label
_atom_site_type_symbol
_atom_site_fract_x
_atom_site_fract_y
_atom_site_fract_z
Br1 Br 0.80337(5) 0.95371(3) 0.58423(2)
O1 O 0.7052(2) 0.21144(18) 0.38917(9)
H1 H 0.768088 0.171045 0.377694
O2 O 0.8240(2) 0.95483(19) 0.34938(9)
O3 O 0.7693(2) 0.98787(19) 0.43422(9)
O4 O 0.9017(2) 0.7673(2) 0.48771(9)
N1 N 0.6949(3) 0.7572(2) 0.45545(10)
H2 H 0.614512 0.739806 0.464354
C1 C 0.7857(3) 0.7519(3) 0.49499(12)
C2 C 0.7311(3) 0.7186(3) 0.54982(13)
C3 C 0.6798(4) 0.6028(4) 0.55784(14)
H3 H 0.672791 0.548384 0.528288
C4 C 0.6396(4) 0.5696(4) 0.60952(16)
H4 H 0.605928 0.491552 0.615486
C5 C 0.6484(4) 0.6494(4) 0.65249(15)
H5 H 0.622303 0.624760 0.687802
C6 C 0.6943(4) 0.7636(4) 0.64476(14)
H6 H 0.696479 0.818950 0.674086
C7 C 0.7372(3) 0.7970(3) 0.59365(14)
C8 C 0.7737(3) 0.9174(3) 0.39773(13)
C9 C 0.7209(3) 0.7896(3) 0.39918(11)
C10 C 0.5898(3) 0.7901(3) 0.36844(12)
H7 H 0.607218 0.788866 0.328862
H8 H 0.542084 0.715945 0.377613
C11 C 0.5039(3) 0.8976(3) 0.38135(15)
H9 H 0.421908 0.890218 0.361614
H10 H 0.547936 0.971376 0.370198
H11 H 0.486803 0.900279 0.420515
C12 C 0.8227(3) 0.7053(3) 0.37217(12)
H12 H 0.904685 0.716020 0.393208
C13 C 0.8497(3) 0.7523(3) 0.31554(12)
C14 C 0.8865(4) 0.6803(3) 0.27156(14)
H13 H 0.888849 0.595767 0.275748
C15 C 0.9196(4) 0.7310(4) 0.22185(15)
H14 H 0.945757 0.680860 0.192656
C16 C 0.9148(4) 0.8539(4) 0.21444(15)
H15 H 0.936598 0.887972 0.180261
C17 C 0.8778(4) 0.9268(3) 0.25745(14)
H16 H 0.872991 1.011183 0.252962
C18 C 0.8480(3) 0.8750(3) 0.30678(13)
C19 C 0.7886(3) 0.5739(2) 0.37623(12)
C20 C 0.8540(3) 0.5038(3) 0.41388(13)
H17 H 0.918319 0.540659 0.435851
C21 C 0.8299(3) 0.3824(3) 0.42097(12)
C22 C 0.7355(3) 0.3303(3) 0.38722(13)
C23 C 0.6652(3) 0.3981(3) 0.34857(12)
C24 C 0.6948(3) 0.5192(2) 0.34411(12)
H18 H 0.649324 0.566325 0.318225
C25 C 0.5640(3) 0.3389(3) 0.31075(13)
C26 C 0.6328(4) 0.2490(3) 0.27352(15)
H19 H 0.701492 0.289969 0.253286
H20 H 0.570207 0.214825 0.247913
H21 H 0.670615 0.184836 0.295551
C27 C 0.4569(3) 0.2758(3) 0.34302(15)
H22 H 0.494602 0.210795 0.364578
H23 H 0.392659 0.242851 0.317800
H24 H 0.414851 0.333497 0.367321
C28 C 0.4977(4) 0.4331(3) 0.27449(15)
H25 H 0.457697 0.494627 0.297403
H26 H 0.431008 0.394348 0.252298
H27 H 0.562271 0.470367 0.250683
C29 C 0.9075(3) 0.3102(3) 0.46342(13)
C30 C 0.9950(3) 0.2181(3) 0.43447(14)
H28 H 0.942224 0.168017 0.410384
H29 H 1.037654 0.167424 0.461635
H30 H 1.060662 0.260204 0.413002
C31 C 0.8182(3) 0.2481(3) 0.50444(13)
H31 H 0.766597 0.308423 0.523625
H32 H 0.870531 0.203319 0.530723
H33 H 0.760425 0.192927 0.485200
C32 C 0.9949(3) 0.3923(3) 0.49745(14)
H34 H 1.059542 0.429870 0.473820
H35 H 1.038755 0.344872 0.525468
H36 H 0.942164 0.454410 0.514792
loop_
_geom_bond_atom_site_label_1
_geom_bond_atom_site_label_2
_geom_bond_site_symmetry_1
_geom_bond_site_symmetry_2
Br1 C7 1_555 1_555
O1 H1 1_555 1_555
O2 C8 1_555 1_555
O3 C8 1_555 1_555
O4 C1 1_555 1_555
N1 H2 1_555 1_555
C1 N1 1_555 1_555
C2 C1 1_555 1_555
C3 C2 1_555 1_555
H3 C3 1_555 1_555
C4 C3 1_555 1_555
H4 C4 1_555 1_555
C5 C4 1_555 1_555
H5 C5 1_555 1_555
C6 C5 1_555 1_555
H6 C6 1_555 1_555
C7 C2 1_555 1_555
C8 C9 1_555 1_555
C9 N1 1_555 1_555
C10 C9 1_555 1_555
H7 C10 1_555 1_555
H8 C10 1_555 1_555
C11 C10 1_555 1_555
H9 C11 1_555 1_555
H10 C11 1_555 1_555
H11 C11 1_555 1_555
C12 C9 1_555 1_555
H12 C12 1_555 1_555
C13 C12 1_555 1_555
C14 C13 1_555 1_555
H13 C14 1_555 1_555
C15 C14 1_555 1_555
H14 C15 1_555 1_555
C16 C15 1_555 1_555
H15 C16 1_555 1_555
C17 C16 1_555 1_555
H16 C17 1_555 1_555
C18 O2 1_555 1_555
C19 C12 1_555 1_555
C20 C19 1_555 1_555
H17 C20 1_555 1_555
C21 C20 1_555 1_555
C22 O1 1_555 1_555
C23 C22 1_555 1_555
C24 C19 1_555 1_555
H18 C24 1_555 1_555
C25 C23 1_555 1_555
C26 C25 1_555 1_555
H19 C26 1_555 1_555
H20 C26 1_555 1_555
H21 C26 1_555 1_555
C27 C25 1_555 1_555
H22 C27 1_555 1_555
H23 C27 1_555 1_555
H24 C27 1_555 1_555
C28 C25 1_555 1_555
H25 C28 1_555 1_555
H26 C28 1_555 1_555
H27 C28 1_555 1_555
C29 C21 1_555 1_555
C30 C29 1_555 1_555
H28 C30 1_555 1_555
H29 C30 1_555 1_555
H30 C30 1_555 1_555
C31 C29 1_555 1_555
H31 C31 1_555 1_555
H32 C31 1_555 1_555
H33 C31 1_555 1_555
C32 C29 1_555 1_555
H34 C32 1_555 1_555
H35 C32 1_555 1_555
H36 C32 1_555 1_555
C6 C7 1_555 1_555
C13 C18 1_555 1_555
C17 C18 1_555 1_555
C21 C22 1_555 1_555
C23 C24 1_555 1_555

#END
