
#######################################################################
#
#                 Cambridge Crystallographic Data Centre
#                                CCDC 
#
#######################################################################
#
# If this CIF has been generated from an entry in the Cambridge 
# Structural Database, then it will include bibliographic, chemical, 
# crystal, experimental, refinement or atomic coordinate data resulting 
# from the CCDC's data processing and validation procedures.
#
#######################################################################

data_REDDEM
_chemical_formula_moiety         'C25 H16 F1 N1 O2'
_chemical_name_systematic        
4-fluoro-13-methyl-7-phenyl-6H,13H-[1]benzopyrano[4',3':3,4]pyrrolo[1,2-a]indol-6-one
_symmetry_cell_setting           monoclinic
_symmetry_space_group_name_H-M   'C 2/c'
_symmetry_Int_Tables_number      15
_space_group_name_Hall           '-C 2yn'
loop_
_symmetry_equiv_pos_site_id
_symmetry_equiv_pos_as_xyz
1 x,y,z
2 -x,y,1/2-z
3 1/2+x,1/2+y,z
4 1/2-x,1/2+y,1/2-z
5 -x,-y,-z
6 x,-y,1/2+z
7 1/2-x,1/2-y,-z
8 1/2+x,1/2-y,1/2+z
_cell_length_a                   19.9398(17)
_cell_length_b                   10.9448(10)
_cell_length_c                   16.3541(14)
_cell_angle_alpha                90
_cell_angle_beta                 95.219(2)
_cell_angle_gamma                90
_cell_volume                     3554.28
_exptl_crystal_colour            colorless
_exptl_crystal_description       block
_cell_formula_units_Z            8
loop_
_atom_site_label
_atom_site_type_symbol
_atom_site_fract_x
_atom_site_fract_y
_atom_site_fract_z
F1 F 0.02103(5) 0.23899(10) 0.14691(7)
O1 O 0.12115(6) 0.30883(10) 0.25464(7)
O2 O 0.21146(6) 0.24628(10) 0.33155(8)
N1 N 0.23956(6) 0.63850(11) 0.35613(8)
C1 C -0.00563(8) 0.44163(17) 0.10658(11)
H1 H -0.0407 0.4134 0.0680
C2 C 0.00802(8) 0.56608(17) 0.11515(10)
H2 H -0.0174 0.6232 0.0814
C3 C 0.05841(8) 0.60707(16) 0.17256(10)
H3 H 0.0672 0.6921 0.1780
C4 C 0.09661(8) 0.52382(14) 0.22280(9)
C5 C 0.15233(7) 0.55581(13) 0.28160(9)
C6 C 0.19484(7) 0.46161(13) 0.31848(9)
C7 C 0.25010(7) 0.51464(13) 0.36347(9)
C8 C 0.31410(8) 0.46361(13) 0.40102(9)
C9 C 0.31605(8) 0.37474(14) 0.46245(10)
H4 H 0.2753 0.3448 0.4807
C10 C 0.37761(9) 0.32993(15) 0.49697(11)
H5 H 0.3787 0.2708 0.5396
C11 C 0.43733(9) 0.37140(15) 0.46923(11)
H6 H 0.4792 0.3405 0.4928
C12 C 0.03254(8) 0.36080(15) 0.15497(10)
C13 C 0.08417(8) 0.39914(14) 0.21230(10)
C14 C 0.18009(8) 0.33365(14) 0.30436(9)
C15 C 0.18088(7) 0.66526(13) 0.30694(9)
C16 C 0.43580(8) 0.45827(15) 0.40700(11)
H7 H 0.4766 0.4860 0.3877
C17 C 0.37455(8) 0.50449(14) 0.37308(10)
H8 H 0.3737 0.5641 0.3308
C18 C 0.26976(7) 0.74728(13) 0.38928(9)
C19 C 0.23195(8) 0.84576(13) 0.35600(9)
C20 C 0.25068(8) 0.96424(14) 0.37781(10)
H9 H 0.2263 1.0323 0.3545
C21 C 0.30630(8) 0.98078(14) 0.43486(11)
H10 H 0.3201 1.0612 0.4503
C22 C 0.34178(8) 0.88163(15) 0.46949(10)
H11 H 0.3787 0.8956 0.5094
C23 C 0.32443(8) 0.76170(14) 0.44700(9)
H12 H 0.3489 0.6936 0.4701
C24 C 0.17140(8) 0.80196(13) 0.30012(10)
H13 H 0.1761 0.8286 0.2424
C25 C 0.10483(8) 0.84972(15) 0.32771(11)
H14 H 0.0672 0.8175 0.2913
H15 H 0.1044 0.9392 0.3254
H16 H 0.1002 0.8230 0.3841
loop_
_geom_bond_atom_site_label_1
_geom_bond_atom_site_label_2
_geom_bond_site_symmetry_1
_geom_bond_site_symmetry_2
F1 C12 1_555 1_555
O1 C13 1_555 1_555
O2 C14 1_555 1_555
N1 C7 1_555 1_555
C1 H1 1_555 1_555
C2 C1 1_555 1_555
H2 C2 1_555 1_555
C3 C2 1_555 1_555
H3 C3 1_555 1_555
C4 C3 1_555 1_555
C5 C4 1_555 1_555
C6 C5 1_555 1_555
C7 C6 1_555 1_555
C8 C7 1_555 1_555
C9 C8 1_555 1_555
H4 C9 1_555 1_555
C10 C9 1_555 1_555
H5 C10 1_555 1_555
C11 C10 1_555 1_555
H6 C11 1_555 1_555
C12 C1 1_555 1_555
C13 C4 1_555 1_555
C14 O1 1_555 1_555
C15 N1 1_555 1_555
C16 C11 1_555 1_555
H7 C16 1_555 1_555
C17 C8 1_555 1_555
H8 C17 1_555 1_555
C18 N1 1_555 1_555
C19 C18 1_555 1_555
C20 C19 1_555 1_555
H9 C20 1_555 1_555
C21 C20 1_555 1_555
H10 C21 1_555 1_555
C22 C21 1_555 1_555
H11 C22 1_555 1_555
C23 C18 1_555 1_555
H12 C23 1_555 1_555
C24 C15 1_555 1_555
H13 C24 1_555 1_555
C25 C24 1_555 1_555
H14 C25 1_555 1_555
H15 C25 1_555 1_555
H16 C25 1_555 1_555
C5 C15 1_555 1_555
C6 C14 1_555 1_555
C12 C13 1_555 1_555
C16 C17 1_555 1_555
C19 C24 1_555 1_555
C22 C23 1_555 1_555

#END
