
#######################################################################
#
#                 Cambridge Crystallographic Data Centre
#                                CCDC 
#
#######################################################################
#
# If this CIF has been generated from an entry in the Cambridge 
# Structural Database, then it will include bibliographic, chemical, 
# crystal, experimental, refinement or atomic coordinate data resulting 
# from the CCDC's data processing and validation procedures.
#
#######################################################################

data_REDGUE
_chemical_formula_moiety         'C26 H20 N2 O2 Se2'
_chemical_name_systematic        
2,2'-(Diselane-1,2-diylbis(2,1-phenylenemethylylidenenitrilo))diphenol
_symmetry_cell_setting           tetragonal
_symmetry_space_group_name_H-M   'I 41/a'
_symmetry_Int_Tables_number      88
_space_group_name_Hall           '-I 4ad'
loop_
_symmetry_equiv_pos_site_id
_symmetry_equiv_pos_as_xyz
1 x,y,z
2 1/4-y,3/4+x,3/4+z
3 1/4+y,1/4-x,1/4+z
4 -x,1/2-y,z
5 1/2+x,1/2+y,1/2+z
6 3/4-y,1/4+x,1/4+z
7 3/4+y,3/4-x,3/4+z
8 1/2-x,-y,1/2+z
9 -x,-y,-z
10 3/4+y,1/4-x,1/4-z
11 3/4-y,3/4+x,3/4-z
12 x,1/2+y,-z
13 1/2-x,1/2-y,1/2-z
14 1/4+y,3/4-x,3/4-z
15 1/4-y,1/4+x,1/4-z
16 1/2+x,y,1/2-z
_cell_length_a                   11.6781(10)
_cell_length_b                   11.6781(10)
_cell_length_c                   33.121(3)
_cell_angle_alpha                90
_cell_angle_beta                 90
_cell_angle_gamma                90
_cell_volume                     4516.98
_exptl_crystal_colour            yellow
_exptl_crystal_description       block
_cell_formula_units_Z            8
loop_
_atom_site_label
_atom_site_type_symbol
_atom_site_fract_x
_atom_site_fract_y
_atom_site_fract_z
C1 C 0.4458(4) 0.9162(4) 0.54865(15)
C2 C 0.5346(5) 0.9007(4) 0.57536(17)
H1 H 0.5843 0.8392 0.5721
C3 C 0.5504(5) 0.9765(5) 0.60722(18)
H2 H 0.6104 0.9649 0.6252
C4 C 0.4785(6) 1.0683(5) 0.61245(18)
H3 H 0.4885 1.1183 0.6340
C5 C 0.3916(5) 1.0847(5) 0.58527(16)
H4 H 0.3437 1.1477 0.5885
C6 C 0.3721(4) 1.0105(4) 0.55296(15)
C7 C 0.2785(4) 1.0359(4) 0.52614(17)
H5 H 0.2343 1.1004 0.5314
C8 C 0.1594(4) 0.9998(4) 0.46992(16)
C9 C 0.1441(5) 0.9238(5) 0.43864(17)
C10 C 0.0530(5) 0.9330(6) 0.41240(18)
H6 H 0.0432 0.8803 0.3916
C11 C -0.0230(5) 1.0216(5) 0.41759(17)
H7 H -0.0850 1.0288 0.4001
C12 C -0.0089(5) 1.0986(5) 0.44780(18)
H8 H -0.0607 1.1586 0.4508
C13 C 0.0818(5) 1.0884(4) 0.47412(17)
H9 H 0.0909 1.1414 0.4948
N1 N 0.2532(3) 0.9749(4) 0.49579(11)
O1 O 0.2202(4) 0.8364(4) 0.43273(14)
H10 H 0.2672 0.8360 0.4511
Se1 Se 0.41880(5) 0.80807(5) 0.505912(15)
C1C C 0.5542(4) 0.5838(4) 0.54865(15)
C2C C 0.4654(5) 0.5993(4) 0.57536(17)
H1C H 0.4157 0.6608 0.5721
C3C C 0.4496(5) 0.5235(5) 0.60722(18)
H2C H 0.3896 0.5351 0.6252
C4C C 0.5215(6) 0.4317(5) 0.61245(18)
H3C H 0.5115 0.3817 0.6340
C5C C 0.6084(5) 0.4153(5) 0.58527(16)
H4C H 0.6563 0.3523 0.5885
C6C C 0.6279(4) 0.4895(4) 0.55296(15)
C7C C 0.7215(4) 0.4641(4) 0.52614(17)
H5C H 0.7657 0.3996 0.5314
C8C C 0.8406(4) 0.5002(4) 0.46992(16)
C9C C 0.8559(5) 0.5762(5) 0.43864(17)
C10C C 0.9470(5) 0.5670(6) 0.41240(18)
H6C H 0.9568 0.6197 0.3916
C11C C 1.0230(5) 0.4784(5) 0.41759(17)
H7C H 1.0850 0.4712 0.4001
C12C C 1.0089(5) 0.4014(5) 0.44780(18)
H8C H 1.0607 0.3414 0.4508
C13C C 0.9182(5) 0.4116(4) 0.47412(17)
H9C H 0.9091 0.3586 0.4948
N1C N 0.7468(3) 0.5251(4) 0.49579(11)
O1C O 0.7798(4) 0.6636(4) 0.43273(14)
H10C H 0.7328 0.6640 0.4511
Se1C Se 0.58120(5) 0.69193(5) 0.505912(15)
loop_
_geom_bond_atom_site_label_1
_geom_bond_atom_site_label_2
_geom_bond_site_symmetry_1
_geom_bond_site_symmetry_2
C1 C2 1_555 1_555
C2 H1 1_555 1_555
C3 C2 1_555 1_555
H2 C3 1_555 1_555
C4 C3 1_555 1_555
H3 C4 1_555 1_555
C5 C4 1_555 1_555
H4 C5 1_555 1_555
C6 C1 1_555 1_555
C7 C6 1_555 1_555
H5 C7 1_555 1_555
C8 C9 1_555 1_555
C9 C10 1_555 1_555
C10 H6 1_555 1_555
C11 C10 1_555 1_555
H7 C11 1_555 1_555
C12 C11 1_555 1_555
H8 C12 1_555 1_555
C13 C8 1_555 1_555
H9 C13 1_555 1_555
N1 C7 1_555 1_555
O1 C9 1_555 1_555
H10 O1 1_555 1_555
Se1 C1 1_555 1_555
C1C C2C 1_555 1_555
C2C H1C 1_555 1_555
C3C C2C 1_555 1_555
H2C C3C 1_555 1_555
C4C C3C 1_555 1_555
H3C C4C 1_555 1_555
C5C C4C 1_555 1_555
H4C C5C 1_555 1_555
C6C C1C 1_555 1_555
C7C C6C 1_555 1_555
H5C C7C 1_555 1_555
C8C C9C 1_555 1_555
C9C C10C 1_555 1_555
C10C H6C 1_555 1_555
C11C C10C 1_555 1_555
H7C C11C 1_555 1_555
C12C C11C 1_555 1_555
H8C C12C 1_555 1_555
C13C C8C 1_555 1_555
H9C C13C 1_555 1_555
N1C C7C 1_555 1_555
O1C C9C 1_555 1_555
H10C O1C 1_555 1_555
Se1C Se1 1_555 1_555
C5 C6 1_555 1_555
C8 N1 1_555 1_555
C12 C13 1_555 1_555
C1C Se1C 1_555 1_555
C5C C6C 1_555 1_555
C8C N1C 1_555 1_555
C12C C13C 1_555 1_555

#END
