
#######################################################################
#
#                 Cambridge Crystallographic Data Centre
#                                CCDC 
#
#######################################################################
#
# If this CIF has been generated from an entry in the Cambridge 
# Structural Database, then it will include bibliographic, chemical, 
# crystal, experimental, refinement or atomic coordinate data resulting 
# from the CCDC's data processing and validation procedures.
#
#######################################################################

data_REDGAK
_chemical_formula_moiety         'C26 H20 N2 Se2'
_chemical_name_systematic        
N,N'-(Diselane-1,2-diylbis(2,1-phenylenemethylylidene))dianiline
_symmetry_cell_setting           triclinic
_symmetry_space_group_name_H-M   'P -1'
_symmetry_Int_Tables_number      2
_space_group_name_Hall           '-P 1'
loop_
_symmetry_equiv_pos_site_id
_symmetry_equiv_pos_as_xyz
1 x,y,z
2 -x,-y,-z
_cell_length_a                   7.7491(17)
_cell_length_b                   9.2040(19)
_cell_length_c                   15.745(3)
_cell_angle_alpha                79.318(5)
_cell_angle_beta                 80.441(5)
_cell_angle_gamma                86.542(5)
_cell_volume                     1087.69
_exptl_crystal_colour            orange
_exptl_crystal_description       diamond
_cell_formula_units_Z            2
loop_
_atom_site_label
_atom_site_type_symbol
_atom_site_fract_x
_atom_site_fract_y
_atom_site_fract_z
C1 C 0.1910(3) 0.7372(3) 0.66808(15)
C2 C 0.1776(4) 0.7813(3) 0.57868(15)
C3 C 0.0138(4) 0.8204(3) 0.55471(16)
H1 H 0.0048 0.8504 0.4958
C4 C -0.1360(4) 0.8157(3) 0.61665(17)
H2 H -0.2444 0.8432 0.5997
C5 C -0.1226(4) 0.7696(3) 0.70425(17)
H3 H -0.2228 0.7649 0.7462
C6 C 0.0389(4) 0.7305(3) 0.72980(16)
H4 H 0.0460 0.6993 0.7888
C7 C 0.3300(4) 0.7860(3) 0.50961(15)
H5 H 0.3180 0.8275 0.4523
C8 C 0.6269(4) 0.7402(3) 0.46018(15)
C9 C 0.7376(4) 0.6151(3) 0.45965(18)
H6 H 0.7112 0.5302 0.5012
C10 C 0.8867(4) 0.6168(3) 0.39745(18)
H7 H 0.9583 0.5322 0.3960
C11 C 0.9295(4) 0.7448(3) 0.33725(18)
H8 H 1.0305 0.7463 0.2959
C12 C 0.8212(4) 0.8707(3) 0.33875(17)
H9 H 0.8504 0.9566 0.2985
C13 C 0.6707(4) 0.8688(3) 0.39969(16)
H10 H 0.5985 0.9531 0.4004
C14 C 0.2528(3) 0.4940(3) 0.90202(16)
C15 C 0.2120(4) 0.4051(3) 0.84610(16)
H11 H 0.2308 0.4390 0.7860
C16 C 0.1433(4) 0.2658(3) 0.87910(18)
H12 H 0.1171 0.2076 0.8408
C17 C 0.1137(4) 0.2135(3) 0.96796(18)
H13 H 0.0683 0.1203 0.9899
C18 C 0.1525(4) 0.3016(3) 1.02379(17)
H14 H 0.1320 0.2666 1.0838
C19 C 0.2217(4) 0.4418(3) 0.99292(16)
C20 C 0.2520(4) 0.5282(3) 1.05748(16)
H15 H 0.2252 0.4879 1.1166
C21 C 0.3415(4) 0.7375(3) 1.10059(17)
C22 C 0.3701(4) 0.6727(3) 1.18453(17)
H16 H 0.3665 0.5705 1.2015
C23 C 0.4037(4) 0.7584(3) 1.24268(18)
H17 H 0.4224 0.7136 1.2985
C24 C 0.4098(4) 0.9120(3) 1.2183(2)
H18 H 0.4335 0.9698 1.2573
C25 C 0.3802(5) 0.9768(3) 1.1353(2)
H19 H 0.3821 1.0791 1.1187
C26 C 0.3476(4) 0.8905(3) 1.07661(19)
H20 H 0.3296 0.9354 1.0207
N1 N 0.4787(3) 0.7341(2) 0.52681(13)
N2 N 0.3140(3) 0.6570(2) 1.03560(13)
Se1 Se 0.41573(3) 0.68648(3) 0.704771(15)
Se2 Se 0.35241(3) 0.68687(3) 0.857525(15)
loop_
_geom_bond_atom_site_label_1
_geom_bond_atom_site_label_2
_geom_bond_site_symmetry_1
_geom_bond_site_symmetry_2
C1 C2 1_555 1_555
C2 C3 1_555 1_555
C3 H1 1_555 1_555
C4 C3 1_555 1_555
H2 C4 1_555 1_555
C5 C4 1_555 1_555
H3 C5 1_555 1_555
C6 C1 1_555 1_555
H4 C6 1_555 1_555
C7 C2 1_555 1_555
H5 C7 1_555 1_555
C8 C9 1_555 1_555
C9 H6 1_555 1_555
C10 C9 1_555 1_555
H7 C10 1_555 1_555
C11 C10 1_555 1_555
H8 C11 1_555 1_555
C12 C11 1_555 1_555
H9 C12 1_555 1_555
C13 C8 1_555 1_555
H10 C13 1_555 1_555
C14 C15 1_555 1_555
C15 H11 1_555 1_555
C16 C15 1_555 1_555
H12 C16 1_555 1_555
C17 C16 1_555 1_555
H13 C17 1_555 1_555
C18 C17 1_555 1_555
H14 C18 1_555 1_555
C19 C14 1_555 1_555
C20 C19 1_555 1_555
H15 C20 1_555 1_555
C21 C22 1_555 1_555
C22 H16 1_555 1_555
C23 C22 1_555 1_555
H17 C23 1_555 1_555
C24 C23 1_555 1_555
H18 C24 1_555 1_555
C25 C24 1_555 1_555
H19 C25 1_555 1_555
C26 C21 1_555 1_555
H20 C26 1_555 1_555
N1 C7 1_555 1_555
N2 C20 1_555 1_555
Se1 C1 1_555 1_555
Se2 C14 1_555 1_555
C5 C6 1_555 1_555
C8 N1 1_555 1_555
C12 C13 1_555 1_555
C18 C19 1_555 1_555
C21 N2 1_555 1_555
C25 C26 1_555 1_555
Se1 Se2 1_555 1_555

#END
