
#######################################################################
#
#                 Cambridge Crystallographic Data Centre
#                                CCDC 
#
#######################################################################
#
# If this CIF has been generated from an entry in the Cambridge 
# Structural Database, then it will include bibliographic, chemical, 
# crystal, experimental, refinement or atomic coordinate data resulting 
# from the CCDC's data processing and validation procedures.
#
#######################################################################

data_REDHIR02
_chemical_name_common            1,4-bis(1-Cyano-2-phenylethenyl)benzene
_chemical_formula_moiety         'C24 H16 N2'
_chemical_name_systematic        
2,2'-(1,4-Phenylene)bis(3-phenylacrylonitrile)
_symmetry_cell_setting           orthorhombic
_symmetry_space_group_name_H-M   'P b c a'
_symmetry_Int_Tables_number      61
_space_group_name_Hall           '-P 2ac 2ab'
loop_
_symmetry_equiv_pos_site_id
_symmetry_equiv_pos_as_xyz
1 x,y,z
2 1/2-x,-y,1/2+z
3 -x,1/2+y,1/2-z
4 1/2+x,1/2-y,-z
5 -x,-y,-z
6 1/2+x,y,1/2-z
7 x,1/2-y,1/2+z
8 1/2-x,1/2+y,z
_cell_length_a                   6.8410(14)
_cell_length_b                   7.3130(15)
_cell_length_c                   35.529(7)
_cell_angle_alpha                90
_cell_angle_beta                 90
_cell_angle_gamma                90
_cell_volume                     1777.45
_exptl_crystal_colour            colorless
_exptl_crystal_description       block
_chemical_melting_point          '257 deg.C'
_cell_formula_units_Z            4
loop_
_atom_site_label
_atom_site_type_symbol
_atom_site_fract_x
_atom_site_fract_y
_atom_site_fract_z
N1 N 0.4631(3) 0.3804(3) 0.40900(5)
C1 C 0.0460(2) 0.4528(3) 0.46260(5)
C2 C -0.1347(3) 0.5293(3) 0.47176(5)
H1 H -0.232(3) 0.555(3) 0.4523(6)
C3 C 0.1794(3) 0.4261(3) 0.49161(5)
H2 H 0.307(3) 0.371(3) 0.4864(5)
C4 C 0.0937(2) 0.4020(2) 0.42310(5)
C5 C -0.0415(3) 0.3605(3) 0.39707(5)
H3 H -0.185(3) 0.365(3) 0.4070(6)
C6 C -0.0157(2) 0.3118(3) 0.35734(5)
C7 C -0.1547(3) 0.1970(3) 0.34130(6)
H4 H -0.267(3) 0.157(3) 0.3572(7)
C8 C -0.1408(4) 0.1441(3) 0.30405(6)
H5 H -0.241(4) 0.069(4) 0.2936(7)
C9 C 0.0073(3) 0.2100(3) 0.28183(6)
H6 H 0.020(3) 0.175(3) 0.2550(7)
C10 C 0.1428(3) 0.3274(3) 0.29694(6)
H7 H 0.252(3) 0.374(3) 0.2821(6)
C11 C 0.1326(3) 0.3788(3) 0.33434(6)
H8 H 0.230(3) 0.455(3) 0.3443(5)
C12 C 0.2985(3) 0.3912(3) 0.41436(5)
N1D N -0.4631(3) 0.6196(3) 0.59100(5)
C1D C -0.0460(2) 0.5472(3) 0.53740(5)
C2D C 0.1347(3) 0.4707(3) 0.52824(5)
H1D H 0.232(3) 0.445(3) 0.5477(6)
C3D C -0.1794(3) 0.5739(3) 0.50839(5)
H2D H -0.307(3) 0.629(3) 0.5136(5)
C4D C -0.0937(2) 0.5980(2) 0.57690(5)
C5D C 0.0415(3) 0.6395(3) 0.60293(5)
H3D H 0.185(3) 0.635(3) 0.5930(6)
C6D C 0.0157(2) 0.6882(3) 0.64266(5)
C7D C 0.1547(3) 0.8030(3) 0.65870(6)
H4D H 0.267(3) 0.843(3) 0.6428(7)
C8D C 0.1408(4) 0.8559(3) 0.69595(6)
H5D H 0.241(4) 0.931(4) 0.7064(7)
C9D C -0.0073(3) 0.7900(3) 0.71817(6)
H6D H -0.020(3) 0.825(3) 0.7450(7)
C10D C -0.1428(3) 0.6726(3) 0.70306(6)
H7D H -0.252(3) 0.626(3) 0.7179(6)
C11D C -0.1326(3) 0.6212(3) 0.66566(6)
H8D H -0.230(3) 0.545(3) 0.6557(5)
C12D C -0.2985(3) 0.6088(3) 0.58564(5)
loop_
_geom_bond_atom_site_label_1
_geom_bond_atom_site_label_2
_geom_bond_site_symmetry_1
_geom_bond_site_symmetry_2
N1 C12 1_555 1_555
C1 C2 1_555 1_555
C2 H1 1_555 1_555
C3 C1 1_555 1_555
H2 C3 1_555 1_555
C4 C1 1_555 1_555
C5 C4 1_555 1_555
H3 C5 1_555 1_555
C6 C5 1_555 1_555
C7 C6 1_555 1_555
H4 C7 1_555 1_555
C8 C7 1_555 1_555
H5 C8 1_555 1_555
C9 C8 1_555 1_555
H6 C9 1_555 1_555
C10 C9 1_555 1_555
H7 C10 1_555 1_555
C11 C6 1_555 1_555
H8 C11 1_555 1_555
C12 C4 1_555 1_555
N1D C12D 1_555 1_555
C1D C2D 1_555 1_555
C2D C3 1_555 1_555
H1D C2D 1_555 1_555
C3D C2 1_555 1_555
H2D C3D 1_555 1_555
C4D C1D 1_555 1_555
C5D C4D 1_555 1_555
H3D C5D 1_555 1_555
C6D C5D 1_555 1_555
C7D C6D 1_555 1_555
H4D C7D 1_555 1_555
C8D C7D 1_555 1_555
H5D C8D 1_555 1_555
C9D C8D 1_555 1_555
H6D C9D 1_555 1_555
C10D C9D 1_555 1_555
H7D C10D 1_555 1_555
C11D C6D 1_555 1_555
H8D C11D 1_555 1_555
C12D C4D 1_555 1_555
C10 C11 1_555 1_555
C1D C3D 1_555 1_555
C10D C11D 1_555 1_555

#END
