
#######################################################################
#
#                 Cambridge Crystallographic Data Centre
#                                CCDC 
#
#######################################################################
#
# If this CIF has been generated from an entry in the Cambridge 
# Structural Database, then it will include bibliographic, chemical, 
# crystal, experimental, refinement or atomic coordinate data resulting 
# from the CCDC's data processing and validation procedures.
#
#######################################################################

data_REDHEQ
_chemical_formula_moiety         'C15 H16 N2 O3'
_chemical_name_systematic        
"ethyl 4',6'-dimethyl-2-oxo-2H-[1,2'-bipyridine]-5-carboxylate"
_symmetry_cell_setting           monoclinic
_symmetry_space_group_name_H-M   'P 21/n'
_symmetry_Int_Tables_number      14
_space_group_name_Hall           '-P 2yn'
loop_
_symmetry_equiv_pos_site_id
_symmetry_equiv_pos_as_xyz
1 x,y,z
2 1/2-x,1/2+y,1/2-z
3 -x,-y,-z
4 1/2+x,1/2-y,1/2+z
_cell_length_a                   11.3734(5)
_cell_length_b                   7.9651(3)
_cell_length_c                   15.6500(7)
_cell_angle_alpha                90
_cell_angle_beta                 94.572(2)
_cell_angle_gamma                90
_cell_volume                     1413.23
_exptl_crystal_colour            colorless
_exptl_crystal_description       Block
_chemical_melting_point          '378 K'
_cell_formula_units_Z            4
_exptl_crystal_recrystallization_method 'hexane/Ethyl acetate'
loop_
_atom_site_label
_atom_site_type_symbol
_atom_site_fract_x
_atom_site_fract_y
_atom_site_fract_z
C1 C 0.38833(13) 0.02501(19) 0.13158(10)
C2 C 0.28275(13) 0.10383(19) 0.13051(9)
H1 H 0.2200 0.0499 0.1550
N1 N 0.26457(11) 0.25861(16) 0.09518(8)
C3 C 0.35346(14) 0.3457(2) 0.05502(10)
C4 C 0.46567(14) 0.2617(2) 0.05843(11)
H2 H 0.5292 0.3149 0.0346
C5 C 0.48265(14) 0.1090(2) 0.09474(11)
H3 H 0.5572 0.0577 0.0957
C6 C 0.39915(14) -0.14283(19) 0.17118(10)
O1 O 0.31896(10) -0.21887(14) 0.19958(8)
O2 O 0.50982(10) -0.20064(15) 0.17279(8)
C7 C 0.52978(17) -0.3661(2) 0.20999(13)
H4 H 0.4846 -0.4509 0.1759
H5 H 0.5055 -0.3688 0.2687
C8 C 0.6582(2) -0.3994(3) 0.20980(17)
H6 H 0.6821 -0.3880 0.1519
H7 H 0.6751 -0.5125 0.2303
H8 H 0.7015 -0.3195 0.2470
O3 O 0.33190(11) 0.48155(16) 0.02063(9)
C9 C 0.14754(13) 0.33098(19) 0.09574(10)
N2 N 0.06130(11) 0.22771(16) 0.06833(8)
C10 C -0.04961(13) 0.2870(2) 0.06952(10)
C11 C -0.07190(14) 0.4471(2) 0.09847(10)
H9 H -0.1502 0.4852 0.0981
C12 C 0.01964(14) 0.5519(2) 0.12796(10)
C13 C 0.13377(14) 0.49120(19) 0.12616(10)
H10 H 0.1993 0.5572 0.1450
C14 C -0.14719(15) 0.1709(2) 0.03817(13)
H11 H -0.1155 0.0814 0.0048
H12 H -0.2060 0.2328 0.0026
H13 H -0.1833 0.1233 0.0868
C15 C -0.00269(17) 0.7256(2) 0.16094(13)
H14 H -0.0352 0.7955 0.1141
H15 H 0.0709 0.7737 0.1851
H16 H -0.0582 0.7194 0.2048
loop_
_geom_bond_atom_site_label_1
_geom_bond_atom_site_label_2
_geom_bond_site_symmetry_1
_geom_bond_site_symmetry_2
C1 C2 1_555 1_555
C2 H1 1_555 1_555
N1 C2 1_555 1_555
C3 N1 1_555 1_555
C4 C3 1_555 1_555
H2 C4 1_555 1_555
C5 C1 1_555 1_555
H3 C5 1_555 1_555
C6 C1 1_555 1_555
O1 C6 1_555 1_555
O2 C6 1_555 1_555
C7 O2 1_555 1_555
H4 C7 1_555 1_555
H5 C7 1_555 1_555
C8 C7 1_555 1_555
H6 C8 1_555 1_555
H7 C8 1_555 1_555
H8 C8 1_555 1_555
O3 C3 1_555 1_555
C9 N1 1_555 1_555
N2 C9 1_555 1_555
C10 N2 1_555 1_555
C11 C10 1_555 1_555
H9 C11 1_555 1_555
C12 C11 1_555 1_555
C13 C9 1_555 1_555
H10 C13 1_555 1_555
C14 C10 1_555 1_555
H11 C14 1_555 1_555
H12 C14 1_555 1_555
H13 C14 1_555 1_555
C15 C12 1_555 1_555
H14 C15 1_555 1_555
H15 C15 1_555 1_555
H16 C15 1_555 1_555
C4 C5 1_555 1_555
C12 C13 1_555 1_555

#END
