
#######################################################################
#
#                 Cambridge Crystallographic Data Centre
#                                CCDC 
#
#######################################################################
#
# If this CIF has been generated from an entry in the Cambridge 
# Structural Database, then it will include bibliographic, chemical, 
# crystal, experimental, refinement or atomic coordinate data resulting 
# from the CCDC's data processing and validation procedures.
#
#######################################################################

data_REDHIR04
_chemical_formula_moiety         'C24 H16 N2'
_chemical_name_systematic        
2,2'-(1,4-phenylene)bis(3-phenylacrylonitrile)
_symmetry_cell_setting           monoclinic
_symmetry_space_group_name_H-M   'P 2/c'
_symmetry_Int_Tables_number      13
_space_group_name_Hall           '-P 2yc'
loop_
_symmetry_equiv_pos_site_id
_symmetry_equiv_pos_as_xyz
1 x,y,z
2 -x,y,1/2-z
3 -x,-y,-z
4 x,-y,1/2+z
_cell_length_a                   26.818(6)
_cell_length_b                   6.8919(8)
_cell_length_c                   9.7465(12)
_cell_angle_alpha                90
_cell_angle_beta                 100.459(17)
_cell_angle_gamma                90
_cell_volume                     1771.49
_exptl_crystal_colour            colorless
_exptl_crystal_description       block
_cell_formula_units_Z            4
loop_
_atom_site_label
_atom_site_type_symbol
_atom_site_fract_x
_atom_site_fract_y
_atom_site_fract_z
C1 C 0.4249(2) 0.1058(8) 0.1652(5)
C2 C 0.46371(19) 0.0483(8) 0.0799(5)
C3 C 0.4877(2) 0.1870(7) 0.0124(6)
H1 H 0.4794 0.3170 0.0205
C4 C 0.5226(2) 0.1397(8) -0.0641(6)
H2 H 0.5379 0.2375 -0.1077
C5 C 0.4179(3) 0.3106(9) 0.1761(7)
N1 N 0.4116(3) 0.4811(8) 0.1823(8)
C6 C 0.39812(19) -0.0125(7) 0.2267(5)
H3 H 0.4057 -0.1417 0.2118
C7 C 0.35958(18) 0.0061(6) 0.3124(5)
C8 C 0.3359(2) -0.1585(8) 0.3484(6)
H4 H 0.3456 -0.2785 0.3184
C9 C 0.2987(2) -0.1512(10) 0.4264(6)
H5 H 0.2832 -0.2652 0.4477
C10 C 0.2842(2) 0.0198(10) 0.4728(6)
H6 H 0.2585 0.0241 0.5252
C11 C 0.3074(2) 0.1879(10) 0.4426(6)
H7 H 0.2981 0.3063 0.4763
C12 C 0.3446(2) 0.1800(8) 0.3619(6)
H8 H 0.3599 0.2944 0.3405
C1B C 0.5751(2) -0.1058(8) -0.1652(5)
C2B C 0.53629(19) -0.0483(8) -0.0799(5)
C3B C 0.5123(2) -0.1870(7) -0.0124(6)
H1B H 0.5206 -0.3170 -0.0205
C4B C 0.4774(2) -0.1397(8) 0.0641(6)
H2B H 0.4621 -0.2375 0.1077
C5B C 0.5821(3) -0.3106(9) -0.1761(7)
N1B N 0.5884(3) -0.4811(8) -0.1823(8)
C6B C 0.60188(19) 0.0125(7) -0.2267(5)
H3B H 0.5943 0.1417 -0.2118
C7B C 0.64042(18) -0.0061(6) -0.3124(5)
C8B C 0.6641(2) 0.1585(8) -0.3484(6)
H4B H 0.6544 0.2785 -0.3184
C9B C 0.7013(2) 0.1512(10) -0.4264(6)
H5B H 0.7168 0.2652 -0.4477
C10B C 0.7158(2) -0.0198(10) -0.4728(6)
H6B H 0.7415 -0.0241 -0.5252
C11B C 0.6926(2) -0.1879(10) -0.4426(6)
H7B H 0.7019 -0.3063 -0.4763
C12B C 0.6554(2) -0.1800(8) -0.3619(6)
H8B H 0.6401 -0.2944 -0.3405
C13 C 0.92494(19) 0.6012(7) 0.7592(5)
C14 C 0.9632(3) 0.5475(17) 0.8821(6)
C15 C 0.9782(3) 0.3566(15) 0.9096(11)
H9 H 0.9638 0.2583 0.8498
C16 C 1.0140(3) 0.3119(10) 1.0246(11)
H10 H 1.0234 0.1829 1.0408
C17 C 0.9162(2) 0.8049(9) 0.7361(7)
N2 N 0.9104(11) 0.9644(19) 0.723(2)
C18 C 0.8986(3) 0.4698(15) 0.6716(8)
H11 H 0.9069 0.3414 0.6944
C19 C 0.85898(19) 0.4936(6) 0.5462(5)
C20 C 0.8370(2) 0.3247(8) 0.4881(5)
H12 H 0.8475 0.2063 0.5292
C21 C 0.7998(2) 0.3282(9) 0.3707(6)
H13 H 0.7852 0.2129 0.3335
C22 C 0.7844(2) 0.4995(11) 0.3091(6)
H14 H 0.7593 0.5013 0.2296
C23 C 0.8054(2) 0.6686(10) 0.3626(6)
H15 H 0.7946 0.7852 0.3192
C24 C 0.8429(2) 0.6695(8) 0.4815(5)
H16 H 0.8572 0.7859 0.5176
C13B C 1.07506(19) 0.3988(7) 1.2408(5)
C14B C 1.0368(3) 0.4525(17) 1.1179(6)
C15B C 1.0218(3) 0.6434(15) 1.0904(11)
H9B H 1.0362 0.7417 1.1502
C16B C 0.9860(3) 0.6881(10) 0.9754(11)
H10B H 0.9766 0.8171 0.9592
C17B C 1.0838(2) 0.1951(9) 1.2639(7)
N2B N 1.0896(11) 0.0356(19) 1.277(2)
C18B C 1.1014(3) 0.5302(15) 1.3284(8)
H11B H 1.0931 0.6586 1.3056
C19B C 1.14102(19) 0.5064(6) 1.4538(5)
C20B C 1.1630(2) 0.6753(8) 1.5119(5)
H12B H 1.1525 0.7937 1.4708
C21B C 1.2002(2) 0.6718(9) 1.6293(6)
H13B H 1.2148 0.7871 1.6665
C22B C 1.2156(2) 0.5005(11) 1.6909(6)
H14B H 1.2407 0.4987 1.7704
C23B C 1.1946(2) 0.3314(10) 1.6374(6)
H15B H 1.2054 0.2148 1.6808
C24B C 1.1571(2) 0.3305(8) 1.5185(5)
H16B H 1.1428 0.2141 1.4824
N3? N 0.912(4) 0.032(3) 0.731(9)
C25? C 0.9158(8) 0.193(3) 0.744(2)
C26? C 0.9246(6) 0.397(2) 0.7605(15)
C27? C 0.8975(13) 0.525(5) 0.672(3)
H17? H 0.9043 0.6551 0.6948
C28? C 0.9631(9) 0.451(7) 0.886(2)
C29? C 0.9800(11) 0.644(5) 0.905(3)
H18? H 0.9689 0.7409 0.8401
C30? C 1.0155(18) 0.681(5) 1.031(5)
H19? H 1.0236 0.8099 1.0540
loop_
_geom_bond_atom_site_label_1
_geom_bond_atom_site_label_2
_geom_bond_site_symmetry_1
_geom_bond_site_symmetry_2
C1 C2 1_555 1_555
C2 C3 1_555 1_555
C3 H1 1_555 1_555
C4 C3 1_555 1_555
H2 C4 1_555 1_555
C5 C1 1_555 1_555
N1 C5 1_555 1_555
C6 C1 1_555 1_555
H3 C6 1_555 1_555
C7 C6 1_555 1_555
C8 C7 1_555 1_555
H4 C8 1_555 1_555
C9 C8 1_555 1_555
H5 C9 1_555 1_555
C10 C9 1_555 1_555
H6 C10 1_555 1_555
C11 C10 1_555 1_555
H7 C11 1_555 1_555
C12 C7 1_555 1_555
H8 C12 1_555 1_555
C13 C14 1_555 1_555
C14 C15 1_555 1_555
C15 H9 1_555 1_555
C16 C15 1_555 1_555
H10 C16 1_555 1_555
C17 C13 1_555 1_555
N2 C17 1_555 1_555
C18 C13 1_555 1_555
H11 C18 1_555 1_555
C19 C18 1_555 1_555
C20 C19 1_555 1_555
H12 C20 1_555 1_555
C21 C20 1_555 1_555
H13 C21 1_555 1_555
C22 C21 1_555 1_555
H14 C22 1_555 1_555
C23 C22 1_555 1_555
H15 C23 1_555 1_555
C24 C19 1_555 1_555
H16 C24 1_555 1_555
C1B C2B 1_555 1_555
C2B C4 1_555 1_555
C3B C2B 1_555 1_555
H1B C3B 1_555 1_555
C4B C2 1_555 1_555
H2B C4B 1_555 1_555
C5B C1B 1_555 1_555
N1B C5B 1_555 1_555
C6B C1B 1_555 1_555
H3B C6B 1_555 1_555
C7B C6B 1_555 1_555
C8B C7B 1_555 1_555
H4B C8B 1_555 1_555
C9B C8B 1_555 1_555
H5B C9B 1_555 1_555
C10B C9B 1_555 1_555
H6B C10B 1_555 1_555
C11B C10B 1_555 1_555
H7B C11B 1_555 1_555
C12B C7B 1_555 1_555
H8B C12B 1_555 1_555
C13B C14B 1_555 1_555
C14B C16 1_555 1_555
C15B C14B 1_555 1_555
H9B C15B 1_555 1_555
C16B C14 1_555 1_555
H10B C16B 1_555 1_555
C17B C13B 1_555 1_555
N2B C17B 1_555 1_555
C18B C13B 1_555 1_555
H11B C18B 1_555 1_555
C19B C18B 1_555 1_555
C20B C19B 1_555 1_555
H12B C20B 1_555 1_555
C21B C20B 1_555 1_555
H13B C21B 1_555 1_555
C22B C21B 1_555 1_555
H14B C22B 1_555 1_555
C23B C22B 1_555 1_555
H15B C23B 1_555 1_555
C24B C19B 1_555 1_555
H16B C24B 1_555 1_555
C11 C12 1_555 1_555
C23 C24 1_555 1_555
C3B C4B 1_555 1_555
C11B C12B 1_555 1_555
C15B C16B 1_555 1_555
C23B C24B 1_555 1_555

#END
