
#######################################################################
#
#                 Cambridge Crystallographic Data Centre
#                                CCDC 
#
#######################################################################
#
# If this CIF has been generated from an entry in the Cambridge 
# Structural Database, then it will include bibliographic, chemical, 
# crystal, experimental, refinement or atomic coordinate data resulting 
# from the CCDC's data processing and validation procedures.
#
#######################################################################

data_REDJEQ
_chemical_formula_moiety         'C11 H9 Cl1 O4'
_chemical_name_systematic        
3-Acetyl-7-chloro-5,6-dihydroxy-2-methylbenzo(b)furan
_symmetry_cell_setting           monoclinic
_symmetry_space_group_name_H-M   'C 2/c'
_symmetry_Int_Tables_number      15
_space_group_name_Hall           '-C 2yn'
loop_
_symmetry_equiv_pos_site_id
_symmetry_equiv_pos_as_xyz
1 x,y,z
2 1/2+x,1/2+y,z
3 -x,y,1/2-z
4 1/2-x,1/2+y,1/2-z
5 -x,-y,-z
6 1/2-x,1/2-y,-z
7 x,-y,1/2+z
8 1/2+x,1/2-y,1/2+z
_cell_length_a                   12.084(4)
_cell_length_b                   8.863(3)
_cell_length_c                   19.672(7)
_cell_angle_alpha                90
_cell_angle_beta                 99.015(7)
_cell_angle_gamma                90
_cell_volume                     2080.86
_exptl_crystal_colour            yellow-brown
_exptl_crystal_description       block
_cell_formula_units_Z            8
loop_
_atom_site_label
_atom_site_type_symbol
_atom_site_fract_x
_atom_site_fract_y
_atom_site_fract_z
C1 C 0.6725(3) 0.8917(4) 0.36602(16)
C2 C 0.6253(2) 0.7646(4) 0.33211(14)
C3 C 0.5684(2) 0.6593(3) 0.36772(15)
C4 C 0.5591(3) 0.6767(3) 0.43626(15)
H1 H 0.5221 0.6054 0.4591
C5 C 0.6069(2) 0.8046(3) 0.47036(14)
C6 C 0.6612(3) 0.9078(3) 0.43461(15)
C7 C 0.6148(2) 0.8665(3) 0.53949(15)
C8 C 0.5707(3) 0.7918(4) 0.59538(15)
C9 C 0.5796(3) 0.8623(5) 0.66549(18)
H2 H 0.5410 0.8005 0.6943
H3 H 0.5465 0.9609 0.6614
H4 H 0.6571 0.8704 0.6855
C10 C 0.7109(3) 1.1191(4) 0.5906(2)
H5 H 0.7605 1.0763 0.6286
H6 H 0.6474 1.1631 0.6070
H7 H 0.7498 1.1956 0.5691
C11 C 0.6722(3) 0.9990(3) 0.53970(17)
Cl1 Cl 0.73876(9) 1.02443(12) 0.32457(5)
O1 O 0.5253(2) 0.6695(3) 0.58458(12)
O2 O 0.5244(2) 0.5409(3) 0.32792(10)
H8 H 0.5061 0.4739 0.3526
O3 O 0.6348(2) 0.7426(3) 0.26502(11)
H9 H 0.5971 0.6694 0.2502
O4 O 0.7009(2) 1.0269(2) 0.47621(12)
loop_
_geom_bond_atom_site_label_1
_geom_bond_atom_site_label_2
_geom_bond_site_symmetry_1
_geom_bond_site_symmetry_2
C1 C2 1_555 1_555
C2 C3 1_555 1_555
C3 C4 1_555 1_555
C4 H1 1_555 1_555
C5 C4 1_555 1_555
C6 C1 1_555 1_555
C7 C5 1_555 1_555
C8 C7 1_555 1_555
C9 C8 1_555 1_555
H2 C9 1_555 1_555
H3 C9 1_555 1_555
H4 C9 1_555 1_555
C10 H5 1_555 1_555
H6 C10 1_555 1_555
H7 C10 1_555 1_555
C11 C7 1_555 1_555
Cl1 C1 1_555 1_555
O1 C8 1_555 1_555
O2 C3 1_555 1_555
H8 O2 1_555 1_555
O3 C2 1_555 1_555
H9 O3 1_555 1_555
O4 C6 1_555 1_555
C5 C6 1_555 1_555
C10 C11 1_555 1_555
C11 O4 1_555 1_555

#END
