
#######################################################################
#
#                 Cambridge Crystallographic Data Centre
#                                CCDC 
#
#######################################################################
#
# If this CIF has been generated from an entry in the Cambridge 
# Structural Database, then it will include bibliographic, chemical, 
# crystal, experimental, refinement or atomic coordinate data resulting 
# from the CCDC's data processing and validation procedures.
#
#######################################################################

data_REDMIX
_chemical_formula_moiety         
'1.5(C48 H48 N32 O16),C26 H32 N4 4+,1.53(Br1 1-),2.47(Cl1 O4 1-),9.88(H2 O1)'
_chemical_name_systematic        
'Cucurbit(8)uril 1-(3-ammoniopropyl)-4-(E)-2-(1-(3-ammoniopropyl)-4-quinoliniumyl)-1-ethenylquinolinium clathrate hemikis(cucurbit(8)uril) bromide perchlorate hydrate'
_symmetry_cell_setting           monoclinic
_symmetry_space_group_name_H-M   'P 21/n'
_symmetry_Int_Tables_number      14
_space_group_name_Hall           '-P 2yn'
loop_
_symmetry_equiv_pos_site_id
_symmetry_equiv_pos_as_xyz
1 x,y,z
2 1/2-x,1/2+y,1/2-z
3 -x,-y,-z
4 1/2+x,1/2-y,1/2+z
_cell_length_a                   15.5210(7)
_cell_length_b                   25.5665(11)
_cell_length_c                   32.4483(14)
_cell_angle_alpha                90
_cell_angle_beta                 101.039(2)
_cell_angle_gamma                90
_cell_volume                     12637.8
_cell_formula_units_Z            4
loop_
_atom_site_label
_atom_site_type_symbol
_atom_site_fract_x
_atom_site_fract_y
_atom_site_fract_z
Br1 Br -0.58719(8) 0.77552(5) 0.14737(4)
Cl4 Cl -0.4863(9) 0.7387(6) -0.0329(5)
O1 O -0.4897(12) 0.7517(8) -0.0805(5)
O2 O -0.3821(10) 0.7353(7) -0.0131(5)
O3 O -0.5261(11) 0.6843(7) -0.0329(5)
O4 O -0.517(2) 0.7809(12) -0.0041(11)
O5 O -1.0030(4) 0.7971(2) 0.08156(18)
O6 O -0.7862(4) 0.8609(2) 0.12646(17)
O7 O -0.7138(4) 1.0015(2) 0.15034(18)
O8 O -0.8295(4) 1.1376(2) 0.14133(19)
O9 O -1.0735(4) 1.1783(2) 0.09469(18)
O10 O -1.3070(4) 1.1198(2) 0.0483(2)
O11 O -1.3762(4) 0.9824(2) 0.02520(19)
O12 O -1.2402(4) 0.8488(2) 0.04013(19)
N1 N -1.0473(4) 0.7712(3) 0.0123(2)
N2 N -0.9063(4) 0.7725(3) 0.0403(2)
N3 N -0.7657(4) 0.8131(3) 0.0687(2)
N4 N -0.6767(4) 0.8797(3) 0.0894(2)
N5 N -0.6261(4) 0.9681(3) 0.1077(2)
N6 N -0.6454(4) 1.0529(3) 0.1088(2)
N7 N -0.7220(4) 1.1364(3) 0.1014(2)
N8 N -0.8361(5) 1.1901(3) 0.0833(2)
N9 N -0.9835(4) 1.2224(3) 0.0582(2)
N10 N -1.1255(4) 1.2149(3) 0.0294(2)
N11 N -1.2686(5) 1.1778(3) 0.0013(2)
N12 N -1.3667(5) 1.1171(3) -0.0220(2)
N13 N -1.4093(4) 1.0259(3) -0.0375(2)
N14 N -1.3883(5) 0.9406(3) -0.0389(2)
N15 N -1.3052(4) 0.8594(3) -0.0293(2)
N16 N -1.1951(4) 0.8019(3) -0.0127(2)
C1 C -0.9856(6) 0.7817(3) 0.0488(2)
C2 C -0.8278(6) 0.7716(3) 0.0729(3)
H1 H -0.7983 0.7374 0.0722
H2 H -0.8451 0.7749 0.1006
C3 C -0.7477(5) 0.8532(3) 0.0983(3)
C4 C -0.6272(6) 0.9139(3) 0.1209(2)
H3 H -0.5660 0.9010 0.1282
H4 H -0.6527 0.9122 0.1466
C5 C -0.6670(5) 1.0072(3) 0.1248(3)
C6 C -0.6595(6) 1.1036(3) 0.1284(3)
H5 H -0.6807 1.0971 0.1548
H6 H -0.6028 1.1224 0.1355
C7 C -0.7983(6) 1.1528(3) 0.1114(3)
C8 C -0.9070(6) 1.2235(4) 0.0908(3)
C9 C -1.0615(6) 1.2022(4) 0.0642(3)
C10 C -1.2196(5) 1.2138(3) 0.0309(3)
H7 H -1.2442 1.2494 0.0251
H8 H -1.2267 1.2039 0.0596
C11 C -1.3125(6) 1.1369(3) 0.0127(3)
C12 C -1.4305(6) 1.0747(3) -0.0209(3)
H9 H -1.4883 1.0862 -0.0369
H10 H -1.4367 1.0693 0.0086
C13 C -1.3899(6) 0.9832(4) -0.0130(3)
C14 C -1.3811(6) 0.8869(3) -0.0228(3)
H11 H -1.4337 0.8671 -0.0364
H12 H -1.3810 0.8878 0.0077
C15 C -1.2462(6) 0.8371(4) 0.0032(3)
C16 C -1.1396(6) 0.7651(4) 0.0135(3)
C17 C -1.0077(6) 0.7475(3) -0.0202(3)
H13 H -1.0277 0.7106 -0.0259
C18 C -0.9078(5) 0.7504(3) -0.0015(2)
H14 H -0.8793 0.7152 -0.0001
C19 C -0.7008(5) 0.8085(3) 0.0427(3)
H15 H -0.6713 0.7736 0.0459
C20 C -0.6361(5) 0.8534(3) 0.0589(3)
H16 H -0.5768 0.8396 0.0719
C21 C -0.5664(6) 0.9874(3) 0.0821(3)
H17 H -0.5041 0.9780 0.0941
C22 C -0.5818(6) 1.0467(3) 0.0822(3)
H18 H -0.5262 1.0657 0.0939
C23 C -0.6962(6) 1.1693(3) 0.0688(3)
H19 H -0.6398 1.1881 0.0793
C24 C -0.7747(6) 1.2075(3) 0.0573(3)
H20 H -0.7565 1.2447 0.0631
H101 H -0.8850 1.2591 0.0940
H102 H -0.9235 1.2139 0.1169
H103 H -1.1491 0.7666 0.0421
H104 H -1.1560 0.7292 0.0040
O5B O -0.9970(4) 1.2029(2) -0.08156(18)
O6B O -1.2138(4) 1.1391(2) -0.12646(17)
O7B O -1.2862(4) 0.9985(2) -0.15034(18)
O8B O -1.1705(4) 0.8624(2) -0.14133(19)
O9B O -0.9265(4) 0.8217(2) -0.09469(18)
O10B O -0.6930(4) 0.8802(2) -0.0483(2)
O11B O -0.6238(4) 1.0176(2) -0.02520(19)
O12B O -0.7598(4) 1.1512(2) -0.04013(19)
N1B N -0.9527(4) 1.2288(3) -0.0123(2)
N2B N -1.0937(4) 1.2275(3) -0.0403(2)
N3B N -1.2343(4) 1.1869(3) -0.0687(2)
N4B N -1.3233(4) 1.1203(3) -0.0894(2)
N5B N -1.3739(4) 1.0319(3) -0.1077(2)
N6B N -1.3546(4) 0.9471(3) -0.1088(2)
N7B N -1.2780(4) 0.8636(3) -0.1014(2)
N8B N -1.1639(5) 0.8099(3) -0.0833(2)
N9B N -1.0165(4) 0.7776(3) -0.0582(2)
N10B N -0.8745(4) 0.7851(3) -0.0294(2)
N11B N -0.7314(5) 0.8222(3) -0.0013(2)
N12B N -0.6333(5) 0.8829(3) 0.0220(2)
N13B N -0.5907(4) 0.9741(3) 0.0375(2)
N14B N -0.6117(5) 1.0594(3) 0.0389(2)
N15B N -0.6948(4) 1.1406(3) 0.0293(2)
N16B N -0.8049(4) 1.1981(3) 0.0127(2)
C1B C -1.0144(6) 1.2183(3) -0.0488(2)
C2B C -1.1722(6) 1.2284(3) -0.0729(3)
H1B H -1.2017 1.2626 -0.0722
H2B H -1.1549 1.2251 -0.1006
C3B C -1.2523(5) 1.1468(3) -0.0983(3)
C4B C -1.3728(6) 1.0861(3) -0.1209(2)
H3B H -1.4340 1.0990 -0.1282
H4B H -1.3473 1.0878 -0.1466
C5B C -1.3330(5) 0.9928(3) -0.1248(3)
C6B C -1.3405(6) 0.8964(3) -0.1284(3)
H5B H -1.3193 0.9029 -0.1548
H6B H -1.3972 0.8776 -0.1355
C7B C -1.2017(6) 0.8472(3) -0.1114(3)
C8B C -1.0930(6) 0.7765(4) -0.0908(3)
C9B C -0.9385(6) 0.7978(4) -0.0642(3)
C10B C -0.7804(5) 0.7862(3) -0.0309(3)
H7B H -0.7558 0.7506 -0.0251
H8B H -0.7733 0.7961 -0.0596
C11B C -0.6875(6) 0.8631(3) -0.0127(3)
C12B C -0.5695(6) 0.9253(3) 0.0209(3)
H9B H -0.5117 0.9138 0.0369
H10B H -0.5633 0.9307 -0.0086
C13B C -0.6101(6) 1.0168(4) 0.0130(3)
C14B C -0.6189(6) 1.1131(3) 0.0228(3)
H11B H -0.5663 1.1329 0.0364
H12B H -0.6190 1.1122 -0.0077
C15B C -0.7538(6) 1.1629(4) -0.0032(3)
C16B C -0.8604(6) 1.2349(4) -0.0135(3)
C17B C -0.9923(6) 1.2525(3) 0.0202(3)
H13B H -0.9723 1.2894 0.0259
C18B C -1.0922(5) 1.2496(3) 0.0015(2)
H14B H -1.1207 1.2848 0.0001
C19B C -1.2992(5) 1.1915(3) -0.0427(3)
H15B H -1.3287 1.2264 -0.0459
C20B C -1.3639(5) 1.1466(3) -0.0589(3)
H16B H -1.4232 1.1604 -0.0719
C21B C -1.4336(6) 1.0126(3) -0.0821(3)
H17B H -1.4959 1.0220 -0.0941
C22B C -1.4182(6) 0.9533(3) -0.0822(3)
H18B H -1.4738 0.9343 -0.0939
C23B C -1.3038(6) 0.8307(3) -0.0688(3)
H19B H -1.3602 0.8119 -0.0793
C24B C -1.2253(6) 0.7925(3) -0.0573(3)
H20B H -1.2435 0.7553 -0.0631
H101B H -1.1150 0.7409 -0.0940
H102B H -1.0765 0.7861 -0.1169
H103B H -0.8509 1.2334 -0.0421
H104B H -0.8440 1.2708 -0.0040
O13 O -0.9982(4) 0.8883(2) -0.20719(18)
O14 O -0.9136(4) 0.9941(2) -0.13398(18)
O15 O -0.7205(4) 1.0750(2) -0.12832(18)
O16 O -0.5284(4) 1.0837(2) -0.19856(18)
O17 O -0.4388(4) 1.0291(3) -0.2898(2)
O18 O -0.5155(5) 0.9238(3) -0.3565(2)
O19 O -0.7335(4) 0.8339(3) -0.3595(2)
O20 O -0.9273(4) 0.8240(2) -0.29923(19)
O21 O -1.2346(4) 1.0359(2) -0.32344(19)
O22 O -1.1312(4) 1.1449(2) -0.2540(2)
O23 O -0.9352(4) 1.2277(2) -0.25044(19)
O24 O -0.7301(5) 1.2527(2) -0.3138(2)
O25 O -0.6329(5) 1.1944(3) -0.4072(2)
O26 O -0.7329(4) 1.0907(3) -0.4614(2)
O27 O -0.9435(4) 1.0066(3) -0.45843(18)
O28 O -1.1622(4) 0.9789(2) -0.41374(18)
N17 N -1.1184(5) 0.8898(3) -0.2617(2)
N18 N -1.1162(4) 0.9436(3) -0.2082(2)
N19 N -1.0559(4) 1.0147(2) -0.1625(2)
N20 N -0.9653(4) 1.0793(3) -0.1377(2)
N21 N -0.8360(4) 1.1321(3) -0.13476(19)
N22 N -0.7168(4) 1.1566(2) -0.1570(2)
N23 N -0.6056(4) 1.1605(3) -0.1996(2)
N24 N -0.5146(5) 1.1517(3) -0.2445(2)
N25 N -0.4472(5) 1.1192(3) -0.3000(2)
N26 N -0.4506(5) 1.0664(3) -0.3548(2)
N27 N -0.5053(5) 0.9932(3) -0.4003(2)
N28 N -0.6095(5) 0.9363(3) -0.4199(2)
N29 N -0.7430(5) 0.8810(3) -0.4210(2)
N30 N -0.8651(5) 0.8504(3) -0.4056(2)
N31 N -0.9870(5) 0.8416(3) -0.3693(2)
N32 N -1.0710(4) 0.8527(3) -0.3221(2)
N33 N -1.2153(4) 0.9481(3) -0.3079(2)
N34 N -1.2061(4) 1.0050(3) -0.2556(2)
N35 N -1.1477(4) 1.0764(3) -0.2098(2)
N36 N -1.0535(4) 1.1395(3) -0.1856(2)
N37 N -0.9232(4) 1.1922(3) -0.1845(2)
N38 N -0.8020(5) 1.2182(3) -0.2061(2)
N39 N -0.6849(4) 1.2267(3) -0.2454(2)
N40 N -0.5926(5) 1.2183(3) -0.2885(2)
N41 N -0.5290(5) 1.1844(3) -0.3463(3)
N42 N -0.5213(5) 1.1353(3) -0.4030(2)
N43 N -0.5909(5) 1.0617(3) -0.4418(2)
N44 N -0.6969(4) 1.0033(3) -0.4592(2)
N45 N -0.8275(5) 0.9511(3) -0.4597(2)
N46 N -0.9508(5) 0.9182(3) -0.4452(2)
N47 N -1.0763(4) 0.9036(3) -0.4125(2)
N48 N -1.1688(4) 0.9089(3) -0.3682(2)
C25 C -1.0708(5) 0.9054(3) -0.2246(3)
C26 C -1.0906(5) 0.9624(3) -0.1654(2)
H21 H -1.1424 0.9614 -0.1517
H22 H -1.0458 0.9385 -0.1498
C27 C -0.9732(6) 1.0266(4) -0.1437(2)
C28 C -0.8900(5) 1.1025(3) -0.1109(3)
H23 H -0.8540 1.0746 -0.0950
H24 H -0.9102 1.1260 -0.0905
C29 C -0.7565(5) 1.1171(3) -0.1392(2)
C30 C -0.6242(5) 1.1568(3) -0.1571(3)
H25 H -0.5977 1.1243 -0.1437
H26 H -0.5966 1.1867 -0.1402
C31 C -0.5466(5) 1.1270(3) -0.2127(3)
C32 C -0.4332(6) 1.1332(4) -0.2564(3)
H27 H -0.3882 1.1611 -0.2508
H28 H -0.4109 1.1025 -0.2391
C33 C -0.4433(6) 1.0669(4) -0.3119(3)
C34 C -0.4296(6) 1.0189(4) -0.3761(3)
H29 H -0.3887 1.0279 -0.3949
H30 H -0.3991 0.9941 -0.3547
C35 C -0.5421(6) 0.9484(4) -0.3902(3)
C36 C -0.6501(6) 0.8809(4) -0.4230(3)
H31 H -0.6425 0.8648 -0.4498
H32 H -0.6180 0.8592 -0.3998
C37 C -0.7756(6) 0.8535(4) -0.3920(3)
C38 C -0.9199(6) 0.8150(3) -0.3861(3)
H33 H -0.9479 0.7892 -0.4072
H34 H -0.8819 0.7955 -0.3632
C39 C -0.9886(6) 0.8374(3) -0.3271(3)
C40 C -1.0980(6) 0.8429(3) -0.2825(3)
H35 H -1.0503 0.8240 -0.2637
H36 H -1.1503 0.8200 -0.2876
C41 C -1.2188(5) 1.0003(4) -0.2981(3)
C42 C -1.2225(5) 1.0523(3) -0.2350(3)
H37 H -1.2498 1.0777 -0.2566
H38 H -1.2656 1.0448 -0.2169
C43 C -1.1124(5) 1.1220(3) -0.2192(3)
C44 C -1.0156(5) 1.1920(3) -0.1830(3)
H39 H -1.0476 1.2133 -0.2065
H40 H -1.0240 1.2085 -0.1564
C45 C -0.8914(6) 1.2141(3) -0.2166(3)
C46 C -0.7526(6) 1.2520(3) -0.2284(3)
H41 H -0.7937 1.2688 -0.2517
H42 H -0.7255 1.2800 -0.2091
C47 C -0.6736(6) 1.2354(3) -0.2854(3)
C48 C -0.5535(7) 1.2305(4) -0.3267(3)
H43 H -0.5968 1.2503 -0.3472
H44 H -0.5011 1.2529 -0.3182
C49 C -0.5690(7) 1.1737(4) -0.3873(3)
C50 C -0.5488(7) 1.1114(4) -0.4428(3)
H45 H -0.5898 1.1354 -0.4608
H46 H -0.4969 1.1068 -0.4560
C51 C -0.6797(6) 1.0537(4) -0.4544(3)
C52 C -0.7807(6) 0.9864(4) -0.4834(3)
H47 H -0.7707 0.9683 -0.5091
H48 H -0.8177 1.0174 -0.4923
C53 C -0.9094(6) 0.9635(4) -0.4548(3)
C54 C -1.0448(5) 0.9152(4) -0.4512(3)
H49 H -1.0658 0.8877 -0.4722
H50 H -1.0701 0.9489 -0.4627
C55 C -1.1379(5) 0.9349(4) -0.3997(3)
C56 C -1.2427(5) 0.9283(4) -0.3510(3)
H51 H -1.2857 0.8997 -0.3510
H52 H -1.2722 0.9567 -0.3691
C57 C -1.2033(5) 0.9150(3) -0.2714(2)
H53 H -1.2523 0.8892 -0.2728
C58 C -1.2008(5) 0.9543(3) -0.2351(2)
H54 H -1.2505 0.9487 -0.2200
C59 C -1.1135(5) 1.0609(3) -0.1665(3)
H55 H -1.1611 1.0572 -0.1498
C60 C -1.0478(5) 1.1063(3) -0.1494(2)
H56 H -1.0648 1.1249 -0.1251
C61 C -0.8553(5) 1.1856(3) -0.1471(2)
H57 H -0.8668 1.2075 -0.1231
C62 C -0.7699(5) 1.2031(3) -0.1624(2)
H58 H -0.7403 1.2328 -0.1453
C63 C -0.6047(6) 1.2124(3) -0.2189(3)
H59 H -0.5839 1.2399 -0.1974
C64 C -0.5417(6) 1.2053(4) -0.2488(3)
H60 H -0.4901 1.2293 -0.2414
C65 C -1.1319(5) 0.8578(3) -0.3612(2)
H61 H -1.1779 0.8299 -0.3650
C66 C -0.4483(7) 1.1563(4) -0.3341(3)
H62 H -0.3967 1.1804 -0.3284
C67 C -0.4439(7) 1.1188(4) -0.3721(3)
H63 H -0.3883 1.1235 -0.3830
C68 C -0.5470(6) 1.0110(4) -0.4420(3)
H64 H -0.5048 1.0110 -0.4617
C69 C -0.6170(6) 0.9720(4) -0.4543(3)
H65 H -0.6116 0.9538 -0.4809
C70 C -0.8093(6) 0.8959(4) -0.4568(3)
H66 H -0.7968 0.8814 -0.4837
C71 C -0.8946(6) 0.8726(4) -0.4457(3)
H67 H -0.9222 0.8459 -0.4667
C72 C -1.0717(5) 0.8538(3) -0.3940(3)
H68 H -1.0922 0.8260 -0.4152
N49 N -0.7566(5) 0.9180(3) -0.2639(2)
N50 N -0.9131(7) 1.1485(5) -0.3268(4)
N51 N -0.8273(5) 0.9020(3) -0.1222(2)
H69 H -0.8375 0.8781 -0.1030
H70 H -0.8751 0.9231 -0.1295
H71 H -0.7797 0.9217 -0.1111
N52 N -1.1759(9) 1.0867(5) -0.3922(4)
H72 H -1.2301 1.0920 -0.4081
H73 H -1.1782 1.0596 -0.3742
H74 H -1.1373 1.0789 -0.4091
C73 C -0.6732(7) 0.9221(4) -0.2651(3)
H75 H -0.6322 0.9005 -0.2472
C74 C -0.6426(7) 0.9573(4) -0.2918(3)
H76 H -0.5814 0.9614 -0.2907
C75 C -0.7021(6) 0.9863(4) -0.3200(3)
C76 C -0.7927(6) 0.9770(4) -0.3235(3)
C77 C -0.8546(6) 1.0006(4) -0.3539(3)
H77 H -0.8366 1.0201 -0.3756
C78 C -0.9416(7) 0.9958(3) -0.3529(3)
H78 H -0.9842 1.0114 -0.3743
C79 C -0.9684(6) 0.9679(3) -0.3200(3)
H79 H -1.0290 0.9667 -0.3187
C80 C -0.9089(6) 0.9426(3) -0.2900(3)
H80 H -0.9275 0.9236 -0.2681
C81 C -0.8216(6) 0.9453(3) -0.2925(3)
C82 C -0.8725(10) 1.1611(5) -0.3576(5)
H81 H -0.8993 1.1844 -0.3790
C83 C -0.7888(9) 1.1398(6) -0.3586(6)
H82 H -0.7599 1.1496 -0.3807
C84 C -0.7494(8) 1.1062(5) -0.3295(6)
C85 C -0.7869(8) 1.1016(5) -0.2962(5)
C86 C -0.7453(10) 1.0736(6) -0.2633(6)
H83 H -0.6865 1.0631 -0.2631
C87 C -0.7846(12) 1.0587(6) -0.2283(5)
H84 H -0.7534 1.0389 -0.2055
C88 C -0.8709(14) 1.0746(7) -0.2297(5)
H85 H -0.8999 1.0655 -0.2074
C89 C -0.9141(10) 1.1034(6) -0.2629(5)
H86 H -0.9735 1.1134 -0.2641
C90 C -0.8716(8) 1.1176(5) -0.2942(4)
C91 C -0.6737(9) 1.0792(5) -0.3397(6)
H87 H -0.6251 1.1003 -0.3430
C92 C -0.6660(7) 1.0286(5) -0.3448(3)
H88 H -0.6352 1.0175 -0.3659
C93 C -0.7822(7) 0.8832(4) -0.2310(3)
H89 H -0.7367 0.8560 -0.2230
H90 H -0.8381 0.8655 -0.2428
C94 C -0.7929(6) 0.9130(3) -0.1926(3)
H91 H -0.7390 0.9332 -0.1817
H92 H -0.8426 0.9378 -0.1996
C95 C -0.8103(6) 0.8745(3) -0.1601(3)
H93 H -0.8617 0.8526 -0.1720
H94 H -0.7589 0.8511 -0.1522
C96 C -1.0090(8) 1.1674(8) -0.3336(4)
H95 H -1.0206 1.1948 -0.3555
H96 H -1.0237 1.1812 -0.3073
C97 C -1.0675(12) 1.1103(7) -0.3498(4)
H97 H -1.0386 1.0897 -0.3691
H98 H -1.0736 1.0882 -0.3254
C98 C -1.1499(15) 1.1294(8) -0.3705(8)
H99 H -1.1887 1.1386 -0.3506
H100 H -1.1443 1.1597 -0.3888
O29 O -0.6803(5) 0.9733(3) -0.1029(2)
O30 O -1.3481(5) 0.9732(3) -0.4548(3)
O31 O -1.2388(5) 0.8435(3) -0.4658(3)
O32 O -1.0589(7) 1.0827(4) -0.4512(3)
O33 O -0.4269(7) 1.1501(4) 0.0970(4)
O34 O -0.7470(9) 1.2851(5) 0.3108(4)
O35 O -0.4305(9) 1.1777(5) 0.3135(4)
O36 O -0.4986(9) 1.0252(6) 0.1893(5)
O37 O -0.6596(9) 1.2410(5) 0.1476(4)
O38 O -0.8482(10) 1.2113(6) 0.2039(5)
O39 O -0.7536(11) 1.2938(7) 0.1952(5)
O40 O -0.4274(10) 1.1191(6) 0.1747(5)
O41 O -0.4060(11) 0.9304(7) -0.2601(5)
O42 O -0.6742(11) 1.2326(7) -0.0688(5)
O44 O -1.3627(14) 0.8153(8) -0.3348(7)
Cl1? Cl -0.3092(3) 1.14175(15) -0.45097(15)
Br2? Br -0.3346(3) 1.13591(16) -0.46177(15)
Cl2? Cl -1.4338(3) 0.86485(18) -0.44406(18)
Br3? Br -1.4165(4) 0.8589(2) -0.4332(2)
Cl3? Cl -0.5206(4) 0.7573(3) 0.0075(2)
O43? O -0.5920(13) 1.1843(8) -0.0641(6)
loop_
_geom_bond_atom_site_label_1
_geom_bond_atom_site_label_2
_geom_bond_site_symmetry_1
_geom_bond_site_symmetry_2
Cl4 O1 1_555 1_555
O2 Cl4 1_555 1_555
O3 Cl4 1_555 1_555
O4 Cl4 1_555 1_555
O5 C1 1_555 1_555
O6 C3 1_555 1_555
O7 C5 1_555 1_555
O8 C7 1_555 1_555
O9 C9 1_555 1_555
O10 C11 1_555 1_555
O11 C13 1_555 1_555
O12 C15 1_555 1_555
N1 C1 1_555 1_555
N2 C1 1_555 1_555
N3 C2 1_555 1_555
N4 C3 1_555 1_555
N5 C4 1_555 1_555
N6 C5 1_555 1_555
N7 C6 1_555 1_555
N8 C7 1_555 1_555
N9 C8 1_555 1_555
N10 C9 1_555 1_555
N11 C10 1_555 1_555
N12 C11 1_555 1_555
N13 C12 1_555 1_555
N14 C13 1_555 1_555
N15 C14 1_555 1_555
N16 C15 1_555 1_555
C2 N2 1_555 1_555
H1 C2 1_555 1_555
H2 C2 1_555 1_555
C3 N3 1_555 1_555
C4 N4 1_555 1_555
H3 C4 1_555 1_555
H4 C4 1_555 1_555
C5 N5 1_555 1_555
C6 N6 1_555 1_555
H5 C6 1_555 1_555
H6 C6 1_555 1_555
C7 N7 1_555 1_555
C8 N8 1_555 1_555
C9 N9 1_555 1_555
C10 N10 1_555 1_555
H7 C10 1_555 1_555
H8 C10 1_555 1_555
C11 N11 1_555 1_555
C12 N12 1_555 1_555
H9 C12 1_555 1_555
H10 C12 1_555 1_555
C13 N13 1_555 1_555
C14 N14 1_555 1_555
H11 C14 1_555 1_555
H12 C14 1_555 1_555
C15 N15 1_555 1_555
C16 N1 1_555 1_555
C17 N1 1_555 1_555
H13 C17 1_555 1_555
C18 N2 1_555 1_555
H14 C18 1_555 1_555
C19 N3 1_555 1_555
H15 C19 1_555 1_555
C20 N4 1_555 1_555
H16 C20 1_555 1_555
C21 N5 1_555 1_555
H17 C21 1_555 1_555
C22 N6 1_555 1_555
H18 C22 1_555 1_555
C23 N7 1_555 1_555
H19 C23 1_555 1_555
C24 N8 1_555 1_555
H20 C24 1_555 1_555
O13 C25 1_555 1_555
O14 C27 1_555 1_555
O15 C29 1_555 1_555
O16 C31 1_555 1_555
O17 C33 1_555 1_555
O18 C35 1_555 1_555
O19 C37 1_555 1_555
O20 C39 1_555 1_555
O21 C41 1_555 1_555
O22 C43 1_555 1_555
O23 C45 1_555 1_555
O24 C47 1_555 1_555
O25 C49 1_555 1_555
O26 C51 1_555 1_555
O27 C53 1_555 1_555
O28 C55 1_555 1_555
N17 C25 1_555 1_555
N18 C25 1_555 1_555
N19 C26 1_555 1_555
N20 C27 1_555 1_555
N21 C28 1_555 1_555
N22 C29 1_555 1_555
N23 C30 1_555 1_555
N24 C31 1_555 1_555
N25 C32 1_555 1_555
N26 C33 1_555 1_555
N27 C34 1_555 1_555
N28 C35 1_555 1_555
N29 C36 1_555 1_555
N30 C37 1_555 1_555
N31 C38 1_555 1_555
N32 C39 1_555 1_555
N33 C41 1_555 1_555
N34 C41 1_555 1_555
N35 C42 1_555 1_555
N36 C43 1_555 1_555
N37 C44 1_555 1_555
N38 C45 1_555 1_555
N39 C46 1_555 1_555
N40 C47 1_555 1_555
N41 C48 1_555 1_555
N42 C49 1_555 1_555
N43 C50 1_555 1_555
N44 C51 1_555 1_555
N45 C52 1_555 1_555
N46 C53 1_555 1_555
N47 C54 1_555 1_555
N48 C55 1_555 1_555
C26 N18 1_555 1_555
H21 C26 1_555 1_555
H22 C26 1_555 1_555
C27 N19 1_555 1_555
C28 N20 1_555 1_555
H23 C28 1_555 1_555
H24 C28 1_555 1_555
C29 N21 1_555 1_555
C30 N22 1_555 1_555
H25 C30 1_555 1_555
H26 C30 1_555 1_555
C31 N23 1_555 1_555
C32 N24 1_555 1_555
H27 C32 1_555 1_555
H28 C32 1_555 1_555
C33 N25 1_555 1_555
C34 N26 1_555 1_555
H29 C34 1_555 1_555
H30 C34 1_555 1_555
C35 N27 1_555 1_555
C36 N28 1_555 1_555
H31 C36 1_555 1_555
H32 C36 1_555 1_555
C37 N29 1_555 1_555
C38 N30 1_555 1_555
H33 C38 1_555 1_555
H34 C38 1_555 1_555
C39 N31 1_555 1_555
C40 N17 1_555 1_555
H35 C40 1_555 1_555
H36 C40 1_555 1_555
C42 N34 1_555 1_555
H37 C42 1_555 1_555
H38 C42 1_555 1_555
C43 N35 1_555 1_555
C44 N36 1_555 1_555
H39 C44 1_555 1_555
H40 C44 1_555 1_555
C45 N37 1_555 1_555
C46 N38 1_555 1_555
H41 C46 1_555 1_555
H42 C46 1_555 1_555
C47 N39 1_555 1_555
C48 N40 1_555 1_555
H43 C48 1_555 1_555
H44 C48 1_555 1_555
C49 N41 1_555 1_555
C50 N42 1_555 1_555
H45 C50 1_555 1_555
H46 C50 1_555 1_555
C51 N43 1_555 1_555
C52 N44 1_555 1_555
H47 C52 1_555 1_555
H48 C52 1_555 1_555
C53 N45 1_555 1_555
C54 N46 1_555 1_555
H49 C54 1_555 1_555
H50 C54 1_555 1_555
C55 N47 1_555 1_555
C56 N33 1_555 1_555
H51 C56 1_555 1_555
H52 C56 1_555 1_555
C57 N17 1_555 1_555
H53 C57 1_555 1_555
C58 N18 1_555 1_555
H54 C58 1_555 1_555
C59 N19 1_555 1_555
H55 C59 1_555 1_555
C60 N20 1_555 1_555
H56 C60 1_555 1_555
C61 N21 1_555 1_555
H57 C61 1_555 1_555
C62 N22 1_555 1_555
H58 C62 1_555 1_555
C63 N23 1_555 1_555
H59 C63 1_555 1_555
C64 N24 1_555 1_555
H60 C64 1_555 1_555
C65 N32 1_555 1_555
H61 C65 1_555 1_555
C66 N25 1_555 1_555
H62 C66 1_555 1_555
C67 N26 1_555 1_555
H63 C67 1_555 1_555
C68 N27 1_555 1_555
H64 C68 1_555 1_555
C69 N28 1_555 1_555
H65 C69 1_555 1_555
C70 N29 1_555 1_555
H66 C70 1_555 1_555
C71 N30 1_555 1_555
H67 C71 1_555 1_555
C72 N31 1_555 1_555
H68 C72 1_555 1_555
N49 C73 1_555 1_555
N50 C82 1_555 1_555
N51 H69 1_555 1_555
H70 N51 1_555 1_555
H71 N51 1_555 1_555
N52 H72 1_555 1_555
H73 N52 1_555 1_555
H74 N52 1_555 1_555
C73 H75 1_555 1_555
C74 C73 1_555 1_555
H76 C74 1_555 1_555
C75 C74 1_555 1_555
C76 C75 1_555 1_555
C77 C76 1_555 1_555
H77 C77 1_555 1_555
C78 C77 1_555 1_555
H78 C78 1_555 1_555
C79 C78 1_555 1_555
H79 C79 1_555 1_555
C80 C79 1_555 1_555
H80 C80 1_555 1_555
C81 N49 1_555 1_555
C82 H81 1_555 1_555
C83 C82 1_555 1_555
H82 C83 1_555 1_555
C84 C83 1_555 1_555
C85 C84 1_555 1_555
C86 C85 1_555 1_555
H83 C86 1_555 1_555
C87 C86 1_555 1_555
H84 C87 1_555 1_555
C88 C87 1_555 1_555
H85 C88 1_555 1_555
C89 C88 1_555 1_555
H86 C89 1_555 1_555
C90 N50 1_555 1_555
C91 C84 1_555 1_555
H87 C91 1_555 1_555
C92 C75 1_555 1_555
H88 C92 1_555 1_555
C93 N49 1_555 1_555
H89 C93 1_555 1_555
H90 C93 1_555 1_555
C94 C93 1_555 1_555
H91 C94 1_555 1_555
H92 C94 1_555 1_555
C95 N51 1_555 1_555
H93 C95 1_555 1_555
H94 C95 1_555 1_555
C96 N50 1_555 1_555
H95 C96 1_555 1_555
H96 C96 1_555 1_555
C97 C96 1_555 1_555
H97 C97 1_555 1_555
H98 C97 1_555 1_555
C98 N52 1_555 1_555
H99 C98 1_555 1_555
H100 C98 1_555 1_555
H101 C8 1_555 1_555
H102 C8 1_555 1_555
H103 C16 1_555 1_555
H104 C16 1_555 1_555
O5B C1B 1_555 1_555
O6B C3B 1_555 1_555
O7B C5B 1_555 1_555
O8B C7B 1_555 1_555
O9B C9B 1_555 1_555
O10B C11B 1_555 1_555
O11B C13B 1_555 1_555
O12B C15B 1_555 1_555
N1B C1B 1_555 1_555
N2B C1B 1_555 1_555
N3B C2B 1_555 1_555
N4B C3B 1_555 1_555
N5B C4B 1_555 1_555
N6B C5B 1_555 1_555
N7B C6B 1_555 1_555
N8B C7B 1_555 1_555
N9B C17 1_555 1_555
N10B C18 1_555 1_555
N11B C19 1_555 1_555
N12B C20 1_555 1_555
N13B C21 1_555 1_555
N14B C22 1_555 1_555
N15B C23 1_555 1_555
N16B C24 1_555 1_555
C2B N2B 1_555 1_555
H1B C2B 1_555 1_555
H2B C2B 1_555 1_555
C3B N3B 1_555 1_555
C4B N4B 1_555 1_555
H3B C4B 1_555 1_555
H4B C4B 1_555 1_555
C5B N5B 1_555 1_555
C6B N6B 1_555 1_555
H5B C6B 1_555 1_555
H6B C6B 1_555 1_555
C7B N7B 1_555 1_555
C8B N8B 1_555 1_555
C9B N9B 1_555 1_555
C10B N10B 1_555 1_555
H7B C10B 1_555 1_555
H8B C10B 1_555 1_555
C11B N11B 1_555 1_555
C12B N12B 1_555 1_555
H9B C12B 1_555 1_555
H10B C12B 1_555 1_555
C13B N13B 1_555 1_555
C14B N14B 1_555 1_555
H11B C14B 1_555 1_555
H12B C14B 1_555 1_555
C15B N15B 1_555 1_555
C16B N1B 1_555 1_555
C17B N9 1_555 1_555
H13B C17B 1_555 1_555
C18B N10 1_555 1_555
H14B C18B 1_555 1_555
C19B N11 1_555 1_555
H15B C19B 1_555 1_555
C20B N12 1_555 1_555
H16B C20B 1_555 1_555
C21B N13 1_555 1_555
H17B C21B 1_555 1_555
C22B N14 1_555 1_555
H18B C22B 1_555 1_555
C23B N15 1_555 1_555
H19B C23B 1_555 1_555
C24B N16 1_555 1_555
H20B C24B 1_555 1_555
H101B C8B 1_555 1_555
H102B C8B 1_555 1_555
H103B C16B 1_555 1_555
H104B C16B 1_555 1_555
N16 C16 1_555 1_555
C17 C18 1_555 1_555
C19 C20 1_555 1_555
C21 C22 1_555 1_555
C23 C24 1_555 1_555
N32 C40 1_555 1_555
N33 C57 1_555 1_555
N34 C58 1_555 1_555
N35 C59 1_555 1_555
N36 C60 1_555 1_555
N37 C61 1_555 1_555
N38 C62 1_555 1_555
N39 C63 1_555 1_555
N40 C64 1_555 1_555
N41 C66 1_555 1_555
N42 C67 1_555 1_555
N43 C68 1_555 1_555
N44 C69 1_555 1_555
N45 C70 1_555 1_555
N46 C71 1_555 1_555
N47 C72 1_555 1_555
N48 C56 1_555 1_555
N48 C65 1_555 1_555
C57 C58 1_555 1_555
C59 C60 1_555 1_555
C61 C62 1_555 1_555
C63 C64 1_555 1_555
C65 C72 1_555 1_555
C66 C67 1_555 1_555
C68 C69 1_555 1_555
C70 C71 1_555 1_555
C76 C81 1_555 1_555
C80 C81 1_555 1_555
C85 C90 1_555 1_555
C89 C90 1_555 1_555
C91 C92 1_555 1_555
C94 C95 1_555 1_555
C97 C98 1_555 1_555
N1B C17B 1_555 1_555
N2B C18B 1_555 1_555
N3B C19B 1_555 1_555
N4B C20B 1_555 1_555
N5B C21B 1_555 1_555
N6B C22B 1_555 1_555
N7B C23B 1_555 1_555
N8B C24B 1_555 1_555
N9B C8B 1_555 1_555
N10B C9B 1_555 1_555
N11B C10B 1_555 1_555
N12B C11B 1_555 1_555
N13B C12B 1_555 1_555
N14B C13B 1_555 1_555
N15B C14B 1_555 1_555
N16B C15B 1_555 1_555
N16B C16B 1_555 1_555
C17B C18B 1_555 1_555
C19B C20B 1_555 1_555
C21B C22B 1_555 1_555
C23B C24B 1_555 1_555

#END
