
#######################################################################
#
#                 Cambridge Crystallographic Data Centre
#                                CCDC 
#
#######################################################################
#
# If this CIF has been generated from an entry in the Cambridge 
# Structural Database, then it will include bibliographic, chemical, 
# crystal, experimental, refinement or atomic coordinate data resulting 
# from the CCDC's data processing and validation procedures.
#
#######################################################################

data_REDPOF
_chemical_formula_moiety         'C30 H34 N4 O2'
_chemical_name_systematic        15-t-Butyl-15-hydroxy-15-iso-5-oxophlorin
_symmetry_cell_setting           triclinic
_symmetry_space_group_name_H-M   'P -1'
_symmetry_Int_Tables_number      2
_space_group_name_Hall           '-P 1'
loop_
_symmetry_equiv_pos_site_id
_symmetry_equiv_pos_as_xyz
1 x,y,z
2 -x,-y,-z
_cell_length_a                   10.154(2)
_cell_length_b                   11.344(2)
_cell_length_c                   12.285(3)
_cell_angle_alpha                82.63(3)
_cell_angle_beta                 66.93(3)
_cell_angle_gamma                78.37(3)
_cell_volume                     1273.27
_exptl_crystal_colour            green
_chemical_melting_point          244-246deg.C
_cell_formula_units_Z            2
loop_
_atom_site_label
_atom_site_type_symbol
_atom_site_fract_x
_atom_site_fract_y
_atom_site_fract_z
O1 O 0.0896(4) 0.7315(3) 0.8636(2)
O2 O 0.1586(4) 0.7318(3) 0.0631(2)
N1 N 0.2663(5) 0.7078(3) 0.5521(3)
N2 N -0.0182(4) 0.8340(3) 0.6176(3)
N3 N -0.0036(4) 0.8002(3) 0.3714(3)
N4 N 0.2804(6) 0.6686(3) 0.3056(3)
C1 C 0.4161(6) 0.6725(3) 0.4937(3)
C2 C 0.4912(7) 0.6650(3) 0.5725(3)
C3 C 0.6510(7) 0.6365(4) 0.5389(4)
C4 C 0.3849(7) 0.6910(3) 0.6822(3)
C5 C 0.4124(6) 0.6961(3) 0.7933(3)
C6 C 0.4096(7) 0.8243(4) 0.8203(4)
C7 C 0.2507(7) 0.7185(3) 0.6648(3)
C8 C 0.1074(6) 0.7562(4) 0.7578(3)
C9 C -0.0121(5) 0.8269(3) 0.7274(3)
C10 C -0.1338(5) 0.9046(3) 0.8002(3)
C11 C -0.1716(6) 0.9283(4) 0.9272(3)
C12 C -0.2754(6) 0.8479(4) 1.0124(4)
C13 C -0.2114(5) 0.9582(3) 0.7311(3)
C14 C -0.3508(5) 1.0468(3) 0.7715(4)
C15 C -0.1399(5) 0.9122(3) 0.6174(3)
C16 C -0.1794(5) 0.9418(3) 0.5188(3)
C17 C -0.1227(6) 0.8949(3) 0.4097(3)
C18 C -0.1742(6) 0.9354(4) 0.3154(4)
C19 C -0.0896(6) 0.8682(4) 0.2224(4)
C20 C 0.0126(6) 0.7838(3) 0.2621(3)
C21 C 0.1235(7) 0.6858(4) 0.1856(3)
C22 C 0.0577(8) 0.5652(4) 0.2069(4)
C23 C -0.0848(8) 0.5900(4) 0.1874(4)
C24 C 0.1658(7) 0.4727(4) 0.1187(4)
C25 C 0.0317(6) 0.5133(4) 0.3332(4)
C26 C 0.2650(7) 0.6641(3) 0.2022(3)
C27 C 0.4041(6) 0.6332(3) 0.1153(4)
C28 C 0.5024(7) 0.6209(3) 0.1697(3)
C29 C 0.4255(8) 0.6440(3) 0.2898(3)
C30 C 0.4820(5) 0.6456(3) 0.3747(3)
H1 H 0.1844(69) 0.7994(28) 0.0548(14)
H2 H 0.0461(4) 0.7945(3) 0.5566(3)
H3 H 0.2082(6) 0.6849(3) 0.3736(3)
H4 H 0.6969(7) 0.6972(14) 0.4793(18)
H5 H 0.6873(8) 0.5568(11) 0.5060(22)
H6 H 0.6741(7) 0.6369(24) 0.6091(6)
H7 H 0.5083(6) 0.6475(3) 0.7846(3)
H8 H 0.3378(6) 0.6597(3) 0.8610(3)
H9 H 0.4799(27) 0.8623(12) 0.7520(13)
H10 H 0.4351(38) 0.8222(4) 0.8898(20)
H11 H 0.3122(12) 0.8709(10) 0.8365(30)
H12 H -0.2168(6) 1.0138(4) 0.9406(3)
H13 H -0.0816(6) 0.9145(4) 0.9438(3)
H14 H -0.3030(25) 0.8703(18) 1.0938(4)
H15 H -0.2276(12) 0.7636(5) 1.0047(19)
H16 H -0.3624(14) 0.8581(19) 0.9936(16)
H17 H -0.3381(10) 1.1132(12) 0.8083(21)
H18 H -0.4283(8) 1.0062(6) 0.8294(18)
H19 H -0.3767(16) 1.0787(18) 0.7033(5)
H20 H -0.2594(5) 1.0054(3) 0.5297(3)
H21 H -0.2533(6) 0.9979(4) 0.3181(4)
H22 H -0.0955(6) 0.8747(4) 0.1466(4)
H23 H -0.0679(9) 0.6233(23) 0.1063(9)
H24 H -0.1550(12) 0.6479(19) 0.2437(16)
H25 H -0.1231(16) 0.5146(6) 0.1996(23)
H26 H 0.1866(31) 0.5073(13) 0.0375(4)
H27 H 0.1234(16) 0.3997(16) 0.1289(22)
H28 H 0.2560(15) 0.4522(24) 0.1335(21)
H29 H -0.0309(27) 0.5742(10) 0.3895(4)
H30 H 0.1248(7) 0.4900(24) 0.3432(8)
H31 H -0.0154(28) 0.4423(16) 0.3480(9)
H32 H 0.4263(6) 0.6227(3) 0.0341(4)
H33 H 0.6048(7) 0.6004(3) 0.1321(3)
H34 H 0.5846(5) 0.6246(3) 0.3471(3)
loop_
_geom_bond_atom_site_label_1
_geom_bond_atom_site_label_2
_geom_bond_site_symmetry_1
_geom_bond_site_symmetry_2
O1 C8 1_555 1_555
O2 C21 1_555 1_555
N1 C1 1_555 1_555
N2 C9 1_555 1_555
N3 C17 1_555 1_555
N4 C26 1_555 1_555
C1 C2 1_555 1_555
C2 C3 1_555 1_555
C3 H4 1_555 1_555
C4 C2 1_555 1_555
C5 C4 1_555 1_555
C6 C5 1_555 1_555
C7 N1 1_555 1_555
C8 C7 1_555 1_555
C9 C8 1_555 1_555
C10 C9 1_555 1_555
C11 C10 1_555 1_555
C12 C11 1_555 1_555
C13 C10 1_555 1_555
C14 C13 1_555 1_555
C15 N2 1_555 1_555
C16 C15 1_555 1_555
C17 C16 1_555 1_555
C18 C17 1_555 1_555
C19 C18 1_555 1_555
C20 N3 1_555 1_555
C21 C20 1_555 1_555
C22 C21 1_555 1_555
C23 C22 1_555 1_555
C24 C22 1_555 1_555
C25 C22 1_555 1_555
C26 C21 1_555 1_555
C27 C26 1_555 1_555
C28 C27 1_555 1_555
C29 N4 1_555 1_555
C30 C1 1_555 1_555
H1 O2 1_555 1_555
H2 N2 1_555 1_555
H3 N4 1_555 1_555
H5 C3 1_555 1_555
H6 C3 1_555 1_555
H7 C5 1_555 1_555
H8 C5 1_555 1_555
H9 C6 1_555 1_555
H10 C6 1_555 1_555
H11 C6 1_555 1_555
H12 C11 1_555 1_555
H13 C11 1_555 1_555
H14 C12 1_555 1_555
H15 C12 1_555 1_555
H16 C12 1_555 1_555
H17 C14 1_555 1_555
H18 C14 1_555 1_555
H19 C14 1_555 1_555
H20 C16 1_555 1_555
H21 C18 1_555 1_555
H22 C19 1_555 1_555
H23 C23 1_555 1_555
H24 C23 1_555 1_555
H25 C23 1_555 1_555
H26 C24 1_555 1_555
H27 C24 1_555 1_555
H28 C24 1_555 1_555
H29 C25 1_555 1_555
H30 C25 1_555 1_555
H31 C25 1_555 1_555
H32 C27 1_555 1_555
H33 C28 1_555 1_555
H34 C30 1_555 1_555
C4 C7 1_555 1_555
C13 C15 1_555 1_555
C19 C20 1_555 1_555
C28 C29 1_555 1_555
C29 C30 1_555 1_555

#END
