
#######################################################################
#
#                 Cambridge Crystallographic Data Centre
#                                CCDC 
#
#######################################################################
#
# If this CIF has been generated from an entry in the Cambridge 
# Structural Database, then it will include bibliographic, chemical, 
# crystal, experimental, refinement or atomic coordinate data resulting 
# from the CCDC's data processing and validation procedures.
#
#######################################################################

data_REDQOJ
_chemical_formula_moiety         'C15 H9 B1 Cl1 F2 N1 O1 S1'
_chemical_name_systematic        
3-(4-chlorophenyl)-1,1-difluoro-1H-10\l^5^,1\l^5^-[1,3,2]oxazaborinino[4,3-b][1,3]benzothiazole
_symmetry_cell_setting           monoclinic
_symmetry_space_group_name_H-M   'P 21/c'
_symmetry_Int_Tables_number      14
_space_group_name_Hall           '-P 2ybc'
loop_
_symmetry_equiv_pos_site_id
_symmetry_equiv_pos_as_xyz
1 x,y,z
2 -x,1/2+y,1/2-z
3 -x,-y,-z
4 x,1/2-y,1/2+z
_cell_length_a                   7.0287(6)
_cell_length_b                   12.5836(10)
_cell_length_c                   16.0730(17)
_cell_angle_alpha                90
_cell_angle_beta                 99.197(9)
_cell_angle_gamma                90
_cell_volume                     1403.32
_exptl_crystal_colour            yellow
_exptl_crystal_description       rod-like
_cell_formula_units_Z            4
loop_
_atom_site_label
_atom_site_type_symbol
_atom_site_fract_x
_atom_site_fract_y
_atom_site_fract_z
S1 S 0.10848(9) 0.26050(5) 0.24008(4)
Cl1 Cl 1.38169(9) 0.14530(7) 0.53071(5)
F1 F 0.41931(19) -0.06016(11) 0.15301(9)
O1 O 0.5724(2) 0.01385(12) 0.27828(10)
N1 N 0.2493(2) 0.07756(13) 0.21490(10)
F2 F 0.3036(2) -0.09650(11) 0.27279(9)
C1 C 0.2917(3) 0.16796(16) 0.25607(13)
C2 C 0.4700(3) 0.18441(17) 0.30858(14)
H1 H 0.4956 0.2487 0.3367
C3 C 0.7956(3) 0.11559(17) 0.37033(13)
C4 C 1.0218(3) 0.2118(2) 0.47260(14)
H2 H 1.0512 0.2701 0.5079
C5 C 0.9354(3) 0.03873(18) 0.36800(14)
H3 H 0.9073 -0.0200 0.3330
C6 C 0.6042(3) 0.10582(16) 0.31781(12)
C7 C 0.0629(3) 0.07777(17) 0.16734(13)
C8 C 1.1173(3) 0.0471(2) 0.41669(15)
H4 H 1.2101 -0.0050 0.4144
C9 C 0.8408(3) 0.20223(19) 0.42375(14)
H5 H 0.7485 0.2545 0.4268
C10 C -0.2219(3) 0.1872(2) 0.13223(15)
H6 H -0.2883 0.2502 0.1376
C11 C -0.0222(3) -0.0040(2) 0.11749(15)
H7 H 0.0423 -0.0677 0.1127
C12 C -0.2062(4) 0.0121(2) 0.07516(17)
H8 H -0.2660 -0.0415 0.0406
C13 C -0.0349(3) 0.17235(17) 0.17446(13)
C14 C 1.1566(3) 0.1342(2) 0.46814(14)
B1 B 0.3888(4) -0.01984(19) 0.22904(16)
C15 C -0.3045(4) 0.1061(2) 0.08265(17)
H9 H -0.4289 0.1141 0.0534
loop_
_geom_bond_atom_site_label_1
_geom_bond_atom_site_label_2
_geom_bond_site_symmetry_1
_geom_bond_site_symmetry_2
S1 C1 1_555 1_555
Cl1 C14 1_555 1_555
F1 B1 1_555 1_555
O1 C6 1_555 1_555
N1 C1 1_555 1_555
F2 B1 1_555 1_555
C1 C2 1_555 1_555
C2 H1 1_555 1_555
C3 C5 1_555 1_555
C4 H2 1_555 1_555
C5 H3 1_555 1_555
C6 C2 1_555 1_555
C7 N1 1_555 1_555
C8 C5 1_555 1_555
H4 C8 1_555 1_555
C9 C3 1_555 1_555
H5 C9 1_555 1_555
C10 H6 1_555 1_555
C11 C7 1_555 1_555
H7 C11 1_555 1_555
C12 C11 1_555 1_555
H8 C12 1_555 1_555
C13 S1 1_555 1_555
C14 C4 1_555 1_555
B1 O1 1_555 1_555
C15 C10 1_555 1_555
H9 C15 1_555 1_555
N1 B1 1_555 1_555
C3 C6 1_555 1_555
C4 C9 1_555 1_555
C7 C13 1_555 1_555
C8 C14 1_555 1_555
C10 C13 1_555 1_555
C12 C15 1_555 1_555

#END
