
#######################################################################
#
#                 Cambridge Crystallographic Data Centre
#                                CCDC 
#
#######################################################################
#
# If this CIF has been generated from an entry in the Cambridge 
# Structural Database, then it will include bibliographic, chemical, 
# crystal, experimental, refinement or atomic coordinate data resulting 
# from the CCDC's data processing and validation procedures.
#
#######################################################################

data_REFCEN
_chemical_formula_moiety         'C33 H34 Cl1 N1 O10'
_chemical_name_systematic        
"dimethyl 2-(4'-(3-chlorophenyl)-2'-isobutyl-5'-(methoxycarbonyl)-5'-(2-methoxy-2-oxoethyl)-1,3-dioxo-1,3-dihydro-1'H-spiro[indene-2,3'-pyrrolidin]-1'-yl)but-2-enedioate"
_symmetry_cell_setting           triclinic
_symmetry_space_group_name_H-M   'P -1'
_symmetry_Int_Tables_number      2
_space_group_name_Hall           '-P 1'
loop_
_symmetry_equiv_pos_site_id
_symmetry_equiv_pos_as_xyz
1 x,y,z
2 -x,-y,-z
_cell_length_a                   8.8161(14)
_cell_length_b                   10.5064(16)
_cell_length_c                   17.931(3)
_cell_angle_alpha                92.214(4)
_cell_angle_beta                 100.193(4)
_cell_angle_gamma                101.255(4)
_cell_volume                     1598.6
_exptl_crystal_colour            colorless
_exptl_crystal_description       block
_cell_formula_units_Z            2
loop_
_atom_site_label
_atom_site_type_symbol
_atom_site_fract_x
_atom_site_fract_y
_atom_site_fract_z
C1 C 0.5406(3) 0.8633(2) 0.12753(13)
C2 C 0.5821(3) 0.7822(2) 0.06810(13)
C3 C 0.5486(3) 0.7878(3) -0.01001(15)
H1 H 0.4970 0.8504 -0.0317
C4 C 0.5934(4) 0.6986(4) -0.05418(17)
H2 H 0.5709 0.6999 -0.1068
C5 C 0.6722(4) 0.6061(3) -0.02193(19)
H3 H 0.7021 0.5468 -0.0534
C6 C 0.7071(3) 0.6001(3) 0.05557(17)
H4 H 0.7596 0.5379 0.0771
C7 C 0.6610(3) 0.6904(2) 0.10026(14)
C8 C 0.6823(3) 0.7063(2) 0.18395(14)
C9 C 0.6200(3) 0.8268(2) 0.20546(12)
C10 C 0.7635(3) 0.9307(2) 0.24656(12)
H5 H 0.8297 0.8810 0.2782
C11 C 0.8691(3) 0.9999(2) 0.19658(13)
C12 C 0.8233(3) 1.0836(2) 0.14267(14)
H6 H 0.7234 1.1026 0.1374
C13 C 0.9247(3) 1.1384(3) 0.09718(15)
C14 C 1.0718(4) 1.1110(4) 0.1032(2)
H7 H 1.1382 1.1460 0.0709
C15 C 1.1193(4) 1.0321(4) 0.1567(2)
H8 H 1.2203 1.0154 0.1623
C16 C 1.0191(3) 0.9762(3) 0.20332(18)
H9 H 1.0535 0.9220 0.2396
C17 C 0.1159(4) 0.6060(3) 0.15475(18)
H10 H 0.0552 0.6055 0.1942
H11 H 0.0842 0.5242 0.1249
H12 H 0.0986 0.6750 0.1228
C18 C 0.2899(3) 0.6271(2) 0.19011(14)
H13 H 0.3497 0.6301 0.1488
C19 C 0.3220(4) 0.5139(3) 0.23664(19)
H14 H 0.2710 0.5131 0.2797
H15 H 0.4334 0.5235 0.2538
H16 H 0.2819 0.4336 0.2057
C20 C 0.3403(3) 0.7581(2) 0.23633(13)
H17 H 0.3058 0.8238 0.2047
H18 H 0.2856 0.7541 0.2789
C21 C 0.5161(3) 0.8022(2) 0.26706(12)
H19 H 0.5515 0.7360 0.2990
C22 C 0.7024(3) 1.0131(2) 0.30453(12)
C23 C 0.6730(3) 1.1423(2) 0.27327(14)
C24 C 0.7875(5) 1.3614(3) 0.2636(2)
H20 H 0.7644 1.3538 0.2090
H21 H 0.8846 1.4229 0.2810
H22 H 0.7040 1.3908 0.2825
C25 C 0.8228(3) 1.0433(2) 0.38085(14)
H23 H 0.9263 1.0758 0.3694
H24 H 0.7960 1.1127 0.4099
C26 C 0.8331(3) 0.9317(2) 0.43013(15)
C27 C 0.8901(4) 0.7202(3) 0.43710(18)
H25 H 0.9653 0.7440 0.4837
H26 H 0.9237 0.6578 0.4066
H27 H 0.7891 0.6828 0.4483
C28 C 0.4655(3) 0.9579(2) 0.36575(13)
C29 C 0.4491(4) 1.0980(3) 0.37495(15)
C30 C 0.2724(5) 1.2378(3) 0.3564(3)
H28 H 0.3043 1.2721 0.4084
H29 H 0.1621 1.2355 0.3399
H30 H 0.3315 1.2923 0.3252
C31 C 0.3847(3) 0.8771(2) 0.40758(14)
H31 H 0.3122 0.9106 0.4302
C32 C 0.3957(3) 0.7446(2) 0.42204(13)
C33 C 0.2739(5) 0.5596(3) 0.4751(2)
H32 H 0.2918 0.5024 0.4360
H33 H 0.1755 0.5242 0.4898
H34 H 0.3577 0.5681 0.5184
Cl1 Cl 0.8637(9) 1.2555(6) 0.0360(5)
N1 N 0.5534(2) 0.92779(17) 0.31327(10)
O1 O 0.4576(2) 0.94167(17) 0.11619(9)
O2 O 0.7411(2) 0.63927(17) 0.22881(11)
O3 O 0.5515(2) 1.15665(17) 0.23560(10)
O4 O 0.8020(2) 1.23560(16) 0.29121(11)
O5 O 0.8108(3) 0.9306(2) 0.49372(11)
O6 O 0.8786(2) 0.83426(18) 0.39619(10)
O7 O 0.5533(3) 1.18694(18) 0.40135(12)
O8 O 0.3013(3) 1.10876(18) 0.34966(12)
O9 O 0.5042(3) 0.69198(18) 0.41585(10)
O10 O 0.2690(2) 0.68432(18) 0.44731(11)
Cl2? Cl 0.8736(15) 1.232(2) 0.0267(10)
loop_
_geom_bond_atom_site_label_1
_geom_bond_atom_site_label_2
_geom_bond_site_symmetry_1
_geom_bond_site_symmetry_2
C1 C2 1_555 1_555
C2 C3 1_555 1_555
C3 H1 1_555 1_555
C4 C3 1_555 1_555
H2 C4 1_555 1_555
C5 C4 1_555 1_555
H3 C5 1_555 1_555
C6 C5 1_555 1_555
H4 C6 1_555 1_555
C7 C2 1_555 1_555
C8 C7 1_555 1_555
C9 C1 1_555 1_555
C10 C9 1_555 1_555
H5 C10 1_555 1_555
C11 C10 1_555 1_555
C12 C11 1_555 1_555
H6 C12 1_555 1_555
C13 C12 1_555 1_555
C14 C13 1_555 1_555
H7 C14 1_555 1_555
C15 C14 1_555 1_555
H8 C15 1_555 1_555
C16 C11 1_555 1_555
H9 C16 1_555 1_555
C17 H10 1_555 1_555
H11 C17 1_555 1_555
H12 C17 1_555 1_555
C18 C17 1_555 1_555
H13 C18 1_555 1_555
C19 C18 1_555 1_555
H14 C19 1_555 1_555
H15 C19 1_555 1_555
H16 C19 1_555 1_555
C20 C18 1_555 1_555
H17 C20 1_555 1_555
H18 C20 1_555 1_555
C21 C9 1_555 1_555
H19 C21 1_555 1_555
C22 C10 1_555 1_555
C23 C22 1_555 1_555
C24 H20 1_555 1_555
H21 C24 1_555 1_555
H22 C24 1_555 1_555
C25 C22 1_555 1_555
H23 C25 1_555 1_555
H24 C25 1_555 1_555
C26 C25 1_555 1_555
C27 H25 1_555 1_555
H26 C27 1_555 1_555
H27 C27 1_555 1_555
C28 C29 1_555 1_555
C29 O7 1_555 1_555
C30 H28 1_555 1_555
H29 C30 1_555 1_555
H30 C30 1_555 1_555
C31 C28 1_555 1_555
H31 C31 1_555 1_555
C32 C31 1_555 1_555
C33 H32 1_555 1_555
H33 C33 1_555 1_555
H34 C33 1_555 1_555
Cl1 C13 1_555 1_555
N1 C21 1_555 1_555
O1 C1 1_555 1_555
O2 C8 1_555 1_555
O3 C23 1_555 1_555
O4 C23 1_555 1_555
O5 C26 1_555 1_555
O6 C26 1_555 1_555
O8 C29 1_555 1_555
O9 C32 1_555 1_555
O10 C32 1_555 1_555
C6 C7 1_555 1_555
C8 C9 1_555 1_555
C15 C16 1_555 1_555
C20 C21 1_555 1_555
C22 N1 1_555 1_555
C24 O4 1_555 1_555
C27 O6 1_555 1_555
C28 N1 1_555 1_555
C30 O8 1_555 1_555
C33 O10 1_555 1_555

#END
