
#######################################################################
#
#                 Cambridge Crystallographic Data Centre
#                                CCDC 
#
#######################################################################
#
# If this CIF has been generated from an entry in the Cambridge 
# Structural Database, then it will include bibliographic, chemical, 
# crystal, experimental, refinement or atomic coordinate data resulting 
# from the CCDC's data processing and validation procedures.
#
#######################################################################

data_REFFAK
_chemical_formula_moiety         'C28 H46 N4 O6'
_chemical_name_systematic        
N'^1^,N'^3^-Diacetyl-4,6-bis(octyloxy)isophthalohydrazide
_symmetry_cell_setting           monoclinic
_symmetry_space_group_name_H-M   'C 2/c'
_symmetry_Int_Tables_number      15
_space_group_name_Hall           '-C 2yn'
loop_
_symmetry_equiv_pos_site_id
_symmetry_equiv_pos_as_xyz
1 x,y,z
2 1/2+x,1/2+y,z
3 -x,y,1/2-z
4 1/2-x,1/2+y,1/2-z
5 -x,-y,-z
6 1/2-x,1/2-y,-z
7 x,-y,1/2+z
8 1/2+x,1/2-y,1/2+z
_cell_length_a                   28.56(2)
_cell_length_b                   14.706(10)
_cell_length_c                   15.859(11)
_cell_angle_alpha                90
_cell_angle_beta                 113.10(2)
_cell_angle_gamma                90
_cell_volume                     6126.78
_exptl_crystal_colour            colorless
_exptl_crystal_description       block
_chemical_melting_point          201-2deg.C
_cell_formula_units_Z            8
loop_
_atom_site_label
_atom_site_type_symbol
_atom_site_fract_x
_atom_site_fract_y
_atom_site_fract_z
O1 O 0.2580(3) 1.1212(4) 0.4922(5)
O2 O 0.2641(2) 0.8893(3) 0.6952(4)
O3 O 0.1888(2) 0.9061(3) 0.4140(3)
O4 O 0.1341(2) 0.5967(4) 0.4111(4)
O5 O 0.2129(2) 0.5894(3) 0.6925(4)
O6 O 0.1209(3) 0.3617(5) 0.4886(5)
N1 N 0.2698(3) 1.0508(4) 0.6234(5)
H1 H 0.2822 1.0496 0.6823
N2 N 0.2429(3) 0.9789(4) 0.5720(4)
H2 H 0.2262 0.9853 0.5140
N3 N 0.1677(3) 0.5093(4) 0.5684(5)
H3 H 0.1500 0.5089 0.5102
N4 N 0.1731(3) 0.4303(4) 0.6177(5)
H4 H 0.1907 0.4274 0.6758
C1 C 0.3041(4) 1.2023(6) 0.6331(6)
H5 H 0.3346 1.2122 0.6227
H6 H 0.3128 1.1899 0.6969
H7 H 0.2831 1.2556 0.6156
C2 C 0.2757(4) 1.1230(6) 0.5772(7)
C3 C 0.2425(3) 0.8994(5) 0.6117(6)
C4 C 0.2127(3) 0.8247(5) 0.5524(5)
C5 C 0.1864(3) 0.8265(5) 0.4556(5)
C6 C 0.1604(3) 0.7509(5) 0.4094(5)
H8 H 0.1428 0.7532 0.3461
C7 C 0.1599(3) 0.6725(5) 0.4556(5)
C8 C 0.1851(3) 0.6675(5) 0.5516(5)
C9 C 0.2099(3) 0.7451(5) 0.5946(5)
H9 H 0.2262 0.7432 0.6581
C10 C 0.1890(3) 0.5848(5) 0.6083(6)
C11 C 0.1490(4) 0.3586(6) 0.5688(8)
C12 C 0.1612(4) 0.2711(6) 0.6219(7)
H10 H 0.1357 0.2264 0.5909
H11 H 0.1619 0.2812 0.6822
H12 H 0.1938 0.2497 0.6265
C13 C 0.1637(4) 0.9142(5) 0.3172(6)
H13 H 0.1277 0.9006 0.2981
H14 H 0.1781 0.8718 0.2872
C14 C 0.1706(4) 1.0112(5) 0.2912(6)
H15 H 0.1635 1.0520 0.3328
H16 H 0.2061 1.0193 0.3011
C15 C 0.1384(7) 1.0403(9) 0.1941(8)
H17 H 0.1086 1.0699 0.1966
H18 H 0.1575 1.0873 0.1787
C16 C 0.1198(7) 0.9795(9) 0.1160(9)
H19 H 0.1006 0.9307 0.1285
H20 H 0.1486 0.9525 0.1072
C17 C 0.0860(5) 1.0284(10) 0.0280(9)
H21 H 0.0504 1.0279 0.0195
H22 H 0.0970 1.0904 0.0259
C18 C 0.0958(7) 0.9683(14) -0.0398(15)
H23 H 0.1040 1.0064 -0.0820
H24 H 0.1254 0.9310 -0.0070
C19 C 0.0529(7) 0.9076(14) -0.0937(14)
H25 H 0.0246 0.9444 -0.1331
H26 H 0.0418 0.8743 -0.0521
C20 C 0.0674(7) 0.8399(12) -0.1527(12)
H27 H 0.0381 0.8048 -0.1890
H28 H 0.0936 0.8000 -0.1138
H29 H 0.0798 0.8724 -0.1924
C21 C 0.1098(4) 0.5939(5) 0.3123(5)
H30 H 0.1342 0.6070 0.2853
H31 H 0.0824 0.6381 0.2900
C22 C 0.0891(4) 0.4984(6) 0.2883(6)
H32 H 0.0619 0.4888 0.3095
H33 H 0.1158 0.4547 0.3191
C23 C 0.0690(5) 0.4832(7) 0.1852(6)
H34 H 0.0401 0.5231 0.1561
H35 H 0.0952 0.5011 0.1641
C24 C 0.0527(5) 0.3865(7) 0.1531(7)
H36 H 0.0256 0.3684 0.1720
H37 H 0.0812 0.3457 0.1821
C25 C 0.0341(6) 0.3774(9) 0.0489(8)
H38 H 0.0041 0.4150 0.0213
H39 H 0.0602 0.4022 0.0306
C26 C 0.0213(7) 0.2838(10) 0.0090(10)
H40 H -0.0067 0.2601 0.0224
H41 H 0.0505 0.2445 0.0387
C27 C 0.0067(7) 0.2800(10) -0.0946(9)
H42 H -0.0172 0.3290 -0.1223
H43 H 0.0370 0.2926 -0.1061
C28 C -0.0165(8) 0.1931(12) -0.1441(14)
H44 H 0.0068 0.1437 -0.1190
H45 H -0.0235 0.1995 -0.2081
H46 H -0.0477 0.1808 -0.1364
loop_
_geom_bond_atom_site_label_1
_geom_bond_atom_site_label_2
_geom_bond_site_symmetry_1
_geom_bond_site_symmetry_2
O1 C2 1_555 1_555
O2 C3 1_555 1_555
O3 C5 1_555 1_555
O4 C7 1_555 1_555
O5 C10 1_555 1_555
O6 C11 1_555 1_555
N1 H1 1_555 1_555
N2 N1 1_555 1_555
H2 N2 1_555 1_555
N3 H3 1_555 1_555
N4 N3 1_555 1_555
H4 N4 1_555 1_555
C1 H5 1_555 1_555
H6 C1 1_555 1_555
H7 C1 1_555 1_555
C2 N1 1_555 1_555
C3 N2 1_555 1_555
C4 C3 1_555 1_555
C5 C4 1_555 1_555
C6 C5 1_555 1_555
H8 C6 1_555 1_555
C7 C6 1_555 1_555
C8 C7 1_555 1_555
C9 C4 1_555 1_555
H9 C9 1_555 1_555
C10 N3 1_555 1_555
C11 N4 1_555 1_555
C12 C11 1_555 1_555
H10 C12 1_555 1_555
H11 C12 1_555 1_555
H12 C12 1_555 1_555
C13 O3 1_555 1_555
H13 C13 1_555 1_555
H14 C13 1_555 1_555
C14 C13 1_555 1_555
H15 C14 1_555 1_555
H16 C14 1_555 1_555
C15 C14 1_555 1_555
H17 C15 1_555 1_555
H18 C15 1_555 1_555
C16 C15 1_555 1_555
H19 C16 1_555 1_555
H20 C16 1_555 1_555
C17 C16 1_555 1_555
H21 C17 1_555 1_555
H22 C17 1_555 1_555
C18 C17 1_555 1_555
H23 C18 1_555 1_555
H24 C18 1_555 1_555
C19 C18 1_555 1_555
H25 C19 1_555 1_555
H26 C19 1_555 1_555
C20 C19 1_555 1_555
H27 C20 1_555 1_555
H28 C20 1_555 1_555
H29 C20 1_555 1_555
C21 O4 1_555 1_555
H30 C21 1_555 1_555
H31 C21 1_555 1_555
C22 C21 1_555 1_555
H32 C22 1_555 1_555
H33 C22 1_555 1_555
C23 C22 1_555 1_555
H34 C23 1_555 1_555
H35 C23 1_555 1_555
C24 C23 1_555 1_555
H36 C24 1_555 1_555
H37 C24 1_555 1_555
C25 C24 1_555 1_555
H38 C25 1_555 1_555
H39 C25 1_555 1_555
C26 C25 1_555 1_555
H40 C26 1_555 1_555
H41 C26 1_555 1_555
C27 C26 1_555 1_555
H42 C27 1_555 1_555
H43 C27 1_555 1_555
C28 C27 1_555 1_555
H44 C28 1_555 1_555
H45 C28 1_555 1_555
H46 C28 1_555 1_555
C1 C2 1_555 1_555
C8 C9 1_555 1_555
C8 C10 1_555 1_555

#END
