
#######################################################################
#
#                 Cambridge Crystallographic Data Centre
#                                CCDC 
#
#######################################################################
#
# If this CIF has been generated from an entry in the Cambridge 
# Structural Database, then it will include bibliographic, chemical, 
# crystal, experimental, refinement or atomic coordinate data resulting 
# from the CCDC's data processing and validation procedures.
#
#######################################################################

data_REFMUM
_chemical_formula_moiety         'C26 H38 N2 O8'
_chemical_name_systematic        
3,6,9,12,20,23,26,29-Octaoxa-35,36-diazatricyclo[29.3.1.1^14,18^]hexatriaconta-1(35),14(36),15,17,31,33-hexaene
_symmetry_cell_setting           monoclinic
_symmetry_space_group_name_H-M   'P 21/n'
_symmetry_Int_Tables_number      14
_space_group_name_Hall           '-P 2yn'
loop_
_symmetry_equiv_pos_site_id
_symmetry_equiv_pos_as_xyz
1 x,y,z
2 1/2-x,1/2+y,1/2-z
3 -x,-y,-z
4 1/2+x,1/2-y,1/2+z
_cell_length_a                   9.6985(10)
_cell_length_b                   10.3040(11)
_cell_length_c                   13.4209(14)
_cell_angle_alpha                90
_cell_angle_beta                 99.185(2)
_cell_angle_gamma                90
_cell_volume                     1324
_exptl_crystal_colour            colorless
_cell_formula_units_Z            2
loop_
_atom_site_label
_atom_site_type_symbol
_atom_site_fract_x
_atom_site_fract_y
_atom_site_fract_z
O1 O 0.40813(10) 0.67680(9) 1.04388(7)
O2 O 0.09534(11) 0.65347(10) 0.96256(7)
O3 O -0.08988(10) 0.85877(10) 0.87981(8)
O4 O -0.08819(10) 1.09873(9) 0.77776(8)
N1 N 0.74736(12) 0.74787(10) 1.16752(9)
C1 C 0.84085(15) 0.84444(13) 1.17927(10)
C2 C 0.80508(15) 0.97253(13) 1.15756(10)
H1 H 0.8726 1.0374 1.1661
C3 C 0.66767(16) 1.00159(14) 1.12313(11)
H2 H 0.6407 1.0869 1.1082
C4 C 0.57018(15) 0.90360(13) 1.11087(10)
H3 H 0.4767 0.9215 1.0872
C5 C 0.61401(14) 0.77741(13) 1.13461(9)
C6 C 0.51423(15) 0.66618(15) 1.12888(11)
H4 H 0.5647 0.5855 1.1250
H5 H 0.4721 0.6639 1.1897
C7 C 0.31569(16) 0.56994(15) 1.03946(12)
H6 H 0.2697 0.5706 1.0986
H7 H 0.3685 0.4899 1.0402
C8 C 0.20845(16) 0.57419(15) 0.94690(11)
H8 H 0.2499 0.6081 0.8911
H9 H 0.1751 0.4870 0.9295
C9 C -0.01837(16) 0.63980(14) 0.88310(10)
H10 H -0.0529 0.5514 0.8817
H11 H 0.0127 0.6570 0.8192
C10 C -0.13294(15) 0.73101(14) 0.89635(11)
H12 H -0.2162 0.7101 0.8488
H13 H -0.1550 0.7232 0.9641
C11 C -0.19887(16) 0.95078(16) 0.87416(12)
H14 H -0.2458 0.9427 0.9325
H15 H -0.2668 0.9360 0.8139
C12 C -0.13760(18) 1.08246(15) 0.87117(12)
H16 H -0.2077 1.1476 0.8779
H17 H -0.0611 1.0928 0.9267
C13 C 0.01201(17) 1.19802(17) 0.77978(16)
H18 H -0.0133 1.2689 0.8208
H19 H 0.0097 1.2307 0.7117
O1B O 0.59187(10) 1.32320(9) 0.95612(7)
O2B O 0.90466(11) 1.34653(10) 1.03744(7)
O3B O 1.08988(10) 1.14123(10) 1.12019(8)
O4B O 1.08819(10) 0.90127(9) 1.22224(8)
N1B N 0.25264(12) 1.25213(10) 0.83248(9)
C1B C 0.15915(15) 1.15556(13) 0.82073(10)
C2B C 0.19492(15) 1.02747(13) 0.84244(10)
H1B H 0.1274 0.9626 0.8339
C3B C 0.33233(16) 0.99841(14) 0.87687(11)
H2B H 0.3593 0.9131 0.8918
C4B C 0.42982(15) 1.09640(13) 0.88913(10)
H3B H 0.5233 1.0785 0.9128
C5B C 0.38599(14) 1.22259(13) 0.86539(9)
C6B C 0.48577(15) 1.33382(15) 0.87112(11)
H4B H 0.4353 1.4145 0.8750
H5B H 0.5279 1.3361 0.8103
C7B C 0.68431(16) 1.43006(15) 0.96054(12)
H6B H 0.7303 1.4294 0.9014
H7B H 0.6315 1.5101 0.9598
C8B C 0.79155(16) 1.42581(15) 1.05310(11)
H8B H 0.7501 1.3919 1.1089
H9B H 0.8249 1.5130 1.0705
C9B C 1.01837(16) 1.36020(14) 1.11690(10)
H10B H 1.0529 1.4486 1.1183
H11B H 0.9873 1.3430 1.1808
C10B C 1.13294(15) 1.26899(14) 1.10365(11)
H12B H 1.2162 1.2899 1.1512
H13B H 1.1550 1.2768 1.0359
C11B C 1.19887(16) 1.04922(16) 1.12584(12)
H14B H 1.2458 1.0573 1.0675
H15B H 1.2668 1.0640 1.1861
C12B C 1.13760(18) 0.91754(15) 1.12883(12)
H16B H 1.2077 0.8524 1.1221
H17B H 1.0611 0.9072 1.0733
C13B C 0.98799(17) 0.80198(17) 1.22022(16)
H18B H 1.0133 0.7311 1.1792
H19B H 0.9903 0.7693 1.2883
loop_
_geom_bond_atom_site_label_1
_geom_bond_atom_site_label_2
_geom_bond_site_symmetry_1
_geom_bond_site_symmetry_2
O1 C6 1_555 1_555
O2 C8 1_555 1_555
O3 C10 1_555 1_555
O4 C12 1_555 1_555
N1 C1 1_555 1_555
C1 C2 1_555 1_555
C2 H1 1_555 1_555
C3 C2 1_555 1_555
H2 C3 1_555 1_555
C4 C3 1_555 1_555
H3 C4 1_555 1_555
C5 N1 1_555 1_555
C6 C5 1_555 1_555
H4 C6 1_555 1_555
H5 C6 1_555 1_555
C7 O1 1_555 1_555
H6 C7 1_555 1_555
H7 C7 1_555 1_555
C8 C7 1_555 1_555
H8 C8 1_555 1_555
H9 C8 1_555 1_555
C9 O2 1_555 1_555
H10 C9 1_555 1_555
H11 C9 1_555 1_555
C10 C9 1_555 1_555
H12 C10 1_555 1_555
H13 C10 1_555 1_555
C11 O3 1_555 1_555
H14 C11 1_555 1_555
H15 C11 1_555 1_555
C12 C11 1_555 1_555
H16 C12 1_555 1_555
H17 C12 1_555 1_555
C13 O4 1_555 1_555
H18 C13 1_555 1_555
H19 C13 1_555 1_555
O1B C6B 1_555 1_555
O2B C8B 1_555 1_555
O3B C10B 1_555 1_555
O4B C12B 1_555 1_555
N1B C1B 1_555 1_555
C1B C13 1_555 1_555
C2B C1B 1_555 1_555
H1B C2B 1_555 1_555
C3B C2B 1_555 1_555
H2B C3B 1_555 1_555
C4B C3B 1_555 1_555
H3B C4B 1_555 1_555
C5B N1B 1_555 1_555
C6B C5B 1_555 1_555
H4B C6B 1_555 1_555
H5B C6B 1_555 1_555
C7B O1B 1_555 1_555
H6B C7B 1_555 1_555
H7B C7B 1_555 1_555
C8B C7B 1_555 1_555
H8B C8B 1_555 1_555
H9B C8B 1_555 1_555
C9B O2B 1_555 1_555
H10B C9B 1_555 1_555
H11B C9B 1_555 1_555
C10B C9B 1_555 1_555
H12B C10B 1_555 1_555
H13B C10B 1_555 1_555
C11B O3B 1_555 1_555
H14B C11B 1_555 1_555
H15B C11B 1_555 1_555
C12B C11B 1_555 1_555
H16B C12B 1_555 1_555
H17B C12B 1_555 1_555
C13B C1 1_555 1_555
H18B C13B 1_555 1_555
H19B C13B 1_555 1_555
C4 C5 1_555 1_555
O4B C13B 1_555 1_555
C4B C5B 1_555 1_555

#END
