
#######################################################################
#
#                 Cambridge Crystallographic Data Centre
#                                CCDC 
#
#######################################################################
#
# If this CIF has been generated from an entry in the Cambridge 
# Structural Database, then it will include bibliographic, chemical, 
# crystal, experimental, refinement or atomic coordinate data resulting 
# from the CCDC's data processing and validation procedures.
#
#######################################################################

data_REFNUL
_chemical_formula_moiety         'C40 H48 O4'
_chemical_name_systematic        
11,17-Di-t-butyl-2-ethyl-25,26,27,28-tetrahydroxy-5,23-dimethylcalix(4)arene
_symmetry_cell_setting           monoclinic
_symmetry_space_group_name_H-M   'P 21/c'
_symmetry_Int_Tables_number      14
_space_group_name_Hall           '-P 2ybc'
loop_
_symmetry_equiv_pos_site_id
_symmetry_equiv_pos_as_xyz
1 x,y,z
2 -x,1/2+y,1/2-z
3 -x,-y,-z
4 x,1/2-y,1/2+z
_cell_length_a                   15.798(3)
_cell_length_b                   17.551(3)
_cell_length_c                   12.897(2)
_cell_angle_alpha                90
_cell_angle_beta                 108.83(1)
_cell_angle_gamma                90
_cell_volume                     3384.58
_exptl_crystal_colour            colorless
_chemical_melting_point          333-334deg.C
_cell_formula_units_Z            4
loop_
_atom_site_label
_atom_site_type_symbol
_atom_site_fract_x
_atom_site_fract_y
_atom_site_fract_z
C1 C 0.5617(2) 0.58688(14) 0.0359(2)
C2 C 0.5547(2) 0.58054(14) 0.1408(2)
C3 C 0.4850(2) 0.61383(13) 0.1685(2)
C4 C 0.4761(2) 0.60345(14) 0.2830(2)
C5 C 0.4253(2) 0.52973(13) 0.2864(2)
C6 C 0.4697(2) 0.46032(15) 0.3162(2)
C7 C 0.4257(2) 0.39242(15) 0.3205(2)
C8 C 0.3328(2) 0.39408(15) 0.2905(2)
C9 C 0.2850(2) 0.46160(14) 0.2584(2)
C10 C 0.1837(2) 0.4603(2) 0.2208(2)
C11 C 0.14244(15) 0.45203(14) 0.0970(2)
C12 C 0.1304(2) 0.3796(2) 0.0492(2)
C13 C 0.0941(2) 0.36873(14) -0.0636(2)
C14 C 0.0701(2) 0.4339(2) -0.1287(2)
C15 C 0.08117(15) 0.50704(14) -0.0848(2)
C16 C 0.0560(2) 0.57650(15) -0.1596(2)
C17 C 0.1309(2) 0.59930(13) -0.2028(2)
C18 C 0.1313(2) 0.57353(15) -0.3042(2)
C19 C 0.1996(2) 0.59059(14) -0.3468(2)
C20 C 0.2713(2) 0.63300(14) -0.2810(2)
C21 C 0.2746(2) 0.66029(13) -0.1775(2)
C22 C 0.3547(2) 0.70629(15) -0.1083(2)
C23 C 0.4238(2) 0.66139(13) -0.0195(2)
C24 C 0.4957(2) 0.62676(15) -0.0425(2)
C25 C 0.4209(2) 0.65475(13) 0.0874(2)
C26 C 0.3323(2) 0.52908(13) 0.2581(2)
C27 C 0.11774(15) 0.51516(14) 0.0286(2)
C28 C 0.2021(2) 0.64499(13) -0.1416(2)
C29 C 0.6395(2) 0.5510(2) 0.0093(3)
C30 C 0.4770(2) 0.3196(2) 0.3574(3)
C31 C 0.0808(2) 0.2893(2) -0.1144(2)
C32 C 0.0923(8) 0.2291(3) -0.0411(5)
C33 C 0.1447(8) 0.2767(4) -0.1710(12)
C34 C -0.0020(6) 0.2809(3) -0.1968(7)
C35 C 0.1915(2) 0.5636(2) -0.4628(2)
C36 C 0.2723(2) 0.5872(2) -0.4957(3)
C37 C 0.1828(3) 0.4772(2) -0.4696(3)
C38 C 0.1087(2) 0.6005(3) -0.5440(3)
C39 C 0.5665(2) 0.6066(2) 0.3773(2)
C40 C 0.6116(2) 0.6842(2) 0.3888(3)
H1 H 0.5978(18) 0.5527(15) 0.1951(23)
H2 H 0.4402(17) 0.6481(15) 0.2944(21)
H3 H 0.5393(19) 0.4588(15) 0.3395(22)
H4 H 0.2996(17) 0.3450(15) 0.2925(20)
H5 H 0.1572(16) 0.5071(14) 0.2389(19)
H6 H 0.1656(16) 0.4141(14) 0.2553(20)
H7 H 0.3094(44) 0.6959(29) 0.0671(53)
H8 H 0.1476(15) 0.3378(14) 0.0955(19)
H10 H 0.0458(17) 0.4301(15) -0.2068(23)
H11 H 0.0035(16) 0.5617(14) -0.2242(20)
H12 H 0.0382(17) 0.6212(16) -0.1181(22)
H13 H 0.0821(16) 0.5430(14) -0.3462(20)
H14 H 0.3205(16) 0.6451(13) -0.3065(19)
H16 H 0.3089(34) 0.6279(30) 0.2091(41)
H17 H 0.3904(18) 0.7264(16) -0.1548(22)
H18 H 0.3321(17) 0.7501(15) -0.0786(21)
H19 H 0.4966(17) 0.6333(15) -0.1202(22)
H20 H 0.6376(38) 0.5636(34) -0.0592(51)
H21 H 0.6918(35) 0.5669(30) 0.0562(44)
H22 H 0.6358(37) 0.4964(37) 0.0107(46)
H23 H 0.5051(23) 0.2986(21) 0.3065(30)
H24 H 0.4385(22) 0.2810(19) 0.3658(26)
H25 H 0.5174(8) 0.3274(8) 0.4238(10)
H26 H 0.1781(51) 0.5868(34) 0.1302(64)
H28 H 0.0844(8) 0.1833(8) -0.0718(10)
H29 H 0.1546(8) 0.2341(8) 0.0140(10)
H30 H 0.0540(8) 0.2357(8) 0.0082(10)
H31 H 0.1350(8) 0.2352(8) -0.2102(10)
H32 H 0.1291(8) 0.3230(8) -0.2337(10)
H33 H 0.2017(8) 0.2910(8) -0.1288(10)
H34 H -0.0195(8) 0.2348(8) -0.2256(10)
H35 H -0.0573(8) 0.2937(8) -0.1603(10)
H36 H -0.0200(8) 0.3220(8) -0.2524(10)
H37 H 0.2764(21) 0.6438(20) -0.4929(26)
H38 H 0.3286(22) 0.5631(19) -0.4456(28)
H39 H 0.2627(21) 0.5691(19) -0.5713(29)
H40 H 0.1164(24) 0.4633(19) -0.4605(28)
H41 H 0.2342(24) 0.4500(19) -0.4118(29)
H42 H 0.1791(24) 0.4563(20) -0.5431(32)
H43 H 0.1194(25) 0.6658(25) -0.5353(32)
H44 H 0.0528(26) 0.5812(21) -0.5269(31)
H45 H 0.0961(20) 0.5842(17) -0.6275(28)
H46 H 0.5555(19) 0.5946(16) 0.4504(25)
H47 H 0.6097(17) 0.5679(15) 0.3657(21)
H48 H 0.6646(22) 0.6834(18) 0.4599(27)
H49 H 0.5706(25) 0.7268(22) 0.4011(29)
H50 H 0.6275(23) 0.6974(20) 0.3199(31)
H51 H 0.2505(48) 0.6853(31) 0.0032(53)
O1 O 0.35320(14) 0.69171(12) 0.1153(2)
O2 O 0.28512(15) 0.59674(12) 0.2312(2)
O3 O 0.12817(14) 0.58813(11) 0.0729(2)
O4 O 0.2000(2) 0.67689(12) -0.0443(2)
H9? H 0.3430(44) 0.6616(41) 0.1532(60)
H15? H 0.2259(62) 0.5891(39) 0.1831(70)
H27? H 0.1363(49) 0.6273(48) 0.0322(72)
H52? H 0.1661(35) 0.6540(28) -0.0176(41)
loop_
_geom_bond_atom_site_label_1
_geom_bond_atom_site_label_2
_geom_bond_site_symmetry_1
_geom_bond_site_symmetry_2
C1 C2 1_555 1_555
C2 C3 1_555 1_555
C3 C4 1_555 1_555
C4 C5 1_555 1_555
C5 C6 1_555 1_555
C6 C7 1_555 1_555
C7 C8 1_555 1_555
C8 C9 1_555 1_555
C9 C10 1_555 1_555
C10 C11 1_555 1_555
C11 C12 1_555 1_555
C12 C13 1_555 1_555
C13 C14 1_555 1_555
C14 C15 1_555 1_555
C15 C16 1_555 1_555
C16 C17 1_555 1_555
C17 C18 1_555 1_555
C18 C19 1_555 1_555
C19 C20 1_555 1_555
C20 C21 1_555 1_555
C21 C22 1_555 1_555
C22 C23 1_555 1_555
C23 C24 1_555 1_555
C24 C1 1_555 1_555
C25 C3 1_555 1_555
C26 C5 1_555 1_555
C27 C11 1_555 1_555
C28 C17 1_555 1_555
C29 C1 1_555 1_555
C30 C7 1_555 1_555
C31 C13 1_555 1_555
C32 C31 1_555 1_555
C33 C31 1_555 1_555
C34 C31 1_555 1_555
C35 C19 1_555 1_555
C36 C35 1_555 1_555
C37 C35 1_555 1_555
C38 C35 1_555 1_555
C39 C4 1_555 1_555
C40 C39 1_555 1_555
H1 C2 1_555 1_555
H2 C4 1_555 1_555
H3 C6 1_555 1_555
H4 C8 1_555 1_555
H5 C10 1_555 1_555
H6 C10 1_555 1_555
H7 O1 1_555 1_555
H8 C12 1_555 1_555
H10 C14 1_555 1_555
H11 C16 1_555 1_555
H12 C16 1_555 1_555
H13 C18 1_555 1_555
H14 C20 1_555 1_555
H16 O2 1_555 1_555
H17 C22 1_555 1_555
H18 C22 1_555 1_555
H19 C24 1_555 1_555
H20 C29 1_555 1_555
H21 C29 1_555 1_555
H22 C29 1_555 1_555
H23 C30 1_555 1_555
H24 C30 1_555 1_555
H25 C30 1_555 1_555
H26 O3 1_555 1_555
H28 C32 1_555 1_555
H29 C32 1_555 1_555
H30 C32 1_555 1_555
H31 C33 1_555 1_555
H32 C33 1_555 1_555
H33 C33 1_555 1_555
H34 C34 1_555 1_555
H35 C34 1_555 1_555
H36 C34 1_555 1_555
H37 C36 1_555 1_555
H38 C36 1_555 1_555
H39 C36 1_555 1_555
H40 C37 1_555 1_555
H41 C37 1_555 1_555
H42 C37 1_555 1_555
H43 C38 1_555 1_555
H44 C38 1_555 1_555
H45 C38 1_555 1_555
H46 C39 1_555 1_555
H47 C39 1_555 1_555
H48 C40 1_555 1_555
H49 C40 1_555 1_555
H50 C40 1_555 1_555
H51 O4 1_555 1_555
O1 C25 1_555 1_555
O2 C26 1_555 1_555
O3 C27 1_555 1_555
O4 C28 1_555 1_555
C9 C26 1_555 1_555
C15 C27 1_555 1_555
C21 C28 1_555 1_555
C23 C25 1_555 1_555

#END
