
#######################################################################
#
#                 Cambridge Crystallographic Data Centre
#                                CCDC 
#
#######################################################################
#
# If this CIF has been generated from an entry in the Cambridge 
# Structural Database, then it will include bibliographic, chemical, 
# crystal, experimental, refinement or atomic coordinate data resulting 
# from the CCDC's data processing and validation procedures.
#
#######################################################################

data_REFPAT
_chemical_formula_moiety         'C46 H44 O4,4(C5 H5 N1)'
_chemical_name_systematic        
cis-25,26,27,28-Tetrahydroxy-5,11,17,23-tetramethyl-2,14-bis(4-tolyl)calix(4)arene
_symmetry_cell_setting           monoclinic
_symmetry_space_group_name_H-M   'P 21/c'
_symmetry_Int_Tables_number      14
_space_group_name_Hall           '-P 2ybc'
loop_
_symmetry_equiv_pos_site_id
_symmetry_equiv_pos_as_xyz
1 x,y,z
2 -x,1/2+y,1/2-z
3 -x,-y,-z
4 x,1/2-y,1/2+z
_cell_length_a                   26.172(7)
_cell_length_b                   11.307(3)
_cell_length_c                   19.456(2)
_cell_angle_alpha                90
_cell_angle_beta                 107.18(2)
_cell_angle_gamma                90
_cell_volume                     5500.66
_exptl_crystal_colour            colorless
_chemical_melting_point          '382deg.C (dec)'
_cell_formula_units_Z            4
loop_
_atom_site_label
_atom_site_type_symbol
_atom_site_fract_x
_atom_site_fract_y
_atom_site_fract_z
O1 O 0.7831(1) 0.5959(2) 0.5606(2)
O2 O 0.7996(1) 0.8617(2) 0.5977(1)
O3 O 0.7033(1) 0.8395(3) 0.4972(2)
O4 O 0.6794(1) 0.5636(2) 0.4864(2)
C1 C 0.8200(2) 0.5328(4) 0.5384(2)
C2 C 0.8066(2) 0.4363(4) 0.4928(2)
C3 C 0.8474(2) 0.3774(4) 0.4745(2)
C4 C 0.9006(2) 0.4119(4) 0.5007(3)
C5 C 0.9124(2) 0.5089(4) 0.5463(2)
C6 C 0.8728(2) 0.5715(3) 0.5657(2)
C7 C 0.8848(2) 0.6806(4) 0.6140(2)
C8 C 0.8355(2) 0.8690(4) 0.5586(2)
C9 C 0.8778(2) 0.7911(4) 0.5664(2)
C10 C 0.9120(2) 0.8115(4) 0.5247(3)
C11 C 0.9049(2) 0.9033(4) 0.4756(3)
C12 C 0.8610(2) 0.9757(4) 0.4679(2)
C13 C 0.8256(2) 0.9603(3) 0.5068(2)
C14 C 0.7759(2) 1.0355(3) 0.4937(2)
C15 C 0.6986(2) 0.8976(4) 0.4340(2)
C16 C 0.7314(2) 0.9925(4) 0.4294(2)
C17 C 0.7226(2) 1.0475(4) 0.3630(3)
C18 C 0.6833(2) 1.0095(4) 0.3018(3)
C19 C 0.6515(2) 0.9161(4) 0.3091(2)
C20 C 0.6582(2) 0.8575(3) 0.3741(2)
C21 C 0.6257(2) 0.7481(3) 0.3799(2)
C22 C 0.6824(2) 0.5606(4) 0.4163(3)
C23 C 0.6553(2) 0.6405(4) 0.3638(3)
C24 C 0.6602(2) 0.6232(4) 0.2953(3)
C25 C 0.6899(2) 0.5345(4) 0.2787(3)
C26 C 0.7185(2) 0.4611(4) 0.3331(3)
C27 C 0.7155(2) 0.4725(4) 0.4028(3)
C28 C 0.7490(2) 0.3945(4) 0.4618(3)
C29 C 0.9437(2) 0.3465(5) 0.4795(3)
C30 C 0.9369(2) 0.6716(4) 0.6739(2)
C31 C 0.9455(2) 0.5778(5) 0.7189(3)
C32 C 0.9900(2) 0.5702(5) 0.7783(3)
C33 C 1.0279(2) 0.6522(5) 0.7956(3)
C34 C 1.0195(3) 0.7465(6) 0.7521(4)
C35 C 0.9747(3) 0.7558(5) 0.6917(4)
C36 C 1.0750(2) 0.6438(6) 0.8624(3)
C37 C 0.9415(2) 0.9200(5) 0.4296(3)
C38 C 0.6769(2) 1.0669(5) 0.2299(3)
C39 C 0.5675(2) 0.7556(4) 0.3362(2)
C40 C 0.5389(2) 0.8594(4) 0.3337(3)
C41 C 0.4860(2) 0.8694(4) 0.2943(3)
C42 C 0.4580(2) 0.7752(4) 0.2566(3)
C43 C 0.4850(2) 0.6709(4) 0.2619(3)
C44 C 0.5385(2) 0.6614(4) 0.3006(3)
C45 C 0.4011(2) 0.7899(5) 0.2100(4)
C46 C 0.6925(2) 0.5177(5) 0.2013(3)
H1 H 0.7402 0.5818 0.5388
H2 H 0.8154 0.8082 0.6458
H3 H 0.7403 0.8427 0.5439
H4 H 0.6491 0.6039 0.4972
H5 H 0.8386 0.3113 0.4431
H6 H 0.9486 0.5334 0.5650
H7 H 0.8573 0.6842 0.6368
H8 H 0.9416 0.7600 0.5302
H9 H 0.8552 1.0387 0.4341
H10 H 0.7639 1.0328 0.5352
H11 H 0.7846 1.1147 0.4852
H12 H 0.7442 1.1133 0.3593
H13 H 0.6239 0.8907 0.2681
H14 H 0.6264 0.7420 0.4289
H15 H 0.6419 0.6757 0.2581
H16 H 0.7407 0.4016 0.3227
H17 H 0.7495 0.3172 0.4429
H18 H 0.7329 0.3922 0.4996
H19 H 0.9284 0.2821 0.4491
H20 H 0.9606 0.3986 0.4546
H21 H 0.9695 0.3175 0.5214
H22 H 0.9201 0.5153 0.7094
H23 H 0.9938 0.5025 0.8083
H24 H 1.0448 0.8092 0.7627
H25 H 0.9709 0.8240 0.6621
H26 H 1.0627 0.6418 0.9037
H27 H 1.0946 0.5736 0.8606
H28 H 1.0976 0.7106 0.8651
H29 H 0.9696 0.8635 0.4428
H30 H 0.9219 0.9097 0.3804
H31 H 0.9563 0.9975 0.4366
H32 H 0.7021 1.1291 0.2353
H33 H 0.6827 1.0098 0.1972
H34 H 0.6417 1.0980 0.2119
H35 H 0.5565 0.9260 0.3601
H36 H 0.4683 0.9432 0.2931
H37 H 0.4666 0.6028 0.2383
H38 H 0.5557 0.5869 0.3027
H39 H 0.3795 0.8148 0.2389
H40 H 0.3997 0.8476 0.1741
H41 H 0.3882 0.7166 0.1878
H42 H 0.6578 0.5004 0.1704
H43 H 0.7054 0.5882 0.1856
H44 H 0.7160 0.4542 0.2001
N1 N 0.8247(2) 0.7961(4) 0.7345(2)
C47 C 0.7878(3) 0.7364(5) 0.7534(4)
C48 C 0.7836(3) 0.7318(7) 0.8206(6)
C49 C 0.8173(4) 0.7926(8) 0.8699(4)
C50 C 0.8573(4) 0.8562(6) 0.8579(5)
C51 C 0.8595(3) 0.8545(6) 0.7848(5)
H45 H 0.7624 0.6934 0.7171
H46 H 0.7567 0.6854 0.8315
H47 H 0.8137 0.7923 0.9171
H48 H 0.8822 0.8991 0.8949
H49 H 0.8870 0.8971 0.7730
N2 N 0.6013(2) 0.6533(6) 0.5375(3)
C52 C 0.5952(3) 0.7576(7) 0.5645(4)
C53 C 0.5630(4) 0.775(1) 0.6055(5)
C54 C 0.5341(4) 0.685(1) 0.6203(5)
C55 C 0.5405(4) 0.579(1) 0.5949(6)
C56 C 0.5740(4) 0.5657(7) 0.5525(4)
H50 H 0.6145 0.8231 0.5543
H51 H 0.5604 0.8519 0.6244
H52 H 0.5101 0.6976 0.6480
H53 H 0.5220 0.5131 0.6058
H54 H 0.5774 0.4896 0.5336
N3 N 0.8390(2) 0.3035(6) 0.8135(3)
C57 C 0.8296(3) 0.4014(6) 0.7710(5)
C58 C 0.8111(3) 0.3936(8) 0.6969(5)
C59 C 0.8033(3) 0.286(1) 0.6663(5)
C60 C 0.8142(3) 0.1836(8) 0.7093(6)
C61 C 0.8329(3) 0.1982(6) 0.7824(5)
N4 N 0.4311(4) 0.5759(7) 1.0101(6)
C62 C 0.4454(3) 0.638(1) 0.9594(5)
C63 C 0.4154(5) 0.728(1) 0.9273(5)
C64 C 0.3683(4) 0.7543(8) 0.9457(6)
C65 C 0.3571(3) 0.6891(8) 0.9978(5)
C66 C 0.3884(4) 0.6060(9) 1.0281(5)
loop_
_geom_bond_atom_site_label_1
_geom_bond_atom_site_label_2
_geom_bond_site_symmetry_1
_geom_bond_site_symmetry_2
O1 C1 1_555 1_555
O2 C8 1_555 1_555
O3 C15 1_555 1_555
O4 C22 1_555 1_555
C1 C2 1_555 1_555
C2 C3 1_555 1_555
C3 C4 1_555 1_555
C4 C5 1_555 1_555
C5 C6 1_555 1_555
C6 C1 1_555 1_555
C7 C6 1_555 1_555
C8 C9 1_555 1_555
C9 C7 1_555 1_555
C10 C9 1_555 1_555
C11 C10 1_555 1_555
C12 C11 1_555 1_555
C13 C8 1_555 1_555
C14 C13 1_555 1_555
C15 C16 1_555 1_555
C16 C14 1_555 1_555
C17 C16 1_555 1_555
C18 C17 1_555 1_555
C19 C18 1_555 1_555
C20 C15 1_555 1_555
C21 C20 1_555 1_555
C22 C23 1_555 1_555
C23 C21 1_555 1_555
C24 C23 1_555 1_555
C25 C24 1_555 1_555
C26 C25 1_555 1_555
C27 C22 1_555 1_555
C28 C2 1_555 1_555
C29 C4 1_555 1_555
C30 C7 1_555 1_555
C31 C30 1_555 1_555
C32 C31 1_555 1_555
C33 C32 1_555 1_555
C34 C33 1_555 1_555
C35 C30 1_555 1_555
C36 C33 1_555 1_555
C37 C11 1_555 1_555
C38 C18 1_555 1_555
C39 C21 1_555 1_555
C40 C39 1_555 1_555
C41 C40 1_555 1_555
C42 C41 1_555 1_555
C43 C42 1_555 1_555
C44 C39 1_555 1_555
C45 C42 1_555 1_555
C46 C25 1_555 1_555
H1 O1 1_555 1_555
H2 O2 1_555 1_555
H3 O3 1_555 1_555
H4 O4 1_555 1_555
H5 C3 1_555 1_555
H6 C5 1_555 1_555
H7 C7 1_555 1_555
H8 C10 1_555 1_555
H9 C12 1_555 1_555
H10 C14 1_555 1_555
H11 C14 1_555 1_555
H12 C17 1_555 1_555
H13 C19 1_555 1_555
H14 C21 1_555 1_555
H15 C24 1_555 1_555
H16 C26 1_555 1_555
H17 C28 1_555 1_555
H18 C28 1_555 1_555
H19 C29 1_555 1_555
H20 C29 1_555 1_555
H21 C29 1_555 1_555
H22 C31 1_555 1_555
H23 C32 1_555 1_555
H24 C34 1_555 1_555
H25 C35 1_555 1_555
H26 C36 1_555 1_555
H27 C36 1_555 1_555
H28 C36 1_555 1_555
H29 C37 1_555 1_555
H30 C37 1_555 1_555
H31 C37 1_555 1_555
H32 C38 1_555 1_555
H33 C38 1_555 1_555
H34 C38 1_555 1_555
H35 C40 1_555 1_555
H36 C41 1_555 1_555
H37 C43 1_555 1_555
H38 C44 1_555 1_555
H39 C45 1_555 1_555
H40 C45 1_555 1_555
H41 C45 1_555 1_555
H42 C46 1_555 1_555
H43 C46 1_555 1_555
H44 C46 1_555 1_555
N1 C47 1_555 1_555
C47 C48 1_555 1_555
C48 C49 1_555 1_555
C49 C50 1_555 1_555
C50 C51 1_555 1_555
C51 N1 1_555 1_555
H45 C47 1_555 1_555
H46 C48 1_555 1_555
H47 C49 1_555 1_555
H48 C50 1_555 1_555
H49 C51 1_555 1_555
N2 C52 1_555 1_555
C52 C53 1_555 1_555
C53 C54 1_555 1_555
C54 C55 1_555 1_555
C55 C56 1_555 1_555
C56 N2 1_555 1_555
H50 C52 1_555 1_555
H51 C53 1_555 1_555
H52 C54 1_555 1_555
H53 C55 1_555 1_555
H54 C56 1_555 1_555
N3 C57 1_555 1_555
C57 C58 1_555 1_555
C58 C59 1_555 1_555
C59 C60 1_555 1_555
C60 C61 1_555 1_555
C61 N3 1_555 1_555
N4 C62 1_555 1_555
C62 C63 1_555 1_555
C63 C64 1_555 1_555
C64 C65 1_555 1_555
C65 C66 1_555 1_555
C66 N4 1_555 1_555
C12 C13 1_555 1_555
C19 C20 1_555 1_555
C26 C27 1_555 1_555
C27 C28 1_555 1_555
C34 C35 1_555 1_555
C43 C44 1_555 1_555

#END
