
#######################################################################
#
#                 Cambridge Crystallographic Data Centre
#                                CCDC 
#
#######################################################################
#
# If this CIF has been generated from an entry in the Cambridge 
# Structural Database, then it will include bibliographic, chemical, 
# crystal, experimental, refinement or atomic coordinate data resulting 
# from the CCDC's data processing and validation procedures.
#
#######################################################################

data_REFVUT01
_chemical_formula_moiety         'C58 H66 O6'
_chemical_name_systematic        
out,out-1,18-Dimethyl-6,13,23,30,39,46-hexaoxaoctacyclo(16.16.16.2^2,5^.2^14,17^.2^19,22^.2^31,34^.2^35,38^.2^42,50^)dohexaconta-2,4,14,16,19,21,31,33,35,37,47,49,51,53,55,57,59,61-octadecaene
_symmetry_cell_setting           rhombohedral
_symmetry_space_group_name_H-M   'R -3 c'
_symmetry_Int_Tables_number      167
_space_group_name_Hall           '-R 3 2"c'
loop_
_symmetry_equiv_pos_site_id
_symmetry_equiv_pos_as_xyz
1 x,y,z
2 -y,x-y,z
3 -x+y,-x,z
4 y,x,1/2-z
5 2/3+x,1/3+y,1/3+z
6 2/3-y,1/3+x-y,1/3+z
7 2/3-x+y,1/3-x,1/3+z
8 2/3+y,1/3+x,5/6-z
9 1/3+x,2/3+y,2/3+z
10 1/3+y,2/3+x,1/6-z
11 -x+y,y,1/2+z
12 x,x-y,1/2+z
13 2/3+y,1/3-x+y,1/3-z
14 2/3+x-y,1/3+x,1/3-z
15 2/3-x+y,1/3+y,5/6+z
16 2/3+x,1/3+x-y,5/6+z
17 1/3-x+y,2/3+y,1/6+z
18 1/3+x,2/3+x-y,1/6+z
19 -x,-y,-z
20 y,-x+y,-z
21 x-y,x,-z
22 -y,-x,1/2+z
23 1/3-x,2/3-y,2/3-z
24 1/3+y,2/3-x+y,2/3-z
25 1/3+x-y,2/3+x,2/3-z
26 1/3-y,2/3-x,1/6+z
27 2/3-x,1/3-y,1/3-z
28 2/3-y,1/3-x,5/6+z
29 x-y,-y,1/2-z
30 -x,-x+y,1/2-z
31 1/3-y,2/3+x-y,2/3+z
32 1/3-x+y,2/3-x,2/3+z
33 1/3+x-y,2/3-y,1/6-z
34 1/3-x,2/3-x+y,1/6-z
35 2/3+x-y,1/3-y,5/6-z
36 2/3-x,1/3-x+y,5/6-z
_cell_length_a                   14.012(1)
_cell_length_b                   14.012(1)
_cell_length_c                   43.791(5)
_cell_angle_alpha                90
_cell_angle_beta                 90
_cell_angle_gamma                120.00
_cell_volume                     7445.88
_exptl_crystal_colour            colorless
_exptl_crystal_description       plates
_cell_formula_units_Z            6
loop_
_atom_site_label
_atom_site_type_symbol
_atom_site_fract_x
_atom_site_fract_y
_atom_site_fract_z
C1 C 0.6667 0.3333 0.00439(7)
C2 C 0.55135(13) 0.30285(14) 0.01584(4)
C3 C 0.49297(16) 0.34810(16) 0.00279(5)
H1 H 0.5243 0.3965 -0.0135
C4 C 0.38983(16) 0.32419(18) 0.01306(5)
H2 H 0.3528 0.3557 0.0036
C5 C 0.34245(15) 0.25344(15) 0.03738(5)
C6 C 0.39990(15) 0.20941(17) 0.05129(5)
H3 H 0.3695 0.1629 0.0680
C7 C 0.50211(15) 0.23377(16) 0.04060(5)
H4 H 0.5393 0.2029 0.0503
O1 O 0.24045(11) 0.22182(12) 0.04920(4)
C8 C 0.17123(17) 0.2518(2) 0.03301(5)
H5 H 0.1510 0.2150 0.0134
H6 H 0.2093 0.3308 0.0296
C9 C 0.06956(18) 0.2170(2) 0.05228(6)
H7 H 0.0314 0.1377 0.0549
H8 H 0.0203 0.2355 0.0416
C10 C 0.09568(16) 0.27132(16) 0.08345(5)
H9 H 0.0270 0.2463 0.0944
H10 H 0.1386 0.2463 0.0948
C11 C 0.6667 0.3333 -0.03106(7)
H11 H 0.6580 0.3932 -0.0384
H12 H 0.6068 0.2649 -0.0384
H13 H 0.7351 0.3420 -0.0384
C10FA C 0.15769(23) 0.39535(16) 0.08322(5)
C9FA C 0.18589(27) 0.4497(2) 0.11439(6)
C8FA C 0.25276(26) 0.4149(2) 0.13366(5)
O1FA O 0.35196(16) 0.44485(12) 0.11747(4)
C5FA C 0.42234(21) 0.41323(15) 0.12929(5)
C4FA C 0.39897(24) 0.34248(18) 0.15361(5)
C3FA C 0.47820(23) 0.31857(16) 0.16388(5)
C2FA C 0.58183(19) 0.36382(14) 0.15083(4)
C1FA C 0.6667 0.3334 0.16228(7)
C2GA C 0.78198(13) 0.41817(19) 0.15083(4)
C3GA C 0.84036(16) 0.52180(23) 0.16388(5)
H1GA H 0.8090 0.5389 0.1802
C4GA C 0.94350(16) 0.60103(24) 0.15361(5)
H2GA H 0.9805 0.6696 0.1631
C5GA C 0.99088(15) 0.57766(21) 0.12929(5)
C6GA C 0.93343(15) 0.47618(23) 0.11538(5)
H3GA H 0.9638 0.4601 0.0987
C7GA C 0.83122(15) 0.39833(22) 0.12607(5)
H4GA H 0.7940 0.3303 0.1164
O1GA O 1.09288(11) 0.64804(16) 0.11747(4)
C8GA C 1.16210(17) 0.74724(26) 0.13366(5)
H5GA H 1.1823 0.7307 0.1533
H6GA H 1.1240 0.7882 0.1371
C9GA C 1.26377(18) 0.81411(27) 0.11439(6)
H7GA H 1.3019 0.7730 0.1118
H8GA H 1.3130 0.8819 0.1251
C10GA C 1.23765(16) 0.84231(23) 0.08322(5)
C10B C 1.17564(23) 0.90432(16) 0.08345(5)
C9B C 1.14744(27) 0.93044(18) 0.05228(6)
C8B C 1.08057(26) 0.82877(17) 0.03301(5)
O1B O 0.98137(16) 0.75955(11) 0.04920(4)
C5B C 0.91099(21) 0.65755(15) 0.03738(5)
C4B C 0.93436(24) 0.61017(16) 0.01306(5)
C3B C 0.85513(23) 0.50703(16) 0.00279(5)
C2B C 0.75150(19) 0.44865(13) 0.01584(4)
C2A C 0.69715(14) 0.24850(19) 0.01584(4)
C3A C 0.65190(16) 0.14487(23) 0.00279(5)
H1A H 0.6035 0.1278 -0.0135
C4A C 0.67581(18) 0.06564(24) 0.01306(5)
H2A H 0.6443 -0.0029 0.0036
C5A C 0.74656(15) 0.08901(21) 0.03738(5)
C6A C 0.79059(17) 0.19049(23) 0.05129(5)
H3A H 0.8371 0.2066 0.0680
C7A C 0.76623(16) 0.26834(22) 0.04060(5)
H4A H 0.7971 0.3364 0.0503
O1A O 0.77818(12) 0.01863(16) 0.04920(4)
C8A C 0.7482(2) -0.08057(26) 0.03301(5)
H5A H 0.7850 -0.0640 0.0134
H6A H 0.6692 -0.1215 0.0296
C9A C 0.7830(2) -0.14744(27) 0.05228(6)
H7A H 0.8623 -0.1063 0.0549
H8A H 0.7645 -0.2152 0.0416
C10A C 0.72868(16) -0.17564(23) 0.08345(5)
C10I C 0.60465(16) -0.23765(16) 0.08322(5)
C9I C 0.5503(2) -0.26377(18) 0.11439(6)
C8I C 0.5851(2) -0.16210(17) 0.13366(5)
O1I O 0.55515(12) -0.09288(11) 0.11747(4)
C5I C 0.58677(15) 0.00912(15) 0.12929(5)
C4I C 0.65752(18) 0.05650(16) 0.15361(5)
C3I C 0.68143(16) 0.15964(16) 0.16388(5)
C2I C 0.63618(14) 0.21802(13) 0.15083(4)
C11FA C 0.6667 0.3334 0.19773(7)
H11FA H 0.5981 0.2735 0.2051
H11GA H 0.6753 0.4019 0.2051
H11I H 0.7265 0.3247 0.2051
C7I C 0.56710(16) 0.16878(15) 0.12607(5)
C6I C 0.54274(17) 0.06657(15) 0.11538(5)
H3I H 0.4962 0.0362 0.0987
H4I H 0.5362 0.2060 0.1164
H1I H 0.7298 0.1910 0.1802
H2I H 0.6890 0.0195 0.1631
H5I H 0.5483 -0.1823 0.1533
H6I H 0.6641 -0.1240 0.1371
H7I H 0.4710 -0.3019 0.1118
H8I H 0.5688 -0.3130 0.1251
H9I H 0.5796 -0.3063 0.0723
H10I H 0.5796 -0.1947 0.0719
H9A H 0.7537 -0.2193 0.0944
H10A H 0.7537 -0.1077 0.0948
C7B C 0.73166(22) 0.49789(15) 0.04060(5)
C6B C 0.80951(23) 0.60010(15) 0.05129(5)
H3B H 0.7934 0.6305 0.0680
H4B H 0.6636 0.4607 0.0503
H1B H 0.8722 0.4757 -0.0135
H2B H 1.0029 0.6472 0.0036
H5B H 1.0640 0.8490 0.0134
H6B H 1.1215 0.7907 0.0296
H7B H 1.1063 0.9686 0.0549
H8B H 1.2152 0.9797 0.0416
H9B H 1.2193 0.9730 0.0944
H10B H 1.1077 0.8614 0.0948
H9GA H 1.3063 0.8860 0.0723
H10GA H 1.1947 0.7744 0.0719
C7FA C 0.60167(22) 0.43290(16) 0.12607(5)
C6FA C 0.52382(23) 0.45726(17) 0.11538(5)
H3FA H 0.5399 0.5038 0.0987
H4FA H 0.6697 0.4638 0.1164
H1FA H 0.4611 0.2702 0.1802
H2FA H 0.3304 0.3110 0.1631
H5FA H 0.2693 0.4517 0.1533
H6FA H 0.2118 0.3359 0.1371
H7FA H 0.2270 0.5290 0.1118
H8FA H 0.1181 0.4312 0.1251
H9FA H 0.1140 0.4204 0.0723
H10FA H 0.2256 0.4204 0.0719
loop_
_geom_bond_atom_site_label_1
_geom_bond_atom_site_label_2
_geom_bond_site_symmetry_1
_geom_bond_site_symmetry_2
C1 C2 1_555 1_555
C2 C3 1_555 1_555
C3 H1 1_555 1_555
C4 C3 1_555 1_555
H2 C4 1_555 1_555
C5 C4 1_555 1_555
C6 C5 1_555 1_555
H3 C6 1_555 1_555
C7 C2 1_555 1_555
H4 C7 1_555 1_555
O1 C5 1_555 1_555
C8 O1 1_555 1_555
H5 C8 1_555 1_555
H6 C8 1_555 1_555
C9 C8 1_555 1_555
H7 C9 1_555 1_555
H8 C9 1_555 1_555
C10 C9 1_555 1_555
H9 C10 1_555 1_555
H10 C10 1_555 1_555
C11 C1 1_555 1_555
H11 C11 1_555 1_555
H12 C11 1_555 1_555
H13 C11 1_555 1_555
C10FA C10 1_555 1_555
C9FA C10FA 1_555 1_555
C8FA C9FA 1_555 1_555
O1FA C8FA 1_555 1_555
C5FA O1FA 1_555 1_555
C4FA C5FA 1_555 1_555
C3FA C4FA 1_555 1_555
C2FA C3FA 1_555 1_555
C1FA C2FA 1_555 1_555
C2GA C1FA 1_555 1_555
C3GA C2GA 1_555 1_555
H1GA C3GA 1_555 1_555
C4GA C3GA 1_555 1_555
H2GA C4GA 1_555 1_555
C5GA C4GA 1_555 1_555
C6GA C5GA 1_555 1_555
H3GA C6GA 1_555 1_555
C7GA C2GA 1_555 1_555
H4GA C7GA 1_555 1_555
O1GA C5GA 1_555 1_555
C8GA O1GA 1_555 1_555
H5GA C8GA 1_555 1_555
H6GA C8GA 1_555 1_555
C9GA C8GA 1_555 1_555
H7GA C9GA 1_555 1_555
H8GA C9GA 1_555 1_555
C10GA C9GA 1_555 1_555
C10B C10GA 1_555 1_555
C9B C10B 1_555 1_555
C8B C9B 1_555 1_555
O1B C8B 1_555 1_555
C5B O1B 1_555 1_555
C4B C5B 1_555 1_555
C3B C4B 1_555 1_555
C2B C1 1_555 1_555
C2A C1 1_555 1_555
C3A C2A 1_555 1_555
H1A C3A 1_555 1_555
C4A C3A 1_555 1_555
H2A C4A 1_555 1_555
C5A C4A 1_555 1_555
C6A C5A 1_555 1_555
H3A C6A 1_555 1_555
C7A C2A 1_555 1_555
H4A C7A 1_555 1_555
O1A C5A 1_555 1_555
C8A O1A 1_555 1_555
H5A C8A 1_555 1_555
H6A C8A 1_555 1_555
C9A C8A 1_555 1_555
H7A C9A 1_555 1_555
H8A C9A 1_555 1_555
C10A C9A 1_555 1_555
C10I C10A 1_555 1_555
C9I C10I 1_555 1_555
C8I C9I 1_555 1_555
O1I C8I 1_555 1_555
C5I O1I 1_555 1_555
C4I C5I 1_555 1_555
C3I C4I 1_555 1_555
C2I C1FA 1_555 1_555
C11FA C1FA 1_555 1_555
H11FA C11FA 1_555 1_555
H11GA C11FA 1_555 1_555
H11I C11FA 1_555 1_555
C7I C2I 1_555 1_555
C6I C5I 1_555 1_555
H3I C6I 1_555 1_555
H4I C7I 1_555 1_555
H1I C3I 1_555 1_555
H2I C4I 1_555 1_555
H5I C8I 1_555 1_555
H6I C8I 1_555 1_555
H7I C9I 1_555 1_555
H8I C9I 1_555 1_555
H9I C10I 1_555 1_555
H10I C10I 1_555 1_555
H9A C10A 1_555 1_555
H10A C10A 1_555 1_555
C7B C2B 1_555 1_555
C6B C5B 1_555 1_555
H3B C6B 1_555 1_555
H4B C7B 1_555 1_555
H1B C3B 1_555 1_555
H2B C4B 1_555 1_555
H5B C8B 1_555 1_555
H6B C8B 1_555 1_555
H7B C9B 1_555 1_555
H8B C9B 1_555 1_555
H9B C10B 1_555 1_555
H10B C10B 1_555 1_555
H9GA C10GA 1_555 1_555
H10GA C10GA 1_555 1_555
C7FA C2FA 1_555 1_555
C6FA C5FA 1_555 1_555
H3FA C6FA 1_555 1_555
H4FA C7FA 1_555 1_555
H1FA C3FA 1_555 1_555
H2FA C4FA 1_555 1_555
H5FA C8FA 1_555 1_555
H6FA C8FA 1_555 1_555
H7FA C9FA 1_555 1_555
H8FA C9FA 1_555 1_555
H9FA C10FA 1_555 1_555
H10FA C10FA 1_555 1_555
C6 C7 1_555 1_555
C6GA C7GA 1_555 1_555
C3B C2B 1_555 1_555
C6A C7A 1_555 1_555
C3I C2I 1_555 1_555
C7I C6I 1_555 1_555
C7B C6B 1_555 1_555
C7FA C6FA 1_555 1_555

#END
