
#######################################################################
#
#                 Cambridge Crystallographic Data Centre
#                                CCDC 
#
#######################################################################
#
# If this CIF has been generated from an entry in the Cambridge 
# Structural Database, then it will include bibliographic, chemical, 
# crystal, experimental, refinement or atomic coordinate data resulting 
# from the CCDC's data processing and validation procedures.
#
#######################################################################

data_REFVUT
_chemical_formula_moiety         'C58 H66 O6'
_chemical_name_systematic        
out,out-1,18-Dimethyl-6,13,23,30,39,46-hexaoxaoctacyclo(16.16.16.2^2,5^.2^14,17^.2^19,22^.2^31,34^.2^35,38^.2^42,50^)dohexaconta-2,4,14,16,19,21,31,33,35,37,47,49,51,53,55,57,59,61-octadecaene
_symmetry_cell_setting           rhombohedral
_symmetry_space_group_name_H-M   'R -3 c'
_symmetry_Int_Tables_number      167
_space_group_name_Hall           '-R 3 2"c'
loop_
_symmetry_equiv_pos_site_id
_symmetry_equiv_pos_as_xyz
1 x,y,z
2 -y,x-y,z
3 -x+y,-x,z
4 y,x,1/2-z
5 2/3+x,1/3+y,1/3+z
6 2/3-y,1/3+x-y,1/3+z
7 2/3-x+y,1/3-x,1/3+z
8 2/3+y,1/3+x,5/6-z
9 1/3+x,2/3+y,2/3+z
10 1/3+y,2/3+x,1/6-z
11 x-y,-y,1/2-z
12 -x,-x+y,1/2-z
13 1/3-y,2/3+x-y,2/3+z
14 1/3-x+y,2/3-x,2/3+z
15 1/3+x-y,2/3-y,1/6-z
16 1/3-x,2/3-x+y,1/6-z
17 2/3+x-y,1/3-y,5/6-z
18 2/3-x,1/3-x+y,5/6-z
19 -x,-y,-z
20 y,-x+y,-z
21 x-y,x,-z
22 -y,-x,1/2+z
23 1/3-x,2/3-y,2/3-z
24 1/3+y,2/3-x+y,2/3-z
25 1/3+x-y,2/3+x,2/3-z
26 1/3-y,2/3-x,1/6+z
27 2/3-x,1/3-y,1/3-z
28 2/3-y,1/3-x,5/6+z
29 -x+y,y,1/2+z
30 x,x-y,1/2+z
31 2/3+y,1/3-x+y,1/3-z
32 2/3+x-y,1/3+x,1/3-z
33 2/3-x+y,1/3+y,5/6+z
34 2/3+x,1/3+x-y,5/6+z
35 1/3-x+y,2/3+y,1/6+z
36 1/3+x,2/3+x-y,1/6+z
_cell_length_a                   14.014(1)
_cell_length_b                   14.014(1)
_cell_length_c                   43.771(3)
_cell_angle_alpha                90
_cell_angle_beta                 90
_cell_angle_gamma                120
_cell_volume                     7444.6
_exptl_crystal_colour            colorless
_cell_formula_units_Z            6
loop_
_atom_site_label
_atom_site_type_symbol
_atom_site_fract_x
_atom_site_fract_y
_atom_site_fract_z
O1 O 0.24017(12) 0.22156(14) 0.04915(4)
C1 C 0.6667 0.3333 0.00436(8)
C2 C 0.5510(2) 0.3028(2) 0.01589(5)
C3 C 0.4930(2) 0.3482(2) 0.00278(5)
H1 H 0.5244(2) 0.3967(2) -0.01352(5)
C4 C 0.3899(2) 0.3242(2) 0.01305(6)
H2 H 0.3528(2) 0.3556(2) 0.00356(6)
C5 C 0.3424(2) 0.2536(2) 0.03736(5)
C6 C 0.3998(2) 0.2093(2) 0.05135(5)
H3 H 0.3693(2) 0.1628(2) 0.06807(5)
C7 C 0.5020(2) 0.2336(2) 0.04072(5)
H4 H 0.5391(2) 0.2027(2) 0.05044(5)
C8 C 0.1711(2) 0.2516(2) 0.03301(6)
H5 H 0.1508(2) 0.2148(2) 0.01336(6)
H6 H 0.2093(2) 0.3305(2) 0.02959(6)
C9 C 0.0697(2) 0.2170(2) 0.05232(6)
H7 H 0.0315(2) 0.1376(2) 0.05494(6)
H8 H 0.0204(2) 0.2355(2) 0.04163(6)
C10 C 0.0958(2) 0.2714(2) 0.08359(6)
H9 H 0.0272(2) 0.2466(2) 0.09454(6)
H10 H 0.1389(2) 0.2466(2) 0.09493(6)
C11 C 0.6667 0.3333 -0.03112(8)
H11 H 0.6571(24) 0.3926(14) -0.03843(8)
H12 H 0.6074(14) 0.2645(9) -0.03843(8)
H13 H 0.7355(9) 0.3429(24) -0.03843(8)
C2A C 0.6972(2) 0.2482(3) 0.01589(5)
C3A C 0.6518(2) 0.1448(3) 0.00278(5)
H1A H 0.6033(2) 0.1277(3) -0.01352(5)
C4A C 0.6758(2) 0.0657(3) 0.01305(6)
H2A H 0.6444(2) -0.0028(3) 0.00356(6)
C5A C 0.7464(2) 0.0888(3) 0.03736(5)
O1A O 0.77844(14) 0.01861(18) 0.04915(4)
C8A C 0.7484(2) -0.0805(3) 0.03301(6)
H5A H 0.7852(2) -0.0640(3) 0.01336(6)
H6A H 0.6695(2) -0.1212(3) 0.02959(6)
C9A C 0.7830(2) -0.1473(3) 0.05232(6)
H7A H 0.8624(2) -0.1061(3) 0.05494(6)
H8A H 0.7645(2) -0.2151(3) 0.04163(6)
C10A C 0.7286(2) -0.1756(3) 0.08359(6)
C10I C 0.6047(2) -0.2375(2) 0.08308(6)
C9I C 0.5503(2) -0.2636(2) 0.11435(6)
C8I C 0.5849(2) -0.1622(2) 0.13366(6)
O1I O 0.55489(14) -0.09316(12) 0.11752(4)
C5I C 0.5869(2) 0.0091(2) 0.12931(5)
C4I C 0.6575(2) 0.0566(2) 0.15362(6)
C3I C 0.6815(2) 0.1597(2) 0.16389(5)
C2I C 0.6361(2) 0.2177(2) 0.15078(5)
C1I C 0.6666 0.3334 0.16231(8)
C2N C 0.5815(3) 0.3639(2) 0.15078(5)
C3N C 0.4781(3) 0.3185(2) 0.16389(5)
H1N H 0.4610(3) 0.2700(2) 0.18019(5)
C4N C 0.3990(3) 0.3425(2) 0.15362(6)
H2N H 0.3305(3) 0.3111(2) 0.16311(6)
C5N C 0.4221(3) 0.4131(2) 0.12931(5)
O1N O 0.35194(18) 0.44511(14) 0.11752(4)
C8N C 0.2528(3) 0.4151(2) 0.13366(6)
H5N H 0.2693(3) 0.4519(2) 0.15331(6)
H6N H 0.2121(3) 0.3362(2) 0.13708(6)
C9N C 0.1860(3) 0.4497(2) 0.11435(6)
H7N H 0.2272(3) 0.5291(2) 0.11173(6)
H8N H 0.1182(3) 0.4312(2) 0.12504(6)
C10N C 0.1577(3) 0.3953(2) 0.08308(6)
H9N H 0.1139(3) 0.4201(2) 0.07213(6)
H10N H 0.2256(3) 0.4201(2) 0.07174(6)
C6N C 0.5238(3) 0.4574(2) 0.11532(5)
H3N H 0.5398(3) 0.5039(2) 0.09860(5)
C7N C 0.6017(3) 0.4331(2) 0.12595(5)
H4N H 0.6697(3) 0.4640(2) 0.11623(5)
C2O C 0.7823(2) 0.4185(3) 0.15078(5)
C3O C 0.8403(2) 0.5219(3) 0.16389(5)
H1O H 0.8089(2) 0.5390(3) 0.18019(5)
C4O C 0.9434(2) 0.6010(3) 0.15362(6)
H2O H 0.9805(2) 0.6695(3) 0.16311(6)
C5O C 0.9909(2) 0.5779(3) 0.12931(5)
O1O O 1.09316(12) 0.64806(18) 0.11752(4)
C8O C 1.1622(2) 0.7472(3) 0.13366(6)
H5O H 1.1825(2) 0.7307(3) 0.15331(6)
H6O H 1.1240(2) 0.7879(3) 0.13708(6)
C9O C 1.2636(2) 0.8140(3) 0.11435(6)
H7O H 1.3018(2) 0.7728(3) 0.11173(6)
H8O H 1.3129(2) 0.8818(3) 0.12504(6)
C10O C 1.2375(2) 0.8423(3) 0.08308(6)
C10B C 1.1756(3) 0.9042(2) 0.08359(6)
C9B C 1.1473(3) 0.9303(2) 0.05232(6)
C8B C 1.0805(3) 0.8289(2) 0.03301(6)
O1B O 0.98139(18) 0.75983(12) 0.04915(4)
C5B C 0.9112(3) 0.6576(2) 0.03736(5)
C4B C 0.9343(3) 0.6101(2) 0.01305(6)
C3B C 0.8552(3) 0.5070(2) 0.00278(5)
C2B C 0.7518(3) 0.4490(2) 0.01589(5)
C7B C 0.7316(3) 0.4980(2) 0.04072(5)
C6B C 0.8095(3) 0.6002(2) 0.05135(5)
H3B H 0.7935(3) 0.6307(2) 0.06807(5)
H4B H 0.6636(3) 0.4609(2) 0.05044(5)
H1B H 0.8723(3) 0.4756(2) -0.01352(5)
H2B H 1.0028(3) 0.6472(2) 0.00356(6)
H5B H 1.0640(3) 0.8492(2) 0.01336(6)
H6B H 1.1212(3) 0.7907(2) 0.02959(6)
H7B H 1.1061(3) 0.9685(2) 0.05494(6)
H8B H 1.2151(3) 0.9796(2) 0.04163(6)
H9B H 1.2194(3) 0.9728(2) 0.09454(6)
H10B H 1.1077(3) 0.8611(2) 0.09493(6)
H9O H 1.3061(2) 0.8861(3) 0.07213(6)
H10O H 1.1944(2) 0.7744(3) 0.07174(6)
C6O C 0.9335(2) 0.4762(3) 0.11532(5)
H3O H 0.9640(2) 0.4602(3) 0.09860(5)
C7O C 0.8313(2) 0.3983(3) 0.12595(5)
H4O H 0.7942(2) 0.3303(3) 0.11623(5)
C11I C 0.6666 0.3334 0.19779(8)
H11I H 0.7259(14) 0.3238(24) 0.20510(8)
H12I H 0.5978(9) 0.2741(14) 0.20510(8)
H13I H 0.6762(24) 0.4022(9) 0.20510(8)
C7I C 0.5669(2) 0.1687(2) 0.12595(5)
C6I C 0.5426(2) 0.0665(2) 0.11532(5)
H3I H 0.4961(2) 0.0360(2) 0.09860(5)
H4I H 0.5360(2) 0.2058(2) 0.11623(5)
H1I H 0.7300(2) 0.1911(2) 0.18019(5)
H2I H 0.6889(2) 0.0195(2) 0.16311(6)
H5I H 0.5481(2) -0.1825(2) 0.15331(6)
H6I H 0.6638(2) -0.1240(2) 0.13708(6)
H7I H 0.4709(2) -0.3018(2) 0.11173(6)
H8I H 0.5688(2) -0.3129(2) 0.12504(6)
H9I H 0.5799(2) -0.3061(2) 0.07213(6)
H10I H 0.5799(2) -0.1944(2) 0.07174(6)
H9A H 0.7534(2) -0.2194(3) 0.09454(6)
H10A H 0.7534(2) -0.1077(3) 0.09493(6)
C6A C 0.7907(2) 0.1905(3) 0.05135(5)
H3A H 0.8372(2) 0.2065(3) 0.06807(5)
C7A C 0.7664(2) 0.2684(3) 0.04072(5)
H4A H 0.7973(2) 0.3364(3) 0.05044(5)
loop_
_geom_bond_atom_site_label_1
_geom_bond_atom_site_label_2
_geom_bond_site_symmetry_1
_geom_bond_site_symmetry_2
O1 C5 1_555 1_555
C1 C2 1_555 1_555
C2 C3 1_555 1_555
C3 H1 1_555 1_555
C4 C3 1_555 1_555
H2 C4 1_555 1_555
C5 C4 1_555 1_555
C6 C5 1_555 1_555
H3 C6 1_555 1_555
C7 C2 1_555 1_555
H4 C7 1_555 1_555
C8 O1 1_555 1_555
H5 C8 1_555 1_555
H6 C8 1_555 1_555
C9 C8 1_555 1_555
H7 C9 1_555 1_555
H8 C9 1_555 1_555
C10 C9 1_555 1_555
H9 C10 1_555 1_555
H10 C10 1_555 1_555
C11 C1 1_555 1_555
H11 C11 1_555 1_555
H12 C11 1_555 1_555
H13 C11 1_555 1_555
C2A C1 1_555 1_555
C3A C2A 1_555 1_555
H1A C3A 1_555 1_555
C4A C3A 1_555 1_555
H2A C4A 1_555 1_555
C5A C4A 1_555 1_555
O1A C5A 1_555 1_555
C8A O1A 1_555 1_555
H5A C8A 1_555 1_555
H6A C8A 1_555 1_555
C9A C8A 1_555 1_555
H7A C9A 1_555 1_555
H8A C9A 1_555 1_555
C10A C9A 1_555 1_555
C10I C10A 1_555 1_555
C9I C10I 1_555 1_555
C8I C9I 1_555 1_555
O1I C8I 1_555 1_555
C5I O1I 1_555 1_555
C4I C5I 1_555 1_555
C3I C4I 1_555 1_555
C2I C3I 1_555 1_555
C1I C2I 1_555 1_555
C2N C1I 1_555 1_555
C3N C2N 1_555 1_555
H1N C3N 1_555 1_555
C4N C3N 1_555 1_555
H2N C4N 1_555 1_555
C5N C4N 1_555 1_555
O1N C5N 1_555 1_555
C8N O1N 1_555 1_555
H5N C8N 1_555 1_555
H6N C8N 1_555 1_555
C9N C8N 1_555 1_555
H7N C9N 1_555 1_555
H8N C9N 1_555 1_555
C10N C10 1_555 1_555
H9N C10N 1_555 1_555
H10N C10N 1_555 1_555
C6N C5N 1_555 1_555
H3N C6N 1_555 1_555
C7N C2N 1_555 1_555
H4N C7N 1_555 1_555
C2O C1I 1_555 1_555
C3O C2O 1_555 1_555
H1O C3O 1_555 1_555
C4O C3O 1_555 1_555
H2O C4O 1_555 1_555
C5O C4O 1_555 1_555
O1O C5O 1_555 1_555
C8O O1O 1_555 1_555
H5O C8O 1_555 1_555
H6O C8O 1_555 1_555
C9O C8O 1_555 1_555
H7O C9O 1_555 1_555
H8O C9O 1_555 1_555
C10O C9O 1_555 1_555
C10B C10O 1_555 1_555
C9B C10B 1_555 1_555
C8B C9B 1_555 1_555
O1B C8B 1_555 1_555
C5B O1B 1_555 1_555
C4B C5B 1_555 1_555
C3B C4B 1_555 1_555
C2B C1 1_555 1_555
C7B C2B 1_555 1_555
C6B C5B 1_555 1_555
H3B C6B 1_555 1_555
H4B C7B 1_555 1_555
H1B C3B 1_555 1_555
H2B C4B 1_555 1_555
H5B C8B 1_555 1_555
H6B C8B 1_555 1_555
H7B C9B 1_555 1_555
H8B C9B 1_555 1_555
H9B C10B 1_555 1_555
H10B C10B 1_555 1_555
H9O C10O 1_555 1_555
H10O C10O 1_555 1_555
C6O C5O 1_555 1_555
H3O C6O 1_555 1_555
C7O C2O 1_555 1_555
H4O C7O 1_555 1_555
C11I C1I 1_555 1_555
H11I C11I 1_555 1_555
H12I C11I 1_555 1_555
H13I C11I 1_555 1_555
C7I C2I 1_555 1_555
C6I C5I 1_555 1_555
H3I C6I 1_555 1_555
H4I C7I 1_555 1_555
H1I C3I 1_555 1_555
H2I C4I 1_555 1_555
H5I C8I 1_555 1_555
H6I C8I 1_555 1_555
H7I C9I 1_555 1_555
H8I C9I 1_555 1_555
H9I C10I 1_555 1_555
H10I C10I 1_555 1_555
H9A C10A 1_555 1_555
H10A C10A 1_555 1_555
C6A C5A 1_555 1_555
H3A C6A 1_555 1_555
C7A C2A 1_555 1_555
H4A C7A 1_555 1_555
C6 C7 1_555 1_555
C9N C10N 1_555 1_555
C6N C7N 1_555 1_555
C3B C2B 1_555 1_555
C7B C6B 1_555 1_555
C6O C7O 1_555 1_555
C7I C6I 1_555 1_555
C6A C7A 1_555 1_555

#END
