
#######################################################################
#
#                 Cambridge Crystallographic Data Centre
#                                CCDC 
#
#######################################################################
#
# If this CIF has been generated from an entry in the Cambridge 
# Structural Database, then it will include bibliographic, chemical, 
# crystal, experimental, refinement or atomic coordinate data resulting 
# from the CCDC's data processing and validation procedures.
#
#######################################################################

data_REFVON
_chemical_formula_moiety         'C56 H38 O8,3(C2 H6 O1 S1),C2 H6 O1'
_chemical_name_systematic        
'out,out-6,13,23,30,39,46-Hexaoxaoctacyclo(16.16.16.2^2,5^.2^14,17^.2^19,22.^2^31,34^.2^35,38^.2^47,50^)dohexaconta-2,4,14,16,19,21,31,33,35,37,47,49,51,53,55,57,59,61-octadecaen-8,10,25,27,41,43-hexayne-1,18-diol dimethyl sulfoxide clathrate ethanol solvate'
_symmetry_cell_setting           monoclinic
_symmetry_space_group_name_H-M   'C 2/c'
_symmetry_Int_Tables_number      15
_space_group_name_Hall           '-C 2yn'
loop_
_symmetry_equiv_pos_site_id
_symmetry_equiv_pos_as_xyz
1 x,y,z
2 1/2+x,1/2+y,z
3 -x,y,1/2-z
4 1/2-x,1/2+y,1/2-z
5 -x,-y,-z
6 1/2-x,1/2-y,-z
7 x,-y,1/2+z
8 1/2+x,1/2-y,1/2+z
_cell_length_a                   42.473(11)
_cell_length_b                   13.299(2)
_cell_length_c                   29.371(4)
_cell_angle_alpha                90
_cell_angle_beta                 133.71(1)
_cell_angle_gamma                90
_cell_volume                     11992.1
_exptl_crystal_colour            colorless
_cell_formula_units_Z            8
loop_
_atom_site_label
_atom_site_type_symbol
_atom_site_fract_x
_atom_site_fract_y
_atom_site_fract_z
S2 S 0.7353(6) 0.5038(10) 0.3592(9)
O2 O 0.7692(12) 0.5013(22) 0.3577(22)
C3 C 0.7584(8) 0.6267(16) 0.4029(11)
H7 H 0.7501(8) 0.6795(16) 0.3741(11)
H8 H 0.7896(8) 0.6222(16) 0.4352(11)
H9 H 0.7473(8) 0.6411(16) 0.4217(11)
C4 C 0.7611(8) 0.4633(19) 0.4322(10)
H10 H 0.7571(8) 0.3921(19) 0.4312(10)
H11 H 0.7494(8) 0.4968(19) 0.4467(10)
H12 H 0.7917(8) 0.4779(19) 0.4602(10)
O3 O 0.4853(4) -0.0207(10) 0.2997(6)
C5 C 0.4737(5) -0.0042(11) 0.2375(7)
H13 H 0.4429(5) -0.0174(11) 0.2025(7)
H14 H 0.4790(5) 0.0657(11) 0.2350(7)
C6 C 0.5010(6) -0.0689(11) 0.2688(8)
H15 H 0.5097(6) -0.0551(11) 0.3082(8)
H16 H 0.4935(6) -0.1383(11) 0.2326(8)
H17 H 0.4705(6) -0.0551(11) 0.2349(8)
C6B C 0.4990(6) -0.0689(11) 0.2312(8)
O3B O 0.5147(4) -0.0207(10) 0.2003(6)
C5B C 0.5263(5) -0.0042(11) 0.2625(7)
H13B H 0.5571(5) -0.0174(11) 0.2975(7)
H14B H 0.5210(5) 0.0657(11) 0.2650(7)
H17B H 0.5295(6) -0.0551(11) 0.2651(8)
H15B H 0.4903(6) -0.0551(11) 0.1918(8)
H16B H 0.5065(6) -0.1383(11) 0.2674(8)
O4 O 1.0132(4) 0.0210(11) 0.8281(6)
C7 C 1.0003(5) 0.0660(10) 0.7699(6)
H18 H 0.9856(5) 0.1291(10) 0.7611(6)
H19 H 1.0269(5) 0.0817(10) 0.7799(6)
C8 C 1.0277(5) 0.0060(10) 0.7885(5)
H20 H 1.0333(5) 0.0432(10) 0.8215(5)
H21 H 1.0547(5) -0.0083(10) 0.8005(5)
H22 H 1.0133(5) -0.0559(10) 0.7816(5)
C7B C 0.9997(5) 0.0660(10) 0.7301(6)
O4B O 0.9868(4) 0.0210(11) 0.6719(6)
C8B C 0.9723(5) 0.0060(10) 0.7115(5)
H18B H 1.0144(5) 0.1291(10) 0.7389(6)
H19B H 0.9731(5) 0.0817(10) 0.7201(6)
H20B H 0.9667(5) 0.0432(10) 0.6785(5)
H21B H 0.9453(5) -0.0083(10) 0.6995(5)
H22B H 0.9867(5) -0.0559(10) 0.7184(5)
C9 C 0.5686(2) 0.4795(5) 0.1707(3)
O5 O 0.52183(14) 0.4764(3) 0.1215(2)
C10 C 0.9311(2) 0.5211(5) 0.5328(3)
O6 O 0.97807(14) 0.5238(3) 0.5777(2)
C11 C 0.5843(2) 0.3972(5) 0.2188(3)
C12 C 0.5649(2) 0.3038(5) 0.1980(3)
H23 H 0.5426(2) 0.2922(5) 0.1550(3)
C13 C 0.5780(2) 0.2263(5) 0.2398(3)
H24 H 0.5649(2) 0.1635(5) 0.2246(3)
C14 C 0.6097(2) 0.2423(5) 0.3027(3)
C15 C 0.6302(3) 0.3333(5) 0.3267(3)
H25 H 0.6521(3) 0.3437(5) 0.3699(3)
C16 C 0.6173(2) 0.4105(5) 0.2840(3)
H26 H 0.6311(2) 0.4726(5) 0.2997(3)
O7 O 0.6206(2) 0.1588(4) 0.3399(2)
C17 C 0.6561(3) 0.1652(6) 0.4061(3)
H27 H 0.6536(3) 0.1117(6) 0.4259(3)
H28 H 0.6545(3) 0.2287(6) 0.4206(3)
C18 C 0.6983(3) 0.1578(6) 0.4259(4)
C19 C 0.7332(3) 0.1449(6) 0.4443(3)
C20 C 0.7746(3) 0.1281(6) 0.4662(4)
C21 C 0.8082(3) 0.1102(6) 0.4842(4)
C22 C 0.8492(3) 0.0812(5) 0.5034(4)
H29 H 0.8538(3) 0.0098(5) 0.5128(4)
H30 H 0.8466(3) 0.0924(5) 0.4683(4)
O8 O 0.8856(2) 0.1334(4) 0.5558(3)
C23 C 0.8942(3) 0.2268(5) 0.5436(4)
C24 C 0.9345(3) 0.2626(6) 0.5912(4)
H31 H 0.9544(3) 0.2236(6) 0.6272(4)
C25 C 0.9473(2) 0.3564(6) 0.5880(3)
H32 H 0.9755(2) 0.3792(6) 0.6210(3)
C26 C 0.9179(2) 0.4147(5) 0.5357(3)
C27 C 0.8775(2) 0.3766(5) 0.4874(3)
H33 H 0.8577(2) 0.4151(5) 0.4512(3)
C28 C 0.8649(2) 0.2811(5) 0.4901(3)
H34 H 0.8372(2) 0.2559(5) 0.4563(3)
C29 C 0.5865(2) 0.4575(4) 0.1405(3)
C30 C 0.5621(2) 0.4827(5) 0.0780(3)
H35 H 0.5353(2) 0.5142(5) 0.0550(3)
C31 C 0.5771(3) 0.4615(5) 0.0491(3)
H36 H 0.5607(3) 0.4796(5) 0.0074(3)
C32 C 0.6161(2) 0.4142(5) 0.0828(3)
C33 C 0.6421(2) 0.3918(5) 0.1460(3)
H37 H 0.6695(2) 0.3634(5) 0.1696(3)
C34 C 0.6262(2) 0.4126(5) 0.1729(3)
H38 H 0.6431(2) 0.3955(5) 0.2149(3)
O9 O 0.6265(2) 0.3925(4) 0.0483(2)
C35 C 0.6660(3) 0.3405(5) 0.0792(3)
H39 H 0.6643(3) 0.3078(5) 0.0480(3)
H40 H 0.6700(3) 0.2888(5) 0.1061(3)
C36 C 0.7036(3) 0.4082(6) 0.1174(3)
C37 C 0.7331(3) 0.4682(6) 0.1460(3)
C38 C 0.7666(3) 0.5337(6) 0.1798(3)
C39 C 0.7967(3) 0.5914(6) 0.2108(3)
C40 C 0.8341(3) 0.6586(6) 0.2481(3)
H41 H 0.8357(3) 0.6925(6) 0.2205(3)
H42 H 0.8301(3) 0.7095(6) 0.2674(3)
O10 O 0.8737(2) 0.6071(4) 0.2958(2)
C41 C 0.8842(2) 0.5858(5) 0.3510(3)
C42 C 0.8581(2) 0.6085(5) 0.3611(3)
H43 H 0.8308(2) 0.6373(5) 0.3295(3)
C43 C 0.8735(2) 0.5874(5) 0.4203(3)
H44 H 0.8563(2) 0.6037(5) 0.4280(3)
C44 C 0.9132(2) 0.5433(5) 0.4671(3)
C45 C 0.9378(2) 0.5194(5) 0.4537(3)
H45 H 0.9649(2) 0.4891(5) 0.4846(3)
C46 C 0.9231(3) 0.5394(6) 0.3953(4)
H46 H 0.9397(3) 0.5212(6) 0.3867(4)
C47 C 0.5819(2) 0.5854(5) 0.1993(3)
C48 C 0.5528(3) 0.6442(6) 0.1938(4)
H47 H 0.5245(3) 0.6214(6) 0.1703(4)
C49 C 0.5651(3) 0.7369(6) 0.2226(4)
H48 H 0.5455(3) 0.7752(6) 0.2197(4)
C50 C 0.6057(3) 0.7725(5) 0.2552(3)
C51 C 0.6358(3) 0.7177(6) 0.2614(3)
H49 H 0.6638(3) 0.7417(6) 0.2840(3)
C52 C 0.6222(3) 0.6239(5) 0.2319(3)
H50 H 0.6418(3) 0.5857(5) 0.2346(3)
O11 O 0.6146(2) 0.8654(4) 0.2850(2)
C53 C 0.6516(3) 0.9197(6) 0.3063(4)
H51 H 0.6467(3) 0.9908(6) 0.3067(4)
H52 H 0.6544(3) 0.9097(6) 0.2765(4)
C54 C 0.6919(3) 0.8909(5) 0.3681(4)
C55 C 0.7257(3) 0.8719(5) 0.4177(4)
C56 C 0.7660(3) 0.8534(5) 0.4770(5)
C57 C 0.8019(3) 0.8429(6) 0.5301(4)
C58 C 0.8443(3) 0.8344(6) 0.5949(4)
H53 H 0.8470(3) 0.8874(6) 0.6201(4)
H54 H 0.8458(3) 0.7705(6) 0.6123(4)
O12 O 0.8797(2) 0.8411(4) 0.5990(2)
C59 C 0.8903(2) 0.7586(5) 0.5829(3)
C60 C 0.9228(2) 0.7738(6) 0.5838(3)
H55 H 0.9363(2) 0.8361(6) 0.5950(3)
C61 C 0.9350(2) 0.6958(6) 0.5679(3)
H56 H 0.9572(2) 0.7062(6) 0.5691(3)
C62 C 0.9153(2) 0.6028(5) 0.5503(3)
C63 C 0.8826(2) 0.5895(6) 0.5499(3)
H57 H 0.8691(2) 0.5271(6) 0.5390(3)
C64 C 0.8696(3) 0.6682(6) 0.5654(3)
H58 H 0.8471(3) 0.6590(6) 0.5638(3)
S3 S 0.7758(2) 0.2467(4) 0.2516(2)
O13 O 0.7331(7) 0.2545(23) 0.2356(13)
C65 C 0.8021(11) 0.1476(20) 0.3089(18)
H59 H 0.7900(11) 0.0840(20) 0.2879(18)
H60 H 0.7977(11) 0.1574(20) 0.3365(18)
H61 H 0.8328(11) 0.1483(20) 0.3330(18)
C66 C 0.8078(13) 0.3397(23) 0.3108(17)
H62 H 0.7997(13) 0.4049(23) 0.2915(17)
H63 H 0.8380(13) 0.3277(23) 0.3347(17)
H64 H 0.8029(13) 0.3369(23) 0.3382(17)
S1 S 0.5203(2) 0.7361(4) 0.0454(2)
O1 O 0.5160(4) 0.8305(8) 0.0658(5)
C1 C 0.5747(6) 0.7349(43) 0.0739(16)
H1 H 0.5964(6) 0.7301(43) 0.1190(16)
H2 H 0.5790(6) 0.7958(43) 0.0612(16)
H3 H 0.5772(6) 0.6782(43) 0.0563(16)
C2 C 0.4893(11) 0.7455(24) -0.0395(9)
H4 H 0.4587(11) 0.7472(24) -0.0635(9)
H5 H 0.4956(11) 0.6883(24) -0.0520(9)
H6 H 0.4974(11) 0.8059(24) -0.0470(9)
S4? S 0.7765(2) 0.2543(4) 0.3010(2)
O14? O 0.7345(5) 0.2464(22) 0.2314(10)
C67? C 0.8059(14) 0.1630(26) 0.2962(23)
H65? H 0.7987(14) 0.0964(26) 0.2991(23)
H66? H 0.8367(14) 0.1738(26) 0.3303(23)
H67? H 0.7979(14) 0.1707(26) 0.2568(23)
C68? C 0.8007(15) 0.3546(24) 0.2938(18)
H68? H 0.7903(15) 0.4177(24) 0.2949(18)
H69? H 0.7930(15) 0.3484(24) 0.2546(18)
H70? H 0.8318(15) 0.3516(24) 0.3280(18)
S5? S 0.5201(2) 0.7639(3) -0.0049(2)
O15? O 0.5165(4) 0.6681(8) -0.0341(5)
C69? C 0.5742(6) 0.7600(38) 0.0767(13)
H71? H 0.5964(6) 0.7670(38) 0.0762(13)
H72? H 0.5777(6) 0.6969(38) 0.0958(13)
H73? H 0.5765(6) 0.8140(38) 0.1006(13)
C70? C 0.4884(8) 0.7489(22) 0.0158(15)
H74? H 0.4579(8) 0.7489(22) -0.0219(15)
H75? H 0.4947(8) 0.8034(22) 0.0424(15)
H76? H 0.4960(8) 0.6863(22) 0.0377(15)
S6? S 0.7641(6) 0.4962(11) 0.3864(7)
O16? O 0.7301(12) 0.4933(21) 0.3178(11)
C71? C 0.7429(8) 0.3764(15) 0.3902(11)
H77? H 0.7512(8) 0.3211(15) 0.3793(11)
H78? H 0.7118(8) 0.3796(15) 0.3610(11)
H79? H 0.7550(8) 0.3671(15) 0.4321(11)
C72? C 0.7387(9) 0.5436(20) 0.4084(12)
H80? H 0.7422(9) 0.6153(20) 0.4126(12)
H81? H 0.7515(9) 0.5148(20) 0.4480(12)
H82? H 0.7083(9) 0.5273(20) 0.3770(12)
loop_
_geom_bond_atom_site_label_1
_geom_bond_atom_site_label_2
_geom_bond_site_symmetry_1
_geom_bond_site_symmetry_2
S1 O1 1_555 1_555
C1 S1 1_555 1_555
H1 C1 1_555 1_555
H2 C1 1_555 1_555
H3 C1 1_555 1_555
C2 S1 1_555 1_555
H4 C2 1_555 1_555
H5 C2 1_555 1_555
H6 C2 1_555 1_555
S2 O2 1_555 1_555
C3 S2 1_555 1_555
H7 C3 1_555 1_555
H8 C3 1_555 1_555
H9 C3 1_555 1_555
C4 S2 1_555 1_555
H10 C4 1_555 1_555
H11 C4 1_555 1_555
H12 C4 1_555 1_555
O3 C5 1_555 1_555
C5 H13 1_555 1_555
H14 C5 1_555 1_555
C6 O3 1_555 1_555
H15 O3 1_555 1_555
H16 C6 1_555 1_555
H17 C5 1_555 1_555
O4 C7 1_555 1_555
C7 H18 1_555 1_555
H19 C7 1_555 1_555
C8 O4 1_555 1_555
H20 O4 1_555 1_555
H21 C8 1_555 1_555
H22 C8 1_555 1_555
C9 O5 1_555 1_555
C10 O6 1_555 1_555
C11 C9 1_555 1_555
C12 C11 1_555 1_555
H23 C12 1_555 1_555
C13 C12 1_555 1_555
H24 C13 1_555 1_555
C14 C13 1_555 1_555
C15 C14 1_555 1_555
H25 C15 1_555 1_555
C16 C11 1_555 1_555
H26 C16 1_555 1_555
O7 C14 1_555 1_555
C17 O7 1_555 1_555
H27 C17 1_555 1_555
H28 C17 1_555 1_555
C18 C17 1_555 1_555
C19 C18 1_555 1_555
C20 C19 1_555 1_555
C21 C20 1_555 1_555
C22 C21 1_555 1_555
H29 C22 1_555 1_555
H30 C22 1_555 1_555
O8 C22 1_555 1_555
C23 O8 1_555 1_555
C24 C23 1_555 1_555
H31 C24 1_555 1_555
C25 C24 1_555 1_555
H32 C25 1_555 1_555
C26 C10 1_555 1_555
C27 C26 1_555 1_555
H33 C27 1_555 1_555
C28 C23 1_555 1_555
H34 C28 1_555 1_555
C29 C9 1_555 1_555
C30 C29 1_555 1_555
H35 C30 1_555 1_555
C31 C30 1_555 1_555
H36 C31 1_555 1_555
C32 C31 1_555 1_555
C33 C32 1_555 1_555
H37 C33 1_555 1_555
C34 C29 1_555 1_555
H38 C34 1_555 1_555
O9 C32 1_555 1_555
C35 O9 1_555 1_555
H39 C35 1_555 1_555
H40 C35 1_555 1_555
C36 C35 1_555 1_555
C37 C36 1_555 1_555
C38 C37 1_555 1_555
C39 C38 1_555 1_555
C40 C39 1_555 1_555
H41 C40 1_555 1_555
H42 C40 1_555 1_555
O10 C40 1_555 1_555
C41 O10 1_555 1_555
C42 C41 1_555 1_555
H43 C42 1_555 1_555
C43 C42 1_555 1_555
H44 C43 1_555 1_555
C44 C10 1_555 1_555
C45 C44 1_555 1_555
H45 C45 1_555 1_555
C46 C41 1_555 1_555
H46 C46 1_555 1_555
C47 C9 1_555 1_555
C48 C47 1_555 1_555
H47 C48 1_555 1_555
C49 C48 1_555 1_555
H48 C49 1_555 1_555
C50 C49 1_555 1_555
C51 C50 1_555 1_555
H49 C51 1_555 1_555
C52 C47 1_555 1_555
H50 C52 1_555 1_555
O11 C50 1_555 1_555
C53 O11 1_555 1_555
H51 C53 1_555 1_555
H52 C53 1_555 1_555
C54 C53 1_555 1_555
C55 C54 1_555 1_555
C56 C55 1_555 1_555
C57 C56 1_555 1_555
C58 C57 1_555 1_555
H53 C58 1_555 1_555
H54 C58 1_555 1_555
O12 C58 1_555 1_555
C59 O12 1_555 1_555
C60 C59 1_555 1_555
H55 C60 1_555 1_555
C61 C60 1_555 1_555
H56 C61 1_555 1_555
C62 C10 1_555 1_555
C63 C62 1_555 1_555
H57 C63 1_555 1_555
C64 C59 1_555 1_555
H58 C64 1_555 1_555
S3 O13 1_555 1_555
C65 S3 1_555 1_555
H59 C65 1_555 1_555
H60 C65 1_555 1_555
H61 C65 1_555 1_555
C66 S3 1_555 1_555
H62 C66 1_555 1_555
H63 C66 1_555 1_555
H64 C66 1_555 1_555
C6B C5 1_555 1_555
O3B C6B 1_555 1_555
C5B C6 1_555 1_555
H13B C5B 1_555 1_555
H14B C5B 1_555 1_555
H17B C6 1_555 1_555
H15B C6B 1_555 1_555
H16B C6 1_555 1_555
C7B C7 1_555 1_555
O4B C7B 1_555 1_555
C8B C7 1_555 1_555
H18B C7B 1_555 1_555
H19B C7 1_555 1_555
H20B C7B 1_555 1_555
H21B C8B 1_555 1_555
H22B C8B 1_555 1_555
C5 C6 1_555 1_555
C6 H15 1_555 1_555
C6 H17 1_555 1_555
C6 C6B 1_555 1_555
H16 C6B 1_555 1_555
H16 H16B 1_555 1_555
H17 C6B 1_555 1_555
C7 C8 1_555 1_555
C7 H20 1_555 1_555
H19 C8 1_555 1_555
H19 C7B 1_555 1_555
C8 H20 1_555 1_555
C8 C7B 1_555 1_555
C15 C16 1_555 1_555
C25 C26 1_555 1_555
C27 C28 1_555 1_555
C33 C34 1_555 1_555
C43 C44 1_555 1_555
C45 C46 1_555 1_555
C51 C52 1_555 1_555
C61 C62 1_555 1_555
C63 C64 1_555 1_555
C6B C5B 1_555 1_555
C6B H17B 1_555 1_555
C6B H16B 1_555 1_555
O3B C5B 1_555 1_555
O3B H15B 1_555 1_555
C5B H17B 1_555 1_555
C7B C8B 1_555 1_555
C7B H19B 1_555 1_555
O4B C8B 1_555 1_555
O4B H20B 1_555 1_555
C8B H19B 1_555 1_555
C8B H20B 1_555 1_555

#END
