
#######################################################################
#
#                 Cambridge Crystallographic Data Centre
#                                CCDC 
#
#######################################################################
#
# If this CIF has been generated from an entry in the Cambridge 
# Structural Database, then it will include bibliographic, chemical, 
# crystal, experimental, refinement or atomic coordinate data resulting 
# from the CCDC's data processing and validation procedures.
#
#######################################################################

data_REFVOQ
_chemical_formula_moiety         'C14 H11 N1 O1 S1'
_chemical_name_systematic        2-(1,3-benzothiazol-2-yl)-4-methylphenol
_symmetry_cell_setting           monoclinic
_symmetry_space_group_name_H-M   'P 21/c'
_symmetry_Int_Tables_number      14
_space_group_name_Hall           '-P 2ybc'
loop_
_symmetry_equiv_pos_site_id
_symmetry_equiv_pos_as_xyz
1 x,y,z
2 -x,1/2+y,1/2-z
3 -x,-y,-z
4 x,1/2-y,1/2+z
_cell_length_a                   5.0827(19)
_cell_length_b                   12.185(4)
_cell_length_c                   37.447(14)
_cell_angle_alpha                90
_cell_angle_beta                 90.058(5)
_cell_angle_gamma                90
_cell_volume                     2319.19
_exptl_crystal_colour            colorless
_exptl_crystal_description       Block
_cell_formula_units_Z            8
loop_
_atom_site_label
_atom_site_type_symbol
_atom_site_fract_x
_atom_site_fract_y
_atom_site_fract_z
S1 S 1.0653(2) 0.11071(7) 0.23597(2)
O1 O 0.9324(6) 0.43943(19) 0.17748(7)
H1 H 1.0340 0.4235 0.1937
N1 N 1.1617(6) 0.3173(2) 0.22519(7)
C1 C 1.3022(8) 0.1740(3) 0.26239(8)
C2 C 1.4575(9) 0.1289(3) 0.28974(9)
H2 H 1.4414 0.0555 0.2963
C3 C 1.6350(9) 0.1972(4) 0.30657(10)
H3 H 1.7382 0.1696 0.3250
C4 C 1.6631(9) 0.3066(4) 0.29654(10)
H4 H 1.7878 0.3502 0.3079
C5 C 1.5108(9) 0.3502(3) 0.27038(10)
H5 H 1.5272 0.4240 0.2643
C6 C 1.3291(7) 0.2837(3) 0.25258(8)
C7 C 1.0145(7) 0.2357(2) 0.21366(8)
C8 C 0.8200(7) 0.2483(3) 0.18515(8)
C9 C 0.7858(8) 0.3496(3) 0.16865(8)
C10 C 0.5948(8) 0.3614(3) 0.14235(9)
H6 H 0.5686 0.4296 0.1318
C11 C 0.4447(8) 0.2738(3) 0.13174(9)
H7 H 0.3197 0.2836 0.1139
C12 C 0.4750(7) 0.1706(3) 0.14709(8)
C13 C 0.6622(7) 0.1602(3) 0.17396(8)
H8 H 0.6837 0.0923 0.1849
C14 C 0.3096(8) 0.0750(3) 0.13522(10)
H9 H 0.1927 0.0982 0.1165
H10 H 0.4217 0.0176 0.1265
H11 H 0.2088 0.0483 0.1551
S2 S 0.5667(2) 0.86986(6) 0.02233(2)
O2 O 0.4348(6) 0.51159(17) 0.05938(6)
H12 H 0.5378 0.5361 0.0446
N2 N 0.6692(6) 0.6622(2) 0.02012(6)
C15 C 0.8013(7) 0.8250(3) -0.00793(8)
C16 C 0.9481(9) 0.8865(3) -0.03217(8)
H13 H 0.9282 0.9621 -0.0340
C17 C 1.1244(8) 0.8302(3) -0.05339(9)
H14 H 1.2209 0.8687 -0.0704
C18 C 1.1616(8) 0.7174(3) -0.05007(9)
H15 H 1.2866 0.6822 -0.0641
C19 C 1.0155(7) 0.6577(3) -0.02623(8)
H16 H 1.0394 0.5823 -0.0243
C20 C 0.8314(7) 0.7111(3) -0.00506(8)
C21 C 0.5206(6) 0.7338(2) 0.03604(7)
C22 C 0.3267(6) 0.7042(2) 0.06294(7)
C23 C 0.2905(7) 0.5946(3) 0.07321(8)
C24 C 0.1028(7) 0.5685(3) 0.09846(8)
H17 H 0.0802 0.4958 0.1054
C25 C -0.0520(8) 0.6493(3) 0.11358(8)
H18 H -0.1798 0.6298 0.1302
C26 C -0.0203(7) 0.7593(3) 0.10447(7)
C27 C 0.1669(7) 0.7839(3) 0.07907(8)
H19 H 0.1882 0.8568 0.0723
C28 C -0.1858(8) 0.8460(3) 0.12148(9)
H20 H -0.3035 0.8127 0.1383
H21 H -0.0745 0.8976 0.1336
H22 H -0.2858 0.8834 0.1034
loop_
_geom_bond_atom_site_label_1
_geom_bond_atom_site_label_2
_geom_bond_site_symmetry_1
_geom_bond_site_symmetry_2
S1 C1 1_555 1_555
O1 H1 1_555 1_555
N1 C6 1_555 1_555
C1 C2 1_555 1_555
C2 H2 1_555 1_555
C3 C2 1_555 1_555
H3 C3 1_555 1_555
C4 C3 1_555 1_555
H4 C4 1_555 1_555
C5 C4 1_555 1_555
H5 C5 1_555 1_555
C6 C1 1_555 1_555
C7 S1 1_555 1_555
C8 C7 1_555 1_555
C9 O1 1_555 1_555
C10 C9 1_555 1_555
H6 C10 1_555 1_555
C11 C10 1_555 1_555
H7 C11 1_555 1_555
C12 C11 1_555 1_555
C13 C8 1_555 1_555
H8 C13 1_555 1_555
C14 C12 1_555 1_555
H9 C14 1_555 1_555
H10 C14 1_555 1_555
H11 C14 1_555 1_555
S2 C15 1_555 1_555
O2 H12 1_555 1_555
N2 C20 1_555 1_555
C15 C16 1_555 1_555
C16 H13 1_555 1_555
C17 C16 1_555 1_555
H14 C17 1_555 1_555
C18 C17 1_555 1_555
H15 C18 1_555 1_555
C19 C18 1_555 1_555
H16 C19 1_555 1_555
C20 C15 1_555 1_555
C21 S2 1_555 1_555
C22 C21 1_555 1_555
C23 O2 1_555 1_555
C24 C23 1_555 1_555
H17 C24 1_555 1_555
C25 C24 1_555 1_555
H18 C25 1_555 1_555
C26 C25 1_555 1_555
C27 C22 1_555 1_555
H19 C27 1_555 1_555
C28 C26 1_555 1_555
H20 C28 1_555 1_555
H21 C28 1_555 1_555
H22 C28 1_555 1_555
N1 C7 1_555 1_555
C5 C6 1_555 1_555
C8 C9 1_555 1_555
C12 C13 1_555 1_555
N2 C21 1_555 1_555
C19 C20 1_555 1_555
C22 C23 1_555 1_555
C26 C27 1_555 1_555

#END
