
#######################################################################
#
#                 Cambridge Crystallographic Data Centre
#                                CCDC 
#
#######################################################################
#
# If this CIF has been generated from an entry in the Cambridge 
# Structural Database, then it will include bibliographic, chemical, 
# crystal, experimental, refinement or atomic coordinate data resulting 
# from the CCDC's data processing and validation procedures.
#
#######################################################################

data_REFWEE
_chemical_formula_moiety         'C58 H42 O6,3(C3 H6 O1)'
_chemical_name_systematic        
'out,out-1,18-Dimethyl-6,13,23,30,39,46-hexaoxaoctacyclo(16.16.16.2^2,5^.2^14,17^.2^19,22^.2^31,34^.2^35,38^.2^42,50^)dohexaconta-2,4,14,16,21,31,33,35,37,47,49,51,53,55,57,59,61-octadecaen-8,10,25,27,41,42-hexayne acetone solvate'
_symmetry_cell_setting           monoclinic
_symmetry_space_group_name_H-M   'P 21/c'
_symmetry_Int_Tables_number      14
_space_group_name_Hall           '-P 2ybc'
loop_
_symmetry_equiv_pos_site_id
_symmetry_equiv_pos_as_xyz
1 x,y,z
2 -x,1/2+y,1/2-z
3 -x,-y,-z
4 x,1/2-y,1/2+z
_cell_length_a                   14.420(1)
_cell_length_b                   31.360(2)
_cell_length_c                   12.645(1)
_cell_angle_alpha                90
_cell_angle_beta                 91.48(1)
_cell_angle_gamma                90
_cell_volume                     5716.3
_exptl_crystal_colour            colorless
_cell_formula_units_Z            4
loop_
_atom_site_label
_atom_site_type_symbol
_atom_site_fract_x
_atom_site_fract_y
_atom_site_fract_z
C1 C 0.5318(3) 0.09581(15) -0.2781(4)
C2 C -0.0633(3) 0.2115(2) 0.1028(4)
C3 C 0.6263(3) 0.0781(2) -0.3162(5)
H1 H 0.6762(4) 0.0938(9) -0.2831(25)
H2 H 0.6291(12) 0.0809(12) -0.3916(6)
H3 H 0.6316(13) 0.0485(4) -0.2972(29)
C4 C -0.1447(4) 0.2355(2) 0.1534(5)
H4 H -0.1670(20) 0.2573(9) 0.1058(15)
H5 H -0.1236(9) 0.2484(12) 0.2186(18)
H6 H -0.1939(13) 0.2158(3) 0.1672(33)
C5 C 0.4538(3) 0.06663(15) -0.3211(4)
C6 C 0.4550(4) 0.0520(2) -0.4245(4)
H7 H 0.5038(4) 0.0598(2) -0.4671(4)
C7 C 0.3851(4) 0.0259(2) -0.4661(4)
H8 H 0.3882(4) 0.0162(2) -0.5354(4)
C8 C 0.3123(3) 0.0145(2) -0.4061(4)
C9 C 0.3066(4) 0.0299(2) -0.3039(5)
H9 H 0.2560(4) 0.0231(2) -0.2630(5)
C10 C 0.3772(3) 0.0555(2) -0.2630(4)
H10 H 0.3730(3) 0.0656(2) -0.1941(4)
O1 O 0.2481(3) -0.01267(12) -0.4544(3)
C11 C 0.1665(4) -0.0230(2) -0.3984(6)
H11 H 0.1842(4) -0.0328(2) -0.3279(6)
H12 H 0.1344(4) -0.0462(2) -0.4344(6)
C12 C 0.1037(4) 0.0133(2) -0.3902(5)
C13 C 0.0533(4) 0.0428(2) -0.3861(5)
C14 C -0.0084(4) 0.0762(2) -0.3831(5)
C15 C -0.0621(4) 0.1059(2) -0.3809(5)
C16 C -0.1261(4) 0.1407(2) -0.3853(5)
H13 H -0.0916(4) 0.1672(2) -0.3888(5)
H14 H -0.1640(4) 0.1384(2) -0.4495(5)
O2 O -0.1848(2) 0.14214(14) -0.2971(3)
C17 C -0.1489(3) 0.1587(2) -0.2034(5)
C18 C -0.0581(3) 0.1699(2) -0.1841(5)
H15 H -0.0144(3) 0.1660(2) -0.2360(5)
C19 C -0.0317(3) 0.1871(2) -0.0875(5)
H16 H 0.0302(3) 0.1946(2) -0.0758(5)
C20 C -0.0936(3) 0.1936(2) -0.0075(5)
C21 C -0.1843(4) 0.1810(2) -0.0280(5)
H17 H -0.2276(4) 0.1840(2) 0.0247(5)
C22 C -0.2119(4) 0.1642(2) -0.1240(5)
H18 H -0.2736(4) 0.1564(2) -0.1356(5)
C23 C 0.5378(3) 0.0952(2) -0.1557(4)
C24 C 0.5483(4) 0.0579(2) -0.1003(5)
H19 H 0.5467(4) 0.0324(2) -0.1377(5)
C25 C 0.5612(5) 0.0563(2) 0.0090(5)
H20 H 0.5668(5) 0.0304(2) 0.0443(5)
C26 C 0.5655(4) 0.0945(2) 0.0632(5)
C27 C 0.5540(4) 0.1320(2) 0.0140(5)
H21 H 0.5556(4) 0.1572(2) 0.0527(5)
C28 C 0.5397(4) 0.1331(2) -0.0946(5)
H22 H 0.5312(4) 0.1592(2) -0.1282(5)
O3 O 0.5843(3) 0.0972(2) 0.1727(4)
C29 C 0.5613(5) 0.0610(2) 0.2373(6)
H23 H 0.5902(5) 0.0644(2) 0.3069(6)
H24 H 0.5863(5) 0.0354(2) 0.2059(6)
C30 C 0.4613(6) 0.0558(2) 0.2485(6)
C31 C 0.3802(7) 0.0528(2) 0.2593(6)
C32 C 0.2871(6) 0.0483(2) 0.2762(5)
C33 C 0.2054(6) 0.0436(2) 0.2899(6)
C34 C 0.1102(5) 0.0353(2) 0.3053(7)
H25 H 0.1053(5) 0.0103(2) 0.3500(7)
H26 H 0.0814(5) 0.0283(2) 0.2373(7)
O4 O 0.0583(3) 0.06913(14) 0.3518(4)
C35 C 0.0315(4) 0.1026(2) 0.2871(5)
C36 C 0.0777(5) 0.1152(2) 0.1986(5)
H27 H 0.1294(5) 0.1002(2) 0.1766(5)
C37 C 0.0465(4) 0.1502(2) 0.1431(5)
H28 H 0.0788(4) 0.1587(2) 0.0840(5)
C38 C -0.0301(3) 0.1734(2) 0.1703(4)
C39 C -0.0738(4) 0.1603(2) 0.2604(5)
H29 H -0.1252(4) 0.1753(2) 0.2830(5)
C40 C -0.0434(4) 0.1254(2) 0.3176(5)
H30 H -0.0745(4) 0.1173(2) 0.3779(5)
C41 C 0.5156(3) 0.1414(2) -0.3188(4)
C42 C 0.5877(3) 0.1685(2) -0.3439(4)
H31 H 0.6482(3) 0.1583(2) -0.3394(4)
C43 C 0.5726(4) 0.2100(2) -0.3753(5)
H32 H 0.6225(4) 0.2273(2) -0.3921(5)
C44 C 0.4827(4) 0.2259(2) -0.3818(5)
C45 C 0.4103(4) 0.2003(2) -0.3540(5)
H33 H 0.3500(4) 0.2108(2) -0.3566(5)
C46 C 0.4273(4) 0.1591(2) -0.3222(5)
H34 H 0.3776(4) 0.1423(2) -0.3022(5)
O5 O 0.4741(3) 0.26702(12) -0.4200(4)
C47 C 0.3827(4) 0.2839(2) -0.4332(6)
H35 H 0.3422(4) 0.2620(2) -0.4623(6)
H36 H 0.3838(4) 0.3072(2) -0.4835(6)
C48 C 0.3450(4) 0.2993(2) -0.3340(6)
C49 C 0.3155(4) 0.3141(2) -0.2527(6)
C50 C 0.2839(4) 0.3318(2) -0.1638(6)
C51 C 0.2556(4) 0.3485(2) -0.0858(6)
C52 C 0.2195(4) 0.3710(2) 0.0068(5)
H37 H 0.2612(4) 0.3942(2) 0.0256(5)
H38 H 0.1596(4) 0.3832(2) -0.0121(5)
O6 O 0.2097(2) 0.34385(12) 0.0966(3)
C53 C 0.1448(3) 0.3120(2) 0.0900(5)
C54 C 0.0805(3) 0.3068(2) 0.0071(5)
H39 H 0.0809(3) 0.3250(2) -0.0509(5)
C55 C 0.0153(3) 0.2741(2) 0.0119(5)
H40 H -0.0293(3) 0.2716(2) -0.0422(5)
C56 C 0.0149(3) 0.2453(2) 0.0946(4)
C57 C 0.0802(3) 0.2510(2) 0.1765(5)
H41 H 0.0808(3) 0.2324(2) 0.2339(5)
C58 C 0.1434(4) 0.2834(2) 0.1741(5)
H42 H 0.1864(4) 0.2863(2) 0.2297(5)
O7 O 0.2363(8) 0.1601(3) -0.0739(9)
C59 C 0.2268(6) 0.1219(3) -0.0725(8)
C60 C 0.2828(6) 0.0998(3) 0.0040(7)
H43 H 0.2617(31) 0.0708(7) 0.0094(39)
H44 H 0.2782(38) 0.1136(13) 0.0714(14)
H45 H 0.3462(9) 0.1000(19) -0.0173(29)
C61 C 0.1592(6) 0.1021(3) -0.1396(9)
H46 H 0.1238(41) 0.0822(21) -0.0994(18)
H47 H 0.1894(7) 0.0873(24) -0.1955(42)
H48 H 0.1186(39) 0.1235(4) -0.1693(57)
O8 O 0.6940(8) 0.1495(4) -0.5921(11)
C62 C 0.6357(9) 0.1747(4) -0.6226(12)
C63 C 0.5420(8) 0.1583(4) -0.6163(12)
H49 H 0.5441(8) 0.1281(4) -0.6041(12)
H50 H 0.5087(8) 0.1640(4) -0.6815(12)
H51 H 0.5112(8) 0.1720(4) -0.5590(12)
C64 C 0.6558(10) 0.2176(4) -0.6398(13)
H52 H 0.7218(10) 0.2214(4) -0.6411(13)
H53 H 0.6309(10) 0.2344(4) -0.5838(13)
H54 H 0.6284(10) 0.2264(4) -0.7062(13)
O9 O 0.8177(19) 0.0095(6) 0.0807(20)
C65 C 0.8533(14) 0.0406(6) 0.0396(15)
C66 C 0.8281(15) 0.0796(6) 0.0922(16)
H55 H 0.8232(15) 0.0743(6) 0.1667(16)
H56 H 0.7695(15) 0.0895(6) 0.0640(16)
H57 H 0.8748(15) 0.1008(6) 0.0810(16)
C67 C 0.8652(21) 0.0396(9) -0.0717(16)
H58 H 0.8817(21) 0.0113(9) -0.0929(16)
H59 H 0.9136(21) 0.0591(9) -0.0901(16)
H60 H 0.8083(21) 0.0479(9) -0.1072(16)
loop_
_geom_bond_atom_site_label_1
_geom_bond_atom_site_label_2
_geom_bond_site_symmetry_1
_geom_bond_site_symmetry_2
C1 C3 1_555 1_555
C2 C4 1_555 1_555
C3 H1 1_555 1_555
H2 C3 1_555 1_555
H3 C3 1_555 1_555
C4 H4 1_555 1_555
H5 C4 1_555 1_555
H6 C4 1_555 1_555
C5 C1 1_555 1_555
C6 C5 1_555 1_555
H7 C6 1_555 1_555
C7 C6 1_555 1_555
H8 C7 1_555 1_555
C8 C7 1_555 1_555
C9 C8 1_555 1_555
H9 C9 1_555 1_555
C10 C5 1_555 1_555
H10 C10 1_555 1_555
O1 C8 1_555 1_555
C11 O1 1_555 1_555
H11 C11 1_555 1_555
H12 C11 1_555 1_555
C12 C11 1_555 1_555
C13 C12 1_555 1_555
C14 C13 1_555 1_555
C15 C14 1_555 1_555
C16 C15 1_555 1_555
H13 C16 1_555 1_555
H14 C16 1_555 1_555
O2 C16 1_555 1_555
C17 O2 1_555 1_555
C18 C17 1_555 1_555
H15 C18 1_555 1_555
C19 C18 1_555 1_555
H16 C19 1_555 1_555
C20 C2 1_555 1_555
C21 C20 1_555 1_555
H17 C21 1_555 1_555
C22 C17 1_555 1_555
H18 C22 1_555 1_555
C23 C1 1_555 1_555
C24 C23 1_555 1_555
H19 C24 1_555 1_555
C25 C24 1_555 1_555
H20 C25 1_555 1_555
C26 C25 1_555 1_555
C27 C26 1_555 1_555
H21 C27 1_555 1_555
C28 C23 1_555 1_555
H22 C28 1_555 1_555
O3 C26 1_555 1_555
C29 O3 1_555 1_555
H23 C29 1_555 1_555
H24 C29 1_555 1_555
C30 C29 1_555 1_555
C31 C30 1_555 1_555
C32 C31 1_555 1_555
C33 C32 1_555 1_555
C34 C33 1_555 1_555
H25 C34 1_555 1_555
H26 C34 1_555 1_555
O4 C34 1_555 1_555
C35 O4 1_555 1_555
C36 C35 1_555 1_555
H27 C36 1_555 1_555
C37 C36 1_555 1_555
H28 C37 1_555 1_555
C38 C2 1_555 1_555
C39 C38 1_555 1_555
H29 C39 1_555 1_555
C40 C35 1_555 1_555
H30 C40 1_555 1_555
C41 C1 1_555 1_555
C42 C41 1_555 1_555
H31 C42 1_555 1_555
C43 C42 1_555 1_555
H32 C43 1_555 1_555
C44 C43 1_555 1_555
C45 C44 1_555 1_555
H33 C45 1_555 1_555
C46 C41 1_555 1_555
H34 C46 1_555 1_555
O5 C44 1_555 1_555
C47 O5 1_555 1_555
H35 C47 1_555 1_555
H36 C47 1_555 1_555
C48 C47 1_555 1_555
C49 C48 1_555 1_555
C50 C49 1_555 1_555
C51 C50 1_555 1_555
C52 C51 1_555 1_555
H37 C52 1_555 1_555
H38 C52 1_555 1_555
O6 C52 1_555 1_555
C53 O6 1_555 1_555
C54 C53 1_555 1_555
H39 C54 1_555 1_555
C55 C54 1_555 1_555
H40 C55 1_555 1_555
C56 C2 1_555 1_555
C57 C56 1_555 1_555
H41 C57 1_555 1_555
C58 C53 1_555 1_555
H42 C58 1_555 1_555
O7 C59 1_555 1_555
C59 C60 1_555 1_555
C60 H43 1_555 1_555
H44 C60 1_555 1_555
H45 C60 1_555 1_555
C61 C59 1_555 1_555
H46 C61 1_555 1_555
H47 C61 1_555 1_555
H48 C61 1_555 1_555
O8 C62 1_555 1_555
C62 C63 1_555 1_555
C63 H49 1_555 1_555
H50 C63 1_555 1_555
H51 C63 1_555 1_555
C64 C62 1_555 1_555
H52 C64 1_555 1_555
H53 C64 1_555 1_555
H54 C64 1_555 1_555
O9 C65 1_555 1_555
C65 C66 1_555 1_555
C66 H55 1_555 1_555
H56 C66 1_555 1_555
H57 C66 1_555 1_555
C67 C65 1_555 1_555
H58 C67 1_555 1_555
H59 C67 1_555 1_555
H60 C67 1_555 1_555
C9 C10 1_555 1_555
C19 C20 1_555 1_555
C21 C22 1_555 1_555
C27 C28 1_555 1_555
C37 C38 1_555 1_555
C39 C40 1_555 1_555
C45 C46 1_555 1_555
C55 C56 1_555 1_555
C57 C58 1_555 1_555

#END
