
#######################################################################
#
#                 Cambridge Crystallographic Data Centre
#                                CCDC 
#
#######################################################################
#
# If this CIF has been generated from an entry in the Cambridge 
# Structural Database, then it will include bibliographic, chemical, 
# crystal, experimental, refinement or atomic coordinate data resulting 
# from the CCDC's data processing and validation procedures.
#
#######################################################################

data_REFXAD
_chemical_formula_moiety         'C15 H18 O3'
_chemical_name_systematic        
'Ethyl 5a,6,7,8,9,9a-hexahydrodibenzo[b,d]furan-2-carboxylate'
_symmetry_cell_setting           monoclinic
_symmetry_space_group_name_H-M   'P 21/c'
_symmetry_Int_Tables_number      14
_space_group_name_Hall           '-P 2ybc'
loop_
_symmetry_equiv_pos_site_id
_symmetry_equiv_pos_as_xyz
1 x,y,z
2 -x,1/2+y,1/2-z
3 -x,-y,-z
4 x,1/2-y,1/2+z
_cell_length_a                   6.0604(4)
_cell_length_b                   24.8743(17)
_cell_length_c                   8.9449(7)
_cell_angle_alpha                90
_cell_angle_beta                 97.607(6)
_cell_angle_gamma                90
_cell_volume                     1336.56
_exptl_crystal_colour            colorless
_exptl_crystal_description       block
_cell_formula_units_Z            4
loop_
_atom_site_label
_atom_site_type_symbol
_atom_site_fract_x
_atom_site_fract_y
_atom_site_fract_z
O1 O -0.2552(2) -0.02682(6) 0.13747(17)
O2 O -0.1282(5) 0.21808(9) 0.3105(3)
O3 O 0.1958(4) 0.18347(8) 0.4042(3)
C1 C -0.0333(4) -0.11208(10) 0.1600(3)
H1 H 0.0120 -0.1086 0.0605
H2 H -0.1665 -0.1341 0.1521
C2 C 0.1510(4) -0.13769(10) 0.2676(3)
H3 H 0.1977 -0.1706 0.2225
H4 H 0.0925 -0.1474 0.3597
C3 C 0.3544(4) -0.10158(10) 0.3074(3)
H5 H 0.4538 -0.1185 0.3877
H6 H 0.4331 -0.0989 0.2201
C4 C 0.2998(4) -0.04518(9) 0.3572(3)
H7 H 0.2476 -0.0465 0.4551
H8 H 0.4320 -0.0228 0.3657
C5 C 0.1226(3) -0.02194(8) 0.2424(2)
H9 H 0.1835 -0.0219 0.1462
C6 C -0.0781(3) -0.05813(9) 0.2213(3)
H10 H -0.1214 -0.0641 0.3218
C7 C -0.2079(4) 0.02491(9) 0.1830(2)
C8 C 0.0097(3) 0.03151(8) 0.2532(2)
C9 C 0.0800(4) 0.08168(8) 0.3029(2)
H11 H 0.2249 0.0869 0.3495
C10 C -0.0686(4) 0.12459(9) 0.2825(2)
C11 C -0.2837(4) 0.11633(10) 0.2123(3)
H12 H -0.3811 0.1454 0.1994
C12 C -0.3579(4) 0.06642(10) 0.1609(3)
H13 H -0.5023 0.0611 0.1136
C13 C -0.0081(6) 0.17969(11) 0.3314(3)
C14 C 0.2106(16) 0.2379(4) 0.4807(14)
H14 H 0.1475 0.2375 0.5749
H15 H 0.1404 0.2659 0.4156
C15 C 0.4650(16) 0.2436(4) 0.5063(13)
H16 H 0.5238 0.2359 0.4141
H17 H 0.5263 0.2188 0.5831
H18 H 0.5041 0.2796 0.5378
C16? C 0.3179(18) 0.2365(4) 0.4304(12)
C17? C 0.315(2) 0.2415(4) 0.5827(11)
H19? H 0.4684 0.2345 0.4050
H20? H 0.2387 0.2657 0.3746
H21? H 0.3486 0.2074 0.6305
H22? H 0.1705 0.2533 0.6015
H23? H 0.4248 0.2675 0.6227
loop_
_geom_bond_atom_site_label_1
_geom_bond_atom_site_label_2
_geom_bond_site_symmetry_1
_geom_bond_site_symmetry_2
O1 C6 1_555 1_555
O2 C13 1_555 1_555
O3 C13 1_555 1_555
C1 H1 1_555 1_555
H2 C1 1_555 1_555
C2 C1 1_555 1_555
H3 C2 1_555 1_555
H4 C2 1_555 1_555
C3 C2 1_555 1_555
H5 C3 1_555 1_555
H6 C3 1_555 1_555
C4 C3 1_555 1_555
H7 C4 1_555 1_555
H8 C4 1_555 1_555
C5 C4 1_555 1_555
H9 C5 1_555 1_555
C6 C1 1_555 1_555
H10 C6 1_555 1_555
C7 O1 1_555 1_555
C8 C5 1_555 1_555
C9 C8 1_555 1_555
H11 C9 1_555 1_555
C10 C9 1_555 1_555
C11 C10 1_555 1_555
H12 C11 1_555 1_555
C12 C7 1_555 1_555
H13 C12 1_555 1_555
C13 C10 1_555 1_555
C14 O3 1_555 1_555
H14 C14 1_555 1_555
H15 C14 1_555 1_555
C15 C14 1_555 1_555
H16 C15 1_555 1_555
H17 C15 1_555 1_555
H18 C15 1_555 1_555
C5 C6 1_555 1_555
C7 C8 1_555 1_555
C11 C12 1_555 1_555

#END
