
#######################################################################
#
#                 Cambridge Crystallographic Data Centre
#                                CCDC 
#
#######################################################################
#
# If this CIF has been generated from an entry in the Cambridge 
# Structural Database, then it will include bibliographic, chemical, 
# crystal, experimental, refinement or atomic coordinate data resulting 
# from the CCDC's data processing and validation procedures.
#
#######################################################################

data_REFXEF
_chemical_formula_moiety         'C64 H68 N6 O16 S4,2(C3 H7 N1 O1)'
_chemical_name_systematic        
'7,9,25,27-tetrakis(Ethoxycarbonyl)-2,11,20,29-tetrakis(4-tolylsulfonyl)-2,11,20,29-tetra-aza(3.3)(2,6)pyridino(1,2)benzeno(3.3) (4,5)benzeno(2,6)pyridino(3)phane dimethylformamide solvate'
_symmetry_cell_setting           monoclinic
_symmetry_space_group_name_H-M   'P 21/n'
_symmetry_Int_Tables_number      14
_space_group_name_Hall           '-P 2yn'
loop_
_symmetry_equiv_pos_site_id
_symmetry_equiv_pos_as_xyz
1 x,y,z
2 1/2-x,1/2+y,1/2-z
3 -x,-y,-z
4 1/2+x,1/2-y,1/2+z
_cell_length_a                   13.863(1)
_cell_length_b                   13.484(1)
_cell_length_c                   19.955(2)
_cell_angle_alpha                90
_cell_angle_beta                 109.48(1)
_cell_angle_gamma                90
_cell_volume                     3516.64
_exptl_crystal_colour            colorless
_cell_formula_units_Z            2
loop_
_atom_site_label
_atom_site_type_symbol
_atom_site_fract_x
_atom_site_fract_y
_atom_site_fract_z
C1 C 0.3131(3) 0.4102(3) 0.5100(2)
H1 H 0.2947(3) 0.4460(3) 0.5474(2)
H2 H 0.2555(3) 0.4174(3) 0.4648(2)
N1 N 0.3276(3) 0.3036(3) 0.5290(2)
C2 C 0.3050(4) 0.2332(3) 0.4673(2)
H3 H 0.2319(4) 0.2372(3) 0.4377(2)
H4 H 0.3204(4) 0.1642(3) 0.4846(2)
C3 C 0.3721(3) 0.2633(3) 0.4243(2)
C4 C 0.4755(4) 0.2400(3) 0.4415(2)
C5 C 0.5280(3) 0.2855(3) 0.4005(2)
H5 H 0.5986(3) 0.2719(3) 0.4103(2)
C6 C 0.4783(3) 0.3495(3) 0.3463(2)
C7 C 0.3747(3) 0.3678(3) 0.3324(2)
N2 N 0.3227(3) 0.3220(3) 0.3702(2)
C8 C 0.3071(4) 0.4413(3) 0.2806(2)
H6 H 0.3246(4) 0.4425(3) 0.2364(2)
H7 H 0.2345(4) 0.4215(3) 0.2683(2)
N3 N 0.3229(3) 0.5417(3) 0.3140(2)
C9 C 0.3091(3) 0.5467(3) 0.3854(2)
H8 H 0.2537(3) 0.5009(3) 0.3861(2)
H9 H 0.2884(3) 0.6148(3) 0.3934(2)
C10 C 0.4070(3) 0.5192(3) 0.4454(2)
C11 C 0.4084(3) 0.4570(3) 0.5020(2)
C12 C 0.4990(3) 0.5608(3) 0.4451(2)
H10 H 0.4981(3) 0.6032(3) 0.4069(2)
S1 S 0.28283(9) 0.26660(9) 0.59123(6)
O1 O 0.3198(3) 0.3356(3) 0.6487(2)
O2 O 0.3061(3) 0.1634(3) 0.6031(2)
C13 C 0.1481(4) 0.2777(3) 0.5573(2)
C14 C 0.0894(4) 0.2024(4) 0.5167(3)
H11 H 0.1210(4) 0.1441(4) 0.5070(3)
C15 C -0.0166(4) 0.2129(5) 0.4901(4)
H12 H -0.0569(4) 0.1614(5) 0.4618(4)
C16 C -0.0644(4) 0.2967(4) 0.5038(3)
C17 C -0.0039(4) 0.3702(5) 0.5437(3)
H13 H -0.0356(4) 0.4284(5) 0.5533(3)
C18 C 0.1004(4) 0.3630(4) 0.5701(3)
H14 H 0.1401(4) 0.4159(4) 0.5969(3)
C19 C -0.1781(5) 0.3073(6) 0.4758(4)
H15 H -0.2047(6) 0.3085(37) 0.5156(4)
H16 H -0.2080(5) 0.2512(20) 0.4446(21)
H17 H -0.1962(5) 0.3693(19) 0.4489(22)
C20 C 0.5311(4) 0.1724(4) 0.5007(3)
O3 O 0.4927(3) 0.1209(3) 0.5333(2)
O4 O 0.6332(6) 0.1941(7) 0.5224(5)
C21 C 0.6985(10) 0.1295(9) 0.5767(7)
H18 H 0.6655(10) 0.1151(9) 0.6127(7)
H19 H 0.7645(10) 0.1629(9) 0.6009(7)
C22 C 0.7165(12) 0.0375(9) 0.5451(8)
H20 H 0.7654(61) -0.0033(34) 0.5815(14)
H21 H 0.7446(74) 0.0522(10) 0.5071(36)
H22 H 0.6519(18) 0.0013(37) 0.5253(49)
C23 C 0.5450(4) 0.3978(4) 0.3097(3)
O5 O 0.6362(3) 0.3969(4) 0.3336(2)
O6 O 0.4936(3) 0.4412(3) 0.2493(2)
C24 C 0.5532(6) 0.4944(6) 0.2128(3)
H23 H 0.5153(6) 0.5541(6) 0.1892(3)
H24 H 0.6191(6) 0.5161(6) 0.2477(3)
C25 C 0.5715(9) 0.4324(9) 0.1620(6)
H25 H 0.6164(55) 0.3778(37) 0.1861(6)
H26 H 0.6044(62) 0.4705(18) 0.1339(31)
H27 H 0.5064(11) 0.4055(52) 0.1307(29)
S2 S 0.26844(8) 0.63141(8) 0.25901(6)
O7 O 0.2993(3) 0.7224(2) 0.2964(2)
O8 O 0.2900(3) 0.6122(3) 0.1942(2)
C26 C 0.1349(3) 0.6177(3) 0.2400(2)
C27 C 0.0864(4) 0.6683(4) 0.2803(3)
H28 H 0.1236(4) 0.7123(4) 0.3170(3)
C28 C -0.0178(4) 0.6534(4) 0.2660(3)
H29 H -0.0511(4) 0.6874(4) 0.2938(3)
C29 C -0.0746(4) 0.5904(4) 0.2123(3)
C30 C -0.0227(4) 0.5401(4) 0.1733(3)
H30 H -0.0592(4) 0.4955(4) 0.1368(3)
C31 C 0.0800(4) 0.5542(4) 0.1869(3)
H31 H 0.1136(4) 0.5199(4) 0.1595(3)
C32 C -0.1870(5) 0.5753(6) 0.1969(5)
H32 H -0.2053(9) 0.5068(13) 0.1814(28)
H33 H -0.2254(5) 0.6210(29) 0.1592(21)
H34 H -0.2041(9) 0.5884(40) 0.2400(9)
C12B C 0.5010(3) 0.4392(3) 0.5549(2)
C10B C 0.5930(3) 0.4808(3) 0.5546(2)
C9B C 0.6909(3) 0.4533(3) 0.6146(2)
N3B N 0.6771(3) 0.4583(3) 0.6860(2)
C8B C 0.6929(4) 0.5587(3) 0.7194(2)
C7B C 0.6253(3) 0.6322(3) 0.6676(2)
C6B C 0.5217(3) 0.6505(3) 0.6537(2)
C5B C 0.4720(3) 0.7145(3) 0.5995(2)
C4B C 0.5245(4) 0.7600(3) 0.5585(2)
C3B C 0.6279(3) 0.7367(3) 0.5757(2)
C2B C 0.6950(4) 0.7668(3) 0.5327(2)
N1B N 0.6724(3) 0.6964(3) 0.4710(2)
C1B C 0.6869(3) 0.5898(3) 0.4900(2)
H1B H 0.7053(3) 0.5540(3) 0.4526(2)
H2B H 0.7445(3) 0.5826(3) 0.5352(2)
C11B C 0.5916(3) 0.5430(3) 0.4980(2)
S1B S 0.71717(9) 0.73340(9) 0.40877(6)
O1B O 0.6802(3) 0.6644(3) 0.3513(2)
O2B O 0.6939(3) 0.8366(3) 0.3969(2)
C13B C 0.8519(4) 0.7223(3) 0.4427(2)
C14B C 0.9106(4) 0.7976(4) 0.4833(3)
H11B H 0.8790(4) 0.8559(4) 0.4930(3)
C15B C 1.0166(4) 0.7871(5) 0.5099(4)
H12B H 1.0569(4) 0.8386(5) 0.5382(4)
C16B C 1.0644(4) 0.7033(4) 0.4962(3)
C17B C 1.0039(4) 0.6298(5) 0.4563(3)
H13B H 1.0356(4) 0.5716(5) 0.4467(3)
C18B C 0.8996(4) 0.6370(4) 0.4299(3)
H14B H 0.8599(4) 0.5841(4) 0.4031(3)
C19B C 1.1781(5) 0.6927(6) 0.5242(4)
H15B H 1.2047(6) 0.6915(37) 0.4844(4)
H16B H 1.2080(5) 0.7488(20) 0.5554(21)
H17B H 1.1962(5) 0.6307(19) 0.5511(22)
H3B H 0.7681(4) 0.7628(3) 0.5623(2)
H4B H 0.6796(4) 0.8358(3) 0.5154(2)
N2B N 0.6773(3) 0.6780(3) 0.6298(2)
C20B C 0.4689(4) 0.8276(4) 0.4993(3)
O3B O 0.5073(3) 0.8791(3) 0.4667(2)
O4B O 0.3668(6) 0.8059(7) 0.4776(5)
C21B C 0.3015(10) 0.8705(9) 0.4233(7)
H18B H 0.3345(10) 0.8849(9) 0.3873(7)
H19B H 0.2355(10) 0.8371(9) 0.3991(7)
C22B C 0.2835(12) 0.9625(9) 0.4549(8)
H20B H 0.2346(61) 1.0033(34) 0.4185(14)
H21B H 0.2554(74) 0.9478(10) 0.4929(36)
H22B H 0.3481(18) 0.9987(37) 0.4747(49)
H5B H 0.4014(3) 0.7281(3) 0.5897(2)
C23B C 0.4550(4) 0.6022(4) 0.6903(3)
O5B O 0.3638(3) 0.6031(4) 0.6664(2)
O6B O 0.5064(3) 0.5588(3) 0.7507(2)
C24B C 0.4468(6) 0.5056(6) 0.7872(3)
H23B H 0.4847(6) 0.4459(6) 0.8108(3)
H24B H 0.3809(6) 0.4839(6) 0.7523(3)
C25B C 0.4285(9) 0.5676(9) 0.8380(6)
H25B H 0.3836(55) 0.6222(37) 0.8139(6)
H26B H 0.3956(62) 0.5295(18) 0.8661(31)
H27B H 0.4936(11) 0.5945(52) 0.8693(29)
H6B H 0.6754(4) 0.5575(3) 0.7636(2)
H7B H 0.7655(4) 0.5785(3) 0.7317(2)
S2B S 0.73156(8) 0.36859(8) 0.74099(6)
O7B O 0.7007(3) 0.2776(2) 0.7036(2)
O8B O 0.7100(3) 0.3878(3) 0.8058(2)
C26B C 0.8651(3) 0.3823(3) 0.7600(2)
C27B C 0.9136(4) 0.3317(4) 0.7197(3)
H28B H 0.8764(4) 0.2877(4) 0.6830(3)
C28B C 1.0178(4) 0.3466(4) 0.7340(3)
H29B H 1.0511(4) 0.3126(4) 0.7062(3)
C29B C 1.0746(4) 0.4096(4) 0.7877(3)
C30B C 1.0227(4) 0.4599(4) 0.8267(3)
H30B H 1.0592(4) 0.5045(4) 0.8632(3)
C31B C 0.9200(4) 0.4458(4) 0.8131(3)
H31B H 0.8864(4) 0.4801(4) 0.8405(3)
C32B C 1.1870(5) 0.4247(6) 0.8031(5)
H32B H 1.2053(9) 0.4932(13) 0.8186(28)
H33B H 1.2254(5) 0.3790(29) 0.8408(21)
H34B H 1.2041(9) 0.4116(40) 0.7600(9)
H8B H 0.7463(3) 0.4991(3) 0.6139(2)
H9B H 0.7116(3) 0.3852(3) 0.6066(2)
H10B H 0.5019(3) 0.3968(3) 0.5931(2)
O9 O 0.0862(3) 0.4404(4) 0.3858(2)
C33 C -0.0002(4) 0.4091(5) 0.3622(3)
H35 H -0.0478(4) 0.4350(5) 0.3827(3)
N4 N -0.0363(3) 0.3425(3) 0.3107(2)
C34 C 0.0276(5) 0.2982(5) 0.2756(4)
H36 H 0.0025(22) 0.3164(29) 0.2251(7)
H37 H 0.0260(29) 0.2259(5) 0.2801(22)
H38 H 0.0980(9) 0.3219(28) 0.2974(17)
C35 C -0.1425(5) 0.3125(6) 0.2887(4)
H39 H -0.1465(5) 0.2413(10) 0.2971(25)
H40 H -0.1752(11) 0.3265(35) 0.2379(8)
H41 H -0.1776(11) 0.3494(29) 0.3160(20)
O10? O 0.6257(7) 0.1499(7) 0.5030(5)
C36? C 0.6812(10) 0.0809(12) 0.5572(8)
H42? H 0.6956(10) 0.1111(12) 0.6047(8)
H43? H 0.6398(10) 0.0203(12) 0.5547(8)
C37? C 0.7757(10) 0.0556(11) 0.5464(9)
H44? H 0.8040(40) -0.0046(43) 0.5732(43)
H45? H 0.8245(27) 0.1102(32) 0.5629(48)
H46? H 0.7630(16) 0.0440(71) 0.4957(11)
H47? H 0.5765(6) 0.5579(6) 0.2378(3)
H48? H 0.6149(6) 0.4548(6) 0.2165(3)
C38? C 0.5026(14) 0.5143(17) 0.1426(8)
H49? H 0.4453(72) 0.5591(90) 0.1383(9)
H50? H 0.477(10) 0.4523(21) 0.1174(18)
H51? H 0.5497(34) 0.546(10) 0.1217(21)
loop_
_geom_bond_atom_site_label_1
_geom_bond_atom_site_label_2
_geom_bond_site_symmetry_1
_geom_bond_site_symmetry_2
C1 H1 1_555 1_555
H2 C1 1_555 1_555
N1 C1 1_555 1_555
C2 N1 1_555 1_555
H3 C2 1_555 1_555
H4 C2 1_555 1_555
C3 C2 1_555 1_555
C4 C3 1_555 1_555
C5 C4 1_555 1_555
H5 C5 1_555 1_555
C6 C5 1_555 1_555
C7 C6 1_555 1_555
N2 C3 1_555 1_555
C8 C7 1_555 1_555
H6 C8 1_555 1_555
H7 C8 1_555 1_555
N3 C8 1_555 1_555
C9 N3 1_555 1_555
H8 C9 1_555 1_555
H9 C9 1_555 1_555
C10 C9 1_555 1_555
C11 C1 1_555 1_555
C12 C10 1_555 1_555
H10 C12 1_555 1_555
S1 N1 1_555 1_555
O1 S1 1_555 1_555
O2 S1 1_555 1_555
C13 S1 1_555 1_555
C14 C13 1_555 1_555
H11 C14 1_555 1_555
C15 C14 1_555 1_555
H12 C15 1_555 1_555
C16 C15 1_555 1_555
C17 C16 1_555 1_555
H13 C17 1_555 1_555
C18 C13 1_555 1_555
H14 C18 1_555 1_555
C19 C16 1_555 1_555
H15 C19 1_555 1_555
H16 C19 1_555 1_555
H17 C19 1_555 1_555
C20 C4 1_555 1_555
O3 C20 1_555 1_555
O4 C20 1_555 1_555
C21 O4 1_555 1_555
H18 C21 1_555 1_555
H19 C21 1_555 1_555
C22 C21 1_555 1_555
H20 C22 1_555 1_555
H21 C22 1_555 1_555
H22 C22 1_555 1_555
C23 C6 1_555 1_555
O5 C23 1_555 1_555
O6 C23 1_555 1_555
C24 O6 1_555 1_555
H23 C24 1_555 1_555
H24 C24 1_555 1_555
C25 C24 1_555 1_555
H25 C25 1_555 1_555
H26 C25 1_555 1_555
H27 C25 1_555 1_555
S2 N3 1_555 1_555
O7 S2 1_555 1_555
O8 S2 1_555 1_555
C26 S2 1_555 1_555
C27 C26 1_555 1_555
H28 C27 1_555 1_555
C28 C27 1_555 1_555
H29 C28 1_555 1_555
C29 C28 1_555 1_555
C30 C29 1_555 1_555
H30 C30 1_555 1_555
C31 C26 1_555 1_555
H31 C31 1_555 1_555
C32 C29 1_555 1_555
H32 C32 1_555 1_555
H33 C32 1_555 1_555
H34 C32 1_555 1_555
O9 C33 1_555 1_555
C33 H35 1_555 1_555
N4 C33 1_555 1_555
C34 N4 1_555 1_555
H36 C34 1_555 1_555
H37 C34 1_555 1_555
H38 C34 1_555 1_555
C35 N4 1_555 1_555
H39 C35 1_555 1_555
H40 C35 1_555 1_555
H41 C35 1_555 1_555
C12B C11 1_555 1_555
C10B C12B 1_555 1_555
C9B C10B 1_555 1_555
N3B C9B 1_555 1_555
C8B N3B 1_555 1_555
C7B C8B 1_555 1_555
C6B C7B 1_555 1_555
C5B C6B 1_555 1_555
C4B C5B 1_555 1_555
C3B C4B 1_555 1_555
C2B C3B 1_555 1_555
N1B C2B 1_555 1_555
C1B N1B 1_555 1_555
H1B C1B 1_555 1_555
H2B C1B 1_555 1_555
C11B C12 1_555 1_555
S1B N1B 1_555 1_555
O1B S1B 1_555 1_555
O2B S1B 1_555 1_555
C13B S1B 1_555 1_555
C14B C13B 1_555 1_555
H11B C14B 1_555 1_555
C15B C14B 1_555 1_555
H12B C15B 1_555 1_555
C16B C15B 1_555 1_555
C17B C16B 1_555 1_555
H13B C17B 1_555 1_555
C18B C13B 1_555 1_555
H14B C18B 1_555 1_555
C19B C16B 1_555 1_555
H15B C19B 1_555 1_555
H16B C19B 1_555 1_555
H17B C19B 1_555 1_555
H3B C2B 1_555 1_555
H4B C2B 1_555 1_555
N2B C7B 1_555 1_555
C20B C4B 1_555 1_555
O3B C20B 1_555 1_555
O4B C20B 1_555 1_555
C21B O4B 1_555 1_555
H18B C21B 1_555 1_555
H19B C21B 1_555 1_555
C22B C21B 1_555 1_555
H20B C22B 1_555 1_555
H21B C22B 1_555 1_555
H22B C22B 1_555 1_555
H5B C5B 1_555 1_555
C23B C6B 1_555 1_555
O5B C23B 1_555 1_555
O6B C23B 1_555 1_555
C24B O6B 1_555 1_555
H23B C24B 1_555 1_555
H24B C24B 1_555 1_555
C25B C24B 1_555 1_555
H25B C25B 1_555 1_555
H26B C25B 1_555 1_555
H27B C25B 1_555 1_555
H6B C8B 1_555 1_555
H7B C8B 1_555 1_555
S2B N3B 1_555 1_555
O7B S2B 1_555 1_555
O8B S2B 1_555 1_555
C26B S2B 1_555 1_555
C27B C26B 1_555 1_555
H28B C27B 1_555 1_555
C28B C27B 1_555 1_555
H29B C28B 1_555 1_555
C29B C28B 1_555 1_555
C30B C29B 1_555 1_555
H30B C30B 1_555 1_555
C31B C26B 1_555 1_555
H31B C31B 1_555 1_555
C32B C29B 1_555 1_555
H32B C32B 1_555 1_555
H33B C32B 1_555 1_555
H34B C32B 1_555 1_555
H8B C9B 1_555 1_555
H9B C9B 1_555 1_555
H10B C12B 1_555 1_555
C7 N2 1_555 1_555
C10 C11 1_555 1_555
C17 C18 1_555 1_555
C30 C31 1_555 1_555
C10B C11B 1_555 1_555
C3B N2B 1_555 1_555
C1B C11B 1_555 1_555
C17B C18B 1_555 1_555
C30B C31B 1_555 1_555

#END
