
#######################################################################
#
#                 Cambridge Crystallographic Data Centre
#                                CCDC 
#
#######################################################################
#
# If this CIF has been generated from an entry in the Cambridge 
# Structural Database, then it will include bibliographic, chemical, 
# crystal, experimental, refinement or atomic coordinate data resulting 
# from the CCDC's data processing and validation procedures.
#
#######################################################################

data_REFXAB
_chemical_formula_moiety         'C64 H68 N6 O16 S4,2(C1 H1 Cl3),2(C6 H6)'
_chemical_name_systematic        
'7,9,25,27-tetrakis(Ethoxycarbonyl)-2,11,20,29-tetrakis(4-tolylsulfonyl)-2,11,20,29-tetra-aza(3.3)(2,6)pyridino(1,2)benzeno(3.3)(4,5)benzeno(2,6)pyridino(3)phane chloroform benzene solvate'
_symmetry_cell_setting           triclinic
_symmetry_space_group_name_H-M   'P -1'
_symmetry_Int_Tables_number      2
_space_group_name_Hall           '-P 1'
loop_
_symmetry_equiv_pos_site_id
_symmetry_equiv_pos_as_xyz
1 x,y,z
2 -x,-y,-z
_cell_length_a                   10.384(2)
_cell_length_b                   13.815(3)
_cell_length_c                   15.575(4)
_cell_angle_alpha                103.42(2)
_cell_angle_beta                 102.92(2)
_cell_angle_gamma                99.24(2)
_cell_volume                     2064.41
_exptl_crystal_colour            colorless
_cell_formula_units_Z            1
loop_
_atom_site_label
_atom_site_type_symbol
_atom_site_fract_x
_atom_site_fract_y
_atom_site_fract_z
S1 S 0.2667(2) 0.03416(13) 0.31694(9)
S2 S 0.0220(2) -0.31146(12) -0.23161(10)
O1 O 0.3939(4) 0.1022(3) 0.3664(3)
O2 O 0.1433(4) 0.0650(4) 0.3220(3)
O3 O 0.3261(6) 0.2780(4) 0.1073(3)
O4 O 0.4587(5) 0.2246(3) 0.2097(3)
O5 O 0.1670(5) 0.0783(4) -0.2075(3)
O6 O 0.2401(5) -0.0633(4) -0.2532(3)
O7 O 0.0845(5) -0.3052(3) -0.3036(3)
O8 O -0.1178(4) -0.3120(3) -0.2453(3)
C1 C 0.1484(5) -0.0747(4) 0.1444(3)
H1 H 0.0862(5) -0.0954(4) 0.1783(3)
H2 H 0.1811(5) -0.1339(4) 0.1188(3)
N1 N 0.2646(4) 0.0055(3) 0.2081(3)
C2 C 0.3955(5) 0.0080(4) 0.1842(3)
H3 H 0.4251(5) -0.0547(4) 0.1867(3)
H4 H 0.4646(5) 0.0650(4) 0.2271(3)
C3 C 0.3724(5) 0.0196(4) 0.0874(4)
C4 C 0.3594(5) 0.1093(4) 0.0638(4)
C5 C 0.3141(5) 0.1020(4) -0.0279(4)
H5 H 0.3039(5) 0.1609(4) -0.0454(4)
C6 C 0.2833(5) 0.0110(4) -0.0944(4)
C7 C 0.2996(5) -0.0759(4) -0.0655(4)
N2 N 0.3469(4) -0.0696(3) 0.0238(3)
C8 C 0.2519(5) -0.1829(4) -0.1260(4)
H6 H 0.2757(5) -0.1873(4) -0.1834(4)
H7 H 0.2946(5) -0.2285(4) -0.0964(4)
N3 N 0.1035(4) -0.2126(3) -0.1438(3)
C9 C 0.0522(5) -0.2021(4) -0.0600(3)
H8 H 0.1173(5) -0.2164(4) -0.0120(3)
H9 H -0.0324(5) -0.2518(4) -0.0745(3)
C10 C 0.0297(4) -0.0967(4) -0.0255(3)
C11 C 0.0730(4) -0.0385(4) 0.0666(3)
C12 C -0.0427(5) -0.0561(4) -0.0889(3)
H10 H -0.0726(5) -0.0949(4) -0.1499(3)
C13 C 0.2615(6) -0.0794(5) 0.3492(3)
C14 C 0.3769(7) -0.1078(6) 0.3835(4)
H11 H 0.4606(7) -0.0648(6) 0.3933(4)
C15 C 0.3709(8) -0.2010(7) 0.4042(5)
H12 H 0.4504(8) -0.2182(7) 0.4307(5)
C16 C 0.2485(9) -0.2676(6) 0.3857(5)
C17 C 0.1320(8) -0.2376(7) 0.3533(5)
H13 H 0.0484(8) -0.2807(7) 0.3437(5)
C18 C 0.1367(7) -0.1445(6) 0.3348(4)
H14 H 0.0567(7) -0.1252(6) 0.3127(4)
C19 C 0.2432(11) -0.3750(7) 0.4034(6)
H15 H 0.1909(71) -0.4270(8) 0.3486(18)
H16 H 0.2018(75) -0.3784(23) 0.4522(38)
H17 H 0.3336(13) -0.3854(27) 0.4201(55)
C20 C 0.3798(7) 0.2128(5) 0.1292(4)
C21 C 0.4805(10) 0.3221(6) 0.2791(6)
H18 H 0.4990(10) 0.3781(6) 0.2527(6)
H19 H 0.3994(10) 0.3259(6) 0.2996(6)
C22 C 0.5885(9) 0.3304(7) 0.3528(6)
H20 H 0.5998(46) 0.3929(27) 0.3993(21)
H21 H 0.6696(16) 0.3305(54) 0.3329(12)
H22 H 0.5712(33) 0.2736(29) 0.3775(31)
C23 C 0.2238(6) 0.0133(5) -0.1910(4)
C24 C 0.1727(10) -0.0711(8) -0.3503(5)
H23 H 0.1385(10) -0.1424(8) -0.3845(5)
H24 H 0.0963(10) -0.0386(8) -0.3526(5)
C25 C 0.2573(13) -0.0273(13) -0.3883(9)
H25 H 0.2570(75) 0.0440(21) -0.3765(58)
H26 H 0.2299(58) -0.0587(52) -0.4533(12)
H27 H 0.3469(21) -0.0350(65) -0.3630(48)
C26 C 0.0494(6) -0.4206(4) -0.1973(4)
C27 C 0.1608(7) -0.4596(5) -0.2112(5)
H28 H 0.2194(7) -0.4294(5) -0.2396(5)
C28 C 0.1831(8) -0.5452(6) -0.1814(6)
H29 H 0.2556(8) -0.5730(6) -0.1926(6)
C29 C 0.1034(10) -0.5885(6) -0.1373(6)
C30 C -0.0062(10) -0.5504(6) -0.1255(6)
H30 H -0.0640(10) -0.5812(6) -0.0970(6)
C31 C -0.0342(8) -0.4660(5) -0.1553(5)
H31 H -0.1097(8) -0.4412(5) -0.1464(5)
C32 C 0.1315(12) -0.6806(7) -0.1054(8)
H32 H 0.0784(75) -0.7419(7) -0.1510(30)
H33 H 0.1080(91) -0.6774(38) -0.0487(34)
H34 H 0.2260(22) -0.6807(41) -0.0962(64)
C11A C -0.0730(4) 0.0385(4) -0.0666(3)
C1A C -0.1484(5) 0.0747(4) -0.1444(3)
H1A H -0.0862(5) 0.0954(4) -0.1783(3)
H2A H -0.1811(5) 0.1339(4) -0.1188(3)
N1A N -0.2646(4) -0.0055(3) -0.2081(3)
S1A S -0.2667(2) -0.03416(13) -0.31694(9)
O1A O -0.3939(4) -0.1022(3) -0.3664(3)
O2A O -0.1433(4) -0.0650(4) -0.3220(3)
C13A C -0.2615(6) 0.0794(5) -0.3492(3)
C14A C -0.3769(7) 0.1078(6) -0.3835(4)
H11A H -0.4606(7) 0.0648(6) -0.3933(4)
C15A C -0.3709(8) 0.2010(7) -0.4042(5)
H12A H -0.4504(8) 0.2182(7) -0.4307(5)
C16A C -0.2485(9) 0.2676(6) -0.3857(5)
C17A C -0.1320(8) 0.2376(7) -0.3533(5)
H13A H -0.0484(8) 0.2807(7) -0.3437(5)
C18A C -0.1367(7) 0.1445(6) -0.3348(4)
H14A H -0.0567(7) 0.1252(6) -0.3127(4)
C19A C -0.2432(11) 0.3750(7) -0.4034(6)
H15A H -0.1909(71) 0.4270(8) -0.3486(18)
H16A H -0.2018(75) 0.3784(23) -0.4522(38)
H17A H -0.3336(13) 0.3854(27) -0.4201(55)
C2A C -0.3955(5) -0.0080(4) -0.1842(3)
H3A H -0.4251(5) 0.0547(4) -0.1867(3)
H4A H -0.4646(5) -0.0650(4) -0.2271(3)
C3A C -0.3724(5) -0.0196(4) -0.0874(4)
C4A C -0.3594(5) -0.1093(4) -0.0638(4)
C5A C -0.3141(5) -0.1020(4) 0.0279(4)
H5A H -0.3039(5) -0.1609(4) 0.0454(4)
C6A C -0.2833(5) -0.0110(4) 0.0944(4)
C7A C -0.2996(5) 0.0759(4) 0.0655(4)
N2A N -0.3469(4) 0.0696(3) -0.0238(3)
C8A C -0.2519(5) 0.1829(4) 0.1260(4)
H6A H -0.2757(5) 0.1873(4) 0.1834(4)
H7A H -0.2946(5) 0.2285(4) 0.0964(4)
N3A N -0.1035(4) 0.2126(3) 0.1438(3)
S2A S -0.0220(2) 0.31146(12) 0.23161(10)
O7A O -0.0845(5) 0.3052(3) 0.3036(3)
O8A O 0.1178(4) 0.3120(3) 0.2453(3)
C26A C -0.0494(6) 0.4206(4) 0.1973(4)
C27A C -0.1608(7) 0.4596(5) 0.2112(5)
H28A H -0.2194(7) 0.4294(5) 0.2396(5)
C28A C -0.1831(8) 0.5452(6) 0.1814(6)
H29A H -0.2556(8) 0.5730(6) 0.1926(6)
C29A C -0.1034(10) 0.5885(6) 0.1373(6)
C30A C 0.0062(10) 0.5504(6) 0.1255(6)
H30A H 0.0640(10) 0.5812(6) 0.0970(6)
C31A C 0.0342(8) 0.4660(5) 0.1553(5)
H31A H 0.1097(8) 0.4412(5) 0.1464(5)
C32A C -0.1315(12) 0.6806(7) 0.1054(8)
H32A H -0.0784(75) 0.7419(7) 0.1510(30)
H33A H -0.1080(91) 0.6774(38) 0.0487(34)
H34A H -0.2260(22) 0.6807(41) 0.0962(64)
C9A C -0.0522(5) 0.2021(4) 0.0600(3)
H8A H -0.1173(5) 0.2164(4) 0.0120(3)
H9A H 0.0324(5) 0.2518(4) 0.0745(3)
C10A C -0.0297(4) 0.0967(4) 0.0255(3)
C12A C 0.0427(5) 0.0561(4) 0.0889(3)
H10A H 0.0726(5) 0.0949(4) 0.1499(3)
C23A C -0.2238(6) -0.0133(5) 0.1910(4)
O5A O -0.1670(5) -0.0783(4) 0.2075(3)
O6A O -0.2401(5) 0.0633(4) 0.2532(3)
C24A C -0.1727(10) 0.0711(8) 0.3503(5)
H23A H -0.1385(10) 0.1424(8) 0.3845(5)
H24A H -0.0963(10) 0.0386(8) 0.3526(5)
C25A C -0.2573(13) 0.0273(13) 0.3883(9)
H25A H -0.2570(75) -0.0440(21) 0.3765(58)
H26A H -0.2299(58) 0.0587(52) 0.4533(12)
H27A H -0.3469(21) 0.0350(65) 0.3630(48)
C20A C -0.3798(7) -0.2128(5) -0.1292(4)
O3A O -0.3261(6) -0.2780(4) -0.1073(3)
O4A O -0.4587(5) -0.2246(3) -0.2097(3)
C21A C -0.4805(10) -0.3221(6) -0.2791(6)
H18A H -0.4990(10) -0.3781(6) -0.2527(6)
H19A H -0.3994(10) -0.3259(6) -0.2996(6)
C22A C -0.5885(9) -0.3304(7) -0.3528(6)
H20A H -0.5998(46) -0.3929(27) -0.3993(21)
H21A H -0.6696(16) -0.3305(54) -0.3329(12)
H22A H -0.5712(33) -0.2736(29) -0.3775(31)
C33 C 0.1867(10) 0.3116(8) 0.4898(6)
H35 H 0.1392(10) 0.2771(8) 0.4253(6)
Cl1 Cl 0.1061(3) 0.4031(3) 0.5294(2)
Cl2 Cl 0.3527(4) 0.3692(3) 0.4966(3)
Cl3 Cl 0.1869(5) 0.2218(3) 0.5505(3)
C34 C 0.5228(11) -0.3500(9) 0.2335(7)
H36 H 0.5778(11) -0.3459(9) 0.2908(7)
C35 C 0.5374(11) -0.2670(7) 0.1974(8)
H37 H 0.6021(15) -0.2075(8) 0.2306(11)
C36 C 0.4552(12) -0.2731(8) 0.1117(8)
H38 H 0.4649(17) -0.2176(10) 0.0876(11)
C37 C 0.3584(11) -0.3620(10) 0.0621(7)
H39 H 0.3034(16) -0.3660(14) 0.0048(8)
C38 C 0.3438(10) -0.4449(8) 0.0982(9)
H40 H 0.2790(14) -0.5044(9) 0.0650(11)
C39 C 0.4260(12) -0.4389(7) 0.1839(9)
H41 H 0.4162(17) -0.4944(9) 0.2080(12)
H42? H 0.0791(10) -0.1082(8) -0.3668(5)
H43? H 0.1737(10) -0.0034(8) -0.3582(5)
C40? C 0.2382(29) -0.1190(26) -0.4027(15)
H44? H 0.289(16) -0.158(12) -0.3705(50)
H45? H 0.299(15) -0.0702(27) -0.418(11)
H46? H 0.1748(32) -0.164(11) -0.4577(60)
C41? C 0.3980(15) -0.3833(11) 0.2013(8)
H47? H 0.3893(15) -0.3825(11) 0.2597(8)
C42? C 0.4008(17) -0.2951(8) 0.1727(10)
H48? H 0.3941(25) -0.2352(10) 0.2118(13)
C43? C 0.4137(16) -0.2965(9) 0.0855(10)
H49? H 0.4156(23) -0.2375(11) 0.0663(14)
C44? C 0.4238(17) -0.3860(11) 0.0270(8)
H50? H 0.4325(25) -0.3869(16) -0.0313(9)
C45? C 0.4210(16) -0.4742(9) 0.0557(9)
H51? H 0.4277(24) -0.5341(11) 0.0165(12)
C46? C 0.4081(13) -0.4729(8) 0.1428(10)
H52? H 0.4061(20) -0.5319(10) 0.1620(14)
loop_
_geom_bond_atom_site_label_1
_geom_bond_atom_site_label_2
_geom_bond_site_symmetry_1
_geom_bond_site_symmetry_2
S1 O1 1_555 1_555
S2 O7 1_555 1_555
O2 S1 1_555 1_555
O3 C20 1_555 1_555
O4 C20 1_555 1_555
O5 C23 1_555 1_555
O6 C23 1_555 1_555
O8 S2 1_555 1_555
C1 H1 1_555 1_555
H2 C1 1_555 1_555
N1 S1 1_555 1_555
C2 N1 1_555 1_555
H3 C2 1_555 1_555
H4 C2 1_555 1_555
C3 C2 1_555 1_555
C4 C3 1_555 1_555
C5 C4 1_555 1_555
H5 C5 1_555 1_555
C6 C5 1_555 1_555
C7 C6 1_555 1_555
N2 C3 1_555 1_555
C8 C7 1_555 1_555
H6 C8 1_555 1_555
H7 C8 1_555 1_555
N3 S2 1_555 1_555
C9 N3 1_555 1_555
H8 C9 1_555 1_555
H9 C9 1_555 1_555
C10 C9 1_555 1_555
C11 C1 1_555 1_555
C12 C10 1_555 1_555
H10 C12 1_555 1_555
C13 S1 1_555 1_555
C14 C13 1_555 1_555
H11 C14 1_555 1_555
C15 C14 1_555 1_555
H12 C15 1_555 1_555
C16 C15 1_555 1_555
C17 C16 1_555 1_555
H13 C17 1_555 1_555
C18 C13 1_555 1_555
H14 C18 1_555 1_555
C19 C16 1_555 1_555
H15 C19 1_555 1_555
H16 C19 1_555 1_555
H17 C19 1_555 1_555
C20 C4 1_555 1_555
C21 O4 1_555 1_555
H18 C21 1_555 1_555
H19 C21 1_555 1_555
C22 C21 1_555 1_555
H20 C22 1_555 1_555
H21 C22 1_555 1_555
H22 C22 1_555 1_555
C23 C6 1_555 1_555
C24 O6 1_555 1_555
H23 C24 1_555 1_555
H24 C24 1_555 1_555
C25 C24 1_555 1_555
H25 C25 1_555 1_555
H26 C25 1_555 1_555
H27 C25 1_555 1_555
C26 S2 1_555 1_555
C27 C26 1_555 1_555
H28 C27 1_555 1_555
C28 C27 1_555 1_555
H29 C28 1_555 1_555
C29 C28 1_555 1_555
C30 C29 1_555 1_555
H30 C30 1_555 1_555
C31 C26 1_555 1_555
H31 C31 1_555 1_555
C32 C29 1_555 1_555
H32 C32 1_555 1_555
H33 C32 1_555 1_555
H34 C32 1_555 1_555
C33 H35 1_555 1_555
Cl1 C33 1_555 1_555
Cl2 C33 1_555 1_555
Cl3 C33 1_555 1_555
C34 H36 1_555 1_555
C35 C34 1_555 1_555
H37 C35 1_555 1_555
C36 C35 1_555 1_555
H38 C36 1_555 1_555
C37 C36 1_555 1_555
H39 C37 1_555 1_555
C38 C37 1_555 1_555
H40 C38 1_555 1_555
C39 C34 1_555 1_555
H41 C39 1_555 1_555
C11A C12 1_555 1_555
C1A C11A 1_555 1_555
H1A C1A 1_555 1_555
H2A C1A 1_555 1_555
N1A C1A 1_555 1_555
S1A N1A 1_555 1_555
O1A S1A 1_555 1_555
O2A S1A 1_555 1_555
C13A S1A 1_555 1_555
C14A C13A 1_555 1_555
H11A C14A 1_555 1_555
C15A C14A 1_555 1_555
H12A C15A 1_555 1_555
C16A C15A 1_555 1_555
C17A C16A 1_555 1_555
H13A C17A 1_555 1_555
C18A C13A 1_555 1_555
H14A C18A 1_555 1_555
C19A C16A 1_555 1_555
H15A C19A 1_555 1_555
H16A C19A 1_555 1_555
H17A C19A 1_555 1_555
C2A N1A 1_555 1_555
H3A C2A 1_555 1_555
H4A C2A 1_555 1_555
C3A C2A 1_555 1_555
C4A C3A 1_555 1_555
C5A C4A 1_555 1_555
H5A C5A 1_555 1_555
C6A C5A 1_555 1_555
C7A C6A 1_555 1_555
N2A C3A 1_555 1_555
C8A C7A 1_555 1_555
H6A C8A 1_555 1_555
H7A C8A 1_555 1_555
N3A C8A 1_555 1_555
S2A N3A 1_555 1_555
O7A S2A 1_555 1_555
O8A S2A 1_555 1_555
C26A S2A 1_555 1_555
C27A C26A 1_555 1_555
H28A C27A 1_555 1_555
C28A C27A 1_555 1_555
H29A C28A 1_555 1_555
C29A C28A 1_555 1_555
C30A C29A 1_555 1_555
H30A C30A 1_555 1_555
C31A C26A 1_555 1_555
H31A C31A 1_555 1_555
C32A C29A 1_555 1_555
H32A C32A 1_555 1_555
H33A C32A 1_555 1_555
H34A C32A 1_555 1_555
C9A N3A 1_555 1_555
H8A C9A 1_555 1_555
H9A C9A 1_555 1_555
C10A C11A 1_555 1_555
C12A C11 1_555 1_555
H10A C12A 1_555 1_555
C23A C6A 1_555 1_555
O5A C23A 1_555 1_555
O6A C23A 1_555 1_555
C24A O6A 1_555 1_555
H23A C24A 1_555 1_555
H24A C24A 1_555 1_555
C25A C24A 1_555 1_555
H25A C25A 1_555 1_555
H26A C25A 1_555 1_555
H27A C25A 1_555 1_555
C20A C4A 1_555 1_555
O3A C20A 1_555 1_555
O4A C20A 1_555 1_555
C21A O4A 1_555 1_555
H18A C21A 1_555 1_555
H19A C21A 1_555 1_555
C22A C21A 1_555 1_555
H20A C22A 1_555 1_555
H21A C22A 1_555 1_555
H22A C22A 1_555 1_555
C1 N1 1_555 1_555
C7 N2 1_555 1_555
C8 N3 1_555 1_555
C10 C11 1_555 1_555
C17 C18 1_555 1_555
C30 C31 1_555 1_555
C38 C39 1_555 1_555
C17A C18A 1_555 1_555
C7A N2A 1_555 1_555
C30A C31A 1_555 1_555
C9A C10A 1_555 1_555
C10A C12A 1_555 1_555

#END
