
#######################################################################
#
#                 Cambridge Crystallographic Data Centre
#                                CCDC 
#
#######################################################################
#
# If this CIF has been generated from an entry in the Cambridge 
# Structural Database, then it will include bibliographic, chemical, 
# crystal, experimental, refinement or atomic coordinate data resulting 
# from the CCDC's data processing and validation procedures.
#
#######################################################################

data_REFXEH
_chemical_formula_moiety         'C20 H18 O2'
_chemical_name_systematic        
1,6:15,20-Dicycloprosta-1,3,5,8,15(20),16,18-heptaene-7,14-dione
_symmetry_cell_setting           hexagonal
_symmetry_space_group_name_H-M   'P 63'
_symmetry_Int_Tables_number      173
_space_group_name_Hall           'P 6c'
loop_
_symmetry_equiv_pos_site_id
_symmetry_equiv_pos_as_xyz
1 x,y,z
2 x-y,x,1/2+z
3 y,-x+y,1/2+z
4 -y,x-y,z
5 -x+y,-x,z
6 -x,-y,1/2+z
_cell_length_a                   23.2058(3)
_cell_length_b                   23.2058(3)
_cell_length_c                   5.30020(10)
_cell_angle_alpha                90
_cell_angle_beta                 90
_cell_angle_gamma                120
_cell_volume                     2471.82
_exptl_crystal_colour            colorless
_exptl_crystal_description       prism
_cell_formula_units_Z            6
loop_
_atom_site_label
_atom_site_type_symbol
_atom_site_fract_x
_atom_site_fract_y
_atom_site_fract_z
O1 O 0.82983(7) 0.40128(7) 0.9708(3)
O2 O 0.91236(7) 0.26748(7) 0.6268(3)
C1 C 0.91183(10) 0.53627(10) 0.8771(4)
H1 H 0.8845 0.5233 1.0235
C2 C 0.95632(11) 0.60311(11) 0.8338(5)
H2 H 0.9596 0.6357 0.9504
C3 C 0.99586(10) 0.62217(10) 0.6205(5)
H3 H 1.0267 0.6679 0.5911
C4 C 0.99050(10) 0.57471(10) 0.4503(4)
H4 H 1.0173 0.5880 0.3026
C5 C 0.94605(10) 0.50750(10) 0.4936(4)
H5 H 0.9426 0.4750 0.3760
C6 C 0.90679(9) 0.48817(9) 0.7089(4)
C7 C 0.85986(9) 0.41616(9) 0.7712(4)
C8 C 0.85143(9) 0.36360(9) 0.5827(4)
H6 H 0.8952 0.3672 0.5529
H7 H 0.8360 0.3722 0.4205
C9 C 0.80194(9) 0.29271(10) 0.6694(4)
H8 H 0.8102 0.2857 0.8489
C10 C 0.72920(9) 0.27606(10) 0.6317(4)
H9 H 0.6996 0.2431 0.7579
H10 H 0.7255 0.3166 0.6466
C11 C 0.71138(10) 0.24720(10) 0.3639(5)
H11 H 0.6640 0.2121 0.3521
H12 H 0.7206 0.2823 0.2381
C12 C 0.75670(10) 0.21886(10) 0.3280(4)
H13 H 0.7512 0.1879 0.1996
C13 C 0.80540(9) 0.24241(9) 0.4977(4)
C14 C 0.86191(9) 0.22961(9) 0.5083(4)
C15 C 0.85779(10) 0.17152(10) 0.3714(5)
C16 C 0.79955(11) 0.10959(10) 0.3651(5)
H14 H 0.7605 0.1038 0.4467
C17 C 0.79848(12) 0.05673(11) 0.2404(5)
H15 H 0.7590 0.0145 0.2399
C18 C 0.85448(12) 0.06492(12) 0.1166(6)
H16 H 0.8533 0.0286 0.0291
C19 C 0.91257(12) 0.12646(12) 0.1205(6)
H17 H 0.9511 0.1324 0.0350
C20 C 0.91416(11) 0.17898(11) 0.2487(5)
H18 H 0.9542 0.2207 0.2533
loop_
_geom_bond_atom_site_label_1
_geom_bond_atom_site_label_2
_geom_bond_site_symmetry_1
_geom_bond_site_symmetry_2
O1 C7 1_555 1_555
O2 C14 1_555 1_555
C1 H1 1_555 1_555
C2 C1 1_555 1_555
H2 C2 1_555 1_555
C3 C2 1_555 1_555
H3 C3 1_555 1_555
C4 C3 1_555 1_555
H4 C4 1_555 1_555
C5 C4 1_555 1_555
H5 C5 1_555 1_555
C6 C1 1_555 1_555
C7 C6 1_555 1_555
C8 C7 1_555 1_555
H6 C8 1_555 1_555
H7 C8 1_555 1_555
C9 C8 1_555 1_555
H8 C9 1_555 1_555
C10 C9 1_555 1_555
H9 C10 1_555 1_555
H10 C10 1_555 1_555
C11 C10 1_555 1_555
H11 C11 1_555 1_555
H12 C11 1_555 1_555
C12 C11 1_555 1_555
H13 C12 1_555 1_555
C13 C9 1_555 1_555
C14 C13 1_555 1_555
C15 C14 1_555 1_555
C16 C15 1_555 1_555
H14 C16 1_555 1_555
C17 C16 1_555 1_555
H15 C17 1_555 1_555
C18 C17 1_555 1_555
H16 C18 1_555 1_555
C19 C18 1_555 1_555
H17 C19 1_555 1_555
C20 C15 1_555 1_555
H18 C20 1_555 1_555
C5 C6 1_555 1_555
C12 C13 1_555 1_555
C19 C20 1_555 1_555

#END
