
#######################################################################
#
#                 Cambridge Crystallographic Data Centre
#                                CCDC 
#
#######################################################################
#
# If this CIF has been generated from an entry in the Cambridge 
# Structural Database, then it will include bibliographic, chemical, 
# crystal, experimental, refinement or atomic coordinate data resulting 
# from the CCDC's data processing and validation procedures.
#
#######################################################################

data_REFYOS
_chemical_formula_moiety         
'C14 H18 N2 2+,C37 H45 N1 O14,2(F6 P1 1-),C3 H6 O1'
_chemical_name_systematic        
"4,4'-Ethane-1,2-diylbis(1-methylpyridinium) (4,7,10,13,16,22,25,28,31,34,38,46-dodecaoxa-48-azapentacyclo[17.17.11.1^3,35^.1^17,21^.1^40,44^]pentaconta-1,3(49),17(50),18,20,35,40(48),41,43-nonaene-39,45-dione) bis(hexafluorophosphate) acetone solvate"
_symmetry_cell_setting           monoclinic
_symmetry_space_group_name_H-M   'P 21/n'
_symmetry_Int_Tables_number      14
_space_group_name_Hall           '-P 2yn'
loop_
_symmetry_equiv_pos_site_id
_symmetry_equiv_pos_as_xyz
1 x,y,z
2 1/2-x,1/2+y,1/2-z
3 -x,-y,-z
4 1/2+x,1/2-y,1/2+z
_cell_length_a                   10.1475(3)
_cell_length_b                   14.7250(8)
_cell_length_c                   39.844(2)
_cell_angle_alpha                90
_cell_angle_beta                 92.152(4)
_cell_angle_gamma                90
_cell_volume                     5949.37
_exptl_crystal_colour            yellow
_exptl_crystal_description       block
_cell_formula_units_Z            4
loop_
_atom_site_label
_atom_site_type_symbol
_atom_site_fract_x
_atom_site_fract_y
_atom_site_fract_z
P1 P 0.50979(15) 0.63874(10) 0.05602(4)
F1 F 0.3545(4) 0.6457(3) 0.05667(11)
F2 F 0.4989(5) 0.5357(3) 0.0547(2)
F3 F 0.5172(5) 0.6312(5) 0.09522(11)
F4 F 0.6662(3) 0.6338(2) 0.05559(10)
F5 F 0.5285(5) 0.7459(3) 0.06074(14)
F6 F 0.5042(4) 0.6522(4) 0.01715(10)
P2 P 0.76119(12) 0.66438(9) 0.23156(3)
F7 F 0.8138(4) 0.6717(2) 0.19466(8)
F8 F 0.6173(3) 0.6932(2) 0.21864(10)
F9 F 0.7260(3) 0.55957(19) 0.22620(8)
F10 F 0.7104(3) 0.6580(2) 0.26889(8)
F11 F 0.9058(3) 0.6358(2) 0.24481(8)
F12 F 0.7977(4) 0.7695(2) 0.23781(10)
O1 O -0.3485(3) 0.5348(3) 0.44810(8)
O2 O -0.1683(3) 0.6171(2) 0.43762(7)
O3 O 0.3458(4) 0.6682(3) 0.50021(10)
O4 O 0.5518(7) 0.7985(4) 0.50991(16)
O5 O 0.6412(4) 0.8656(4) 0.44615(13)
O6 O 0.4933(4) 1.0164(3) 0.42294(11)
O7 O 0.3327(3) 0.9901(2) 0.36215(9)
O8 O -0.1790(3) 0.8211(2) 0.34640(8)
O9 O -0.3753(3) 0.8505(2) 0.32069(8)
O10 O 0.2644(3) 0.7650(2) 0.28253(8)
O11 O 0.3347(3) 0.5888(2) 0.26319(7)
O12 O 0.4100(3) 0.4178(2) 0.29051(7)
O13 O 0.3340(3) 0.3666(2) 0.35692(8)
O14 O 0.2705(3) 0.4342(2) 0.42120(8)
N1 N -0.2942(3) 0.6887(2) 0.38282(8)
C1 C -0.3522(4) 0.7164(3) 0.35359(10)
C2 C -0.4538(4) 0.6702(3) 0.33691(10)
H1 H -0.4911 0.6920 0.3168
C3 C -0.4985(4) 0.5902(3) 0.35104(12)
H2 H -0.5635 0.5558 0.3400
C4 C -0.4454(4) 0.5624(3) 0.38161(11)
H3 H -0.4766 0.5107 0.3921
C5 C -0.3431(4) 0.6139(3) 0.39653(10)
C6 C -0.2874(4) 0.5837(3) 0.43027(11)
C7 C -0.1097(4) 0.5891(4) 0.47010(11)
H4 H -0.1494 0.5328 0.4773
H5 H -0.1250 0.6352 0.4869
C8 C 0.0369(4) 0.5761(3) 0.46624(10)
C9 C 0.1256(4) 0.6280(3) 0.48515(11)
H6 H 0.0960 0.6725 0.4996
C10 C 0.2600(5) 0.6126(3) 0.48212(11)
C11 C 0.3062(4) 0.5479(3) 0.46095(11)
H7 H 0.3963 0.5383 0.4592
C12 C 0.2151(4) 0.4964(3) 0.44194(11)
C13 C 0.0808(4) 0.5086(3) 0.44476(10)
H8 H 0.0209 0.4725 0.4326
C14 C 0.4665(8) 0.6456(6) 0.5121(2)
H9 H 0.5150 0.6185 0.4942
H10 H 0.4581 0.6000 0.5295
C15 C 0.6941(7) 0.9342(6) 0.4248(2)
H11 H 0.7332 0.9827 0.4382
H12 H 0.7619 0.9082 0.4111
C16 C 0.5864(8) 0.9696(6) 0.4032(2)
H13 H 0.6213 1.0107 0.3868
H14 H 0.5429 0.9198 0.3913
C17 C 0.4135(7) 1.0830(4) 0.40658(17)
H15 H 0.4655 1.1144 0.3903
H16 H 0.3871 1.1273 0.4230
C18 C 0.2914(6) 1.0451(4) 0.38892(14)
H17 H 0.2414 1.0092 0.4044
H18 H 0.2358 1.0941 0.3804
C19 C 0.2388(4) 0.9393(3) 0.34518(11)
C20 C 0.1037(5) 0.9480(3) 0.34873(12)
H19 H 0.0705 0.9896 0.3638
C21 C 0.0190(4) 0.8934(3) 0.32936(11)
C22 C 0.0677(4) 0.8305(3) 0.30706(11)
H20 H 0.0103 0.7939 0.2943
C23 C 0.2040(4) 0.8226(3) 0.30388(10)
C24 C 0.2890(4) 0.8763(3) 0.32320(11)
H21 H 0.3797 0.8702 0.3214
C25 C -0.1271(4) 0.9038(3) 0.33171(13)
H22 H -0.1468 0.9557 0.3456
H23 H -0.1674 0.9135 0.3095
C26 C -0.3054(4) 0.8032(3) 0.33845(11)
C27 C 0.1804(4) 0.7092(3) 0.26125(11)
H24 H 0.1260 0.7470 0.2464
H25 H 0.1231 0.6727 0.2748
C28 C 0.2663(5) 0.6496(3) 0.24135(11)
H26 H 0.2130 0.6158 0.2249
H27 H 0.3288 0.6863 0.2294
C29 C 0.4074(4) 0.5234(3) 0.24501(11)
H28 H 0.4623 0.5539 0.2291
H29 H 0.3471 0.4835 0.2326
C30 C 0.4916(4) 0.4692(3) 0.26918(11)
H30 H 0.5478 0.4286 0.2569
H31 H 0.5477 0.5096 0.2826
C31 C 0.4868(4) 0.3619(3) 0.31304(12)
H32 H 0.5443 0.3995 0.3272
H33 H 0.5414 0.3211 0.3004
C32 C 0.3964(5) 0.3080(3) 0.33433(13)
H34 H 0.3305 0.2775 0.3201
H35 H 0.4465 0.2621 0.3468
C33 C 0.2606(5) 0.3171(3) 0.38046(14)
H36 H 0.3203 0.2827 0.3952
H37 H 0.2025 0.2746 0.3686
C34 C 0.1812(5) 0.3799(3) 0.40082(12)
H38 H 0.1271 0.4186 0.3862
H39 H 0.1235 0.3455 0.4150
C35 C 0.5445(19) 0.7247(12) 0.5265(4)
H40 H 0.5084 0.7395 0.5480
H41 H 0.6340 0.7036 0.5310
C36 C 0.7334(8) 0.8402(7) 0.4706(3)
H42 H 0.8134 0.8209 0.4601
C37 C 0.698(2) 0.829(2) 0.4935(8)
H43 H 0.6720 0.8729 0.5103
O15 O 0.6609(4) 0.9364(3) 0.11167(9)
C38 C 0.6422(15) 0.8084(11) 0.1422(4)
H44 H 0.7063 0.8005 0.1603
H45 H 0.6188 0.7503 0.1329
H46 H 0.5650 0.8371 0.1506
C39 C 0.6927(6) 0.8604(5) 0.11859(17)
C40 C 0.8065(10) 0.8241(7) 0.0951(3)
H47 H 0.7713 0.8163 0.0726
H48 H 0.8390 0.7669 0.1036
H49 H 0.8773 0.8673 0.0952
N2 N 0.2415(4) 0.8560(2) 0.45181(9)
N3 N -0.0141(3) 0.4517(3) 0.28089(9)
C41 C 0.2719(6) 0.9225(4) 0.47900(13)
H50 H 0.3056 0.8910 0.4986
H51 H 0.1931 0.9546 0.4843
H52 H 0.3368 0.9648 0.4717
C42 C 0.3427(5) 0.8139(3) 0.43737(12)
H53 H 0.4289 0.8270 0.4445
C43 C 0.3194(4) 0.7521(3) 0.41230(12)
H54 H 0.3905 0.7247 0.4022
C44 C 0.1916(4) 0.7291(3) 0.40152(10)
C45 C 0.0896(4) 0.7742(3) 0.41687(11)
H55 H 0.0025 0.7618 0.4103
C46 C 0.1168(4) 0.8367(3) 0.44157(12)
H56 H 0.0475 0.8665 0.4515
C47 C 0.1728(4) 0.6585(3) 0.37423(11)
H57 H 0.2210 0.6043 0.3812
H58 H 0.2125 0.6812 0.3541
C48 C 0.0321(4) 0.6312(3) 0.36515(10)
H59 H -0.0061 0.6038 0.3847
H60 H -0.0183 0.6855 0.3596
C49 C 0.0188(4) 0.5655(3) 0.33612(10)
C50 C 0.1233(4) 0.5211(3) 0.32219(12)
H61 H 0.2077 0.5290 0.3317
C51 C 0.1061(4) 0.4660(3) 0.29488(12)
H62 H 0.1789 0.4380 0.2858
C52 C -0.1191(4) 0.4908(4) 0.29436(12)
H63 H -0.2029 0.4803 0.2849
C53 C -0.1047(4) 0.5455(4) 0.32152(11)
H64 H -0.1794 0.5704 0.3307
C54 C -0.0317(5) 0.3993(4) 0.24932(12)
H65 H -0.0504 0.4402 0.2310
H66 H -0.1037 0.3576 0.2513
H67 H 0.0476 0.3662 0.2452
C55? C 0.6184(11) 0.7499(7) 0.4927(3)
H68? H 0.5793 0.7345 0.4709
H69? H 0.6568 0.6975 0.5041
H70? H 0.7548 0.8920 0.4848
C56? C 0.792(2) 0.7945(14) 0.1152(7)
H71? H 0.7679 0.7541 0.0971
H72? H 0.8029 0.7606 0.1357
H73? H 0.8738 0.8241 0.1104
C57? C 0.583(3) 0.804(2) 0.1498(8)
H74? H 0.6319 0.7949 0.1707
H75? H 0.5540 0.7461 0.1412
H76? H 0.5080 0.8417 0.1535
C58? C 0.3301(15) 0.7054(12) 0.5227(4)
C59? C 0.462(2) 0.7455(18) 0.5366(6)
C60? C 0.688(2) 0.7717(13) 0.4897(5)
H77? H 0.2935 0.6655 0.5394
H78? H 0.2676 0.7540 0.5182
H79? H 0.4429 0.7874 0.5546
H80? H 0.5143 0.6964 0.5464
H81? H 0.7563 0.7542 0.5060
H82? H 0.6691 0.7196 0.4754
H83? H 0.7915 0.8162 0.4960
loop_
_geom_bond_atom_site_label_1
_geom_bond_atom_site_label_2
_geom_bond_site_symmetry_1
_geom_bond_site_symmetry_2
P1 F1 1_555 1_555
F2 P1 1_555 1_555
F3 P1 1_555 1_555
F4 P1 1_555 1_555
F5 P1 1_555 1_555
F6 P1 1_555 1_555
P2 F7 1_555 1_555
F8 P2 1_555 1_555
F9 P2 1_555 1_555
F10 P2 1_555 1_555
F11 P2 1_555 1_555
F12 P2 1_555 1_555
O1 C6 1_555 1_555
O2 C6 1_555 1_555
O3 C10 1_555 1_555
O4 C35 1_555 1_555
O5 C15 1_555 1_555
O6 C16 1_555 1_555
O7 C18 1_555 1_555
O8 C25 1_555 1_555
O9 C26 1_555 1_555
O10 C23 1_555 1_555
O11 C28 1_555 1_555
O12 C30 1_555 1_555
O13 C32 1_555 1_555
O14 C12 1_555 1_555
N1 C1 1_555 1_555
C1 C2 1_555 1_555
C2 H1 1_555 1_555
C3 C2 1_555 1_555
H2 C3 1_555 1_555
C4 C3 1_555 1_555
H3 C4 1_555 1_555
C5 N1 1_555 1_555
C6 C5 1_555 1_555
C7 O2 1_555 1_555
H4 C7 1_555 1_555
H5 C7 1_555 1_555
C8 C7 1_555 1_555
C9 C8 1_555 1_555
H6 C9 1_555 1_555
C10 C9 1_555 1_555
C11 C10 1_555 1_555
H7 C11 1_555 1_555
C12 C11 1_555 1_555
C13 C8 1_555 1_555
H8 C13 1_555 1_555
C14 O3 1_555 1_555
H9 C14 1_555 1_555
H10 C14 1_555 1_555
C15 H11 1_555 1_555
H12 C15 1_555 1_555
C16 C15 1_555 1_555
H13 C16 1_555 1_555
H14 C16 1_555 1_555
C17 O6 1_555 1_555
H15 C17 1_555 1_555
H16 C17 1_555 1_555
C18 C17 1_555 1_555
H17 C18 1_555 1_555
H18 C18 1_555 1_555
C19 O7 1_555 1_555
C20 C19 1_555 1_555
H19 C20 1_555 1_555
C21 C20 1_555 1_555
C22 C21 1_555 1_555
H20 C22 1_555 1_555
C23 C22 1_555 1_555
C24 C19 1_555 1_555
H21 C24 1_555 1_555
C25 C21 1_555 1_555
H22 C25 1_555 1_555
H23 C25 1_555 1_555
C26 O8 1_555 1_555
C27 O10 1_555 1_555
H24 C27 1_555 1_555
H25 C27 1_555 1_555
C28 C27 1_555 1_555
H26 C28 1_555 1_555
H27 C28 1_555 1_555
C29 O11 1_555 1_555
H28 C29 1_555 1_555
H29 C29 1_555 1_555
C30 C29 1_555 1_555
H30 C30 1_555 1_555
H31 C30 1_555 1_555
C31 O12 1_555 1_555
H32 C31 1_555 1_555
H33 C31 1_555 1_555
C32 C31 1_555 1_555
H34 C32 1_555 1_555
H35 C32 1_555 1_555
C33 O13 1_555 1_555
H36 C33 1_555 1_555
H37 C33 1_555 1_555
C34 O14 1_555 1_555
H38 C34 1_555 1_555
H39 C34 1_555 1_555
C35 C14 1_555 1_555
H40 C35 1_555 1_555
H41 C35 1_555 1_555
C36 O5 1_555 1_555
H42 C36 1_555 1_555
C37 O4 1_555 1_555
H43 C37 1_555 1_555
O15 C39 1_555 1_555
C38 H44 1_555 1_555
H45 C38 1_555 1_555
H46 C38 1_555 1_555
C39 C38 1_555 1_555
C40 C39 1_555 1_555
H47 C40 1_555 1_555
H48 C40 1_555 1_555
H49 C40 1_555 1_555
N2 C41 1_555 1_555
N3 C51 1_555 1_555
C41 H50 1_555 1_555
H51 C41 1_555 1_555
H52 C41 1_555 1_555
C42 N2 1_555 1_555
H53 C42 1_555 1_555
C43 C42 1_555 1_555
H54 C43 1_555 1_555
C44 C43 1_555 1_555
C45 C44 1_555 1_555
H55 C45 1_555 1_555
C46 N2 1_555 1_555
H56 C46 1_555 1_555
C47 C44 1_555 1_555
H57 C47 1_555 1_555
H58 C47 1_555 1_555
C48 C47 1_555 1_555
H59 C48 1_555 1_555
H60 C48 1_555 1_555
C49 C48 1_555 1_555
C50 C49 1_555 1_555
H61 C50 1_555 1_555
C51 C50 1_555 1_555
H62 C51 1_555 1_555
C52 N3 1_555 1_555
H63 C52 1_555 1_555
C53 C49 1_555 1_555
H64 C53 1_555 1_555
C54 N3 1_555 1_555
H65 C54 1_555 1_555
H66 C54 1_555 1_555
H67 C54 1_555 1_555
C1 C26 1_555 1_555
C4 C5 1_555 1_555
C12 C13 1_555 1_555
C23 C24 1_555 1_555
C33 C34 1_555 1_555
C36 C37 1_555 1_555
C45 C46 1_555 1_555
C52 C53 1_555 1_555

#END
