
#######################################################################
#
#                 Cambridge Crystallographic Data Centre
#                                CCDC 
#
#######################################################################
#
# If this CIF has been generated from an entry in the Cambridge 
# Structural Database, then it will include bibliographic, chemical, 
# crystal, experimental, refinement or atomic coordinate data resulting 
# from the CCDC's data processing and validation procedures.
#
#######################################################################

data_REFZAD
_chemical_formula_moiety         'C41 H54 N6 O5 2+,2(Cl1 1-),2.5(H2 O1)'
_chemical_name_systematic        'Palinavir dihydrochloride hydrate'
_chemical_properties_biological  'potent HIV protease inhibitory activity'
_symmetry_cell_setting           orthorhombic
_symmetry_space_group_name_H-M   'P 2 2 21'
_symmetry_Int_Tables_number      17
_space_group_name_Hall           'P 2c 2'
loop_
_symmetry_equiv_pos_site_id
_symmetry_equiv_pos_as_xyz
1 x,y,z
2 x,-y,-z
3 -x,y,1/2-z
4 -x,-y,1/2+z
_cell_length_a                   12.034(10)
_cell_length_b                   14.267(2)
_cell_length_c                   28.674(9)
_cell_angle_alpha                90
_cell_angle_beta                 90
_cell_angle_gamma                90
_cell_volume                     4923.01
_exptl_crystal_colour            colorless
_cell_formula_units_Z            4
loop_
_atom_site_label
_atom_site_type_symbol
_atom_site_fract_x
_atom_site_fract_y
_atom_site_fract_z
O1 O 0.1299(3) 0.2265(3) 0.06971(11)
O2 O 0.3052(2) 0.0983(2) 0.13279(10)
O3 O 0.1058(3) -0.1632(2) 0.17967(11)
H1 H 0.1507 -0.1724 0.2013
O4 O 0.0592(3) -0.2289(2) 0.05824(12)
O5 O -0.3501(2) -0.0663(3) 0.05809(11)
N1 N -0.1043(3) 0.3139(3) 0.12808(13)
N2 N 0.1070(3) 0.2648(3) 0.14540(12)
H3 H 0.0616(3) 0.2853(3) 0.16717(12)
N3 N 0.1734(3) 0.0886(3) 0.18895(11)
H4 H 0.1223(3) 0.1190(3) 0.20484(11)
N4 N -0.0097(3) -0.0611(2) 0.09414(11)
H5 H 0.0059(3) -0.0636(2) 0.06240(11)
N5 N -0.0276(3) -0.3113(3) 0.11567(15)
H6 H -0.0763(3) -0.3062(3) 0.13843(15)
N6 N -0.6825(3) -0.1564(3) -0.02893(14)
H7 H -0.7334(3) -0.1631(3) -0.05071(14)
C1 C -0.2119(4) 0.3420(4) 0.1208(2)
C2 C -0.2734(5) 0.3805(4) 0.1578(2)
H8 H -0.2403(5) 0.3865(4) 0.1877(2)
C3 C -0.3807(5) 0.4095(5) 0.1510(3)
H9 H -0.4213(5) 0.4362(5) 0.1761(3)
C4 C -0.4295(5) 0.4000(5) 0.1081(3)
H10 H -0.5051(5) 0.4176(5) 0.1044(3)
C5 C -0.3738(5) 0.3664(5) 0.0711(3)
H11 H -0.4088(5) 0.3639(5) 0.0415(3)
C6 C -0.2630(5) 0.3350(4) 0.0762(2)
C7 C -0.1969(4) 0.2990(4) 0.0392(2)
H12 H -0.2278(4) 0.2936(4) 0.0089(2)
C8 C -0.0906(4) 0.2724(4) 0.0468(2)
H13 H -0.0462(4) 0.2484(4) 0.0221(2)
C9 C -0.0473(4) 0.2814(3) 0.09249(15)
C10 C 0.0696(4) 0.2560(3) 0.1013(2)
C11 C 0.2215(3) 0.2412(3) 0.15790(14)
H14 H 0.2697(3) 0.2657(3) 0.13224(14)
C12 C 0.2368(3) 0.1386(3) 0.15857(14)
C13 C 0.1840(3) -0.0105(3) 0.19694(13)
H15 H 0.2591(3) -0.0318(3) 0.18638(13)
C14 C 0.0951(3) -0.0664(3) 0.17143(13)
H16 H 0.0204(3) -0.0455(3) 0.18263(13)
C15 C 0.1014(3) -0.0515(3) 0.11804(14)
H17 H 0.1316(3) 0.0118(3) 0.11170(14)
H18 H 0.1536(3) -0.0979(3) 0.10461(14)
C16 C -0.0729(4) -0.1491(3) 0.10473(14)
H19 H -0.0900(4) -0.1513(3) 0.13884(14)
C17 C -0.1816(4) -0.1509(3) 0.0773(2)
H20 H -0.1648(4) -0.1542(3) 0.0435(2)
H21 H -0.2243(4) -0.2077(3) 0.0858(2)
C18 C -0.2521(4) -0.0642(4) 0.08699(15)
H22 H -0.2739(4) -0.0626(4) 0.12063(15)
C19 C -0.1874(4) 0.0210(3) 0.0751(2)
H23 H -0.2318(4) 0.0772(3) 0.0830(2)
H24 H -0.1730(4) 0.0220(3) 0.0412(2)
C20 C -0.0783(4) 0.0250(3) 0.1008(2)
H25 H -0.0356(4) 0.0801(3) 0.0898(2)
H26 H -0.0930(4) 0.0337(3) 0.1345(2)
C21 C 0.2587(4) 0.2909(3) 0.20266(15)
H27 H 0.2084(4) 0.2715(3) 0.22869(15)
C22 C 0.2527(5) 0.3968(4) 0.1974(2)
H28 H 0.1766(5) 0.4151(4) 0.1893(2)
H29 H 0.3034(5) 0.4169(4) 0.1726(2)
H30 H 0.2741(5) 0.4266(4) 0.2268(2)
C23 C 0.3761(4) 0.2637(4) 0.2150(2)
H31 H 0.3808(4) 0.1955(4) 0.2185(2)
H32 H 0.3973(4) 0.2939(4) 0.2444(2)
H33 H 0.4266(4) 0.2842(4) 0.1902(2)
C24 C 0.1717(4) -0.0293(3) 0.25000(14)
H34 H 0.1009(4) -0.0016(3) 0.26088(14)
H35 H 0.1676(4) -0.0978(3) 0.25519(14)
C25 C 0.2662(4) 0.0105(4) 0.27913(13)
C26 C 0.3628(4) -0.0405(4) 0.2837(2)
H36 H 0.3707(4) -0.1000(4) 0.2693(2)
C27 C 0.4501(4) -0.0012(6) 0.3107(2)
H37 H 0.5183(4) -0.0343(6) 0.3134(2)
C28 C 0.4384(5) 0.0818(5) 0.3325(2)
H38 H 0.4979(5) 0.1063(5) 0.3506(2)
C29 C 0.3423(5) 0.1304(4) 0.3287(2)
H39 H 0.3336(5) 0.1883(4) 0.3446(2)
C30 C 0.2552(4) 0.0948(4) 0.3012(2)
H40 H 0.1884(4) 0.1296(4) 0.2980(2)
C31 C -0.0069(4) -0.2343(3) 0.0917(2)
C32 C 0.0210(5) -0.4043(4) 0.1088(2)
C33 C 0.1463(6) -0.3997(5) 0.1072(3)
H41 H 0.1742(6) -0.3732(5) 0.1365(3)
H42 H 0.1696(6) -0.3599(5) 0.0811(3)
H43 H 0.1765(6) -0.4629(5) 0.1030(3)
C34 C -0.0207(7) -0.4613(4) 0.1505(2)
H44 H -0.1021(7) -0.4628(4) 0.1502(2)
H45 H 0.0053(7) -0.4323(4) 0.1794(2)
H46 H 0.0081(7) -0.5255(4) 0.1484(2)
C35 C -0.0252(8) -0.4452(5) 0.0638(2)
H47 H -0.1065(8) -0.4476(5) 0.0656(2)
H48 H 0.0040(8) -0.5087(5) 0.0593(2)
H49 H -0.0029(8) -0.4057(5) 0.0374(2)
C36 C -0.4351(4) -0.1252(4) 0.0751(2)
H50 H -0.4675(4) -0.0979(4) 0.1038(2)
H51 H -0.4041(4) -0.1875(4) 0.0830(2)
C37 C -0.5238(4) -0.1352(4) 0.0384(2)
C38 C -0.6290(4) -0.1665(4) 0.0493(2)
H52 H -0.6464(4) -0.1816(4) 0.0807(2)
C39 C -0.7088(4) -0.1761(4) 0.0157(2)
H53 H -0.7816(4) -0.1963(4) 0.0236(2)
C40 C -0.5827(5) -0.1275(5) -0.0408(2)
H54 H -0.5676(5) -0.1137(5) -0.0725(2)
C41 C -0.5006(4) -0.1169(4) -0.0088(2)
H55 H -0.4285(4) -0.0974(4) -0.0181(2)
Cl1 Cl 0.0790(2) 0.0000 0.0000
Cl2 Cl 0.0000 0.20815(13) 0.2500
O6 O 0.3477(2) -0.2173(2) 0.17391(8)
O7 O 0.7766(3) 0.7218(3) 0.18769(13)
O8 O 0.0000 -0.2576(4) 0.2500
O9 O 0.5727(13) -0.2858(12) 0.2318(5)
O10 O 0.5354(15) -0.3424(14) 0.1399(8)
O11 O 0.2512(23) -0.3560(18) 0.2440(11)
H2? H 0.0714 -0.1775 0.2040
Cl3? Cl 0.3477(2) -0.2173(2) 0.17391(8)
Cl4? Cl 0.7766(3) 0.7218(3) 0.18769(13)
loop_
_geom_bond_atom_site_label_1
_geom_bond_atom_site_label_2
_geom_bond_site_symmetry_1
_geom_bond_site_symmetry_2
O1 C10 1_555 1_555
O2 C12 1_555 1_555
O3 H1 1_555 1_555
O4 C31 1_555 1_555
O5 C18 1_555 1_555
N1 C1 1_555 1_555
N2 H3 1_555 1_555
N3 H4 1_555 1_555
N4 H5 1_555 1_555
N5 H6 1_555 1_555
N6 H7 1_555 1_555
C1 C2 1_555 1_555
C2 H8 1_555 1_555
C3 C2 1_555 1_555
H9 C3 1_555 1_555
C4 C3 1_555 1_555
H10 C4 1_555 1_555
C5 C4 1_555 1_555
H11 C5 1_555 1_555
C6 C1 1_555 1_555
C7 C6 1_555 1_555
H12 C7 1_555 1_555
C8 C7 1_555 1_555
H13 C8 1_555 1_555
C9 N1 1_555 1_555
C10 N2 1_555 1_555
C11 N2 1_555 1_555
H14 C11 1_555 1_555
C12 N3 1_555 1_555
C13 N3 1_555 1_555
H15 C13 1_555 1_555
C14 O3 1_555 1_555
H16 C14 1_555 1_555
C15 N4 1_555 1_555
H17 C15 1_555 1_555
H18 C15 1_555 1_555
C16 N4 1_555 1_555
H19 C16 1_555 1_555
C17 C16 1_555 1_555
H20 C17 1_555 1_555
H21 C17 1_555 1_555
C18 C17 1_555 1_555
H22 C18 1_555 1_555
C19 C18 1_555 1_555
H23 C19 1_555 1_555
H24 C19 1_555 1_555
C20 N4 1_555 1_555
H25 C20 1_555 1_555
H26 C20 1_555 1_555
C21 C11 1_555 1_555
H27 C21 1_555 1_555
C22 C21 1_555 1_555
H28 C22 1_555 1_555
H29 C22 1_555 1_555
H30 C22 1_555 1_555
C23 C21 1_555 1_555
H31 C23 1_555 1_555
H32 C23 1_555 1_555
H33 C23 1_555 1_555
C24 C13 1_555 1_555
H34 C24 1_555 1_555
H35 C24 1_555 1_555
C25 C24 1_555 1_555
C26 C25 1_555 1_555
H36 C26 1_555 1_555
C27 C26 1_555 1_555
H37 C27 1_555 1_555
C28 C27 1_555 1_555
H38 C28 1_555 1_555
C29 C28 1_555 1_555
H39 C29 1_555 1_555
C30 C25 1_555 1_555
H40 C30 1_555 1_555
C31 N5 1_555 1_555
C32 N5 1_555 1_555
C33 C32 1_555 1_555
H41 C33 1_555 1_555
H42 C33 1_555 1_555
H43 C33 1_555 1_555
C34 C32 1_555 1_555
H44 C34 1_555 1_555
H45 C34 1_555 1_555
H46 C34 1_555 1_555
C35 C32 1_555 1_555
H47 C35 1_555 1_555
H48 C35 1_555 1_555
H49 C35 1_555 1_555
C36 O5 1_555 1_555
H50 C36 1_555 1_555
H51 C36 1_555 1_555
C37 C36 1_555 1_555
C38 C37 1_555 1_555
H52 C38 1_555 1_555
C39 N6 1_555 1_555
H53 C39 1_555 1_555
C40 N6 1_555 1_555
H54 C40 1_555 1_555
C41 C37 1_555 1_555
H55 C41 1_555 1_555
C5 C6 1_555 1_555
C8 C9 1_555 1_555
C9 C10 1_555 1_555
C11 C12 1_555 1_555
C13 C14 1_555 1_555
C14 C15 1_555 1_555
C16 C31 1_555 1_555
C19 C20 1_555 1_555
C29 C30 1_555 1_555
C38 C39 1_555 1_555
C40 C41 1_555 1_555

#END
