
#######################################################################
#
#                 Cambridge Crystallographic Data Centre
#                                CCDC 
#
#######################################################################
#
# If this CIF has been generated from an entry in the Cambridge 
# Structural Database, then it will include bibliographic, chemical, 
# crystal, experimental, refinement or atomic coordinate data resulting 
# from the CCDC's data processing and validation procedures.
#
#######################################################################

data_REFZAE
_chemical_formula_moiety         
'C12 H10 N2 2+,2(C12 H9 N2 1+),C28 H20 O16 S4 4-,9.5(H2 O1)'
_chemical_name_systematic        
'25,26,27,28-Tetrahydroxycalix(4)arene-5,11,17,23-tetrasulfonate tris(1,10-phenanthrolinium) clathrate hydrate'
_symmetry_cell_setting           monoclinic
_symmetry_space_group_name_H-M   'P 21/n'
_symmetry_Int_Tables_number      14
_space_group_name_Hall           '-P 2yn'
loop_
_symmetry_equiv_pos_site_id
_symmetry_equiv_pos_as_xyz
1 x,y,z
2 1/2-x,1/2+y,1/2-z
3 -x,-y,-z
4 1/2+x,1/2-y,1/2+z
_cell_length_a                   14.257(4)
_cell_length_b                   38.099(10)
_cell_length_c                   16.146(4)
_cell_angle_alpha                90
_cell_angle_beta                 105.981(5)
_cell_angle_gamma                90
_cell_volume                     8431.2
_exptl_crystal_colour            colorless
_exptl_crystal_description       block
_cell_formula_units_Z            4
loop_
_atom_site_label
_atom_site_type_symbol
_atom_site_fract_x
_atom_site_fract_y
_atom_site_fract_z
S1 S 0.3955(3) 0.60978(8) 0.6988(2)
S2 S 0.1062(3) 0.65314(11) 0.2405(2)
S3 S 0.6194(2) 0.62202(8) 0.26888(19)
S4 S 0.8887(3) 0.63522(13) 0.7215(4)
O1 O 0.4463(5) 0.75847(15) 0.6155(4)
H1 H 0.4139 0.7626 0.5661
O2 O 0.4834(11) 0.5969(4) 0.7530(13)
O3 O 0.3216(15) 0.6101(4) 0.7501(13)
O4 O 0.358(2) 0.5915(7) 0.619(2)
O8 O 0.3976(5) 0.75225(17) 0.4384(4)
H2 H 0.4512 0.7469 0.4325
O9 O 0.1562(9) 0.6254(3) 0.2184(9)
O10 O 0.0400(7) 0.6443(3) 0.2875(7)
O11 O 0.0500(9) 0.6751(4) 0.1695(8)
O12 O 0.5766(5) 0.76428(15) 0.3994(4)
H3 H 0.5331 0.7649 0.4237
O13 O 0.5354(7) 0.6029(2) 0.2652(7)
O14 O 0.6393(9) 0.6270(2) 0.1916(6)
O15 O 0.7008(9) 0.6052(3) 0.3313(7)
O16 O 0.6273(5) 0.75180(16) 0.5767(4)
H4 H 0.5860 0.7450 0.5336
O17 O 0.9611(12) 0.6518(5) 0.7924(10)
O18 O 0.9352(14) 0.6242(5) 0.6577(10)
O19 O 0.8407(13) 0.6080(4) 0.7539(14)
C1 C 0.5127(6) 0.7062(2) 0.6911(5)
C2 C 0.4969(7) 0.6717(2) 0.7104(5)
H5 H 0.5462 0.6599 0.7504
C3 C 0.4108(7) 0.6539(2) 0.6728(5)
C4 C 0.3379(6) 0.6720(2) 0.6155(6)
H6 H 0.2794 0.6605 0.5910
C5 C 0.3469(6) 0.7063(2) 0.5925(5)
C6 C 0.4364(6) 0.7232(2) 0.6343(5)
C7 C 0.2661(6) 0.7242(2) 0.5247(5)
H7 H 0.2039 0.7180 0.5342
H8 H 0.2739 0.7494 0.5314
C8 C 0.2641(5) 0.7147(2) 0.4346(5)
C9 C 0.1968(6) 0.6912(2) 0.3882(6)
H9 H 0.1520 0.6810 0.4134
C10 C 0.1947(6) 0.6821(3) 0.3023(6)
C11 C 0.2619(7) 0.6968(3) 0.2653(6)
H10 H 0.2597 0.6910 0.2089
C12 C 0.3329(6) 0.7200(2) 0.3106(5)
C13 C 0.3297(6) 0.7289(2) 0.3953(5)
C14 C 0.4087(6) 0.7340(2) 0.2716(5)
H11 H 0.4168 0.7590 0.2831
H12 H 0.3875 0.7308 0.2096
C15 C 0.5059(6) 0.7155(2) 0.3083(5)
C16 C 0.5181(7) 0.6818(2) 0.2785(5)
H13 H 0.4676 0.6712 0.2368
C17 C 0.6050(7) 0.6642(2) 0.3108(6)
C18 C 0.6800(7) 0.6786(2) 0.3729(6)
H14 H 0.7380 0.6662 0.3931
C19 C 0.6709(6) 0.7122(2) 0.4071(5)
C20 C 0.5837(6) 0.7307(2) 0.3695(5)
C21 C 0.7542(6) 0.7268(3) 0.4775(5)
H15 H 0.7491 0.7522 0.4781
H16 H 0.8154 0.7208 0.4657
C22 C 0.7541(6) 0.7125(2) 0.5646(5)
C23 C 0.8149(7) 0.6851(3) 0.6017(7)
H17 H 0.8583 0.6762 0.5732
C24 C 0.8133(6) 0.6702(2) 0.6804(7)
C25 C 0.7502(7) 0.6840(3) 0.7222(7)
H18 H 0.7503 0.6747 0.7755
C26 C 0.6868(6) 0.7110(2) 0.6895(5)
C27 C 0.6882(6) 0.7251(2) 0.6103(5)
C28 C 0.6105(7) 0.7230(3) 0.7322(5)
H19 H 0.6041 0.7483 0.7275
H20 H 0.6313 0.7170 0.7929
N1 N 0.6821(7) 0.7256(2) 0.1769(5)
N2 N 0.8665(7) 0.7284(3) 0.2879(6)
H21 H 0.8420 0.7104 0.2578
C41 C 0.5907(9) 0.7250(3) 0.1244(7)
H32 H 0.5676 0.7049 0.0930
C42 C 0.5319(8) 0.7534(4) 0.1165(7)
H33 H 0.4700 0.7525 0.0780
C43 C 0.5610(8) 0.7832(3) 0.1635(7)
H34 H 0.5189 0.8023 0.1580
C44 C 0.6518(7) 0.7846(3) 0.2182(6)
C45 C 0.6904(13) 0.8152(3) 0.2699(10)
H35 H 0.6531 0.8354 0.2674
C46 C 0.7884(14) 0.8133(5) 0.3252(9)
H36 H 0.8134 0.8322 0.3606
C47 C 0.8421(8) 0.7863(4) 0.3273(7)
C48 C 0.9385(12) 0.7838(5) 0.3835(7)
H37 H 0.9655 0.8023 0.4199
C49 C 0.9914(12) 0.7530(7) 0.3825(11)
H38 H 1.0553 0.7516 0.4171
C50 C 0.9537(12) 0.7265(6) 0.3346(10)
H39 H 0.9902 0.7062 0.3345
C51 C 0.8095(7) 0.7571(3) 0.2824(6)
C52 C 0.7116(7) 0.7555(3) 0.2239(6)
N3 N 0.9483(10) 0.5375(4) 0.1159(10)
N4 N 0.9300(10) 0.4695(4) 0.1373(10)
H22 H 0.9583 0.4834 0.1787
C29 C 0.9602(15) 0.5730(6) 0.1108(13)
H23 H 0.9844 0.5865 0.1600
C30 C 0.9351(16) 0.5878(6) 0.0305(12)
H24 H 0.9489 0.6114 0.0243
C31 C 0.8897(13) 0.5685(4) -0.0410(12)
H25 H 0.8700 0.5797 -0.0942
C32 C 0.8720(12) 0.5328(4) -0.0370(13)
C33 C 0.8289(14) 0.5073(6) -0.1043(14)
H26 H 0.8085 0.5153 -0.1609
C34 C 0.8171(14) 0.4742(6) -0.0899(13)
H27 H 0.7841 0.4601 -0.1357
C35 C 0.8496(12) 0.4599(5) -0.0139(12)
C36 C 0.8438(16) 0.4222(6) 0.0140(15)
H28 H 0.8159 0.4060 -0.0288
C37 C 0.8709(17) 0.4118(7) 0.0838(17)
H29 H 0.8606 0.3884 0.0948
C38 C 0.9187(18) 0.4335(7) 0.1519(17)
H30 H 0.9430 0.4242 0.2069
C39 C 0.8973(10) 0.4807(4) 0.0614(11)
C40 C 0.9075(9) 0.5183(4) 0.0464(10)
N5 N 0.4067(6) 0.5405(2) 1.0270(6)
N6 N 0.3163(7) 0.5274(2) 0.8558(7)
H31 H 0.3349 0.5482 0.8741
C53 C 0.4510(9) 0.5471(3) 1.1085(8)
H40 H 0.4682 0.5701 1.1253
C54 C 0.4722(9) 0.5214(4) 1.1684(8)
H41 H 0.5033 0.5268 1.2256
C55 C 0.4482(10) 0.4881(4) 1.1450(9)
H42 H 0.4639 0.4705 1.1866
C56 C 0.4001(8) 0.4789(3) 1.0595(7)
C57 C 0.3681(11) 0.4447(3) 1.0258(11)
H43 H 0.3792 0.4257 1.0635
C58 C 0.3218(9) 0.4389(3) 0.9403(10)
H44 H 0.3024 0.4163 0.9210
C59 C 0.3041(8) 0.4669(3) 0.8829(8)
C60 C 0.2590(10) 0.4620(4) 0.7942(11)
H45 H 0.2403 0.4396 0.7732
C61 C 0.2425(12) 0.4898(5) 0.7390(10)
H46 H 0.2119 0.4868 0.6807
C62 C 0.2718(11) 0.5217(4) 0.7713(9)
H47 H 0.2610 0.5408 0.7338
C63 C 0.3309(8) 0.5001(2) 0.9110(7)
C64 C 0.3768(7) 0.5066(3) 0.9975(7)
O23 O 0.3901(8) 0.6016(2) 0.9366(7)
O24 O 0.3336(8) 0.6118(3) 0.1779(6)
O25 O 0.6765(9) 0.6007(4) 0.8076(8)
O26 O 0.5422(9) 0.6441(3) 0.0246(7)
O27 O 0.8321(10) 0.6629(4) 0.1997(9)
O28 O 0.6510(12) 0.8293(4) 0.5188(10)
O29 O 0.6635(13) 0.6543(6) 0.9235(10)
O30 O 0.0031(17) 0.6596(6) 0.4837(13)
O31 O 0.8392(17) 0.6814(5) 0.0245(13)
O32 O 0.8488(12) 0.8260(8) 0.5616(11)
O33 O 0.031(3) 0.5080(14) 0.290(2)
O34 O 0.114(2) 0.6140(14) 0.633(3)
N7 N 0.5842(13) 0.5289(5) 0.4398(13)
N8 N 0.5891(7) 0.5974(4) 0.4942(7)
H48 H 0.6432 0.5859 0.5072
C65 C 0.5916(10) 0.6317(4) 0.5216(9)
H49 H 0.6473 0.6426 0.5557
C66 C 0.5036(11) 0.6480(5) 0.4932(9)
H50 H 0.5019 0.6714 0.5088
C67 C 0.4185(13) 0.6344(4) 0.4454(10)
H51 H 0.3615 0.6474 0.4272
C68 C 0.4238(11) 0.5999(4) 0.4264(9)
C69 C 0.3301(14) 0.5902(7) 0.3834(15)
H52 H 0.2768 0.6052 0.3733
C70 C 0.3240(15) 0.5556(7) 0.357(2)
H53 H 0.2642 0.5468 0.3251
C71 C 0.4044(15) 0.5337(4) 0.3766(12)
C72 C 0.404(2) 0.4980(5) 0.359(2)
H54 H 0.3454 0.4864 0.3370
C73 C 0.4904(17) 0.4794(5) 0.3747(13)
H55 H 0.4877 0.4560 0.3578
C74 C 0.5800(15) 0.4938(6) 0.4139(15)
H56 H 0.6366 0.4805 0.4229
C75 C 0.4956(13) 0.5460(4) 0.4160(12)
C76 C 0.5059(10) 0.5799(3) 0.4473(9)
O5? O 0.417(3) 0.6117(8) 0.789(2)
O6? O 0.309(3) 0.5988(12) 0.653(4)
O7? O 0.476(2) 0.5936(7) 0.681(2)
O20? O 0.9796(9) 0.6396(5) 0.7059(14)
O21? O 0.8357(14) 0.6048(4) 0.6765(14)
O22? O 0.8948(17) 0.6310(6) 0.8107(7)
O35? O 0.519(2) 0.5190(7) 0.4088(15)
O36? O 0.649(3) 0.5439(10) 0.480(2)
O37? O 0.560(4) 0.5748(13) 0.463(3)
loop_
_geom_bond_atom_site_label_1
_geom_bond_atom_site_label_2
_geom_bond_site_symmetry_1
_geom_bond_site_symmetry_2
S1 O2 1_555 1_555
S2 O9 1_555 1_555
S3 O13 1_555 1_555
S4 O17 1_555 1_555
O1 H1 1_555 1_555
O3 S1 1_555 1_555
O4 S1 1_555 1_555
O8 H2 1_555 1_555
O10 S2 1_555 1_555
O11 S2 1_555 1_555
O12 H3 1_555 1_555
O14 S3 1_555 1_555
O15 S3 1_555 1_555
O16 H4 1_555 1_555
O18 S4 1_555 1_555
O19 S4 1_555 1_555
C1 C2 1_555 1_555
C2 H5 1_555 1_555
C3 S1 1_555 1_555
C4 C3 1_555 1_555
H6 C4 1_555 1_555
C5 C4 1_555 1_555
C6 O1 1_555 1_555
C7 C5 1_555 1_555
H7 C7 1_555 1_555
H8 C7 1_555 1_555
C8 C7 1_555 1_555
C9 C8 1_555 1_555
H9 C9 1_555 1_555
C10 S2 1_555 1_555
C11 C10 1_555 1_555
H10 C11 1_555 1_555
C12 C11 1_555 1_555
C13 O8 1_555 1_555
C14 C12 1_555 1_555
H11 C14 1_555 1_555
H12 C14 1_555 1_555
C15 C14 1_555 1_555
C16 C15 1_555 1_555
H13 C16 1_555 1_555
C17 S3 1_555 1_555
C18 C17 1_555 1_555
H14 C18 1_555 1_555
C19 C18 1_555 1_555
C20 O12 1_555 1_555
C21 C19 1_555 1_555
H15 C21 1_555 1_555
H16 C21 1_555 1_555
C22 C21 1_555 1_555
C23 C22 1_555 1_555
H17 C23 1_555 1_555
C24 S4 1_555 1_555
C25 C24 1_555 1_555
H18 C25 1_555 1_555
C26 C25 1_555 1_555
C27 O16 1_555 1_555
C28 C1 1_555 1_555
H19 C28 1_555 1_555
H20 C28 1_555 1_555
N1 C41 1_555 1_555
N2 H21 1_555 1_555
N3 C29 1_555 1_555
N4 H22 1_555 1_555
C29 H23 1_555 1_555
C30 C29 1_555 1_555
H24 C30 1_555 1_555
C31 C30 1_555 1_555
H25 C31 1_555 1_555
C32 C31 1_555 1_555
C33 C32 1_555 1_555
H26 C33 1_555 1_555
C34 C33 1_555 1_555
H27 C34 1_555 1_555
C35 C34 1_555 1_555
C36 C35 1_555 1_555
H28 C36 1_555 1_555
C37 C36 1_555 1_555
H29 C37 1_555 1_555
C38 N4 1_555 1_555
H30 C38 1_555 1_555
C39 N4 1_555 1_555
C40 N3 1_555 1_555
N5 C53 1_555 1_555
N6 H31 1_555 1_555
C41 H32 1_555 1_555
C42 C41 1_555 1_555
H33 C42 1_555 1_555
C43 C42 1_555 1_555
H34 C43 1_555 1_555
C44 C43 1_555 1_555
C45 C44 1_555 1_555
H35 C45 1_555 1_555
C46 C45 1_555 1_555
H36 C46 1_555 1_555
C47 C46 1_555 1_555
C48 C47 1_555 1_555
H37 C48 1_555 1_555
C49 C48 1_555 1_555
H38 C49 1_555 1_555
C50 N2 1_555 1_555
H39 C50 1_555 1_555
C51 N2 1_555 1_555
C52 N1 1_555 1_555
C53 H40 1_555 1_555
C54 C53 1_555 1_555
H41 C54 1_555 1_555
C55 C54 1_555 1_555
H42 C55 1_555 1_555
C56 C55 1_555 1_555
C57 C56 1_555 1_555
H43 C57 1_555 1_555
C58 C57 1_555 1_555
H44 C58 1_555 1_555
C59 C58 1_555 1_555
C60 C59 1_555 1_555
H45 C60 1_555 1_555
C61 C60 1_555 1_555
H46 C61 1_555 1_555
C62 N6 1_555 1_555
H47 C62 1_555 1_555
C63 N6 1_555 1_555
C64 N5 1_555 1_555
N7 C74 1_555 1_555
N8 H48 1_555 1_555
C65 N8 1_555 1_555
H49 C65 1_555 1_555
C66 C65 1_555 1_555
H50 C66 1_555 1_555
C67 C66 1_555 1_555
H51 C67 1_555 1_555
C68 C67 1_555 1_555
C69 C68 1_555 1_555
H52 C69 1_555 1_555
C70 C69 1_555 1_555
H53 C70 1_555 1_555
C71 C70 1_555 1_555
C72 C71 1_555 1_555
H54 C72 1_555 1_555
C73 C72 1_555 1_555
H55 C73 1_555 1_555
C74 C73 1_555 1_555
H56 C74 1_555 1_555
C75 N7 1_555 1_555
C76 N8 1_555 1_555
C1 C6 1_555 1_555
C2 C3 1_555 1_555
C5 C6 1_555 1_555
C8 C13 1_555 1_555
C9 C10 1_555 1_555
C12 C13 1_555 1_555
C15 C20 1_555 1_555
C16 C17 1_555 1_555
C19 C20 1_555 1_555
C22 C27 1_555 1_555
C23 C24 1_555 1_555
C26 C27 1_555 1_555
C26 C28 1_555 1_555
C32 C40 1_555 1_555
C35 C39 1_555 1_555
C37 C38 1_555 1_555
C39 C40 1_555 1_555
C44 C52 1_555 1_555
C47 C51 1_555 1_555
C49 C50 1_555 1_555
C51 C52 1_555 1_555
C56 C64 1_555 1_555
C59 C63 1_555 1_555
C61 C62 1_555 1_555
C63 C64 1_555 1_555
C68 C76 1_555 1_555
C71 C75 1_555 1_555
C75 C76 1_555 1_555

#END
