
#######################################################################
#
#                 Cambridge Crystallographic Data Centre
#                                CCDC 
#
#######################################################################
#
# If this CIF has been generated from an entry in the Cambridge 
# Structural Database, then it will include bibliographic, chemical, 
# crystal, experimental, refinement or atomic coordinate data resulting 
# from the CCDC's data processing and validation procedures.
#
#######################################################################

data_REGCIQ
_chemical_formula_moiety         'C19 H18 N2 O3'
_chemical_name_systematic        
6-(2,2-Diphenylvinyl)-5-hydroxy-1,3-dimethyluracil
_symmetry_cell_setting           triclinic
_symmetry_space_group_name_H-M   'P -1'
_symmetry_Int_Tables_number      2
_space_group_name_Hall           '-P 1'
loop_
_symmetry_equiv_pos_site_id
_symmetry_equiv_pos_as_xyz
1 x,y,z
2 -x,-y,-z
_cell_length_a                   5.9027(12)
_cell_length_b                   10.727(2)
_cell_length_c                   14.720(3)
_cell_angle_alpha                109.711(2)
_cell_angle_beta                 95.385(3)
_cell_angle_gamma                97.506(3)
_cell_volume                     860.366
_exptl_crystal_colour            orange
_exptl_crystal_description       needles
_chemical_melting_point          156-157deg.C
_cell_formula_units_Z            2
loop_
_atom_site_label
_atom_site_type_symbol
_atom_site_fract_x
_atom_site_fract_y
_atom_site_fract_z
N1 N 0.7747(2) 0.55239(11) 0.75467(9)
N2 N 0.9584(2) 0.67281(11) 0.91562(9)
O1 O 0.4370(2) 0.53642(11) 0.88501(9)
H1 H 0.338(3) 0.4908(18) 0.9067(15)
O2 O 0.9844(2) 0.76038(11) 0.79534(9)
O3 O 0.8582(2) 0.61266(10) 1.04158(8)
C1 C 0.7073(2) 0.31245(14) 0.72523(11)
C2 C 0.7083(2) 0.43980(13) 0.78316(11)
C3 C 0.9073(3) 0.66655(14) 0.81878(12)
C4 C 0.8298(3) 0.59362(14) 0.95403(11)
C5 C 0.6460(3) 0.48305(13) 0.88347(11)
H2 H 0.6267 0.4060 0.9053
C6 C 0.6838(4) 0.55573(19) 0.65989(14)
H3 H 0.5928 0.4699 0.6209
H4 H 0.8098 0.5754 0.6273
H5 H 0.5892 0.6240 0.6691
C7 C 1.1320(3) 0.78587(16) 0.98075(14)
H9 H 1.2081 0.8317 0.9432
H10 H 1.2437 0.7529 1.0143
H11 H 1.0580 0.8471 1.0274
C8 C 0.6193(2) 0.19584(13) 0.75324(10)
C9 C 0.4126(3) 0.18286(15) 0.78889(11)
H15 H 0.3195 0.2479 0.7947
C10 C 0.3426(3) 0.07377(16) 0.81610(13)
H16 H 0.2039 0.0666 0.8407
C11 C 0.4767(3) -0.02358(16) 0.80694(13)
H17 H 0.4295 -0.0964 0.8255
C12 C 0.6809(3) -0.01335(15) 0.77024(13)
H18 H 0.7724 -0.0792 0.7640
C13 C 0.7504(3) 0.09478(14) 0.74254(11)
H19 H 0.8871 0.1000 0.7163
C14 C 0.7995(3) 0.27762(14) 0.63073(11)
C15 C 0.6669(3) 0.18189(16) 0.54755(12)
H20 H 0.5219 0.1401 0.5516
C16 C 0.7476(4) 0.1481(2) 0.45900(14)
H21 H 0.6558 0.0849 0.4037
C17 C 0.9606(4) 0.2066(2) 0.45214(15)
H22 H 1.0141 0.1844 0.3922
C18 C 1.0959(4) 0.2983(2) 0.53386(16)
H23 H 1.2430 0.3370 0.5294
C19 C 1.0170(3) 0.33433(17) 0.62310(13)
H24 H 1.1108 0.3969 0.6781
H6? H 0.7351 0.6430 0.6573
H7? H 0.5181 0.5375 0.6509
H8? H 0.7387 0.4889 0.6092
H12? H 1.1317 0.7895 1.0468
H13? H 1.0961 0.8682 0.9756
H14? H 1.2818 0.7740 0.9625
loop_
_geom_bond_atom_site_label_1
_geom_bond_atom_site_label_2
_geom_bond_site_symmetry_1
_geom_bond_site_symmetry_2
N1 C2 1_555 1_555
N2 C3 1_555 1_555
O1 H1 1_555 1_555
O2 C3 1_555 1_555
O3 C4 1_555 1_555
C1 C2 1_555 1_555
C2 C5 1_555 1_555
C3 N1 1_555 1_555
C4 N2 1_555 1_555
C5 O1 1_555 1_555
H2 C5 1_555 1_555
C6 N1 1_555 1_555
H3 C6 1_555 1_555
H4 C6 1_555 1_555
H5 C6 1_555 1_555
C7 N2 1_555 1_555
H9 C7 1_555 1_555
H10 C7 1_555 1_555
H11 C7 1_555 1_555
C8 C1 1_555 1_555
C9 C8 1_555 1_555
H15 C9 1_555 1_555
C10 C9 1_555 1_555
H16 C10 1_555 1_555
C11 C10 1_555 1_555
H17 C11 1_555 1_555
C12 C11 1_555 1_555
H18 C12 1_555 1_555
C13 C8 1_555 1_555
H19 C13 1_555 1_555
C14 C1 1_555 1_555
C15 C14 1_555 1_555
H20 C15 1_555 1_555
C16 C15 1_555 1_555
H21 C16 1_555 1_555
C17 C16 1_555 1_555
H22 C17 1_555 1_555
C18 C17 1_555 1_555
H23 C18 1_555 1_555
C19 C14 1_555 1_555
H24 C19 1_555 1_555
C4 C5 1_555 1_555
C12 C13 1_555 1_555
C18 C19 1_555 1_555

#END
