
#######################################################################
#
#                 Cambridge Crystallographic Data Centre
#                                CCDC 
#
#######################################################################
#
# If this CIF has been generated from an entry in the Cambridge 
# Structural Database, then it will include bibliographic, chemical, 
# crystal, experimental, refinement or atomic coordinate data resulting 
# from the CCDC's data processing and validation procedures.
#
#######################################################################

data_REGCIR
_chemical_formula_moiety         'C15 H17 N1 O2,C15 H17 N1 O2'
_chemical_name_systematic        
"1'-Methyl-1'H-spiro[cyclohexane-1,4'-quinoline]-2',3'-dione 4'-amino-2'H-spiro[cyclohexane-1,1'-naphthalene]-2',3'(4'H)-dione"
_symmetry_cell_setting           triclinic
_symmetry_space_group_name_H-M   'P -1'
_symmetry_Int_Tables_number      2
_space_group_name_Hall           '-P 1'
loop_
_symmetry_equiv_pos_site_id
_symmetry_equiv_pos_as_xyz
1 x,y,z
2 -x,-y,-z
_cell_length_a                   9.071(13)
_cell_length_b                   11.312(16)
_cell_length_c                   12.524(18)
_cell_angle_alpha                93.204(14)
_cell_angle_beta                 91.457(14)
_cell_angle_gamma                98.673(12)
_cell_volume                     1267.67
_exptl_crystal_colour            yellow
_exptl_crystal_description       block
_cell_formula_units_Z            2
loop_
_atom_site_label
_atom_site_type_symbol
_atom_site_fract_x
_atom_site_fract_y
_atom_site_fract_z
C1 C 0.2917(3) 0.7664(3) 0.9080(2)
C2 C 0.1558(3) 0.7124(3) 0.8418(2)
C3 C 0.1039(4) 0.5799(3) 0.8555(2)
C4 C 0.3656(3) 0.5629(3) 0.8648(2)
C5 C 0.4697(4) 0.4881(3) 0.8426(2)
H1 H 0.4400 0.4057 0.8349
C6 C 0.6175(4) 0.5357(3) 0.8319(3)
H2 H 0.6878 0.4853 0.8181
C7 C 0.6603(4) 0.6565(3) 0.8417(3)
H3 H 0.7595 0.6889 0.8332
C8 C 0.5566(3) 0.7308(3) 0.8640(3)
H4 H 0.5871 0.8132 0.8698
C9 C 0.4077(3) 0.6861(3) 0.8781(2)
C10 C 0.2547(3) 0.7539(3) 1.0282(2)
H5 H 0.2146 0.6711 1.0390
H6 H 0.3458 0.7748 1.0718
C11 C 0.1433(4) 0.8333(3) 1.0641(2)
H7 H 0.0500 0.8094 1.0235
H8 H 0.1240 0.8233 1.1391
C12 C 0.2004(4) 0.9627(3) 1.0484(3)
H9 H 0.2902 0.9881 1.0925
H10 H 0.1262 1.0115 1.0709
C13 C 0.2341(4) 0.9813(3) 0.9323(3)
H11 H 0.2789 1.0638 0.9253
H12 H 0.1417 0.9666 0.8897
C14 C 0.3397(4) 0.8980(3) 0.8899(3)
H13 H 0.3493 0.9069 0.8137
H14 H 0.4375 0.9234 0.9239
C15 C 0.1704(4) 0.3875(3) 0.8940(3)
H15 H 0.0737 0.3762 0.9246
H16 H 0.2423 0.3645 0.9433
H17 H 0.1676 0.3390 0.8284
N1 N 0.2125(3) 0.5131(2) 0.87244(19)
O1 O 0.0851(3) 0.7639(2) 0.78170(19)
O2 O -0.0291(3) 0.5397(2) 0.8550(2)
C16 C 0.1816(3) 0.7372(2) 0.4174(2)
C17 C 0.2942(3) 0.7939(3) 0.3410(2)
C18 C 0.3035(4) 0.9290(3) 0.3356(2)
C19 C 0.1767(3) 0.9746(2) 0.34858(19)
C20 C 0.0397(3) 0.9001(3) 0.3584(2)
C21 C 0.0367(3) 0.7823(3) 0.3883(2)
C22 C -0.1016(4) 0.7118(3) 0.3948(3)
H18 H -0.1055 0.6333 0.4142
C23 C -0.2332(4) 0.7543(4) 0.3736(3)
H19 H -0.3241 0.7046 0.3782
C24 C -0.2295(4) 0.8703(4) 0.3455(3)
H20 H -0.3178 0.9003 0.3322
C25 C -0.0941(4) 0.9418(3) 0.3372(2)
H21 H -0.0918 1.0199 0.3170
C26 C 0.2328(4) 0.7882(3) 0.5321(2)
H22 H 0.2517 0.8749 0.5329
H23 H 0.1530 0.7658 0.5806
C27 C 0.3732(4) 0.7430(3) 0.5719(3)
H24 H 0.4559 0.7718 0.5278
H25 H 0.3980 0.7746 0.6448
C28 C 0.3519(5) 0.6088(3) 0.5684(3)
H26 H 0.2735 0.5800 0.6160
H27 H 0.4432 0.5825 0.5928
C29 C 0.3106(4) 0.5572(3) 0.4557(3)
H28 H 0.2930 0.4704 0.4554
H29 H 0.3930 0.5803 0.4096
C30 C 0.1711(4) 0.6012(3) 0.4121(3)
H30 H 0.1528 0.5710 0.3382
H31 H 0.0863 0.5679 0.4524
N2 N 0.1814(4) 1.1030(3) 0.3461(3)
H32 H 0.2759 1.1389 0.3513
H33 H 0.1396 1.1199 0.2849
O3 O 0.3737(3) 0.7420(2) 0.28616(18)
O4 O 0.4243(3) 0.9888(2) 0.3201(2)
H34? H 0.1317 1.1291 0.4008
loop_
_geom_bond_atom_site_label_1
_geom_bond_atom_site_label_2
_geom_bond_site_symmetry_1
_geom_bond_site_symmetry_2
C1 C2 1_555 1_555
C2 C3 1_555 1_555
C3 N1 1_555 1_555
C4 C5 1_555 1_555
C5 H1 1_555 1_555
C6 C5 1_555 1_555
H2 C6 1_555 1_555
C7 C6 1_555 1_555
H3 C7 1_555 1_555
C8 C7 1_555 1_555
H4 C8 1_555 1_555
C9 C1 1_555 1_555
C10 C1 1_555 1_555
H5 C10 1_555 1_555
H6 C10 1_555 1_555
C11 C10 1_555 1_555
H7 C11 1_555 1_555
H8 C11 1_555 1_555
C12 C11 1_555 1_555
H9 C12 1_555 1_555
H10 C12 1_555 1_555
C13 C12 1_555 1_555
H11 C13 1_555 1_555
H12 C13 1_555 1_555
C14 C1 1_555 1_555
H13 C14 1_555 1_555
H14 C14 1_555 1_555
C15 H15 1_555 1_555
H16 C15 1_555 1_555
H17 C15 1_555 1_555
N1 C4 1_555 1_555
O1 C2 1_555 1_555
O2 C3 1_555 1_555
C16 C17 1_555 1_555
C17 C18 1_555 1_555
C18 C19 1_555 1_555
C19 C20 1_555 1_555
C20 C21 1_555 1_555
C21 C16 1_555 1_555
C22 C21 1_555 1_555
H18 C22 1_555 1_555
C23 C22 1_555 1_555
H19 C23 1_555 1_555
C24 C23 1_555 1_555
H20 C24 1_555 1_555
C25 C20 1_555 1_555
H21 C25 1_555 1_555
C26 C16 1_555 1_555
H22 C26 1_555 1_555
H23 C26 1_555 1_555
C27 C26 1_555 1_555
H24 C27 1_555 1_555
H25 C27 1_555 1_555
C28 C27 1_555 1_555
H26 C28 1_555 1_555
H27 C28 1_555 1_555
C29 C28 1_555 1_555
H28 C29 1_555 1_555
H29 C29 1_555 1_555
C30 C16 1_555 1_555
H30 C30 1_555 1_555
H31 C30 1_555 1_555
N2 C19 1_555 1_555
H32 N2 1_555 1_555
H33 N2 1_555 1_555
O3 C17 1_555 1_555
O4 C18 1_555 1_555
C4 C9 1_555 1_555
C8 C9 1_555 1_555
C13 C14 1_555 1_555
C15 N1 1_555 1_555
C24 C25 1_555 1_555
C29 C30 1_555 1_555

#END
