
#######################################################################
#
#                 Cambridge Crystallographic Data Centre
#                                CCDC 
#
#######################################################################
#
# If this CIF has been generated from an entry in the Cambridge 
# Structural Database, then it will include bibliographic, chemical, 
# crystal, experimental, refinement or atomic coordinate data resulting 
# from the CCDC's data processing and validation procedures.
#
#######################################################################

data_REGCOW
_chemical_formula_moiety         'C19 H18 N2 O3'
_chemical_name_systematic        
5-(Diphenyl(hydroxy)methyl)-1,3-dimethyluracil
_symmetry_cell_setting           monoclinic
_symmetry_space_group_name_H-M   'P 21/c'
_symmetry_Int_Tables_number      14
_space_group_name_Hall           '-P 2ybc'
loop_
_symmetry_equiv_pos_site_id
_symmetry_equiv_pos_as_xyz
1 x,y,z
2 -x,1/2+y,1/2-z
3 -x,-y,-z
4 x,1/2-y,1/2+z
_cell_length_a                   12.7184(16)
_cell_length_b                   7.8745(10)
_cell_length_c                   16.285(2)
_cell_angle_alpha                90
_cell_angle_beta                 96.727(2)
_cell_angle_gamma                90
_cell_volume                     1619.73
_exptl_crystal_colour            colorless
_exptl_crystal_description       needles
_chemical_melting_point          203-205deg.C
_cell_formula_units_Z            4
loop_
_atom_site_label
_atom_site_type_symbol
_atom_site_fract_x
_atom_site_fract_y
_atom_site_fract_z
N1 N 1.02877(8) 0.88126(15) 0.15096(7)
N2 N 0.93741(9) 1.12566(14) 0.10431(7)
O1 O 0.74615(7) 0.73136(13) 0.24544(5)
H1 H 0.8046(9) 0.683(2) 0.2525(10)
O2 O 0.94481(8) 0.65991(13) 0.20331(7)
O3 O 1.11463(8) 1.10626(15) 0.10243(8)
C1 C 0.73757(9) 0.80117(16) 0.16373(7)
C2 C 0.83998(9) 0.89423(16) 0.15176(8)
C3 C 0.93800(10) 0.80109(17) 0.17106(8)
C4 C 1.03224(11) 1.04225(19) 0.11787(9)
C5 C 0.84481(10) 1.05027(16) 0.12036(8)
H2 H 0.7821 1.1110 0.1088
C6 C 1.13032(12) 0.7937(2) 0.17115(12)
H3 H 1.1182 0.6836 0.1935
H4 H 1.1747 0.8589 0.2112
H5 H 1.1645 0.7813 0.1220
C7 C 0.93867(14) 1.3018(2) 0.07497(12)
H6 H 0.8678 1.3457 0.0679
H7 H 0.9674 1.3053 0.0230
H8 H 0.9817 1.3697 0.1148
C8 C 0.64205(10) 0.92064(16) 0.16171(8)
C9 C 0.64086(12) 1.04049(19) 0.22429(9)
H9 H 0.6997 1.0519 0.2636
C10 C 0.55365(14) 1.1427(2) 0.22885(10)
H10 H 0.5542 1.2228 0.2709
C11 C 0.46583(13) 1.1266(2) 0.17150(10)
H11 H 0.4065 1.1939 0.1751
C12 C 0.46657(11) 1.01081(19) 0.10926(10)
H12 H 0.4077 1.0008 0.0699
C13 C 0.55399(10) 0.90791(17) 0.10390(8)
H13 H 0.5533 0.8298 0.0610
C14 C 0.71685(9) 0.66175(15) 0.09797(8)
C15 C 0.66223(11) 0.51602(17) 0.11452(9)
H14 H 0.6434 0.4976 0.1673
C16 C 0.63544(12) 0.39741(18) 0.05273(11)
H15 H 0.5986 0.3000 0.0643
C17 C 0.66290(13) 0.42261(19) -0.02548(11)
H16 H 0.6441 0.3430 -0.0668
C18 C 0.71814(12) 0.56579(18) -0.04240(9)
H17 H 0.7376 0.5827 -0.0951
C19 C 0.74478(10) 0.68468(17) 0.01898(8)
H18 H 0.7820 0.7815 0.0071
H19? H 1.1867 0.8656 0.1576
H20? H 1.1302 0.6903 0.1399
H21? H 1.1405 0.7679 0.2292
H22? H 1.0101 1.3347 0.0692
H23? H 0.9105 1.3752 0.1141
H24? H 0.8962 1.3108 0.0224
loop_
_geom_bond_atom_site_label_1
_geom_bond_atom_site_label_2
_geom_bond_site_symmetry_1
_geom_bond_site_symmetry_2
N1 C3 1_555 1_555
N2 C4 1_555 1_555
O1 H1 1_555 1_555
O2 C3 1_555 1_555
O3 C4 1_555 1_555
C1 O1 1_555 1_555
C2 C1 1_555 1_555
C3 C2 1_555 1_555
C4 N1 1_555 1_555
C5 N2 1_555 1_555
H2 C5 1_555 1_555
C6 N1 1_555 1_555
H3 C6 1_555 1_555
H4 C6 1_555 1_555
H5 C6 1_555 1_555
C7 N2 1_555 1_555
H6 C7 1_555 1_555
H7 C7 1_555 1_555
H8 C7 1_555 1_555
C8 C1 1_555 1_555
C9 C8 1_555 1_555
H9 C9 1_555 1_555
C10 C9 1_555 1_555
H10 C10 1_555 1_555
C11 C10 1_555 1_555
H11 C11 1_555 1_555
C12 C11 1_555 1_555
H12 C12 1_555 1_555
C13 C8 1_555 1_555
H13 C13 1_555 1_555
C14 C1 1_555 1_555
C15 C14 1_555 1_555
H14 C15 1_555 1_555
C16 C15 1_555 1_555
H15 C16 1_555 1_555
C17 C16 1_555 1_555
H16 C17 1_555 1_555
C18 C17 1_555 1_555
H17 C18 1_555 1_555
C19 C14 1_555 1_555
H18 C19 1_555 1_555
C2 C5 1_555 1_555
C12 C13 1_555 1_555
C18 C19 1_555 1_555

#END
