
#######################################################################
#
#                 Cambridge Crystallographic Data Centre
#                                CCDC 
#
#######################################################################
#
# If this CIF has been generated from an entry in the Cambridge 
# Structural Database, then it will include bibliographic, chemical, 
# crystal, experimental, refinement or atomic coordinate data resulting 
# from the CCDC's data processing and validation procedures.
#
#######################################################################

data_REGMAT
_chemical_formula_moiety         'C16 H8 N4 O2'
_chemical_name_systematic        
Pyrido[1,2-a]pyrido[2',1':2,3]imidazo[4,5-f]benzimidazole-6,13-dione
_symmetry_cell_setting           monoclinic
_symmetry_space_group_name_H-M   'P 21/c'
_symmetry_Int_Tables_number      14
_space_group_name_Hall           '-P 2ybc'
loop_
_symmetry_equiv_pos_site_id
_symmetry_equiv_pos_as_xyz
1 x,y,z
2 -x,1/2+y,1/2-z
3 -x,-y,-z
4 x,1/2-y,1/2+z
_cell_length_a                   3.78300(10)
_cell_length_b                   13.7734(3)
_cell_length_c                   11.4497(3)
_cell_angle_alpha                90
_cell_angle_beta                 96.218(3)
_cell_angle_gamma                90
_cell_volume                     593.074
_exptl_crystal_colour            brown
_exptl_crystal_description       block
_cell_formula_units_Z            2
loop_
_atom_site_label
_atom_site_type_symbol
_atom_site_fract_x
_atom_site_fract_y
_atom_site_fract_z
C1 C 0.3986(4) 0.09431(11) 0.97384(13)
O1 O 0.9158(3) -0.04206(8) 1.20567(10)
N1 N 0.3358(3) 0.19341(9) 0.97453(11)
N2 N 0.6631(4) 0.15575(9) 1.14650(12)
C2 C 0.7255(4) -0.02411(11) 1.11475(13)
C3 C 0.4709(4) 0.32694(12) 1.10685(15)
H1 H 0.5743 0.3519 1.1779
C4 C 0.1625(4) 0.25400(12) 0.89204(14)
H2 H 0.0620 0.2297 0.8202
C5 C 0.4986(4) 0.22761(11) 1.08148(13)
C6 C 0.5993(4) 0.07552(11) 1.08037(13)
C7 C 0.2902(4) 0.38601(12) 1.02576(16)
H3 H 0.2655 0.4516 1.0426
C8 C 0.1402(5) 0.34933(12) 0.91680(16)
H4 H 0.0248 0.3912 0.8614
C1B C 0.6014(4) -0.09431(11) 1.02616(13)
O1B O 0.0842(3) 0.04206(8) 0.79433(10)
N1B N 0.6642(3) -0.19341(9) 1.02547(11)
N2B N 0.3369(4) -0.15575(9) 0.85350(12)
C2B C 0.2745(4) 0.02411(11) 0.88525(13)
C3B C 0.5291(4) -0.32694(12) 0.89315(15)
H1B H 0.4257 -0.3519 0.8221
C4B C 0.8375(4) -0.25400(12) 1.10796(14)
H2B H 0.9380 -0.2297 1.1798
C5B C 0.5014(4) -0.22761(11) 0.91852(13)
C6B C 0.4007(4) -0.07552(11) 0.91963(13)
C7B C 0.7098(4) -0.38601(12) 0.97424(16)
H3B H 0.7345 -0.4516 0.9574
C8B C 0.8598(5) -0.34933(12) 1.08320(16)
H4B H 0.9752 -0.3912 1.1386
loop_
_geom_bond_atom_site_label_1
_geom_bond_atom_site_label_2
_geom_bond_site_symmetry_1
_geom_bond_site_symmetry_2
C1 N1 1_555 1_555
O1 C2 1_555 1_555
N1 C4 1_555 1_555
N2 C5 1_555 1_555
C2 C6 1_555 1_555
C3 H1 1_555 1_555
C4 H2 1_555 1_555
C5 N1 1_555 1_555
C6 C1 1_555 1_555
C7 C3 1_555 1_555
H3 C7 1_555 1_555
C8 C4 1_555 1_555
H4 C8 1_555 1_555
C1B C2 1_555 1_555
O1B C2B 1_555 1_555
N1B C1B 1_555 1_555
N2B C5B 1_555 1_555
C2B C1 1_555 1_555
C3B H1B 1_555 1_555
C4B N1B 1_555 1_555
H2B C4B 1_555 1_555
C5B N1B 1_555 1_555
C6B C1B 1_555 1_555
C7B C3B 1_555 1_555
H3B C7B 1_555 1_555
C8B C4B 1_555 1_555
H4B C8B 1_555 1_555
N2 C6 1_555 1_555
C3 C5 1_555 1_555
C7 C8 1_555 1_555
N2B C6B 1_555 1_555
C2B C6B 1_555 1_555
C3B C5B 1_555 1_555
C7B C8B 1_555 1_555

#END
