
#######################################################################
#
#                 Cambridge Crystallographic Data Centre
#                                CCDC 
#
#######################################################################
#
# If this CIF has been generated from an entry in the Cambridge 
# Structural Database, then it will include bibliographic, chemical, 
# crystal, experimental, refinement or atomic coordinate data resulting 
# from the CCDC's data processing and validation procedures.
#
#######################################################################

data_REGVAD
_chemical_name_common            terfluorene
_chemical_formula_moiety         'C45 H38'
_chemical_name_systematic        2,2':7',2''-ter(9,9'-dimethylfluorene)
_symmetry_cell_setting           monoclinic
_symmetry_space_group_name_H-M   'P 21/n'
_symmetry_Int_Tables_number      14
_space_group_name_Hall           '-P 2yn'
loop_
_symmetry_equiv_pos_site_id
_symmetry_equiv_pos_as_xyz
1 x,y,z
2 1/2-x,1/2+y,1/2-z
3 -x,-y,-z
4 1/2+x,1/2-y,1/2+z
_cell_length_a                   8.4658(11)
_cell_length_b                   16.207(2)
_cell_length_c                   23.382(3)
_cell_angle_alpha                90
_cell_angle_beta                 93.382(3)
_cell_angle_gamma                90
_cell_volume                     3202.55
_exptl_crystal_colour            colorless
_exptl_crystal_description       needle
_chemical_melting_point          '293 deg.C'
_cell_formula_units_Z            4
_exptl_crystal_recrystallization_method tetrahydrofuran/iso-propanol
_exptl_crystal_preparation       ', Luminescent'
loop_
_atom_site_label
_atom_site_type_symbol
_atom_site_fract_x
_atom_site_fract_y
_atom_site_fract_z
C1 C -0.3838(2) 0.59536(12) 0.16526(9)
C2 C -0.4809(3) 0.65008(14) 0.19145(11)
H1 H -0.4426 0.6810 0.2228
C3 C -0.6367(3) 0.65840(15) 0.17039(13)
H2 H -0.7028 0.6956 0.1876
C4 C -0.6946(3) 0.61245(16) 0.12443(11)
H3 H -0.7993 0.6191 0.1108
C5 C -0.5993(2) 0.55664(15) 0.09824(10)
H4 H -0.6394 0.5246 0.0677
C6 C -0.4422(2) 0.54926(12) 0.11842(8)
C7 C -0.3138(2) 0.49889(11) 0.09826(8)
C8 C -0.3108(2) 0.44376(13) 0.05343(8)
H5 H -0.4018 0.4334 0.0303
C9 C -0.1706(3) 0.40412(13) 0.04336(9)
H6 H -0.1683 0.3670 0.0131
C10 C -0.0326(2) 0.41844(11) 0.07749(8)
C11 C -0.0379(2) 0.47353(12) 0.12343(8)
H7 H 0.0523 0.4830 0.1472
C12 C -0.1774(2) 0.51374(11) 0.13337(8)
C13 C -0.2109(2) 0.57541(12) 0.17996(8)
C14 C -0.1899(3) 0.53549(15) 0.23912(9)
H8 H -0.2536 0.4865 0.2400
H9 H -0.2222 0.5736 0.2676
H10 H -0.0807 0.5212 0.2469
C15 C -0.1076(3) 0.65258(13) 0.17700(10)
H11 H 0.0010 0.6381 0.1859
H12 H -0.1404 0.6926 0.2042
H13 H -0.1186 0.6755 0.1391
C16 C 0.1153(2) 0.37509(12) 0.06507(8)
C17 C 0.1545(2) 0.36364(13) 0.00838(8)
H14 H 0.0887 0.3854 -0.0211
C18 C 0.2885(2) 0.32083(12) -0.00494(8)
H15 H 0.3123 0.3133 -0.0429
C19 C 0.3871(2) 0.28918(11) 0.03919(8)
C20 C 0.3527(2) 0.30215(11) 0.09632(8)
C21 C 0.2182(2) 0.34435(12) 0.10915(8)
H16 H 0.1956 0.3525 0.1472
C22 C 0.5318(2) 0.24079(11) 0.03804(8)
C23 C 0.6152(2) 0.21270(12) -0.00742(8)
H17 H 0.5786 0.2229 -0.0450
C24 C 0.7536(2) 0.16930(13) 0.00433(8)
H18 H 0.8099 0.1503 -0.0260
C25 C 0.8119(2) 0.15299(12) 0.06024(8)
C26 C 0.7243(2) 0.18040(12) 0.10542(8)
H19 H 0.7598 0.1695 0.1431
C27 C 0.5857(2) 0.22343(11) 0.09447(8)
C28 C 0.4757(2) 0.26082(12) 0.13684(7)
C29 C 0.3974(3) 0.19491(13) 0.17254(9)
H20 H 0.3358 0.1587 0.1476
H21 H 0.3298 0.2210 0.1987
H22 H 0.4776 0.1637 0.1937
C30 C 0.5639(3) 0.32208(14) 0.17670(9)
H23 H 0.6393 0.2930 0.2015
H24 H 0.4897 0.3502 0.1993
H25 H 0.6182 0.3615 0.1543
C31 C 0.9638(2) 0.10851(12) 0.07036(8)
C32 C 1.0876(3) 0.12330(13) 0.03484(9)
H26 H 1.0731 0.1615 0.0053
C33 C 1.2304(3) 0.08302(13) 0.04225(9)
H27 H 1.3114 0.0937 0.0181
C34 C 1.2512(2) 0.02622(12) 0.08641(8)
C35 C 1.1294(2) 0.01068(11) 0.12267(8)
C36 C 0.9868(2) 0.05176(12) 0.11507(8)
H28 H 0.9064 0.0417 0.1396
C37 C 1.3883(2) -0.02377(12) 0.10503(9)
C38 C 1.5377(2) -0.02909(14) 0.08406(10)
H29 H 1.5653 0.0038 0.0536
C39 C 1.6448(3) -0.08419(15) 0.10938(11)
H30 H 1.7451 -0.0891 0.0955
C40 C 1.6047(3) -0.13197(15) 0.15504(12)
H31 H 1.6779 -0.1692 0.1713
C41 C 1.4569(3) -0.12538(14) 0.17706(11)
H32 H 1.4311 -0.1571 0.2083
C42 C 1.3486(2) -0.07107(12) 0.15192(9)
C43 C 1.1809(2) -0.05221(12) 0.16835(9)
C44 C 1.0770(3) -0.12921(13) 0.16543(11)
H33 H 0.9712 -0.1148 0.1742
H34 H 1.1187 -0.1691 0.1927
H35 H 1.0758 -0.1522 0.1276
C45 C 1.1837(3) -0.01385(15) 0.22833(10)
H36 H 1.2484 0.0348 0.2293
H37 H 1.2265 -0.0529 0.2560
H38 H 1.0780 0.0005 0.2373
loop_
_geom_bond_atom_site_label_1
_geom_bond_atom_site_label_2
_geom_bond_site_symmetry_1
_geom_bond_site_symmetry_2
C1 C2 1_555 1_555
C2 H1 1_555 1_555
C3 C2 1_555 1_555
H2 C3 1_555 1_555
C4 C3 1_555 1_555
H3 C4 1_555 1_555
C5 C4 1_555 1_555
H4 C5 1_555 1_555
C6 C1 1_555 1_555
C7 C6 1_555 1_555
C8 C7 1_555 1_555
H5 C8 1_555 1_555
C9 C8 1_555 1_555
H6 C9 1_555 1_555
C10 C9 1_555 1_555
C11 C10 1_555 1_555
H7 C11 1_555 1_555
C12 C7 1_555 1_555
C13 C1 1_555 1_555
C14 C13 1_555 1_555
H8 C14 1_555 1_555
H9 C14 1_555 1_555
H10 C14 1_555 1_555
C15 C13 1_555 1_555
H11 C15 1_555 1_555
H12 C15 1_555 1_555
H13 C15 1_555 1_555
C16 C10 1_555 1_555
C17 C16 1_555 1_555
H14 C17 1_555 1_555
C18 C17 1_555 1_555
H15 C18 1_555 1_555
C19 C18 1_555 1_555
C20 C19 1_555 1_555
C21 C16 1_555 1_555
H16 C21 1_555 1_555
C22 C19 1_555 1_555
C23 C22 1_555 1_555
H17 C23 1_555 1_555
C24 C23 1_555 1_555
H18 C24 1_555 1_555
C25 C24 1_555 1_555
C26 C25 1_555 1_555
H19 C26 1_555 1_555
C27 C22 1_555 1_555
C28 C20 1_555 1_555
C29 C28 1_555 1_555
H20 C29 1_555 1_555
H21 C29 1_555 1_555
H22 C29 1_555 1_555
C30 C28 1_555 1_555
H23 C30 1_555 1_555
H24 C30 1_555 1_555
H25 C30 1_555 1_555
C31 C25 1_555 1_555
C32 C31 1_555 1_555
H26 C32 1_555 1_555
C33 C32 1_555 1_555
H27 C33 1_555 1_555
C34 C33 1_555 1_555
C35 C34 1_555 1_555
C36 C31 1_555 1_555
H28 C36 1_555 1_555
C37 C34 1_555 1_555
C38 C37 1_555 1_555
H29 C38 1_555 1_555
C39 C38 1_555 1_555
H30 C39 1_555 1_555
C40 C39 1_555 1_555
H31 C40 1_555 1_555
C41 C40 1_555 1_555
H32 C41 1_555 1_555
C42 C37 1_555 1_555
C43 C35 1_555 1_555
C44 C43 1_555 1_555
H33 C44 1_555 1_555
H34 C44 1_555 1_555
H35 C44 1_555 1_555
C45 C43 1_555 1_555
H36 C45 1_555 1_555
H37 C45 1_555 1_555
H38 C45 1_555 1_555
C5 C6 1_555 1_555
C11 C12 1_555 1_555
C12 C13 1_555 1_555
C20 C21 1_555 1_555
C26 C27 1_555 1_555
C27 C28 1_555 1_555
C35 C36 1_555 1_555
C41 C42 1_555 1_555
C42 C43 1_555 1_555

#END
