
#######################################################################
#
#                 Cambridge Crystallographic Data Centre
#                                CCDC 
#
#######################################################################
#
# If this CIF has been generated from an entry in the Cambridge 
# Structural Database, then it will include bibliographic, chemical, 
# crystal, experimental, refinement or atomic coordinate data resulting 
# from the CCDC's data processing and validation procedures.
#
#######################################################################

data_REGWIK01
_chemical_name_common            4-(Dimesitylboryl)-N,N-dimethylaniline
_chemical_formula_moiety         'C26 H32 B1 N1'
_chemical_name_systematic        (4-Dimethylaminophenyl)dimesitylborane
_symmetry_cell_setting           monoclinic
_symmetry_space_group_name_H-M   'P 21/c'
_symmetry_Int_Tables_number      14
_space_group_name_Hall           '-P 2ybc'
loop_
_symmetry_equiv_pos_site_id
_symmetry_equiv_pos_as_xyz
1 x,y,z
2 -x,1/2+y,1/2-z
3 -x,-y,-z
4 x,1/2-y,1/2+z
_cell_length_a                   14.403(3)
_cell_length_b                   11.466(2)
_cell_length_c                   13.261(3)
_cell_angle_alpha                90
_cell_angle_beta                 97.98(1)
_cell_angle_gamma                90
_cell_volume                     2168.78
_exptl_crystal_colour            colorless
_exptl_crystal_description       irregular
_chemical_melting_point          '433 K'
_cell_formula_units_Z            4
_exptl_crystal_recrystallization_method hexane
loop_
_atom_site_label
_atom_site_type_symbol
_atom_site_fract_x
_atom_site_fract_y
_atom_site_fract_z
N1 N 0.55332(7) 0.43478(9) 0.64005(8)
B1 B 0.23397(8) 0.16331(10) 0.46226(9)
C1 C 0.31815(7) 0.24120(9) 0.50407(8)
C2 C 0.31657(7) 0.30837(9) 0.59265(9)
H1 H 0.2588(10) 0.3078(13) 0.6227(11)
C3 C 0.39283(7) 0.37178(10) 0.63829(8)
H2 H 0.3876(11) 0.4151(14) 0.7007(12)
C4 C 0.47714(7) 0.37354(9) 0.59510(8)
C5 C 0.47914(7) 0.31007(9) 0.50408(9)
H3 H 0.5349(10) 0.3149(12) 0.4705(11)
C6 C 0.40254(7) 0.24599(9) 0.46151(8)
H4 H 0.4071(10) 0.2054(13) 0.3991(12)
C7 C 0.54408(9) 0.51342(13) 0.72333(10)
H5 H 0.5260(13) 0.4720(15) 0.7811(15)
H6 H 0.4943(14) 0.5745(17) 0.7058(15)
H7 H 0.6021(14) 0.5545(17) 0.7418(15)
C8 C 0.64076(8) 0.43485(11) 0.59741(10)
H8 H 0.6379(12) 0.4785(15) 0.5344(14)
H9 H 0.6625(12) 0.3540(15) 0.5865(13)
H10 H 0.6905(13) 0.4726(16) 0.6471(15)
C9 C 0.13542(7) 0.19123(9) 0.49692(8)
C10 C 0.09391(7) 0.11417(9) 0.56039(8)
C11 C 0.00751(7) 0.14050(9) 0.59052(9)
H11 H -0.0184(10) 0.0859(14) 0.6339(12)
C12 C -0.04078(7) 0.24187(9) 0.55876(9)
C13 C 0.00015(7) 0.31797(9) 0.49642(9)
H12 H -0.0338(11) 0.3907(13) 0.4723(12)
C14 C 0.08749(7) 0.29534(9) 0.46669(8)
C15 C 0.14394(8) 0.00449(10) 0.60091(10)
H13 H 0.1680(12) -0.0398(15) 0.5473(14)
H14 H 0.1027(12) -0.0470(15) 0.6338(13)
H15 H 0.1955(15) 0.0228(17) 0.6483(16)
C16 C -0.13350(9) 0.26931(12) 0.59305(12)
H16 H -0.1718(14) 0.2026(18) 0.5900(15)
H17 H -0.1245(17) 0.305(2) 0.661(2)
H18 H -0.1666(16) 0.328(2) 0.5514(19)
C17 C 0.12773(9) 0.38507(11) 0.40141(12)
H19 H 0.1749(13) 0.3565(16) 0.3619(15)
H20 H 0.0784(19) 0.422(2) 0.356(2)
H21 H 0.1654(19) 0.446(3) 0.444(2)
C18 C 0.24839(7) 0.05830(9) 0.38791(8)
C19 C 0.32126(7) -0.02383(9) 0.41381(8)
C20 C 0.33905(8) -0.11005(9) 0.34474(8)
H22 H 0.3915(11) -0.1662(14) 0.3642(12)
C21 C 0.28482(8) -0.12161(9) 0.25035(8)
C22 C 0.21081(8) -0.04427(10) 0.22612(8)
H23 H 0.1721(11) -0.0513(13) 0.1607(13)
C23 C 0.19164(7) 0.04403(9) 0.29243(8)
C24 C 0.37700(8) -0.02912(10) 0.51878(9)
H24 H 0.3931(16) 0.045(2) 0.5451(18)
H25 H 0.3377(17) -0.060(2) 0.565(2)
H26 H 0.4288(18) -0.081(2) 0.520(2)
C25 C 0.30405(11) -0.21697(12) 0.17791(11)
H27 H 0.3109(16) -0.189(2) 0.109(2)
H28 H 0.3639(16) -0.261(2) 0.2003(18)
H29 H 0.246(2) -0.264(2) 0.163(2)
C26 C 0.11009(9) 0.12324(12) 0.25720(10)
H30 H 0.0666(12) 0.1362(15) 0.3080(14)
H31 H 0.1312(13) 0.2017(18) 0.2443(15)
H32 H 0.0713(14) 0.0916(17) 0.1979(17)
loop_
_geom_bond_atom_site_label_1
_geom_bond_atom_site_label_2
_geom_bond_site_symmetry_1
_geom_bond_site_symmetry_2
N1 C4 1_555 1_555
B1 C1 1_555 1_555
C1 C2 1_555 1_555
C2 H1 1_555 1_555
C3 C2 1_555 1_555
H2 C3 1_555 1_555
C4 C3 1_555 1_555
C5 C4 1_555 1_555
H3 C5 1_555 1_555
C6 C1 1_555 1_555
H4 C6 1_555 1_555
C7 N1 1_555 1_555
H5 C7 1_555 1_555
H6 C7 1_555 1_555
H7 C7 1_555 1_555
C8 N1 1_555 1_555
H8 C8 1_555 1_555
H9 C8 1_555 1_555
H10 C8 1_555 1_555
C9 B1 1_555 1_555
C10 C9 1_555 1_555
C11 C10 1_555 1_555
H11 C11 1_555 1_555
C12 C11 1_555 1_555
C13 C12 1_555 1_555
H12 C13 1_555 1_555
C14 C9 1_555 1_555
C15 C10 1_555 1_555
H13 C15 1_555 1_555
H14 C15 1_555 1_555
H15 C15 1_555 1_555
C16 C12 1_555 1_555
H16 C16 1_555 1_555
H17 C16 1_555 1_555
H18 C16 1_555 1_555
C17 C14 1_555 1_555
H19 C17 1_555 1_555
H20 C17 1_555 1_555
H21 C17 1_555 1_555
C18 B1 1_555 1_555
C19 C18 1_555 1_555
C20 C19 1_555 1_555
H22 C20 1_555 1_555
C21 C20 1_555 1_555
C22 C21 1_555 1_555
H23 C22 1_555 1_555
C23 C18 1_555 1_555
C24 C19 1_555 1_555
H24 C24 1_555 1_555
H25 C24 1_555 1_555
H26 C24 1_555 1_555
C25 C21 1_555 1_555
H27 C25 1_555 1_555
H28 C25 1_555 1_555
H29 C25 1_555 1_555
C26 C23 1_555 1_555
H30 C26 1_555 1_555
H31 C26 1_555 1_555
H32 C26 1_555 1_555
C5 C6 1_555 1_555
C13 C14 1_555 1_555
C22 C23 1_555 1_555

#END
