
#######################################################################
#
#                 Cambridge Crystallographic Data Centre
#                                CCDC 
#
#######################################################################
#
# If this CIF has been generated from an entry in the Cambridge 
# Structural Database, then it will include bibliographic, chemical, 
# crystal, experimental, refinement or atomic coordinate data resulting 
# from the CCDC's data processing and validation procedures.
#
#######################################################################

data_REGWOQ
_chemical_formula_moiety         'C25 H29 B1 O1'
_chemical_name_systematic        (4-Methoxyphenyl)dimesitylborane
_symmetry_cell_setting           monoclinic
_symmetry_space_group_name_H-M   'P 21/n'
_symmetry_Int_Tables_number      14
_space_group_name_Hall           '-P 2yn'
loop_
_symmetry_equiv_pos_site_id
_symmetry_equiv_pos_as_xyz
1 x,y,z
2 1/2-x,1/2+y,1/2-z
3 -x,-y,-z
4 1/2+x,1/2-y,1/2+z
_cell_length_a                   7.961(1)
_cell_length_b                   19.954(3)
_cell_length_c                   13.177(2)
_cell_angle_alpha                90
_cell_angle_beta                 100.47(1)
_cell_angle_gamma                90
_cell_volume                     2058.36
_exptl_crystal_colour            colorless
_exptl_crystal_description       irregular
_chemical_melting_point          '399 K'
_cell_formula_units_Z            4
_exptl_crystal_recrystallization_method hexane
loop_
_atom_site_label
_atom_site_type_symbol
_atom_site_fract_x
_atom_site_fract_y
_atom_site_fract_z
O1 O 0.65446(17) 0.42850(6) 0.02979(9)
B1 B 0.3807(2) 0.18175(10) 0.15510(15)
C1 C 0.4587(2) 0.24721(9) 0.11879(13)
C2 C 0.4055(2) 0.27257(9) 0.01825(13)
H1 H 0.3233 0.2480 -0.0285
C3 C 0.4681(2) 0.33185(9) -0.01535(13)
H2 H 0.4305 0.3470 -0.0841
C4 C 0.5868(2) 0.36880(9) 0.05290(14)
C5 C 0.6432(2) 0.34536(9) 0.15311(14)
H3 H 0.7250 0.3703 0.1996
C6 C 0.5803(2) 0.28601(9) 0.18461(14)
H4 H 0.6203 0.2708 0.2530
C7 C 0.6155(3) 0.45051(10) -0.07528(14)
H5 H 0.6602 0.4180 -0.1194
H6 H 0.4914 0.4542 -0.0969
H7 H 0.6682 0.4943 -0.0815
C8 C 0.2588(2) 0.13826(8) 0.07198(13)
C9 C 0.0831(2) 0.13196(9) 0.07713(13)
C10 C -0.0268(2) 0.09835(9) -0.00015(14)
H8 H -0.1443 0.0951 0.0045
C11 C 0.0287(2) 0.06937(9) -0.08381(14)
C12 C 0.2007(2) 0.07371(9) -0.08765(13)
H9 H 0.2422 0.0527 -0.1429
C13 C 0.3152(2) 0.10802(9) -0.01261(13)
C14 C 0.0086(2) 0.16323(10) 0.16393(15)
H10 H 0.0760 0.1494 0.2304
H11 H 0.0116 0.2122 0.1580
H12 H -0.1098 0.1484 0.1594
C15 C -0.0953(3) 0.03528(11) -0.16871(16)
H13 H -0.0316 0.0098 -0.2127
H14 H -0.1692 0.0048 -0.1384
H15 H -0.1655 0.0693 -0.2102
C16 C 0.5004(2) 0.10938(11) -0.02544(15)
H16 H 0.5073 0.1234 -0.0958
H17 H 0.5641 0.1411 0.0240
H18 H 0.5497 0.0645 -0.0127
C17 C 0.4240(2) 0.16167(9) 0.27368(13)
C18 C 0.3830(2) 0.20415(9) 0.35141(13)
C19 C 0.4322(2) 0.18720(9) 0.45545(13)
H19 H 0.4033 0.2165 0.5065
C20 C 0.5219(2) 0.12899(9) 0.48651(13)
C21 C 0.5600(2) 0.08653(9) 0.41007(13)
H20 H 0.6205 0.0462 0.4298
C22 C 0.5120(2) 0.10136(9) 0.30550(13)
C23 C 0.2814(3) 0.26816(9) 0.32766(14)
H21 H 0.2567 0.2753 0.2528
H22 H 0.1740 0.2647 0.3537
H23 H 0.3480 0.3060 0.3611
C24 C 0.5811(3) 0.11295(11) 0.59915(14)
H24 H 0.5578 0.0657 0.6114
H25 H 0.7040 0.1214 0.6182
H26 H 0.5197 0.1413 0.6410
C25 C 0.5635(2) 0.05260(9) 0.22905(14)
H27 H 0.6055 0.0112 0.2648
H28 H 0.6541 0.0725 0.1974
H29 H 0.4645 0.0425 0.1753
loop_
_geom_bond_atom_site_label_1
_geom_bond_atom_site_label_2
_geom_bond_site_symmetry_1
_geom_bond_site_symmetry_2
O1 C4 1_555 1_555
B1 C1 1_555 1_555
C1 C2 1_555 1_555
C2 H1 1_555 1_555
C3 C2 1_555 1_555
H2 C3 1_555 1_555
C4 C3 1_555 1_555
C5 C4 1_555 1_555
H3 C5 1_555 1_555
C6 C1 1_555 1_555
H4 C6 1_555 1_555
C7 O1 1_555 1_555
H5 C7 1_555 1_555
H6 C7 1_555 1_555
H7 C7 1_555 1_555
C8 B1 1_555 1_555
C9 C8 1_555 1_555
C10 C9 1_555 1_555
H8 C10 1_555 1_555
C11 C10 1_555 1_555
C12 C11 1_555 1_555
H9 C12 1_555 1_555
C13 C8 1_555 1_555
C14 C9 1_555 1_555
H10 C14 1_555 1_555
H11 C14 1_555 1_555
H12 C14 1_555 1_555
C15 C11 1_555 1_555
H13 C15 1_555 1_555
H14 C15 1_555 1_555
H15 C15 1_555 1_555
C16 C13 1_555 1_555
H16 C16 1_555 1_555
H17 C16 1_555 1_555
H18 C16 1_555 1_555
C17 B1 1_555 1_555
C18 C17 1_555 1_555
C19 C18 1_555 1_555
H19 C19 1_555 1_555
C20 C19 1_555 1_555
C21 C20 1_555 1_555
H20 C21 1_555 1_555
C22 C17 1_555 1_555
C23 C18 1_555 1_555
H21 C23 1_555 1_555
H22 C23 1_555 1_555
H23 C23 1_555 1_555
C24 C20 1_555 1_555
H24 C24 1_555 1_555
H25 C24 1_555 1_555
H26 C24 1_555 1_555
C25 C22 1_555 1_555
H27 C25 1_555 1_555
H28 C25 1_555 1_555
H29 C25 1_555 1_555
C5 C6 1_555 1_555
C12 C13 1_555 1_555
C21 C22 1_555 1_555

#END
