
#######################################################################
#
#                 Cambridge Crystallographic Data Centre
#                                CCDC 
#
#######################################################################
#
# If this CIF has been generated from an entry in the Cambridge 
# Structural Database, then it will include bibliographic, chemical, 
# crystal, experimental, refinement or atomic coordinate data resulting 
# from the CCDC's data processing and validation procedures.
#
#######################################################################

data_REGXEH
_chemical_name_common            1-Dimesitylboryl-4-iodobenzene
_chemical_formula_moiety         'C24 H26 B1 I1'
_chemical_name_systematic        (4-Iodophenyl)dimesitylborane
_symmetry_cell_setting           triclinic
_symmetry_space_group_name_H-M   'P -1'
_symmetry_Int_Tables_number      2
_space_group_name_Hall           '-P 1'
loop_
_symmetry_equiv_pos_site_id
_symmetry_equiv_pos_as_xyz
1 x,y,z
2 -x,-y,-z
_cell_length_a                   8.3985(7)
_cell_length_b                   11.071(1)
_cell_length_c                   11.619(1)
_cell_angle_alpha                82.86(1)
_cell_angle_beta                 78.90(1)
_cell_angle_gamma                86.87(1)
_cell_volume                     1051.38
_exptl_crystal_colour            colorless
_chemical_melting_point          '444 K'
_cell_formula_units_Z            2
_exptl_crystal_recrystallization_method hexane
loop_
_atom_site_label
_atom_site_type_symbol
_atom_site_fract_x
_atom_site_fract_y
_atom_site_fract_z
I1 I -0.319753(12) 0.128629(9) 0.718834(8)
B1 B 0.20821(17) 0.29276(13) 0.25036(12)
C1 C 0.07193(15) 0.25680(12) 0.36023(11)
C2 C -0.01831(15) 0.15158(12) 0.36994(12)
H1 H -0.0022 0.1044 0.3055
C3 C -0.13037(16) 0.11464(12) 0.47092(12)
H2 H -0.1883 0.0422 0.4762
C4 C -0.15639(16) 0.18512(12) 0.56430(11)
C5 C -0.07349(17) 0.29228(13) 0.55751(12)
H3 H -0.0944 0.3412 0.6207
C6 C 0.04049(16) 0.32613(12) 0.45631(12)
H4 H 0.0988 0.3982 0.4519
C7 C 0.19885(15) 0.24797(12) 0.12832(11)
C8 C 0.33413(16) 0.18734(12) 0.06429(11)
C9 C 0.31692(17) 0.13194(12) -0.03397(12)
H5 H 0.4075 0.0885 -0.0737
C10 C 0.17185(19) 0.13867(13) -0.07587(12)
C11 C 0.04245(18) 0.20482(14) -0.01790(13)
H6 H -0.0559 0.2137 -0.0475
C12 C 0.05313(17) 0.25842(13) 0.08294(12)
C13 C 0.49947(16) 0.17883(13) 0.09879(13)
H7 H 0.5761(11) 0.1379(12) 0.0416(10)
H8 H 0.4924(4) 0.1332(12) 0.1763(11)
H9 H 0.5358(9) 0.2601(10) 0.1006(12)
C14 C 0.1569(2) 0.07639(17) -0.18171(15)
H10 H 0.128(3) 0.0001(16) -0.1579(5)
H11 H 0.251(2) 0.0769(18) -0.2314(13)
H12 H 0.082(2) 0.1154(14) -0.2177(13)
C15 C -0.09228(19) 0.33272(18) 0.13604(15)
H13 H -0.1288(16) 0.3792(16) 0.0801(10)
H14 H -0.0640(8) 0.3777(16) 0.1847(16)
H15 H -0.1680(16) 0.2842(9) 0.1740(16)
C16 C 0.35173(16) 0.36848(11) 0.27011(11)
C17 C 0.44797(16) 0.32550(12) 0.35525(12)
C18 C 0.57344(17) 0.39571(13) 0.37106(13)
H16 H 0.6367 0.3662 0.4288
C19 C 0.60837(17) 0.50749(13) 0.30481(13)
C20 C 0.51462(17) 0.54952(12) 0.22056(13)
H17 H 0.5378 0.6255 0.1740
C21 C 0.38779(16) 0.48218(12) 0.20291(12)
C22 C 0.42532(19) 0.20136(13) 0.42628(14)
H18 H 0.5168(19) 0.1768(9) 0.4518(16)
H19 H 0.402(2) 0.1482(11) 0.3807(10)
H20 H 0.344(2) 0.2057(4) 0.4881(15)
C23 C 0.7450(2) 0.58189(16) 0.32300(17)
H21 H 0.7042(8) 0.6371(15) 0.3783(15)
H22 H 0.7916(17) 0.6256(15) 0.2503(13)
H23 H 0.8249(17) 0.5295(9) 0.3517(16)
C24 C 0.2897(2) 0.53430(14) 0.11075(14)
H24 H 0.3151(16) 0.6151(13) 0.0865(12)
H25 H 0.1798(17) 0.5294(14) 0.1426(7)
H26 H 0.3144(16) 0.4901(12) 0.0465(12)
loop_
_geom_bond_atom_site_label_1
_geom_bond_atom_site_label_2
_geom_bond_site_symmetry_1
_geom_bond_site_symmetry_2
I1 C4 1_555 1_555
B1 C1 1_555 1_555
C1 C2 1_555 1_555
C2 H1 1_555 1_555
C3 C2 1_555 1_555
H2 C3 1_555 1_555
C4 C3 1_555 1_555
C5 C4 1_555 1_555
H3 C5 1_555 1_555
C6 C1 1_555 1_555
H4 C6 1_555 1_555
C7 B1 1_555 1_555
C8 C7 1_555 1_555
C9 C8 1_555 1_555
H5 C9 1_555 1_555
C10 C9 1_555 1_555
C11 C10 1_555 1_555
H6 C11 1_555 1_555
C12 C7 1_555 1_555
C13 C8 1_555 1_555
H7 C13 1_555 1_555
H8 C13 1_555 1_555
H9 C13 1_555 1_555
C14 C10 1_555 1_555
H10 C14 1_555 1_555
H11 C14 1_555 1_555
H12 C14 1_555 1_555
C15 C12 1_555 1_555
H13 C15 1_555 1_555
H14 C15 1_555 1_555
H15 C15 1_555 1_555
C16 B1 1_555 1_555
C17 C16 1_555 1_555
C18 C17 1_555 1_555
H16 C18 1_555 1_555
C19 C18 1_555 1_555
C20 C19 1_555 1_555
H17 C20 1_555 1_555
C21 C16 1_555 1_555
C22 C17 1_555 1_555
H18 C22 1_555 1_555
H19 C22 1_555 1_555
H20 C22 1_555 1_555
C23 C19 1_555 1_555
H21 C23 1_555 1_555
H22 C23 1_555 1_555
H23 C23 1_555 1_555
C24 C21 1_555 1_555
H24 C24 1_555 1_555
H25 C24 1_555 1_555
H26 C24 1_555 1_555
C5 C6 1_555 1_555
C11 C12 1_555 1_555
C20 C21 1_555 1_555

#END
