
#######################################################################
#
#                 Cambridge Crystallographic Data Centre
#                                CCDC 
#
#######################################################################
#
# If this CIF has been generated from an entry in the Cambridge 
# Structural Database, then it will include bibliographic, chemical, 
# crystal, experimental, refinement or atomic coordinate data resulting 
# from the CCDC's data processing and validation procedures.
#
#######################################################################

data_REGXUX
_chemical_formula_moiety         'C26 H30 B1 N1'
_chemical_name_systematic        (E)-(2-(4-aminophenyl)ethenyl)dimesitylborane
_symmetry_cell_setting           monoclinic
_symmetry_space_group_name_H-M   'P 21/n'
_symmetry_Int_Tables_number      14
_space_group_name_Hall           '-P 2yn'
loop_
_symmetry_equiv_pos_site_id
_symmetry_equiv_pos_as_xyz
1 x,y,z
2 1/2-x,1/2+y,1/2-z
3 -x,-y,-z
4 1/2+x,1/2-y,1/2+z
_cell_length_a                   8.001(1)
_cell_length_b                   13.642(1)
_cell_length_c                   19.810(1)
_cell_angle_alpha                90
_cell_angle_beta                 95.26(1)
_cell_angle_gamma                90
_cell_volume                     2153.15
_exptl_crystal_colour            brown
_exptl_crystal_description       prism
_chemical_melting_point          '432 K'
_cell_formula_units_Z            4
_exptl_crystal_recrystallization_method hexane
loop_
_atom_site_label
_atom_site_type_symbol
_atom_site_fract_x
_atom_site_fract_y
_atom_site_fract_z
N1 N -0.0141(3) -0.16231(14) 0.25189(10)
H1 H -0.092(3) -0.2071(19) 0.2252(13)
H2 H -0.029(3) -0.1502(17) 0.2964(14)
B1 B 0.3470(3) 0.23867(15) 0.00178(9)
C1 C 0.1790(2) 0.06526(13) 0.13843(8)
C2 C 0.0862(2) -0.01196(14) 0.10749(9)
H3 H 0.074(3) -0.0160(15) 0.0569(11)
C3 C 0.0199(3) -0.08521(14) 0.14417(9)
H4 H -0.049(3) -0.1366(15) 0.1207(10)
C4 C 0.0441(2) -0.08545(14) 0.21523(9)
C5 C 0.1332(2) -0.00787(14) 0.24733(9)
H5 H 0.148(2) -0.0004(13) 0.2994(10)
C6 C 0.1989(2) 0.06552(14) 0.20971(9)
H6 H 0.257(2) 0.1249(13) 0.2303(8)
C7 C 0.2599(2) 0.14048(13) 0.10118(9)
H7 H 0.342(2) 0.1801(13) 0.1298(8)
C8 C 0.2376(2) 0.16259(14) 0.03432(9)
H8 H 0.156(3) 0.1224(14) 0.0053(10)
C9 C 0.2940(2) 0.28315(13) -0.07127(8)
C10 C 0.4025(2) 0.28054(13) -0.12392(8)
C11 C 0.3548(2) 0.32398(14) -0.18642(9)
H9 H 0.427(3) 0.3178(15) -0.2234(11)
C12 C 0.2024(2) 0.37151(13) -0.19986(8)
C13 C 0.0935(2) 0.37196(14) -0.14894(9)
H10 H -0.018(3) 0.4058(14) -0.1576(9)
C14 C 0.1362(2) 0.32912(13) -0.08562(8)
C15 C 0.5701(3) 0.2284(2) -0.11570(11)
H11 H 0.642(3) 0.2462(18) -0.0742(14)
H12 H 0.637(3) 0.2410(18) -0.1557(13)
H13 H 0.551(4) 0.154(2) -0.1142(14)
C16 C 0.1574(3) 0.42050(18) -0.26711(10)
H14 H 0.250(4) 0.450(2) -0.2840(15)
H15 H 0.126(4) 0.372(2) -0.3010(15)
H16 H 0.060(4) 0.464(2) -0.2671(13)
C17 C 0.0106(3) 0.33663(19) -0.03360(11)
H17 H 0.052(4) 0.351(2) 0.0092(17)
H18 H -0.085(4) 0.376(2) -0.0505(14)
H19 H -0.044(4) 0.272(2) -0.0273(15)
C18 C 0.5149(2) 0.27107(13) 0.04445(8)
C19 C 0.6461(2) 0.20379(13) 0.06129(8)
C20 C 0.7924(2) 0.23399(14) 0.09912(9)
H20 H 0.878(2) 0.1860(14) 0.1111(9)
C21 C 0.8145(2) 0.32921(14) 0.12182(8)
C22 C 0.6846(2) 0.39557(14) 0.10595(8)
H21 H 0.688(2) 0.4610(14) 0.1219(9)
C23 C 0.5363(2) 0.36826(13) 0.06838(8)
C24 C 0.6361(3) 0.09794(16) 0.03950(12)
H22 H 0.740(5) 0.076(3) 0.0291(18)
H23 H 0.556(3) 0.0862(16) 0.0013(12)
H24 H 0.598(4) 0.056(2) 0.0742(15)
C25 C 0.9749(3) 0.35844(18) 0.16303(12)
H25 H 1.015(3) 0.420(2) 0.1475(13)
H26 H 1.069(3) 0.308(2) 0.1628(12)
H27 H 0.949(4) 0.371(2) 0.2081(15)
C26 C 0.3950(2) 0.44188(15) 0.05728(10)
H28 H 0.349(2) 0.4456(14) 0.0091(11)
H29 H 0.426(3) 0.5083(16) 0.0719(10)
H30 H 0.299(3) 0.4216(14) 0.0828(10)
loop_
_geom_bond_atom_site_label_1
_geom_bond_atom_site_label_2
_geom_bond_site_symmetry_1
_geom_bond_site_symmetry_2
N1 H1 1_555 1_555
H2 N1 1_555 1_555
B1 C8 1_555 1_555
C1 C2 1_555 1_555
C2 H3 1_555 1_555
C3 C2 1_555 1_555
H4 C3 1_555 1_555
C4 N1 1_555 1_555
C5 C4 1_555 1_555
H5 C5 1_555 1_555
C6 C1 1_555 1_555
H6 C6 1_555 1_555
C7 C1 1_555 1_555
H7 C7 1_555 1_555
C8 C7 1_555 1_555
H8 C8 1_555 1_555
C9 B1 1_555 1_555
C10 C9 1_555 1_555
C11 C10 1_555 1_555
H9 C11 1_555 1_555
C12 C11 1_555 1_555
C13 C12 1_555 1_555
H10 C13 1_555 1_555
C14 C9 1_555 1_555
C15 C10 1_555 1_555
H11 C15 1_555 1_555
H12 C15 1_555 1_555
H13 C15 1_555 1_555
C16 C12 1_555 1_555
H14 C16 1_555 1_555
H15 C16 1_555 1_555
H16 C16 1_555 1_555
C17 C14 1_555 1_555
H17 C17 1_555 1_555
H18 C17 1_555 1_555
H19 C17 1_555 1_555
C18 B1 1_555 1_555
C19 C18 1_555 1_555
C20 C19 1_555 1_555
H20 C20 1_555 1_555
C21 C20 1_555 1_555
C22 C21 1_555 1_555
H21 C22 1_555 1_555
C23 C18 1_555 1_555
C24 C19 1_555 1_555
H22 C24 1_555 1_555
H23 C24 1_555 1_555
H24 C24 1_555 1_555
C25 C21 1_555 1_555
H25 C25 1_555 1_555
H26 C25 1_555 1_555
H27 C25 1_555 1_555
C26 C23 1_555 1_555
H28 C26 1_555 1_555
H29 C26 1_555 1_555
H30 C26 1_555 1_555
C3 C4 1_555 1_555
C5 C6 1_555 1_555
C13 C14 1_555 1_555
C22 C23 1_555 1_555

#END
