
#######################################################################
#
#                 Cambridge Crystallographic Data Centre
#                                CCDC 
#
#######################################################################
#
# If this CIF has been generated from an entry in the Cambridge 
# Structural Database, then it will include bibliographic, chemical, 
# crystal, experimental, refinement or atomic coordinate data resulting 
# from the CCDC's data processing and validation procedures.
#
#######################################################################

data_REGXOT
_chemical_formula_moiety         'C28 H24 Br1 N3 O4 S1,C4 H8 O2'
_chemical_name_systematic        
'methyl [1-(5-bromo-2-{[(4-methylphenyl)sulfonyl]amino}phenyl)-2-methyl-3H-benzo[e]indol-3-yl]carbamate ethyl acetate solvate'
_symmetry_cell_setting           monoclinic
_symmetry_space_group_name_H-M   'P 21'
_symmetry_Int_Tables_number      4
_space_group_name_Hall           'P 2yb'
loop_
_symmetry_equiv_pos_site_id
_symmetry_equiv_pos_as_xyz
1 x,y,z
2 -x,1/2+y,-z
_cell_length_a                   9.0658(3)
_cell_length_b                   29.8911(9)
_cell_length_c                   11.4901(3)
_cell_angle_alpha                90
_cell_angle_beta                 90.6340(10)
_cell_angle_gamma                90
_cell_volume                     3113.47
_exptl_crystal_colour            colorless
_exptl_crystal_description       prism
_cell_formula_units_Z            4
loop_
_atom_site_label
_atom_site_type_symbol
_atom_site_fract_x
_atom_site_fract_y
_atom_site_fract_z
Br1 Br 1.83329(15) 0.27360(4) 1.01389(11)
S1 S 1.19244(18) 0.34459(7) 0.7022(2)
O1 O 1.4440(4) 0.48933(13) 0.5147(3)
O2 O 1.6419(4) 0.52126(13) 0.4279(3)
O3 O 1.1542(7) 0.3001(2) 0.7336(7)
O4 O 1.0808(6) 0.3771(2) 0.6805(7)
N1 N 1.6689(5) 0.49344(16) 0.6049(4)
H1 H 1.7598 0.5037 0.6027
N2 N 1.6194(5) 0.46974(16) 0.6997(4)
N3 N 1.2914(6) 0.36588(19) 0.8098(6)
H2 H 1.2330 0.3741 0.8666
C1 C 1.5368(5) 0.48794(19) 0.7881(4)
C2 C 1.4931(6) 0.53240(19) 0.8038(5)
H3 H 1.5191 0.5552 0.7501
C3 C 1.4108(6) 0.5416(2) 0.9007(5)
H4 H 1.3775 0.5713 0.9132
C4 C 1.3741(6) 0.5078(2) 0.9830(5)
C5 C 1.2908(6) 0.5182(2) 1.0839(5)
H5 H 1.2576 0.5480 1.0952
C6 C 1.2578(7) 0.4865(3) 1.1644(5)
H6 H 1.2013 0.4943 1.2306
C7 C 1.3067(6) 0.4426(2) 1.1501(5)
H7 H 1.2842 0.4206 1.2070
C8 C 1.3880(6) 0.4307(2) 1.0529(5)
H8 H 1.4212 0.4008 1.0440
C9 C 1.4211(6) 0.4627(2) 0.9679(4)
C10 C 1.5027(5) 0.45298(18) 0.8634(4)
C11 C 1.5647(6) 0.41281(18) 0.8159(4)
C12 C 1.6346(5) 0.42396(18) 0.7146(4)
C13 C 1.7177(6) 0.3963(2) 0.6295(4)
H9 H 1.6943 0.4063 0.5502
H10 H 1.6896 0.3648 0.6380
H11 H 1.8238 0.3995 0.6443
C14 C 1.5730(5) 0.50045(18) 0.5148(4)
C15 C 1.5469(6) 0.5314(2) 0.3290(5)
H12 H 1.6032 0.5478 0.2704
H13 H 1.4638 0.5498 0.3546
H14 H 1.5096 0.5035 0.2951
C16 C 1.5525(6) 0.36657(19) 0.8613(5)
C17 C 1.6770(7) 0.3455(2) 0.9094(5)
H15 H 1.7693 0.3605 0.9128
C18 C 1.6632(10) 0.3024(3) 0.9519(6)
C19 C 1.5307(11) 0.2804(3) 0.9496(7)
H16 H 1.5242 0.2509 0.9800
C20 C 1.4073(10) 0.3006(3) 0.9037(8)
H17 H 1.3151 0.2854 0.9039
C21 C 1.4178(7) 0.3433(2) 0.8569(6)
C22 C 1.3647(8) 0.3014(2) 0.5442(7)
H18 H 1.3443 0.2747 0.5859
C23 C 1.4515(10) 0.3000(3) 0.4469(7)
H19 H 1.4908 0.2722 0.4219
C24 C 1.4831(10) 0.3395(3) 0.3831(7)
C25 C 1.5763(13) 0.3388(4) 0.2757(8)
H20 H 1.6714 0.3531 0.2926
H21 H 1.5256 0.3551 0.2129
H22 H 1.5927 0.3078 0.2517
C26 C 1.4261(10) 0.3792(3) 0.4230(7)
H23 H 1.4470 0.4061 0.3823
C27 C 1.3398(9) 0.3809(2) 0.5204(8)
H24 H 1.3021 0.4088 0.5462
C28 C 1.3072(7) 0.3419(2) 0.5815(7)
Br2 Br 1.35084(9) 0.72534(3) 0.29401(13)
S2 S 0.68890(14) 0.64481(5) 0.50997(12)
O5 O 1.1421(4) 0.46355(13) 0.7962(3)
O6 O 0.9460(4) 0.49671(13) 0.7100(3)
O7 O 0.5745(4) 0.61267(16) 0.5270(4)
O8 O 0.6540(5) 0.69022(15) 0.4851(4)
N4 N 1.1688(5) 0.49337(16) 0.6222(4)
H25 H 1.2590 0.4825 0.6239
N5 N 1.1195(5) 0.51889(15) 0.5295(3)
N6 N 0.7852(5) 0.62473(18) 0.4005(4)
C29 C 1.0366(5) 0.50223(18) 0.4369(4)
C30 C 0.9938(6) 0.45811(19) 0.4155(5)
H26 H 1.0201 0.4346 0.4675
C31 C 0.9120(6) 0.4499(2) 0.3160(5)
H27 H 0.8785 0.4204 0.3003
C32 C 0.8767(6) 0.4850(2) 0.2364(4)
C33 C 0.7965(6) 0.4760(2) 0.1327(5)
H28 H 0.7638 0.4464 0.1177
C34 C 0.7648(6) 0.5088(2) 0.0537(5)
H29 H 0.7108 0.5019 -0.0153
C35 C 0.8119(6) 0.5526(2) 0.0747(5)
H30 H 0.7909 0.5754 0.0192
C36 C 0.8886(6) 0.5629(2) 0.1751(5)
H31 H 0.9195 0.5929 0.1885
C37 C 0.9218(5) 0.5299(2) 0.2579(4)
C38 C 1.0014(5) 0.53859(18) 0.3658(4)
C39 C 1.0633(5) 0.57809(18) 0.4191(4)
C40 C 1.1348(5) 0.56433(17) 0.5199(4)
C41 C 1.2181(6) 0.5908(2) 0.6090(5)
H32 H 1.2037 0.5776 0.6861
H33 H 1.1818 0.6217 0.6090
H34 H 1.3233 0.5906 0.5905
C42 C 1.0551(6) 0.62483(19) 0.3795(5)
C43 C 1.1830(6) 0.6482(2) 0.3550(6)
H35 H 1.2766 0.6344 0.3655
C44 C 1.1736(7) 0.6919(3) 0.3151(7)
C45 C 1.0419(8) 0.7130(2) 0.2971(7)
H36 H 1.0387 0.7427 0.2676
C46 C 0.9130(7) 0.6903(2) 0.3226(6)
H37 H 0.8201 0.7042 0.3090
C47 C 0.9193(6) 0.6472(2) 0.3683(5)
C48 C 0.8052(6) 0.64432(19) 0.6342(5)
C49 C 0.8306(7) 0.6043(2) 0.6922(5)
H38 H 0.7885 0.5773 0.6639
C50 C 0.9187(7) 0.6043(2) 0.7923(5)
H39 H 0.9363 0.5768 0.8319
C51 C 0.9808(7) 0.6432(2) 0.8352(5)
C52 C 1.0716(8) 0.6428(3) 0.9448(5)
H40 H 1.0177 0.6581 1.0067
H41 H 1.1651 0.6583 0.9314
H42 H 1.0914 0.6119 0.9681
C53 C 0.9565(8) 0.6831(2) 0.7732(6)
H43 H 1.0003 0.7101 0.8005
C54 C 0.8697(7) 0.6838(2) 0.6729(6)
H44 H 0.8546 0.7110 0.6313
C55 C 1.0741(5) 0.48555(17) 0.7104(4)
C56 C 1.0470(6) 0.4520(2) 0.8929(5)
H45 H 0.9618 0.4350 0.8638
H46 H 1.0127 0.4794 0.9308
H47 H 1.1023 0.4337 0.9493
H48 H 0.794(6) 0.598(2) 0.406(4)
O9 O 0.7060(7) 0.6725(3) 1.0513(7)
O10 O 0.4907(7) 0.6613(2) 0.9549(5)
C57 C 0.5132(13) 0.6318(4) 1.1425(9)
H49 H 0.4154 0.6444 1.1575
H50 H 0.5759 0.6353 1.2118
H51 H 0.5035 0.6000 1.1236
C58 C 0.5810(10) 0.6557(3) 1.0429(9)
C59 C 0.5507(11) 0.6814(3) 0.8598(10)
H52 H 0.6348 0.6636 0.8309
H53 H 0.5868 0.7117 0.8803
C60 C 0.4326(12) 0.6844(5) 0.7686(11)
H54 H 0.4771 0.6908 0.6931
H55 H 0.3637 0.7084 0.7885
H56 H 0.3792 0.6559 0.7644
O11 O 0.9635(9) 0.7962(3) 0.6790(8)
C61 C 1.115(2) 0.7764(6) 0.5304(19)
H57 H 1.1570 0.7529 0.5799
H58 H 1.1925 0.7896 0.4829
H59 H 1.0385 0.7634 0.4794
O12 O 1.0865(14) 0.8492(4) 0.5922(10)
C62 C 1.0520(14) 0.8094(4) 0.6000(12)
C63 C 0.9057(13) 0.8277(4) 0.7584(12)
H60 H 0.8548 0.8522 0.7161
H61 H 0.9859 0.8408 0.8068
C64 C 0.8034(13) 0.8036(5) 0.8299(10)
H62 H 0.7225 0.7921 0.7813
H63 H 0.7638 0.8238 0.8892
H64 H 0.8544 0.7786 0.8680
loop_
_geom_bond_atom_site_label_1
_geom_bond_atom_site_label_2
_geom_bond_site_symmetry_1
_geom_bond_site_symmetry_2
Br1 C18 1_555 1_555
S1 O3 1_555 1_555
O1 C14 1_555 1_555
O2 C14 1_555 1_555
O4 S1 1_555 1_555
N1 H1 1_555 1_555
N2 N1 1_555 1_555
N3 S1 1_555 1_555
H2 N3 1_555 1_555
C1 N2 1_555 1_555
C2 C1 1_555 1_555
H3 C2 1_555 1_555
C3 C2 1_555 1_555
H4 C3 1_555 1_555
C4 C3 1_555 1_555
C5 C4 1_555 1_555
H5 C5 1_555 1_555
C6 C5 1_555 1_555
H6 C6 1_555 1_555
C7 C6 1_555 1_555
H7 C7 1_555 1_555
C8 C7 1_555 1_555
H8 C8 1_555 1_555
C9 C4 1_555 1_555
C10 C1 1_555 1_555
C11 C10 1_555 1_555
C12 N2 1_555 1_555
C13 C12 1_555 1_555
H9 C13 1_555 1_555
H10 C13 1_555 1_555
H11 C13 1_555 1_555
C14 N1 1_555 1_555
C15 O2 1_555 1_555
H12 C15 1_555 1_555
H13 C15 1_555 1_555
H14 C15 1_555 1_555
C16 C11 1_555 1_555
C17 C16 1_555 1_555
H15 C17 1_555 1_555
C18 C17 1_555 1_555
C19 C18 1_555 1_555
H16 C19 1_555 1_555
C20 C19 1_555 1_555
H17 C20 1_555 1_555
C21 N3 1_555 1_555
C22 H18 1_555 1_555
C23 C22 1_555 1_555
H19 C23 1_555 1_555
C24 C23 1_555 1_555
C25 C24 1_555 1_555
H20 C25 1_555 1_555
H21 C25 1_555 1_555
H22 C25 1_555 1_555
C26 C24 1_555 1_555
H23 C26 1_555 1_555
C27 C26 1_555 1_555
H24 C27 1_555 1_555
C28 S1 1_555 1_555
Br2 C44 1_555 1_555
S2 O7 1_555 1_555
O5 C55 1_555 1_555
O6 C55 1_555 1_555
O8 S2 1_555 1_555
N4 H25 1_555 1_555
N5 N4 1_555 1_555
N6 S2 1_555 1_555
C29 N5 1_555 1_555
C30 C29 1_555 1_555
H26 C30 1_555 1_555
C31 C30 1_555 1_555
H27 C31 1_555 1_555
C32 C31 1_555 1_555
C33 C32 1_555 1_555
H28 C33 1_555 1_555
C34 C33 1_555 1_555
H29 C34 1_555 1_555
C35 C34 1_555 1_555
H30 C35 1_555 1_555
C36 C35 1_555 1_555
H31 C36 1_555 1_555
C37 C32 1_555 1_555
C38 C29 1_555 1_555
C39 C38 1_555 1_555
C40 N5 1_555 1_555
C41 C40 1_555 1_555
H32 C41 1_555 1_555
H33 C41 1_555 1_555
H34 C41 1_555 1_555
C42 C39 1_555 1_555
C43 C42 1_555 1_555
H35 C43 1_555 1_555
C44 C43 1_555 1_555
C45 C44 1_555 1_555
H36 C45 1_555 1_555
C46 C45 1_555 1_555
H37 C46 1_555 1_555
C47 N6 1_555 1_555
C48 S2 1_555 1_555
C49 C48 1_555 1_555
H38 C49 1_555 1_555
C50 C49 1_555 1_555
H39 C50 1_555 1_555
C51 C50 1_555 1_555
C52 C51 1_555 1_555
H40 C52 1_555 1_555
H41 C52 1_555 1_555
H42 C52 1_555 1_555
C53 C51 1_555 1_555
H43 C53 1_555 1_555
C54 C48 1_555 1_555
H44 C54 1_555 1_555
C55 N4 1_555 1_555
C56 O5 1_555 1_555
H45 C56 1_555 1_555
H46 C56 1_555 1_555
H47 C56 1_555 1_555
H48 N6 1_555 1_555
O9 C58 1_555 1_555
O10 C58 1_555 1_555
C57 H49 1_555 1_555
H50 C57 1_555 1_555
H51 C57 1_555 1_555
C58 C57 1_555 1_555
C59 O10 1_555 1_555
H52 C59 1_555 1_555
H53 C59 1_555 1_555
C60 C59 1_555 1_555
H54 C60 1_555 1_555
H55 C60 1_555 1_555
H56 C60 1_555 1_555
O11 C62 1_555 1_555
C61 H57 1_555 1_555
H58 C61 1_555 1_555
H59 C61 1_555 1_555
O12 C62 1_555 1_555
C62 C61 1_555 1_555
C63 O11 1_555 1_555
H60 C63 1_555 1_555
H61 C63 1_555 1_555
C64 C63 1_555 1_555
H62 C64 1_555 1_555
H63 C64 1_555 1_555
H64 C64 1_555 1_555
C8 C9 1_555 1_555
C9 C10 1_555 1_555
C11 C12 1_555 1_555
C16 C21 1_555 1_555
C20 C21 1_555 1_555
C22 C28 1_555 1_555
C27 C28 1_555 1_555
C36 C37 1_555 1_555
C37 C38 1_555 1_555
C39 C40 1_555 1_555
C42 C47 1_555 1_555
C46 C47 1_555 1_555
C53 C54 1_555 1_555

#END
