
#######################################################################
#
#                 Cambridge Crystallographic Data Centre
#                                CCDC 
#
#######################################################################
#
# If this CIF has been generated from an entry in the Cambridge 
# Structural Database, then it will include bibliographic, chemical, 
# crystal, experimental, refinement or atomic coordinate data resulting 
# from the CCDC's data processing and validation procedures.
#
#######################################################################

data_REGXUZ
_chemical_formula_moiety         'C27 H22 Br1 N3 O1'
_chemical_name_systematic        
N-(11-bromo-7a,12b-dimethyl-8,12b-dihydrobenzo[e]indolo[2,3-b]indol-7(7aH)-yl)benzamide
_symmetry_cell_setting           tetragonal
_symmetry_space_group_name_H-M   'P 43 21 2'
_symmetry_Int_Tables_number      96
_space_group_name_Hall           'P 4nw 2abw'
loop_
_symmetry_equiv_pos_site_id
_symmetry_equiv_pos_as_xyz
1 x,y,z
2 -x,-y,1/2+z
3 1/2-y,1/2+x,3/4+z
4 1/2+y,1/2-x,1/4+z
5 1/2-x,1/2+y,3/4-z
6 1/2+x,1/2-y,1/4-z
7 y,x,-z
8 -y,-x,1/2-z
_cell_length_a                   17.1804(5)
_cell_length_b                   17.1804(5)
_cell_length_c                   17.3122(6)
_cell_angle_alpha                90
_cell_angle_beta                 90
_cell_angle_gamma                90
_cell_volume                     5109.98
_exptl_crystal_colour            colorless
_exptl_crystal_description       block
_cell_formula_units_Z            8
loop_
_atom_site_label
_atom_site_type_symbol
_atom_site_fract_x
_atom_site_fract_y
_atom_site_fract_z
Br1 Br 0.61536(6) 0.41788(7) 0.45451(6)
O1 O 0.3833(2) 0.0106(3) 0.44271(19)
N1 N 0.4426(2) -0.0127(2) 0.3292(2)
H1 H 0.4499 -0.0443 0.2913
N2 N 0.4772(2) 0.0608(2) 0.3289(2)
N3 N 0.3889(2) 0.1662(3) 0.3630(2)
H2 H 0.3426 0.1560 0.3790
C1 C 0.4384(3) 0.2229(3) 0.3937(3)
C2 C 0.4289(4) 0.2657(4) 0.4608(3)
H3 H 0.3872 0.2558 0.4936
C3 C 0.4819(4) 0.3231(4) 0.4784(3)
H4 H 0.4763 0.3523 0.5233
C4 C 0.5424(4) 0.3369(4) 0.4296(4)
C5 C 0.5530(3) 0.2957(3) 0.3605(3)
H5 H 0.5940 0.3071 0.3272
C6 C 0.5007(3) 0.2382(3) 0.3438(3)
C7 C 0.4932(3) 0.1874(3) 0.2726(2)
C8 C 0.4661(4) 0.2385(4) 0.2049(3)
H6 H 0.5035 0.2791 0.1961
H7 H 0.4165 0.2612 0.2170
H8 H 0.4614 0.2072 0.1592
C9 C 0.4282(3) 0.1273(3) 0.2996(3)
C10 C 0.3720(4) 0.1010(4) 0.2386(4)
H9 H 0.3994 0.0723 0.1996
H10 H 0.3475 0.1456 0.2157
H11 H 0.3330 0.0683 0.2616
C11 C 0.5626(3) 0.1343(3) 0.2576(2)
C12 C 0.6360(3) 0.1473(3) 0.2195(3)
C13 C 0.6576(5) 0.2180(4) 0.1826(4)
H12 H 0.6236 0.2600 0.1837
C14 C 0.7257(7) 0.2250(5) 0.1463(6)
H13 H 0.7372 0.2710 0.1204
C15 C 0.7801(5) 0.1645(6) 0.1463(6)
H14 H 0.8279 0.1715 0.1223
C16 C 0.7637(4) 0.0955(4) 0.1812(5)
H15 H 0.8000 0.0553 0.1812
C17 C 0.6897(3) 0.0858(4) 0.2180(3)
C18 C 0.6728(3) 0.0134(3) 0.2536(3)
H16 H 0.7095 -0.0264 0.2522
C19 C 0.6034(3) 0.0015(3) 0.2899(3)
H17 H 0.5919 -0.0459 0.3133
C20 C 0.5497(3) 0.0632(3) 0.2908(2)
C21 C 0.3979(3) -0.0337(3) 0.3891(2)
C22 C 0.3640(3) -0.1133(3) 0.3842(3)
C23 C 0.3968(4) -0.1729(4) 0.3410(3)
H18 H 0.4421 -0.1635 0.3131
C24 C 0.3631(5) -0.2464(4) 0.3390(4)
H19 H 0.3856 -0.2855 0.3092
C25 C 0.2970(6) -0.2618(6) 0.3804(6)
C26 C 0.2614(6) -0.1998(7) 0.4207(6)
H20 H 0.2134 -0.2072 0.4444
C27 C 0.2970(5) -0.1292(5) 0.4249(5)
H21 H 0.2756 -0.0908 0.4562
loop_
_geom_bond_atom_site_label_1
_geom_bond_atom_site_label_2
_geom_bond_site_symmetry_1
_geom_bond_site_symmetry_2
Br1 C4 1_555 1_555
O1 C21 1_555 1_555
N1 H1 1_555 1_555
N2 N1 1_555 1_555
N3 H2 1_555 1_555
C1 N3 1_555 1_555
C2 C1 1_555 1_555
H3 C2 1_555 1_555
C3 C2 1_555 1_555
H4 C3 1_555 1_555
C4 C3 1_555 1_555
C5 C4 1_555 1_555
H5 C5 1_555 1_555
C6 C1 1_555 1_555
C7 C6 1_555 1_555
C8 C7 1_555 1_555
H6 C8 1_555 1_555
H7 C8 1_555 1_555
H8 C8 1_555 1_555
C9 N2 1_555 1_555
C10 C9 1_555 1_555
H9 C10 1_555 1_555
H10 C10 1_555 1_555
H11 C10 1_555 1_555
C11 C7 1_555 1_555
C12 C11 1_555 1_555
C13 C12 1_555 1_555
H12 C13 1_555 1_555
C14 C13 1_555 1_555
H13 C14 1_555 1_555
C15 C14 1_555 1_555
H14 C15 1_555 1_555
C16 C15 1_555 1_555
H15 C16 1_555 1_555
C17 C12 1_555 1_555
C18 C17 1_555 1_555
H16 C18 1_555 1_555
C19 C18 1_555 1_555
H17 C19 1_555 1_555
C20 N2 1_555 1_555
C21 N1 1_555 1_555
C22 C21 1_555 1_555
C23 C22 1_555 1_555
H18 C23 1_555 1_555
C24 C23 1_555 1_555
H19 C24 1_555 1_555
C25 C24 1_555 1_555
C26 C25 1_555 1_555
H20 C26 1_555 1_555
C27 C22 1_555 1_555
H21 C27 1_555 1_555
N3 C9 1_555 1_555
C5 C6 1_555 1_555
C7 C9 1_555 1_555
C11 C20 1_555 1_555
C16 C17 1_555 1_555
C19 C20 1_555 1_555
C26 C27 1_555 1_555

#END
