
#######################################################################
#
#                 Cambridge Crystallographic Data Centre
#                                CCDC 
#
#######################################################################
#
# If this CIF has been generated from an entry in the Cambridge 
# Structural Database, then it will include bibliographic, chemical, 
# crystal, experimental, refinement or atomic coordinate data resulting 
# from the CCDC's data processing and validation procedures.
#
#######################################################################

data_REGYAG
_chemical_formula_moiety         'C25 H26 Cl1 N3 O2'
_chemical_name_systematic        
'methyl 2-[1-(2-t-butyl-5-chloro-1H-indol-3-yl)-6-methylnaphthalen-2-yl]hydrazine-1-carboxylate unknown solvate'
_symmetry_cell_setting           orthorhombic
_symmetry_space_group_name_H-M   'P 21 21 21'
_symmetry_Int_Tables_number      19
_space_group_name_Hall           'P 2ac 2ab'
loop_
_symmetry_equiv_pos_site_id
_symmetry_equiv_pos_as_xyz
1 x,y,z
2 1/2-x,-y,1/2+z
3 -x,1/2+y,1/2-z
4 1/2+x,1/2-y,-z
_cell_length_a                   9.8892(4)
_cell_length_b                   10.9654(5)
_cell_length_c                   23.0596(9)
_cell_angle_alpha                90
_cell_angle_beta                 90
_cell_angle_gamma                90
_cell_volume                     2500.56
_exptl_crystal_colour            colorless
_exptl_crystal_description       prism
_cell_formula_units_Z            4
loop_
_atom_site_label
_atom_site_type_symbol
_atom_site_fract_x
_atom_site_fract_y
_atom_site_fract_z
Cl1 Cl 0.35255(10) 0.16066(14) 0.58934(3)
O1 O 0.7671(2) -0.02381(19) 0.36736(10)
O2 O 0.5852(2) 0.0615(2) 0.41223(9)
N1 N 0.0401(2) 0.0803(2) 0.37857(10)
H1 H -0.034035 0.039328 0.370478
N2 N 0.4570(2) 0.0942(2) 0.31389(10)
H2 H 0.397941 0.057985 0.335153
N3 N 0.5831(2) 0.0397(2) 0.31673(10)
H3 H 0.619506 0.014217 0.284064
C1 C 0.0970(3) 0.0897(3) 0.43260(13)
C2 C 0.0540(4) 0.0467(5) 0.48634(15)
H4 H -0.028158 0.002519 0.490158
C3 C 0.1340(4) 0.0704(5) 0.53360(15)
H5 H 0.107369 0.042630 0.570922
C4 C 0.2541(4) 0.1349(5) 0.52699(14)
C5 C 0.2969(3) 0.1810(3) 0.47541(13)
H6 H 0.378630 0.226144 0.472535
C6 C 0.2158(3) 0.1595(3) 0.42676(12)
C7 C 0.2258(3) 0.1954(2) 0.36690(12)
C8 C 0.1166(3) 0.1447(2) 0.33855(11)
C9 C 0.0704(3) 0.1465(2) 0.27588(11)
C10 C 0.0718(3) 0.0151(3) 0.25312(13)
H7 H 0.163727 -0.017914 0.255860
H8 H 0.042404 0.014165 0.212541
H9 H 0.010332 -0.035050 0.276412
C11 C 0.1612(3) 0.2258(3) 0.23808(11)
H10 H 0.167800 0.307559 0.255027
H11 H 0.122725 0.231569 0.199018
H12 H 0.251542 0.189324 0.235909
C12 C -0.0756(3) 0.1941(3) 0.27271(12)
H13 H -0.134921 0.140684 0.295362
H14 H -0.105613 0.195111 0.232208
H15 H -0.079371 0.277007 0.288538
C13 C 0.3369(3) 0.2736(2) 0.34484(11)
C14 C 0.3281(3) 0.4039(2) 0.34921(11)
C15 C 0.2145(3) 0.4636(3) 0.37308(13)
H16 H 0.140360 0.416701 0.386764
C16 C 0.2097(4) 0.5879(3) 0.37682(14)
H17 H 0.131982 0.625408 0.393245
C17 C 0.3171(4) 0.6626(3) 0.35692(13)
C18 C 0.3071(5) 0.8005(3) 0.36124(19)
H18 H 0.259046 0.822613 0.396893
H19 H 0.257499 0.832105 0.327644
H20 H 0.398109 0.835720 0.361953
C19 C 0.4273(4) 0.6060(3) 0.33395(13)
H21 H 0.500135 0.654566 0.320260
C20 C 0.4374(3) 0.4777(3) 0.32968(11)
C21 C 0.5520(3) 0.4204(3) 0.30635(12)
H22 H 0.625168 0.469168 0.293131
C22 C 0.5615(3) 0.2962(3) 0.30211(12)
H23 H 0.640169 0.259579 0.286137
C23 C 0.4518(3) 0.2218(2) 0.32192(11)
C24 C 0.6545(3) 0.0227(3) 0.36619(12)
C25 C 0.6548(5) 0.0495(6) 0.46708(16)
H24 H 0.739829 0.095317 0.465715
H25 H 0.674199 -0.036810 0.474465
H26 H 0.597673 0.081671 0.498235
loop_
_geom_bond_atom_site_label_1
_geom_bond_atom_site_label_2
_geom_bond_site_symmetry_1
_geom_bond_site_symmetry_2
Cl1 C4 1_555 1_555
O1 C24 1_555 1_555
O2 C24 1_555 1_555
N1 H1 1_555 1_555
N2 H2 1_555 1_555
N3 N2 1_555 1_555
H3 N3 1_555 1_555
C1 N1 1_555 1_555
C2 C1 1_555 1_555
H4 C2 1_555 1_555
C3 C2 1_555 1_555
H5 C3 1_555 1_555
C4 C3 1_555 1_555
C5 C4 1_555 1_555
H6 C5 1_555 1_555
C6 C1 1_555 1_555
C7 C6 1_555 1_555
C8 N1 1_555 1_555
C9 C8 1_555 1_555
C10 C9 1_555 1_555
H7 C10 1_555 1_555
H8 C10 1_555 1_555
H9 C10 1_555 1_555
C11 C9 1_555 1_555
H10 C11 1_555 1_555
H11 C11 1_555 1_555
H12 C11 1_555 1_555
C12 C9 1_555 1_555
H13 C12 1_555 1_555
H14 C12 1_555 1_555
H15 C12 1_555 1_555
C13 C7 1_555 1_555
C14 C13 1_555 1_555
C15 C14 1_555 1_555
H16 C15 1_555 1_555
C16 C15 1_555 1_555
H17 C16 1_555 1_555
C17 C16 1_555 1_555
C18 C17 1_555 1_555
H18 C18 1_555 1_555
H19 C18 1_555 1_555
H20 C18 1_555 1_555
C19 C17 1_555 1_555
H21 C19 1_555 1_555
C20 C14 1_555 1_555
C21 C20 1_555 1_555
H22 C21 1_555 1_555
C22 C21 1_555 1_555
H23 C22 1_555 1_555
C23 N2 1_555 1_555
C24 N3 1_555 1_555
C25 O2 1_555 1_555
H24 C25 1_555 1_555
H25 C25 1_555 1_555
H26 C25 1_555 1_555
C5 C6 1_555 1_555
C7 C8 1_555 1_555
C13 C23 1_555 1_555
C19 C20 1_555 1_555
C22 C23 1_555 1_555

#END
