
#######################################################################
#
#                 Cambridge Crystallographic Data Centre
#                                CCDC 
#
#######################################################################
#
# If this CIF has been generated from an entry in the Cambridge 
# Structural Database, then it will include bibliographic, chemical, 
# crystal, experimental, refinement or atomic coordinate data resulting 
# from the CCDC's data processing and validation procedures.
#
#######################################################################

data_REGYAF
_chemical_formula_moiety         'C40 H32 Cl2 N4 O2,0.5(C2 H6 O1)'
_chemical_name_systematic        
'2,5-bis(4-chlorophenyl)-1,3a-bis(pyridin-2-yl)-3-(pyridin-2-ylcarbonyl)-2,3,3a,4,5,7,8,9-octahydropyrrolo[1,2-a]quinolin-6(1H)-one ethanol solvate ethanol'
_symmetry_cell_setting           triclinic
_symmetry_space_group_name_H-M   'P -1'
_symmetry_Int_Tables_number      2
_space_group_name_Hall           '-P 1'
loop_
_symmetry_equiv_pos_site_id
_symmetry_equiv_pos_as_xyz
1 x,y,z
2 -x,-y,-z
_cell_length_a                   10.186(3)
_cell_length_b                   11.139(3)
_cell_length_c                   31.748(8)
_cell_angle_alpha                94.892(3)
_cell_angle_beta                 90.356(4)
_cell_angle_gamma                94.067(4)
_cell_volume                     3579.75
_exptl_crystal_description       block
_cell_formula_units_Z            4
loop_
_atom_site_label
_atom_site_type_symbol
_atom_site_fract_x
_atom_site_fract_y
_atom_site_fract_z
C1 C 1.0349(3) 0.6226(3) 0.19992(11)
C2 C 0.9970(4) 0.5131(4) 0.22242(12)
H1 H 1.0596 0.4527 0.2160
H2 H 0.9108 0.4792 0.2125
C3 C 0.9938(4) 0.5434(4) 0.26958(13)
H3 H 0.9240 0.5961 0.2766
H4 H 0.9770 0.4701 0.2838
C4 C 1.1248(4) 0.6052(4) 0.28387(13)
H5 H 1.1236 0.6260 0.3142
H6 H 1.1934 0.5503 0.2780
C5 C 1.1549(4) 0.7176(4) 0.26180(12)
C6 C 1.0945(3) 0.7246(3) 0.22100(11)
C7 C 1.1054(3) 0.8435(3) 0.20023(11)
H7 H 1.1928 0.8530 0.1877
C8 C 1.0023(3) 0.8341(3) 0.16490(10)
H8 H 0.9150 0.8272 0.1769
H9 H 1.0099 0.9068 0.1501
C9 C 1.0204(3) 0.7247(3) 0.13394(11)
C10 C 0.9064(3) 0.6978(3) 0.10088(10)
H10 H 0.8239 0.7179 0.1146
C11 C 0.9032(3) 0.5601(3) 0.09151(11)
H11 H 0.9796 0.5415 0.0741
C12 C 0.9247(3) 0.5152(3) 0.13490(11)
H12 H 0.8398 0.5075 0.1492
C13 C 1.0871(4) 0.9528(3) 0.23061(11)
C14 C 1.1709(4) 1.0553(3) 0.22856(13)
H13 H 1.2360 1.0572 0.2082
C15 C 1.1576(5) 1.1565(4) 0.25732(15)
H14 H 1.2131 1.2260 0.2559
C16 C 1.0635(5) 1.1521(4) 0.28706(14)
C17 C 0.9742(5) 1.0543(4) 0.28811(14)
H15 H 0.9065 1.0549 0.3076
C18 C 0.9868(4) 0.9550(4) 0.25970(13)
H16 H 0.9265 0.8884 0.2601
C19 C 0.9190(4) 0.7623(3) 0.06058(11)
C20 C 0.8484(4) 0.8757(3) 0.05789(12)
C21 C 0.8604(6) 0.9366(5) 0.02169(17)
H17 H 0.9090 0.9074 -0.0012
C22 C 0.7973(8) 1.0422(6) 0.0208(2)
H18 H 0.8051 1.0871 -0.0026
C23 C 0.7237(6) 1.0802(6) 0.0544(3)
H19 H 0.6813 1.1514 0.0544
C24 C 0.7137(5) 1.0126(4) 0.0874(2)
H20 H 0.6604 1.0376 0.1096
C25 C 0.7819(3) 0.4990(3) 0.06928(11)
C26 C 0.7893(4) 0.4398(4) 0.02964(12)
H21 H 0.8695 0.4421 0.0158
C27 C 0.6813(4) 0.3773(4) 0.00992(13)
H22 H 0.6889 0.3372 -0.0168
C28 C 0.5629(4) 0.3749(4) 0.02996(13)
C29 C 0.5499(4) 0.4337(4) 0.06954(13)
H23 H 0.4691 0.4316 0.0831
C30 C 0.6597(4) 0.4960(4) 0.08868(13)
H24 H 0.6518 0.5369 0.1152
C31 C 0.9818(4) 0.3919(3) 0.13016(12)
C32 C 0.9154(5) 0.2948(4) 0.14515(16)
H25 H 0.8381 0.3039 0.1602
C33 C 0.9639(6) 0.1828(4) 0.1378(2)
H26 H 0.9189 0.1156 0.1478
C34 C 1.0742(6) 0.1702(4) 0.1167(2)
H27 H 1.1081 0.0951 0.1116
C35 C 1.1371(5) 0.2721(5) 0.10242(19)
H28 H 1.2141 0.2638 0.0872
C36 C 1.1582(3) 0.7435(3) 0.11483(11)
C37 C 1.2556(4) 0.6674(4) 0.12012(13)
H29 H 1.2372 0.5935 0.1312
C38 C 1.3819(4) 0.7033(5) 0.10862(17)
H30 H 1.4507 0.6547 0.1127
C39 C 1.4050(5) 0.8105(5) 0.09128(15)
H31 H 1.4892 0.8364 0.0832
C40 C 1.3021(5) 0.8780(5) 0.08620(14)
H32 H 1.3180 0.9501 0.0738
Cl1 Cl 0.42508(13) 0.29427(13) 0.00614(4)
Cl2 Cl 1.05668(18) 1.27244(12) 0.32617(5)
N1 N 1.0083(3) 0.6145(2) 0.15742(9)
N2 N 1.1791(3) 0.8484(3) 0.09778(11)
N3 N 0.7757(3) 0.9115(3) 0.09033(12)
N4 N 1.0930(4) 0.3837(3) 0.10934(13)
O1 O 1.2310(3) 0.7991(3) 0.27856(10)
O2 O 0.9808(3) 0.7223(3) 0.03097(9)
C41 C 0.5495(3) 0.8380(3) 0.27137(10)
C42 C 0.5211(4) 0.9472(3) 0.24916(11)
H33 H 0.5899 1.0106 0.2561
H34 H 0.4384 0.9765 0.2592
C43 C 0.5130(4) 0.9192(4) 0.20144(12)
H35 H 0.4358 0.8655 0.1938
H36 H 0.5062 0.9931 0.1877
C44 C 0.6363(4) 0.8597(4) 0.18738(12)
H37 H 0.6329 0.8412 0.1570
H38 H 0.7126 0.9154 0.1942
C45 C 0.6508(3) 0.7454(3) 0.20850(11)
C46 C 0.5931(3) 0.7363(3) 0.24966(11)
C47 C 0.5933(3) 0.6175(3) 0.26948(10)
H39 H 0.6832 0.6073 0.2791
C48 C 0.5039(3) 0.6248(3) 0.30823(10)
H40 H 0.4132 0.6282 0.2992
H41 H 0.5098 0.5532 0.3233
C49 C 0.5457(3) 0.7368(3) 0.33735(10)
C50 C 0.4493(3) 0.7606(3) 0.37453(10)
H42 H 0.3593 0.7375 0.3643
C51 C 0.4654(3) 0.8983(3) 0.38291(10)
H43 H 0.5547 0.9197 0.3941
C52 C 0.4599(3) 0.9381(3) 0.33777(10)
H44 H 0.3681 0.9309 0.3279
C53 C 0.5490(3) 0.5095(3) 0.23897(10)
C54 C 0.4390(4) 0.5092(3) 0.21311(12)
H45 H 0.3894 0.5763 0.2149
C55 C 0.4014(4) 0.4128(3) 0.18504(13)
H46 H 0.3273 0.4148 0.1679
C56 C 0.4741(4) 0.3124(3) 0.18222(12)
C57 C 0.5805(4) 0.3078(3) 0.20844(14)
H47 H 0.6278 0.2392 0.2074
C58 C 0.6167(4) 0.4069(3) 0.23664(13)
H48 H 0.6890 0.4038 0.2545
C59 C 0.6864(3) 0.7305(3) 0.35285(10)
C60 C 0.7847(4) 0.8208(4) 0.34881(13)
H49 H 0.7669 0.8911 0.3366
C61 C 0.9097(4) 0.8046(4) 0.36320(15)
H50 H 0.9776 0.8639 0.3608
C62 C 0.9329(4) 0.7011(4) 0.38097(14)
H51 H 1.0164 0.6886 0.3910
C63 C 0.8310(4) 0.6165(4) 0.38371(15)
H52 H 0.8473 0.5460 0.3960
C64 C 0.4741(4) 0.6955(3) 0.41329(11)
C65 C 0.3975(4) 0.5776(3) 0.41741(11)
C66 C 0.4473(6) 0.4942(4) 0.44213(17)
H53 H 0.5302 0.5084 0.4548
C67 C 0.3707(7) 0.3898(5) 0.4475(2)
H54 H 0.4019 0.3317 0.4636
C68 C 0.2475(7) 0.3719(5) 0.4289(2)
H55 H 0.1939 0.3025 0.4324
C69 C 0.2062(6) 0.4594(4) 0.40498(16)
H56 H 0.1229 0.4478 0.3925
C70 C 0.3718(3) 0.9554(3) 0.41307(10)
C71 C 0.2374(4) 0.9474(4) 0.40621(14)
H57 H 0.2024 0.9027 0.3821
C72 C 0.1533(5) 1.0045(5) 0.43443(16)
H58 H 0.0630 0.9977 0.4292
C73 C 0.2033(5) 1.0705(4) 0.46986(13)
C74 C 0.3370(4) 1.0789(3) 0.47752(12)
H59 H 0.3718 1.1229 0.5017
C75 C 0.4184(4) 1.0224(3) 0.44941(11)
H60 H 0.5085 1.0293 0.4549
C76 C 0.5130(4) 1.0684(3) 0.33746(10)
C77 C 0.4259(4) 1.1568(4) 0.33564(14)
H61 H 0.3361 1.1366 0.3320
C78 C 0.4750(6) 1.2770(4) 0.33943(17)
H62 H 0.4180 1.3386 0.3392
C79 C 0.6063(5) 1.3035(4) 0.34344(16)
H63 H 0.6417 1.3832 0.3456
C80 C 0.6844(5) 1.2109(4) 0.34418(17)
H64 H 0.7746 1.2298 0.3467
Cl3 Cl 0.43304(13) 0.19159(9) 0.14487(4)
Cl4 Cl 0.10257(15) 1.14497(13) 0.50533(5)
N5 N 0.5320(3) 0.8459(2) 0.31386(8)
N6 N 0.2800(4) 0.5613(3) 0.39866(11)
N7 N 0.7092(3) 0.6284(3) 0.36981(11)
N8 N 0.6419(3) 1.0929(3) 0.34155(12)
O3 O 0.7116(3) 0.6635(2) 0.19100(8)
O4 O 0.5461(3) 0.7392(3) 0.44170(8)
C81 C 0.8206(13) 0.2758(11) 0.4564(4)
H65 H 0.7335 0.3056 0.4583
H66 H 0.8607 0.2818 0.4844
C82 C 0.8156(14) 0.1383(12) 0.4344(5)
H67 H 0.7632 0.0860 0.4512
H68 H 0.9032 0.1121 0.4324
H69 H 0.7773 0.1357 0.4066
O5 O 0.8970(6) 0.3357(6) 0.42895(19)
C83? C 0.8506(18) 0.3587(15) 0.4716(4)
C84? C 0.7454(19) 0.243(2) 0.4789(8)
H70? H 0.8075 0.4338 0.4746
H71? H 0.9231 0.3635 0.4917
H72? H 0.7107 0.2522 0.5069
H73? H 0.7896 0.1694 0.4754
H74? H 0.6746 0.2395 0.4586
loop_
_geom_bond_atom_site_label_1
_geom_bond_atom_site_label_2
_geom_bond_site_symmetry_1
_geom_bond_site_symmetry_2
C1 C2 1_555 1_555
C2 H1 1_555 1_555
H2 C2 1_555 1_555
C3 C2 1_555 1_555
H3 C3 1_555 1_555
H4 C3 1_555 1_555
C4 C3 1_555 1_555
H5 C4 1_555 1_555
H6 C4 1_555 1_555
C5 C4 1_555 1_555
C6 C1 1_555 1_555
C7 C6 1_555 1_555
H7 C7 1_555 1_555
C8 C7 1_555 1_555
H8 C8 1_555 1_555
H9 C8 1_555 1_555
C9 C8 1_555 1_555
C10 C9 1_555 1_555
H10 C10 1_555 1_555
C11 C10 1_555 1_555
H11 C11 1_555 1_555
C12 C11 1_555 1_555
H12 C12 1_555 1_555
C13 C7 1_555 1_555
C14 C13 1_555 1_555
H13 C14 1_555 1_555
C15 C14 1_555 1_555
H14 C15 1_555 1_555
C16 C15 1_555 1_555
C17 C16 1_555 1_555
H15 C17 1_555 1_555
C18 C13 1_555 1_555
H16 C18 1_555 1_555
C19 C10 1_555 1_555
C20 C19 1_555 1_555
C21 C20 1_555 1_555
H17 C21 1_555 1_555
C22 C21 1_555 1_555
H18 C22 1_555 1_555
C23 C22 1_555 1_555
H19 C23 1_555 1_555
C24 C23 1_555 1_555
H20 C24 1_555 1_555
C25 C11 1_555 1_555
C26 C25 1_555 1_555
H21 C26 1_555 1_555
C27 C26 1_555 1_555
H22 C27 1_555 1_555
C28 C27 1_555 1_555
C29 C28 1_555 1_555
H23 C29 1_555 1_555
C30 C25 1_555 1_555
H24 C30 1_555 1_555
C31 C12 1_555 1_555
C32 C31 1_555 1_555
H25 C32 1_555 1_555
C33 C32 1_555 1_555
H26 C33 1_555 1_555
C34 C33 1_555 1_555
H27 C34 1_555 1_555
C35 C34 1_555 1_555
H28 C35 1_555 1_555
C36 C9 1_555 1_555
C37 C36 1_555 1_555
H29 C37 1_555 1_555
C38 C37 1_555 1_555
H30 C38 1_555 1_555
C39 C38 1_555 1_555
H31 C39 1_555 1_555
C40 C39 1_555 1_555
H32 C40 1_555 1_555
Cl1 C28 1_555 1_555
Cl2 C16 1_555 1_555
N1 C1 1_555 1_555
N2 C36 1_555 1_555
N3 C20 1_555 1_555
N4 C31 1_555 1_555
O1 C5 1_555 1_555
O2 C19 1_555 1_555
C41 C42 1_555 1_555
C42 H33 1_555 1_555
H34 C42 1_555 1_555
C43 C42 1_555 1_555
H35 C43 1_555 1_555
H36 C43 1_555 1_555
C44 C43 1_555 1_555
H37 C44 1_555 1_555
H38 C44 1_555 1_555
C45 C44 1_555 1_555
C46 C41 1_555 1_555
C47 C46 1_555 1_555
H39 C47 1_555 1_555
C48 C47 1_555 1_555
H40 C48 1_555 1_555
H41 C48 1_555 1_555
C49 C48 1_555 1_555
C50 C49 1_555 1_555
H42 C50 1_555 1_555
C51 C50 1_555 1_555
H43 C51 1_555 1_555
C52 C51 1_555 1_555
H44 C52 1_555 1_555
C53 C47 1_555 1_555
C54 C53 1_555 1_555
H45 C54 1_555 1_555
C55 C54 1_555 1_555
H46 C55 1_555 1_555
C56 C55 1_555 1_555
C57 C56 1_555 1_555
H47 C57 1_555 1_555
C58 C53 1_555 1_555
H48 C58 1_555 1_555
C59 C49 1_555 1_555
C60 C59 1_555 1_555
H49 C60 1_555 1_555
C61 C60 1_555 1_555
H50 C61 1_555 1_555
C62 C61 1_555 1_555
H51 C62 1_555 1_555
C63 C62 1_555 1_555
H52 C63 1_555 1_555
C64 C50 1_555 1_555
C65 C64 1_555 1_555
C66 C65 1_555 1_555
H53 C66 1_555 1_555
C67 C66 1_555 1_555
H54 C67 1_555 1_555
C68 C67 1_555 1_555
H55 C68 1_555 1_555
C69 C68 1_555 1_555
H56 C69 1_555 1_555
C70 C51 1_555 1_555
C71 C70 1_555 1_555
H57 C71 1_555 1_555
C72 C71 1_555 1_555
H58 C72 1_555 1_555
C73 C72 1_555 1_555
C74 C73 1_555 1_555
H59 C74 1_555 1_555
C75 C70 1_555 1_555
H60 C75 1_555 1_555
C76 C52 1_555 1_555
C77 C76 1_555 1_555
H61 C77 1_555 1_555
C78 C77 1_555 1_555
H62 C78 1_555 1_555
C79 C78 1_555 1_555
H63 C79 1_555 1_555
C80 C79 1_555 1_555
H64 C80 1_555 1_555
Cl3 C56 1_555 1_555
Cl4 C73 1_555 1_555
N5 C41 1_555 1_555
N6 C65 1_555 1_555
N7 C59 1_555 1_555
N8 C76 1_555 1_555
O3 C45 1_555 1_555
O4 C64 1_555 1_555
C81 H65 1_555 1_555
H66 C81 1_555 1_555
C82 C81 1_555 1_555
H67 C82 1_555 1_555
H68 C82 1_555 1_555
H69 C82 1_555 1_555
O5 C81 1_555 1_555
C5 C6 1_555 1_555
C9 N1 1_555 1_555
C12 N1 1_555 1_555
C17 C18 1_555 1_555
C24 N3 1_555 1_555
C29 C30 1_555 1_555
C35 N4 1_555 1_555
C40 N2 1_555 1_555
C45 C46 1_555 1_555
C49 N5 1_555 1_555
C52 N5 1_555 1_555
C57 C58 1_555 1_555
C63 N7 1_555 1_555
C69 N6 1_555 1_555
C74 C75 1_555 1_555
C80 N8 1_555 1_555

#END
