
#######################################################################
#
#                 Cambridge Crystallographic Data Centre
#                                CCDC 
#
#######################################################################
#
# If this CIF has been generated from an entry in the Cambridge 
# Structural Database, then it will include bibliographic, chemical, 
# crystal, experimental, refinement or atomic coordinate data resulting 
# from the CCDC's data processing and validation procedures.
#
#######################################################################

data_REGYAE
_chemical_formula_moiety         'C24 H27 B1 S1'
_chemical_name_systematic        E-(2-(2-Thienyl)ethenyl)dimesitylborane
_symmetry_cell_setting           triclinic
_symmetry_space_group_name_H-M   'P -1'
_symmetry_Int_Tables_number      2
_space_group_name_Hall           '-P 1'
loop_
_symmetry_equiv_pos_site_id
_symmetry_equiv_pos_as_xyz
1 x,y,z
2 -x,-y,-z
_cell_length_a                   8.388(2)
_cell_length_b                   14.627(1)
_cell_length_c                   19.010(2)
_cell_angle_alpha                69.60(2)
_cell_angle_beta                 80.78(2)
_cell_angle_gamma                74.71(2)
_cell_volume                     2102.67
_exptl_crystal_colour            colorless
_exptl_crystal_description       plate
_chemical_melting_point          '388 K'
_cell_formula_units_Z            4
_exptl_crystal_recrystallization_method hexane
loop_
_atom_site_label
_atom_site_type_symbol
_atom_site_fract_x
_atom_site_fract_y
_atom_site_fract_z
S1 S 0.49230(11) 0.06009(7) 0.37237(5)
B1 B 0.0398(5) 0.1937(3) 0.5193(2)
C1 C 0.3466(4) 0.1714(2) 0.34451(19)
C2 C 0.3842(4) 0.2250(3) 0.2711(2)
H1 H 0.3189 0.2880 0.2450
C3 C 0.5305(5) 0.1763(3) 0.2388(2)
H2 H 0.5743 0.2034 0.1888
C4 C 0.6009(5) 0.0871(3) 0.2868(2)
H3 H 0.6994 0.0443 0.2743
C5 C 0.2092(4) 0.1996(2) 0.39438(18)
H4 H 0.1207 0.2520 0.3715
C6 C 0.1921(4) 0.1602(2) 0.46949(18)
H5 H 0.2796 0.1081 0.4936
C7 C 0.0545(4) 0.1664(2) 0.60664(17)
C8 C -0.0602(4) 0.1176(2) 0.66030(18)
C9 C -0.0425(4) 0.0925(2) 0.73638(18)
H6 H -0.1171 0.0572 0.7714
C10 C 0.0785(4) 0.1165(2) 0.76326(18)
C11 C 0.1902(4) 0.1644(3) 0.71174(19)
H7 H 0.2749 0.1811 0.7293
C12 C 0.1816(4) 0.1888(2) 0.63411(19)
C13 C -0.1997(4) 0.0891(3) 0.63777(19)
H8 H -0.2593 0.0525 0.6829
H9 H -0.2758 0.1497 0.6098
H10 H -0.1545 0.0468 0.6060
C14 C 0.0854(5) 0.0922(3) 0.8473(2)
H11 H -0.0054 0.1377 0.8656
H12 H 0.0748 0.0232 0.8733
H13 H 0.1912 0.0999 0.8570
C15 C 0.3109(4) 0.2413(3) 0.5819(2)
H14 H 0.3968 0.1928 0.5643
H15 H 0.2582 0.2939 0.5389
H16 H 0.3609 0.2710 0.6092
C16 C -0.1276(4) 0.2557(2) 0.48116(17)
C17 C -0.2122(4) 0.2158(2) 0.44509(18)
C18 C -0.3598(4) 0.2724(2) 0.41217(18)
H17 H -0.4161 0.2432 0.3891
C19 C -0.4257(4) 0.3691(2) 0.41224(17)
C20 C -0.3407(4) 0.4094(2) 0.44720(17)
H18 H -0.3829 0.4762 0.4473
C21 C -0.1957(4) 0.3542(2) 0.48198(17)
C22 C -0.1541(4) 0.1099(2) 0.4420(2)
H19 H -0.2262 0.0682 0.4764
H20 H -0.1581 0.1104 0.3907
H21 H -0.0403 0.0826 0.4568
C23 C -0.5829(4) 0.4296(3) 0.3748(2)
H22 H -0.6765 0.4016 0.4032
H23 H -0.6010 0.4990 0.3735
H24 H -0.5731 0.4275 0.3234
C24 C -0.1090(5) 0.4034(3) 0.5172(2)
H25 H -0.1067 0.3679 0.5713
H26 H 0.0045 0.4013 0.4945
H27 H -0.1683 0.4731 0.5088
S2 S 0.00383(11) 0.65771(8) 0.90249(6)
B2 B 0.4612(5) 0.3849(3) 0.8994(2)
C25 C 0.1544(4) 0.6467(3) 0.83084(19)
C26 C 0.1238(5) 0.7299(3) 0.7683(2)
H28 H 0.1925 0.7388 0.7228
C27 C -0.0210(5) 0.8007(3) 0.7788(3)
H29 H -0.0600 0.8622 0.7411
C28 C -0.0974(5) 0.7718(3) 0.8479(3)
H30 H -0.1964 0.8103 0.8645
C29 C 0.2909(4) 0.5609(2) 0.83860(19)
H31 H 0.3742 0.5657 0.7983
C30 C 0.3136(4) 0.4752(3) 0.89626(19)
H32 H 0.2339 0.4695 0.9380
C31 C 0.4453(4) 0.2782(2) 0.95447(17)
C32 C 0.5672(4) 0.2172(3) 1.00570(18)
C33 C 0.5475(4) 0.1249(3) 1.05447(18)
H33 H 0.6287 0.0865 1.0892
C34 C 0.4125(5) 0.0862(3) 1.05451(19)
C35 C 0.2949(4) 0.1447(3) 1.00428(19)
H34 H 0.2028 0.1194 1.0028
C36 C 0.3067(4) 0.2389(3) 0.95598(18)
C37 C 0.7178(5) 0.2521(3) 1.0112(2)
H35 H 0.7844 0.2008 1.0506
H36 H 0.6823 0.3143 1.0236
H37 H 0.7842 0.2637 0.9630
C38 C 0.3950(5) -0.0151(3) 1.1083(2)
H38 H 0.2906 -0.0281 1.1020
H39 H 0.3958 -0.0162 1.1599
H40 H 0.4874 -0.0666 1.0978
C39 C 0.1701(5) 0.2976(3) 0.9031(2)
H41 H 0.0933 0.2555 0.9076
H42 H 0.2188 0.3178 0.8513
H43 H 0.1104 0.3571 0.9164
C40 C 0.6231(4) 0.4030(2) 0.84594(18)
C41 C 0.7122(4) 0.4705(3) 0.85002(18)
C42 C 0.8548(4) 0.4853(3) 0.80214(18)
H44 H 0.9133 0.5307 0.8056
C43 C 0.9131(4) 0.4358(3) 0.74987(18)
C44 C 0.8262(4) 0.3690(3) 0.74633(18)
H45 H 0.8657 0.3333 0.7116
C45 C 0.6829(4) 0.3530(2) 0.79224(18)
C46 C 0.6647(5) 0.5246(3) 0.9078(2)
H46 H 0.7643 0.5226 0.9294
H47 H 0.5895 0.4918 0.9477
H48 H 0.6094 0.5942 0.8837
C47 C 1.0665(4) 0.4534(3) 0.6985(2)
H49 H 1.0364 0.5113 0.6538
H50 H 1.1180 0.3942 0.6834
H51 H 1.1448 0.4663 0.7250
C48 C 0.5898(5) 0.2847(3) 0.7807(2)
H52 H 0.6572 0.2496 0.7469
H53 H 0.4858 0.3243 0.7584
H54 H 0.5659 0.2359 0.8291
loop_
_geom_bond_atom_site_label_1
_geom_bond_atom_site_label_2
_geom_bond_site_symmetry_1
_geom_bond_site_symmetry_2
S1 C1 1_555 1_555
B1 C6 1_555 1_555
C1 C2 1_555 1_555
C2 H1 1_555 1_555
C3 C2 1_555 1_555
H2 C3 1_555 1_555
C4 S1 1_555 1_555
H3 C4 1_555 1_555
C5 C1 1_555 1_555
H4 C5 1_555 1_555
C6 C5 1_555 1_555
H5 C6 1_555 1_555
C7 B1 1_555 1_555
C8 C7 1_555 1_555
C9 C8 1_555 1_555
H6 C9 1_555 1_555
C10 C9 1_555 1_555
C11 C10 1_555 1_555
H7 C11 1_555 1_555
C12 C7 1_555 1_555
C13 C8 1_555 1_555
H8 C13 1_555 1_555
H9 C13 1_555 1_555
H10 C13 1_555 1_555
C14 C10 1_555 1_555
H11 C14 1_555 1_555
H12 C14 1_555 1_555
H13 C14 1_555 1_555
C15 C12 1_555 1_555
H14 C15 1_555 1_555
H15 C15 1_555 1_555
H16 C15 1_555 1_555
C16 B1 1_555 1_555
C17 C16 1_555 1_555
C18 C17 1_555 1_555
H17 C18 1_555 1_555
C19 C18 1_555 1_555
C20 C19 1_555 1_555
H18 C20 1_555 1_555
C21 C16 1_555 1_555
C22 C17 1_555 1_555
H19 C22 1_555 1_555
H20 C22 1_555 1_555
H21 C22 1_555 1_555
C23 C19 1_555 1_555
H22 C23 1_555 1_555
H23 C23 1_555 1_555
H24 C23 1_555 1_555
C24 C21 1_555 1_555
H25 C24 1_555 1_555
H26 C24 1_555 1_555
H27 C24 1_555 1_555
S2 C25 1_555 1_555
B2 C30 1_555 1_555
C25 C26 1_555 1_555
C26 H28 1_555 1_555
C27 C26 1_555 1_555
H29 C27 1_555 1_555
C28 S2 1_555 1_555
H30 C28 1_555 1_555
C29 C25 1_555 1_555
H31 C29 1_555 1_555
C30 C29 1_555 1_555
H32 C30 1_555 1_555
C31 B2 1_555 1_555
C32 C31 1_555 1_555
C33 C32 1_555 1_555
H33 C33 1_555 1_555
C34 C33 1_555 1_555
C35 C34 1_555 1_555
H34 C35 1_555 1_555
C36 C31 1_555 1_555
C37 C32 1_555 1_555
H35 C37 1_555 1_555
H36 C37 1_555 1_555
H37 C37 1_555 1_555
C38 C34 1_555 1_555
H38 C38 1_555 1_555
H39 C38 1_555 1_555
H40 C38 1_555 1_555
C39 C36 1_555 1_555
H41 C39 1_555 1_555
H42 C39 1_555 1_555
H43 C39 1_555 1_555
C40 B2 1_555 1_555
C41 C40 1_555 1_555
C42 C41 1_555 1_555
H44 C42 1_555 1_555
C43 C42 1_555 1_555
C44 C43 1_555 1_555
H45 C44 1_555 1_555
C45 C40 1_555 1_555
C46 C41 1_555 1_555
H46 C46 1_555 1_555
H47 C46 1_555 1_555
H48 C46 1_555 1_555
C47 C43 1_555 1_555
H49 C47 1_555 1_555
H50 C47 1_555 1_555
H51 C47 1_555 1_555
C48 C45 1_555 1_555
H52 C48 1_555 1_555
H53 C48 1_555 1_555
H54 C48 1_555 1_555
C3 C4 1_555 1_555
C11 C12 1_555 1_555
C20 C21 1_555 1_555
C27 C28 1_555 1_555
C35 C36 1_555 1_555
C44 C45 1_555 1_555

#END
