
#######################################################################
#
#                 Cambridge Crystallographic Data Centre
#                                CCDC 
#
#######################################################################
#
# If this CIF has been generated from an entry in the Cambridge 
# Structural Database, then it will include bibliographic, chemical, 
# crystal, experimental, refinement or atomic coordinate data resulting 
# from the CCDC's data processing and validation procedures.
#
#######################################################################

data_REHCIT
_chemical_formula_moiety         
'C42 H42 N28 O14,C10 H16 N1 1+,0.71(Na1 1+),1.71(H2 O4 P1 1-),0.71(C1 H4 O1),12.9(H2 O1)'
_chemical_name_systematic        
'cucurbit[7]uril methamphetamine clathrate sodium dihydrogen phosphate methanol solvate hydrate'
_symmetry_cell_setting           trigonal
_symmetry_space_group_name_H-M   'P -3 c 1'
_symmetry_Int_Tables_number      165
_space_group_name_Hall           '-P 3 2"c'
loop_
_symmetry_equiv_pos_site_id
_symmetry_equiv_pos_as_xyz
1 x,y,z
2 -y,x-y,z
3 -x+y,-x,z
4 y,x,1/2-z
5 x-y,-y,1/2-z
6 -x,-x+y,1/2-z
7 -x,-y,-z
8 y,-x+y,-z
9 x-y,x,-z
10 -y,-x,1/2+z
11 -x+y,y,1/2+z
12 x,x-y,1/2+z
_cell_length_a                   37.350(5)
_cell_length_b                   37.350(5)
_cell_length_c                   44.981(9)
_cell_angle_alpha                90
_cell_angle_beta                 90
_cell_angle_gamma                120
_cell_volume                     54342.7
_exptl_crystal_colour            colorless
_exptl_crystal_description       block
_cell_formula_units_Z            24
loop_
_atom_site_label
_atom_site_type_symbol
_atom_site_fract_x
_atom_site_fract_y
_atom_site_fract_z
Na1 Na 0.3333 0.6667 0.19226(13)
Na2 Na 0.0000 0.57803(16) 0.2500
Na3 Na 0.3333 0.6667 0.26546(14)
O1 O 0.1063(2) 0.5008(2) 0.13474(16)
O2 O 0.1085(2) 0.4822(2) 0.22159(16)
O3 O 0.0828(2) 0.5191(2) 0.28629(19)
O4 O 0.0507(3) 0.5963(3) 0.28815(18)
O5 O 0.0387(2) 0.6423(2) 0.22608(16)
O6 O 0.0494(2) 0.6318(2) 0.14097(17)
O7 O 0.0836(2) 0.5698(2) 0.09974(15)
O8 O 0.28029(18) 0.63684(19) 0.15670(13)
O9 O 0.29067(18) 0.60997(19) 0.23159(13)
O10 O 0.2670(2) 0.6519(2) 0.29241(15)
O11 O 0.2290(2) 0.7361(2) 0.29254(15)
O12 O 0.2127(2) 0.7898(2) 0.23487(15)
O13 O 0.2270(2) 0.77186(18) 0.15516(14)
O14 O 0.26148(19) 0.71004(19) 0.11679(14)
N1 N 0.1660(2) 0.5432(2) 0.10836(17)
N2 N 0.1703(2) 0.5139(2) 0.15064(17)
N3 N 0.1727(2) 0.5010(2) 0.20262(18)
N4 N 0.1647(2) 0.5009(2) 0.25172(17)
N5 N 0.1492(3) 0.5308(2) 0.29377(18)
N6 N 0.1305(2) 0.5717(3) 0.31576(19)
N7 N 0.1074(3) 0.6217(3) 0.3179(2)
N8 N 0.0922(3) 0.6657(3) 0.29715(19)
N9 N 0.0783(3) 0.6994(3) 0.2564(2)
N10 N 0.0821(2) 0.7082(3) 0.20674(18)
N11 N 0.0887(2) 0.7007(2) 0.15427(17)
N12 N 0.1064(2) 0.6787(2) 0.11407(18)
N13 N 0.1293(2) 0.6374(2) 0.08741(18)
N14 N 0.1507(2) 0.5920(2) 0.08422(18)
N15 N 0.2360(2) 0.5994(2) 0.11883(17)
N16 N 0.2417(2) 0.5655(2) 0.15710(16)
N17 N 0.2474(2) 0.5483(2) 0.20784(17)
N18 N 0.2381(2) 0.5529(2) 0.25555(17)
N19 N 0.2217(2) 0.5820(2) 0.29845(17)
N20 N 0.2031(2) 0.6263(2) 0.31528(17)
N21 N 0.1805(2) 0.6768(3) 0.31645(18)
N22 N 0.1627(2) 0.7222(3) 0.30134(18)
N23 N 0.1497(3) 0.7535(3) 0.25880(19)
N24 N 0.1507(2) 0.7698(2) 0.21099(19)
N25 N 0.1597(2) 0.7577(2) 0.15984(17)
N26 N 0.1774(2) 0.7344(2) 0.11979(17)
N27 N 0.2004(2) 0.6940(2) 0.09290(16)
N28 N 0.2210(2) 0.6476(2) 0.09381(17)
C1 C 0.1441(3) 0.5178(3) 0.1319(2)
C2 C 0.1580(3) 0.4838(3) 0.1729(2)
H1 H 0.1684 0.4649 0.1679
H2 H 0.1274 0.4674 0.1732
C3 C 0.1447(3) 0.4935(3) 0.2250(2)
C4 C 0.1433(3) 0.4932(3) 0.2794(2)
H3 H 0.1530 0.4790 0.2930
H4 H 0.1134 0.4745 0.2760
C5 C 0.1175(3) 0.5385(4) 0.2972(3)
C6 C 0.1022(3) 0.5828(3) 0.3280(3)
H5 H 0.1050 0.5839 0.3499
H6 H 0.0737 0.5608 0.3232
C7 C 0.0808(4) 0.6255(4) 0.2999(2)
C8 C 0.0644(3) 0.6789(4) 0.2847(2)
H7 H 0.0365 0.6544 0.2822
H8 H 0.0620 0.6979 0.2989
C9 C 0.0635(3) 0.6787(4) 0.2299(3)
C10 C 0.0631(3) 0.7010(3) 0.1781(2)
H9 H 0.0560 0.7227 0.1741
H10 H 0.0371 0.6741 0.1784
C11 C 0.0791(3) 0.6678(4) 0.1369(3)
C12 C 0.1005(3) 0.6525(3) 0.0888(2)
H11 H 0.1032 0.6683 0.0704
H12 H 0.0720 0.6286 0.0893
C13 C 0.1174(3) 0.5965(3) 0.0917(2)
C14 C 0.1467(3) 0.5513(3) 0.0833(2)
H13 H 0.1170 0.5301 0.0828
H14 H 0.1594 0.5487 0.0647
C15 C 0.2099(3) 0.5562(3) 0.1110(2)
H15 H 0.2204 0.5487 0.0930
C16 C 0.2122(2) 0.5338(3) 0.1384(2)
H16 H 0.2207 0.5131 0.1333
C17 C 0.2125(3) 0.5077(3) 0.2146(2)
H17 H 0.2178 0.4848 0.2092
C18 C 0.2073(3) 0.5105(3) 0.2486(2)
H18 H 0.2125 0.4904 0.2598
C19 C 0.1835(3) 0.5555(3) 0.3128(2)
H19 H 0.1869 0.5383 0.3284
C20 C 0.1718(3) 0.5863(3) 0.3268(2)
H20 H 0.1724 0.5856 0.3490
C21 C 0.1396(3) 0.6615(3) 0.3292(2)
H21 H 0.1404 0.6621 0.3514
C22 C 0.1258(3) 0.6912(3) 0.3165(2)
H22 H 0.1171 0.7036 0.3326
C23 C 0.1075(3) 0.7417(3) 0.2527(2)
H23 H 0.0991 0.7593 0.2641
C24 C 0.1062(3) 0.7484(3) 0.2191(2)
H24 H 0.0937 0.7661 0.2147
C25 C 0.1223(3) 0.7388(3) 0.1418(2)
H25 H 0.1130 0.7590 0.1366
C26 C 0.1347(3) 0.7231(3) 0.1136(2)
H26 H 0.1321 0.7362 0.0950
C27 C 0.1705(3) 0.6614(3) 0.0743(2)
H27 H 0.1695 0.6715 0.0539
C28 C 0.1848(3) 0.6293(3) 0.0737(2)
H28 H 0.1928 0.6258 0.0532
C29 C 0.2556(3) 0.6043(3) 0.1455(2)
C30 C 0.2664(3) 0.5586(3) 0.1790(2)
H29 H 0.2708 0.5360 0.1720
H30 H 0.2939 0.5840 0.1806
C31 C 0.2616(3) 0.5738(3) 0.2314(2)
C32 C 0.2485(3) 0.5677(3) 0.2860(2)
H31 H 0.2774 0.5907 0.2866
H32 H 0.2466 0.5451 0.2986
C33 C 0.2349(3) 0.6236(3) 0.3013(2)
C34 C 0.2082(3) 0.6640(3) 0.3275(2)
H33 H 0.2049 0.6609 0.3493
H34 H 0.2369 0.6863 0.3235
C35 C 0.1938(3) 0.7136(3) 0.3026(2)
C36 C 0.1676(3) 0.7601(3) 0.2887(2)
H35 H 0.1974 0.7810 0.2877
H36 H 0.1540 0.7711 0.3017
C37 C 0.1746(3) 0.7723(3) 0.2350(2)
C38 C 0.1661(3) 0.7865(3) 0.1825(2)
H37 H 0.1532 0.8029 0.1762
H38 H 0.1962 0.8059 0.1843
C39 C 0.1914(3) 0.7559(3) 0.1459(2)
C40 C 0.2038(3) 0.7343(3) 0.0963(2)
H39 H 0.2328 0.7551 0.1008
H40 H 0.1962 0.7422 0.0774
C41 C 0.2307(3) 0.6862(3) 0.1027(2)
C42 C 0.2500(3) 0.6331(3) 0.0978(2)
H41 H 0.2549 0.6239 0.0783
H42 H 0.2766 0.6564 0.1048
O15 O 0.1971(2) 1.0482(2) -0.01463(18)
O16 O 0.1530(3) 1.0667(3) -0.0768(2)
O17 O 0.1776(3) 1.1692(4) -0.1092(3)
O18 O 0.2467(3) 1.2801(4) -0.0899(3)
O19 O 0.3153(3) 1.3138(3) -0.02886(19)
O20 O 0.3224(3) 1.2436(3) 0.0196(2)
O21 O 0.2705(3) 1.1251(3) 0.0309(2)
O22 O 0.3376(2) 1.0635(2) -0.09267(17)
O23 O 0.2848(2) 1.0769(2) -0.16039(17)
O24 O 0.2979(3) 1.1644(3) -0.20046(19)
O25 O 0.3737(3) 1.2669(3) -0.16954(18)
O26 O 0.4494(2) 1.3041(2) -0.09946(19)
O27 O 0.4734(2) 1.2521(2) -0.04015(18)
O28 O 0.4175(2) 1.14256(19) -0.03976(15)
N29 N 0.2526(3) 1.0364(3) -0.0142(2)
N30 N 0.2112(2) 1.0166(3) -0.0529(2)
N31 N 0.1771(3) 1.0248(3) -0.0955(2)
N32 N 0.1700(3) 1.0669(4) -0.1265(3)
N33 N 0.1833(3) 1.1314(5) -0.1479(3)
N34 N 0.2126(3) 1.1996(4) -0.1527(3)
N35 N 0.2615(4) 1.2685(4) -0.1376(4)
N36 N 0.3098(5) 1.3186(5) -0.1105(3)
N37 N 0.3576(3) 1.3434(3) -0.0694(3)
N38 N 0.3834(3) 1.3310(3) -0.0293(2)
N39 N 0.3910(3) 1.2905(3) 0.0094(2)
N40 N 0.3754(3) 1.2288(3) 0.0266(2)
N41 N 0.3421(3) 1.1546(3) 0.0305(2)
N42 N 0.3030(3) 1.0886(3) 0.0186(2)
N43 N 0.3100(2) 1.0455(2) -0.0459(2)
N44 N 0.2674(3) 1.0233(3) -0.0848(2)
N45 N 0.2339(3) 1.0341(3) -0.1269(2)
N46 N 0.2196(3) 1.0673(3) -0.1615(2)
N47 N 0.2300(3) 1.1306(4) -0.1850(2)
N48 N 0.2626(3) 1.1978(5) -0.1875(3)
N49 N 0.3119(3) 1.2677(4) -0.1712(3)
N50 N 0.3607(3) 1.3094(4) -0.1395(3)
N51 N 0.4078(3) 1.3333(3) -0.0979(3)
N52 N 0.4407(3) 1.3322(3) -0.0572(3)
N53 N 0.4473(3) 1.2906(3) -0.0181(2)
N54 N 0.4375(3) 1.2339(3) 0.0043(2)
N55 N 0.4024(3) 1.1596(3) 0.00609(18)
N56 N 0.3593(3) 1.0977(2) -0.01262(19)
C43 C 0.2179(3) 1.0353(3) -0.0260(3)
C44 C 0.1732(3) 1.0025(4) -0.0693(3)
H43 H 0.1619 0.9731 -0.0746
H44 H 0.1528 1.0042 -0.0562
C45 C 0.1648(4) 1.0537(4) -0.0969(4)
C46 C 0.1517(4) 1.0905(5) -0.1374(4)
H45 H 0.1356 1.0937 -0.1212
H46 H 0.1325 1.0752 -0.1538
C47 C 0.1900(5) 1.1668(7) -0.1343(5)
C48 C 0.2196(5) 1.2407(6) -0.1464(4)
H47 H 0.2007 1.2390 -0.1304
H48 H 0.2132 1.2518 -0.1644
C49 C 0.2704(6) 1.2879(6) -0.1102(4)
C50 C 0.3298(5) 1.3500(6) -0.0872(4)
H49 H 0.3452 1.3776 -0.0966
H50 H 0.3082 1.3497 -0.0742
C51 C 0.3488(5) 1.3277(3) -0.0409(3)
C52 C 0.3864(4) 1.3263(4) 0.0023(3)
H51 H 0.3612 1.3230 0.0121
H52 H 0.4104 1.3516 0.0103
C53 C 0.3598(5) 1.2535(4) 0.0192(3)
C54 C 0.3534(4) 1.1935(4) 0.0447(3)
H53 H 0.3279 1.1926 0.0518
H54 H 0.3705 1.1965 0.0623
C55 C 0.3014(4) 1.1222(4) 0.0273(3)
C56 C 0.2650(4) 1.0474(4) 0.0159(3)
H55 H 0.2700 1.0263 0.0251
H56 H 0.2423 1.0478 0.0270
C57 C 0.2696(3) 1.0174(3) -0.0329(3)
H57 H 0.2698 0.9939 -0.0225
C58 C 0.2400(3) 1.0021(3) -0.0598(3)
H58 H 0.2257 0.9714 -0.0619
C59 C 0.1901(3) 1.0175(4) -0.1240(3)
H59 H 0.1745 0.9875 -0.1294
C60 C 0.1810(4) 1.0438(4) -0.1461(3)
H60 H 0.1580 1.0261 -0.1600
C61 C 0.1987(5) 1.1384(5) -0.1783(4)
H61 H 0.1754 1.1242 -0.1927
C62 C 0.2205(4) 1.1892(5) -0.1814(4)
H62 H 0.2086 1.1980 -0.1978
C63 C 0.2950(4) 1.2903(5) -0.1594(3)
H63 H 0.2869 1.3037 -0.1753
C64 C 0.3302(5) 1.3232(5) -0.1391(4)
H64 H 0.3419 1.3518 -0.1472
C65 C 0.4002(4) 1.3591(4) -0.0771(3)
H65 H 0.4139 1.3886 -0.0837
C66 C 0.4189(4) 1.3541(4) -0.0481(3)
H66 H 0.4384 1.3816 -0.0392
C67 C 0.4304(4) 1.2917(4) 0.0099(3)
H67 H 0.4511 1.3157 0.0219
C68 C 0.4204(4) 1.2505(3) 0.0251(3)
H68 H 0.4333 1.2550 0.0452
C69 C 0.3714(3) 1.1395(3) 0.0286(2)
H69 H 0.3839 1.1402 0.0484
C70 C 0.3439(3) 1.0949(3) 0.0173(2)
H70 H 0.3470 1.0743 0.0297
C71 C 0.3081(3) 1.0463(3) -0.0765(3)
C72 C 0.2552(4) 1.0135(3) -0.1153(3)
H71 H 0.2369 0.9833 -0.1172
H72 H 0.2802 1.0215 -0.1275
C73 C 0.2502(4) 1.0620(4) -0.1511(3)
C74 C 0.2233(4) 1.0899(5) -0.1896(3)
H73 H 0.2466 1.0917 -0.2014
H74 H 0.1977 1.0738 -0.2014
C75 C 0.2655(5) 1.1627(5) -0.1917(3)
C76 C 0.2929(5) 1.2392(6) -0.1952(3)
H75 H 0.3150 1.2382 -0.2067
H76 H 0.2797 1.2503 -0.2085
C77 C 0.3516(4) 1.2790(4) -0.1614(3)
C78 C 0.4030(4) 1.3357(4) -0.1294(3)
H77 H 0.4212 1.3276 -0.1399
H78 H 0.4120 1.3647 -0.1348
C79 C 0.4338(4) 1.3216(4) -0.0857(4)
C80 C 0.4673(4) 1.3265(3) -0.0392(3)
H79 H 0.4839 1.3520 -0.0275
H80 H 0.4867 1.3226 -0.0521
C81 C 0.4548(3) 1.2588(4) -0.0195(3)
C82 C 0.4407(3) 1.1981(3) 0.0104(2)
H81 H 0.4498 1.1994 0.0313
H82 H 0.4621 1.1983 -0.0026
C83 C 0.3956(3) 1.1338(3) -0.0181(2)
C84 C 0.3479(3) 1.0602(3) -0.0306(3)
H83 H 0.3701 1.0666 -0.0452
H84 H 0.3459 1.0381 -0.0174
N57 N 0.1303(3) 0.9276(4) 0.0324(3)
H85 H 0.1025 0.9091 0.0349
H86 H 0.1375 0.9250 0.0133
C85 C 0.2108(3) 0.8416(3) 0.1100(3)
H87 H 0.2287 0.8371 0.1224
C86 C 0.1867(3) 0.8566(3) 0.1223(3)
H88 H 0.1881 0.8621 0.1430
C87 C 0.2090(4) 0.8335(3) 0.0806(3)
H89 H 0.2251 0.8227 0.0724
C88 C 0.1605(4) 0.8636(3) 0.1044(3)
H90 H 0.1436 0.8730 0.1132
C89 C 0.1830(4) 0.8412(3) 0.0619(3)
H91 H 0.1817 0.8357 0.0412
C90 C 0.1585(3) 0.8573(3) 0.0746(3)
C91 C 0.1347(4) 0.8701(4) 0.0555(3)
H92 H 0.1062 0.8578 0.0633
H93 H 0.1331 0.8592 0.0352
C92 C 0.1546(4) 0.9185(4) 0.0540(4)
H94 H 0.1494 0.9270 0.0739
C93 C 0.1971(4) 0.9415(5) 0.0498(6)
H95 H 0.2060 0.9711 0.0502
H96 H 0.2042 0.9345 0.0305
H97 H 0.2111 0.9353 0.0657
C94 C 0.1391(5) 0.9732(4) 0.0376(5)
H98 H 0.1233 0.9795 0.0231
H99 H 0.1686 0.9927 0.0351
H100 H 0.1306 0.9757 0.0578
N58 N 0.0562(4) 0.5534(8) 0.1578(3)
H101 H 0.0566 0.5292 0.1547
H102 H 0.0634 0.5678 0.1401
C95 C 0.2141(3) 0.6711(3) 0.2366(2)
H103 H 0.2319 0.6844 0.2530
C96 C 0.2137(3) 0.6381(3) 0.2233(3)
H104 H 0.2318 0.6291 0.2303
C97 C 0.1886(4) 0.6852(3) 0.2260(3)
H105 H 0.1896 0.7088 0.2347
C98 C 0.1876(3) 0.6176(3) 0.2001(3)
H106 H 0.1884 0.5950 0.1910
C99 C 0.1616(4) 0.6646(3) 0.2027(3)
H107 H 0.1440 0.6743 0.1956
C100 C 0.1599(3) 0.6294(3) 0.1895(2)
C101 C 0.1264(3) 0.6048(4) 0.1674(3)
H108 H 0.1235 0.6242 0.1539
H109 H 0.1350 0.5883 0.1551
C102 C 0.0876(4) 0.5780(6) 0.1802(3)
H110 H 0.0783 0.5968 0.1886
C103 C 0.0860(7) 0.5543(9) 0.2035(8)
H111 H 0.0571 0.5356 0.2090
H112 H 0.1008 0.5721 0.2204
H113 H 0.0990 0.5380 0.1979
C104 C 0.0106(5) 0.5421(6) 0.1660(5)
H114 H -0.0082 0.5262 0.1498
H115 H 0.0096 0.5676 0.1691
H116 H 0.0020 0.5257 0.1843
O29 O -0.0380(7) 0.3694(8) 0.3023(6)
O30 O 0.0478(18) 0.1635(19) 0.2630(14)
O31 O 0.2738(2) 0.8681(2) 0.22513(18)
P1 P 0.3530(2) 1.2762(3) 0.0993(3)
O32 O 0.3523(5) 1.2895(5) 0.1318(3)
O33 O 0.3396(6) 1.3033(9) 0.0779(4)
O34 O 0.3153(5) 1.2332(5) 0.0931(4)
O35 O 0.3937(5) 1.2813(7) 0.0892(6)
P2 P 0.2986(4) 0.7186(3) 0.0221(2)
O36 O 0.2829(14) 0.7301(15) 0.0448(9)
O37 O 0.3423(10) 0.7660(10) 0.0300(5)
O38 O 0.2924(8) 0.7227(12) -0.0068(6)
O39 O 0.3130(11) 0.6919(10) 0.0370(10)
O40 O 0.447(3) 0.880(3) 0.0158(11)
O41 O 0.4321(17) 0.916(3) -0.0039(12)
O42 O 0.2619(10) 0.5857(11) 0.3783(5)
C105 C 0.2503(13) 0.5479(17) 0.3591(7)
O43 O 0.1733(4) 0.9319(4) -0.0200(4)
O44 O -0.0540(12) 0.9170(10) -0.0407(10)
O45 O 0.124(3) 1.0696(18) 0.1323(15)
O46 O 0.188(2) 1.062(2) 0.1742(17)
O47 O -0.0502(13) 0.9041(17) 0.0254(14)
P3 P 0.2395(6) 0.7872(6) -0.1148(4)
O48 O 0.2272(10) 0.7562(12) -0.1374(7)
O49 O 0.2822(10) 0.8039(11) -0.1082(6)
O50 O 0.2344(10) 0.8174(12) -0.1310(7)
O51 O 0.2137(10) 0.7724(11) -0.0901(6)
O52 O 0.3867(9) 0.9283(7) -0.1126(6)
O53 O 0.015(2) 0.443(2) 0.3242(17)
O54 O 0.0370(13) 0.4375(13) 0.2849(10)
O55 O 0.017(2) 0.4885(8) 0.0759(12)
O56 O 0.3257(12) 0.7979(12) -0.0205(9)
O57 O 0.145(2) 0.253(2) 0.4049(19)
O58 O 0.1764(13) 0.2479(12) 0.3442(9)
O59 O 0.2543(9) 0.2934(15) 0.3225(6)
O60 O 0.4269(11) 1.0260(12) -0.0315(9)
O61 O 0.1764(13) 0.4418(13) 0.3264(10)
O62 O 0.1183(13) 0.4034(13) 0.3443(10)
O63 O 0.1169(7) 0.3227(7) 0.4080(5)
C106 C 0.1299(8) 0.3421(8) 0.3801(6)
O64 O 0.4264(15) 1.0954(14) 0.0457(12)
O65 O 0.0782(12) 0.4652(11) 0.3684(9)
O66 O 0.0800(9) 0.9059(8) -0.0335(6)
O67? O 0.1313(10) 0.3629(12) 0.2907(8)
O68? O 0.0935(10) 0.3588(12) 0.2885(9)
O69? O 0.3341(16) 1.2358(14) 0.1291(12)
O70? O 0.4113(13) 0.8324(18) -0.0050(8)
O71? O 0.2564(12) 0.7102(9) 0.0359(8)
O72? O 0.3622(8) 0.7902(12) -0.0014(8)
O73? O 0.367(2) 0.969(2) -0.1443(16)
O74? O 0.3657(6) 0.9659(4) -0.1454(4)
O75? O -0.0104(8) 0.4126(9) 0.2938(7)
O76? O 0.0247(11) 0.4629(9) 0.2556(17)
O77? O 0.3771(6) 0.9000(7) -0.0807(5)
O78? O 0.3823(12) 0.9767(12) -0.0709(9)
O79? O 0.0281(5) 0.4795(7) 0.1231(9)
O80? O 0.333(3) 0.7961(19) -0.0839(16)
O81? O 0.1426(19) 0.302(2) 0.3830(14)
O82? O 0.1476(13) 0.2634(17) 0.358(2)
O83? O 0.1035(19) 0.372(2) 0.3716(16)
O84? O 0.4356(14) 1.0479(14) -0.0005(11)
O85? O 0.220(2) 0.3169(11) 0.3265(9)
O86? O 0.2381(7) 0.2523(8) 0.2959(9)
O87? O 0.107(2) 0.465(2) 0.3574(18)
O88? O 0.080(2) 0.497(3) 0.3806(14)
O89? O 0.2092(9) 1.0646(8) 0.0797(5)
P4? P 0.0343(5) 0.3487(4) 0.2648(3)
O90? O 0.0802(8) 0.3920(6) 0.2647(4)
O91? O 0.0093(13) 0.3423(7) 0.2299(12)
O92? O 0.0451(9) 0.3151(7) 0.2718(6)
O93? O -0.004(3) 0.352(2) 0.2920(8)
O94? O 0.0701(16) 0.2097(18) 0.2635(12)
O95? O 0.2113(12) 0.2780(12) 0.3239(9)
O96? O 0.4419(7) 1.0742(7) 0.0283(5)
O97? O -0.0159(5) 0.5085(6) 0.2444(4)
O98? O 0.3949(7) 0.9397(8) -0.0830(5)
P5? P 0.2607(2) 0.2607(2) 0.2500
O99? O 0.2196(8) 0.2593(8) 0.2506(8)
O100? O 0.2859(8) 0.2869(8) 0.2796(8)
P6? P 0.1226(6) 0.2939(6) 0.2781(4)
O101? O 0.0730(13) 0.2845(10) 0.2714(6)
O102? O 0.1400(12) 0.3137(10) 0.3081(6)
O103? O 0.1187(12) 0.2429(11) 0.2684(6)
O104? O 0.1566(12) 0.3197(10) 0.2560(6)
loop_
_geom_bond_atom_site_label_1
_geom_bond_atom_site_label_2
_geom_bond_site_symmetry_1
_geom_bond_site_symmetry_2
O1 C1 1_555 1_555
O2 C3 1_555 1_555
O3 C5 1_555 1_555
O4 C7 1_555 1_555
O5 C9 1_555 1_555
O6 C11 1_555 1_555
O7 C13 1_555 1_555
O8 C29 1_555 1_555
O9 C31 1_555 1_555
O10 C33 1_555 1_555
O11 C35 1_555 1_555
O12 C37 1_555 1_555
O13 C39 1_555 1_555
O14 C41 1_555 1_555
N1 C1 1_555 1_555
N2 C1 1_555 1_555
N3 C2 1_555 1_555
N4 C3 1_555 1_555
N5 C4 1_555 1_555
N6 C5 1_555 1_555
N7 C6 1_555 1_555
N8 C7 1_555 1_555
N9 C8 1_555 1_555
N10 C9 1_555 1_555
N11 C10 1_555 1_555
N12 C11 1_555 1_555
N13 C12 1_555 1_555
N14 C13 1_555 1_555
N15 C15 1_555 1_555
N16 C16 1_555 1_555
N17 C17 1_555 1_555
N18 C18 1_555 1_555
N19 C19 1_555 1_555
N20 C20 1_555 1_555
N21 C21 1_555 1_555
N22 C22 1_555 1_555
N23 C23 1_555 1_555
N24 C24 1_555 1_555
N25 C25 1_555 1_555
N26 C26 1_555 1_555
N27 C27 1_555 1_555
N28 C28 1_555 1_555
C2 N2 1_555 1_555
H1 C2 1_555 1_555
H2 C2 1_555 1_555
C3 N3 1_555 1_555
C4 N4 1_555 1_555
H3 C4 1_555 1_555
H4 C4 1_555 1_555
C5 N5 1_555 1_555
C6 N6 1_555 1_555
H5 C6 1_555 1_555
H6 C6 1_555 1_555
C7 N7 1_555 1_555
C8 N8 1_555 1_555
H7 C8 1_555 1_555
H8 C8 1_555 1_555
C9 N9 1_555 1_555
C10 N10 1_555 1_555
H9 C10 1_555 1_555
H10 C10 1_555 1_555
C11 N11 1_555 1_555
C12 N12 1_555 1_555
H11 C12 1_555 1_555
H12 C12 1_555 1_555
C13 N13 1_555 1_555
C14 N1 1_555 1_555
H13 C14 1_555 1_555
H14 C14 1_555 1_555
C15 N1 1_555 1_555
H15 C15 1_555 1_555
C16 N2 1_555 1_555
H16 C16 1_555 1_555
C17 N3 1_555 1_555
H17 C17 1_555 1_555
C18 N4 1_555 1_555
H18 C18 1_555 1_555
C19 N5 1_555 1_555
H19 C19 1_555 1_555
C20 N6 1_555 1_555
H20 C20 1_555 1_555
C21 N7 1_555 1_555
H21 C21 1_555 1_555
C22 N8 1_555 1_555
H22 C22 1_555 1_555
C23 N9 1_555 1_555
H23 C23 1_555 1_555
C24 N10 1_555 1_555
H24 C24 1_555 1_555
C25 N11 1_555 1_555
H25 C25 1_555 1_555
C26 N12 1_555 1_555
H26 C26 1_555 1_555
C27 N13 1_555 1_555
H27 C27 1_555 1_555
C28 N14 1_555 1_555
H28 C28 1_555 1_555
C29 N15 1_555 1_555
C30 N16 1_555 1_555
H29 C30 1_555 1_555
H30 C30 1_555 1_555
C31 N17 1_555 1_555
C32 N18 1_555 1_555
H31 C32 1_555 1_555
H32 C32 1_555 1_555
C33 N19 1_555 1_555
C34 N20 1_555 1_555
H33 C34 1_555 1_555
H34 C34 1_555 1_555
C35 N21 1_555 1_555
C36 N22 1_555 1_555
H35 C36 1_555 1_555
H36 C36 1_555 1_555
C37 N23 1_555 1_555
C38 N24 1_555 1_555
H37 C38 1_555 1_555
H38 C38 1_555 1_555
C39 N25 1_555 1_555
C40 N26 1_555 1_555
H39 C40 1_555 1_555
H40 C40 1_555 1_555
C41 N27 1_555 1_555
C42 N15 1_555 1_555
H41 C42 1_555 1_555
H42 C42 1_555 1_555
O15 C43 1_555 1_555
O16 C45 1_555 1_555
O17 C47 1_555 1_555
O18 C49 1_555 1_555
O19 C51 1_555 1_555
O20 C53 1_555 1_555
O21 C55 1_555 1_555
O22 C71 1_555 1_555
O23 C73 1_555 1_555
O24 C75 1_555 1_555
O25 C77 1_555 1_555
O26 C79 1_555 1_555
O27 C81 1_555 1_555
O28 C83 1_555 1_555
N29 C43 1_555 1_555
N30 C43 1_555 1_555
N31 C44 1_555 1_555
N32 C45 1_555 1_555
N33 C46 1_555 1_555
N34 C47 1_555 1_555
N35 C48 1_555 1_555
N36 C49 1_555 1_555
N37 C50 1_555 1_555
N38 C51 1_555 1_555
N39 C52 1_555 1_555
N40 C53 1_555 1_555
N41 C54 1_555 1_555
N42 C55 1_555 1_555
N43 C57 1_555 1_555
N44 C58 1_555 1_555
N45 C59 1_555 1_555
N46 C60 1_555 1_555
N47 C61 1_555 1_555
N48 C62 1_555 1_555
N49 C63 1_555 1_555
N50 C64 1_555 1_555
N51 C65 1_555 1_555
N52 C66 1_555 1_555
N53 C67 1_555 1_555
N54 C68 1_555 1_555
N55 C69 1_555 1_555
N56 C70 1_555 1_555
C44 N30 1_555 1_555
H43 C44 1_555 1_555
H44 C44 1_555 1_555
C45 N31 1_555 1_555
C46 N32 1_555 1_555
H45 C46 1_555 1_555
H46 C46 1_555 1_555
C47 N33 1_555 1_555
C48 N34 1_555 1_555
H47 C48 1_555 1_555
H48 C48 1_555 1_555
C49 N35 1_555 1_555
C50 N36 1_555 1_555
H49 C50 1_555 1_555
H50 C50 1_555 1_555
C51 N37 1_555 1_555
C52 N38 1_555 1_555
H51 C52 1_555 1_555
H52 C52 1_555 1_555
C53 N39 1_555 1_555
C54 N40 1_555 1_555
H53 C54 1_555 1_555
H54 C54 1_555 1_555
C55 N41 1_555 1_555
C56 N29 1_555 1_555
H55 C56 1_555 1_555
H56 C56 1_555 1_555
C57 N29 1_555 1_555
H57 C57 1_555 1_555
C58 N30 1_555 1_555
H58 C58 1_555 1_555
C59 N31 1_555 1_555
H59 C59 1_555 1_555
C60 N32 1_555 1_555
H60 C60 1_555 1_555
C61 N33 1_555 1_555
H61 C61 1_555 1_555
C62 N34 1_555 1_555
H62 C62 1_555 1_555
C63 N35 1_555 1_555
H63 C63 1_555 1_555
C64 N36 1_555 1_555
H64 C64 1_555 1_555
C65 N37 1_555 1_555
H65 C65 1_555 1_555
C66 N38 1_555 1_555
H66 C66 1_555 1_555
C67 N39 1_555 1_555
H67 C67 1_555 1_555
C68 N40 1_555 1_555
H68 C68 1_555 1_555
C69 N41 1_555 1_555
H69 C69 1_555 1_555
C70 N42 1_555 1_555
H70 C70 1_555 1_555
C71 N43 1_555 1_555
C72 N44 1_555 1_555
H71 C72 1_555 1_555
H72 C72 1_555 1_555
C73 N45 1_555 1_555
C74 N46 1_555 1_555
H73 C74 1_555 1_555
H74 C74 1_555 1_555
C75 N47 1_555 1_555
C76 N48 1_555 1_555
H75 C76 1_555 1_555
H76 C76 1_555 1_555
C77 N49 1_555 1_555
C78 N50 1_555 1_555
H77 C78 1_555 1_555
H78 C78 1_555 1_555
C79 N51 1_555 1_555
C80 N52 1_555 1_555
H79 C80 1_555 1_555
H80 C80 1_555 1_555
C81 N53 1_555 1_555
C82 N54 1_555 1_555
H81 C82 1_555 1_555
H82 C82 1_555 1_555
C83 N55 1_555 1_555
C84 N43 1_555 1_555
H83 C84 1_555 1_555
H84 C84 1_555 1_555
N57 H85 1_555 1_555
H86 N57 1_555 1_555
C85 H87 1_555 1_555
C86 C85 1_555 1_555
H88 C86 1_555 1_555
C87 C85 1_555 1_555
H89 C87 1_555 1_555
C88 C86 1_555 1_555
H90 C88 1_555 1_555
C89 C87 1_555 1_555
H91 C89 1_555 1_555
C90 C88 1_555 1_555
C91 C90 1_555 1_555
H92 C91 1_555 1_555
H93 C91 1_555 1_555
C92 N57 1_555 1_555
H94 C92 1_555 1_555
C93 C92 1_555 1_555
H95 C93 1_555 1_555
H96 C93 1_555 1_555
H97 C93 1_555 1_555
C94 N57 1_555 1_555
H98 C94 1_555 1_555
H99 C94 1_555 1_555
H100 C94 1_555 1_555
N58 H101 1_555 1_555
H102 N58 1_555 1_555
C95 H103 1_555 1_555
C96 C95 1_555 1_555
H104 C96 1_555 1_555
C97 C95 1_555 1_555
H105 C97 1_555 1_555
C98 C96 1_555 1_555
H106 C98 1_555 1_555
C99 C97 1_555 1_555
H107 C99 1_555 1_555
C100 C98 1_555 1_555
C101 C100 1_555 1_555
H108 C101 1_555 1_555
H109 C101 1_555 1_555
C102 N58 1_555 1_555
H110 C102 1_555 1_555
C103 C102 1_555 1_555
H111 C103 1_555 1_555
H112 C103 1_555 1_555
H113 C103 1_555 1_555
C104 N58 1_555 1_555
H114 C104 1_555 1_555
H115 C104 1_555 1_555
H116 C104 1_555 1_555
P1 O32 1_555 1_555
O33 P1 1_555 1_555
O34 P1 1_555 1_555
O35 P1 1_555 1_555
P2 O36 1_555 1_555
O37 P2 1_555 1_555
O38 P2 1_555 1_555
O39 P2 1_555 1_555
O42 C105 1_555 1_555
P3 O48 1_555 1_555
O49 P3 1_555 1_555
O50 P3 1_555 1_555
O51 P3 1_555 1_555
O63 C106 1_555 1_555
N14 C14 1_555 1_555
N16 C29 1_555 1_555
N17 C30 1_555 1_555
N18 C31 1_555 1_555
N19 C32 1_555 1_555
N20 C33 1_555 1_555
N21 C34 1_555 1_555
N22 C35 1_555 1_555
N23 C36 1_555 1_555
N24 C37 1_555 1_555
N25 C38 1_555 1_555
N26 C39 1_555 1_555
N27 C40 1_555 1_555
N28 C41 1_555 1_555
N28 C42 1_555 1_555
C15 C16 1_555 1_555
C17 C18 1_555 1_555
C19 C20 1_555 1_555
C21 C22 1_555 1_555
C23 C24 1_555 1_555
C25 C26 1_555 1_555
C27 C28 1_555 1_555
N42 C56 1_555 1_555
N44 C71 1_555 1_555
N45 C72 1_555 1_555
N46 C73 1_555 1_555
N47 C74 1_555 1_555
N48 C75 1_555 1_555
N49 C76 1_555 1_555
N50 C77 1_555 1_555
N51 C78 1_555 1_555
N52 C79 1_555 1_555
N53 C80 1_555 1_555
N54 C81 1_555 1_555
N55 C82 1_555 1_555
N56 C83 1_555 1_555
N56 C84 1_555 1_555
C57 C58 1_555 1_555
C59 C60 1_555 1_555
C61 C62 1_555 1_555
C63 C64 1_555 1_555
C65 C66 1_555 1_555
C67 C68 1_555 1_555
C69 C70 1_555 1_555
C89 C90 1_555 1_555
C91 C92 1_555 1_555
C99 C100 1_555 1_555
C101 C102 1_555 1_555

#END
