
#######################################################################
#
#                 Cambridge Crystallographic Data Centre
#                                CCDC 
#
#######################################################################
#
# If this CIF has been generated from an entry in the Cambridge 
# Structural Database, then it will include bibliographic, chemical, 
# crystal, experimental, refinement or atomic coordinate data resulting 
# from the CCDC's data processing and validation procedures.
#
#######################################################################

data_REHFUF
_chemical_formula_moiety         'C21 H16 O1'
_chemical_name_systematic        10-Benzoyl-9,10-dihydroanthracene
_symmetry_cell_setting           monoclinic
_symmetry_space_group_name_H-M   'P 21/c'
_symmetry_Int_Tables_number      14
_space_group_name_Hall           '-P 2ybc'
loop_
_symmetry_equiv_pos_site_id
_symmetry_equiv_pos_as_xyz
1 x,y,z
2 x,1/2-y,1/2+z
3 -x,-y,-z
4 -x,1/2+y,1/2-z
_cell_length_a                   15.671(11)
_cell_length_b                   11.241(13)
_cell_length_c                   16.726(8)
_cell_angle_alpha                90
_cell_angle_beta                 90.640(10)
_cell_angle_gamma                90
_cell_volume                     2946.23
_exptl_crystal_colour            colorless
_cell_formula_units_Z            8
loop_
_atom_site_label
_atom_site_type_symbol
_atom_site_fract_x
_atom_site_fract_y
_atom_site_fract_z
O1 O 0.3434(5) 0.6986(7) 0.0413(5)
C1 C 0.1856(6) 0.4127(11) 0.1053(5)
H1 H 0.2055(6) 0.3324(11) 0.0994(5)
C2 C 0.1001(6) 0.4403(11) 0.0900(6)
H2 H 0.0613(6) 0.3813(11) 0.0697(6)
C3 C 0.0719(7) 0.5544(13) 0.1033(6)
H3 H 0.0128(7) 0.5738(13) 0.0951(6)
C4 C 0.1276(6) 0.6413(11) 0.1280(6)
H4 H 0.1086(6) 0.7217(11) 0.1354(6)
C5 C 0.2136(7) 0.6131(10) 0.1413(6)
C6 C 0.3856(7) 0.7388(11) 0.2777(7)
H5 H 0.3659(7) 0.8189(11) 0.2851(7)
C7 C 0.4525(7) 0.6948(14) 0.3238(7)
H6 H 0.4796(7) 0.7437(14) 0.3637(7)
C8 C 0.4814(8) 0.5803(13) 0.3123(8)
H7 H 0.5278(8) 0.5509(13) 0.3445(8)
C9 C 0.4436(6) 0.5075(12) 0.2555(7)
H8 H 0.4619(6) 0.4268(12) 0.2483(7)
C10 C 0.3755(6) 0.5526(11) 0.2078(6)
C11 C 0.3348(5) 0.4702(10) 0.1471(6)
H9 H 0.3396(5) 0.3899(10) 0.1663(6)
H10 H 0.3656(5) 0.4760(10) 0.0980(6)
C12 C 0.2424(6) 0.4986(10) 0.1305(6)
C13 C 0.2746(6) 0.7129(10) 0.1666(6)
H11 H 0.2431(6) 0.7735(10) 0.1938(6)
C14 C 0.3473(6) 0.6680(11) 0.2200(6)
C15 C 0.3177(6) 0.7683(10) 0.0912(6)
C16 C 0.3262(6) 0.8964(10) 0.0835(6)
C17 C 0.3725(6) 0.9375(12) 0.0184(6)
H12 H 0.3992(6) 0.8814(12) -0.0166(6)
C18 C 0.3809(7) 1.0575(11) 0.0048(7)
H13 H 0.4117(7) 1.0844(11) -0.0411(7)
C19 C 0.3446(7) 1.1402(11) 0.0536(7)
H14 H 0.3506(7) 1.2238(11) 0.0434(7)
C20 C 0.2989(7) 1.1005(11) 0.1205(7)
H15 H 0.2734(7) 1.1563(11) 0.1565(7)
C21 C 0.2904(6) 0.9809(10) 0.1346(7)
H16 H 0.2601(6) 0.9529(10) 0.1805(7)
O2 O 0.1031(5) 0.2162(7) 0.4325(4)
C22 C 0.0997(7) -0.0842(10) 0.2882(6)
H17 H 0.1042(7) -0.1614(10) 0.3123(6)
C23 C 0.0431(7) -0.0642(13) 0.2239(6)
H18 H 0.0096(7) -0.1280(13) 0.2018(6)
C24 C 0.0360(7) 0.0480(12) 0.1919(7)
H19 H -0.0027(7) 0.0621(12) 0.1480(7)
C25 C 0.0840(6) 0.1390(11) 0.2222(6)
H20 H 0.0778(6) 0.2179(11) 0.2009(6)
C26 C 0.1415(6) 0.1196(10) 0.2852(6)
C27 C 0.3508(6) 0.2503(11) 0.3428(6)
H21 H 0.3445(6) 0.3268(11) 0.3179(6)
C28 C 0.4295(6) 0.2107(11) 0.3730(6)
H22 H 0.4797(6) 0.2591(11) 0.3683(6)
C29 C 0.4347(7) 0.0992(11) 0.4084(7)
H23 H 0.4882(7) 0.0736(11) 0.4312(7)
C30 C 0.3632(6) 0.0274(10) 0.4145(5)
H24 H 0.3687(6) -0.0502(10) 0.4379(5)
C31 C 0.2851(6) 0.0663(11) 0.3841(6)
C32 C 0.1483(6) 0.0088(10) 0.3175(6)
C33 C 0.2093(6) -0.0155(10) 0.3877(6)
H25 H 0.1798(6) -0.0037(10) 0.4371(6)
H26 H 0.2288(6) -0.0964(10) 0.3857(6)
C34 C 0.2792(6) 0.1748(9) 0.3501(5)
C35 C 0.1925(6) 0.2194(10) 0.3187(6)
H27 H 0.2024(6) 0.2764(10) 0.2771(6)
C36 C 0.1472(6) 0.2822(11) 0.3901(6)
C37 C 0.1533(6) 0.4070(9) 0.4065(6)
C38 C 0.1897(6) 0.4905(11) 0.3569(7)
H28 H 0.2126(6) 0.4623(11) 0.3074(7)
C39 C 0.1920(7) 0.6090(11) 0.3749(7)
H29 H 0.2193(7) 0.6627(11) 0.3386(7)
C40 C 0.1574(6) 0.6502(11) 0.4433(7)
H30 H 0.1588(6) 0.7334(11) 0.4561(7)
C41 C 0.1199(7) 0.5680(11) 0.4961(7)
H31 H 0.0941(7) 0.5951(11) 0.5446(7)
C42 C 0.1182(6) 0.4497(10) 0.4771(6)
H32 H 0.0933(6) 0.3933(10) 0.5131(6)
loop_
_geom_bond_atom_site_label_1
_geom_bond_atom_site_label_2
_geom_bond_site_symmetry_1
_geom_bond_site_symmetry_2
O1 C15 1_555 1_555
C1 H1 1_555 1_555
C2 C1 1_555 1_555
H2 C2 1_555 1_555
C3 C2 1_555 1_555
H3 C3 1_555 1_555
C4 C3 1_555 1_555
H4 C4 1_555 1_555
C5 C4 1_555 1_555
C6 H5 1_555 1_555
C7 C6 1_555 1_555
H6 C7 1_555 1_555
C8 C7 1_555 1_555
H7 C8 1_555 1_555
C9 C8 1_555 1_555
H8 C9 1_555 1_555
C10 C9 1_555 1_555
C11 C10 1_555 1_555
H9 C11 1_555 1_555
H10 C11 1_555 1_555
C12 C1 1_555 1_555
C13 C5 1_555 1_555
H11 C13 1_555 1_555
C14 C6 1_555 1_555
C15 C13 1_555 1_555
C16 C15 1_555 1_555
C17 C16 1_555 1_555
H12 C17 1_555 1_555
C18 C17 1_555 1_555
H13 C18 1_555 1_555
C19 C18 1_555 1_555
H14 C19 1_555 1_555
C20 C19 1_555 1_555
H15 C20 1_555 1_555
C21 C16 1_555 1_555
H16 C21 1_555 1_555
O2 C36 1_555 1_555
C22 H17 1_555 1_555
C23 C22 1_555 1_555
H18 C23 1_555 1_555
C24 C23 1_555 1_555
H19 C24 1_555 1_555
C25 C24 1_555 1_555
H20 C25 1_555 1_555
C26 C25 1_555 1_555
C27 H21 1_555 1_555
C28 C27 1_555 1_555
H22 C28 1_555 1_555
C29 C28 1_555 1_555
H23 C29 1_555 1_555
C30 C29 1_555 1_555
H24 C30 1_555 1_555
C31 C30 1_555 1_555
C32 C22 1_555 1_555
C33 C31 1_555 1_555
H25 C33 1_555 1_555
H26 C33 1_555 1_555
C34 C27 1_555 1_555
C35 C26 1_555 1_555
H27 C35 1_555 1_555
C36 C35 1_555 1_555
C37 C36 1_555 1_555
C38 C37 1_555 1_555
H28 C38 1_555 1_555
C39 C38 1_555 1_555
H29 C39 1_555 1_555
C40 C39 1_555 1_555
H30 C40 1_555 1_555
C41 C40 1_555 1_555
H31 C41 1_555 1_555
C42 C37 1_555 1_555
H32 C42 1_555 1_555
C5 C12 1_555 1_555
C10 C14 1_555 1_555
C11 C12 1_555 1_555
C13 C14 1_555 1_555
C20 C21 1_555 1_555
C26 C32 1_555 1_555
C31 C34 1_555 1_555
C32 C33 1_555 1_555
C34 C35 1_555 1_555
C41 C42 1_555 1_555

#END
