
#######################################################################
#
#                 Cambridge Crystallographic Data Centre
#                                CCDC 
#
#######################################################################
#
# If this CIF has been generated from an entry in the Cambridge 
# Structural Database, then it will include bibliographic, chemical, 
# crystal, experimental, refinement or atomic coordinate data resulting 
# from the CCDC's data processing and validation procedures.
#
#######################################################################

data_REHFIV
_chemical_name_common            
(Z)-4-phenyl-1-(pyridine-2-ylmethylene)semicarbazide
_chemical_formula_moiety         'C13 H12 N4 O1'
_chemical_name_systematic        
(Z)-N-Phenyl-2-(pyridin-2-ylmethylene)hydrazinecarboxamide
_symmetry_cell_setting           monoclinic
_symmetry_space_group_name_H-M   'P 21/c'
_symmetry_Int_Tables_number      14
_space_group_name_Hall           '-P 2ybc'
loop_
_symmetry_equiv_pos_site_id
_symmetry_equiv_pos_as_xyz
1 x,y,z
2 -x,1/2+y,1/2-z
3 -x,-y,-z
4 x,1/2-y,1/2+z
_cell_length_a                   22.602(8)
_cell_length_b                   5.5689(19)
_cell_length_c                   20.209(7)
_cell_angle_alpha                90
_cell_angle_beta                 109.720(6)
_cell_angle_gamma                90
_cell_volume                     2394.49
_exptl_crystal_colour            yellow
_exptl_crystal_description       block
_cell_formula_units_Z            8
loop_
_atom_site_label
_atom_site_type_symbol
_atom_site_fract_x
_atom_site_fract_y
_atom_site_fract_z
C1 C 0.17511(11) 0.8851(5) 0.33631(13)
C2 C 0.16805(13) 1.0591(5) 0.28570(13)
H1 H 0.1454 1.1981 0.2862
C3 C 0.19490(15) 1.0255(6) 0.23431(14)
H2 H 0.1896 1.1420 0.1998
C4 C 0.22925(14) 0.8232(6) 0.23319(15)
H3 H 0.2480 0.8037 0.1991
C5 C 0.23535(14) 0.6502(6) 0.28349(15)
H4 H 0.2579 0.5111 0.2829
C6 C 0.20863(14) 0.6797(5) 0.33468(15)
H5 H 0.2131 0.5609 0.3684
C7 C 0.12174(12) 1.0979(5) 0.40885(13)
C8 C 0.10959(12) 0.8463(5) 0.56376(13)
H6 H 0.1242 0.7070 0.5895
C9 C 0.07436(12) 1.0074(5) 0.59410(12)
C10 C 0.06690(13) 0.9460(6) 0.65733(13)
H7 H 0.0855 0.8081 0.6814
C11 C 0.03127(15) 1.0938(6) 0.68374(14)
H8 H 0.0248 1.0544 0.7255
C12 C 0.00558(15) 1.2971(6) 0.64849(14)
H9 H -0.0185 1.3989 0.6657
C13 C 0.01602(14) 1.3482(5) 0.58725(14)
H10 H -0.0016 1.4876 0.5633
N1 N 0.14994(11) 0.9068(4) 0.39134(11)
H11 H 0.1531 0.7813 0.4171
N2 N 0.10613(10) 1.0678(4) 0.46833(10)
H12 H 0.0852 1.1776 0.4807
N3 N 0.12351(10) 0.8659(4) 0.50771(11)
N4 N 0.05002(10) 1.2104(4) 0.55965(10)
O1 O 0.10969(10) 1.2868(4) 0.37694(10)
C14 C 0.64769(13) 0.9340(5) 0.82826(14)
C15 C 0.65614(14) 1.1252(5) 0.87437(16)
H13 H 0.6280 1.2530 0.8631
C16 C 0.70549(16) 1.1275(6) 0.93630(17)
H14 H 0.7103 1.2558 0.9671
C17 C 0.74796(16) 0.9424(6) 0.95337(18)
H15 H 0.7819 0.9459 0.9952
C18 C 0.73991(15) 0.7526(6) 0.90827(17)
H16 H 0.7682 0.6255 0.9200
C19 C 0.69042(14) 0.7471(5) 0.84571(16)
H17 H 0.6858 0.6178 0.8152
C20 C 0.57669(16) 0.7747(6) 0.71539(17)
C21 C 0.45250(15) 1.1190(6) 0.60462(17)
H18 H 0.4341 1.2654 0.6085
C22 C 0.42674(13) 1.0060(6) 0.53540(15)
C23 C 0.37833(15) 1.1183(6) 0.48336(19)
H19 H 0.3610 1.2599 0.4930
C24 C 0.35614(16) 1.0181(7) 0.41713(19)
H20 H 0.3237 1.0910 0.3815
C25 C 0.38254(16) 0.8102(7) 0.40488(19)
H21 H 0.3688 0.7396 0.3606
C26 C 0.42960(15) 0.7074(6) 0.45897(17)
H22 H 0.4472 0.5656 0.4500
N5 N 0.59610(11) 0.9436(4) 0.76573(13)
H23 H 0.5742 1.0732 0.7587
N6 N 0.52342(12) 0.8351(5) 0.66087(14)
H24 H 0.5075 0.7358 0.6269
N7 N 0.49580(12) 1.0517(5) 0.66065(14)
N8 N 0.45170(11) 0.7972(4) 0.52348(13)
O2 O 0.60199(12) 0.5827(5) 0.71493(13)
loop_
_geom_bond_atom_site_label_1
_geom_bond_atom_site_label_2
_geom_bond_site_symmetry_1
_geom_bond_site_symmetry_2
C1 C2 1_555 1_555
C2 H1 1_555 1_555
C3 C2 1_555 1_555
H2 C3 1_555 1_555
C4 C3 1_555 1_555
H3 C4 1_555 1_555
C5 C4 1_555 1_555
H4 C5 1_555 1_555
C6 C1 1_555 1_555
H5 C6 1_555 1_555
C7 N1 1_555 1_555
C8 H6 1_555 1_555
C9 C8 1_555 1_555
C10 C9 1_555 1_555
H7 C10 1_555 1_555
C11 C10 1_555 1_555
H8 C11 1_555 1_555
C12 C11 1_555 1_555
H9 C12 1_555 1_555
C13 C12 1_555 1_555
H10 C13 1_555 1_555
N1 C1 1_555 1_555
H11 N1 1_555 1_555
N2 C7 1_555 1_555
H12 N2 1_555 1_555
N3 C8 1_555 1_555
N4 C9 1_555 1_555
O1 C7 1_555 1_555
C14 C15 1_555 1_555
C15 H13 1_555 1_555
C16 C15 1_555 1_555
H14 C16 1_555 1_555
C17 C16 1_555 1_555
H15 C17 1_555 1_555
C18 C17 1_555 1_555
H16 C18 1_555 1_555
C19 C14 1_555 1_555
H17 C19 1_555 1_555
C20 N5 1_555 1_555
C21 H18 1_555 1_555
C22 C21 1_555 1_555
C23 C22 1_555 1_555
H19 C23 1_555 1_555
C24 C23 1_555 1_555
H20 C24 1_555 1_555
C25 C24 1_555 1_555
H21 C25 1_555 1_555
C26 C25 1_555 1_555
H22 C26 1_555 1_555
N5 C14 1_555 1_555
H23 N5 1_555 1_555
N6 C20 1_555 1_555
H24 N6 1_555 1_555
N7 C21 1_555 1_555
N8 C22 1_555 1_555
O2 C20 1_555 1_555
C5 C6 1_555 1_555
C13 N4 1_555 1_555
N2 N3 1_555 1_555
C18 C19 1_555 1_555
C26 N8 1_555 1_555
N6 N7 1_555 1_555

#END
