
#######################################################################
#
#                 Cambridge Crystallographic Data Centre
#                                CCDC 
#
#######################################################################
#
# If this CIF has been generated from an entry in the Cambridge 
# Structural Database, then it will include bibliographic, chemical, 
# crystal, experimental, refinement or atomic coordinate data resulting 
# from the CCDC's data processing and validation procedures.
#
#######################################################################

data_REHJAQ
_chemical_formula_moiety         'C44 H32 N2'
_chemical_name_systematic        
N,N'-bis(1-naphthyl)-N,N'-diphenyl-1,1'-biphenyl-4,4'-diamine
_symmetry_cell_setting           triclinic
_symmetry_space_group_name_H-M   'P -1'
_symmetry_Int_Tables_number      2
_space_group_name_Hall           '-P 1'
loop_
_symmetry_equiv_pos_site_id
_symmetry_equiv_pos_as_xyz
1 x,y,z
2 -x,-y,-z
_cell_length_a                   10.3089(9)
_cell_length_b                   11.3382(10)
_cell_length_c                   14.5056(13)
_cell_angle_alpha                82.3780(10)
_cell_angle_beta                 77.671(2)
_cell_angle_gamma                75.5650(10)
_cell_volume                     1598.43
_exptl_crystal_colour            yellow
_exptl_crystal_description       needle
_cell_formula_units_Z            2
_exptl_crystal_recrystallization_method ethanol
loop_
_atom_site_label
_atom_site_type_symbol
_atom_site_fract_x
_atom_site_fract_y
_atom_site_fract_z
C1 C 0.41040(17) 0.62586(16) 0.31713(13)
H1 H 0.3561 0.6972 0.2938
C2 C 0.5431(2) 0.6213(2) 0.31879(17)
H2 H 0.5787 0.6897 0.2964
C3 C 0.6262(2) 0.5152(3) 0.35366(19)
H3 H 0.7164 0.5137 0.3550
C4 C 0.5772(2) 0.4157(2) 0.38521(15)
H4 H 0.6341 0.3457 0.4080
C5 C 0.44089(17) 0.41486(16) 0.38466(11)
C6 C 0.3886(2) 0.30983(17) 0.41437(13)
H5 H 0.4450 0.2385 0.4357
C7 C 0.2582(2) 0.31074(16) 0.41247(13)
H6 H 0.2258 0.2401 0.4318
C8 C 0.17137(17) 0.41790(14) 0.38143(12)
H7 H 0.0811 0.4180 0.3814
C9 C 0.21719(14) 0.52175(12) 0.35127(10)
C10 C 0.35466(14) 0.52274(13) 0.35069(10)
C11 C 0.07005(14) 0.62887(11) 0.23901(9)
C12 C 0.15249(15) 0.58513(13) 0.15738(10)
H8 H 0.2449 0.5523 0.1562
C13 C 0.09919(17) 0.58950(15) 0.07715(11)
H9 H 0.1562 0.5596 0.0223
C14 C -0.03615(18) 0.63710(16) 0.07724(12)
H10 H -0.0712 0.6412 0.0226
C15 C -0.11943(17) 0.67864(17) 0.15871(13)
H11 H -0.2119 0.7107 0.1595
C16 C -0.06782(15) 0.67354(15) 0.23990(12)
H12 H -0.1259 0.7002 0.2953
C17 C 0.09035(13) 0.73389(11) 0.37175(9)
C18 C 0.04489(15) 0.84910(12) 0.32941(10)
H13 H 0.0377 0.8579 0.2659
C19 C 0.01016(14) 0.95077(12) 0.37903(9)
H14 H -0.0208 1.0266 0.3481
C20 C 0.01938(12) 0.94475(11) 0.47352(8)
C21 C 0.06817(17) 0.82849(13) 0.51459(10)
H15 H 0.0780 0.8199 0.5776
C22 C 0.10255(17) 0.72559(13) 0.46563(10)
H16 H 0.1344 0.6496 0.4961
N1 N 0.12645(12) 0.62980(10) 0.32012(8)
C1A C -0.41040(17) 1.37414(16) 0.68287(13)
H1A H -0.3561 1.3028 0.7062
C2A C -0.5431(2) 1.3787(2) 0.68121(17)
H2A H -0.5787 1.3103 0.7036
C3A C -0.6262(2) 1.4848(3) 0.64634(19)
H3A H -0.7164 1.4863 0.6450
C4A C -0.5772(2) 1.5843(2) 0.61479(15)
H4A H -0.6341 1.6543 0.5920
C5A C -0.44089(17) 1.58514(16) 0.61534(11)
C6A C -0.3886(2) 1.69017(17) 0.58563(13)
H5A H -0.4450 1.7615 0.5643
C7A C -0.2582(2) 1.68926(16) 0.58753(13)
H6A H -0.2258 1.7599 0.5682
C8A C -0.17137(17) 1.58210(14) 0.61857(12)
H7A H -0.0811 1.5820 0.6186
C9A C -0.21719(14) 1.47825(12) 0.64873(10)
C10A C -0.35466(14) 1.47726(13) 0.64931(10)
C11A C -0.07005(14) 1.37113(11) 0.76099(9)
C12A C -0.15249(15) 1.41487(13) 0.84262(10)
H8A H -0.2449 1.4477 0.8438
C13A C -0.09919(17) 1.41050(15) 0.92285(11)
H9A H -0.1562 1.4404 0.9777
C14A C 0.03615(18) 1.36290(16) 0.92276(12)
H10A H 0.0712 1.3588 0.9774
C15A C 0.11943(17) 1.32136(17) 0.84129(13)
H11A H 0.2119 1.2893 0.8405
C16A C 0.06782(15) 1.32646(15) 0.76010(12)
H12A H 0.1259 1.2998 0.7047
C17A C -0.09035(13) 1.26611(11) 0.62825(9)
C18A C -0.04489(15) 1.15090(12) 0.67059(10)
H13A H -0.0377 1.1421 0.7341
C19A C -0.01016(14) 1.04923(12) 0.62097(9)
H14A H 0.0208 0.9734 0.6519
C20A C -0.01938(12) 1.05525(11) 0.52648(8)
C21A C -0.06817(17) 1.17151(13) 0.48541(10)
H15A H -0.0780 1.1801 0.4224
C22A C -0.10255(17) 1.27441(13) 0.53437(10)
H16A H -0.1344 1.3504 0.5039
N1A N -0.12645(12) 1.37020(10) 0.67988(8)
C23 C 0.28870(14) 0.06342(12) 0.13774(10)
C24 C 0.32630(19) -0.04746(14) 0.10105(12)
H17 H 0.4175 -0.0888 0.0925
C25 C 0.2324(3) -0.10004(18) 0.07629(13)
H18 H 0.2606 -0.1759 0.0517
C26 C 0.1000(2) -0.04088(19) 0.08796(12)
H19 H 0.0375 -0.0765 0.0708
C27 C 0.05368(16) 0.07575(16) 0.12622(10)
C28 C -0.0831(2) 0.1400(3) 0.14090(14)
H20 H -0.1473 0.1075 0.1228
C29 C -0.12430(19) 0.2470(3) 0.18023(16)
H21 H -0.2161 0.2865 0.1900
C30 C -0.02962(17) 0.29955(19) 0.20655(13)
H22 H -0.0588 0.3742 0.2331
C31 C 0.10469(14) 0.24200(14) 0.19356(11)
H23 H 0.1669 0.2770 0.2117
C32 C 0.15002(13) 0.12874(13) 0.15242(9)
C33 C 0.45866(13) 0.04461(11) 0.23532(10)
C34 C 0.38887(17) -0.00181(14) 0.31808(11)
H24 H 0.2947 0.0089 0.3273
C35 C 0.4589(2) -0.06424(17) 0.38726(14)
H25 H 0.4115 -0.0959 0.4431
C36 C 0.5970(2) -0.08016(18) 0.37480(17)
H26 H 0.6432 -0.1202 0.4227
C37 C 0.6666(2) -0.03718(17) 0.29197(18)
H27 H 0.7608 -0.0488 0.2829
C38 C 0.59859(16) 0.02323(15) 0.22177(14)
H28 H 0.6473 0.0500 0.1645
C39 C 0.42173(12) 0.22089(11) 0.11699(9)
C40 C 0.39261(14) 0.26281(12) 0.02784(10)
H29 H 0.3518 0.2181 -0.0020
C41 C 0.42363(14) 0.37048(12) -0.01718(9)
H30 H 0.4032 0.3962 -0.0771
C42 C 0.48434(11) 0.44171(10) 0.02383(9)
C43 C 0.51196(13) 0.39799(11) 0.11371(9)
H31 H 0.5525 0.4426 0.1439
C44 C 0.48138(13) 0.29122(12) 0.15930(10)
H32 H 0.5010 0.2657 0.2194
N2 N 0.38804(11) 0.11247(10) 0.16463(9)
C23A C 0.71130(14) 0.93658(12) -0.13774(10)
C24A C 0.67370(19) 1.04746(14) -0.10105(12)
H17A H 0.5825 1.0888 -0.0925
C25A C 0.7676(3) 1.10004(18) -0.07629(13)
H18A H 0.7394 1.1759 -0.0517
C26A C 0.9000(2) 1.04088(19) -0.08796(12)
H19A H 0.9625 1.0765 -0.0708
C27A C 0.94632(16) 0.92425(16) -0.12622(10)
C28A C 1.0831(2) 0.8600(3) -0.14090(14)
H20A H 1.1473 0.8925 -0.1228
C29A C 1.12430(19) 0.7530(3) -0.18023(16)
H21A H 1.2161 0.7135 -0.1900
C30A C 1.02962(17) 0.70045(19) -0.20655(13)
H22A H 1.0588 0.6258 -0.2331
C31A C 0.89531(14) 0.75800(14) -0.19356(11)
H23A H 0.8331 0.7230 -0.2117
C32A C 0.84998(13) 0.87126(13) -0.15242(9)
C33A C 0.54134(13) 0.95539(11) -0.23532(10)
C34A C 0.61113(17) 1.00181(14) -0.31808(11)
H24A H 0.7053 0.9911 -0.3273
C35A C 0.5411(2) 1.06424(17) -0.38726(14)
H25A H 0.5885 1.0959 -0.4431
C36A C 0.4030(2) 1.08016(18) -0.37480(17)
H26A H 0.3568 1.1202 -0.4227
C37A C 0.3334(2) 1.03718(17) -0.29197(18)
H27A H 0.2392 1.0488 -0.2829
C38A C 0.40141(16) 0.97677(15) -0.22177(14)
H28A H 0.3527 0.9500 -0.1645
C39A C 0.57827(12) 0.77911(11) -0.11699(9)
C40A C 0.60739(14) 0.73719(12) -0.02784(10)
H29A H 0.6482 0.7819 0.0020
C41A C 0.57637(14) 0.62952(12) 0.01718(9)
H30A H 0.5968 0.6038 0.0771
C42A C 0.51566(11) 0.55829(10) -0.02383(9)
C43A C 0.48804(13) 0.60201(11) -0.11371(9)
H31A H 0.4475 0.5574 -0.1439
C44A C 0.51862(13) 0.70878(12) -0.15930(10)
H32A H 0.4990 0.7343 -0.2194
N2A N 0.61196(11) 0.88753(10) -0.16463(9)
loop_
_geom_bond_atom_site_label_1
_geom_bond_atom_site_label_2
_geom_bond_site_symmetry_1
_geom_bond_site_symmetry_2
C1 H1 1_555 1_555
C2 C1 1_555 1_555
H2 C2 1_555 1_555
C3 C2 1_555 1_555
H3 C3 1_555 1_555
C4 C3 1_555 1_555
H4 C4 1_555 1_555
C5 C4 1_555 1_555
C6 C5 1_555 1_555
H5 C6 1_555 1_555
C7 C6 1_555 1_555
H6 C7 1_555 1_555
C8 C7 1_555 1_555
H7 C8 1_555 1_555
C9 C8 1_555 1_555
C10 C1 1_555 1_555
C11 C12 1_555 1_555
C12 H8 1_555 1_555
C13 C12 1_555 1_555
H9 C13 1_555 1_555
C14 C13 1_555 1_555
H10 C14 1_555 1_555
C15 C14 1_555 1_555
H11 C15 1_555 1_555
C16 C11 1_555 1_555
H12 C16 1_555 1_555
C17 C18 1_555 1_555
C18 H13 1_555 1_555
C19 C18 1_555 1_555
H14 C19 1_555 1_555
C20 C19 1_555 1_555
C21 C20 1_555 1_555
H15 C21 1_555 1_555
C22 C17 1_555 1_555
H16 C22 1_555 1_555
C23 C24 1_555 1_555
C24 H17 1_555 1_555
C25 C24 1_555 1_555
H18 C25 1_555 1_555
C26 C25 1_555 1_555
H19 C26 1_555 1_555
C27 C26 1_555 1_555
C28 C27 1_555 1_555
H20 C28 1_555 1_555
C29 C28 1_555 1_555
H21 C29 1_555 1_555
C30 C29 1_555 1_555
H22 C30 1_555 1_555
C31 C30 1_555 1_555
H23 C31 1_555 1_555
C32 C23 1_555 1_555
C33 C34 1_555 1_555
C34 H24 1_555 1_555
C35 C34 1_555 1_555
H25 C35 1_555 1_555
C36 C35 1_555 1_555
H26 C36 1_555 1_555
C37 C36 1_555 1_555
H27 C37 1_555 1_555
C38 C33 1_555 1_555
H28 C38 1_555 1_555
C39 C40 1_555 1_555
C40 H29 1_555 1_555
C41 C40 1_555 1_555
H30 C41 1_555 1_555
C42 C41 1_555 1_555
C43 C42 1_555 1_555
H31 C43 1_555 1_555
C44 C39 1_555 1_555
H32 C44 1_555 1_555
N1 C9 1_555 1_555
N2 C23 1_555 1_555
C1A H1A 1_555 1_555
C2A C1A 1_555 1_555
H2A C2A 1_555 1_555
C3A C2A 1_555 1_555
H3A C3A 1_555 1_555
C4A C3A 1_555 1_555
H4A C4A 1_555 1_555
C5A C4A 1_555 1_555
C6A C5A 1_555 1_555
H5A C6A 1_555 1_555
C7A C6A 1_555 1_555
H6A C7A 1_555 1_555
C8A C7A 1_555 1_555
H7A C8A 1_555 1_555
C9A C8A 1_555 1_555
C10A C1A 1_555 1_555
C11A C12A 1_555 1_555
C12A H8A 1_555 1_555
C13A C12A 1_555 1_555
H9A C13A 1_555 1_555
C14A C13A 1_555 1_555
H10A C14A 1_555 1_555
C15A C14A 1_555 1_555
H11A C15A 1_555 1_555
C16A C11A 1_555 1_555
H12A C16A 1_555 1_555
C17A C18A 1_555 1_555
C18A H13A 1_555 1_555
C19A C18A 1_555 1_555
H14A C19A 1_555 1_555
C20A C20 1_555 1_555
C21A C20A 1_555 1_555
H15A C21A 1_555 1_555
C22A C17A 1_555 1_555
H16A C22A 1_555 1_555
C23A C24A 1_555 1_555
C24A H17A 1_555 1_555
C25A C24A 1_555 1_555
H18A C25A 1_555 1_555
C26A C25A 1_555 1_555
H19A C26A 1_555 1_555
C27A C26A 1_555 1_555
C28A C27A 1_555 1_555
H20A C28A 1_555 1_555
C29A C28A 1_555 1_555
H21A C29A 1_555 1_555
C30A C29A 1_555 1_555
H22A C30A 1_555 1_555
C31A C30A 1_555 1_555
H23A C31A 1_555 1_555
C32A C23A 1_555 1_555
C33A C34A 1_555 1_555
C34A H24A 1_555 1_555
C35A C34A 1_555 1_555
H25A C35A 1_555 1_555
C36A C35A 1_555 1_555
H26A C36A 1_555 1_555
C37A C36A 1_555 1_555
H27A C37A 1_555 1_555
C38A C33A 1_555 1_555
H28A C38A 1_555 1_555
C39A C40A 1_555 1_555
C40A H29A 1_555 1_555
C41A C40A 1_555 1_555
H30A C41A 1_555 1_555
C42A C42 1_555 1_555
C43A C42A 1_555 1_555
H31A C43A 1_555 1_555
C44A C39A 1_555 1_555
H32A C44A 1_555 1_555
N1A C9A 1_555 1_555
N2A C23A 1_555 1_555
C5 C10 1_555 1_555
C9 C10 1_555 1_555
C11 N1 1_555 1_555
C15 C16 1_555 1_555
C17 N1 1_555 1_555
C21 C22 1_555 1_555
C27 C32 1_555 1_555
C31 C32 1_555 1_555
C33 N2 1_555 1_555
C37 C38 1_555 1_555
C39 N2 1_555 1_555
C43 C44 1_555 1_555
C5A C10A 1_555 1_555
C9A C10A 1_555 1_555
C11A N1A 1_555 1_555
C15A C16A 1_555 1_555
C17A N1A 1_555 1_555
C19A C20A 1_555 1_555
C21A C22A 1_555 1_555
C27A C32A 1_555 1_555
C31A C32A 1_555 1_555
C33A N2A 1_555 1_555
C37A C38A 1_555 1_555
C39A N2A 1_555 1_555
C41A C42A 1_555 1_555
C43A C44A 1_555 1_555

#END
