
#######################################################################
#
#                 Cambridge Crystallographic Data Centre
#                                CCDC 
#
#######################################################################
#
# If this CIF has been generated from an entry in the Cambridge 
# Structural Database, then it will include bibliographic, chemical, 
# crystal, experimental, refinement or atomic coordinate data resulting 
# from the CCDC's data processing and validation procedures.
#
#######################################################################

data_REHJOE
_chemical_formula_moiety         'C15 H17 N5 O2'
_chemical_name_systematic        
3-Benzyl-6-isopropyl-5-methoxy-3H-1,2,3-triazolo(4,5-d)pyrimidin-7(6H)-one
_symmetry_cell_setting           triclinic
_symmetry_space_group_name_H-M   'P -1'
_symmetry_Int_Tables_number      2
_space_group_name_Hall           '-P 1'
loop_
_symmetry_equiv_pos_site_id
_symmetry_equiv_pos_as_xyz
1 x,y,z
2 -x,-y,-z
_cell_length_a                   7.0800(8)
_cell_length_b                   8.7574(10)
_cell_length_c                   13.0492(15)
_cell_angle_alpha                102.369(2)
_cell_angle_beta                 103.511(2)
_cell_angle_gamma                92.883(2)
_cell_volume                     764.129
_exptl_crystal_colour            colorless
_exptl_crystal_description       block
_chemical_melting_point          '395 K'
_cell_formula_units_Z            2
_exptl_crystal_recrystallization_method hexane/dichloromethane
loop_
_atom_site_label
_atom_site_type_symbol
_atom_site_fract_x
_atom_site_fract_y
_atom_site_fract_z
C1 C 0.2782(2) 0.61421(19) 0.67208(13)
H1 H 0.3389 0.5764 0.7316
C2 C 0.3776(3) 0.6322(2) 0.59563(15)
H2 H 0.5049 0.6058 0.6037
C3 C 0.2912(3) 0.6883(2) 0.50816(15)
H3 H 0.3598 0.7010 0.4573
C4 C 0.1022(3) 0.7260(2) 0.49561(15)
H4 H 0.0419 0.7629 0.4356
C5 C 0.0026(3) 0.70911(19) 0.57174(13)
H5 H -0.1244 0.7364 0.5634
C6 C 0.0882(2) 0.65220(17) 0.66051(11)
C7 C -0.0293(2) 0.6317(2) 0.74010(12)
H6 H -0.0754 0.7317 0.7662
H7 H -0.1432 0.5574 0.7022
C8 C 0.1750(2) 0.66179(16) 0.93074(11)
C9 C 0.2366(2) 0.55336(15) 0.98909(11)
C10 C 0.3343(2) 0.60378(16) 1.10089(12)
C11 C 0.2999(2) 0.86568(15) 1.06526(11)
C12 C 0.2904(2) 1.12757(17) 1.04446(14)
H8 H 0.3388 1.1017 0.9807
H9 H 0.3434 1.2321 1.0846
H10 H 0.1504 1.1221 1.0238
C13 C 0.4546(3) 0.83833(19) 1.25289(13)
H11 H 0.4702 0.7483 1.2865
C14 C 0.6594(3) 0.9168(2) 1.27075(17)
H12 H 0.7331 0.8462 1.2329
H13 H 0.7223 0.9432 1.3468
H14 H 0.6524 1.0108 1.2439
C15 C 0.3221(3) 0.9396(2) 1.30892(15)
H15 H 0.3245 1.0403 1.2910
H16 H 0.3676 0.9535 1.3860
H17 H 0.1910 0.8887 1.2851
N1 N 0.07521(18) 0.57722(14) 0.83268(10)
N2 N 0.0768(2) 0.42053(15) 0.83065(11)
N3 N 0.1742(2) 0.40548(14) 0.92482(11)
N4 N 0.20552(17) 0.82079(13) 0.96405(10)
N5 N 0.36121(18) 0.77107(13) 1.13574(9)
O1 O 0.38855(17) 0.52165(12) 1.16447(9)
O2 O 0.34870(16) 1.01695(11) 1.11139(9)
loop_
_geom_bond_atom_site_label_1
_geom_bond_atom_site_label_2
_geom_bond_site_symmetry_1
_geom_bond_site_symmetry_2
C1 H1 1_555 1_555
C2 C1 1_555 1_555
H2 C2 1_555 1_555
C3 C2 1_555 1_555
H3 C3 1_555 1_555
C4 C3 1_555 1_555
H4 C4 1_555 1_555
C5 C4 1_555 1_555
H5 C5 1_555 1_555
C6 C1 1_555 1_555
C7 C6 1_555 1_555
H6 C7 1_555 1_555
H7 C7 1_555 1_555
C8 C9 1_555 1_555
C9 C10 1_555 1_555
C10 N5 1_555 1_555
C11 N4 1_555 1_555
C12 H8 1_555 1_555
H9 C12 1_555 1_555
H10 C12 1_555 1_555
C13 H11 1_555 1_555
C14 C13 1_555 1_555
H12 C14 1_555 1_555
H13 C14 1_555 1_555
H14 C14 1_555 1_555
C15 C13 1_555 1_555
H15 C15 1_555 1_555
H16 C15 1_555 1_555
H17 C15 1_555 1_555
N1 C7 1_555 1_555
N2 N1 1_555 1_555
N3 C9 1_555 1_555
N4 C8 1_555 1_555
N5 C11 1_555 1_555
O1 C10 1_555 1_555
O2 C11 1_555 1_555
C5 C6 1_555 1_555
C8 N1 1_555 1_555
C12 O2 1_555 1_555
C13 N5 1_555 1_555
N2 N3 1_555 1_555

#END
