
#######################################################################
#
#                 Cambridge Crystallographic Data Centre
#                                CCDC 
#
#######################################################################
#
# If this CIF has been generated from an entry in the Cambridge 
# Structural Database, then it will include bibliographic, chemical, 
# crystal, experimental, refinement or atomic coordinate data resulting 
# from the CCDC's data processing and validation procedures.
#
#######################################################################

data_REHJUK
_chemical_formula_moiety         'C13 H24 Cl1 P1 Si2'
_chemical_name_systematic        
(bis(trimethylsilyl)methyl)chloro(phenyl)phosphine
_symmetry_cell_setting           triclinic
_symmetry_space_group_name_H-M   'P -1'
_symmetry_Int_Tables_number      2
_space_group_name_Hall           '-P 1'
loop_
_symmetry_equiv_pos_site_id
_symmetry_equiv_pos_as_xyz
1 x,y,z
2 -x,-y,-z
_cell_length_a                   8.5958(19)
_cell_length_b                   9.069(2)
_cell_length_c                   11.794(3)
_cell_angle_alpha                75.783(3)
_cell_angle_beta                 74.661(3)
_cell_angle_gamma                87.322(3)
_cell_volume                     859.334
_exptl_crystal_colour            colorless
_exptl_crystal_description       block
_cell_formula_units_Z            2
loop_
_atom_site_label
_atom_site_type_symbol
_atom_site_fract_x
_atom_site_fract_y
_atom_site_fract_z
Cl1 Cl -0.06285(9) 0.21056(9) 0.78101(8)
P1 P 0.08682(9) 0.34823(9) 0.82975(7)
Si1 Si 0.43776(10) 0.43599(9) 0.77651(8)
Si2 Si 0.34224(10) 0.11649(9) 0.74178(8)
C1 C 0.2875(3) 0.3243(3) 0.7356(2)
H1 H 0.2873 0.3725 0.6516
C2 C 0.0237(3) 0.5321(3) 0.7501(3)
C3 C -0.0574(4) 0.6272(4) 0.8206(3)
H2 H -0.0779 0.5961 0.9045
C4 C -0.1081(4) 0.7678(4) 0.7679(3)
H3 H -0.1627 0.8308 0.8162
C5 C -0.0779(4) 0.8145(3) 0.6439(3)
H4 H -0.1121 0.9092 0.6083
C6 C 0.0026(4) 0.7215(3) 0.5728(3)
H5 H 0.0235 0.7535 0.4889
C7 C 0.0527(3) 0.5805(3) 0.6251(3)
H6 H 0.1063 0.5175 0.5764
C8 C 0.3595(4) 0.6237(4) 0.8023(4)
H7 H 0.4415 0.6778 0.8184
H8 H 0.2662 0.6079 0.8704
H9 H 0.3305 0.6821 0.7314
C9 C 0.6189(4) 0.4776(4) 0.6462(3)
H10 H 0.6950 0.5374 0.6635
H11 H 0.5882 0.5330 0.5752
H12 H 0.6674 0.3838 0.6325
C10 C 0.4883(4) 0.3302(4) 0.9186(3)
H13 H 0.5266 0.2313 0.9103
H14 H 0.3936 0.3196 0.9853
H15 H 0.5706 0.3853 0.9333
C11 C 0.5647(4) 0.0856(4) 0.7051(3)
H16 H 0.6085 0.1144 0.7637
H17 H 0.6147 0.1465 0.6257
H18 H 0.5852 -0.0198 0.7072
C12 C 0.2498(4) -0.0037(3) 0.8958(3)
H19 H 0.1344 0.0003 0.9121
H20 H 0.2841 0.0337 0.9549
H21 H 0.2832 -0.1069 0.8998
C13 C 0.2756(4) 0.0566(4) 0.6217(3)
H22 H 0.3144 -0.0434 0.6173
H23 H 0.3181 0.1270 0.5451
H24 H 0.1599 0.0553 0.6408
loop_
_geom_bond_atom_site_label_1
_geom_bond_atom_site_label_2
_geom_bond_site_symmetry_1
_geom_bond_site_symmetry_2
Cl1 P1 1_555 1_555
P1 C1 1_555 1_555
Si1 C1 1_555 1_555
Si2 C1 1_555 1_555
C1 H1 1_555 1_555
C2 P1 1_555 1_555
C3 C2 1_555 1_555
H2 C3 1_555 1_555
C4 C3 1_555 1_555
H3 C4 1_555 1_555
C5 C4 1_555 1_555
H4 C5 1_555 1_555
C6 C5 1_555 1_555
H5 C6 1_555 1_555
C7 C2 1_555 1_555
H6 C7 1_555 1_555
C8 Si1 1_555 1_555
H7 C8 1_555 1_555
H8 C8 1_555 1_555
H9 C8 1_555 1_555
C9 Si1 1_555 1_555
H10 C9 1_555 1_555
H11 C9 1_555 1_555
H12 C9 1_555 1_555
C10 Si1 1_555 1_555
H13 C10 1_555 1_555
H14 C10 1_555 1_555
H15 C10 1_555 1_555
C11 Si2 1_555 1_555
H16 C11 1_555 1_555
H17 C11 1_555 1_555
H18 C11 1_555 1_555
C12 Si2 1_555 1_555
H19 C12 1_555 1_555
H20 C12 1_555 1_555
H21 C12 1_555 1_555
C13 Si2 1_555 1_555
H22 C13 1_555 1_555
H23 C13 1_555 1_555
H24 C13 1_555 1_555
C6 C7 1_555 1_555

#END
