
#######################################################################
#
#                 Cambridge Crystallographic Data Centre
#                                CCDC 
#
#######################################################################
#
# If this CIF has been generated from an entry in the Cambridge 
# Structural Database, then it will include bibliographic, chemical, 
# crystal, experimental, refinement or atomic coordinate data resulting 
# from the CCDC's data processing and validation procedures.
#
#######################################################################

data_REHSEF
_chemical_formula_moiety         'C72 H62 O4,2(C6 H14 O1)'
_chemical_name_systematic        
'2,9-di-t-butyl-4,7,11,14-tetrakis(4-methoxyphenyl)-5,13-diphenyldibenzo[fg,op]tetracene di-isopropyl ether solvate'
_symmetry_cell_setting           monoclinic
_symmetry_space_group_name_H-M   'C 2/c'
_symmetry_Int_Tables_number      15
_space_group_name_Hall           '-C 2yn'
loop_
_symmetry_equiv_pos_site_id
_symmetry_equiv_pos_as_xyz
1 x,y,z
2 -x,y,1/2-z
3 1/2+x,1/2+y,z
4 1/2-x,1/2+y,1/2-z
5 -x,-y,-z
6 x,-y,1/2+z
7 1/2-x,1/2-y,-z
8 1/2+x,1/2-y,1/2+z
_cell_length_a                   22.689(7)
_cell_length_b                   15.773(5)
_cell_length_c                   20.036(6)
_cell_angle_alpha                90
_cell_angle_beta                 97.25(2)
_cell_angle_gamma                90
_cell_volume                     7113.03
_exptl_crystal_colour            colorless
_exptl_crystal_description       block
_cell_formula_units_Z            4
loop_
_atom_site_label
_atom_site_type_symbol
_atom_site_fract_x
_atom_site_fract_y
_atom_site_fract_z
O3 O 0.2586(4) 0.3271(5) 0.1700(5)
C43 C 0.2957(6) 0.2554(7) 0.1773(8)
H41 H 0.2705 0.2056 0.1809
C44 C 0.3218(5) 0.2483(8) 0.1141(6)
H42 H 0.2906 0.2434 0.0772
H43 H 0.3467 0.1990 0.1157
H44 H 0.3451 0.2980 0.1082
C45 C 0.3332(6) 0.2629(9) 0.2373(7)
H45 H 0.3099 0.2649 0.2741
H46 H 0.3560 0.3141 0.2367
H47 H 0.3594 0.2150 0.2426
C46 C 0.2020(6) 0.3152(8) 0.1756(8)
H48 H 0.1983 0.2729 0.2107
C47 C 0.1674(7) 0.2885(10) 0.1136(9)
H49 H 0.1777 0.2312 0.1037
H50 H 0.1757 0.3250 0.0777
H51 H 0.1259 0.2913 0.1184
C48 C 0.1792(7) 0.3983(12) 0.1969(8)
H52 H 0.2007 0.4146 0.2394
H53 H 0.1377 0.3933 0.2013
H54 H 0.1846 0.4406 0.1638
C1 C 0.5000 0.8432(3) 0.7500
C2 C 0.49112(19) 0.7971(2) 0.6907(2)
H1 H 0.4842 0.8267 0.6503
C3 C 0.49199(17) 0.7087(2) 0.68827(18)
C4 C 0.5000 0.6644(3) 0.7500
C5 C 0.5000 0.5731(3) 0.7500
C6 C 0.47457(17) 0.5293(2) 0.69232(17)
C7 C 0.47544(18) 0.4408(2) 0.69421(19)
H2 H 0.4588 0.4112 0.6563
C8 C 0.5000 0.3950(3) 0.7500
C9 C 0.5000 0.9393(4) 0.7500
C10 C 0.4950(6) 0.9784(7) 0.6840(6)
H3 H 0.4936 0.9351 0.6501
H4 H 0.5288 1.0143 0.6811
H5 H 0.4593 1.0117 0.6769
C11 C 0.5612(6) 0.9662(10) 0.7898(8)
H6 H 0.5926 0.9528 0.7635
H7 H 0.5675 0.9361 0.8317
H8 H 0.5611 1.0261 0.7983
C12 C 0.4637(7) 0.9723(8) 0.7993(6)
H9 H 0.4224 0.9667 0.7822
H10 H 0.4730 1.0311 0.8077
H11 H 0.4719 0.9410 0.8405
C13 C 0.5000 0.2988(4) 0.7500
C14 C 0.5352(6) 0.2592(7) 0.8071(6)
H12 H 0.5299 0.2897 0.8474
H13 H 0.5764 0.2602 0.8005
H14 H 0.5225 0.2016 0.8111
C15 C 0.4361(7) 0.2743(12) 0.7575(11)
H15 H 0.4275 0.2893 0.8017
H16 H 0.4312 0.2143 0.7511
H17 H 0.4094 0.3038 0.7245
C16 C 0.5059(7) 0.2600(7) 0.6859(6)
H18 H 0.5470 0.2594 0.6790
H19 H 0.4835 0.2920 0.6506
H20 H 0.4912 0.2030 0.6854
C17 C 0.45463(17) 0.5776(2) 0.63042(18)
C18 C 0.41752(18) 0.5425(2) 0.57434(19)
C19 C 0.41566(18) 0.5824(2) 0.51235(19)
C20 C 0.45134(19) 0.6535(3) 0.5064(2)
H21 H 0.4548 0.6739 0.4635
C21 C 0.48165(18) 0.6948(2) 0.56065(19)
C22 C 0.47787(17) 0.6600(2) 0.62566(18)
C23 C 0.37822(18) 0.4676(2) 0.58280(19)
C24 C 0.3370(2) 0.4713(3) 0.6286(2)
H22 H 0.3333 0.5210 0.6527
C25 C 0.3016(2) 0.4029(3) 0.6390(3)
H23 H 0.2748 0.4062 0.6703
C26 C 0.3061(2) 0.3295(3) 0.6028(3)
C27 C 0.3465(2) 0.3239(3) 0.5572(2)
H24 H 0.3501 0.2740 0.5333
C28 C 0.3817(2) 0.3934(3) 0.5470(2)
H25 H 0.4083 0.3899 0.5154
O1 O 0.26841(18) 0.2647(2) 0.6166(2)
C29 C 0.2773(4) 0.1842(4) 0.5889(4)
H26 H 0.2485 0.1451 0.6021
H27 H 0.3166 0.1645 0.6050
H28 H 0.2729 0.1883 0.5407
C30 C 0.3771(2) 0.5524(3) 0.4510(2)
C31 C 0.3160(2) 0.5545(3) 0.4456(3)
H29 H 0.2974 0.5712 0.4823
C32 C 0.2820(3) 0.5318(4) 0.3859(3)
H30 H 0.2408 0.5346 0.3825
C33 C 0.3084(4) 0.5056(4) 0.3323(3)
H31 H 0.2854 0.4907 0.2923
C34 C 0.3686(4) 0.5014(5) 0.3378(3)
H32 H 0.3868 0.4828 0.3015
C35 C 0.4027(2) 0.5244(4) 0.3963(2)
H33 H 0.4438 0.5210 0.3991
C36 C 0.5204(2) 0.7677(2) 0.54829(19)
C37 C 0.5006(2) 0.8307(3) 0.5018(2)
H34 H 0.4620 0.8290 0.4798
C38 C 0.5391(3) 0.8967(3) 0.4885(3)
H35 H 0.5257 0.9380 0.4572
C39 C 0.5949(3) 0.9011(4) 0.5202(3)
C40 C 0.6155(2) 0.8397(3) 0.5659(3)
H36 H 0.6541 0.8425 0.5878
C41 C 0.5786(2) 0.7738(3) 0.5791(2)
H37 H 0.5932 0.7322 0.6096
O2 O 0.6292(4) 0.9677(4) 0.5039(4)
C42 C 0.6371(10) 1.0188(9) 0.4684(12)
H38 H 0.6052 1.0198 0.4320
H39 H 0.6740 1.0088 0.4509
H40 H 0.6389 1.0723 0.4914
C2A C 0.50888(19) 0.7971(2) 0.8093(2)
H1A H 0.5158 0.8267 0.8497
C3A C 0.50801(17) 0.7087(2) 0.81173(18)
C6A C 0.52543(17) 0.5293(2) 0.80768(17)
C7A C 0.52456(18) 0.4408(2) 0.80579(19)
H2A H 0.5412 0.4112 0.8437
C10A C 0.5050(6) 0.9784(7) 0.8160(6)
H3A H 0.5064 0.9351 0.8499
H4A H 0.4712 1.0143 0.8189
H5A H 0.5407 1.0117 0.8231
C11A C 0.4388(6) 0.9662(10) 0.7102(8)
H6A H 0.4074 0.9528 0.7365
H7A H 0.4325 0.9361 0.6683
H8A H 0.4389 1.0261 0.7017
C12A C 0.5363(7) 0.9723(8) 0.7007(6)
H9A H 0.5776 0.9667 0.7178
H10A H 0.5270 1.0311 0.6923
H11A H 0.5281 0.9410 0.6595
C14A C 0.4648(6) 0.2592(7) 0.6929(6)
H12A H 0.4701 0.2897 0.6526
H13A H 0.4236 0.2602 0.6995
H14A H 0.4775 0.2016 0.6889
C15A C 0.5639(7) 0.2743(12) 0.7425(11)
H15A H 0.5725 0.2893 0.6983
H16A H 0.5688 0.2143 0.7489
H17A H 0.5906 0.3038 0.7755
C16A C 0.4941(7) 0.2600(7) 0.8141(6)
H18A H 0.4530 0.2594 0.8210
H19A H 0.5165 0.2920 0.8494
H20A H 0.5088 0.2030 0.8146
C17A C 0.54537(17) 0.5776(2) 0.86958(18)
C18A C 0.58248(18) 0.5425(2) 0.92566(19)
C19A C 0.58434(18) 0.5824(2) 0.98765(19)
C20A C 0.54866(19) 0.6535(3) 0.9936(2)
H21A H 0.5452 0.6739 1.0365
C21A C 0.51835(18) 0.6948(2) 0.93935(19)
C22A C 0.52213(17) 0.6600(2) 0.87434(18)
C23A C 0.62178(18) 0.4676(2) 0.91720(19)
C24A C 0.6630(2) 0.4713(3) 0.8714(2)
H22A H 0.6667 0.5210 0.8473
C25A C 0.6984(2) 0.4029(3) 0.8610(3)
H23A H 0.7252 0.4062 0.8297
C26A C 0.6939(2) 0.3295(3) 0.8972(3)
C27A C 0.6535(2) 0.3239(3) 0.9428(2)
H24A H 0.6499 0.2740 0.9667
C28A C 0.6183(2) 0.3934(3) 0.9530(2)
H25A H 0.5917 0.3899 0.9846
O1A O 0.73159(18) 0.2647(2) 0.8834(2)
C29A C 0.7227(4) 0.1842(4) 0.9111(4)
H26A H 0.7515 0.1451 0.8979
H27A H 0.6834 0.1645 0.8950
H28A H 0.7271 0.1883 0.9593
C30A C 0.6229(2) 0.5524(3) 1.0490(2)
C31A C 0.6840(2) 0.5545(3) 1.0544(3)
H29A H 0.7026 0.5712 1.0177
C32A C 0.7180(3) 0.5318(4) 1.1141(3)
H30A H 0.7592 0.5346 1.1175
C33A C 0.6916(4) 0.5056(4) 1.1677(3)
H31A H 0.7146 0.4907 1.2077
C34A C 0.6314(4) 0.5014(5) 1.1622(3)
H32A H 0.6132 0.4828 1.1985
C35A C 0.5973(2) 0.5244(4) 1.1037(2)
H33A H 0.5562 0.5210 1.1009
C36A C 0.4796(2) 0.7677(2) 0.95171(19)
C37A C 0.4994(2) 0.8307(3) 0.9982(2)
H34A H 0.5380 0.8290 1.0202
C38A C 0.4609(3) 0.8967(3) 1.0115(3)
H35A H 0.4743 0.9380 1.0428
C39A C 0.4051(3) 0.9011(4) 0.9798(3)
C40A C 0.3845(2) 0.8397(3) 0.9341(3)
H36A H 0.3459 0.8425 0.9122
C41A C 0.4214(2) 0.7738(3) 0.9209(2)
H37A H 0.4068 0.7322 0.8904
O2A O 0.3708(4) 0.9677(4) 0.9961(4)
C42A C 0.3629(10) 1.0188(9) 1.0316(12)
H38A H 0.3948 1.0198 1.0680
H39A H 0.3260 1.0088 1.0491
H40A H 0.3611 1.0723 1.0086
C49? C 0.6728(7) 0.9829(12) 0.5309(8)
H55? H 0.6806 0.9468 0.5696
H56? H 0.6733 1.0410 0.5451
H57? H 0.7028 0.9741 0.5018
loop_
_geom_bond_atom_site_label_1
_geom_bond_atom_site_label_2
_geom_bond_site_symmetry_1
_geom_bond_site_symmetry_2
C1 C2 1_555 1_555
C2 H1 1_555 1_555
C3 C2 1_555 1_555
C4 C3 1_555 1_555
C5 C4 1_555 1_555
C6 C5 1_555 1_555
C7 C6 1_555 1_555
H2 C7 1_555 1_555
C8 C7 1_555 1_555
C9 C1 1_555 1_555
C10 C9 1_555 1_555
H3 C10 1_555 1_555
H4 C10 1_555 1_555
H5 C10 1_555 1_555
C11 C9 1_555 1_555
H6 C11 1_555 1_555
H7 C11 1_555 1_555
H8 C11 1_555 1_555
C12 C9 1_555 1_555
H9 C12 1_555 1_555
H10 C12 1_555 1_555
H11 C12 1_555 1_555
C13 C8 1_555 1_555
C14 C13 1_555 1_555
H12 C14 1_555 1_555
H13 C14 1_555 1_555
H14 C14 1_555 1_555
C15 C13 1_555 1_555
H15 C15 1_555 1_555
H16 C15 1_555 1_555
H17 C15 1_555 1_555
C16 C13 1_555 1_555
H18 C16 1_555 1_555
H19 C16 1_555 1_555
H20 C16 1_555 1_555
C17 C6 1_555 1_555
C18 C17 1_555 1_555
C19 C18 1_555 1_555
C20 C19 1_555 1_555
H21 C20 1_555 1_555
C21 C20 1_555 1_555
C22 C3 1_555 1_555
C23 C18 1_555 1_555
C24 C23 1_555 1_555
H22 C24 1_555 1_555
C25 C24 1_555 1_555
H23 C25 1_555 1_555
C26 C25 1_555 1_555
C27 C26 1_555 1_555
H24 C27 1_555 1_555
C28 C23 1_555 1_555
H25 C28 1_555 1_555
O1 C26 1_555 1_555
C29 O1 1_555 1_555
H26 C29 1_555 1_555
H27 C29 1_555 1_555
H28 C29 1_555 1_555
C30 C19 1_555 1_555
C31 C30 1_555 1_555
H29 C31 1_555 1_555
C32 C31 1_555 1_555
H30 C32 1_555 1_555
C33 C32 1_555 1_555
H31 C33 1_555 1_555
C34 C33 1_555 1_555
H32 C34 1_555 1_555
C35 C30 1_555 1_555
H33 C35 1_555 1_555
C36 C21 1_555 1_555
C37 C36 1_555 1_555
H34 C37 1_555 1_555
C38 C37 1_555 1_555
H35 C38 1_555 1_555
C39 C38 1_555 1_555
C40 C39 1_555 1_555
H36 C40 1_555 1_555
C41 C36 1_555 1_555
H37 C41 1_555 1_555
O2 C39 1_555 1_555
C42 O2 1_555 1_555
H38 C42 1_555 1_555
H39 C42 1_555 1_555
H40 C42 1_555 1_555
O3 C43 1_555 1_555
C43 H41 1_555 1_555
C44 C43 1_555 1_555
H42 C44 1_555 1_555
H43 C44 1_555 1_555
H44 C44 1_555 1_555
C45 C43 1_555 1_555
H45 C45 1_555 1_555
H46 C45 1_555 1_555
H47 C45 1_555 1_555
C46 O3 1_555 1_555
H48 C46 1_555 1_555
C47 C46 1_555 1_555
H49 C47 1_555 1_555
H50 C47 1_555 1_555
H51 C47 1_555 1_555
C48 C46 1_555 1_555
H52 C48 1_555 1_555
H53 C48 1_555 1_555
H54 C48 1_555 1_555
C2A C1 1_555 1_555
H1A C2A 1_555 1_555
C3A C4 1_555 1_555
C6A C5 1_555 1_555
C7A C8 1_555 1_555
H2A C7A 1_555 1_555
C10A C9 1_555 1_555
H3A C10A 1_555 1_555
H4A C12 1_555 1_555
H5A C10A 1_555 1_555
C11A C9 1_555 1_555
H6A C11A 1_555 1_555
H7A C11A 1_555 1_555
H8A C11A 1_555 1_555
C12A C9 1_555 1_555
H9A C12A 1_555 1_555
H10A C10 1_555 1_555
H11A C12A 1_555 1_555
C14A C13 1_555 1_555
H12A C16 1_555 1_555
H13A C14A 1_555 1_555
H14A C16 1_555 1_555
C15A C13 1_555 1_555
H15A C15A 1_555 1_555
H16A C15A 1_555 1_555
H17A C15A 1_555 1_555
C16A C13 1_555 1_555
H18A C16A 1_555 1_555
H19A C14 1_555 1_555
H20A C14 1_555 1_555
C17A C6A 1_555 1_555
C18A C17A 1_555 1_555
C19A C18A 1_555 1_555
C20A C19A 1_555 1_555
H21A C20A 1_555 1_555
C21A C20A 1_555 1_555
C22A C3A 1_555 1_555
C23A C18A 1_555 1_555
C24A C23A 1_555 1_555
H22A C24A 1_555 1_555
C25A C24A 1_555 1_555
H23A C25A 1_555 1_555
C26A C25A 1_555 1_555
C27A C26A 1_555 1_555
H24A C27A 1_555 1_555
C28A C23A 1_555 1_555
H25A C28A 1_555 1_555
O1A C26A 1_555 1_555
C29A O1A 1_555 1_555
H26A C29A 1_555 1_555
H27A C29A 1_555 1_555
H28A C29A 1_555 1_555
C30A C19A 1_555 1_555
C31A C30A 1_555 1_555
H29A C31A 1_555 1_555
C32A C31A 1_555 1_555
H30A C32A 1_555 1_555
C33A C32A 1_555 1_555
H31A C33A 1_555 1_555
C34A C33A 1_555 1_555
H32A C34A 1_555 1_555
C35A C30A 1_555 1_555
H33A C35A 1_555 1_555
C36A C21A 1_555 1_555
C37A C36A 1_555 1_555
H34A C37A 1_555 1_555
C38A C37A 1_555 1_555
H35A C38A 1_555 1_555
C39A C38A 1_555 1_555
C40A C39A 1_555 1_555
H36A C40A 1_555 1_555
C41A C36A 1_555 1_555
H37A C41A 1_555 1_555
O2A C39A 1_555 1_555
C42A O2A 1_555 1_555
H38A C42A 1_555 1_555
H39A C42A 1_555 1_555
H40A C42A 1_555 1_555
H4 C12A 1_555 1_555
H10 C10A 1_555 1_555
H12 C16A 1_555 1_555
H14 C16A 1_555 1_555
H19 C14A 1_555 1_555
H20 C14A 1_555 1_555
C17 C22 1_555 1_555
C21 C22 1_555 1_555
C27 C28 1_555 1_555
C34 C35 1_555 1_555
C40 C41 1_555 1_555
C2A C3A 1_555 1_555
C6A C7A 1_555 1_555
C10A H4A 1_555 1_555
C12A H10A 1_555 1_555
C14A H12A 1_555 1_555
C14A H14A 1_555 1_555
C16A H19A 1_555 1_555
C16A H20A 1_555 1_555
C17A C22A 1_555 1_555
C21A C22A 1_555 1_555
C27A C28A 1_555 1_555
C34A C35A 1_555 1_555
C40A C41A 1_555 1_555

#END
