
#######################################################################
#
#                 Cambridge Crystallographic Data Centre
#                                CCDC 
#
#######################################################################
#
# If this CIF has been generated from an entry in the Cambridge 
# Structural Database, then it will include bibliographic, chemical, 
# crystal, experimental, refinement or atomic coordinate data resulting 
# from the CCDC's data processing and validation procedures.
#
#######################################################################

data_REHSIJ
_chemical_formula_moiety         'C15 H10 N2 O2 S1'
_chemical_name_systematic        
9-methyl-12H-[1,3]benzoxazino[2,3-c][1,2,4]benzothiadiazin-12-one
_symmetry_cell_setting           monoclinic
_symmetry_space_group_name_H-M   'P 21/c'
_symmetry_Int_Tables_number      14
_space_group_name_Hall           '-P 2ybc'
loop_
_symmetry_equiv_pos_site_id
_symmetry_equiv_pos_as_xyz
1 x,y,z
2 -x,1/2+y,1/2-z
3 -x,-y,-z
4 x,1/2-y,1/2+z
_cell_length_a                   13.2618(11)
_cell_length_b                   12.6637(9)
_cell_length_c                   7.3328(6)
_cell_angle_alpha                90
_cell_angle_beta                 93.155(7)
_cell_angle_gamma                90
_cell_volume                     1229.63
_exptl_crystal_colour            'pale yellow'
_cell_formula_units_Z            4
loop_
_atom_site_label
_atom_site_type_symbol
_atom_site_fract_x
_atom_site_fract_y
_atom_site_fract_z
S1 S 0.17779(9) 0.55047(9) 0.19781(18)
O1 O 0.3688(2) 0.4210(2) 0.5323(4)
O2 O 0.1970(2) 0.1721(2) 0.3627(5)
N1 N 0.2159(2) 0.3500(3) 0.4038(5)
N2 N 0.2746(3) 0.5253(3) 0.3524(5)
C1 C 0.0838(3) 0.4642(3) 0.2671(6)
C2 C -0.0176(3) 0.4908(4) 0.2338(6)
H1 H -0.0354 0.5527 0.1719
C3 C -0.0912(3) 0.4246(4) 0.2932(7)
H2 H -0.1589 0.4398 0.2648
C4 C -0.0655(3) 0.3353(4) 0.3950(7)
H3 H -0.1158 0.2919 0.4372
C5 C 0.0351(3) 0.3108(4) 0.4335(6)
H4 H 0.0526 0.2525 0.5056
C6 C 0.1101(3) 0.3736(3) 0.3642(5)
C7 C 0.2836(3) 0.4345(3) 0.4224(5)
C8 C 0.2494(3) 0.2452(3) 0.4177(6)
C9 C 0.3504(3) 0.2331(3) 0.5053(5)
C10 C 0.3924(3) 0.1332(3) 0.5395(6)
H5 H 0.3560 0.0728 0.5062
C11 C 0.4874(3) 0.1244(4) 0.6222(6)
H6 H 0.5137 0.0576 0.6476
C12 C 0.5453(3) 0.2126(4) 0.6691(6)
C13 C 0.5039(3) 0.3116(3) 0.6378(5)
H7 H 0.5410 0.3718 0.6698
C14 C 0.4074(3) 0.3206(3) 0.5588(5)
C15 C 0.6524(3) 0.2007(4) 0.7483(7)
H8 H 0.6962 0.1841 0.6524
H9 H 0.6551 0.1448 0.8369
H10 H 0.6739 0.2655 0.8060
loop_
_geom_bond_atom_site_label_1
_geom_bond_atom_site_label_2
_geom_bond_site_symmetry_1
_geom_bond_site_symmetry_2
S1 N2 1_555 1_555
O1 C7 1_555 1_555
O2 C8 1_555 1_555
N1 C6 1_555 1_555
N2 C7 1_555 1_555
C1 S1 1_555 1_555
C2 C1 1_555 1_555
H1 C2 1_555 1_555
C3 C2 1_555 1_555
H2 C3 1_555 1_555
C4 C3 1_555 1_555
H3 C4 1_555 1_555
C5 C4 1_555 1_555
H4 C5 1_555 1_555
C6 C1 1_555 1_555
C7 N1 1_555 1_555
C8 N1 1_555 1_555
C9 C8 1_555 1_555
C10 C9 1_555 1_555
H5 C10 1_555 1_555
C11 C10 1_555 1_555
H6 C11 1_555 1_555
C12 C11 1_555 1_555
C13 C12 1_555 1_555
H7 C13 1_555 1_555
C14 O1 1_555 1_555
C15 C12 1_555 1_555
H8 C15 1_555 1_555
H9 C15 1_555 1_555
H10 C15 1_555 1_555
C5 C6 1_555 1_555
C9 C14 1_555 1_555
C13 C14 1_555 1_555

#END
