
#######################################################################
#
#                 Cambridge Crystallographic Data Centre
#                                CCDC 
#
#######################################################################
#
# If this CIF has been generated from an entry in the Cambridge 
# Structural Database, then it will include bibliographic, chemical, 
# crystal, experimental, refinement or atomic coordinate data resulting 
# from the CCDC's data processing and validation procedures.
#
#######################################################################

data_REHTEF
_chemical_formula_moiety         'C18 H20 N2 O4,C36 H36 N24 O12,12(H2 O1)'
_chemical_name_systematic        
"1,1'-(hexane-1,6-diyl)dipyridinium-4-carboxylate cucurbit(6)uril dodecahydrate"
_symmetry_cell_setting           monoclinic
_symmetry_space_group_name_H-M   'C 2/c'
_symmetry_Int_Tables_number      15
_space_group_name_Hall           '-C 2yn'
loop_
_symmetry_equiv_pos_site_id
_symmetry_equiv_pos_as_xyz
1 x,y,z
2 -x,y,1/2-z
3 1/2+x,1/2+y,z
4 1/2-x,1/2+y,1/2-z
5 -x,-y,-z
6 x,-y,1/2+z
7 1/2-x,1/2-y,-z
8 1/2+x,1/2-y,1/2+z
_cell_length_a                   30.4423(12)
_cell_length_b                   12.3940(4)
_cell_length_c                   21.4045(8)
_cell_angle_alpha                90
_cell_angle_beta                 128.822(1)
_cell_angle_gamma                90
_cell_volume                     6291.96
_exptl_crystal_colour            yellow
_exptl_crystal_description       block
_cell_formula_units_Z            4
loop_
_atom_site_label
_atom_site_type_symbol
_atom_site_fract_x
_atom_site_fract_y
_atom_site_fract_z
C1 C 0.14488(10) 0.5375(2) 1.07668(15)
H1 H 0.1303 0.4867 1.0962
C2 C 0.10659(10) 0.6380(2) 1.03627(14)
H2 H 0.0737 0.6336 1.0360
C3 C 0.19602(10) 0.6915(2) 1.14997(14)
C4 C 0.10629(10) 0.5424(2) 0.94205(15)
C5 C 0.12386(11) 0.8354(2) 1.07848(15)
H3 H 0.0861 0.8328 1.0643
H4 H 0.1497 0.8717 1.1312
C6 C 0.04665(10) 0.7050(2) 0.89132(15)
H5 H 0.0293 0.6682 0.8396
H6 H 0.0166 0.7179 0.8957
C7 C 0.07274(10) 0.8996(2) 0.93524(15)
H7 H 0.0367 0.9123 0.9263
C8 C 0.08642(10) 0.9942(2) 0.90252(14)
H8 H 0.0594 1.0554 0.8838
C9 C 0.15969(10) 0.9747(2) 1.03995(14)
C10 C 0.07062(9) 0.8365(2) 0.83108(14)
C11 C 0.16936(12) 1.1239(2) 0.97311(17)
H9 H 0.1396 1.1787 0.9397
H10 H 0.1946 1.1511 1.0289
C12 C 0.08625(10) 1.0023(2) 0.78327(14)
H11 H 0.0669 1.0727 0.7700
H12 H 0.0667 0.9607 0.7328
C13 C 0.17622(11) 1.1157(2) 0.86128(14)
H13 H 0.1536 1.1831 0.8353
C14 C 0.22788(11) 1.1130(2) 0.86314(15)
H14 H 0.2291 1.1781 0.8366
C15 C 0.25892(11) 1.11791(19) 0.99453(16)
C16 C 0.16823(10) 0.9673(2) 0.78780(14)
C17 C 0.33388(11) 1.1147(2) 0.98047(18)
H15 H 0.3370 1.1616 0.9460
H16 H 0.3565 1.1480 1.0344
C18 C 0.25288(11) 0.9821(2) 0.79699(15)
H17 H 0.2292 0.9404 0.7464
H18 H 0.2662 1.0474 0.7867
N1 N 0.19880(8) 0.58260(18) 1.14274(12)
N2 N 0.14257(9) 0.48995(17) 1.01320(13)
N3 N 0.08850(9) 0.63446(18) 0.95573(13)
N4 N 0.14342(9) 0.72590(16) 1.08588(12)
N5 N 0.06869(9) 0.80751(17) 0.89078(12)
N6 N 0.12061(8) 0.89834(16) 1.01958(12)
N7 N 0.08104(9) 0.94496(17) 0.83680(12)
N8 N 0.14316(9) 1.02445(17) 0.97087(12)
N9 N 0.14420(8) 1.02094(16) 0.81553(12)
N10 N 0.20131(9) 1.11130(17) 0.94495(12)
N11 N 0.21860(9) 1.01499(17) 0.81902(12)
N12 N 0.27507(9) 1.11077(17) 0.94758(13)
O1 O 0.23283(8) 0.74747(15) 1.20504(11)
O2 O 0.09090(8) 0.51239(15) 0.87692(11)
O3 O 0.20145(7) 0.99687(15) 1.10742(10)
O4 O 0.06335(7) 0.77722(14) 0.77967(10)
O5 O 0.29008(8) 1.12930(15) 1.06674(11)
O6 O 0.14771(8) 0.89061(15) 0.74185(11)
C1F C 0.35512(10) 0.9625(2) 0.92332(15)
H1F H 0.3697 1.0133 0.9038
C2F C 0.39341(10) 0.8620(2) 0.96373(14)
H2F H 0.4263 0.8664 0.9640
C3F C 0.30398(10) 0.8085(2) 0.85003(14)
C4F C 0.39371(10) 0.9576(2) 1.05795(15)
C5F C 0.37614(11) 0.6646(2) 0.92152(15)
H3F H 0.4139 0.6672 0.9357
H4F H 0.3503 0.6283 0.8688
C6F C 0.45335(10) 0.7950(2) 1.10868(15)
H5F H 0.4707 0.8318 1.1604
H6F H 0.4834 0.7821 1.1043
C7F C 0.42726(10) 0.6004(2) 1.06476(15)
H7F H 0.4633 0.5877 1.0737
C8F C 0.41358(10) 0.5058(2) 1.09748(14)
H8F H 0.4406 0.4446 1.1162
C9F C 0.34031(10) 0.5253(2) 0.96005(14)
C10F C 0.42938(9) 0.6635(2) 1.16892(14)
C11F C 0.33064(12) 0.3761(2) 1.02689(17)
H9F H 0.3604 0.3213 1.0603
H10F H 0.3054 0.3489 0.9711
C12F C 0.41375(10) 0.4977(2) 1.21673(14)
H11F H 0.4331 0.4273 1.2300
H12F H 0.4333 0.5393 1.2672
C13F C 0.32378(11) 0.3843(2) 1.13872(14)
H13F H 0.3464 0.3169 1.1647
C14F C 0.27212(11) 0.3870(2) 1.13686(15)
H14F H 0.2709 0.3219 1.1634
C15F C 0.24108(11) 0.38209(19) 1.00547(16)
C16F C 0.33177(10) 0.5327(2) 1.21220(14)
C17F C 0.16612(11) 0.3853(2) 1.01953(18)
H15F H 0.1630 0.3384 1.0540
H16F H 0.1435 0.3520 0.9656
C18F C 0.24712(11) 0.5179(2) 1.20301(15)
H17F H 0.2708 0.5596 1.2536
H18F H 0.2338 0.4526 1.2133
N1F N 0.30120(8) 0.91740(18) 0.85726(12)
N2F N 0.35743(9) 1.01005(17) 0.98680(13)
N3F N 0.41150(9) 0.86554(18) 1.04427(13)
N4F N 0.35658(9) 0.77410(16) 0.91412(12)
N5F N 0.43131(9) 0.69249(17) 1.10922(12)
N6F N 0.37939(8) 0.60166(16) 0.98042(12)
N7F N 0.41896(9) 0.55504(17) 1.16320(12)
N8F N 0.35684(9) 0.47555(17) 1.02913(12)
N9F N 0.35580(8) 0.47906(16) 1.18447(12)
N10F N 0.29869(9) 0.38870(17) 1.05505(12)
N11F N 0.28140(9) 0.48501(17) 1.18098(12)
N12F N 0.22493(9) 0.38923(17) 1.05242(13)
O1F O 0.26717(8) 0.75253(15) 0.79496(11)
O2F O 0.40910(8) 0.98761(15) 1.12308(11)
O3F O 0.29855(7) 0.50313(15) 0.89258(10)
O4F O 0.43665(7) 0.72278(14) 1.22033(10)
O5F O 0.20992(8) 0.37070(15) 0.93326(11)
O6F O 0.35229(8) 0.60939(15) 1.25815(11)
C19 C 0.08150(11) 0.3729(2) 0.69760(14)
C20 C 0.05716(12) 0.4652(2) 0.69892(17)
H19 H 0.0176 0.4677 0.6701
C21 C 0.08954(11) 0.5540(2) 0.74147(16)
H20 H 0.0724 0.6165 0.7435
C22 C 0.17031(11) 0.4631(2) 0.78083(15)
H21 H 0.2100 0.4621 0.8100
C23 C 0.13929(11) 0.3739(2) 0.74006(15)
H22 H 0.1575 0.3112 0.7407
C24 C 0.17968(12) 0.6497(2) 0.82526(15)
H23 H 0.1561 0.7148 0.7985
H24 H 0.2113 0.6539 0.8234
C25 C 0.20313(12) 0.6496(2) 0.91144(15)
H25 H 0.2267 0.5845 0.9383
H26 H 0.1715 0.6456 0.9134
C26 C 0.23816(12) 0.7487(2) 0.95687(16)
H27 H 0.2697 0.7523 0.9549
H28 H 0.2145 0.8136 0.9295
C27 C 0.04773(14) 0.2724(3) 0.65363(17)
N13 N 0.14532(8) 0.55280(17) 0.78020(12)
O7 O 0.07384(11) 0.18741(18) 0.66954(14)
O8 O -0.00553(12) 0.2850(2) 0.60437(17)
C19F C 0.41850(11) 1.1271(2) 1.30240(14)
C20F C 0.44284(12) 1.0348(2) 1.30108(17)
H19F H 0.4824 1.0323 1.3299
C21F C 0.41046(11) 0.9460(2) 1.25853(16)
H20F H 0.4276 0.8835 1.2565
C22F C 0.32969(11) 1.0369(2) 1.21917(15)
H21F H 0.2900 1.0379 1.1900
C23F C 0.36071(11) 1.1261(2) 1.25994(15)
H22F H 0.3425 1.1888 1.2593
C24F C 0.32032(12) 0.8503(2) 1.17474(15)
H23F H 0.3439 0.7852 1.2015
H24F H 0.2887 0.8461 1.1766
C25F C 0.29687(12) 0.8504(2) 1.08856(15)
H25F H 0.2733 0.9155 1.0617
H26F H 0.3285 0.8544 1.0866
C26F C 0.26184(12) 0.7513(2) 1.04313(16)
H27F H 0.2303 0.7477 1.0451
H28F H 0.2855 0.6864 1.0705
C27F C 0.45227(14) 1.2276(3) 1.34637(17)
N13F N 0.35468(8) 0.94720(17) 1.21980(12)
O7F O 0.42616(11) 1.31259(18) 1.33046(14)
O8F O 0.50553(12) 1.2150(2) 1.39563(17)
O9 O 0.03221(15) 0.5920(3) 0.5276(3)
H29 H 0.0253 0.6250 0.4892
H30 H 0.0519 0.6310 0.5672
O10 O 0.0544(4) 0.7963(12) 0.6027(8)
H31 H 0.0815 0.8337 0.6368
H32 H 0.0257 0.8290 0.5873
O11 O 0.0383(3) -0.0090(4) 0.5870(4)
H33 H 0.0559 0.0460 0.6113
H34 H 0.0569 -0.0429 0.5778
O12 O 0.1502(2) 0.7160(3) 0.6453(2)
H35 H 0.1325 0.7713 0.6221
H36 H 0.1809 0.7337 0.6870
O13 O 0.0731(2) 0.8654(4) 0.5138(3)
H37 H 0.0577 0.8064 0.5029
H38 H 0.0483 0.9110 0.4874
O14 O 0.06210(11) 0.2804(2) 0.82433(16)
H39 H 0.0378 0.2349 0.8114
H40 H 0.0476 0.3383 0.8023
loop_
_geom_bond_atom_site_label_1
_geom_bond_atom_site_label_2
_geom_bond_site_symmetry_1
_geom_bond_site_symmetry_2
C1 H1 1_555 1_555
C2 C1 1_555 1_555
H2 C2 1_555 1_555
C3 N1 1_555 1_555
C4 N2 1_555 1_555
C5 H3 1_555 1_555
H4 C5 1_555 1_555
C6 H5 1_555 1_555
H6 C6 1_555 1_555
C7 H7 1_555 1_555
C8 C7 1_555 1_555
H8 C8 1_555 1_555
C9 N6 1_555 1_555
C10 N5 1_555 1_555
C11 H9 1_555 1_555
H10 C11 1_555 1_555
C12 H11 1_555 1_555
H12 C12 1_555 1_555
C13 H13 1_555 1_555
C14 C13 1_555 1_555
H14 C14 1_555 1_555
C15 N10 1_555 1_555
C16 N9 1_555 1_555
C17 H15 1_555 1_555
H16 C17 1_555 1_555
C18 H17 1_555 1_555
H18 C18 1_555 1_555
N1 C1 1_555 1_555
N2 C1 1_555 1_555
N3 C2 1_555 1_555
N4 C2 1_555 1_555
N5 C6 1_555 1_555
N6 C5 1_555 1_555
N7 C8 1_555 1_555
N8 C8 1_555 1_555
N9 C12 1_555 1_555
N10 C11 1_555 1_555
N11 C14 1_555 1_555
N12 C14 1_555 1_555
O1 C3 1_555 1_555
O2 C4 1_555 1_555
O3 C9 1_555 1_555
O4 C10 1_555 1_555
O5 C15 1_555 1_555
O6 C16 1_555 1_555
C19 C20 1_555 1_555
C20 H19 1_555 1_555
C21 C20 1_555 1_555
H20 C21 1_555 1_555
C22 H21 1_555 1_555
C23 C19 1_555 1_555
H22 C23 1_555 1_555
C24 H23 1_555 1_555
H24 C24 1_555 1_555
C25 C24 1_555 1_555
H25 C25 1_555 1_555
H26 C25 1_555 1_555
C26 C25 1_555 1_555
H27 C26 1_555 1_555
H28 C26 1_555 1_555
C27 C19 1_555 1_555
N13 C21 1_555 1_555
O7 C27 1_555 1_555
O8 C27 1_555 1_555
O9 H29 1_555 1_555
H30 O9 1_555 1_555
O10 H31 1_555 1_555
H32 O10 1_555 1_555
O11 H33 1_555 1_555
H34 O11 1_555 1_555
O12 H35 1_555 1_555
H36 O12 1_555 1_555
O13 H37 1_555 1_555
H38 O13 1_555 1_555
O14 H39 1_555 1_555
H40 O14 1_555 1_555
C1F H1F 1_555 1_555
C2F C1F 1_555 1_555
H2F C2F 1_555 1_555
C3F N1F 1_555 1_555
C4F N2F 1_555 1_555
C5F H3F 1_555 1_555
H4F C5F 1_555 1_555
C6F H5F 1_555 1_555
H6F C6F 1_555 1_555
C7F H7F 1_555 1_555
C8F C7F 1_555 1_555
H8F C8F 1_555 1_555
C9F N6F 1_555 1_555
C10F N5F 1_555 1_555
C11F H9F 1_555 1_555
H10F C11F 1_555 1_555
C12F H11F 1_555 1_555
H12F C12F 1_555 1_555
C13F H13F 1_555 1_555
C14F C13F 1_555 1_555
H14F C14F 1_555 1_555
C15F N10F 1_555 1_555
C16F N9F 1_555 1_555
C17F N2 1_555 1_555
H15F C17F 1_555 1_555
H16F C17F 1_555 1_555
C18F N1 1_555 1_555
H17F C18F 1_555 1_555
H18F C18F 1_555 1_555
N1F C18 1_555 1_555
N2F C17 1_555 1_555
N3F C2F 1_555 1_555
N4F C2F 1_555 1_555
N5F C6F 1_555 1_555
N6F C5F 1_555 1_555
N7F C8F 1_555 1_555
N8F C8F 1_555 1_555
N9F C12F 1_555 1_555
N10F C11F 1_555 1_555
N11F C14F 1_555 1_555
N12F C14F 1_555 1_555
O1F C3F 1_555 1_555
O2F C4F 1_555 1_555
O3F C9F 1_555 1_555
O4F C10F 1_555 1_555
O5F C15F 1_555 1_555
O6F C16F 1_555 1_555
C19F C20F 1_555 1_555
C20F H19F 1_555 1_555
C21F C20F 1_555 1_555
H20F C21F 1_555 1_555
C22F H21F 1_555 1_555
C23F C19F 1_555 1_555
H22F C23F 1_555 1_555
C24F H23F 1_555 1_555
H24F C24F 1_555 1_555
C25F C24F 1_555 1_555
H25F C25F 1_555 1_555
H26F C25F 1_555 1_555
C26F C26 1_555 1_555
H27F C26F 1_555 1_555
H28F C26F 1_555 1_555
C27F C19F 1_555 1_555
N13F C21F 1_555 1_555
O7F C27F 1_555 1_555
O8F C27F 1_555 1_555
C3 N4 1_555 1_555
C4 N3 1_555 1_555
C5 N4 1_555 1_555
C6 N3 1_555 1_555
C7 N5 1_555 1_555
C7 N6 1_555 1_555
C9 N8 1_555 1_555
C10 N7 1_555 1_555
C11 N8 1_555 1_555
C12 N7 1_555 1_555
C13 N9 1_555 1_555
C13 N10 1_555 1_555
C15 N12 1_555 1_555
C16 N11 1_555 1_555
C17 N12 1_555 1_555
C18 N11 1_555 1_555
C22 C23 1_555 1_555
C22 N13 1_555 1_555
C24 N13 1_555 1_555
C1F N1F 1_555 1_555
C1F N2F 1_555 1_555
C3F N4F 1_555 1_555
C4F N3F 1_555 1_555
C5F N4F 1_555 1_555
C6F N3F 1_555 1_555
C7F N5F 1_555 1_555
C7F N6F 1_555 1_555
C9F N8F 1_555 1_555
C10F N7F 1_555 1_555
C11F N8F 1_555 1_555
C12F N7F 1_555 1_555
C13F N9F 1_555 1_555
C13F N10F 1_555 1_555
C15F N12F 1_555 1_555
C16F N11F 1_555 1_555
C17F N12F 1_555 1_555
C18F N11F 1_555 1_555
C22F C23F 1_555 1_555
C22F N13F 1_555 1_555
C24F N13F 1_555 1_555
C25F C26F 1_555 1_555

#END
