
#######################################################################
#
#                 Cambridge Crystallographic Data Centre
#                                CCDC 
#
#######################################################################
#
# If this CIF has been generated from an entry in the Cambridge 
# Structural Database, then it will include bibliographic, chemical, 
# crystal, experimental, refinement or atomic coordinate data resulting 
# from the CCDC's data processing and validation procedures.
#
#######################################################################

data_REHTOO
_chemical_formula_moiety         'C41 H46 O6'
_chemical_name_systematic        
5,11-Di-t-butyl-17,23-diformyl-28-hydroxy-25,26,27-trimethoxycalix(4)arene
_symmetry_cell_setting           triclinic
_symmetry_space_group_name_H-M   'P -1'
_symmetry_Int_Tables_number      2
_space_group_name_Hall           '-P 1'
loop_
_symmetry_equiv_pos_site_id
_symmetry_equiv_pos_as_xyz
1 x,y,z
2 -x,-y,-z
_cell_length_a                   10.4391(19)
_cell_length_b                   11.314(2)
_cell_length_c                   17.157(3)
_cell_angle_alpha                83.844(3)
_cell_angle_beta                 85.990(3)
_cell_angle_gamma                63.167(3)
_cell_volume                     1797.23
_exptl_crystal_colour            colorless
_exptl_crystal_description       block
_chemical_melting_point          'above 250 deg.C'
_cell_formula_units_Z            2
_exptl_crystal_recrystallization_method chloroform/methanol
loop_
_atom_site_label
_atom_site_type_symbol
_atom_site_fract_x
_atom_site_fract_y
_atom_site_fract_z
O1 O 0.9123(3) 0.6272(3) 0.10013(19)
H1 H 0.9174 0.5644 0.1307
O2 O 0.8974(4) 0.4543(3) 0.22764(19)
O3 O 0.7477(4) 0.7648(3) 0.24952(19)
O4 O 0.6680(4) 0.9653(3) 0.1006(2)
O5 O 1.4227(5) 0.5943(6) -0.1326(3)
O6 O 1.2090(13) 0.9853(13) 0.2369(8)
C1 C 1.0395(5) 0.5933(5) 0.0606(3)
C2 C 1.0404(6) 0.6946(5) 0.0051(3)
C3 C 1.1628(6) 0.6658(6) -0.0409(3)
H2 H 1.1655 0.7308 -0.0781
C4 C 1.2812(6) 0.5436(6) -0.0333(3)
C5 C 1.2772(6) 0.4490(6) 0.0239(3)
H3 H 1.3573 0.3667 0.0295
C6 C 1.1586(5) 0.4719(5) 0.0732(3)
C7 C 1.1598(6) 0.3704(5) 0.1389(3)
H4 H 1.0830 0.3472 0.1314
H5 H 1.2500 0.2904 0.1365
C8 C 1.1413(5) 0.4215(4) 0.2190(3)
C9 C 1.2506(5) 0.4363(4) 0.2504(3)
H6 H 1.3378 0.4100 0.2229
C10 C 1.2346(5) 0.4895(4) 0.3221(3)
C11 C 1.1025(5) 0.5278(4) 0.3612(3)
H7 H 1.0895 0.5637 0.4091
C12 C 0.9894(5) 0.5148(4) 0.3322(3)
C13 C 1.0115(5) 0.4605(4) 0.2613(3)
C14 C 0.8464(5) 0.5692(5) 0.3761(3)
H8 H 0.7772 0.5565 0.3475
H9 H 0.8571 0.5204 0.4272
C15 C 0.7910(5) 0.7151(5) 0.3863(3)
C16 C 0.7928(5) 0.7595(5) 0.4583(3)
H10 H 0.8210 0.6980 0.5020
C17 C 0.7541(5) 0.8923(5) 0.4682(3)
C18 C 0.7170(6) 0.9790(5) 0.4012(3)
H11 H 0.6942 1.0676 0.4055
C19 C 0.7119(5) 0.9404(5) 0.3281(3)
C20 C 0.7474(5) 0.8076(5) 0.3221(3)
C21 C 0.6757(7) 1.0372(5) 0.2557(3)
H12 H 0.6508 1.1255 0.2706
H13 H 0.5932 1.0404 0.2311
C22 C 0.8019(6) 0.9961(5) 0.1978(3)
C23 C 0.9306(7) 0.9886(5) 0.2185(3)
H14 H 0.9369 1.0162 0.2667
C24 C 1.0518(6) 0.9405(5) 0.1689(3)
C25 C 1.0448(6) 0.8903(5) 0.1002(3)
H15 H 1.1275 0.8513 0.0692
C26 C 0.9174(6) 0.8967(5) 0.0764(3)
C27 C 0.7958(6) 0.9548(5) 0.1248(3)
C28 C 0.9154(6) 0.8312(5) 0.0044(3)
H16 H 0.8261 0.8244 0.0037
H17 H 0.9213 0.8849 -0.0425
C29 C 1.4094(7) 0.5122(8) -0.0824(4)
H18 H 1.4850 0.4271 -0.0761
C30 C 1.3550(6) 0.5116(5) 0.3539(3)
C31 C 1.3668(14) 0.6232(12) 0.3016(6)
H19 H 1.4230 0.6551 0.3268
H20 H 1.2726 0.6944 0.2922
H21 H 1.4124 0.5907 0.2526
C32 C 1.4905(8) 0.3928(9) 0.3533(8)
H22 H 1.5672 0.4149 0.3605
H23 H 1.5042 0.3553 0.3040
H24 H 1.4898 0.3293 0.3950
C33 C 1.3210(9) 0.5619(12) 0.4337(5)
H25 H 1.3162 0.4944 0.4712
H26 H 1.2303 0.6399 0.4332
H27 H 1.3948 0.5834 0.4481
C34 C 0.7616(6) 0.9350(5) 0.5489(3)
C35 C 0.9195(8) 0.8815(9) 0.5679(4)
H28 H 0.9658 0.9161 0.5281
H29 H 0.9649 0.7862 0.5697
H30 H 0.9272 0.9084 0.6178
C36 C 0.6967(9) 0.8733(7) 0.6125(3)
H31 H 0.6991 0.9047 0.6619
H32 H 0.7509 0.7783 0.6155
H33 H 0.5991 0.8979 0.6004
C37 C 0.6873(12) 1.0829(7) 0.5504(4)
H34 H 0.5888 1.1159 0.5365
H35 H 0.7340 1.1218 0.5136
H36 H 0.6913 1.1059 0.6021
C38 C 1.1905(10) 0.9369(8) 0.1886(5)
C39 C 0.8848(7) 0.3339(5) 0.2493(3)
H37 H 0.9713 0.2593 0.2340
H38 H 0.8048 0.3369 0.2233
H39 H 0.8700 0.3249 0.3050
C40 C 0.5833(8) 1.0876(7) 0.0593(5)
H40 H 0.5748 1.1588 0.0883
H41 H 0.4896 1.0946 0.0523
H42 H 0.6276 1.0929 0.0089
C41 C 0.6153(7) 0.7687(7) 0.2296(4)
H43 H 0.5952 0.7072 0.2651
H44 H 0.6224 0.7447 0.1770
H45 H 0.5393 0.8569 0.2335
O7? O 1.2890(12) 0.9154(12) 0.1519(6)
loop_
_geom_bond_atom_site_label_1
_geom_bond_atom_site_label_2
_geom_bond_site_symmetry_1
_geom_bond_site_symmetry_2
O1 H1 1_555 1_555
O2 C13 1_555 1_555
O3 C20 1_555 1_555
O4 C27 1_555 1_555
O5 C29 1_555 1_555
O6 C38 1_555 1_555
C1 O1 1_555 1_555
C2 C1 1_555 1_555
C3 C2 1_555 1_555
H2 C3 1_555 1_555
C4 C3 1_555 1_555
C5 C4 1_555 1_555
H3 C5 1_555 1_555
C6 C1 1_555 1_555
C7 C6 1_555 1_555
H4 C7 1_555 1_555
H5 C7 1_555 1_555
C8 C7 1_555 1_555
C9 C8 1_555 1_555
H6 C9 1_555 1_555
C10 C9 1_555 1_555
C11 C10 1_555 1_555
H7 C11 1_555 1_555
C12 C11 1_555 1_555
C13 C8 1_555 1_555
C14 C12 1_555 1_555
H8 C14 1_555 1_555
H9 C14 1_555 1_555
C15 C14 1_555 1_555
C16 C15 1_555 1_555
H10 C16 1_555 1_555
C17 C16 1_555 1_555
C18 C17 1_555 1_555
H11 C18 1_555 1_555
C19 C18 1_555 1_555
C20 C15 1_555 1_555
C21 C19 1_555 1_555
H12 C21 1_555 1_555
H13 C21 1_555 1_555
C22 C21 1_555 1_555
C23 C22 1_555 1_555
H14 C23 1_555 1_555
C24 C23 1_555 1_555
C25 C24 1_555 1_555
H15 C25 1_555 1_555
C26 C25 1_555 1_555
C27 C22 1_555 1_555
C28 C2 1_555 1_555
H16 C28 1_555 1_555
H17 C28 1_555 1_555
C29 C4 1_555 1_555
H18 C29 1_555 1_555
C30 C10 1_555 1_555
C31 C30 1_555 1_555
H19 C31 1_555 1_555
H20 C31 1_555 1_555
H21 C31 1_555 1_555
C32 C30 1_555 1_555
H22 C32 1_555 1_555
H23 C32 1_555 1_555
H24 C32 1_555 1_555
C33 C30 1_555 1_555
H25 C33 1_555 1_555
H26 C33 1_555 1_555
H27 C33 1_555 1_555
C34 C17 1_555 1_555
C35 C34 1_555 1_555
H28 C35 1_555 1_555
H29 C35 1_555 1_555
H30 C35 1_555 1_555
C36 C34 1_555 1_555
H31 C36 1_555 1_555
H32 C36 1_555 1_555
H33 C36 1_555 1_555
C37 C34 1_555 1_555
H34 C37 1_555 1_555
H35 C37 1_555 1_555
H36 C37 1_555 1_555
C38 C24 1_555 1_555
C39 O2 1_555 1_555
H37 C39 1_555 1_555
H38 C39 1_555 1_555
H39 C39 1_555 1_555
C40 O4 1_555 1_555
H40 C40 1_555 1_555
H41 C40 1_555 1_555
H42 C40 1_555 1_555
C41 O3 1_555 1_555
H43 C41 1_555 1_555
H44 C41 1_555 1_555
H45 C41 1_555 1_555
C5 C6 1_555 1_555
C12 C13 1_555 1_555
C19 C20 1_555 1_555
C26 C27 1_555 1_555
C26 C28 1_555 1_555

#END
