
#######################################################################
#
#                 Cambridge Crystallographic Data Centre
#                                CCDC 
#
#######################################################################
#
# If this CIF has been generated from an entry in the Cambridge 
# Structural Database, then it will include bibliographic, chemical, 
# crystal, experimental, refinement or atomic coordinate data resulting 
# from the CCDC's data processing and validation procedures.
#
#######################################################################

data_REHWIN
_chemical_formula_moiety         'C29 H26 Br1 N1 O10'
_chemical_name_systematic        
"dimethyl 2-(4'-(4-bromophenyl)-2'-(methoxycarbonyl)-2'-(2-methoxy-2-oxoethyl)-1,3-dioxo-1,3-dihydro-1'H-spiro[indene-2,3'-pyrrolidin]-1'-yl)but-2-enedioate unknown solvate"
_symmetry_cell_setting           monoclinic
_symmetry_space_group_name_H-M   'C 2/c'
_symmetry_Int_Tables_number      15
_space_group_name_Hall           '-C 2yn'
loop_
_symmetry_equiv_pos_site_id
_symmetry_equiv_pos_as_xyz
1 x,y,z
2 -x,y,1/2-z
3 1/2+x,1/2+y,z
4 1/2-x,1/2+y,1/2-z
5 -x,-y,-z
6 x,-y,1/2+z
7 1/2-x,1/2-y,-z
8 1/2+x,1/2-y,1/2+z
_cell_length_a                   24.655(4)
_cell_length_b                   14.981(2)
_cell_length_c                   16.381(2)
_cell_angle_alpha                90
_cell_angle_beta                 97.005(5)
_cell_angle_gamma                90
_cell_volume                     6005.27
_exptl_crystal_colour            colorless
_exptl_crystal_description       block
_cell_formula_units_Z            8
loop_
_atom_site_label
_atom_site_type_symbol
_atom_site_fract_x
_atom_site_fract_y
_atom_site_fract_z
Br2 Br 0.06827(14) 0.86301(19) 1.17738(17)
C1 C 0.17980(15) 0.8503(2) 1.0155(2)
H1 H 0.1816 0.8209 0.9659
C2 C 0.13266(17) 0.8442(3) 1.0524(2)
H2 H 0.1030 0.8115 1.0279
C3 C 0.13021(17) 0.8865(3) 1.1244(2)
C4 C 0.17411(17) 0.9366(3) 1.1614(2)
H3 H 0.1716 0.9664 1.2105
C5 C 0.22076(15) 0.9416(2) 1.12492(19)
H4 H 0.2504 0.9738 1.1503
C6 C 0.22491(14) 0.89920(19) 1.05022(17)
C7 C 0.27271(13) 0.9067(2) 1.00203(17)
H5 H 0.2701 0.8560 0.9639
C8 C 0.27515(11) 0.99295(18) 0.94803(16)
C9 C 0.26715(14) 1.07600(19) 1.00136(18)
C10 C 0.21058(13) 1.10711(19) 0.98082(18)
C11 C 0.18369(15) 1.1720(2) 1.0188(2)
H6 H 0.2016 1.2057 1.0616
C12 C 0.12941(18) 1.1858(3) 0.9917(3)
H7 H 0.1100 1.2289 1.0169
C13 C 0.10324(17) 1.1360(3) 0.9269(3)
H8 H 0.0664 1.1462 0.9096
C14 C 0.13029(15) 1.0726(3) 0.8883(2)
H9 H 0.1124 1.0395 0.8451
C15 C 0.18491(13) 1.0587(2) 0.91485(18)
C16 C 0.22352(12) 0.9933(2) 0.88576(17)
C17 C 0.33024(14) 0.9047(2) 1.04800(19)
H10 H 0.3339 0.9459 1.0940
H11 H 0.3401 0.8451 1.0678
C18 C 0.33253(11) 0.98475(18) 0.91745(16)
C19 C 0.36186(12) 1.07259(19) 0.90661(18)
H12 H 0.3686 1.1018 0.9597
H13 H 0.3971 1.0596 0.8887
C20 C 0.33174(14) 1.13636(19) 0.84643(18)
C21 C 0.34227(18) 1.2504(3) 0.7498(3)
H14 H 0.3114 1.2252 0.7162
H15 H 0.3688 1.2698 0.7154
H16 H 0.3305 1.3004 0.7798
C22 C 0.32684(12) 0.9348(2) 0.83331(19)
C23 C 0.30786(16) 0.7983(3) 0.7645(2)
H17 H 0.2870 0.8346 0.7239
H18 H 0.2876 0.7452 0.7737
H19 H 0.3419 0.7822 0.7455
C24 C 0.41536(13) 0.90332(19) 0.98226(18)
C25 C 0.44334(13) 0.9045(2) 0.9163(2)
H20 H 0.4252 0.9237 0.8662
C26 C 0.50006(14) 0.8775(2) 0.9191(2)
C27 C 0.57145(17) 0.8652(3) 0.8348(3)
H21 H 0.5934 0.9091 0.8661
H22 H 0.5767 0.8700 0.7779
H23 H 0.5821 0.8066 0.8546
C28 C 0.44272(14) 0.8676(2) 1.0634(2)
C29 C 0.4844(4) 0.7415(5) 1.1282(5)
H24 H 0.5182 0.7739 1.1306
H25 H 0.4897 0.6818 1.1094
H26 H 0.4727 0.7396 1.1819
N1 N 0.36358(10) 0.93282(16) 0.98391(14)
O1 O 0.30115(10) 1.10649(14) 1.05385(13)
O2 O 0.21416(9) 0.94426(14) 0.82725(12)
O3 O 0.28306(10) 1.14727(14) 0.83596(14)
O4 O 0.36656(9) 1.18324(16) 0.80727(14)
O5 O 0.32971(9) 0.97287(15) 0.76969(12)
O6 O 0.31866(9) 0.84802(13) 0.84099(12)
O7 O 0.53020(10) 0.85533(18) 0.97943(15)
O8 O 0.51481(10) 0.87972(16) 0.84362(15)
O9 O 0.46048(11) 0.92401(17) 1.11472(13)
O10 O 0.44401(13) 0.78479(19) 1.0729(2)
Br2A Br 0.93173(14) 0.86301(19) 1.32262(17)
C1A C 0.82020(15) 0.8503(2) 1.4845(2)
H1A H 0.8184 0.8209 1.5341
C2A C 0.86734(17) 0.8442(3) 1.4476(2)
H2A H 0.8970 0.8115 1.4721
C3A C 0.86979(17) 0.8865(3) 1.3756(2)
C4A C 0.82589(17) 0.9366(3) 1.3386(2)
H3A H 0.8284 0.9664 1.2895
C5A C 0.77924(15) 0.9416(2) 1.37508(19)
H4A H 0.7496 0.9738 1.3497
C6A C 0.77509(14) 0.89920(19) 1.44978(17)
C7A C 0.72729(13) 0.9067(2) 1.49797(17)
H5A H 0.7299 0.8560 1.5361
C8A C 0.72485(11) 0.99295(18) 1.55197(16)
C9A C 0.73285(14) 1.07600(19) 1.49864(18)
C10A C 0.78942(13) 1.10711(19) 1.51918(18)
C11A C 0.81631(15) 1.1720(2) 1.4812(2)
H6A H 0.7984 1.2057 1.4384
C12A C 0.87059(18) 1.1858(3) 1.5083(3)
H7A H 0.8900 1.2289 1.4831
C13A C 0.89676(17) 1.1360(3) 1.5731(3)
H8A H 0.9336 1.1462 1.5904
C14A C 0.86971(15) 1.0726(3) 1.6117(2)
H9A H 0.8876 1.0395 1.6549
C15A C 0.81509(13) 1.0587(2) 1.58515(18)
C16A C 0.77648(12) 0.9933(2) 1.61424(17)
C17A C 0.66976(14) 0.9047(2) 1.45200(19)
H10A H 0.6661 0.9459 1.4060
H11A H 0.6599 0.8451 1.4322
C18A C 0.66747(11) 0.98475(18) 1.58255(16)
C19A C 0.63814(12) 1.07259(19) 1.59339(18)
H12A H 0.6314 1.1018 1.5403
H13A H 0.6029 1.0596 1.6113
C20A C 0.66826(14) 1.13636(19) 1.65357(18)
C21A C 0.65773(18) 1.2504(3) 1.7502(3)
H14A H 0.6886 1.2252 1.7838
H15A H 0.6312 1.2698 1.7846
H16A H 0.6695 1.3004 1.7202
C22A C 0.67316(12) 0.9348(2) 1.66669(19)
C23A C 0.69214(16) 0.7983(3) 1.7355(2)
H17A H 0.7130 0.8346 1.7761
H18A H 0.7124 0.7452 1.7263
H19A H 0.6581 0.7822 1.7545
C24A C 0.58464(13) 0.90332(19) 1.51774(18)
C25A C 0.55666(13) 0.9045(2) 1.5837(2)
H20A H 0.5748 0.9237 1.6338
C26A C 0.49994(14) 0.8775(2) 1.5809(2)
C27A C 0.42855(17) 0.8652(3) 1.6652(3)
H21A H 0.4066 0.9091 1.6339
H22A H 0.4233 0.8700 1.7221
H23A H 0.4179 0.8066 1.6454
C28A C 0.55728(14) 0.8676(2) 1.4366(2)
C29A C 0.5156(4) 0.7415(5) 1.3718(5)
H24A H 0.4818 0.7739 1.3694
H25A H 0.5103 0.6818 1.3906
H26A H 0.5273 0.7396 1.3181
N1A N 0.63642(10) 0.93282(16) 1.51609(14)
O1A O 0.69885(10) 1.10649(14) 1.44615(13)
O2A O 0.78584(9) 0.94426(14) 1.67275(12)
O3A O 0.71694(10) 1.14727(14) 1.66404(14)
O4A O 0.63344(9) 1.18324(16) 1.69273(14)
O5A O 0.67029(9) 0.97287(15) 1.73031(12)
O6A O 0.68134(9) 0.84802(13) 1.65901(12)
O7A O 0.46980(10) 0.85533(18) 1.52057(15)
O8A O 0.48519(10) 0.87972(16) 1.65638(15)
O9A O 0.53952(11) 0.92401(17) 1.38528(13)
O10A O 0.55599(13) 0.78479(19) 1.4271(2)
Br1? Br 0.0601(3) 0.9049(18) 1.1715(4)
C30? C 0.4848(4) 0.9079(6) 1.1973(4)
H27? H 0.4743 0.8495 1.2136
H28? H 0.4691 0.9553 1.2287
H29? H 0.5231 0.9154 1.1998
loop_
_geom_bond_atom_site_label_1
_geom_bond_atom_site_label_2
_geom_bond_site_symmetry_1
_geom_bond_site_symmetry_2
Br2 C3 1_555 1_555
C1 H1 1_555 1_555
C2 C1 1_555 1_555
H2 C2 1_555 1_555
C3 C2 1_555 1_555
C4 C3 1_555 1_555
H3 C4 1_555 1_555
C5 C4 1_555 1_555
H4 C5 1_555 1_555
C6 C1 1_555 1_555
C7 C6 1_555 1_555
H5 C7 1_555 1_555
C8 C7 1_555 1_555
C9 C8 1_555 1_555
C10 C9 1_555 1_555
C11 C10 1_555 1_555
H6 C11 1_555 1_555
C12 C11 1_555 1_555
H7 C12 1_555 1_555
C13 C12 1_555 1_555
H8 C13 1_555 1_555
C14 C13 1_555 1_555
H9 C14 1_555 1_555
C15 C10 1_555 1_555
C16 C8 1_555 1_555
C17 C7 1_555 1_555
H10 C17 1_555 1_555
H11 C17 1_555 1_555
C18 C8 1_555 1_555
C19 C18 1_555 1_555
H12 C19 1_555 1_555
H13 C19 1_555 1_555
C20 C19 1_555 1_555
C21 H14 1_555 1_555
H15 C21 1_555 1_555
H16 C21 1_555 1_555
C22 C18 1_555 1_555
C23 H17 1_555 1_555
H18 C23 1_555 1_555
H19 C23 1_555 1_555
C24 C25 1_555 1_555
C25 H20 1_555 1_555
C26 C25 1_555 1_555
C27 H21 1_555 1_555
H22 C27 1_555 1_555
H23 C27 1_555 1_555
C28 C24 1_555 1_555
C29 H24 1_555 1_555
H25 C29 1_555 1_555
H26 C29 1_555 1_555
N1 C17 1_555 1_555
O1 C9 1_555 1_555
O2 C16 1_555 1_555
O3 C20 1_555 1_555
O4 C20 1_555 1_555
O5 C22 1_555 1_555
O6 C22 1_555 1_555
O7 C26 1_555 1_555
O8 C26 1_555 1_555
O9 C28 1_555 1_555
O10 C28 1_555 1_555
Br2A C3A 1_555 1_555
C1A H1A 1_555 1_555
C2A C1A 1_555 1_555
H2A C2A 1_555 1_555
C3A C2A 1_555 1_555
C4A C3A 1_555 1_555
H3A C4A 1_555 1_555
C5A C4A 1_555 1_555
H4A C5A 1_555 1_555
C6A C1A 1_555 1_555
C7A C6A 1_555 1_555
H5A C7A 1_555 1_555
C8A C7A 1_555 1_555
C9A C8A 1_555 1_555
C10A C9A 1_555 1_555
C11A C10A 1_555 1_555
H6A C11A 1_555 1_555
C12A C11A 1_555 1_555
H7A C12A 1_555 1_555
C13A C12A 1_555 1_555
H8A C13A 1_555 1_555
C14A C13A 1_555 1_555
H9A C14A 1_555 1_555
C15A C10A 1_555 1_555
C16A C8A 1_555 1_555
C17A C7A 1_555 1_555
H10A C17A 1_555 1_555
H11A C17A 1_555 1_555
C18A C8A 1_555 1_555
C19A C18A 1_555 1_555
H12A C19A 1_555 1_555
H13A C19A 1_555 1_555
C20A C19A 1_555 1_555
C21A H14A 1_555 1_555
H15A C21A 1_555 1_555
H16A C21A 1_555 1_555
C22A C18A 1_555 1_555
C23A H17A 1_555 1_555
H18A C23A 1_555 1_555
H19A C23A 1_555 1_555
C24A C25A 1_555 1_555
C25A H20A 1_555 1_555
C26A C25A 1_555 1_555
C27A H21A 1_555 1_555
H22A C27A 1_555 1_555
H23A C27A 1_555 1_555
C28A C24A 1_555 1_555
C29A H24A 1_555 1_555
H25A C29A 1_555 1_555
H26A C29A 1_555 1_555
N1A C17A 1_555 1_555
O1A C9A 1_555 1_555
O2A C16A 1_555 1_555
O3A C20A 1_555 1_555
O4A C20A 1_555 1_555
O5A C22A 1_555 1_555
O6A C22A 1_555 1_555
O7A C26A 1_555 1_555
O8A C26A 1_555 1_555
O9A C28A 1_555 1_555
O10A C28A 1_555 1_555
C5 C6 1_555 1_555
C14 C15 1_555 1_555
C15 C16 1_555 1_555
C18 N1 1_555 1_555
C21 O4 1_555 1_555
C23 O6 1_555 1_555
C24 N1 1_555 1_555
C27 O8 1_555 1_555
C29 O10 1_555 1_555
C5A C6A 1_555 1_555
C14A C15A 1_555 1_555
C15A C16A 1_555 1_555
C18A N1A 1_555 1_555
C21A O4A 1_555 1_555
C23A O6A 1_555 1_555
C24A N1A 1_555 1_555
C27A O8A 1_555 1_555
C29A O10A 1_555 1_555

#END
