
#######################################################################
#
#                 Cambridge Crystallographic Data Centre
#                                CCDC 
#
#######################################################################
#
# If this CIF has been generated from an entry in the Cambridge 
# Structural Database, then it will include bibliographic, chemical, 
# crystal, experimental, refinement or atomic coordinate data resulting 
# from the CCDC's data processing and validation procedures.
#
#######################################################################

data_REHWAF
_chemical_formula_moiety         'C24 H22 Br1 N1 O6'
_chemical_name_systematic        
"methyl 4'-(4-bromophenyl)-2'-(2-methoxy-2-oxoethyl)-1'-methyl-1,3-dioxo-1,3-dihydrospiro[indene-2,3'-pyrrolidine]-2'-carboxylate"
_symmetry_cell_setting           triclinic
_symmetry_space_group_name_H-M   'P -1'
_symmetry_Int_Tables_number      2
_space_group_name_Hall           '-P 1'
loop_
_symmetry_equiv_pos_site_id
_symmetry_equiv_pos_as_xyz
1 x,y,z
2 -x,-y,-z
_cell_length_a                   7.3895(13)
_cell_length_b                   9.6729(16)
_cell_length_c                   17.431(3)
_cell_angle_alpha                81.592(5)
_cell_angle_beta                 82.372(6)
_cell_angle_gamma                68.749(5)
_cell_volume                     1144.42
_exptl_crystal_colour            'light yellow'
_exptl_crystal_description       block
_cell_formula_units_Z            2
loop_
_atom_site_label
_atom_site_type_symbol
_atom_site_fract_x
_atom_site_fract_y
_atom_site_fract_z
Br1 Br 0.22351(13) 0.8668(2) 0.01041(13)
C1 C 0.7451(3) 0.5797(2) 0.09400(12)
H1 H 0.8701 0.5820 0.0930
C2 C 0.6022(3) 0.7016(2) 0.06099(12)
H2 H 0.6306 0.7852 0.0380
C3 C 0.4180(3) 0.6986(2) 0.06230(11)
C4 C 0.3735(3) 0.5780(3) 0.09721(13)
H3 H 0.2476 0.5774 0.0986
C5 C 0.5183(3) 0.4560(2) 0.13067(12)
H4 H 0.4875 0.3741 0.1549
C6 C 0.7065(3) 0.4532(2) 0.12884(10)
C7 C 0.8616(3) 0.31550(19) 0.16403(10)
H5 H 0.8172 0.2319 0.1629
C8 C 0.8803(3) 0.4704(2) 0.26739(11)
C9 C 0.7025(3) 0.5309(2) 0.31949(11)
C10 C 0.6258(4) 0.6697(2) 0.34750(14)
H6 H 0.6839 0.7412 0.3322
C11 C 0.4614(4) 0.6979(3) 0.39854(16)
H7 H 0.4086 0.7896 0.4186
C12 C 0.3733(4) 0.5938(3) 0.42061(15)
H8 H 0.2612 0.6168 0.4548
C13 C 0.4478(3) 0.4551(3) 0.39299(12)
H9 H 0.3885 0.3843 0.4082
C14 C 0.6141(3) 0.4261(2) 0.34186(11)
C15 C 0.7257(2) 0.2888(2) 0.30464(10)
C16 C 0.8949(2) 0.31538(18) 0.25092(10)
C17 C 1.0669(3) 0.2713(2) 0.12225(11)
H10 H 1.0867 0.1945 0.0887
H11 H 1.0861 0.3570 0.0907
C18 C 1.3855(3) 0.0985(2) 0.16138(13)
H12 H 1.3603 0.0108 0.1544
H13 H 1.4706 0.0757 0.2022
H14 H 1.4462 0.1320 0.1138
C19 C 1.1011(2) 0.19305(18) 0.25855(10)
C20 C 1.0840(3) 0.0374(2) 0.27604(11)
C21 C 1.0100(5) -0.1488(3) 0.22760(16)
H15 H 1.1321 -0.2276 0.2362
H16 H 0.9588 -0.1638 0.1829
H17 H 0.9195 -0.1491 0.2725
C22 C 1.2181(3) 0.2084(2) 0.32112(11)
H18 H 1.3477 0.1337 0.3164
H19 H 1.2321 0.3055 0.3105
C23 C 1.1333(3) 0.1926(2) 0.40337(11)
C24 C 1.2076(4) 0.0874(3) 0.53173(13)
H20 H 1.1454 0.1815 0.5526
H21 H 1.3179 0.0283 0.5600
H22 H 1.1168 0.0358 0.5364
N1 N 1.2019(2) 0.21596(16) 0.18237(8)
O1 O 0.9931(2) 0.53368(16) 0.24065(9)
O2 O 0.68589(19) 0.17688(15) 0.31127(8)
O3 O 1.1140(2) -0.03747(16) 0.33738(9)
O4 O 1.0395(2) -0.00682(14) 0.21435(8)
O5 O 0.9657(2) 0.24663(17) 0.42559(8)
O6 O 1.2720(2) 0.11244(18) 0.45042(8)
Br2? Br 0.2172(7) 0.8493(9) 0.0219(6)
loop_
_geom_bond_atom_site_label_1
_geom_bond_atom_site_label_2
_geom_bond_site_symmetry_1
_geom_bond_site_symmetry_2
Br1 C3 1_555 1_555
C1 H1 1_555 1_555
C2 C1 1_555 1_555
H2 C2 1_555 1_555
C3 C2 1_555 1_555
C4 C3 1_555 1_555
H3 C4 1_555 1_555
C5 C4 1_555 1_555
H4 C5 1_555 1_555
C6 C1 1_555 1_555
C7 C6 1_555 1_555
H5 C7 1_555 1_555
C8 C9 1_555 1_555
C9 C10 1_555 1_555
C10 H6 1_555 1_555
C11 C10 1_555 1_555
H7 C11 1_555 1_555
C12 C11 1_555 1_555
H8 C12 1_555 1_555
C13 C12 1_555 1_555
H9 C13 1_555 1_555
C14 C9 1_555 1_555
C15 C14 1_555 1_555
C16 C7 1_555 1_555
C17 C7 1_555 1_555
H10 C17 1_555 1_555
H11 C17 1_555 1_555
C18 H12 1_555 1_555
H13 C18 1_555 1_555
H14 C18 1_555 1_555
C19 C16 1_555 1_555
C20 C19 1_555 1_555
C21 H15 1_555 1_555
H16 C21 1_555 1_555
H17 C21 1_555 1_555
C22 C19 1_555 1_555
H18 C22 1_555 1_555
H19 C22 1_555 1_555
C23 C22 1_555 1_555
C24 H20 1_555 1_555
H21 C24 1_555 1_555
H22 C24 1_555 1_555
N1 C17 1_555 1_555
O1 C8 1_555 1_555
O2 C15 1_555 1_555
O3 C20 1_555 1_555
O4 C20 1_555 1_555
O5 C23 1_555 1_555
O6 C23 1_555 1_555
C5 C6 1_555 1_555
C8 C16 1_555 1_555
C13 C14 1_555 1_555
C15 C16 1_555 1_555
C18 N1 1_555 1_555
C19 N1 1_555 1_555
C21 O4 1_555 1_555
C24 O6 1_555 1_555

#END
