
#######################################################################
#
#                 Cambridge Crystallographic Data Centre
#                                CCDC 
#
#######################################################################
#
# If this CIF has been generated from an entry in the Cambridge 
# Structural Database, then it will include bibliographic, chemical, 
# crystal, experimental, refinement or atomic coordinate data resulting 
# from the CCDC's data processing and validation procedures.
#
#######################################################################

data_REHYAF
_chemical_formula_moiety         'C27 H20'
_chemical_name_systematic        
10-t-Butyl-11H-cyclopenta(mno)indeno(1,2,3,4-defg)chrysene
_symmetry_cell_setting           monoclinic
_symmetry_space_group_name_H-M   'P 21/c'
_symmetry_Int_Tables_number      14
_space_group_name_Hall           '-P 2ybc'
loop_
_symmetry_equiv_pos_site_id
_symmetry_equiv_pos_as_xyz
1 x,y,z
2 -x,1/2+y,1/2-z
3 -x,-y,-z
4 x,1/2-y,1/2+z
_cell_length_a                   7.7040(6)
_cell_length_b                   20.7495(17)
_cell_length_c                   11.3041(9)
_cell_angle_alpha                90
_cell_angle_beta                 97.8180(10)
_cell_angle_gamma                90
_cell_volume                     1790.21
_cell_formula_units_Z            4
_exptl_crystal_recrystallization_method dichloromethane/ethanol
loop_
_atom_site_label
_atom_site_type_symbol
_atom_site_fract_x
_atom_site_fract_y
_atom_site_fract_z
C1 C 0.2846(2) 0.52459(9) 0.59723(16)
H1 H 0.2829 0.5168 0.5125
H2 H 0.3795 0.5540 0.6243
C2 C 0.3048(2) 0.46107(8) 0.66780(15)
C3 C 0.4415(2) 0.41811(9) 0.69835(17)
H3 H 0.5457 0.4219 0.6659
C4 C 0.4180(2) 0.36876(9) 0.77953(17)
H4 H 0.5075 0.3388 0.7971
C5 C 0.2692(2) 0.36205(8) 0.83518(16)
H5 H 0.2630 0.3290 0.8901
C6 C 0.1278(2) 0.40499(7) 0.80896(15)
C7 C -0.0262(2) 0.41440(7) 0.87352(15)
C8 C -0.0588(2) 0.38739(8) 0.98320(16)
H6 H 0.0044 0.3516 1.0141
C9 C -0.1844(2) 0.41419(9) 1.04461(16)
H7 H -0.2058 0.3943 1.1149
C10 C -0.2820(2) 0.46963(9) 1.00747(16)
H8 H -0.3602 0.4873 1.0544
C11 C -0.25872(19) 0.49722(8) 0.89929(15)
C12 C -0.29912(18) 0.56140(8) 0.83811(15)
C13 C -0.3811(2) 0.61797(9) 0.86144(16)
H9 H -0.4565 0.6200 0.9190
C14 C -0.3465(2) 0.67285(9) 0.79474(17)
H10 H -0.4071 0.7105 0.8070
C15 C -0.2294(2) 0.67476(8) 0.71260(16)
H11 H -0.2093 0.7136 0.6757
C16 C -0.1385(2) 0.61816(8) 0.68325(14)
C17 C -0.19484(19) 0.56414(8) 0.74275(14)
C18 C -0.10792(19) 0.50595(7) 0.73965(14)
C19 C -0.1379(2) 0.46569(7) 0.83470(14)
C20 C 0.0365(2) 0.50128(7) 0.68644(14)
C21 C 0.1526(2) 0.45056(8) 0.71944(15)
C22 C 0.1047(2) 0.55241(8) 0.62364(14)
C23 C 0.0165(2) 0.61156(8) 0.61695(14)
C24 C 0.0796(2) 0.67105(8) 0.55416(15)
C25 C 0.2210(3) 0.65460(10) 0.4764(2)
H12 H 0.3258 0.6414 0.5263
H13 H 0.2453 0.6919 0.4310
H14 H 0.1806 0.6202 0.4229
C26 C 0.1567(3) 0.72090(10) 0.64772(18)
H15 H 0.0676 0.7345 0.6940
H16 H 0.1986 0.7575 0.6080
H17 H 0.2520 0.7018 0.6995
C27 C -0.0726(3) 0.70048(9) 0.46801(16)
H18 H -0.1247 0.6677 0.4146
H19 H -0.0285 0.7345 0.4228
H20 H -0.1591 0.7175 0.5131
loop_
_geom_bond_atom_site_label_1
_geom_bond_atom_site_label_2
_geom_bond_site_symmetry_1
_geom_bond_site_symmetry_2
C1 H1 1_555 1_555
H2 C1 1_555 1_555
C2 C1 1_555 1_555
C3 C2 1_555 1_555
H3 C3 1_555 1_555
C4 C3 1_555 1_555
H4 C4 1_555 1_555
C5 C4 1_555 1_555
H5 C5 1_555 1_555
C6 C5 1_555 1_555
C7 C6 1_555 1_555
C8 C7 1_555 1_555
H6 C8 1_555 1_555
C9 C8 1_555 1_555
H7 C9 1_555 1_555
C10 C9 1_555 1_555
H8 C10 1_555 1_555
C11 C10 1_555 1_555
C12 C11 1_555 1_555
C13 C12 1_555 1_555
H9 C13 1_555 1_555
C14 C13 1_555 1_555
H10 C14 1_555 1_555
C15 C14 1_555 1_555
H11 C15 1_555 1_555
C16 C15 1_555 1_555
C17 C12 1_555 1_555
C18 C17 1_555 1_555
C19 C7 1_555 1_555
C20 C18 1_555 1_555
C21 C2 1_555 1_555
C22 C1 1_555 1_555
C23 C16 1_555 1_555
C24 C23 1_555 1_555
C25 C24 1_555 1_555
H12 C25 1_555 1_555
H13 C25 1_555 1_555
H14 C25 1_555 1_555
C26 C24 1_555 1_555
H15 C26 1_555 1_555
H16 C26 1_555 1_555
H17 C26 1_555 1_555
C27 C24 1_555 1_555
H18 C27 1_555 1_555
H19 C27 1_555 1_555
H20 C27 1_555 1_555
C6 C21 1_555 1_555
C11 C19 1_555 1_555
C16 C17 1_555 1_555
C18 C19 1_555 1_555
C20 C21 1_555 1_555
C20 C22 1_555 1_555
C22 C23 1_555 1_555

#END
