
#######################################################################
#
#                 Cambridge Crystallographic Data Centre
#                                CCDC 
#
#######################################################################
#
# If this CIF has been generated from an entry in the Cambridge 
# Structural Database, then it will include bibliographic, chemical, 
# crystal, experimental, refinement or atomic coordinate data resulting 
# from the CCDC's data processing and validation procedures.
#
#######################################################################

data_REJJEY
_chemical_formula_moiety         'C10 H12 N3 1+,H2 B1 O3 1-'
_chemical_name_systematic        
'2-amino-5,7-dimethyl-1,8-naphthyridinium dihydrogen borate'
_symmetry_cell_setting           monoclinic
_symmetry_space_group_name_H-M   'P 21/n'
_symmetry_Int_Tables_number      14
_space_group_name_Hall           '-P 2yn'
loop_
_symmetry_equiv_pos_site_id
_symmetry_equiv_pos_as_xyz
1 x,y,z
2 1/2-x,1/2+y,1/2-z
3 -x,-y,-z
4 1/2+x,1/2-y,1/2+z
_cell_length_a                   7.2534(6)
_cell_length_b                   10.1776(8)
_cell_length_c                   15.4660(15)
_cell_angle_alpha                90
_cell_angle_beta                 97.576(2)
_cell_angle_gamma                90
_cell_volume                     1131.77
_exptl_crystal_colour            colorless
_exptl_crystal_description       block
_cell_formula_units_Z            4
loop_
_atom_site_label
_atom_site_type_symbol
_atom_site_fract_x
_atom_site_fract_y
_atom_site_fract_z
N1 N 0.2209(7) 0.6201(4) 1.0364(3)
H1 H 0.1713 0.6928 1.0168
N2 N 0.1543(6) 0.5377(4) 0.8986(3)
N3 N 0.2866(8) 0.7147(5) 1.1713(3)
H2 H 0.2365 0.7867 1.1507
H3 H 0.3328 0.7099 1.2253
C1 C 0.2928(8) 0.6100(6) 1.1191(3)
C2 C 0.3712(9) 0.4907(6) 1.1547(4)
H4 H 0.4181 0.4846 1.2135
C3 C 0.3760(9) 0.3873(6) 1.1017(4)
H5 H 0.4288 0.3090 1.1238
C4 C 0.3020(8) 0.3949(5) 1.0124(4)
C5 C 0.2254(8) 0.5152(5) 0.9823(3)
C6 C 0.1575(8) 0.4395(6) 0.8431(4)
C7 C 0.2284(9) 0.3159(6) 0.8676(4)
H6 H 0.2240 0.2491 0.8263
C8 C 0.3048(8) 0.2918(6) 0.9521(4)
C9 C 0.0822(11) 0.4667(7) 0.7500(4)
H7 H -0.0424 0.4335 0.7382
H8 H 0.1591 0.4243 0.7124
H9 H 0.0818 0.5597 0.7398
C10 C 0.3878(11) 0.1601(6) 0.9780(5)
H10 H 0.3686 0.1015 0.9290
H11 H 0.3290 0.1248 1.0250
H12 H 0.5187 0.1698 0.9964
O1 O 0.5808(7) 0.6495(4) 0.4861(2)
O2 O 0.5218(7) 0.7203(4) 0.3390(2)
H13 H 0.5665 0.7880 0.3615
O3 O 0.4469(8) 0.5087(4) 0.3753(3)
H14 H 0.4512 0.4604 0.4180
B1 B 0.5187(11) 0.6276(7) 0.4004(4)
loop_
_geom_bond_atom_site_label_1
_geom_bond_atom_site_label_2
_geom_bond_site_symmetry_1
_geom_bond_site_symmetry_2
N1 H1 1_555 1_555
N2 C5 1_555 1_555
N3 H2 1_555 1_555
H3 N3 1_555 1_555
C1 N1 1_555 1_555
C2 C1 1_555 1_555
H4 C2 1_555 1_555
C3 C2 1_555 1_555
H5 C3 1_555 1_555
C4 C3 1_555 1_555
C5 N1 1_555 1_555
C6 N2 1_555 1_555
C7 C6 1_555 1_555
H6 C7 1_555 1_555
C8 C4 1_555 1_555
C9 C6 1_555 1_555
H7 C9 1_555 1_555
H8 C9 1_555 1_555
H9 C9 1_555 1_555
C10 C8 1_555 1_555
H10 C10 1_555 1_555
H11 C10 1_555 1_555
H12 C10 1_555 1_555
O1 B1 1_555 1_555
O2 H13 1_555 1_555
O3 H14 1_555 1_555
B1 O2 1_555 1_555
N3 C1 1_555 1_555
C4 C5 1_555 1_555
C7 C8 1_555 1_555
O3 B1 1_555 1_555

#END
