
#######################################################################
#
#                 Cambridge Crystallographic Data Centre
#                                CCDC 
#
#######################################################################
#
# If this CIF has been generated from an entry in the Cambridge 
# Structural Database, then it will include bibliographic, chemical, 
# crystal, experimental, refinement or atomic coordinate data resulting 
# from the CCDC's data processing and validation procedures.
#
#######################################################################

data_REJKAV
_chemical_formula_moiety         'C10 H12 N3 1+,C7 H4 N1 O5 1-'
_chemical_name_systematic        
'2-amino-5,7-dimethyl-1,8-naphthyridinium 2-hydroxy-5-nitrobenzoate'
_symmetry_cell_setting           monoclinic
_symmetry_space_group_name_H-M   'P 21/c'
_symmetry_Int_Tables_number      14
_space_group_name_Hall           '-P 2ybc'
loop_
_symmetry_equiv_pos_site_id
_symmetry_equiv_pos_as_xyz
1 x,y,z
2 -x,1/2+y,1/2-z
3 -x,-y,-z
4 x,1/2-y,1/2+z
_cell_length_a                   3.9127(6)
_cell_length_b                   17.084(2)
_cell_length_c                   24.759(4)
_cell_angle_alpha                90
_cell_angle_beta                 92.232(2)
_cell_angle_gamma                90
_cell_volume                     1653.75
_exptl_crystal_colour            colorless
_exptl_crystal_description       block
_cell_formula_units_Z            4
loop_
_atom_site_label
_atom_site_type_symbol
_atom_site_fract_x
_atom_site_fract_y
_atom_site_fract_z
N1 N 0.1180(7) 0.50719(16) 0.63127(10)
H1 H 0.0567 0.5547 0.6246
N2 N 0.3784(8) 0.5545(2) 0.70885(12)
N3 N -0.1713(8) 0.46889(17) 0.55310(11)
H2 H -0.2367 0.5164 0.5478
H3 H -0.2328 0.4330 0.5304
C1 C 0.0227(9) 0.4511(2) 0.59593(13)
C2 C 0.1319(10) 0.3725(2) 0.60607(14)
H4 H 0.0729 0.3331 0.5816
C3 C 0.3206(10) 0.3557(2) 0.65120(15)
H5 H 0.3893 0.3044 0.6577
C4 C 0.4172(9) 0.4150(2) 0.68921(14)
C5 C 0.3117(9) 0.4916(2) 0.67820(13)
C6 C 0.5629(11) 0.5400(3) 0.75507(17)
C7 C 0.6753(10) 0.4658(3) 0.76996(16)
H6 H 0.7997 0.4593 0.8024
C8 C 0.6077(10) 0.4015(3) 0.73799(16)
C9 C 0.6463(12) 0.6117(3) 0.78908(18)
H7 H 0.7636 0.6494 0.7678
H8 H 0.7898 0.5969 0.8197
H9 H 0.4383 0.6343 0.8013
C10 C 0.7266(11) 0.3205(3) 0.75426(16)
H10 H 0.9000 0.3244 0.7826
H11 H 0.8189 0.2946 0.7237
H12 H 0.5366 0.2910 0.7668
N4 N 0.1577(10) 0.8661(2) 0.43622(14)
O1 O 0.6034(8) 0.61615(14) 0.52313(10)
O2 O 0.8320(7) 0.65281(14) 0.60297(9)
O3 O 0.7596(8) 0.79077(16) 0.63562(10)
H13 H 0.8127 0.7444 0.6368
O4 O 0.0711(10) 0.93427(17) 0.42779(13)
O5 O 0.1196(10) 0.81439(18) 0.40219(12)
C11 C 0.6729(10) 0.6666(2) 0.55821(14)
C12 C 0.5646(9) 0.7500(2) 0.54802(13)
C13 C 0.6124(10) 0.8072(2) 0.58712(15)
C14 C 0.5036(11) 0.8841(2) 0.57717(17)
H14 H 0.5324 0.9220 0.6039
C15 C 0.3547(11) 0.9035(2) 0.52796(17)
H15 H 0.2806 0.9543 0.5210
C16 C 0.3161(10) 0.8462(2) 0.48880(15)
C17 C 0.4155(9) 0.76994(19) 0.49836(14)
H16 H 0.3825 0.7321 0.4716
loop_
_geom_bond_atom_site_label_1
_geom_bond_atom_site_label_2
_geom_bond_site_symmetry_1
_geom_bond_site_symmetry_2
N1 H1 1_555 1_555
N2 C5 1_555 1_555
N3 H2 1_555 1_555
H3 N3 1_555 1_555
C1 N1 1_555 1_555
C2 C1 1_555 1_555
H4 C2 1_555 1_555
C3 C2 1_555 1_555
H5 C3 1_555 1_555
C4 C3 1_555 1_555
C5 N1 1_555 1_555
C6 N2 1_555 1_555
C7 C6 1_555 1_555
H6 C7 1_555 1_555
C8 C4 1_555 1_555
C9 C6 1_555 1_555
H7 C9 1_555 1_555
H8 C9 1_555 1_555
H9 C9 1_555 1_555
C10 C8 1_555 1_555
H10 C10 1_555 1_555
H11 C10 1_555 1_555
H12 C10 1_555 1_555
N4 O4 1_555 1_555
O1 C11 1_555 1_555
O2 C11 1_555 1_555
O3 H13 1_555 1_555
O5 N4 1_555 1_555
C11 C12 1_555 1_555
C12 C13 1_555 1_555
C13 O3 1_555 1_555
C14 C13 1_555 1_555
H14 C14 1_555 1_555
C15 C14 1_555 1_555
H15 C15 1_555 1_555
C16 N4 1_555 1_555
C17 C12 1_555 1_555
H16 C17 1_555 1_555
N3 C1 1_555 1_555
C4 C5 1_555 1_555
C7 C8 1_555 1_555
C15 C16 1_555 1_555
C16 C17 1_555 1_555

#END
