
#######################################################################
#
#                 Cambridge Crystallographic Data Centre
#                                CCDC 
#
#######################################################################
#
# If this CIF has been generated from an entry in the Cambridge 
# Structural Database, then it will include bibliographic, chemical, 
# crystal, experimental, refinement or atomic coordinate data resulting 
# from the CCDC's data processing and validation procedures.
#
#######################################################################

data_REJKUP
_chemical_formula_moiety         'C10 H12 N3 1+,C5 H5 O5 1-,2(H2 O1)'
_chemical_name_systematic        
'2-amino-5,7-dimethyl-1,8-naphthyridinium 4-carboxy-2-oxobutanoate dihydrate'
_symmetry_cell_setting           monoclinic
_symmetry_space_group_name_H-M   'P 21/n'
_symmetry_Int_Tables_number      14
_space_group_name_Hall           '-P 2yn'
loop_
_symmetry_equiv_pos_site_id
_symmetry_equiv_pos_as_xyz
1 x,y,z
2 1/2-x,1/2+y,1/2-z
3 -x,-y,-z
4 1/2+x,1/2-y,1/2+z
_cell_length_a                   7.3266(7)
_cell_length_b                   16.9320(13)
_cell_length_c                   14.2695(12)
_cell_angle_alpha                90
_cell_angle_beta                 96.9890(10)
_cell_angle_gamma                90
_cell_volume                     1757.04
_exptl_crystal_colour            colorless
_exptl_crystal_description       block
_cell_formula_units_Z            4
loop_
_atom_site_label
_atom_site_type_symbol
_atom_site_fract_x
_atom_site_fract_y
_atom_site_fract_z
N1 N 0.3315(3) 0.50250(13) 1.07696(14)
H1 H 0.3838 0.4928 1.1331
N2 N 0.2705(3) 0.36931(14) 1.06581(16)
N3 N 0.4082(3) 0.63251(14) 1.10160(17)
H2 H 0.4589 0.6205 1.1573
H3 H 0.4085 0.6807 1.0825
C1 C 0.3304(4) 0.57735(17) 1.0457(2)
C2 C 0.2433(4) 0.59313(19) 0.9538(2)
H4 H 0.2404 0.6445 0.9305
C3 C 0.1651(4) 0.5350(2) 0.9003(2)
H5 H 0.1085 0.5466 0.8399
C4 C 0.1659(4) 0.45543(18) 0.93289(19)
C5 C 0.2536(3) 0.44026(17) 1.02408(19)
C6 C 0.1961(4) 0.30831(18) 1.0160(2)
C7 C 0.1030(4) 0.3179(2) 0.9249(2)
H6 H 0.0516 0.2739 0.8929
C8 C 0.0856(4) 0.3898(2) 0.8821(2)
C9 C 0.2175(5) 0.22935(18) 1.0617(2)
H7 H 0.3430 0.2222 1.0886
H8 H 0.1845 0.1890 1.0155
H9 H 0.1387 0.2259 1.1106
C10 C -0.0139(4) 0.3994(2) 0.7841(2)
H10 H -0.0756 0.3510 0.7647
H11 H 0.0730 0.4121 0.7411
H12 H -0.1025 0.4412 0.7839
O1 O 0.4894(3) 0.48395(12) 0.26297(14)
O2 O 0.5776(3) 0.60774(13) 0.28228(15)
O3 O 0.9829(3) 0.62457(13) 0.70117(15)
H13 H 1.0318 0.6647 0.7245
O4 O 0.9209(4) 0.70247(13) 0.57820(15)
O5 O 0.6651(3) 0.45300(13) 0.43815(15)
C11 C 0.5676(4) 0.53892(19) 0.3087(2)
C12 C 0.6608(4) 0.51953(18) 0.4091(2)
C13 C 0.7446(4) 0.58745(17) 0.4651(2)
H14 H 0.6521 0.6284 0.4657
H15 H 0.8428 0.6087 0.4328
C14 C 0.8213(4) 0.56979(17) 0.5654(2)
H16 H 0.7223 0.5524 0.5999
H17 H 0.9092 0.5269 0.5659
C15 C 0.9129(4) 0.63894(19) 0.6142(2)
O6 O 0.6815(3) 0.76591(12) 0.29344(14)
H18 H 0.6641 0.7164 0.2876
H19 H 0.7873 0.7768 0.2783
O7 O 0.4874(3) 0.32156(12) 0.25168(16)
H20 H 0.5044 0.3692 0.2693
H21 H 0.4249 0.3219 0.1974
loop_
_geom_bond_atom_site_label_1
_geom_bond_atom_site_label_2
_geom_bond_site_symmetry_1
_geom_bond_site_symmetry_2
N1 H1 1_555 1_555
N2 C5 1_555 1_555
N3 H2 1_555 1_555
H3 N3 1_555 1_555
C1 N1 1_555 1_555
C2 C1 1_555 1_555
H4 C2 1_555 1_555
C3 C2 1_555 1_555
H5 C3 1_555 1_555
C4 C3 1_555 1_555
C5 N1 1_555 1_555
C6 N2 1_555 1_555
C7 C6 1_555 1_555
H6 C7 1_555 1_555
C8 C4 1_555 1_555
C9 C6 1_555 1_555
H7 C9 1_555 1_555
H8 C9 1_555 1_555
H9 C9 1_555 1_555
C10 C8 1_555 1_555
H10 C10 1_555 1_555
H11 C10 1_555 1_555
H12 C10 1_555 1_555
O1 C11 1_555 1_555
O2 C11 1_555 1_555
O3 H13 1_555 1_555
O4 C15 1_555 1_555
O5 C12 1_555 1_555
C11 C12 1_555 1_555
C12 C13 1_555 1_555
C13 H14 1_555 1_555
H15 C13 1_555 1_555
C14 C13 1_555 1_555
H16 C14 1_555 1_555
H17 C14 1_555 1_555
C15 O3 1_555 1_555
O6 H18 1_555 1_555
H19 O6 1_555 1_555
O7 H20 1_555 1_555
H21 O7 1_555 1_555
N3 C1 1_555 1_555
C4 C5 1_555 1_555
C7 C8 1_555 1_555
C14 C15 1_555 1_555

#END
