
#######################################################################
#
#                 Cambridge Crystallographic Data Centre
#                                CCDC 
#
#######################################################################
#
# If this CIF has been generated from an entry in the Cambridge 
# Structural Database, then it will include bibliographic, chemical, 
# crystal, experimental, refinement or atomic coordinate data resulting 
# from the CCDC's data processing and validation procedures.
#
#######################################################################

data_REJMAU
_chemical_formula_moiety         'C34 H32 N4,C1 H1 Cl3'
_chemical_name_systematic        
"(E,E)-1,3-bis(2-(2,2'-Bipyridine-5-yl)ethenyl)adamantane chloroform solvate"
_symmetry_cell_setting           orthorhombic
_symmetry_space_group_name_H-M   'P b c n'
_symmetry_Int_Tables_number      60
_space_group_name_Hall           '-P 2n 2ab'
loop_
_symmetry_equiv_pos_site_id
_symmetry_equiv_pos_as_xyz
1 x,y,z
2 1/2-x,1/2-y,1/2+z
3 1/2+x,1/2-y,-z
4 -x,y,1/2-z
5 -x,-y,-z
6 1/2+x,1/2+y,1/2-z
7 1/2-x,1/2+y,z
8 x,-y,1/2+z
_cell_length_a                   8.954(1)
_cell_length_b                   13.682(1)
_cell_length_c                   50.221(3)
_cell_angle_alpha                90
_cell_angle_beta                 90
_cell_angle_gamma                90
_cell_volume                     6152.51
_exptl_crystal_colour            yellow
_chemical_melting_point          205-207deg.C
_cell_formula_units_Z            8
loop_
_atom_site_label
_atom_site_type_symbol
_atom_site_fract_x
_atom_site_fract_y
_atom_site_fract_z
N1 N 0.0339(5) 0.7844(4) 0.6961(1)
C1 C 0.0090(7) 0.8628(5) 0.7109(1)
C2 C 0.1144(8) 0.9343(5) 0.7158(1)
C3 C 0.2536(8) 0.9239(4) 0.7042(1)
C4 C 0.2818(7) 0.8434(4) 0.6889(1)
C5 C 0.1703(6) 0.7740(4) 0.6853(1)
C6 C 0.1955(7) 0.6857(4) 0.6688(1)
N2 N 0.3396(5) 0.6600(3) 0.6649(1)
C7 C 0.3663(7) 0.5842(4) 0.6496(1)
C8 C 0.2566(7) 0.5265(4) 0.6371(1)
C9 C 0.1105(7) 0.5539(5) 0.6419(1)
C10 C 0.0801(6) 0.6327(4) 0.6579(1)
C11 C 0.3053(7) 0.4464(4) 0.6195(1)
C12 C 0.2211(7) 0.4008(4) 0.6015(1)
C13 C 0.2748(6) 0.3260(4) 0.5816(1)
C14 C 0.1764(6) 0.2343(4) 0.5830(1)
C15 C 0.2251(7) 0.1609(4) 0.5618(1)
C16 C 0.2082(7) 0.2066(4) 0.5342(1)
C17 C 0.3072(6) 0.2987(4) 0.5318(1)
C18 C 0.4712(6) 0.2686(4) 0.5370(1)
C19 C 0.4874(7) 0.2239(4) 0.5647(1)
C20 C 0.3885(7) 0.1319(4) 0.5663(1)
C21 C 0.4379(6) 0.2970(4) 0.5859(1)
C22 C 0.2594(6) 0.3720(4) 0.5536(1)
C23 C 0.2959(6) 0.3392(4) 0.5044(1)
C24 C 0.2556(7) 0.4292(4) 0.4970(1)
C25 C 0.2536(7) 0.4646(4) 0.4692(1)
C26 C 0.3262(7) 0.4175(4) 0.4482(1)
C27 C 0.3178(6) 0.4542(5) 0.4230(1)
C28 C 0.2397(6) 0.5407(4) 0.4184(1)
N3 N 0.1708(5) 0.5887(3) 0.4382(1)
C29 C 0.1806(7) 0.5505(4) 0.4628(1)
C30 C 0.2313(7) 0.5830(4) 0.3913(1)
N4 N 0.2737(6) 0.5266(4) 0.3713(1)
C31 C 0.2670(8) 0.5638(5) 0.3467(1)
C32 C 0.2201(7) 0.6562(5) 0.3412(1)
C33 C 0.1790(8) 0.7156(6) 0.3621(1)
C34 C 0.1877(7) 0.6793(5) 0.3876(1)
H1 H -0.0880 0.8704 0.7188
H2 H 0.0934 0.9896 0.7269
H3 H 0.3292 0.9727 0.7069
H4 H 0.3775 0.8347 0.6806
H5 H 0.4686 0.5660 0.6467
H6 H 0.0307 0.5171 0.6340
H7 H -0.0213 0.6510 0.6616
H8 H 0.4062 0.4235 0.6213
H9 H 0.1179 0.4195 0.6010
H10 H 0.0742 0.2526 0.5802
H11 H 0.1847 0.2054 0.6004
H12 H 0.1639 0.1035 0.5630
H13 H 0.1055 0.2228 0.5309
H14 H 0.2397 0.1602 0.5210
H15 H 0.5352 0.3246 0.5353
H16 H 0.5006 0.2214 0.5239
H17 H 0.5899 0.2062 0.5676
H18 H 0.4191 0.0852 0.5531
H19 H 0.3992 0.1024 0.5835
H20 H 0.4479 0.2676 0.6032
H21 H 0.4995 0.3544 0.5854
H22 H 0.3210 0.4293 0.5526
H23 H 0.1576 0.3914 0.5508
H24 H 0.3219 0.2952 0.4902
H25 H 0.2238 0.4732 0.5107
H26 H 0.3836 0.3596 0.4516
H27 H 0.3643 0.4207 0.4084
H28 H 0.1348 0.5860 0.4771
H29 H 0.2955 0.5220 0.3322
H30 H 0.2164 0.6795 0.3232
H31 H 0.1459 0.7813 0.3588
H32 H 0.1629 0.7193 0.4026
C35 C 0.2929(7) 0.8661(5) 0.2782(1)
Cl1 Cl 0.1251(2) 0.8532(1) 0.2962(1)
Cl2 Cl 0.3488(2) 0.9893(1) 0.2772(1)
Cl3 Cl 0.2739(3) 0.8209(2) 0.2459(1)
H33 H 0.3691 0.8291 0.2871
loop_
_geom_bond_atom_site_label_1
_geom_bond_atom_site_label_2
_geom_bond_site_symmetry_1
_geom_bond_site_symmetry_2
N1 C1 1_555 1_555
C1 C2 1_555 1_555
C2 C3 1_555 1_555
C3 C4 1_555 1_555
C4 C5 1_555 1_555
C5 N1 1_555 1_555
C6 C5 1_555 1_555
N2 C6 1_555 1_555
C7 N2 1_555 1_555
C8 C7 1_555 1_555
C9 C8 1_555 1_555
C10 C6 1_555 1_555
C11 C8 1_555 1_555
C12 C11 1_555 1_555
C13 C12 1_555 1_555
C14 C13 1_555 1_555
C15 C14 1_555 1_555
C16 C15 1_555 1_555
C17 C16 1_555 1_555
C18 C17 1_555 1_555
C19 C18 1_555 1_555
C20 C15 1_555 1_555
C21 C13 1_555 1_555
C22 C13 1_555 1_555
C23 C17 1_555 1_555
C24 C23 1_555 1_555
C25 C24 1_555 1_555
C26 C25 1_555 1_555
C27 C26 1_555 1_555
C28 C27 1_555 1_555
N3 C28 1_555 1_555
C29 C25 1_555 1_555
C30 C28 1_555 1_555
N4 C30 1_555 1_555
C31 N4 1_555 1_555
C32 C31 1_555 1_555
C33 C32 1_555 1_555
C34 C30 1_555 1_555
C35 Cl1 1_555 1_555
Cl2 C35 1_555 1_555
Cl3 C35 1_555 1_555
H1 C1 1_555 1_555
H2 C2 1_555 1_555
H3 C3 1_555 1_555
H4 C4 1_555 1_555
H5 C7 1_555 1_555
H6 C9 1_555 1_555
H7 C10 1_555 1_555
H8 C11 1_555 1_555
H9 C12 1_555 1_555
H10 C14 1_555 1_555
H11 C14 1_555 1_555
H12 C15 1_555 1_555
H13 C16 1_555 1_555
H14 C16 1_555 1_555
H15 C18 1_555 1_555
H16 C18 1_555 1_555
H17 C19 1_555 1_555
H18 C20 1_555 1_555
H19 C20 1_555 1_555
H20 C21 1_555 1_555
H21 C21 1_555 1_555
H22 C22 1_555 1_555
H23 C22 1_555 1_555
H24 C23 1_555 1_555
H25 C24 1_555 1_555
H26 C26 1_555 1_555
H27 C27 1_555 1_555
H28 C29 1_555 1_555
H29 C31 1_555 1_555
H30 C32 1_555 1_555
H31 C33 1_555 1_555
H32 C34 1_555 1_555
H33 C35 1_555 1_555
C9 C10 1_555 1_555
C17 C22 1_555 1_555
C19 C20 1_555 1_555
C19 C21 1_555 1_555
N3 C29 1_555 1_555
C33 C34 1_555 1_555

#END
