
#######################################################################
#
#                 Cambridge Crystallographic Data Centre
#                                CCDC 
#
#######################################################################
#
# If this CIF has been generated from an entry in the Cambridge 
# Structural Database, then it will include bibliographic, chemical, 
# crystal, experimental, refinement or atomic coordinate data resulting 
# from the CCDC's data processing and validation procedures.
#
#######################################################################

data_REJMOL
_chemical_formula_moiety         'C2 N12 O4 2-,2(C1 H9 N6 1+),2(H2 O1)'
_chemical_name_systematic        
"bis(triaminoguanidinium) 1,1'-dinitramino-5,5'-bitetrazolate dihydrate"
_symmetry_cell_setting           triclinic
_symmetry_space_group_name_H-M   'P -1'
_symmetry_Int_Tables_number      2
_space_group_name_Hall           '-P 1'
loop_
_symmetry_equiv_pos_site_id
_symmetry_equiv_pos_as_xyz
1 x,y,z
2 -x,-y,-z
_cell_length_a                   7.291(4)
_cell_length_b                   8.089(5)
_cell_length_c                   9.722(6)
_cell_angle_alpha                80.145(12)
_cell_angle_beta                 68.623(10)
_cell_angle_gamma                81.120(13)
_cell_volume                     523.398
_exptl_crystal_colour            colorless
_exptl_crystal_description       block
_cell_formula_units_Z            1
_chemical_properties_physical    
', This compound may be sensitive to impact, friction and other external stimuli.'
_exptl_crystal_recrystallization_method water
_exptl_crystal_preparation       ', energetic properties'
loop_
_atom_site_label
_atom_site_type_symbol
_atom_site_fract_x
_atom_site_fract_y
_atom_site_fract_z
C1 C 0.4387(3) 0.0721(3) 1.0336(2)
N1 N 0.2808(3) 0.0690(2) 1.1551(2)
N2 N 0.2175(3) 0.2336(2) 1.1737(2)
N3 N 0.3310(3) 0.3334(2) 1.0695(2)
N4 N 0.4710(2) 0.2342(2) 0.9793(2)
N5 N 0.6060(3) 0.3006(2) 0.8459(2)
N6 N 0.7816(3) 0.2899(2) 0.8596(2)
O1 O 0.8148(3) 0.2319(2) 0.9771(2)
O2 O 0.9159(2) 0.3409(3) 0.7448(2)
C1A C 0.5613(3) -0.0721(3) 0.9664(2)
N1A N 0.7192(3) -0.0690(2) 0.8449(2)
N2A N 0.7825(3) -0.2336(2) 0.8263(2)
N3A N 0.6690(3) -0.3334(2) 0.9305(2)
N4A N 0.5290(2) -0.2342(2) 1.0207(2)
N5A N 0.3940(3) -0.3006(2) 1.1541(2)
N6A N 0.2184(3) -0.2899(2) 1.1404(2)
O1A O 0.1852(3) -0.2319(2) 1.0229(2)
O2A O 0.0841(2) -0.3409(3) 1.2552(2)
C2 C 0.6098(3) 0.3106(3) 0.3974(2)
H1 H 0.480(4) 0.151(4) 0.570(3)
H2 H 0.889(4) 0.294(4) 0.314(3)
H3 H 0.468(4) 0.481(4) 0.302(3)
H4 H 0.206(4) 0.410(4) 0.528(3)
H5 H 0.191(4) 0.329(4) 0.411(3)
H6 H 0.870(4) 0.545(4) 0.183(3)
H7 H 0.833(5) 0.432(5) 0.108(4)
H8 H 0.789(5) -0.023(6) 0.509(4)
H9 H 0.783(5) 0.100(4) 0.601(4)
N7 N 0.4469(3) 0.3929(3) 0.3782(2)
N8 N 0.2633(3) 0.3359(3) 0.4692(3)
N9 N 0.5997(3) 0.1827(3) 0.5044(2)
N10 N 0.7807(3) 0.0996(3) 0.5147(3)
N11 N 0.7850(3) 0.3606(3) 0.3106(2)
N12 N 0.7886(3) 0.4855(3) 0.1889(2)
O3 O 0.2572(3) 0.0586(3) 0.7698(3)
H10 H 0.224(6) -0.018(4) 0.841(4)
H11 H 0.158(5) 0.128(5) 0.768(5)
loop_
_geom_bond_atom_site_label_1
_geom_bond_atom_site_label_2
_geom_bond_site_symmetry_1
_geom_bond_site_symmetry_2
C1 N1 1_555 1_555
N1 N2 1_555 1_555
N2 N3 1_555 1_555
N3 N4 1_555 1_555
N4 C1 1_555 1_555
N5 N4 1_555 1_555
N6 N5 1_555 1_555
O1 N6 1_555 1_555
O2 N6 1_555 1_555
C2 N7 1_555 1_555
H1 N9 1_555 1_555
H2 N11 1_555 1_555
H3 N7 1_555 1_555
H4 N8 1_555 1_555
H5 N8 1_555 1_555
H6 N12 1_555 1_555
H7 N12 1_555 1_555
H8 N10 1_555 1_555
H9 N10 1_555 1_555
N7 N8 1_555 1_555
N9 C2 1_555 1_555
N10 N9 1_555 1_555
N11 C2 1_555 1_555
N12 N11 1_555 1_555
O3 H10 1_555 1_555
H11 O3 1_555 1_555
C1A C1 1_555 1_555
N1A C1A 1_555 1_555
N2A N1A 1_555 1_555
N3A N2A 1_555 1_555
N4A C1A 1_555 1_555
N5A N4A 1_555 1_555
N6A N5A 1_555 1_555
O1A N6A 1_555 1_555
O2A N6A 1_555 1_555
N3A N4A 1_555 1_555

#END
