
#######################################################################
#
#                 Cambridge Crystallographic Data Centre
#                                CCDC 
#
#######################################################################
#
# If this CIF has been generated from an entry in the Cambridge 
# Structural Database, then it will include bibliographic, chemical, 
# crystal, experimental, refinement or atomic coordinate data resulting 
# from the CCDC's data processing and validation procedures.
#
#######################################################################

data_REJMUO01
_chemical_name_common            1-(2-picolyl)-orthocarborane
_chemical_formula_moiety         'C8 H17 B10 N1'
_chemical_name_systematic        
1-(2-Picolyl)-1,2-dicarba-closo-dodecaborane(11)
_symmetry_cell_setting           monoclinic
_symmetry_space_group_name_H-M   'P 2/c'
_symmetry_Int_Tables_number      13
_space_group_name_Hall           '-P 2yc'
loop_
_symmetry_equiv_pos_site_id
_symmetry_equiv_pos_as_xyz
1 x,y,z
2 x,-y,1/2+z
3 -x,-y,-z
4 -x,y,1/2-z
_cell_length_a                   8.887(1)
_cell_length_b                   7.170(2)
_cell_length_c                   21.945(3)
_cell_angle_alpha                90
_cell_angle_beta                 90.22(1)
_cell_angle_gamma                90
_cell_volume                     1398.32
_exptl_crystal_colour            white
_exptl_crystal_description       block
_chemical_melting_point          '352.5-353.0 K'
_cell_formula_units_Z            4
_exptl_crystal_recrystallization_method 'diethyl ether'
loop_
_atom_site_label
_atom_site_type_symbol
_atom_site_fract_x
_atom_site_fract_y
_atom_site_fract_z
N1 N 0.6435(3) 0.0942(4) 0.30949(11)
C1 C 0.4258(3) 0.3591(4) 0.38270(11)
C2 C 0.3249(3) 0.2855(4) 0.32581(13)
H1 H 0.372(4) 0.222(5) 0.2915(16)
C3 C 0.5976(3) 0.3372(4) 0.38248(15)
H2 H 0.6385 0.4257 0.3535
H3 H 0.6352 0.3720 0.4225
C4 C 0.6590(3) 0.1479(4) 0.36726(13)
C5 C 0.7327(3) 0.0403(5) 0.40961(13)
H4 H 0.7406 0.0803 0.4498
C6 C 0.7944(3) -0.1269(5) 0.39221(16)
H5 H 0.8455 -0.2009 0.4203
C7 C 0.7797(4) -0.1823(5) 0.33337(17)
H6 H 0.8210 -0.2944 0.3201
C8 C 0.7031(4) -0.0697(5) 0.29436(15)
H7 H 0.6915 -0.1098 0.2543
B1 B 0.3140(4) 0.1663(5) 0.39182(18)
H8 H 0.3571 0.0242 0.3991
B2 B 0.3261(4) 0.3403(7) 0.44769(16)
H9 H 0.3761 0.3120 0.4927
B3 B 0.3518(4) 0.5560(5) 0.41133(18)
H10 H 0.4185 0.6681 0.4324
B4 B 0.3532(4) 0.5185(5) 0.33300(18)
H11 H 0.4210 0.6050 0.3021
B5 B 0.1525(4) 0.2095(5) 0.34751(17)
H12 H 0.0890 0.0956 0.3258
B6 B 0.1491(4) 0.2480(6) 0.42631(17)
H13 H 0.0824 0.1599 0.4571
B7 B 0.1719(4) 0.4908(7) 0.4380(2)
H14 H 0.1190 0.5626 0.4767
B8 B 0.1900(4) 0.5993(6) 0.3667(2)
H15 H 0.1491 0.7417 0.3581
B9 B 0.1774(4) 0.4251(6) 0.31107(18)
H16 H 0.1297 0.4503 0.2655
B10 B 0.0649(4) 0.4097(5) 0.37680(18)
H17 H -0.0579 0.4283 0.3752
loop_
_geom_bond_atom_site_label_1
_geom_bond_atom_site_label_2
_geom_bond_site_symmetry_1
_geom_bond_site_symmetry_2
N1 C4 1_555 1_555
C1 C2 1_555 1_555
C2 H1 1_555 1_555
C3 C1 1_555 1_555
H2 C3 1_555 1_555
H3 C3 1_555 1_555
C4 C3 1_555 1_555
C5 C4 1_555 1_555
H4 C5 1_555 1_555
C6 C5 1_555 1_555
H5 C6 1_555 1_555
C7 C6 1_555 1_555
H6 C7 1_555 1_555
C8 N1 1_555 1_555
H7 C8 1_555 1_555
B1 C1 1_555 1_555
H8 B1 1_555 1_555
B2 C1 1_555 1_555
H9 B2 1_555 1_555
B3 C1 1_555 1_555
H10 B3 1_555 1_555
B4 C1 1_555 1_555
H11 B4 1_555 1_555
B5 C2 1_555 1_555
H12 B5 1_555 1_555
B6 B1 1_555 1_555
H13 B6 1_555 1_555
B7 B2 1_555 1_555
H14 B7 1_555 1_555
B8 B3 1_555 1_555
H15 B8 1_555 1_555
B9 C2 1_555 1_555
H16 B9 1_555 1_555
B10 B5 1_555 1_555
H17 B10 1_555 1_555
C2 B1 1_555 1_555
C2 B4 1_555 1_555
C7 C8 1_555 1_555
B1 B5 1_555 1_555
B1 B2 1_555 1_555
B2 B6 1_555 1_555
B2 B3 1_555 1_555
B3 B7 1_555 1_555
B3 B4 1_555 1_555
B4 B9 1_555 1_555
B4 B8 1_555 1_555
B5 B9 1_555 1_555
B5 B6 1_555 1_555
B6 B10 1_555 1_555
B6 B7 1_555 1_555
B7 B8 1_555 1_555
B7 B10 1_555 1_555
B8 B9 1_555 1_555
B8 B10 1_555 1_555
B9 B10 1_555 1_555

#END
