
#######################################################################
#
#                 Cambridge Crystallographic Data Centre
#                                CCDC 
#
#######################################################################
#
# If this CIF has been generated from an entry in the Cambridge 
# Structural Database, then it will include bibliographic, chemical, 
# crystal, experimental, refinement or atomic coordinate data resulting 
# from the CCDC's data processing and validation procedures.
#
#######################################################################

data_REJQIJ
_chemical_compound_source        'roots of S. miltiorrhiza'
_chemical_name_common            'Salmiltiorin A'
_chemical_formula_moiety         'C18 H16 O4'
_chemical_name_systematic        
6-methyl-3-(4-methyl-2-oxooxolan-3-yl)naphtho[1,2-c]furan-1(3H)-one
_symmetry_cell_setting           orthorhombic
_symmetry_space_group_name_H-M   'P 21 21 21'
_symmetry_Int_Tables_number      19
_space_group_name_Hall           'P 2ac 2ab'
loop_
_symmetry_equiv_pos_site_id
_symmetry_equiv_pos_as_xyz
1 x,y,z
2 1/2-x,-y,1/2+z
3 1/2+x,1/2-y,-z
4 -x,1/2+y,1/2-z
_cell_length_a                   18.6654(16)
_cell_length_b                   12.7780(7)
_cell_length_c                   6.3277(5)
_cell_angle_alpha                90
_cell_angle_beta                 90
_cell_angle_gamma                90
_cell_volume                     1509.2
_exptl_crystal_colour            colorless
_exptl_crystal_description       plate
_chemical_melting_point          '201-204 deg.C'
_cell_formula_units_Z            4
loop_
_atom_site_label
_atom_site_type_symbol
_atom_site_fract_x
_atom_site_fract_y
_atom_site_fract_z
O1 O 0.05129(17) -0.24421(18) -0.4941(6)
O2 O 0.00381(14) -0.13726(17) -0.7358(4)
O3 O -0.08359(19) -0.0850(2) -1.1491(5)
O4 O -0.17593(17) -0.0703(2) -0.9302(6)
C1 C 0.13833(19) -0.1132(3) -0.1615(7)
H1 H 0.1281 -0.1832 -0.1887
C2 C 0.1780(2) -0.0865(3) 0.0107(8)
H2 H 0.1949 -0.1386 0.1002
C3 C 0.19354(19) 0.0185(3) 0.0550(7)
H3 H 0.2206 0.0347 0.1739
C4 C 0.1697(2) 0.0979(3) -0.0730(7)
C5 C 0.12875(18) 0.0723(2) -0.2556(7)
C6 C 0.1025(2) 0.1497(3) -0.3972(7)
H4 H 0.1129 0.2196 -0.3692
C7 C 0.0630(2) 0.1266(3) -0.5716(7)
H5 H 0.0473 0.1790 -0.6623
C8 C 0.04665(18) 0.0209(3) -0.6108(6)
C9 C 0.07040(19) -0.0555(2) -0.4790(6)
C10 C 0.11294(17) -0.0352(2) -0.2977(6)
C11 C 0.0437(2) -0.1563(3) -0.5579(7)
C12 C -0.1074(2) -0.0517(3) -0.9873(8)
C13 C -0.0700(2) 0.0125(3) -0.8195(6)
H6 H -0.0675 0.0851 -0.8692
C14 C 0.0053(2) -0.0265(3) -0.7891(6)
H7 H 0.0321 -0.0170 -0.9208
C15 C -0.12088(19) 0.0087(3) -0.6318(7)
H8 H -0.1070 -0.0500 -0.5409
C16 C -0.1917(2) -0.0170(4) -0.7348(9)
H9 H -0.2201 -0.0615 -0.6430
H10 H -0.2185 0.0467 -0.7623
C17 C -0.1244(2) 0.1073(4) -0.4979(9)
H11 H -0.0802 0.1156 -0.4219
H12 H -0.1633 0.1017 -0.3994
H13 H -0.1318 0.1669 -0.5877
C18 C 0.1867(3) 0.2103(3) -0.0173(9)
H14 H 0.2126 0.2421 -0.1313
H15 H 0.2153 0.2121 0.1088
H16 H 0.1429 0.2479 0.0061
loop_
_geom_bond_atom_site_label_1
_geom_bond_atom_site_label_2
_geom_bond_site_symmetry_1
_geom_bond_site_symmetry_2
O1 C11 1_555 1_555
O2 C11 1_555 1_555
O3 C12 1_555 1_555
O4 C12 1_555 1_555
C1 H1 1_555 1_555
C2 C1 1_555 1_555
H2 C2 1_555 1_555
C3 C2 1_555 1_555
H3 C3 1_555 1_555
C4 C3 1_555 1_555
C5 C4 1_555 1_555
C6 C5 1_555 1_555
H4 C6 1_555 1_555
C7 C6 1_555 1_555
H5 C7 1_555 1_555
C8 C7 1_555 1_555
C9 C8 1_555 1_555
C10 C1 1_555 1_555
C11 C9 1_555 1_555
C12 C13 1_555 1_555
C13 H6 1_555 1_555
C14 O2 1_555 1_555
H7 C14 1_555 1_555
C15 C13 1_555 1_555
H8 C15 1_555 1_555
C16 O4 1_555 1_555
H9 C16 1_555 1_555
H10 C16 1_555 1_555
C17 C15 1_555 1_555
H11 C17 1_555 1_555
H12 C17 1_555 1_555
H13 C17 1_555 1_555
C18 C4 1_555 1_555
H14 C18 1_555 1_555
H15 C18 1_555 1_555
H16 C18 1_555 1_555
C5 C10 1_555 1_555
C8 C14 1_555 1_555
C9 C10 1_555 1_555
C13 C14 1_555 1_555
C15 C16 1_555 1_555

#END
