
#######################################################################
#
#                 Cambridge Crystallographic Data Centre
#                                CCDC 
#
#######################################################################
#
# If this CIF has been generated from an entry in the Cambridge 
# Structural Database, then it will include bibliographic, chemical, 
# crystal, experimental, refinement or atomic coordinate data resulting 
# from the CCDC's data processing and validation procedures.
#
#######################################################################

data_REJVAE
_chemical_formula_moiety         'C5 H9 N3'
_chemical_name_systematic        2,3,5,6-Tetrahydro-1H-imidazo(1,2-a)imidazole
_symmetry_cell_setting           monoclinic
_symmetry_space_group_name_H-M   'P 21/c'
_symmetry_Int_Tables_number      14
_space_group_name_Hall           '-P 2ybc'
loop_
_symmetry_equiv_pos_site_id
_symmetry_equiv_pos_as_xyz
1 x,y,z
2 -x,1/2+y,1/2-z
3 -x,-y,-z
4 x,1/2-y,1/2+z
_cell_length_a                   7.067(3)
_cell_length_b                   10.294(4)
_cell_length_c                   7.596(3)
_cell_angle_alpha                90
_cell_angle_beta                 101.075(6)
_cell_angle_gamma                90
_cell_volume                     542.3
_exptl_crystal_colour            colorless
_exptl_crystal_description       plate
_cell_formula_units_Z            4
_exptl_crystal_recrystallization_method sublimation
loop_
_atom_site_label
_atom_site_type_symbol
_atom_site_fract_x
_atom_site_fract_y
_atom_site_fract_z
N1 N -0.04432(18) 0.16480(11) 0.07591(18)
H1 H -0.1292 0.1042 0.0414
N2 N 0.25465(18) 0.04393(11) 0.13340(17)
N3 N 0.23259(17) 0.25806(10) 0.21191(15)
C1 C 0.1452(2) 0.14480(12) 0.13607(17)
C2 C 0.4511(2) 0.09084(14) 0.21298(19)
H2 H 0.5453 0.0600 0.1431
H3 H 0.4899 0.0603 0.3369
C3 C 0.4371(2) 0.24090(13) 0.2069(2)
H4 H 0.5202 0.2809 0.3109
H5 H 0.4692 0.2761 0.0964
C4 C -0.0860(2) 0.30444(13) 0.0773(2)
H6 H -0.1663 0.3249 0.1654
H7 H -0.1519 0.3341 -0.0413
C5 C 0.1152(2) 0.36734(13) 0.12991(19)
H8 H 0.1609 0.4002 0.0244
H9 H 0.1148 0.4384 0.2157
loop_
_geom_bond_atom_site_label_1
_geom_bond_atom_site_label_2
_geom_bond_site_symmetry_1
_geom_bond_site_symmetry_2
N1 H1 1_555 1_555
N2 C1 1_555 1_555
N3 C1 1_555 1_555
C1 N1 1_555 1_555
C2 N2 1_555 1_555
H2 C2 1_555 1_555
H3 C2 1_555 1_555
C3 N3 1_555 1_555
H4 C3 1_555 1_555
H5 C3 1_555 1_555
C4 N1 1_555 1_555
H6 C4 1_555 1_555
H7 C4 1_555 1_555
C5 N3 1_555 1_555
H8 C5 1_555 1_555
H9 C5 1_555 1_555
C2 C3 1_555 1_555
C4 C5 1_555 1_555

#END
