
#######################################################################
#
#                 Cambridge Crystallographic Data Centre
#                                CCDC 
#
#######################################################################
#
# If this CIF has been generated from an entry in the Cambridge 
# Structural Database, then it will include bibliographic, chemical, 
# crystal, experimental, refinement or atomic coordinate data resulting 
# from the CCDC's data processing and validation procedures.
#
#######################################################################

data_REKBOZ04
_chemical_formula_moiety         'C6 H10 N2 2+,O4 S1 2-,1.5(H2 O1)'
_chemical_name_systematic        
'Phenylene-1,2-diammonium sulfate sesquihydrate'
_symmetry_cell_setting           monoclinic
_symmetry_space_group_name_H-M   'P 21/c'
_symmetry_Int_Tables_number      14
_space_group_name_Hall           '-P 2ybc'
loop_
_symmetry_equiv_pos_site_id
_symmetry_equiv_pos_as_xyz
1 x,y,z
2 -x,1/2+y,1/2-z
3 -x,-y,-z
4 x,1/2-y,1/2+z
_cell_length_a                   27.1493(13)
_cell_length_b                   9.5940(5)
_cell_length_c                   7.5415(4)
_cell_angle_alpha                90
_cell_angle_beta                 92.860(4)
_cell_angle_gamma                90
_cell_volume                     1961.89
_exptl_crystal_colour            colorless
_exptl_crystal_description       block
_cell_formula_units_Z            8
loop_
_atom_site_label
_atom_site_type_symbol
_atom_site_fract_x
_atom_site_fract_y
_atom_site_fract_z
S1 S 0.44941(5) 0.57845(14) 0.19317(17)
O1 O 0.40977(14) 0.6502(4) 0.2852(6)
O2 O 0.47152(15) 0.4712(4) 0.3127(5)
O3 O 0.48755(14) 0.6804(4) 0.1557(5)
O4 O 0.42958(16) 0.5130(4) 0.0301(5)
N1 N 0.42576(17) 0.5738(5) -0.3456(6)
H1 H 0.4144 0.6570 -0.3151
H2 H 0.4353 0.5771 -0.4567
H3 H 0.4513 0.5508 -0.2730
N2 N 0.44265(16) 0.2843(5) -0.4290(6)
H4 H 0.4538 0.3445 -0.5074
H5 H 0.4395 0.2005 -0.4789
H6 H 0.4639 0.2794 -0.3353
C1 C 0.3950(2) 0.3309(6) -0.3725(7)
C2 C 0.3569(2) 0.2356(7) -0.3633(8)
H7 H 0.3621 0.1421 -0.3889
C3 C 0.3869(2) 0.4699(6) -0.3326(7)
C4 C 0.3410(2) 0.5127(6) -0.2822(8)
H8 H 0.3357 0.6055 -0.2528
C5 C 0.3030(2) 0.4174(7) -0.2755(10)
H9 H 0.2720 0.4465 -0.2436
C6 C 0.3108(2) 0.2811(7) -0.3156(10)
H10 H 0.2849 0.2177 -0.3110
S2 S 0.04970(5) 1.57690(14) -0.29339(17)
O5 O 0.09066(14) 1.6453(4) -0.1874(5)
O6 O 0.02735(14) 1.4730(4) -0.1780(5)
O7 O 0.01262(14) 1.6830(4) -0.3440(5)
O8 O 0.06862(15) 1.5096(4) -0.4474(5)
N3 N 0.07626(17) 0.9219(5) -0.3276(6)
H11 H 0.0884 0.8385 -0.2978
H12 H 0.0682 0.9234 -0.4435
H13 H 0.0495 0.9385 -0.2672
N4 N 0.05661(16) 1.2144(5) -0.4022(6)
H14 H 0.0343 1.2199 -0.3198
H15 H 0.0464 1.1536 -0.4854
H16 H 0.0604 1.2978 -0.4513
C7 C 0.11330(19) 1.0288(6) -0.2857(7)
C8 C 0.1388(2) 1.2675(6) -0.2733(8)
H17 H 0.1325 1.3613 -0.2959
C9 C 0.1933(2) 1.0872(8) -0.1650(9)
H18 H 0.2239 1.0598 -0.1161
C10 C 0.10372(19) 1.1681(6) -0.3202(7)
C11 C 0.1582(2) 0.9884(6) -0.2097(8)
H19 H 0.1648 0.8945 -0.1887
C12 C 0.1834(2) 1.2267(7) -0.1923(9)
H20 H 0.2067 1.2934 -0.1564
O9 O 0.2494(2) 0.7555(6) 0.0095(8)
H21 H 0.2336 0.8173 0.0639
H22 H 0.2676 0.7950 -0.0645
O10 O 0.30542(18) 0.6016(6) 0.2554(8)
H23 H 0.3383 0.6072 0.2702
H24 H 0.2933 0.6554 0.1740
O11 O 0.19331(18) 0.8975(6) 0.2590(8)
H25 H 0.1602 0.8911 0.2748
H26 H 0.2073 0.8758 0.3588
loop_
_geom_bond_atom_site_label_1
_geom_bond_atom_site_label_2
_geom_bond_site_symmetry_1
_geom_bond_site_symmetry_2
S1 O1 1_555 1_555
O2 S1 1_555 1_555
O3 S1 1_555 1_555
O4 S1 1_555 1_555
N1 H1 1_555 1_555
H2 N1 1_555 1_555
H3 N1 1_555 1_555
N2 H4 1_555 1_555
H5 N2 1_555 1_555
H6 N2 1_555 1_555
C1 N2 1_555 1_555
C2 C1 1_555 1_555
H7 C2 1_555 1_555
C3 N1 1_555 1_555
C4 C3 1_555 1_555
H8 C4 1_555 1_555
C5 C4 1_555 1_555
H9 C5 1_555 1_555
C6 C2 1_555 1_555
H10 C6 1_555 1_555
S2 O5 1_555 1_555
O6 S2 1_555 1_555
O7 S2 1_555 1_555
O8 S2 1_555 1_555
N3 H11 1_555 1_555
H12 N3 1_555 1_555
H13 N3 1_555 1_555
N4 H14 1_555 1_555
H15 N4 1_555 1_555
H16 N4 1_555 1_555
C7 N3 1_555 1_555
C8 H17 1_555 1_555
C9 H18 1_555 1_555
C10 N4 1_555 1_555
C11 C7 1_555 1_555
H19 C11 1_555 1_555
C12 C8 1_555 1_555
H20 C12 1_555 1_555
O9 H21 1_555 1_555
H22 O9 1_555 1_555
O10 H23 1_555 1_555
H24 O10 1_555 1_555
O11 H25 1_555 1_555
H26 O11 1_555 1_555
C1 C3 1_555 1_555
C5 C6 1_555 1_555
C7 C10 1_555 1_555
C8 C10 1_555 1_555
C9 C11 1_555 1_555
C9 C12 1_555 1_555

#END
