
#######################################################################
#
#                 Cambridge Crystallographic Data Centre
#                                CCDC 
#
#######################################################################
#
# If this CIF has been generated from an entry in the Cambridge 
# Structural Database, then it will include bibliographic, chemical, 
# crystal, experimental, refinement or atomic coordinate data resulting 
# from the CCDC's data processing and validation procedures.
#
#######################################################################

data_REKJEZ
_chemical_formula_moiety         'C22 H17 N1 O3 S1'
_chemical_name_systematic        
{1-[(4-methylphenyl)sulfonyl]-1H-indol-3-yl}(phenyl)methanone
_symmetry_cell_setting           monoclinic
_symmetry_space_group_name_H-M   'P 21/c'
_symmetry_Int_Tables_number      14
_space_group_name_Hall           '-P 2ybc'
loop_
_symmetry_equiv_pos_site_id
_symmetry_equiv_pos_as_xyz
1 x,y,z
2 -x,1/2+y,1/2-z
3 -x,-y,-z
4 x,1/2-y,1/2+z
_cell_length_a                   15.044(3)
_cell_length_b                   9.2925(19)
_cell_length_c                   26.254(5)
_cell_angle_alpha                90
_cell_angle_beta                 90.25(3)
_cell_angle_gamma                90
_cell_volume                     3670.18
_exptl_crystal_colour            colorless
_exptl_crystal_description       prism
_cell_formula_units_Z            8
loop_
_atom_site_label
_atom_site_type_symbol
_atom_site_fract_x
_atom_site_fract_y
_atom_site_fract_z
S1 S 0.19917(3) 0.32357(6) 0.261624(19)
O1 O 0.21226(10) 0.38895(18) 0.21307(5)
O2 O 0.17792(10) 0.17459(16) 0.26594(6)
O3 O -0.05311(11) 0.53938(19) 0.42507(6)
N1 N 0.11277(11) 0.40956(19) 0.28831(6)
C1 C 0.28761(13) 0.3652(2) 0.30220(7)
C2 C 0.34594(13) 0.4779(2) 0.29116(8)
H1 H 0.3397 0.5318 0.2606
C3 C 0.41273(14) 0.5094(2) 0.32558(8)
H2 H 0.4532 0.5847 0.3180
C4 C 0.42259(13) 0.4347(2) 0.37087(8)
C5 C 0.36450(14) 0.3214(3) 0.38059(8)
H3 H 0.3710 0.2674 0.4111
C6 C 0.29752(14) 0.2862(2) 0.34661(8)
H4 H 0.2586 0.2083 0.3537
C7 C 0.49391(14) 0.4756(3) 0.40836(8)
H5 H 0.5495 0.4937 0.3902
H6 H 0.5027 0.3969 0.4327
H7 H 0.4760 0.5627 0.4266
C8 C 0.09790(13) 0.5598(2) 0.28830(8)
C9 C 0.13399(14) 0.6676(3) 0.25786(8)
H8 H 0.1754 0.6465 0.2317
C10 C 0.10658(15) 0.8066(3) 0.26756(9)
H9 H 0.1301 0.8833 0.2479
C11 C 0.04485(16) 0.8368(3) 0.30580(9)
H10 H 0.0270 0.9336 0.3112
C12 C 0.00924(14) 0.7301(3) 0.33577(9)
H11 H -0.0328 0.7522 0.3615
C13 C 0.03658(13) 0.5879(2) 0.32738(8)
C14 C 0.01709(12) 0.4518(2) 0.35222(7)
C15 C 0.06518(12) 0.3482(2) 0.32774(7)
H12 H 0.0658 0.2490 0.3365
C16 C -0.03337(13) 0.4332(3) 0.39981(8)
C17 C -0.05669(13) 0.2868(3) 0.41798(8)
C18 C -0.08244(13) 0.1775(3) 0.38480(9)
H13 H -0.0813 0.1937 0.3491
C19 C -0.10973(15) 0.0454(3) 0.40343(10)
H14 H -0.1277 -0.0283 0.3805
C20 C -0.11084(17) 0.0206(3) 0.45536(11)
H15 H -0.1295 -0.0700 0.4682
C21 C -0.08441(17) 0.1294(3) 0.48864(10)
H16 H -0.0844 0.1120 0.5243
C22 C -0.05845(15) 0.2610(3) 0.47062(9)
H17 H -0.0416 0.3349 0.4937
S2 S 0.28182(3) 0.94118(6) 0.415957(18)
O4 O 0.31438(10) 1.03072(16) 0.45615(5)
O5 O 0.20395(9) 0.97946(17) 0.38800(5)
O6 O 0.50420(9) 0.72786(16) 0.23923(5)
N2 N 0.36361(11) 0.93608(19) 0.37295(6)
C23 C 0.27115(13) 0.7660(2) 0.43852(7)
C24 C 0.31925(14) 0.7214(3) 0.48114(7)
H18 H 0.3603 0.7846 0.4973
C25 C 0.30627(14) 0.5841(3) 0.49952(8)
H19 H 0.3399 0.5526 0.5281
C26 C 0.24529(14) 0.4905(2) 0.47730(8)
C27 C 0.19940(15) 0.5377(3) 0.43431(9)
H20 H 0.1585 0.4744 0.4181
C28 C 0.21164(14) 0.6733(2) 0.41461(8)
H21 H 0.1799 0.7032 0.3851
C29 C 0.22738(17) 0.3453(3) 0.49980(9)
H22 H 0.2787 0.3148 0.5202
H23 H 0.2170 0.2757 0.4724
H24 H 0.1747 0.3505 0.5216
C30 C 0.45519(13) 0.9179(2) 0.38397(7)
C31 C 0.50222(14) 0.9407(3) 0.42878(8)
H25 H 0.4735 0.9729 0.4588
C32 C 0.59288(14) 0.9146(3) 0.42791(8)
H26 H 0.6269 0.9279 0.4581
C33 C 0.63526(14) 0.8688(2) 0.38337(8)
H27 H 0.6975 0.8520 0.3838
C34 C 0.58823(13) 0.8479(2) 0.33897(8)
H28 H 0.6174 0.8166 0.3089
C35 C 0.49676(13) 0.8735(2) 0.33894(7)
C36 C 0.42839(13) 0.8657(2) 0.29980(7)
C37 C 0.34961(13) 0.9018(2) 0.32183(7)
H29 H 0.2937 0.9034 0.3049
C38 C 0.44150(13) 0.8093(2) 0.24777(7)
C39 C 0.37669(13) 0.8470(2) 0.20702(7)
C40 C 0.36173(13) 0.7466(2) 0.16810(7)
H30 H 0.3924 0.6572 0.1684
C41 C 0.30241(14) 0.7776(3) 0.12926(8)
H31 H 0.2912 0.7087 0.1033
C42 C 0.25919(13) 0.9096(3) 0.12837(8)
H32 H 0.2190 0.9312 0.1014
C43 C 0.27413(13) 1.0101(2) 0.16651(7)
H33 H 0.2442 1.1002 0.1657
C44 C 0.33292(13) 0.9785(2) 0.20573(7)
H34 H 0.3433 1.0471 0.2319
loop_
_geom_bond_atom_site_label_1
_geom_bond_atom_site_label_2
_geom_bond_site_symmetry_1
_geom_bond_site_symmetry_2
S1 O1 1_555 1_555
O2 S1 1_555 1_555
O3 C16 1_555 1_555
N1 S1 1_555 1_555
C1 S1 1_555 1_555
C2 C1 1_555 1_555
H1 C2 1_555 1_555
C3 C2 1_555 1_555
H2 C3 1_555 1_555
C4 C3 1_555 1_555
C5 C4 1_555 1_555
H3 C5 1_555 1_555
C6 C1 1_555 1_555
H4 C6 1_555 1_555
C7 C4 1_555 1_555
H5 C7 1_555 1_555
H6 C7 1_555 1_555
H7 C7 1_555 1_555
C8 N1 1_555 1_555
C9 C8 1_555 1_555
H8 C9 1_555 1_555
C10 C9 1_555 1_555
H9 C10 1_555 1_555
C11 C10 1_555 1_555
H10 C11 1_555 1_555
C12 C11 1_555 1_555
H11 C12 1_555 1_555
C13 C8 1_555 1_555
C14 C13 1_555 1_555
C15 N1 1_555 1_555
H12 C15 1_555 1_555
C16 C14 1_555 1_555
C17 C16 1_555 1_555
C18 C17 1_555 1_555
H13 C18 1_555 1_555
C19 C18 1_555 1_555
H14 C19 1_555 1_555
C20 C19 1_555 1_555
H15 C20 1_555 1_555
C21 C20 1_555 1_555
H16 C21 1_555 1_555
C22 C17 1_555 1_555
H17 C22 1_555 1_555
S2 O4 1_555 1_555
O5 S2 1_555 1_555
O6 C38 1_555 1_555
N2 S2 1_555 1_555
C23 S2 1_555 1_555
C24 C23 1_555 1_555
H18 C24 1_555 1_555
C25 C24 1_555 1_555
H19 C25 1_555 1_555
C26 C25 1_555 1_555
C27 C26 1_555 1_555
H20 C27 1_555 1_555
C28 C23 1_555 1_555
H21 C28 1_555 1_555
C29 C26 1_555 1_555
H22 C29 1_555 1_555
H23 C29 1_555 1_555
H24 C29 1_555 1_555
C30 N2 1_555 1_555
C31 C30 1_555 1_555
H25 C31 1_555 1_555
C32 C31 1_555 1_555
H26 C32 1_555 1_555
C33 C32 1_555 1_555
H27 C33 1_555 1_555
C34 C33 1_555 1_555
H28 C34 1_555 1_555
C35 C30 1_555 1_555
C36 C35 1_555 1_555
C37 N2 1_555 1_555
H29 C37 1_555 1_555
C38 C36 1_555 1_555
C39 C38 1_555 1_555
C40 C39 1_555 1_555
H30 C40 1_555 1_555
C41 C40 1_555 1_555
H31 C41 1_555 1_555
C42 C41 1_555 1_555
H32 C42 1_555 1_555
C43 C42 1_555 1_555
H33 C43 1_555 1_555
C44 C39 1_555 1_555
H34 C44 1_555 1_555
C5 C6 1_555 1_555
C12 C13 1_555 1_555
C14 C15 1_555 1_555
C21 C22 1_555 1_555
C27 C28 1_555 1_555
C34 C35 1_555 1_555
C36 C37 1_555 1_555
C43 C44 1_555 1_555

#END
