
#######################################################################
#
#                 Cambridge Crystallographic Data Centre
#                                CCDC 
#
#######################################################################
#
# If this CIF has been generated from an entry in the Cambridge 
# Structural Database, then it will include bibliographic, chemical, 
# crystal, experimental, refinement or atomic coordinate data resulting 
# from the CCDC's data processing and validation procedures.
#
#######################################################################

data_REKLID
_chemical_formula_moiety         'C23 H19 F3 N2 O2 S1'
_chemical_name_systematic        
(-)-(S)-N-(\a-(3-Indolyl)-4-trifluoromethylbenzyl)-p-toluenesulfonamide
_symmetry_cell_setting           monoclinic
_symmetry_space_group_name_H-M   'C 2'
_symmetry_Int_Tables_number      5
_space_group_name_Hall           'C 2y'
loop_
_symmetry_equiv_pos_site_id
_symmetry_equiv_pos_as_xyz
1 x,y,z
2 -x,y,-z
3 1/2+x,1/2+y,z
4 1/2-x,1/2+y,-z
_cell_length_a                   18.346(4)
_cell_length_b                   8.6134(16)
_cell_length_c                   27.741(6)
_cell_angle_alpha                90
_cell_angle_beta                 105.690(3)
_cell_angle_gamma                90
_cell_volume                     4220.33
_exptl_crystal_colour            colorless
_exptl_crystal_description       plate
_chemical_melting_point          213-214deg.C
_cell_formula_units_Z            8
_exptl_crystal_recrystallization_method acetone/hexane
loop_
_atom_site_label
_atom_site_type_symbol
_atom_site_fract_x
_atom_site_fract_y
_atom_site_fract_z
S1 S 0.89407(5) 0.42936(8) 0.94514(3)
F1 F 0.6024(2) 0.0542(6) 0.76265(12)
F2 F 0.5351(2) -0.0148(6) 0.80861(15)
F3 F 0.5990(2) -0.1714(5) 0.78967(15)
O1 O 0.86863(14) 0.4960(3) 0.98515(9)
O2 O 0.96226(12) 0.4843(3) 0.93495(9)
N1 N 0.90663(14) 0.2461(3) 0.95683(10)
H1 H 0.9490 0.2026 0.9545
N2 N 0.93367(16) -0.2179(3) 1.02992(11)
H2 H 0.9427 -0.3182 1.0297
C1 C 0.84933(17) 0.1488(4) 0.97127(11)
H3 H 0.8253 0.2148 0.9924
C2 C 0.88835(17) 0.0170(4) 1.00361(12)
C3 C 0.89082(19) -0.1354(4) 0.99091(13)
H4 H 0.8659 -0.1778 0.9591
C4 C 0.96067(18) -0.1211(4) 1.06961(13)
C5 C 1.00548(19) -0.1531(4) 1.11750(13)
H5 H 1.0235 -0.2552 1.1268
C6 C 1.02306(19) -0.0320(4) 1.15118(15)
H6 H 1.0533 -0.0508 1.1843
C7 C 0.99638(19) 0.1213(4) 1.13680(14)
H7 H 1.0096 0.2034 1.1605
C8 C 0.95185(18) 0.1526(4) 1.08923(13)
H8 H 0.9345 0.2551 1.0799
C9 C 0.93240(17) 0.0289(4) 1.05444(12)
C10 C 0.78622(18) 0.0942(4) 0.92667(12)
C11 C 0.8002(2) 0.0529(5) 0.88224(14)
H9 H 0.8507 0.0541 0.8795
C12 C 0.7417(2) 0.0094(5) 0.84129(14)
H10 H 0.7518 -0.0196 0.8107
C13 C 0.6674(2) 0.0091(5) 0.84583(15)
C14 C 0.6544(2) 0.0451(5) 0.89001(16)
H11 H 0.6042 0.0409 0.8933
C15 C 0.71296(19) 0.0879(4) 0.93067(14)
H12 H 0.7027 0.1131 0.9615
C16 C 0.6067(3) -0.0288(7) 0.8003(2)
C17 C 0.81897(19) 0.4526(4) 0.88997(13)
C18 C 0.8340(2) 0.4566(5) 0.84459(15)
H13 H 0.8847 0.4531 0.8423
C19 C 0.7730(2) 0.4659(6) 0.80114(15)
H14 H 0.7828 0.4712 0.7693
C20 C 0.6994(2) 0.4676(5) 0.80412(17)
C21 C 0.6867(2) 0.4649(5) 0.85049(17)
H15 H 0.6361 0.4668 0.8529
C22 C 0.7450(2) 0.4595(4) 0.89375(15)
H16 H 0.7349 0.4605 0.9256
C23 C 0.6337(3) 0.4719(7) 0.75713(19)
H17 H 0.6521 0.5041 0.7286
H18 H 0.5956 0.5460 0.7617
H19 H 0.6110 0.3683 0.7507
S2 S 0.60564(5) 1.20463(9) 0.55275(3)
F4 F 0.95011(17) 0.7716(5) 0.69895(15)
F5 F 0.8687(2) 0.7827(4) 0.74088(12)
F6 F 0.88688(19) 0.5747(4) 0.70724(11)
O3 O 0.63007(14) 1.2748(3) 0.51316(9)
O4 O 0.53877(13) 1.2619(3) 0.56453(10)
N3 N 0.59024(15) 1.0226(3) 0.53871(10)
H20 H 0.5467 0.9810 0.5393
N4 N 0.56136(16) 0.5603(3) 0.46389(11)
H21 H 0.5522 0.4599 0.4633
C24 C 0.64793(18) 0.9249(4) 0.52489(12)
H22 H 0.6736 0.9898 0.5045
C25 C 0.60691(18) 0.7937(4) 0.49196(13)
C26 C 0.60383(19) 0.6418(4) 0.50411(14)
H23 H 0.6277 0.5983 0.5359
C27 C 0.53559(18) 0.6603(4) 0.42493(13)
C28 C 0.49115(19) 0.6318(5) 0.37617(13)
H24 H 0.4727 0.5308 0.3658
C29 C 0.4753(2) 0.7565(5) 0.34386(14)
H25 H 0.4458 0.7404 0.3104
C30 C 0.5012(2) 0.9039(5) 0.35875(14)
H26 H 0.4884 0.9873 0.3356
C31 C 0.54575(19) 0.9327(4) 0.40715(13)
H27 H 0.5639 1.0343 0.4171
C32 C 0.56308(18) 0.8083(4) 0.44062(12)
C33 C 0.70852(18) 0.8645(4) 0.57026(12)
C34 C 0.7825(2) 0.8682(5) 0.56936(15)
H28 H 0.7949 0.9040 0.5402
C35 C 0.6909(2) 0.8137(6) 0.61215(15)
H29 H 0.6395 0.8116 0.6130
C36 C 0.7474(2) 0.7647(6) 0.65395(16)
H30 H 0.7345 0.7276 0.6828
C37 C 0.8215(2) 0.7706(5) 0.65298(15)
C38 C 0.8405(2) 0.8201(5) 0.61078(17)
H31 H 0.8918 0.8216 0.6098
C39 C 0.8829(3) 0.7248(6) 0.69936(19)
C40 C 0.68185(19) 1.2167(4) 0.60681(13)
C41 C 0.6702(2) 1.1891(6) 0.65310(14)
H32 H 0.6204 1.1728 0.6561
C42 C 0.7315(2) 1.1853(6) 0.69516(14)
H33 H 0.7232 1.1659 0.7270
C43 C 0.8044(2) 1.2089(4) 0.69183(13)
C44 C 0.8147(2) 1.2413(5) 0.64500(15)
H34 H 0.8642 1.2614 0.6420
C45 C 0.7538(2) 1.2444(5) 0.60283(13)
H35 H 0.7616 1.2658 0.5710
C46 C 0.8731(2) 1.2012(6) 0.73710(16)
H36 H 0.8965 1.3040 0.7434
H37 H 0.9097 1.1268 0.7306
H38 H 0.8572 1.1677 0.7665
loop_
_geom_bond_atom_site_label_1
_geom_bond_atom_site_label_2
_geom_bond_site_symmetry_1
_geom_bond_site_symmetry_2
S1 O1 1_555 1_555
F1 C16 1_555 1_555
F2 C16 1_555 1_555
F3 C16 1_555 1_555
O2 S1 1_555 1_555
N1 S1 1_555 1_555
H1 N1 1_555 1_555
N2 H2 1_555 1_555
C1 N1 1_555 1_555
H3 C1 1_555 1_555
C2 C1 1_555 1_555
C3 N2 1_555 1_555
H4 C3 1_555 1_555
C4 N2 1_555 1_555
C5 C4 1_555 1_555
H5 C5 1_555 1_555
C6 C5 1_555 1_555
H6 C6 1_555 1_555
C7 C6 1_555 1_555
H7 C7 1_555 1_555
C8 C7 1_555 1_555
H8 C8 1_555 1_555
C9 C2 1_555 1_555
C10 C1 1_555 1_555
C11 C10 1_555 1_555
H9 C11 1_555 1_555
C12 C11 1_555 1_555
H10 C12 1_555 1_555
C13 C12 1_555 1_555
C14 C13 1_555 1_555
H11 C14 1_555 1_555
C15 C10 1_555 1_555
H12 C15 1_555 1_555
C16 C13 1_555 1_555
C17 S1 1_555 1_555
C18 C17 1_555 1_555
H13 C18 1_555 1_555
C19 C18 1_555 1_555
H14 C19 1_555 1_555
C20 C19 1_555 1_555
C21 C20 1_555 1_555
H15 C21 1_555 1_555
C22 C17 1_555 1_555
H16 C22 1_555 1_555
C23 C20 1_555 1_555
H17 C23 1_555 1_555
H18 C23 1_555 1_555
H19 C23 1_555 1_555
S2 O3 1_555 1_555
F4 C39 1_555 1_555
F5 C39 1_555 1_555
F6 C39 1_555 1_555
O4 S2 1_555 1_555
N3 S2 1_555 1_555
H20 N3 1_555 1_555
N4 H21 1_555 1_555
C24 N3 1_555 1_555
H22 C24 1_555 1_555
C25 C24 1_555 1_555
C26 N4 1_555 1_555
H23 C26 1_555 1_555
C27 N4 1_555 1_555
C28 C27 1_555 1_555
H24 C28 1_555 1_555
C29 C28 1_555 1_555
H25 C29 1_555 1_555
C30 C29 1_555 1_555
H26 C30 1_555 1_555
C31 C30 1_555 1_555
H27 C31 1_555 1_555
C32 C25 1_555 1_555
C33 C24 1_555 1_555
C34 C33 1_555 1_555
H28 C34 1_555 1_555
C35 C33 1_555 1_555
H29 C35 1_555 1_555
C36 C35 1_555 1_555
H30 C36 1_555 1_555
C37 C36 1_555 1_555
C38 C34 1_555 1_555
H31 C38 1_555 1_555
C39 C37 1_555 1_555
C40 S2 1_555 1_555
C41 C40 1_555 1_555
H32 C41 1_555 1_555
C42 C41 1_555 1_555
H33 C42 1_555 1_555
C43 C42 1_555 1_555
C44 C43 1_555 1_555
H34 C44 1_555 1_555
C45 C40 1_555 1_555
H35 C45 1_555 1_555
C46 C43 1_555 1_555
H36 C46 1_555 1_555
H37 C46 1_555 1_555
H38 C46 1_555 1_555
C2 C3 1_555 1_555
C4 C9 1_555 1_555
C8 C9 1_555 1_555
C14 C15 1_555 1_555
C21 C22 1_555 1_555
C25 C26 1_555 1_555
C27 C32 1_555 1_555
C31 C32 1_555 1_555
C37 C38 1_555 1_555
C44 C45 1_555 1_555

#END
