
#######################################################################
#
#                 Cambridge Crystallographic Data Centre
#                                CCDC 
#
#######################################################################
#
# If this CIF has been generated from an entry in the Cambridge 
# Structural Database, then it will include bibliographic, chemical, 
# crystal, experimental, refinement or atomic coordinate data resulting 
# from the CCDC's data processing and validation procedures.
#
#######################################################################

data_REKYUE
_chemical_formula_moiety         'C25 H17 N3 O4,0.5(C4 H4 O1)'
_chemical_name_systematic        
'9-methyl-3,6-bis(4-nitrophenyl)-9H-carbazole furan solvate'
_symmetry_cell_setting           monoclinic
_symmetry_space_group_name_H-M   'C 2/c'
_symmetry_Int_Tables_number      15
_space_group_name_Hall           '-C 2yn'
loop_
_symmetry_equiv_pos_site_id
_symmetry_equiv_pos_as_xyz
1 x,y,z
2 -x,y,1/2-z
3 1/2+x,1/2+y,z
4 1/2-x,1/2+y,1/2-z
5 -x,-y,-z
6 x,-y,1/2+z
7 1/2-x,1/2-y,-z
8 1/2+x,1/2-y,1/2+z
_cell_length_a                   31.453(4)
_cell_length_b                   6.4821(8)
_cell_length_c                   24.223(3)
_cell_angle_alpha                90
_cell_angle_beta                 116.610(2)
_cell_angle_gamma                90
_cell_volume                     4415.5
_exptl_crystal_colour            brown
_exptl_crystal_description       plate
_cell_formula_units_Z            8
loop_
_atom_site_label
_atom_site_type_symbol
_atom_site_fract_x
_atom_site_fract_y
_atom_site_fract_z
O1 O 0.86660(12) -0.6722(5) 0.66606(16)
C1 C 0.83257(12) 0.2524(5) 0.47474(15)
H1 H 0.801836 0.200026 0.458939
C2 C 0.76280(11) 0.5748(5) 0.36225(14)
H2 H 0.743261 0.468590 0.363213
C3 C 0.66153(13) 0.5874(7) 0.27514(17)
H3 H 0.672900 0.485172 0.305228
O2 O 0.53481(11) 0.8563(7) 0.10057(15)
O3 O 0.52389(11) 0.5752(6) 0.13865(17)
C4 C 0.91572(12) 0.2320(6) 0.54415(16)
H4 H 0.940749 0.163620 0.575874
C5 C 0.92570(12) 0.4066(6) 0.52013(16)
H5 H 0.956679 0.455216 0.534783
C6 C 0.82227(13) 0.8945(6) 0.35956(16)
H6 H 0.841761 1.000947 0.358632
C7 C 0.77410(13) 0.8944(6) 0.32050(17)
H7 H 0.761402 1.003809 0.293106
O4 O 0.79253(12) -0.6397(5) 0.60722(17)
N1 N 0.83293(14) -0.5802(5) 0.62622(16)
C8 C 0.84253(13) -0.3922(5) 0.60093(16)
C9 C 0.86059(11) -0.0362(5) 0.55122(15)
C10 C 0.86957(11) 0.1511(5) 0.52326(15)
C11 C 0.84124(11) 0.4302(5) 0.44991(14)
C12 C 0.81096(11) 0.5716(5) 0.40240(15)
C13 C 0.74348(11) 0.7371(5) 0.32026(14)
C14 C 0.69223(12) 0.7386(6) 0.27564(15)
N2 N 0.54852(12) 0.7195(7) 0.13886(17)
C15 C 0.88774(11) 0.5089(6) 0.47290(15)
N3 N 0.88742(9) 0.6895(5) 0.44305(13)
C16 C 0.88766(15) -0.3351(8) 0.6161(2)
H8 H 0.912891 -0.414730 0.643508
C17 C 0.89631(14) -0.1605(7) 0.5913(2)
H9 H 0.927662 -0.124393 0.602088
C18 C 0.61452(13) 0.5811(7) 0.23183(18)
H10 H 0.594618 0.476189 0.232615
C19 C 0.59767(12) 0.7313(6) 0.18778(16)
C20 C 0.92835(13) 0.8140(6) 0.45252(18)
H11 H 0.919404 0.956856 0.446641
H12 H 0.939833 0.773978 0.423436
H13 H 0.952960 0.793563 0.493751
C21 C 0.84056(12) 0.7312(5) 0.40006(15)
C22 C 0.80648(15) -0.2742(7) 0.5627(2)
H14 H 0.775249 -0.312398 0.551965
C23 C 0.81585(15) -0.0966(8) 0.5394(2)
H15 H 0.790423 -0.013334 0.514281
C24 C 0.67280(14) 0.8896(6) 0.23051(18)
H16 H 0.692122 0.996996 0.229714
C25 C 0.62617(14) 0.8857(7) 0.18713(19)
H17 H 0.614224 0.988937 0.157410
C26 C 0.5083(2) 0.9300(11) 0.2286(4)
H18 H 0.513754 0.811771 0.210945
C27 C 0.5158(3) 1.1226(13) 0.2149(3)
H19 H 0.528654 1.157986 0.188293
O5 O 0.500000 1.2742(17) 0.250000
C26A C 0.4917(2) 0.9300(11) 0.2714(4)
H18A H 0.486246 0.811771 0.289055
C27A C 0.4842(3) 1.1226(13) 0.2851(3)
H19A H 0.471346 1.157986 0.311707
loop_
_geom_bond_atom_site_label_1
_geom_bond_atom_site_label_2
_geom_bond_site_symmetry_1
_geom_bond_site_symmetry_2
O1 N1 1_555 1_555
C1 H1 1_555 1_555
C2 H2 1_555 1_555
C3 H3 1_555 1_555
O2 N2 1_555 1_555
O3 N2 1_555 1_555
C4 H4 1_555 1_555
C5 C4 1_555 1_555
H5 C5 1_555 1_555
C6 H6 1_555 1_555
C7 C6 1_555 1_555
H7 C7 1_555 1_555
O4 N1 1_555 1_555
N1 C8 1_555 1_555
C8 C16 1_555 1_555
C9 C10 1_555 1_555
C10 C1 1_555 1_555
C11 C1 1_555 1_555
C12 C2 1_555 1_555
C13 C2 1_555 1_555
C14 C3 1_555 1_555
N2 C19 1_555 1_555
C15 C5 1_555 1_555
N3 C15 1_555 1_555
C16 H8 1_555 1_555
C17 C9 1_555 1_555
H9 C17 1_555 1_555
C18 C3 1_555 1_555
H10 C18 1_555 1_555
C19 C18 1_555 1_555
C20 N3 1_555 1_555
H11 C20 1_555 1_555
H12 C20 1_555 1_555
H13 C20 1_555 1_555
C21 C6 1_555 1_555
C22 C8 1_555 1_555
H14 C22 1_555 1_555
C23 C9 1_555 1_555
H15 C23 1_555 1_555
C24 C14 1_555 1_555
H16 C24 1_555 1_555
C25 C19 1_555 1_555
H17 C25 1_555 1_555
C26 H18 1_555 1_555
C27 C26 1_555 1_555
H19 C27 1_555 1_555
O5 C27 1_555 1_555
C26A C26 1_555 1_555
H18A C26A 1_555 1_555
C27A O5 1_555 1_555
H19A C27A 1_555 1_555
C4 C10 1_555 1_555
C7 C13 1_555 1_555
C11 C12 1_555 1_555
C11 C15 1_555 1_555
C12 C21 1_555 1_555
C13 C14 1_555 1_555
N3 C21 1_555 1_555
C16 C17 1_555 1_555
C22 C23 1_555 1_555
C24 C25 1_555 1_555
C26A C27A 1_555 1_555

#END
