
#######################################################################
#
#                 Cambridge Crystallographic Data Centre
#                                CCDC 
#
#######################################################################
#
# If this CIF has been generated from an entry in the Cambridge 
# Structural Database, then it will include bibliographic, chemical, 
# crystal, experimental, refinement or atomic coordinate data resulting 
# from the CCDC's data processing and validation procedures.
#
#######################################################################

data_REKYAJ
_chemical_formula_moiety         'C28 H34 N6 O2'
_chemical_name_systematic        
11,14,17-Trimethyl-3,11,14,17,25,31-hexaazatetracyclo[25.3.1.0^4,9^.0^19,24^]hentriaconta-1(31),4,6,8,19,21,23,27,29-nonaene-2,26-dione
_symmetry_cell_setting           triclinic
_symmetry_space_group_name_H-M   'P -1'
_symmetry_Int_Tables_number      2
_space_group_name_Hall           '-P 1'
loop_
_symmetry_equiv_pos_site_id
_symmetry_equiv_pos_as_xyz
1 x,y,z
2 -x,-y,-z
_cell_length_a                   11.0491(5)
_cell_length_b                   11.2919(5)
_cell_length_c                   11.6718(5)
_cell_angle_alpha                65.896(2)
_cell_angle_beta                 70.060(2)
_cell_angle_gamma                76.715(2)
_cell_volume                     1242.6
_exptl_crystal_colour            colorless
_exptl_crystal_description       prism
_cell_formula_units_Z            2
loop_
_atom_site_label
_atom_site_type_symbol
_atom_site_fract_x
_atom_site_fract_y
_atom_site_fract_z
O1 O 0.03754(10) 0.36921(9) 0.20458(9)
O2 O 0.16362(9) 0.96826(9) 0.13085(9)
N1 N 0.13764(10) 0.39983(10) 0.33024(10)
H1 H 0.1762 0.4579 0.3336
N2 N 0.15768(10) 0.65043(10) 0.16907(10)
N3 N 0.32970(10) 0.80769(10) 0.15593(10)
H2 H 0.3593 0.7300 0.1511
N4 N 0.57976(10) 0.67309(10) 0.05624(10)
N5 N 0.59779(11) 0.40684(10) 0.31668(11)
N6 N 0.24513(10) 0.47403(10) 0.46883(10)
C1 C 0.08772(12) 0.43808(13) 0.22926(12)
C2 C 0.09330(12) 0.58005(12) 0.14557(12)
C3 C 0.02700(12) 0.63221(13) 0.05226(13)
H3 H -0.0161 0.5781 0.0377
C4 C 0.02399(13) 0.76384(13) -0.01972(13)
H4 H -0.0202 0.8022 -0.0855
C5 C 0.08628(13) 0.83821(13) 0.00578(13)
H5 H 0.0844 0.9297 -0.0408
C6 C 0.15190(12) 0.77793(12) 0.10045(12)
C7 C 0.21502(12) 0.86056(12) 0.13157(12)
C8 C 0.40683(13) 0.86601(12) 0.18853(12)
C9 C 0.35333(14) 0.92440(12) 0.28041(13)
H6 H 0.2628 0.9279 0.3215
C10 C 0.43231(14) 0.97786(13) 0.31234(13)
H7 H 0.3956 1.0200 0.3741
C11 C 0.56368(14) 0.97028(13) 0.25505(14)
H8 H 0.6181 1.0047 0.2791
C12 C 0.61616(13) 0.91263(12) 0.16261(13)
H9 H 0.7070 0.9080 0.1230
C13 C 0.53885(13) 0.86129(12) 0.12649(12)
C14 C 0.59136(13) 0.81189(12) 0.01629(13)
H10 H 0.5448 0.8628 -0.0508
H11 H 0.6838 0.8267 -0.0243
C15 C 0.59524(14) 0.64823(14) -0.06109(13)
H12 H 0.5255 0.6993 -0.1007
H13 H 0.5916 0.5551 -0.0382
H14 H 0.6790 0.6735 -0.1234
C16 C 0.68190(13) 0.59787(13) 0.11867(13)
H15 H 0.6787 0.6314 0.1860
H16 H 0.7664 0.6150 0.0519
C17 C 0.67761(13) 0.45190(13) 0.18232(13)
H17 H 0.6450 0.4228 0.1300
H18 H 0.7670 0.4096 0.1797
C18 C 0.61931(15) 0.26613(14) 0.37045(15)
H19 H 0.7120 0.2391 0.3607
H20 H 0.5888 0.2291 0.3238
H21 H 0.5717 0.2347 0.4633
C19 C 0.46173(13) 0.45145(13) 0.32734(13)
H22 H 0.4321 0.4166 0.2774
H23 H 0.4515 0.5478 0.2871
C20 C 0.37656(13) 0.41058(13) 0.46664(13)
H24 H 0.3756 0.3146 0.5040
H25 H 0.4113 0.4357 0.5203
C21 C 0.22656(14) 0.60085(13) 0.48020(14)
H26 H 0.1370 0.6391 0.4828
H27 H 0.2858 0.6583 0.4048
H28 H 0.2443 0.5906 0.5607
C22 C 0.14797(13) 0.39258(13) 0.57179(12)
H29 H 0.0621 0.4442 0.5774
H30 H 0.1669 0.3669 0.6563
C23 C 0.14250(12) 0.27193(13) 0.55048(12)
C24 C 0.13857(13) 0.15293(13) 0.65183(13)
H31 H 0.1428 0.1483 0.7335
C25 C 0.12869(13) 0.04076(13) 0.63777(14)
H32 H 0.1256 -0.0402 0.7091
C26 C 0.12339(13) 0.04688(13) 0.51983(14)
H33 H 0.1177 -0.0306 0.5093
C27 C 0.12628(13) 0.16427(13) 0.41613(13)
H34 H 0.1223 0.1676 0.3348
C28 C 0.13505(12) 0.27710(12) 0.43124(12)
loop_
_geom_bond_atom_site_label_1
_geom_bond_atom_site_label_2
_geom_bond_site_symmetry_1
_geom_bond_site_symmetry_2
O1 C1 1_555 1_555
O2 C7 1_555 1_555
N1 H1 1_555 1_555
N2 C2 1_555 1_555
N3 H2 1_555 1_555
N4 C14 1_555 1_555
N5 C17 1_555 1_555
N6 C20 1_555 1_555
C1 N1 1_555 1_555
C2 C1 1_555 1_555
C3 C2 1_555 1_555
H3 C3 1_555 1_555
C4 C3 1_555 1_555
H4 C4 1_555 1_555
C5 C4 1_555 1_555
H5 C5 1_555 1_555
C6 N2 1_555 1_555
C7 N3 1_555 1_555
C8 N3 1_555 1_555
C9 C8 1_555 1_555
H6 C9 1_555 1_555
C10 C9 1_555 1_555
H7 C10 1_555 1_555
C11 C10 1_555 1_555
H8 C11 1_555 1_555
C12 C11 1_555 1_555
H9 C12 1_555 1_555
C13 C8 1_555 1_555
C14 C13 1_555 1_555
H10 C14 1_555 1_555
H11 C14 1_555 1_555
C15 N4 1_555 1_555
H12 C15 1_555 1_555
H13 C15 1_555 1_555
H14 C15 1_555 1_555
C16 N4 1_555 1_555
H15 C16 1_555 1_555
H16 C16 1_555 1_555
C17 C16 1_555 1_555
H17 C17 1_555 1_555
H18 C17 1_555 1_555
C18 N5 1_555 1_555
H19 C18 1_555 1_555
H20 C18 1_555 1_555
H21 C18 1_555 1_555
C19 N5 1_555 1_555
H22 C19 1_555 1_555
H23 C19 1_555 1_555
C20 C19 1_555 1_555
H24 C20 1_555 1_555
H25 C20 1_555 1_555
C21 N6 1_555 1_555
H26 C21 1_555 1_555
H27 C21 1_555 1_555
H28 C21 1_555 1_555
C22 N6 1_555 1_555
H29 C22 1_555 1_555
H30 C22 1_555 1_555
C23 C22 1_555 1_555
C24 C23 1_555 1_555
H31 C24 1_555 1_555
C25 C24 1_555 1_555
H32 C25 1_555 1_555
C26 C25 1_555 1_555
H33 C26 1_555 1_555
C27 C26 1_555 1_555
H34 C27 1_555 1_555
C28 N1 1_555 1_555
C5 C6 1_555 1_555
C6 C7 1_555 1_555
C12 C13 1_555 1_555
C23 C28 1_555 1_555
C27 C28 1_555 1_555

#END
