
#######################################################################
#
#                 Cambridge Crystallographic Data Centre
#                                CCDC 
#
#######################################################################
#
# If this CIF has been generated from an entry in the Cambridge 
# Structural Database, then it will include bibliographic, chemical, 
# crystal, experimental, refinement or atomic coordinate data resulting 
# from the CCDC's data processing and validation procedures.
#
#######################################################################

data_REKYEN
_chemical_formula_moiety         'C30 H37 N6 O2 S1 1+,C1 F3 O3 S1 1-,C2 H3 N1'
_chemical_name_systematic        
'31-Methyl-9,15-dioxo-26-thia-1,8,16,23,35-pentaaza-31-azoniapentacyclo[21.5.5.1^3,7^.1^10,14^.1^17,21^]hexatriaconta-3(36),4,6,10(35),11,13,17(34),18,20-nonaene trifluoromethanesulfonate acetonitrile solvate'
_symmetry_cell_setting           orthorhombic
_symmetry_space_group_name_H-M   'P n a 21'
_symmetry_Int_Tables_number      33
_space_group_name_Hall           'P 2c -2n'
loop_
_symmetry_equiv_pos_site_id
_symmetry_equiv_pos_as_xyz
1 x,y,z
2 -x,-y,1/2+z
3 1/2+x,1/2-y,z
4 1/2-x,1/2+y,1/2+z
_cell_length_a                   16.7365(19)
_cell_length_b                   12.7588(15)
_cell_length_c                   32.639(4)
_cell_angle_alpha                90
_cell_angle_beta                 90
_cell_angle_gamma                90
_cell_volume                     6969.66
_exptl_crystal_colour            colorless
_exptl_crystal_description       plate
_cell_formula_units_Z            8
loop_
_atom_site_label
_atom_site_type_symbol
_atom_site_fract_x
_atom_site_fract_y
_atom_site_fract_z
S1 S 0.57297(9) 0.85082(12) 0.62978(4)
O1 O 0.2042(2) 0.9376(3) 0.72122(12)
O2 O 0.3877(3) 1.3465(3) 0.61394(14)
N1 N 0.3126(3) 0.9106(4) 0.67938(14)
H1 H 0.3479 0.9447 0.6645
N2 N 0.3155(3) 1.1161(3) 0.66078(13)
N3 N 0.4412(3) 1.1837(4) 0.61662(14)
H2 H 0.4299 1.1182 0.6228
N4 N 0.6625(3) 0.9472(4) 0.55195(14)
N5 N 0.5549(3) 0.7723(4) 0.53296(14)
N6 N 0.5045(3) 0.6463(3) 0.60900(13)
C1 C 0.2538(3) 0.9701(4) 0.69669(16)
C2 C 0.2536(3) 1.0825(4) 0.68345(16)
C3 C 0.1914(3) 1.1476(5) 0.69579(16)
H3 H 0.1488 1.1217 0.7121
C4 C 0.1938(3) 1.2509(4) 0.68354(18)
H4 H 0.1521 1.2975 0.6911
C5 C 0.2562(3) 1.2860(5) 0.66052(17)
H5 H 0.2588 1.3574 0.6524
C6 C 0.3151(3) 1.2176(4) 0.64924(17)
C7 C 0.3850(3) 1.2557(4) 0.6253(2)
C8 C 0.5172(4) 1.2028(5) 0.59848(18)
C9 C 0.5543(4) 1.2996(5) 0.60283(18)
H6 H 0.5283 1.3549 0.6170
C10 C 0.6304(4) 1.3146(5) 0.58602(19)
H7 H 0.6564 1.3805 0.5887
C11 C 0.6674(4) 1.2340(5) 0.56565(18)
H8 H 0.7194 1.2445 0.5547
C12 C 0.6305(4) 1.1370(4) 0.56068(17)
C13 C 0.5540(3) 1.1211(5) 0.57701(16)
H9 H 0.5276 1.0558 0.5736
C14 C 0.6708(4) 1.0530(5) 0.53535(19)
H10 H 0.6480 1.0542 0.5074
H11 H 0.7283 1.0699 0.5331
C15 C 0.7071(4) 0.9298(5) 0.59034(17)
H12 H 0.7515 0.9809 0.5917
H13 H 0.7309 0.8588 0.5895
C16 C 0.6576(4) 0.9397(5) 0.62899(18)
H14 H 0.6379 1.0126 0.6314
H15 H 0.6920 0.9252 0.6530
C17 C 0.6221(3) 0.7267(4) 0.64201(17)
H16 H 0.6612 0.7086 0.6204
H17 H 0.6510 0.7327 0.6684
C18 C 0.5579(3) 0.6418(5) 0.64493(17)
H18 H 0.5836 0.5720 0.6463
H19 H 0.5263 0.6519 0.6703
C19 C 0.6854(4) 0.8703(5) 0.52078(18)
H20 H 0.7441 0.8615 0.5213
H21 H 0.6705 0.8977 0.4934
C20 C 0.6461(3) 0.7635(4) 0.52687(18)
H22 H 0.6700 0.7290 0.5511
H23 H 0.6571 0.7190 0.5027
C21 C 0.5185(4) 0.8368(5) 0.50169(19)
H24 H 0.4608 0.8412 0.5066
H25 H 0.5282 0.8057 0.4747
H26 H 0.5417 0.9073 0.5026
C22 C 0.5189(3) 0.6634(5) 0.53503(17)
H27 H 0.4599 0.6698 0.5345
H28 H 0.5352 0.6239 0.5103
C23 C 0.5427(3) 0.6015(4) 0.57247(16)
H29 H 0.5261 0.5275 0.5692
H30 H 0.6015 0.6032 0.5757
C24 C 0.4264(3) 0.5952(4) 0.61682(17)
H31 H 0.4355 0.5208 0.6240
H32 H 0.3941 0.5971 0.5914
C25 C 0.3804(3) 0.6463(4) 0.65050(16)
C26 C 0.3461(3) 0.5870(4) 0.68219(17)
H33 H 0.3519 0.5130 0.6821
C27 C 0.3040(3) 0.6345(4) 0.71355(17)
H34 H 0.2828 0.5929 0.7351
C28 C 0.2924(3) 0.7420(4) 0.71406(16)
H35 H 0.2635 0.7738 0.7358
C29 C 0.3235(3) 0.8033(4) 0.68228(16)
C30 C 0.3690(3) 0.7550(4) 0.65138(17)
H36 H 0.3925 0.7971 0.6306
O3 O -0.0621(2) 0.5649(3) 0.21424(13)
O4 O 0.1274(3) 0.1561(3) 0.32052(14)
N7 N 0.0492(2) 0.5892(4) 0.25414(14)
H37 H 0.0853 0.5550 0.2685
N8 N 0.0521(2) 0.3860(3) 0.27350(12)
N9 N 0.1779(3) 0.3221(4) 0.31911(14)
H38 H 0.1666 0.3873 0.3125
C31 C -0.0092(3) 0.5311(5) 0.23738(16)
C32 C -0.0097(3) 0.4180(4) 0.25078(16)
C33 C -0.0723(3) 0.3538(5) 0.23926(16)
H39 H -0.1150 0.3807 0.2232
C34 C -0.0722(3) 0.2499(4) 0.25136(19)
H40 H -0.1145 0.2040 0.2439
C35 C -0.0075(3) 0.2147(5) 0.27500(16)
H41 H -0.0047 0.1439 0.2839
C36 C 0.0523(3) 0.2856(5) 0.28508(16)
C37 C 0.1217(3) 0.2478(4) 0.30970(17)
C38 C 0.2521(3) 0.3045(4) 0.33840(16)
S2 S 0.31013(14) 0.6557(2) 0.30491(7)
N10 N 0.3988(5) 0.5687(6) 0.3839(3)
N11 N 0.2955(5) 0.7461(6) 0.3985(2)
N12 N 0.2420(9) 0.8569(16) 0.3240(7)
C39 C 0.2930(3) 0.2104(5) 0.33363(16)
H42 H 0.2693 0.1533 0.3195
C40 C 0.3707(7) 0.2018(14) 0.3503(4)
H43 H 0.4003 0.1389 0.3465
C41 C 0.4042(7) 0.2840(9) 0.3721(3)
H44 H 0.4551 0.2749 0.3844
C42 C 0.3664(6) 0.3761(9) 0.3760(3)
C43 C 0.2918(7) 0.3900(11) 0.3587(3)
H45 H 0.2665 0.4566 0.3601
C44 C 0.4047(6) 0.4617(7) 0.4011(3)
H46 H 0.3799 0.4618 0.4286
H47 H 0.4620 0.4444 0.4047
C45 C 0.4460(5) 0.5805(8) 0.3464(3)
H48 H 0.4884 0.5265 0.3460
H49 H 0.4722 0.6500 0.3466
C46 C 0.3957(5) 0.5704(7) 0.3072(3)
H50 H 0.3771 0.4970 0.3048
H51 H 0.4303 0.5852 0.2833
C47 C 0.3610(9) 0.7883(8) 0.2963(3)
H52 H 0.3936 0.8090 0.3203
H53 H 0.3952 0.7872 0.2716
C48 C 0.2884(10) 0.8624(15) 0.2906(5)
H54 H 0.3071 0.9352 0.2866
H55 H 0.2575 0.8412 0.2661
C49 C 0.4206(5) 0.6456(7) 0.4152(3)
H56 H 0.4795 0.6535 0.4159
H57 H 0.4030 0.6201 0.4424
C50 C 0.3825(5) 0.7515(6) 0.4067(3)
H58 H 0.3917 0.7980 0.4305
H59 H 0.4093 0.7836 0.3827
C51 C 0.2527(5) 0.6834(7) 0.4294(3)
H60 H 0.1956 0.6821 0.4229
H61 H 0.2605 0.7147 0.4566
H62 H 0.2736 0.6116 0.4294
C52 C 0.2581(6) 0.8541(9) 0.3969(3)
H63 H 0.1992 0.8478 0.3987
H64 H 0.2767 0.8962 0.4205
C53 C 0.2801(7) 0.9071(13) 0.3583(4)
H65 H 0.2637 0.9815 0.3595
H66 H 0.3389 0.9046 0.3547
C54 C 0.1622(3) 0.9099(4) 0.31485(17)
H67 H 0.1302 0.9122 0.3404
H68 H 0.1725 0.9832 0.3063
C55 C 0.1135(3) 0.8562(4) 0.28180(16)
C56 C 0.0786(3) 0.9163(5) 0.25101(18)
H69 H 0.0843 0.9904 0.2509
C57 C 0.0353(3) 0.8662(5) 0.22051(18)
H70 H 0.0121 0.9072 0.1993
C58 C 0.0246(3) 0.7579(5) 0.21985(18)
H71 H -0.0054 0.7251 0.1987
C59 C 0.0592(3) 0.6991(4) 0.25132(16)
C60 C 0.1042(3) 0.7473(4) 0.28157(16)
H72 H 0.1288 0.7061 0.3023
C61 C 0.8163(4) 0.4807(6) 0.5224(2)
S3 S 0.8251(6) 0.5753(6) 0.5623(2)
O5 O 0.7515(9) 0.5783(12) 0.5848(5)
O6 O 0.8905(6) 0.5401(8) 0.5882(3)
O7 O 0.8339(6) 0.6784(8) 0.5418(4)
F1 F 0.7552(6) 0.5059(10) 0.4970(3)
F2 F 0.8864(6) 0.4715(10) 0.5011(3)
F3 F 0.8111(9) 0.3822(7) 0.5348(3)
S4 S 0.94454(8) 0.42981(11) 0.86998(4)
O8 O 0.9382(2) 0.3347(3) 0.89399(14)
O9 O 0.8759(2) 0.4541(3) 0.84531(11)
O10 O 1.0205(2) 0.4467(3) 0.84997(13)
C62 C 0.9422(3) 0.5329(5) 0.90881(17)
F4 F 1.0029(3) 0.5246(3) 0.93461(12)
F5 F 0.8749(2) 0.5286(3) 0.93050(11)
F6 F 0.9449(2) 0.6270(3) 0.89142(10)
N13 N 0.3809(5) 0.4873(7) 0.5132(3)
C63 C 0.4089(6) 0.4042(9) 0.5123(3)
C64 C 0.4494(7) 0.3044(9) 0.5037(3)
H73 H 0.4524 0.2628 0.5289
H74 H 0.5036 0.3183 0.4937
H75 H 0.4194 0.2655 0.4829
N14 N 0.5954(6) 0.5047(9) 0.4507(3)
C65 C 0.6242(7) 0.4194(10) 0.4414(4)
C66 C 0.6687(7) 0.3350(9) 0.4298(4)
H76 H 0.6380 0.2707 0.4343
H77 H 0.7179 0.3326 0.4461
H78 H 0.6823 0.3411 0.4007
C67? C 0.2930(3) 0.2104(5) 0.33363(16)
C68? C 0.3548(16) 0.196(3) 0.3573(8)
C69? C 0.3881(14) 0.270(2) 0.3829(6)
C70? C 0.3422(12) 0.3682(17) 0.3873(6)
C71? C 0.2713(14) 0.378(2) 0.3669(7)
C72? C 0.3688(11) 0.4538(13) 0.4177(5)
C73? C 0.4299(12) 0.5584(15) 0.3653(7)
C74? C 0.4307(9) 0.6582(14) 0.3400(5)
C75? C 0.3578(19) 0.7663(17) 0.2898(6)
C76? C 0.297(2) 0.850(3) 0.2849(10)
C77? C 0.3933(11) 0.6298(14) 0.4335(5)
C78? C 0.3561(10) 0.7389(13) 0.4280(5)
C79? C 0.3097(12) 0.6057(17) 0.3000(6)
C80? C 0.2244(11) 0.8563(18) 0.4018(6)
C81? C 0.2612(14) 0.913(3) 0.3642(8)
C82? C 0.1622(3) 0.9099(4) 0.31485(17)
C83? C 0.8163(4) 0.4807(6) 0.5224(2)
F7? F 0.7442(7) 0.4619(13) 0.5040(4)
F8? F 0.8665(9) 0.4924(14) 0.4902(4)
F9? F 0.8199(12) 0.3910(10) 0.5464(4)
H79? H 0.2769 0.1594 0.3141
H80? H 0.3789 0.1284 0.3569
H81? H 0.4373 0.2587 0.3968
H82? H 0.2363 0.4351 0.3725
H83? H 0.3305 0.4561 0.4408
H84? H 0.4218 0.4347 0.4290
H85? H 0.4167 0.4988 0.3471
H86? H 0.4843 0.5462 0.3763
H87? H 0.4656 0.6471 0.3159
H88? H 0.4548 0.7149 0.3566
H89? H 0.3578 0.7235 0.2645
H90? H 0.4109 0.7999 0.2919
H91? H 0.2666 0.8360 0.2595
H92? H 0.3257 0.9175 0.2808
H93? H 0.4520 0.6369 0.4359
H94? H 0.3733 0.5985 0.4593
H95? H 0.3875 0.7798 0.4078
H96? H 0.3565 0.7771 0.4544
H97? H 0.2974 0.5467 0.3181
H98? H 0.3467 0.5826 0.2786
H99? H 0.2603 0.6313 0.2873
H100? H 0.1655 0.8580 0.3990
H101? H 0.2382 0.8970 0.4266
H102? H 0.2476 0.9883 0.3653
H103? H 0.3201 0.9063 0.3652
H104? H 0.1728 0.9828 0.3059
H105? H 0.1292 0.9138 0.3400
N15? N 0.3741(10) 0.5595(13) 0.3990(5)
N16? N 0.3485(7) 0.6947(10) 0.3250(4)
N17? N 0.2303(19) 0.866(3) 0.3243(14)
O11? O 0.7477(12) 0.5573(17) 0.5792(7)
O12? O 0.8985(8) 0.5700(13) 0.5740(5)
O13? O 0.8223(10) 0.6732(12) 0.5249(5)
S5? S 0.2540(3) 0.7233(4) 0.40996(15)
S6? S 0.8198(8) 0.5894(9) 0.5556(4)
loop_
_geom_bond_atom_site_label_1
_geom_bond_atom_site_label_2
_geom_bond_site_symmetry_1
_geom_bond_site_symmetry_2
S1 C16 1_555 1_555
O1 C1 1_555 1_555
O2 C7 1_555 1_555
N1 H1 1_555 1_555
N2 C2 1_555 1_555
N3 H2 1_555 1_555
N4 C14 1_555 1_555
N5 C20 1_555 1_555
N6 C18 1_555 1_555
C1 N1 1_555 1_555
C2 C1 1_555 1_555
C3 C2 1_555 1_555
H3 C3 1_555 1_555
C4 C3 1_555 1_555
H4 C4 1_555 1_555
C5 C4 1_555 1_555
H5 C5 1_555 1_555
C6 N2 1_555 1_555
C7 N3 1_555 1_555
C8 N3 1_555 1_555
C9 C8 1_555 1_555
H6 C9 1_555 1_555
C10 C9 1_555 1_555
H7 C10 1_555 1_555
C11 C10 1_555 1_555
H8 C11 1_555 1_555
C12 C11 1_555 1_555
C13 C8 1_555 1_555
H9 C13 1_555 1_555
C14 C12 1_555 1_555
H10 C14 1_555 1_555
H11 C14 1_555 1_555
C15 N4 1_555 1_555
H12 C15 1_555 1_555
H13 C15 1_555 1_555
C16 C15 1_555 1_555
H14 C16 1_555 1_555
H15 C16 1_555 1_555
C17 S1 1_555 1_555
H16 C17 1_555 1_555
H17 C17 1_555 1_555
C18 C17 1_555 1_555
H18 C18 1_555 1_555
H19 C18 1_555 1_555
C19 N4 1_555 1_555
H20 C19 1_555 1_555
H21 C19 1_555 1_555
C20 C19 1_555 1_555
H22 C20 1_555 1_555
H23 C20 1_555 1_555
C21 N5 1_555 1_555
H24 C21 1_555 1_555
H25 C21 1_555 1_555
H26 C21 1_555 1_555
C22 N5 1_555 1_555
H27 C22 1_555 1_555
H28 C22 1_555 1_555
C23 N6 1_555 1_555
H29 C23 1_555 1_555
H30 C23 1_555 1_555
C24 N6 1_555 1_555
H31 C24 1_555 1_555
H32 C24 1_555 1_555
C25 C24 1_555 1_555
C26 C25 1_555 1_555
H33 C26 1_555 1_555
C27 C26 1_555 1_555
H34 C27 1_555 1_555
C28 C27 1_555 1_555
H35 C28 1_555 1_555
C29 N1 1_555 1_555
C30 C25 1_555 1_555
H36 C30 1_555 1_555
O3 C31 1_555 1_555
O4 C37 1_555 1_555
N7 H37 1_555 1_555
N8 C32 1_555 1_555
N9 H38 1_555 1_555
C31 N7 1_555 1_555
C32 C31 1_555 1_555
C33 C32 1_555 1_555
H39 C33 1_555 1_555
C34 C33 1_555 1_555
H40 C34 1_555 1_555
C35 C34 1_555 1_555
H41 C35 1_555 1_555
C36 N8 1_555 1_555
C37 N9 1_555 1_555
C38 N9 1_555 1_555
S2 C46 1_555 1_555
N10 C44 1_555 1_555
N11 C50 1_555 1_555
N12 C48 1_555 1_555
C39 C38 1_555 1_555
H42 C39 1_555 1_555
C40 C39 1_555 1_555
H43 C40 1_555 1_555
C41 C40 1_555 1_555
H44 C41 1_555 1_555
C42 C41 1_555 1_555
C43 C38 1_555 1_555
H45 C43 1_555 1_555
C44 C42 1_555 1_555
H46 C44 1_555 1_555
H47 C44 1_555 1_555
C45 N10 1_555 1_555
H48 C45 1_555 1_555
H49 C45 1_555 1_555
C46 C45 1_555 1_555
H50 C46 1_555 1_555
H51 C46 1_555 1_555
C47 S2 1_555 1_555
H52 C47 1_555 1_555
H53 C47 1_555 1_555
C48 C47 1_555 1_555
H54 C48 1_555 1_555
H55 C48 1_555 1_555
C49 N10 1_555 1_555
H56 C49 1_555 1_555
H57 C49 1_555 1_555
C50 C49 1_555 1_555
H58 C50 1_555 1_555
H59 C50 1_555 1_555
C51 N11 1_555 1_555
H60 C51 1_555 1_555
H61 C51 1_555 1_555
H62 C51 1_555 1_555
C52 N11 1_555 1_555
H63 C52 1_555 1_555
H64 C52 1_555 1_555
C53 N12 1_555 1_555
H65 C53 1_555 1_555
H66 C53 1_555 1_555
C54 N12 1_555 1_555
H67 C54 1_555 1_555
H68 C54 1_555 1_555
C55 C54 1_555 1_555
C56 C55 1_555 1_555
H69 C56 1_555 1_555
C57 C56 1_555 1_555
H70 C57 1_555 1_555
C58 C57 1_555 1_555
H71 C58 1_555 1_555
C59 N7 1_555 1_555
C60 C55 1_555 1_555
H72 C60 1_555 1_555
C61 S3 1_555 1_555
S3 O5 1_555 1_555
O6 S3 1_555 1_555
O7 S3 1_555 1_555
F1 C61 1_555 1_555
F2 C61 1_555 1_555
F3 C61 1_555 1_555
S4 O8 1_555 1_555
O9 S4 1_555 1_555
O10 S4 1_555 1_555
C62 S4 1_555 1_555
F4 C62 1_555 1_555
F5 C62 1_555 1_555
F6 C62 1_555 1_555
N13 C63 1_555 1_555
C63 C64 1_555 1_555
C64 H73 1_555 1_555
H74 C64 1_555 1_555
H75 C64 1_555 1_555
N14 C65 1_555 1_555
C65 C66 1_555 1_555
C66 H76 1_555 1_555
H77 C66 1_555 1_555
H78 C66 1_555 1_555
C5 C6 1_555 1_555
C6 C7 1_555 1_555
C12 C13 1_555 1_555
C22 C23 1_555 1_555
C28 C29 1_555 1_555
C29 C30 1_555 1_555
C35 C36 1_555 1_555
C36 C37 1_555 1_555
C42 C43 1_555 1_555
C52 C53 1_555 1_555
C58 C59 1_555 1_555
C59 C60 1_555 1_555

#END
