
#######################################################################
#
#                 Cambridge Crystallographic Data Centre
#                                CCDC 
#
#######################################################################
#
# If this CIF has been generated from an entry in the Cambridge 
# Structural Database, then it will include bibliographic, chemical, 
# crystal, experimental, refinement or atomic coordinate data resulting 
# from the CCDC's data processing and validation procedures.
#
#######################################################################

data_REKZEP
_chemical_formula_moiety         'C30 H27 N3 O4'
_chemical_name_systematic        9-hexyl-3,6-bis(4-nitrophenyl)-9H-carbazole
_symmetry_cell_setting           triclinic
_symmetry_space_group_name_H-M   'P -1'
_symmetry_Int_Tables_number      2
_space_group_name_Hall           '-P 1'
loop_
_symmetry_equiv_pos_site_id
_symmetry_equiv_pos_as_xyz
1 x,y,z
2 -x,-y,-z
_cell_length_a                   6.9673(13)
_cell_length_b                   13.328(2)
_cell_length_c                   14.620(3)
_cell_angle_alpha                112.777(3)
_cell_angle_beta                 94.344(3)
_cell_angle_gamma                94.503(3)
_cell_volume                     1239.54
_exptl_crystal_colour            colorless
_exptl_crystal_description       plate
_cell_formula_units_Z            2
loop_
_atom_site_label
_atom_site_type_symbol
_atom_site_fract_x
_atom_site_fract_y
_atom_site_fract_z
O1 O 1.4801(3) 0.3259(2) 0.36187(17)
O2 O 1.2548(3) 0.19403(18) 0.28682(18)
O3 O -0.4232(3) -0.15455(16) 0.50588(15)
O4 O -0.6291(3) -0.07112(19) 0.6009(2)
N1 N 1.3187(3) 0.27839(19) 0.35607(17)
N2 N 0.4992(3) 0.57266(14) 0.90034(14)
N3 N -0.4668(3) -0.07667(17) 0.57470(16)
C1 C -0.3183(3) 0.01547(17) 0.62911(16)
C2 C -0.3702(4) 0.1072(2) 0.7016(2)
H1 H -0.496075 0.109418 0.718743
C3 C -0.2314(4) 0.19619(18) 0.74872(19)
H2 H -0.266744 0.259428 0.796798
C4 C -0.0411(3) 0.19469(16) 0.72688(15)
C5 C 0.0048(3) 0.09801(19) 0.65362(17)
H3 H 0.131277 0.094004 0.637384
C6 C -0.1315(3) 0.00890(19) 0.60504(18)
H4 H -0.097979 -0.054750 0.556738
C7 C 0.1047(3) 0.29173(16) 0.77707(15)
C8 C 0.0769(4) 0.37175(19) 0.87012(18)
H5 H -0.028980 0.359569 0.901107
C9 C 0.2000(4) 0.4674(2) 0.91728(18)
H6 H 0.177601 0.519371 0.978593
C10 C 0.3578(3) 0.48391(17) 0.87078(16)
C11 C 0.3958(3) 0.40296(16) 0.77965(14)
C12 C 0.2676(3) 0.30828(15) 0.73324(15)
H7 H 0.290773 0.255582 0.672475
C13 C 0.5724(3) 0.44527(16) 0.75449(15)
C14 C 0.6309(3) 0.54991(17) 0.83061(16)
C15 C 0.7983(4) 0.61202(18) 0.82656(18)
H8 H 0.837009 0.681572 0.875797
C16 C 0.9039(3) 0.56810(18) 0.74842(18)
H9 H 1.015672 0.609354 0.745659
C17 C 0.8515(3) 0.46304(16) 0.67165(16)
C18 C 0.6826(3) 0.40247(16) 0.67643(15)
H10 H 0.643948 0.333058 0.626934
C19 C 0.9718(3) 0.41704(16) 0.58981(15)
C20 C 1.1640(3) 0.46052(19) 0.59551(17)
H11 H 1.217122 0.521247 0.652123
C21 C 1.2763(3) 0.4159(2) 0.51979(17)
H12 H 1.403726 0.446208 0.525285
C22 C 1.1996(3) 0.32691(18) 0.43646(17)
C23 C 1.0105(3) 0.2805(2) 0.42609(19)
H13 H 0.959885 0.219529 0.369096
C24 C 0.8994(3) 0.3264(2) 0.50190(18)
H14 H 0.771348 0.296437 0.494770
C25 C 0.5000(4) 0.67372(19) 0.98887(18)
H15 H 0.629165 0.713310 1.005495
H16 H 0.471003 0.654808 1.044488
C26 C 0.3578(5) 0.7480(2) 0.9768(2)
H17 H 0.229604 0.707189 0.957446
H18 H 0.355853 0.807593 1.041204
C27 C 0.3972(6) 0.7951(3) 0.9036(3)
H19 H 0.385497 0.736846 0.837436
H20 H 0.528931 0.831326 0.918946
C28 C 0.2546(6) 0.8783(3) 0.9044(4)
H21 H 0.127491 0.837939 0.876331
H22 H 0.245595 0.925245 0.973421
C29 C 0.2974(8) 0.9447(4) 0.8536(4)
H23 H 0.301791 0.898421 0.783934
H24 H 0.425613 0.984173 0.880253
C30 C 0.1564(8) 1.0267(4) 0.8594(5)
H25 H 0.138158 1.033445 0.796312
H26 H 0.206957 1.096627 0.910626
H27 H 0.034439 1.002278 0.874763
loop_
_geom_bond_atom_site_label_1
_geom_bond_atom_site_label_2
_geom_bond_site_symmetry_1
_geom_bond_site_symmetry_2
O1 N1 1_555 1_555
O2 N1 1_555 1_555
O3 N3 1_555 1_555
O4 N3 1_555 1_555
N1 C22 1_555 1_555
N2 C10 1_555 1_555
N3 C1 1_555 1_555
C1 C2 1_555 1_555
C2 H1 1_555 1_555
C3 C2 1_555 1_555
H2 C3 1_555 1_555
C4 C3 1_555 1_555
C5 C4 1_555 1_555
H3 C5 1_555 1_555
C6 C1 1_555 1_555
H4 C6 1_555 1_555
C7 C4 1_555 1_555
C8 C7 1_555 1_555
H5 C8 1_555 1_555
C9 C8 1_555 1_555
H6 C9 1_555 1_555
C10 C9 1_555 1_555
C11 C10 1_555 1_555
C12 C7 1_555 1_555
H7 C12 1_555 1_555
C13 C11 1_555 1_555
C14 N2 1_555 1_555
C15 C14 1_555 1_555
H8 C15 1_555 1_555
C16 C15 1_555 1_555
H9 C16 1_555 1_555
C17 C16 1_555 1_555
C18 C13 1_555 1_555
H10 C18 1_555 1_555
C19 C17 1_555 1_555
C20 C19 1_555 1_555
H11 C20 1_555 1_555
C21 C20 1_555 1_555
H12 C21 1_555 1_555
C22 C21 1_555 1_555
C23 C22 1_555 1_555
H13 C23 1_555 1_555
C24 C19 1_555 1_555
H14 C24 1_555 1_555
C25 N2 1_555 1_555
H15 C25 1_555 1_555
H16 C25 1_555 1_555
C26 C25 1_555 1_555
H17 C26 1_555 1_555
H18 C26 1_555 1_555
C27 C26 1_555 1_555
H19 C27 1_555 1_555
H20 C27 1_555 1_555
C28 C27 1_555 1_555
H21 C28 1_555 1_555
H22 C28 1_555 1_555
C29 C28 1_555 1_555
H23 C29 1_555 1_555
H24 C29 1_555 1_555
C30 C29 1_555 1_555
H25 C30 1_555 1_555
H26 C30 1_555 1_555
H27 C30 1_555 1_555
C5 C6 1_555 1_555
C11 C12 1_555 1_555
C13 C14 1_555 1_555
C17 C18 1_555 1_555
C23 C24 1_555 1_555

#END
