
#######################################################################
#
#                 Cambridge Crystallographic Data Centre
#                                CCDC 
#
#######################################################################
#
# If this CIF has been generated from an entry in the Cambridge 
# Structural Database, then it will include bibliographic, chemical, 
# crystal, experimental, refinement or atomic coordinate data resulting 
# from the CCDC's data processing and validation procedures.
#
#######################################################################

data_REKZAL
_chemical_formula_moiety         'C28 H23 N3 O4'
_chemical_name_systematic        9-butyl-3,6-bis(4-nitrophenyl)-9H-carbazole
_symmetry_cell_setting           monoclinic
_symmetry_space_group_name_H-M   'P 21/c'
_symmetry_Int_Tables_number      14
_space_group_name_Hall           '-P 2ybc'
loop_
_symmetry_equiv_pos_site_id
_symmetry_equiv_pos_as_xyz
1 x,y,z
2 -x,1/2+y,1/2-z
3 -x,-y,-z
4 x,1/2-y,1/2+z
_cell_length_a                   15.199(3)
_cell_length_b                   20.520(4)
_cell_length_c                   15.498(3)
_cell_angle_alpha                90
_cell_angle_beta                 109.223(3)
_cell_angle_gamma                90
_cell_volume                     4564.07
_exptl_crystal_colour            'reddish orange'
_exptl_crystal_description       block
_cell_formula_units_Z            8
loop_
_atom_site_label
_atom_site_type_symbol
_atom_site_fract_x
_atom_site_fract_y
_atom_site_fract_z
O1 O 0.56300(15) 0.59787(13) 0.43721(14)
C1 C 0.60344(16) 0.53649(12) 0.60058(16)
H1 H 0.542868 0.533228 0.560136
C2 C 0.62788(15) 0.50680(12) 0.68437(16)
H2 H 0.583526 0.482522 0.699718
C3 C 0.67590(15) 0.46466(11) 0.87674(15)
H3 H 0.613973 0.476001 0.847420
C4 C 0.55590(15) 0.41012(11) 1.00835(15)
H4 H 0.513540 0.431248 0.958897
O2 O 0.11086(15) 0.35255(14) 1.08994(18)
O3 O 0.70421(15) 0.62921(12) 0.46550(13)
C5 C 0.83612(15) 0.46157(12) 0.88367(16)
H5 H 0.881335 0.471420 0.857308
C6 C 0.59192(16) 0.34905(12) 1.14703(16)
H6 H 0.572016 0.328515 1.190826
C7 C 0.88859(16) 0.36027(12) 1.15044(16)
H7 H 0.935208 0.354248 1.120885
H8 H 0.878692 0.318656 1.175482
O4 O 0.08036(15) 0.39032(15) 0.9544(2)
C8 C 0.71688(14) 0.51204(11) 0.74668(15)
C9 C 0.74270(14) 0.47946(11) 0.83650(15)
C10 C 0.70110(14) 0.43309(10) 0.96032(15)
C11 C 0.64963(14) 0.40960(10) 1.01716(14)
C12 C 0.52461(15) 0.37942(11) 1.07264(15)
C13 C 0.35700(16) 0.40273(13) 0.98460(18)
H9 H 0.376125 0.421296 0.938973
N1 N 0.13525(18) 0.37191(14) 1.0279(2)
C14 C 0.86269(15) 0.43071(12) 0.96559(15)
H10 H 0.924791 0.419961 0.995228
C15 C 0.79462(15) 0.41561(11) 1.00394(15)
C16 C 0.68523(16) 0.34823(12) 1.15814(16)
H11 H 0.727881 0.327984 1.208271
C17 C 0.71374(14) 0.37869(11) 1.09193(15)
N2 N 0.80188(12) 0.38219(9) 1.08353(12)
C18 C 0.39108(19) 0.35157(15) 1.12855(19)
H12 H 0.433443 0.334968 1.181965
N3 N 0.64387(17) 0.60163(12) 0.48779(15)
C19 C 0.66919(16) 0.57098(12) 0.57717(15)
C20 C 0.42428(16) 0.37804(11) 1.06241(16)
C21 C 0.26353(17) 0.40058(13) 0.97300(19)
H13 H 0.220125 0.417248 0.920275
C22 C 0.23532(17) 0.37374(13) 1.0397(2)
C23 C 0.78103(16) 0.54886(13) 0.72109(16)
H14 H 0.841096 0.553752 0.762053
C24 C 0.75808(16) 0.57813(13) 0.63707(17)
H15 H 0.801971 0.602391 0.620954
C25 C 0.9237(6) 0.4101(5) 1.2278(6)
H16 H 0.879018 0.412443 1.260215
H17 H 0.981931 0.394256 1.270538
C26 C 0.9391(5) 0.4769(3) 1.1989(6)
H18 H 0.881218 0.493789 1.156876
H19 H 0.984573 0.475560 1.167368
C27 C 0.9736(2) 0.52175(18) 1.2810(2)
H20 H 0.976479 0.565625 1.260608
H21 H 1.034513 0.508172 1.318807
H22 H 0.931532 0.519837 1.315550
C28 C 0.2972(2) 0.34925(15) 1.1171(2)
H23 H 0.276636 0.331083 1.162051
O5 O 0.08437(16) 0.30203(17) 0.72812(19)
C31 C 0.67704(15) 0.35570(11) 0.62758(16)
H33 H 0.614801 0.364721 0.595804
O6 O 0.71750(17) 0.53381(13) 0.23039(16)
O7 O 0.11347(17) 0.23863(17) 0.8410(2)
C32 C 0.59510(17) 0.26337(12) 0.91361(17)
H34 H 0.576467 0.249998 0.962273
C33 C 0.68822(17) 0.26159(12) 0.92387(17)
H35 H 0.731755 0.246652 0.977728
C34 C 0.83807(16) 0.35656(12) 0.63866(18)
H36 H 0.883712 0.366520 0.612888
O8 O 0.57210(16) 0.51484(12) 0.20477(15)
C35 C 0.61108(17) 0.43671(12) 0.35527(18)
H37 H 0.551393 0.433793 0.312962
C36 C 0.63384(16) 0.40318(12) 0.43609(17)
H38 H 0.589363 0.376446 0.447248
C37 C 0.92273(16) 0.20236(12) 0.91544(16)
H39 H 0.933678 0.194257 0.858159
H40 H 0.874158 0.172847 0.918931
N4 N 0.13844(18) 0.27132(16) 0.7892(2)
C38 C 0.42610(16) 0.28226(11) 0.82369(16)
C39 C 0.52670(15) 0.28436(11) 0.83329(15)
C40 C 0.55587(15) 0.30630(11) 0.76214(15)
H41 H 0.512222 0.321405 0.708463
C41 C 0.70128(14) 0.32575(11) 0.71215(16)
C42 C 0.78578(17) 0.44794(13) 0.48171(18)
H42 H 0.844875 0.452519 0.524652
C43 C 0.71542(16) 0.28267(11) 0.85179(16)
N5 N 0.80333(12) 0.28617(10) 0.84395(14)
C44 C 0.79530(15) 0.31267(11) 0.76008(17)
C45 C 1.01070(17) 0.18852(14) 0.99348(18)
H43 H 1.058844 0.218320 0.989725
H44 H 0.999422 0.197128 1.050487
C46 C 0.3936(2) 0.25152(14) 0.8861(2)
H45 H 0.436364 0.232518 0.937284
C47 C 0.23760(17) 0.27555(14) 0.80203(19)
C48 C 0.26612(18) 0.30770(16) 0.73882(19)
H46 H 0.222830 0.327111 0.688324
C49 C 0.35968(18) 0.31097(15) 0.75083(18)
H47 H 0.378839 0.333477 0.708040
C50 C 0.64953(15) 0.30578(10) 0.77080(15)
C51 C 0.74521(15) 0.37239(12) 0.58984(16)
C52 C 0.72147(15) 0.40801(11) 0.50182(16)
C53 C 0.76487(18) 0.48087(14) 0.40047(19)
H48 H 0.809315 0.507031 0.388225
C54 C 0.67747(18) 0.47465(13) 0.33756(18)
N6 N 0.6539(2) 0.51025(12) 0.25182(17)
C55 C 0.86465(16) 0.32695(12) 0.72298(18)
H49 H 0.926719 0.316880 0.753939
C56 C 0.89032(16) 0.27101(13) 0.91651(17)
H50 H 0.882152 0.279334 0.975017
H51 H 0.938477 0.300197 0.911215
C57 C 1.0460(2) 0.11988(16) 0.9954(2)
H52 H 0.999377 0.089944 1.000536
H53 H 1.101747 0.114625 1.046928
H54 H 1.059279 0.111240 0.940129
C58 C 0.3002(2) 0.24778(15) 0.8757(2)
H55 H 0.280549 0.226358 0.919014
H24? H 0.920824 0.332824 1.119551
H25? H 0.873564 0.333424 1.195190
H26? H 0.980965 0.544672 1.229829
H27? H 1.033281 0.506895 1.320091
H28? H 0.946842 0.550429 1.314599
C29? C 0.9063(6) 0.4606(5) 1.2452(6)
H29? H 0.893438 0.439652 1.295885
H30? H 0.847662 0.474741 1.201417
C30? C 0.9543(7) 0.4131(6) 1.2004(8)
H31? H 0.977426 0.436332 1.157720
H32? H 1.007208 0.393587 1.246673
loop_
_geom_bond_atom_site_label_1
_geom_bond_atom_site_label_2
_geom_bond_site_symmetry_1
_geom_bond_site_symmetry_2
O1 N3 1_555 1_555
C1 H1 1_555 1_555
C2 C1 1_555 1_555
H2 C2 1_555 1_555
C3 H3 1_555 1_555
C4 H4 1_555 1_555
O2 N1 1_555 1_555
O3 N3 1_555 1_555
C5 H5 1_555 1_555
C6 H6 1_555 1_555
C7 H7 1_555 1_555
H8 C7 1_555 1_555
O4 N1 1_555 1_555
C8 C2 1_555 1_555
C9 C3 1_555 1_555
C10 C3 1_555 1_555
C11 C4 1_555 1_555
C12 C4 1_555 1_555
C13 H9 1_555 1_555
N1 C22 1_555 1_555
C14 C5 1_555 1_555
H10 C14 1_555 1_555
C15 C10 1_555 1_555
C16 C6 1_555 1_555
H11 C16 1_555 1_555
C17 C11 1_555 1_555
N2 C7 1_555 1_555
C18 H12 1_555 1_555
N3 C19 1_555 1_555
C19 C1 1_555 1_555
C20 C12 1_555 1_555
C21 C13 1_555 1_555
H13 C21 1_555 1_555
C22 C21 1_555 1_555
C23 C8 1_555 1_555
H14 C23 1_555 1_555
C24 C19 1_555 1_555
H15 C24 1_555 1_555
C25 C7 1_555 1_555
H16 C25 1_555 1_555
H17 C25 1_555 1_555
C26 C25 1_555 1_555
H18 C26 1_555 1_555
H19 C26 1_555 1_555
C27 C26 1_555 1_555
H20 C27 1_555 1_555
H21 C27 1_555 1_555
H22 C27 1_555 1_555
C28 C18 1_555 1_555
H23 C28 1_555 1_555
O5 N4 1_555 1_555
C31 H33 1_555 1_555
O6 N6 1_555 1_555
O7 N4 1_555 1_555
C32 H34 1_555 1_555
C33 C32 1_555 1_555
H35 C33 1_555 1_555
C34 H36 1_555 1_555
O8 N6 1_555 1_555
C35 H37 1_555 1_555
C36 C35 1_555 1_555
H38 C36 1_555 1_555
C37 H39 1_555 1_555
H40 C37 1_555 1_555
N4 C47 1_555 1_555
C38 C39 1_555 1_555
C39 C32 1_555 1_555
C40 C39 1_555 1_555
H41 C40 1_555 1_555
C41 C31 1_555 1_555
C42 H42 1_555 1_555
C43 C33 1_555 1_555
N5 C43 1_555 1_555
C44 C41 1_555 1_555
C45 C37 1_555 1_555
H43 C45 1_555 1_555
H44 C45 1_555 1_555
C46 C38 1_555 1_555
H45 C46 1_555 1_555
C47 C48 1_555 1_555
C48 H46 1_555 1_555
C49 C38 1_555 1_555
H47 C49 1_555 1_555
C50 C40 1_555 1_555
C51 C31 1_555 1_555
C52 C36 1_555 1_555
C53 C42 1_555 1_555
H48 C53 1_555 1_555
C54 C35 1_555 1_555
N6 C54 1_555 1_555
C55 C34 1_555 1_555
H49 C55 1_555 1_555
C56 C37 1_555 1_555
H50 C56 1_555 1_555
H51 C56 1_555 1_555
C57 C45 1_555 1_555
H52 C57 1_555 1_555
H53 C57 1_555 1_555
H54 C57 1_555 1_555
C58 C46 1_555 1_555
H55 C58 1_555 1_555
C5 C9 1_555 1_555
C6 C12 1_555 1_555
C8 C9 1_555 1_555
C10 C11 1_555 1_555
C13 C20 1_555 1_555
C14 C15 1_555 1_555
C15 N2 1_555 1_555
C16 C17 1_555 1_555
C17 N2 1_555 1_555
C18 C20 1_555 1_555
C22 C28 1_555 1_555
C23 C24 1_555 1_555
C34 C51 1_555 1_555
C41 C50 1_555 1_555
C42 C52 1_555 1_555
C43 C50 1_555 1_555
N5 C44 1_555 1_555
N5 C56 1_555 1_555
C44 C55 1_555 1_555
C47 C58 1_555 1_555
C48 C49 1_555 1_555
C51 C52 1_555 1_555
C53 C54 1_555 1_555

#END
