
#######################################################################
#
#                 Cambridge Crystallographic Data Centre
#                                CCDC 
#
#######################################################################
#
# If this CIF has been generated from an entry in the Cambridge 
# Structural Database, then it will include bibliographic, chemical, 
# crystal, experimental, refinement or atomic coordinate data resulting 
# from the CCDC's data processing and validation procedures.
#
#######################################################################

data_RELBAO
_chemical_formula_moiety         'C44 H44 N2 O10,C4 H8 O2'
_chemical_name_systematic        
'tetraethyl 14,19-bis(3-methylphenyl)-3,10-dioxo-2,11-diazaheptacyclo[10.8.0.0^2,17^.0^4,9^.0^11,16^.0^13,20^.0^15,18^]icosa-4,6,8-triene-13,15,18,20-tetracarboxylate ethyl acetate solvate'
_symmetry_cell_setting           triclinic
_symmetry_space_group_name_H-M   'P -1'
_symmetry_Int_Tables_number      2
_space_group_name_Hall           '-P 1'
loop_
_symmetry_equiv_pos_site_id
_symmetry_equiv_pos_as_xyz
1 x,y,z
2 -x,-y,-z
_cell_length_a                   11.7058(5)
_cell_length_b                   12.0958(4)
_cell_length_c                   15.7375(8)
_cell_angle_alpha                90.078(4)
_cell_angle_beta                 103.703(4)
_cell_angle_gamma                101.646(3)
_cell_volume                     2117.46
_cell_formula_units_Z            2
loop_
_atom_site_label
_atom_site_type_symbol
_atom_site_fract_x
_atom_site_fract_y
_atom_site_fract_z
O1 O 0.06096(12) 0.20926(11) 0.02667(9)
O2 O -0.05594(13) 0.06138(11) -0.33973(9)
O3 O -0.23587(12) 0.36648(12) -0.12383(9)
O4 O 0.24835(13) 0.65699(11) -0.13253(9)
O5 O 0.19555(13) 0.08369(11) -0.22822(9)
O6 O -0.05777(13) 0.63123(12) -0.28651(10)
O7 O -0.18743(13) 0.20216(12) -0.07558(9)
O8 O 0.28498(14) 0.22494(12) -0.29735(10)
O9 O 0.04652(14) 0.39057(12) 0.04315(9)
N1 N -0.01911(14) 0.45286(13) -0.27588(10)
O10 O 0.00997(14) 0.18974(12) -0.43022(9)
N2 N 0.19266(14) 0.46816(13) -0.17106(10)
C1 C -0.01362(16) 0.16566(16) -0.36108(12)
C2 C 0.09950(17) 0.44660(16) -0.12119(12)
H1 H 0.1153 0.5013 -0.0717
C3 C 0.14066(17) 0.26031(16) -0.21913(12)
C4 C 0.05799(16) 0.31325(16) -0.00051(12)
C5 C -0.09387(17) 0.22366(16) -0.23517(12)
H2 H -0.0879 0.1517 -0.2077
C6 C 0.13526(16) 0.23941(15) -0.12338(12)
H3 H 0.0869 0.1632 -0.1233
C7 C 0.28091(18) 0.13982(17) -0.02552(13)
H4 H 0.2252 0.0733 -0.0461
C8 C 0.06441(17) 0.32219(16) -0.09590(12)
C9 C 0.04604(17) 0.37545(16) -0.30589(12)
H5 H 0.0490 0.3839 -0.3673
C10 C 0.21674(17) 0.19006(16) -0.25269(12)
C11 C 0.17254(17) 0.38521(15) -0.24330(12)
H6 H 0.2371 0.3987 -0.2743
C12 C 0.22671(17) 0.58111(16) -0.18856(13)
C13 C 0.00195(18) 0.56480(16) -0.30057(12)
C14 C -0.16952(17) 0.28787(16) -0.11401(12)
C15 C 0.25705(17) 0.24232(16) -0.05892(12)
C16 C -0.02840(17) 0.43818(16) -0.18458(12)
H7 H -0.0742 0.4889 -0.1657
C17 C 0.00767(17) 0.24955(16) -0.28405(12)
C18 C 0.34148(17) 0.34130(17) -0.02743(13)
H8 H 0.3272 0.4106 -0.0479
C19 C 0.10970(18) 0.60234(16) -0.33904(13)
C20 C -0.22207(17) 0.20770(16) -0.29330(12)
C21 C -0.29491(18) 0.09933(17) -0.30342(13)
H9 H -0.2630 0.0402 -0.2765
C22 C 0.22416(18) 0.60756(16) -0.28303(13)
C23 C -0.06655(17) 0.31420(16) -0.15985(12)
C24 C -0.46120(19) 0.16664(19) -0.39134(14)
H10 H -0.5406 0.1539 -0.4237
C25 C -0.27171(18) 0.29597(17) -0.33337(13)
H11 H -0.2254 0.3690 -0.3276
C26 C 0.2656(2) 0.01039(17) -0.25673(15)
H12 H 0.3509 0.0411 -0.2345
H13 H 0.2480 0.0045 -0.3202
C27 C -0.34279(18) 0.34080(19) -0.08857(14)
H14 H -0.3665 0.4105 -0.0768
H15 H -0.3244 0.3038 -0.0338
C28 C 0.38577(18) 0.13431(18) 0.03767(14)
C29 C -0.0750(2) -0.03089(17) -0.40513(14)
H16 H -0.0779 -0.1020 -0.3764
H17 H -0.0080 -0.0197 -0.4327
C30 C 0.46944(18) 0.23455(18) 0.06645(13)
H18 H 0.5408 0.2328 0.1074
C31 C 0.1002(2) 0.64562(17) -0.42203(14)
H19 H 0.0250 0.6465 -0.4581
C32 C 0.44721(18) 0.33667(18) 0.03462(13)
H20 H 0.5034 0.4030 0.0549
C33 C -0.41403(18) 0.07684(18) -0.35251(14)
C34 C 0.3165(2) 0.68964(18) -0.39604(15)
H21 H 0.3850 0.7164 -0.4162
C35 C -0.39074(19) 0.27445(19) -0.38207(14)
H22 H -0.4232 0.3335 -0.4087
C36 C 0.32726(19) 0.65214(17) -0.31159(14)
H23 H 0.4029 0.6568 -0.2743
C37 C 0.4060(2) 0.02319(19) 0.07533(16)
H24 H 0.3777 0.0137 0.1279
H25 H 0.4903 0.0228 0.0887
H26 H 0.3629 -0.0376 0.0334
C38 C 0.2035(2) 0.68728(18) -0.45040(15)
H27 H 0.1971 0.7139 -0.5064
C39 C 0.0381(2) 0.1870(2) 0.11278(14)
H28 H -0.0459 0.1839 0.1109
H29 H 0.0868 0.2463 0.1554
C40 C -0.44518(19) 0.2647(2) -0.15313(15)
H30 H -0.4651 0.3025 -0.2065
H31 H -0.5141 0.2472 -0.1287
H32 H -0.4213 0.1960 -0.1651
C41 C -0.4890(2) -0.04181(19) -0.36270(17)
H33 H -0.4379 -0.0951 -0.3602
H34 H -0.5471 -0.0518 -0.4181
H35 H -0.5299 -0.0539 -0.3163
C42 C -0.1901(2) -0.0367(2) -0.47412(16)
H36 H -0.2009 -0.0987 -0.5154
H37 H -0.1863 0.0326 -0.5040
H38 H -0.2566 -0.0478 -0.4469
C43 C 0.0701(3) 0.0761(2) 0.13720(16)
H39 H 0.0268 0.0195 0.0919
H40 H 0.0491 0.0551 0.1912
H41 H 0.1549 0.0822 0.1442
C44 C 0.2320(2) -0.10377(19) -0.22176(19)
H42 H 0.1483 -0.1347 -0.2461
H43 H 0.2472 -0.0966 -0.1591
H44 H 0.2792 -0.1531 -0.2377
O11 O 0.34045(18) 0.41139(17) 0.38460(13)
O12 O 0.3088(3) 0.2454(2) 0.3102(2)
C45 C 0.3299(3) 0.3478(3) 0.3125(2)
C46 C 0.3432(3) 0.4174(3) 0.2374(2)
H45 H 0.2732 0.4491 0.2178
H46 H 0.3521 0.3712 0.1907
H47 H 0.4131 0.4772 0.2548
C47 C 0.2999(7) 0.4085(4) 0.5230(3)
H48 H 0.2286 0.4384 0.5036
H49 H 0.3685 0.4697 0.5397
H50 H 0.2931 0.3633 0.5723
C48 C 0.3134(4) 0.3428(3) 0.4559(2)
H51 H 0.2400 0.2866 0.4342
H52 H 0.3779 0.3033 0.4780
loop_
_geom_bond_atom_site_label_1
_geom_bond_atom_site_label_2
_geom_bond_site_symmetry_1
_geom_bond_site_symmetry_2
O1 C4 1_555 1_555
O2 C1 1_555 1_555
O3 C14 1_555 1_555
O4 C12 1_555 1_555
O5 C10 1_555 1_555
O6 C13 1_555 1_555
O7 C14 1_555 1_555
O8 C10 1_555 1_555
O9 C4 1_555 1_555
N1 C9 1_555 1_555
O10 C1 1_555 1_555
N2 C2 1_555 1_555
C1 C17 1_555 1_555
C2 H1 1_555 1_555
C3 C6 1_555 1_555
C4 C8 1_555 1_555
C5 H2 1_555 1_555
C6 H3 1_555 1_555
C7 H4 1_555 1_555
C8 C2 1_555 1_555
C9 H5 1_555 1_555
C10 C3 1_555 1_555
C11 N2 1_555 1_555
H6 C11 1_555 1_555
C12 N2 1_555 1_555
C13 N1 1_555 1_555
C14 C23 1_555 1_555
C15 C6 1_555 1_555
C16 N1 1_555 1_555
H7 C16 1_555 1_555
C17 C3 1_555 1_555
C18 C15 1_555 1_555
H8 C18 1_555 1_555
C19 C13 1_555 1_555
C20 C5 1_555 1_555
C21 C20 1_555 1_555
H9 C21 1_555 1_555
C22 C12 1_555 1_555
C23 C5 1_555 1_555
C24 H10 1_555 1_555
C25 C20 1_555 1_555
H11 C25 1_555 1_555
C26 O5 1_555 1_555
H12 C26 1_555 1_555
H13 C26 1_555 1_555
C27 O3 1_555 1_555
H14 C27 1_555 1_555
H15 C27 1_555 1_555
C28 C7 1_555 1_555
C29 O2 1_555 1_555
H16 C29 1_555 1_555
H17 C29 1_555 1_555
C30 C28 1_555 1_555
H18 C30 1_555 1_555
C31 C19 1_555 1_555
H19 C31 1_555 1_555
C32 C18 1_555 1_555
H20 C32 1_555 1_555
C33 C21 1_555 1_555
C34 H21 1_555 1_555
C35 C24 1_555 1_555
H22 C35 1_555 1_555
C36 C22 1_555 1_555
H23 C36 1_555 1_555
C37 C28 1_555 1_555
H24 C37 1_555 1_555
H25 C37 1_555 1_555
H26 C37 1_555 1_555
C38 C31 1_555 1_555
H27 C38 1_555 1_555
C39 O1 1_555 1_555
H28 C39 1_555 1_555
H29 C39 1_555 1_555
C40 C27 1_555 1_555
H30 C40 1_555 1_555
H31 C40 1_555 1_555
H32 C40 1_555 1_555
C41 C33 1_555 1_555
H33 C41 1_555 1_555
H34 C41 1_555 1_555
H35 C41 1_555 1_555
C42 C29 1_555 1_555
H36 C42 1_555 1_555
H37 C42 1_555 1_555
H38 C42 1_555 1_555
C43 C39 1_555 1_555
H39 C43 1_555 1_555
H40 C43 1_555 1_555
H41 C43 1_555 1_555
C44 C26 1_555 1_555
H42 C44 1_555 1_555
H43 C44 1_555 1_555
H44 C44 1_555 1_555
O11 C45 1_555 1_555
O12 C45 1_555 1_555
C45 C46 1_555 1_555
C46 H45 1_555 1_555
H46 C46 1_555 1_555
H47 C46 1_555 1_555
C47 H48 1_555 1_555
H49 C47 1_555 1_555
H50 C47 1_555 1_555
C48 O11 1_555 1_555
H51 C48 1_555 1_555
H52 C48 1_555 1_555
C2 C16 1_555 1_555
C3 C11 1_555 1_555
C5 C17 1_555 1_555
C6 C8 1_555 1_555
C7 C15 1_555 1_555
C8 C23 1_555 1_555
C9 C11 1_555 1_555
C9 C17 1_555 1_555
C16 C23 1_555 1_555
C19 C22 1_555 1_555
C24 C33 1_555 1_555
C25 C35 1_555 1_555
C30 C32 1_555 1_555
C34 C36 1_555 1_555
C34 C38 1_555 1_555
C47 C48 1_555 1_555

#END
