
#######################################################################
#
#                 Cambridge Crystallographic Data Centre
#                                CCDC 
#
#######################################################################
#
# If this CIF has been generated from an entry in the Cambridge 
# Structural Database, then it will include bibliographic, chemical, 
# crystal, experimental, refinement or atomic coordinate data resulting 
# from the CCDC's data processing and validation procedures.
#
#######################################################################

data_RELGAT
_chemical_formula_moiety         'C47 H40 O4'
_chemical_name_systematic        
"2'-hydroxy[1,1'-bibenzo[c]phenanthren]-2-yl 5-methyl-2-(propan-2-yl)cyclohexyl carbonate"
_symmetry_cell_setting           orthorhombic
_symmetry_space_group_name_H-M   'P 21 21 21'
_symmetry_Int_Tables_number      19
_space_group_name_Hall           'P 2ac 2ab'
loop_
_symmetry_equiv_pos_site_id
_symmetry_equiv_pos_as_xyz
1 x,y,z
2 1/2+x,1/2-y,-z
3 -x,1/2+y,1/2-z
4 1/2-x,-y,1/2+z
_cell_length_a                   10.1083(8)
_cell_length_b                   13.5573(11)
_cell_length_c                   51.690(4)
_cell_angle_alpha                90
_cell_angle_beta                 90
_cell_angle_gamma                90
_cell_volume                     7083.66
_exptl_crystal_colour            colorless
_exptl_crystal_description       prism
_cell_formula_units_Z            8
loop_
_atom_site_label
_atom_site_type_symbol
_atom_site_fract_x
_atom_site_fract_y
_atom_site_fract_z
C1 C 0.7241(4) 0.6902(3) 0.81666(7)
C2 C 0.8584(4) 0.6868(3) 0.82306(8)
H1 H 0.90151 0.74259 0.830331
C3 C 0.9255(4) 0.6019(3) 0.81860(8)
H2 H 1.018088 0.599346 0.821633
C4 C 0.8588(4) 0.5171(3) 0.80949(8)
C5 C 0.9330(4) 0.4342(3) 0.80057(8)
H3 H 1.026528 0.4334 0.802289
C6 C 0.8702(4) 0.3572(3) 0.78973(8)
H4 H 0.920228 0.308112 0.781
C7 C 0.7296(4) 0.3477(3) 0.79108(8)
C8 C 0.6643(5) 0.2627(3) 0.78120(8)
H5 H 0.714366 0.214054 0.772328
C9 C 0.5334(5) 0.2498(3) 0.78414(9)
H6 H 0.490742 0.196349 0.775705
C10 C 0.4583(4) 0.3153(3) 0.79973(8)
C11 C 0.3268(4) 0.2942(3) 0.80658(8)
H7 H 0.282319 0.24071 0.798482
C12 C 0.2614(4) 0.3497(3) 0.82481(8)
H8 H 0.171779 0.335466 0.828903
C13 C 0.3266(4) 0.4270(3) 0.83731(8)
H9 H 0.283122 0.462409 0.85068
C14 C 0.4537(4) 0.4520(3) 0.83034(8)
H10 H 0.496955 0.505149 0.838821
C15 C 0.5206(4) 0.3991(3) 0.81061(8)
C16 C 0.6550(4) 0.4224(3) 0.80306(7)
C17 C 0.7197(4) 0.5161(3) 0.80791(7)
C18 C 0.6514(4) 0.6093(3) 0.80867(7)
C19 C 0.4188(4) 0.6661(3) 0.81386(8)
C20 C 0.2852(4) 0.6682(3) 0.80729(8)
H11 H 0.224237 0.705098 0.817383
C21 C 0.2430(4) 0.6166(3) 0.78623(8)
H12 H 0.151223 0.614092 0.782307
C22 C 0.3345(4) 0.5669(3) 0.77014(8)
C23 C 0.2874(4) 0.5006(3) 0.75090(8)
H13 H 0.195181 0.496127 0.747588
C24 C 0.3723(4) 0.4442(3) 0.73732(8)
H14 H 0.339449 0.392927 0.726584
C25 C 0.5107(4) 0.4611(3) 0.73898(8)
C26 C 0.5991(4) 0.4032(3) 0.72363(8)
H15 H 0.565428 0.349922 0.713683
C27 C 0.7293(4) 0.4232(3) 0.72309(8)
H16 H 0.787877 0.379201 0.714518
C28 C 0.7807(4) 0.5098(3) 0.73524(8)
C29 C 0.9116(4) 0.5406(3) 0.73127(8)
H17 H 0.971212 0.498604 0.722281
C30 C 0.9549(4) 0.6300(3) 0.74014(8)
H18 H 1.044362 0.649296 0.737635
C31 C 0.8670(4) 0.6928(3) 0.75290(8)
H19 H 0.895928 0.756254 0.758284
C32 C 0.7398(4) 0.6639(3) 0.75772(8)
H20 H 0.680926 0.708097 0.766164
C33 C 0.6945(4) 0.5695(3) 0.75035(7)
C34 C 0.5602(4) 0.5362(3) 0.75510(7)
C35 C 0.4723(4) 0.5786(3) 0.77431(8)
C36 C 0.5141(4) 0.6230(3) 0.79837(7)
C37 C 0.4140(4) 1.1031(3) 0.87188(9)
H21 H 0.440276 1.077883 0.889326
C38 C 0.4386(4) 1.0215(3) 0.85226(9)
H22 H 0.38529 0.96284 0.856931
H23 H 0.41011 1.043927 0.834912
C39 C 0.5837(4) 0.9935(3) 0.85143(8)
H24 H 0.610149 0.963441 0.868323
C40 C 0.6746(4) 1.0800(3) 0.84522(8)
H25 H 0.647644 1.105546 0.827853
C41 C 0.6474(4) 1.1618(3) 0.86472(8)
H26 H 0.674742 1.13944 0.88215
H27 H 0.701187 1.220347 0.860201
C42 C 0.5024(4) 1.1909(3) 0.86541(9)
H28 H 0.476563 1.218028 0.848368
H29 H 0.489382 1.243179 0.878535
C43 C 0.2678(5) 1.1306(4) 0.87292(10)
H30 H 0.237386 1.148899 0.855563
H31 H 0.255535 1.186574 0.884689
H32 H 0.216428 1.074141 0.87917
C44 C 0.8213(4) 1.0504(3) 0.84322(9)
H33 H 0.82636 0.992424 0.831306
C45 C 0.8815(5) 1.0182(4) 0.86931(10)
H34 H 0.972102 0.994651 0.866543
H35 H 0.828012 0.96501 0.876747
H36 H 0.882759 1.074453 0.881213
C46 C 0.9043(5) 1.1324(4) 0.83124(10)
H37 H 0.868205 1.149667 0.814231
H38 H 0.995828 1.109785 0.829273
H39 H 0.902256 1.190546 0.842502
C47 C 0.6524(4) 0.8354(3) 0.83672(8)
O1 O 0.6658(3) 0.78366(19) 0.81447(5)
O2 O 0.4573(3) 0.7038(2) 0.83733(5)
H40 H 0.398286 0.692588 0.848392
O3 O 0.5988(3) 0.9201(2) 0.83056(5)
O4 O 0.6868(3) 0.8070(2) 0.85773(5)
C48 C 0.3890(4) 0.5511(3) 0.91464(8)
C49 C 0.2639(4) 0.5064(3) 0.91500(8)
H41 H 0.186827 0.542333 0.910342
C50 C 0.2560(4) 0.4104(3) 0.92218(8)
H42 H 0.171556 0.380907 0.924456
C51 C 0.3705(4) 0.3535(3) 0.92632(8)
C52 C 0.3596(5) 0.2580(3) 0.93727(9)
H43 H 0.274512 0.23052 0.940237
C53 C 0.4685(4) 0.2055(4) 0.94354(8)
H44 H 0.45989 0.146127 0.953144
C54 C 0.5964(5) 0.2388(3) 0.93582(8)
C55 C 0.7088(5) 0.1793(3) 0.94074(9)
H45 H 0.699824 0.121868 0.951121
C56 C 0.8293(5) 0.2029(3) 0.93087(8)
H46 H 0.905017 0.165795 0.935739
C57 C 0.8425(4) 0.2828(3) 0.91331(8)
C58 C 0.9609(4) 0.2969(3) 0.89960(9)
H47 H 1.036102 0.257838 0.903707
C59 C 0.9694(5) 0.3661(4) 0.88041(9)
H48 H 1.051006 0.377161 0.871761
C60 C 0.8569(4) 0.4204(3) 0.87361(8)
H49 H 0.861546 0.466076 0.859687
C61 C 0.7405(4) 0.4088(3) 0.88671(8)
H50 H 0.664641 0.445058 0.881453
C62 C 0.7313(4) 0.3434(3) 0.90804(8)
C63 C 0.6102(4) 0.3283(3) 0.92212(8)
C64 C 0.4972(4) 0.3951(3) 0.92143(8)
C65 C 0.5067(4) 0.4998(3) 0.91817(8)
C66 C 0.6758(4) 0.6173(3) 0.90181(8)
C67 C 0.8021(4) 0.6605(3) 0.90173(9)
H51 H 0.824681 0.709009 0.889219
C68 C 0.8922(4) 0.6316(3) 0.92000(9)
H52 H 0.980025 0.656372 0.919288
C69 C 0.8568(4) 0.5663(3) 0.93962(8)
C70 C 0.9566(4) 0.5235(4) 0.95587(8)
H53 H 1.045348 0.546003 0.954511
C71 C 0.9268(4) 0.4525(4) 0.97294(9)
H54 H 0.995902 0.418079 0.981509
C72 C 0.7932(4) 0.4283(3) 0.97832(8)
C73 C 0.7609(5) 0.3557(3) 0.99731(8)
H55 H 0.830405 0.320481 1.005539
C74 C 0.6344(5) 0.3358(3) 1.00390(8)
H56 H 0.614993 0.281526 1.014887
C75 C 0.5291(5) 0.3969(3) 0.99425(8)
C76 C 0.3997(5) 0.3863(4) 1.00365(9)
H57 H 0.378532 0.332763 1.014749
C77 C 0.3034(5) 0.4531(4) 0.99689(9)
H58 H 0.215081 0.444211 1.0027
C78 C 0.3358(4) 0.5336(4) 0.98151(8)
H59 H 0.270782 0.582334 0.977938
C79 C 0.4610(4) 0.5437(3) 0.97141(8)
H60 H 0.481749 0.599525 0.961078
C80 C 0.5590(4) 0.4715(3) 0.97629(8)
C81 C 0.6905(4) 0.4783(3) 0.96533(8)
C82 C 0.7228(4) 0.5350(3) 0.94234(8)
C83 C 0.6341(4) 0.5551(3) 0.92138(8)
C84 C 0.6060(4) 0.9011(4) 0.94424(10)
H61 H 0.591404 0.971729 0.939438
C85 C 0.5447(4) 0.8361(3) 0.92337(9)
H62 H 0.585147 0.851832 0.906415
H63 H 0.563028 0.765964 0.927289
C86 C 0.3966(4) 0.8525(3) 0.92200(9)
H64 H 0.384788 0.92457 0.918574
C87 C 0.3233(4) 0.8323(3) 0.94704(8)
H65 H 0.340856 0.762128 0.951886
C88 C 0.3862(4) 0.8974(4) 0.96788(10)
H66 H 0.368823 0.967584 0.963782
H67 H 0.344744 0.882705 0.9848
C89 C 0.5355(5) 0.8809(4) 0.96982(9)
H68 H 0.572263 0.924743 0.983342
H69 H 0.552538 0.81186 0.975125
C90 C 0.7540(5) 0.8824(5) 0.94590(11)
H70 H 0.769729 0.814328 0.951441
H71 H 0.79343 0.927941 0.958448
H72 H 0.794195 0.893047 0.928872
C91 C 0.1731(5) 0.8448(4) 0.94487(10)
H73 H 0.142813 0.801912 0.930286
C92 C 0.1289(5) 0.9502(4) 0.93862(12)
H74 H 0.03323 0.951039 0.935521
H75 H 0.175156 0.973432 0.923122
H76 H 0.149932 0.993511 0.95323
C93 C 0.1029(5) 0.8089(4) 0.96918(10)
H77 H 0.130894 0.741322 0.973069
H78 H 0.006994 0.810245 0.966383
H79 H 0.125541 0.85208 0.983724
C94 C 0.3361(4) 0.7050(3) 0.89616(9)
O5 O 0.3923(3) 0.6547(2) 0.91561(5)
O6 O 0.5937(3) 0.6309(2) 0.88130(5)
H80 H 0.629047 0.670044 0.870752
O7 O 0.3388(3) 0.8014(2) 0.89929(6)
O8 O 0.2875(3) 0.6683(2) 0.87720(5)
loop_
_geom_bond_atom_site_label_1
_geom_bond_atom_site_label_2
_geom_bond_site_symmetry_1
_geom_bond_site_symmetry_2
C1 C2 1_555 1_555
C2 H1 1_555 1_555
C3 C2 1_555 1_555
H2 C3 1_555 1_555
C4 C3 1_555 1_555
C5 C4 1_555 1_555
H3 C5 1_555 1_555
C6 C5 1_555 1_555
H4 C6 1_555 1_555
C7 C6 1_555 1_555
C8 C7 1_555 1_555
H5 C8 1_555 1_555
C9 C8 1_555 1_555
H6 C9 1_555 1_555
C10 C9 1_555 1_555
C11 C10 1_555 1_555
H7 C11 1_555 1_555
C12 C11 1_555 1_555
H8 C12 1_555 1_555
C13 C12 1_555 1_555
H9 C13 1_555 1_555
C14 C13 1_555 1_555
H10 C14 1_555 1_555
C15 C10 1_555 1_555
C16 C7 1_555 1_555
C17 C4 1_555 1_555
C18 C1 1_555 1_555
C19 C20 1_555 1_555
C20 H11 1_555 1_555
C21 C20 1_555 1_555
H12 C21 1_555 1_555
C22 C21 1_555 1_555
C23 C22 1_555 1_555
H13 C23 1_555 1_555
C24 C23 1_555 1_555
H14 C24 1_555 1_555
C25 C24 1_555 1_555
C26 C25 1_555 1_555
H15 C26 1_555 1_555
C27 C26 1_555 1_555
H16 C27 1_555 1_555
C28 C27 1_555 1_555
C29 C28 1_555 1_555
H17 C29 1_555 1_555
C30 C29 1_555 1_555
H18 C30 1_555 1_555
C31 C30 1_555 1_555
H19 C31 1_555 1_555
C32 C31 1_555 1_555
H20 C32 1_555 1_555
C33 C28 1_555 1_555
C34 C25 1_555 1_555
C35 C22 1_555 1_555
C36 C18 1_555 1_555
C37 H21 1_555 1_555
C38 C37 1_555 1_555
H22 C38 1_555 1_555
H23 C38 1_555 1_555
C39 C38 1_555 1_555
H24 C39 1_555 1_555
C40 C39 1_555 1_555
H25 C40 1_555 1_555
C41 C40 1_555 1_555
H26 C41 1_555 1_555
H27 C41 1_555 1_555
C42 C37 1_555 1_555
H28 C42 1_555 1_555
H29 C42 1_555 1_555
C43 C37 1_555 1_555
H30 C43 1_555 1_555
H31 C43 1_555 1_555
H32 C43 1_555 1_555
C44 C40 1_555 1_555
H33 C44 1_555 1_555
C45 C44 1_555 1_555
H34 C45 1_555 1_555
H35 C45 1_555 1_555
H36 C45 1_555 1_555
C46 C44 1_555 1_555
H37 C46 1_555 1_555
H38 C46 1_555 1_555
H39 C46 1_555 1_555
C47 O1 1_555 1_555
O1 C1 1_555 1_555
O2 C19 1_555 1_555
H40 O2 1_555 1_555
O3 C39 1_555 1_555
O4 C47 1_555 1_555
C48 C49 1_555 1_555
C49 H41 1_555 1_555
C50 C49 1_555 1_555
H42 C50 1_555 1_555
C51 C50 1_555 1_555
C52 C51 1_555 1_555
H43 C52 1_555 1_555
C53 C52 1_555 1_555
H44 C53 1_555 1_555
C54 C53 1_555 1_555
C55 C54 1_555 1_555
H45 C55 1_555 1_555
C56 C55 1_555 1_555
H46 C56 1_555 1_555
C57 C56 1_555 1_555
C58 C57 1_555 1_555
H47 C58 1_555 1_555
C59 C58 1_555 1_555
H48 C59 1_555 1_555
C60 C59 1_555 1_555
H49 C60 1_555 1_555
C61 C60 1_555 1_555
H50 C61 1_555 1_555
C62 C57 1_555 1_555
C63 C54 1_555 1_555
C64 C51 1_555 1_555
C65 C48 1_555 1_555
C66 C67 1_555 1_555
C67 H51 1_555 1_555
C68 C67 1_555 1_555
H52 C68 1_555 1_555
C69 C68 1_555 1_555
C70 C69 1_555 1_555
H53 C70 1_555 1_555
C71 C70 1_555 1_555
H54 C71 1_555 1_555
C72 C71 1_555 1_555
C73 C72 1_555 1_555
H55 C73 1_555 1_555
C74 C73 1_555 1_555
H56 C74 1_555 1_555
C75 C74 1_555 1_555
C76 C75 1_555 1_555
H57 C76 1_555 1_555
C77 C76 1_555 1_555
H58 C77 1_555 1_555
C78 C77 1_555 1_555
H59 C78 1_555 1_555
C79 C78 1_555 1_555
H60 C79 1_555 1_555
C80 C75 1_555 1_555
C81 C72 1_555 1_555
C82 C69 1_555 1_555
C83 C65 1_555 1_555
C84 H61 1_555 1_555
C85 C84 1_555 1_555
H62 C85 1_555 1_555
H63 C85 1_555 1_555
C86 C85 1_555 1_555
H64 C86 1_555 1_555
C87 C86 1_555 1_555
H65 C87 1_555 1_555
C88 C87 1_555 1_555
H66 C88 1_555 1_555
H67 C88 1_555 1_555
C89 C84 1_555 1_555
H68 C89 1_555 1_555
H69 C89 1_555 1_555
C90 C84 1_555 1_555
H70 C90 1_555 1_555
H71 C90 1_555 1_555
H72 C90 1_555 1_555
C91 C87 1_555 1_555
H73 C91 1_555 1_555
C92 C91 1_555 1_555
H74 C92 1_555 1_555
H75 C92 1_555 1_555
H76 C92 1_555 1_555
C93 C91 1_555 1_555
H77 C93 1_555 1_555
H78 C93 1_555 1_555
H79 C93 1_555 1_555
C94 O5 1_555 1_555
O5 C48 1_555 1_555
O6 C66 1_555 1_555
H80 O6 1_555 1_555
O7 C86 1_555 1_555
O8 C94 1_555 1_555
C14 C15 1_555 1_555
C15 C16 1_555 1_555
C16 C17 1_555 1_555
C17 C18 1_555 1_555
C19 C36 1_555 1_555
C32 C33 1_555 1_555
C33 C34 1_555 1_555
C34 C35 1_555 1_555
C35 C36 1_555 1_555
C41 C42 1_555 1_555
C47 O3 1_555 1_555
C61 C62 1_555 1_555
C62 C63 1_555 1_555
C63 C64 1_555 1_555
C64 C65 1_555 1_555
C66 C83 1_555 1_555
C79 C80 1_555 1_555
C80 C81 1_555 1_555
C81 C82 1_555 1_555
C82 C83 1_555 1_555
C88 C89 1_555 1_555
C94 O7 1_555 1_555

#END
