
#######################################################################
#
#                 Cambridge Crystallographic Data Centre
#                                CCDC 
#
#######################################################################
#
# If this CIF has been generated from an entry in the Cambridge 
# Structural Database, then it will include bibliographic, chemical, 
# crystal, experimental, refinement or atomic coordinate data resulting 
# from the CCDC's data processing and validation procedures.
#
#######################################################################

data_RELHUN
_chemical_formula_moiety         'C26 H27 N1 O1'
_chemical_name_systematic        
N-Phenyl-N-(tricyclo[8.2.2.2^4,7^]hexadeca-1(12),4,6,10,13,15-hexaen-5-yl)butanamide
_symmetry_cell_setting           orthorhombic
_symmetry_space_group_name_H-M   'P 21 21 21'
_symmetry_Int_Tables_number      19
_space_group_name_Hall           'P 2ac 2ab'
loop_
_symmetry_equiv_pos_site_id
_symmetry_equiv_pos_as_xyz
1 x,y,z
2 1/2-x,-y,1/2+z
3 -x,1/2+y,1/2-z
4 1/2+x,1/2-y,-z
_cell_length_a                   8.5449(9)
_cell_length_b                   8.6216(8)
_cell_length_c                   27.256(3)
_cell_angle_alpha                90
_cell_angle_beta                 90
_cell_angle_gamma                90
_cell_volume                     2007.97
_exptl_crystal_colour            colorless
_exptl_crystal_description       prismatic
_cell_formula_units_Z            4
loop_
_atom_site_label
_atom_site_type_symbol
_atom_site_fract_x
_atom_site_fract_y
_atom_site_fract_z
O1 O 0.3644(2) 0.2952(2) 0.94304(6)
N1 N 0.5926(2) 0.3161(2) 0.90127(6)
C1 C 0.5955(5) -0.1498(4) 0.89456(13)
H1 H 0.6410 -0.2437 0.8811
H2 H 0.6005 -0.1575 0.9300
C2 C 0.6964(4) -0.0088(3) 0.87792(10)
H3 H 0.7286 0.0493 0.9067
H4 H 0.7902 -0.0469 0.8619
C3 C 0.6116(3) 0.0980(3) 0.84349(8)
C4 C 0.5356(3) 0.2332(3) 0.85816(7)
C5 C 0.4057(3) 0.2861(3) 0.83330(8)
H5 H 0.3550 0.3752 0.8441
C6 C 0.3489(3) 0.2081(3) 0.79214(8)
C7 C 0.4474(4) 0.0992(3) 0.77161(8)
H6 H 0.4264 0.0618 0.7403
C8 C 0.5757(4) 0.0449(3) 0.79647(8)
H7 H 0.6399 -0.0286 0.7817
C9 C 0.1817(4) 0.2177(4) 0.77661(10)
H8 H 0.1775 0.2204 0.7411
H9 H 0.1380 0.3143 0.7886
C10 C 0.0776(5) 0.0807(5) 0.79517(12)
H10 H -0.0126 0.1227 0.8122
H11 H 0.0398 0.0225 0.7671
C11 C 0.1630(4) -0.0273(4) 0.82896(11)
C12 C 0.1989(4) 0.0204(4) 0.87641(10)
H12 H 0.1350 0.0928 0.8918
C13 C 0.3258(4) -0.0366(3) 0.90086(9)
H13 H 0.3448 -0.0037 0.9328
C14 C 0.4269(4) -0.1420(3) 0.87946(11)
C15 C 0.3708(5) -0.2150(4) 0.83705(13)
H14 H 0.4208 -0.3034 0.8253
C16 C 0.2426(6) -0.1574(5) 0.81249(13)
H15 H 0.2085 -0.2071 0.7841
C17 C 0.4930(3) 0.3545(3) 0.93925(8)
C18 C 0.5452(3) 0.4764(3) 0.97560(8)
H16 H 0.5895 0.4260 1.0042
H17 H 0.6263 0.5399 0.9608
C19 C 0.4111(4) 0.5787(3) 0.99128(9)
H18 H 0.3319 0.5153 1.0070
H19 H 0.3644 0.6255 0.9624
C20 C 0.4610(4) 0.7058(3) 1.02629(9)
H20 H 0.5035 0.6602 1.0555
H21 H 0.3720 0.7685 1.0346
H22 H 0.5391 0.7694 1.0109
C21 C 0.7492(3) 0.3738(3) 0.89843(8)
C22 C 0.8566(3) 0.3419(3) 0.93494(9)
H23 H 0.8288 0.2787 0.9612
C23 C 1.0043(3) 0.4036(3) 0.93247(10)
H24 H 1.0755 0.3831 0.9575
C24 C 1.0490(3) 0.4953(3) 0.89363(10)
H25 H 1.1492 0.5372 0.8924
C25 C 0.9437(4) 0.5239(3) 0.85690(9)
H26 H 0.9728 0.5851 0.8303
C26 C 0.7953(3) 0.4629(3) 0.85903(9)
H27 H 0.7252 0.4819 0.8336
loop_
_geom_bond_atom_site_label_1
_geom_bond_atom_site_label_2
_geom_bond_site_symmetry_1
_geom_bond_site_symmetry_2
O1 C17 1_555 1_555
N1 C4 1_555 1_555
C1 H1 1_555 1_555
H2 C1 1_555 1_555
C2 C1 1_555 1_555
H3 C2 1_555 1_555
H4 C2 1_555 1_555
C3 C2 1_555 1_555
C4 C3 1_555 1_555
C5 C4 1_555 1_555
H5 C5 1_555 1_555
C6 C5 1_555 1_555
C7 C6 1_555 1_555
H6 C7 1_555 1_555
C8 C3 1_555 1_555
H7 C8 1_555 1_555
C9 C6 1_555 1_555
H8 C9 1_555 1_555
H9 C9 1_555 1_555
C10 C9 1_555 1_555
H10 C10 1_555 1_555
H11 C10 1_555 1_555
C11 C10 1_555 1_555
C12 C11 1_555 1_555
H12 C12 1_555 1_555
C13 C12 1_555 1_555
H13 C13 1_555 1_555
C14 C1 1_555 1_555
C15 C14 1_555 1_555
H14 C15 1_555 1_555
C16 C11 1_555 1_555
H15 C16 1_555 1_555
C17 N1 1_555 1_555
C18 C17 1_555 1_555
H16 C18 1_555 1_555
H17 C18 1_555 1_555
C19 C18 1_555 1_555
H18 C19 1_555 1_555
H19 C19 1_555 1_555
C20 C19 1_555 1_555
H20 C20 1_555 1_555
H21 C20 1_555 1_555
H22 C20 1_555 1_555
C21 N1 1_555 1_555
C22 C21 1_555 1_555
H23 C22 1_555 1_555
C23 C22 1_555 1_555
H24 C23 1_555 1_555
C24 C23 1_555 1_555
H25 C24 1_555 1_555
C25 C24 1_555 1_555
H26 C25 1_555 1_555
C26 C21 1_555 1_555
H27 C26 1_555 1_555
C7 C8 1_555 1_555
C13 C14 1_555 1_555
C15 C16 1_555 1_555
C25 C26 1_555 1_555

#END
