
#######################################################################
#
#                 Cambridge Crystallographic Data Centre
#                                CCDC 
#
#######################################################################
#
# If this CIF has been generated from an entry in the Cambridge 
# Structural Database, then it will include bibliographic, chemical, 
# crystal, experimental, refinement or atomic coordinate data resulting 
# from the CCDC's data processing and validation procedures.
#
#######################################################################

data_RELLIF
_chemical_formula_moiety         'C44 H30 Cl2 N12 O12'
_chemical_name_systematic        
'Dimethyl 25,27-bis((4-chloro-6-methoxy-1,3,5-triazin-2-yl)oxy)-5,17-bis(4-methylphenyl)-2,8,14,20-tetraoxa-4,6,16,18,26,28-hexa-azapentacyclo[19.3.1.1^3,7^.1^9,13^.1^15,19^]octacosa-1(25),3(28),4,6,9(27),10,12,15(26),16,18,21,23-dodecaene-11,23-dicarboxylate'
_symmetry_cell_setting           monoclinic
_symmetry_space_group_name_H-M   'P 21/n'
_symmetry_Int_Tables_number      14
_space_group_name_Hall           '-P 2yn'
loop_
_symmetry_equiv_pos_site_id
_symmetry_equiv_pos_as_xyz
1 x,y,z
2 1/2-x,1/2+y,1/2-z
3 -x,-y,-z
4 1/2+x,1/2-y,1/2+z
_cell_length_a                   13.809(3)
_cell_length_b                   17.516(3)
_cell_length_c                   20.801(4)
_cell_angle_alpha                90
_cell_angle_beta                 95.313(4)
_cell_angle_gamma                90
_cell_volume                     5009.7
_exptl_crystal_colour            colorless
_exptl_crystal_description       block
_cell_formula_units_Z            4
loop_
_atom_site_label
_atom_site_type_symbol
_atom_site_fract_x
_atom_site_fract_y
_atom_site_fract_z
Cl1 Cl 0.72851(14) 0.3966(2) 0.23273(17)
Cl2 Cl 0.66535(11) 0.12451(11) 0.52153(9)
O1 O 0.2905(2) 0.39923(15) 0.25509(14)
O2 O 0.3340(2) 0.18203(17) 0.11962(15)
O3 O 0.3284(2) 0.03922(16) 0.30435(15)
O4 O 0.2204(2) 0.25059(16) 0.42655(15)
O5 O 0.4092(2) 0.29009(17) 0.20958(16)
O6 O 0.4763(3) 0.4883(2) 0.0769(2)
O7 O -0.0511(2) 0.3080(2) 0.1803(2)
O8 O -0.0267(2) 0.2286(2) 0.1015(2)
O9 O 0.3698(2) 0.16191(16) 0.38429(16)
O10 O 0.3414(3) 0.0373(2) 0.57217(19)
O11 O -0.0272(3) 0.0611(3) 0.2369(3)
O12 O -0.0821(3) 0.1499(2) 0.3012(3)
N1 N 0.4117(3) 0.0689(2) 0.12677(18)
N2 N 0.4119(2) -0.00273(19) 0.22427(18)
N3 N 0.3279(2) 0.11427(18) 0.21380(18)
N4 N 0.2728(3) 0.3699(2) 0.44510(18)
N5 N 0.3116(3) 0.4467(2) 0.3561(2)
N6 N 0.2532(2) 0.32046(18) 0.33834(18)
N7 N 0.5548(3) 0.3446(3) 0.2201(3)
N8 N 0.5908(3) 0.4446(4) 0.1489(3)
N9 N 0.4316(3) 0.3891(2) 0.13955(19)
N10 N 0.3506(3) 0.0987(2) 0.4795(2)
N11 N 0.4949(4) 0.0780(3) 0.5487(2)
N12 N 0.5042(3) 0.1452(2) 0.4507(2)
C1 C 0.3108(3) 0.2901(2) 0.1881(2)
C2 C 0.2488(3) 0.3422(2) 0.2148(2)
C3 C 0.1508(3) 0.3376(2) 0.2008(2)
H1 H 0.1092 0.3736 0.2184
C4 C 0.1117(3) 0.2796(2) 0.1604(2)
C5 C 0.1726(3) 0.2275(3) 0.1335(2)
H2 H 0.1460 0.1884 0.1054
C6 C 0.2707(3) 0.2330(2) 0.1478(2)
C7 C 0.3575(3) 0.1196(3) 0.1557(2)
C8 C 0.4375(3) 0.0078(2) 0.1640(2)
C9 C 0.3568(3) 0.0509(2) 0.2448(2)
C10 C 0.2526(3) 0.0865(2) 0.3208(2)
C11 C 0.2731(3) 0.1454(2) 0.3646(2)
C12 C 0.1990(3) 0.1904(2) 0.3817(2)
C13 C 0.1034(3) 0.1801(3) 0.3566(2)
H3 H 0.0528 0.2116 0.3696
C14 C 0.0841(3) 0.1214(3) 0.3114(2)
C15 C 0.1584(3) 0.0750(2) 0.2943(2)
H4 H 0.1446 0.0348 0.2641
C16 C 0.2504(3) 0.3176(2) 0.4016(2)
C17 C 0.3060(3) 0.4349(3) 0.4192(2)
C18 C 0.2850(3) 0.3882(2) 0.3202(2)
C19 C 0.4662(3) 0.3449(3) 0.1877(3)
C20 C 0.6093(5) 0.3950(6) 0.1962(4)
C21 C 0.4981(4) 0.4396(3) 0.1222(3)
C22 C 0.3797(3) 0.4877(3) 0.0437(2)
H5 H 0.3745 0.5281 0.0109
H6 H 0.3318 0.4967 0.0747
H7 H 0.3674 0.4381 0.0228
C23 C 0.0041(4) 0.2750(3) 0.1486(3)
C24 C -0.1325(5) 0.2219(5) 0.0907(4)
H8 H -0.1495 0.1863 0.0551
H9 H -0.1607 0.2721 0.0797
H10 H -0.1583 0.2028 0.1300
C25 C 0.4969(3) -0.0512(2) 0.1363(2)
C26 C 0.4951(10) -0.0575(6) 0.0696(5)
H11 H 0.4591 -0.0216 0.0428
C27 C 0.5451(11) -0.1151(6) 0.0420(6)
H12 H 0.5479 -0.1160 -0.0035
C28 C 0.5909(10) -0.1714(6) 0.0796(5)
C29 C 0.6449(13) -0.2361(8) 0.0488(7)
H13 H 0.6739 -0.2703 0.0826
H14 H 0.6963 -0.2147 0.0248
H15 H 0.5991 -0.2649 0.0192
C30 C 0.5915(3) -0.1667(3) 0.1475(2)
H16 H 0.6068 -0.2121 0.1712
C31 C 0.5362(3) -0.1113(2) 0.1735(2)
H17 H 0.5248 -0.1143 0.2177
C32 C 0.4072(3) 0.1328(2) 0.4415(2)
C33 C 0.3994(4) 0.0729(3) 0.5330(3)
C34 C 0.5412(4) 0.1135(3) 0.5060(3)
C35 C 0.3912(6) 0.0073(4) 0.6327(3)
H18 H 0.3437 -0.0176 0.6579
H19 H 0.4225 0.0494 0.6578
H20 H 0.4406 -0.0299 0.6226
C36 C -0.0163(4) 0.1115(3) 0.2801(3)
C37 C -0.1097(11) 0.0462(10) 0.2071(9)
H21 H -0.1024 0.0054 0.1756
H22 H -0.1353 0.0921 0.1845
H23 H -0.1547 0.0297 0.2380
C38 C 0.3509(12) 0.4929(9) 0.4662(7)
C39 C 0.3164(12) 0.4930(8) 0.5273(6)
H24 H 0.2681 0.4580 0.5385
C40 C 0.3562(11) 0.5464(7) 0.5705(6)
H25 H 0.3365 0.5472 0.6130
C41 C 0.4240(10) 0.5989(6) 0.5538(5)
C42 C 0.4523(10) 0.5963(8) 0.4929(6)
H26 H 0.4995 0.6323 0.4820
C43 C 0.4177(9) 0.5458(8) 0.4464(8)
H27 H 0.4375 0.5465 0.4038
C44 C 0.4622(12) 0.6579(7) 0.6046(6)
H28 H 0.4320 0.6489 0.6448
H29 H 0.4459 0.7094 0.5887
H30 H 0.5329 0.6530 0.6128
C45? C 0.5360(12) -0.0393(8) 0.0772(6)
C46? C 0.5959(13) -0.0937(8) 0.0520(7)
C47? C 0.6260(10) -0.1574(8) 0.0860(6)
C48? C 0.6950(13) -0.2165(9) 0.0617(8)
C49? C -0.1700(10) 0.1387(11) 0.2897(9)
C50? C 0.3195(15) 0.4997(10) 0.4672(8)
C51? C 0.2733(13) 0.5076(10) 0.5244(8)
C52? C 0.3022(14) 0.5649(7) 0.5683(7)
C53? C 0.3754(14) 0.6156(8) 0.5591(7)
C54? C 0.4174(14) 0.6121(10) 0.5024(7)
C55? C 0.3873(13) 0.5572(10) 0.4568(10)
C56? C 0.4026(16) 0.6757(9) 0.6114(7)
H31? H 0.5214 0.0065 0.0539
H32? H 0.6163 -0.0862 0.0101
H33? H 0.7097 -0.2555 0.0950
H34? H 0.7554 -0.1913 0.0520
H35? H 0.6643 -0.2406 0.0224
H36? H -0.2060 0.1766 0.3127
H37? H -0.1860 0.0873 0.3039
H38? H -0.1879 0.1435 0.2431
H39? H 0.2224 0.4738 0.5330
H40? H 0.2697 0.5692 0.6064
H41? H 0.4672 0.6471 0.4941
H42? H 0.4140 0.5585 0.4163
H43? H 0.3625 0.6685 0.6474
H44? H 0.3913 0.7269 0.5932
H45? H 0.4714 0.6702 0.6270
loop_
_geom_bond_atom_site_label_1
_geom_bond_atom_site_label_2
_geom_bond_site_symmetry_1
_geom_bond_site_symmetry_2
Cl1 C20 1_555 1_555
Cl2 C34 1_555 1_555
O1 C2 1_555 1_555
O2 C6 1_555 1_555
O3 C9 1_555 1_555
O4 C12 1_555 1_555
O5 C1 1_555 1_555
O6 C21 1_555 1_555
O7 C23 1_555 1_555
O8 C23 1_555 1_555
O9 C11 1_555 1_555
O10 C33 1_555 1_555
O11 C36 1_555 1_555
O12 C36 1_555 1_555
N1 C7 1_555 1_555
N2 C8 1_555 1_555
N3 C7 1_555 1_555
N4 C16 1_555 1_555
N5 C17 1_555 1_555
N6 C16 1_555 1_555
N7 C19 1_555 1_555
N8 C20 1_555 1_555
N9 C19 1_555 1_555
N10 C32 1_555 1_555
N11 C33 1_555 1_555
N12 C32 1_555 1_555
C1 C2 1_555 1_555
C2 C3 1_555 1_555
C3 H1 1_555 1_555
C4 C3 1_555 1_555
C5 C4 1_555 1_555
H2 C5 1_555 1_555
C6 C1 1_555 1_555
C7 O2 1_555 1_555
C8 N1 1_555 1_555
C9 N2 1_555 1_555
C10 O3 1_555 1_555
C11 C10 1_555 1_555
C12 C11 1_555 1_555
C13 C12 1_555 1_555
H3 C13 1_555 1_555
C14 C13 1_555 1_555
C15 C10 1_555 1_555
H4 C15 1_555 1_555
C16 O4 1_555 1_555
C17 N4 1_555 1_555
C18 O1 1_555 1_555
C19 O5 1_555 1_555
C20 N7 1_555 1_555
C21 N8 1_555 1_555
C22 O6 1_555 1_555
H5 C22 1_555 1_555
H6 C22 1_555 1_555
H7 C22 1_555 1_555
C23 C4 1_555 1_555
C24 O8 1_555 1_555
H8 C24 1_555 1_555
H9 C24 1_555 1_555
H10 C24 1_555 1_555
C25 C8 1_555 1_555
C26 C25 1_555 1_555
H11 C26 1_555 1_555
C27 C26 1_555 1_555
H12 C27 1_555 1_555
C28 C27 1_555 1_555
C29 C28 1_555 1_555
H13 C29 1_555 1_555
H14 C29 1_555 1_555
H15 C29 1_555 1_555
C30 C28 1_555 1_555
H16 C30 1_555 1_555
C31 C25 1_555 1_555
H17 C31 1_555 1_555
C32 O9 1_555 1_555
C33 N10 1_555 1_555
C34 N11 1_555 1_555
C35 O10 1_555 1_555
H18 C35 1_555 1_555
H19 C35 1_555 1_555
H20 C35 1_555 1_555
C36 C14 1_555 1_555
C37 O11 1_555 1_555
H21 C37 1_555 1_555
H22 C37 1_555 1_555
H23 C37 1_555 1_555
C38 C17 1_555 1_555
C39 C38 1_555 1_555
H24 C39 1_555 1_555
C40 C39 1_555 1_555
H25 C40 1_555 1_555
C41 C40 1_555 1_555
C42 C41 1_555 1_555
H26 C42 1_555 1_555
C43 C38 1_555 1_555
H27 C43 1_555 1_555
C44 C41 1_555 1_555
H28 C44 1_555 1_555
H29 C44 1_555 1_555
H30 C44 1_555 1_555
N3 C9 1_555 1_555
N5 C18 1_555 1_555
N6 C18 1_555 1_555
N9 C21 1_555 1_555
N12 C34 1_555 1_555
C5 C6 1_555 1_555
C14 C15 1_555 1_555
C30 C31 1_555 1_555
C42 C43 1_555 1_555

#END
