
#######################################################################
#
#                 Cambridge Crystallographic Data Centre
#                                CCDC 
#
#######################################################################
#
# If this CIF has been generated from an entry in the Cambridge 
# Structural Database, then it will include bibliographic, chemical, 
# crystal, experimental, refinement or atomic coordinate data resulting 
# from the CCDC's data processing and validation procedures.
#
#######################################################################

data_RELMEC
_chemical_formula_moiety         'C14 H6 F4 O5,C14 H5 F4 O5 1-,C16 H36 N1 1+'
_chemical_name_systematic        
'Tetra-n-butylammonium 6,7,8,9-tetrafluoro-3-(methoxycarbonyl)oxanthren-1-olate methyl 6,7,8,9-tetrafluoro-4-hydroxyoxanthrene-2-carboxylate'
_symmetry_cell_setting           triclinic
_symmetry_space_group_name_H-M   'P -1'
_symmetry_Int_Tables_number      2
_space_group_name_Hall           '-P 1'
loop_
_symmetry_equiv_pos_site_id
_symmetry_equiv_pos_as_xyz
1 x,y,z
2 -x,-y,-z
_cell_length_a                   7.7820(16)
_cell_length_b                   14.283(3)
_cell_length_c                   19.997(4)
_cell_angle_alpha                93.94(3)
_cell_angle_beta                 95.73(3)
_cell_angle_gamma                99.62(3)
_cell_volume                     2172.19
_exptl_crystal_colour            colorless
_exptl_crystal_description       block
_cell_formula_units_Z            2
loop_
_atom_site_label
_atom_site_type_symbol
_atom_site_fract_x
_atom_site_fract_y
_atom_site_fract_z
F1 F 0.1739(4) -0.00732(19) -0.14266(11)
F2 F 0.0793(5) 0.1220(2) -0.22559(12)
F3 F 0.0247(4) 0.29371(19) -0.17248(13)
F4 F 0.0687(3) 0.33565(16) -0.03719(12)
O1 O 0.442(4) -0.1311(11) 0.1863(6)
O2 O 0.4218(4) -0.03322(19) 0.27521(14)
O3 O 0.2099(4) 0.02873(18) -0.00845(12)
O4 O 0.1595(3) 0.21034(16) 0.04793(11)
O5 O 0.2293(3) 0.25433(17) 0.17995(11)
H1 H 0.2765 0.2746 0.2190
C1 C 0.4831(9) -0.1027(4) 0.3180(3)
H2 H 0.5060 -0.0757 0.3640
H3 H 0.5888 -0.1192 0.3033
H4 H 0.3947 -0.1589 0.3147
C2 C 0.3875(7) -0.0617(3) 0.2110(2)
C3 C 0.3269(5) 0.0123(2) 0.17033(17)
C4 C 0.2961(5) -0.0099(3) 0.10123(18)
H5 H 0.3142 -0.0683 0.0823
C5 C 0.2386(5) 0.0552(2) 0.06098(16)
C6 C 0.2148(4) 0.1427(2) 0.08793(16)
C7 C 0.2493(4) 0.1682(2) 0.15746(16)
C8 C 0.3041(4) 0.1005(2) 0.19777(16)
H6 H 0.3260 0.1150 0.2442
C9 C 0.1673(5) 0.0978(3) -0.04765(17)
C10 C 0.1483(6) 0.0777(3) -0.1166(2)
C11 C 0.1002(6) 0.1425(4) -0.1583(2)
C12 C 0.0730(6) 0.2289(3) -0.1321(2)
C13 C 0.0944(5) 0.2503(3) -0.0632(2)
C14 C 0.1406(5) 0.1855(3) -0.02022(17)
F5 F 0.6614(3) 0.66436(15) 0.30944(12)
F6 F 0.8835(4) 0.80784(17) 0.38448(15)
F7 F 1.0227(4) 0.78080(19) 0.51012(14)
F8 F 0.9369(3) 0.60938(18) 0.56064(12)
O6 O 0.2849(4) 0.0785(2) 0.42528(16)
O7 O 0.4260(5) 0.1339(2) 0.52579(16)
O8 O 0.7125(4) 0.46514(19) 0.48905(12)
O9 O 0.5723(3) 0.49353(16) 0.35591(11)
O10 O 0.3507(3) 0.35280(15) 0.28260(10)
C15 C 0.2182(7) -0.0112(3) 0.4520(3)
H7 H 0.1496 -0.0541 0.4164
H8 H 0.1462 0.0005 0.4869
H9 H 0.3148 -0.0390 0.4703
C16 C 0.3827(5) 0.1449(3) 0.4683(2)
C17 C 0.4335(4) 0.2356(2) 0.43704(16)
C18 C 0.3652(4) 0.2492(2) 0.37251(16)
H10 H 0.2874 0.1996 0.3476
C19 C 0.4098(4) 0.3351(2) 0.34376(15)
C20 C 0.5272(4) 0.4079(2) 0.38455(16)
C21 C 0.5954(4) 0.3938(3) 0.44863(16)
C22 C 0.5500(5) 0.3085(3) 0.47565(17)
H11 H 0.5962 0.2997 0.5190
C23 C 0.7528(5) 0.5498(3) 0.46068(19)
C24 C 0.6829(4) 0.5639(3) 0.39700(18)
C25 C 0.7273(5) 0.6515(3) 0.3719(2)
C26 C 0.8396(6) 0.7240(3) 0.4101(2)
C27 C 0.9101(6) 0.7097(3) 0.4725(2)
C28 C 0.8669(5) 0.6232(3) 0.4986(2)
N1 N 0.8011(3) 0.36727(18) 0.19358(12)
C29 C 0.7505(4) 0.3040(2) 0.24906(16)
H12 H 0.7434 0.3449 0.2891
H13 H 0.6338 0.2679 0.2351
C30 C 0.8693(5) 0.2344(3) 0.26849(18)
H14 H 0.9821 0.2690 0.2893
H15 H 0.8883 0.1968 0.2285
C31 C 0.7856(5) 0.1694(3) 0.3176(2)
H16 H 0.7755 0.2076 0.3586
H17 H 0.6679 0.1408 0.2980
C32 C 0.8844(6) 0.0918(3) 0.3356(2)
H18 H 0.8231 0.0531 0.3661
H19 H 0.9996 0.1194 0.3568
H20 H 0.8941 0.0531 0.2954
C33 C 0.9778(4) 0.4310(2) 0.21327(17)
H21 H 1.0651 0.3905 0.2209
H22 H 1.0072 0.4667 0.1752
C34 C 0.9935(5) 0.5005(3) 0.27425(19)
H23 H 0.9766 0.4661 0.3140
H24 H 0.9035 0.5397 0.2688
C35 C 1.1754(5) 0.5639(3) 0.2835(2)
H25 H 1.2640 0.5236 0.2872
H26 H 1.1902 0.5980 0.2436
C36 C 1.2054(6) 0.6339(4) 0.3433(2)
H27 H 1.3216 0.6704 0.3462
H28 H 1.1929 0.6008 0.3832
H29 H 1.1211 0.6757 0.3394
C37 C 0.6554(4) 0.4258(2) 0.18252(17)
H30 H 0.5451 0.3821 0.1711
H31 H 0.6482 0.4616 0.2248
C38 C 0.6746(5) 0.4946(3) 0.1286(2)
H32 H 0.6767 0.4598 0.0854
H33 H 0.7844 0.5389 0.1390
C39 C 0.5220(6) 0.5497(3) 0.1244(2)
H34 H 0.5101 0.5761 0.1693
H35 H 0.5496 0.6025 0.0970
C40 C 0.3529(6) 0.4914(4) 0.0956(3)
H36 H 0.2628 0.5298 0.0955
H37 H 0.3243 0.4389 0.1223
H38 H 0.3615 0.4675 0.0502
C41 C 0.8176(4) 0.3079(2) 0.12938(15)
H39 H 0.8410 0.3504 0.0943
H40 H 0.9183 0.2766 0.1373
C42 C 0.6598(5) 0.2330(2) 0.10368(18)
H41 H 0.5542 0.2604 0.1056
H42 H 0.6532 0.1810 0.1325
C43 C 0.6695(5) 0.1949(3) 0.03175(18)
H43 H 0.7858 0.1804 0.0283
H44 H 0.5863 0.1358 0.0216
C44 C 0.6316(6) 0.2624(3) -0.0202(2)
H45 H 0.6401 0.2338 -0.0644
H46 H 0.7151 0.3206 -0.0113
H47 H 0.5153 0.2759 -0.0181
O11? O 0.346(4) -0.1462(7) 0.1931(10)
loop_
_geom_bond_atom_site_label_1
_geom_bond_atom_site_label_2
_geom_bond_site_symmetry_1
_geom_bond_site_symmetry_2
F1 C10 1_555 1_555
F2 C11 1_555 1_555
F3 C12 1_555 1_555
F4 C13 1_555 1_555
F5 C25 1_555 1_555
F6 C26 1_555 1_555
F7 C27 1_555 1_555
F8 C28 1_555 1_555
O1 C2 1_555 1_555
O2 C1 1_555 1_555
O3 C5 1_555 1_555
O4 C6 1_555 1_555
O5 H1 1_555 1_555
O6 C15 1_555 1_555
O7 C16 1_555 1_555
O8 C21 1_555 1_555
O9 C20 1_555 1_555
O10 C19 1_555 1_555
N1 C29 1_555 1_555
C1 H2 1_555 1_555
H3 C1 1_555 1_555
H4 C1 1_555 1_555
C2 O2 1_555 1_555
C3 C2 1_555 1_555
C4 C3 1_555 1_555
H5 C4 1_555 1_555
C5 C4 1_555 1_555
C6 C5 1_555 1_555
C7 O5 1_555 1_555
C8 C3 1_555 1_555
H6 C8 1_555 1_555
C9 O3 1_555 1_555
C10 C9 1_555 1_555
C11 C10 1_555 1_555
C12 C11 1_555 1_555
C13 C12 1_555 1_555
C14 O4 1_555 1_555
C15 H7 1_555 1_555
H8 C15 1_555 1_555
H9 C15 1_555 1_555
C16 O6 1_555 1_555
C17 C16 1_555 1_555
C18 C17 1_555 1_555
H10 C18 1_555 1_555
C19 C18 1_555 1_555
C20 C19 1_555 1_555
C21 C20 1_555 1_555
C22 C17 1_555 1_555
H11 C22 1_555 1_555
C23 O8 1_555 1_555
C24 O9 1_555 1_555
C25 C24 1_555 1_555
C26 C25 1_555 1_555
C27 C26 1_555 1_555
C28 C23 1_555 1_555
C29 H12 1_555 1_555
H13 C29 1_555 1_555
C30 C29 1_555 1_555
H14 C30 1_555 1_555
H15 C30 1_555 1_555
C31 C30 1_555 1_555
H16 C31 1_555 1_555
H17 C31 1_555 1_555
C32 C31 1_555 1_555
H18 C32 1_555 1_555
H19 C32 1_555 1_555
H20 C32 1_555 1_555
C33 N1 1_555 1_555
H21 C33 1_555 1_555
H22 C33 1_555 1_555
C34 C33 1_555 1_555
H23 C34 1_555 1_555
H24 C34 1_555 1_555
C35 C34 1_555 1_555
H25 C35 1_555 1_555
H26 C35 1_555 1_555
C36 C35 1_555 1_555
H27 C36 1_555 1_555
H28 C36 1_555 1_555
H29 C36 1_555 1_555
C37 N1 1_555 1_555
H30 C37 1_555 1_555
H31 C37 1_555 1_555
C38 C37 1_555 1_555
H32 C38 1_555 1_555
H33 C38 1_555 1_555
C39 C38 1_555 1_555
H34 C39 1_555 1_555
H35 C39 1_555 1_555
C40 C39 1_555 1_555
H36 C40 1_555 1_555
H37 C40 1_555 1_555
H38 C40 1_555 1_555
C41 N1 1_555 1_555
H39 C41 1_555 1_555
H40 C41 1_555 1_555
C42 C41 1_555 1_555
H41 C42 1_555 1_555
H42 C42 1_555 1_555
C43 C42 1_555 1_555
H43 C43 1_555 1_555
H44 C43 1_555 1_555
C44 C43 1_555 1_555
H45 C44 1_555 1_555
H46 C44 1_555 1_555
H47 C44 1_555 1_555
C6 C7 1_555 1_555
C7 C8 1_555 1_555
C9 C14 1_555 1_555
C13 C14 1_555 1_555
C21 C22 1_555 1_555
C23 C24 1_555 1_555
C27 C28 1_555 1_555

#END
