
#######################################################################
#
#                 Cambridge Crystallographic Data Centre
#                                CCDC 
#
#######################################################################
#
# If this CIF has been generated from an entry in the Cambridge 
# Structural Database, then it will include bibliographic, chemical, 
# crystal, experimental, refinement or atomic coordinate data resulting 
# from the CCDC's data processing and validation procedures.
#
#######################################################################

data_RELMAY
_chemical_formula_moiety         'C20 H14 N6 O6,2(C1 H2 Cl2)'
_chemical_name_systematic        
'5,17-Dimethoxy-2,8,14,20-tetraoxa-4,6,16,18,26,28-hexa-azapentacyclo[19.3.1.1^3,7^.1^9,13^.1^15,19^]octacosa-1(25),3(28),4,6,9(27),10,12,15(26),16,18,21,23-dodecaene dichloromethane solvate'
_symmetry_cell_setting           orthorhombic
_symmetry_space_group_name_H-M   'C 2 2 21'
_symmetry_Int_Tables_number      20
_space_group_name_Hall           'C 2n 2'
loop_
_symmetry_equiv_pos_site_id
_symmetry_equiv_pos_as_xyz
1 x,y,z
2 -x,-y,1/2+z
3 -x,y,1/2-z
4 x,-y,-z
5 1/2+x,1/2+y,z
6 1/2-x,1/2-y,1/2+z
7 1/2-x,1/2+y,1/2-z
8 1/2+x,1/2-y,-z
_cell_length_a                   9.1999(18)
_cell_length_b                   16.063(3)
_cell_length_c                   19.924(4)
_cell_angle_alpha                90
_cell_angle_beta                 90
_cell_angle_gamma                90
_cell_volume                     2944.33
_exptl_crystal_colour            colorless
_exptl_crystal_description       block
_cell_formula_units_Z            4
loop_
_atom_site_label
_atom_site_type_symbol
_atom_site_fract_x
_atom_site_fract_y
_atom_site_fract_z
Cl1 Cl 0.03415(9) 0.14025(6) 0.59339(6)
C11 C -0.0437(12) 0.0519(6) 0.6336(7)
H8 H -0.0340 0.0562 0.6830
H9 H -0.1480 0.0466 0.6222
Cl2 Cl 0.0564(3) -0.0347(2) 0.6025(5)
O1 O -0.2369(2) 0.66902(10) 0.79246(8)
O2 O -0.09658(17) 0.44100(9) 0.66922(7)
O3 O -0.02771(18) 0.69918(9) 0.56578(7)
N1 N -0.1722(2) 0.55422(11) 0.73072(9)
N2 N -0.05604(18) 0.56685(11) 0.61229(8)
N3 N -0.1281(2) 0.68858(11) 0.67843(9)
C1 C -0.1770(2) 0.63762(14) 0.73115(10)
C2 C -0.1083(2) 0.52468(13) 0.67043(10)
C3 C -0.0722(2) 0.64842(13) 0.62049(10)
C4 C -0.2470(4) 0.75901(16) 0.79711(14)
H1 H -0.2883 0.7744 0.8407
H2 H -0.3096 0.7800 0.7611
H3 H -0.1498 0.7833 0.7926
C5 C 0.0281(2) 0.66344(12) 0.50012(10)
C6 C -0.0049(2) 0.40554(11) 0.61470(10)
C7 C 0.1404(2) 0.39479(13) 0.63241(11)
H4 H 0.1785 0.4130 0.6742
C8 C 0.2287(2) 0.35371(14) 0.58216(12)
H5 H 0.3284 0.3446 0.5922
C9 C 0.1735(2) 0.32461(13) 0.51545(11)
H6 H 0.2370 0.2984 0.4843
C10 C -0.0641(2) 0.37695(12) 0.54908(10)
H7 H -0.1641 0.3853 0.5393
O1C O -0.2369(2) 0.33098(10) 0.20754(8)
O2C O -0.09658(17) 0.55900(9) 0.33078(7)
O3C O -0.02771(18) 0.30082(9) 0.43422(7)
N1C N -0.1722(2) 0.44578(11) 0.26928(9)
N2C N -0.05604(18) 0.43315(11) 0.38771(8)
N3C N -0.1281(2) 0.31142(11) 0.32157(9)
C1C C -0.1770(2) 0.36238(14) 0.26885(10)
C2C C -0.1083(2) 0.47532(13) 0.32957(10)
C3C C -0.0722(2) 0.35158(13) 0.37951(10)
C4C C -0.2470(4) 0.24099(16) 0.20289(14)
H1C H -0.2883 0.2256 0.1593
H2C H -0.3096 0.2200 0.2389
H3C H -0.1498 0.2167 0.2074
C5C C 0.0281(2) 0.33656(12) 0.49988(10)
C6C C -0.0049(2) 0.59446(11) 0.38530(10)
C7C C 0.1404(2) 0.60521(13) 0.36759(11)
H4C H 0.1785 0.5870 0.3258
C8C C 0.2287(2) 0.64629(14) 0.41784(12)
H5C H 0.3284 0.6554 0.4078
C9C C 0.1735(2) 0.67539(13) 0.48455(11)
H6C H 0.2370 0.7016 0.5157
C10C C -0.0641(2) 0.62305(12) 0.45092(10)
H7C H -0.1641 0.6147 0.4607
C12? C -0.0628(10) 0.0443(5) 0.6000(5)
Cl3? Cl 0.0365(6) -0.0326(3) 0.6492(5)
H10? H -0.0807 0.0219 0.5545
H11? H -0.1583 0.0548 0.6214
loop_
_geom_bond_atom_site_label_1
_geom_bond_atom_site_label_2
_geom_bond_site_symmetry_1
_geom_bond_site_symmetry_2
Cl1 C11 1_555 1_555
O1 C1 1_555 1_555
O2 C2 1_555 1_555
O3 C3 1_555 1_555
N1 C1 1_555 1_555
N2 C2 1_555 1_555
N3 C1 1_555 1_555
C2 N1 1_555 1_555
C3 N2 1_555 1_555
C4 O1 1_555 1_555
H1 C4 1_555 1_555
H2 C4 1_555 1_555
H3 C4 1_555 1_555
C5 O3 1_555 1_555
C6 O2 1_555 1_555
C7 C6 1_555 1_555
H4 C7 1_555 1_555
C8 C7 1_555 1_555
H5 C8 1_555 1_555
C9 C8 1_555 1_555
H6 C9 1_555 1_555
C10 C6 1_555 1_555
H7 C10 1_555 1_555
C11 H8 1_555 1_555
H9 C11 1_555 1_555
Cl2 C11 1_555 1_555
O1C C1C 1_555 1_555
O2C C2C 1_555 1_555
O3C C3C 1_555 1_555
N1C C1C 1_555 1_555
N2C C2C 1_555 1_555
N3C C1C 1_555 1_555
C2C N1C 1_555 1_555
C3C N2C 1_555 1_555
C4C O1C 1_555 1_555
H1C C4C 1_555 1_555
H2C C4C 1_555 1_555
H3C C4C 1_555 1_555
C5C C9 1_555 1_555
C6C O2C 1_555 1_555
C7C C6C 1_555 1_555
H4C C7C 1_555 1_555
C8C C7C 1_555 1_555
H5C C8C 1_555 1_555
C9C C5 1_555 1_555
H6C C9C 1_555 1_555
C10C C5 1_555 1_555
H7C C10C 1_555 1_555
N3 C3 1_555 1_555
C10 C5C 1_555 1_555
O3C C5C 1_555 1_555
N3C C3C 1_555 1_555
C6C C10C 1_555 1_555
C8C C9C 1_555 1_555

#END
