
#######################################################################
#
#                 Cambridge Crystallographic Data Centre
#                                CCDC 
#
#######################################################################
#
# If this CIF has been generated from an entry in the Cambridge 
# Structural Database, then it will include bibliographic, chemical, 
# crystal, experimental, refinement or atomic coordinate data resulting 
# from the CCDC's data processing and validation procedures.
#
#######################################################################

data_RELPED
_chemical_formula_moiety         'C32 H38 Cl2 N4 O6'
_chemical_name_systematic        
7,16-bis((5-Chloro-8-hydroxy-2-quinolinyl)methyl)-1,4,10,13-tetra-oxa-7,16-diazacyclo-octadecane
_symmetry_cell_setting           triclinic
_symmetry_space_group_name_H-M   'P -1'
_symmetry_Int_Tables_number      2
_space_group_name_Hall           '-P 1'
loop_
_symmetry_equiv_pos_site_id
_symmetry_equiv_pos_as_xyz
1 x,y,z
2 -x,-y,-z
_cell_length_a                   8.623(3)
_cell_length_b                   10.750(3)
_cell_length_c                   19.236(4)
_cell_angle_alpha                84.22(2)
_cell_angle_beta                 77.20(2)
_cell_angle_gamma                69.26(2)
_cell_volume                     1625.65
_exptl_crystal_colour            colorless
_chemical_melting_point          85-87deg.C
_cell_formula_units_Z            2
loop_
_atom_site_label
_atom_site_type_symbol
_atom_site_fract_x
_atom_site_fract_y
_atom_site_fract_z
C1 C -0.3819(4) 0.5503(3) 0.0699(1)
C2 C -0.2713(3) 0.4313(3) 0.0864(1)
C3 C -0.2316(3) 0.4077(2) 0.1549(1)
C4 C -0.1206(3) 0.2872(3) 0.1795(2)
Cl1 Cl -0.0142(1) 0.1558(1) 0.1210(1)
C5 C -0.0965(3) 0.2719(3) 0.2474(2)
C6 C -0.1792(4) 0.3755(3) 0.2953(2)
C7 C -0.2843(3) 0.4950(3) 0.2741(1)
O1 O -0.3612(3) 0.5948(2) 0.3209(1)
C8 C -0.3113(3) 0.5129(2) 0.2033(1)
N1 N -0.4718(3) 0.6330(2) 0.1848(1)
C9 C -0.4531(4) 0.6511(2) 0.1205(1)
C10 C -0.5702(4) 0.7872(3) 0.1023(2)
N2 N -0.6706(3) 0.7829(2) 0.0514(1)
C11 C -0.6604(5) 0.8732(3) -0.0090(2)
C12 C -0.4904(5) 0.8390(3) -0.0561(2)
O2 O -0.4439(3) 0.7144(2) -0.0876(1)
C13 C -0.2749(5) 0.6727(3) -0.1252(2)
C14 C -0.2285(4) 0.5443(3) -0.1595(2)
O3 O -0.2116(3) 0.4384(2) -0.1076(1)
C15 C -0.1433(5) 0.3410(3) -0.1395(2)
C16 C -0.8447(5) 0.7937(3) 0.0850(2)
H1 H -0.4118 0.5658 0.0238
H2 H -0.2199 0.3631 0.0515
H3 H -0.0219 0.1886 0.2624
H4 H -0.1624 0.3631 0.3436
H5 H -0.4428 0.6784 0.3018
H6 H -0.5036 0.8421 0.0823
H7 H -0.6445 0.8273 0.1453
H8 H -0.6952 0.9620 0.0078
H9 H -0.7385 0.8712 -0.0372
H10 H -0.4102 0.8353 -0.0277
H11 H -0.4885 0.9064 -0.0927
H12 H -0.2013 0.6613 -0.0924
H13 H -0.2584 0.7395 -0.1602
H14 H -0.1252 0.5273 -0.1944
H15 H -0.3173 0.5494 -0.1834
H16 H -0.0274 0.2983 -0.1624
H17 H -0.2053 0.3134 -0.1751
H18 H -0.9035 0.7910 0.0485
H19 H -0.9006 0.8785 0.1073
C16A C -0.1553(5) 0.2063(3) -0.0850(2)
N2A N -0.3294(3) 0.2171(2) -0.0514(1)
C10A C -0.4298(4) 0.2128(3) -0.1023(2)
C9A C -0.5469(4) 0.3489(2) -0.1205(1)
C1A C -0.6181(4) 0.4497(3) -0.0699(1)
C2A C -0.7287(3) 0.5687(3) -0.0864(1)
C3A C -0.7684(3) 0.5923(2) -0.1549(1)
C4A C -0.8794(3) 0.7128(3) -0.1795(2)
Cl1A Cl -0.9858(1) 0.8442(1) -0.1210(1)
C5A C -0.9035(3) 0.7281(3) -0.2474(2)
C6A C -0.8208(4) 0.6245(3) -0.2953(2)
C7A C -0.7157(3) 0.5050(3) -0.2741(1)
O1A O -0.6388(3) 0.4052(2) -0.3209(1)
H5A H -0.5572 0.3216 -0.3018
C8A C -0.6887(3) 0.4871(2) -0.2033(1)
N1A N -0.5282(3) 0.3670(2) -0.1848(1)
H4A H -0.8376 0.6369 -0.3436
H3A H -0.9781 0.8114 -0.2624
H2A H -0.7801 0.6369 -0.0515
H1A H -0.5882 0.4342 -0.0238
H6A H -0.4964 0.1579 -0.0823
H7A H -0.3555 0.1727 -0.1453
C11A C -0.3396(5) 0.1268(3) 0.0090(2)
C12A C -0.5096(5) 0.1610(3) 0.0561(2)
O2A O -0.5561(3) 0.2856(2) 0.0876(1)
C13A C -0.7251(5) 0.3273(3) 0.1252(2)
C14A C -0.7715(4) 0.4557(3) 0.1595(2)
O3A O -0.7884(3) 0.5616(2) 0.1076(1)
C15A C -0.8567(5) 0.6590(3) 0.1395(2)
H16A H -0.9726 0.7017 0.1624
H17A H -0.7947 0.6866 0.1751
H14A H -0.8748 0.4727 0.1944
H15A H -0.6827 0.4506 0.1834
H12A H -0.7987 0.3387 0.0924
H13A H -0.7416 0.2605 0.1602
H10A H -0.5898 0.1647 0.0277
H11A H -0.5115 0.0936 0.0927
H8A H -0.3048 0.0380 -0.0078
H9A H -0.2615 0.1288 0.0372
H18A H -0.0965 0.2090 -0.0485
H19A H -0.0994 0.1215 -0.1073
C17 C -0.8701(3) 0.9736(2) 0.3940(1)
C18 C -0.8351(3) 1.0880(2) 0.3814(1)
C19 C -0.6920(3) 1.0929(2) 0.3301(1)
C20 C -0.6420(3) 1.2062(2) 0.3123(1)
Cl2 Cl -0.7653(1) 1.3558(1) 0.3548(1)
C21 C -0.4986(3) 1.2009(3) 0.2637(1)
C22 C -0.3983(3) 1.0828(3) 0.2287(1)
C23 C -0.4415(3) 0.9713(3) 0.2426(1)
O4 O -0.3420(2) 0.8591(2) 0.2066(1)
C24 C -0.5884(3) 0.9735(2) 0.2944(1)
N3 N -0.6236(2) 0.8579(2) 0.3084(1)
C25 C -0.7616(3) 0.8593(2) 0.3555(1)
C26 C -0.8029(3) 0.7324(3) 0.3659(1)
N4 N -0.9076(2) 0.7212(2) 0.4355(1)
C27 C -0.8128(3) 0.6308(2) 0.4851(1)
C28 C -0.6725(3) 0.6694(3) 0.4994(2)
O5 O -0.7382(2) 0.7939(2) 0.5332(1)
C29 C -0.6050(4) 0.8404(3) 0.5367(2)
C30 C -0.6658(4) 0.9554(3) 0.5844(2)
O6 O -0.7597(2) 1.0730(2) 0.5523(1)
C31 C -0.8137(3) 1.1822(3) 0.5981(2)
C32 C -1.0642(3) 0.7001(3) 0.4321(2)
H20 H -0.9679 0.9699 0.4284
H21 H -0.9072 1.1662 0.4075
H22 H -0.4676 1.2792 0.2536
H23 H -0.2974 1.0796 0.1944
H24 H -0.3927 0.7919 0.2168
H25 H -0.6991 0.6579 0.3607
H26 H -0.8607 0.7284 0.3293
H27 H -0.7682 0.5425 0.4668
H28 H -0.8895 0.6300 0.5296
H29 H -0.5983 0.6755 0.4549
H30 H -0.6083 0.6029 0.5291
H31 H -0.5641 0.8706 0.4899
H32 H -0.5134 0.7690 0.5517
H33 H -0.5726 0.9680 0.5987
H34 H -0.7380 0.9351 0.6262
H35 H -0.7178 1.2028 0.6040
H36 H -0.8692 1.1596 0.6441
H37 H -1.1169 0.6803 0.4793
H38 H -1.0373 0.6245 0.4033
C32A C -0.9358(3) 1.2999(3) 0.5679(2)
N4A N -1.0924(2) 1.2788(2) 0.5645(1)
C26A C -1.1971(3) 1.2676(3) 0.6341(1)
C25A C -1.2384(3) 1.1407(2) 0.6445(1)
C17A C -1.1299(3) 1.0264(2) 0.6060(1)
C18A C -1.1649(3) 0.9120(2) 0.6186(1)
C19A C -1.3080(3) 0.9071(2) 0.6699(1)
C20A C -1.3580(3) 0.7938(2) 0.6877(1)
Cl2A Cl -1.2347(1) 0.6442(1) 0.6452(1)
C21A C -1.5014(3) 0.7991(3) 0.7363(1)
C22A C -1.6017(3) 0.9172(3) 0.7713(1)
C23A C -1.5585(3) 1.0287(3) 0.7574(1)
O4A O -1.6580(2) 1.1409(2) 0.7934(1)
H24A H -1.6073 1.2081 0.7832
C24A C -1.4116(3) 1.0265(2) 0.7056(1)
N3A N -1.3764(2) 1.1421(2) 0.6916(1)
H23A H -1.7026 0.9204 0.8056
H22A H -1.5324 0.7208 0.7464
H21A H -1.0928 0.8338 0.5925
H20A H -1.0321 1.0301 0.5716
H25A H -1.3009 1.3421 0.6393
H26A H -1.1393 1.2716 0.6707
C27A C -1.1872(3) 1.3692(2) 0.5149(1)
C28A C -1.3275(3) 1.3306(3) 0.5006(2)
O5A O -1.2618(2) 1.2061(2) 0.4668(1)
C29A C -1.3950(4) 1.1596(3) 0.4633(2)
C30A C -1.3342(4) 1.0446(3) 0.4156(2)
O6A O -1.2403(2) 0.9270(2) 0.4477(1)
C31A C -1.1863(3) 0.8178(3) 0.4019(2)
H35A H -1.2822 0.7972 0.3960
H36A H -1.1308 0.8404 0.3559
H33A H -1.4274 1.0320 0.4013
H34A H -1.2620 1.0649 0.3738
H31A H -1.4359 1.1294 0.5101
H32A H -1.4866 1.2310 0.4483
H29A H -1.4017 1.3245 0.5451
H30A H -1.3917 1.3971 0.4709
H27A H -1.2318 1.4575 0.5332
H28A H -1.1105 1.3700 0.4704
H37A H -0.8831 1.3197 0.5207
H38A H -0.9627 1.3755 0.5967
loop_
_geom_bond_atom_site_label_1
_geom_bond_atom_site_label_2
_geom_bond_site_symmetry_1
_geom_bond_site_symmetry_2
C1 C2 1_555 1_555
C2 C3 1_555 1_555
C3 C4 1_555 1_555
C4 Cl1 1_555 1_555
C5 C4 1_555 1_555
C6 C5 1_555 1_555
C7 C6 1_555 1_555
O1 C7 1_555 1_555
C8 C3 1_555 1_555
N1 C8 1_555 1_555
C9 C1 1_555 1_555
C10 C9 1_555 1_555
N2 C10 1_555 1_555
C11 N2 1_555 1_555
C12 C11 1_555 1_555
O2 C12 1_555 1_555
C13 O2 1_555 1_555
C14 C13 1_555 1_555
O3 C14 1_555 1_555
C15 O3 1_555 1_555
C16 N2 1_555 1_555
C17 C18 1_555 1_555
C18 C19 1_555 1_555
C19 C20 1_555 1_555
C20 Cl2 1_555 1_555
C21 C20 1_555 1_555
C22 C21 1_555 1_555
C23 C22 1_555 1_555
O4 C23 1_555 1_555
C24 C19 1_555 1_555
N3 C24 1_555 1_555
C25 C17 1_555 1_555
C26 C25 1_555 1_555
N4 C26 1_555 1_555
C27 N4 1_555 1_555
C28 C27 1_555 1_555
O5 C28 1_555 1_555
C29 O5 1_555 1_555
C30 C29 1_555 1_555
O6 C30 1_555 1_555
C31 O6 1_555 1_555
C32 N4 1_555 1_555
H1 C1 1_555 1_555
H2 C2 1_555 1_555
H3 C5 1_555 1_555
H4 C6 1_555 1_555
H5 O1 1_555 1_555
H6 C10 1_555 1_555
H7 C10 1_555 1_555
H8 C11 1_555 1_555
H9 C11 1_555 1_555
H10 C12 1_555 1_555
H11 C12 1_555 1_555
H12 C13 1_555 1_555
H13 C13 1_555 1_555
H14 C14 1_555 1_555
H15 C14 1_555 1_555
H16 C15 1_555 1_555
H17 C15 1_555 1_555
H18 C16 1_555 1_555
H19 C16 1_555 1_555
H20 C17 1_555 1_555
H21 C18 1_555 1_555
H22 C21 1_555 1_555
H23 C22 1_555 1_555
H24 O4 1_555 1_555
H25 C26 1_555 1_555
H26 C26 1_555 1_555
H27 C27 1_555 1_555
H28 C27 1_555 1_555
H29 C28 1_555 1_555
H30 C28 1_555 1_555
H31 C29 1_555 1_555
H32 C29 1_555 1_555
H33 C30 1_555 1_555
H34 C30 1_555 1_555
H35 C31 1_555 1_555
H36 C31 1_555 1_555
H37 C32 1_555 1_555
H38 C32 1_555 1_555
C16A C15 1_555 1_555
N2A C16A 1_555 1_555
C10A N2A 1_555 1_555
C9A C10A 1_555 1_555
C1A C9A 1_555 1_555
C2A C1A 1_555 1_555
C3A C2A 1_555 1_555
C4A C3A 1_555 1_555
Cl1A C4A 1_555 1_555
C5A C4A 1_555 1_555
C6A C5A 1_555 1_555
C7A C6A 1_555 1_555
O1A C7A 1_555 1_555
H5A O1A 1_555 1_555
C8A C3A 1_555 1_555
N1A C9A 1_555 1_555
H4A C6A 1_555 1_555
H3A C5A 1_555 1_555
H2A C2A 1_555 1_555
H1A C1A 1_555 1_555
H6A C10A 1_555 1_555
H7A C10A 1_555 1_555
C11A N2A 1_555 1_555
C12A C11A 1_555 1_555
O2A C12A 1_555 1_555
C13A O2A 1_555 1_555
C14A C13A 1_555 1_555
O3A C14A 1_555 1_555
C15A C16 1_555 1_555
H16A C15A 1_555 1_555
H17A C15A 1_555 1_555
H14A C14A 1_555 1_555
H15A C14A 1_555 1_555
H12A C13A 1_555 1_555
H13A C13A 1_555 1_555
H10A C12A 1_555 1_555
H11A C12A 1_555 1_555
H8A C11A 1_555 1_555
H9A C11A 1_555 1_555
H18A C16A 1_555 1_555
H19A C16A 1_555 1_555
C32A C31 1_555 1_555
N4A C32A 1_555 1_555
C26A N4A 1_555 1_555
C25A C26A 1_555 1_555
C17A C25A 1_555 1_555
C18A C17A 1_555 1_555
C19A C18A 1_555 1_555
C20A C19A 1_555 1_555
Cl2A C20A 1_555 1_555
C21A C20A 1_555 1_555
C22A C21A 1_555 1_555
C23A C22A 1_555 1_555
O4A C23A 1_555 1_555
H24A O4A 1_555 1_555
C24A C19A 1_555 1_555
N3A C25A 1_555 1_555
H23A C22A 1_555 1_555
H22A C21A 1_555 1_555
H21A C18A 1_555 1_555
H20A C17A 1_555 1_555
H25A C26A 1_555 1_555
H26A C26A 1_555 1_555
C27A N4A 1_555 1_555
C28A C27A 1_555 1_555
O5A C28A 1_555 1_555
C29A O5A 1_555 1_555
C30A C29A 1_555 1_555
O6A C30A 1_555 1_555
C31A C32 1_555 1_555
H35A C31A 1_555 1_555
H36A C31A 1_555 1_555
H33A C30A 1_555 1_555
H34A C30A 1_555 1_555
H31A C29A 1_555 1_555
H32A C29A 1_555 1_555
H29A C28A 1_555 1_555
H30A C28A 1_555 1_555
H27A C27A 1_555 1_555
H28A C27A 1_555 1_555
H37A C32A 1_555 1_555
H38A C32A 1_555 1_555
C7 C8 1_555 1_555
N1 C9 1_555 1_555
C23 C24 1_555 1_555
N3 C25 1_555 1_555
C7A C8A 1_555 1_555
C8A N1A 1_555 1_555
O3A C15A 1_555 1_555
C23A C24A 1_555 1_555
C24A N3A 1_555 1_555
O6A C31A 1_555 1_555

#END
