
#######################################################################
#
#                 Cambridge Crystallographic Data Centre
#                                CCDC 
#
#######################################################################
#
# If this CIF has been generated from an entry in the Cambridge 
# Structural Database, then it will include bibliographic, chemical, 
# crystal, experimental, refinement or atomic coordinate data resulting 
# from the CCDC's data processing and validation procedures.
#
#######################################################################

data_RELPAB
_chemical_formula_moiety         'C25 H28 O2 Si1'
_chemical_name_systematic        
3-(1-((t-Butyl(dimethyl)silyl)oxy)-3-phenyl-2-naphthyl)acrylaldehyde
_symmetry_cell_setting           orthorhombic
_symmetry_space_group_name_H-M   'P b c a'
_symmetry_Int_Tables_number      61
_space_group_name_Hall           '-P 2ac 2ab'
loop_
_symmetry_equiv_pos_site_id
_symmetry_equiv_pos_as_xyz
1 x,y,z
2 1/2-x,-y,1/2+z
3 -x,1/2+y,1/2-z
4 1/2+x,1/2-y,-z
5 -x,-y,-z
6 1/2+x,y,1/2-z
7 x,1/2-y,1/2+z
8 1/2-x,1/2+y,z
_cell_length_a                   15.6955(15)
_cell_length_b                   11.4214(10)
_cell_length_c                   24.763(2)
_cell_angle_alpha                90
_cell_angle_beta                 90
_cell_angle_gamma                90
_cell_volume                     4439.13
_exptl_crystal_colour            colorless
_exptl_crystal_description       prismatic
_cell_formula_units_Z            8
loop_
_atom_site_label
_atom_site_type_symbol
_atom_site_fract_x
_atom_site_fract_y
_atom_site_fract_z
Si1 Si 0.15191(4) 0.24263(5) 0.17863(2)
O1 O 0.08826(9) 0.23228(11) 0.12451(5)
O2 O -0.01638(12) 0.51068(15) 0.06858(8)
C1 C 0.01008(15) -0.1184(2) 0.10588(9)
H1 H -0.0231 -0.1549 0.1321
C2 C 0.03671(15) -0.18195(18) 0.06080(9)
H2 H 0.0224 -0.2606 0.0574
C3 C 0.08349(13) -0.12853(17) 0.02191(9)
H3 H 0.1002 -0.1710 -0.0084
C4 C 0.10744(12) -0.00931(16) 0.02648(8)
C5 C 0.08253(12) 0.05404(16) 0.07299(7)
C6 C 0.03207(14) -0.00309(18) 0.11217(8)
H4 H 0.0136 0.0378 0.1425
C7 C 0.10809(12) 0.17353(16) 0.07744(7)
C8 C 0.15006(12) 0.22989(16) 0.03602(8)
C9 C 0.17558(12) 0.16395(16) -0.01053(7)
C10 C 0.15502(12) 0.04746(16) -0.01406(8)
H5 H 0.1730 0.0048 -0.0440
C11 C 0.22316(12) 0.21935(16) -0.05598(7)
C12 C 0.19334(14) 0.31862(18) -0.08214(8)
H6 H 0.1431 0.3539 -0.0706
C13 C 0.23789(17) 0.36570(19) -0.12538(9)
H7 H 0.2171 0.4318 -0.1429
C14 C 0.31258(17) 0.3152(2) -0.14240(9)
H8 H 0.3426 0.3475 -0.1712
C15 C 0.34292(16) 0.2169(2) -0.11688(9)
H9 H 0.3935 0.1826 -0.1284
C16 C 0.29841(13) 0.16880(19) -0.07403(8)
H10 H 0.3191 0.1019 -0.0571
C17 C 0.17431(13) 0.35476(17) 0.03924(8)
H11 H 0.2313 0.3726 0.0332
C18 C 0.12256(15) 0.44416(17) 0.04999(8)
H12 H 0.1464 0.5182 0.0540
C19 C 0.03136(15) 0.43236(19) 0.05581(8)
H13 H 0.0076 0.3591 0.0493
C20 C 0.1562(2) 0.0999(2) 0.21473(11)
H14 H 0.1002 0.0793 0.2269
H15 H 0.1938 0.1064 0.2452
H16 H 0.1770 0.0405 0.1907
C21 C 0.26170(17) 0.2820(3) 0.15762(11)
H17 H 0.2819 0.2261 0.1317
H18 H 0.2985 0.2816 0.1886
H19 H 0.2615 0.3587 0.1417
C22 C 0.10065(16) 0.35541(19) 0.22331(8)
C23 C 0.01209(19) 0.3147(3) 0.24058(11)
H20 H -0.0132 0.3726 0.2636
H21 H 0.0167 0.2419 0.2598
H22 H -0.0229 0.3039 0.2092
C24 C 0.15622(18) 0.3714(2) 0.27390(10)
H23 H 0.1307 0.4287 0.2972
H24 H 0.2120 0.3973 0.2634
H25 H 0.1607 0.2981 0.2927
C25 C 0.0938(3) 0.4739(2) 0.19474(12)
H26 H 0.0516 0.4692 0.1668
H27 H 0.1479 0.4939 0.1792
H28 H 0.0775 0.5329 0.2204
loop_
_geom_bond_atom_site_label_1
_geom_bond_atom_site_label_2
_geom_bond_site_symmetry_1
_geom_bond_site_symmetry_2
Si1 O1 1_555 1_555
O1 C7 1_555 1_555
O2 C19 1_555 1_555
C1 H1 1_555 1_555
C2 C1 1_555 1_555
H2 C2 1_555 1_555
C3 C2 1_555 1_555
H3 C3 1_555 1_555
C4 C3 1_555 1_555
C5 C4 1_555 1_555
C6 C1 1_555 1_555
H4 C6 1_555 1_555
C7 C5 1_555 1_555
C8 C7 1_555 1_555
C9 C8 1_555 1_555
C10 C4 1_555 1_555
H5 C10 1_555 1_555
C11 C9 1_555 1_555
C12 C11 1_555 1_555
H6 C12 1_555 1_555
C13 C12 1_555 1_555
H7 C13 1_555 1_555
C14 C13 1_555 1_555
H8 C14 1_555 1_555
C15 C14 1_555 1_555
H9 C15 1_555 1_555
C16 C11 1_555 1_555
H10 C16 1_555 1_555
C17 C8 1_555 1_555
H11 C17 1_555 1_555
C18 C17 1_555 1_555
H12 C18 1_555 1_555
C19 C18 1_555 1_555
H13 C19 1_555 1_555
C20 Si1 1_555 1_555
H14 C20 1_555 1_555
H15 C20 1_555 1_555
H16 C20 1_555 1_555
C21 Si1 1_555 1_555
H17 C21 1_555 1_555
H18 C21 1_555 1_555
H19 C21 1_555 1_555
C22 Si1 1_555 1_555
C23 C22 1_555 1_555
H20 C23 1_555 1_555
H21 C23 1_555 1_555
H22 C23 1_555 1_555
C24 C22 1_555 1_555
H23 C24 1_555 1_555
H24 C24 1_555 1_555
H25 C24 1_555 1_555
C25 C22 1_555 1_555
H26 C25 1_555 1_555
H27 C25 1_555 1_555
H28 C25 1_555 1_555
C5 C6 1_555 1_555
C9 C10 1_555 1_555
C15 C16 1_555 1_555

#END
