
#######################################################################
#
#                 Cambridge Crystallographic Data Centre
#                                CCDC 
#
#######################################################################
#
# If this CIF has been generated from an entry in the Cambridge 
# Structural Database, then it will include bibliographic, chemical, 
# crystal, experimental, refinement or atomic coordinate data resulting 
# from the CCDC's data processing and validation procedures.
#
#######################################################################

data_RELQIK
_chemical_formula_moiety         'C44 H43 B1 O2'
_chemical_name_systematic        
(4,4'''-Dimethoxy-1,1':4',1'':4'',1'''-quaterphenyl-2''-yl)(dimesityl)borane
_symmetry_cell_setting           triclinic
_symmetry_space_group_name_H-M   'P -1'
_symmetry_Int_Tables_number      2
_space_group_name_Hall           '-P 1'
loop_
_symmetry_equiv_pos_site_id
_symmetry_equiv_pos_as_xyz
1 x,y,z
2 -x,-y,-z
_cell_length_a                   8.4643(8)
_cell_length_b                   15.5850(14)
_cell_length_c                   15.6693(14)
_cell_angle_alpha                61.0011(9)
_cell_angle_beta                 81.5729(11)
_cell_angle_gamma                75.0436(10)
_cell_volume                     1746.08
_exptl_crystal_colour            colorless
_exptl_crystal_description       prism
_cell_formula_units_Z            2
loop_
_atom_site_label
_atom_site_type_symbol
_atom_site_fract_x
_atom_site_fract_y
_atom_site_fract_z
B1 B 0.8891(3) 0.29721(16) 0.87144(17)
C1 C 0.3692(4) 0.3218(2) 1.4651(2)
H1 H 0.2787 0.3571 1.4219
H2 H 0.3652 0.3512 1.5070
H3 H 0.3631 0.2525 1.5039
C2 C 0.5430(3) 0.29373(17) 1.34262(16)
C3 C 0.6858(3) 0.30763(18) 1.28760(16)
H4 H 0.7557 0.3390 1.2975
C4 C 0.7252(3) 0.27532(16) 1.21827(15)
H5 H 0.8218 0.2856 1.1816
C5 C 0.6245(2) 0.22758(14) 1.20130(14)
C6 C 0.4818(3) 0.21386(17) 1.25844(15)
H6 H 0.4114 0.1824 1.2490
C7 C 0.4416(3) 0.24576(17) 1.32893(16)
H7 H 0.3463 0.2347 1.3668
C8 C 0.6642(2) 0.19689(14) 1.12317(14)
C9 C 0.7553(2) 0.24816(14) 1.04017(14)
H8 H 0.7960 0.2996 1.0371
C10 C 0.7895(2) 0.22750(13) 0.96124(13)
C11 C 0.7274(2) 0.14852(14) 0.96751(15)
C12 C 0.6409(2) 0.09483(15) 1.05187(15)
H9 H 0.6031 0.0415 1.0570
C13 C 0.6098(2) 0.11791(15) 1.12733(15)
H10 H 0.5513 0.0803 1.1823
C14 C 0.7506(2) 0.11907(14) 0.88866(15)
C15 C 0.9029(2) 0.07904(16) 0.86170(17)
H11 H 0.9955 0.0741 0.8906
C16 C 0.9200(3) 0.04633(16) 0.79287(16)
H12 H 1.0239 0.0187 0.7770
C17 C 0.7853(3) 0.05376(15) 0.74656(15)
C18 C 0.6324(3) 0.09584(17) 0.77240(17)
H13 H 0.5401 0.1032 0.7417
C19 C 0.6151(3) 0.12678(17) 0.84253(17)
H14 H 0.5111 0.1533 0.8594
C20 C 0.8004(3) 0.01428(16) 0.67575(16)
C21 C 0.7171(4) 0.06688(19) 0.58979(19)
H15 H 0.6520 0.1303 0.5743
C22 C 0.7272(4) 0.0281(2) 0.52562(19)
H16 H 0.6688 0.0652 0.4683
C23 C 0.8226(3) -0.06416(19) 0.54643(18)
C24 C 0.9098(3) -0.1173(2) 0.6306(2)
H17 H 0.9768 -0.1800 0.6447
C25 C 0.8988(3) -0.07847(19) 0.69442(19)
H18 H 0.9589 -0.1155 0.7511
C26 C 0.7538(5) -0.0548(3) 0.3997(2)
H19 H 0.6380 -0.0457 0.4130
H20 H 0.7844 -0.0915 0.3630
H21 H 0.7822 0.0096 0.3626
C27 C 1.1736(3) 0.16465(16) 1.00600(18)
H22 H 1.2637 0.1346 1.0494
H23 H 1.2005 0.1469 0.9541
H24 H 1.0783 0.1407 1.0414
C28 C 1.1397(2) 0.27730(14) 0.96392(14)
C29 C 1.0126(2) 0.34095(13) 0.89788(13)
C30 C 0.9951(2) 0.44552(15) 0.85945(15)
C31 C 0.8660(3) 0.52019(17) 0.7877(2)
H25 H 0.8691 0.5868 0.7740
H26 H 0.7605 0.5068 0.8147
H27 H 0.8859 0.5148 0.7284
C32 C 1.0982(3) 0.48129(16) 0.88980(17)
H28 H 1.0828 0.5503 0.8656
C33 C 1.2224(3) 0.41911(16) 0.95417(16)
C34 C 1.3349(3) 0.4604(2) 0.9841(2)
H29 H 1.4137 0.4854 0.9325
H30 H 1.3905 0.4080 1.0421
H31 H 1.2719 0.5140 0.9968
C35 C 1.2423(3) 0.31718(16) 0.98973(16)
H32 H 1.3268 0.2738 1.0322
C36 C 0.5541(3) 0.38981(19) 0.77780(18)
H33 H 0.5029 0.4600 0.7461
H34 H 0.5825 0.3705 0.8428
H35 H 0.4798 0.3511 0.7808
C37 C 0.7069(2) 0.37071(16) 0.72087(15)
C38 C 0.8623(2) 0.32733(15) 0.76320(14)
C39 C 0.9977(3) 0.31607(19) 0.70181(16)
C40 C 1.1688(3) 0.2681(3) 0.7393(2)
H36 H 1.2419 0.2643 0.6877
H37 H 1.1713 0.2017 0.7922
H38 H 1.2025 0.3078 0.7619
C41 C 0.9733(3) 0.3466(3) 0.6050(2)
H39 H 1.0634 0.3376 0.5661
C42 C 0.8211(4) 0.3899(3) 0.56356(19)
C43 C 0.8025(5) 0.4252(4) 0.4561(2)
H40 H 0.6997 0.4720 0.4348
H41 H 0.8058 0.3685 0.4464
H42 H 0.8901 0.4573 0.4191
C44 C 0.6905(3) 0.4010(2) 0.62283(18)
H43 H 0.5868 0.4299 0.5965
O1 O 0.5169(2) 0.32841(15) 1.40996(13)
O2 O 0.8367(2) -0.10849(15) 0.48764(14)
loop_
_geom_bond_atom_site_label_1
_geom_bond_atom_site_label_2
_geom_bond_site_symmetry_1
_geom_bond_site_symmetry_2
B1 C10 1_555 1_555
C1 H1 1_555 1_555
H2 C1 1_555 1_555
H3 C1 1_555 1_555
C2 C3 1_555 1_555
C3 H4 1_555 1_555
C4 C3 1_555 1_555
H5 C4 1_555 1_555
C5 C4 1_555 1_555
C6 C5 1_555 1_555
H6 C6 1_555 1_555
C7 C2 1_555 1_555
H7 C7 1_555 1_555
C8 C5 1_555 1_555
C9 C8 1_555 1_555
H8 C9 1_555 1_555
C10 C9 1_555 1_555
C11 C10 1_555 1_555
C12 C11 1_555 1_555
H9 C12 1_555 1_555
C13 C8 1_555 1_555
H10 C13 1_555 1_555
C14 C11 1_555 1_555
C15 C14 1_555 1_555
H11 C15 1_555 1_555
C16 C15 1_555 1_555
H12 C16 1_555 1_555
C17 C16 1_555 1_555
C18 C17 1_555 1_555
H13 C18 1_555 1_555
C19 C14 1_555 1_555
H14 C19 1_555 1_555
C20 C17 1_555 1_555
C21 C20 1_555 1_555
H15 C21 1_555 1_555
C22 C21 1_555 1_555
H16 C22 1_555 1_555
C23 C22 1_555 1_555
C24 C23 1_555 1_555
H17 C24 1_555 1_555
C25 C20 1_555 1_555
H18 C25 1_555 1_555
C26 H19 1_555 1_555
H20 C26 1_555 1_555
H21 C26 1_555 1_555
C27 H22 1_555 1_555
H23 C27 1_555 1_555
H24 C27 1_555 1_555
C28 C27 1_555 1_555
C29 B1 1_555 1_555
C30 C29 1_555 1_555
C31 C30 1_555 1_555
H25 C31 1_555 1_555
H26 C31 1_555 1_555
H27 C31 1_555 1_555
C32 C30 1_555 1_555
H28 C32 1_555 1_555
C33 C32 1_555 1_555
C34 C33 1_555 1_555
H29 C34 1_555 1_555
H30 C34 1_555 1_555
H31 C34 1_555 1_555
C35 C28 1_555 1_555
H32 C35 1_555 1_555
C36 H33 1_555 1_555
H34 C36 1_555 1_555
H35 C36 1_555 1_555
C37 C36 1_555 1_555
C38 B1 1_555 1_555
C39 C38 1_555 1_555
C40 C39 1_555 1_555
H36 C40 1_555 1_555
H37 C40 1_555 1_555
H38 C40 1_555 1_555
C41 C39 1_555 1_555
H39 C41 1_555 1_555
C42 C41 1_555 1_555
C43 C42 1_555 1_555
H40 C43 1_555 1_555
H41 C43 1_555 1_555
H42 C43 1_555 1_555
C44 C37 1_555 1_555
H43 C44 1_555 1_555
O1 C1 1_555 1_555
O2 C23 1_555 1_555
C2 O1 1_555 1_555
C6 C7 1_555 1_555
C12 C13 1_555 1_555
C18 C19 1_555 1_555
C24 C25 1_555 1_555
C26 O2 1_555 1_555
C28 C29 1_555 1_555
C33 C35 1_555 1_555
C37 C38 1_555 1_555
C42 C44 1_555 1_555

#END
