
#######################################################################
#
#                 Cambridge Crystallographic Data Centre
#                                CCDC 
#
#######################################################################
#
# If this CIF has been generated from an entry in the Cambridge 
# Structural Database, then it will include bibliographic, chemical, 
# crystal, experimental, refinement or atomic coordinate data resulting 
# from the CCDC's data processing and validation procedures.
#
#######################################################################

data_RELQOR
_chemical_formula_moiety         'C13 H15 N1 O1'
_chemical_name_systematic        1-((dimethylamino)methyl)-2-naphthol
_symmetry_cell_setting           monoclinic
_symmetry_space_group_name_H-M   'P 21/n'
_symmetry_Int_Tables_number      14
_space_group_name_Hall           '-P 2yn'
loop_
_symmetry_equiv_pos_site_id
_symmetry_equiv_pos_as_xyz
1 x,y,z
2 1/2-x,1/2+y,1/2-z
3 -x,-y,-z
4 1/2+x,1/2-y,1/2+z
_cell_length_a                   7.964(2)
_cell_length_b                   16.529(4)
_cell_length_c                   9.088(2)
_cell_angle_alpha                90
_cell_angle_beta                 113.165(5)
_cell_angle_gamma                90
_cell_volume                     1099.86
_exptl_crystal_colour            yellow
_exptl_crystal_description       block
_cell_formula_units_Z            4
loop_
_atom_site_label
_atom_site_type_symbol
_atom_site_fract_x
_atom_site_fract_y
_atom_site_fract_z
N1 N 0.8839(2) 0.51464(10) 0.6691(2)
O1 O 0.6555(2) 0.59601(9) 0.43096(17)
H1 H 0.757(4) 0.5514(17) 0.504(4)
C1 C 0.5865(3) 0.62758(11) 0.5352(2)
C2 C 0.6234(3) 0.59304(11) 0.6833(2)
C3 C 0.5431(3) 0.62798(11) 0.7840(2)
C4 C 0.5649(3) 0.59502(12) 0.9349(2)
H2 H 0.636(3) 0.5451(12) 0.975(2)
C5 C 0.4892(3) 0.63107(12) 1.0303(3)
H3 H 0.511(3) 0.6059(11) 1.137(2)
C6 C 0.3849(3) 0.70215(12) 0.9800(3)
H4 H 0.332(3) 0.7283(13) 1.049(2)
C7 C 0.3561(3) 0.73482(12) 0.8337(3)
H5 H 0.279(3) 0.7822(12) 0.796(2)
C8 C 0.4317(3) 0.69909(11) 0.7323(2)
C9 C 0.4004(3) 0.73168(12) 0.5789(3)
H6 H 0.323(3) 0.7788(13) 0.546(2)
C10 C 0.4752(3) 0.69698(12) 0.4835(3)
H7 H 0.454(3) 0.7193(12) 0.378(2)
C11 C 0.7406(3) 0.51789(12) 0.7339(3)
H8 H 0.798(3) 0.5111(11) 0.860(3)
H9 H 0.662(3) 0.4696(13) 0.693(3)
C12 C 0.9609(4) 0.43276(14) 0.6875(4)
H10 H 0.863(3) 0.3947(14) 0.622(3)
H11 H 1.014(4) 0.4148(14) 0.804(3)
H12 H 1.060(4) 0.4317(15) 0.647(3)
C13 C 1.0276(3) 0.57423(14) 0.7495(3)
H13 H 1.087(3) 0.5653(12) 0.873(3)
H14 H 1.121(4) 0.5694(14) 0.703(3)
H15 H 0.976(3) 0.6301(14) 0.736(2)
loop_
_geom_bond_atom_site_label_1
_geom_bond_atom_site_label_2
_geom_bond_site_symmetry_1
_geom_bond_site_symmetry_2
N1 C11 1_555 1_555
O1 H1 1_555 1_555
C1 O1 1_555 1_555
C2 C1 1_555 1_555
C3 C2 1_555 1_555
C4 C3 1_555 1_555
H2 C4 1_555 1_555
C5 C4 1_555 1_555
H3 C5 1_555 1_555
C6 C5 1_555 1_555
H4 C6 1_555 1_555
C7 C6 1_555 1_555
H5 C7 1_555 1_555
C8 C3 1_555 1_555
C9 C8 1_555 1_555
H6 C9 1_555 1_555
C10 C1 1_555 1_555
H7 C10 1_555 1_555
C11 C2 1_555 1_555
H8 C11 1_555 1_555
H9 C11 1_555 1_555
C12 N1 1_555 1_555
H10 C12 1_555 1_555
H11 C12 1_555 1_555
H12 C12 1_555 1_555
C13 N1 1_555 1_555
H13 C13 1_555 1_555
H14 C13 1_555 1_555
H15 C13 1_555 1_555
C7 C8 1_555 1_555
C9 C10 1_555 1_555

#END
