
#######################################################################
#
#                 Cambridge Crystallographic Data Centre
#                                CCDC 
#
#######################################################################
#
# If this CIF has been generated from an entry in the Cambridge 
# Structural Database, then it will include bibliographic, chemical, 
# crystal, experimental, refinement or atomic coordinate data resulting 
# from the CCDC's data processing and validation procedures.
#
#######################################################################

data_RELRUY
_chemical_formula_moiety         'C18 H12 O3'
_chemical_name_systematic        
2-methyl-3-phenyl-4H-furo[3,2-c][1]benzopyran-4-one
_symmetry_cell_setting           monoclinic
_symmetry_space_group_name_H-M   'P 21/n'
_symmetry_Int_Tables_number      14
_space_group_name_Hall           '-P 2yn'
loop_
_symmetry_equiv_pos_site_id
_symmetry_equiv_pos_as_xyz
1 x,y,z
2 1/2-x,1/2+y,1/2-z
3 -x,-y,-z
4 1/2+x,1/2-y,1/2+z
_cell_length_a                   6.9204(4)
_cell_length_b                   17.4658(9)
_cell_length_c                   11.2892(6)
_cell_angle_alpha                90
_cell_angle_beta                 105.3980(10)
_cell_angle_gamma                90
_cell_volume                     1315.55
_exptl_crystal_colour            colorless
_exptl_crystal_description       BLOCK
_cell_formula_units_Z            4
loop_
_atom_site_label
_atom_site_type_symbol
_atom_site_fract_x
_atom_site_fract_y
_atom_site_fract_z
O1 O 0.26618(13) 0.08626(5) -0.19129(7)
O2 O 0.25020(12) 0.07743(4) 0.16493(7)
O3 O 0.28073(17) 0.21233(5) -0.18118(8)
C1 C 0.25519(16) 0.01461(6) -0.14249(10)
C2 C 0.25552(18) -0.04746(7) -0.21902(12)
H1 H 0.2615 -0.0398 -0.3004
C3 C 0.24699(19) -0.12073(7) -0.17437(13)
H2 H 0.2479 -0.1632 -0.2254
C4 C 0.23704(18) -0.13190(7) -0.05420(14)
H3 H 0.2305 -0.1820 -0.0249
C5 C 0.23669(17) -0.07049(7) 0.02273(12)
H4 H 0.2301 -0.0786 0.1039
C6 C 0.24633(16) 0.00413(6) -0.02139(10)
C7 C 0.25049(16) 0.07379(6) 0.04559(10)
C8 C 0.25700(16) 0.14513(6) -0.00208(10)
C9 C 0.26772(18) 0.15415(7) -0.12735(10)
C10 C 0.25836(15) 0.19865(6) 0.09566(9)
C11 C 0.25650(17) 0.15485(7) 0.19435(10)
C12 C 0.2701(2) 0.17236(8) 0.32493(11)
H5 H 0.3018 0.2261 0.3407
H6 H 0.3747 0.1413 0.3775
H7 H 0.1429 0.1610 0.3420
C13 C 0.26017(16) 0.28320(6) 0.09309(9)
C14 C 0.40320(19) 0.32275(7) 0.05044(11)
H8 H 0.4980 0.2954 0.0211
C15 C 0.4068(2) 0.40195(8) 0.05090(13)
H9 H 0.5046 0.4281 0.0225
C16 C 0.2674(2) 0.44288(8) 0.09286(12)
H10 H 0.2701 0.4967 0.0930
C17 C 0.1239(2) 0.40446(8) 0.13465(13)
H11 H 0.0284 0.4322 0.1627
C18 C 0.1202(2) 0.32503(7) 0.13543(11)
H12 H 0.0228 0.2993 0.1646
loop_
_geom_bond_atom_site_label_1
_geom_bond_atom_site_label_2
_geom_bond_site_symmetry_1
_geom_bond_site_symmetry_2
O1 C1 1_555 1_555
O2 C7 1_555 1_555
O3 C9 1_555 1_555
C1 C2 1_555 1_555
C2 H1 1_555 1_555
C3 C2 1_555 1_555
H2 C3 1_555 1_555
C4 C3 1_555 1_555
H3 C4 1_555 1_555
C5 C4 1_555 1_555
H4 C5 1_555 1_555
C6 C1 1_555 1_555
C7 C6 1_555 1_555
C8 C7 1_555 1_555
C9 O1 1_555 1_555
C10 C8 1_555 1_555
C11 O2 1_555 1_555
C12 C11 1_555 1_555
H5 C12 1_555 1_555
H6 C12 1_555 1_555
H7 C12 1_555 1_555
C13 C10 1_555 1_555
C14 C13 1_555 1_555
H8 C14 1_555 1_555
C15 C14 1_555 1_555
H9 C15 1_555 1_555
C16 C15 1_555 1_555
H10 C16 1_555 1_555
C17 C16 1_555 1_555
H11 C17 1_555 1_555
C18 C13 1_555 1_555
H12 C18 1_555 1_555
C5 C6 1_555 1_555
C8 C9 1_555 1_555
C10 C11 1_555 1_555
C17 C18 1_555 1_555

#END
