
#######################################################################
#
#                 Cambridge Crystallographic Data Centre
#                                CCDC 
#
#######################################################################
#
# If this CIF has been generated from an entry in the Cambridge 
# Structural Database, then it will include bibliographic, chemical, 
# crystal, experimental, refinement or atomic coordinate data resulting 
# from the CCDC's data processing and validation procedures.
#
#######################################################################

data_RELROS
_chemical_formula_moiety         'C24 H14 Cl2 O3'
_chemical_name_systematic        
4-(3,4-dichlorophenyl)-2-phenyl-4H,5H-pyrano[3,2-c][1]benzopyran-5-one
_symmetry_cell_setting           monoclinic
_symmetry_space_group_name_H-M   'P c'
_symmetry_Int_Tables_number      7
_space_group_name_Hall           'P -2yc'
loop_
_symmetry_equiv_pos_site_id
_symmetry_equiv_pos_as_xyz
1 x,y,z
2 x,-y,1/2+z
_cell_length_a                   7.38772(11)
_cell_length_b                   11.14140(15)
_cell_length_c                   11.3575(3)
_cell_angle_alpha                90
_cell_angle_beta                 101.2983(18)
_cell_angle_gamma                90
_cell_volume                     916.714
_exptl_crystal_colour            colorless
_exptl_crystal_description       block
_cell_formula_units_Z            2
loop_
_atom_site_label
_atom_site_type_symbol
_atom_site_fract_x
_atom_site_fract_y
_atom_site_fract_z
Cl1 Cl -0.20094(10) -0.42956(6) -0.02323(8)
Cl2 Cl 0.00831(9) -0.42826(6) -0.24297(8)
O1 O -0.8340(3) 0.03486(19) -0.4579(2)
O2 O -0.5089(3) 0.1637(2) -0.1475(2)
O3 O -0.4853(3) -0.0158(2) -0.0639(2)
C1 C -1.1701(5) -0.0409(3) -0.7808(3)
H1 H -1.2245 0.0220 -0.8290
C2 C -1.1849(5) -0.1573(3) -0.8256(4)
H2 H -1.2485 -0.1725 -0.9032
C3 C -1.1033(5) -0.2511(3) -0.7526(3)
H3 H -1.1143 -0.3295 -0.7812
C4 C -1.0059(5) -0.2280(3) -0.6379(3)
H4 H -0.9502 -0.2910 -0.5906
C5 C -0.9902(4) -0.1109(3) -0.5920(3)
C6 C -1.0754(4) -0.0173(3) -0.6653(3)
H5 H -1.0682 0.0610 -0.6361
C7 C -0.8801(4) -0.0867(3) -0.4719(3)
C8 C -0.8239(4) -0.1662(3) -0.3841(3)
H6 H -0.8691 -0.2441 -0.3957
C9 C -0.6935(4) -0.1392(3) -0.2684(3)
H7 H -0.7532 -0.1608 -0.2015
C10 C -0.5177(4) -0.2143(3) -0.2597(3)
C11 C -0.4308(5) -0.2200(3) -0.3585(4)
H8 H -0.4812 -0.1791 -0.4287
C12 C -0.2701(5) -0.2861(3) -0.3526(3)
H9 H -0.2125 -0.2885 -0.4185
C13 C -0.1953(4) -0.3483(3) -0.2492(3)
C14 C -0.2852(4) -0.3460(3) -0.1509(3)
C15 C -0.4434(4) -0.2784(3) -0.1569(3)
H10 H -0.5009 -0.2757 -0.0911
C16 C -0.6541(4) -0.0060(3) -0.2628(3)
C17 C -0.5454(4) 0.0421(3) -0.1526(3)
C18 C -0.5779(4) 0.2396(3) -0.2410(3)
C19 C -0.6872(4) 0.1972(3) -0.3467(3)
C20 C -0.7247(4) 0.0697(3) -0.3542(3)
C21 C -0.5349(5) 0.3606(3) -0.2244(4)
H11 H -0.4624 0.3876 -0.1530
C22 C -0.6021(5) 0.4401(3) -0.3160(4)
H12 H -0.5729 0.5212 -0.3066
C23 C -0.7131(4) 0.4000(3) -0.4225(3)
H13 H -0.7581 0.4543 -0.4834
C24 C -0.7560(5) 0.2794(3) -0.4374(3)
H14 H -0.8311 0.2529 -0.5081
loop_
_geom_bond_atom_site_label_1
_geom_bond_atom_site_label_2
_geom_bond_site_symmetry_1
_geom_bond_site_symmetry_2
Cl1 C14 1_555 1_555
Cl2 C13 1_555 1_555
O1 C7 1_555 1_555
O2 C17 1_555 1_555
O3 C17 1_555 1_555
C1 H1 1_555 1_555
C2 C1 1_555 1_555
H2 C2 1_555 1_555
C3 C2 1_555 1_555
H3 C3 1_555 1_555
C4 C3 1_555 1_555
H4 C4 1_555 1_555
C5 C4 1_555 1_555
C6 C1 1_555 1_555
H5 C6 1_555 1_555
C7 C5 1_555 1_555
C8 C7 1_555 1_555
H6 C8 1_555 1_555
C9 C8 1_555 1_555
H7 C9 1_555 1_555
C10 C9 1_555 1_555
C11 C10 1_555 1_555
H8 C11 1_555 1_555
C12 C11 1_555 1_555
H9 C12 1_555 1_555
C13 C12 1_555 1_555
C14 C13 1_555 1_555
C15 C10 1_555 1_555
H10 C15 1_555 1_555
C16 C9 1_555 1_555
C17 C16 1_555 1_555
C18 O2 1_555 1_555
C19 C18 1_555 1_555
C20 O1 1_555 1_555
C21 C18 1_555 1_555
H11 C21 1_555 1_555
C22 C21 1_555 1_555
H12 C22 1_555 1_555
C23 C22 1_555 1_555
H13 C23 1_555 1_555
C24 C19 1_555 1_555
H14 C24 1_555 1_555
C5 C6 1_555 1_555
C14 C15 1_555 1_555
C16 C20 1_555 1_555
C19 C20 1_555 1_555
C23 C24 1_555 1_555

#END
