
#######################################################################
#
#                 Cambridge Crystallographic Data Centre
#                                CCDC 
#
#######################################################################
#
# If this CIF has been generated from an entry in the Cambridge 
# Structural Database, then it will include bibliographic, chemical, 
# crystal, experimental, refinement or atomic coordinate data resulting 
# from the CCDC's data processing and validation procedures.
#
#######################################################################

data_RELREI
_chemical_formula_moiety         'C15 H18 N1 O1 P1'
_chemical_name_systematic        
1-(diphenylphosphoryl)-N,N-dimethylmethanamine
_symmetry_cell_setting           orthorhombic
_symmetry_space_group_name_H-M   'P b c a'
_symmetry_Int_Tables_number      61
_space_group_name_Hall           '-P 2ac 2ab'
loop_
_symmetry_equiv_pos_site_id
_symmetry_equiv_pos_as_xyz
1 x,y,z
2 1/2-x,-y,1/2+z
3 -x,1/2+y,1/2-z
4 1/2+x,1/2-y,-z
5 -x,-y,-z
6 1/2+x,y,1/2-z
7 x,1/2-y,1/2+z
8 1/2-x,1/2+y,z
_cell_length_a                   7.8154(4)
_cell_length_b                   11.3169(6)
_cell_length_c                   31.8177(15)
_cell_angle_alpha                90
_cell_angle_beta                 90
_cell_angle_gamma                90
_cell_volume                     2814.15
_exptl_crystal_colour            yellow
_exptl_crystal_description       chunk
_cell_formula_units_Z            8
loop_
_atom_site_label
_atom_site_type_symbol
_atom_site_fract_x
_atom_site_fract_y
_atom_site_fract_z
P1 P 0.70766(9) 0.33952(6) 0.63229(2)
O1 O 0.7171(3) 0.47103(19) 0.63437(6)
N1 N 1.0286(3) 0.2780(2) 0.60653(7)
C1 C 0.9082(3) 0.2614(3) 0.64110(8)
H1 H 0.9609 0.2901 0.6675
H2 H 0.8844 0.1760 0.6445
C2 C 1.1182(4) 0.3912(3) 0.60926(11)
H3 H 1.0344 0.4557 0.6096
H4 H 1.1936 0.4004 0.5849
H5 H 1.1864 0.3935 0.6351
C3 C 1.1516(4) 0.1811(3) 0.60480(11)
H6 H 1.2226 0.1821 0.6302
H7 H 1.2245 0.1903 0.5800
H8 H 1.0901 0.1057 0.6031
C4 C 0.5649(3) 0.2840(3) 0.67271(8)
C5 C 0.4834(4) 0.3661(3) 0.69839(9)
H9 H 0.5038 0.4481 0.6946
C6 C 0.3716(4) 0.3278(3) 0.72970(10)
H10 H 0.3167 0.3836 0.7474
C7 C 0.3409(4) 0.2089(4) 0.73487(9)
H11 H 0.2635 0.1832 0.7560
C8 C 0.4216(4) 0.1264(3) 0.70956(9)
H12 H 0.4000 0.0445 0.7134
C9 C 0.5351(4) 0.1639(3) 0.67822(8)
H13 H 0.5913 0.1077 0.6609
C10 C 0.6309(3) 0.2888(3) 0.58188(8)
C11 C 0.5603(4) 0.3713(3) 0.55470(9)
H14 H 0.5538 0.4520 0.5627
C12 C 0.4987(4) 0.3354(3) 0.51538(9)
H15 H 0.4508 0.3921 0.4967
C13 C 0.5072(4) 0.2181(3) 0.50355(9)
H16 H 0.4637 0.1939 0.4770
C14 C 0.5797(4) 0.1355(3) 0.53063(9)
H17 H 0.5871 0.0549 0.5225
C15 C 0.6418(4) 0.1711(3) 0.56993(8)
H18 H 0.6913 0.1147 0.5884
loop_
_geom_bond_atom_site_label_1
_geom_bond_atom_site_label_2
_geom_bond_site_symmetry_1
_geom_bond_site_symmetry_2
P1 O1 1_555 1_555
N1 C1 1_555 1_555
C1 P1 1_555 1_555
H1 C1 1_555 1_555
H2 C1 1_555 1_555
C2 N1 1_555 1_555
H3 C2 1_555 1_555
H4 C2 1_555 1_555
H5 C2 1_555 1_555
C3 N1 1_555 1_555
H6 C3 1_555 1_555
H7 C3 1_555 1_555
H8 C3 1_555 1_555
C4 P1 1_555 1_555
C5 C4 1_555 1_555
H9 C5 1_555 1_555
C6 C5 1_555 1_555
H10 C6 1_555 1_555
C7 C6 1_555 1_555
H11 C7 1_555 1_555
C8 C7 1_555 1_555
H12 C8 1_555 1_555
C9 C4 1_555 1_555
H13 C9 1_555 1_555
C10 P1 1_555 1_555
C11 C10 1_555 1_555
H14 C11 1_555 1_555
C12 C11 1_555 1_555
H15 C12 1_555 1_555
C13 C12 1_555 1_555
H16 C13 1_555 1_555
C14 C13 1_555 1_555
H17 C14 1_555 1_555
C15 C10 1_555 1_555
H18 C15 1_555 1_555
C8 C9 1_555 1_555
C14 C15 1_555 1_555

#END
