
#######################################################################
#
#                 Cambridge Crystallographic Data Centre
#                                CCDC 
#
#######################################################################
#
# If this CIF has been generated from an entry in the Cambridge 
# Structural Database, then it will include bibliographic, chemical, 
# crystal, experimental, refinement or atomic coordinate data resulting 
# from the CCDC's data processing and validation procedures.
#
#######################################################################

data_RELZUG
_chemical_formula_moiety         
'C45 H60 N7 O6 3+,2(C7 H11 O4 1-),H1 O1 1-,C1 H4 O1,8(H2 O1)'
_chemical_name_systematic        
'2,32,48-trimethyl-6,28,35-trioxo-8,26,37-trioxa-5,14,17,20,29,34,43-heptaazahexacyclo[15.15.13.2^9,12^.2^22,25^.2^38,41^.1^3,31^]dopentaconta-1,3(48),9,11,22,24,31,38,40,46,49,51-dodecaene-14,20,43-triium (hydrogen pimelate) clathrate hydroxide (hydrogen pimelate) octahydrate'
_symmetry_cell_setting           triclinic
_symmetry_space_group_name_H-M   'P -1'
_symmetry_Int_Tables_number      2
_space_group_name_Hall           '-P 1'
loop_
_symmetry_equiv_pos_site_id
_symmetry_equiv_pos_as_xyz
1 x,y,z
2 -x,-y,-z
_cell_length_a                   12.0232(16)
_cell_length_b                   14.837(2)
_cell_length_c                   21.708(3)
_cell_angle_alpha                100.853(4)
_cell_angle_beta                 94.193(4)
_cell_angle_gamma                107.650(4)
_cell_volume                     3588.91
_exptl_crystal_colour            white
_exptl_crystal_description       block
_cell_formula_units_Z            2
loop_
_atom_site_label
_atom_site_type_symbol
_atom_site_fract_x
_atom_site_fract_y
_atom_site_fract_z
O1 O 0.6567(6) 0.2317(5) 0.3205(3)
C1 C 1.0166(7) 0.5059(5) 0.1629(3)
H1 H 0.9915 0.5294 0.1273
H2 H 1.0690 0.4702 0.1490
C2 C 1.0850(7) 0.5928(5) 0.2160(3)
C3 C 0.9417(7) 0.3953(6) 0.2342(4)
H3 H 0.9902 0.3557 0.2205
H4 H 0.9876 0.4469 0.2696
C4 C 0.8633(9) 0.2901(8) 0.3075(7)
H5 H 0.9159 0.3410 0.3412
H6 H 0.9059 0.2466 0.2917
C5 C 0.9136(7) 0.4400(5) 0.1806(4)
H7 H 0.8739 0.3885 0.1439
H8 H 0.8595 0.4750 0.1928
C6 C 0.8355(8) 0.3341(6) 0.2565(4)
H9 H 0.7876 0.3739 0.2708
H10 H 0.7889 0.2831 0.2209
C7 C 0.7586(9) 0.2337(6) 0.3357(5)
O2 O 1.1929(5) 0.6162(3) 0.2283(2)
O3 O 1.0288(4) 0.6402(4) 0.2460(3)
O4 O 0.7846(5) 0.1839(5) 0.3726(4)
H11 H 0.7239 0.1483 0.3814
N1 N 0.3712(4) 0.6703(3) 0.3913(2)
C8 C 0.3952(5) 0.9879(4) 0.1800(3)
C9 C 0.9213(5) 1.0245(4) 0.4182(3)
H12 H 0.9462 1.0905 0.4186
C10 C 0.2611(5) 0.9016(4) 0.2644(3)
C11 C 0.9442(5) 0.9593(5) 0.3707(3)
C12 C 0.2086(5) 0.7416(4) 0.3833(3)
H13 H 0.1233 0.7234 0.3780
H14 H 0.2394 0.7918 0.4217
C13 C 0.8980(5) 1.0322(4) 0.0812(3)
C14 C 0.8232(5) 0.8941(4) 0.4669(3)
C15 C 0.7766(5) 0.8978(5) -0.0030(3)
C16 C 0.1994(5) 0.8529(4) 0.3123(3)
H15 H 0.1168 0.8207 0.2956
H16 H 0.2044 0.9011 0.3503
C17 C 0.3225(5) 0.8926(4) 0.1616(3)
H17 H 0.3189 0.8572 0.1208
C18 C 0.5672(5) 0.7629(4) 0.4510(3)
H18 H 0.5954 0.7079 0.4488
H19 H 0.5841 0.7885 0.4135
C19 C 0.3311(5) 0.9984(4) 0.2811(3)
H20 H 0.3338 1.0347 0.3214
C20 C 0.9501(5) 0.8837(5) 0.0542(3)
C21 C 0.9716(5) 0.9778(4) 0.0916(3)
C22 C 0.3976(5) 1.0422(4) 0.2380(3)
H21 H 0.4427 1.1075 0.2491
C23 C 0.8498(5) 0.8297(5) 0.4183(3)
H22 H 0.8260 0.7638 0.4180
C24 C 0.4375(5) 0.7307(4) 0.4525(3)
H23 H 0.4197 0.6941 0.4852
H24 H 0.4123 0.7873 0.4634
C25 C 0.9097(5) 0.8623(4) 0.3719(3)
H25 H 0.9276 0.8188 0.3406
C26 C 0.8519(5) 0.8443(4) 0.0060(3)
C27 C 1.0354(6) 1.0817(5) 0.3165(3)
H26 H 1.0983 1.1202 0.3505
H27 H 0.9687 1.1050 0.3216
C28 C 0.7999(5) 0.9921(4) 0.0334(3)
C29 C 0.5472(5) 1.1156(4) 0.1521(3)
H28 H 0.5939 1.1236 0.1924
H29 H 0.5069 1.1636 0.1569
C30 C 1.0779(5) 1.0211(5) 0.1426(3)
H30 H 1.1335 0.9861 0.1343
H31 H 1.1166 1.0881 0.1412
C31 C 0.2453(5) 0.6536(4) 0.3895(3)
H32 H 0.2212 0.6340 0.4280
H33 H 0.2038 0.6004 0.3541
C32 C 0.8615(5) 0.9904(5) 0.4644(3)
H34 H 0.8458 1.0347 0.4960
C33 C 0.7617(5) 0.8594(5) 0.5186(3)
H35 H 0.7943 0.9079 0.5577
H36 H 0.7774 0.8007 0.5239
C34 C 0.2565(5) 0.8507(4) 0.2031(3)
H37 H 0.2072 0.7867 0.1902
C35 C 1.0766(5) 1.0949(5) 0.2536(3)
C36 C 0.8268(6) 0.7431(5) -0.0343(3)
H38 H 0.7817 0.7371 -0.0747
H39 H 0.9006 0.7324 -0.0425
C37 C 0.7213(6) 1.0512(5) 0.0226(3)
H40 H 0.7698 1.1176 0.0250
H41 H 0.6774 1.0257 -0.0197
C38 C 0.6248(6) 1.1303(5) 0.1030(3)
C39 C 0.7892(6) 0.5928(5) 0.0025(3)
C40 C 0.3947(6) 0.5768(4) 0.3777(3)
H42 H 0.3406 0.5307 0.3969
H43 H 0.4743 0.5861 0.3963
C41 C 0.7182(6) 0.5250(5) 0.0406(3)
H44 H 0.6924 0.4586 0.0162
H45 H 0.7665 0.5285 0.0793
C42 C 0.3803(7) 0.5368(5) 0.3076(3)
H46 H 0.3074 0.5409 0.2880
H47 H 0.4446 0.5765 0.2900
C43 C 0.5506(6) 0.5087(5) 0.0950(3)
C44 C 1.0270(6) 0.8239(5) 0.0653(3)
H48 H 1.1015 0.8499 0.0511
H49 H 0.9893 0.7582 0.0422
H50 H 1.0395 0.8253 0.1097
C45 C 0.4070(9) 0.4276(7) 0.1793(4)
C46 C 0.3876(7) 0.5020(8) 0.1526(4)
H51 H 0.3258 0.5245 0.1634
C47 C 0.4591(6) 0.5431(6) 0.1101(3)
H52 H 0.4453 0.5920 0.0927
C48 C 0.9215(6) 1.1310(5) 0.1212(3)
H53 H 0.8582 1.1312 0.1457
H54 H 0.9275 1.1766 0.0945
H55 H 0.9941 1.1491 0.1492
C49 C 0.6679(6) 0.8538(6) -0.0524(4)
H56 H 0.6114 0.8863 -0.0422
H57 H 0.6340 0.7861 -0.0530
H58 H 0.6895 0.8613 -0.0933
C50 C 0.5675(8) 0.4344(6) 0.1198(4)
H59 H 0.6277 0.4101 0.1086
C51 C 0.3261(10) 0.3890(6) 0.2231(4)
H60 H 0.3114 0.3198 0.2172
H61 H 0.2515 0.3994 0.2137
C52 C 0.4968(9) 0.3966(6) 0.1608(4)
H62 H 0.5107 0.3467 0.1770
N2 N 0.2533(4) 0.7799(3) 0.3285(2)
H63 H 0.2381 0.7308 0.2950
H64 H 0.3312 0.8074 0.3371
N3 N 0.6291(4) 0.8384(3) 0.5081(2)
H65 H 0.5994 0.8199 0.5418
H66 H 0.6148 0.8930 0.5053
N4 N 1.0456(4) 1.0169(4) 0.2060(2)
H67 H 1.0050 0.9619 0.2129
N5 N 0.6398(4) 1.0506(4) 0.0679(2)
H68 H 0.5972 0.9951 0.0730
N6 N 0.7612(5) 0.6707(4) -0.0022(2)
H69 H 0.7013 0.6790 0.0145
N7 N 0.3786(7) 0.4388(4) 0.2922(3)
H70 H 0.3365 0.4060 0.3177
H71 H 0.4519 0.4373 0.2989
O5 O 0.4638(4) 1.0218(3) 0.13526(18)
O6 O 1.0025(4) 0.9847(3) 0.32083(19)
O7 O 0.6183(4) 0.5540(3) 0.0553(2)
O8 O 1.1314(5) 1.1768(4) 0.2486(2)
O9 O 0.6766(5) 1.2126(4) 0.0966(2)
O10 O 0.8729(5) 0.5736(4) -0.0192(3)
C53 C 0.5694(6) 0.9796(5) 0.3703(3)
C54 C 0.6230(6) 0.9585(7) 0.3121(3)
H72 H 0.7023 0.9586 0.3244
H73 H 0.6295 1.0105 0.2899
C55 C 0.6006(10) 0.8542(10) 0.2004(5)
H74 H 0.5441 0.8002 0.1702
H75 H 0.6028 0.9128 0.1863
C56 C 0.5539(7) 0.8600(6) 0.2652(4)
H76 H 0.5621 0.8069 0.2832
H77 H 0.4709 0.8534 0.2590
C57 C 0.8472(9) 0.7458(8) 0.1987(5)
C58 C 0.7124(10) 0.8428(9) 0.1984(6)
H78 H 0.7774 0.8966 0.1992
O11 O 0.4862(4) 0.9163(3) 0.38359(18)
O12 O 0.6111(4) 1.0636(3) 0.4059(2)
O13 O 0.9362(6) 0.8068(4) 0.2069(3)
O14 O 0.8370(5) 0.6585(5) 0.2078(6)
H79 H 0.8947 0.6438 0.1976
C59 C 0.7271(11) 0.7582(9) 0.1955(11)
H80 H 0.6610 0.7038 0.1914
O15 O 0.3603(4) 0.9699(3) 0.47330(19)
O16 O 0.5486(6) 0.7870(4) 0.6154(2)
O17 O 0.1092(10) 0.6070(9) 0.0252(7)
O18 O 0.366(2) 0.7421(11) 0.0220(5)
O19 O 0.1843(7) 0.3444(4) 0.3425(3)
O20 O 0.4710(11) 0.4011(6) 0.4312(5)
C60 C 0.282(2) 0.4288(11) 0.5364(10)
H81 H 0.2172 0.4326 0.5586
H82 H 0.3303 0.4929 0.5347
H83 H 0.3288 0.3989 0.5581
O21 O 0.2384(17) 0.3713(10) 0.4725(8)
H84 H 0.1700 0.3371 0.4710
O22 O 0.2650(17) 0.6594(10) 0.0974(7)
O23 O 0.584(2) 0.4113(17) 0.3252(12)
O24 O 0.6432(15) 0.560(2) 0.3108(9)
loop_
_geom_bond_atom_site_label_1
_geom_bond_atom_site_label_2
_geom_bond_site_symmetry_1
_geom_bond_site_symmetry_2
O1 C7 1_555 1_555
C1 H1 1_555 1_555
H2 C1 1_555 1_555
C2 C1 1_555 1_555
C3 H3 1_555 1_555
H4 C3 1_555 1_555
C4 H5 1_555 1_555
H6 C4 1_555 1_555
C5 C1 1_555 1_555
H7 C5 1_555 1_555
H8 C5 1_555 1_555
C6 C3 1_555 1_555
H9 C6 1_555 1_555
H10 C6 1_555 1_555
C7 C4 1_555 1_555
O2 C2 1_555 1_555
O3 C2 1_555 1_555
O4 C7 1_555 1_555
H11 O4 1_555 1_555
N1 C24 1_555 1_555
C8 C17 1_555 1_555
C9 H12 1_555 1_555
C10 C16 1_555 1_555
C11 C9 1_555 1_555
C12 H13 1_555 1_555
H14 C12 1_555 1_555
C13 C21 1_555 1_555
C14 C23 1_555 1_555
C15 C26 1_555 1_555
C16 H15 1_555 1_555
H16 C16 1_555 1_555
C17 H17 1_555 1_555
C18 H18 1_555 1_555
H19 C18 1_555 1_555
C19 C10 1_555 1_555
H20 C19 1_555 1_555
C20 C21 1_555 1_555
C21 C30 1_555 1_555
C22 C8 1_555 1_555
H21 C22 1_555 1_555
C23 H22 1_555 1_555
C24 C18 1_555 1_555
H23 C24 1_555 1_555
H24 C24 1_555 1_555
C25 C11 1_555 1_555
H25 C25 1_555 1_555
C26 C20 1_555 1_555
C27 H26 1_555 1_555
H27 C27 1_555 1_555
C28 C13 1_555 1_555
C29 H28 1_555 1_555
H29 C29 1_555 1_555
C30 H30 1_555 1_555
H31 C30 1_555 1_555
C31 N1 1_555 1_555
H32 C31 1_555 1_555
H33 C31 1_555 1_555
C32 C9 1_555 1_555
H34 C32 1_555 1_555
C33 C14 1_555 1_555
H35 C33 1_555 1_555
H36 C33 1_555 1_555
C34 C10 1_555 1_555
H37 C34 1_555 1_555
C35 C27 1_555 1_555
C36 C26 1_555 1_555
H38 C36 1_555 1_555
H39 C36 1_555 1_555
C37 C28 1_555 1_555
H40 C37 1_555 1_555
H41 C37 1_555 1_555
C38 C29 1_555 1_555
C39 C41 1_555 1_555
C40 N1 1_555 1_555
H42 C40 1_555 1_555
H43 C40 1_555 1_555
C41 H44 1_555 1_555
H45 C41 1_555 1_555
C42 C40 1_555 1_555
H46 C42 1_555 1_555
H47 C42 1_555 1_555
C43 C47 1_555 1_555
C44 C20 1_555 1_555
H48 C44 1_555 1_555
H49 C44 1_555 1_555
H50 C44 1_555 1_555
C45 C46 1_555 1_555
C46 H51 1_555 1_555
C47 C46 1_555 1_555
H52 C47 1_555 1_555
C48 C13 1_555 1_555
H53 C48 1_555 1_555
H54 C48 1_555 1_555
H55 C48 1_555 1_555
C49 C15 1_555 1_555
H56 C49 1_555 1_555
H57 C49 1_555 1_555
H58 C49 1_555 1_555
C50 C43 1_555 1_555
H59 C50 1_555 1_555
C51 C45 1_555 1_555
H60 C51 1_555 1_555
H61 C51 1_555 1_555
C52 C45 1_555 1_555
H62 C52 1_555 1_555
N2 C12 1_555 1_555
H63 N2 1_555 1_555
H64 N2 1_555 1_555
N3 C18 1_555 1_555
H65 N3 1_555 1_555
H66 N3 1_555 1_555
N4 C30 1_555 1_555
H67 N4 1_555 1_555
N5 C37 1_555 1_555
H68 N5 1_555 1_555
N6 C36 1_555 1_555
H69 N6 1_555 1_555
N7 C42 1_555 1_555
H70 N7 1_555 1_555
H71 N7 1_555 1_555
O5 C8 1_555 1_555
O6 C11 1_555 1_555
O7 C41 1_555 1_555
O8 C35 1_555 1_555
O9 C38 1_555 1_555
O10 C39 1_555 1_555
C53 C54 1_555 1_555
C54 H72 1_555 1_555
H73 C54 1_555 1_555
C55 H74 1_555 1_555
H75 C55 1_555 1_555
C56 C54 1_555 1_555
H76 C56 1_555 1_555
H77 C56 1_555 1_555
C57 O13 1_555 1_555
C58 C55 1_555 1_555
H78 C58 1_555 1_555
O11 C53 1_555 1_555
O12 C53 1_555 1_555
O14 C57 1_555 1_555
H79 O14 1_555 1_555
C59 C57 1_555 1_555
H80 C59 1_555 1_555
C60 H81 1_555 1_555
H82 C60 1_555 1_555
H83 C60 1_555 1_555
O21 C60 1_555 1_555
H84 O21 1_555 1_555
C3 C5 1_555 1_555
C4 C6 1_555 1_555
C12 C31 1_555 1_555
C14 C32 1_555 1_555
C15 C28 1_555 1_555
C16 N2 1_555 1_555
C17 C34 1_555 1_555
C19 C22 1_555 1_555
C23 C25 1_555 1_555
C27 O6 1_555 1_555
C29 O5 1_555 1_555
C33 N3 1_555 1_555
C35 N4 1_555 1_555
C38 N5 1_555 1_555
C39 N6 1_555 1_555
C43 O7 1_555 1_555
C50 C52 1_555 1_555
C51 N7 1_555 1_555
C55 C56 1_555 1_555
C58 C59 1_555 1_555

#END
