
#######################################################################
#
#                 Cambridge Crystallographic Data Centre
#                                CCDC 
#
#######################################################################
#
# If this CIF has been generated from an entry in the Cambridge 
# Structural Database, then it will include bibliographic, chemical, 
# crystal, experimental, refinement or atomic coordinate data resulting 
# from the CCDC's data processing and validation procedures.
#
#######################################################################

data_REMBET
_chemical_formula_moiety         'C45 H60 N7 O6 3+,1.5(C9 H14 O4 2-),14(H2 O1)'
_chemical_name_systematic        
'2,32,48-trimethyl-6,28,35-trioxo-8,26,37-trioxa-5,14,17,20,29,34,43-heptaazahexacyclo[15.15.13.2^9,12^.2^22,25^.2^38,41^.1^3,31^]dopentaconta-1,3(48),9,11,22,24,31,38,40,46,49,51-dodecaene-14,20,43-triium 8-carboxyoct-7-enoate sesquikis(azelate) tetradecahydrate'
_symmetry_cell_setting           triclinic
_symmetry_space_group_name_H-M   'P -1'
_symmetry_Int_Tables_number      2
_space_group_name_Hall           '-P 1'
loop_
_symmetry_equiv_pos_site_id
_symmetry_equiv_pos_as_xyz
1 x,y,z
2 -x,-y,-z
_cell_length_a                   12.2639(8)
_cell_length_b                   12.7251(8)
_cell_length_c                   22.7496(15)
_cell_angle_alpha                87.293(2)
_cell_angle_beta                 87.843(2)
_cell_angle_gamma                79.827(2)
_cell_volume                     3489.02
_exptl_crystal_colour            colorless
_exptl_crystal_description       plate
_cell_formula_units_Z            2
loop_
_atom_site_label
_atom_site_type_symbol
_atom_site_fract_x
_atom_site_fract_y
_atom_site_fract_z
C1 C 0.7628(4) -0.2356(4) 0.41362(18)
H1 H 0.693209 -0.256309 0.425002
H2 H 0.760503 -0.162202 0.422543
H3 H 0.821202 -0.279898 0.434824
C2 C 0.7841(3) -0.2487(3) 0.34789(17)
C3 C 0.7312(3) -0.3176(3) 0.31723(18)
C4 C 0.7489(4) -0.3256(3) 0.25608(19)
C5 C 0.8196(4) -0.2665(3) 0.22619(18)
C6 C 0.8731(3) -0.1968(3) 0.25682(19)
C7 C 0.8562(3) -0.1897(3) 0.31793(18)
C8 C 0.9161(3) -0.1186(3) 0.3514(2)
H4 H 0.939335 -0.154388 0.388615
H5 H 0.982171 -0.107163 0.328995
C9 C 0.9464(5) -0.1292(4) 0.2228(2)
H6 H 0.949174 -0.066241 0.243982
H7 H 0.916485 -0.108810 0.184729
H8 H 1.019814 -0.169681 0.218250
C10 C 0.6871(5) -0.3973(5) 0.2229(2)
H9 H 0.673647 -0.367804 0.183689
H10 H 0.617658 -0.401553 0.243024
H11 H 0.730976 -0.467463 0.221169
C11 C 0.6570(4) -0.3826(3) 0.3511(2)
H12 H 0.650728 -0.445042 0.329458
H13 H 0.688799 -0.406848 0.388836
C12 C 0.4920(4) -0.3118(3) 0.4128(2)
C13 C 0.3819(4) -0.2413(4) 0.41570(19)
H14 H 0.327744 -0.280691 0.433912
H15 H 0.385635 -0.181135 0.439707
C14 C 0.2663(4) -0.1148(4) 0.3525(2)
C15 C 0.2033(4) -0.0671(4) 0.39924(19)
H16 H 0.212805 -0.096155 0.437372
C16 C 0.2469(4) -0.0727(4) 0.2954(2)
H17 H 0.286709 -0.106155 0.263809
C17 C 0.1267(4) 0.0234(4) 0.38822(19)
H18 H 0.085913 0.055949 0.419772
C18 C 0.1074(3) 0.0686(4) 0.33205(19)
C19 C 0.1697(4) 0.0177(4) 0.2855(2)
H19 H 0.158557 0.045556 0.247234
C20 C 0.0170(4) 0.1641(4) 0.3231(2)
H20 H -0.009412 0.190413 0.361309
H21 H -0.044425 0.141451 0.304577
C21 C -0.0366(3) 0.3510(4) 0.2855(2)
C22 C 0.8361(4) -0.2722(4) 0.16033(19)
H22 H 0.911056 -0.263293 0.149065
H23 H 0.825554 -0.341698 0.148160
C23 C 0.7759(4) -0.1494(4) 0.07811(19)
C24 C 0.6945(4) -0.0555(4) 0.0557(2)
H24 H 0.721761 0.010233 0.061329
H25 H 0.684124 -0.061118 0.013969
C25 C 0.5124(3) 0.0328(3) 0.08153(18)
C26 C 0.4205(4) 0.0358(4) 0.11976(19)
H26 H 0.416777 -0.020540 0.146911
C27 C 0.3356(4) 0.1216(4) 0.11736(18)
H27 H 0.274704 0.123033 0.143106
C28 C 0.3392(4) 0.2054(4) 0.07761(18)
C29 C 0.4304(4) 0.2021(4) 0.0394(2)
H28 H 0.433265 0.258639 0.012293
C30 C 0.5170(4) 0.1165(4) 0.0408(2)
H29 H 0.577555 0.115066 0.014783
C31 C 0.2436(4) 0.2992(4) 0.0723(2)
H30 H 0.268059 0.356008 0.048180
H31 H 0.183540 0.276670 0.052399
C32 C 0.1175(4) 0.4404(4) 0.1224(2)
C33 C 0.8385(3) 0.0281(3) 0.4159(2)
C34 C 0.7672(3) 0.1373(3) 0.42070(18)
H32 H 0.698120 0.130704 0.441591
H33 H 0.805130 0.182476 0.442881
C35 C 0.6557(3) 0.2699(3) 0.35816(18)
C36 C 0.6313(3) 0.3075(3) 0.30107(19)
H34 H 0.675537 0.278528 0.269698
C37 C 0.5924(3) 0.3150(3) 0.40491(19)
H35 H 0.610336 0.291862 0.443292
C38 C 0.5025(4) 0.3945(3) 0.39458(19)
H36 H 0.459859 0.424395 0.426254
C39 C 0.5421(4) 0.3874(3) 0.29061(19)
H37 H 0.526597 0.412616 0.252252
C40 C 0.4745(4) 0.4309(3) 0.33757(19)
C41 C 0.3764(4) 0.5194(4) 0.3285(2)
C42 C 0.1957(4) 0.5794(3) 0.2842(2)
C43 C 0.0359(6) 0.4521(6) 0.1726(3)
H38 H 0.000022 0.389843 0.175646
H39 H -0.020737 0.514142 0.164700
C44 C 0.0087(6) 0.4522(6) 0.2798(3)
H40 H -0.053274 0.511077 0.276722
H41 H 0.045652 0.459766 0.315897
C45 C 0.1277(6) 0.5638(6) 0.2312(4)
H42 H 0.064953 0.621949 0.229216
H43 H 0.173261 0.569862 0.195815
N1 N 0.5455(3) -0.3172(3) 0.36056(16)
N2 N 0.8470(3) -0.0144(3) 0.36293(16)
N3 N 0.7560(4) -0.1876(4) 0.13066(16)
N4 N 0.0863(3) 0.4640(3) 0.23044(15)
N5 N 0.2021(4) 0.3407(4) 0.12900(18)
H44 H 0.258477 0.354444 0.149119
H45 H 0.171986 0.291278 0.149546
N6 N 0.2950(3) 0.4942(3) 0.28677(16)
H46 H 0.326814 0.486974 0.251027
H47 H 0.274660 0.432452 0.298132
N7 N 0.0517(3) 0.2548(3) 0.28601(16)
H48 H 0.113033 0.271063 0.300234
H49 H 0.067044 0.234190 0.249330
O1 O 0.8600(3) -0.1810(4) 0.04836(17)
O2 O 0.8815(2) -0.0144(2) 0.46077(13)
O3 O 0.5307(3) -0.3602(3) 0.45930(15)
O4 O 0.3482(3) -0.2035(3) 0.35821(14)
O5 O 0.5925(2) -0.0550(2) 0.08741(12)
O6 O 0.7443(2) 0.1853(2) 0.36343(12)
C46 C -0.0201(4) 1.1643(4) 0.1578(2)
O7 O 0.0706(2) 1.1886(3) 0.17131(14)
O8 O -0.1023(3) 1.1712(3) 0.19178(16)
C47 C -0.0325(5) 1.1269(6) 0.0953(2)
H50 H -0.092994 1.086851 0.096320
H51 H -0.053303 1.189563 0.069456
C48 C 0.0696(5) 1.0582(5) 0.0686(2)
H52 H 0.057754 1.050289 0.027231
H53 H 0.132378 1.094443 0.071173
C49 C 0.0965(5) 0.9497(5) 0.0983(2)
H54 H 0.032497 0.914711 0.097057
H55 H 0.110820 0.957751 0.139349
C50 C 0.1963(6) 0.8783(5) 0.0706(3)
H56 H 0.182221 0.872147 0.029364
H57 H 0.260115 0.913263 0.072514
C51 C 0.2250(10) 0.7685(6) 0.0980(4)
H58 H 0.231853 0.774624 0.139971
H59 H 0.163826 0.731228 0.092690
C52 C 0.3279(8) 0.7021(7) 0.0750(4)
H60 H 0.316703 0.629081 0.071556
H61 H 0.347616 0.729591 0.036291
C53 C 0.4141(9) 0.7049(9) 0.1146(4)
H62 H 0.420279 0.779102 0.118874
H63 H 0.483157 0.669940 0.096581
C54 C 0.4023(6) 0.6528(7) 0.1771(3)
O9 O 0.4107(6) 0.7099(6) 0.2234(3)
O10 O 0.3867(4) 0.5614(4) 0.1796(2)
O11 O 0.4548(6) 0.4438(6) 0.0853(3)
O12 O 0.9844(4) 0.6202(4) 0.03483(19)
O13 O 0.8526(4) 0.4606(4) 0.0501(2)
O14 O 0.7700(4) 0.3644(4) 0.1567(2)
O15 O 0.5751(5) 0.2769(6) 0.1479(3)
O16 O 0.0098(3) 0.7929(3) 0.50488(17)
O17 O 0.9529(5) 0.5044(4) 0.4181(2)
O18 O 0.1277(4) 0.3366(3) 0.43806(18)
O19 O 0.7519(4) 0.5298(3) 0.50152(19)
O20 O 0.1165(5) 0.6378(3) 0.4319(2)
O21 O 0.3672(4) 0.4775(5) 0.9768(3)
O22 O 0.7091(5) 0.0759(6) 0.1765(4)
O23 O 0.5488(8) 0.8669(9) 0.2305(3)
O24 O 0.5423(7) 0.1523(12) 0.2041(5)
O25 O 0.5942(7) 0.0357(6) 0.2794(4)
C55? C 0.1001(12) 0.5254(10) 0.1746(5)
H64? H 0.163926 0.560525 0.176072
H65? H 0.034883 0.579454 0.167834
C56? C -0.0270(9) 0.4364(9) 0.2350(5)
H66? H -0.044046 0.409148 0.197959
H67? H -0.080794 0.500371 0.242348
C57? C 0.0844(8) 0.5444(8) 0.2793(4)
H68? H 0.028133 0.606604 0.271084
H69? H 0.064522 0.511711 0.316703
O26? O 0.6363(4) -0.3094(4) 0.7946(2)
O27? O 0.7511(7) 0.0617(7) 0.2472(4)
C58? C 0.3283(6) 0.2169(6) 0.3474(3)
O28? O 0.245(2) 0.293(2) 0.3431(8)
O29? O 0.3900(6) 0.1776(7) 0.3066(3)
C59? C 0.3486(12) 0.1733(13) 0.4111(5)
C60? C 0.4416(16) 0.0790(15) 0.4255(7)
C61? C 0.444(2) 0.055(2) 0.4916(7)
C62? C 0.5350(18) -0.0363(18) 0.5135(8)
C63? C 0.533(2) -0.0526(19) 0.5800(8)
C64? C 0.6178(13) -0.1427(13) 0.6026(6)
C65? C 0.5999(11) -0.1509(10) 0.6648(5)
C66? C 0.6822(8) -0.2380(7) 0.6982(4)
O30? O 0.6667(6) -0.2525(5) 0.7550(3)
O31? O 0.7564(19) -0.2989(19) 0.6720(8)
loop_
_geom_bond_atom_site_label_1
_geom_bond_atom_site_label_2
_geom_bond_site_symmetry_1
_geom_bond_site_symmetry_2
C1 H1 1_555 1_555
H2 C1 1_555 1_555
H3 C1 1_555 1_555
C2 C1 1_555 1_555
C3 C2 1_555 1_555
C4 C3 1_555 1_555
C5 C4 1_555 1_555
C6 C5 1_555 1_555
C7 C2 1_555 1_555
C8 C7 1_555 1_555
H4 C8 1_555 1_555
H5 C8 1_555 1_555
C9 C6 1_555 1_555
H6 C9 1_555 1_555
H7 C9 1_555 1_555
H8 C9 1_555 1_555
C10 C4 1_555 1_555
H9 C10 1_555 1_555
H10 C10 1_555 1_555
H11 C10 1_555 1_555
C11 C3 1_555 1_555
H12 C11 1_555 1_555
H13 C11 1_555 1_555
C12 C13 1_555 1_555
C13 H14 1_555 1_555
H15 C13 1_555 1_555
C14 C15 1_555 1_555
C15 H16 1_555 1_555
C16 C14 1_555 1_555
H17 C16 1_555 1_555
C17 C15 1_555 1_555
H18 C17 1_555 1_555
C18 C17 1_555 1_555
C19 C16 1_555 1_555
H19 C19 1_555 1_555
C20 C18 1_555 1_555
H20 C20 1_555 1_555
H21 C20 1_555 1_555
C21 C44 1_555 1_555
C22 C5 1_555 1_555
H22 C22 1_555 1_555
H23 C22 1_555 1_555
C23 C24 1_555 1_555
C24 H24 1_555 1_555
H25 C24 1_555 1_555
C25 C26 1_555 1_555
C26 H26 1_555 1_555
C27 C26 1_555 1_555
H27 C27 1_555 1_555
C28 C27 1_555 1_555
C29 C28 1_555 1_555
H28 C29 1_555 1_555
C30 C25 1_555 1_555
H29 C30 1_555 1_555
C31 C28 1_555 1_555
H30 C31 1_555 1_555
H31 C31 1_555 1_555
C32 C43 1_555 1_555
C33 C34 1_555 1_555
C34 H32 1_555 1_555
H33 C34 1_555 1_555
C35 C36 1_555 1_555
C36 H34 1_555 1_555
C37 C35 1_555 1_555
H35 C37 1_555 1_555
C38 C37 1_555 1_555
H36 C38 1_555 1_555
C39 C36 1_555 1_555
H37 C39 1_555 1_555
C40 C38 1_555 1_555
C41 C40 1_555 1_555
C42 C45 1_555 1_555
C43 H38 1_555 1_555
H39 C43 1_555 1_555
C44 H40 1_555 1_555
H41 C44 1_555 1_555
C45 H42 1_555 1_555
H43 C45 1_555 1_555
N1 C11 1_555 1_555
N2 C8 1_555 1_555
N3 C22 1_555 1_555
N4 C43 1_555 1_555
N5 C31 1_555 1_555
H44 N5 1_555 1_555
H45 N5 1_555 1_555
N6 C41 1_555 1_555
H46 N6 1_555 1_555
H47 N6 1_555 1_555
N7 C20 1_555 1_555
H48 N7 1_555 1_555
H49 N7 1_555 1_555
O1 C23 1_555 1_555
O2 C33 1_555 1_555
O3 C12 1_555 1_555
O4 C13 1_555 1_555
O5 C24 1_555 1_555
O6 C34 1_555 1_555
C46 O7 1_555 1_555
O8 C46 1_555 1_555
C47 C46 1_555 1_555
H50 C47 1_555 1_555
H51 C47 1_555 1_555
C48 C47 1_555 1_555
H52 C48 1_555 1_555
H53 C48 1_555 1_555
C49 C48 1_555 1_555
H54 C49 1_555 1_555
H55 C49 1_555 1_555
C50 C49 1_555 1_555
H56 C50 1_555 1_555
H57 C50 1_555 1_555
C51 C50 1_555 1_555
H58 C51 1_555 1_555
H59 C51 1_555 1_555
C52 C51 1_555 1_555
H60 C52 1_555 1_555
H61 C52 1_555 1_555
C53 C52 1_555 1_555
H62 C53 1_555 1_555
H63 C53 1_555 1_555
C54 C53 1_555 1_555
O9 C54 1_555 1_555
O10 C54 1_555 1_555
C6 C7 1_555 1_555
C12 N1 1_555 1_555
C14 O4 1_555 1_555
C18 C19 1_555 1_555
C21 N7 1_555 1_555
C23 N3 1_555 1_555
C25 O5 1_555 1_555
C29 C30 1_555 1_555
C32 N5 1_555 1_555
C33 N2 1_555 1_555
C35 O6 1_555 1_555
C39 C40 1_555 1_555
C42 N6 1_555 1_555
C44 N4 1_555 1_555
C45 N4 1_555 1_555

#END
