
#######################################################################
#
#                 Cambridge Crystallographic Data Centre
#                                CCDC 
#
#######################################################################
#
# If this CIF has been generated from an entry in the Cambridge 
# Structural Database, then it will include bibliographic, chemical, 
# crystal, experimental, refinement or atomic coordinate data resulting 
# from the CCDC's data processing and validation procedures.
#
#######################################################################

data_REMCAQ
_chemical_formula_moiety         'C17 H13 F3 N2 O2'
_chemical_name_systematic        
'2,2,2-trifluoroethyl 8-methyl-2-phenylimidazo[1,2-a]pyridine-3-carboxylate'
_symmetry_cell_setting           monoclinic
_symmetry_space_group_name_H-M   'P 21/c'
_symmetry_Int_Tables_number      14
_space_group_name_Hall           '-P 2ybc'
loop_
_symmetry_equiv_pos_site_id
_symmetry_equiv_pos_as_xyz
1 x,y,z
2 -x,1/2+y,1/2-z
3 -x,-y,-z
4 x,1/2-y,1/2+z
_cell_length_a                   10.4633(2)
_cell_length_b                   52.1683(12)
_cell_length_c                   9.0153(2)
_cell_angle_alpha                90
_cell_angle_beta                 105.6509(12)
_cell_angle_gamma                90
_cell_volume                     4738.57
_exptl_crystal_colour            colorless
_exptl_crystal_description       block
_cell_formula_units_Z            12
loop_
_atom_site_label
_atom_site_type_symbol
_atom_site_fract_x
_atom_site_fract_y
_atom_site_fract_z
C1 C 0.4174(4) 0.26078(9) 0.1053(5)
C2 C 0.3075(5) 0.26627(11) -0.0204(6)
C3 C 0.2381(5) 0.24614(11) -0.0969(6)
H1 H 0.1655 0.2492 -0.1809
C4 C 0.2734(5) 0.22074(12) -0.0522(6)
H2 H 0.2236 0.2073 -0.1069
C5 C 0.3773(5) 0.21546(10) 0.0673(6)
H3 H 0.3999 0.1986 0.0964
C6 C 0.2738(5) 0.29358(10) -0.0624(6)
H4 H 0.2027 0.2943 -0.1555
H5 H 0.3502 0.3022 -0.078
H6 H 0.2466 0.3019 0.0192
C7 C 0.5638(4) 0.23654(9) 0.2726(5)
C8 C 0.6150(5) 0.21315(10) 0.3547(5)
C9 C 0.7700(5) 0.19582(9) 0.5716(5)
H7 H 0.7324 0.1802 0.5195
H8 H 0.7476 0.1967 0.6691
C10 C 0.9136(6) 0.19556(11) 0.5988(7)
C11 C 0.5927(4) 0.26245(9) 0.2967(5)
C12 C 0.7029(4) 0.27567(9) 0.4083(5)
C13 C 0.8328(4) 0.26706(9) 0.4419(6)
H9 H 0.8525 0.2516 0.4014
C14 C 0.9336(5) 0.28168(12) 0.5368(7)
H10 H 1.0209 0.2759 0.5596
C15 C 0.9054(6) 0.30448(13) 0.5970(7)
H11 H 0.9738 0.3141 0.6599
C16 C 0.7773(6) 0.31324(11) 0.5653(6)
H12 H 0.7582 0.3285 0.6078
C17 C 0.6763(5) 0.29897(10) 0.4688(6)
H13 H 0.5896 0.3051 0.4444
F1 F 0.9722(3) 0.21685(7) 0.6612(4)
F2 F 0.9496(3) 0.19184(8) 0.4710(5)
F3 F 0.9669(3) 0.17642(7) 0.6934(4)
N1 N 0.4502(3) 0.23566(7) 0.1467(4)
N2 N 0.5031(3) 0.27705(7) 0.1951(4)
O1 O 0.5699(4) 0.19200(7) 0.3190(4)
O2 O 0.7168(3) 0.21749(6) 0.4791(4)
C18 C 0.8647(4) 0.10234(10) 0.3584(6)
C19 C 0.9228(5) 0.08261(12) 0.4474(6)
H14 H 0.9956 0.0857 0.531
C20 C 0.8755(5) 0.05725(11) 0.4168(6)
H15 H 0.9178 0.044 0.4802
C21 C 0.7699(5) 0.05197(10) 0.2968(5)
H16 H 0.7395 0.0352 0.2766
C22 C 0.7529(4) 0.09688(10) 0.2336(5)
C23 C 0.9122(5) 0.12970(10) 0.3823(7)
H17 H 0.9795 0.1311 0.4783
H18 H 0.839 0.1407 0.3843
H19 H 0.9483 0.1348 0.2995
C24 C 0.5980(4) 0.07268(9) 0.0765(5)
C25 C 0.5389(4) 0.04900(10) 0.0082(5)
C26 C 0.3732(5) 0.03060(9) -0.1982(5)
H20 H 0.4152 0.0153 -0.146
H21 H 0.3819 0.0304 -0.3027
C27 C 0.2323(5) 0.03087(12) -0.2013(7)
C28 C 0.5813(4) 0.09860(9) 0.0378(5)
C29 C 0.4778(4) 0.11240(8) -0.0794(5)
C30 C 0.3440(4) 0.10576(9) -0.1173(5)
H22 H 0.3173 0.091 -0.0758
C31 C 0.2513(5) 0.12088(11) -0.2156(6)
H23 H 0.1623 0.1162 -0.2401
C32 C 0.2871(6) 0.14283(12) -0.2785(6)
H24 H 0.2231 0.1528 -0.3451
C33 C 0.4180(6) 0.14978(10) -0.2418(6)
H25 H 0.4431 0.1646 -0.2836
C34 C 0.5131(5) 0.13483(9) -0.1431(5)
H26 H 0.6017 0.1398 -0.1188
F4 F 0.1711(3) 0.05198(6) -0.2669(4)
F5 F 0.1686(3) 0.01147(7) -0.2847(5)
F6 F 0.2146(4) 0.02932(9) -0.0633(5)
N3 N 0.7083(3) 0.07196(7) 0.2051(4)
N4 N 0.6767(3) 0.11313(7) 0.1329(4)
O3 O 0.5753(4) 0.02806(7) 0.0533(4)
O4 O 0.4367(3) 0.05278(5) -0.1198(3)
C35 C 0.8728(4) 0.06139(11) 0.8993(5)
C36 C 0.9573(5) 0.08040(13) 0.9685(6)
H27 H 1.0294 0.0764 1.0513
C37 C 0.9374(5) 0.10611(12) 0.9167(6)
H28 H 0.9963 0.1187 0.9667
C38 C 0.8354(5) 0.11265(10) 0.7967(6)
H29 H 0.8238 0.1295 0.7626
C39 C 0.7655(4) 0.06844(10) 0.7749(5)
C40 C 0.8895(5) 0.03380(11) 0.9473(7)
H30 H 0.9623 0.0322 1.0382
H31 H 0.9073 0.0238 0.8658
H32 H 0.8096 0.0277 0.9686
C41 C 0.6340(4) 0.09437(9) 0.6031(5)
C42 C 0.5943(4) 0.11764(10) 0.5160(5)
C43 C 0.4435(5) 0.13654(9) 0.3009(6)
H33 H 0.4784 0.1362 0.2116
H34 H 0.4746 0.152 0.3589
C44 C 0.2966(6) 0.13607(11) 0.2519(6)
C45 C 0.5867(4) 0.06904(9) 0.5861(5)
C46 C 0.4670(4) 0.05798(9) 0.4814(5)
C47 C 0.3441(4) 0.06917(9) 0.4548(5)
H35 H 0.3364 0.0852 0.4966
C48 C 0.2308(5) 0.05696(11) 0.3666(6)
H36 H 0.1482 0.0648 0.3496
C49 C 0.2421(5) 0.03337(12) 0.3051(6)
H37 H 0.1669 0.0253 0.2447
C50 C 0.3631(5) 0.02157(11) 0.3315(6)
H38 H 0.3702 0.0054 0.2908
C51 C 0.4744(5) 0.03400(10) 0.4192(6)
H39 H 0.5566 0.026 0.437
F7 F 0.2477(3) 0.11465(7) 0.1833(4)
F8 F 0.2428(3) 0.13919(9) 0.3661(5)
F9 F 0.2515(3) 0.15484(6) 0.1509(4)
N5 N 0.7480(3) 0.09365(8) 0.7250(4)
N6 N 0.6685(3) 0.05350(7) 0.6906(4)
O5 O 0.6512(3) 0.13786(7) 0.5438(4)
O6 O 0.4873(3) 0.11443(6) 0.3951(3)
loop_
_geom_bond_atom_site_label_1
_geom_bond_atom_site_label_2
_geom_bond_site_symmetry_1
_geom_bond_site_symmetry_2
C1 C2 1_555 1_555
C2 C3 1_555 1_555
C3 H1 1_555 1_555
C4 C3 1_555 1_555
H2 C4 1_555 1_555
C5 C4 1_555 1_555
H3 C5 1_555 1_555
C6 C2 1_555 1_555
H4 C6 1_555 1_555
H5 C6 1_555 1_555
H6 C6 1_555 1_555
C7 C8 1_555 1_555
C8 O1 1_555 1_555
C9 H7 1_555 1_555
H8 C9 1_555 1_555
C10 C9 1_555 1_555
C11 C7 1_555 1_555
C12 C11 1_555 1_555
C13 C12 1_555 1_555
H9 C13 1_555 1_555
C14 C13 1_555 1_555
H10 C14 1_555 1_555
C15 C14 1_555 1_555
H11 C15 1_555 1_555
C16 C15 1_555 1_555
H12 C16 1_555 1_555
C17 C12 1_555 1_555
H13 C17 1_555 1_555
F1 C10 1_555 1_555
F2 C10 1_555 1_555
F3 C10 1_555 1_555
N1 C1 1_555 1_555
N2 C1 1_555 1_555
O2 C8 1_555 1_555
C18 C19 1_555 1_555
C19 H14 1_555 1_555
C20 C19 1_555 1_555
H15 C20 1_555 1_555
C21 C20 1_555 1_555
H16 C21 1_555 1_555
C22 C18 1_555 1_555
C23 C18 1_555 1_555
H17 C23 1_555 1_555
H18 C23 1_555 1_555
H19 C23 1_555 1_555
C24 C25 1_555 1_555
C25 O3 1_555 1_555
C26 H20 1_555 1_555
H21 C26 1_555 1_555
C27 C26 1_555 1_555
C28 C24 1_555 1_555
C29 C28 1_555 1_555
C30 C29 1_555 1_555
H22 C30 1_555 1_555
C31 C30 1_555 1_555
H23 C31 1_555 1_555
C32 C31 1_555 1_555
H24 C32 1_555 1_555
C33 C32 1_555 1_555
H25 C33 1_555 1_555
C34 C29 1_555 1_555
H26 C34 1_555 1_555
F4 C27 1_555 1_555
F5 C27 1_555 1_555
F6 C27 1_555 1_555
N3 C21 1_555 1_555
N4 C22 1_555 1_555
O4 C25 1_555 1_555
C35 C36 1_555 1_555
C36 H27 1_555 1_555
C37 C36 1_555 1_555
H28 C37 1_555 1_555
C38 C37 1_555 1_555
H29 C38 1_555 1_555
C39 C35 1_555 1_555
C40 C35 1_555 1_555
H30 C40 1_555 1_555
H31 C40 1_555 1_555
H32 C40 1_555 1_555
C41 C42 1_555 1_555
C42 O5 1_555 1_555
C43 H33 1_555 1_555
H34 C43 1_555 1_555
C44 C43 1_555 1_555
C45 C41 1_555 1_555
C46 C45 1_555 1_555
C47 C46 1_555 1_555
H35 C47 1_555 1_555
C48 C47 1_555 1_555
H36 C48 1_555 1_555
C49 C48 1_555 1_555
H37 C49 1_555 1_555
C50 C49 1_555 1_555
H38 C50 1_555 1_555
C51 C46 1_555 1_555
H39 C51 1_555 1_555
F7 C44 1_555 1_555
F8 C44 1_555 1_555
F9 C44 1_555 1_555
N5 C38 1_555 1_555
N6 C39 1_555 1_555
O6 C42 1_555 1_555
C5 N1 1_555 1_555
C7 N1 1_555 1_555
C9 O2 1_555 1_555
C11 N2 1_555 1_555
C16 C17 1_555 1_555
C22 N3 1_555 1_555
C24 N3 1_555 1_555
C26 O4 1_555 1_555
C28 N4 1_555 1_555
C33 C34 1_555 1_555
C39 N5 1_555 1_555
C41 N5 1_555 1_555
C43 O6 1_555 1_555
C45 N6 1_555 1_555
C50 C51 1_555 1_555

#END
