
#######################################################################
#
#                 Cambridge Crystallographic Data Centre
#                                CCDC 
#
#######################################################################
#
# If this CIF has been generated from an entry in the Cambridge 
# Structural Database, then it will include bibliographic, chemical, 
# crystal, experimental, refinement or atomic coordinate data resulting 
# from the CCDC's data processing and validation procedures.
#
#######################################################################

data_REMDOE
_chemical_formula_moiety         'C26 H35 N1 O1'
_chemical_name_systematic        
4'-(Cyclohex-1-en-1-yl)-2'-ethoxy-7',8',9',10'-tetrahydro-5'H-spiro[cyclohexane-1,6'-phenanthridine]
_symmetry_cell_setting           monoclinic
_symmetry_space_group_name_H-M   'P 21/c'
_symmetry_Int_Tables_number      14
_space_group_name_Hall           '-P 2ybc'
loop_
_symmetry_equiv_pos_site_id
_symmetry_equiv_pos_as_xyz
1 x,y,z
2 -x,1/2+y,1/2-z
3 -x,-y,-z
4 x,1/2-y,1/2+z
_cell_length_a                   18.545(3)
_cell_length_b                   10.021(2)
_cell_length_c                   11.5921(15)
_cell_angle_alpha                90
_cell_angle_beta                 92.327(10)
_cell_angle_gamma                90
_cell_volume                     2152.49
_exptl_crystal_colour            'pale yellow'
_cell_formula_units_Z            4
loop_
_atom_site_label
_atom_site_type_symbol
_atom_site_fract_x
_atom_site_fract_y
_atom_site_fract_z
O1 O 0.08378(6) 0.31300(12) 0.89354(10)
N1 N 0.29344(7) 0.60175(13) 0.67031(10)
H1 H 0.3321(9) 0.5559(16) 0.6500(13)
C1 C 0.26765(8) 0.69442(15) 0.57922(11)
C2 C 0.20548(9) 0.77453(15) 0.62722(12)
C3 C 0.15994(8) 0.71634(15) 0.69919(12)
C4 C 0.17316(8) 0.57850(15) 0.73892(12)
C5 C 0.12257(8) 0.50361(16) 0.79658(12)
H2 H 0.0762 0.5405 0.8081
C6 C 0.13836(8) 0.37632(16) 0.83765(13)
C7 C 0.20591(9) 0.32253(16) 0.82242(12)
H3 H 0.2169 0.2356 0.8507
C8 C 0.25827(8) 0.39539(15) 0.76553(12)
C9 C 0.24180(8) 0.52288(15) 0.72274(11)
C10 C 0.33217(9) 0.78086(16) 0.54660(12)
H4 H 0.3149 0.8528 0.4939
H5 H 0.3534 0.8233 0.6172
C11 C 0.39079(9) 0.70092(18) 0.48807(13)
H6 H 0.4300 0.7618 0.4661
H7 H 0.4116 0.6343 0.5430
C12 C 0.35986(10) 0.63002(18) 0.38092(13)
H8 H 0.3433 0.6970 0.3230
H9 H 0.3980 0.5755 0.3466
C13 C 0.29698(10) 0.54064(17) 0.41069(14)
H10 H 0.3146 0.4681 0.4625
H11 H 0.2762 0.4994 0.3392
C14 C 0.23870(9) 0.61979(17) 0.46961(12)
H12 H 0.1998 0.5581 0.4912
H13 H 0.2175 0.6855 0.4142
C15 C 0.1879(2) 0.9100(5) 0.5764(4)
H14 H 0.1934 0.9062 0.4919
H15 H 0.2232 0.9756 0.6084
C16 C 0.11247(14) 0.9587(3) 0.5997(2)
H16 H 0.0769 0.9114 0.5484
H17 H 0.1088 1.0554 0.5829
C17 C 0.0954(2) 0.9333(3) 0.7257(3)
H18 H 0.1325 0.9756 0.7776
H19 H 0.0478 0.9717 0.7425
C18 C 0.09485(8) 0.78771(16) 0.74400(14)
H20 H 0.0508 0.7502 0.7054
H21 H 0.0923 0.7698 0.8277
C19 C 0.33217(9) 0.33907(15) 0.75313(12)
C20 C 0.34388(9) 0.23701(17) 0.67532(14)
H22 H 0.3040 0.1991 0.6329
C21 C 0.41862(10) 0.18554(19) 0.65705(16)
H23 H 0.4381 0.2299 0.5886
H24 H 0.4161 0.0886 0.6411
C22 C 0.46961(9) 0.20979(16) 0.76092(16)
H25 H 0.5196 0.1880 0.7406
H26 H 0.4563 0.1508 0.8252
C23 C 0.46582(9) 0.35467(17) 0.79926(16)
H27 H 0.4978 0.3677 0.8688
H28 H 0.4834 0.4130 0.7374
C24 C 0.39000(9) 0.39411(18) 0.82593(15)
H29 H 0.3816 0.3680 0.9066
H30 H 0.3867 0.4926 0.8219
C25 C 0.10228(10) 0.20065(16) 0.96380(14)
H31 H 0.1453 0.2209 1.0142
H32 H 0.1134 0.1229 0.9149
C26 C 0.03859(10) 0.17028(19) 1.03583(15)
H33 H 0.0290 0.2469 1.0855
H34 H 0.0492 0.0917 1.0838
H35 H -0.0039 0.1525 0.9851
C27? C 0.2105(5) 0.9259(10) 0.5983(10)
C28? C 0.1549(3) 1.0073(6) 0.6651(6)
C29? C 0.0851(4) 0.9270(8) 0.6707(8)
H36? H 0.2597 0.9586 0.6188
H37? H 0.2014 0.9392 0.5143
H38? H 0.1744 1.0262 0.7442
H39? H 0.1452 1.0934 0.6257
H40? H 0.0673 0.9056 0.5911
H41? H 0.0480 0.9826 0.7067
H42? H 0.1023 0.8072 0.8274
H43? H 0.0512 0.7314 0.7332
H44? H 0.3238 0.2669 0.5992
H45? H 0.3144 0.1600 0.6988
H46? H 0.3805 0.4527 0.8880
loop_
_geom_bond_atom_site_label_1
_geom_bond_atom_site_label_2
_geom_bond_site_symmetry_1
_geom_bond_site_symmetry_2
O1 C6 1_555 1_555
N1 H1 1_555 1_555
C1 N1 1_555 1_555
C2 C1 1_555 1_555
C3 C2 1_555 1_555
C4 C3 1_555 1_555
C5 C4 1_555 1_555
H2 C5 1_555 1_555
C6 C5 1_555 1_555
C7 C6 1_555 1_555
H3 C7 1_555 1_555
C8 C7 1_555 1_555
C9 N1 1_555 1_555
C10 C1 1_555 1_555
H4 C10 1_555 1_555
H5 C10 1_555 1_555
C11 C10 1_555 1_555
H6 C11 1_555 1_555
H7 C11 1_555 1_555
C12 C11 1_555 1_555
H8 C12 1_555 1_555
H9 C12 1_555 1_555
C13 C12 1_555 1_555
H10 C13 1_555 1_555
H11 C13 1_555 1_555
C14 C1 1_555 1_555
H12 C14 1_555 1_555
H13 C14 1_555 1_555
C15 C2 1_555 1_555
H14 C15 1_555 1_555
H15 C15 1_555 1_555
C16 C15 1_555 1_555
H16 C16 1_555 1_555
H17 C16 1_555 1_555
C17 C16 1_555 1_555
H18 C17 1_555 1_555
H19 C17 1_555 1_555
C18 C3 1_555 1_555
H20 C18 1_555 1_555
H21 C18 1_555 1_555
C19 C8 1_555 1_555
C20 C19 1_555 1_555
H22 C20 1_555 1_555
C21 C20 1_555 1_555
H23 C21 1_555 1_555
H24 C21 1_555 1_555
C22 C21 1_555 1_555
H25 C22 1_555 1_555
H26 C22 1_555 1_555
C23 C22 1_555 1_555
H27 C23 1_555 1_555
H28 C23 1_555 1_555
C24 C19 1_555 1_555
H29 C24 1_555 1_555
H30 C24 1_555 1_555
C25 O1 1_555 1_555
H31 C25 1_555 1_555
H32 C25 1_555 1_555
C26 C25 1_555 1_555
H33 C26 1_555 1_555
H34 C26 1_555 1_555
H35 C26 1_555 1_555
C4 C9 1_555 1_555
C8 C9 1_555 1_555
C13 C14 1_555 1_555
C17 C18 1_555 1_555
C23 C24 1_555 1_555

#END
