
#######################################################################
#
#                 Cambridge Crystallographic Data Centre
#                                CCDC 
#
#######################################################################
#
# If this CIF has been generated from an entry in the Cambridge 
# Structural Database, then it will include bibliographic, chemical, 
# crystal, experimental, refinement or atomic coordinate data resulting 
# from the CCDC's data processing and validation procedures.
#
#######################################################################

data_REMDAQ
_chemical_formula_moiety         'C13 H17 N1 O2 Se1'
_chemical_name_systematic        'Methyl N-benzenecarboselenoylvalinate'
_symmetry_cell_setting           triclinic
_symmetry_space_group_name_H-M   'P -1'
_symmetry_Int_Tables_number      2
_space_group_name_Hall           '-P 1'
loop_
_symmetry_equiv_pos_site_id
_symmetry_equiv_pos_as_xyz
1 x,y,z
2 -x,-y,-z
_cell_length_a                   8.872(2)
_cell_length_b                   9.1920(19)
_cell_length_c                   10.178(2)
_cell_angle_alpha                103.813(11)
_cell_angle_beta                 110.457(12)
_cell_angle_gamma                105.347(11)
_cell_volume                     697.732
_exptl_crystal_colour            yellow
_exptl_crystal_description       plate
_cell_formula_units_Z            2
loop_
_atom_site_label
_atom_site_type_symbol
_atom_site_fract_x
_atom_site_fract_y
_atom_site_fract_z
Se1 Se -0.01802(8) 0.24522(6) 0.67082(7)
N1 N 0.0838(5) 0.0826(5) 0.8591(4)
H1 H 0.1498 0.0801 0.9430
O1 O -0.2432(4) -0.0420(4) 0.8486(4)
O2 O -0.3477(4) -0.1496(4) 0.5973(3)
C1 C 0.2164(7) 0.5133(6) 1.0118(7)
H2 H 0.1137 0.5186 0.9502
C2 C 0.3422(9) 0.6497(7) 1.1351(8)
H3 H 0.3238 0.7460 1.1560
C3 C 0.4944(9) 0.6422(7) 1.2266(7)
H4 H 0.5793 0.7330 1.3097
C4 C 0.5195(7) 0.5005(7) 1.1941(6)
H5 H 0.6235 0.4964 1.2546
C5 C 0.3941(6) 0.3629(6) 1.0737(5)
H6 H 0.4116 0.2661 1.0558
C6 C 0.2416(6) 0.3700(6) 0.9794(6)
C7 C 0.1065(6) 0.2252(6) 0.8448(6)
C8 C -0.0470(6) -0.0710(5) 0.7406(5)
H7 H -0.0510 -0.0710 0.6432
C9 C -0.0007(7) -0.2129(6) 0.7710(6)
H8 H 0.0069 -0.2092 0.8702
C10 C -0.1445(8) -0.3745(6) 0.6520(7)
H9 H -0.2495 -0.3889 0.6639
H10 H -0.1085 -0.4620 0.6645
H11 H -0.1654 -0.3736 0.5531
C11 C 0.1743(8) -0.1987(7) 0.7727(7)
H12 H 0.1707 -0.1973 0.6777
H13 H 0.1999 -0.2897 0.7896
H14 H 0.2632 -0.1002 0.8521
C12 C -0.2207(7) -0.0844(5) 0.7384(6)
C13 C -0.5217(7) -0.1767(7) 0.5851(7)
H15 H -0.5533 -0.2567 0.6267
H16 H -0.6029 -0.2143 0.4809
H17 H -0.5240 -0.0770 0.6395
loop_
_geom_bond_atom_site_label_1
_geom_bond_atom_site_label_2
_geom_bond_site_symmetry_1
_geom_bond_site_symmetry_2
Se1 C7 1_555 1_555
N1 H1 1_555 1_555
O1 C12 1_555 1_555
O2 C12 1_555 1_555
C1 H2 1_555 1_555
C2 C1 1_555 1_555
H3 C2 1_555 1_555
C3 C2 1_555 1_555
H4 C3 1_555 1_555
C4 C3 1_555 1_555
H5 C4 1_555 1_555
C5 C4 1_555 1_555
H6 C5 1_555 1_555
C6 C1 1_555 1_555
C7 N1 1_555 1_555
C8 N1 1_555 1_555
H7 C8 1_555 1_555
C9 C8 1_555 1_555
H8 C9 1_555 1_555
C10 C9 1_555 1_555
H9 C10 1_555 1_555
H10 C10 1_555 1_555
H11 C10 1_555 1_555
C11 C9 1_555 1_555
H12 C11 1_555 1_555
H13 C11 1_555 1_555
H14 C11 1_555 1_555
C12 C8 1_555 1_555
C13 O2 1_555 1_555
H15 C13 1_555 1_555
H16 C13 1_555 1_555
H17 C13 1_555 1_555
C5 C6 1_555 1_555
C6 C7 1_555 1_555

#END
