
#######################################################################
#
#                 Cambridge Crystallographic Data Centre
#                                CCDC 
#
#######################################################################
#
# If this CIF has been generated from an entry in the Cambridge 
# Structural Database, then it will include bibliographic, chemical, 
# crystal, experimental, refinement or atomic coordinate data resulting 
# from the CCDC's data processing and validation procedures.
#
#######################################################################

data_REMDIX
_chemical_formula_moiety         'C21 H22 N2 O5,0.5(C1 H2 Cl2)'
_chemical_name_systematic        
'methyl 1-[2-hydroxy-4,5-dimethoxyphenyl]-1,3,4,9-tetrahydro-2H-\b-carboline-2-carboxylate dichloromethane solvate'
_symmetry_cell_setting           triclinic
_symmetry_space_group_name_H-M   'P -1'
_symmetry_Int_Tables_number      2
_space_group_name_Hall           '-P 1'
loop_
_symmetry_equiv_pos_site_id
_symmetry_equiv_pos_as_xyz
1 x,y,z
2 -x,-y,-z
_cell_length_a                   7.7738(7)
_cell_length_b                   14.2336(12)
_cell_length_c                   19.6823(16)
_cell_angle_alpha                102.173(2)
_cell_angle_beta                 98.087(2)
_cell_angle_gamma                99.354(2)
_cell_volume                     2065.71
_cell_formula_units_Z            4
loop_
_atom_site_label
_atom_site_type_symbol
_atom_site_fract_x
_atom_site_fract_y
_atom_site_fract_z
C1 C 0.7206(5) 0.8447(3) 0.32770(18)
H1 H 0.8118 0.8506 0.3697
N1 N 0.5472(4) 0.8040(2) 0.34418(15)
C2 C 0.4117(5) 0.7451(3) 0.28459(19)
H2 H 0.3924 0.7830 0.2490
H3 H 0.2997 0.7289 0.3009
C3 C 0.4685(5) 0.6511(3) 0.2516(2)
H4 H 0.4693 0.6077 0.2841
H5 H 0.3860 0.6166 0.2077
C4 C 0.6502(5) 0.6792(3) 0.23658(19)
C5 C 0.7407(5) 0.6297(3) 0.18554(18)
C6 C 0.7027(6) 0.5388(3) 0.1367(2)
H6 H 0.5981 0.4935 0.1340
C7 C 0.8209(6) 0.5166(3) 0.0926(2)
H7 H 0.7956 0.4558 0.0595
C8 C 0.9761(6) 0.5823(3) 0.0963(2)
H8 H 1.0534 0.5654 0.0652
C9 C 1.0206(5) 0.6723(3) 0.14481(19)
H9 H 1.1270 0.7161 0.1474
C10 C 0.9020(5) 0.6955(3) 0.18953(18)
N2 N 0.9096(4) 0.7785(2) 0.24107(15)
H10 H 0.9964 0.8292 0.2540
C11 C 0.7556(5) 0.7678(3) 0.26909(18)
C12 C 0.7323(5) 0.9455(3) 0.31371(19)
C13 C 0.7916(5) 1.0296(3) 0.36819(19)
C14 C 0.8133(5) 1.1223(3) 0.35405(19)
H11 H 0.8566 1.1782 0.3914
C15 C 0.7724(5) 1.1329(3) 0.28635(19)
C16 C 0.7083(5) 1.0497(3) 0.23082(19)
C17 C 0.6913(5) 0.9583(3) 0.24458(19)
H12 H 0.6512 0.9026 0.2068
O1 O 0.8388(4) 1.02787(18) 0.43780(12)
H13 H 0.7769 0.9796 0.4458
O2 O 0.7869(4) 1.22093(18) 0.26778(13)
C18 C 0.8349(6) 1.3073(3) 0.3232(2)
H14 H 0.7533 1.3049 0.3561
H15 H 0.8299 1.3642 0.3037
H16 H 0.9545 1.3121 0.3478
O3 O 0.6720(4) 1.06802(18) 0.16495(13)
C19 C 0.5528(6) 0.9925(3) 0.1116(2)
H17 H 0.6127 0.9392 0.0962
H18 H 0.5140 1.0188 0.0718
H19 H 0.4508 0.9681 0.1308
C20 C 0.5311(6) 0.8152(3) 0.4125(2)
O4 O 0.6364(4) 0.8706(2) 0.46286(13)
O5 O 0.3817(4) 0.75845(19) 0.42037(13)
C21 C 0.3450(6) 0.7727(3) 0.4912(2)
H20 H 0.4319 0.7493 0.5204
H21 H 0.2273 0.7365 0.4902
H22 H 0.3511 0.8420 0.5107
C22 C 0.3502(5) 1.3078(3) 0.22796(19)
H23 H 0.4533 1.3492 0.2627
N3 N 0.2085(4) 1.3657(2) 0.22493(16)
C23 C 0.0772(6) 1.3393(3) 0.15941(19)
H24 H -0.0163 1.3774 0.1651
H25 H 0.0226 1.2696 0.1494
C24 C 0.1636(5) 1.3593(3) 0.0978(2)
H26 H 0.0805 1.3305 0.0531
H27 H 0.1964 1.4302 0.1026
C25 C 0.3249(5) 1.3150(3) 0.09825(19)
C26 C 0.4283(5) 1.2904(3) 0.04443(18)
C27 C 0.4217(5) 1.3014(3) -0.02460(19)
H28 H 0.3315 1.3285 -0.0455
C28 C 0.5486(6) 1.2722(3) -0.0616(2)
H29 H 0.5464 1.2811 -0.1077
C29 C 0.6799(6) 1.2297(3) -0.0322(2)
H30 H 0.7639 1.2094 -0.0590
C30 C 0.6898(5) 1.2167(3) 0.03599(19)
H31 H 0.7780 1.1873 0.0557
C31 C 0.5646(5) 1.2488(3) 0.07381(19)
N4 N 0.5474(4) 1.2507(2) 0.14285(15)
H32 H 0.6166 1.2297 0.1725
C32 C 0.4039(5) 1.2909(3) 0.15722(19)
C33 C 0.2980(5) 1.2140(3) 0.25268(19)
C34 C 0.3258(5) 1.2142(3) 0.32400(19)
C35 C 0.2886(5) 1.1278(3) 0.34597(19)
H33 H 0.3089 1.1292 0.3944
C36 C 0.2226(5) 1.0405(3) 0.2975(2)
C37 C 0.1883(5) 1.0380(3) 0.2252(2)
C38 C 0.2271(5) 1.1242(3) 0.2042(2)
H34 H 0.2053 1.1227 0.1557
O6 O 0.3953(4) 1.29807(19) 0.37629(13)
H35 H 0.3676 1.3461 0.3630
O7 O 0.1848(4) 0.95171(18) 0.31448(13)
C39 C 0.2156(6) 0.9521(3) 0.3881(2)
H36 H 0.3399 0.9781 0.4080
H37 H 0.1839 0.8856 0.3935
H38 H 0.1438 0.9928 0.4125
O8 O 0.1192(4) 0.94719(19) 0.18069(14)
C40 C 0.0246(6) 0.9453(3) 0.1126(2)
H39 H -0.0484 0.9946 0.1171
H40 H -0.0503 0.8810 0.0924
H41 H 0.1082 0.9588 0.0819
C41 C 0.2071(6) 1.4373(3) 0.2802(2)
O9 O 0.3102(4) 1.45655(19) 0.33738(14)
O10 O 0.0809(4) 1.4889(2) 0.26862(14)
C42 C 0.0551(6) 1.5596(3) 0.3287(2)
H42 H 0.0123 1.5257 0.3628
H43 H -0.0312 1.5964 0.3133
H44 H 0.1668 1.6041 0.3504
C43 C 0.6769(8) 0.5952(4) 0.4621(3)
H45 H 0.6168 0.6193 0.5008
H46 H 0.5902 0.5784 0.4180
Cl1 Cl 0.7487(3) 0.49187(13) 0.47465(10)
Cl2 Cl 0.8457(3) 0.68693(13) 0.45819(11)
loop_
_geom_bond_atom_site_label_1
_geom_bond_atom_site_label_2
_geom_bond_site_symmetry_1
_geom_bond_site_symmetry_2
C1 H1 1_555 1_555
N1 C1 1_555 1_555
C2 N1 1_555 1_555
H2 C2 1_555 1_555
H3 C2 1_555 1_555
C3 C2 1_555 1_555
H4 C3 1_555 1_555
H5 C3 1_555 1_555
C4 C3 1_555 1_555
C5 C4 1_555 1_555
C6 C5 1_555 1_555
H6 C6 1_555 1_555
C7 C6 1_555 1_555
H7 C7 1_555 1_555
C8 C7 1_555 1_555
H8 C8 1_555 1_555
C9 C8 1_555 1_555
H9 C9 1_555 1_555
C10 C5 1_555 1_555
N2 C10 1_555 1_555
H10 N2 1_555 1_555
C11 C1 1_555 1_555
C12 C1 1_555 1_555
C13 C12 1_555 1_555
C14 C13 1_555 1_555
H11 C14 1_555 1_555
C15 C14 1_555 1_555
C16 C15 1_555 1_555
C17 C12 1_555 1_555
H12 C17 1_555 1_555
O1 C13 1_555 1_555
H13 O1 1_555 1_555
O2 C15 1_555 1_555
C18 O2 1_555 1_555
H14 C18 1_555 1_555
H15 C18 1_555 1_555
H16 C18 1_555 1_555
O3 C16 1_555 1_555
C19 O3 1_555 1_555
H17 C19 1_555 1_555
H18 C19 1_555 1_555
H19 C19 1_555 1_555
C20 N1 1_555 1_555
O4 C20 1_555 1_555
O5 C20 1_555 1_555
C21 O5 1_555 1_555
H20 C21 1_555 1_555
H21 C21 1_555 1_555
H22 C21 1_555 1_555
C22 H23 1_555 1_555
N3 C22 1_555 1_555
C23 N3 1_555 1_555
H24 C23 1_555 1_555
H25 C23 1_555 1_555
C24 C23 1_555 1_555
H26 C24 1_555 1_555
H27 C24 1_555 1_555
C25 C24 1_555 1_555
C26 C25 1_555 1_555
C27 C26 1_555 1_555
H28 C27 1_555 1_555
C28 C27 1_555 1_555
H29 C28 1_555 1_555
C29 C28 1_555 1_555
H30 C29 1_555 1_555
C30 C29 1_555 1_555
H31 C30 1_555 1_555
C31 C26 1_555 1_555
N4 C31 1_555 1_555
H32 N4 1_555 1_555
C32 C22 1_555 1_555
C33 C22 1_555 1_555
C34 C33 1_555 1_555
C35 C34 1_555 1_555
H33 C35 1_555 1_555
C36 C35 1_555 1_555
C37 C36 1_555 1_555
C38 C33 1_555 1_555
H34 C38 1_555 1_555
O6 C34 1_555 1_555
H35 O6 1_555 1_555
O7 C36 1_555 1_555
C39 O7 1_555 1_555
H36 C39 1_555 1_555
H37 C39 1_555 1_555
H38 C39 1_555 1_555
O8 C37 1_555 1_555
C40 O8 1_555 1_555
H39 C40 1_555 1_555
H40 C40 1_555 1_555
H41 C40 1_555 1_555
C41 N3 1_555 1_555
O9 C41 1_555 1_555
O10 C41 1_555 1_555
C42 O10 1_555 1_555
H42 C42 1_555 1_555
H43 C42 1_555 1_555
H44 C42 1_555 1_555
C43 H45 1_555 1_555
H46 C43 1_555 1_555
Cl1 C43 1_555 1_555
Cl2 C43 1_555 1_555
C4 C11 1_555 1_555
C9 C10 1_555 1_555
N2 C11 1_555 1_555
C16 C17 1_555 1_555
C25 C32 1_555 1_555
C30 C31 1_555 1_555
N4 C32 1_555 1_555
C37 C38 1_555 1_555

#END
