
#######################################################################
#
#                 Cambridge Crystallographic Data Centre
#                                CCDC 
#
#######################################################################
#
# If this CIF has been generated from an entry in the Cambridge 
# Structural Database, then it will include bibliographic, chemical, 
# crystal, experimental, refinement or atomic coordinate data resulting 
# from the CCDC's data processing and validation procedures.
#
#######################################################################

data_REMDEU
_chemical_formula_moiety         'C24 H30 Cl1 N1'
_chemical_name_systematic        
2'-Chloro-4'-(cyclohex-1-en-1-yl)-7',8',9',10'-tetrahydro-5'H-spiro[cyclohexane-1,6'-phenanthridine]
_symmetry_cell_setting           triclinic
_symmetry_space_group_name_H-M   'P -1'
_symmetry_Int_Tables_number      2
_space_group_name_Hall           '-P 1'
loop_
_symmetry_equiv_pos_site_id
_symmetry_equiv_pos_as_xyz
1 x,y,z
2 -x,-y,-z
_cell_length_a                   8.1800(10)
_cell_length_b                   9.9875(13)
_cell_length_c                   13.2073(15)
_cell_angle_alpha                97.344(6)
_cell_angle_beta                 98.122(8)
_cell_angle_gamma                111.627(8)
_cell_volume                     973.829
_exptl_crystal_colour            colorless
_cell_formula_units_Z            2
loop_
_atom_site_label
_atom_site_type_symbol
_atom_site_fract_x
_atom_site_fract_y
_atom_site_fract_z
Cl1 Cl -0.09050(4) 0.21318(3) 0.44355(2)
N1 N 0.52101(12) 0.51495(9) 0.80080(7)
H1 H 0.5952(19) 0.5997(16) 0.7916(11)
C1 C 0.60724(14) 0.41988(11) 0.83986(8)
C2 C 0.45831(15) 0.29018(11) 0.86549(8)
C3 C 0.29629(15) 0.23162(11) 0.80071(8)
C4 C 0.25987(14) 0.30211(11) 0.71328(8)
C5 C 0.11565(14) 0.23034(11) 0.62872(8)
H2 H 0.0386 0.1307 0.6242
C6 C 0.08573(13) 0.30527(11) 0.55164(8)
C7 C 0.19218(13) 0.45208(11) 0.55766(8)
H3 H 0.1665 0.5017 0.5047
C8 C 0.33706(13) 0.52730(10) 0.64143(8)
C9 C 0.37483(13) 0.44987(11) 0.71784(8)
C10 C 0.69170(15) 0.35911(12) 0.75668(8)
H4 H 0.7375 0.2892 0.7842
H5 H 0.5972 0.3044 0.6936
C11 C 0.84525(15) 0.47938(13) 0.72611(9)
H6 H 0.8974 0.4338 0.6756
H7 H 0.7977 0.5438 0.6917
C12 C 0.99187(16) 0.57161(15) 0.82148(10)
H8 H 1.0849 0.6530 0.8004
H9 H 1.0497 0.5099 0.8511
C13 C 0.91193(15) 0.63457(13) 0.90455(9)
H10 H 1.0072 0.6880 0.9675
H11 H 0.8676 0.7056 0.8776
C14 C 0.75710(15) 0.51394(12) 0.93442(8)
H12 H 0.7058 0.5599 0.9853
H13 H 0.8047 0.4496 0.9688
C15 C 0.50367(18) 0.22610(13) 0.95820(9)
H14 H 0.5865 0.1786 0.9422
H15 H 0.5691 0.3078 1.0186
C16 C 0.3508(4) 0.1187(3) 0.9889(2)
H16 H 0.2852 0.1693 1.0249
H17 H 0.3934 0.0650 1.0372
C17 C 0.2269(3) 0.0118(2) 0.89057(18)
H18 H 0.1281 -0.0670 0.9100
H19 H 0.2952 -0.0341 0.8528
C18 C 0.14443(19) 0.09730(13) 0.81566(10)
H20 H 0.0804 0.0317 0.7473
H21 H 0.0576 0.1271 0.8477
C19 C 0.45208(13) 0.68437(11) 0.64549(8)
C20 C 0.48657(16) 0.78954(11) 0.73176(8)
H22 H 0.4347 0.7607 0.7895
C21 C 0.60265(16) 0.94867(12) 0.73963(9)
H23 H 0.7227 0.9712 0.7822
H24 H 0.5489 1.0101 0.7757
C22 C 0.62412(15) 0.98818(11) 0.63302(9)
H25 H 0.5115 0.9920 0.5974
H26 H 0.7217 1.0864 0.6420
C23 C 0.66820(15) 0.87458(11) 0.56648(9)
H27 H 0.6842 0.9025 0.4982
H28 H 0.7823 0.8725 0.6015
C24 C 0.51877(17) 0.72283(12) 0.54967(10)
H29 H 0.4170 0.7172 0.4965
H30 H 0.5631 0.6489 0.5216
C25? C 0.3440(4) 0.0678(3) 0.9525(3)
C26? C 0.1599(4) 0.0707(3) 0.9245(2)
H31? H 0.5177 0.2934 1.0237
H32? H 0.6185 0.2143 0.9576
H33? H 0.3553 -0.0065 0.8999
H34? H 0.3573 0.0382 1.0209
H35? H 0.0652 -0.0241 0.9281
H36? H 0.1491 0.1503 0.9724
H37? H 0.0296 0.1082 0.7949
H38? H 0.1401 0.0101 0.7685
loop_
_geom_bond_atom_site_label_1
_geom_bond_atom_site_label_2
_geom_bond_site_symmetry_1
_geom_bond_site_symmetry_2
Cl1 C6 1_555 1_555
N1 H1 1_555 1_555
C1 N1 1_555 1_555
C2 C1 1_555 1_555
C3 C2 1_555 1_555
C4 C3 1_555 1_555
C5 C4 1_555 1_555
H2 C5 1_555 1_555
C6 C5 1_555 1_555
C7 C6 1_555 1_555
H3 C7 1_555 1_555
C8 C7 1_555 1_555
C9 N1 1_555 1_555
C10 C1 1_555 1_555
H4 C10 1_555 1_555
H5 C10 1_555 1_555
C11 C10 1_555 1_555
H6 C11 1_555 1_555
H7 C11 1_555 1_555
C12 C11 1_555 1_555
H8 C12 1_555 1_555
H9 C12 1_555 1_555
C13 C12 1_555 1_555
H10 C13 1_555 1_555
H11 C13 1_555 1_555
C14 C1 1_555 1_555
H12 C14 1_555 1_555
H13 C14 1_555 1_555
C15 C2 1_555 1_555
H14 C15 1_555 1_555
H15 C15 1_555 1_555
C16 C15 1_555 1_555
H16 C16 1_555 1_555
H17 C16 1_555 1_555
C17 C16 1_555 1_555
H18 C17 1_555 1_555
H19 C17 1_555 1_555
C18 C3 1_555 1_555
H20 C18 1_555 1_555
H21 C18 1_555 1_555
C19 C8 1_555 1_555
C20 C19 1_555 1_555
H22 C20 1_555 1_555
C21 C20 1_555 1_555
H23 C21 1_555 1_555
H24 C21 1_555 1_555
C22 C21 1_555 1_555
H25 C22 1_555 1_555
H26 C22 1_555 1_555
C23 C22 1_555 1_555
H27 C23 1_555 1_555
H28 C23 1_555 1_555
C24 C19 1_555 1_555
H29 C24 1_555 1_555
H30 C24 1_555 1_555
C4 C9 1_555 1_555
C8 C9 1_555 1_555
C13 C14 1_555 1_555
C17 C18 1_555 1_555
C23 C24 1_555 1_555

#END
