
#######################################################################
#
#                 Cambridge Crystallographic Data Centre
#                                CCDC 
#
#######################################################################
#
# If this CIF has been generated from an entry in the Cambridge 
# Structural Database, then it will include bibliographic, chemical, 
# crystal, experimental, refinement or atomic coordinate data resulting 
# from the CCDC's data processing and validation procedures.
#
#######################################################################

data_REMFIB
_chemical_formula_moiety         'C16 H12 N2 O1'
_chemical_name_systematic        
1-(5H-indolo[1,2-a]benzimidazol-5-yl)ethan-1-one
_symmetry_cell_setting           orthorhombic
_symmetry_space_group_name_H-M   'P b c a'
_symmetry_Int_Tables_number      61
_space_group_name_Hall           '-P 2ac 2ab'
loop_
_symmetry_equiv_pos_site_id
_symmetry_equiv_pos_as_xyz
1 x,y,z
2 1/2-x,-y,1/2+z
3 -x,1/2+y,1/2-z
4 1/2+x,1/2-y,-z
5 -x,-y,-z
6 1/2+x,y,1/2-z
7 x,1/2-y,1/2+z
8 1/2-x,1/2+y,z
_cell_length_a                   16.957(3)
_cell_length_b                   7.7224(15)
_cell_length_c                   18.204(4)
_cell_angle_alpha                90
_cell_angle_beta                 90
_cell_angle_gamma                90
_cell_volume                     2383.79
_exptl_crystal_colour            colorless
_exptl_crystal_description       rod
_cell_formula_units_Z            8
loop_
_atom_site_label
_atom_site_type_symbol
_atom_site_fract_x
_atom_site_fract_y
_atom_site_fract_z
O1 O 0.06911(14) 0.8041(3) 0.49466(14)
N1 N 0.31787(16) 0.9000(3) 0.56663(15)
N2 N 0.18912(15) 0.8648(4) 0.54104(15)
C1 C 0.3707(2) 1.1118(4) 0.73342(19)
H1 H 0.3431 1.1648 0.7729
C2 C 0.4521(2) 1.1069(4) 0.7331(2)
H2 H 0.4803 1.1568 0.7729
C3 C 0.4934(2) 1.0304(4) 0.67566(19)
H3 H 0.5494 1.0291 0.6773
C4 C 0.45504(19) 0.9557(4) 0.61577(19)
H4 H 0.4831 0.9031 0.5765
C5 C 0.37383(19) 0.9629(4) 0.61712(18)
C6 C 0.32966(19) 1.0376(4) 0.67483(18)
C7 C 0.2459(2) 1.0191(4) 0.65854(19)
H5 H 0.2027 1.0578 0.6874
C8 C 0.24288(19) 0.9341(4) 0.59287(18)
C9 C 0.31447(19) 0.8133(4) 0.49922(17)
C10 C 0.3737(2) 0.7589(4) 0.45235(19)
H6 H 0.4279 0.7758 0.4636
C11 C 0.3493(2) 0.6772(5) 0.38719(19)
H7 H 0.3879 0.6367 0.3535
C12 C 0.2706(2) 0.6547(5) 0.37108(19)
H8 H 0.2563 0.6013 0.3260
C13 C 0.2116(2) 0.7079(4) 0.41891(19)
H9 H 0.1575 0.6898 0.4079
C14 C 0.23486(19) 0.7883(4) 0.48310(18)
C15 C 0.1073(2) 0.8749(4) 0.5425(2)
C16 C 0.0713(2) 0.9738(5) 0.6051(2)
H10 H 0.0140 0.9802 0.5983
H11 H 0.0933 1.0912 0.6063
H12 H 0.0830 0.9147 0.6514
loop_
_geom_bond_atom_site_label_1
_geom_bond_atom_site_label_2
_geom_bond_site_symmetry_1
_geom_bond_site_symmetry_2
O1 C15 1_555 1_555
N1 C5 1_555 1_555
N2 C8 1_555 1_555
C1 H1 1_555 1_555
C2 C1 1_555 1_555
H2 C2 1_555 1_555
C3 C2 1_555 1_555
H3 C3 1_555 1_555
C4 C3 1_555 1_555
H4 C4 1_555 1_555
C5 C4 1_555 1_555
C6 C1 1_555 1_555
C7 C6 1_555 1_555
H5 C7 1_555 1_555
C8 N1 1_555 1_555
C9 N1 1_555 1_555
C10 C9 1_555 1_555
H6 C10 1_555 1_555
C11 C10 1_555 1_555
H7 C11 1_555 1_555
C12 C11 1_555 1_555
H8 C12 1_555 1_555
C13 C12 1_555 1_555
H9 C13 1_555 1_555
C14 N2 1_555 1_555
C15 N2 1_555 1_555
C16 C15 1_555 1_555
H10 C16 1_555 1_555
H11 C16 1_555 1_555
H12 C16 1_555 1_555
C5 C6 1_555 1_555
C7 C8 1_555 1_555
C9 C14 1_555 1_555
C13 C14 1_555 1_555

#END
