
#######################################################################
#
#                 Cambridge Crystallographic Data Centre
#                                CCDC 
#
#######################################################################
#
# If this CIF has been generated from an entry in the Cambridge 
# Structural Database, then it will include bibliographic, chemical, 
# crystal, experimental, refinement or atomic coordinate data resulting 
# from the CCDC's data processing and validation procedures.
#
#######################################################################

data_REMGAT
_chemical_formula_moiety         'C18 H12 F3 N1 O1'
_chemical_name_systematic        
10-Methoxy-6-(trifluoromethyl)indolo[2,1-a]isoquinoline
_symmetry_cell_setting           monoclinic
_symmetry_space_group_name_H-M   'P 21/c'
_symmetry_Int_Tables_number      14
_space_group_name_Hall           '-P 2ybc'
loop_
_symmetry_equiv_pos_site_id
_symmetry_equiv_pos_as_xyz
1 x,y,z
2 -x,1/2+y,1/2-z
3 -x,-y,-z
4 x,1/2-y,1/2+z
_cell_length_a                   8.2933(7)
_cell_length_b                   10.0821(9)
_cell_length_c                   17.0581(13)
_cell_angle_alpha                90
_cell_angle_beta                 99.641(2)
_cell_angle_gamma                90
_cell_volume                     1406.15
_exptl_crystal_colour            yellow
_exptl_crystal_description       block
_cell_formula_units_Z            4
loop_
_atom_site_label
_atom_site_type_symbol
_atom_site_fract_x
_atom_site_fract_y
_atom_site_fract_z
F1 F 0.05519(15) 0.86550(12) 0.56582(7)
F2 F 0.26075(15) 0.93003(11) 0.51447(7)
F3 F 0.28786(18) 0.89642(13) 0.63925(7)
O1 O -0.24258(16) 0.69670(13) 0.20922(7)
N1 N 0.18733(15) 0.63657(12) 0.49197(7)
C1 C -0.2884(3) 0.5817(2) 0.16351(12)
H1 H -0.1930 0.5419 0.1484
H2 H -0.3640 0.6054 0.1166
H3 H -0.3393 0.5197 0.1944
C2 C -0.1343(2) 0.67909(16) 0.27870(9)
C3 C -0.0989(2) 0.79361(18) 0.32434(11)
H4 H -0.1471 0.8733 0.3055
C4 C 0.0046(2) 0.79253(17) 0.39600(10)
H5 H 0.0264 0.8700 0.4255
C5 C 0.07676(18) 0.67239(15) 0.42370(9)
C6 C 0.04318(18) 0.55691(15) 0.37752(9)
C7 C -0.06336(19) 0.56061(16) 0.30460(9)
H6 H -0.0856 0.4841 0.2743
C8 C 0.13376(19) 0.45118(15) 0.41773(9)
H7 H 0.1335 0.3637 0.4004
C9 C 0.22145(18) 0.50010(15) 0.48626(8)
C10 C 0.33813(18) 0.43701(16) 0.54674(9)
C11 C 0.3763(2) 0.30211(18) 0.54331(11)
H8 H 0.3226 0.2499 0.5021
C12 C 0.4927(2) 0.2467(2) 0.60044(12)
H9 H 0.5170 0.1570 0.5974
C13 C 0.5744(2) 0.3214(2) 0.66233(12)
H10 H 0.6539 0.2825 0.7003
C14 C 0.5378(2) 0.4535(2) 0.66767(10)
H11 H 0.5921 0.5039 0.7096
C15 C 0.41867(19) 0.51274(18) 0.61023(9)
C16 C 0.3737(2) 0.64925(18) 0.61473(10)
H12 H 0.4233 0.6996 0.6578
C17 C 0.26248(19) 0.70732(16) 0.55901(9)
C18 C 0.2168(3) 0.84858(19) 0.56928(11)
loop_
_geom_bond_atom_site_label_1
_geom_bond_atom_site_label_2
_geom_bond_site_symmetry_1
_geom_bond_site_symmetry_2
F1 C18 1_555 1_555
F2 C18 1_555 1_555
F3 C18 1_555 1_555
O1 C1 1_555 1_555
N1 C5 1_555 1_555
C1 H1 1_555 1_555
H2 C1 1_555 1_555
H3 C1 1_555 1_555
C2 O1 1_555 1_555
C3 C2 1_555 1_555
H4 C3 1_555 1_555
C4 C3 1_555 1_555
H5 C4 1_555 1_555
C5 C4 1_555 1_555
C6 C5 1_555 1_555
C7 C2 1_555 1_555
H6 C7 1_555 1_555
C8 C6 1_555 1_555
H7 C8 1_555 1_555
C9 N1 1_555 1_555
C10 C9 1_555 1_555
C11 C10 1_555 1_555
H8 C11 1_555 1_555
C12 C11 1_555 1_555
H9 C12 1_555 1_555
C13 C12 1_555 1_555
H10 C13 1_555 1_555
C14 C13 1_555 1_555
H11 C14 1_555 1_555
C15 C10 1_555 1_555
C16 C15 1_555 1_555
H12 C16 1_555 1_555
C17 N1 1_555 1_555
C18 C17 1_555 1_555
C6 C7 1_555 1_555
C8 C9 1_555 1_555
C14 C15 1_555 1_555
C16 C17 1_555 1_555

#END
