
#######################################################################
#
#                 Cambridge Crystallographic Data Centre
#                                CCDC 
#
#######################################################################
#
# If this CIF has been generated from an entry in the Cambridge 
# Structural Database, then it will include bibliographic, chemical, 
# crystal, experimental, refinement or atomic coordinate data resulting 
# from the CCDC's data processing and validation procedures.
#
#######################################################################

data_REMKOK
_chemical_formula_moiety         'C20 H17 F3 O2'
_chemical_name_systematic        
3-benzyl-2-(4-methoxybenzyl)-4-trifluoromethylfuran
_symmetry_cell_setting           monoclinic
_symmetry_space_group_name_H-M   'P 21/n'
_symmetry_Int_Tables_number      14
_space_group_name_Hall           '-P 2yn'
loop_
_symmetry_equiv_pos_site_id
_symmetry_equiv_pos_as_xyz
1 x,y,z
2 1/2-x,1/2+y,1/2-z
3 -x,-y,-z
4 1/2+x,1/2-y,1/2+z
_cell_length_a                   8.996(3)
_cell_length_b                   5.0189(14)
_cell_length_c                   37.211(10)
_cell_angle_alpha                90
_cell_angle_beta                 90.452(6)
_cell_angle_gamma                90
_cell_volume                     1680.03
_exptl_crystal_colour            colorless
_cell_formula_units_Z            4
loop_
_atom_site_label
_atom_site_type_symbol
_atom_site_fract_x
_atom_site_fract_y
_atom_site_fract_z
O1 O 1.0023(2) -0.0212(5) 0.07879(6)
O2 O 0.9930(3) 0.1865(6) 0.26010(6)
F1 F 0.8326(3) 0.4232(7) -0.00352(7)
F2 F 0.6773(3) 0.1242(5) -0.00600(6)
F3 F 0.6376(3) 0.4473(5) 0.02626(6)
C1 C 0.9662(4) 0.1330(8) 0.05025(8)
H1 H 1.0347 0.2174 0.0355
C2 C 0.8185(3) 0.1478(7) 0.04610(8)
C3 C 0.7534(3) -0.0116(6) 0.07400(8)
C4 C 0.8694(3) -0.1101(7) 0.09270(8)
C5 C 0.7424(4) 0.2865(8) 0.01644(9)
C6 C 0.5909(3) -0.0681(7) 0.07994(8)
H2 H 0.5824 -0.2333 0.0933
H3 H 0.5435 -0.0953 0.0567
C7 C 0.5063(3) 0.1451(6) 0.09972(8)
C8 C 0.3868(3) 0.2745(7) 0.08369(9)
H4 H 0.3605 0.2330 0.0601
C9 C 0.3059(4) 0.4641(8) 0.10211(11)
H5 H 0.2266 0.5498 0.0909
C10 C 0.3426(4) 0.5257(7) 0.13683(10)
H6 H 0.2880 0.6525 0.1493
C11 C 0.4605(4) 0.3992(7) 0.15324(9)
H7 H 0.4858 0.4412 0.1768
C12 C 0.5417(4) 0.2101(7) 0.13489(8)
H8 H 0.6210 0.1255 0.1463
C13 C 0.8835(4) -0.2918(7) 0.12433(8)
H9 H 0.9624 -0.4185 0.1196
H10 H 0.7918 -0.3919 0.1265
C14 C 0.9156(3) -0.1570(7) 0.15973(8)
C15 C 0.8340(4) -0.2172(7) 0.19000(9)
H11 H 0.7575 -0.3414 0.1882
C16 C 0.8623(4) -0.0994(8) 0.22262(9)
H12 H 0.8055 -0.1457 0.2424
C17 C 0.9731(3) 0.0852(7) 0.22627(9)
C18 C 1.0566(4) 0.1527(7) 0.19662(9)
H13 H 1.1322 0.2783 0.1985
C19 C 1.0256(3) 0.0296(7) 0.16395(8)
H14 H 1.0820 0.0760 0.1441
C20 C 1.0988(5) 0.3927(8) 0.26541(11)
H15 H 1.1968 0.3249 0.2610
H16 H 1.0932 0.4563 0.2897
H17 H 1.0781 0.5365 0.2491
loop_
_geom_bond_atom_site_label_1
_geom_bond_atom_site_label_2
_geom_bond_site_symmetry_1
_geom_bond_site_symmetry_2
O1 C1 1_555 1_555
O2 C17 1_555 1_555
F1 C5 1_555 1_555
F2 C5 1_555 1_555
F3 C5 1_555 1_555
C1 H1 1_555 1_555
C2 C1 1_555 1_555
C3 C2 1_555 1_555
C4 O1 1_555 1_555
C5 C2 1_555 1_555
C6 C3 1_555 1_555
H2 C6 1_555 1_555
H3 C6 1_555 1_555
C7 C6 1_555 1_555
C8 C7 1_555 1_555
H4 C8 1_555 1_555
C9 C8 1_555 1_555
H5 C9 1_555 1_555
C10 C9 1_555 1_555
H6 C10 1_555 1_555
C11 C10 1_555 1_555
H7 C11 1_555 1_555
C12 C7 1_555 1_555
H8 C12 1_555 1_555
C13 C4 1_555 1_555
H9 C13 1_555 1_555
H10 C13 1_555 1_555
C14 C13 1_555 1_555
C15 C14 1_555 1_555
H11 C15 1_555 1_555
C16 C15 1_555 1_555
H12 C16 1_555 1_555
C17 C16 1_555 1_555
C18 C17 1_555 1_555
H13 C18 1_555 1_555
C19 C14 1_555 1_555
H14 C19 1_555 1_555
C20 O2 1_555 1_555
H15 C20 1_555 1_555
H16 C20 1_555 1_555
H17 C20 1_555 1_555
C3 C4 1_555 1_555
C11 C12 1_555 1_555
C18 C19 1_555 1_555

#END
