
#######################################################################
#
#                 Cambridge Crystallographic Data Centre
#                                CCDC 
#
#######################################################################
#
# If this CIF has been generated from an entry in the Cambridge 
# Structural Database, then it will include bibliographic, chemical, 
# crystal, experimental, refinement or atomic coordinate data resulting 
# from the CCDC's data processing and validation procedures.
#
#######################################################################

data_REMKUS
_chemical_formula_moiety         'C54 H48 B1 F2 N3 O2'
_chemical_name_systematic        
"2-t-butyl-10-(4'-t-butylbiphenyl-2-yl)-14,14-difluoro-12,16-bis(4-methoxyphenyl)-14H-dibenzo[e,g]pyrrolo[1',2':3,4][1,3,5,2]triazaborinino[6,1-a]isoindol-15-ium-14-ide unknown solvate"
_symmetry_cell_setting           triclinic
_symmetry_space_group_name_H-M   'P -1'
_symmetry_Int_Tables_number      2
_space_group_name_Hall           '-P 1'
loop_
_symmetry_equiv_pos_site_id
_symmetry_equiv_pos_as_xyz
1 x,y,z
2 -x,-y,-z
_cell_length_a                   11.7012(15)
_cell_length_b                   11.9793(15)
_cell_length_c                   20.493(3)
_cell_angle_alpha                90.244(2)
_cell_angle_beta                 90.127(2)
_cell_angle_gamma                116.904(2)
_cell_volume                     2561.59
_exptl_crystal_colour            colorless
_exptl_crystal_description       block
_cell_formula_units_Z            2
loop_
_atom_site_label
_atom_site_type_symbol
_atom_site_fract_x
_atom_site_fract_y
_atom_site_fract_z
B1 B 0.6579(3) 0.1561(3) 0.37592(16)
C1 C 0.8070(2) 0.2331(2) 0.47878(13)
C2 C 0.9207(3) 0.2312(2) 0.50144(13)
C3 C 0.9575(3) 0.1695(2) 0.45408(13)
C4 C 0.8665(3) 0.1364(2) 0.40313(13)
C5 C 0.7305(2) 0.2882(2) 0.51106(13)
C6 C 0.7523(3) 0.4086(3) 0.49918(15)
H1 H 0.8130 0.4546 0.4681
C7 C 0.6888(3) 0.4642(3) 0.53104(15)
H2 H 0.7062 0.5463 0.5217
C8 C 0.5987(3) 0.3970(3) 0.57705(14)
C9 C 0.5751(3) 0.2757(3) 0.58997(15)
H3 H 0.5149 0.2300 0.6214
C10 C 0.6397(3) 0.2210(3) 0.55686(14)
H4 H 0.6218 0.1386 0.5655
C11 C 0.9968(3) 0.2827(2) 0.55995(13)
C12 C 0.9662(3) 0.3486(2) 0.60883(13)
H5 H 0.8907 0.3558 0.6042
C13 C 1.0406(3) 0.4018(2) 0.66188(13)
C14 C 1.1531(3) 0.3916(3) 0.66727(15)
H6 H 1.2076 0.4297 0.7024
C15 C 1.1871(3) 0.3259(3) 0.62176(15)
H7 H 1.2628 0.3197 0.6275
C16 C 1.1097(3) 0.2686(2) 0.56722(13)
C17 C 1.1449(3) 0.1987(2) 0.51915(13)
C18 C 1.2532(3) 0.1784(3) 0.52687(15)
H8 H 1.3053 0.2110 0.5634
C19 C 1.2839(3) 0.1112(3) 0.48160(17)
H9 H 1.3562 0.0991 0.4881
C20 C 1.2085(3) 0.0614(3) 0.42640(15)
H10 H 1.2296 0.0156 0.3962
C21 C 1.1026(3) 0.0806(3) 0.41684(14)
H11 H 1.0519 0.0473 0.3799
C22 C 1.0692(3) 0.1498(2) 0.46197(13)
C23 C 1.0000(3) 0.4725(3) 0.71182(14)
C24 C 0.9974(5) 0.5839(4) 0.6795(2)
H12 H 1.0791 0.6346 0.6600
H13 H 0.9791 0.6324 0.7114
H14 H 0.9321 0.5557 0.6463
C25 C 0.8687(4) 0.3869(4) 0.7385(2)
H15 H 0.8502 0.4271 0.7747
H16 H 0.8674 0.3101 0.7528
H17 H 0.8054 0.3693 0.7050
C26 C 1.0944(5) 0.5190(6) 0.7706(2)
H18 H 1.1757 0.5829 0.7563
H19 H 1.1053 0.4502 0.7881
H20 H 1.0605 0.5526 0.8037
C27 C 0.5542(4) 0.5693(3) 0.60329(19)
H21 H 0.6427 0.6224 0.6133
H22 H 0.5010 0.5889 0.6320
H23 H 0.5369 0.5825 0.5589
C28 C 0.7749(3) 0.0659(2) 0.30172(14)
C29 C 0.7725(3) 0.0222(3) 0.23669(14)
C30 C 0.6731(3) 0.0340(3) 0.20672(16)
H24 H 0.6471 0.0126 0.1636
C31 C 0.6170(3) 0.0837(3) 0.25186(15)
C32 C 0.8629(3) -0.0183(3) 0.21002(15)
C33 C 0.9111(3) -0.0816(3) 0.25007(17)
H25 H 0.8811 -0.1008 0.2926
C34 C 1.0026(4) -0.1165(3) 0.2281(2)
H26 H 1.0350 -0.1564 0.2560
C35 C 1.0443(4) -0.0919(4) 0.1654(2)
H27 H 1.1067 -0.1138 0.1508
C36 C 0.9947(4) -0.0343(3) 0.12328(18)
H28 H 1.0209 -0.0225 0.0800
C37 C 0.9065(3) 0.0061(3) 0.14440(15)
C38 C 0.8604(3) 0.0694(3) 0.09705(15)
C39 C 0.7975(4) 0.0087(3) 0.04061(17)
H29 H 0.7858 -0.0723 0.0327
C40 C 0.7510(4) 0.0644(4) -0.00467(18)
H30 H 0.7090 0.0197 -0.0418
C41 C 0.7656(4) 0.1836(4) 0.00401(16)
C42 C 0.8323(4) 0.2471(4) 0.06010(19)
H31 H 0.8466 0.3292 0.0672
C43 C 0.8774(4) 0.1906(3) 0.10536(17)
H32 H 0.9203 0.2354 0.1423
C44 C 0.7128(4) 0.2456(4) -0.04256(18)
C45 C 0.6476(6) 0.1669(6) -0.1013(2)
H33 H 0.7103 0.1594 -0.1287
H34 H 0.6049 0.2058 -0.1254
H35 H 0.5860 0.0853 -0.0875
C46 C 0.8233(6) 0.3687(6) -0.0680(2)
H36 H 0.8960 0.3549 -0.0781
H37 H 0.8467 0.4325 -0.0351
H38 H 0.7956 0.3948 -0.1066
C47 C 0.6156(5) 0.2749(5) -0.0064(2)
H39 H 0.5720 0.3030 -0.0369
H40 H 0.6592 0.3393 0.0255
H41 H 0.5544 0.2008 0.0150
C48 C 0.5159(3) 0.1195(3) 0.23584(15)
C49 C 0.5131(4) 0.1604(4) 0.17252(17)
H42 H 0.5715 0.1600 0.1419
C50 C 0.4247(4) 0.2016(4) 0.15470(18)
H43 H 0.4242 0.2285 0.1123
C51 C 0.3375(3) 0.2031(3) 0.19915(19)
C52 C 0.3366(3) 0.1605(4) 0.26126(18)
H44 H 0.2768 0.1597 0.2913
C53 C 0.4255(3) 0.1185(3) 0.27936(17)
H45 H 0.4238 0.0892 0.3215
C54 C 0.1793(4) 0.2687(5) 0.2247(2)
H46 H 0.1264 0.1907 0.2457
H47 H 0.1260 0.2993 0.2034
H48 H 0.2321 0.3286 0.2568
F1 F 0.65381(16) 0.26769(15) 0.36525(8)
F2 F 0.54591(16) 0.07132(17) 0.40599(8)
N1 N 0.7746(2) 0.17663(19) 0.42031(10)
N2 N 0.8652(2) 0.0825(2) 0.34609(11)
N3 N 0.6778(2) 0.1007(2) 0.31058(11)
O1 O 0.5272(2) 0.4410(2) 0.61164(11)
O2 O 0.2583(3) 0.2501(3) 0.17781(13)
loop_
_geom_bond_atom_site_label_1
_geom_bond_atom_site_label_2
_geom_bond_site_symmetry_1
_geom_bond_site_symmetry_2
B1 F1 1_555 1_555
C1 C2 1_555 1_555
C2 C3 1_555 1_555
C3 C4 1_555 1_555
C4 N1 1_555 1_555
C5 C1 1_555 1_555
C6 C5 1_555 1_555
H1 C6 1_555 1_555
C7 C6 1_555 1_555
H2 C7 1_555 1_555
C8 C7 1_555 1_555
C9 C8 1_555 1_555
H3 C9 1_555 1_555
C10 C5 1_555 1_555
H4 C10 1_555 1_555
C11 C2 1_555 1_555
C12 C11 1_555 1_555
H5 C12 1_555 1_555
C13 C12 1_555 1_555
C14 C13 1_555 1_555
H6 C14 1_555 1_555
C15 C14 1_555 1_555
H7 C15 1_555 1_555
C16 C11 1_555 1_555
C17 C16 1_555 1_555
C18 C17 1_555 1_555
H8 C18 1_555 1_555
C19 C18 1_555 1_555
H9 C19 1_555 1_555
C20 C19 1_555 1_555
H10 C20 1_555 1_555
C21 C20 1_555 1_555
H11 C21 1_555 1_555
C22 C3 1_555 1_555
C23 C13 1_555 1_555
C24 C23 1_555 1_555
H12 C24 1_555 1_555
H13 C24 1_555 1_555
H14 C24 1_555 1_555
C25 C23 1_555 1_555
H15 C25 1_555 1_555
H16 C25 1_555 1_555
H17 C25 1_555 1_555
C26 C23 1_555 1_555
H18 C26 1_555 1_555
H19 C26 1_555 1_555
H20 C26 1_555 1_555
C27 H21 1_555 1_555
H22 C27 1_555 1_555
H23 C27 1_555 1_555
C28 C29 1_555 1_555
C29 C30 1_555 1_555
C30 H24 1_555 1_555
C31 C30 1_555 1_555
C32 C29 1_555 1_555
C33 C32 1_555 1_555
H25 C33 1_555 1_555
C34 C33 1_555 1_555
H26 C34 1_555 1_555
C35 C34 1_555 1_555
H27 C35 1_555 1_555
C36 C35 1_555 1_555
H28 C36 1_555 1_555
C37 C32 1_555 1_555
C38 C37 1_555 1_555
C39 C38 1_555 1_555
H29 C39 1_555 1_555
C40 C39 1_555 1_555
H30 C40 1_555 1_555
C41 C40 1_555 1_555
C42 C41 1_555 1_555
H31 C42 1_555 1_555
C43 C38 1_555 1_555
H32 C43 1_555 1_555
C44 C41 1_555 1_555
C45 C44 1_555 1_555
H33 C45 1_555 1_555
H34 C45 1_555 1_555
H35 C45 1_555 1_555
C46 C44 1_555 1_555
H36 C46 1_555 1_555
H37 C46 1_555 1_555
H38 C46 1_555 1_555
C47 C44 1_555 1_555
H39 C47 1_555 1_555
H40 C47 1_555 1_555
H41 C47 1_555 1_555
C48 C31 1_555 1_555
C49 C48 1_555 1_555
H42 C49 1_555 1_555
C50 C49 1_555 1_555
H43 C50 1_555 1_555
C51 C50 1_555 1_555
C52 C51 1_555 1_555
H44 C52 1_555 1_555
C53 C48 1_555 1_555
H45 C53 1_555 1_555
C54 H46 1_555 1_555
H47 C54 1_555 1_555
H48 C54 1_555 1_555
F2 B1 1_555 1_555
N1 B1 1_555 1_555
N2 C4 1_555 1_555
N3 B1 1_555 1_555
O1 C8 1_555 1_555
O2 C51 1_555 1_555
C1 N1 1_555 1_555
C9 C10 1_555 1_555
C15 C16 1_555 1_555
C17 C22 1_555 1_555
C21 C22 1_555 1_555
C27 O1 1_555 1_555
C28 N2 1_555 1_555
C28 N3 1_555 1_555
C31 N3 1_555 1_555
C36 C37 1_555 1_555
C42 C43 1_555 1_555
C52 C53 1_555 1_555
C54 O2 1_555 1_555

#END
