
#######################################################################
#
#                 Cambridge Crystallographic Data Centre
#                                CCDC 
#
#######################################################################
#
# If this CIF has been generated from an entry in the Cambridge 
# Structural Database, then it will include bibliographic, chemical, 
# crystal, experimental, refinement or atomic coordinate data resulting 
# from the CCDC's data processing and validation procedures.
#
#######################################################################

data_REMKOL
_chemical_formula_moiety         'C13 H16 Br2 S2 Si2'
_chemical_name_systematic        
2,4-Dibromo-7,7-dimethyl-6-(trimethylsilyl)-7H-thieno[3',4':4,5]silolo[2,3-b]thiophene
_symmetry_cell_setting           monoclinic
_symmetry_space_group_name_H-M   'P 21/c'
_symmetry_Int_Tables_number      14
_space_group_name_Hall           '-P 2ybc'
loop_
_symmetry_equiv_pos_site_id
_symmetry_equiv_pos_as_xyz
1 x,y,z
2 -x,1/2+y,1/2-z
3 -x,-y,-z
4 x,1/2-y,1/2+z
_cell_length_a                   9.575(3)
_cell_length_b                   19.537(5)
_cell_length_c                   10.714(3)
_cell_angle_alpha                90
_cell_angle_beta                 109.511(3)
_cell_angle_gamma                90
_cell_volume                     1889.15
_exptl_crystal_colour            colorless
_exptl_crystal_description       block
_cell_formula_units_Z            4
loop_
_atom_site_label
_atom_site_type_symbol
_atom_site_fract_x
_atom_site_fract_y
_atom_site_fract_z
Br1 Br 0.06930(4) 0.57695(2) 0.94439(4)
Br2 Br 0.69584(5) 0.55943(2) 1.34157(3)
Si1 Si 0.53856(8) 0.64165(4) 0.75627(8)
S1 S 0.05163(8) 0.61974(4) 0.66065(8)
S2 S 0.72173(9) 0.60367(5) 1.07130(8)
Si2 Si 0.16995(9) 0.65724(5) 0.43370(9)
C1 C 0.3068(3) 0.61070(14) 0.8408(3)
C2 C 0.2052(3) 0.63887(14) 0.6133(3)
C3 C 0.1606(3) 0.60259(15) 0.8209(3)
C4 C 0.4418(3) 0.60177(14) 0.9566(3)
C5 C 0.6100(4) 0.58121(15) 1.1610(3)
C6 C 0.3325(3) 0.63208(13) 0.7196(3)
C7 C 0.4640(3) 0.58193(15) 1.0891(3)
H1 H 0.3885 0.5709 1.1220
C8 C 0.5718(3) 0.61595(16) 0.9311(3)
C9 C 0.6052(4) 0.72970(19) 0.7439(4)
H2 H 0.5687 0.7602 0.7962
H3 H 0.5698 0.7442 0.6531
H4 H 0.7116 0.7302 0.7760
C10 C 0.6198(4) 0.57976(18) 0.6686(3)
H5 H 0.7259 0.5826 0.7035
H6 H 0.5865 0.5904 0.5758
H7 H 0.5891 0.5342 0.6811
C11 C 0.3305(4) 0.7004(3) 0.4102(4)
H8 H 0.3069 0.7130 0.3189
H9 H 0.4140 0.6699 0.4352
H10 H 0.3543 0.7407 0.4644
C12 C 0.1342(5) 0.5745(2) 0.3427(4)
H11 H 0.0554 0.5507 0.3609
H12 H 0.2223 0.5470 0.3709
H13 H 0.1065 0.5830 0.2494
C13 C 0.0038(4) 0.7126(2) 0.3720(4)
H14 H -0.0815 0.6880 0.3756
H15 H -0.0107 0.7257 0.2821
H16 H 0.0177 0.7528 0.4262
loop_
_geom_bond_atom_site_label_1
_geom_bond_atom_site_label_2
_geom_bond_site_symmetry_1
_geom_bond_site_symmetry_2
Br1 C3 1_555 1_555
Br2 C5 1_555 1_555
Si1 C6 1_555 1_555
S1 C2 1_555 1_555
S2 C5 1_555 1_555
Si2 C2 1_555 1_555
C1 C3 1_555 1_555
C2 C6 1_555 1_555
C3 S1 1_555 1_555
C4 C1 1_555 1_555
C5 C7 1_555 1_555
C6 C1 1_555 1_555
C7 C4 1_555 1_555
H1 C7 1_555 1_555
C8 Si1 1_555 1_555
C9 Si1 1_555 1_555
H2 C9 1_555 1_555
H3 C9 1_555 1_555
H4 C9 1_555 1_555
C10 Si1 1_555 1_555
H5 C10 1_555 1_555
H6 C10 1_555 1_555
H7 C10 1_555 1_555
C11 Si2 1_555 1_555
H8 C11 1_555 1_555
H9 C11 1_555 1_555
H10 C11 1_555 1_555
C12 Si2 1_555 1_555
H11 C12 1_555 1_555
H12 C12 1_555 1_555
H13 C12 1_555 1_555
C13 Si2 1_555 1_555
H14 C13 1_555 1_555
H15 C13 1_555 1_555
H16 C13 1_555 1_555
S2 C8 1_555 1_555
C4 C8 1_555 1_555

#END
