
#######################################################################
#
#                 Cambridge Crystallographic Data Centre
#                                CCDC 
#
#######################################################################
#
# If this CIF has been generated from an entry in the Cambridge 
# Structural Database, then it will include bibliographic, chemical, 
# crystal, experimental, refinement or atomic coordinate data resulting 
# from the CCDC's data processing and validation procedures.
#
#######################################################################

data_REMKAX
_chemical_formula_moiety         'C19 H34 S2 Si4'
_chemical_name_systematic        
7,7-Dimethyl-2,4,6-tris(trimethylsilyl)-7H-thieno[3',4':4,5]silolo[2,3-b]thiophene
_symmetry_cell_setting           monoclinic
_symmetry_space_group_name_H-M   'P 21/c'
_symmetry_Int_Tables_number      14
_space_group_name_Hall           '-P 2ybc'
loop_
_symmetry_equiv_pos_site_id
_symmetry_equiv_pos_as_xyz
1 x,y,z
2 -x,1/2+y,1/2-z
3 -x,-y,-z
4 x,1/2-y,1/2+z
_cell_length_a                   21.037(5)
_cell_length_b                   11.731(3)
_cell_length_c                   10.746(3)
_cell_angle_alpha                90
_cell_angle_beta                 92.840(4)
_cell_angle_gamma                90
_cell_volume                     2648.69
_exptl_crystal_colour            colorless
_exptl_crystal_description       block
_cell_formula_units_Z            4
loop_
_atom_site_label
_atom_site_type_symbol
_atom_site_fract_x
_atom_site_fract_y
_atom_site_fract_z
Si1 Si 0.19460(3) 0.39283(5) 0.28692(5)
Si2 Si 0.36817(3) 0.35174(5) 0.14669(6)
Si3 Si 0.36141(3) 0.66298(5) 0.60022(6)
Si4 Si 0.08721(3) 0.63241(5) 0.74838(6)
C1 C 0.17961(13) 0.2375(2) 0.2772(3)
H1 H 0.1946 0.2018 0.3534
H2 H 0.2016 0.2061 0.2089
H3 H 0.1348 0.2241 0.2641
C2 C 0.15934(13) 0.4658(3) 0.1469(2)
H4 H 0.1739 0.4297 0.0734
H5 H 0.1721 0.5444 0.1479
H6 H 0.1138 0.4612 0.1469
C3 C 0.27839(9) 0.44015(17) 0.32951(17)
C4 C 0.27823(9) 0.50993(16) 0.44080(17)
C5 C 0.21541(9) 0.51768(16) 0.49632(17)
C6 C 0.16702(9) 0.46092(19) 0.4318(2)
C7 C 0.19530(9) 0.57355(17) 0.60416(18)
H7 H 0.2230 0.6137 0.6581
C8 C 0.13158(10) 0.56359(18) 0.62264(19)
C9 C 0.04241(16) 0.5244(3) 0.8330(3)
H8 H 0.0210 0.5604 0.8994
H9 H 0.0713 0.4677 0.8670
H10 H 0.0116 0.4888 0.7768
C10 C 0.03057(16) 0.7368(3) 0.6762(3)
H11 H 0.0050 0.7687 0.7391
H12 H 0.0035 0.6993 0.6143
H13 H 0.0538 0.7966 0.6377
C11 C 0.14653(15) 0.7045(3) 0.8543(3)
H14 H 0.1681 0.7622 0.8092
H15 H 0.1769 0.6496 0.8867
H16 H 0.1253 0.7389 0.9219
C12 C 0.30984(12) 0.7920(2) 0.5896(2)
H17 H 0.3234 0.8404 0.5239
H18 H 0.3131 0.8326 0.6672
H19 H 0.2664 0.7694 0.5722
C13 C 0.35849(17) 0.5997(3) 0.7579(2)
H20 H 0.3173 0.5665 0.7677
H21 H 0.3661 0.6580 0.8196
H22 H 0.3905 0.5417 0.7682
C14 C 0.44458(12) 0.7054(3) 0.5738(3)
H23 H 0.4720 0.6404 0.5847
H24 H 0.4577 0.7636 0.6324
H25 H 0.4471 0.7343 0.4906
C15 C 0.33579(9) 0.55823(17) 0.47637(18)
C16 C 0.33759(9) 0.43264(17) 0.28169(18)
C17 C 0.30481(15) 0.3393(3) 0.0225(3)
H26 H 0.2907 0.4140 -0.0026
H27 H 0.2697 0.2972 0.0531
H28 H 0.3211 0.3002 -0.0477
C18 C 0.39444(19) 0.2088(3) 0.1986(3)
H29 H 0.4151 0.1712 0.1323
H30 H 0.3582 0.1650 0.2209
H31 H 0.4237 0.2159 0.2696
C19 C 0.43644(14) 0.4305(3) 0.0865(3)
H32 H 0.4233 0.5064 0.0636
H33 H 0.4513 0.3919 0.0148
H34 H 0.4702 0.4342 0.1499
S1 S 0.39100(2) 0.51312(5) 0.37250(5)
S2 S 0.09708(3) 0.48088(6) 0.50432(6)
loop_
_geom_bond_atom_site_label_1
_geom_bond_atom_site_label_2
_geom_bond_site_symmetry_1
_geom_bond_site_symmetry_2
Si1 C1 1_555 1_555
Si2 C16 1_555 1_555
Si3 C12 1_555 1_555
Si4 C8 1_555 1_555
C1 H1 1_555 1_555
H2 C1 1_555 1_555
H3 C1 1_555 1_555
C2 Si1 1_555 1_555
H4 C2 1_555 1_555
H5 C2 1_555 1_555
H6 C2 1_555 1_555
C3 Si1 1_555 1_555
C4 C3 1_555 1_555
C5 C4 1_555 1_555
C6 Si1 1_555 1_555
C7 C5 1_555 1_555
H7 C7 1_555 1_555
C8 C7 1_555 1_555
C9 Si4 1_555 1_555
H8 C9 1_555 1_555
H9 C9 1_555 1_555
H10 C9 1_555 1_555
C10 Si4 1_555 1_555
H11 C10 1_555 1_555
H12 C10 1_555 1_555
H13 C10 1_555 1_555
C11 Si4 1_555 1_555
H14 C11 1_555 1_555
H15 C11 1_555 1_555
H16 C11 1_555 1_555
C12 H17 1_555 1_555
H18 C12 1_555 1_555
H19 C12 1_555 1_555
C13 Si3 1_555 1_555
H20 C13 1_555 1_555
H21 C13 1_555 1_555
H22 C13 1_555 1_555
C14 Si3 1_555 1_555
H23 C14 1_555 1_555
H24 C14 1_555 1_555
H25 C14 1_555 1_555
C15 Si3 1_555 1_555
C16 C3 1_555 1_555
C17 Si2 1_555 1_555
H26 C17 1_555 1_555
H27 C17 1_555 1_555
H28 C17 1_555 1_555
C18 Si2 1_555 1_555
H29 C18 1_555 1_555
H30 C18 1_555 1_555
H31 C18 1_555 1_555
C19 Si2 1_555 1_555
H32 C19 1_555 1_555
H33 C19 1_555 1_555
H34 C19 1_555 1_555
S1 C15 1_555 1_555
S2 C6 1_555 1_555
C4 C15 1_555 1_555
C5 C6 1_555 1_555
C8 S2 1_555 1_555
C16 S1 1_555 1_555

#END
