
#######################################################################
#
#                 Cambridge Crystallographic Data Centre
#                                CCDC 
#
#######################################################################
#
# If this CIF has been generated from an entry in the Cambridge 
# Structural Database, then it will include bibliographic, chemical, 
# crystal, experimental, refinement or atomic coordinate data resulting 
# from the CCDC's data processing and validation procedures.
#
#######################################################################

data_REMKIF
_chemical_formula_moiety         'C16 H25 Br1 S2 Si3'
_chemical_name_systematic        
4-Bromo-7,7-dimethyl-2,6-bis(trimethylsilyl)-7H-thieno[3',4':4,5]silolo[2,3-b]thiophene
_symmetry_cell_setting           triclinic
_symmetry_space_group_name_H-M   'P -1'
_symmetry_Int_Tables_number      2
_space_group_name_Hall           '-P 1'
loop_
_symmetry_equiv_pos_site_id
_symmetry_equiv_pos_as_xyz
1 x,y,z
2 -x,-y,-z
_cell_length_a                   13.753(7)
_cell_length_b                   14.627(7)
_cell_length_c                   14.647(12)
_cell_angle_alpha                98.458(11)
_cell_angle_beta                 110.078(11)
_cell_angle_gamma                117.942(7)
_cell_volume                     2270.17
_cell_formula_units_Z            4
loop_
_atom_site_label
_atom_site_type_symbol
_atom_site_fract_x
_atom_site_fract_y
_atom_site_fract_z
Si1 Si 0.1488(2) -0.2309(2) 0.4501(2)
Si2 Si 0.37756(18) 0.09682(17) 0.52698(14)
Si3 Si 0.5676(3) 0.4128(2) 0.3006(2)
Br1 Br 0.20016(7) -0.08315(7) 0.09384(5)
C1 C 0.0514(12) -0.2082(10) 0.4954(10)
H1 H 0.0507 -0.2338 0.5520
H2 H -0.0322 -0.2486 0.4389
H3 H 0.0842 -0.1301 0.5192
C2 C 0.0732(10) -0.3772(8) 0.3710(8)
H4 H 0.0338 -0.4240 0.4038
H5 H 0.1347 -0.3883 0.3654
H6 H 0.0115 -0.3957 0.3024
C3 C 0.2917(9) -0.1908(8) 0.5686(8)
H7 H 0.3357 -0.1136 0.6108
H8 H 0.3448 -0.2028 0.5474
H9 H 0.2678 -0.2355 0.6086
C4 C 0.1945(6) -0.1434(6) 0.3727(5)
C5 C 0.2749(6) -0.0306(6) 0.4026(5)
C6 C 0.2861(6) 0.0051(6) 0.3178(5)
C7 C 0.2169(6) -0.0834(6) 0.2259(5)
C8 C 0.5097(8) 0.1053(8) 0.6277(6)
H10 H 0.5839 0.1785 0.6539
H11 H 0.5217 0.0510 0.5976
H12 H 0.4924 0.0909 0.6840
C9 C 0.2902(8) 0.1265(7) 0.5860(6)
H13 H 0.2464 0.0657 0.6053
H14 H 0.2315 0.1351 0.5360
H15 H 0.3478 0.1938 0.6471
C10 C 0.4255(6) 0.1856(6) 0.4507(5)
C11 C 0.3702(6) 0.1233(5) 0.3470(5)
C12 C 0.4090(6) 0.1900(5) 0.2884(5)
H16 H 0.3803 0.1604 0.2168
C13 C 0.4904(7) 0.2992(6) 0.3462(6)
C14 C 0.7309(9) 0.4531(8) 0.3431(8)
H17 H 0.7774 0.5217 0.3347
H18 H 0.7303 0.3956 0.3013
H19 H 0.7691 0.4627 0.4154
C15 C 0.4803(10) 0.3588(8) 0.1597(7)
H20 H 0.3940 0.3293 0.1391
H21 H 0.4878 0.3006 0.1306
H22 H 0.5126 0.4176 0.1345
C16 C 0.5717(10) 0.5327(8) 0.3546(8)
H23 H 0.5006 0.5291 0.3067
H24 H 0.6468 0.5986 0.3662
H25 H 0.5700 0.5351 0.4198
S1 S 0.13493(17) -0.20688(16) 0.24003(15)
S2 S 0.52221(19) 0.32207(16) 0.47444(15)
Si4 Si 0.2761(2) 0.5786(2) 0.0426(2)
Si5 Si 0.83344(18) 0.91071(17) 0.17723(16)
Si6 Si 1.06767(19) 1.2392(2) 0.25808(18)
Br2 Br 0.52747(7) 1.07153(7) 0.13422(7)
C17 C 0.2567(13) 0.5666(11) 0.1602(12)
H26 H 0.1748 0.5034 0.1393
H27 H 0.2671 0.6330 0.1973
H28 H 0.3183 0.5571 0.2049
C18 C 0.2474(11) 0.4484(9) -0.0324(12)
H29 H 0.1729 0.3861 -0.0388
H30 H 0.3169 0.4437 0.0032
H31 H 0.2372 0.4473 -0.1008
C19 C 0.1599(10) 0.6048(8) -0.0350(8)
H32 H 0.1710 0.6178 -0.0942
H33 H 0.1714 0.6690 0.0079
H34 H 0.0771 0.5411 -0.0590
C20 C 0.4375(6) 0.6978(6) 0.0829(5)
C21 C 0.4764(6) 0.8033(6) 0.0969(5)
H35 H 0.4238 0.8281 0.0863
C22 C 0.6082(6) 0.8757(5) 0.1302(5)
C23 C 0.6655(6) 0.8191(5) 0.1371(5)
C24 C 0.9362(8) 0.9136(8) 0.3011(7)
H36 H 0.9379 0.9557 0.3591
H37 H 1.0192 0.9477 0.3092
H38 H 0.9047 0.8388 0.2990
C25 C 0.8741(9) 0.8778(8) 0.0737(8)
H39 H 0.9627 0.9255 0.1001
H40 H 0.8322 0.8896 0.0138
H41 H 0.8483 0.8014 0.0539
C26 C 0.8203(6) 1.0333(6) 0.1869(5)
C27 C 0.6903(5) 0.9939(5) 0.1571(5)
C28 C 0.6746(6) 1.0781(5) 0.1604(5)
C29 C 0.8962(6) 1.1457(6) 0.2119(5)
C30 C 1.1521(8) 1.2123(10) 0.3663(8)
H42 H 1.2401 1.2595 0.3896
H43 H 1.1251 1.1357 0.3428
H44 H 1.1354 1.2277 0.4231
C31 C 1.1066(9) 1.2198(8) 0.1539(7)
H45 H 1.0987 1.1499 0.1379
H46 H 1.1909 1.2793 0.1757
H47 H 1.0508 1.2200 0.0928
C32 C 1.1138(10) 1.3841(9) 0.3092(10)
H48 H 1.2030 1.4337 0.3409
H49 H 1.0869 1.3920 0.3606
H50 H 1.0756 1.4020 0.2528
S3 S 0.55913(19) 0.68172(16) 0.10780(16)
S4 S 0.80943(17) 1.20345(16) 0.19861(16)
loop_
_geom_bond_atom_site_label_1
_geom_bond_atom_site_label_2
_geom_bond_site_symmetry_1
_geom_bond_site_symmetry_2
Si1 C1 1_555 1_555
Si2 C5 1_555 1_555
Si3 C13 1_555 1_555
Si4 C17 1_555 1_555
Si5 C23 1_555 1_555
Si6 C29 1_555 1_555
Br1 C7 1_555 1_555
Br2 C28 1_555 1_555
C1 H1 1_555 1_555
H2 C1 1_555 1_555
H3 C1 1_555 1_555
C2 Si1 1_555 1_555
H4 C2 1_555 1_555
H5 C2 1_555 1_555
H6 C2 1_555 1_555
C3 Si1 1_555 1_555
H7 C3 1_555 1_555
H8 C3 1_555 1_555
H9 C3 1_555 1_555
C4 Si1 1_555 1_555
C5 C4 1_555 1_555
C6 C5 1_555 1_555
C7 C6 1_555 1_555
C8 Si2 1_555 1_555
H10 C8 1_555 1_555
H11 C8 1_555 1_555
H12 C8 1_555 1_555
C9 Si2 1_555 1_555
H13 C9 1_555 1_555
H14 C9 1_555 1_555
H15 C9 1_555 1_555
C10 Si2 1_555 1_555
C11 C6 1_555 1_555
C12 C11 1_555 1_555
H16 C12 1_555 1_555
C13 C12 1_555 1_555
C14 Si3 1_555 1_555
H17 C14 1_555 1_555
H18 C14 1_555 1_555
H19 C14 1_555 1_555
C15 Si3 1_555 1_555
H20 C15 1_555 1_555
H21 C15 1_555 1_555
H22 C15 1_555 1_555
C16 Si3 1_555 1_555
H23 C16 1_555 1_555
H24 C16 1_555 1_555
H25 C16 1_555 1_555
C17 H26 1_555 1_555
H27 C17 1_555 1_555
H28 C17 1_555 1_555
C18 Si4 1_555 1_555
H29 C18 1_555 1_555
H30 C18 1_555 1_555
H31 C18 1_555 1_555
C19 Si4 1_555 1_555
H32 C19 1_555 1_555
H33 C19 1_555 1_555
H34 C19 1_555 1_555
C20 Si4 1_555 1_555
C21 C20 1_555 1_555
H35 C21 1_555 1_555
C22 C21 1_555 1_555
C23 C22 1_555 1_555
C24 Si5 1_555 1_555
H36 C24 1_555 1_555
H37 C24 1_555 1_555
H38 C24 1_555 1_555
C25 Si5 1_555 1_555
H39 C25 1_555 1_555
H40 C25 1_555 1_555
H41 C25 1_555 1_555
C26 Si5 1_555 1_555
C27 C22 1_555 1_555
C28 C27 1_555 1_555
C29 C26 1_555 1_555
C30 Si6 1_555 1_555
H42 C30 1_555 1_555
H43 C30 1_555 1_555
H44 C30 1_555 1_555
C31 Si6 1_555 1_555
H45 C31 1_555 1_555
H46 C31 1_555 1_555
H47 C31 1_555 1_555
C32 Si6 1_555 1_555
H48 C32 1_555 1_555
H49 C32 1_555 1_555
H50 C32 1_555 1_555
S1 C4 1_555 1_555
S2 C10 1_555 1_555
S3 C20 1_555 1_555
S4 C28 1_555 1_555
C7 S1 1_555 1_555
C10 C11 1_555 1_555
C13 S2 1_555 1_555
C23 S3 1_555 1_555
C26 C27 1_555 1_555
C29 S4 1_555 1_555

#END
