
#######################################################################
#
#                 Cambridge Crystallographic Data Centre
#                                CCDC 
#
#######################################################################
#
# If this CIF has been generated from an entry in the Cambridge 
# Structural Database, then it will include bibliographic, chemical, 
# crystal, experimental, refinement or atomic coordinate data resulting 
# from the CCDC's data processing and validation procedures.
#
#######################################################################

data_REMLIG
_chemical_formula_moiety         'C21 H17 Br1 N2 O4'
_chemical_name_systematic        
'Ethyl (1-(4-bromophenyl)-2,5-dioxopyrrolidin-3-yl)(methylidyne-\l^5^-azanyl)phenylacetate'
_symmetry_cell_setting           orthorhombic
_symmetry_space_group_name_H-M   'P 21 21 21'
_symmetry_Int_Tables_number      19
_space_group_name_Hall           'P 2ac 2ab'
loop_
_symmetry_equiv_pos_site_id
_symmetry_equiv_pos_as_xyz
1 x,y,z
2 1/2+x,1/2-y,-z
3 -x,1/2+y,1/2-z
4 1/2-x,-y,1/2+z
_cell_length_a                   6.611(3)
_cell_length_b                   14.222(6)
_cell_length_c                   20.570(9)
_cell_angle_alpha                90
_cell_angle_beta                 90
_cell_angle_gamma                90
_cell_volume                     1934.03
_exptl_crystal_colour            colorless
_exptl_crystal_description       prism
_cell_formula_units_Z            4
loop_
_atom_site_label
_atom_site_type_symbol
_atom_site_fract_x
_atom_site_fract_y
_atom_site_fract_z
Br1 Br 1.34614(19) 0.85267(8) 0.77042(5)
O1 O 0.6221(14) 0.9924(5) 0.5410(4)
N1 N 0.7291(14) 1.0540(7) 0.3878(4)
O2 O 0.2335(13) 1.0011(5) 0.4434(4)
O3 O 1.0734(13) 0.7708(5) 0.4681(4)
C1 C 0.8864(18) 0.8411(6) 0.6323(5)
H1 H 0.7537 0.8158 0.6292
O4 O 0.4220(13) 1.1335(5) 0.4332(4)
C2 C 1.1950(14) 0.8657(7) 0.6931(5)
C3 C 0.9934(18) 0.8373(8) 0.6914(6)
H2 H 0.9287 0.8155 0.7298
C4 C 0.9777(17) 0.8822(6) 0.5788(5)
N2 N 0.8744(16) 0.8837(6) 0.5179(4)
C5 C 0.7050(16) 0.9351(6) 0.5046(4)
C6 C 0.6254(17) 0.9058(7) 0.4372(5)
H3 H 0.5035 0.8654 0.4441
C7 C 0.5618(18) 0.9887(8) 0.3941(5)
C8 C 0.3879(18) 1.0416(6) 0.4271(5)
C9 C 0.269(2) 1.1898(9) 0.4677(6)
H4 H 0.3005 1.1924 0.5147
H5 H 0.1333 1.1612 0.4623
C10 C 0.271(2) 1.2872(9) 0.4392(7)
H6 H 0.3961 1.3193 0.4520
H7 H 0.1544 1.3226 0.4553
H8 H 0.2646 1.2830 0.3917
C11 C 1.2826(19) 0.9084(7) 0.6395(5)
H9 H 1.4173 0.9314 0.6418
C12 C 1.1730(19) 0.9173(7) 0.5830(5)
H10 H 1.2316 0.9478 0.5465
C13 C 0.854(2) 1.1110(8) 0.3841(5)
C14 C 0.503(2) 0.9527(7) 0.3257(5)
C15 C 0.625(2) 0.9645(7) 0.2738(5)
H11 H 0.7478 0.9989 0.2783
C16 C 0.573(3) 0.9267(9) 0.2138(5)
H12 H 0.6626 0.9347 0.1780
C17 C 0.398(3) 0.8785(8) 0.2051(7)
H13 H 0.3632 0.8518 0.1642
C18 C 0.271(2) 0.8700(7) 0.2586(7)
H14 H 0.1452 0.8388 0.2531
C19 C 0.319(2) 0.9042(8) 0.3185(6)
H15 H 0.2305 0.8956 0.3544
C20 C 0.7943(17) 0.8430(7) 0.4093(5)
H16 H 0.7381 0.7831 0.3926
H17 H 0.8666 0.8753 0.3736
C21 C 0.9345(17) 0.8255(7) 0.4665(5)
loop_
_geom_bond_atom_site_label_1
_geom_bond_atom_site_label_2
_geom_bond_site_symmetry_1
_geom_bond_site_symmetry_2
Br1 C2 1_555 1_555
O1 C5 1_555 1_555
N1 C7 1_555 1_555
O2 C8 1_555 1_555
O3 C21 1_555 1_555
C1 H1 1_555 1_555
O4 C8 1_555 1_555
C2 C3 1_555 1_555
C3 C1 1_555 1_555
H2 C3 1_555 1_555
C4 C1 1_555 1_555
N2 C4 1_555 1_555
C5 N2 1_555 1_555
C6 C5 1_555 1_555
H3 C6 1_555 1_555
C7 C6 1_555 1_555
C8 C7 1_555 1_555
C9 O4 1_555 1_555
H4 C9 1_555 1_555
H5 C9 1_555 1_555
C10 C9 1_555 1_555
H6 C10 1_555 1_555
H7 C10 1_555 1_555
H8 C10 1_555 1_555
C11 C2 1_555 1_555
H9 C11 1_555 1_555
C12 C4 1_555 1_555
H10 C12 1_555 1_555
C13 N1 1_555 1_555
C14 C7 1_555 1_555
C15 C14 1_555 1_555
H11 C15 1_555 1_555
C16 C15 1_555 1_555
H12 C16 1_555 1_555
C17 C16 1_555 1_555
H13 C17 1_555 1_555
C18 C17 1_555 1_555
H14 C18 1_555 1_555
C19 C14 1_555 1_555
H15 C19 1_555 1_555
C20 C6 1_555 1_555
H16 C20 1_555 1_555
H17 C20 1_555 1_555
C21 N2 1_555 1_555
C11 C12 1_555 1_555
C18 C19 1_555 1_555
C20 C21 1_555 1_555

#END
