
#######################################################################
#
#                 Cambridge Crystallographic Data Centre
#                                CCDC 
#
#######################################################################
#
# If this CIF has been generated from an entry in the Cambridge 
# Structural Database, then it will include bibliographic, chemical, 
# crystal, experimental, refinement or atomic coordinate data resulting 
# from the CCDC's data processing and validation procedures.
#
#######################################################################

data_REMLUS
_chemical_formula_moiety         'C22 H24 O6'
_chemical_name_systematic        
"Ethyl 2'-acetoxy-4'-cyclopropyl-1-oxo-3,4-dihydro-1H,4'H-spiro[naphthalene-2,3'-pyran]-6'-carboxylate"
_symmetry_cell_setting           trigonal
_symmetry_space_group_name_H-M   'P 32'
_symmetry_Int_Tables_number      145
_space_group_name_Hall           'P 32'
loop_
_symmetry_equiv_pos_site_id
_symmetry_equiv_pos_as_xyz
1 x,y,z
2 -y,x-y,2/3+z
3 -x+y,-x,1/3+z
_cell_length_a                   9.3573(2)
_cell_length_b                   9.3573(2)
_cell_length_c                   40.4414(15)
_cell_angle_alpha                90
_cell_angle_beta                 90
_cell_angle_gamma                120
_cell_volume                     3066.61
_exptl_crystal_colour            colorless
_exptl_crystal_description       block
_cell_formula_units_Z            6
loop_
_atom_site_label
_atom_site_type_symbol
_atom_site_fract_x
_atom_site_fract_y
_atom_site_fract_z
O1 O 0.8081(5) 0.5153(5) 0.63544(11)
O2 O 0.3177(9) 0.4809(7) 0.6321(2)
O3 O 0.3970(4) 0.3336(4) 0.66330(12)
O4 O 0.4538(4) 0.5118(5) 0.70550(12)
O5 O 0.3440(5) 0.6370(6) 0.75135(13)
O6 O 0.5982(5) 0.8381(5) 0.76352(12)
C1 C 0.7178(11) 0.1929(10) 0.6195(2)
H1 H 0.7836 0.2753 0.6045
C2 C 0.6675(15) 0.0351(12) 0.6120(3)
H2 H 0.6959 0.0094 0.5917
C3 C 0.5715(16) -0.0929(11) 0.6347(3)
H3 H 0.5415 -0.2019 0.6302
C4 C 0.5248(10) -0.0511(8) 0.6631(2)
H4 H 0.4570 -0.1348 0.6777
C5 C 0.5728(7) 0.1092(7) 0.67156(18)
C6 C 0.6737(7) 0.2367(7) 0.64927(16)
C7 C 0.7262(6) 0.4094(6) 0.65572(13)
C8 C 0.6727(6) 0.4577(6) 0.68701(13)
C9 C 0.6312(7) 0.3281(6) 0.71439(15)
H5 H 0.5786 0.3521 0.7325
H6 H 0.7335 0.3392 0.7227
C10 C 0.5184(8) 0.1487(7) 0.70356(17)
H7 H 0.5173 0.0755 0.7207
H8 H 0.4067 0.1285 0.7011
C11 C 0.8053(6) 0.6306(6) 0.69821(14)
H9 H 0.8431 0.7000 0.6784
C12 C 0.7307(6) 0.7034(6) 0.72066(14)
H10 H 0.8019 0.7958 0.7330
C13 C 0.5695(6) 0.6445(6) 0.72404(14)
C14 C 0.5268(7) 0.4783(7) 0.67729(14)
H11 H 0.5636 0.5691 0.6614
C15 C 0.9567(6) 0.6411(7) 0.71418(17)
H12 H 0.9362 0.5834 0.7354
C16 C 1.0913(7) 0.6433(9) 0.6940(2)
H13 H 1.1446 0.5848 0.7026
H14 H 1.0802 0.6407 0.6701
C17 C 1.1217(8) 0.7956(8) 0.7115(2)
H15 H 1.1287 0.8854 0.6983
H16 H 1.1931 0.8295 0.7307
C18 C 0.3005(8) 0.3506(7) 0.64077(17)
C19 C 0.1725(12) 0.1882(11) 0.6276(2)
H17 H 0.1170 0.2050 0.6093
H18 H 0.0940 0.1276 0.6447
H19 H 0.2238 0.1270 0.6203
C20 C 0.4887(6) 0.7043(6) 0.74823(15)
C21 C 0.5308(7) 0.8997(7) 0.78791(16)
H20 H 0.4691 0.8147 0.8042
H21 H 0.4560 0.9292 0.7774
C22 C 0.6708(10) 1.0512(13) 0.8049(3)
H22 H 0.6268 1.0853 0.8227
H23 H 0.7236 1.1393 0.7891
H24 H 0.7500 1.0240 0.8134
O7 O -0.1169(7) 0.5668(7) 0.89419(12)
O8 O 0.3380(8) 1.0035(8) 0.89238(19)
O9 O 0.2639(5) 0.7752(5) 0.86264(12)
O10 O 0.2027(4) 0.8913(5) 0.82001(12)
O11 O 0.3113(5) 1.1312(6) 0.77493(15)
O12 O 0.0517(5) 1.0640(5) 0.76190(13)
C23 C -0.0994(8) 0.2826(9) 0.90373(17)
H25 H -0.1637 0.3021 0.9186
C24 C -0.0691(11) 0.1549(10) 0.9094(2)
H26 H -0.1132 0.0876 0.9279
C25 C 0.0264(11) 0.1286(10) 0.8876(2)
H27 H 0.0499 0.0448 0.8919
C26 C 0.0897(10) 0.2228(9) 0.8593(2)
H28 H 0.1511 0.1998 0.8444
C27 C 0.0606(6) 0.3501(6) 0.85367(14)
C28 C -0.0354(7) 0.3815(7) 0.87629(16)
C29 C -0.0597(7) 0.5248(7) 0.87227(14)
C30 C -0.0128(6) 0.6201(6) 0.83934(14)
C31 C 0.0279(7) 0.5313(7) 0.81207(14)
H29 H -0.0747 0.4426 0.8032
H30 H 0.0844 0.6087 0.7942
C32 C 0.1337(7) 0.4603(7) 0.82329(16)
H31 H 0.2435 0.5497 0.8285
H32 H 0.1434 0.3965 0.8054
C33 C -0.1495(6) 0.6582(6) 0.82895(14)
H33 H -0.1834 0.6921 0.8490
C34 C -0.0765(6) 0.8052(6) 0.80586(15)
H34 H -0.1479 0.8265 0.7936
C35 C 0.0838(6) 0.9045(7) 0.80233(14)
C36 C 0.1341(6) 0.7904(7) 0.84820(15)
H35 H 0.0975 0.8456 0.8638
C37 C -0.3027(6) 0.5143(7) 0.81469(17)
H36 H -0.2879 0.4690 0.7939
C38 C -0.4321(8) 0.3920(8) 0.8378(2)
H37 H -0.4903 0.2769 0.8312
H38 H -0.4125 0.4107 0.8614
C39 C -0.4647(7) 0.5092(9) 0.8187(2)
H39 H -0.4650 0.5988 0.8307
H40 H -0.5428 0.4650 0.8005
C40 C 0.3580(8) 0.8895(8) 0.88627(19)
C41 C 0.4748(12) 0.8492(13) 0.9018(3)
H41 H 0.4383 0.8091 0.9238
H42 H 0.5820 0.9463 0.9027
H43 H 0.4807 0.7657 0.8891
C42 C 0.1643(6) 1.0454(7) 0.77910(16)
C43 C 0.1176(8) 1.1963(8) 0.73768(17)
H44 H 0.1886 1.1819 0.7222
H45 H 0.1819 1.3021 0.7486
C44 C -0.0285(11) 1.1901(18) 0.7194(3)
H46 H -0.1075 1.1854 0.7352
H47 H -0.0796 1.0940 0.7056
H48 H 0.0097 1.2872 0.7060
loop_
_geom_bond_atom_site_label_1
_geom_bond_atom_site_label_2
_geom_bond_site_symmetry_1
_geom_bond_site_symmetry_2
O1 C7 1_555 1_555
O2 C18 1_555 1_555
O3 C14 1_555 1_555
O4 C13 1_555 1_555
O5 C20 1_555 1_555
O6 C20 1_555 1_555
O7 C29 1_555 1_555
O8 C40 1_555 1_555
O9 C36 1_555 1_555
O10 C35 1_555 1_555
O11 C42 1_555 1_555
O12 C42 1_555 1_555
C1 H1 1_555 1_555
C2 C1 1_555 1_555
H2 C2 1_555 1_555
C3 C2 1_555 1_555
H3 C3 1_555 1_555
C4 C3 1_555 1_555
H4 C4 1_555 1_555
C5 C4 1_555 1_555
C6 C1 1_555 1_555
C7 C6 1_555 1_555
C8 C7 1_555 1_555
C9 C8 1_555 1_555
H5 C9 1_555 1_555
H6 C9 1_555 1_555
C10 C5 1_555 1_555
H7 C10 1_555 1_555
H8 C10 1_555 1_555
C11 C8 1_555 1_555
H9 C11 1_555 1_555
C12 C11 1_555 1_555
H10 C12 1_555 1_555
C13 C12 1_555 1_555
C14 O4 1_555 1_555
H11 C14 1_555 1_555
C15 C11 1_555 1_555
H12 C15 1_555 1_555
C16 C15 1_555 1_555
H13 C16 1_555 1_555
H14 C16 1_555 1_555
C17 C15 1_555 1_555
H15 C17 1_555 1_555
H16 C17 1_555 1_555
C18 O3 1_555 1_555
C19 C18 1_555 1_555
H17 C19 1_555 1_555
H18 C19 1_555 1_555
H19 C19 1_555 1_555
C20 C13 1_555 1_555
C21 O6 1_555 1_555
H20 C21 1_555 1_555
H21 C21 1_555 1_555
C22 C21 1_555 1_555
H22 C22 1_555 1_555
H23 C22 1_555 1_555
H24 C22 1_555 1_555
C23 H25 1_555 1_555
C24 C23 1_555 1_555
H26 C24 1_555 1_555
C25 C24 1_555 1_555
H27 C25 1_555 1_555
C26 C25 1_555 1_555
H28 C26 1_555 1_555
C27 C26 1_555 1_555
C28 C23 1_555 1_555
C29 C28 1_555 1_555
C30 C29 1_555 1_555
C31 C30 1_555 1_555
H29 C31 1_555 1_555
H30 C31 1_555 1_555
C32 C27 1_555 1_555
H31 C32 1_555 1_555
H32 C32 1_555 1_555
C33 C30 1_555 1_555
H33 C33 1_555 1_555
C34 C33 1_555 1_555
H34 C34 1_555 1_555
C35 C34 1_555 1_555
C36 O10 1_555 1_555
H35 C36 1_555 1_555
C37 C33 1_555 1_555
H36 C37 1_555 1_555
C38 C37 1_555 1_555
H37 C38 1_555 1_555
H38 C38 1_555 1_555
C39 C37 1_555 1_555
H39 C39 1_555 1_555
H40 C39 1_555 1_555
C40 O9 1_555 1_555
C41 C40 1_555 1_555
H41 C41 1_555 1_555
H42 C41 1_555 1_555
H43 C41 1_555 1_555
C42 C35 1_555 1_555
C43 O12 1_555 1_555
H44 C43 1_555 1_555
H45 C43 1_555 1_555
C44 C43 1_555 1_555
H46 C44 1_555 1_555
H47 C44 1_555 1_555
H48 C44 1_555 1_555
C5 C6 1_555 1_555
C8 C14 1_555 1_555
C9 C10 1_555 1_555
C16 C17 1_555 1_555
C27 C28 1_555 1_555
C30 C36 1_555 1_555
C31 C32 1_555 1_555
C38 C39 1_555 1_555

#END
