
#######################################################################
#
#                 Cambridge Crystallographic Data Centre
#                                CCDC 
#
#######################################################################
#
# If this CIF has been generated from an entry in the Cambridge 
# Structural Database, then it will include bibliographic, chemical, 
# crystal, experimental, refinement or atomic coordinate data resulting 
# from the CCDC's data processing and validation procedures.
#
#######################################################################

data_REMPEH
_chemical_formula_moiety         'C24 H22 I2 O4'
_chemical_name_systematic        
11,22-bis(iodo)-5,7,8,9,16,18,19,20-octahydro-5,21:10,16-diepoxydibenzo[c,l][1,10]dioxacyclooctadecine
_symmetry_cell_setting           monoclinic
_symmetry_space_group_name_H-M   'P 21/n'
_symmetry_Int_Tables_number      14
_space_group_name_Hall           '-P 2yn'
loop_
_symmetry_equiv_pos_site_id
_symmetry_equiv_pos_as_xyz
1 x,y,z
2 1/2-x,1/2+y,1/2-z
3 -x,-y,-z
4 1/2+x,1/2-y,1/2+z
_cell_length_a                   13.6316(5)
_cell_length_b                   11.6665(5)
_cell_length_c                   14.3791(7)
_cell_angle_alpha                90
_cell_angle_beta                 104.063(4)
_cell_angle_gamma                90
_cell_volume                     2218.22
_exptl_crystal_colour            colorless
_exptl_crystal_description       block
_cell_formula_units_Z            4
loop_
_atom_site_label
_atom_site_type_symbol
_atom_site_fract_x
_atom_site_fract_y
_atom_site_fract_z
I1 I 0.09288(3) -0.03729(4) -0.08690(3)
O1 O 0.4400(2) 0.1261(3) -0.1213(2)
O2 O 0.3679(2) 0.1545(3) 0.0073(2)
C1 C 0.3855(4) 0.2026(4) -0.0786(3)
H1 H 0.4249 0.2732 -0.0625
C2 C 0.2899(4) 0.2298(4) -0.1510(4)
C3 C 0.2847(5) 0.3189(5) -0.2162(4)
H2 H 0.3400 0.3673 -0.2112
C4 C 0.1992(5) 0.3365(5) -0.2878(5)
H3 H 0.1963 0.3972 -0.3303
C5 C 0.1170(4) 0.2638(5) -0.2968(4)
H4 H 0.0596 0.2739 -0.3464
C6 C 0.1211(4) 0.1758(5) -0.2312(4)
H5 H 0.0658 0.1273 -0.2373
C7 C 0.2057(3) 0.1589(4) -0.1569(3)
C8 C 0.2140(3) 0.0750(4) -0.0802(3)
C9 C 0.2907(3) 0.0761(4) -0.0021(3)
C10 C 0.3028(4) 0.0050(5) 0.0867(4)
H6 H 0.2621 -0.0637 0.0706
H7 H 0.2762 0.0478 0.1330
C11 C 0.4108(4) -0.0304(5) 0.1336(4)
H8 H 0.4526 0.0378 0.1471
H9 H 0.4121 -0.0676 0.1943
C12 C 0.5446(4) 0.1108(4) -0.0722(4)
H10 H 0.5501 0.0780 -0.0092
H11 H 0.5798 0.1838 -0.0648
I1B I 0.90712(3) 0.03729(4) 0.08690(3)
O1B O 0.5600(2) -0.1261(3) 0.1213(2)
O2B O 0.6321(2) -0.1545(3) -0.0073(2)
C1B C 0.6145(4) -0.2026(4) 0.0786(3)
H1B H 0.5751 -0.2732 0.0625
C2B C 0.7101(4) -0.2298(4) 0.1510(4)
C3B C 0.7153(5) -0.3189(5) 0.2162(4)
H2B H 0.6600 -0.3673 0.2112
C4B C 0.8008(5) -0.3365(5) 0.2878(5)
H3B H 0.8037 -0.3972 0.3303
C5B C 0.8830(4) -0.2638(5) 0.2968(4)
H4B H 0.9404 -0.2739 0.3464
C6B C 0.8789(4) -0.1758(5) 0.2312(4)
H5B H 0.9342 -0.1273 0.2373
C7B C 0.7943(3) -0.1589(4) 0.1569(3)
C8B C 0.7860(3) -0.0750(4) 0.0802(3)
C9B C 0.7093(3) -0.0761(4) 0.0021(3)
C10B C 0.6972(4) -0.0050(5) -0.0867(4)
H6B H 0.7379 0.0637 -0.0706
H7B H 0.7238 -0.0478 -0.1330
C11B C 0.5892(4) 0.0304(5) -0.1336(4)
H8B H 0.5474 -0.0378 -0.1471
H9B H 0.5879 0.0676 -0.1943
C12B C 0.4554(4) -0.1108(4) 0.0722(4)
H10B H 0.4499 -0.0780 0.0092
H11B H 0.4202 -0.1838 0.0648
I2 I 0.40796(2) 0.52168(3) 0.07580(3)
O3 O 0.0505(2) 0.5958(3) 0.1412(2)
O4 O 0.1134(2) 0.6776(3) 0.0201(2)
C13 C 0.0944(4) 0.6939(4) 0.1134(3)
H12 H 0.0476 0.7584 0.1104
C14 C 0.1885(4) 0.7181(4) 0.1884(4)
C15 C 0.1873(4) 0.7815(5) 0.2690(4)
H13 H 0.1271 0.8156 0.2741
C16 C 0.2728(4) 0.7958(5) 0.3425(5)
H14 H 0.2702 0.8384 0.3965
C17 C 0.3622(4) 0.7464(5) 0.3347(4)
H15 H 0.4203 0.7549 0.3839
C18 C 0.3652(4) 0.6843(4) 0.2539(4)
H16 H 0.4261 0.6516 0.2493
C19 C 0.2801(3) 0.6690(4) 0.1792(3)
C20 C 0.2778(3) 0.6089(4) 0.0892(3)
C21 C 0.1991(4) 0.6180(4) 0.0141(4)
C22 C 0.1896(4) 0.5748(5) -0.0861(4)
H17 H 0.2377 0.5130 -0.0838
H18 H 0.2080 0.6362 -0.1240
C23 C 0.0845(4) 0.5313(5) -0.1369(4)
H19 H 0.0357 0.5919 -0.1373
H20 H 0.0838 0.5139 -0.2030
C24 C -0.0522(3) 0.5738(4) 0.0911(4)
H21 H -0.0569 0.5603 0.0236
H22 H -0.0949 0.6385 0.0970
I2B I -0.40796(2) 0.47832(3) -0.07580(3)
O3B O -0.0505(2) 0.4042(3) -0.1412(2)
O4B O -0.1134(2) 0.3224(3) -0.0201(2)
C13B C -0.0944(4) 0.3061(4) -0.1134(3)
H12B H -0.0476 0.2416 -0.1104
C14B C -0.1885(4) 0.2819(4) -0.1884(4)
C15B C -0.1873(4) 0.2185(5) -0.2690(4)
H13B H -0.1271 0.1844 -0.2741
C16B C -0.2728(4) 0.2042(5) -0.3425(5)
H14B H -0.2702 0.1616 -0.3965
C17B C -0.3622(4) 0.2536(5) -0.3347(4)
H15B H -0.4203 0.2451 -0.3839
C18B C -0.3652(4) 0.3157(4) -0.2539(4)
H16B H -0.4261 0.3484 -0.2493
C19B C -0.2801(3) 0.3310(4) -0.1792(3)
C20B C -0.2778(3) 0.3911(4) -0.0892(3)
C21B C -0.1991(4) 0.3820(4) -0.0141(4)
C22B C -0.1896(4) 0.4252(5) 0.0861(4)
H17B H -0.2377 0.4870 0.0838
H18B H -0.2080 0.3638 0.1240
C23B C -0.0845(4) 0.4687(5) 0.1369(4)
H19B H -0.0357 0.4081 0.1373
H20B H -0.0838 0.4861 0.2030
C24B C 0.0522(3) 0.4262(4) -0.0911(4)
H21B H 0.0569 0.4397 -0.0236
H22B H 0.0949 0.3615 -0.0970
loop_
_geom_bond_atom_site_label_1
_geom_bond_atom_site_label_2
_geom_bond_site_symmetry_1
_geom_bond_site_symmetry_2
I1 C8 1_555 1_555
O1 C1 1_555 1_555
O2 C1 1_555 1_555
C1 H1 1_555 1_555
C2 C1 1_555 1_555
C3 C2 1_555 1_555
H2 C3 1_555 1_555
C4 C3 1_555 1_555
H3 C4 1_555 1_555
C5 C4 1_555 1_555
H4 C5 1_555 1_555
C6 C5 1_555 1_555
H5 C6 1_555 1_555
C7 C2 1_555 1_555
C8 C7 1_555 1_555
C9 O2 1_555 1_555
C10 C9 1_555 1_555
H6 C10 1_555 1_555
H7 C10 1_555 1_555
C11 C10 1_555 1_555
H8 C11 1_555 1_555
H9 C11 1_555 1_555
C12 O1 1_555 1_555
H10 C12 1_555 1_555
H11 C12 1_555 1_555
I2 C20 1_555 1_555
O3 C13 1_555 1_555
O4 C13 1_555 1_555
C13 H12 1_555 1_555
C14 C13 1_555 1_555
C15 C14 1_555 1_555
H13 C15 1_555 1_555
C16 C15 1_555 1_555
H14 C16 1_555 1_555
C17 C16 1_555 1_555
H15 C17 1_555 1_555
C18 C17 1_555 1_555
H16 C18 1_555 1_555
C19 C14 1_555 1_555
C20 C19 1_555 1_555
C21 O4 1_555 1_555
C22 C21 1_555 1_555
H17 C22 1_555 1_555
H18 C22 1_555 1_555
C23 C22 1_555 1_555
H19 C23 1_555 1_555
H20 C23 1_555 1_555
C24 O3 1_555 1_555
H21 C24 1_555 1_555
H22 C24 1_555 1_555
I1B C8B 1_555 1_555
O1B C1B 1_555 1_555
O2B C1B 1_555 1_555
C1B H1B 1_555 1_555
C2B C1B 1_555 1_555
C3B C2B 1_555 1_555
H2B C3B 1_555 1_555
C4B C3B 1_555 1_555
H3B C4B 1_555 1_555
C5B C4B 1_555 1_555
H4B C5B 1_555 1_555
C6B C5B 1_555 1_555
H5B C6B 1_555 1_555
C7B C2B 1_555 1_555
C8B C7B 1_555 1_555
C9B O2B 1_555 1_555
C10B C9B 1_555 1_555
H6B C10B 1_555 1_555
H7B C10B 1_555 1_555
C11B C12 1_555 1_555
H8B C11B 1_555 1_555
H9B C11B 1_555 1_555
C12B C11 1_555 1_555
H10B C12B 1_555 1_555
H11B C12B 1_555 1_555
I2B C20B 1_555 1_555
O3B C13B 1_555 1_555
O4B C13B 1_555 1_555
C13B H12B 1_555 1_555
C14B C13B 1_555 1_555
C15B C14B 1_555 1_555
H13B C15B 1_555 1_555
C16B C15B 1_555 1_555
H14B C16B 1_555 1_555
C17B C16B 1_555 1_555
H15B C17B 1_555 1_555
C18B C17B 1_555 1_555
H16B C18B 1_555 1_555
C19B C14B 1_555 1_555
C20B C19B 1_555 1_555
C21B O4B 1_555 1_555
C22B C21B 1_555 1_555
H17B C22B 1_555 1_555
H18B C22B 1_555 1_555
C23B C24 1_555 1_555
H19B C23B 1_555 1_555
H20B C23B 1_555 1_555
C24B C23 1_555 1_555
H21B C24B 1_555 1_555
H22B C24B 1_555 1_555
C6 C7 1_555 1_555
C8 C9 1_555 1_555
C18 C19 1_555 1_555
C20 C21 1_555 1_555
O1B C12B 1_555 1_555
C6B C7B 1_555 1_555
C8B C9B 1_555 1_555
C10B C11B 1_555 1_555
O3B C24B 1_555 1_555
C18B C19B 1_555 1_555
C20B C21B 1_555 1_555
C22B C23B 1_555 1_555

#END
