
#######################################################################
#
#                 Cambridge Crystallographic Data Centre
#                                CCDC 
#
#######################################################################
#
# If this CIF has been generated from an entry in the Cambridge 
# Structural Database, then it will include bibliographic, chemical, 
# crystal, experimental, refinement or atomic coordinate data resulting 
# from the CCDC's data processing and validation procedures.
#
#######################################################################

data_REMPIL
_chemical_formula_moiety         'C26 H26 I2 O4'
_chemical_name_systematic        
12,24-bis(iodo)-8,9,10,17,19,20,21,22-octahydro-5H,7H-5,23:11,17-diepoxydibenzo[c,m][1,11]dioxacycloicosine
_symmetry_cell_setting           monoclinic
_symmetry_space_group_name_H-M   'P 21/n'
_symmetry_Int_Tables_number      14
_space_group_name_Hall           '-P 2yn'
loop_
_symmetry_equiv_pos_site_id
_symmetry_equiv_pos_as_xyz
1 x,y,z
2 1/2-x,1/2+y,1/2-z
3 -x,-y,-z
4 1/2+x,1/2-y,1/2+z
_cell_length_a                   15.8653(4)
_cell_length_b                   9.9024(3)
_cell_length_c                   16.1760(6)
_cell_angle_alpha                90
_cell_angle_beta                 105.381(3)
_cell_angle_gamma                90
_cell_volume                     2450.3
_exptl_crystal_colour            colorless
_exptl_crystal_description       block
_cell_formula_units_Z            4
loop_
_atom_site_label
_atom_site_type_symbol
_atom_site_fract_x
_atom_site_fract_y
_atom_site_fract_z
I1 I 0.035858(19) 0.36104(4) 0.09627(2)
I2 I -0.01037(2) 0.69749(4) -0.36041(3)
O1 O -0.20614(18) 0.2393(3) -0.08117(19)
O2 O -0.22547(18) 0.4398(3) -0.15942(18)
O3 O -0.03428(19) 0.2703(3) -0.4095(2)
O4 O 0.04644(19) 0.1900(3) -0.27643(19)
C1 C -0.0954(3) 0.3438(5) 0.0261(3)
C2 C -0.1586(3) 0.4415(4) 0.0422(3)
C3 C -0.1459(3) 0.5249(5) 0.1140(3)
H1 H -0.0922 0.5240 0.1550
C4 C -0.2114(4) 0.6085(5) 0.1253(3)
H2 H -0.2011 0.6644 0.1731
C5 C -0.2915(4) 0.6100(5) 0.0667(3)
H3 H -0.3360 0.6648 0.0754
C6 C -0.3057(3) 0.5289(5) -0.0056(3)
H4 H -0.3600 0.5298 -0.0456
C7 C -0.2402(3) 0.4467(5) -0.0189(3)
C8 C -0.2530(3) 0.3637(5) -0.0981(3)
H5 H -0.3154 0.3438 -0.1203
C9 C -0.2486(3) 0.3807(6) -0.2441(3)
H6 H -0.3090 0.4009 -0.2729
H7 H -0.2418 0.2833 -0.2399
C10 C -0.1889(3) 0.4389(5) -0.2944(3)
H8 H -0.1996 0.5351 -0.3022
H9 H -0.1285 0.4266 -0.2621
C11 C -0.2032(3) 0.3724(6) -0.3809(3)
H10 H -0.2642 0.3818 -0.4120
H11 H -0.1907 0.2767 -0.3726
C12 C -0.1467(3) 0.4317(5) -0.4344(3)
H12 H -0.1659 0.3948 -0.4919
H13 H -0.1562 0.5285 -0.4387
C13 C -0.0505(3) 0.4062(5) -0.4005(3)
C14 C 0.0154(3) 0.4910(5) -0.3709(3)
C15 C 0.1067(3) 0.4500(5) -0.3541(3)
C16 C 0.1787(3) 0.5370(5) -0.3369(3)
H14 H 0.1703 0.6290 -0.3307
C17 C 0.2619(3) 0.4888(6) -0.3291(3)
H15 H 0.3088 0.5484 -0.3185
C18 C 0.2759(3) 0.3512(6) -0.3368(3)
H16 H 0.3320 0.3190 -0.3327
C19 C 0.2064(3) 0.2626(5) -0.3507(3)
H17 H 0.2157 0.1705 -0.3557
C20 C 0.1222(3) 0.3106(5) -0.3573(3)
C21 C 0.0485(3) 0.2159(5) -0.3613(3)
H18 H 0.0597 0.1313 -0.3879
C22 C -0.0005(3) 0.0686(5) -0.2679(3)
H19 H 0.0276 -0.0091 -0.2856
H20 H -0.0600 0.0738 -0.3040
C23 C -0.0009(3) 0.0544(5) -0.1756(3)
H21 H 0.0589 0.0563 -0.1402
H22 H -0.0256 -0.0327 -0.1676
C24 C -0.0526(3) 0.1642(5) -0.1458(3)
H23 H -0.1087 0.1737 -0.1876
H24 H -0.0216 0.2491 -0.1437
C25 C -0.0681(3) 0.1379(5) -0.0580(3)
H25 H -0.0986 0.0527 -0.0594
H26 H -0.0122 0.1304 -0.0155
C26 C -0.1203(3) 0.2476(5) -0.0321(3)
loop_
_geom_bond_atom_site_label_1
_geom_bond_atom_site_label_2
_geom_bond_site_symmetry_1
_geom_bond_site_symmetry_2
I1 C1 1_555 1_555
I2 C14 1_555 1_555
O1 C8 1_555 1_555
O2 C8 1_555 1_555
O3 C13 1_555 1_555
O4 C21 1_555 1_555
C1 C2 1_555 1_555
C2 C3 1_555 1_555
C3 H1 1_555 1_555
C4 C3 1_555 1_555
H2 C4 1_555 1_555
C5 C4 1_555 1_555
H3 C5 1_555 1_555
C6 C5 1_555 1_555
H4 C6 1_555 1_555
C7 C2 1_555 1_555
C8 C7 1_555 1_555
H5 C8 1_555 1_555
C9 O2 1_555 1_555
H6 C9 1_555 1_555
H7 C9 1_555 1_555
C10 C9 1_555 1_555
H8 C10 1_555 1_555
H9 C10 1_555 1_555
C11 C10 1_555 1_555
H10 C11 1_555 1_555
H11 C11 1_555 1_555
C12 C11 1_555 1_555
H12 C12 1_555 1_555
H13 C12 1_555 1_555
C13 C12 1_555 1_555
C14 C13 1_555 1_555
C15 C14 1_555 1_555
C16 C15 1_555 1_555
H14 C16 1_555 1_555
C17 C16 1_555 1_555
H15 C17 1_555 1_555
C18 C17 1_555 1_555
H16 C18 1_555 1_555
C19 C18 1_555 1_555
H17 C19 1_555 1_555
C20 C15 1_555 1_555
C21 O3 1_555 1_555
H18 C21 1_555 1_555
C22 O4 1_555 1_555
H19 C22 1_555 1_555
H20 C22 1_555 1_555
C23 C22 1_555 1_555
H21 C23 1_555 1_555
H22 C23 1_555 1_555
C24 C23 1_555 1_555
H23 C24 1_555 1_555
H24 C24 1_555 1_555
C25 C24 1_555 1_555
H25 C25 1_555 1_555
H26 C25 1_555 1_555
C26 O1 1_555 1_555
C1 C26 1_555 1_555
C6 C7 1_555 1_555
C19 C20 1_555 1_555
C20 C21 1_555 1_555
C25 C26 1_555 1_555

#END
