
#######################################################################
#
#                 Cambridge Crystallographic Data Centre
#                                CCDC 
#
#######################################################################
#
# If this CIF has been generated from an entry in the Cambridge 
# Structural Database, then it will include bibliographic, chemical, 
# crystal, experimental, refinement or atomic coordinate data resulting 
# from the CCDC's data processing and validation procedures.
#
#######################################################################

data_REMQEI
_chemical_formula_moiety         'C12 H9 N1 O2 S1'
_chemical_name_systematic        
3-phenyl-6,7-dihydro-4H-pyrano[4,3-c][1,2]thiazol-4-one
_symmetry_cell_setting           monoclinic
_symmetry_space_group_name_H-M   'P 21/c'
_symmetry_Int_Tables_number      14
_space_group_name_Hall           '-P 2ybc'
loop_
_symmetry_equiv_pos_site_id
_symmetry_equiv_pos_as_xyz
1 x,y,z
2 -x,1/2+y,1/2-z
3 -x,-y,-z
4 x,1/2-y,1/2+z
_cell_length_a                   12.2740(4)
_cell_length_b                   11.8466(4)
_cell_length_c                   7.7264(2)
_cell_angle_alpha                90
_cell_angle_beta                 105.4655(13)
_cell_angle_gamma                90
_cell_volume                     1082.78
_exptl_crystal_colour            colorless
_exptl_crystal_description       block
_cell_formula_units_Z            4
loop_
_atom_site_label
_atom_site_type_symbol
_atom_site_fract_x
_atom_site_fract_y
_atom_site_fract_z
C1 C 0.3310(3) 0.1213(3) 0.0514(4)
C2 C 0.2885(3) 0.0037(3) 0.0510(5)
H1 H 0.2971 -0.0222 0.173
H2 H 0.3305 -0.0466 -0.0067
C3 C 0.1651(3) 0.0053(3) -0.0516(5)
H3 H 0.1585 0.0246 -0.1759
H4 H 0.1334 -0.0695 -0.0491
C4 C 0.1412(3) 0.1903(3) 0.0672(4)
C5 C 0.2562(2) 0.2132(2) 0.0500(4)
C6 C 0.3097(2) 0.3155(3) 0.0486(4)
C7 C 0.2689(2) 0.4326(2) 0.0400(4)
C8 C 0.3406(3) 0.5201(3) 0.1214(5)
H5 H 0.4143 0.5039 0.1864
C9 C 0.3035(3) 0.6294(3) 0.1064(6)
H6 H 0.3527 0.6868 0.16
C10 C 0.1942(3) 0.6559(3) 0.0129(6)
H7 H 0.169 0.7302 0.0046
C11 C 0.1233(3) 0.5701(3) -0.0676(5)
H8 H 0.0498 0.5874 -0.1322
C12 C 0.1579(2) 0.4601(3) -0.0554(4)
H9 H 0.108 0.4035 -0.1102
N1 N 0.4353(2) 0.1482(3) 0.0481(4)
O1 O 0.1011(2) 0.08584(19) 0.0237(3)
O2 O 0.08477(19) 0.2565(2) 0.1248(4)
S1 S 0.44509(7) 0.28707(8) 0.04464(13)
loop_
_geom_bond_atom_site_label_1
_geom_bond_atom_site_label_2
_geom_bond_site_symmetry_1
_geom_bond_site_symmetry_2
C1 C2 1_555 1_555
C2 H1 1_555 1_555
H2 C2 1_555 1_555
C3 C2 1_555 1_555
H3 C3 1_555 1_555
H4 C3 1_555 1_555
C4 C5 1_555 1_555
C5 C1 1_555 1_555
C6 C5 1_555 1_555
C7 C6 1_555 1_555
C8 C7 1_555 1_555
H5 C8 1_555 1_555
C9 C8 1_555 1_555
H6 C9 1_555 1_555
C10 C9 1_555 1_555
H7 C10 1_555 1_555
C11 C10 1_555 1_555
H8 C11 1_555 1_555
C12 C7 1_555 1_555
H9 C12 1_555 1_555
N1 C1 1_555 1_555
O1 C3 1_555 1_555
O2 C4 1_555 1_555
S1 C6 1_555 1_555
C4 O1 1_555 1_555
C11 C12 1_555 1_555
N1 S1 1_555 1_555

#END
