
#######################################################################
#
#                 Cambridge Crystallographic Data Centre
#                                CCDC 
#
#######################################################################
#
# If this CIF has been generated from an entry in the Cambridge 
# Structural Database, then it will include bibliographic, chemical, 
# crystal, experimental, refinement or atomic coordinate data resulting 
# from the CCDC's data processing and validation procedures.
#
#######################################################################

data_REMQIM
_chemical_formula_moiety         'C16 H15 N1 O2 S1'
_chemical_name_systematic        
3'-phenyl-4'H-spiro[cyclohexane-1,6'-furo[3,4-c][1,2]thiazol]-4'-one
_symmetry_cell_setting           triclinic
_symmetry_space_group_name_H-M   'P -1'
_symmetry_Int_Tables_number      2
_space_group_name_Hall           '-P 1'
loop_
_symmetry_equiv_pos_site_id
_symmetry_equiv_pos_as_xyz
1 x,y,z
2 -x,-y,-z
_cell_length_a                   7.0936(3)
_cell_length_b                   9.3673(4)
_cell_length_c                   10.8449(4)
_cell_angle_alpha                103.1892(14)
_cell_angle_beta                 97.2730(16)
_cell_angle_gamma                90.9588(16)
_cell_volume                     695.19
_exptl_crystal_colour            colorless
_exptl_crystal_description       block
_cell_formula_units_Z            2
loop_
_atom_site_label
_atom_site_type_symbol
_atom_site_fract_x
_atom_site_fract_y
_atom_site_fract_z
C1 C -0.0016(4) -0.0969(3) 0.6757(3)
H1 H -0.0367 -0.0692 0.5953
H2 H -0.0973 -0.0621 0.7305
C2 C -0.0011(5) -0.2631(3) 0.6510(3)
H3 H 0.014 -0.292 0.732
H4 H -0.1221 -0.305 0.6036
C3 C 0.1578(5) -0.3225(3) 0.5764(3)
H5 H 0.135 -0.303 0.4918
H6 H 0.1591 -0.428 0.5665
C4 C 0.3510(5) -0.2528(3) 0.6434(3)
H7 H 0.3802 -0.2813 0.724
H8 H 0.4488 -0.2886 0.5907
C5 C 0.3515(4) -0.0861(3) 0.6679(3)
H9 H 0.4712 -0.045 0.7179
H10 H 0.3425 -0.0578 0.5869
C6 C 0.1895(4) -0.0223(3) 0.7381(2)
C7 C 0.1900(4) 0.1419(3) 0.7610(2)
C8 C 0.2241(3) 0.2076(3) 0.8914(2)
C9 C 0.2461(4) 0.0885(3) 0.9605(2)
C10 C 0.2253(3) 0.3586(3) 0.9127(3)
C11 C 0.2574(3) 0.4764(3) 1.0301(3)
C12 C 0.2965(4) 0.4450(3) 1.1494(3)
H11 H 0.3002 0.348 1.1565
C13 C 0.3299(5) 0.5576(3) 1.2576(3)
H12 H 0.3565 0.5356 1.3373
C14 C 0.3245(4) 0.7023(3) 1.2495(3)
H13 H 0.347 0.7772 1.3233
C15 C 0.2856(5) 0.7357(3) 1.1316(3)
H14 H 0.2815 0.8331 1.1254
C16 C 0.2529(4) 0.6239(3) 1.0233(3)
H15 H 0.2273 0.6466 0.9439
N1 N 0.1634(4) 0.2258(3) 0.6791(2)
O1 O 0.2249(3) -0.0419(2) 0.87029(18)
O2 O 0.2781(4) 0.0920(2) 1.0721(2)
S1 S 0.18088(11) 0.39693(7) 0.76502(7)
loop_
_geom_bond_atom_site_label_1
_geom_bond_atom_site_label_2
_geom_bond_site_symmetry_1
_geom_bond_site_symmetry_2
C1 H1 1_555 1_555
H2 C1 1_555 1_555
C2 C1 1_555 1_555
H3 C2 1_555 1_555
H4 C2 1_555 1_555
C3 C2 1_555 1_555
H5 C3 1_555 1_555
H6 C3 1_555 1_555
C4 C3 1_555 1_555
H7 C4 1_555 1_555
H8 C4 1_555 1_555
C5 C4 1_555 1_555
H9 C5 1_555 1_555
H10 C5 1_555 1_555
C6 C1 1_555 1_555
C7 C6 1_555 1_555
C8 C7 1_555 1_555
C9 C8 1_555 1_555
C10 C8 1_555 1_555
C11 C10 1_555 1_555
C12 C11 1_555 1_555
H11 C12 1_555 1_555
C13 C12 1_555 1_555
H12 C13 1_555 1_555
C14 C13 1_555 1_555
H13 C14 1_555 1_555
C15 C14 1_555 1_555
H14 C15 1_555 1_555
C16 C11 1_555 1_555
H15 C16 1_555 1_555
N1 C7 1_555 1_555
O1 C6 1_555 1_555
O2 C9 1_555 1_555
S1 C10 1_555 1_555
C5 C6 1_555 1_555
C9 O1 1_555 1_555
C15 C16 1_555 1_555
N1 S1 1_555 1_555

#END
