
#######################################################################
#
#                 Cambridge Crystallographic Data Centre
#                                CCDC 
#
#######################################################################
#
# If this CIF has been generated from an entry in the Cambridge 
# Structural Database, then it will include bibliographic, chemical, 
# crystal, experimental, refinement or atomic coordinate data resulting 
# from the CCDC's data processing and validation procedures.
#
#######################################################################

data_REMTOU
_chemical_formula_moiety         'C32 H27 N1 O4'
_chemical_name_systematic        
6-(4-Methoxyphenyl)-8-methyl-2,4,5-triphenyl-4,5-dihydrofuro[3,4-d][1,6,2]dioxazepine
_symmetry_cell_setting           triclinic
_symmetry_space_group_name_H-M   'P -1'
_symmetry_Int_Tables_number      2
_space_group_name_Hall           '-P 1'
loop_
_symmetry_equiv_pos_site_id
_symmetry_equiv_pos_as_xyz
1 x,y,z
2 -x,-y,-z
_cell_length_a                   9.6239(10)
_cell_length_b                   10.3300(10)
_cell_length_c                   13.6641(14)
_cell_angle_alpha                78.638(3)
_cell_angle_beta                 78.284(3)
_cell_angle_gamma                72.108(3)
_cell_volume                     1252.51
_exptl_crystal_colour            colorless
_exptl_crystal_description       block
_cell_formula_units_Z            2
loop_
_atom_site_label
_atom_site_type_symbol
_atom_site_fract_x
_atom_site_fract_y
_atom_site_fract_z
O1 O 0.5434(2) 0.1105(2) -0.33383(16)
O2 O 0.26789(19) 0.33080(19) 0.31914(14)
O3 O 0.1074(2) 0.2014(2) 0.32156(15)
O4 O 0.1652(2) 0.05782(19) 0.09818(14)
N1 N 0.3917(2) 0.2825(2) 0.24450(17)
C1 C -0.0162(3) 0.3210(3) 0.4903(2)
H1 H -0.0734 0.3275 0.4413
C2 C -0.0819(3) 0.3712(3) 0.5797(2)
H2 H -0.1834 0.4119 0.5905
C3 C 0.0012(4) 0.3618(3) 0.6534(2)
H3 H -0.0437 0.3976 0.7130
C4 C 0.1521(4) 0.2987(3) 0.6381(2)
H4 H 0.2083 0.2902 0.6881
C5 C 0.2184(3) 0.2486(3) 0.5483(2)
H5 H 0.3195 0.2062 0.5381
C6 C 0.1347(3) 0.2610(3) 0.4730(2)
C7 C 0.5147(3) 0.3830(3) 0.3391(2)
H6 H 0.4348 0.3908 0.3911
C8 C 0.6366(3) 0.4223(3) 0.3475(2)
H7 H 0.6371 0.4575 0.4051
C9 C 0.7571(3) 0.4104(3) 0.2723(2)
H8 H 0.8380 0.4380 0.2782
C10 C 0.7556(3) 0.3568(3) 0.1880(2)
H9 H 0.8366 0.3475 0.1368
C11 C 0.6353(3) 0.3168(3) 0.1786(2)
H10 H 0.6370 0.2791 0.1218
C12 C 0.5117(3) 0.3320(3) 0.2530(2)
C13 C 0.3134(3) 0.5662(3) 0.1079(2)
H11 H 0.4119 0.5465 0.1157
C14 C 0.2330(3) 0.7012(3) 0.0863(2)
H12 H 0.2768 0.7715 0.0806
C15 C 0.0867(3) 0.7321(3) 0.0729(2)
H13 H 0.0321 0.8231 0.0581
C16 C 0.0232(3) 0.6274(3) 0.0816(2)
H14 H -0.0746 0.6474 0.0720
C17 C 0.1043(3) 0.4920(3) 0.1047(2)
H15 H 0.0597 0.4220 0.1112
C18 C 0.2507(3) 0.4591(3) 0.1184(2)
C19 C 0.4027(3) 0.2369(3) -0.0888(2)
H16 H 0.4009 0.3089 -0.0567
C20 C 0.4757(3) 0.2306(3) -0.1871(2)
H17 H 0.5236 0.2966 -0.2194
C21 C 0.4772(3) 0.1266(3) -0.2365(2)
C22 C 0.4021(3) 0.0309(3) -0.1878(2)
H18 H 0.3991 -0.0376 -0.2217
C23 C 0.3323(3) 0.0364(3) -0.0901(2)
H19 H 0.2840 -0.0296 -0.0585
C24 C 0.3321(3) 0.1391(3) -0.0369(2)
C25 C 0.2132(3) 0.2186(3) 0.3725(2)
H20 H 0.2939 0.1339 0.3809
C26 C 0.3395(3) 0.3099(3) 0.1456(2)
H21 H 0.4273 0.2917 0.0940
C27 C 0.2570(3) 0.2064(3) 0.1454(2)
C28 C 0.1582(3) 0.1587(3) 0.2284(2)
C29 C 0.1044(3) 0.0705(3) 0.1972(2)
C30 C 0.2596(3) 0.1409(3) 0.0677(2)
C31 C -0.0060(3) -0.0048(3) 0.2464(2)
H22 H -0.0387 0.0127 0.3150
H23 H 0.0381 -0.1016 0.2457
H24 H -0.0889 0.0256 0.2104
C32 C 0.6385(4) 0.1940(4) -0.3816(3)
H25 H 0.6782 0.1732 -0.4489
H26 H 0.7178 0.1759 -0.3437
H27 H 0.5835 0.2892 -0.3845
loop_
_geom_bond_atom_site_label_1
_geom_bond_atom_site_label_2
_geom_bond_site_symmetry_1
_geom_bond_site_symmetry_2
O1 C21 1_555 1_555
O2 N1 1_555 1_555
O3 C25 1_555 1_555
O4 C29 1_555 1_555
N1 C12 1_555 1_555
C1 H1 1_555 1_555
C2 C1 1_555 1_555
H2 C2 1_555 1_555
C3 C2 1_555 1_555
H3 C3 1_555 1_555
C4 C3 1_555 1_555
H4 C4 1_555 1_555
C5 C4 1_555 1_555
H5 C5 1_555 1_555
C6 C1 1_555 1_555
C7 H6 1_555 1_555
C8 C7 1_555 1_555
H7 C8 1_555 1_555
C9 C8 1_555 1_555
H8 C9 1_555 1_555
C10 C9 1_555 1_555
H9 C10 1_555 1_555
C11 C10 1_555 1_555
H10 C11 1_555 1_555
C12 C7 1_555 1_555
C13 H11 1_555 1_555
C14 C13 1_555 1_555
H12 C14 1_555 1_555
C15 C14 1_555 1_555
H13 C15 1_555 1_555
C16 C15 1_555 1_555
H14 C16 1_555 1_555
C17 C16 1_555 1_555
H15 C17 1_555 1_555
C18 C13 1_555 1_555
C19 H16 1_555 1_555
C20 C19 1_555 1_555
H17 C20 1_555 1_555
C21 C20 1_555 1_555
C22 C21 1_555 1_555
H18 C22 1_555 1_555
C23 C22 1_555 1_555
H19 C23 1_555 1_555
C24 C19 1_555 1_555
C25 O2 1_555 1_555
H20 C25 1_555 1_555
C26 N1 1_555 1_555
H21 C26 1_555 1_555
C27 C26 1_555 1_555
C28 O3 1_555 1_555
C29 C28 1_555 1_555
C30 O4 1_555 1_555
C31 C29 1_555 1_555
H22 C31 1_555 1_555
H23 C31 1_555 1_555
H24 C31 1_555 1_555
C32 O1 1_555 1_555
H25 C32 1_555 1_555
H26 C32 1_555 1_555
H27 C32 1_555 1_555
C5 C6 1_555 1_555
C6 C25 1_555 1_555
C11 C12 1_555 1_555
C17 C18 1_555 1_555
C18 C26 1_555 1_555
C23 C24 1_555 1_555
C24 C30 1_555 1_555
C27 C28 1_555 1_555
C27 C30 1_555 1_555

#END
