
#######################################################################
#
#                 Cambridge Crystallographic Data Centre
#                                CCDC 
#
#######################################################################
#
# If this CIF has been generated from an entry in the Cambridge 
# Structural Database, then it will include bibliographic, chemical, 
# crystal, experimental, refinement or atomic coordinate data resulting 
# from the CCDC's data processing and validation procedures.
#
#######################################################################

data_REMTEL
_chemical_formula_moiety         'C26 H23 N1 O4'
_chemical_name_systematic        
2-benzylidene-3'-(benzyloxy)-5',5'-dimethyl-2H,4'H-spiro[1-benzofuran-3,2'-[1,3]oxazolidin]-4'-one
_symmetry_cell_setting           triclinic
_symmetry_space_group_name_H-M   'P -1'
_symmetry_Int_Tables_number      2
_space_group_name_Hall           '-P 1'
loop_
_symmetry_equiv_pos_site_id
_symmetry_equiv_pos_as_xyz
1 x,y,z
2 -x,-y,-z
_cell_length_a                   11.0525(8)
_cell_length_b                   11.1109(8)
_cell_length_c                   11.4881(8)
_cell_angle_alpha                115.323(7)
_cell_angle_beta                 99.995(6)
_cell_angle_gamma                110.986(7)
_cell_volume                     1097.77
_cell_formula_units_Z            2
loop_
_atom_site_label
_atom_site_type_symbol
_atom_site_fract_x
_atom_site_fract_y
_atom_site_fract_z
O1 O 0.46677(11) 0.68561(13) 0.51533(11)
O2 O 0.41289(13) 0.81009(16) 0.28544(14)
O3 O 0.20337(12) 0.61418(13) 0.63171(11)
O4 O 0.17469(11) 0.69934(13) 0.34737(10)
N1 N 0.29921(13) 0.69797(16) 0.38874(13)
C1 C 0.32258(16) 0.64714(19) 0.48381(16)
C2 C 0.52484(17) 0.7439(2) 0.43479(17)
C3 C 0.40945(17) 0.75801(19) 0.35987(17)
C4 C 0.29576(16) 0.7246(2) 0.61557(16)
C5 C 0.16345(17) 0.4731(2) 0.51805(17)
C6 C 0.07064(18) 0.3364(2) 0.4970(2)
H1 H 0.0291 0.3325 0.5600
C7 C 0.0424(2) 0.2060(2) 0.3782(2)
H2 H -0.0196 0.1116 0.3605
C8 C 0.1045(2) 0.2123(2) 0.2844(2)
H3 H 0.0833 0.1225 0.2047
C9 C 0.19743(19) 0.3505(2) 0.30820(19)
H4 H 0.2395 0.3548 0.2456
C10 C 0.22686(16) 0.48242(19) 0.42698(17)
C11 C 0.65496(18) 0.8977(2) 0.5347(2)
H5 H 0.6318 0.9637 0.6023
H6 H 0.6895 0.9417 0.4835
H7 H 0.7260 0.8852 0.5817
C12 C 0.5570(2) 0.6303(3) 0.3319(2)
H8 H 0.6231 0.6150 0.3820
H9 H 0.5962 0.6689 0.2791
H10 H 0.4718 0.5351 0.2697
C13 C 0.35496(17) 0.8724(2) 0.70599(16)
H11 H 0.4107 0.9335 0.6802
C14 C 0.34646(17) 0.9555(2) 0.84103(17)
C15 C 0.44739(18) 1.1076(2) 0.93381(17)
H12 H 0.5132 1.1556 0.9060
C16 C 0.4517(2) 1.1888(2) 1.06657(18)
H13 H 0.5214 1.2898 1.1277
C17 C 0.3538(2) 1.1212(3) 1.1085(2)
H14 H 0.3571 1.1755 1.1981
C18 C 0.2509(2) 0.9727(3) 1.0172(2)
H15 H 0.1832 0.9273 1.0449
C19 C 0.24594(19) 0.8889(2) 0.88404(19)
H16 H 0.1755 0.7881 0.8235
C20 C 0.08159(19) 0.5702(2) 0.20559(18)
H17 H 0.0404 0.4769 0.2053
H18 H 0.1335 0.5591 0.1453
C21 C -0.03080(17) 0.6023(2) 0.15562(16)
C22 C 0.0028(2) 0.7318(2) 0.1526(2)
H19 H 0.0966 0.8021 0.1838
C23 C -0.1011(3) 0.7584(3) 0.1037(2)
H20 H -0.0772 0.8469 0.1023
C24 C -0.2393(2) 0.6560(3) 0.0570(2)
H21 H -0.3093 0.6746 0.0242
C25 C -0.2738(2) 0.5271(3) 0.0587(2)
H22 H -0.3678 0.4564 0.0258
C26 C -0.17044(19) 0.5004(2) 0.10881(19)
H23 H -0.1951 0.4124 0.1111
loop_
_geom_bond_atom_site_label_1
_geom_bond_atom_site_label_2
_geom_bond_site_symmetry_1
_geom_bond_site_symmetry_2
O1 C1 1_555 1_555
O2 C3 1_555 1_555
O3 C4 1_555 1_555
O4 N1 1_555 1_555
N1 C1 1_555 1_555
C1 C4 1_555 1_555
C2 O1 1_555 1_555
C3 N1 1_555 1_555
C4 C13 1_555 1_555
C5 O3 1_555 1_555
C6 C5 1_555 1_555
H1 C6 1_555 1_555
C7 C6 1_555 1_555
H2 C7 1_555 1_555
C8 C7 1_555 1_555
H3 C8 1_555 1_555
C9 C8 1_555 1_555
H4 C9 1_555 1_555
C10 C1 1_555 1_555
C11 C2 1_555 1_555
H5 C11 1_555 1_555
H6 C11 1_555 1_555
H7 C11 1_555 1_555
C12 C2 1_555 1_555
H8 C12 1_555 1_555
H9 C12 1_555 1_555
H10 C12 1_555 1_555
C13 H11 1_555 1_555
C14 C13 1_555 1_555
C15 C14 1_555 1_555
H12 C15 1_555 1_555
C16 C15 1_555 1_555
H13 C16 1_555 1_555
C17 C16 1_555 1_555
H14 C17 1_555 1_555
C18 C17 1_555 1_555
H15 C18 1_555 1_555
C19 C14 1_555 1_555
H16 C19 1_555 1_555
C20 O4 1_555 1_555
H17 C20 1_555 1_555
H18 C20 1_555 1_555
C21 C20 1_555 1_555
C22 C21 1_555 1_555
H19 C22 1_555 1_555
C23 C22 1_555 1_555
H20 C23 1_555 1_555
C24 C23 1_555 1_555
H21 C24 1_555 1_555
C25 C24 1_555 1_555
H22 C25 1_555 1_555
C26 C21 1_555 1_555
H23 C26 1_555 1_555
C2 C3 1_555 1_555
C5 C10 1_555 1_555
C9 C10 1_555 1_555
C18 C19 1_555 1_555
C25 C26 1_555 1_555

#END
