
#######################################################################
#
#                 Cambridge Crystallographic Data Centre
#                                CCDC 
#
#######################################################################
#
# If this CIF has been generated from an entry in the Cambridge 
# Structural Database, then it will include bibliographic, chemical, 
# crystal, experimental, refinement or atomic coordinate data resulting 
# from the CCDC's data processing and validation procedures.
#
#######################################################################

data_REMVAJ
_chemical_formula_moiety         'C19 H19 N1 O4'
_chemical_name_systematic        
2-benzyl-3'-hydroxy-5',5'-dimethyl-2H,4'H-spiro[1-benzofuran-3,2'-[1,3]oxazolidin]-4'-one
_symmetry_cell_setting           rhombohedral
_symmetry_space_group_name_H-M   'R -3'
_symmetry_Int_Tables_number      148
_space_group_name_Hall           '-R 3'
loop_
_symmetry_equiv_pos_site_id
_symmetry_equiv_pos_as_xyz
1 x,y,z
2 -y,x-y,z
3 -x+y,-x,z
4 2/3+x,1/3+y,1/3+z
5 2/3-y,1/3+x-y,1/3+z
6 2/3-x+y,1/3-x,1/3+z
7 1/3+x,2/3+y,2/3+z
8 1/3-y,2/3+x-y,2/3+z
9 1/3-x+y,2/3-x,2/3+z
10 -x,-y,-z
11 y,-x+y,-z
12 x-y,x,-z
13 1/3-x,2/3-y,2/3-z
14 1/3+y,2/3-x+y,2/3-z
15 1/3+x-y,2/3+x,2/3-z
16 2/3-x,1/3-y,1/3-z
17 2/3+y,1/3-x+y,1/3-z
18 2/3+x-y,1/3+x,1/3-z
_cell_length_a                   35.153(2)
_cell_length_b                   35.153(2)
_cell_length_c                   8.9968(5)
_cell_angle_alpha                90
_cell_angle_beta                 90
_cell_angle_gamma                120
_cell_volume                     9628.16
_cell_formula_units_Z            18
loop_
_atom_site_label
_atom_site_type_symbol
_atom_site_fract_x
_atom_site_fract_y
_atom_site_fract_z
O1 O 0.60110(7) 0.68248(7) 0.4588(2)
H1 H 0.6065 0.6668 0.4057
O2 O 0.67769(8) 0.70927(7) 0.6311(2)
O3 O 0.68231(8) 0.79449(7) 0.4112(3)
O4 O 0.57909(9) 0.75754(9) 0.2498(3)
N1 N 0.63763(8) 0.72399(8) 0.4662(3)
C1 C 0.67256(10) 0.73421(10) 0.5488(3)
C2 C 0.63694(11) 0.74571(11) 0.2068(4)
C3 C 0.64112(10) 0.75846(10) 0.3677(3)
C4 C 0.74774(12) 0.79106(13) 0.4606(5)
H2 H 0.7426 0.7732 0.3740
H3 H 0.7628 0.7838 0.5342
H4 H 0.7654 0.8215 0.4341
C5 C 0.60549(11) 0.77191(11) 0.3845(4)
H5 H 0.6205 0.8041 0.3870
C6 C 0.70432(11) 0.78282(10) 0.5227(4)
C7 C 0.60085(12) 0.74646(11) 0.1492(4)
C8 C 0.70956(15) 0.80878(12) 0.6634(5)
H6 H 0.7247 0.8396 0.6407
H7 H 0.7261 0.8028 0.7350
H8 H 0.6811 0.8004 0.7034
C9 C 0.64836(15) 0.72093(14) -0.0261(4)
H9 H 0.6640 0.7121 -0.0862
C10 C 0.66065(13) 0.73243(13) 0.1213(4)
H10 H 0.6844 0.7312 0.1613
C11 C 0.57641(13) 0.75515(13) 0.5198(4)
H11 H 0.5562 0.7239 0.5083
H12 H 0.5944 0.7592 0.6065
C12 C 0.61278(16) 0.72275(14) -0.0826(4)
H13 H 0.6051 0.7153 -0.1817
C13 C 0.58808(14) 0.73522(13) 0.0028(4)
H14 H 0.5640 0.7360 -0.0364
C14 C 0.55071(14) 0.77822(14) 0.5445(5)
C15 C 0.56983(18) 0.81924(16) 0.6099(5)
H15 H 0.5989 0.8324 0.6413
C16 C 0.5083(2) 0.7610(2) 0.4912(10)
H16 H 0.4950 0.7339 0.4437
C17 C 0.5468(2) 0.8411(2) 0.6297(6)
H17 H 0.5598 0.8678 0.6794
C18 C 0.5053(3) 0.8236(3) 0.5768(8)
H18 H 0.4901 0.8388 0.5874
C19 C 0.4853(3) 0.7829(3) 0.5066(11)
H19 H 0.4568 0.7706 0.4705
loop_
_geom_bond_atom_site_label_1
_geom_bond_atom_site_label_2
_geom_bond_site_symmetry_1
_geom_bond_site_symmetry_2
O1 H1 1_555 1_555
O2 C1 1_555 1_555
O3 C3 1_555 1_555
O4 C5 1_555 1_555
N1 O1 1_555 1_555
C1 N1 1_555 1_555
C2 C3 1_555 1_555
C3 N1 1_555 1_555
C4 H2 1_555 1_555
H3 C4 1_555 1_555
H4 C4 1_555 1_555
C5 C3 1_555 1_555
H5 C5 1_555 1_555
C6 O3 1_555 1_555
C7 O4 1_555 1_555
C8 C6 1_555 1_555
H6 C8 1_555 1_555
H7 C8 1_555 1_555
H8 C8 1_555 1_555
C9 H9 1_555 1_555
C10 C2 1_555 1_555
H10 C10 1_555 1_555
C11 C5 1_555 1_555
H11 C11 1_555 1_555
H12 C11 1_555 1_555
C12 C9 1_555 1_555
H13 C12 1_555 1_555
C13 C7 1_555 1_555
H14 C13 1_555 1_555
C14 C11 1_555 1_555
C15 C14 1_555 1_555
H15 C15 1_555 1_555
C16 C14 1_555 1_555
H16 C16 1_555 1_555
C17 C15 1_555 1_555
H17 C17 1_555 1_555
C18 C17 1_555 1_555
H18 C18 1_555 1_555
C19 C16 1_555 1_555
H19 C19 1_555 1_555
C1 C6 1_555 1_555
C2 C7 1_555 1_555
C4 C6 1_555 1_555
C9 C10 1_555 1_555
C12 C13 1_555 1_555
C18 C19 1_555 1_555

#END
