
#######################################################################
#
#                 Cambridge Crystallographic Data Centre
#                                CCDC 
#
#######################################################################
#
# If this CIF has been generated from an entry in the Cambridge 
# Structural Database, then it will include bibliographic, chemical, 
# crystal, experimental, refinement or atomic coordinate data resulting 
# from the CCDC's data processing and validation procedures.
#
#######################################################################

data_REMVUD
_chemical_formula_moiety         'C21 H23 N1 O4'
_chemical_name_systematic        
N-(benzyloxy)-5',5'-dimethyl-3,4-dihydro-2H,4'H-spiro[1-benzoxepine-5,2'-[1,3]dioxolan]-4'-imine
_symmetry_cell_setting           orthorhombic
_symmetry_space_group_name_H-M   'P 21 21 21'
_symmetry_Int_Tables_number      19
_space_group_name_Hall           'P 2ac 2ab'
loop_
_symmetry_equiv_pos_site_id
_symmetry_equiv_pos_as_xyz
1 x,y,z
2 1/2-x,-y,1/2+z
3 -x,1/2+y,1/2-z
4 1/2+x,1/2-y,-z
_cell_length_a                   5.5974(4)
_cell_length_b                   19.0054(10)
_cell_length_c                   17.2544(10)
_cell_angle_alpha                90
_cell_angle_beta                 90
_cell_angle_gamma                90
_cell_volume                     1835.54
_exptl_crystal_colour            colorless
_exptl_crystal_description       Block
_cell_formula_units_Z            4
loop_
_atom_site_label
_atom_site_type_symbol
_atom_site_fract_x
_atom_site_fract_y
_atom_site_fract_z
O1 O 0.1969(4) 0.48668(9) 0.45966(10)
O2 O 0.1563(4) 0.49933(10) 0.63321(12)
O3 O 0.0304(4) 0.38098(9) 0.42416(11)
O4 O 0.4780(4) 0.57286(10) 0.38531(11)
N1 N 0.4133(5) 0.50897(12) 0.34684(13)
C1 C 0.0496(6) 0.42813(13) 0.48754(16)
C2 C 0.1755(6) 0.39345(13) 0.55525(14)
C3 C 0.2752(6) 0.47161(14) 0.38798(15)
C4 C 0.2241(6) 0.42973(14) 0.62359(15)
C5 C 0.1817(6) 0.40137(14) 0.36061(15)
C6 C 0.2446(7) 0.32287(14) 0.55174(16)
H1 H 0.2097 0.2967 0.5077
C7 C -0.1981(6) 0.45602(15) 0.50579(17)
H2 H -0.2896 0.4185 0.5297
H3 H -0.2763 0.4678 0.4573
C8 C 0.3458(7) 0.39863(17) 0.68386(17)
H4 H 0.3798 0.4243 0.7284
C9 C -0.0983(6) 0.50964(17) 0.63718(18)
H5 H -0.1319 0.5503 0.6694
H6 H -0.1710 0.4689 0.6615
C10 C 0.7104(7) 0.67666(15) 0.36690(17)
C11 C -0.2082(7) 0.52049(15) 0.55882(18)
H7 H -0.1269 0.5592 0.5334
H8 H -0.3740 0.5340 0.5656
C12 C 0.4175(7) 0.32921(17) 0.67803(19)
H9 H 0.5017 0.3082 0.7183
C13 C 0.0298(7) 0.40770(18) 0.28858(16)
H10 H -0.0357 0.3625 0.2757
H11 H 0.1263 0.4243 0.2464
H12 H -0.0979 0.4404 0.2978
C14 C 0.3636(8) 0.29143(17) 0.61247(19)
H13 H 0.4078 0.2444 0.6090
C15 C 0.6738(8) 0.60180(16) 0.3429(2)
H14 H 0.6407 0.5996 0.2878
H15 H 0.8174 0.5748 0.3531
C16 C 0.3836(7) 0.34881(16) 0.3504(2)
H16 H 0.4800 0.3480 0.3964
H17 H 0.4803 0.3624 0.3069
H18 H 0.3182 0.3028 0.3414
C17 C 0.9108(7) 0.69693(18) 0.4075(2)
H19 H 1.0249 0.6637 0.4215
C18 C 0.5440(8) 0.72720(19) 0.3480(2)
H20 H 0.4070 0.7143 0.3209
C19 C 0.7731(10) 0.81630(19) 0.4081(2)
H21 H 0.7928 0.8632 0.4222
C20 C 0.9421(9) 0.7675(2) 0.4277(2)
H22 H 1.0784 0.7813 0.4544
C21 C 0.5771(9) 0.79586(18) 0.3682(2)
H23 H 0.4630 0.8292 0.3544
loop_
_geom_bond_atom_site_label_1
_geom_bond_atom_site_label_2
_geom_bond_site_symmetry_1
_geom_bond_site_symmetry_2
O1 C1 1_555 1_555
O2 C4 1_555 1_555
O3 C1 1_555 1_555
O4 N1 1_555 1_555
N1 C3 1_555 1_555
C1 C2 1_555 1_555
C2 C4 1_555 1_555
C3 O1 1_555 1_555
C4 C8 1_555 1_555
C5 O3 1_555 1_555
C6 C2 1_555 1_555
H1 C6 1_555 1_555
C7 C1 1_555 1_555
H2 C7 1_555 1_555
H3 C7 1_555 1_555
C8 H4 1_555 1_555
C9 O2 1_555 1_555
H5 C9 1_555 1_555
H6 C9 1_555 1_555
C10 C15 1_555 1_555
C11 C7 1_555 1_555
H7 C11 1_555 1_555
H8 C11 1_555 1_555
C12 C8 1_555 1_555
H9 C12 1_555 1_555
C13 C5 1_555 1_555
H10 C13 1_555 1_555
H11 C13 1_555 1_555
H12 C13 1_555 1_555
C14 C6 1_555 1_555
H13 C14 1_555 1_555
C15 O4 1_555 1_555
H14 C15 1_555 1_555
H15 C15 1_555 1_555
C16 C5 1_555 1_555
H16 C16 1_555 1_555
H17 C16 1_555 1_555
H18 C16 1_555 1_555
C17 C10 1_555 1_555
H19 C17 1_555 1_555
C18 C10 1_555 1_555
H20 C18 1_555 1_555
C19 H21 1_555 1_555
C20 C17 1_555 1_555
H22 C20 1_555 1_555
C21 C18 1_555 1_555
H23 C21 1_555 1_555
C3 C5 1_555 1_555
C9 C11 1_555 1_555
C12 C14 1_555 1_555
C19 C20 1_555 1_555
C19 C21 1_555 1_555

#END
