
#######################################################################
#
#                 Cambridge Crystallographic Data Centre
#                                CCDC 
#
#######################################################################
#
# If this CIF has been generated from an entry in the Cambridge 
# Structural Database, then it will include bibliographic, chemical, 
# crystal, experimental, refinement or atomic coordinate data resulting 
# from the CCDC's data processing and validation procedures.
#
#######################################################################

data_REMXAI
_chemical_formula_moiety         'C27 H19 N3 O2'
_chemical_name_systematic        N,N'-bis(Naphthyl)-pyridine-2,6-dicarboxamide
_symmetry_cell_setting           monoclinic
_symmetry_space_group_name_H-M   'P 21/c'
_symmetry_Int_Tables_number      14
_space_group_name_Hall           '-P 2ybc'
loop_
_symmetry_equiv_pos_site_id
_symmetry_equiv_pos_as_xyz
1 x,y,z
2 x,1/2-y,1/2+z
3 -x,-y,-z
4 -x,1/2+y,1/2-z
_cell_length_a                   8.816(3)
_cell_length_b                   14.965(4)
_cell_length_c                   15.936(5)
_cell_angle_alpha                90
_cell_angle_beta                 104.122(6)
_cell_angle_gamma                90
_cell_volume                     2038.92
_exptl_crystal_colour            colorless
_exptl_crystal_description       prism
_cell_formula_units_Z            4
_exptl_crystal_recrystallization_method DMF/water
loop_
_atom_site_label
_atom_site_type_symbol
_atom_site_fract_x
_atom_site_fract_y
_atom_site_fract_z
O1 O 0.42289(19) 0.64870(11) 0.51159(11)
O2 O 1.02797(19) 0.47412(10) 0.35185(11)
N1 N 0.6185(2) 0.57073(12) 0.60226(13)
H1 H 0.7037 0.5417 0.6049
N2 N 0.7370(2) 0.53763(12) 0.45660(12)
N3 N 0.9069(2) 0.38820(12) 0.43442(12)
H2 H 0.8333 0.3887 0.4613
C1 C 0.4704(3) 0.64270(15) 0.69148(17)
H3 H 0.4490 0.6894 0.6519
C2 C 0.4076(3) 0.64404(18) 0.7639(2)
H4 H 0.3436 0.6913 0.7713
C3 C 0.4382(3) 0.5780(2) 0.82317(19)
H5 H 0.3925 0.5789 0.8700
C4 C 0.5394(3) 0.50735(17) 0.81437(17)
C5 C 0.5792(3) 0.43953(19) 0.87699(18)
H6 H 0.5333 0.4398 0.9237
C6 C 0.6814(3) 0.37418(18) 0.87151(18)
H7 H 0.7058 0.3303 0.9140
C7 C 0.7504(3) 0.37299(16) 0.80159(18)
H8 H 0.8239 0.3293 0.7987
C8 C 0.7115(3) 0.43510(15) 0.73756(17)
H9 H 0.7559 0.4317 0.6904
C9 C 0.6048(3) 0.50483(15) 0.74129(16)
C10 C 0.5625(3) 0.57390(15) 0.67828(16)
C11 C 0.5492(3) 0.60964(16) 0.52578(17)
C12 C 0.6362(3) 0.60541(15) 0.45593(16)
C13 C 0.6071(3) 0.67141(15) 0.39369(17)
H10 H 0.5348 0.7163 0.3953
C14 C 0.6860(3) 0.67011(16) 0.32947(18)
H11 H 0.6699 0.7144 0.2873
C15 C 0.7898(3) 0.60155(16) 0.32898(16)
H12 H 0.8449 0.5987 0.2862
C16 C 0.8110(3) 0.53723(15) 0.39254(16)
C17 C 0.9253(3) 0.46335(16) 0.39130(16)
C18 C 0.9959(3) 0.30812(15) 0.44035(16)
C19 C 1.0810(3) 0.28806(16) 0.38148(16)
H13 H 1.0819 0.3273 0.3364
C20 C 1.1672(3) 0.20807(18) 0.38929(19)
H14 H 1.2269 0.1957 0.3500
C21 C 1.1645(3) 0.14912(18) 0.45281(19)
H15 H 1.2208 0.0961 0.4559
C22 C 1.0784(3) 0.16631(16) 0.51439(17)
C23 C 1.0743(3) 0.10582(18) 0.5811(2)
H16 H 1.1270 0.0517 0.5834
C24 C 0.9961(3) 0.12411(18) 0.64190(19)
H17 H 0.9948 0.0830 0.6855
C25 C 0.9166(3) 0.20564(18) 0.63888(19)
H18 H 0.8647 0.2189 0.6816
C26 C 0.9142(3) 0.26565(15) 0.57460(16)
H19 H 0.8591 0.3188 0.5734
C27 C 0.9941(2) 0.24833(15) 0.50973(15)
loop_
_geom_bond_atom_site_label_1
_geom_bond_atom_site_label_2
_geom_bond_site_symmetry_1
_geom_bond_site_symmetry_2
O1 C11 1_555 1_555
O2 C17 1_555 1_555
N1 H1 1_555 1_555
N2 C12 1_555 1_555
N3 H2 1_555 1_555
C1 H3 1_555 1_555
C2 C1 1_555 1_555
H4 C2 1_555 1_555
C3 C2 1_555 1_555
H5 C3 1_555 1_555
C4 C3 1_555 1_555
C5 C4 1_555 1_555
H6 C5 1_555 1_555
C6 C5 1_555 1_555
H7 C6 1_555 1_555
C7 C6 1_555 1_555
H8 C7 1_555 1_555
C8 C7 1_555 1_555
H9 C8 1_555 1_555
C9 C4 1_555 1_555
C10 N1 1_555 1_555
C11 N1 1_555 1_555
C12 C11 1_555 1_555
C13 C12 1_555 1_555
H10 C13 1_555 1_555
C14 C13 1_555 1_555
H11 C14 1_555 1_555
C15 C14 1_555 1_555
H12 C15 1_555 1_555
C16 N2 1_555 1_555
C17 N3 1_555 1_555
C18 N3 1_555 1_555
C19 C18 1_555 1_555
H13 C19 1_555 1_555
C20 C19 1_555 1_555
H14 C20 1_555 1_555
C21 C20 1_555 1_555
H15 C21 1_555 1_555
C22 C21 1_555 1_555
C23 C22 1_555 1_555
H16 C23 1_555 1_555
C24 C23 1_555 1_555
H17 C24 1_555 1_555
C25 C24 1_555 1_555
H18 C25 1_555 1_555
C26 C25 1_555 1_555
H19 C26 1_555 1_555
C27 C18 1_555 1_555
C1 C10 1_555 1_555
C8 C9 1_555 1_555
C9 C10 1_555 1_555
C15 C16 1_555 1_555
C16 C17 1_555 1_555
C22 C27 1_555 1_555
C26 C27 1_555 1_555

#END
