
#######################################################################
#
#                 Cambridge Crystallographic Data Centre
#                                CCDC 
#
#######################################################################
#
# If this CIF has been generated from an entry in the Cambridge 
# Structural Database, then it will include bibliographic, chemical, 
# crystal, experimental, refinement or atomic coordinate data resulting 
# from the CCDC's data processing and validation procedures.
#
#######################################################################

data_RENBUJ
_chemical_formula_moiety         'C17 H14 B1 F2 N3 O1'
_chemical_name_systematic        
1,1-Difluoro-7,9-dimethyl-3-phenyl-1H-[1,3,5,2]oxadiazaborinino[3,4-a][1,8]naphthyridin-11-ium-1-ide
_symmetry_cell_setting           monoclinic
_symmetry_space_group_name_H-M   'C 2/c'
_symmetry_Int_Tables_number      15
_space_group_name_Hall           '-C 2yn'
loop_
_symmetry_equiv_pos_site_id
_symmetry_equiv_pos_as_xyz
1 x,y,z
2 -x,y,1/2-z
3 1/2+x,1/2+y,z
4 1/2-x,1/2+y,1/2-z
5 -x,-y,-z
6 x,-y,1/2+z
7 1/2-x,1/2-y,-z
8 1/2+x,1/2-y,1/2+z
_cell_length_a                   18.636(4)
_cell_length_b                   10.788(2)
_cell_length_c                   15.333(3)
_cell_angle_alpha                90
_cell_angle_beta                 94.98(3)
_cell_angle_gamma                90
_cell_volume                     3070.99
_exptl_crystal_colour            'light yellow'
_exptl_crystal_description       plate
_cell_formula_units_Z            8
_exptl_crystal_recrystallization_method 'dichloromethane/diethyl ether'
loop_
_atom_site_label
_atom_site_type_symbol
_atom_site_fract_x
_atom_site_fract_y
_atom_site_fract_z
F1 F 0.27136(4) 0.38399(7) 0.17485(5)
F2 F 0.36184(4) 0.51805(8) 0.15009(5)
N1 N 0.29374(5) 0.43315(9) 0.02281(6)
N2 N 0.21193(6) 0.59549(10) -0.02291(7)
N3 N 0.36451(6) 0.26487(10) 0.06855(7)
O1 O 0.24295(6) 0.57915(10) 0.12582(6)
C1 C 0.25830(6) 0.50219(11) -0.04037(7)
C2 C 0.14961(6) 0.71625(11) 0.07832(8)
C3 C 0.20500(7) 0.62533(11) 0.05807(8)
C4 C 0.33514(6) 0.33241(11) 0.00069(7)
C5 C 0.26647(7) 0.47785(13) -0.12987(8)
H1 H 0.2428 0.5273 -0.1730
C6 C 0.38568(7) 0.20050(14) -0.10614(9)
C7 C 0.34354(7) 0.30579(12) -0.08808(8)
C8 C 0.41320(8) 0.13132(14) -0.03647(10)
H2 H 0.4397 0.0604 -0.0463
C9 C 0.10609(8) 0.77213(13) 0.01079(9)
H3 H 0.1130 0.7542 -0.0472
C10 C 0.30843(8) 0.38313(13) -0.15288(8)
H4 H 0.3142 0.3688 -0.2117
C11 C 0.13915(7) 0.74529(12) 0.16502(9)
H5 H 0.1681 0.7089 0.2104
C12 C 0.08583(8) 0.82799(13) 0.18369(10)
H6 H 0.0792 0.8475 0.2415
B1 B 0.29431(8) 0.47562(13) 0.12227(8)
C13 C 0.40221(7) 0.16555(12) 0.04992(9)
C14 C 0.04244(8) 0.88155(14) 0.11657(11)
H7 H 0.0061 0.9362 0.1292
C15 C 0.43366(9) 0.08974(15) 0.12575(10)
H8 H 0.4212 0.1264 0.1795
H9 H 0.4851 0.0873 0.1253
H10 H 0.4148 0.0070 0.1210
C16 C 0.05291(8) 0.85401(14) 0.03014(11)
H11 H 0.0239 0.8910 -0.0150
C17 C 0.39831(10) 0.16627(19) -0.19909(11)
H12 H 0.4275 0.0929 -0.1989
H13 H 0.4225 0.2331 -0.2256
H14 H 0.3529 0.1510 -0.2318
loop_
_geom_bond_atom_site_label_1
_geom_bond_atom_site_label_2
_geom_bond_site_symmetry_1
_geom_bond_site_symmetry_2
F1 B1 1_555 1_555
F2 B1 1_555 1_555
N1 C1 1_555 1_555
N2 C1 1_555 1_555
N3 C4 1_555 1_555
O1 C3 1_555 1_555
C1 C5 1_555 1_555
C2 C3 1_555 1_555
C3 N2 1_555 1_555
C4 N1 1_555 1_555
C5 H1 1_555 1_555
C6 C7 1_555 1_555
C7 C4 1_555 1_555
C8 C6 1_555 1_555
H2 C8 1_555 1_555
C9 C2 1_555 1_555
H3 C9 1_555 1_555
C10 C5 1_555 1_555
H4 C10 1_555 1_555
C11 C2 1_555 1_555
H5 C11 1_555 1_555
C12 C11 1_555 1_555
H6 C12 1_555 1_555
B1 N1 1_555 1_555
C13 N3 1_555 1_555
C14 C12 1_555 1_555
H7 C14 1_555 1_555
C15 C13 1_555 1_555
H8 C15 1_555 1_555
H9 C15 1_555 1_555
H10 C15 1_555 1_555
C16 C9 1_555 1_555
H11 C16 1_555 1_555
C17 C6 1_555 1_555
H12 C17 1_555 1_555
H13 C17 1_555 1_555
H14 C17 1_555 1_555
O1 B1 1_555 1_555
C7 C10 1_555 1_555
C8 C13 1_555 1_555
C14 C16 1_555 1_555

#END
