
#######################################################################
#
#                 Cambridge Crystallographic Data Centre
#                                CCDC 
#
#######################################################################
#
# If this CIF has been generated from an entry in the Cambridge 
# Structural Database, then it will include bibliographic, chemical, 
# crystal, experimental, refinement or atomic coordinate data resulting 
# from the CCDC's data processing and validation procedures.
#
#######################################################################

data_RENBUH
_chemical_formula_moiety         'C25 H24 O2'
_chemical_name_systematic        
1,3-Diphenyl-2-tricyclo(3.3.1.1^3,7^)dec-2-ylidenepropane-1,3-dione
_symmetry_cell_setting           monoclinic
_symmetry_space_group_name_H-M   'C 2/c'
_symmetry_Int_Tables_number      15
_space_group_name_Hall           '-C 2yn'
loop_
_symmetry_equiv_pos_site_id
_symmetry_equiv_pos_as_xyz
1 x,y,z
2 -x,y,1/2-z
3 1/2+x,1/2+y,z
4 1/2-x,1/2+y,1/2-z
5 -x,-y,-z
6 x,-y,1/2+z
7 1/2-x,1/2-y,-z
8 1/2+x,1/2-y,1/2+z
_cell_length_a                   15.460(7)
_cell_length_b                   10.128(2)
_cell_length_c                   12.680(3)
_cell_angle_alpha                90
_cell_angle_beta                 101.67(2)
_cell_angle_gamma                90
_cell_volume                     1944.38
_exptl_crystal_colour            'pale yellow'
_cell_formula_units_Z            4
loop_
_atom_site_label
_atom_site_type_symbol
_atom_site_fract_x
_atom_site_fract_y
_atom_site_fract_z
O1 O 0.1200(1) 0.2435(2) 0.1684(2)
C1 C 0.0000 0.1828(4) 0.2500
C2 C 0.0000 0.0506(4) 0.2500
C3 C -0.0811(2) -0.0331(2) 0.2493(2)
C4 C -0.0961(2) -0.1214(3) 0.1488(2)
C5 C -0.0157(2) -0.2078(3) 0.1496(2)
C6 C 0.0000 -0.2940(4) 0.2500
C7 C -0.0647(2) -0.1219(3) 0.3504(2)
C8 C 0.0823(2) 0.2598(3) 0.2435(2)
C9 C 0.1173(2) 0.3556(2) 0.3300(2)
C10 C 0.1848(2) 0.4406(3) 0.3173(2)
C11 C 0.2179(2) 0.5317(3) 0.3958(3)
C12 C 0.1836(2) 0.5391(3) 0.4877(3)
C13 C 0.1182(2) 0.4534(3) 0.5022(2)
C14 C 0.0848(2) 0.3613(3) 0.4235(2)
H1 H -0.138 0.030 0.246
H2 H -0.106 -0.060 0.078
H3 H -0.154 -0.181 0.147
H4 H -0.025 -0.272 0.076
H5 H -0.051 -0.363 0.261
H6 H -0.124 -0.182 0.350
H7 H -0.048 -0.062 0.422
H8 H 0.208 0.436 0.251
H9 H 0.266 0.590 0.386
H10 H 0.207 0.604 0.544
H11 H 0.094 0.458 0.568
H12 H 0.038 0.301 0.435
C5A C 0.0157(2) -0.2078(3) 0.3504(2)
C4A C 0.0961(2) -0.1214(3) 0.3512(2)
C3A C 0.0811(2) -0.0331(2) 0.2507(2)
C7A C 0.0647(2) -0.1219(3) 0.1496(2)
H6A H 0.124 -0.182 0.150
H7A H 0.048 -0.062 0.078
H1A H 0.138 0.030 0.254
H2A H 0.106 -0.060 0.422
H3A H 0.154 -0.181 0.353
H4A H 0.025 -0.272 0.424
H5A H 0.051 -0.363 0.239
C8A C -0.0823(2) 0.2598(3) 0.2565(2)
O1A O -0.1200(1) 0.2435(2) 0.3316(2)
C9A C -0.1173(2) 0.3556(2) 0.1700(2)
C10A C -0.1848(2) 0.4406(3) 0.1827(2)
C11A C -0.2179(2) 0.5317(3) 0.1042(3)
C12A C -0.1836(2) 0.5391(3) 0.0123(3)
C13A C -0.1182(2) 0.4534(3) -0.0022(2)
C14A C -0.0848(2) 0.3613(3) 0.0765(2)
H12A H -0.038 0.301 0.065
H11A H -0.094 0.458 -0.068
H10A H -0.207 0.604 -0.044
H9A H -0.266 0.590 0.114
H8A H -0.208 0.436 0.249
loop_
_geom_bond_atom_site_label_1
_geom_bond_atom_site_label_2
_geom_bond_site_symmetry_1
_geom_bond_site_symmetry_2
O1 C8 1_555 1_555
C1 C2 1_555 1_555
C2 C3 1_555 1_555
C3 C4 1_555 1_555
C4 C5 1_555 1_555
C5 C6 1_555 1_555
C6 H5 1_555 1_555
C7 C3 1_555 1_555
C8 C1 1_555 1_555
C9 C8 1_555 1_555
C10 C9 1_555 1_555
C11 C10 1_555 1_555
C12 C11 1_555 1_555
C13 C12 1_555 1_555
C14 C9 1_555 1_555
H1 C3 1_555 1_555
H2 C4 1_555 1_555
H3 C4 1_555 1_555
H4 C5 1_555 1_555
H6 C7 1_555 1_555
H7 C7 1_555 1_555
H8 C10 1_555 1_555
H9 C11 1_555 1_555
H10 C12 1_555 1_555
H11 C13 1_555 1_555
H12 C14 1_555 1_555
C5A C6 1_555 1_555
C4A C5A 1_555 1_555
C3A C2 1_555 1_555
C7A C5 1_555 1_555
H6A C7A 1_555 1_555
H7A C7A 1_555 1_555
H1A C3A 1_555 1_555
H2A C4A 1_555 1_555
H3A C4A 1_555 1_555
H4A C5A 1_555 1_555
H5A C6 1_555 1_555
C8A C1 1_555 1_555
O1A C8A 1_555 1_555
C9A C8A 1_555 1_555
C10A C9A 1_555 1_555
C11A C10A 1_555 1_555
C12A C11A 1_555 1_555
C13A C12A 1_555 1_555
C14A C9A 1_555 1_555
H12A C14A 1_555 1_555
H11A C13A 1_555 1_555
H10A C12A 1_555 1_555
H9A C11A 1_555 1_555
H8A C10A 1_555 1_555
C7 C5A 1_555 1_555
C13 C14 1_555 1_555
C4A C3A 1_555 1_555
C3A C7A 1_555 1_555
C13A C14A 1_555 1_555

#END
