
#######################################################################
#
#                 Cambridge Crystallographic Data Centre
#                                CCDC 
#
#######################################################################
#
# If this CIF has been generated from an entry in the Cambridge 
# Structural Database, then it will include bibliographic, chemical, 
# crystal, experimental, refinement or atomic coordinate data resulting 
# from the CCDC's data processing and validation procedures.
#
#######################################################################

data_RENBIV
_chemical_formula_moiety         'C25 H26 N2'
_chemical_name_systematic        
1,3-Diphenyl-2-tricyclo(3.3.1.1^3,7^)dec-2-ylidenepropane-1,3-di-imine
_symmetry_cell_setting           monoclinic
_symmetry_space_group_name_H-M   'P 21/c'
_symmetry_Int_Tables_number      14
_space_group_name_Hall           '-P 2ybc'
loop_
_symmetry_equiv_pos_site_id
_symmetry_equiv_pos_as_xyz
1 x,y,z
2 -x,1/2+y,1/2-z
3 -x,-y,-z
4 x,1/2-y,1/2+z
_cell_length_a                   10.161(2)
_cell_length_b                   15.585(3)
_cell_length_c                   12.519(3)
_cell_angle_alpha                90
_cell_angle_beta                 103.95(2)
_cell_angle_gamma                90
_cell_volume                     1924.03
_exptl_crystal_colour            'pale yellow'
_chemical_melting_point          421-428K
_cell_formula_units_Z            4
loop_
_atom_site_label
_atom_site_type_symbol
_atom_site_fract_x
_atom_site_fract_y
_atom_site_fract_z
N1 N 0.3423(3) 0.4269(2) 0.0576(3)
N2 N 0.5169(3) 0.2486(2) 0.0519(2)
C1 C 0.5267(3) 0.3605(2) 0.1901(3)
C2 C 0.6146(3) 0.4168(2) 0.2468(3)
C3 C 0.5721(3) 0.5039(2) 0.2834(3)
C4 C 0.6323(4) 0.5143(2) 0.4070(3)
C5 C 0.7871(3) 0.5084(2) 0.4333(3)
C6 C 0.8271(3) 0.4194(2) 0.3977(3)
C7 C 0.7673(3) 0.4074(2) 0.2741(3)
C8 C 0.8226(3) 0.4774(2) 0.2103(3)
C9 C 0.7842(4) 0.5660(2) 0.2463(3)
C10 C 0.8429(4) 0.5777(2) 0.3698(3)
C11 C 0.6304(4) 0.5738(2) 0.2218(3)
C12 C 0.3791(3) 0.3827(2) 0.1448(3)
C13 C 0.5636(3) 0.2742(2) 0.1508(3)
C14 C 0.2766(3) 0.3468(2) 0.1995(3)
C15 C 0.3077(3) 0.3310(2) 0.3110(3)
C16 C 0.2100(4) 0.2996(2) 0.3607(3)
C17 C 0.0819(4) 0.2829(3) 0.2993(5)
C18 C 0.0503(4) 0.2968(3) 0.1889(5)
C19 C 0.1456(4) 0.3299(3) 0.1368(3)
C20 C 0.6541(3) 0.2144(2) 0.2281(3)
C21 C 0.7259(4) 0.1520(3) 0.1854(3)
C22 C 0.8091(4) 0.0959(3) 0.2540(4)
C23 C 0.8205(4) 0.0982(3) 0.3661(4)
C24 C 0.7479(4) 0.1585(3) 0.4091(3)
C25 C 0.6657(3) 0.2165(2) 0.3400(3)
H1 H 0.459 0.507 0.267
H2 H 0.601 0.576 0.434
H3 H 0.592 0.464 0.451
H4 H 0.830 0.516 0.525
H5 H 0.788 0.370 0.444
H6 H 0.937 0.413 0.417
H7 H 0.796 0.343 0.250
H8 H 0.933 0.470 0.222
H9 H 0.778 0.471 0.122
H10 H 0.831 0.615 0.208
H11 H 0.958 0.575 0.392
H12 H 0.821 0.642 0.398
H13 H 0.586 0.564 0.127
H14 H 0.591 0.639 0.233
H15 H 0.406 0.342 0.359
H16 H 0.233 0.289 0.445
H17 H 0.009 0.262 0.332
H18 H -0.042 0.283 0.144
H19 H 0.123 0.339 0.054
H20 H 0.722 0.151 0.102
H21 H 0.855 0.049 0.223
H22 H 0.885 0.058 0.418
H23 H 0.755 0.162 0.493
H24 H 0.613 0.260 0.370
H25 H 0.393 0.483 0.063
H26 H 0.445 0.288 0.005
loop_
_geom_bond_atom_site_label_1
_geom_bond_atom_site_label_2
_geom_bond_site_symmetry_1
_geom_bond_site_symmetry_2
N1 C12 1_555 1_555
N2 C13 1_555 1_555
C1 C2 1_555 1_555
C2 C3 1_555 1_555
C3 C4 1_555 1_555
C4 C5 1_555 1_555
C5 C6 1_555 1_555
C6 C7 1_555 1_555
C7 C2 1_555 1_555
C8 C7 1_555 1_555
C9 C8 1_555 1_555
C10 C5 1_555 1_555
C11 C3 1_555 1_555
C12 C1 1_555 1_555
C13 C1 1_555 1_555
C14 C12 1_555 1_555
C15 C14 1_555 1_555
C16 C15 1_555 1_555
C17 C16 1_555 1_555
C18 C17 1_555 1_555
C19 C14 1_555 1_555
C20 C13 1_555 1_555
C21 C20 1_555 1_555
C22 C21 1_555 1_555
C23 C22 1_555 1_555
C24 C23 1_555 1_555
C25 C20 1_555 1_555
H1 C3 1_555 1_555
H2 C4 1_555 1_555
H3 C4 1_555 1_555
H4 C5 1_555 1_555
H5 C6 1_555 1_555
H6 C6 1_555 1_555
H7 C7 1_555 1_555
H8 C8 1_555 1_555
H9 C8 1_555 1_555
H10 C9 1_555 1_555
H11 C10 1_555 1_555
H12 C10 1_555 1_555
H13 C11 1_555 1_555
H14 C11 1_555 1_555
H15 C15 1_555 1_555
H16 C16 1_555 1_555
H17 C17 1_555 1_555
H18 C18 1_555 1_555
H19 C19 1_555 1_555
H20 C21 1_555 1_555
H21 C22 1_555 1_555
H22 C23 1_555 1_555
H23 C24 1_555 1_555
H24 C25 1_555 1_555
H25 N1 1_555 1_555
H26 N2 1_555 1_555
C9 C10 1_555 1_555
C9 C11 1_555 1_555
C18 C19 1_555 1_555
C24 C25 1_555 1_555

#END
