
#######################################################################
#
#                 Cambridge Crystallographic Data Centre
#                                CCDC 
#
#######################################################################
#
# If this CIF has been generated from an entry in the Cambridge 
# Structural Database, then it will include bibliographic, chemical, 
# crystal, experimental, refinement or atomic coordinate data resulting 
# from the CCDC's data processing and validation procedures.
#
#######################################################################

data_RENCUK
_chemical_compound_source        'leaves of Psidium guajava L. (Myrtaceae)'
_chemical_name_common            'Psiguadial C'
_chemical_formula_moiety         'C30 H34 O6'
_chemical_name_systematic        
(1aR,3aR,4aS,4bS,10R,10aR,12aR)-7,9-Dihydroxy-1a,4,4,10a-tetramethyl-10-phenyl-1a,2,3,3a,4,4a,4b,10,10a,11,12,12a-dodecahydrocyclopropa[9,10]oxireno[5,6]cyclodeca[1,2-b]chromene-6,8-dicarbaldehyde
_symmetry_cell_setting           orthorhombic
_symmetry_space_group_name_H-M   'P 21 21 21'
_symmetry_Int_Tables_number      19
_space_group_name_Hall           'P 2ac 2ab'
loop_
_symmetry_equiv_pos_site_id
_symmetry_equiv_pos_as_xyz
1 x,y,z
2 1/2-x,-y,1/2+z
3 -x,1/2+y,1/2-z
4 1/2+x,1/2-y,-z
_cell_length_a                   10.8909(3)
_cell_length_b                   13.7047(4)
_cell_length_c                   34.1253(9)
_cell_angle_alpha                90
_cell_angle_beta                 90
_cell_angle_gamma                90
_cell_volume                     5093.42
_exptl_crystal_colour            colorless
_exptl_crystal_description       needle
_chemical_melting_point          'above 300 deg.C'
_cell_formula_units_Z            8
loop_
_atom_site_label
_atom_site_type_symbol
_atom_site_fract_x
_atom_site_fract_y
_atom_site_fract_z
O1 O 0.10124(13) 0.02507(11) 0.02107(4)
O2 O -0.30404(14) -0.26078(12) 0.01632(5)
O3 O 0.01223(14) 0.01829(11) -0.11421(4)
H1 H 0.0482 0.0149 -0.1353
O4 O 0.19233(16) 0.01853(12) -0.16270(4)
O5 O 0.42432(13) 0.05134(12) -0.07122(5)
H2 H 0.4630 0.0579 -0.0508
O6 O 0.46068(14) 0.06509(15) 0.00276(5)
C1 C -0.2600(2) -0.16413(17) 0.02617(6)
H3 H -0.2648 -0.1493 0.0542
C2 C -0.2972(2) -0.08060(17) 0.00043(6)
H4 H -0.3861 -0.0785 -0.0007
H5 H -0.2674 -0.0932 -0.0259
C3 C -0.25055(19) 0.01941(17) 0.01343(6)
H6 H -0.2653 0.0245 0.0414
H7 H -0.3020 0.0680 0.0009
C4 C -0.11500(19) 0.04971(16) 0.00613(6)
C5 C -0.02135(18) -0.01819(16) 0.02614(6)
H8 H -0.0230 -0.0816 0.0129
C6 C -0.04255(19) -0.03433(17) 0.06960(6)
H9 H -0.1090 0.0064 0.0799
C7 C -0.0402(2) -0.13579(17) 0.08816(6)
H10 H -0.1060 -0.1470 0.1072
C8 C -0.0001(2) -0.22680(17) 0.06653(6)
H11 H 0.0491 -0.2663 0.0841
H12 H 0.0519 -0.2076 0.0448
C9 C -0.1056(2) -0.28978(18) 0.05059(7)
H13 H -0.0728 -0.3521 0.0421
H14 H -0.1636 -0.3023 0.0716
C10 C -0.1726(2) -0.24282(17) 0.01675(6)
C11 C 0.0519(2) -0.06052(18) 0.10076(6)
C12 C 0.0323(3) -0.0129(2) 0.14040(7)
H15 H -0.0540 -0.0032 0.1447
H16 H 0.0736 0.0490 0.1410
H17 H 0.0649 -0.0542 0.1606
C13 C 0.1868(2) -0.07794(19) 0.09162(7)
H18 H 0.2299 -0.0931 0.1154
H19 H 0.2214 -0.0203 0.0801
H20 H 0.1944 -0.1315 0.0736
C14 C -0.1138(2) -0.25212(19) -0.02289(6)
H21 H -0.1637 -0.2197 -0.0421
H22 H -0.1063 -0.3199 -0.0296
H23 H -0.0338 -0.2228 -0.0223
C15 C -0.0997(2) 0.15361(17) 0.02216(6)
H24 H -0.1174 0.1541 0.0497
H25 H -0.1553 0.1967 0.0088
H26 H -0.0168 0.1751 0.0180
C16 C -0.08716(18) 0.04503(16) -0.03910(5)
H27 H -0.1278 -0.0134 -0.0494
C17 C 0.04975(18) 0.03368(15) -0.04665(6)
C18 C 0.13499(18) 0.03390(15) -0.01702(5)
C19 C 0.26353(19) 0.04318(16) -0.02390(6)
C20 C 0.30415(19) 0.04233(15) -0.06305(6)
C21 C 0.22160(19) 0.03117(15) -0.09409(6)
C22 C 0.09429(19) 0.02746(15) -0.08528(6)
C23 C -0.1381(2) 0.13253(17) -0.06141(6)
C24 C -0.0706(2) 0.21683(17) -0.06757(6)
H28 H 0.0081 0.2216 -0.0571
C25 C -0.1178(3) 0.29443(19) -0.08903(7)
H29 H -0.0710 0.3504 -0.0928
C26 C -0.2347(3) 0.2881(2) -0.10476(8)
H30 H -0.2664 0.3393 -0.1195
C27 C -0.3035(3) 0.2056(2) -0.09835(8)
H31 H -0.3825 0.2015 -0.1085
C28 C -0.2564(2) 0.1288(2) -0.07689(7)
H32 H -0.3044 0.0736 -0.0727
C29 C 0.3489(2) 0.05484(18) 0.00758(7)
H33 H 0.3186 0.0547 0.0331
C30 C 0.2620(2) 0.02693(16) -0.13435(6)
H34 H 0.3458 0.0308 -0.1392
O7 O 0.60108(14) 0.21342(11) 0.31652(4)
O8 O 0.16047(15) 0.25122(15) 0.21523(5)
O9 O 0.80180(15) 0.03298(11) 0.21648(4)
H35 H 0.8579 -0.0066 0.2145
O10 O 0.98859(15) -0.06888(12) 0.23566(4)
O11 O 0.93072(15) 0.00429(13) 0.34807(4)
H36 H 0.9121 0.0238 0.3700
O12 O 0.80697(16) 0.09720(13) 0.40006(4)
C31 C 0.2733(2) 0.28936(18) 0.23111(7)
H37 H 0.2629 0.3486 0.2469
C32 C 0.3831(2) 0.29164(19) 0.20410(6)
H38 H 0.3607 0.3262 0.1803
H39 H 0.4039 0.2252 0.1969
C33 C 0.4966(2) 0.34038(17) 0.22190(6)
H40 H 0.4691 0.3996 0.2347
H41 H 0.5489 0.3602 0.2003
C34 C 0.5786(2) 0.28474(15) 0.25154(6)
C35 C 0.5101(2) 0.25019(16) 0.28871(6)
H42 H 0.4544 0.1969 0.2816
C36 C 0.4376(2) 0.32898(16) 0.30956(6)
H43 H 0.4519 0.3938 0.2984
C37 C 0.3050(2) 0.31580(17) 0.32376(6)
H44 H 0.2529 0.3730 0.3191
C38 C 0.2361(2) 0.22015(18) 0.32206(7)
H45 H 0.1887 0.2128 0.3459
H46 H 0.2950 0.1671 0.3210
C39 C 0.1497(2) 0.2118(2) 0.28697(8)
H47 H 0.0970 0.1554 0.2906
H48 H 0.0978 0.2692 0.2860
C40 C 0.2167(2) 0.20182(19) 0.24829(7)
C41 C 0.4054(2) 0.33338(17) 0.35308(7)
C42 C 0.4148(3) 0.43507(19) 0.37086(7)
H49 H 0.3941 0.4322 0.3982
H50 H 0.3589 0.4782 0.3577
H51 H 0.4971 0.4590 0.3680
C43 C 0.4390(2) 0.2533(2) 0.38168(7)
H52 H 0.4111 0.2707 0.4074
H53 H 0.5265 0.2450 0.3820
H54 H 0.4007 0.1933 0.3737
C44 C 0.2608(3) 0.10041(19) 0.23898(8)
H55 H 0.3028 0.1008 0.2142
H56 H 0.1918 0.0570 0.2376
H57 H 0.3160 0.0788 0.2591
C45 C 0.6808(2) 0.35659(16) 0.26355(7)
H58 H 0.6448 0.4134 0.2753
H59 H 0.7267 0.3755 0.2408
H60 H 0.7347 0.3256 0.2820
C46 C 0.63419(19) 0.19076(15) 0.23224(6)
H61 H 0.5650 0.1504 0.2236
C47 C 0.7037(2) 0.13207(14) 0.26333(6)
C48 C 0.68696(19) 0.15045(15) 0.30297(6)
C49 C 0.7602(2) 0.10776(16) 0.33270(6)
C50 C 0.85479(19) 0.04375(16) 0.32149(6)
C51 C 0.87141(19) 0.01839(16) 0.28199(6)
C52 C 0.79122(19) 0.06093(15) 0.25378(6)
C53 C 0.71195(19) 0.21281(15) 0.19604(6)
C54 C 0.83512(19) 0.24104(15) 0.19864(6)
H62 H 0.8709 0.2496 0.2231
C55 C 0.9045(2) 0.25649(16) 0.16510(6)
H63 H 0.9867 0.2741 0.1673
C56 C 0.8518(2) 0.24574(17) 0.12840(6)
H64 H 0.8983 0.2565 0.1059
C57 C 0.7302(2) 0.21895(16) 0.12534(6)
H65 H 0.6944 0.2117 0.1008
C58 C 0.6612(2) 0.20273(16) 0.15887(6)
H66 H 0.5792 0.1847 0.1564
C59 C 0.7410(2) 0.12845(17) 0.37351(6)
H67 H 0.6748 0.1678 0.3803
C60 C 0.9687(2) -0.04559(17) 0.27019(6)
H68 H 1.0197 -0.0710 0.2895
loop_
_geom_bond_atom_site_label_1
_geom_bond_atom_site_label_2
_geom_bond_site_symmetry_1
_geom_bond_site_symmetry_2
O1 C5 1_555 1_555
O2 C1 1_555 1_555
O3 H1 1_555 1_555
O4 C30 1_555 1_555
O5 H2 1_555 1_555
O6 C29 1_555 1_555
C1 H3 1_555 1_555
C2 C1 1_555 1_555
H4 C2 1_555 1_555
H5 C2 1_555 1_555
C3 C2 1_555 1_555
H6 C3 1_555 1_555
H7 C3 1_555 1_555
C4 C3 1_555 1_555
C5 C4 1_555 1_555
H8 C5 1_555 1_555
C6 C5 1_555 1_555
H9 C6 1_555 1_555
C7 C6 1_555 1_555
H10 C7 1_555 1_555
C8 C7 1_555 1_555
H11 C8 1_555 1_555
H12 C8 1_555 1_555
C9 C8 1_555 1_555
H13 C9 1_555 1_555
H14 C9 1_555 1_555
C10 O2 1_555 1_555
C11 C6 1_555 1_555
C12 C11 1_555 1_555
H15 C12 1_555 1_555
H16 C12 1_555 1_555
H17 C12 1_555 1_555
C13 C11 1_555 1_555
H18 C13 1_555 1_555
H19 C13 1_555 1_555
H20 C13 1_555 1_555
C14 C10 1_555 1_555
H21 C14 1_555 1_555
H22 C14 1_555 1_555
H23 C14 1_555 1_555
C15 C4 1_555 1_555
H24 C15 1_555 1_555
H25 C15 1_555 1_555
H26 C15 1_555 1_555
C16 C4 1_555 1_555
H27 C16 1_555 1_555
C17 C16 1_555 1_555
C18 O1 1_555 1_555
C19 C18 1_555 1_555
C20 O5 1_555 1_555
C21 C20 1_555 1_555
C22 O3 1_555 1_555
C23 C16 1_555 1_555
C24 C23 1_555 1_555
H28 C24 1_555 1_555
C25 C24 1_555 1_555
H29 C25 1_555 1_555
C26 C25 1_555 1_555
H30 C26 1_555 1_555
C27 C26 1_555 1_555
H31 C27 1_555 1_555
C28 C23 1_555 1_555
H32 C28 1_555 1_555
C29 C19 1_555 1_555
H33 C29 1_555 1_555
C30 C21 1_555 1_555
H34 C30 1_555 1_555
O7 C35 1_555 1_555
O8 C31 1_555 1_555
O9 H35 1_555 1_555
O10 C60 1_555 1_555
O11 H36 1_555 1_555
O12 C59 1_555 1_555
C31 H37 1_555 1_555
C32 C31 1_555 1_555
H38 C32 1_555 1_555
H39 C32 1_555 1_555
C33 C32 1_555 1_555
H40 C33 1_555 1_555
H41 C33 1_555 1_555
C34 C33 1_555 1_555
C35 C34 1_555 1_555
H42 C35 1_555 1_555
C36 C35 1_555 1_555
H43 C36 1_555 1_555
C37 C36 1_555 1_555
H44 C37 1_555 1_555
C38 C37 1_555 1_555
H45 C38 1_555 1_555
H46 C38 1_555 1_555
C39 C38 1_555 1_555
H47 C39 1_555 1_555
H48 C39 1_555 1_555
C40 O8 1_555 1_555
C41 C36 1_555 1_555
C42 C41 1_555 1_555
H49 C42 1_555 1_555
H50 C42 1_555 1_555
H51 C42 1_555 1_555
C43 C41 1_555 1_555
H52 C43 1_555 1_555
H53 C43 1_555 1_555
H54 C43 1_555 1_555
C44 C40 1_555 1_555
H55 C44 1_555 1_555
H56 C44 1_555 1_555
H57 C44 1_555 1_555
C45 C34 1_555 1_555
H58 C45 1_555 1_555
H59 C45 1_555 1_555
H60 C45 1_555 1_555
C46 C34 1_555 1_555
H61 C46 1_555 1_555
C47 C46 1_555 1_555
C48 O7 1_555 1_555
C49 C48 1_555 1_555
C50 O11 1_555 1_555
C51 C50 1_555 1_555
C52 O9 1_555 1_555
C53 C46 1_555 1_555
C54 C53 1_555 1_555
H62 C54 1_555 1_555
C55 C54 1_555 1_555
H63 C55 1_555 1_555
C56 C55 1_555 1_555
H64 C56 1_555 1_555
C57 C56 1_555 1_555
H65 C57 1_555 1_555
C58 C53 1_555 1_555
H66 C58 1_555 1_555
C59 C49 1_555 1_555
H67 C59 1_555 1_555
C60 C51 1_555 1_555
H68 C60 1_555 1_555
C1 C10 1_555 1_555
C7 C11 1_555 1_555
C9 C10 1_555 1_555
C17 C18 1_555 1_555
C17 C22 1_555 1_555
C19 C20 1_555 1_555
C21 C22 1_555 1_555
C27 C28 1_555 1_555
C31 C40 1_555 1_555
C37 C41 1_555 1_555
C39 C40 1_555 1_555
C47 C48 1_555 1_555
C47 C52 1_555 1_555
C49 C50 1_555 1_555
C51 C52 1_555 1_555
C57 C58 1_555 1_555

#END
