
#######################################################################
#
#                 Cambridge Crystallographic Data Centre
#                                CCDC 
#
#######################################################################
#
# If this CIF has been generated from an entry in the Cambridge 
# Structural Database, then it will include bibliographic, chemical, 
# crystal, experimental, refinement or atomic coordinate data resulting 
# from the CCDC's data processing and validation procedures.
#
#######################################################################

data_RENHIC
_chemical_formula_moiety         'C17 H14 O2 S1'
_chemical_name_systematic        
(E)-2-(Methylthio)-1,4-diphenylbut-2-ene-1,4-dione
_symmetry_cell_setting           monoclinic
_symmetry_space_group_name_H-M   'P 21/c'
_symmetry_Int_Tables_number      14
_space_group_name_Hall           '-P 2ybc'
loop_
_symmetry_equiv_pos_site_id
_symmetry_equiv_pos_as_xyz
1 x,y,z
2 -x,1/2+y,1/2-z
3 -x,-y,-z
4 x,1/2-y,1/2+z
_cell_length_a                   9.6295(9)
_cell_length_b                   10.5087(10)
_cell_length_c                   15.1393(14)
_cell_angle_alpha                90
_cell_angle_beta                 105.982(2)
_cell_angle_gamma                90
_cell_volume                     1472.78
_exptl_crystal_colour            colorless
_exptl_crystal_description       block
_chemical_melting_point          '94-95 deg.C'
_cell_formula_units_Z            4
loop_
_atom_site_label
_atom_site_type_symbol
_atom_site_fract_x
_atom_site_fract_y
_atom_site_fract_z
S1 S 1.04341(4) 0.87338(4) 0.18192(3)
C1 C 0.91543(14) 0.64157(12) 0.12946(9)
H1 H 1.0059 0.6034 0.1486
C2 C 0.90304(13) 0.76779(12) 0.13771(8)
O1 O 0.66638(11) 0.60829(10) 0.08034(8)
O2 O 0.72165(13) 0.87267(10) 0.02424(7)
C3 C 0.78710(13) 0.56330(12) 0.09043(9)
C4 C 0.68770(14) 0.87969(12) 0.17340(9)
C5 C 0.76155(15) 0.83992(12) 0.10389(9)
C6 C 0.93742(16) 0.37133(13) 0.07385(10)
H2 H 1.0217 0.4181 0.0965
C7 C 0.80411(14) 0.42896(12) 0.06374(8)
C8 C 0.67933(17) 0.35830(14) 0.02737(10)
H3 H 0.5892 0.3960 0.0189
C9 C 0.8210(2) 0.17568(16) 0.01577(12)
H4 H 0.8266 0.0905 0.0005
C10 C 1.19648(17) 0.77187(19) 0.22201(13)
H5 H 1.1798 0.7145 0.2673
H6 H 1.2805 0.8225 0.2488
H7 H 1.2115 0.7240 0.1714
C11 C 0.58740(18) 0.97783(15) 0.15229(14)
H8 H 0.5642 1.0155 0.0945
C12 C 0.6509(2) 0.8640(2) 0.32414(13)
H9 H 0.6707 0.8247 0.3813
C13 C 0.71883(16) 0.82288(17) 0.25961(10)
H10 H 0.7856 0.7569 0.2741
C14 C 0.6890(2) 0.23212(16) 0.00373(12)
H11 H 0.6052 0.1853 -0.0205
C15 C 0.94551(19) 0.24480(15) 0.05038(11)
H12 H 1.0351 0.2065 0.0580
C16 C 0.5548(2) 0.9624(2) 0.30353(17)
H13 H 0.5110 0.9914 0.3473
C17 C 0.5223(2) 1.01908(19) 0.21798(19)
H14 H 0.4561 1.0856 0.2044
loop_
_geom_bond_atom_site_label_1
_geom_bond_atom_site_label_2
_geom_bond_site_symmetry_1
_geom_bond_site_symmetry_2
S1 C2 1_555 1_555
C1 H1 1_555 1_555
C2 C1 1_555 1_555
O1 C3 1_555 1_555
O2 C5 1_555 1_555
C3 C1 1_555 1_555
C4 C5 1_555 1_555
C5 C2 1_555 1_555
C6 H2 1_555 1_555
C7 C3 1_555 1_555
C8 C7 1_555 1_555
H3 C8 1_555 1_555
C9 H4 1_555 1_555
C10 S1 1_555 1_555
H5 C10 1_555 1_555
H6 C10 1_555 1_555
H7 C10 1_555 1_555
C11 C4 1_555 1_555
H8 C11 1_555 1_555
C12 H9 1_555 1_555
C13 C4 1_555 1_555
H10 C13 1_555 1_555
C14 C8 1_555 1_555
H11 C14 1_555 1_555
C15 C6 1_555 1_555
H12 C15 1_555 1_555
C16 C12 1_555 1_555
H13 C16 1_555 1_555
C17 C11 1_555 1_555
H14 C17 1_555 1_555
C6 C7 1_555 1_555
C9 C14 1_555 1_555
C9 C15 1_555 1_555
C12 C13 1_555 1_555
C16 C17 1_555 1_555

#END
