
#######################################################################
#
#                 Cambridge Crystallographic Data Centre
#                                CCDC 
#
#######################################################################
#
# If this CIF has been generated from an entry in the Cambridge 
# Structural Database, then it will include bibliographic, chemical, 
# crystal, experimental, refinement or atomic coordinate data resulting 
# from the CCDC's data processing and validation procedures.
#
#######################################################################

data_RENHEA
_chemical_formula_moiety         'C15 H17 N5 O1'
_chemical_name_systematic        
2-amino-3-((4-(diethylamino)-2-hydroxybenzylidene)amino)but-2-enedinitrile
_symmetry_cell_setting           monoclinic
_symmetry_space_group_name_H-M   'P 21/n'
_symmetry_Int_Tables_number      14
_space_group_name_Hall           '-P 2yn'
loop_
_symmetry_equiv_pos_site_id
_symmetry_equiv_pos_as_xyz
1 x,y,z
2 1/2-x,1/2+y,1/2-z
3 -x,-y,-z
4 1/2+x,1/2-y,1/2+z
_cell_length_a                   9.956(2)
_cell_length_b                   7.2740(15)
_cell_length_c                   21.198(4)
_cell_angle_alpha                90
_cell_angle_beta                 91.92(3)
_cell_angle_gamma                90
_cell_volume                     1534.3
_exptl_crystal_colour            colorless
_exptl_crystal_description       prism
_cell_formula_units_Z            4
_exptl_crystal_recrystallization_method Chloroform
loop_
_atom_site_label
_atom_site_type_symbol
_atom_site_fract_x
_atom_site_fract_y
_atom_site_fract_z
O1 O 0.7899(2) 0.2701(3) 0.52678(10)
H1 H 0.8407 0.3308 0.5498
N1 N 0.4693(3) 0.3324(4) 0.35714(14)
N2 N 0.9177(2) 0.5707(3) 0.56856(9)
N3 N 1.0614(2) 0.3886(3) 0.66748(10)
H2 H 1.0351 0.3316 0.6321
H3 H 1.1404 0.3438 0.6810
N4 N 1.2309(3) 0.7454(4) 0.73532(12)
N5 N 1.0298(3) 1.0185(3) 0.59974(13)
C1 C 0.3691(6) 0.0429(8) 0.3914(3)
H4 H 0.3672 -0.0884 0.3869
H5 H 0.2817 0.0922 0.3810
H6 H 0.3943 0.0742 0.4341
C2 C 0.4707(5) 0.1233(6) 0.3472(2)
H7 H 0.4461 0.0935 0.3037
H8 H 0.5595 0.0741 0.3569
C3 C 0.3563(5) 0.4484(8) 0.3293(2)
H9 H 0.3436 0.5585 0.3542
H10 H 0.2728 0.3797 0.3271
C4 C 0.4018(7) 0.4968(11) 0.2636(3)
H11 H 0.3353 0.5730 0.2428
H12 H 0.4133 0.3861 0.2397
H13 H 0.4856 0.5619 0.2669
C5 C 0.5618(3) 0.4093(4) 0.39860(14)
C6 C 0.6313(3) 0.3041(4) 0.44427(13)
H14 H 0.6136 0.1789 0.4473
C7 C 0.7254(3) 0.3830(4) 0.48476(12)
C8 C 0.7557(2) 0.5713(3) 0.48265(11)
C9 C 0.6853(3) 0.6744(4) 0.43676(13)
H15 H 0.7027 0.7997 0.4340
C10 C 0.5917(3) 0.5985(4) 0.39576(14)
H16 H 0.5476 0.6722 0.3658
C11 C 0.8516(2) 0.6585(3) 0.52394(11)
H17 H 0.8677 0.7835 0.5188
C12 C 1.0056(2) 0.6662(3) 0.60973(11)
C13 C 1.0739(2) 0.5728(3) 0.65621(11)
C14 C 1.0220(3) 0.8621(4) 0.60489(12)
C15 C 1.1614(3) 0.6711(4) 0.69979(12)
C16? C 0.4552(12) 0.0254(15) 0.3375(6)
H18? H 0.4134 -0.0910 0.3451
H19? H 0.5488 0.0191 0.3498
H20? H 0.4464 0.0546 0.2934
C17? C 0.3874(9) 0.1737(11) 0.3756(4)
H21? H 0.2935 0.1887 0.3629
H22? H 0.3951 0.1499 0.4206
C18? C 0.4407(6) 0.4259(10) 0.2931(3)
H23? H 0.5129 0.5092 0.2829
H24? H 0.4302 0.3353 0.2597
C19? C 0.3108(8) 0.5300(13) 0.3017(4)
H25? H 0.2857 0.5927 0.2633
H26? H 0.3233 0.6180 0.3352
H27? H 0.2411 0.4452 0.3123
loop_
_geom_bond_atom_site_label_1
_geom_bond_atom_site_label_2
_geom_bond_site_symmetry_1
_geom_bond_site_symmetry_2
O1 H1 1_555 1_555
N1 C2 1_555 1_555
N2 C11 1_555 1_555
N3 H2 1_555 1_555
H3 N3 1_555 1_555
N4 C15 1_555 1_555
N5 C14 1_555 1_555
C1 H4 1_555 1_555
H5 C1 1_555 1_555
H6 C1 1_555 1_555
C2 C1 1_555 1_555
H7 C2 1_555 1_555
H8 C2 1_555 1_555
C3 N1 1_555 1_555
H9 C3 1_555 1_555
H10 C3 1_555 1_555
C4 C3 1_555 1_555
H11 C4 1_555 1_555
H12 C4 1_555 1_555
H13 C4 1_555 1_555
C5 N1 1_555 1_555
C6 C5 1_555 1_555
H14 C6 1_555 1_555
C7 O1 1_555 1_555
C8 C7 1_555 1_555
C9 C8 1_555 1_555
H15 C9 1_555 1_555
C10 C5 1_555 1_555
H16 C10 1_555 1_555
C11 C8 1_555 1_555
H17 C11 1_555 1_555
C12 N2 1_555 1_555
C13 N3 1_555 1_555
C14 C12 1_555 1_555
C15 C13 1_555 1_555
C6 C7 1_555 1_555
C9 C10 1_555 1_555
C12 C13 1_555 1_555

#END
