
#######################################################################
#
#                 Cambridge Crystallographic Data Centre
#                                CCDC 
#
#######################################################################
#
# If this CIF has been generated from an entry in the Cambridge 
# Structural Database, then it will include bibliographic, chemical, 
# crystal, experimental, refinement or atomic coordinate data resulting 
# from the CCDC's data processing and validation procedures.
#
#######################################################################

data_RENJEB
_chemical_formula_moiety         'C26 H21 N1 O3'
_chemical_name_systematic        
'Ethyl 4-benzyl-1-methyl-5-oxo-4,5-dihydronaphtho[3,2,1-cd]indole-6-carboxylate'
_symmetry_cell_setting           orthorhombic
_symmetry_space_group_name_H-M   'P n a 21'
_symmetry_Int_Tables_number      33
_space_group_name_Hall           'P 2c -2n'
loop_
_symmetry_equiv_pos_site_id
_symmetry_equiv_pos_as_xyz
1 x,y,z
2 -x,-y,1/2+z
3 1/2+x,1/2-y,z
4 1/2-x,1/2+y,1/2+z
_cell_length_a                   11.4787(15)
_cell_length_b                   12.4590(16)
_cell_length_c                   27.785(4)
_cell_angle_alpha                90
_cell_angle_beta                 90
_cell_angle_gamma                90
_cell_volume                     3973.62
_chemical_melting_point          '141-142 deg.C'
_cell_formula_units_Z            8
loop_
_atom_site_label
_atom_site_type_symbol
_atom_site_fract_x
_atom_site_fract_y
_atom_site_fract_z
C1 C -0.0401(3) 0.3904(2) 0.38553(12)
C2 C -0.0740(3) 0.3762(3) 0.43354(13)
H1 H -0.0279 0.4051 0.4578
C3 C -0.1730(3) 0.3210(3) 0.44594(14)
H2 H -0.1931 0.3140 0.4782
C4 C -0.2434(3) 0.2755(3) 0.41082(16)
H3 H -0.3111 0.2392 0.4193
C5 C -0.2118(3) 0.2849(3) 0.36364(14)
H4 H -0.2580 0.2528 0.3402
C6 C -0.1116(3) 0.3417(3) 0.34913(13)
C7 C -0.0860(3) 0.3529(3) 0.29862(13)
C8 C 0.0080(3) 0.4125(3) 0.28562(12)
C9 C 0.0598(3) 0.4398(3) 0.23813(14)
C10 C 0.1728(3) 0.5114(3) 0.29860(13)
C11 C 0.2540(3) 0.5626(3) 0.32623(15)
H5 H 0.3164 0.5988 0.3124
C12 C 0.2396(3) 0.5582(3) 0.37592(14)
H6 H 0.2946 0.5936 0.3947
C13 C 0.1503(3) 0.5058(3) 0.39983(13)
C14 C 0.0637(3) 0.4520(3) 0.37131(12)
C15 C 0.0802(3) 0.4588(3) 0.32205(13)
C16 C 0.2485(3) 0.5274(3) 0.21350(14)
H7 H 0.2231 0.5033 0.1820
H8 H 0.3191 0.4886 0.2215
C17 C 0.2764(3) 0.6457(3) 0.21076(13)
C18 C 0.1998(3) 0.7245(4) 0.22511(13)
H9 H 0.1286 0.7055 0.2386
C19 C 0.2282(4) 0.8319(4) 0.21959(15)
H10 H 0.1766 0.8846 0.2299
C20 C 0.3306(4) 0.8602(4) 0.19930(17)
H11 H 0.3488 0.9324 0.1956
C21 C 0.4074(4) 0.7841(5) 0.18423(16)
H12 H 0.4775 0.8043 0.1701
C22 C 0.3806(3) 0.6765(4) 0.18998(14)
H13 H 0.4332 0.6245 0.1798
C23 C 0.1507(3) 0.5117(4) 0.45418(14)
H14 H 0.2108 0.5600 0.4646
H15 H 0.1649 0.4416 0.4672
H16 H 0.0765 0.5374 0.4652
C24 C -0.1581(3) 0.2954(3) 0.26173(13)
C25 C -0.3161(4) 0.3084(4) 0.20684(17)
H17 H -0.2727 0.2735 0.1813
H18 H -0.3621 0.2543 0.2233
C26 C -0.3926(5) 0.3897(5) 0.1865(2)
H19 H -0.4336 0.4256 0.2120
H20 H -0.4477 0.3562 0.1653
H21 H -0.3471 0.4410 0.1688
N1 N 0.1586(2) 0.5001(2) 0.24872(11)
O1 O 0.0270(2) 0.4151(2) 0.19796(9)
O2 O -0.1483(3) 0.2023(3) 0.25374(13)
O3 O -0.2349(2) 0.35929(19) 0.24103(9)
C27 C 0.2706(3) 0.8879(3) 0.39303(12)
C28 C 0.3075(3) 0.8744(3) 0.34495(14)
H22 H 0.2629 0.9042 0.3204
C29 C 0.4073(3) 0.8185(3) 0.33297(15)
H23 H 0.4290 0.8121 0.3008
C30 C 0.4758(3) 0.7717(3) 0.36868(15)
H24 H 0.5430 0.7341 0.3605
C31 C 0.4436(3) 0.7816(3) 0.41545(14)
H25 H 0.4892 0.7494 0.4391
C32 C 0.3424(3) 0.8396(2) 0.42950(13)
C33 C 0.3152(3) 0.8502(3) 0.47976(12)
C34 C 0.2204(3) 0.9103(3) 0.49200(13)
C35 C 0.1667(3) 0.9383(3) 0.53975(13)
C36 C 0.0582(3) 1.0114(3) 0.47841(13)
C37 C -0.0220(3) 1.0634(3) 0.45103(15)
H26 H -0.0844 1.1001 0.4647
C38 C -0.0056(3) 1.0588(3) 0.40101(15)
H27 H -0.0588 1.0956 0.3819
C39 C 0.0833(3) 1.0039(3) 0.37768(13)
C40 C 0.1676(3) 0.9497(3) 0.40695(13)
C41 C 0.1495(3) 0.9560(3) 0.45656(12)
C42 C -0.0166(3) 1.0317(3) 0.56418(16)
H28 H 0.0095 1.0073 0.5955
H29 H -0.0890 0.9950 0.5570
C43 C -0.0397(3) 1.1501(3) 0.56671(13)
C44 C 0.0388(3) 1.2272(4) 0.55126(13)
H30 H 0.1084 1.2063 0.5369
C45 C 0.0144(4) 1.3344(4) 0.55709(14)
H31 H 0.0688 1.3850 0.5471
C46 C -0.0871(4) 1.3681(4) 0.57715(15)
H32 H -0.1017 1.4410 0.5811
C47 C -0.1665(3) 1.2951(4) 0.59125(15)
H33 H -0.2367 1.3178 0.6045
C48 C -0.1447(3) 1.1863(4) 0.58612(14)
H34 H -0.2007 1.1368 0.5957
C49 C 0.0822(3) 1.0059(4) 0.32374(14)
H35 H 0.0148 1.0444 0.3128
H36 H 0.0797 0.9337 0.3117
H37 H 0.1513 1.0408 0.3122
C50 C 0.3867(3) 0.7951(3) 0.51759(15)
C51 C 0.5193(5) 0.8165(4) 0.58200(18)
H38 H 0.5420 0.7430 0.5755
H39 H 0.4702 0.8173 0.6104
C52 C 0.6243(5) 0.8839(6) 0.5900(2)
H40 H 0.6649 0.8934 0.5601
H41 H 0.6748 0.8491 0.6127
H42 H 0.6013 0.9526 0.6024
N2 N 0.0700(3) 1.0009(2) 0.52842(11)
O4 O 0.1973(2) 0.9140(2) 0.58059(10)
O5 O 0.4558(2) 0.8608(2) 0.54079(9)
O6 O 0.3796(3) 0.6993(2) 0.52466(13)
loop_
_geom_bond_atom_site_label_1
_geom_bond_atom_site_label_2
_geom_bond_site_symmetry_1
_geom_bond_site_symmetry_2
C1 C2 1_555 1_555
C2 H1 1_555 1_555
C3 C2 1_555 1_555
H2 C3 1_555 1_555
C4 C3 1_555 1_555
H3 C4 1_555 1_555
C5 C4 1_555 1_555
H4 C5 1_555 1_555
C6 C1 1_555 1_555
C7 C6 1_555 1_555
C8 C7 1_555 1_555
C9 C8 1_555 1_555
C10 C11 1_555 1_555
C11 H5 1_555 1_555
C12 C11 1_555 1_555
H6 C12 1_555 1_555
C13 C12 1_555 1_555
C14 C1 1_555 1_555
C15 C8 1_555 1_555
C16 H7 1_555 1_555
H8 C16 1_555 1_555
C17 C16 1_555 1_555
C18 C17 1_555 1_555
H9 C18 1_555 1_555
C19 C18 1_555 1_555
H10 C19 1_555 1_555
C20 C19 1_555 1_555
H11 C20 1_555 1_555
C21 C20 1_555 1_555
H12 C21 1_555 1_555
C22 C17 1_555 1_555
H13 C22 1_555 1_555
C23 C13 1_555 1_555
H14 C23 1_555 1_555
H15 C23 1_555 1_555
H16 C23 1_555 1_555
C24 C7 1_555 1_555
C25 H17 1_555 1_555
H18 C25 1_555 1_555
C26 C25 1_555 1_555
H19 C26 1_555 1_555
H20 C26 1_555 1_555
H21 C26 1_555 1_555
C27 C28 1_555 1_555
C28 H22 1_555 1_555
C29 C28 1_555 1_555
H23 C29 1_555 1_555
C30 C29 1_555 1_555
H24 C30 1_555 1_555
C31 C30 1_555 1_555
H25 C31 1_555 1_555
C32 C27 1_555 1_555
C33 C32 1_555 1_555
C34 C33 1_555 1_555
C35 C34 1_555 1_555
C36 C37 1_555 1_555
C37 H26 1_555 1_555
C38 C37 1_555 1_555
H27 C38 1_555 1_555
C39 C38 1_555 1_555
C40 C27 1_555 1_555
C41 C34 1_555 1_555
C42 H28 1_555 1_555
H29 C42 1_555 1_555
C43 C42 1_555 1_555
C44 C43 1_555 1_555
H30 C44 1_555 1_555
C45 C44 1_555 1_555
H31 C45 1_555 1_555
C46 C45 1_555 1_555
H32 C46 1_555 1_555
C47 C46 1_555 1_555
H33 C47 1_555 1_555
C48 C43 1_555 1_555
H34 C48 1_555 1_555
C49 C39 1_555 1_555
H35 C49 1_555 1_555
H36 C49 1_555 1_555
H37 C49 1_555 1_555
C50 C33 1_555 1_555
C51 H38 1_555 1_555
H39 C51 1_555 1_555
C52 C51 1_555 1_555
H40 C52 1_555 1_555
H41 C52 1_555 1_555
H42 C52 1_555 1_555
N1 C9 1_555 1_555
N2 C35 1_555 1_555
O1 C9 1_555 1_555
O2 C24 1_555 1_555
O3 C24 1_555 1_555
O4 C35 1_555 1_555
O5 C50 1_555 1_555
O6 C50 1_555 1_555
C5 C6 1_555 1_555
C10 C15 1_555 1_555
C10 N1 1_555 1_555
C13 C14 1_555 1_555
C14 C15 1_555 1_555
C16 N1 1_555 1_555
C21 C22 1_555 1_555
C25 O3 1_555 1_555
C31 C32 1_555 1_555
C36 C41 1_555 1_555
C36 N2 1_555 1_555
C39 C40 1_555 1_555
C40 C41 1_555 1_555
C42 N2 1_555 1_555
C47 C48 1_555 1_555
C51 O5 1_555 1_555

#END
