
#######################################################################
#
#                 Cambridge Crystallographic Data Centre
#                                CCDC 
#
#######################################################################
#
# If this CIF has been generated from an entry in the Cambridge 
# Structural Database, then it will include bibliographic, chemical, 
# crystal, experimental, refinement or atomic coordinate data resulting 
# from the CCDC's data processing and validation procedures.
#
#######################################################################

data_RENJOL
_chemical_formula_moiety         'C20 H17 N1 O4'
_chemical_name_systematic        
'Ethyl 10-methoxy-4-methyl-5-oxo-4,5-dihydronaphtho[3,2,1-cd]indole-6-carboxylate'
_symmetry_cell_setting           monoclinic
_symmetry_space_group_name_H-M   'P 21/n'
_symmetry_Int_Tables_number      14
_space_group_name_Hall           '-P 2yn'
loop_
_symmetry_equiv_pos_site_id
_symmetry_equiv_pos_as_xyz
1 x,y,z
2 1/2-x,1/2+y,1/2-z
3 -x,-y,-z
4 1/2+x,1/2-y,1/2+z
_cell_length_a                   11.582(3)
_cell_length_b                   12.044(3)
_cell_length_c                   12.456(3)
_cell_angle_alpha                90
_cell_angle_beta                 108.772(3)
_cell_angle_gamma                90
_cell_volume                     1645.11
_chemical_melting_point          '200-201 deg.C'
_cell_formula_units_Z            4
loop_
_atom_site_label
_atom_site_type_symbol
_atom_site_fract_x
_atom_site_fract_y
_atom_site_fract_z
C1 C 0.5829(2) 0.1844(2) 0.1444(2)
C2 C 0.5373(3) 0.0843(3) 0.1757(3)
C3 C 0.5794(3) -0.0170(3) 0.1562(3)
H1 H 0.5485 -0.0811 0.1784
C4 C 0.6678(3) -0.0250(3) 0.1038(3)
H2 H 0.6959 -0.0946 0.0912
C5 C 0.7144(3) 0.0679(3) 0.0703(3)
H3 H 0.7732 0.0611 0.0345
C6 C 0.6740(2) 0.1735(2) 0.0896(2)
C7 C 0.7295(3) 0.2704(3) 0.0582(2)
C8 C 0.6938(3) 0.3721(2) 0.0817(2)
C9 C 0.7307(3) 0.4876(3) 0.0631(3)
C10 C 0.5816(3) 0.4950(3) 0.1478(3)
C11 C 0.6031(3) 0.3818(2) 0.1345(2)
C12 C 0.5443(2) 0.2946(2) 0.1665(2)
C13 C 0.4554(3) 0.3279(3) 0.2169(3)
H4 H 0.4113 0.2747 0.2415
C14 C 0.4349(3) 0.4390(3) 0.2289(3)
H5 H 0.3761 0.4580 0.2619
C15 C 0.4960(3) 0.5255(3) 0.1953(3)
H6 H 0.4790 0.5996 0.2049
C16 C 0.4086(4) 0.0025(3) 0.2726(4)
H7 H 0.3697 -0.0483 0.2125
H8 H 0.3513 0.0255 0.3094
H9 H 0.4768 -0.0334 0.3267
C17 C 0.8217(3) 0.2575(3) -0.0011(3)
C18 C 1.0301(3) 0.2568(4) 0.0186(4)
H10 H 1.0573 0.3310 0.0086
H11 H 1.0004 0.2212 -0.0551
C19 C 1.1352(5) 0.1899(7) 0.0978(6)
H12 H 1.1364 0.1995 0.1747
H13 H 1.2109 0.2155 0.0907
H14 H 1.1245 0.1127 0.0779
C20 C 0.6665(4) 0.6765(3) 0.1053(3)
H15 H 0.7228 0.6997 0.0675
H16 H 0.6941 0.7027 0.1822
H17 H 0.5874 0.7068 0.0666
N1 N 0.6595(2) 0.5562(2) 0.1046(2)
O1 O 0.4502(2) 0.0976(2) 0.2269(2)
O2 O 0.7955(3) 0.2439(3) -0.1012(2)
O3 O 0.9336(2) 0.2619(2) 0.0697(2)
O4 O 0.8071(2) 0.5182(2) 0.0213(2)
loop_
_geom_bond_atom_site_label_1
_geom_bond_atom_site_label_2
_geom_bond_site_symmetry_1
_geom_bond_site_symmetry_2
C1 C2 1_555 1_555
C2 C3 1_555 1_555
C3 H1 1_555 1_555
C4 C3 1_555 1_555
H2 C4 1_555 1_555
C5 C4 1_555 1_555
H3 C5 1_555 1_555
C6 C1 1_555 1_555
C7 C6 1_555 1_555
C8 C7 1_555 1_555
C9 C8 1_555 1_555
C10 C11 1_555 1_555
C11 C8 1_555 1_555
C12 C1 1_555 1_555
C13 C12 1_555 1_555
H4 C13 1_555 1_555
C14 C13 1_555 1_555
H5 C14 1_555 1_555
C15 C10 1_555 1_555
H6 C15 1_555 1_555
C16 H7 1_555 1_555
H8 C16 1_555 1_555
H9 C16 1_555 1_555
C17 C7 1_555 1_555
C18 H10 1_555 1_555
H11 C18 1_555 1_555
C19 C18 1_555 1_555
H12 C19 1_555 1_555
H13 C19 1_555 1_555
H14 C19 1_555 1_555
C20 H15 1_555 1_555
H16 C20 1_555 1_555
H17 C20 1_555 1_555
N1 C9 1_555 1_555
O1 C2 1_555 1_555
O2 C17 1_555 1_555
O3 C17 1_555 1_555
O4 C9 1_555 1_555
C5 C6 1_555 1_555
C10 N1 1_555 1_555
C11 C12 1_555 1_555
C14 C15 1_555 1_555
C16 O1 1_555 1_555
C18 O3 1_555 1_555
C20 N1 1_555 1_555

#END
