
#######################################################################
#
#                 Cambridge Crystallographic Data Centre
#                                CCDC 
#
#######################################################################
#
# If this CIF has been generated from an entry in the Cambridge 
# Structural Database, then it will include bibliographic, chemical, 
# crystal, experimental, refinement or atomic coordinate data resulting 
# from the CCDC's data processing and validation procedures.
#
#######################################################################

data_RENKEC01
_chemical_formula_moiety         'C16 H21 N3 O2'
_chemical_name_systematic        
5-(3-(dimethylamino)benzylidene)-2-(2-hydroxypropyl)-3-methyl-3,5-dihydro-4H-imidazol-4-one
_symmetry_cell_setting           triclinic
_symmetry_space_group_name_H-M   'P -1'
_symmetry_Int_Tables_number      2
_space_group_name_Hall           '-P 1'
loop_
_symmetry_equiv_pos_site_id
_symmetry_equiv_pos_as_xyz
1 x,y,z
2 -x,-y,-z
_cell_length_a                   7.4623(8)
_cell_length_b                   7.9403(9)
_cell_length_c                   14.3735(15)
_cell_angle_alpha                100.622(9)
_cell_angle_beta                 92.419(9)
_cell_angle_gamma                112.362(10)
_cell_volume                     768.194
_exptl_crystal_description       plate
_cell_formula_units_Z            2
loop_
_atom_site_label
_atom_site_type_symbol
_atom_site_fract_x
_atom_site_fract_y
_atom_site_fract_z
N1 N 0.3179(5) 0.0339(4) 0.2114(2)
N2 N 0.5043(5) 0.3164(4) 0.3026(2)
N3 N -0.0108(7) -0.8020(5) 0.3486(3)
C1 C 0.4814(6) 0.1983(5) 0.3634(3)
C2 C 0.4038(6) 0.2098(5) 0.2141(3)
C3 C 0.3564(6) 0.0085(5) 0.3034(2)
C4 C 0.2999(6) -0.1463(5) 0.3357(2)
H1 H 0.3467 -0.1322 0.3989
C5 C 0.1737(6) -0.3381(5) 0.2865(2)
C6 C 0.0860(7) -0.3856(5) 0.1918(3)
H2 H 0.1067 -0.2947 0.1562
C7 C -0.0318(7) -0.5705(6) 0.1526(3)
H3 H -0.0891 -0.6025 0.0897
C8 C -0.0673(7) -0.7084(5) 0.2032(3)
H4 H -0.1494 -0.8306 0.1747
C9 C 0.0197(6) -0.6657(5) 0.2977(3)
C10 C 0.1389(6) -0.4779(5) 0.3371(2)
H5 H 0.1971 -0.4459 0.3998
C11 C 0.6177(7) 0.5164(5) 0.3286(3)
H6 H 0.6709 0.5513 0.3946
H7 H 0.5351 0.5807 0.3185
H8 H 0.7222 0.5494 0.2899
C12 C 0.4018(7) 0.2987(6) 0.1317(3)
H9 H 0.5333 0.3494 0.1147
H10 H 0.3625 0.4019 0.1510
C13 C 0.2673(11) 0.1678(8) 0.0448(3)
H11 H 0.1345 0.1297 0.0625
C14 C 0.2725(14) 0.2648(10) -0.0357(4)
H12 H 0.1820 0.1792 -0.0891
H13 H 0.4018 0.3085 -0.0540
H14 H 0.2368 0.3688 -0.0156
C15 C -0.1324(8) -0.9946(6) 0.3073(4)
H15 H -0.1667 -1.0089 0.2404
H16 H -0.2490 -1.0320 0.3379
H17 H -0.0627 -1.0712 0.3163
C16 C 0.0541(9) -0.7559(7) 0.4493(3)
H18 H 0.1331 -0.6248 0.4689
H19 H 0.1296 -0.8253 0.4624
H20 H -0.0572 -0.7869 0.4839
O1 O 0.5504(5) 0.2442(4) 0.44729(19)
O2 O 0.2930(11) 0.0125(9) 0.0117(3)
H21 H 0.313(18) -0.062(10) 0.040(4)
loop_
_geom_bond_atom_site_label_1
_geom_bond_atom_site_label_2
_geom_bond_site_symmetry_1
_geom_bond_site_symmetry_2
N1 C2 1_555 1_555
N2 C1 1_555 1_555
N3 C9 1_555 1_555
C1 C3 1_555 1_555
C2 N2 1_555 1_555
C3 N1 1_555 1_555
C4 C3 1_555 1_555
H1 C4 1_555 1_555
C5 C4 1_555 1_555
C6 C5 1_555 1_555
H2 C6 1_555 1_555
C7 C6 1_555 1_555
H3 C7 1_555 1_555
C8 C7 1_555 1_555
H4 C8 1_555 1_555
C9 C8 1_555 1_555
C10 C5 1_555 1_555
H5 C10 1_555 1_555
C11 N2 1_555 1_555
H6 C11 1_555 1_555
H7 C11 1_555 1_555
H8 C11 1_555 1_555
C12 C2 1_555 1_555
H9 C12 1_555 1_555
H10 C12 1_555 1_555
C13 C12 1_555 1_555
H11 C13 1_555 1_555
C14 C13 1_555 1_555
H12 C14 1_555 1_555
H13 C14 1_555 1_555
H14 C14 1_555 1_555
C15 N3 1_555 1_555
H15 C15 1_555 1_555
H16 C15 1_555 1_555
H17 C15 1_555 1_555
C16 N3 1_555 1_555
H18 C16 1_555 1_555
H19 C16 1_555 1_555
H20 C16 1_555 1_555
O1 C1 1_555 1_555
O2 C13 1_555 1_555
H21 O2 1_555 1_555
C9 C10 1_555 1_555

#END
