
#######################################################################
#
#                 Cambridge Crystallographic Data Centre
#                                CCDC 
#
#######################################################################
#
# If this CIF has been generated from an entry in the Cambridge 
# Structural Database, then it will include bibliographic, chemical, 
# crystal, experimental, refinement or atomic coordinate data resulting 
# from the CCDC's data processing and validation procedures.
#
#######################################################################

data_RENLUU
_chemical_formula_moiety         'C17 H16 N2 O3'
_chemical_name_systematic        
'methyl 2-cyano-4-oxo-3-phenyl-2,3,4,5,6,7-hexahydro-1H-indole-2-carboxylate'
_symmetry_cell_setting           monoclinic
_symmetry_space_group_name_H-M   'P 21'
_symmetry_Int_Tables_number      4
_space_group_name_Hall           'P 2yb'
loop_
_symmetry_equiv_pos_site_id
_symmetry_equiv_pos_as_xyz
1 x,y,z
2 -x,1/2+y,-z
_cell_length_a                   10.3945(6)
_cell_length_b                   14.2510(8)
_cell_length_c                   10.8994(5)
_cell_angle_alpha                90
_cell_angle_beta                 104.558(2)
_cell_angle_gamma                90
_cell_volume                     1562.71
_exptl_crystal_colour            colorless
_exptl_crystal_description       granular
_cell_formula_units_Z            4
loop_
_atom_site_label
_atom_site_type_symbol
_atom_site_fract_x
_atom_site_fract_y
_atom_site_fract_z
O1 O 0.01703(18) 0.02702(16) 0.37799(19)
O2 O -0.12440(18) 0.1474(2) 0.3355(3)
O3 O 0.29552(13) 0.39100(10) 0.44298(13)
C1 C 0.39185(16) 0.20265(14) 0.27116(19)
H1 H 0.3576 0.2495 0.2126
C2 C 0.31765(11) 0.16911(10) 0.35170(13)
C3 C 0.17884(11) 0.20479(10) 0.34422(13)
H2 H 0.1627 0.2031 0.4290
C4 C 0.14874(13) 0.30142(10) 0.28963(14)
C5 C 0.56879(18) 0.09600(19) 0.3647(2)
H3 H 0.6529 0.0718 0.3691
C6 C 0.51788(19) 0.16575(18) 0.2786(3)
H4 H 0.5678 0.1883 0.2251
C7 C 0.21283(14) 0.38627(12) 0.33900(15)
C8 C 0.1750(2) 0.47248(14) 0.2567(2)
H5 H 0.2355 0.4784 0.2023
H6 H 0.1864 0.5275 0.3108
C9 C 0.0327(3) 0.47101(17) 0.1740(2)
H7 H -0.0284 0.4783 0.2275
H8 H 0.0199 0.5238 0.1160
C10 C -0.0558(4) -0.0143(4) 0.4617(4)
H9 H -0.0545 0.0277 0.5308
H10 H -0.0151 -0.0727 0.4943
H11 H -0.1461 -0.0254 0.4156
C11 C -0.02876(16) 0.10747(18) 0.3250(2)
C12 C 0.06597(13) 0.14479(12) 0.24883(15)
N1 N 0.00215(15) 0.21134(13) 0.15174(16)
H12 H -0.0581 0.1968 0.0847
C13 C 0.04907(14) 0.29838(12) 0.17997(15)
C14 C 0.49561(19) 0.06198(16) 0.4444(2)
H13 H 0.5297 0.0144 0.5018
C15 C 0.37036(15) 0.09920(13) 0.43844(16)
H14 H 0.3215 0.0770 0.4931
C16 C 0.0002(2) 0.38095(16) 0.09843(19)
H15 H -0.0952 0.3761 0.0644
H16 H 0.0414 0.3821 0.0279
C17 C 0.12061(17) 0.06563(14) 0.19013(17)
N2 N 0.1596(2) 0.00460(18) 0.1433(2)
O4 O 0.31872(17) 0.41364(12) 0.81972(16)
O5 O 0.2479(4) 0.30888(19) 0.9373(3)
O6 O 0.75722(15) 0.17542(13) 0.97414(17)
C18 C 0.2828(3) 0.48883(19) 0.8960(3)
H17 H 0.1879 0.4909 0.8823
H18 H 0.3138 0.5478 0.8718
H19 H 0.3230 0.4772 0.9841
C19 C 0.2957(2) 0.32891(16) 0.8524(2)
C20 C 0.34284(18) 0.25221(13) 0.77167(18)
C21 C 0.46142(16) 0.19574(13) 0.86409(15)
H20 H 0.4744 0.2197 0.9506
C22 C 0.43816(15) 0.09087(13) 0.86383(16)
C23 C 0.4698(2) 0.03320(16) 0.7729(2)
H21 H 0.5081 0.0586 0.7119
C24 C 0.4442(3) -0.06244(19) 0.7733(3)
H22 H 0.4639 -0.1005 0.7111
C25 C 0.3899(3) -0.10165(19) 0.8645(3)
H23 H 0.3734 -0.1658 0.8642
N3 N 0.39971(15) 0.28706(13) 0.67226(14)
H24 H 0.3548 0.3126 0.6033
C26 C 0.53231(16) 0.27426(13) 0.70194(16)
C27 C 0.6190(2) 0.31019(17) 0.6223(2)
H25 H 0.6362 0.3765 0.6387
H26 H 0.5744 0.3026 0.5333
C28 C 0.7497(2) 0.2563(2) 0.6528(3)
H27 H 0.7345 0.1936 0.6173
H28 H 0.8121 0.2876 0.6137
C29 C 0.80947(19) 0.24934(17) 0.7949(3)
H29 H 0.8867 0.2086 0.8100
H30 H 0.8397 0.3111 0.8269
C30 C 0.71494(17) 0.21223(14) 0.86876(19)
C31 C 0.57691(16) 0.22611(13) 0.81232(17)
C32 C 0.3604(3) -0.04471(19) 0.9563(3)
H31 H 0.3254 -0.0709 1.0191
C33 C 0.3826(2) 0.05068(16) 0.9554(2)
H32 H 0.3602 0.0886 1.0164
C34 C 0.2257(2) 0.19333(18) 0.7163(2)
N4 N 0.1331(3) 0.1517(2) 0.6695(3)
loop_
_geom_bond_atom_site_label_1
_geom_bond_atom_site_label_2
_geom_bond_site_symmetry_1
_geom_bond_site_symmetry_2
O1 C10 1_555 1_555
O2 C11 1_555 1_555
O3 C7 1_555 1_555
C1 H1 1_555 1_555
C2 C1 1_555 1_555
C3 C2 1_555 1_555
H2 C3 1_555 1_555
C4 C3 1_555 1_555
C5 H3 1_555 1_555
C6 C1 1_555 1_555
H4 C6 1_555 1_555
C7 C4 1_555 1_555
C8 C7 1_555 1_555
H5 C8 1_555 1_555
H6 C8 1_555 1_555
C9 C8 1_555 1_555
H7 C9 1_555 1_555
H8 C9 1_555 1_555
C10 H9 1_555 1_555
H10 C10 1_555 1_555
H11 C10 1_555 1_555
C11 O1 1_555 1_555
C12 C3 1_555 1_555
N1 C12 1_555 1_555
H12 N1 1_555 1_555
C13 C4 1_555 1_555
C14 C5 1_555 1_555
H13 C14 1_555 1_555
C15 C2 1_555 1_555
H14 C15 1_555 1_555
C16 C9 1_555 1_555
H15 C16 1_555 1_555
H16 C16 1_555 1_555
C17 C12 1_555 1_555
N2 C17 1_555 1_555
O4 C18 1_555 1_555
O5 C19 1_555 1_555
O6 C30 1_555 1_555
C18 H17 1_555 1_555
H18 C18 1_555 1_555
H19 C18 1_555 1_555
C19 O4 1_555 1_555
C20 C19 1_555 1_555
C21 C20 1_555 1_555
H20 C21 1_555 1_555
C22 C21 1_555 1_555
C23 C22 1_555 1_555
H21 C23 1_555 1_555
C24 C23 1_555 1_555
H22 C24 1_555 1_555
C25 C24 1_555 1_555
H23 C25 1_555 1_555
N3 C20 1_555 1_555
H24 N3 1_555 1_555
C26 N3 1_555 1_555
C27 C26 1_555 1_555
H25 C27 1_555 1_555
H26 C27 1_555 1_555
C28 C27 1_555 1_555
H27 C28 1_555 1_555
H28 C28 1_555 1_555
C29 C28 1_555 1_555
H29 C29 1_555 1_555
H30 C29 1_555 1_555
C30 C29 1_555 1_555
C31 C21 1_555 1_555
C32 C25 1_555 1_555
H31 C32 1_555 1_555
C33 C22 1_555 1_555
H32 C33 1_555 1_555
C34 C20 1_555 1_555
N4 C34 1_555 1_555
C5 C6 1_555 1_555
C11 C12 1_555 1_555
N1 C13 1_555 1_555
C13 C16 1_555 1_555
C14 C15 1_555 1_555
C26 C31 1_555 1_555
C30 C31 1_555 1_555
C32 C33 1_555 1_555

#END
