
#######################################################################
#
#                 Cambridge Crystallographic Data Centre
#                                CCDC 
#
#######################################################################
#
# If this CIF has been generated from an entry in the Cambridge 
# Structural Database, then it will include bibliographic, chemical, 
# crystal, experimental, refinement or atomic coordinate data resulting 
# from the CCDC's data processing and validation procedures.
#
#######################################################################

data_RENMII
_chemical_formula_moiety         'C20 H22 O3'
_chemical_name_systematic        
6-(1-Methoxy-3-phenylprop-2-yn-1-yl)spiro[4.5]decane-1,7-dione
_symmetry_cell_setting           orthorhombic
_symmetry_space_group_name_H-M   'P b c a'
_symmetry_Int_Tables_number      61
_space_group_name_Hall           '-P 2ac 2ab'
loop_
_symmetry_equiv_pos_site_id
_symmetry_equiv_pos_as_xyz
1 x,y,z
2 1/2-x,-y,1/2+z
3 1/2+x,1/2-y,-z
4 -x,1/2+y,1/2-z
5 -x,-y,-z
6 1/2+x,y,1/2-z
7 1/2-x,1/2+y,z
8 x,1/2-y,1/2+z
_cell_length_a                   9.30(4)
_cell_length_b                   18.67(8)
_cell_length_c                   19.80(4)
_cell_angle_alpha                90
_cell_angle_beta                 90
_cell_angle_gamma                90
_cell_volume                     3437.89
_exptl_crystal_colour            'light yellow'
_exptl_crystal_description       needle
_cell_formula_units_Z            8
loop_
_atom_site_label
_atom_site_type_symbol
_atom_site_fract_x
_atom_site_fract_y
_atom_site_fract_z
O1 O 1.00250(15) 0.79127(9) 0.57788(8)
O2 O 0.88489(15) 0.63342(8) 0.59340(8)
C1 C 0.6464(2) 0.59687(13) 0.58479(11)
C2 C 0.5521(2) 0.56399(12) 0.61007(11)
C3 C 0.3719(2) 0.46743(13) 0.61840(12)
H1 H 0.4091 0.4459 0.5798
C4 C 0.9105(2) 0.78034(11) 0.61820(11)
C5 C 0.3809(3) 0.56247(15) 0.70086(13)
H2 H 0.4224 0.6041 0.7178
C6 C 0.4350(2) 0.53027(12) 0.64332(10)
C7 C 0.7071(3) 0.85251(14) 0.58042(14)
H3 H 0.6033 0.8527 0.5759
H4 H 0.7316 0.8849 0.6170
C8 C 0.7279(2) 0.72013(11) 0.54176(10)
H5 H 0.6238 0.7222 0.5342
C9 C 0.7944(2) 0.74935(13) 0.47743(11)
C10 C 0.9466(3) 0.56224(14) 0.59336(16)
H6 H 0.9692 0.5484 0.5479
H7 H 0.8788 0.5290 0.6121
H8 H 1.0328 0.5621 0.6201
C11 C 0.7568(2) 0.77373(12) 0.60095(10)
C12 C 0.6897(3) 0.75035(16) 0.66815(11)
H9 H 0.5934 0.7697 0.6726
H10 H 0.6842 0.6985 0.6706
C13 C 0.2669(3) 0.53241(18) 0.73205(14)
H11 H 0.2301 0.5533 0.7710
C14 C 0.9291(3) 0.77666(17) 0.69343(12)
H12 H 0.9779 0.7327 0.7061
H13 H 0.9854 0.8170 0.7094
C15 C 0.2569(3) 0.43774(14) 0.65000(15)
H14 H 0.2152 0.3960 0.6335
C16 C 0.7622(2) 0.63801(12) 0.55385(11)
H15 H 0.7839 0.6163 0.5099
C17 C 0.2036(3) 0.47047(16) 0.70654(15)
H16 H 0.1240 0.4510 0.7283
C18 C 0.7717(3) 0.88128(13) 0.51602(14)
H17 H 0.8730 0.8911 0.5229
H18 H 0.7246 0.9258 0.5038
C19 C 0.7536(3) 0.82674(14) 0.45871(13)
H19 H 0.8124 0.8418 0.4208
H20 H 0.6541 0.8274 0.4440
C20 C 0.7843(4) 0.7786(2) 0.72255(14)
H21 H 0.7575 0.8272 0.7345
H22 H 0.7788 0.7487 0.7626
O3 O 0.86780(17) 0.71087(10) 0.44225(8)
loop_
_geom_bond_atom_site_label_1
_geom_bond_atom_site_label_2
_geom_bond_site_symmetry_1
_geom_bond_site_symmetry_2
O1 C4 1_555 1_555
O2 C10 1_555 1_555
C1 C2 1_555 1_555
C2 C6 1_555 1_555
C3 H1 1_555 1_555
C4 C11 1_555 1_555
C5 H2 1_555 1_555
C6 C3 1_555 1_555
C7 H3 1_555 1_555
H4 C7 1_555 1_555
C8 H5 1_555 1_555
C9 C8 1_555 1_555
C10 H6 1_555 1_555
H7 C10 1_555 1_555
H8 C10 1_555 1_555
C11 C7 1_555 1_555
C12 C11 1_555 1_555
H9 C12 1_555 1_555
H10 C12 1_555 1_555
C13 C5 1_555 1_555
H11 C13 1_555 1_555
C14 C4 1_555 1_555
H12 C14 1_555 1_555
H13 C14 1_555 1_555
C15 C3 1_555 1_555
H14 C15 1_555 1_555
C16 O2 1_555 1_555
H15 C16 1_555 1_555
C17 C13 1_555 1_555
H16 C17 1_555 1_555
C18 C7 1_555 1_555
H17 C18 1_555 1_555
H18 C18 1_555 1_555
C19 C9 1_555 1_555
H19 C19 1_555 1_555
H20 C19 1_555 1_555
C20 C12 1_555 1_555
H21 C20 1_555 1_555
H22 C20 1_555 1_555
O3 C9 1_555 1_555
C1 C16 1_555 1_555
C5 C6 1_555 1_555
C8 C11 1_555 1_555
C8 C16 1_555 1_555
C14 C20 1_555 1_555
C15 C17 1_555 1_555
C18 C19 1_555 1_555

#END
