
#######################################################################
#
#                 Cambridge Crystallographic Data Centre
#                                CCDC 
#
#######################################################################
#
# If this CIF has been generated from an entry in the Cambridge 
# Structural Database, then it will include bibliographic, chemical, 
# crystal, experimental, refinement or atomic coordinate data resulting 
# from the CCDC's data processing and validation procedures.
#
#######################################################################

data_RENMAB
_chemical_formula_moiety         'C24 H19 N3 O6'
_chemical_name_systematic        
3a-benzyl-9-(4-nitrophenyl)-2,8-dioxo-1,2,5,7,8,9-hexahydro-3aH-chromeno[3,2-d][1,3]oxazole-9a(6H)-carbonitrile
_symmetry_cell_setting           monoclinic
_symmetry_space_group_name_H-M   'P 21/n'
_symmetry_Int_Tables_number      14
_space_group_name_Hall           '-P 2yn'
loop_
_symmetry_equiv_pos_site_id
_symmetry_equiv_pos_as_xyz
1 x,y,z
2 1/2-x,1/2+y,1/2-z
3 -x,-y,-z
4 1/2+x,1/2-y,1/2+z
_cell_length_a                   10.738(6)
_cell_length_b                   17.604(8)
_cell_length_c                   11.007(7)
_cell_angle_alpha                90
_cell_angle_beta                 90.78(3)
_cell_angle_gamma                90
_cell_volume                     2080.48
_exptl_crystal_colour            'pale yellow'
_exptl_crystal_description       Granular
_cell_formula_units_Z            4
loop_
_atom_site_label
_atom_site_type_symbol
_atom_site_fract_x
_atom_site_fract_y
_atom_site_fract_z
O1 O 1.07527(14) 0.07950(8) 0.30165(10)
O2 O 0.90527(9) 0.26004(5) 0.94294(9)
O3 O 1.08750(10) 0.28868(5) 1.04019(8)
N1 N 1.10483(12) 0.16355(6) 1.06162(9)
H1 H 1.1072 0.1200 1.0970
O4 O 1.14676(12) 0.24319(7) 1.22373(9)
O5 O 0.83686(10) -0.00458(5) 0.95113(11)
C1 C 0.99830(10) 0.11402(6) 0.87607(9)
H2 H 1.0282 0.0638 0.9016
O6 O 0.89830(13) 0.13667(11) 0.30060(11)
C2 C 0.83499(11) 0.19681(6) 0.96160(10)
C3 C 0.94410(18) 0.53909(8) 0.82218(15)
H3 H 0.9178 0.5894 0.8189
C4 C 1.06355(16) 0.52198(8) 0.85849(16)
H4 H 1.1179 0.5608 0.8812
C5 C 1.10375(14) 0.44687(8) 0.86146(14)
H5 H 1.1848 0.4359 0.8867
C6 C 1.02443(13) 0.38795(7) 0.82728(10)
C7 C 1.07267(14) 0.30684(7) 0.82391(11)
H6 H 1.1628 0.3084 0.8198
H7 H 1.0420 0.2830 0.7499
C8 C 1.03677(11) 0.25731(6) 0.93098(10)
C9 C 1.08850(11) 0.17388(6) 0.93196(10)
C10 C 0.99547(10) 0.11498(6) 0.73775(9)
C11 C 0.90135(12) 0.15176(8) 0.67258(11)
H8 H 0.8389 0.1770 0.7141
C12 C 0.89945(13) 0.15125(9) 0.54640(11)
H9 H 0.8363 0.1758 0.5030
C13 C 0.99341(12) 0.11350(7) 0.48663(10)
N2 N 0.98911(12) 0.11037(7) 0.35344(10)
C14 C 1.08879(11) 0.07713(7) 0.67394(11)
H10 H 1.1516 0.0519 0.7167
C15 C 1.08907(12) 0.07673(7) 0.54796(11)
H11 H 1.1520 0.0523 0.5058
C16 C 0.87350(11) 0.12611(6) 0.93308(9)
C17 C 1.11584(13) 0.23064(7) 1.12043(11)
C18 C 1.21240(12) 0.17185(8) 0.87344(13)
N3 N 1.30950(14) 0.17107(11) 0.83296(19)
C19 C 0.86310(17) 0.48119(9) 0.79059(17)
H12 H 0.7813 0.4925 0.7683
C20 C 0.90356(15) 0.40567(8) 0.79205(15)
H13 H 0.8489 0.3671 0.7692
C21 C 0.71164(13) 0.21610(8) 1.01334(13)
H14 H 0.6800 0.2620 0.9753
H15 H 0.7210 0.2256 1.0998
C22 C 0.61922(14) 0.15165(10) 0.99275(15)
H16 H 0.5457 0.1606 1.0410
H17 H 0.5937 0.1507 0.9079
C23 C 0.67531(16) 0.07523(9) 1.02714(16)
H18 H 0.6870 0.0732 1.1146
H19 H 0.6173 0.0353 1.0042
C24 C 0.79840(12) 0.06043(7) 0.96733(11)
loop_
_geom_bond_atom_site_label_1
_geom_bond_atom_site_label_2
_geom_bond_site_symmetry_1
_geom_bond_site_symmetry_2
O1 N2 1_555 1_555
O2 C2 1_555 1_555
O3 C8 1_555 1_555
N1 H1 1_555 1_555
O4 C17 1_555 1_555
O5 C24 1_555 1_555
C1 H2 1_555 1_555
O6 N2 1_555 1_555
C2 C16 1_555 1_555
C3 H3 1_555 1_555
C4 C3 1_555 1_555
H4 C4 1_555 1_555
C5 C4 1_555 1_555
H5 C5 1_555 1_555
C6 C5 1_555 1_555
C7 C6 1_555 1_555
H6 C7 1_555 1_555
H7 C7 1_555 1_555
C8 O2 1_555 1_555
C9 N1 1_555 1_555
C10 C1 1_555 1_555
C11 C10 1_555 1_555
H8 C11 1_555 1_555
C12 C11 1_555 1_555
H9 C12 1_555 1_555
C13 C12 1_555 1_555
N2 C13 1_555 1_555
C14 C10 1_555 1_555
H10 C14 1_555 1_555
C15 C13 1_555 1_555
H11 C15 1_555 1_555
C16 C1 1_555 1_555
C17 O3 1_555 1_555
C18 C9 1_555 1_555
N3 C18 1_555 1_555
C19 C3 1_555 1_555
H12 C19 1_555 1_555
C20 C6 1_555 1_555
H13 C20 1_555 1_555
C21 C2 1_555 1_555
H14 C21 1_555 1_555
H15 C21 1_555 1_555
C22 C21 1_555 1_555
H16 C22 1_555 1_555
H17 C22 1_555 1_555
C23 C22 1_555 1_555
H18 C23 1_555 1_555
H19 C23 1_555 1_555
C24 C16 1_555 1_555
N1 C17 1_555 1_555
C1 C9 1_555 1_555
C7 C8 1_555 1_555
C8 C9 1_555 1_555
C14 C15 1_555 1_555
C19 C20 1_555 1_555
C23 C24 1_555 1_555

#END
