
#######################################################################
#
#                 Cambridge Crystallographic Data Centre
#                                CCDC 
#
#######################################################################
#
# If this CIF has been generated from an entry in the Cambridge 
# Structural Database, then it will include bibliographic, chemical, 
# crystal, experimental, refinement or atomic coordinate data resulting 
# from the CCDC's data processing and validation procedures.
#
#######################################################################

data_RENMUU
_chemical_formula_moiety         'C16 H22 N2 O3 S1'
_chemical_name_systematic        
1-(1-Benzyl-2,2-dioxidooctahydro-1H-2,1,3-benzothiadiazin-4-yl)ethanone
_symmetry_cell_setting           monoclinic
_symmetry_space_group_name_H-M   'P 21/n'
_symmetry_Int_Tables_number      14
_space_group_name_Hall           '-P 2yn'
loop_
_symmetry_equiv_pos_site_id
_symmetry_equiv_pos_as_xyz
1 x,y,z
2 1/2-x,1/2+y,1/2-z
3 -x,-y,-z
4 1/2+x,1/2-y,1/2+z
_cell_length_a                   5.0990(2)
_cell_length_b                   15.0874(7)
_cell_length_c                   20.8353(10)
_cell_angle_alpha                90
_cell_angle_beta                 96.234(3)
_cell_angle_gamma                90
_cell_volume                     1593.39
_exptl_crystal_colour            colorless
_exptl_crystal_description       block
_cell_formula_units_Z            4
loop_
_atom_site_label
_atom_site_type_symbol
_atom_site_fract_x
_atom_site_fract_y
_atom_site_fract_z
S1 S 1.05916(11) 0.73592(4) 0.72920(3)
O1 O 0.6154(4) 0.54927(13) 0.83262(10)
O2 O 1.3378(3) 0.72524(11) 0.74561(9)
O3 O 0.9472(3) 0.82288(11) 0.72751(9)
N1 N 0.9155(4) 0.67634(13) 0.78053(10)
H1 H 0.750(4) 0.681(2) 0.7776(15)
N2 N 0.9900(4) 0.68954(13) 0.65817(10)
C1 C 0.8449(5) 0.53263(16) 0.82815(13)
C2 C 0.9894(5) 0.58080(15) 0.77814(12)
H2 H 1.1835 0.5754 0.7909
C3 C 0.7310(5) 0.71335(16) 0.62255(12)
H3 H 0.6446 0.7591 0.6471
H4 H 0.6157 0.6604 0.6189
C4 C 0.7628(5) 0.74815(15) 0.55570(12)
C5 C 0.5870(5) 0.72415(17) 0.50336(14)
H5 H 0.4485 0.6838 0.5093
C6 C 0.6098(6) 0.75800(18) 0.44261(14)
H6 H 0.4868 0.7409 0.4072
C7 C 0.8101(6) 0.81646(18) 0.43285(14)
H7 H 0.8270 0.8392 0.3910
C8 C 0.9254(5) 0.54047(15) 0.71029(12)
H8 H 0.7304 0.5431 0.6981
C9 C 1.0154(5) 0.44335(16) 0.70917(13)
H9 H 1.2044 0.4399 0.7259
H10 H 0.9146 0.4082 0.7383
C10 C 0.9772(6) 0.40292(17) 0.64195(14)
H11 H 0.7866 0.4009 0.6266
H12 H 1.0451 0.3414 0.6437
C11 C 1.1207(6) 0.45657(18) 0.59477(14)
H13 H 1.0872 0.4304 0.5511
H14 H 1.3130 0.4547 0.6080
C12 C 1.0251(6) 0.55304(17) 0.59323(13)
H15 H 1.1246 0.5879 0.5637
H16 H 0.8359 0.5552 0.5766
C13 C 1.0641(5) 0.59340(15) 0.66033(12)
H17 H 1.2575 0.5907 0.6747
C14 C 0.9624(6) 0.80774(18) 0.54592(14)
H18 H 1.0839 0.8255 0.5814
C15 C 0.9858(6) 0.84136(19) 0.48515(15)
H19 H 1.1237 0.8819 0.4792
C16 C 1.0002(6) 0.46782(18) 0.87143(15)
H20 H 1.1284 0.4999 0.9013
H21 H 1.0934 0.4269 0.8453
H22 H 0.8803 0.4343 0.8960
loop_
_geom_bond_atom_site_label_1
_geom_bond_atom_site_label_2
_geom_bond_site_symmetry_1
_geom_bond_site_symmetry_2
S1 O2 1_555 1_555
O1 C1 1_555 1_555
O3 S1 1_555 1_555
N1 S1 1_555 1_555
H1 N1 1_555 1_555
N2 S1 1_555 1_555
C1 C2 1_555 1_555
C2 N1 1_555 1_555
H2 C2 1_555 1_555
C3 N2 1_555 1_555
H3 C3 1_555 1_555
H4 C3 1_555 1_555
C4 C3 1_555 1_555
C5 C4 1_555 1_555
H5 C5 1_555 1_555
C6 C5 1_555 1_555
H6 C6 1_555 1_555
C7 C6 1_555 1_555
H7 C7 1_555 1_555
C8 C2 1_555 1_555
H8 C8 1_555 1_555
C9 C8 1_555 1_555
H9 C9 1_555 1_555
H10 C9 1_555 1_555
C10 C9 1_555 1_555
H11 C10 1_555 1_555
H12 C10 1_555 1_555
C11 C10 1_555 1_555
H13 C11 1_555 1_555
H14 C11 1_555 1_555
C12 C11 1_555 1_555
H15 C12 1_555 1_555
H16 C12 1_555 1_555
C13 N2 1_555 1_555
H17 C13 1_555 1_555
C14 C4 1_555 1_555
H18 C14 1_555 1_555
C15 C7 1_555 1_555
H19 C15 1_555 1_555
C16 C1 1_555 1_555
H20 C16 1_555 1_555
H21 C16 1_555 1_555
H22 C16 1_555 1_555
C8 C13 1_555 1_555
C12 C13 1_555 1_555
C14 C15 1_555 1_555

#END
