
#######################################################################
#
#                 Cambridge Crystallographic Data Centre
#                                CCDC 
#
#######################################################################
#
# If this CIF has been generated from an entry in the Cambridge 
# Structural Database, then it will include bibliographic, chemical, 
# crystal, experimental, refinement or atomic coordinate data resulting 
# from the CCDC's data processing and validation procedures.
#
#######################################################################

data_RENNIJ
_chemical_formula_moiety         'C44 H70 B2 O4 S2 Si2'
_chemical_name_systematic        
(5,10-bis(4,4,5,5-Tetramethyl-1,3,2-dioxaborolan-2-yl)thieno[2',3':5,6]naphtho[1,2-b]thiene-2,7-diyl)bis(tri-isopropylsilane)
_symmetry_cell_setting           monoclinic
_symmetry_space_group_name_H-M   'C 2/c'
_symmetry_Int_Tables_number      15
_space_group_name_Hall           '-C 2yn'
loop_
_symmetry_equiv_pos_site_id
_symmetry_equiv_pos_as_xyz
1 x,y,z
2 -x,y,1/2-z
3 1/2+x,1/2+y,z
4 1/2-x,1/2+y,1/2-z
5 -x,-y,-z
6 x,-y,1/2+z
7 1/2-x,1/2-y,-z
8 1/2+x,1/2-y,1/2+z
_cell_length_a                   25.371(17)
_cell_length_b                   15.486(10)
_cell_length_c                   15.010(10)
_cell_angle_alpha                90
_cell_angle_beta                 115.3550(16)
_cell_angle_gamma                90
_cell_volume                     5329.28
_exptl_crystal_colour            colorless
_exptl_crystal_description       block
_chemical_melting_point          'above 300 deg.C'
_cell_formula_units_Z            4
_exptl_crystal_recrystallization_method hexane
loop_
_atom_site_label
_atom_site_type_symbol
_atom_site_fract_x
_atom_site_fract_y
_atom_site_fract_z
S1 S 0.295857(9) 0.130499(15) 0.711205(15)
C1 C 0.23734(3) 0.10431(6) 0.73701(6)
C2 C 0.18800(3) 0.13909(6) 0.66827(6)
H1 H 0.1520 0.1322 0.6698
C3 C 0.19496(3) 0.18749(5) 0.59263(6)
C4 C 0.15225(3) 0.23196(6) 0.51076(6)
C5 C 0.17009(3) 0.27166(6) 0.44625(6)
H2 H 0.1424 0.3002 0.3919
C6 C 0.22818(3) 0.27107(5) 0.45877(5)
C7 C 0.25283(3) 0.18758(5) 0.60737(5)
Si1 Si 0.247031(11) 0.033486(17) 0.844064(17)
C8 C 0.31564(5) 0.07202(8) 0.95150(8)
H3 H 0.3464 0.0687 0.9287
C9 C 0.31487(7) 0.16393(9) 0.98058(11)
H4 H 0.2870 0.1708 1.0075
H5 H 0.3043 0.2003 0.9237
H6 H 0.3529 0.1799 1.0292
C10 C 0.33522(9) 0.01398(11) 1.03978(11)
H7 H 0.3695 0.0377 1.0920
H8 H 0.3440 -0.0422 1.0226
H9 H 0.3047 0.0093 1.0613
C11 C 0.25846(5) -0.08051(7) 0.81287(8)
H10 H 0.2610 -0.1169 0.8680
C12 C 0.31445(6) -0.09304(9) 0.80205(11)
H11 H 0.3178 -0.1524 0.7868
H12 H 0.3470 -0.0778 0.8626
H13 H 0.3141 -0.0569 0.7498
C13 C 0.20676(8) -0.11337(10) 0.72094(12)
H14 H 0.2011 -0.0767 0.6660
H15 H 0.1722 -0.1128 0.7322
H16 H 0.2144 -0.1713 0.7069
C14 C 0.17809(5) 0.04227(8) 0.86018(8)
H17 H 0.1472 0.0272 0.7955
C15 C 0.16158(6) 0.12926(11) 0.88168(11)
H18 H 0.1207 0.1301 0.8657
H19 H 0.1699 0.1717 0.8429
H20 H 0.1835 0.1421 0.9504
C16 C 0.17231(6) -0.02268(11) 0.92917(12)
H21 H 0.2028 -0.0140 0.9941
H22 H 0.1753 -0.0798 0.9069
H23 H 0.1351 -0.0160 0.9308
B1 B 0.08647(5) 0.24353(13) 0.49720(11)
O1 O 0.05070(5) 0.29626(11) 0.42430(11)
C17 C -0.00665(8) 0.2895(2) 0.4327(2)
C18 C 0.00408(7) 0.24461(19) 0.51752(19)
O2 O 0.06782(4) 0.21423(12) 0.55715(10)
C19 C -0.02735(12) 0.3776(2) 0.4163(3)
H24 H -0.0038 0.4122 0.4724
H25 H -0.0672 0.3793 0.4069
H26 H -0.0247 0.4000 0.3587
C20 C -0.05205(13) 0.2515(3) 0.3256(3)
H27 H -0.0398 0.1947 0.3167
H28 H -0.0525 0.2888 0.2743
H29 H -0.0905 0.2485 0.3230
C21 C 0.01190(13) 0.3160(3) 0.5929(3)
H30 H -0.0256 0.3338 0.5875
H31 H 0.0313 0.3645 0.5803
H32 H 0.0349 0.2945 0.6582
C22 C -0.03419(12) 0.1749(3) 0.5249(3)
H33 H -0.0719 0.1983 0.5111
H34 H -0.0173 0.1512 0.5903
H35 H -0.0381 0.1303 0.4782
S1F S 0.204143(9) 0.369501(15) 0.288795(15)
C1F C 0.26266(3) 0.39569(6) 0.26299(6)
C2F C 0.31200(3) 0.36091(6) 0.33173(6)
H1F H 0.3480 0.3678 0.3302
C3F C 0.30504(3) 0.31251(5) 0.40737(6)
C4F C 0.34775(3) 0.26804(6) 0.48924(6)
C5F C 0.32991(3) 0.22834(6) 0.55375(6)
H2F H 0.3576 0.1998 0.6081
C6F C 0.27182(3) 0.22893(5) 0.54123(5)
C7F C 0.24717(3) 0.31242(5) 0.39263(5)
Si1F Si 0.252969(11) 0.466514(17) 0.155936(17)
C8F C 0.18436(5) 0.42798(8) 0.04850(8)
H3F H 0.1536 0.4313 0.0713
C9F C 0.18513(7) 0.33607(9) 0.01942(11)
H4F H 0.2130 0.3292 -0.0075
H5F H 0.1957 0.2997 0.0763
H6F H 0.1471 0.3201 -0.0292
C10F C 0.16478(9) 0.48602(11) -0.03978(11)
H7F H 0.1305 0.4623 -0.0920
H8F H 0.1560 0.5422 -0.0226
H9F H 0.1953 0.4907 -0.0613
C11F C 0.24154(5) 0.58051(7) 0.18713(8)
H10F H 0.2390 0.6169 0.1320
C12F C 0.18555(6) 0.59304(9) 0.19795(11)
H11F H 0.1822 0.6524 0.2132
H12F H 0.1530 0.5778 0.1374
H13F H 0.1859 0.5569 0.2502
C13F C 0.29324(8) 0.61337(10) 0.27906(12)
H14F H 0.2989 0.5767 0.3340
H15F H 0.3278 0.6128 0.2678
H16F H 0.2856 0.6713 0.2931
C14F C 0.32191(5) 0.45773(8) 0.13982(8)
H17F H 0.3528 0.4728 0.2045
C15F C 0.33842(6) 0.37074(11) 0.11832(11)
H18F H 0.3793 0.3699 0.1343
H19F H 0.3301 0.3283 0.1571
H20F H 0.3165 0.3579 0.0496
C16F C 0.32769(6) 0.52268(11) 0.07083(12)
H21F H 0.2972 0.5140 0.0059
H22F H 0.3247 0.5798 0.0931
H23F H 0.3649 0.5160 0.0692
B1F B 0.41353(5) 0.25647(13) 0.50280(11)
O1F O 0.44930(5) 0.20374(11) 0.57570(11)
C17F C 0.50665(8) 0.2105(2) 0.5673(2)
C18F C 0.49592(7) 0.25539(19) 0.48248(19)
O2F O 0.43218(4) 0.28577(12) 0.44285(10)
C19F C 0.52735(12) 0.1224(2) 0.5837(3)
H24F H 0.5038 0.0878 0.5276
H25F H 0.5672 0.1207 0.5931
H26F H 0.5247 0.1000 0.6413
C20F C 0.55205(13) 0.2485(3) 0.6744(3)
H27F H 0.5398 0.3053 0.6833
H28F H 0.5525 0.2112 0.7257
H29F H 0.5905 0.2515 0.6770
C21F C 0.48810(13) 0.1840(3) 0.4071(3)
H30F H 0.5256 0.1662 0.4125
H31F H 0.4687 0.1355 0.4197
H32F H 0.4651 0.2055 0.3418
C22F C 0.53419(12) 0.3251(3) 0.4751(3)
H33F H 0.5719 0.3017 0.4889
H34F H 0.5173 0.3488 0.4097
H35F H 0.5381 0.3697 0.5218
B2? B 0.09060(13) 0.2260(3) 0.4779(2)
C23? C -0.00519(11) 0.2625(3) 0.4093(3)
C24? C 0.00528(11) 0.2000(3) 0.4986(3)
C25? C -0.0279(2) 0.1786(3) 0.3482(5)
C26? C -0.05523(17) 0.3196(3) 0.3532(5)
C27? C -0.01827(17) 0.2214(4) 0.5746(3)
C28? C -0.02146(19) 0.1118(3) 0.4717(5)
H36? H -0.0273 0.1689 0.5991
H37? H -0.0529 0.2558 0.5440
H38? H 0.0107 0.2531 0.6283
H39? H -0.0562 0.3661 0.3947
H40? H -0.0908 0.2871 0.3314
H41? H -0.0512 0.3426 0.2970
H42? H 0.0006 0.1337 0.3757
H43? H -0.0346 0.1890 0.2812
H44? H -0.0637 0.1613 0.3502
H45? H -0.0113 0.0868 0.4227
H46? H -0.0631 0.1164 0.4460
H47? H -0.0071 0.0758 0.5293
O3? O 0.04533(7) 0.26124(19) 0.40523(15)
O4? O 0.05795(7) 0.18245(17) 0.52844(15)
loop_
_geom_bond_atom_site_label_1
_geom_bond_atom_site_label_2
_geom_bond_site_symmetry_1
_geom_bond_site_symmetry_2
S1 C1 1_555 1_555
C1 C2 1_555 1_555
C2 H1 1_555 1_555
C3 C2 1_555 1_555
C4 C3 1_555 1_555
C5 C4 1_555 1_555
H2 C5 1_555 1_555
C6 C5 1_555 1_555
C7 S1 1_555 1_555
Si1 C1 1_555 1_555
C8 Si1 1_555 1_555
H3 C8 1_555 1_555
C9 C8 1_555 1_555
H4 C9 1_555 1_555
H5 C9 1_555 1_555
H6 C9 1_555 1_555
C10 C8 1_555 1_555
H7 C10 1_555 1_555
H8 C10 1_555 1_555
H9 C10 1_555 1_555
C11 Si1 1_555 1_555
H10 C11 1_555 1_555
C12 C11 1_555 1_555
H11 C12 1_555 1_555
H12 C12 1_555 1_555
H13 C12 1_555 1_555
C13 C11 1_555 1_555
H14 C13 1_555 1_555
H15 C13 1_555 1_555
H16 C13 1_555 1_555
C14 Si1 1_555 1_555
H17 C14 1_555 1_555
C15 C14 1_555 1_555
H18 C15 1_555 1_555
H19 C15 1_555 1_555
H20 C15 1_555 1_555
C16 C14 1_555 1_555
H21 C16 1_555 1_555
H22 C16 1_555 1_555
H23 C16 1_555 1_555
B1 C4 1_555 1_555
O1 B1 1_555 1_555
C17 O1 1_555 1_555
C18 C17 1_555 1_555
O2 B1 1_555 1_555
C19 C17 1_555 1_555
H24 C19 1_555 1_555
H25 C19 1_555 1_555
H26 C19 1_555 1_555
C20 C17 1_555 1_555
H27 C20 1_555 1_555
H28 C20 1_555 1_555
H29 C20 1_555 1_555
C21 C18 1_555 1_555
H30 C21 1_555 1_555
H31 C21 1_555 1_555
H32 C21 1_555 1_555
C22 C18 1_555 1_555
H33 C22 1_555 1_555
H34 C22 1_555 1_555
H35 C22 1_555 1_555
S1F C1F 1_555 1_555
C1F C2F 1_555 1_555
C2F H1F 1_555 1_555
C3F C2F 1_555 1_555
C4F C3F 1_555 1_555
C5F C4F 1_555 1_555
H2F C5F 1_555 1_555
C6F C6 1_555 1_555
C7F C6 1_555 1_555
Si1F C1F 1_555 1_555
C8F Si1F 1_555 1_555
H3F C8F 1_555 1_555
C9F C8F 1_555 1_555
H4F C9F 1_555 1_555
H5F C9F 1_555 1_555
H6F C9F 1_555 1_555
C10F C8F 1_555 1_555
H7F C10F 1_555 1_555
H8F C10F 1_555 1_555
H9F C10F 1_555 1_555
C11F Si1F 1_555 1_555
H10F C11F 1_555 1_555
C12F C11F 1_555 1_555
H11F C12F 1_555 1_555
H12F C12F 1_555 1_555
H13F C12F 1_555 1_555
C13F C11F 1_555 1_555
H14F C13F 1_555 1_555
H15F C13F 1_555 1_555
H16F C13F 1_555 1_555
C14F Si1F 1_555 1_555
H17F C14F 1_555 1_555
C15F C14F 1_555 1_555
H18F C15F 1_555 1_555
H19F C15F 1_555 1_555
H20F C15F 1_555 1_555
C16F C14F 1_555 1_555
H21F C16F 1_555 1_555
H22F C16F 1_555 1_555
H23F C16F 1_555 1_555
B1F C4F 1_555 1_555
O1F B1F 1_555 1_555
C17F O1F 1_555 1_555
C18F C17F 1_555 1_555
O2F B1F 1_555 1_555
C19F C17F 1_555 1_555
H24F C19F 1_555 1_555
H25F C19F 1_555 1_555
H26F C19F 1_555 1_555
C20F C17F 1_555 1_555
H27F C20F 1_555 1_555
H28F C20F 1_555 1_555
H29F C20F 1_555 1_555
C21F C18F 1_555 1_555
H30F C21F 1_555 1_555
H31F C21F 1_555 1_555
H32F C21F 1_555 1_555
C22F C18F 1_555 1_555
H33F C22F 1_555 1_555
H34F C22F 1_555 1_555
H35F C22F 1_555 1_555
C3 C7 1_555 1_555
C7 C6F 1_555 1_555
C18 O2 1_555 1_555
S1F C7F 1_555 1_555
C3F C7F 1_555 1_555
C5F C6F 1_555 1_555
C18F O2F 1_555 1_555

#END
