
#######################################################################
#
#                 Cambridge Crystallographic Data Centre
#                                CCDC 
#
#######################################################################
#
# If this CIF has been generated from an entry in the Cambridge 
# Structural Database, then it will include bibliographic, chemical, 
# crystal, experimental, refinement or atomic coordinate data resulting 
# from the CCDC's data processing and validation procedures.
#
#######################################################################

data_RENPIL
_chemical_formula_moiety         'C20 H22 O4 S1'
_chemical_name_systematic        
'Methyl (2S*,3S*)-2-butoxy-4-(2-thienyl)-2,3-dihydro-1-benzoxepine-3-carboxylate'
_symmetry_cell_setting           monoclinic
_symmetry_space_group_name_H-M   'P 21/c'
_symmetry_Int_Tables_number      14
_space_group_name_Hall           '-P 2ybc'
loop_
_symmetry_equiv_pos_site_id
_symmetry_equiv_pos_as_xyz
1 x,y,z
2 -x,1/2+y,1/2-z
3 -x,-y,-z
4 x,1/2-y,1/2+z
_cell_length_a                   11.4550(10)
_cell_length_b                   9.7275(8)
_cell_length_c                   16.9207(15)
_cell_angle_alpha                90
_cell_angle_beta                 91.340(2)
_cell_angle_gamma                90
_cell_volume                     1884.93
_exptl_crystal_colour            colorless
_exptl_crystal_description       prismatic
_cell_formula_units_Z            4
loop_
_atom_site_label
_atom_site_type_symbol
_atom_site_fract_x
_atom_site_fract_y
_atom_site_fract_z
S1 S 0.65535(7) 0.46939(9) 0.08127(4)
O1 O 0.24019(16) 0.5563(2) 0.27183(10)
O2 O 0.4922(2) 0.6263(2) 0.39452(11)
O3 O 0.4663(2) 0.42383(19) 0.33948(10)
O4 O 0.29420(16) 0.72676(18) 0.18351(10)
C1 C 0.7903(3) 0.5331(4) 0.0980(2)
H1 H 0.8522 0.5190 0.0644
C2 C 0.7989(3) 0.6055(4) 0.1643(2)
H2 H 0.8678 0.6471 0.1819
C3 C 0.6934(2) 0.6137(3) 0.20559(17)
H3 H 0.6849 0.6610 0.2528
C4 C 0.6039(2) 0.5420(3) 0.16685(14)
C5 C 0.4815(2) 0.5295(2) 0.18829(13)
C6 C 0.4085(2) 0.4464(3) 0.14829(13)
H4 H 0.4436 0.3996 0.1072
C7 C 0.2859(2) 0.4145(3) 0.15604(14)
C8 C 0.2379(3) 0.3195(3) 0.10171(17)
H5 H 0.2855 0.2843 0.0628
C9 C 0.1244(3) 0.2766(4) 0.1037(2)
H6 H 0.0956 0.2144 0.0663
C10 C 0.0529(3) 0.3266(4) 0.1617(2)
H7 H -0.0240 0.2967 0.1643
C11 C 0.0956(3) 0.4203(4) 0.21536(19)
H8 H 0.0470 0.4543 0.2540
C12 C 0.2097(2) 0.4650(3) 0.21280(15)
C13 C 0.3193(2) 0.6639(3) 0.25514(14)
H9 H 0.3109 0.7336 0.2964
C14 C 0.4466(2) 0.6190(3) 0.25672(13)
H10 H 0.4933 0.7031 0.2534
C15 C 0.4725(2) 0.5581(3) 0.33796(13)
C16 C 0.4780(3) 0.3590(3) 0.41618(15)
H11 H 0.5297 0.4124 0.4495
H12 H 0.5094 0.2682 0.4102
H13 H 0.4028 0.3534 0.4398
C17 C 0.1854(3) 0.8015(3) 0.18388(19)
H14 H 0.1828 0.8593 0.2305
H15 H 0.1205 0.7376 0.1853
C18 C 0.1758(3) 0.8870(4) 0.1122(2)
H16 H 0.1057 0.9426 0.1153
H17 H 0.2420 0.9491 0.1116
C19 C 0.1714(4) 0.8099(5) 0.0374(2)
H18 H 0.1024 0.7521 0.0358
H19 H 0.2394 0.7507 0.0347
C20 C 0.1685(4) 0.9060(6) -0.0338(2)
H20 H 0.0928 0.9480 -0.0388
H21 H 0.1839 0.8545 -0.0808
H22 H 0.2268 0.9760 -0.0267
loop_
_geom_bond_atom_site_label_1
_geom_bond_atom_site_label_2
_geom_bond_site_symmetry_1
_geom_bond_site_symmetry_2
S1 C1 1_555 1_555
O1 C12 1_555 1_555
O2 C15 1_555 1_555
O3 C15 1_555 1_555
O4 C13 1_555 1_555
C1 H1 1_555 1_555
C2 C1 1_555 1_555
H2 C2 1_555 1_555
C3 C2 1_555 1_555
H3 C3 1_555 1_555
C4 S1 1_555 1_555
C5 C4 1_555 1_555
C6 C5 1_555 1_555
H4 C6 1_555 1_555
C7 C6 1_555 1_555
C8 C7 1_555 1_555
H5 C8 1_555 1_555
C9 C8 1_555 1_555
H6 C9 1_555 1_555
C10 C9 1_555 1_555
H7 C10 1_555 1_555
C11 C10 1_555 1_555
H8 C11 1_555 1_555
C12 C7 1_555 1_555
C13 O1 1_555 1_555
H9 C13 1_555 1_555
C14 C5 1_555 1_555
H10 C14 1_555 1_555
C15 C14 1_555 1_555
C16 O3 1_555 1_555
H11 C16 1_555 1_555
H12 C16 1_555 1_555
H13 C16 1_555 1_555
C17 O4 1_555 1_555
H14 C17 1_555 1_555
H15 C17 1_555 1_555
C18 C17 1_555 1_555
H16 C18 1_555 1_555
H17 C18 1_555 1_555
C19 C18 1_555 1_555
H18 C19 1_555 1_555
H19 C19 1_555 1_555
C20 C19 1_555 1_555
H20 C20 1_555 1_555
H21 C20 1_555 1_555
H22 C20 1_555 1_555
C3 C4 1_555 1_555
C11 C12 1_555 1_555
C13 C14 1_555 1_555

#END
