
#######################################################################
#
#                 Cambridge Crystallographic Data Centre
#                                CCDC 
#
#######################################################################
#
# If this CIF has been generated from an entry in the Cambridge 
# Structural Database, then it will include bibliographic, chemical, 
# crystal, experimental, refinement or atomic coordinate data resulting 
# from the CCDC's data processing and validation procedures.
#
#######################################################################

data_RENPEH
_chemical_formula_moiety         'C23 H23 F3 O4'
_chemical_name_systematic        
'Methyl (2S*,3S*)-2-butoxy-4-(4-(trifluoromethyl)phenyl)-2,3-dihydro-1-benzoxepine-3-carboxylate'
_symmetry_cell_setting           triclinic
_symmetry_space_group_name_H-M   'P -1'
_symmetry_Int_Tables_number      2
_space_group_name_Hall           '-P 1'
loop_
_symmetry_equiv_pos_site_id
_symmetry_equiv_pos_as_xyz
1 x,y,z
2 -x,-y,-z
_cell_length_a                   8.6594(12)
_cell_length_b                   10.1961(15)
_cell_length_c                   13.4694(19)
_cell_angle_alpha                75.930(2)
_cell_angle_beta                 72.355(2)
_cell_angle_gamma                72.025(3)
_cell_volume                     1063.2
_exptl_crystal_colour            colorless
_exptl_crystal_description       prismatic
_chemical_melting_point          '71-72 deg.C'
_cell_formula_units_Z            2
loop_
_atom_site_label
_atom_site_type_symbol
_atom_site_fract_x
_atom_site_fract_y
_atom_site_fract_z
F1 F 0.3072(6) 0.7305(12) -0.4520(4)
F2 F 0.0650(8) 0.7250(10) -0.3768(5)
F3 F 0.1196(19) 0.9178(6) -0.4432(7)
O1 O 0.43613(15) 0.73467(13) 0.19545(10)
O2 O 0.31606(17) 0.55108(12) 0.25142(9)
O3 O 0.2126(2) 0.48461(15) 0.06548(12)
O4 O 0.02448(18) 0.67348(15) 0.12521(11)
C1 C 0.3965(2) 0.87738(19) 0.19419(14)
C2 C 0.4343(3) 0.9202(2) 0.27153(16)
H1 H 0.4824 0.8542 0.3221
C3 C 0.4009(3) 1.0608(2) 0.27394(18)
H2 H 0.4270 1.0898 0.3259
C4 C 0.3291(3) 1.1583(2) 0.19957(17)
H3 H 0.3051 1.2531 0.2016
C5 C 0.2931(2) 1.1149(2) 0.12269(15)
H4 H 0.2458 1.1817 0.0723
C6 C 0.3253(2) 0.97257(18) 0.11724(13)
C7 C 0.2901(2) 0.93593(18) 0.02910(13)
H5 H 0.2692 1.0114 -0.0242
C8 C 0.2819(2) 0.81556(17) 0.00978(12)
C9 C 0.3066(2) 0.67543(17) 0.08260(13)
H6 H 0.4177 0.6181 0.0530
C10 C 0.3007(2) 0.68481(17) 0.19427(13)
H7 H 0.1939 0.7466 0.2252
C11 C 0.2504(2) 0.81289(17) -0.09231(12)
C12 C 0.1432(2) 0.92426(19) -0.14047(14)
H8 H 0.0882 1.0025 -0.1079
C13 C 0.1168(2) 0.9209(2) -0.23560(14)
H9 H 0.0444 0.9966 -0.2665
C14 C 0.1975(2) 0.8056(2) -0.28531(14)
C15 C 0.3032(2) 0.6938(2) -0.23834(14)
H10 H 0.3572 0.6154 -0.2710
C16 C 0.3292(2) 0.69732(19) -0.14357(14)
H11 H 0.4009 0.6209 -0.1128
C17 C 0.1711(4) 0.8016(3) -0.38878(19)
C18 C 0.1795(3) 0.5979(2) 0.08875(14)
C19 C -0.1091(4) 0.6077(3) 0.1398(2)
H12 H -0.1100 0.5909 0.0729
H13 H -0.2147 0.6682 0.1688
H14 H -0.0911 0.5206 0.1873
C20 C 0.2857(3) 0.5422(2) 0.36329(14)
H15 H 0.1856 0.6127 0.3888
H16 H 0.3795 0.5579 0.3798
C21 C 0.2639(3) 0.3991(2) 0.41509(14)
H17 H 0.3626 0.3302 0.3857
H18 H 0.1688 0.3860 0.3984
C22 C 0.2367(3) 0.3731(2) 0.53340(16)
H19 H 0.1391 0.4427 0.5631
H20 H 0.3328 0.3837 0.5505
C23 C 0.2116(4) 0.2292(3) 0.5833(2)
H21 H 0.1158 0.2184 0.5674
H22 H 0.1937 0.2179 0.6585
H23 H 0.3093 0.1597 0.5559
F4? F 0.181(2) 0.6846(7) -0.4039(8)
F5? F 0.0307(8) 0.8871(13) -0.4047(6)
F6? F 0.2848(12) 0.8528(13) -0.4642(3)
loop_
_geom_bond_atom_site_label_1
_geom_bond_atom_site_label_2
_geom_bond_site_symmetry_1
_geom_bond_site_symmetry_2
F1 C17 1_555 1_555
F2 C17 1_555 1_555
F3 C17 1_555 1_555
O1 C1 1_555 1_555
O2 C10 1_555 1_555
O3 C18 1_555 1_555
O4 C18 1_555 1_555
C1 C2 1_555 1_555
C2 H1 1_555 1_555
C3 C2 1_555 1_555
H2 C3 1_555 1_555
C4 C3 1_555 1_555
H3 C4 1_555 1_555
C5 C4 1_555 1_555
H4 C5 1_555 1_555
C6 C1 1_555 1_555
C7 C6 1_555 1_555
H5 C7 1_555 1_555
C8 C7 1_555 1_555
C9 C8 1_555 1_555
H6 C9 1_555 1_555
C10 O1 1_555 1_555
H7 C10 1_555 1_555
C11 C8 1_555 1_555
C12 C11 1_555 1_555
H8 C12 1_555 1_555
C13 C12 1_555 1_555
H9 C13 1_555 1_555
C14 C13 1_555 1_555
C15 C14 1_555 1_555
H10 C15 1_555 1_555
C16 C11 1_555 1_555
H11 C16 1_555 1_555
C17 C14 1_555 1_555
C18 C9 1_555 1_555
C19 O4 1_555 1_555
H12 C19 1_555 1_555
H13 C19 1_555 1_555
H14 C19 1_555 1_555
C20 O2 1_555 1_555
H15 C20 1_555 1_555
H16 C20 1_555 1_555
C21 C20 1_555 1_555
H17 C21 1_555 1_555
H18 C21 1_555 1_555
C22 C21 1_555 1_555
H19 C22 1_555 1_555
H20 C22 1_555 1_555
C23 C22 1_555 1_555
H21 C23 1_555 1_555
H22 C23 1_555 1_555
H23 C23 1_555 1_555
C5 C6 1_555 1_555
C9 C10 1_555 1_555
C15 C16 1_555 1_555

#END
