
#######################################################################
#
#                 Cambridge Crystallographic Data Centre
#                                CCDC 
#
#######################################################################
#
# If this CIF has been generated from an entry in the Cambridge 
# Structural Database, then it will include bibliographic, chemical, 
# crystal, experimental, refinement or atomic coordinate data resulting 
# from the CCDC's data processing and validation procedures.
#
#######################################################################

data_RENQAE
_chemical_formula_moiety         'C10 H7 Br1 Cl1 N1 O1'
_chemical_name_systematic        
5-(Bromomethyl)-2-(4-chlorophenyl)-1,3-oxazole
_symmetry_cell_setting           triclinic
_symmetry_space_group_name_H-M   'P -1'
_symmetry_Int_Tables_number      2
_space_group_name_Hall           '-P 1'
loop_
_symmetry_equiv_pos_site_id
_symmetry_equiv_pos_as_xyz
1 x,y,z
2 -x,-y,-z
_cell_length_a                   5.7402(11)
_cell_length_b                   7.5688(13)
_cell_length_c                   12.262(2)
_cell_angle_alpha                91.074(3)
_cell_angle_beta                 99.011(2)
_cell_angle_gamma                102.439(3)
_cell_volume                     513.053
_chemical_melting_point          '100-102 deg.C'
_cell_formula_units_Z            2
loop_
_atom_site_label
_atom_site_type_symbol
_atom_site_fract_x
_atom_site_fract_y
_atom_site_fract_z
Br1 Br 0.02230(6) 0.24221(5) 0.06146(2)
C1 C 0.2547(5) 0.3254(4) 0.5442(2)
H1 H 0.3237 0.3848 0.4874
C2 C 0.3956(5) 0.3237(4) 0.6466(3)
H2 H 0.5583 0.3816 0.6591
C3 C 0.2914(5) 0.2357(4) 0.7288(2)
C4 C 0.0505(6) 0.1489(4) 0.7129(2)
H3 H -0.0170 0.0899 0.7701
C5 C -0.0891(5) 0.1508(4) 0.6105(2)
H4 H -0.2517 0.0923 0.5984
C6 C 0.0128(4) 0.2398(3) 0.5255(2)
C7 C -0.1345(5) 0.2419(3) 0.4178(2)
C8 C -0.4094(6) 0.2166(5) 0.2783(3)
H5 H -0.5601 0.1868 0.2334
C9 C -0.2057(6) 0.3054(4) 0.2464(2)
C10 C -0.1445(7) 0.3864(5) 0.1445(3)
H6 H -0.0419 0.5063 0.1627
H7 H -0.2917 0.4001 0.0979
Cl1 Cl 0.47203(18) 0.23084(14) 0.85660(7)
N1 N -0.3629(4) 0.1753(3) 0.3883(2)
O1 O -0.0233(4) 0.3240(3) 0.33584(16)
loop_
_geom_bond_atom_site_label_1
_geom_bond_atom_site_label_2
_geom_bond_site_symmetry_1
_geom_bond_site_symmetry_2
Br1 C10 1_555 1_555
C1 H1 1_555 1_555
C2 C1 1_555 1_555
H2 C2 1_555 1_555
C3 C2 1_555 1_555
C4 C3 1_555 1_555
H3 C4 1_555 1_555
C5 C4 1_555 1_555
H4 C5 1_555 1_555
C6 C1 1_555 1_555
C7 C6 1_555 1_555
C8 H5 1_555 1_555
C9 C8 1_555 1_555
C10 C9 1_555 1_555
H6 C10 1_555 1_555
H7 C10 1_555 1_555
Cl1 C3 1_555 1_555
N1 C7 1_555 1_555
O1 C7 1_555 1_555
C5 C6 1_555 1_555
C8 N1 1_555 1_555
C9 O1 1_555 1_555

#END
