
#######################################################################
#
#                 Cambridge Crystallographic Data Centre
#                                CCDC 
#
#######################################################################
#
# If this CIF has been generated from an entry in the Cambridge 
# Structural Database, then it will include bibliographic, chemical, 
# crystal, experimental, refinement or atomic coordinate data resulting 
# from the CCDC's data processing and validation procedures.
#
#######################################################################

data_RENSIN
_chemical_formula_moiety         'C6 H11 N2 1+,C1 F3 O3 S1 1-'
_chemical_name_systematic        
'1-Ethyl-3-methylimidazolium trifluoromethanesulfonate'
_symmetry_cell_setting           orthorhombic
_symmetry_space_group_name_H-M   'P b c a'
_symmetry_Int_Tables_number      61
_space_group_name_Hall           '-P 2ac 2ab'
loop_
_symmetry_equiv_pos_site_id
_symmetry_equiv_pos_as_xyz
1 x,y,z
2 1/2-x,-y,1/2+z
3 1/2+x,1/2-y,-z
4 -x,1/2+y,1/2-z
5 -x,-y,-z
6 1/2+x,y,1/2-z
7 1/2-x,1/2+y,z
8 x,1/2-y,1/2+z
_cell_length_a                   10.183(5)
_cell_length_b                   12.384(7)
_cell_length_c                   18.294(8)
_cell_angle_alpha                90
_cell_angle_beta                 90
_cell_angle_gamma                90
_cell_volume                     2306.99
_exptl_crystal_colour            colorless
_exptl_crystal_description       rod
_chemical_melting_point          '-25.7 deg.C'
_cell_formula_units_Z            8
loop_
_atom_site_label
_atom_site_type_symbol
_atom_site_fract_x
_atom_site_fract_y
_atom_site_fract_z
S1 S 0.02018(9) 0.30651(7) 0.15056(5)
F1 F 0.1410(3) 0.2493(2) 0.03140(13)
F2 F -0.0624(3) 0.2826(3) 0.01643(14)
F3 F 0.0735(3) 0.4117(2) 0.03107(14)
O1 O -0.0832(2) 0.3828(2) 0.16363(15)
O2 O -0.0129(3) 0.1967(2) 0.16358(14)
O3 O 0.1456(2) 0.3398(2) 0.17835(14)
C7 C 0.0437(5) 0.3128(4) 0.0526(2)
N1 N 0.5597(3) 0.3207(2) 0.15552(16)
C1 C 0.4388(4) 0.2849(3) 0.16102(18)
H1 H 0.3642 0.3278 0.1650
N2 N 0.4401(3) 0.1779(2) 0.15994(16)
C2 C 0.5670(3) 0.1444(3) 0.15449(19)
H2 H 0.5961 0.0733 0.1528
C3 C 0.6422(4) 0.2335(3) 0.1520(2)
H3 H 0.7333 0.2355 0.1486
C4 C 0.5976(4) 0.4351(3) 0.1538(2)
H4 H 0.6698 0.4467 0.1875
H5 H 0.5241 0.4788 0.1700
C5 C 0.6384(5) 0.4706(3) 0.0786(2)
H6 H 0.7123 0.4286 0.0628
H7 H 0.6622 0.5456 0.0797
H8 H 0.5667 0.4604 0.0452
C6 C 0.3255(4) 0.1083(3) 0.1644(3)
H9 H 0.2547 0.1467 0.1873
H10 H 0.3465 0.0454 0.1927
H11 H 0.2997 0.0868 0.1160
loop_
_geom_bond_atom_site_label_1
_geom_bond_atom_site_label_2
_geom_bond_site_symmetry_1
_geom_bond_site_symmetry_2
S1 O1 1_555 1_555
F1 C7 1_555 1_555
F2 C7 1_555 1_555
F3 C7 1_555 1_555
O2 S1 1_555 1_555
O3 S1 1_555 1_555
N1 C1 1_555 1_555
C1 H1 1_555 1_555
N2 C1 1_555 1_555
C2 N2 1_555 1_555
H2 C2 1_555 1_555
C3 N1 1_555 1_555
H3 C3 1_555 1_555
C4 N1 1_555 1_555
H4 C4 1_555 1_555
H5 C4 1_555 1_555
C5 C4 1_555 1_555
H6 C5 1_555 1_555
H7 C5 1_555 1_555
H8 C5 1_555 1_555
C6 N2 1_555 1_555
H9 C6 1_555 1_555
H10 C6 1_555 1_555
H11 C6 1_555 1_555
C7 S1 1_555 1_555
C2 C3 1_555 1_555

#END
