
#######################################################################
#
#                 Cambridge Crystallographic Data Centre
#                                CCDC 
#
#######################################################################
#
# If this CIF has been generated from an entry in the Cambridge 
# Structural Database, then it will include bibliographic, chemical, 
# crystal, experimental, refinement or atomic coordinate data resulting 
# from the CCDC's data processing and validation procedures.
#
#######################################################################

data_RENTIQ
_chemical_formula_moiety         'C20 H22 N1 O4 1+,Cl1 1-'
_chemical_name_systematic        
'9,10-dimethoxy-5,8,13,13a-tetrahydro-2H,6H-[1,3]dioxolo[4,5-g]isoquinolino[3,2-a]isoquinolin-7-ium chloride'
_symmetry_cell_setting           orthorhombic
_symmetry_space_group_name_H-M   'P 21 21 21'
_symmetry_Int_Tables_number      19
_space_group_name_Hall           'P 2ac 2ab'
loop_
_symmetry_equiv_pos_site_id
_symmetry_equiv_pos_as_xyz
1 x,y,z
2 1/2-x,-y,1/2+z
3 -x,1/2+y,1/2-z
4 1/2+x,1/2-y,-z
_cell_length_a                   7.5563(3)
_cell_length_b                   9.6115(5)
_cell_length_c                   23.9913(11)
_cell_angle_alpha                90
_cell_angle_beta                 90
_cell_angle_gamma                90
_cell_volume                     1742.43
_exptl_crystal_colour            colorless
_exptl_crystal_description       block
_cell_formula_units_Z            4
loop_
_atom_site_label
_atom_site_type_symbol
_atom_site_fract_x
_atom_site_fract_y
_atom_site_fract_z
H1 H 0.445(3) 0.078(4) 0.1550(14)
C1 C 0.6440(6) 0.7417(4) 0.01673(17)
H2 H 0.6867 0.7744 -0.0186
H3 H 0.5448 0.7971 0.0282
H4 H 0.7365 0.7490 0.0440
C2 C 0.3417(5) 0.3810(4) -0.03629(14)
H5 H 0.3528 0.3326 -0.0711
H6 H 0.2269 0.3634 -0.0207
H7 H 0.3558 0.4791 -0.0424
C3 C 0.0065(5) -0.0001(4) 0.41547(13)
H8 H -0.1179 -0.0066 0.4251
H9 H 0.0749 0.0015 0.4497
C4 C 0.1055(4) -0.0637(3) 0.33160(14)
C5 C 0.1606(4) -0.1343(3) 0.28512(14)
H10 H 0.1692 -0.2308 0.2851
C6 C 0.2038(4) -0.0559(3) 0.23739(13)
C7 C 0.1928(4) 0.0898(3) 0.23874(13)
C8 C 0.1369(4) 0.1591(3) 0.28761(13)
H11 H 0.1305 0.2557 0.2892
C9 C 0.0932(4) 0.0798(3) 0.33183(14)
C10 C 0.2621(4) -0.1300(3) 0.18564(13)
H12 H 0.1932 -0.2145 0.1814
H13 H 0.3854 -0.1565 0.1895
C11 C 0.2408(5) -0.0415(3) 0.13408(13)
H14 H 0.2935 -0.0880 0.1023
H15 H 0.1162 -0.0270 0.1263
C12 C 0.2374(4) 0.1779(3) 0.18838(13)
H16 H 0.1262 0.2128 0.1727
C13 C 0.3533(5) 0.3028(3) 0.20207(13)
H17 H 0.2898 0.3633 0.2275
H18 H 0.4592 0.2706 0.2210
C14 C 0.3483(5) 0.1750(4) 0.09035(13)
H19 H 0.2347 0.1770 0.0716
H20 H 0.4314 0.1269 0.0663
C15 C 0.4115(4) 0.3226(3) 0.09911(13)
C16 C 0.4065(4) 0.3849(3) 0.15167(13)
C17 C 0.4563(4) 0.5235(3) 0.15641(13)
H21 H 0.4491 0.5665 0.1911
C18 C 0.5162(4) 0.5997(4) 0.11118(13)
H22 H 0.5500 0.6921 0.1156
C19 C 0.5253(4) 0.5365(3) 0.05923(13)
C20 C 0.4698(4) 0.3977(3) 0.05330(13)
N1 N 0.3302(3) 0.0958(3) 0.14362(11)
O1 O 0.4761(3) 0.3330(2) 0.00172(9)
O2 O 0.5903(3) 0.5992(3) 0.01167(10)
O3 O 0.0569(3) -0.1170(3) 0.38240(10)
O4 O 0.0379(3) 0.1237(3) 0.38442(9)
Cl1 Cl 0.20698(11) 0.49360(10) -0.16597(4)
loop_
_geom_bond_atom_site_label_1
_geom_bond_atom_site_label_2
_geom_bond_site_symmetry_1
_geom_bond_site_symmetry_2
H1 N1 1_555 1_555
C1 H2 1_555 1_555
H3 C1 1_555 1_555
H4 C1 1_555 1_555
C2 H5 1_555 1_555
H6 C2 1_555 1_555
H7 C2 1_555 1_555
C3 H8 1_555 1_555
H9 C3 1_555 1_555
C4 C5 1_555 1_555
C5 H10 1_555 1_555
C6 C5 1_555 1_555
C7 C6 1_555 1_555
C8 C7 1_555 1_555
H11 C8 1_555 1_555
C9 C4 1_555 1_555
C10 C6 1_555 1_555
H12 C10 1_555 1_555
H13 C10 1_555 1_555
C11 C10 1_555 1_555
H14 C11 1_555 1_555
H15 C11 1_555 1_555
C12 C7 1_555 1_555
H16 C12 1_555 1_555
C13 C12 1_555 1_555
H17 C13 1_555 1_555
H18 C13 1_555 1_555
C14 H19 1_555 1_555
H20 C14 1_555 1_555
C15 C14 1_555 1_555
C16 C13 1_555 1_555
C17 C16 1_555 1_555
H21 C17 1_555 1_555
C18 C17 1_555 1_555
H22 C18 1_555 1_555
C19 C18 1_555 1_555
C20 C15 1_555 1_555
N1 C11 1_555 1_555
O1 C2 1_555 1_555
O2 C1 1_555 1_555
O3 C3 1_555 1_555
O4 C3 1_555 1_555
C4 O3 1_555 1_555
C8 C9 1_555 1_555
C9 O4 1_555 1_555
C12 N1 1_555 1_555
C14 N1 1_555 1_555
C15 C16 1_555 1_555
C19 C20 1_555 1_555
C19 O2 1_555 1_555
C20 O1 1_555 1_555

#END
