
#######################################################################
#
#                 Cambridge Crystallographic Data Centre
#                                CCDC 
#
#######################################################################
#
# If this CIF has been generated from an entry in the Cambridge 
# Structural Database, then it will include bibliographic, chemical, 
# crystal, experimental, refinement or atomic coordinate data resulting 
# from the CCDC's data processing and validation procedures.
#
#######################################################################

data_RENTUB
_chemical_formula_moiety         'C33 H40 N4'
_chemical_name_systematic        
8,11-Di-t-butyl-N-(10,11-dihydro-5H-dibenzo[a,d][7]annulen-5-ylidene)-7,12,13-triazatetracyclo[7.3.1.0^1,6^.0^6,10^]trideca-7,11-dien-13-amine
_symmetry_cell_setting           monoclinic
_symmetry_space_group_name_H-M   'P 21/n'
_symmetry_Int_Tables_number      14
_space_group_name_Hall           '-P 2yn'
loop_
_symmetry_equiv_pos_site_id
_symmetry_equiv_pos_as_xyz
1 x,y,z
2 1/2-x,1/2+y,1/2-z
3 -x,-y,-z
4 1/2+x,1/2-y,1/2+z
_cell_length_a                   10.553(2)
_cell_length_b                   9.2092(18)
_cell_length_c                   29.030(6)
_cell_angle_alpha                90
_cell_angle_beta                 97.41(3)
_cell_angle_gamma                90
_cell_volume                     2797.71
_cell_formula_units_Z            4
loop_
_atom_site_label
_atom_site_type_symbol
_atom_site_fract_x
_atom_site_fract_y
_atom_site_fract_z
C1 C 0.8324(3) 0.8451(4) 0.08388(12)
C2 C 0.6822(4) 0.8556(4) 0.08101(13)
C3 C 0.6943(4) 0.9987(4) 0.10891(13)
H1 H 0.6131 1.0518 0.1119
C4 C 0.7924(3) 1.0784(4) 0.08477(12)
C5 C 0.7569(4) 0.9153(4) 0.15268(13)
C6 C 0.6676(4) 0.7865(4) 0.15304(13)
C7 C 0.6165(4) 0.8505(4) 0.03152(13)
H2 H 0.6370 0.9395 0.0149
H3 H 0.5228 0.8466 0.0315
C8 C 0.6606(4) 0.7167(4) 0.00656(14)
H4 H 0.6195 0.7164 -0.0261
H5 H 0.6337 0.6277 0.0218
C9 C 0.8064(4) 0.7160(5) 0.00759(14)
H6 H 0.8319 0.6283 -0.0087
H7 H 0.8323 0.8020 -0.0094
C10 C 0.8769(4) 0.7178(4) 0.05707(13)
H8 H 0.8604 0.6260 0.0730
H9 H 0.9701 0.7255 0.0560
C11 C 0.6387(4) 0.7102(4) 0.19605(14)
C12 C 0.5675(5) 0.5690(5) 0.18401(18)
H10 H 0.4876 0.5896 0.1639
H11 H 0.5484 0.5220 0.2126
H12 H 0.6207 0.5044 0.1677
C13 C 0.5559(5) 0.8118(5) 0.22176(17)
H13 H 0.5984 0.9063 0.2267
H14 H 0.5443 0.7692 0.2519
H15 H 0.4724 0.8249 0.2031
C14 C 0.7645(5) 0.6790(6) 0.22705(17)
H16 H 0.8175 0.6146 0.2106
H17 H 0.7464 0.6320 0.2558
H18 H 0.8101 0.7704 0.2346
C15 C 0.8057(4) 1.2420(4) 0.08338(13)
C16 C 0.9146(5) 1.2836(5) 0.05581(16)
H19 H 0.9952 1.2436 0.0712
H20 H 0.9211 1.3896 0.0543
H21 H 0.8973 1.2442 0.0243
C17 C 0.8371(5) 1.2945(5) 0.13372(15)
H22 H 0.7667 1.2690 0.1512
H23 H 0.8486 1.4001 0.1341
H24 H 0.9159 1.2478 0.1481
C18 C 0.6787(4) 1.3085(5) 0.06099(16)
H25 H 0.6613 1.2771 0.0285
H26 H 0.6847 1.4147 0.0622
H27 H 0.6093 1.2762 0.0779
C19 C 1.0919(4) 0.9009(4) 0.14910(12)
C20 C 1.1915(4) 1.0098(4) 0.16810(13)
C21 C 1.1728(4) 1.0767(4) 0.21024(14)
H28 H 1.1011 1.0493 0.2250
C22 C 1.2554(4) 1.1812(5) 0.23088(15)
H29 H 1.2409 1.2251 0.2594
C23 C 1.3601(4) 1.2207(5) 0.20912(17)
H30 H 1.4182 1.2922 0.2227
C24 C 1.3793(4) 1.1561(5) 0.16805(16)
H31 H 1.4516 1.1841 0.1538
C25 C 1.2966(4) 1.0505(4) 0.14625(14)
C26 C 1.3314(4) 0.9912(5) 0.10045(15)
H32 H 1.4098 0.9319 0.1074
H33 H 1.3527 1.0744 0.0813
C27 C 1.2304(4) 0.8989(5) 0.07118(14)
H34 H 1.1490 0.9535 0.0660
H35 H 1.2584 0.8795 0.0405
C28 C 1.2087(4) 0.7568(5) 0.09466(14)
C29 C 1.2556(4) 0.6243(5) 0.08128(15)
H36 H 1.3047 0.6214 0.0561
C30 C 1.2323(4) 0.4968(5) 0.10379(16)
H37 H 1.2662 0.4076 0.0944
C31 C 1.1591(4) 0.4998(5) 0.14009(15)
H38 H 1.1425 0.4122 0.1555
C32 C 1.1097(4) 0.6304(4) 0.15411(14)
H39 H 1.0585 0.6319 0.1787
C33 C 1.1358(4) 0.7589(4) 0.13184(13)
H40 H 0.781(3) 0.966(4) 0.1780(13)
N1 N 0.9773(3) 0.9404(3) 0.15263(10)
N2 N 0.8723(3) 0.8446(3) 0.13702(10)
N3 N 0.8693(3) 0.9899(3) 0.06782(10)
N4 N 0.6289(3) 0.7476(3) 0.11086(11)
loop_
_geom_bond_atom_site_label_1
_geom_bond_atom_site_label_2
_geom_bond_site_symmetry_1
_geom_bond_site_symmetry_2
C1 C2 1_555 1_555
C2 C3 1_555 1_555
C3 H1 1_555 1_555
C4 C3 1_555 1_555
C5 C3 1_555 1_555
C6 C5 1_555 1_555
C7 C2 1_555 1_555
H2 C7 1_555 1_555
H3 C7 1_555 1_555
C8 C7 1_555 1_555
H4 C8 1_555 1_555
H5 C8 1_555 1_555
C9 C8 1_555 1_555
H6 C9 1_555 1_555
H7 C9 1_555 1_555
C10 C1 1_555 1_555
H8 C10 1_555 1_555
H9 C10 1_555 1_555
C11 C6 1_555 1_555
C12 C11 1_555 1_555
H10 C12 1_555 1_555
H11 C12 1_555 1_555
H12 C12 1_555 1_555
C13 C11 1_555 1_555
H13 C13 1_555 1_555
H14 C13 1_555 1_555
H15 C13 1_555 1_555
C14 C11 1_555 1_555
H16 C14 1_555 1_555
H17 C14 1_555 1_555
H18 C14 1_555 1_555
C15 C4 1_555 1_555
C16 C15 1_555 1_555
H19 C16 1_555 1_555
H20 C16 1_555 1_555
H21 C16 1_555 1_555
C17 C15 1_555 1_555
H22 C17 1_555 1_555
H23 C17 1_555 1_555
H24 C17 1_555 1_555
C18 C15 1_555 1_555
H25 C18 1_555 1_555
H26 C18 1_555 1_555
H27 C18 1_555 1_555
C19 C20 1_555 1_555
C20 C21 1_555 1_555
C21 H28 1_555 1_555
C22 C21 1_555 1_555
H29 C22 1_555 1_555
C23 C22 1_555 1_555
H30 C23 1_555 1_555
C24 C23 1_555 1_555
H31 C24 1_555 1_555
C25 C20 1_555 1_555
C26 C25 1_555 1_555
H32 C26 1_555 1_555
H33 C26 1_555 1_555
C27 C26 1_555 1_555
H34 C27 1_555 1_555
H35 C27 1_555 1_555
C28 C27 1_555 1_555
C29 C28 1_555 1_555
H36 C29 1_555 1_555
C30 C29 1_555 1_555
H37 C30 1_555 1_555
C31 C30 1_555 1_555
H38 C31 1_555 1_555
C32 C31 1_555 1_555
H39 C32 1_555 1_555
C33 C19 1_555 1_555
H40 C5 1_555 1_555
N1 C19 1_555 1_555
N2 C1 1_555 1_555
N3 C1 1_555 1_555
N4 C2 1_555 1_555
C4 N3 1_555 1_555
C5 N2 1_555 1_555
C6 N4 1_555 1_555
C9 C10 1_555 1_555
C24 C25 1_555 1_555
C28 C33 1_555 1_555
C32 C33 1_555 1_555
N1 N2 1_555 1_555

#END
