
#######################################################################
#
#                 Cambridge Crystallographic Data Centre
#                                CCDC 
#
#######################################################################
#
# If this CIF has been generated from an entry in the Cambridge 
# Structural Database, then it will include bibliographic, chemical, 
# crystal, experimental, refinement or atomic coordinate data resulting 
# from the CCDC's data processing and validation procedures.
#
#######################################################################

data_RENVUD
_chemical_formula_moiety         'C68 H114 O10 Sr2'
_chemical_name_systematic        
tris(\m~2~-2,4-di-t-butylphenolato)-(2,4-di-t-butylphenolato)-tris(1,2-dimethoxyethane)-di-strontium
_symmetry_cell_setting           monoclinic
_symmetry_space_group_name_H-M   'P 21/n'
_symmetry_Int_Tables_number      14
_space_group_name_Hall           '-P 2yn'
loop_
_symmetry_equiv_pos_site_id
_symmetry_equiv_pos_as_xyz
1 x,y,z
2 1/2-x,1/2+y,1/2-z
3 -x,-y,-z
4 1/2+x,1/2-y,1/2+z
_cell_length_a                   16.312(3)
_cell_length_b                   25.924(5)
_cell_length_c                   16.982(3)
_cell_angle_alpha                90
_cell_angle_beta                 96.27(3)
_cell_angle_gamma                90
_cell_volume                     7138.26
_exptl_crystal_colour            colorless
_exptl_crystal_description       block
_chemical_melting_point          '533 K'
_cell_formula_units_Z            4
loop_
_atom_site_label
_atom_site_type_symbol
_atom_site_fract_x
_atom_site_fract_y
_atom_site_fract_z
Sr1 Sr 0.48051(2) 0.163170(13) 0.673024(17)
Sr2 Sr 0.671536(19) 0.203068(13) 0.770272(17)
C1 C 0.4386(2) 0.07119(14) 0.87806(18)
H1 H 0.4399 0.0354 0.8662
C2 C 0.4389(2) 0.17759(14) 0.91292(18)
C3 C 0.4860(2) 0.10508(14) 0.83936(18)
H2 H 0.5188 0.0915 0.8012
C4 C 0.6760(2) 0.10486(14) 0.65256(18)
C5 C 0.2963(2) 0.23806(15) 0.66059(18)
C6 C 0.1615(2) 0.26694(16) 0.68837(19)
H3 H 0.1066 0.2588 0.6977
C7 C 0.4883(2) 0.15863(14) 0.85352(18)
C8 C 0.7008(2) 0.05271(14) 0.64903(18)
C9 C 0.5585(2) 0.28499(14) 0.65512(19)
C10 C 0.2632(2) 0.32958(15) 0.67173(19)
H4 H 0.2811 0.3644 0.6703
C11 C 0.2140(2) 0.22590(15) 0.67724(18)
C12 C 0.3177(2) 0.29022(15) 0.65861(19)
H5 H 0.3719 0.2991 0.6478
C13 C 0.7094(2) 0.14024(14) 0.60240(19)
H6 H 0.6923 0.1752 0.6034
C14 C 0.1829(2) 0.31913(15) 0.68691(19)
C15 C 0.5365(2) 0.36954(15) 0.5958(2)
H7 H 0.5321 0.3908 0.5500
C16 C 0.3890(2) 0.08885(13) 0.93430(18)
C17 C 0.3919(2) 0.14152(14) 0.94927(18)
H8 H 0.3589 0.1542 0.9878
C18 C 0.7588(2) 0.04018(14) 0.59704(19)
H9 H 0.7764 0.0053 0.5955
C19 C 0.5273(2) 0.39332(15) 0.6687(2)
C20 C 0.5468(2) 0.30905(14) 0.7268(2)
H10 H 0.5495 0.2884 0.7732
C21 C 0.5317(2) 0.36103(16) 0.7336(2)
H11 H 0.5241 0.3749 0.7840
C22 C 0.7662(2) 0.12627(15) 0.55158(19)
H12 H 0.7876 0.1517 0.5192
C23 C 0.7924(2) 0.07542(15) 0.5473(2)
C24 C 0.5516(2) 0.31712(15) 0.5857(2)
O1 O 0.57691(14) 0.23491(9) 0.65421(12)
O2 O 0.53385(14) 0.18874(9) 0.81212(12)
O3 O 0.62201(14) 0.12215(9) 0.70097(12)
O4 O 0.77807(16) 0.26788(10) 0.70862(14)
O5 O 0.35118(15) 0.20237(10) 0.64707(14)
O6 O 0.82813(15) 0.17290(10) 0.77143(14)
C25 C 0.5231(2) 0.25601(15) 0.9565(2)
H13 H 0.5476 0.2384 1.0045
H14 H 0.5200 0.2931 0.9668
H15 H 0.5574 0.2500 0.9135
C26 C 0.5621(2) 0.29496(15) 0.50349(19)
C27 C 0.6648(2) 0.01102(14) 0.69952(19)
C28 C 0.1864(2) 0.16993(14) 0.6844(2)
C29 C 0.0957(2) 0.16531(16) 0.7013(2)
H16 H 0.0886 0.1826 0.7514
H17 H 0.0810 0.1288 0.7050
H18 H 0.0599 0.1816 0.6582
C30 C 0.4359(2) 0.23479(14) 0.93278(19)
C31 C 0.3340(2) 0.05142(14) 0.97450(19)
C32 C 0.2947(2) 0.07678(15) 1.0431(2)
H19 H 0.2599 0.1057 1.0227
H20 H 0.3382 0.0895 1.0827
H21 H 0.2609 0.0514 1.0675
C33 C 0.8561(2) 0.06053(16) 0.4909(2)
C34 C 0.3863(2) 0.24584(15) 1.0026(2)
H22 H 0.3283 0.2368 0.9878
H23 H 0.3905 0.2826 1.0161
H24 H 0.4084 0.2252 1.0485
C35 C 0.1932(2) 0.14034(15) 0.6072(2)
H25 H 0.1547 0.1550 0.5648
H26 H 0.1797 0.1040 0.6146
H27 H 0.2497 0.1431 0.5929
C36 C 0.3939(2) 0.26429(14) 0.8599(2)
H28 H 0.4251 0.2588 0.8145
H29 H 0.3925 0.3012 0.8720
H30 H 0.3374 0.2515 0.8472
C37 C 0.8620(2) 0.25794(18) 0.7352(2)
H31 H 0.8736 0.2678 0.7917
H32 H 0.8979 0.2788 0.7042
C38 C 0.1200(3) 0.36095(17) 0.7025(2)
C39 C 0.8800(2) 0.20202(17) 0.7256(2)
H33 H 0.8695 0.1922 0.6691
H34 H 0.9387 0.1949 0.7439
C40 C 0.2395(3) 0.14362(16) 0.7538(2)
H35 H 0.2977 0.1450 0.7445
H36 H 0.2223 0.1076 0.7578
H37 H 0.2321 0.1616 0.8033
C41 C 0.5051(3) 0.24794(17) 0.4855(2)
H38 H 0.5006 0.2403 0.4287
H39 H 0.4503 0.2556 0.5011
H40 H 0.5283 0.2180 0.5154
C42 C 0.5717(2) 0.00655(15) 0.6757(2)
H41 H 0.5453 0.0397 0.6842
H42 H 0.5488 -0.0200 0.7080
H43 H 0.5616 -0.0029 0.6196
C43 C 0.5396(3) 0.33499(18) 0.4373(2)
H44 H 0.5781 0.3641 0.4441
H45 H 0.4833 0.3474 0.4402
H46 H 0.5432 0.3189 0.3856
C44 C 0.8522(2) 0.11988(16) 0.7777(2)
H47 H 0.8457 0.1040 0.7251
H48 H 0.8175 0.1018 0.8124
H49 H 0.9101 0.1176 0.8001
C45 C 0.6807(2) 0.02463(16) 0.78809(19)
H50 H 0.6595 0.0593 0.7968
H51 H 0.7402 0.0237 0.8048
H52 H 0.6527 -0.0004 0.8190
C46 C 0.3849(2) 0.00501(15) 1.0089(2)
H53 H 0.3488 -0.0189 1.0336
H54 H 0.4286 0.0171 1.0487
H55 H 0.4095 -0.0127 0.9663
C47 C 0.8759(3) 0.00277(16) 0.4930(2)
H56 H 0.8252 -0.0169 0.4784
H57 H 0.8994 -0.0070 0.5465
H58 H 0.9157 -0.0048 0.4553
C48 C 0.6515(2) 0.27838(16) 0.4999(2)
H59 H 0.6685 0.2551 0.5442
H60 H 0.6872 0.3089 0.5034
H61 H 0.6562 0.2605 0.4497
C49 C 0.7653(3) 0.32110(17) 0.6899(3)
H62 H 0.7888 0.3423 0.7346
H63 H 0.7061 0.3280 0.6794
H64 H 0.7923 0.3296 0.6428
C50 C 0.8220(3) 0.07531(19) 0.4058(2)
H65 H 0.8615 0.0652 0.3692
H66 H 0.8131 0.1127 0.4027
H67 H 0.7695 0.0575 0.3915
C51 C 0.7025(3) -0.04256(15) 0.6893(2)
H68 H 0.6769 -0.0676 0.7222
H69 H 0.7620 -0.0413 0.7055
H70 H 0.6927 -0.0530 0.6336
C52 C 0.2646(3) 0.03255(17) 0.9136(2)
H71 H 0.2319 0.0065 0.9379
H72 H 0.2882 0.0174 0.8683
H73 H 0.2291 0.0617 0.8956
C53 C 0.9369(3) 0.09024(17) 0.5146(3)
H74 H 0.9585 0.0810 0.5689
H75 H 0.9260 0.1274 0.5116
H76 H 0.9775 0.0812 0.4784
C54 C 0.5097(3) 0.45121(17) 0.6734(3)
O7 O 0.72585(15) 0.16211(10) 0.90794(13)
O8 O 0.72624(16) 0.26919(10) 0.88519(13)
O9 O 0.48779(15) 0.12349(10) 0.52885(13)
O10 O 0.38866(15) 0.07588(10) 0.62976(13)
C55 C 0.5403(2) 0.09326(18) 0.4849(2)
H77 H 0.5373 0.0570 0.5006
H78 H 0.5972 0.1055 0.4957
H79 H 0.5222 0.0965 0.4281
C56 C 0.4025(2) 0.11444(16) 0.5062(2)
H80 H 0.3931 0.1097 0.4481
H81 H 0.3704 0.1449 0.5201
C57 C 0.3561(2) 0.03546(16) 0.6737(2)
H82 H 0.2963 0.0331 0.6593
H83 H 0.3675 0.0427 0.7305
H84 H 0.3819 0.0027 0.6615
C58 C 0.3725(2) 0.06759(15) 0.5464(2)
H85 H 0.3127 0.0627 0.5313
H86 H 0.4019 0.0364 0.5308
C59 C 0.0419(3) 0.3563(2) 0.6423(3)
H87 H 0.0017 0.3826 0.6540
H88 H 0.0177 0.3220 0.6463
H89 H 0.0569 0.3616 0.5885
C60 C 0.1544(3) 0.41520(19) 0.6958(3)
H90 H 0.2003 0.4204 0.7373
H91 H 0.1110 0.4405 0.7021
H92 H 0.1741 0.4196 0.6437
C61 C 0.0946(4) 0.3532(2) 0.7867(4)
H93 H 0.1432 0.3564 0.8256
H94 H 0.0705 0.3188 0.7907
H95 H 0.0538 0.3794 0.7972
C62 C 0.7539(2) 0.24787(15) 0.96229(19)
H96 H 0.7074 0.2458 0.9951
H97 H 0.7975 0.2699 0.9900
C63 C 0.6767(3) 0.13581(16) 0.9609(2)
H98 H 0.7124 0.1140 0.9973
H99 H 0.6355 0.1143 0.9301
H100 H 0.6488 0.1612 0.9913
C64 C 0.7871(2) 0.19519(15) 0.9490(2)
H101 H 0.8347 0.1981 0.9177
H102 H 0.8070 0.1795 1.0008
C65 C 0.7044(3) 0.32234(16) 0.8901(2)
H103 H 0.6609 0.3261 0.9251
H104 H 0.6845 0.3351 0.8371
H105 H 0.7529 0.3423 0.9113
C66 C 0.5233(3) 0.47230(19) 0.7578(3)
H106 H 0.5174 0.5099 0.7566
H107 H 0.5789 0.4632 0.7815
H108 H 0.4825 0.4573 0.7893
C67 C 0.5729(3) 0.48149(19) 0.6286(3)
H109 H 0.5646 0.4728 0.5721
H110 H 0.6291 0.4720 0.6501
H111 H 0.5649 0.5186 0.6353
C68 C 0.4258(4) 0.4627(2) 0.6379(4)
H112 H 0.4168 0.4473 0.5850
H113 H 0.4184 0.5002 0.6337
H114 H 0.3860 0.4484 0.6713
loop_
_geom_bond_atom_site_label_1
_geom_bond_atom_site_label_2
_geom_bond_site_symmetry_1
_geom_bond_site_symmetry_2
Sr1 O1 1_555 1_555
Sr2 O1 1_555 1_555
C1 H1 1_555 1_555
C2 C7 1_555 1_555
C3 C1 1_555 1_555
H2 C3 1_555 1_555
C4 C8 1_555 1_555
C5 C11 1_555 1_555
C6 H3 1_555 1_555
C7 C3 1_555 1_555
C8 C18 1_555 1_555
C9 C20 1_555 1_555
C10 H4 1_555 1_555
C11 C6 1_555 1_555
C12 C5 1_555 1_555
H5 C12 1_555 1_555
C13 C4 1_555 1_555
H6 C13 1_555 1_555
C14 C6 1_555 1_555
C15 H7 1_555 1_555
C16 C1 1_555 1_555
C17 C2 1_555 1_555
H8 C17 1_555 1_555
C18 H9 1_555 1_555
C19 C15 1_555 1_555
C20 H10 1_555 1_555
C21 C19 1_555 1_555
H11 C21 1_555 1_555
C22 C13 1_555 1_555
H12 C22 1_555 1_555
C23 C18 1_555 1_555
C24 C9 1_555 1_555
O1 C9 1_555 1_555
O2 Sr1 1_555 1_555
O3 Sr1 1_555 1_555
O4 Sr2 1_555 1_555
O5 Sr1 1_555 1_555
O6 Sr2 1_555 1_555
C25 H13 1_555 1_555
H14 C25 1_555 1_555
H15 C25 1_555 1_555
C26 C24 1_555 1_555
C27 C8 1_555 1_555
C28 C11 1_555 1_555
C29 C28 1_555 1_555
H16 C29 1_555 1_555
H17 C29 1_555 1_555
H18 C29 1_555 1_555
C30 C2 1_555 1_555
C31 C16 1_555 1_555
C32 C31 1_555 1_555
H19 C32 1_555 1_555
H20 C32 1_555 1_555
H21 C32 1_555 1_555
C33 C23 1_555 1_555
C34 C30 1_555 1_555
H22 C34 1_555 1_555
H23 C34 1_555 1_555
H24 C34 1_555 1_555
C35 C28 1_555 1_555
H25 C35 1_555 1_555
H26 C35 1_555 1_555
H27 C35 1_555 1_555
C36 C30 1_555 1_555
H28 C36 1_555 1_555
H29 C36 1_555 1_555
H30 C36 1_555 1_555
C37 O4 1_555 1_555
H31 C37 1_555 1_555
H32 C37 1_555 1_555
C38 C14 1_555 1_555
C39 O6 1_555 1_555
H33 C39 1_555 1_555
H34 C39 1_555 1_555
C40 C28 1_555 1_555
H35 C40 1_555 1_555
H36 C40 1_555 1_555
H37 C40 1_555 1_555
C41 C26 1_555 1_555
H38 C41 1_555 1_555
H39 C41 1_555 1_555
H40 C41 1_555 1_555
C42 C27 1_555 1_555
H41 C42 1_555 1_555
H42 C42 1_555 1_555
H43 C42 1_555 1_555
C43 C26 1_555 1_555
H44 C43 1_555 1_555
H45 C43 1_555 1_555
H46 C43 1_555 1_555
C44 O6 1_555 1_555
H47 C44 1_555 1_555
H48 C44 1_555 1_555
H49 C44 1_555 1_555
C45 C27 1_555 1_555
H50 C45 1_555 1_555
H51 C45 1_555 1_555
H52 C45 1_555 1_555
C46 C31 1_555 1_555
H53 C46 1_555 1_555
H54 C46 1_555 1_555
H55 C46 1_555 1_555
C47 C33 1_555 1_555
H56 C47 1_555 1_555
H57 C47 1_555 1_555
H58 C47 1_555 1_555
C48 C26 1_555 1_555
H59 C48 1_555 1_555
H60 C48 1_555 1_555
H61 C48 1_555 1_555
C49 O4 1_555 1_555
H62 C49 1_555 1_555
H63 C49 1_555 1_555
H64 C49 1_555 1_555
C50 C33 1_555 1_555
H65 C50 1_555 1_555
H66 C50 1_555 1_555
H67 C50 1_555 1_555
C51 C27 1_555 1_555
H68 C51 1_555 1_555
H69 C51 1_555 1_555
H70 C51 1_555 1_555
C52 C31 1_555 1_555
H71 C52 1_555 1_555
H72 C52 1_555 1_555
H73 C52 1_555 1_555
C53 C33 1_555 1_555
H74 C53 1_555 1_555
H75 C53 1_555 1_555
H76 C53 1_555 1_555
C54 C19 1_555 1_555
O7 Sr2 1_555 1_555
O8 Sr2 1_555 1_555
O9 Sr1 1_555 1_555
O10 Sr1 1_555 1_555
C55 O9 1_555 1_555
H77 C55 1_555 1_555
H78 C55 1_555 1_555
H79 C55 1_555 1_555
C56 O9 1_555 1_555
H80 C56 1_555 1_555
H81 C56 1_555 1_555
C57 O10 1_555 1_555
H82 C57 1_555 1_555
H83 C57 1_555 1_555
H84 C57 1_555 1_555
C58 O10 1_555 1_555
H85 C58 1_555 1_555
H86 C58 1_555 1_555
C59 C38 1_555 1_555
H87 C59 1_555 1_555
H88 C59 1_555 1_555
H89 C59 1_555 1_555
C60 C38 1_555 1_555
H90 C60 1_555 1_555
H91 C60 1_555 1_555
H92 C60 1_555 1_555
C61 C38 1_555 1_555
H93 C61 1_555 1_555
H94 C61 1_555 1_555
H95 C61 1_555 1_555
C62 O8 1_555 1_555
H96 C62 1_555 1_555
H97 C62 1_555 1_555
C63 O7 1_555 1_555
H98 C63 1_555 1_555
H99 C63 1_555 1_555
H100 C63 1_555 1_555
C64 O7 1_555 1_555
H101 C64 1_555 1_555
H102 C64 1_555 1_555
C65 O8 1_555 1_555
H103 C65 1_555 1_555
H104 C65 1_555 1_555
H105 C65 1_555 1_555
C66 C54 1_555 1_555
H106 C66 1_555 1_555
H107 C66 1_555 1_555
H108 C66 1_555 1_555
C67 C54 1_555 1_555
H109 C67 1_555 1_555
H110 C67 1_555 1_555
H111 C67 1_555 1_555
C68 C54 1_555 1_555
H112 C68 1_555 1_555
H113 C68 1_555 1_555
H114 C68 1_555 1_555
Sr2 O2 1_555 1_555
Sr2 O3 1_555 1_555
C4 O3 1_555 1_555
C5 O5 1_555 1_555
C7 O2 1_555 1_555
C10 C12 1_555 1_555
C10 C14 1_555 1_555
C15 C24 1_555 1_555
C16 C17 1_555 1_555
C20 C21 1_555 1_555
C22 C23 1_555 1_555
C25 C30 1_555 1_555
C37 C39 1_555 1_555
C56 C58 1_555 1_555
C62 C64 1_555 1_555

#END
