
#######################################################################
#
#                 Cambridge Crystallographic Data Centre
#                                CCDC 
#
#######################################################################
#
# If this CIF has been generated from an entry in the Cambridge 
# Structural Database, then it will include bibliographic, chemical, 
# crystal, experimental, refinement or atomic coordinate data resulting 
# from the CCDC's data processing and validation procedures.
#
#######################################################################

data_RENXEP
_chemical_formula_moiety         'C14 H16 N2 O1'
_chemical_name_systematic        2,2-bis(1H-pyrrol-2-yl)cyclohexanone
_symmetry_cell_setting           monoclinic
_symmetry_space_group_name_H-M   'P 21/c'
_symmetry_Int_Tables_number      14
_space_group_name_Hall           '-P 2ybc'
loop_
_symmetry_equiv_pos_site_id
_symmetry_equiv_pos_as_xyz
1 x,y,z
2 -x,1/2+y,1/2-z
3 -x,-y,-z
4 x,1/2-y,1/2+z
_cell_length_a                   15.4220(12)
_cell_length_b                   9.7194(6)
_cell_length_c                   17.4527(16)
_cell_angle_alpha                90
_cell_angle_beta                 110.396(10)
_cell_angle_gamma                90
_cell_volume                     2452.02
_exptl_crystal_colour            colorless
_exptl_crystal_description       needle
_cell_formula_units_Z            8
loop_
_atom_site_label
_atom_site_type_symbol
_atom_site_fract_x
_atom_site_fract_y
_atom_site_fract_z
C1 C 0.1899(2) 0.5787(3) 0.0416(2)
O1 O 0.34204(17) 0.5152(3) 0.04805(18)
C2 C 0.1850(2) 0.5864(3) 0.1262(2)
C3 C 0.1599(2) 0.4377(4) 0.0049(2)
C4 C 0.2916(3) 0.6070(4) 0.0522(2)
N1 N 0.1044(3) 0.6121(4) 0.1396(3)
N2 N 0.1669(3) 0.3262(4) 0.0526(3)
C5 C 0.1263(2) 0.3933(4) -0.0732(2)
H1 H 0.1144 0.4478 -0.1196
C6 C 0.2507(3) 0.5653(4) 0.2007(2)
H2 H 0.3127 0.5468 0.2102
C7 C 0.1125(3) 0.2506(4) -0.0725(3)
H3 H 0.0893 0.1937 -0.1180
C8 C 0.1215(4) 0.6052(5) 0.2223(4)
H4 H 0.0778 0.6188 0.2472
C9 C 0.1287(3) 0.6895(4) -0.0165(2)
H5 H 0.1284 0.6738 -0.0715
H6 H 0.0656 0.6805 -0.0176
C10 C 0.2105(4) 0.5758(4) 0.2609(3)
H7 H 0.2400 0.5646 0.3169
C11 C 0.1389(3) 0.2118(4) 0.0061(3)
H8 H 0.1382 0.1226 0.0252
C12 C 0.3252(3) 0.7526(5) 0.0686(3)
H9 H 0.3855 0.7598 0.0633
H10 H 0.3320 0.7766 0.1244
C13 C 0.2601(4) 0.8533(5) 0.0111(3)
H11 H 0.2615 0.8401 -0.0436
H12 H 0.2804 0.9464 0.0281
C14 C 0.1626(4) 0.8341(4) 0.0098(3)
H13 H 0.1221 0.8998 -0.0277
H14 H 0.1606 0.8516 0.0639
H15 H 0.195(3) 0.325(4) 0.104(3)
H16 H 0.054(3) 0.620(5) 0.104(3)
N3 N 0.3490(2) 0.2043(3) 0.4312(2)
C15 C 0.3550(2) 0.1914(4) 0.3554(2)
C16 C 0.3138(2) 0.0720(3) 0.2994(2)
N4 N 0.1731(2) 0.2232(4) 0.2436(2)
C17 C 0.2121(2) 0.0961(4) 0.2546(2)
C18 C 0.3870(3) 0.3261(4) 0.4659(3)
H17 H 0.3906 0.3579 0.5172
C19 C 0.3266(3) -0.0656(4) 0.3472(2)
H18 H 0.3032 -0.0552 0.3918
H19 H 0.2905 -0.1367 0.3110
C20 C 0.3653(3) 0.0634(4) 0.2390(3)
O2 O 0.3335(2) 0.1129(4) 0.1711(2)
C21 C 0.0809(3) 0.2147(6) 0.1998(3)
H20 H 0.0396 0.2879 0.1850
C22 C 0.4609(3) 0.0068(5) 0.2684(3)
H21 H 0.5025 0.0742 0.3034
H22 H 0.4802 -0.0088 0.2218
C23 C 0.1421(3) 0.0051(5) 0.2162(2)
H23 H 0.1476 -0.0899 0.2135
C24 C 0.3983(2) 0.3085(4) 0.3435(3)
H24 H 0.4122 0.3289 0.2970
C25 C 0.4283(3) -0.1111(4) 0.3819(3)
H25 H 0.4638 -0.0437 0.4215
H26 H 0.4326 -0.1984 0.4099
C26 C 0.0605(3) 0.0827(6) 0.1818(3)
H27 H 0.0024 0.0478 0.1517
C27 C 0.4182(3) 0.3921(4) 0.4129(3)
H28 H 0.4474 0.4773 0.4208
C28 C 0.4692(3) -0.1259(5) 0.3150(3)
H29 H 0.5339 -0.1515 0.3390
H30 H 0.4371 -0.1985 0.2778
H31 H 0.205(2) 0.302(4) 0.267(2)
H32 H 0.320(2) 0.147(4) 0.453(2)
loop_
_geom_bond_atom_site_label_1
_geom_bond_atom_site_label_2
_geom_bond_site_symmetry_1
_geom_bond_site_symmetry_2
C1 C2 1_555 1_555
O1 C4 1_555 1_555
C2 N1 1_555 1_555
C3 C1 1_555 1_555
C4 C1 1_555 1_555
N1 C8 1_555 1_555
N2 C3 1_555 1_555
C5 C3 1_555 1_555
H1 C5 1_555 1_555
C6 C2 1_555 1_555
H2 C6 1_555 1_555
C7 C5 1_555 1_555
H3 C7 1_555 1_555
C8 H4 1_555 1_555
C9 C1 1_555 1_555
H5 C9 1_555 1_555
H6 C9 1_555 1_555
C10 C6 1_555 1_555
H7 C10 1_555 1_555
C11 N2 1_555 1_555
H8 C11 1_555 1_555
C12 C4 1_555 1_555
H9 C12 1_555 1_555
H10 C12 1_555 1_555
C13 C12 1_555 1_555
H11 C13 1_555 1_555
H12 C13 1_555 1_555
C14 C9 1_555 1_555
H13 C14 1_555 1_555
H14 C14 1_555 1_555
H15 N2 1_555 1_555
H16 N1 1_555 1_555
N3 C15 1_555 1_555
C15 C16 1_555 1_555
C16 C17 1_555 1_555
N4 C17 1_555 1_555
C17 C23 1_555 1_555
C18 N3 1_555 1_555
H17 C18 1_555 1_555
C19 C16 1_555 1_555
H18 C19 1_555 1_555
H19 C19 1_555 1_555
C20 C16 1_555 1_555
O2 C20 1_555 1_555
C21 N4 1_555 1_555
H20 C21 1_555 1_555
C22 C20 1_555 1_555
H21 C22 1_555 1_555
H22 C22 1_555 1_555
C23 H23 1_555 1_555
C24 C15 1_555 1_555
H24 C24 1_555 1_555
C25 C19 1_555 1_555
H25 C25 1_555 1_555
H26 C25 1_555 1_555
C26 C21 1_555 1_555
H27 C26 1_555 1_555
C27 C18 1_555 1_555
H28 C27 1_555 1_555
C28 C22 1_555 1_555
H29 C28 1_555 1_555
H30 C28 1_555 1_555
H31 N4 1_555 1_555
H32 N3 1_555 1_555
C7 C11 1_555 1_555
C8 C10 1_555 1_555
C13 C14 1_555 1_555
C23 C26 1_555 1_555
C24 C27 1_555 1_555
C25 C28 1_555 1_555

#END
