
#######################################################################
#
#                 Cambridge Crystallographic Data Centre
#                                CCDC 
#
#######################################################################
#
# If this CIF has been generated from an entry in the Cambridge 
# Structural Database, then it will include bibliographic, chemical, 
# crystal, experimental, refinement or atomic coordinate data resulting 
# from the CCDC's data processing and validation procedures.
#
#######################################################################

data_RENXUG
_chemical_formula_moiety         'C20 H17 N1 O4 S1'
_chemical_name_systematic        
2-phenyl-4-(phenylsulfonyl)-3a,4,7,7a-tetrahydro-1H-isoindole-1,3(2H)-dione
_symmetry_cell_setting           monoclinic
_symmetry_space_group_name_H-M   'P 21/n'
_symmetry_Int_Tables_number      14
_space_group_name_Hall           '-P 2yn'
loop_
_symmetry_equiv_pos_site_id
_symmetry_equiv_pos_as_xyz
1 x,y,z
2 1/2-x,1/2+y,1/2-z
3 -x,-y,-z
4 1/2+x,1/2-y,1/2+z
_cell_length_a                   13.601(2)
_cell_length_b                   6.3155(9)
_cell_length_c                   19.475(3)
_cell_angle_alpha                90
_cell_angle_beta                 95.258(3)
_cell_angle_gamma                90
_cell_volume                     1665.81
_exptl_crystal_colour            colorless
_exptl_crystal_description       plate
_cell_formula_units_Z            4
_exptl_crystal_recrystallization_method 
'Re-crystallisation from solvent: dichloromethane/diethyl ether'
loop_
_atom_site_label
_atom_site_type_symbol
_atom_site_fract_x
_atom_site_fract_y
_atom_site_fract_z
S1 S 0.41961(5) 0.19182(10) 0.12598(4)
O1 O 0.41929(13) 0.0970(3) 0.05849(10)
O2 O 0.33385(13) 0.1639(3) 0.16299(11)
O3 O 0.11602(13) 0.4172(3) 0.10962(10)
O4 O 0.34849(14) 0.4372(3) -0.04496(10)
N1 N 0.22172(15) 0.3812(3) 0.02428(12)
C1 C 0.52453(19) 0.0951(4) 0.17649(15)
C2 C 0.5985(2) -0.0040(4) 0.14287(16)
H1 H 0.594368 -0.011620 0.093972
C3 C 0.6786(2) -0.0912(5) 0.18296(17)
H2 H 0.729272 -0.161062 0.161197
C4 C 0.6850(2) -0.0772(4) 0.25375(16)
H3 H 0.740286 -0.136615 0.280308
C5 C 0.6113(2) 0.0232(4) 0.28693(16)
H4 H 0.616698 0.033098 0.335806
C6 C 0.5298(2) 0.1088(4) 0.24824(15)
H5 H 0.478521 0.175401 0.270311
C7 C 0.44210(19) 0.4731(4) 0.11717(15)
H6 H 0.504149 0.491233 0.093937
C8 C 0.4574(2) 0.5718(4) 0.18721(15)
H7 H 0.522521 0.579313 0.209366
C9 C 0.3832(2) 0.6494(4) 0.21967(15)
H8 H 0.398371 0.707774 0.264352
C10 C 0.2779(2) 0.6506(4) 0.19036(15)
H9 H 0.246437 0.783454 0.204188
H10 H 0.242971 0.531160 0.210375
C11 C 0.26508(19) 0.6325(4) 0.11124(15)
H11 H 0.238293 0.771453 0.093427
C12 C 0.19091(19) 0.4647(4) 0.08507(14)
C13 C 0.31403(19) 0.4604(4) 0.00945(15)
C14 C 0.35664(19) 0.5846(4) 0.07233(14)
H12 H 0.382336 0.722118 0.055872
C15 C 0.16600(18) 0.2283(4) -0.01781(14)
C16 C 0.2089(2) 0.0325(4) -0.02954(15)
H13 H 0.273885 0.001430 -0.010111
C17 C 0.1554(2) -0.1166(4) -0.06997(16)
H14 H 0.184285 -0.249776 -0.078620
C18 C 0.0596(2) -0.0721(5) -0.09791(15)
H15 H 0.023085 -0.174528 -0.125373
C19 C 0.0179(2) 0.1233(5) -0.08526(15)
H16 H -0.047727 0.153093 -0.103689
C20 C 0.07069(19) 0.2749(5) -0.04625(15)
H17 H 0.042300 0.409562 -0.038894
loop_
_geom_bond_atom_site_label_1
_geom_bond_atom_site_label_2
_geom_bond_site_symmetry_1
_geom_bond_site_symmetry_2
S1 O1 1_555 1_555
O2 S1 1_555 1_555
O3 C12 1_555 1_555
O4 C13 1_555 1_555
N1 C12 1_555 1_555
C1 S1 1_555 1_555
C2 C1 1_555 1_555
H1 C2 1_555 1_555
C3 C2 1_555 1_555
H2 C3 1_555 1_555
C4 C3 1_555 1_555
H3 C4 1_555 1_555
C5 C4 1_555 1_555
H4 C5 1_555 1_555
C6 C1 1_555 1_555
H5 C6 1_555 1_555
C7 S1 1_555 1_555
H6 C7 1_555 1_555
C8 C7 1_555 1_555
H7 C8 1_555 1_555
C9 C8 1_555 1_555
H8 C9 1_555 1_555
C10 C9 1_555 1_555
H9 C10 1_555 1_555
H10 C10 1_555 1_555
C11 C10 1_555 1_555
H11 C11 1_555 1_555
C12 C11 1_555 1_555
C13 N1 1_555 1_555
C14 C7 1_555 1_555
H12 C14 1_555 1_555
C15 N1 1_555 1_555
C16 C15 1_555 1_555
H13 C16 1_555 1_555
C17 C16 1_555 1_555
H14 C17 1_555 1_555
C18 C17 1_555 1_555
H15 C18 1_555 1_555
C19 C18 1_555 1_555
H16 C19 1_555 1_555
C20 C15 1_555 1_555
H17 C20 1_555 1_555
C5 C6 1_555 1_555
C11 C14 1_555 1_555
C13 C14 1_555 1_555
C19 C20 1_555 1_555

#END
