
#######################################################################
#
#                 Cambridge Crystallographic Data Centre
#                                CCDC 
#
#######################################################################
#
# If this CIF has been generated from an entry in the Cambridge 
# Structural Database, then it will include bibliographic, chemical, 
# crystal, experimental, refinement or atomic coordinate data resulting 
# from the CCDC's data processing and validation procedures.
#
#######################################################################

data_RENXIT
_chemical_formula_moiety         'C18 H21 N3'
_chemical_name_systematic        1,1,2-tris(1H-pyrrol-1-yl)cyclohexane
_symmetry_cell_setting           monoclinic
_symmetry_space_group_name_H-M   'P 21/n'
_symmetry_Int_Tables_number      14
_space_group_name_Hall           '-P 2yn'
loop_
_symmetry_equiv_pos_site_id
_symmetry_equiv_pos_as_xyz
1 x,y,z
2 1/2-x,1/2+y,1/2-z
3 -x,-y,-z
4 1/2+x,1/2-y,1/2+z
_cell_length_a                   17.324(3)
_cell_length_b                   9.7036(13)
_cell_length_c                   18.044(3)
_cell_angle_alpha                90
_cell_angle_beta                 91.045(19)
_cell_angle_gamma                90
_cell_volume                     3032.79
_exptl_crystal_colour            colorless
_exptl_crystal_description       needle
_cell_formula_units_Z            8
loop_
_atom_site_label
_atom_site_type_symbol
_atom_site_fract_x
_atom_site_fract_y
_atom_site_fract_z
N1 N 0.8605(6) 0.3856(9) 1.0425(6)
H1 H 0.8585 0.3100 1.0176
N2 N 0.6964(6) 0.5124(11) 0.9939(7)
H2 H 0.7266 0.5170 1.0321
C1 C 0.7918(9) 0.6258(13) 0.9085(7)
H3 H 0.7915 0.7092 0.9391
C2 C 0.8645(7) 0.5466(11) 0.9306(7)
C3 C 0.8648(7) 0.5146(13) 1.0138(7)
C4 C 0.8662(8) 0.6083(13) 1.0699(8)
H4 H 0.8702 0.7036 1.0659
C5 C 0.8725(7) 0.4129(12) 0.8879(8)
C6 C 0.7899(7) 0.6735(12) 0.8293(7)
H5 H 0.7419 0.7220 0.8191
H6 H 0.7921 0.5944 0.7966
C7 C 0.7152(8) 0.5512(12) 0.9228(7)
N3 N 0.9438(7) 0.3581(13) 0.8718(6)
H7 H 0.9877 0.3953 0.8826
C8 C 0.9334(7) 0.6464(13) 0.9133(7)
H8 H 0.9307 0.7261 0.9456
H9 H 0.9817 0.5994 0.9240
C9 C 0.8601(9) 0.7719(11) 0.8144(7)
H10 H 0.8604 0.7986 0.7626
H11 H 0.8563 0.8545 0.8444
C10 C 0.8173(9) 0.3239(13) 0.8607(9)
H12 H 0.7640 0.3327 0.8638
C11 C 0.8602(8) 0.5296(14) 1.1359(8)
H13 H 0.8570 0.5645 1.1838
C12 C 0.5923(7) 0.4745(13) 0.9245(8)
H14 H 0.5423 0.4512 0.9098
C13 C 0.8602(7) 0.3969(16) 1.1171(7)
H15 H 0.8599 0.3234 1.1502
C14 C 0.9328(9) 0.6942(12) 0.8344(8)
H16 H 0.9373 0.6150 0.8019
H17 H 0.9771 0.7533 0.8266
C15 C 0.6235(8) 0.4667(12) 0.9937(8)
H18 H 0.5980 0.4342 1.0351
C16 C 0.6511(8) 0.5251(13) 0.8795(7)
H19 H 0.6471 0.5388 0.8285
C17 C 0.8583(11) 0.2175(17) 0.8273(9)
H20 H 0.8351 0.1442 0.8023
C18 C 0.9332(13) 0.2325(16) 0.8352(9)
H21 H 0.9712 0.1720 0.8196
N4 N 0.3614(7) -0.1109(11) 1.0409(6)
H22 H 0.3620 -0.1850 1.0148
N5 N 0.1928(7) 0.0131(11) 0.9952(6)
H23 H 0.2224 0.0177 1.0338
C19 C 0.2872(6) 0.1264(10) 0.9066(7)
H24 H 0.2885 0.2087 0.9381
C20 C 0.3657(7) 0.0181(11) 1.0133(7)
C21 C 0.3754(7) -0.0856(11) 0.8859(6)
C22 C 0.2913(8) 0.1821(10) 0.8277(6)
H25 H 0.2934 0.1054 0.7934
H26 H 0.2446 0.2339 0.8165
C23 C 0.3656(7) 0.0429(12) 0.9290(7)
C24 C 0.3674(7) 0.1054(12) 1.0721(7)
H27 H 0.3705 0.2010 1.0700
N6 N 0.4456(7) -0.1388(13) 0.8732(8)
H28 H 0.4889 -0.1018 0.8863
C25 C 0.2133(7) 0.0536(10) 0.9268(7)
C26 C 0.3589(8) 0.2719(13) 0.8166(7)
H29 H 0.3544 0.3531 0.8476
H30 H 0.3596 0.3018 0.7654
C27 C 0.4353(8) 0.1975(14) 0.8358(8)
H31 H 0.4424 0.1205 0.8023
H32 H 0.4783 0.2605 0.8302
C28 C 0.3559(8) -0.1070(14) 1.1173(9)
H33 H 0.3483 -0.1820 1.1484
C29 C 0.3635(7) 0.0241(13) 1.1380(7)
H34 H 0.3659 0.0568 1.1865
C30 C 0.4332(8) 0.1461(14) 0.9146(8)
H35 H 0.4282 0.2244 0.9475
H36 H 0.4818 0.1010 0.9265
C31 C 0.3218(8) -0.1776(12) 0.8599(7)
H37 H 0.2684 -0.1696 0.8625
C32 C 0.1188(8) -0.0363(12) 0.9952(10)
H38 H 0.0909 -0.0652 1.0360
C33 C 0.0946(9) -0.0341(13) 0.9226(10)
H39 H 0.0475 -0.0666 0.9044
C34 C 0.1519(8) 0.0242(11) 0.8809(8)
H40 H 0.1492 0.0407 0.8301
C35 C 0.3641(10) -0.2897(11) 0.8274(8)
H41 H 0.3442 -0.3682 0.8044
C36 C 0.4379(9) -0.2558(18) 0.8377(9)
H42 H 0.4790 -0.3088 0.8215
loop_
_geom_bond_atom_site_label_1
_geom_bond_atom_site_label_2
_geom_bond_site_symmetry_1
_geom_bond_site_symmetry_2
N1 H1 1_555 1_555
N2 H2 1_555 1_555
C1 H3 1_555 1_555
C2 C1 1_555 1_555
C3 N1 1_555 1_555
C4 C3 1_555 1_555
H4 C4 1_555 1_555
C5 C2 1_555 1_555
C6 C1 1_555 1_555
H5 C6 1_555 1_555
H6 C6 1_555 1_555
C7 N2 1_555 1_555
N3 C5 1_555 1_555
H7 N3 1_555 1_555
C8 C2 1_555 1_555
H8 C8 1_555 1_555
H9 C8 1_555 1_555
C9 C6 1_555 1_555
H10 C9 1_555 1_555
H11 C9 1_555 1_555
C10 C5 1_555 1_555
H12 C10 1_555 1_555
C11 C4 1_555 1_555
H13 C11 1_555 1_555
C12 H14 1_555 1_555
C13 N1 1_555 1_555
H15 C13 1_555 1_555
C14 C8 1_555 1_555
H16 C14 1_555 1_555
H17 C14 1_555 1_555
C15 N2 1_555 1_555
H18 C15 1_555 1_555
C16 C7 1_555 1_555
H19 C16 1_555 1_555
C17 C10 1_555 1_555
H20 C17 1_555 1_555
C18 N3 1_555 1_555
H21 C18 1_555 1_555
N4 H22 1_555 1_555
N5 H23 1_555 1_555
C19 H24 1_555 1_555
C20 N4 1_555 1_555
C21 C23 1_555 1_555
C22 C19 1_555 1_555
H25 C22 1_555 1_555
H26 C22 1_555 1_555
C23 C19 1_555 1_555
C24 C20 1_555 1_555
H27 C24 1_555 1_555
N6 C21 1_555 1_555
H28 N6 1_555 1_555
C25 N5 1_555 1_555
C26 C22 1_555 1_555
H29 C26 1_555 1_555
H30 C26 1_555 1_555
C27 C26 1_555 1_555
H31 C27 1_555 1_555
H32 C27 1_555 1_555
C28 N4 1_555 1_555
H33 C28 1_555 1_555
C29 C24 1_555 1_555
H34 C29 1_555 1_555
C30 C23 1_555 1_555
H35 C30 1_555 1_555
H36 C30 1_555 1_555
C31 C21 1_555 1_555
H37 C31 1_555 1_555
C32 N5 1_555 1_555
H38 C32 1_555 1_555
C33 C32 1_555 1_555
H39 C33 1_555 1_555
C34 C25 1_555 1_555
H40 C34 1_555 1_555
C35 C31 1_555 1_555
H41 C35 1_555 1_555
C36 N6 1_555 1_555
H42 C36 1_555 1_555
C1 C7 1_555 1_555
C2 C3 1_555 1_555
C9 C14 1_555 1_555
C11 C13 1_555 1_555
C12 C15 1_555 1_555
C12 C16 1_555 1_555
C17 C18 1_555 1_555
C19 C25 1_555 1_555
C20 C23 1_555 1_555
C27 C30 1_555 1_555
C28 C29 1_555 1_555
C33 C34 1_555 1_555
C35 C36 1_555 1_555

#END
