
#######################################################################
#
#                 Cambridge Crystallographic Data Centre
#                                CCDC 
#
#######################################################################
#
# If this CIF has been generated from an entry in the Cambridge 
# Structural Database, then it will include bibliographic, chemical, 
# crystal, experimental, refinement or atomic coordinate data resulting 
# from the CCDC's data processing and validation procedures.
#
#######################################################################

data_RENYUG
_chemical_formula_moiety         'C33 H29 N5 2+,2(F6 P1 1-),C3 H6 O1'
_chemical_name_systematic        
'1,5(1,3)-dibenzimidazola-3(4,5)-acridinacyclononaphane-1^3^,5^3^-diium bis(hexafluorophosphate) acetone solvate'
_symmetry_cell_setting           triclinic
_symmetry_space_group_name_H-M   'P -1'
_symmetry_Int_Tables_number      2
_space_group_name_Hall           '-P 1'
loop_
_symmetry_equiv_pos_site_id
_symmetry_equiv_pos_as_xyz
1 x,y,z
2 -x,-y,-z
_cell_length_a                   10.958(13)
_cell_length_b                   11.539(13)
_cell_length_c                   16.667(19)
_cell_angle_alpha                75.826(13)
_cell_angle_beta                 82.501(13)
_cell_angle_gamma                65.070(12)
_cell_volume                     1852.01
_exptl_crystal_colour            yellow
_exptl_crystal_description       block
_cell_formula_units_Z            2
loop_
_atom_site_label
_atom_site_type_symbol
_atom_site_fract_x
_atom_site_fract_y
_atom_site_fract_z
C1 C 0.5388(4) 0.7191(4) 0.4520(2)
H1 H 0.4869 0.8010 0.4212
C2 C 0.6681(4) 0.6449(4) 0.4205(2)
H2 H 0.7005 0.6797 0.3704
C3 C 0.7442(4) 0.5249(4) 0.4625(2)
H3 H 0.8287 0.4777 0.4412
C4 C 0.6963(3) 0.4691(3) 0.53975(19)
C5 C 0.5682(3) 0.5452(3) 0.57351(18)
C6 C 0.4892(3) 0.6726(3) 0.52660(19)
C7 C 0.7649(3) 0.3417(3) 0.5827(2)
H4 H 0.8478 0.2893 0.5622
C8 C 0.7101(3) 0.2918(3) 0.65648(19)
C9 C 0.5853(3) 0.3787(3) 0.68731(18)
C10 C 0.5308(3) 0.3319(3) 0.76592(18)
C11 C 0.5948(4) 0.2057(3) 0.8065(2)
H5 H 0.5588 0.1756 0.8568
C12 C 0.7152(4) 0.1191(3) 0.7736(2)
H6 H 0.7561 0.0327 0.8018
C13 C 0.7714(4) 0.1611(3) 0.7012(2)
H7 H 0.8511 0.1035 0.6807
C14 C 0.4065(3) 0.4248(3) 0.80256(19)
H8 H 0.3432 0.4795 0.7592
H9 H 0.3642 0.3755 0.8427
C15 C 0.5483(3) 0.5324(3) 0.83051(18)
H10 H 0.6182 0.4986 0.7934
C16 C 0.3573(3) 0.5747(3) 0.90388(18)
C17 C 0.2330(3) 0.5821(3) 0.9402(2)
H11 H 0.1870 0.5391 0.9254
C18 C 0.1824(4) 0.6570(4) 0.9995(2)
H12 H 0.1000 0.6642 1.0257
C19 C 0.2509(4) 0.7221(4) 1.0214(2)
H13 H 0.2124 0.7718 1.0616
C20 C 0.3735(4) 0.7154(3) 0.9856(2)
H14 H 0.4191 0.7586 1.0007
C21 C 0.4254(3) 0.6405(3) 0.92570(18)
C22 C 0.6543(3) 0.6554(3) 0.8778(2)
H15 H 0.7409 0.5830 0.8748
H16 H 0.6488 0.6830 0.9292
C23 C 0.6440(3) 0.7677(3) 0.8053(2)
H17 H 0.6351 0.7443 0.7550
H18 H 0.7268 0.7808 0.7999
C24 C 0.5254(3) 0.8958(3) 0.8140(2)
H19 H 0.4577 0.8761 0.8513
H20 H 0.5562 0.9460 0.8389
C25 C 0.4609(4) 0.9793(3) 0.7322(2)
H21 H 0.3972 1.0648 0.7405
H22 H 0.5298 0.9911 0.6924
C26 C 0.2746(3) 0.8995(3) 0.73585(19)
C27 C 0.1934(3) 0.9377(3) 0.8048(2)
H23 H 0.2120 0.9833 0.8371
C28 C 0.0848(3) 0.9045(4) 0.8222(2)
H24 H 0.0293 0.9273 0.8680
C29 C 0.0554(4) 0.8380(4) 0.7735(3)
H25 H -0.0197 0.8183 0.7875
C30 C 0.1342(3) 0.8002(3) 0.7049(2)
H26 H 0.1141 0.7561 0.6723
C31 C 0.2465(3) 0.8323(3) 0.68740(19)
C32 C 0.4286(3) 0.8619(3) 0.63436(18)
H27 H 0.5029 0.8604 0.5998
C33 C 0.3495(3) 0.7477(3) 0.55648(19)
H28 H 0.3004 0.8152 0.5107
H29 H 0.3040 0.6891 0.5746
N1 N 0.5165(2) 0.5021(2) 0.64685(15)
N2 N 0.3459(3) 0.8091(2) 0.62536(15)
N3 N 0.3905(3) 0.9168(2) 0.69944(16)
N4 N 0.5452(3) 0.6113(2) 0.87792(15)
N5 N 0.4377(2) 0.5084(2) 0.84336(15)
C34 C 0.0511(4) 0.5891(5) 0.2538(3)
C35 C -0.0350(5) 0.7130(6) 0.2804(5)
H30 H 0.0167 0.7636 0.2775
H31 H -0.0673 0.6940 0.3363
H32 H -0.1100 0.7618 0.2447
C36 C -0.0116(6) 0.4968(6) 0.2539(4)
H33 H 0.0542 0.4205 0.2359
H34 H -0.0854 0.5388 0.2168
H35 H -0.0441 0.4717 0.3088
O1 O 0.1650(4) 0.5673(5) 0.2319(3)
P1 P 0.76149(9) 0.83599(9) 0.03364(6)
F1 F 0.6748(4) 0.9843(3) 0.0066(3)
F2 F 0.8459(3) 0.6858(3) 0.0641(2)
F3 F 0.8847(3) 0.8643(4) 0.0475(2)
F4 F 0.7059(3) 0.8472(4) 0.12627(19)
F5 F 0.6379(3) 0.8033(3) 0.02353(18)
F6 F 0.8130(4) 0.8243(4) -0.05704(18)
P2 P 0.18336(10) 0.15341(10) 0.45570(7)
F7 F 0.0373(4) 0.2539(4) 0.4435(3)
F8 F 0.3307(4) 0.0441(4) 0.4593(4)
F9 F 0.2469(3) 0.2556(3) 0.4150(2)
F10 F 0.1887(9) 0.1715(10) 0.5399(3)
F11 F 0.1300(4) 0.0476(4) 0.4933(4)
F12 F 0.1787(6) 0.1431(6) 0.3629(3)
loop_
_geom_bond_atom_site_label_1
_geom_bond_atom_site_label_2
_geom_bond_site_symmetry_1
_geom_bond_site_symmetry_2
C1 H1 1_555 1_555
C2 C1 1_555 1_555
H2 C2 1_555 1_555
C3 C2 1_555 1_555
H3 C3 1_555 1_555
C4 C3 1_555 1_555
C5 C4 1_555 1_555
C6 C1 1_555 1_555
C7 C4 1_555 1_555
H4 C7 1_555 1_555
C8 C7 1_555 1_555
C9 C8 1_555 1_555
C10 C9 1_555 1_555
C11 C10 1_555 1_555
H5 C11 1_555 1_555
C12 C11 1_555 1_555
H6 C12 1_555 1_555
C13 C8 1_555 1_555
H7 C13 1_555 1_555
C14 C10 1_555 1_555
H8 C14 1_555 1_555
H9 C14 1_555 1_555
C15 H10 1_555 1_555
C16 C17 1_555 1_555
C17 H11 1_555 1_555
C18 C17 1_555 1_555
H12 C18 1_555 1_555
C19 C18 1_555 1_555
H13 C19 1_555 1_555
C20 C19 1_555 1_555
H14 C20 1_555 1_555
C21 C16 1_555 1_555
C22 H15 1_555 1_555
H16 C22 1_555 1_555
C23 C22 1_555 1_555
H17 C23 1_555 1_555
H18 C23 1_555 1_555
C24 C23 1_555 1_555
H19 C24 1_555 1_555
H20 C24 1_555 1_555
C25 C24 1_555 1_555
H21 C25 1_555 1_555
H22 C25 1_555 1_555
C26 C27 1_555 1_555
C27 H23 1_555 1_555
C28 C27 1_555 1_555
H24 C28 1_555 1_555
C29 C28 1_555 1_555
H25 C29 1_555 1_555
C30 C29 1_555 1_555
H26 C30 1_555 1_555
C31 C26 1_555 1_555
C32 H27 1_555 1_555
C33 C6 1_555 1_555
H28 C33 1_555 1_555
H29 C33 1_555 1_555
N1 C5 1_555 1_555
N2 C31 1_555 1_555
N3 C25 1_555 1_555
N4 C15 1_555 1_555
N5 C14 1_555 1_555
C34 C35 1_555 1_555
C35 H30 1_555 1_555
H31 C35 1_555 1_555
H32 C35 1_555 1_555
C36 C34 1_555 1_555
H33 C36 1_555 1_555
H34 C36 1_555 1_555
H35 C36 1_555 1_555
O1 C34 1_555 1_555
P1 F1 1_555 1_555
F2 P1 1_555 1_555
F3 P1 1_555 1_555
F4 P1 1_555 1_555
F5 P1 1_555 1_555
F6 P1 1_555 1_555
P2 F7 1_555 1_555
F8 P2 1_555 1_555
F9 P2 1_555 1_555
F10 P2 1_555 1_555
F11 P2 1_555 1_555
F12 P2 1_555 1_555
C5 C6 1_555 1_555
C9 N1 1_555 1_555
C12 C13 1_555 1_555
C15 N5 1_555 1_555
C16 N5 1_555 1_555
C20 C21 1_555 1_555
C21 N4 1_555 1_555
C22 N4 1_555 1_555
C26 N3 1_555 1_555
C30 C31 1_555 1_555
C32 N2 1_555 1_555
C32 N3 1_555 1_555
C33 N2 1_555 1_555

#END
