
#######################################################################
#
#                 Cambridge Crystallographic Data Centre
#                                CCDC 
#
#######################################################################
#
# If this CIF has been generated from an entry in the Cambridge 
# Structural Database, then it will include bibliographic, chemical, 
# crystal, experimental, refinement or atomic coordinate data resulting 
# from the CCDC's data processing and validation procedures.
#
#######################################################################

data_RENYIU
_chemical_formula_moiety         'C34 H31 N5 2+,3(H2 O1),2(Br1 1-)'
_chemical_name_systematic        
'1,5(1,3)-dibenzimidazola-3(4,5)-acridinacyclodecaphane-1^3^,5^3^-diium dibromide trihydrate'
_symmetry_cell_setting           monoclinic
_symmetry_space_group_name_H-M   'P 21'
_symmetry_Int_Tables_number      4
_space_group_name_Hall           'P 2yb'
loop_
_symmetry_equiv_pos_site_id
_symmetry_equiv_pos_as_xyz
1 x,y,z
2 -x,1/2+y,-z
_cell_length_a                   14.481(3)
_cell_length_b                   13.824(3)
_cell_length_c                   16.878(3)
_cell_angle_alpha                90
_cell_angle_beta                 109.685(3)
_cell_angle_gamma                90
_cell_volume                     3181.27
_cell_formula_units_Z            4
loop_
_atom_site_label
_atom_site_type_symbol
_atom_site_fract_x
_atom_site_fract_y
_atom_site_fract_z
Br1 Br 0.89606(6) 0.77930(6) 0.70176(4)
Br2 Br 0.28642(6) 0.28492(6) 0.05475(4)
Br3 Br 0.46135(6) 0.67750(6) 0.64490(5)
Br4 Br 0.87070(7) 0.99549(6) 0.33031(8)
C1 C 0.8717(5) 0.5989(5) 0.3619(4)
H1 H 0.8603 0.5997 0.4142
C2 C 0.6336(5) 0.6560(4) 0.3727(4)
N1 N 0.5868(4) 0.5949(4) 0.3111(3)
N2 N 0.8187(4) 0.6482(4) 0.2938(3)
C3 C 0.5122(5) 0.5394(5) 0.3200(4)
C4 C 0.6086(5) 0.4901(5) 0.0532(4)
H2 H 0.5578 0.5371 0.0363
C5 C 0.4843(5) 0.5438(5) 0.3931(4)
C6 C 0.7082(5) 0.7189(5) 0.3618(4)
N3 N 0.9416(4) 0.5490(4) 0.3474(3)
C7 C 0.6094(5) 0.6672(5) 0.4474(4)
C8 C 0.8744(6) 0.3541(6) 0.3364(5)
H3 H 0.8305 0.4076 0.3074
H4 H 0.9118 0.3333 0.3000
C9 C 0.4588(5) 0.4769(5) 0.2536(4)
C10 C 0.3602(5) 0.4219(5) 0.3353(4)
H5 H 0.3092 0.3814 0.3397
N4 N 0.5672(4) 0.4200(4) 0.1758(3)
C11 C 0.7352(5) 0.7136(5) 0.2834(5)
H6 H 0.6779 0.6905 0.2361
H7 H 0.7522 0.7791 0.2691
C12 C 0.4794(5) 0.4771(5) 0.1713(4)
H8 H 0.4220 0.4503 0.1263
H9 H 0.4888 0.5446 0.1560
N5 N 0.6813(4) 0.3100(4) 0.2138(4)
C13 C 0.9624(6) 0.5575(5) 0.1349(4)
H10 H 0.9981 0.5350 0.1005
C14 C 0.8850(6) 0.6237(5) 0.1010(4)
H11 H 0.8697 0.6438 0.0442
C15 C 0.8307(5) 0.6602(5) 0.1476(4)
H12 H 0.7795 0.7058 0.1249
C16 C 0.7449(6) 0.2314(5) 0.2641(5)
H13 H 0.7847 0.2037 0.2322
H14 H 0.7032 0.1792 0.2741
C17 C 0.6061(5) 0.3483(5) 0.2305(4)
H15 H 0.5832 0.3282 0.2745
C18 C 0.3863(5) 0.4197(5) 0.2615(5)
H16 H 0.3524 0.3774 0.2168
C19 C 0.8556(5) 0.6262(5) 0.2301(4)
C20 C 0.6198(5) 0.4285(5) 0.1222(4)
C21 C 0.9332(5) 0.5622(5) 0.2625(4)
C22 C 0.6747(6) 0.4790(6) 0.0115(5)
H17 H 0.6701 0.5195 -0.0352
C23 C 0.7521(5) 0.7857(6) 0.4233(5)
H18 H 0.8010 0.8269 0.4158
C24 C 0.9469(6) 0.3923(5) 0.4203(5)
H19 H 0.9101 0.4124 0.4575
H20 H 0.9924 0.3397 0.4489
C25 C 0.4083(5) 0.4823(5) 0.3995(4)
H21 H 0.3911 0.4833 0.4491
C26 C 0.5336(6) 0.6088(5) 0.4563(4)
H22 H 0.5162 0.6138 0.5056
C27 C 0.9874(6) 0.5249(5) 0.2155(5)
H23 H 1.0388 0.4795 0.2382
C28 C 0.8117(6) 0.2693(6) 0.3473(5)
H24 H 0.8553 0.2165 0.3781
H25 H 0.7718 0.2906 0.3815
C29 C 0.6588(6) 0.7369(5) 0.5094(4)
H26 H 0.6435 0.7421 0.5597
C30 C 0.7491(6) 0.4086(6) 0.0370(5)
H27 H 0.7930 0.4030 0.0063
C31 C 0.7615(6) 0.3476(6) 0.1042(5)
H28 H 0.8125 0.3008 0.1208
C32 C 1.0052(5) 0.4773(5) 0.4058(4)
H29 H 1.0398 0.5091 0.4604
H30 H 1.0552 0.4536 0.3825
C33 C 0.6935(5) 0.3591(5) 0.1468(4)
C34 C 0.7276(6) 0.7956(5) 0.4972(5)
H31 H 0.7592 0.8431 0.5379
C35 C 0.5226(5) 0.3034(4) 0.8305(4)
N6 N 0.5969(4) 0.2487(4) 0.8231(4)
N7 N 0.8179(4) 0.1940(4) 0.7945(4)
N8 N 0.9398(4) 0.2966(4) 0.8320(4)
C36 C 0.6191(5) 0.1815(5) 0.9614(4)
C37 C 0.4930(5) 0.3004(5) 0.9029(4)
N9 N 0.6859(4) 0.5409(4) 0.7247(4)
C38 C 0.7195(5) 0.1258(5) 0.8781(5)
N10 N 0.5770(4) 0.4262(4) 0.6869(3)
C39 C 0.4701(5) 0.3639(5) 0.7614(4)
C40 C 0.6133(5) 0.4962(5) 0.7425(4)
H32 H 0.5913 0.5120 0.7880
C41 C 0.6434(5) 0.1892(5) 0.8869(4)
C42 C 0.3940(6) 0.4215(5) 0.7678(5)
H33 H 0.3605 0.4633 0.7226
C43 C 0.7410(6) 0.1243(6) 0.7976(5)
H34 H 0.7620 0.0583 0.7886
H35 H 0.6798 0.1388 0.7507
C44 C 0.7476(6) 0.6182(5) 0.7772(5)
H36 H 0.7059 0.6627 0.7964
H37 H 0.7785 0.6560 0.7430
C45 C 0.7599(6) 0.5189(5) 0.6102(5)
H38 H 0.8079 0.5686 0.6272
C46 C 0.5420(6) 0.2381(5) 0.9684(4)
H39 H 0.5234 0.2340 1.0172
C47 C 0.9228(5) 0.2752(6) 0.7484(4)
C48 C 0.6968(5) 0.4987(5) 0.6538(4)
C49 C 0.6253(5) 0.4254(5) 0.6289(4)
C50 C 0.6130(6) 0.3690(5) 0.5583(5)
H40 H 0.5642 0.3201 0.5414
C51 C 0.8761(5) 0.2476(5) 0.8585(5)
H41 H 0.8725 0.2502 0.9136
C52 C 0.9688(6) 0.3039(5) 0.6920(5)
H42 H 1.0210 0.3494 0.7074
C53 C 0.8440(5) 0.2087(5) 0.7238(4)
C54 C 0.9352(7) 0.2631(6) 0.6127(5)
H43 H 0.9659 0.2807 0.5731
C55 C 0.3655(6) 0.4194(6) 0.8402(5)
H44 H 0.3124 0.4584 0.8425
C56 C 0.4138(6) 0.3617(5) 0.9064(5)
H45 H 0.3952 0.3616 0.9553
C57 C 0.4930(5) 0.3642(6) 0.6814(4)
H46 H 0.5072 0.2973 0.6682
H47 H 0.4348 0.3872 0.6350
C58 C 0.8572(7) 0.1964(6) 0.5884(5)
H48 H 0.8365 0.1702 0.5331
C59 C 0.9612(6) 0.4510(5) 0.9068(5)
H49 H 1.0105 0.4996 0.9376
H50 H 0.9269 0.4279 0.9450
C60 C 0.7664(6) 0.0649(6) 0.9411(5)
H51 H 0.8169 0.0247 0.9352
C61 C 1.0122(6) 0.3675(6) 0.8824(5)
H52 H 1.0524 0.3914 0.8493
H53 H 1.0565 0.3357 0.9337
C62 C 0.8266(6) 0.5763(5) 0.8528(5)
H54 H 0.7955 0.5485 0.8917
H55 H 0.8707 0.6291 0.8830
C63 C 0.6758(6) 0.3877(6) 0.5134(5)
H56 H 0.6701 0.3508 0.4645
C64 C 0.7486(6) 0.4615(6) 0.5396(5)
H57 H 0.7909 0.4719 0.5079
C65 C 0.6693(6) 0.1162(6) 1.0259(5)
H58 H 0.6529 0.1118 1.0758
C66 C 0.8102(6) 0.1683(6) 0.6438(4)
H59 H 0.7573 0.1235 0.6278
C67 C 0.7428(7) 0.0588(6) 1.0158(5)
H60 H 0.7775 0.0152 1.0591
C68 C 0.8876(6) 0.4981(6) 0.8301(5)
H61 H 0.8431 0.4478 0.7960
H62 H 0.9232 0.5271 0.7951
O1 O 0.0560(5) 0.7397(5) 0.9537(4)
O2 O 0.0585(5) 0.1315(5) 0.4475(4)
O3 O 0.7220(7) 0.0273(5) 0.4499(5)
O4 O 0.4770(5) 0.1417(5) 0.1457(4)
O5 O 0.0744(5) 0.6413(5) 0.8112(4)
O6 O 0.1091(5) 0.3649(5) 0.1168(4)
loop_
_geom_bond_atom_site_label_1
_geom_bond_atom_site_label_2
_geom_bond_site_symmetry_1
_geom_bond_site_symmetry_2
C1 H1 1_555 1_555
C2 N1 1_555 1_555
N1 C3 1_555 1_555
N2 C1 1_555 1_555
C3 C5 1_555 1_555
C4 H2 1_555 1_555
C5 C25 1_555 1_555
C6 C2 1_555 1_555
N3 C1 1_555 1_555
C7 C2 1_555 1_555
C8 H3 1_555 1_555
H4 C8 1_555 1_555
C9 C3 1_555 1_555
C10 H5 1_555 1_555
N4 C12 1_555 1_555
C11 N2 1_555 1_555
H6 C11 1_555 1_555
H7 C11 1_555 1_555
C12 C9 1_555 1_555
H8 C12 1_555 1_555
H9 C12 1_555 1_555
N5 C16 1_555 1_555
C13 H10 1_555 1_555
C14 C13 1_555 1_555
H11 C14 1_555 1_555
C15 C14 1_555 1_555
H12 C15 1_555 1_555
C16 H13 1_555 1_555
H14 C16 1_555 1_555
C17 N4 1_555 1_555
H15 C17 1_555 1_555
C18 C9 1_555 1_555
H16 C18 1_555 1_555
C19 N2 1_555 1_555
C20 C4 1_555 1_555
C21 N3 1_555 1_555
C22 C4 1_555 1_555
H17 C22 1_555 1_555
C23 C6 1_555 1_555
H18 C23 1_555 1_555
C24 C8 1_555 1_555
H19 C24 1_555 1_555
H20 C24 1_555 1_555
C25 C10 1_555 1_555
H21 C25 1_555 1_555
C26 C5 1_555 1_555
H22 C26 1_555 1_555
C27 C13 1_555 1_555
H23 C27 1_555 1_555
C28 C8 1_555 1_555
H24 C28 1_555 1_555
H25 C28 1_555 1_555
C29 C7 1_555 1_555
H26 C29 1_555 1_555
C30 C22 1_555 1_555
H27 C30 1_555 1_555
C31 C30 1_555 1_555
H28 C31 1_555 1_555
C32 N3 1_555 1_555
H29 C32 1_555 1_555
H30 C32 1_555 1_555
C33 N5 1_555 1_555
C34 C23 1_555 1_555
H31 C34 1_555 1_555
C35 N6 1_555 1_555
N6 C41 1_555 1_555
N7 C43 1_555 1_555
N8 C47 1_555 1_555
C36 C41 1_555 1_555
C37 C35 1_555 1_555
N9 C40 1_555 1_555
C38 C41 1_555 1_555
N10 C40 1_555 1_555
C39 C35 1_555 1_555
C40 H32 1_555 1_555
C42 C39 1_555 1_555
H33 C42 1_555 1_555
C43 C38 1_555 1_555
H34 C43 1_555 1_555
H35 C43 1_555 1_555
C44 N9 1_555 1_555
H36 C44 1_555 1_555
H37 C44 1_555 1_555
C45 H38 1_555 1_555
C46 C36 1_555 1_555
H39 C46 1_555 1_555
C47 C52 1_555 1_555
C48 N9 1_555 1_555
C49 N10 1_555 1_555
C50 C49 1_555 1_555
H40 C50 1_555 1_555
C51 N7 1_555 1_555
H41 C51 1_555 1_555
C52 H42 1_555 1_555
C53 N7 1_555 1_555
C54 C52 1_555 1_555
H43 C54 1_555 1_555
C55 C42 1_555 1_555
H44 C55 1_555 1_555
C56 C37 1_555 1_555
H45 C56 1_555 1_555
C57 N10 1_555 1_555
H46 C57 1_555 1_555
H47 C57 1_555 1_555
C58 C54 1_555 1_555
H48 C58 1_555 1_555
C59 H49 1_555 1_555
H50 C59 1_555 1_555
C60 C38 1_555 1_555
H51 C60 1_555 1_555
C61 N8 1_555 1_555
H52 C61 1_555 1_555
H53 C61 1_555 1_555
C62 C44 1_555 1_555
H54 C62 1_555 1_555
H55 C62 1_555 1_555
C63 C50 1_555 1_555
H56 C63 1_555 1_555
C64 C45 1_555 1_555
H57 C64 1_555 1_555
C65 C36 1_555 1_555
H58 C65 1_555 1_555
C66 C53 1_555 1_555
H59 C66 1_555 1_555
C67 C60 1_555 1_555
H60 C67 1_555 1_555
C68 C59 1_555 1_555
H61 C68 1_555 1_555
H62 C68 1_555 1_555
C6 C11 1_555 1_555
C7 C26 1_555 1_555
C10 C18 1_555 1_555
N4 C20 1_555 1_555
N5 C17 1_555 1_555
C15 C19 1_555 1_555
C16 C28 1_555 1_555
C19 C21 1_555 1_555
C20 C33 1_555 1_555
C21 C27 1_555 1_555
C24 C32 1_555 1_555
C29 C34 1_555 1_555
C31 C33 1_555 1_555
N8 C51 1_555 1_555
C37 C46 1_555 1_555
C39 C57 1_555 1_555
C45 C48 1_555 1_555
C47 C53 1_555 1_555
C48 C49 1_555 1_555
C55 C56 1_555 1_555
C58 C66 1_555 1_555
C59 C61 1_555 1_555
C62 C68 1_555 1_555
C63 C64 1_555 1_555
C65 C67 1_555 1_555

#END
