
#######################################################################
#
#                 Cambridge Crystallographic Data Centre
#                                CCDC 
#
#######################################################################
#
# If this CIF has been generated from an entry in the Cambridge 
# Structural Database, then it will include bibliographic, chemical, 
# crystal, experimental, refinement or atomic coordinate data resulting 
# from the CCDC's data processing and validation procedures.
#
#######################################################################

data_RENZUI
_chemical_formula_moiety         'C26 H19 Br1 N4 O2 S1'
_chemical_name_systematic        
6'-(3-bromophenyl)-7'-nitro-1',6',7',7a'-tetrahydro-3'H-spiro[indeno[1,2-b]quinoxaline-11,5'-pyrrolo[1,2-c][1,3]thiazole]
_symmetry_cell_setting           monoclinic
_symmetry_space_group_name_H-M   'C 2/c'
_symmetry_Int_Tables_number      15
_space_group_name_Hall           '-C 2yn'
loop_
_symmetry_equiv_pos_site_id
_symmetry_equiv_pos_as_xyz
1 x,y,z
2 -x,y,1/2-z
3 1/2+x,1/2+y,z
4 1/2-x,1/2+y,1/2-z
5 -x,-y,-z
6 x,-y,1/2+z
7 1/2-x,1/2-y,-z
8 1/2+x,1/2-y,1/2+z
_cell_length_a                   25.289(5)
_cell_length_b                   10.076(2)
_cell_length_c                   19.050(4)
_cell_angle_alpha                90
_cell_angle_beta                 98.89(3)
_cell_angle_gamma                90
_cell_volume                     4795.85
_exptl_crystal_colour            colorless
_exptl_crystal_description       block
_cell_formula_units_Z            8
loop_
_atom_site_label
_atom_site_type_symbol
_atom_site_fract_x
_atom_site_fract_y
_atom_site_fract_z
Br1 Br 0.60837(2) 0.10535(3) 0.38169(2)
C1 C 0.73278(11) 0.7376(3) 0.31464(15)
C2 C 0.77113(13) 0.7504(4) 0.26843(18)
H1 H 0.8042 0.7090 0.2795
C3 C 0.75987(15) 0.8231(4) 0.20776(18)
H2 H 0.7856 0.8324 0.1781
C4 C 0.70981(16) 0.8839(4) 0.18966(19)
H3 H 0.7025 0.9325 0.1478
C5 C 0.67163(14) 0.8730(3) 0.23261(18)
H4 H 0.6384 0.9132 0.2198
C6 C 0.68267(11) 0.8002(3) 0.29657(15)
C7 C 0.65759(10) 0.7257(3) 0.39796(14)
C8 C 0.62255(10) 0.7015(3) 0.45497(13)
C9 C 0.66049(11) 0.6223(3) 0.50918(14)
C10 C 0.65111(12) 0.5699(3) 0.57344(15)
H5 H 0.6191 0.5868 0.5901
C11 C 0.69021(13) 0.4922(4) 0.61218(17)
H6 H 0.6842 0.4560 0.6551
C12 C 0.73811(14) 0.4673(4) 0.58825(19)
H7 H 0.7640 0.4157 0.6155
C13 C 0.74790(13) 0.5182(3) 0.52437(18)
H8 H 0.7800 0.5006 0.5080
C14 C 0.70894(11) 0.5965(3) 0.48491(15)
C15 C 0.70813(10) 0.6617(3) 0.41601(14)
C16 C 0.57141(10) 0.6179(2) 0.42668(14)
H9 H 0.5603 0.5736 0.4678
C17 C 0.53081(11) 0.7270(3) 0.40397(16)
H10 H 0.5376 0.7659 0.3591
C18 C 0.58926(11) 0.3828(3) 0.39714(16)
H11 H 0.5941 0.3646 0.4456
C19 C 0.59367(12) 0.2821(3) 0.34890(18)
C20 C 0.58702(14) 0.3057(4) 0.27749(19)
H12 H 0.5898 0.2369 0.2457
C21 C 0.57613(17) 0.4330(4) 0.25332(18)
H13 H 0.5719 0.4503 0.2048
C22 C 0.57142(13) 0.5360(3) 0.30048(16)
H14 H 0.5641 0.6216 0.2834
C23 C 0.57758(10) 0.5114(3) 0.37270(14)
C24 C 0.54224(11) 0.8299(3) 0.46335(16)
H15 H 0.5291 0.9173 0.4460
C25 C 0.52148(13) 0.7969(3) 0.53309(18)
H16 H 0.5205 0.7016 0.5402
H17 H 0.4858 0.8324 0.5327
C26 C 0.62012(13) 0.8918(3) 0.54297(16)
H18 H 0.6272 0.9849 0.5355
H19 H 0.6532 0.8500 0.5647
N1 N 0.74585(9) 0.6656(2) 0.37613(13)
N2 N 0.64390(9) 0.7938(2) 0.34013(12)
N3 N 0.60047(9) 0.8291(2) 0.47670(12)
N4 N 0.47412(11) 0.6778(3) 0.39594(19)
O1 O 0.46398(11) 0.5783(4) 0.4257(2)
S1 S 0.56825(4) 0.87389(12) 0.60150(5)
O2 O 0.4436(3) 0.7341(7) 0.3438(3)
O3? O 0.4388(5) 0.7516(14) 0.3830(6)
loop_
_geom_bond_atom_site_label_1
_geom_bond_atom_site_label_2
_geom_bond_site_symmetry_1
_geom_bond_site_symmetry_2
Br1 C19 1_555 1_555
C1 C2 1_555 1_555
C2 H1 1_555 1_555
C3 C2 1_555 1_555
H2 C3 1_555 1_555
C4 C3 1_555 1_555
H3 C4 1_555 1_555
C5 C4 1_555 1_555
H4 C5 1_555 1_555
C6 C1 1_555 1_555
C7 C8 1_555 1_555
C8 C9 1_555 1_555
C9 C10 1_555 1_555
C10 H5 1_555 1_555
C11 C10 1_555 1_555
H6 C11 1_555 1_555
C12 C11 1_555 1_555
H7 C12 1_555 1_555
C13 C12 1_555 1_555
H8 C13 1_555 1_555
C14 C9 1_555 1_555
C15 C7 1_555 1_555
C16 C8 1_555 1_555
H9 C16 1_555 1_555
C17 C16 1_555 1_555
H10 C17 1_555 1_555
C18 H11 1_555 1_555
C19 C18 1_555 1_555
C20 C19 1_555 1_555
H12 C20 1_555 1_555
C21 C20 1_555 1_555
H13 C21 1_555 1_555
C22 C21 1_555 1_555
H14 C22 1_555 1_555
C23 C16 1_555 1_555
C24 C17 1_555 1_555
H15 C24 1_555 1_555
C25 C24 1_555 1_555
H16 C25 1_555 1_555
H17 C25 1_555 1_555
C26 H18 1_555 1_555
H19 C26 1_555 1_555
N1 C1 1_555 1_555
N2 C6 1_555 1_555
N3 C8 1_555 1_555
N4 C17 1_555 1_555
O1 N4 1_555 1_555
S1 C25 1_555 1_555
O2 N4 1_555 1_555
C5 C6 1_555 1_555
C7 N2 1_555 1_555
C13 C14 1_555 1_555
C14 C15 1_555 1_555
C15 N1 1_555 1_555
C18 C23 1_555 1_555
C22 C23 1_555 1_555
C24 N3 1_555 1_555
C26 N3 1_555 1_555
C26 S1 1_555 1_555

#END
