
#######################################################################
#
#                 Cambridge Crystallographic Data Centre
#                                CCDC 
#
#######################################################################
#
# If this CIF has been generated from an entry in the Cambridge 
# Structural Database, then it will include bibliographic, chemical, 
# crystal, experimental, refinement or atomic coordinate data resulting 
# from the CCDC's data processing and validation procedures.
#
#######################################################################

data_REPKAB01
_chemical_formula_moiety         '2(C10 H16 O3),C6 H12 N4'
_chemical_name_systematic        
'bis(2-hydroxy-6,6-dimethylbicyclo[3.1.1]heptane-2-carboxylic acid) 1,3,5,7-tetraazatricyclo[3.3.1.1^3,7^]decane'
_symmetry_cell_setting           monoclinic
_symmetry_space_group_name_H-M   'C 2'
_symmetry_Int_Tables_number      5
_space_group_name_Hall           'C 2y'
loop_
_symmetry_equiv_pos_site_id
_symmetry_equiv_pos_as_xyz
1 x,y,z
2 -x,y,-z
3 1/2+x,1/2+y,z
4 1/2-x,1/2+y,-z
_cell_length_a                   29.187(2)
_cell_length_b                   6.6826(6)
_cell_length_c                   27.506(2)
_cell_angle_alpha                90
_cell_angle_beta                 102.365(2)
_cell_angle_gamma                90
_cell_volume                     5240.46
_exptl_crystal_colour            colorless
_exptl_crystal_description       block
_cell_formula_units_Z            8
loop_
_atom_site_label
_atom_site_type_symbol
_atom_site_fract_x
_atom_site_fract_y
_atom_site_fract_z
O1 O 0.09010(3) 0.28311(13) 0.22049(3)
O2 O 0.05701(3) 0.23507(14) 0.11030(3)
O3 O 0.07887(3) 0.55295(14) 0.12555(3)
C1 C 0.08164(4) 0.35868(18) 0.13536(4)
C2 C 0.11769(4) 0.30133(16) 0.18320(4)
C3 C 0.13970(4) 0.10078(17) 0.17434(4)
C4 C 0.18197(4) 0.0615(2) 0.21814(4)
C5 C 0.21145(4) 0.18406(19) 0.18804(4)
C6 C 0.20624(4) 0.4057(2) 0.19896(5)
C7 C 0.15558(4) 0.46072(17) 0.20270(4)
C8 C 0.17571(4) 0.12271(17) 0.13969(4)
C9 C 0.18731(5) -0.0814(2) 0.12039(5)
C10 C 0.16701(4) 0.2705(2) 0.09642(4)
H1 H 0.1410(6) 0.227(3) 0.0684(6)
H2 H 0.1599(5) 0.403(3) 0.1071(5)
H3 H 0.1550(5) 0.477(2) 0.2387(6)
H4 H 0.1156(5) -0.009(2) 0.1646(5)
H5 H 0.1463(5) 0.583(3) 0.1870(5)
H6 H 0.1791(5) 0.114(2) 0.2528(6)
H7 H 0.1612(7) -0.129(4) 0.0967(8)
H8 H 0.2161(6) 0.483(3) 0.1733(6)
H9 H 0.1942(6) 0.287(3) 0.0827(6)
H10 H 0.2441(5) 0.144(2) 0.1895(6)
H11 H 0.0770(6) 0.168(3) 0.2192(6)
H12 H 0.0592(6) 0.572(3) 0.0952(7)
H13 H 0.2274(6) 0.441(3) 0.2314(6)
H14 H 0.1917(5) -0.077(3) 0.2220(6)
H15 H 0.1955(5) -0.183(3) 0.1469(6)
H16 H 0.2141(6) -0.069(3) 0.1025(6)
O4 O 0.41701(3) 1.08292(14) 0.11929(3)
O5 O 0.44099(3) 0.77454(14) 0.14467(3)
O6 O 0.41228(3) 0.78659(14) 0.03228(3)
C11 C 0.41637(4) 0.88583(18) 0.11523(4)
C12 C 0.38288(4) 0.80649(17) 0.06775(4)
C13 C 0.36290(4) 0.60435(17) 0.07894(4)
C14 C 0.32172(4) 0.54906(19) 0.03508(4)
C15 C 0.29021(4) 0.67311(19) 0.06260(4)
C16 C 0.32581(4) 0.62727(17) 0.11231(4)
C17 C 0.29324(4) 0.8933(2) 0.04843(5)
C18 C 0.31611(4) 0.4247(2) 0.13400(5)
C19 C 0.33199(4) 0.7842(2) 0.15351(4)
C20 C 0.34331(4) 0.95252(17) 0.04369(4)
H17 H 0.3582(6) 0.747(3) 0.1827(6)
H18 H 0.3881(5) 0.504(2) 0.0899(5)
H19 H 0.3379(5) 0.913(3) 0.1420(5)
H20 H 0.3435(5) 0.956(2) 0.0065(5)
H21 H 0.3505(5) 1.084(2) 0.0550(5)
H22 H 0.3236(5) 0.592(2) 0.0005(5)
H23 H 0.2570(5) 0.627(2) 0.0611(6)
H24 H 0.3038(5) 0.789(2) 0.1668(5)
H25 H 0.3409(6) 0.387(3) 0.1606(7)
H26 H 0.2816(6) 0.967(3) 0.0723(7)
H27 H 0.2886(6) 0.436(3) 0.1492(6)
H28 H 0.4282(6) 0.678(3) 0.0384(6)
H29 H 0.3096(6) 0.320(3) 0.1099(6)
H30 H 0.3148(5) 0.408(3) 0.0352(6)
H31 H 0.2718(5) 0.922(3) 0.0150(6)
H32 H 0.4396(7) 1.121(4) 0.1486(8)
O7 O 0.44661(3) 0.76671(15) 0.39324(4)
O8 O 0.41644(3) 1.07238(14) 0.37862(3)
O9 O 0.41615(3) 0.78148(14) 0.28539(3)
C21 C 0.41904(4) 0.88067(18) 0.36824(4)
C22 C 0.38592(4) 0.80858(16) 0.31998(4)
C23 C 0.34804(4) 0.96016(18) 0.29513(4)
C24 C 0.29703(4) 0.9060(2) 0.29796(5)
C25 C 0.29198(4) 0.68572(19) 0.31072(5)
C26 C 0.32381(4) 0.5587(2) 0.28438(4)
C27 C 0.36400(4) 0.60821(17) 0.32976(4)
C28 C 0.32558(4) 0.63260(18) 0.36133(4)
C29 C 0.33144(4) 0.7848(2) 0.40336(5)
C30 C 0.31366(5) 0.4295(2) 0.38124(5)
H33 H 0.3563(6) 0.751(3) 0.4314(6)
H34 H 0.3370(5) 0.915(3) 0.3924(5)
H35 H 0.3283(5) 0.601(2) 0.2506(5)
H36 H 0.3509(5) 0.962(2) 0.2583(6)
H37 H 0.3882(5) 0.504(3) 0.3414(6)
H38 H 0.3562(5) 1.090(2) 0.3082(5)
H39 H 0.2590(5) 0.649(2) 0.3079(6)
H40 H 0.4326(5) 0.673(3) 0.2919(6)
H41 H 0.3030(5) 0.794(3) 0.4151(6)
H42 H 0.2863(6) 0.983(3) 0.3231(6)
H43 H 0.3079(5) 0.324(3) 0.3562(6)
H44 H 0.3159(5) 0.423(3) 0.2834(6)
H45 H 0.3380(6) 0.392(3) 0.4082(7)
H46 H 0.4373(7) 1.098(3) 0.4092(8)
H47 H 0.2843(6) 0.442(3) 0.3961(7)
H48 H 0.2767(6) 0.933(3) 0.2647(6)
O10 O 0.06358(3) 0.37146(14) 0.35415(3)
O11 O 0.08980(3) 0.66249(14) 0.38912(3)
O12 O 0.08582(3) 0.32584(13) 0.46511(3)
C31 C 0.08987(4) 0.48156(19) 0.38977(4)
C32 C 0.11820(4) 0.35625(17) 0.43291(4)
C33 C 0.15933(4) 0.47889(18) 0.46350(4)
C34 C 0.20852(4) 0.4178(2) 0.45648(5)
C35 C 0.20891(4) 0.2040(2) 0.43670(4)
C36 C 0.17458(4) 0.07637(19) 0.45969(4)
C37 C 0.13530(4) 0.15615(17) 0.41649(4)
H49 H 0.1100 0.0577 0.4027
C38 C 0.17404(4) 0.18217(18) 0.38545(4)
C39 C 0.17134(4) 0.3517(2) 0.34788(5)
C40 C 0.18159(5) -0.0143(2) 0.35953(5)
H50 H 0.1466(5) 0.327(3) 0.3180(6)
H51 H 0.1678(5) 0.477(2) 0.3611(5)
H52 H 0.1707(5) 0.105(2) 0.4948(5)
H53 H 0.1537(5) 0.621(2) 0.4578(5)
H54 H 0.1585(5) 0.457(2) 0.5008(5)
H55 H 0.2305(5) 0.433(2) 0.4892(6)
H56 H 0.0711(5) 0.212(3) 0.4587(6)
H57 H 0.2204(6) 0.505(3) 0.4342(7)
H58 H 0.2109(6) -0.005(3) 0.3471(6)
H59 H 0.1789(5) -0.059(3) 0.4560(5)
H60 H 0.0500(7) 0.467(4) 0.3327(8)
H61 H 0.2004(5) 0.358(2) 0.3346(5)
H62 H 0.2410(5) 0.154(2) 0.4372(6)
H63 H 0.1572(6) -0.029(3) 0.3300(7)
H64 H 0.1843(5) -0.129(3) 0.3819(6)
N1 N 0.03168(3) 0.98153(15) 0.47715(3)
N2 N 0.02900(3) 0.72386(15) 0.53937(3)
C41 C 0.05945(4) 0.85330(19) 0.51593(4)
C42 C 0.0000 0.5990(2) 0.5000
C43 C 0.00282(4) 0.85383(18) 0.43911(4)
C44 C 0.0000 1.1044(2) 0.5000
H65 H 0.0241(5) 0.760(2) 0.4262(5)
H66 H -0.0191(4) 1.186(2) 0.4739(5)
H67 H 0.0195(4) 0.519(2) 0.4852(5)
H68 H 0.0780(5) 0.943(2) 0.5435(5)
H69 H -0.0164(5) 0.942(2) 0.4135(5)
H70 H 0.0811(5) 0.773(2) 0.5006(5)
N1A N -0.03168(3) 0.98153(15) 0.52285(3)
N2A N -0.02900(3) 0.72386(15) 0.46063(3)
C41A C -0.05945(4) 0.85330(19) 0.48407(4)
C43A C -0.00282(4) 0.85383(18) 0.56089(4)
H65A H -0.0241(5) 0.760(2) 0.5738(5)
H66A H 0.0191(4) 1.186(2) 0.5261(5)
H67A H -0.0195(4) 0.519(2) 0.5148(5)
H68A H -0.0780(5) 0.943(2) 0.4565(5)
H69A H 0.0164(5) 0.942(2) 0.5865(5)
H70A H -0.0811(5) 0.773(2) 0.4994(5)
N3 N 0.46630(3) 0.45108(15) 0.01972(3)
N4 N 0.47350(3) 0.19392(16) -0.04093(4)
C45 C 0.44095(4) 0.32311(19) -0.02052(5)
C46 C 0.5000 0.5746(2) 0.0000
C47 C 0.49304(4) 0.32482(18) 0.05952(4)
C48 C 0.5000 0.0690(3) 0.0000
H71 H 0.5172(4) 0.659(2) 0.0272(5)
H72 H 0.4708(5) 0.238(3) 0.0714(6)
H73 H 0.4785(5) -0.015(2) 0.0125(5)
H74 H 0.5124(5) 0.412(3) 0.0853(6)
H75 H 0.4235(5) 0.409(3) -0.0489(5)
H76 H 0.4185(5) 0.240(3) -0.0075(6)
N3A N 0.53370(3) 0.45108(15) -0.01972(3)
N4A N 0.52650(3) 0.19392(16) 0.04093(4)
C45A C 0.55905(4) 0.32311(19) 0.02052(5)
C47A C 0.50696(4) 0.32482(18) -0.05952(4)
H71A H 0.4828(4) 0.659(2) -0.0272(5)
H72A H 0.5292(5) 0.238(3) -0.0714(6)
H73A H 0.5215(5) -0.015(2) -0.0125(5)
H74A H 0.4876(5) 0.412(3) -0.0853(6)
H75A H 0.5765(5) 0.409(3) 0.0489(5)
H76A H 0.5815(5) 0.240(3) 0.0075(6)
N5 N 0.97136(3) 0.72887(15) 0.20154(3)
N6 N 1.04002(3) 0.93163(14) 0.23629(3)
N7 N 0.97166(3) 0.93645(15) 0.27468(3)
N8 N 1.02142(3) 0.63804(15) 0.28166(4)
C49 C 0.94311(4) 0.85613(19) 0.22816(4)
C50 C 1.01008(4) 0.85202(18) 0.19044(4)
C51 C 0.99175(4) 0.56259(18) 0.23502(4)
C52 C 1.05928(4) 0.76298(19) 0.26889(4)
C53 C 0.99219(4) 0.76874(19) 0.30644(4)
C54 C 1.01031(4) 1.05335(18) 0.26211(4)
H77 H 1.0295(5) 0.766(2) 0.1749(5)
H78 H 0.9959(5) 0.967(2) 0.1702(5)
H79 H 0.9969(5) 1.158(3) 0.2389(5)
H80 H 0.9677(5) 0.693(2) 0.3133(5)
H81 H 0.9294(5) 0.970(2) 0.2065(6)
H82 H 1.0117(5) 0.481(2) 0.2175(5)
H83 H 1.0296(5) 1.105(2) 0.2929(5)
H84 H 0.9653(4) 0.484(2) 0.2423(5)
H85 H 1.0787(5) 0.816(2) 0.3013(5)
H86 H 1.0121(4) 0.823(2) 0.3366(5)
H87 H 0.9175(5) 0.776(2) 0.2360(5)
H88 H 1.0784(5) 0.675(3) 0.2513(6)
loop_
_geom_bond_atom_site_label_1
_geom_bond_atom_site_label_2
_geom_bond_site_symmetry_1
_geom_bond_site_symmetry_2
O1 C2 1_555 1_555
O2 C1 1_555 1_555
O3 C1 1_555 1_555
C1 C2 1_555 1_555
C2 C3 1_555 1_555
C3 C4 1_555 1_555
C4 C5 1_555 1_555
C5 C6 1_555 1_555
C6 C7 1_555 1_555
C7 C2 1_555 1_555
C8 C3 1_555 1_555
C9 C8 1_555 1_555
C10 C8 1_555 1_555
H1 C10 1_555 1_555
H2 C10 1_555 1_555
H3 C7 1_555 1_555
H4 C3 1_555 1_555
H5 C7 1_555 1_555
H6 C4 1_555 1_555
H7 C9 1_555 1_555
H8 C6 1_555 1_555
H9 C10 1_555 1_555
H10 C5 1_555 1_555
H11 O1 1_555 1_555
H12 O3 1_555 1_555
H13 C6 1_555 1_555
H14 C4 1_555 1_555
H15 C9 1_555 1_555
H16 C9 1_555 1_555
O4 C11 1_555 1_555
O5 C11 1_555 1_555
O6 C12 1_555 1_555
C11 C12 1_555 1_555
C12 C13 1_555 1_555
C13 C14 1_555 1_555
C14 C15 1_555 1_555
C15 C16 1_555 1_555
C16 C13 1_555 1_555
C17 C15 1_555 1_555
C18 C16 1_555 1_555
C19 C16 1_555 1_555
C20 C12 1_555 1_555
H17 C19 1_555 1_555
H18 C13 1_555 1_555
H19 C19 1_555 1_555
H20 C20 1_555 1_555
H21 C20 1_555 1_555
H22 C14 1_555 1_555
H23 C15 1_555 1_555
H24 C19 1_555 1_555
H25 C18 1_555 1_555
H26 C17 1_555 1_555
H27 C18 1_555 1_555
H28 O6 1_555 1_555
H29 C18 1_555 1_555
H30 C14 1_555 1_555
H31 C17 1_555 1_555
H32 O4 1_555 1_555
O7 C21 1_555 1_555
O8 C21 1_555 1_555
O9 C22 1_555 1_555
C21 C22 1_555 1_555
C22 C23 1_555 1_555
C23 C24 1_555 1_555
C24 C25 1_555 1_555
C25 C26 1_555 1_555
C26 C27 1_555 1_555
C27 C22 1_555 1_555
C28 C25 1_555 1_555
C29 C28 1_555 1_555
C30 C28 1_555 1_555
H33 C29 1_555 1_555
H34 C29 1_555 1_555
H35 C26 1_555 1_555
H36 C23 1_555 1_555
H37 C27 1_555 1_555
H38 C23 1_555 1_555
H39 C25 1_555 1_555
H40 O9 1_555 1_555
H41 C29 1_555 1_555
H42 C24 1_555 1_555
H43 C30 1_555 1_555
H44 C26 1_555 1_555
H45 C30 1_555 1_555
H46 O8 1_555 1_555
H47 C30 1_555 1_555
H48 C24 1_555 1_555
O10 C31 1_555 1_555
O11 C31 1_555 1_555
O12 C32 1_555 1_555
C31 C32 1_555 1_555
C32 C33 1_555 1_555
C33 C34 1_555 1_555
C34 C35 1_555 1_555
C35 C36 1_555 1_555
C36 C37 1_555 1_555
C37 C32 1_555 1_555
H49 C37 1_555 1_555
C38 C35 1_555 1_555
C39 C38 1_555 1_555
C40 C38 1_555 1_555
H50 C39 1_555 1_555
H51 C39 1_555 1_555
H52 C36 1_555 1_555
H53 C33 1_555 1_555
H54 C33 1_555 1_555
H55 C34 1_555 1_555
H56 O12 1_555 1_555
H57 C34 1_555 1_555
H58 C40 1_555 1_555
H59 C36 1_555 1_555
H60 O10 1_555 1_555
H61 C39 1_555 1_555
H62 C35 1_555 1_555
H63 C40 1_555 1_555
H64 C40 1_555 1_555
N1 C41 1_555 1_555
N2 C41 1_555 1_555
C41 H68 1_555 1_555
C42 N2 1_555 1_555
C43 N1 1_555 1_555
C44 N1 1_555 1_555
H65 C43 1_555 1_555
H66 C44 1_555 1_555
H67 C42 1_555 1_555
H69 C43 1_555 1_555
H70 C41 1_555 1_555
N3 C45 1_555 1_555
N4 C45 1_555 1_555
C45 H75 1_555 1_555
C46 N3 1_555 1_555
C47 N3 1_555 1_555
C48 N4 1_555 1_555
H71 C46 1_555 1_555
H72 C47 1_555 1_555
H73 C48 1_555 1_555
H74 C47 1_555 1_555
H76 C45 1_555 1_555
N5 C49 1_555 1_555
N6 C50 1_555 1_555
N7 C49 1_555 1_555
N8 C51 1_555 1_555
C49 H81 1_555 1_555
C50 N5 1_555 1_555
C51 N5 1_555 1_555
C52 N6 1_555 1_555
C53 N7 1_555 1_555
C54 N6 1_555 1_555
H77 C50 1_555 1_555
H78 C50 1_555 1_555
H79 C54 1_555 1_555
H80 C53 1_555 1_555
H82 C51 1_555 1_555
H83 C54 1_555 1_555
H84 C51 1_555 1_555
H85 C52 1_555 1_555
H86 C53 1_555 1_555
H87 C49 1_555 1_555
H88 C52 1_555 1_555
N1A C44 1_555 1_555
N2A C42 1_555 1_555
C41A N1A 1_555 1_555
C43A N2 1_555 1_555
H65A C43A 1_555 1_555
H66A C44 1_555 1_555
H67A C42 1_555 1_555
H68A C41A 1_555 1_555
H69A C43A 1_555 1_555
H70A C41A 1_555 1_555
N3A C46 1_555 1_555
N4A C47 1_555 1_555
C45A N3A 1_555 1_555
C47A N4 1_555 1_555
H71A C46 1_555 1_555
H72A C47A 1_555 1_555
H73A C48 1_555 1_555
H74A C47A 1_555 1_555
H75A C45A 1_555 1_555
H76A C45A 1_555 1_555
C5 C8 1_555 1_555
C17 C20 1_555 1_555
C27 C28 1_555 1_555
C37 C38 1_555 1_555
C43 N2A 1_555 1_555
C48 N4A 1_555 1_555
N7 C54 1_555 1_555
N8 C52 1_555 1_555
N8 C53 1_555 1_555
N1A C43A 1_555 1_555
N2A C41A 1_555 1_555
N3A C47A 1_555 1_555
N4A C45A 1_555 1_555

#END
