
#######################################################################
#
#                 Cambridge Crystallographic Data Centre
#                                CCDC 
#
#######################################################################
#
# If this CIF has been generated from an entry in the Cambridge 
# Structural Database, then it will include bibliographic, chemical, 
# crystal, experimental, refinement or atomic coordinate data resulting 
# from the CCDC's data processing and validation procedures.
#
#######################################################################

data_REPKAB
_chemical_name_common            'hexamethylenetetramine bis(nopinic acid)'
_chemical_formula_moiety         '2(C10 H16 O3),C6 H12 N4'
_chemical_name_systematic        
'1,3,5,7-tetraazatricyclo[3.3.1.1^3,7^]decane bis(2-hydroxy-6,6-dimethylbicyclo[3.1.1]heptane-2-carboxylic acid)'
_symmetry_cell_setting           monoclinic
_symmetry_space_group_name_H-M   'C 2'
_symmetry_Int_Tables_number      5
_space_group_name_Hall           'C 2y'
loop_
_symmetry_equiv_pos_site_id
_symmetry_equiv_pos_as_xyz
1 x,y,z
2 -x,y,-z
3 1/2+x,1/2+y,z
4 1/2-x,1/2+y,-z
_cell_length_a                   29.3248(19)
_cell_length_b                   6.7428(4)
_cell_length_c                   6.9315(5)
_cell_angle_alpha                90
_cell_angle_beta                 102.3680(10)
_cell_angle_gamma                90
_cell_volume                     1338.77
_exptl_crystal_colour            colorless
_exptl_crystal_description       block
_cell_formula_units_Z            2
loop_
_atom_site_label
_atom_site_type_symbol
_atom_site_fract_x
_atom_site_fract_y
_atom_site_fract_z
N1 N 0.46659(9) 0.4161(4) 0.5793(3)
N2 N 0.52662(11) 0.6611(6) 0.6626(5)
C11 C 0.5000 0.2932(7) 0.5000
C12 C 0.49323(12) 0.5356(7) 0.7343(4)
C13 C 0.5037(11) 0.7837(11) 0.518(5)
C14 C 0.44196(10) 0.5379(8) 0.4227(5)
H17 H 0.4731(15) 0.622(7) 0.778(6)
H18 H 0.4190(18) 0.620(9) 0.467(8)
H19 H 0.5150(17) 0.461(7) 0.853(7)
H20 H 0.5162(19) 0.851(9) 0.454(8)
H21 H 0.4240(14) 0.481(6) 0.320(6)
H22 H 0.4865(19) 0.200(8) 0.394(7)
N1A N 0.53341(9) 0.4161(4) 0.4207(3)
N2A N 0.47338(11) 0.6611(6) 0.3374(5)
C12A C 0.50677(12) 0.5356(7) 0.2657(4)
C13A C 0.4963(11) 0.7837(11) 0.482(5)
C14A C 0.55804(10) 0.5379(8) 0.5773(5)
H17A H 0.5269(15) 0.622(7) 0.222(6)
H18A H 0.5810(18) 0.620(9) 0.533(8)
H19A H 0.4850(17) 0.461(7) 0.147(7)
H20A H 0.4838(19) 0.851(9) 0.546(8)
H21A H 0.5760(14) 0.481(6) 0.680(6)
H22A H 0.5135(19) 0.200(8) 0.606(7)
O1 O 0.44212(12) 0.0897(8) 1.0764(5)
O2 O 0.41696(13) -0.2166(7) 0.9861(6)
O3 O 0.41332(9) 0.0735(4) 0.6385(4)
C1 C 0.38390(8) 0.0498(4) 0.7773(3)
C2 C 0.36375(10) 0.2476(4) 0.8239(4)
C3 C 0.34521(11) -0.0940(5) 0.6794(5)
C4 C 0.41723(11) -0.0214(6) 0.9634(5)
C5 C 0.32433(15) 0.3050(5) 0.6484(5)
C6 C 0.32569(9) 0.2234(5) 0.9491(4)
C7 C 0.31541(15) 0.4240(7) 1.0352(7)
H1 H 0.2920 0.4071 1.1115
H2 H 0.3044 0.5157 0.9296
H3 H 0.3434 0.4747 1.1184
C8 C 0.33012(12) 0.0687(7) 1.1088(5)
H4 H 0.3036 0.0761 1.1690
H5 H 0.3581 0.0919 1.2068
H6 H 0.3315 -0.0606 1.0522
C9 C 0.29196(10) 0.1814(6) 0.7474(5)
C10 C 0.29513(12) -0.0315(6) 0.6864(6)
H7 H 0.3517(17) -0.223(8) 0.718(7)
H8 H 0.3490(15) -0.101(8) 0.528(6)
H9 H 0.3155(16) 0.445(8) 0.650(7)
H10 H 0.4283(15) 0.169(7) 0.656(6)
H11 H 0.3906(18) 0.327(7) 0.867(7)
H12 H 0.2589(19) 0.240(8) 0.726(8)
H13 H 0.2746(17) -0.043(7) 0.559(7)
H14 H 0.278(2) -0.112(11) 0.772(10)
H15 H 0.3285(16) 0.266(8) 0.512(7)
H16 H 0.426(4) -0.19(2) 1.108(18)
loop_
_geom_bond_atom_site_label_1
_geom_bond_atom_site_label_2
_geom_bond_site_symmetry_1
_geom_bond_site_symmetry_2
O1 C4 1_555 1_555
O2 C4 1_555 1_555
O3 C1 1_555 1_555
C1 C2 1_555 1_555
C2 C5 1_555 1_555
C3 C1 1_555 1_555
C4 C1 1_555 1_555
C5 C9 1_555 1_555
C6 C2 1_555 1_555
C7 C6 1_555 1_555
H1 C7 1_555 1_555
H2 C7 1_555 1_555
H3 C7 1_555 1_555
C8 C6 1_555 1_555
H4 C8 1_555 1_555
H5 C8 1_555 1_555
H6 C8 1_555 1_555
C9 C6 1_555 1_555
C10 C3 1_555 1_555
H7 C3 1_555 1_555
H8 C3 1_555 1_555
H9 C5 1_555 1_555
H10 O3 1_555 1_555
H11 C2 1_555 1_555
H12 C9 1_555 1_555
H13 C10 1_555 1_555
H14 C10 1_555 1_555
H15 C5 1_555 1_555
H16 O2 1_555 1_555
N1 C11 1_555 1_555
N2 C12 1_555 1_555
C11 H22 1_555 1_555
C12 N1 1_555 1_555
C13 N2 1_555 1_555
C14 N1 1_555 1_555
H17 C12 1_555 1_555
H18 C14 1_555 1_555
H19 C12 1_555 1_555
H20 C13 1_555 1_555
H21 C14 1_555 1_555
N1A C11 1_555 1_555
N2A C13 1_555 1_555
C12A N1A 1_555 1_555
C13A N2 1_555 1_555
C14A N2 1_555 1_555
H17A C12A 1_555 1_555
H18A C14A 1_555 1_555
H19A C12A 1_555 1_555
H20A C13 1_555 1_555
H21A C14A 1_555 1_555
H22A C11 1_555 1_555
C9 C10 1_555 1_555
C14 N2A 1_555 1_555
H20 C13A 1_555 1_555
N1A C14A 1_555 1_555
N2A C12A 1_555 1_555
N2A C13A 1_555 1_555
C13A H20A 1_555 1_555

#END
