
#######################################################################
#
#                 Cambridge Crystallographic Data Centre
#                                CCDC 
#
#######################################################################
#
# If this CIF has been generated from an entry in the Cambridge 
# Structural Database, then it will include bibliographic, chemical, 
# crystal, experimental, refinement or atomic coordinate data resulting 
# from the CCDC's data processing and validation procedures.
#
#######################################################################

data_REPQEL
_chemical_formula_moiety         'C20 H34 O4'
_chemical_name_systematic        
4',4',7a',11b'-tetramethyldodecahydro-2'H-spiro[1,3-dioxolane-2,8'-naphtho[2,1-b]oxepin]-3'-ol
_symmetry_cell_setting           monoclinic
_symmetry_space_group_name_H-M   'P 21/c'
_symmetry_Int_Tables_number      14
_space_group_name_Hall           '-P 2ybc'
loop_
_symmetry_equiv_pos_site_id
_symmetry_equiv_pos_as_xyz
1 x,y,z
2 -x,1/2+y,1/2-z
3 -x,-y,-z
4 x,1/2-y,1/2+z
_cell_length_a                   7.466(2)
_cell_length_b                   15.183(5)
_cell_length_c                   16.361(7)
_cell_angle_alpha                90
_cell_angle_beta                 104.043(9)
_cell_angle_gamma                90
_cell_volume                     1799.19
_exptl_crystal_colour            colorless
_exptl_crystal_description       prism
_cell_formula_units_Z            4
loop_
_atom_site_label
_atom_site_type_symbol
_atom_site_fract_x
_atom_site_fract_y
_atom_site_fract_z
O1 O 0.32946(8) 0.06004(4) 0.27219(4)
C1 C 0.37056(11) -0.03252(5) 0.27507(5)
C2 C 0.26551(11) -0.08523(5) 0.33010(5)
H1 H 0.2425(15) -0.1460(8) 0.3036(7)
O2 O 0.36839(10) -0.09713(5) 0.41517(4)
H2 H 0.435(2) -0.1437(11) 0.4174(9)
C3 C 0.07963(11) -0.04485(5) 0.33239(5)
H3 H 0.0070(17) -0.0914(8) 0.3501(8)
H4 H 0.0087(15) -0.0291(8) 0.2737(7)
C4 C 0.08602(11) 0.03286(5) 0.39299(5)
H5 H 0.1611(15) 0.0167(7) 0.4485(7)
H6 H -0.0394(17) 0.0415(8) 0.3994(8)
C5 C 0.15770(10) 0.12204(5) 0.36809(5)
C6 C 0.18392(10) 0.18525(5) 0.44560(5)
H7 H 0.2658(15) 0.1521(7) 0.4928(7)
C7 C 0.00631(11) 0.20337(6) 0.47491(6)
H8 H -0.0826(17) 0.2378(8) 0.4322(7)
H9 H -0.0577(16) 0.1477(8) 0.4806(7)
C8 C 0.04798(12) 0.25334(6) 0.55849(6)
H10 H -0.0716(17) 0.2646(8) 0.5748(7)
H11 H 0.1240(16) 0.2167(8) 0.6038(7)
C9 C 0.15179(12) 0.33906(6) 0.55392(6)
H12 H 0.0749(16) 0.3819(8) 0.5131(7)
H13 H 0.1891(16) 0.3658(8) 0.6087(7)
C10 C 0.32665(11) 0.32101(5) 0.52453(5)
C11 C 0.28915(10) 0.27273(5) 0.43834(5)
C12 C 0.47436(11) 0.25058(5) 0.41800(5)
H14 H 0.5373(15) 0.3061(8) 0.4099(7)
H15 H 0.5566(15) 0.2210(7) 0.4663(7)
C13 C 0.45137(11) 0.19162(5) 0.34078(5)
H16 H 0.3842(16) 0.2219(8) 0.2889(7)
H17 H 0.5794(16) 0.1764(8) 0.3336(7)
C14 C 0.34930(10) 0.10682(5) 0.35005(5)
H18 H 0.4236(14) 0.0738(7) 0.3964(6)
C15 C 0.57840(13) -0.04702(7) 0.30424(7)
H19 H 0.6402(18) -0.0170(9) 0.2655(8)
H20 H 0.6117(18) -0.1095(9) 0.3064(8)
H21 H 0.6265(17) -0.0244(9) 0.3623(8)
C16 C 0.30054(14) -0.06057(6) 0.18344(6)
H22 H 0.1633(18) -0.0489(8) 0.1612(8)
H23 H 0.3213(17) -0.1231(9) 0.1780(8)
H24 H 0.3647(18) -0.0262(9) 0.1459(8)
C17 C 0.01865(11) 0.15643(6) 0.28910(5)
H25 H 0.0655(17) 0.2072(8) 0.2617(8)
H26 H -0.0973(18) 0.1750(9) 0.3036(8)
H27 H -0.0156(18) 0.1106(9) 0.2474(8)
O3 O 0.41874(8) 0.40323(4) 0.51972(4)
O4 O 0.45138(8) 0.26950(4) 0.58714(4)
C18 C 0.60060(12) 0.39891(6) 0.57291(6)
H28 H 0.6343(16) 0.4580(8) 0.5975(7)
H29 H 0.6907(16) 0.3814(8) 0.5393(7)
C19 C 0.58122(12) 0.33010(6) 0.63676(5)
H30 H 0.6941(16) 0.2975(8) 0.6619(7)
H31 H 0.5322(16) 0.3567(8) 0.6824(7)
C20 C 0.18060(13) 0.33728(6) 0.37154(6)
H32 H 0.2245(18) 0.3969(9) 0.3859(8)
H33 H 0.0434(17) 0.3378(8) 0.3677(8)
H34 H 0.1972(17) 0.3235(8) 0.3160(8)
loop_
_geom_bond_atom_site_label_1
_geom_bond_atom_site_label_2
_geom_bond_site_symmetry_1
_geom_bond_site_symmetry_2
O1 C1 1_555 1_555
C1 C2 1_555 1_555
C2 H1 1_555 1_555
O2 C2 1_555 1_555
H2 O2 1_555 1_555
C3 C2 1_555 1_555
H3 C3 1_555 1_555
H4 C3 1_555 1_555
C4 C3 1_555 1_555
H5 C4 1_555 1_555
H6 C4 1_555 1_555
C5 C4 1_555 1_555
C6 C5 1_555 1_555
H7 C6 1_555 1_555
C7 C6 1_555 1_555
H8 C7 1_555 1_555
H9 C7 1_555 1_555
C8 C7 1_555 1_555
H10 C8 1_555 1_555
H11 C8 1_555 1_555
C9 C8 1_555 1_555
H12 C9 1_555 1_555
H13 C9 1_555 1_555
C10 C9 1_555 1_555
C11 C6 1_555 1_555
C12 C11 1_555 1_555
H14 C12 1_555 1_555
H15 C12 1_555 1_555
C13 C12 1_555 1_555
H16 C13 1_555 1_555
H17 C13 1_555 1_555
C14 O1 1_555 1_555
H18 C14 1_555 1_555
C15 C1 1_555 1_555
H19 C15 1_555 1_555
H20 C15 1_555 1_555
H21 C15 1_555 1_555
C16 C1 1_555 1_555
H22 C16 1_555 1_555
H23 C16 1_555 1_555
H24 C16 1_555 1_555
C17 C5 1_555 1_555
H25 C17 1_555 1_555
H26 C17 1_555 1_555
H27 C17 1_555 1_555
O3 C10 1_555 1_555
O4 C10 1_555 1_555
C18 O3 1_555 1_555
H28 C18 1_555 1_555
H29 C18 1_555 1_555
C19 O4 1_555 1_555
H30 C19 1_555 1_555
H31 C19 1_555 1_555
C20 C11 1_555 1_555
H32 C20 1_555 1_555
H33 C20 1_555 1_555
H34 C20 1_555 1_555
C5 C14 1_555 1_555
C10 C11 1_555 1_555
C13 C14 1_555 1_555
C18 C19 1_555 1_555

#END
