
#######################################################################
#
#                 Cambridge Crystallographic Data Centre
#                                CCDC 
#
#######################################################################
#
# If this CIF has been generated from an entry in the Cambridge 
# Structural Database, then it will include bibliographic, chemical, 
# crystal, experimental, refinement or atomic coordinate data resulting 
# from the CCDC's data processing and validation procedures.
#
#######################################################################

data_REPTOX
_chemical_formula_moiety         'C22 H19 Br1 N2 O3 S2'
_chemical_name_systematic        
N-(3-(4-Bromophenyl)indolizin-1-yl)-N-(3-oxobutyl)thiophene-2-sulfonamide
_symmetry_cell_setting           monoclinic
_symmetry_space_group_name_H-M   'P 21/n'
_symmetry_Int_Tables_number      14
_space_group_name_Hall           '-P 2yn'
loop_
_symmetry_equiv_pos_site_id
_symmetry_equiv_pos_as_xyz
1 x,y,z
2 1/2-x,1/2+y,1/2-z
3 -x,-y,-z
4 1/2+x,1/2-y,1/2+z
_cell_length_a                   7.327(3)
_cell_length_b                   14.078(5)
_cell_length_c                   21.368(7)
_cell_angle_alpha                90
_cell_angle_beta                 98.280(8)
_cell_angle_gamma                90
_cell_volume                     2181.12
_exptl_crystal_colour            colorless
_exptl_crystal_description       prismatic
_chemical_melting_point          '160-162 deg.C'
_cell_formula_units_Z            4
loop_
_atom_site_label
_atom_site_type_symbol
_atom_site_fract_x
_atom_site_fract_y
_atom_site_fract_z
Br1 Br -0.71952(9) 0.73310(6) 0.03723(4)
S1 S 0.40891(18) 0.44725(9) 0.33351(6)
S2 S 0.0511(3) 0.50608(18) 0.37415(12)
N1 N 0.0990(5) 0.4784(3) 0.13061(18)
N2 N 0.4171(6) 0.5173(3) 0.2731(2)
O1 O 0.3102(6) 0.3645(3) 0.31084(19)
O2 O 0.5924(6) 0.4397(3) 0.3660(2)
O3 O 0.8255(13) 0.7205(6) 0.2969(6)
C1 C 0.0570(7) 0.4309(4) 0.0735(2)
H1 H -0.0474 0.4477 0.0456
C2 C 0.1688(9) 0.3596(4) 0.0582(3)
H2 H 0.1413 0.3286 0.0195
C3 C 0.3255(8) 0.3326(5) 0.1006(3)
H3 H 0.3994 0.2830 0.0904
C4 C 0.3682(7) 0.3786(4) 0.1559(3)
H4 H 0.4719 0.3604 0.1837
C5 C 0.2581(6) 0.4538(3) 0.1722(2)
C6 C 0.2678(6) 0.5170(3) 0.2219(2)
C7 C 0.1169(6) 0.5784(3) 0.2115(2)
H5 H 0.0913 0.6274 0.2381
C8 C 0.0128(6) 0.5540(3) 0.1552(2)
C9 C -0.1623(6) 0.5951(3) 0.1250(2)
C10 C -0.1848(6) 0.6931(3) 0.1251(2)
H6 H -0.0869 0.7313 0.1425
C11 C -0.3507(8) 0.7351(4) 0.0999(2)
H7 H -0.3651 0.8007 0.1007
C12 C -0.4939(6) 0.6772(4) 0.0737(2)
C13 C -0.4761(6) 0.5795(4) 0.0728(2)
H8 H -0.5744 0.5417 0.0552
C14 C -0.3114(6) 0.5390(4) 0.0981(2)
H9 H -0.2987 0.4733 0.0975
C15 C 0.5676(12) 0.5865(6) 0.2716(5)
H10 H 0.6087 0.5862 0.2305
H11 H 0.6715 0.5707 0.3034
C16 C 0.4891(18) 0.6852(9) 0.2854(7)
H12 H 0.4412 0.6848 0.3254
H13 H 0.4148 0.7132 0.2423
C17 C 0.6574(10) 0.7560(5) 0.2880(4)
C18 C 0.6330(9) 0.8510(4) 0.2607(4)
H14 H 0.5041 0.8666 0.2538
H15 H 0.6808 0.8526 0.2212
H16 H 0.6979 0.8963 0.2893
C19 C 0.2828(10) 0.5057(4) 0.3855(3)
C20 C 0.3590(12) 0.5590(5) 0.4401(3)
H17 H 0.4831 0.5685 0.4552
C21 C 0.2062(15) 0.5939(6) 0.4661(4)
H18 H 0.2219 0.6307 0.5026
C22 C 0.0375(16) 0.5726(6) 0.4366(4)
H19 H -0.0721 0.5925 0.4495
O4? O 0.7339(17) 0.7606(8) 0.3454(6)
H20? H 0.3908 0.7033 0.2522
C23? C 0.475(2) 0.6121(10) 0.3065(7)
H21? H 0.3741 0.6366 0.3264
H22? H 0.5791 0.6011 0.3393
C24? C 0.526(2) 0.6821(10) 0.2622(7)
H23? H 0.5789 0.6488 0.2292
loop_
_geom_bond_atom_site_label_1
_geom_bond_atom_site_label_2
_geom_bond_site_symmetry_1
_geom_bond_site_symmetry_2
Br1 C12 1_555 1_555
S1 N2 1_555 1_555
S2 C19 1_555 1_555
N1 C1 1_555 1_555
N2 C6 1_555 1_555
O1 S1 1_555 1_555
O2 S1 1_555 1_555
O3 C17 1_555 1_555
C1 H1 1_555 1_555
C2 C1 1_555 1_555
H2 C2 1_555 1_555
C3 C2 1_555 1_555
H3 C3 1_555 1_555
C4 C3 1_555 1_555
H4 C4 1_555 1_555
C5 N1 1_555 1_555
C6 C5 1_555 1_555
C7 C6 1_555 1_555
H5 C7 1_555 1_555
C8 N1 1_555 1_555
C9 C8 1_555 1_555
C10 C9 1_555 1_555
H6 C10 1_555 1_555
C11 C10 1_555 1_555
H7 C11 1_555 1_555
C12 C11 1_555 1_555
C13 C12 1_555 1_555
H8 C13 1_555 1_555
C14 C9 1_555 1_555
H9 C14 1_555 1_555
C15 N2 1_555 1_555
H10 C15 1_555 1_555
H11 C15 1_555 1_555
C16 C15 1_555 1_555
H12 C16 1_555 1_555
H13 C16 1_555 1_555
C17 C16 1_555 1_555
C18 C17 1_555 1_555
H14 C18 1_555 1_555
H15 C18 1_555 1_555
H16 C18 1_555 1_555
C19 S1 1_555 1_555
C20 C19 1_555 1_555
H17 C20 1_555 1_555
C21 C20 1_555 1_555
H18 C21 1_555 1_555
C22 S2 1_555 1_555
H19 C22 1_555 1_555
C4 C5 1_555 1_555
C7 C8 1_555 1_555
C13 C14 1_555 1_555
C21 C22 1_555 1_555

#END
