
#######################################################################
#
#                 Cambridge Crystallographic Data Centre
#                                CCDC 
#
#######################################################################
#
# If this CIF has been generated from an entry in the Cambridge 
# Structural Database, then it will include bibliographic, chemical, 
# crystal, experimental, refinement or atomic coordinate data resulting 
# from the CCDC's data processing and validation procedures.
#
#######################################################################

data_REPVIU
_chemical_formula_moiety         'C62 H56 N4 2+,C7 H8,2(Cl1 1-)'
_chemical_name_systematic        
"4,4'-([9,9'-bianthracene]-10,10'-diylbis{[4-(dimethylamino)phenyl]methylylidene})bis(N,N-dimethylcyclohexa-2,5-dien-1-iminium) dichloride toluene unknown solvate"
_symmetry_cell_setting           triclinic
_symmetry_space_group_name_H-M   'P -1'
_symmetry_Int_Tables_number      2
_space_group_name_Hall           '-P 1'
loop_
_symmetry_equiv_pos_site_id
_symmetry_equiv_pos_as_xyz
1 x,y,z
2 -x,-y,-z
_cell_length_a                   12.4719(5)
_cell_length_b                   16.0534(8)
_cell_length_c                   17.5659(8)
_cell_angle_alpha                95.630(2)
_cell_angle_beta                 96.899(2)
_cell_angle_gamma                112.346(2)
_cell_volume                     3189.49
_exptl_crystal_colour            black
_exptl_crystal_description       block
_cell_formula_units_Z            2
loop_
_atom_site_label
_atom_site_type_symbol
_atom_site_fract_x
_atom_site_fract_y
_atom_site_fract_z
C63 C 1.1729(5) 0.8156(4) 0.4809(3)
H57 H 1.096332 0.783720 0.491776
C64 C 1.2028(5) 0.8999(5) 0.4648(3)
H58 H 1.148351 0.928077 0.466703
C65 C 1.3106(5) 0.9471(5) 0.4454(4)
H59 H 1.330018 1.006634 0.432478
C66 C 1.3875(5) 0.9079(5) 0.4451(4)
H60 H 1.462060 0.939931 0.431391
C67 C 1.3613(5) 0.8218(5) 0.4644(4)
H61 H 1.418463 0.796072 0.465350
C68 C 1.2520(5) 0.7732(5) 0.4822(4)
C69 C 1.2215(8) 0.6830(6) 0.5080(7)
H62 H 1.140169 0.660128 0.517460
H63 H 1.274694 0.689086 0.555960
H64 H 1.229385 0.640101 0.467552
N1 N 0.9471(4) 0.8628(4) 1.0342(3)
N2 N 1.2874(4) 0.7886(3) 0.1825(3)
N3 N 0.2301(4) 0.8857(4) 0.7576(3)
N4 N 0.4683(4) 0.3698(4) 0.0275(3)
C1 C 0.8156(3) 0.8539(3) 0.5837(2)
C2 C 0.9235(4) 0.9064(3) 0.5591(3)
H1 H 0.939405 0.886108 0.510764
C3 C 1.0033(4) 0.9843(3) 0.6034(3)
H2 H 1.075039 1.017077 0.586442
C4 C 0.9802(4) 1.0168(3) 0.6747(3)
H3 H 1.035949 1.072171 0.704849
C5 C 0.8791(3) 0.9698(3) 0.7006(2)
H4 H 0.864091 0.993482 0.748047
C6 C 0.7951(3) 0.8853(3) 0.6574(2)
C7 C 0.6920(3) 0.8318(3) 0.6844(2)
C8 C 0.6117(3) 0.7499(3) 0.6395(3)
C9 C 0.5119(4) 0.6881(3) 0.6685(3)
H5 H 0.500435 0.702347 0.719873
C10 C 0.4355(4) 0.6105(4) 0.6230(3)
H6 H 0.369163 0.571807 0.642332
C11 C 0.4519(4) 0.5852(4) 0.5467(3)
H7 H 0.396060 0.530801 0.515303
C12 C 0.5459(4) 0.6380(3) 0.5191(3)
H8 H 0.556130 0.620018 0.468222
C13 C 0.6318(3) 0.7212(3) 0.5644(2)
C14 C 0.7322(3) 0.7737(3) 0.5380(2)
C15 C 0.7558(3) 0.7427(3) 0.4598(2)
C16 C 0.7259(3) 0.7766(3) 0.3943(2)
C17 C 0.6756(4) 0.8423(3) 0.3977(3)
H9 H 0.659499 0.862689 0.445956
C18 C 0.6493(4) 0.8774(4) 0.3324(3)
H10 H 0.615388 0.921199 0.336433
C19 C 0.6726(4) 0.8483(4) 0.2594(3)
H11 H 0.656410 0.873270 0.214757
C20 C 0.7184(4) 0.7842(4) 0.2550(3)
H12 H 0.731391 0.763879 0.205662
C21 C 0.7484(3) 0.7452(3) 0.3192(3)
C22 C 0.7989(4) 0.6824(3) 0.3144(3)
C23 C 0.8275(4) 0.6473(3) 0.3814(3)
C24 C 0.8749(4) 0.5771(4) 0.3770(4)
H13 H 0.887173 0.553901 0.328442
C25 C 0.9011(5) 0.5453(4) 0.4409(4)
H14 H 0.933107 0.500310 0.437303
C26 C 0.8821(4) 0.5774(4) 0.5138(4)
H15 H 0.899375 0.553248 0.558745
C27 C 0.8390(4) 0.6427(3) 0.5186(3)
H16 H 0.829892 0.665529 0.568325
C28 C 0.8071(3) 0.6790(3) 0.4546(3)
C29 C 0.8229(4) 0.6483(3) 0.2369(3)
C30 C 0.7283(4) 0.5861(4) 0.1820(3)
C31 C 0.6184(4) 0.5342(4) 0.2050(3)
H17 H 0.605439 0.548283 0.255969
C32 C 0.5317(5) 0.4640(4) 0.1532(4)
H18 H 0.460618 0.428785 0.169708
C33 C 0.5464(5) 0.4431(4) 0.0753(3)
C34 C 0.6510(5) 0.5032(4) 0.0514(3)
H19 H 0.660526 0.494842 -0.001283
C35 C 0.7349(5) 0.5706(4) 0.1019(3)
H20 H 0.801942 0.609770 0.083647
C36 C 0.3589(5) 0.3120(5) 0.0515(4)
H21 H 0.375088 0.271427 0.085131
H22 H 0.301443 0.275409 0.005430
H23 H 0.327152 0.350439 0.079895
C37 C 0.4866(5) 0.3419(5) -0.0490(4)
H24 H 0.444870 0.363754 -0.087813
H25 H 0.456421 0.275201 -0.059738
H26 H 0.570907 0.367780 -0.051163
C38 C 0.9416(4) 0.6797(3) 0.2256(3)
C39 C 0.9839(5) 0.6312(4) 0.1740(3)
H27 H 0.931750 0.572480 0.147481
C40 C 1.0966(5) 0.6654(4) 0.1609(4)
H28 H 1.120929 0.629575 0.126261
C41 C 1.1786(4) 0.7526(4) 0.1973(3)
C42 C 1.1406(4) 0.7974(3) 0.2571(3)
H29 H 1.195611 0.852499 0.288056
C43 C 1.0289(4) 0.7632(3) 0.2702(3)
H30 H 1.007206 0.794988 0.309970
C44 C 1.3682(4) 0.8806(4) 0.2173(4)
H31 H 1.329272 0.922705 0.210170
H32 H 1.437992 0.898773 0.192195
H33 H 1.391857 0.882273 0.272830
C45 C 1.3230(6) 0.7432(5) 0.1227(5)
H34 H 1.312482 0.682152 0.133710
H35 H 1.406046 0.778292 0.120627
H36 H 1.274944 0.737950 0.072590
C46 C 0.6681(3) 0.8641(3) 0.7611(3)
C47 C 0.7503(4) 0.8735(3) 0.8289(3)
C48 C 0.8224(4) 0.8232(4) 0.8298(3)
H37 H 0.823132 0.789291 0.782561
C49 C 0.8905(4) 0.8217(4) 0.8957(3)
H38 H 0.937205 0.786811 0.893759
C50 C 0.8923(4) 0.8720(4) 0.9678(3)
C51 C 0.8327(4) 0.9297(4) 0.9663(3)
H39 H 0.838975 0.968865 1.012362
C52 C 0.7646(4) 0.9309(4) 0.8989(3)
H40 H 0.725990 0.971705 0.899499
C53 C 0.9351(5) 0.9018(4) 1.1092(3)
H41 H 0.991534 0.965426 1.122284
H42 H 0.950547 0.867075 1.148892
H43 H 0.854949 0.899208 1.106976
C54 C 1.0217(6) 0.8104(6) 1.0362(3)
H44 H 0.986733 0.756981 0.995318
H45 H 1.027662 0.790480 1.086882
H46 H 1.100371 0.848947 1.027555
C55 C 0.5633(4) 0.8776(3) 0.7634(3)
C56 C 0.5105(3) 0.8784(3) 0.8303(3)
H47 H 0.551768 0.875393 0.878357
C57 C 0.4047(4) 0.8833(4) 0.8295(3)
H48 H 0.374724 0.883874 0.876624
C58 C 0.3377(4) 0.8874(4) 0.7608(3)
C59 C 0.3890(4) 0.8881(4) 0.6914(3)
H49 H 0.347215 0.890920 0.643520
C60 C 0.4966(4) 0.8846(3) 0.6940(3)
H50 H 0.528991 0.887025 0.647587
C61 C 0.1535(5) 0.8721(7) 0.6842(4)
H51 H 0.190886 0.921082 0.654770
H52 H 0.078261 0.873011 0.694152
H53 H 0.139721 0.813192 0.654114
C62 C 0.1782(5) 0.8883(5) 0.8278(4)
H54 H 0.152271 0.828078 0.844217
H55 H 0.110533 0.904798 0.816926
H56 H 0.237005 0.933605 0.869281
loop_
_geom_bond_atom_site_label_1
_geom_bond_atom_site_label_2
_geom_bond_site_symmetry_1
_geom_bond_site_symmetry_2
N1 C50 1_555 1_555
N2 C41 1_555 1_555
N3 C58 1_555 1_555
N4 C33 1_555 1_555
C1 C2 1_555 1_555
C2 H1 1_555 1_555
C3 C2 1_555 1_555
H2 C3 1_555 1_555
C4 C3 1_555 1_555
H3 C4 1_555 1_555
C5 C4 1_555 1_555
H4 C5 1_555 1_555
C6 C1 1_555 1_555
C7 C6 1_555 1_555
C8 C7 1_555 1_555
C9 C8 1_555 1_555
H5 C9 1_555 1_555
C10 C9 1_555 1_555
H6 C10 1_555 1_555
C11 C10 1_555 1_555
H7 C11 1_555 1_555
C12 C11 1_555 1_555
H8 C12 1_555 1_555
C13 C8 1_555 1_555
C14 C1 1_555 1_555
C15 C14 1_555 1_555
C16 C15 1_555 1_555
C17 C16 1_555 1_555
H9 C17 1_555 1_555
C18 C17 1_555 1_555
H10 C18 1_555 1_555
C19 C18 1_555 1_555
H11 C19 1_555 1_555
C20 C19 1_555 1_555
H12 C20 1_555 1_555
C21 C16 1_555 1_555
C22 C21 1_555 1_555
C23 C22 1_555 1_555
C24 C23 1_555 1_555
H13 C24 1_555 1_555
C25 C24 1_555 1_555
H14 C25 1_555 1_555
C26 C25 1_555 1_555
H15 C26 1_555 1_555
C27 C26 1_555 1_555
H16 C27 1_555 1_555
C28 C15 1_555 1_555
C29 C22 1_555 1_555
C30 C29 1_555 1_555
C31 C30 1_555 1_555
H17 C31 1_555 1_555
C32 C31 1_555 1_555
H18 C32 1_555 1_555
C33 C32 1_555 1_555
C34 C33 1_555 1_555
H19 C34 1_555 1_555
C35 C30 1_555 1_555
H20 C35 1_555 1_555
C36 N4 1_555 1_555
H21 C36 1_555 1_555
H22 C36 1_555 1_555
H23 C36 1_555 1_555
C37 N4 1_555 1_555
H24 C37 1_555 1_555
H25 C37 1_555 1_555
H26 C37 1_555 1_555
C38 C29 1_555 1_555
C39 C38 1_555 1_555
H27 C39 1_555 1_555
C40 C39 1_555 1_555
H28 C40 1_555 1_555
C41 C40 1_555 1_555
C42 C41 1_555 1_555
H29 C42 1_555 1_555
C43 C38 1_555 1_555
H30 C43 1_555 1_555
C44 N2 1_555 1_555
H31 C44 1_555 1_555
H32 C44 1_555 1_555
H33 C44 1_555 1_555
C45 N2 1_555 1_555
H34 C45 1_555 1_555
H35 C45 1_555 1_555
H36 C45 1_555 1_555
C46 C7 1_555 1_555
C47 C46 1_555 1_555
C48 C47 1_555 1_555
H37 C48 1_555 1_555
C49 C48 1_555 1_555
H38 C49 1_555 1_555
C50 C49 1_555 1_555
C51 C50 1_555 1_555
H39 C51 1_555 1_555
C52 C47 1_555 1_555
H40 C52 1_555 1_555
C53 N1 1_555 1_555
H41 C53 1_555 1_555
H42 C53 1_555 1_555
H43 C53 1_555 1_555
C54 N1 1_555 1_555
H44 C54 1_555 1_555
H45 C54 1_555 1_555
H46 C54 1_555 1_555
C55 C46 1_555 1_555
C56 C55 1_555 1_555
H47 C56 1_555 1_555
C57 C56 1_555 1_555
H48 C57 1_555 1_555
C58 C57 1_555 1_555
C59 C58 1_555 1_555
H49 C59 1_555 1_555
C60 C55 1_555 1_555
H50 C60 1_555 1_555
C61 N3 1_555 1_555
H51 C61 1_555 1_555
H52 C61 1_555 1_555
H53 C61 1_555 1_555
C62 N3 1_555 1_555
H54 C62 1_555 1_555
H55 C62 1_555 1_555
H56 C62 1_555 1_555
C63 H57 1_555 1_555
C64 C63 1_555 1_555
H58 C64 1_555 1_555
C65 C64 1_555 1_555
H59 C65 1_555 1_555
C66 C65 1_555 1_555
H60 C66 1_555 1_555
C67 C66 1_555 1_555
H61 C67 1_555 1_555
C68 C63 1_555 1_555
C69 C68 1_555 1_555
H62 C69 1_555 1_555
H63 C69 1_555 1_555
H64 C69 1_555 1_555
C5 C6 1_555 1_555
C12 C13 1_555 1_555
C13 C14 1_555 1_555
C20 C21 1_555 1_555
C23 C28 1_555 1_555
C27 C28 1_555 1_555
C34 C35 1_555 1_555
C42 C43 1_555 1_555
C51 C52 1_555 1_555
C59 C60 1_555 1_555
C67 C68 1_555 1_555

#END
