
#######################################################################
#
#                 Cambridge Crystallographic Data Centre
#                                CCDC 
#
#######################################################################
#
# If this CIF has been generated from an entry in the Cambridge 
# Structural Database, then it will include bibliographic, chemical, 
# crystal, experimental, refinement or atomic coordinate data resulting 
# from the CCDC's data processing and validation procedures.
#
#######################################################################

data_REPVAM
_chemical_formula_moiety         'C62 H52 O8,2(C1 H2 Cl2)'
_chemical_name_systematic        
'9-[bis(3,4-dimethoxyphenyl)methylidene]-10-{10-[bis(3,4-dimethoxyphenyl)methylidene]anthracen-9(10H)-ylidene}-9,10-dihydroanthracene dichloromethane solvate'
_symmetry_cell_setting           triclinic
_symmetry_space_group_name_H-M   'P -1'
_symmetry_Int_Tables_number      2
_space_group_name_Hall           '-P 1'
loop_
_symmetry_equiv_pos_site_id
_symmetry_equiv_pos_as_xyz
1 x,y,z
2 -x,-y,-z
_cell_length_a                   10.826(2)
_cell_length_b                   11.158(3)
_cell_length_c                   12.125(3)
_cell_angle_alpha                89.920(5)
_cell_angle_beta                 87.592(4)
_cell_angle_gamma                72.944(4)
_cell_volume                     1398.91
_exptl_crystal_colour            yellow
_exptl_crystal_description       BLOCK
_cell_formula_units_Z            1
loop_
_atom_site_label
_atom_site_type_symbol
_atom_site_fract_x
_atom_site_fract_y
_atom_site_fract_z
O1 O 0.29751(17) 0.27629(18) 0.93851(13)
O2 O 0.05490(17) 0.33297(17) 0.99711(13)
O3 O 0.49784(15) -0.03508(14) 0.31481(13)
O4 O 0.32695(16) -0.15518(14) 0.31647(14)
C1 C 0.2150(2) 0.2972(2) 0.85404(18)
C2 C 0.0827(2) 0.3274(2) 0.88572(17)
C3 C -0.0076(2) 0.3506(2) 0.80566(18)
H1 H -0.0970 0.3712 0.8265
C4 C 0.0316(2) 0.34398(19) 0.69371(17)
H2 H -0.0313 0.3589 0.6390
C5 C 0.1609(2) 0.31594(18) 0.66225(16)
C6 C 0.2530(2) 0.29171(19) 0.74311(17)
H3 H 0.3423 0.2713 0.7219
C7 C 0.21024(18) 0.31032(18) 0.54420(16)
C8 C 0.2405(2) 0.18516(18) 0.48866(16)
C9 C 0.3596(2) 0.13346(18) 0.43083(17)
H4 H 0.4230 0.1770 0.4302
C10 C 0.3861(2) 0.02029(19) 0.37489(17)
C11 C 0.2933(2) -0.04614(19) 0.37711(17)
C12 C 0.1780(2) 0.0020(2) 0.43753(18)
H5 H 0.1158 -0.0429 0.4407
C13 C 0.1526(2) 0.11638(19) 0.49382(17)
H6 H 0.0739 0.1475 0.5363
C14 C 0.4327(3) 0.2458(3) 0.9094(2)
H7 H 0.4594 0.1680 0.8656
H8 H 0.4818 0.2347 0.9767
H9 H 0.4496 0.3139 0.8660
C15 C -0.0782(3) 0.3644(3) 1.0314(2)
H10 H -0.1244 0.4461 1.0014
H11 H -0.0866 0.3684 1.1122
H12 H -0.1154 0.3004 1.0042
C16 C 0.5923(2) 0.0312(2) 0.30874(19)
H13 H 0.5554 0.1130 0.2749
H14 H 0.6679 -0.0172 0.2639
H15 H 0.6187 0.0433 0.3833
C17 C 0.2302(2) -0.2186(2) 0.3096(2)
H16 H 0.2106 -0.2465 0.3832
H17 H 0.2621 -0.2915 0.2600
H18 H 0.1515 -0.1614 0.2808
C18 C 0.23572(18) 0.41081(18) 0.49758(16)
C19 C 0.21772(19) 0.53231(18) 0.55709(16)
C20 C 0.1027(2) 0.59999(19) 0.61204(17)
H19 H 0.0312 0.5668 0.6165
C21 C 0.0921(2) 0.7159(2) 0.66034(17)
H20 H 0.0139 0.7608 0.6987
C22 C 0.1954(2) 0.76640(19) 0.65278(18)
H21 H 0.1877 0.8456 0.6857
C23 C 0.3094(2) 0.70057(19) 0.59700(18)
H22 H 0.3795 0.7356 0.5908
C24 C 0.32218(19) 0.58299(18) 0.54976(16)
C25 C 0.4391(2) 0.51073(18) 0.48386(16)
C26 C 0.40283(19) 0.46273(18) 0.37904(16)
C27 C 0.4619(2) 0.47244(19) 0.27585(17)
H23 H 0.5329 0.5062 0.2706
C28 C 0.4169(2) 0.4329(2) 0.18124(17)
H24 H 0.4573 0.4398 0.1114
C29 C 0.3132(2) 0.3833(2) 0.18754(17)
H25 H 0.2829 0.3564 0.1224
C30 C 0.2542(2) 0.37328(19) 0.28952(17)
H26 H 0.1834 0.3391 0.2939
C31 C 0.29782(19) 0.41292(18) 0.38570(16)
O1A O 0.70249(17) 0.72371(18) 0.06149(13)
O2A O 0.94510(17) 0.66703(17) 0.00289(13)
O3A O 0.50216(15) 1.03508(14) 0.68519(13)
O4A O 0.67305(16) 1.15518(14) 0.68353(14)
C1A C 0.7850(2) 0.7028(2) 0.14596(18)
C2A C 0.9173(2) 0.6726(2) 0.11428(17)
C3A C 1.0076(2) 0.6494(2) 0.19434(18)
H1A H 1.0970 0.6288 0.1735
C4A C 0.9684(2) 0.65602(19) 0.30629(17)
H2A H 1.0313 0.6411 0.3610
C5A C 0.8391(2) 0.68406(18) 0.33775(16)
C6A C 0.7470(2) 0.70829(19) 0.25689(17)
H3A H 0.6577 0.7287 0.2781
C7A C 0.78976(18) 0.68968(18) 0.45580(16)
C8A C 0.7595(2) 0.81484(18) 0.51134(16)
C9A C 0.6404(2) 0.86654(18) 0.56917(17)
H4A H 0.5770 0.8230 0.5698
C10A C 0.6139(2) 0.97971(19) 0.62511(17)
C11A C 0.7067(2) 1.04614(19) 0.62289(17)
C12A C 0.8220(2) 0.9980(2) 0.56247(18)
H5A H 0.8842 1.0429 0.5593
C13A C 0.8474(2) 0.88362(19) 0.50618(17)
H6A H 0.9261 0.8525 0.4637
C14A C 0.5673(3) 0.7542(3) 0.0906(2)
H7A H 0.5406 0.8320 0.1344
H8A H 0.5182 0.7653 0.0233
H9A H 0.5504 0.6861 0.1340
C15A C 1.0782(3) 0.6356(3) -0.0314(2)
H10A H 1.1244 0.5539 -0.0014
H11A H 1.0866 0.6316 -0.1122
H12A H 1.1154 0.6996 -0.0042
C16A C 0.4077(2) 0.9688(2) 0.69126(19)
H13A H 0.4446 0.8870 0.7251
H14A H 0.3321 1.0172 0.7361
H15A H 0.3813 0.9567 0.6167
C17A C 0.7698(2) 1.2186(2) 0.6904(2)
H16A H 0.7894 1.2465 0.6168
H17A H 0.7379 1.2915 0.7400
H18A H 0.8485 1.1614 0.7192
C18A C 0.76428(18) 0.58919(18) 0.50242(16)
C19A C 0.78228(19) 0.46769(18) 0.44291(16)
C20A C 0.8973(2) 0.40001(19) 0.38796(17)
H19A H 0.9688 0.4332 0.3835
C21A C 0.9079(2) 0.2841(2) 0.33966(17)
H20A H 0.9861 0.2392 0.3013
C22A C 0.8046(2) 0.23360(19) 0.34722(18)
H21A H 0.8123 0.1544 0.3143
C23A C 0.6906(2) 0.29943(19) 0.40300(18)
H22A H 0.6205 0.2644 0.4092
C24A C 0.67782(19) 0.41701(18) 0.45024(16)
C25A C 0.5609(2) 0.48927(18) 0.51614(16)
C26A C 0.59717(19) 0.53727(18) 0.62096(16)
C27A C 0.5381(2) 0.52756(19) 0.72415(17)
H23A H 0.4671 0.4938 0.7294
C28A C 0.5831(2) 0.5671(2) 0.81876(17)
H24A H 0.5427 0.5602 0.8886
C29A C 0.6868(2) 0.6167(2) 0.81246(17)
H25A H 0.7171 0.6436 0.8776
C30A C 0.7458(2) 0.62672(19) 0.71048(17)
H26A H 0.8166 0.6609 0.7061
C31A C 0.70218(19) 0.58708(18) 0.61430(16)
C32 C 0.2224(4) 0.0460(4) 0.0882(3)
H27 H 0.2823 0.0130 0.1480
H28 H 0.2225 0.1332 0.0734
Cl1 Cl 0.06609(11) 0.04373(8) 0.12944(7)
Cl2 Cl 0.27537(13) -0.04764(15) -0.03329(9)
loop_
_geom_bond_atom_site_label_1
_geom_bond_atom_site_label_2
_geom_bond_site_symmetry_1
_geom_bond_site_symmetry_2
O1 C1 1_555 1_555
O2 C2 1_555 1_555
O3 C10 1_555 1_555
O4 C11 1_555 1_555
C1 C2 1_555 1_555
C2 C3 1_555 1_555
C3 H1 1_555 1_555
C4 C3 1_555 1_555
H2 C4 1_555 1_555
C5 C4 1_555 1_555
C6 C1 1_555 1_555
H3 C6 1_555 1_555
C7 C5 1_555 1_555
C8 C7 1_555 1_555
C9 C8 1_555 1_555
H4 C9 1_555 1_555
C10 C9 1_555 1_555
C11 C10 1_555 1_555
C12 C11 1_555 1_555
H5 C12 1_555 1_555
C13 C8 1_555 1_555
H6 C13 1_555 1_555
C14 O1 1_555 1_555
H7 C14 1_555 1_555
H8 C14 1_555 1_555
H9 C14 1_555 1_555
C15 O2 1_555 1_555
H10 C15 1_555 1_555
H11 C15 1_555 1_555
H12 C15 1_555 1_555
C16 O3 1_555 1_555
H13 C16 1_555 1_555
H14 C16 1_555 1_555
H15 C16 1_555 1_555
C17 O4 1_555 1_555
H16 C17 1_555 1_555
H17 C17 1_555 1_555
H18 C17 1_555 1_555
C18 C7 1_555 1_555
C19 C18 1_555 1_555
C20 C19 1_555 1_555
H19 C20 1_555 1_555
C21 C20 1_555 1_555
H20 C21 1_555 1_555
C22 C21 1_555 1_555
H21 C22 1_555 1_555
C23 C22 1_555 1_555
H22 C23 1_555 1_555
C24 C19 1_555 1_555
C25 C24 1_555 1_555
C26 C25 1_555 1_555
C27 C26 1_555 1_555
H23 C27 1_555 1_555
C28 C27 1_555 1_555
H24 C28 1_555 1_555
C29 C28 1_555 1_555
H25 C29 1_555 1_555
C30 C29 1_555 1_555
H26 C30 1_555 1_555
C31 C18 1_555 1_555
C32 H27 1_555 1_555
H28 C32 1_555 1_555
Cl1 C32 1_555 1_555
Cl2 C32 1_555 1_555
O1A C1A 1_555 1_555
O2A C2A 1_555 1_555
O3A C10A 1_555 1_555
O4A C11A 1_555 1_555
C1A C2A 1_555 1_555
C2A C3A 1_555 1_555
C3A H1A 1_555 1_555
C4A C3A 1_555 1_555
H2A C4A 1_555 1_555
C5A C4A 1_555 1_555
C6A C1A 1_555 1_555
H3A C6A 1_555 1_555
C7A C5A 1_555 1_555
C8A C7A 1_555 1_555
C9A C8A 1_555 1_555
H4A C9A 1_555 1_555
C10A C9A 1_555 1_555
C11A C10A 1_555 1_555
C12A C11A 1_555 1_555
H5A C12A 1_555 1_555
C13A C8A 1_555 1_555
H6A C13A 1_555 1_555
C14A O1A 1_555 1_555
H7A C14A 1_555 1_555
H8A C14A 1_555 1_555
H9A C14A 1_555 1_555
C15A O2A 1_555 1_555
H10A C15A 1_555 1_555
H11A C15A 1_555 1_555
H12A C15A 1_555 1_555
C16A O3A 1_555 1_555
H13A C16A 1_555 1_555
H14A C16A 1_555 1_555
H15A C16A 1_555 1_555
C17A O4A 1_555 1_555
H16A C17A 1_555 1_555
H17A C17A 1_555 1_555
H18A C17A 1_555 1_555
C18A C7A 1_555 1_555
C19A C18A 1_555 1_555
C20A C19A 1_555 1_555
H19A C20A 1_555 1_555
C21A C20A 1_555 1_555
H20A C21A 1_555 1_555
C22A C21A 1_555 1_555
H21A C22A 1_555 1_555
C23A C22A 1_555 1_555
H22A C23A 1_555 1_555
C24A C19A 1_555 1_555
C25A C25 1_555 1_555
C26A C25A 1_555 1_555
C27A C26A 1_555 1_555
H23A C27A 1_555 1_555
C28A C27A 1_555 1_555
H24A C28A 1_555 1_555
C29A C28A 1_555 1_555
H25A C29A 1_555 1_555
C30A C29A 1_555 1_555
H26A C30A 1_555 1_555
C31A C18A 1_555 1_555
C5 C6 1_555 1_555
C12 C13 1_555 1_555
C23 C24 1_555 1_555
C26 C31 1_555 1_555
C30 C31 1_555 1_555
C5A C6A 1_555 1_555
C12A C13A 1_555 1_555
C23A C24A 1_555 1_555
C24A C25A 1_555 1_555
C26A C31A 1_555 1_555
C30A C31A 1_555 1_555

#END
