
#######################################################################
#
#                 Cambridge Crystallographic Data Centre
#                                CCDC 
#
#######################################################################
#
# If this CIF has been generated from an entry in the Cambridge 
# Structural Database, then it will include bibliographic, chemical, 
# crystal, experimental, refinement or atomic coordinate data resulting 
# from the CCDC's data processing and validation procedures.
#
#######################################################################

data_REQGAV
_chemical_formula_moiety         'C16 H12 N2 O1'
_chemical_name_systematic        2-p-Toluoylquinoxaline
_symmetry_cell_setting           monoclinic
_symmetry_space_group_name_H-M   'P 21/n'
_symmetry_Int_Tables_number      14
_space_group_name_Hall           '-P 2yn'
loop_
_symmetry_equiv_pos_site_id
_symmetry_equiv_pos_as_xyz
1 x,y,z
2 1/2-x,1/2+y,1/2-z
3 -x,-y,-z
4 1/2+x,1/2-y,1/2+z
_cell_length_a                   5.5973(2)
_cell_length_b                   18.5701(5)
_cell_length_c                   11.8195(3)
_cell_angle_alpha                90
_cell_angle_beta                 91.3040(10)
_cell_angle_gamma                90
_cell_volume                     1228.23
_exptl_crystal_colour            yellow
_exptl_crystal_description       block
_chemical_melting_point          352K
_cell_formula_units_Z            4
_exptl_crystal_recrystallization_method 'chloroform/petroleum ether'
loop_
_atom_site_label
_atom_site_type_symbol
_atom_site_fract_x
_atom_site_fract_y
_atom_site_fract_z
C1 C 0.54873(19) 0.10498(6) 0.32676(9)
C2 C 0.7436(2) 0.11743(6) 0.40448(9)
H1 H 0.7533 0.0903 0.4706
C3 C 0.88349(19) 0.20556(6) 0.28875(9)
C4 C 1.0553(2) 0.25902(6) 0.26404(10)
H2 H 1.1864 0.2660 0.3125
C5 C 1.0279(2) 0.30045(6) 0.16832(11)
H3 H 1.1418 0.3352 0.1521
C6 C 0.8281(2) 0.29083(6) 0.09410(10)
H4 H 0.8102 0.3200 0.0306
C7 C 0.6606(2) 0.23874(6) 0.11514(10)
H5 H 0.5306 0.2325 0.0657
C8 C 0.68630(19) 0.19441(6) 0.21254(9)
C9 C 0.36090(19) 0.05080(6) 0.35914(9)
C10 C 0.24081(19) 0.00467(6) 0.27194(9)
C11 C 0.0300(2) -0.03092(6) 0.30103(10)
H6 H -0.0319 -0.0247 0.3727
C12 C -0.0864(2) -0.07541(6) 0.22341(10)
H7 H -0.2271 -0.0982 0.2436
C13 C 0.0036(2) -0.08666(6) 0.11529(10)
C14 C 0.2162(2) -0.05232(6) 0.08758(10)
H8 H 0.2805 -0.0599 0.0167
C15 C 0.3335(2) -0.00682(6) 0.16428(10)
H9 H 0.4740 0.0160 0.1440
C16 C -0.1266(2) -0.13512(7) 0.03226(12)
H10 H -0.2955 -0.1269 0.0365
H11 H -0.0922 -0.1845 0.0504
H12 H -0.0751 -0.1248 -0.0430
N1 N 0.51987(16) 0.14197(5) 0.23203(8)
N2 N 0.91001(18) 0.16581(5) 0.38602(8)
O1 O 0.31123(15) 0.04652(4) 0.45927(7)
loop_
_geom_bond_atom_site_label_1
_geom_bond_atom_site_label_2
_geom_bond_site_symmetry_1
_geom_bond_site_symmetry_2
C1 C2 1_555 1_555
C2 H1 1_555 1_555
C3 C4 1_555 1_555
C4 H2 1_555 1_555
C5 C4 1_555 1_555
H3 C5 1_555 1_555
C6 C5 1_555 1_555
H4 C6 1_555 1_555
C7 C6 1_555 1_555
H5 C7 1_555 1_555
C8 C3 1_555 1_555
C9 C1 1_555 1_555
C10 C9 1_555 1_555
C11 C10 1_555 1_555
H6 C11 1_555 1_555
C12 C11 1_555 1_555
H7 C12 1_555 1_555
C13 C12 1_555 1_555
C14 C13 1_555 1_555
H8 C14 1_555 1_555
C15 C10 1_555 1_555
H9 C15 1_555 1_555
C16 C13 1_555 1_555
H10 C16 1_555 1_555
H11 C16 1_555 1_555
H12 C16 1_555 1_555
N1 C1 1_555 1_555
N2 C2 1_555 1_555
O1 C9 1_555 1_555
C3 N2 1_555 1_555
C7 C8 1_555 1_555
C8 N1 1_555 1_555
C14 C15 1_555 1_555

#END
