
#######################################################################
#
#                 Cambridge Crystallographic Data Centre
#                                CCDC 
#
#######################################################################
#
# If this CIF has been generated from an entry in the Cambridge 
# Structural Database, then it will include bibliographic, chemical, 
# crystal, experimental, refinement or atomic coordinate data resulting 
# from the CCDC's data processing and validation procedures.
#
#######################################################################

data_REQGAW
_chemical_formula_moiety         'C24 H18 N6 O1'
_chemical_name_systematic        
4,6-bis(Pyridin-2-ylhydrazonomethyl)dibenzofuran
_symmetry_cell_setting           orthorhombic
_symmetry_space_group_name_H-M   'P b c n'
_symmetry_Int_Tables_number      60
_space_group_name_Hall           '-P 2n 2ab'
loop_
_symmetry_equiv_pos_site_id
_symmetry_equiv_pos_as_xyz
1 x,y,z
2 1/2-x,1/2-y,1/2+z
3 1/2+x,1/2-y,-z
4 -x,y,1/2-z
5 -x,-y,-z
6 1/2+x,1/2+y,1/2-z
7 1/2-x,1/2+y,z
8 x,-y,1/2+z
_cell_length_a                   13.111(3)
_cell_length_b                   10.123(2)
_cell_length_c                   14.928(3)
_cell_angle_alpha                90
_cell_angle_beta                 90
_cell_angle_gamma                90
_cell_volume                     1981.28
_exptl_crystal_colour            colorless
_exptl_crystal_description       block
_chemical_melting_point          'above 250 deg.C'
_cell_formula_units_Z            4
loop_
_atom_site_label
_atom_site_type_symbol
_atom_site_fract_x
_atom_site_fract_y
_atom_site_fract_z
O1 O 0.5000 0.4238(2) -0.2500
N1 N 0.62120(15) 0.2711(2) -0.01340(13)
N2 N 0.60140(17) 0.1400(2) 0.00210(13)
H1 H 0.5699 0.0921 -0.0385
N3 N 0.59128(16) -0.0331(2) 0.10314(13)
C1 C 0.53962(16) 0.5075(2) -0.18444(14)
C2 C 0.52776(18) 0.6407(2) -0.20715(15)
C3 C 0.56919(19) 0.7356(2) -0.14998(17)
H2 H 0.5631 0.8271 -0.1632
C4 C 0.61955(19) 0.6935(3) -0.07337(17)
H3 H 0.6503 0.7574 -0.0353
C5 C 0.62639(18) 0.5600(3) -0.05050(16)
H4 H 0.6596 0.5354 0.0036
C6 C 0.58509(17) 0.4610(2) -0.10588(14)
C7 C 0.58077(17) 0.3205(2) -0.08393(14)
H5 H 0.5462 0.2629 -0.1240
C8 C 0.63173(18) 0.0839(2) 0.08293(15)
C9 C 0.70135(19) 0.1492(3) 0.13828(16)
H6 H 0.7275 0.2336 0.1226
C10 C 0.73072(19) 0.0879(2) 0.21575(16)
H7 H 0.7784 0.1300 0.2542
C11 C 0.6919(2) -0.0345(2) 0.23886(17)
H8 H 0.7122 -0.0781 0.2923
C12 C 0.6220(2) -0.0908(3) 0.18050(18)
H9 H 0.5942 -0.1745 0.1956
N1C N 0.37880(15) 0.2711(2) -0.48660(13)
N2C N 0.39860(17) 0.1400(2) -0.50210(13)
H1C H 0.4301 0.0921 -0.4615
N3C N 0.40872(16) -0.0331(2) -0.60314(13)
C1C C 0.46038(16) 0.5075(2) -0.31556(14)
C2C C 0.47224(18) 0.6407(2) -0.29285(15)
C3C C 0.43081(19) 0.7356(2) -0.35002(17)
H2C H 0.4369 0.8271 -0.3368
C4C C 0.38045(19) 0.6935(3) -0.42663(17)
H3C H 0.3497 0.7574 -0.4647
C5C C 0.37361(18) 0.5600(3) -0.44950(16)
H4C H 0.3404 0.5354 -0.5036
C6C C 0.41491(17) 0.4610(2) -0.39412(14)
C7C C 0.41923(17) 0.3205(2) -0.41607(14)
H5C H 0.4538 0.2629 -0.3760
C8C C 0.36827(18) 0.0839(2) -0.58293(15)
C9C C 0.29865(19) 0.1492(3) -0.63828(16)
H6C H 0.2725 0.2336 -0.6226
C10C C 0.26928(19) 0.0879(2) -0.71575(16)
H7C H 0.2216 0.1300 -0.7542
C11C C 0.3081(2) -0.0345(2) -0.73886(17)
H8C H 0.2878 -0.0781 -0.7923
C12C C 0.3780(2) -0.0908(3) -0.68050(18)
H9C H 0.4058 -0.1745 -0.6956
loop_
_geom_bond_atom_site_label_1
_geom_bond_atom_site_label_2
_geom_bond_site_symmetry_1
_geom_bond_site_symmetry_2
O1 C1 1_555 1_555
N1 N2 1_555 1_555
N2 H1 1_555 1_555
N3 C8 1_555 1_555
C1 C2 1_555 1_555
C2 C3 1_555 1_555
C3 H2 1_555 1_555
C4 C3 1_555 1_555
H3 C4 1_555 1_555
C5 C4 1_555 1_555
H4 C5 1_555 1_555
C6 C1 1_555 1_555
C7 N1 1_555 1_555
H5 C7 1_555 1_555
C8 N2 1_555 1_555
C9 C8 1_555 1_555
H6 C9 1_555 1_555
C10 C9 1_555 1_555
H7 C10 1_555 1_555
C11 C10 1_555 1_555
H8 C11 1_555 1_555
C12 N3 1_555 1_555
H9 C12 1_555 1_555
N1C N2C 1_555 1_555
N2C H1C 1_555 1_555
N3C C8C 1_555 1_555
C1C O1 1_555 1_555
C2C C2 1_555 1_555
C3C C2C 1_555 1_555
H2C C3C 1_555 1_555
C4C C3C 1_555 1_555
H3C C4C 1_555 1_555
C5C C4C 1_555 1_555
H4C C5C 1_555 1_555
C6C C1C 1_555 1_555
C7C N1C 1_555 1_555
H5C C7C 1_555 1_555
C8C N2C 1_555 1_555
C9C C8C 1_555 1_555
H6C C9C 1_555 1_555
C10C C9C 1_555 1_555
H7C C10C 1_555 1_555
C11C C10C 1_555 1_555
H8C C11C 1_555 1_555
C12C N3C 1_555 1_555
H9C C12C 1_555 1_555
C5 C6 1_555 1_555
C6 C7 1_555 1_555
C11 C12 1_555 1_555
C1C C2C 1_555 1_555
C5C C6C 1_555 1_555
C6C C7C 1_555 1_555
C11C C12C 1_555 1_555

#END
