
#######################################################################
#
#                 Cambridge Crystallographic Data Centre
#                                CCDC 
#
#######################################################################
#
# If this CIF has been generated from an entry in the Cambridge 
# Structural Database, then it will include bibliographic, chemical, 
# crystal, experimental, refinement or atomic coordinate data resulting 
# from the CCDC's data processing and validation procedures.
#
#######################################################################

data_REQHIG
_chemical_formula_moiety         'C18 H14 N5 1+,C10 H6 O8,I3 1-,2(H2 O1)'
_chemical_name_systematic        
'2,4,5-tris(Pyridin-4-yl)-1H-imidazol-3-ium benzene-1,2,4,5-tetracarboxylic acid triiodide dihydrate'
_symmetry_cell_setting           triclinic
_symmetry_space_group_name_H-M   'P -1'
_symmetry_Int_Tables_number      2
_space_group_name_Hall           '-P 1'
loop_
_symmetry_equiv_pos_site_id
_symmetry_equiv_pos_as_xyz
1 x,y,z
2 -x,-y,-z
_cell_length_a                   7.272(5)
_cell_length_b                   12.781(5)
_cell_length_c                   18.105(5)
_cell_angle_alpha                78.165(5)
_cell_angle_beta                 83.855(5)
_cell_angle_gamma                75.892(5)
_cell_volume                     1594.41
_exptl_crystal_colour            brown
_exptl_crystal_description       needle
_cell_formula_units_Z            2
loop_
_atom_site_label
_atom_site_type_symbol
_atom_site_fract_x
_atom_site_fract_y
_atom_site_fract_z
C1 C 1.1876(10) 0.2264(5) -0.3544(4)
H1 H 1.2469 0.2281 -0.4026
C2 C 1.0790(12) 0.1261(5) -0.2435(4)
H2 H 1.0639 0.0588 -0.2155
C3 C 1.0136(11) 0.2188(5) -0.2134(4)
H3 H 0.9543 0.2148 -0.1651
C4 C 1.1256(9) 0.3210(5) -0.3272(3)
H4 H 1.1429 0.3871 -0.3567
C5 C 1.0365(9) 0.3193(5) -0.2555(3)
C6 C 0.9629(8) 0.4180(4) -0.2229(3)
C7 C 0.8491(8) 0.5207(4) -0.1411(3)
C8 C 0.8745(8) 0.5904(5) -0.2096(3)
C9 C 0.7911(8) 0.5425(5) -0.0642(3)
C10 C 0.7487(9) 0.4571(5) -0.0081(3)
H5 H 0.7521 0.3891 -0.0198
C11 C 0.7023(9) 0.4750(6) 0.0641(4)
H6 H 0.6734 0.4186 0.1014
C12 C 0.7399(10) 0.6540(6) 0.0302(3)
H7 H 0.7362 0.7208 0.0438
C13 C 0.7888(9) 0.6414(5) -0.0431(3)
H8 H 0.8203 0.6989 -0.0788
C14 C 0.8247(9) 0.7091(5) -0.2354(3)
C15 C 0.9423(10) 0.7598(5) -0.2890(3)
H9 H 1.0578 0.7196 -0.3061
C16 C 0.8849(10) 0.8711(5) -0.3164(4)
H10 H 0.9614 0.9051 -0.3534
C17 C 0.6099(10) 0.8825(5) -0.2385(4)
H11 H 0.4971 0.9252 -0.2212
C18 C 0.6558(9) 0.7728(5) -0.2097(3)
H12 H 0.5754 0.7411 -0.1733
N1 N 1.1645(8) 0.1309(4) -0.3129(3)
N2 N 0.9507(7) 0.5224(4) -0.2596(2)
H13 H 0.9849 0.5425 -0.3063
N3 N 0.9038(7) 0.4155(4) -0.1513(3)
H14 H 0.9007 0.3579 -0.1175
N4 N 0.6976(8) 0.5721(5) 0.0823(3)
N5 N 0.7233(8) 0.9306(4) -0.2913(3)
C19 C 0.5850(10) 0.6637(5) -0.4166(4)
C20 C 0.6188(8) 0.5398(5) -0.4040(3)
C21 C 0.4530(9) 0.4934(5) -0.2684(3)
C22 C 0.5577(8) 0.4663(5) -0.3419(3)
C23 C 0.5961(8) 0.3564(5) -0.3465(3)
H15 H 0.5521 0.3091 -0.3061
C24 C 0.6951(8) 0.3112(5) -0.4064(3)
C25 C 0.7202(10) 0.1871(5) -0.3956(3)
C26 C 0.7602(8) 0.3829(5) -0.4680(3)
C27 C 0.8721(9) 0.3543(5) -0.5403(4)
O1 O 0.9389(8) 0.2529(4) -0.5442(3)
H16 H 0.9080 0.2143 -0.5051
O2 O 0.8947(7) 0.4269(4) -0.5924(2)
O3 O 0.6213(9) 0.7144(4) -0.4775(3)
O4 O 0.5170(8) 0.7130(4) -0.3606(3)
H17 H 0.4945 0.6678 -0.3236
O5 O 0.4332(8) 0.5873(4) -0.2523(3)
O6 O 0.3914(7) 0.4197(4) -0.2268(2)
H18 H 0.3390 0.4413 -0.1886
O7 O 0.6208(7) 0.1445(3) -0.3455(3)
H19 H 0.6446 0.0782 -0.3447
O8 O 0.8439(8) 0.1313(4) -0.4362(3)
C28 C 0.7174(9) 0.4933(5) -0.4645(3)
H20 H 0.7577 0.5406 -0.5057
I1 I 0.71454(8) 0.13224(4) -0.00836(3)
I2 I 0.87408(8) 0.16275(4) 0.12880(3)
I3 I 0.54627(10) 0.11978(5) -0.14043(3)
O9 O 1.2962(8) 0.9465(5) -0.3760(3)
O10 O 0.6849(12) 0.9288(7) -0.4833(5)
loop_
_geom_bond_atom_site_label_1
_geom_bond_atom_site_label_2
_geom_bond_site_symmetry_1
_geom_bond_site_symmetry_2
C1 H1 1_555 1_555
C2 H2 1_555 1_555
C3 C2 1_555 1_555
H3 C3 1_555 1_555
C4 C1 1_555 1_555
H4 C4 1_555 1_555
C5 C3 1_555 1_555
C6 C5 1_555 1_555
C7 C8 1_555 1_555
C8 C14 1_555 1_555
C9 C7 1_555 1_555
C10 C9 1_555 1_555
H5 C10 1_555 1_555
C11 C10 1_555 1_555
H6 C11 1_555 1_555
C12 H7 1_555 1_555
C13 C9 1_555 1_555
H8 C13 1_555 1_555
C14 C15 1_555 1_555
C15 H9 1_555 1_555
C16 C15 1_555 1_555
H10 C16 1_555 1_555
C17 H11 1_555 1_555
C18 C14 1_555 1_555
H12 C18 1_555 1_555
N1 C1 1_555 1_555
N2 C6 1_555 1_555
H13 N2 1_555 1_555
N3 C6 1_555 1_555
H14 N3 1_555 1_555
N4 C11 1_555 1_555
N5 C16 1_555 1_555
C19 C20 1_555 1_555
C20 C22 1_555 1_555
C21 C22 1_555 1_555
C22 C23 1_555 1_555
C23 H15 1_555 1_555
C24 C23 1_555 1_555
C25 C24 1_555 1_555
C26 C24 1_555 1_555
C27 C26 1_555 1_555
O1 C27 1_555 1_555
H16 O1 1_555 1_555
O2 C27 1_555 1_555
O3 C19 1_555 1_555
O4 C19 1_555 1_555
H17 O4 1_555 1_555
O5 C21 1_555 1_555
O6 C21 1_555 1_555
H18 O6 1_555 1_555
O7 C25 1_555 1_555
H19 O7 1_555 1_555
O8 C25 1_555 1_555
C28 C20 1_555 1_555
H20 C28 1_555 1_555
I1 I2 1_555 1_555
I3 I1 1_555 1_555
C2 N1 1_555 1_555
C4 C5 1_555 1_555
C7 N3 1_555 1_555
C8 N2 1_555 1_555
C12 C13 1_555 1_555
C12 N4 1_555 1_555
C17 C18 1_555 1_555
C17 N5 1_555 1_555
C26 C28 1_555 1_555

#END
