
#######################################################################
#
#                 Cambridge Crystallographic Data Centre
#                                CCDC 
#
#######################################################################
#
# If this CIF has been generated from an entry in the Cambridge 
# Structural Database, then it will include bibliographic, chemical, 
# crystal, experimental, refinement or atomic coordinate data resulting 
# from the CCDC's data processing and validation procedures.
#
#######################################################################

data_REQJAB
_chemical_formula_moiety         'C12 H12 N2 O1'
_chemical_name_systematic        
(5-oxo-2,3,4,5-tetrahydro-1H-1-benzazepin-1-yl)acetonitrile
_symmetry_cell_setting           monoclinic
_symmetry_space_group_name_H-M   'P 21/n'
_symmetry_Int_Tables_number      14
_space_group_name_Hall           '-P 2yn'
loop_
_symmetry_equiv_pos_site_id
_symmetry_equiv_pos_as_xyz
1 x,y,z
2 1/2-x,1/2+y,1/2-z
3 -x,-y,-z
4 1/2+x,1/2-y,1/2+z
_cell_length_a                   10.4481(12)
_cell_length_b                   7.0131(8)
_cell_length_c                   13.7142(16)
_cell_angle_alpha                90
_cell_angle_beta                 99.787(2)
_cell_angle_gamma                90
_cell_volume                     990.264
_exptl_crystal_colour            colorless
_exptl_crystal_description       block
_cell_formula_units_Z            4
loop_
_atom_site_label
_atom_site_type_symbol
_atom_site_fract_x
_atom_site_fract_y
_atom_site_fract_z
O1 O 0.54019(6) 0.25024(10) 0.55026(4)
N1 N -0.12705(8) 0.25956(14) 0.37847(7)
N2 N 0.18853(6) 0.18315(10) 0.35918(5)
C1 C -0.04213(8) 0.22397(13) 0.33843(7)
C2 C 0.06763(7) 0.17644(12) 0.28812(6)
H1 H 0.0553 0.0473 0.2589
H2 H 0.0716 0.2685 0.2340
C3 C 0.30463(7) 0.19107(11) 0.32190(5)
C4 C 0.42439(7) 0.21465(11) 0.38742(5)
C5 C 0.54096(7) 0.20084(11) 0.35030(6)
H3 H 0.6210 0.2102 0.3948
C6 C 0.54259(8) 0.17381(12) 0.25035(6)
H4 H 0.6225 0.1633 0.2265
C7 C 0.19159(7) 0.07562(11) 0.45223(5)
H5 H 0.2616 -0.0209 0.4586
H6 H 0.1081 0.0078 0.4503
C8 C 0.21468(8) 0.20790(12) 0.54187(6)
H7 H 0.2419 0.1320 0.6027
H8 H 0.1330 0.2747 0.5480
C9 C 0.32041(8) 0.35496(12) 0.53084(6)
H9 H 0.2825 0.4552 0.4838
H10 H 0.3503 0.4164 0.5957
C10 C 0.43581(8) 0.26731(11) 0.49437(5)
C11 C 0.42428(8) 0.16226(12) 0.18528(6)
H11 H 0.4241 0.1487 0.1163
C12 C 0.30698(8) 0.17032(11) 0.22002(5)
H12 H 0.2276 0.1618 0.1747
loop_
_geom_bond_atom_site_label_1
_geom_bond_atom_site_label_2
_geom_bond_site_symmetry_1
_geom_bond_site_symmetry_2
O1 C10 1_555 1_555
N1 C1 1_555 1_555
N2 C2 1_555 1_555
C1 C2 1_555 1_555
C2 H1 1_555 1_555
H2 C2 1_555 1_555
C3 N2 1_555 1_555
C4 C3 1_555 1_555
C5 C4 1_555 1_555
H3 C5 1_555 1_555
C6 C5 1_555 1_555
H4 C6 1_555 1_555
C7 N2 1_555 1_555
H5 C7 1_555 1_555
H6 C7 1_555 1_555
C8 C7 1_555 1_555
H7 C8 1_555 1_555
H8 C8 1_555 1_555
C9 C8 1_555 1_555
H9 C9 1_555 1_555
H10 C9 1_555 1_555
C10 C4 1_555 1_555
C11 C6 1_555 1_555
H11 C11 1_555 1_555
C12 C3 1_555 1_555
H12 C12 1_555 1_555
C9 C10 1_555 1_555
C11 C12 1_555 1_555

#END
