
#######################################################################
#
#                 Cambridge Crystallographic Data Centre
#                                CCDC 
#
#######################################################################
#
# If this CIF has been generated from an entry in the Cambridge 
# Structural Database, then it will include bibliographic, chemical, 
# crystal, experimental, refinement or atomic coordinate data resulting 
# from the CCDC's data processing and validation procedures.
#
#######################################################################

data_REQJAA
_chemical_formula_moiety         'C40 H56 B1 N1 S4'
_chemical_name_systematic        
2,5,9,12-Tetrahexylbisthieno[2',3':5,6;3'',2'':3,4][1,2]azaborinino[1,2-a]bisthieno[3,2-c:2',3'-e][1,2]azaborinine
_symmetry_cell_setting           triclinic
_symmetry_space_group_name_H-M   'P -1'
_symmetry_Int_Tables_number      2
_space_group_name_Hall           '-P 1'
loop_
_symmetry_equiv_pos_site_id
_symmetry_equiv_pos_as_xyz
1 x,y,z
2 -x,-y,-z
_cell_length_a                   9.2070(12)
_cell_length_b                   9.6380(13)
_cell_length_c                   11.6280(19)
_cell_angle_alpha                77.180(11)
_cell_angle_beta                 85.610(12)
_cell_angle_gamma                71.030(10)
_cell_volume                     951.459
_exptl_crystal_colour            colorless
_exptl_crystal_description       prism
_cell_formula_units_Z            1
loop_
_atom_site_label
_atom_site_type_symbol
_atom_site_fract_x
_atom_site_fract_y
_atom_site_fract_z
S1 S 0.19629(4) 0.02905(4) 0.60801(3)
S2 S 0.45206(4) 0.20430(4) 0.47711(3)
C1 C 0.15367(14) 0.22007(14) 0.55644(11)
C2 C -0.00097(14) 0.29729(14) 0.56727(12)
C3 C -0.08364(15) 0.19450(15) 0.61581(12)
H1 H -0.1916 0.2260 0.6282
C4 C 0.00534(15) 0.04795(16) 0.64269(12)
C5 C -0.04012(16) -0.08891(16) 0.69648(13)
H2 H 0.0284 -0.1478 0.7639
H3 H -0.0242 -0.1522 0.6373
C6 C -0.20568(16) -0.05426(16) 0.73924(13)
H4 H -0.2231 0.0119 0.7964
H5 H -0.2748 0.0008 0.6714
C7 C -0.24662(16) -0.19423(16) 0.79730(13)
H6 H -0.2374 -0.2564 0.7381
H7 H -0.1720 -0.2536 0.8608
C8 C -0.40774(16) -0.15988(16) 0.84908(13)
H8 H -0.4821 -0.0992 0.7856
H9 H -0.4163 -0.0987 0.9088
C9 C -0.45102(16) -0.29893(17) 0.90615(13)
H10 H -0.3751 -0.3615 0.9680
H11 H -0.4464 -0.3585 0.8459
C10 C -0.61080(18) -0.26145(19) 0.96084(14)
H12 H -0.6146 -0.2068 1.0233
H13 H -0.6344 -0.3544 0.9943
H14 H -0.6864 -0.1989 0.9001
C11 C 0.25988(14) 0.29311(14) 0.50148(11)
C12 C 0.21488(15) 0.44571(14) 0.45403(12)
C13 C 0.34125(15) 0.48621(15) 0.39266(12)
H15 H 0.3321 0.5857 0.3519
C14 C 0.47521(15) 0.37083(14) 0.39742(12)
C15 C 0.62882(16) 0.37279(15) 0.34399(12)
H16 H 0.6595 0.3023 0.2896
H17 H 0.7060 0.3360 0.4077
C16 C 0.63162(16) 0.52614(15) 0.27690(12)
H18 H 0.6013 0.5972 0.3309
H19 H 0.5554 0.5631 0.2125
C17 C 0.78904(16) 0.52286(16) 0.22494(13)
H20 H 0.8667 0.4744 0.2881
H21 H 0.8138 0.4605 0.1645
C18 C 0.80091(16) 0.67615(16) 0.16936(13)
H22 H 0.7737 0.7391 0.2294
H23 H 0.7247 0.7236 0.1051
C19 C 0.95898(17) 0.67451(17) 0.11948(13)
H24 H 1.0362 0.6242 0.1828
H25 H 0.9849 0.6154 0.0569
C20 C 0.96785(19) 0.83104(18) 0.06856(14)
H26 H 0.8926 0.8810 0.0051
H27 H 1.0713 0.8239 0.0371
H28 H 0.9454 0.8892 0.1307
B1 B -0.05466(13) 0.46265(13) 0.52839(11)
S1A S -0.19629(4) 0.97095(4) 0.39199(3)
S2A S -0.45206(4) 0.79570(4) 0.52289(3)
C1A C -0.15367(14) 0.77993(14) 0.44356(11)
C2A C 0.00097(14) 0.70271(14) 0.43273(12)
C3A C 0.08364(15) 0.80550(15) 0.38419(12)
H1A H 0.1916 0.7740 0.3718
C4A C -0.00534(15) 0.95205(16) 0.35731(12)
C5A C 0.04012(16) 1.08891(16) 0.30352(13)
H2A H -0.0284 1.1478 0.2361
H3A H 0.0242 1.1522 0.3627
C6A C 0.20568(16) 1.05426(16) 0.26076(13)
H4A H 0.2231 0.9881 0.2036
H5A H 0.2748 0.9992 0.3286
C7A C 0.24662(16) 1.19423(16) 0.20270(13)
H6A H 0.2374 1.2564 0.2619
H7A H 0.1720 1.2536 0.1392
C8A C 0.40774(16) 1.15988(16) 0.15092(13)
H8A H 0.4821 1.0992 0.2144
H9A H 0.4163 1.0987 0.0912
C9A C 0.45102(16) 1.29893(17) 0.09385(13)
H10A H 0.3751 1.3615 0.0320
H11A H 0.4464 1.3585 0.1541
C10A C 0.61080(18) 1.26145(19) 0.03916(14)
H12A H 0.6146 1.2068 -0.0233
H13A H 0.6344 1.3544 0.0057
H14A H 0.6864 1.1989 0.0999
C11A C -0.25988(14) 0.70689(14) 0.49852(11)
C12A C -0.21488(15) 0.55429(14) 0.54597(12)
C13A C -0.34125(15) 0.51379(15) 0.60734(12)
H15A H -0.3321 0.4143 0.6481
C14A C -0.47521(15) 0.62917(14) 0.60258(12)
C15A C -0.62882(16) 0.62721(15) 0.65601(12)
H16A H -0.6595 0.6977 0.7104
H17A H -0.7060 0.6640 0.5923
C16A C -0.63162(16) 0.47386(15) 0.72310(12)
H18A H -0.6013 0.4028 0.6691
H19A H -0.5554 0.4369 0.7875
C17A C -0.78904(16) 0.47714(16) 0.77506(13)
H20A H -0.8667 0.5256 0.7119
H21A H -0.8138 0.5395 0.8355
C18A C -0.80091(16) 0.32385(16) 0.83064(13)
H22A H -0.7737 0.2609 0.7706
H23A H -0.7247 0.2764 0.8949
C19A C -0.95898(17) 0.32549(17) 0.88052(13)
H24A H -1.0362 0.3758 0.8172
H25A H -0.9849 0.3846 0.9431
C20A C -0.96785(19) 0.16896(18) 0.93144(14)
H26A H -0.8926 0.1190 0.9949
H27A H -1.0713 0.1761 0.9629
H28A H -0.9454 0.1108 0.8693
B1A B 0.05466(13) 0.53735(13) 0.47161(11)
N1? N -0.05466(13) 0.46265(13) 0.52839(11)
loop_
_geom_bond_atom_site_label_1
_geom_bond_atom_site_label_2
_geom_bond_site_symmetry_1
_geom_bond_site_symmetry_2
S1 C1 1_555 1_555
S2 C11 1_555 1_555
C1 C2 1_555 1_555
C2 C3 1_555 1_555
C3 H1 1_555 1_555
C4 S1 1_555 1_555
C5 C4 1_555 1_555
H2 C5 1_555 1_555
H3 C5 1_555 1_555
C6 C5 1_555 1_555
H4 C6 1_555 1_555
H5 C6 1_555 1_555
C7 C6 1_555 1_555
H6 C7 1_555 1_555
H7 C7 1_555 1_555
C8 C7 1_555 1_555
H8 C8 1_555 1_555
H9 C8 1_555 1_555
C9 C8 1_555 1_555
H10 C9 1_555 1_555
H11 C9 1_555 1_555
C10 C9 1_555 1_555
H12 C10 1_555 1_555
H13 C10 1_555 1_555
H14 C10 1_555 1_555
C11 C1 1_555 1_555
C12 C11 1_555 1_555
C13 C12 1_555 1_555
H15 C13 1_555 1_555
C14 S2 1_555 1_555
C15 C14 1_555 1_555
H16 C15 1_555 1_555
H17 C15 1_555 1_555
C16 C15 1_555 1_555
H18 C16 1_555 1_555
H19 C16 1_555 1_555
C17 C16 1_555 1_555
H20 C17 1_555 1_555
H21 C17 1_555 1_555
C18 C17 1_555 1_555
H22 C18 1_555 1_555
H23 C18 1_555 1_555
C19 C18 1_555 1_555
H24 C19 1_555 1_555
H25 C19 1_555 1_555
C20 C19 1_555 1_555
H26 C20 1_555 1_555
H27 C20 1_555 1_555
H28 C20 1_555 1_555
B1 C2 1_555 1_555
S1A C1A 1_555 1_555
S2A C11A 1_555 1_555
C1A C2A 1_555 1_555
C2A C3A 1_555 1_555
C3A H1A 1_555 1_555
C4A S1A 1_555 1_555
C5A C4A 1_555 1_555
H2A C5A 1_555 1_555
H3A C5A 1_555 1_555
C6A C5A 1_555 1_555
H4A C6A 1_555 1_555
H5A C6A 1_555 1_555
C7A C6A 1_555 1_555
H6A C7A 1_555 1_555
H7A C7A 1_555 1_555
C8A C7A 1_555 1_555
H8A C8A 1_555 1_555
H9A C8A 1_555 1_555
C9A C8A 1_555 1_555
H10A C9A 1_555 1_555
H11A C9A 1_555 1_555
C10A C9A 1_555 1_555
H12A C10A 1_555 1_555
H13A C10A 1_555 1_555
H14A C10A 1_555 1_555
C11A C1A 1_555 1_555
C12A B1 1_555 1_555
C13A C12A 1_555 1_555
H15A C13A 1_555 1_555
C14A S2A 1_555 1_555
C15A C14A 1_555 1_555
H16A C15A 1_555 1_555
H17A C15A 1_555 1_555
C16A C15A 1_555 1_555
H18A C16A 1_555 1_555
H19A C16A 1_555 1_555
C17A C16A 1_555 1_555
H20A C17A 1_555 1_555
H21A C17A 1_555 1_555
C18A C17A 1_555 1_555
H22A C18A 1_555 1_555
H23A C18A 1_555 1_555
C19A C18A 1_555 1_555
H24A C19A 1_555 1_555
H25A C19A 1_555 1_555
C20A C19A 1_555 1_555
H26A C20A 1_555 1_555
H27A C20A 1_555 1_555
H28A C20A 1_555 1_555
B1A C12 1_555 1_555
C3 C4 1_555 1_555
C13 C14 1_555 1_555
B1 B1A 1_555 1_555
C2A B1A 1_555 1_555
C3A C4A 1_555 1_555
C11A C12A 1_555 1_555
C13A C14A 1_555 1_555

#END
