
#######################################################################
#
#                 Cambridge Crystallographic Data Centre
#                                CCDC 
#
#######################################################################
#
# If this CIF has been generated from an entry in the Cambridge 
# Structural Database, then it will include bibliographic, chemical, 
# crystal, experimental, refinement or atomic coordinate data resulting 
# from the CCDC's data processing and validation procedures.
#
#######################################################################

data_REQLOR
_chemical_formula_moiety         'C26 H26 N4 O2 S2'
_chemical_name_systematic        
'N^1^,N^3^-bis[(2,6-dimethylphenyl)carbamothioyl]benzene-1,3-dicarboxamide unknown solvate'
_symmetry_cell_setting           rhombohedral
_symmetry_space_group_name_H-M   'R -3 c'
_symmetry_Int_Tables_number      167
_space_group_name_Hall           '-R 3 2"c'
loop_
_symmetry_equiv_pos_site_id
_symmetry_equiv_pos_as_xyz
1 x,y,z
2 -y,x-y,z
3 -x+y,-x,z
4 x-y,-y,1/2-z
5 -x,-x+y,1/2-z
6 y,x,1/2-z
7 2/3+x,1/3+y,1/3+z
8 2/3-y,1/3+x-y,1/3+z
9 2/3-x+y,1/3-x,1/3+z
10 2/3+x-y,1/3-y,5/6-z
11 2/3-x,1/3-x+y,5/6-z
12 2/3+y,1/3+x,5/6-z
13 1/3+x,2/3+y,2/3+z
14 1/3-y,2/3+x-y,2/3+z
15 1/3-x+y,2/3-x,2/3+z
16 1/3+x-y,2/3-y,1/6-z
17 1/3-x,2/3-x+y,1/6-z
18 1/3+y,2/3+x,1/6-z
19 -x,-y,-z
20 y,-x+y,-z
21 x-y,x,-z
22 -x+y,y,1/2+z
23 x,x-y,1/2+z
24 -y,-x,1/2+z
25 1/3-x,2/3-y,2/3-z
26 1/3+y,2/3-x+y,2/3-z
27 1/3+x-y,2/3+x,2/3-z
28 1/3-x+y,2/3+y,1/6+z
29 1/3+x,2/3+x-y,1/6+z
30 1/3-y,2/3-x,1/6+z
31 2/3-x,1/3-y,1/3-z
32 2/3+y,1/3-x+y,1/3-z
33 2/3+x-y,1/3+x,1/3-z
34 2/3-x+y,1/3+y,5/6+z
35 2/3+x,1/3+x-y,5/6+z
36 2/3-y,1/3-x,5/6+z
_cell_length_a                   26.2140(4)
_cell_length_b                   26.2140(4)
_cell_length_c                   40.9845(7)
_cell_angle_alpha                90
_cell_angle_beta                 90
_cell_angle_gamma                120
_cell_volume                     24390.3
_exptl_crystal_colour            colorless
_exptl_crystal_description       cubic
_cell_formula_units_Z            36
loop_
_atom_site_label
_atom_site_type_symbol
_atom_site_fract_x
_atom_site_fract_y
_atom_site_fract_z
N1 N 0.30120(17) 0.95977(17) 0.29866(9)
H1 H 0.2864 0.9593 0.2799
N2 N 0.37017(17) 1.01528(17) 0.33764(10)
H2 H 0.3581 0.9825 0.3478
N3 N 0.13387(19) 0.87439(18) 0.21759(10)
H3 H 0.1688 0.8999 0.2238
N4 N 0.05746(17) 0.85427(18) 0.18215(10)
H4 H 0.0406 0.8189 0.1896
O1 O 0.29469(14) 0.90084(14) 0.34070(8)
O2 O 0.06181(15) 0.77969(15) 0.22474(9)
S1 S 0.37021(7) 1.07258(6) 0.28442(3)
S2 S 0.14933(7) 0.96240(7) 0.18050(4)
C1 C 0.3473(2) 1.0140(2) 0.30858(12)
C2 C 0.2761(2) 0.9068(2) 0.31476(11)
C3 C 0.1100(2) 0.8928(2) 0.19330(13)
C4 C 0.1091(2) 0.8209(2) 0.23297(12)
C5 C 0.19168(19) 0.86401(19) 0.27440(11)
H5 H 0.2008 0.9018 0.2683
C6 C 0.14500(19) 0.8157(2) 0.25941(11)
C7 C 0.1306(2) 0.7597(2) 0.26948(13)
H6 H 0.0989 0.7269 0.2600
C8 C 0.1632(3) 0.7523(2) 0.29365(14)
H7 H 0.1537 0.7146 0.3002
C9 C 0.2095(2) 0.8007(2) 0.30801(13)
H8 H 0.2308 0.7955 0.3245
C10 C 0.22476(19) 0.85681(19) 0.29822(11)
C11 C 0.4145(2) 1.0691(2) 0.35321(12)
C12 C 0.4731(3) 1.0853(3) 0.35006(15)
C13 C 0.5142(3) 1.1354(3) 0.3672(2)
H9 H 0.5540 1.1472 0.3661
C14 C 0.4963(4) 1.1666(3) 0.3852(2)
H10 H 0.5241 1.2005 0.3959
C15 C 0.4375(4) 1.1491(3) 0.38786(18)
H11 H 0.4260 1.1708 0.4008
C16 C 0.3953(3) 1.1000(3) 0.37162(14)
C17 C 0.3310(3) 1.0806(3) 0.37362(18)
H12 H 0.3150 1.0752 0.3520
H13 H 0.3261 1.1100 0.3848
H14 H 0.3107 1.0441 0.3854
C18 C 0.4926(3) 1.0515(4) 0.3292(2)
H15 H 0.4675 1.0101 0.3331
H16 H 0.5325 1.0627 0.3345
H17 H 0.4903 1.0600 0.3066
C19 C 0.0271(2) 0.8691(2) 0.15799(15)
C20 C -0.0096(3) 0.8901(3) 0.1687(2)
C21 C -0.0371(3) 0.9050(3) 0.1432(3)
H18 H -0.0610 0.9207 0.1485
C22 C -0.0287(4) 0.8966(4) 0.1113(3)
H19 H -0.0473 0.9064 0.0952
C23 C 0.0052(4) 0.8749(4) 0.1025(2)
H20 H 0.0095 0.8695 0.0804
C24 C 0.0343(3) 0.8601(3) 0.12550(15)
C25 C 0.0720(3) 0.8351(4) 0.11521(17)
H21 H 0.1127 0.8640 0.1184
H22 H 0.0651 0.8244 0.0926
H23 H 0.0623 0.8008 0.1281
C26 C -0.0178(4) 0.8963(4) 0.2040(2)
H24 H 0.0187 0.9260 0.2132
H25 H -0.0303 0.8594 0.2148
H26 H -0.0472 0.9076 0.2068
loop_
_geom_bond_atom_site_label_1
_geom_bond_atom_site_label_2
_geom_bond_site_symmetry_1
_geom_bond_site_symmetry_2
N1 H1 1_555 1_555
N2 H2 1_555 1_555
N3 H3 1_555 1_555
N4 H4 1_555 1_555
O1 C2 1_555 1_555
O2 C4 1_555 1_555
S1 C1 1_555 1_555
S2 C3 1_555 1_555
C1 N1 1_555 1_555
C2 N1 1_555 1_555
C3 N3 1_555 1_555
C4 N3 1_555 1_555
C5 H5 1_555 1_555
C6 C4 1_555 1_555
C7 C6 1_555 1_555
H6 C7 1_555 1_555
C8 C7 1_555 1_555
H7 C8 1_555 1_555
C9 C8 1_555 1_555
H8 C9 1_555 1_555
C10 C2 1_555 1_555
C11 N2 1_555 1_555
C12 C11 1_555 1_555
C13 C12 1_555 1_555
H9 C13 1_555 1_555
C14 C13 1_555 1_555
H10 C14 1_555 1_555
C15 C14 1_555 1_555
H11 C15 1_555 1_555
C16 C11 1_555 1_555
C17 C16 1_555 1_555
H12 C17 1_555 1_555
H13 C17 1_555 1_555
H14 C17 1_555 1_555
C18 C12 1_555 1_555
H15 C18 1_555 1_555
H16 C18 1_555 1_555
H17 C18 1_555 1_555
C19 N4 1_555 1_555
C20 C19 1_555 1_555
C21 C20 1_555 1_555
H18 C21 1_555 1_555
C22 C21 1_555 1_555
H19 C22 1_555 1_555
C23 C22 1_555 1_555
H20 C23 1_555 1_555
C24 C19 1_555 1_555
C25 C24 1_555 1_555
H21 C25 1_555 1_555
H22 C25 1_555 1_555
H23 C25 1_555 1_555
C26 C20 1_555 1_555
H24 C26 1_555 1_555
H25 C26 1_555 1_555
H26 C26 1_555 1_555
N2 C1 1_555 1_555
N4 C3 1_555 1_555
C5 C6 1_555 1_555
C5 C10 1_555 1_555
C9 C10 1_555 1_555
C15 C16 1_555 1_555
C23 C24 1_555 1_555

#END
