
#######################################################################
#
#                 Cambridge Crystallographic Data Centre
#                                CCDC 
#
#######################################################################
#
# If this CIF has been generated from an entry in the Cambridge 
# Structural Database, then it will include bibliographic, chemical, 
# crystal, experimental, refinement or atomic coordinate data resulting 
# from the CCDC's data processing and validation procedures.
#
#######################################################################

data_REQNIL
_chemical_formula_moiety         'C46 H39 N5 O2 S1'
_chemical_name_systematic        
1'-methyl-4',5''-diphenyl-7''-(phenylmethyl)-9''-(phenylmethylidene)-6'',7'',8'',9''-tetrahydro-5''H-dispiro[indole-3,2'-pyrrolidine-3',2''-pyrido[4,3-d][1,3]thiazolo[3,2-a]pyrimidine]-2,3''(1H)-dione
_symmetry_cell_setting           triclinic
_symmetry_space_group_name_H-M   'P -1'
_symmetry_Int_Tables_number      2
_space_group_name_Hall           '-P 1'
loop_
_symmetry_equiv_pos_site_id
_symmetry_equiv_pos_as_xyz
1 x,y,z
2 -x,-y,-z
_cell_length_a                   12.0628(18)
_cell_length_b                   12.7719(18)
_cell_length_c                   14.662(2)
_cell_angle_alpha                73.748(2)
_cell_angle_beta                 74.358(2)
_cell_angle_gamma                63.930(2)
_cell_volume                     1919.62
_exptl_crystal_colour            'pale yellow'
_exptl_crystal_description       slab
_chemical_melting_point          '210-211 deg.C'
_cell_formula_units_Z            2
_exptl_crystal_recrystallization_method acetonitrile
loop_
_atom_site_label
_atom_site_type_symbol
_atom_site_fract_x
_atom_site_fract_y
_atom_site_fract_z
S1 S 0.69329(5) 0.10458(4) 0.26955(4)
N1 N 0.73019(15) 0.29353(14) 0.17382(11)
N2 N 0.67101(16) 0.20172(14) 0.08594(11)
N3 N 0.68052(15) 0.46917(15) -0.15868(11)
N4 N 0.72555(15) 0.19187(14) 0.49638(11)
N5 N 0.46792(16) 0.15171(16) 0.48868(13)
H1 H 0.422(2) 0.109(2) 0.5041(17)
O1 O 0.75697(14) 0.36957(12) 0.28494(10)
O2 O 0.65891(13) -0.00501(12) 0.47649(10)
C1 C 0.73623(17) 0.17989(16) 0.33519(13)
C2 C 0.73922(18) 0.29304(17) 0.26526(13)
C3 C 0.69870(17) 0.20662(16) 0.16206(13)
C4 C 0.66374(18) 0.30091(17) 0.00904(13)
C5 C 0.70595(18) 0.38171(18) 0.00899(13)
C6 C 0.77093(19) 0.36991(18) 0.08764(13)
H2 H 0.7434 0.4486 0.1026
C7 C 0.6972(2) 0.48629(18) -0.07031(14)
H3 H 0.6272 0.5558 -0.0503
H4 H 0.7730 0.5006 -0.0824
C8 C 0.58224(19) 0.42562(19) -0.14294(14)
H5 H 0.5787 0.4116 -0.2036
H6 H 0.5023 0.4865 -0.1224
C9 C 0.60118(18) 0.31298(18) -0.06882(14)
C10 C 0.87192(18) 0.11074(17) 0.36494(14)
H7 H 0.9145 0.1656 0.3401
C11 C 0.84628(19) 0.09645(18) 0.47401(14)
H8 H 0.8428 0.0197 0.5042
H9 H 0.9111 0.1035 0.4962
C12 C 0.64453(17) 0.20116(16) 0.43312(13)
C13 C 0.59329(19) 0.10164(18) 0.46806(14)
C14 C 0.42338(19) 0.27599(18) 0.47067(14)
C15 C 0.52333(18) 0.31107(17) 0.43564(13)
C16 C 0.4996(2) 0.43000(18) 0.41817(15)
H10 H 0.5647 0.4560 0.3959
C17 C 0.3757(2) 0.5106(2) 0.43462(17)
H11 H 0.3583 0.5912 0.4226
C18 C 0.2790(2) 0.4733(2) 0.46818(17)
H12 H 0.1973 0.5291 0.4782
C19 C 0.3007(2) 0.3547(2) 0.48735(16)
H13 H 0.2354 0.3289 0.5105
C20 C 0.9129(2) 0.3187(2) 0.06059(15)
C21 C 0.9828(3) 0.3562(3) 0.0947(2)
H14 H 0.9431 0.4142 0.1327
C22 C 1.1127(3) 0.3067(4) 0.0721(3)
H15 H 1.1599 0.3311 0.0958
C23 C 1.1714(3) 0.2228(4) 0.0152(3)
H16 H 1.2583 0.1916 -0.0010
C24 C 1.1033(3) 0.1843(4) -0.0179(3)
H17 H 1.1435 0.1256 -0.0554
C25 C 0.9736(2) 0.2332(3) 0.0045(2)
H18 H 0.9271 0.2076 -0.0188
C26 C 0.6537(2) 0.5804(2) -0.22881(15)
H19 H 0.5860 0.6435 -0.1984
H20 H 0.6252 0.5733 -0.2818
C27 C 0.7650(2) 0.6146(2) -0.26869(15)
C28 C 0.7486(3) 0.7321(3) -0.3001(2)
H21 H 0.6688 0.7917 -0.2918
C29 C 0.8527(4) 0.7619(3) -0.3449(2)
H22 H 0.8413 0.8412 -0.3658
C30 C 0.9690(4) 0.6760(4) -0.3577(2)
H23 H 1.0369 0.6962 -0.3888
C31 C 0.9867(3) 0.5608(3) -0.3252(2)
H24 H 1.0671 0.5020 -0.3326
C32 C 0.8858(3) 0.5299(2) -0.28112(18)
H25 H 0.8995 0.4502 -0.2593
C33 C 0.56350(19) 0.22863(19) -0.06855(14)
H26 H 0.5835 0.1643 -0.0180
C34 C 0.4957(2) 0.2199(2) -0.13446(15)
C35 C 0.5067(3) 0.1077(2) -0.13680(19)
H27 H 0.5590 0.0416 -0.0997
C36 C 0.4421(3) 0.0920(3) -0.1927(2)
H28 H 0.4512 0.0159 -0.1931
C37 C 0.3644(3) 0.1877(3) -0.2477(2)
H29 H 0.3204 0.1771 -0.2851
C38 C 0.3522(3) 0.2993(3) -0.24715(19)
H30 H 0.2999 0.3645 -0.2848
C39 C 0.4167(2) 0.3162(2) -0.19119(17)
H31 H 0.4071 0.3926 -0.1915
C40 C 0.95506(19) 0.00052(19) 0.32332(15)
C41 C 0.9489(2) -0.1090(2) 0.36429(18)
H32 H 0.8920 -0.1165 0.4204
C42 C 1.0262(3) -0.2072(2) 0.3226(2)
H33 H 1.0215 -0.2803 0.3512
C43 C 1.1098(3) -0.1977(3) 0.2396(2)
H34 H 1.1613 -0.2638 0.2114
C44 C 1.1167(3) -0.0908(3) 0.1989(2)
H35 H 1.1732 -0.0840 0.1423
C45 C 1.0409(2) 0.0082(2) 0.24029(18)
H36 H 1.0480 0.0804 0.2120
C46 C 0.6734(2) 0.1767(2) 0.59936(14)
H37 H 0.6662 0.1014 0.6204
H38 H 0.5922 0.2391 0.6103
H39 H 0.7278 0.1797 0.6350
loop_
_geom_bond_atom_site_label_1
_geom_bond_atom_site_label_2
_geom_bond_site_symmetry_1
_geom_bond_site_symmetry_2
S1 C1 1_555 1_555
N1 C2 1_555 1_555
N2 C3 1_555 1_555
N3 C7 1_555 1_555
N4 C11 1_555 1_555
N5 H1 1_555 1_555
O1 C2 1_555 1_555
O2 C13 1_555 1_555
C1 C2 1_555 1_555
C3 S1 1_555 1_555
C4 N2 1_555 1_555
C5 C4 1_555 1_555
C6 N1 1_555 1_555
H2 C6 1_555 1_555
C7 C5 1_555 1_555
H3 C7 1_555 1_555
H4 C7 1_555 1_555
C8 N3 1_555 1_555
H5 C8 1_555 1_555
H6 C8 1_555 1_555
C9 C4 1_555 1_555
C10 C1 1_555 1_555
H7 C10 1_555 1_555
C11 C10 1_555 1_555
H8 C11 1_555 1_555
H9 C11 1_555 1_555
C12 N4 1_555 1_555
C13 N5 1_555 1_555
C14 N5 1_555 1_555
C15 C12 1_555 1_555
C16 C15 1_555 1_555
H10 C16 1_555 1_555
C17 C16 1_555 1_555
H11 C17 1_555 1_555
C18 C17 1_555 1_555
H12 C18 1_555 1_555
C19 C14 1_555 1_555
H13 C19 1_555 1_555
C20 C6 1_555 1_555
C21 C20 1_555 1_555
H14 C21 1_555 1_555
C22 C21 1_555 1_555
H15 C22 1_555 1_555
C23 C22 1_555 1_555
H16 C23 1_555 1_555
C24 C23 1_555 1_555
H17 C24 1_555 1_555
C25 C20 1_555 1_555
H18 C25 1_555 1_555
C26 N3 1_555 1_555
H19 C26 1_555 1_555
H20 C26 1_555 1_555
C27 C26 1_555 1_555
C28 C27 1_555 1_555
H21 C28 1_555 1_555
C29 C28 1_555 1_555
H22 C29 1_555 1_555
C30 C29 1_555 1_555
H23 C30 1_555 1_555
C31 C30 1_555 1_555
H24 C31 1_555 1_555
C32 C27 1_555 1_555
H25 C32 1_555 1_555
C33 C9 1_555 1_555
H26 C33 1_555 1_555
C34 C33 1_555 1_555
C35 C34 1_555 1_555
H27 C35 1_555 1_555
C36 C35 1_555 1_555
H28 C36 1_555 1_555
C37 C36 1_555 1_555
H29 C37 1_555 1_555
C38 C37 1_555 1_555
H30 C38 1_555 1_555
C39 C34 1_555 1_555
H31 C39 1_555 1_555
C40 C10 1_555 1_555
C41 C40 1_555 1_555
H32 C41 1_555 1_555
C42 C41 1_555 1_555
H33 C42 1_555 1_555
C43 C42 1_555 1_555
H34 C43 1_555 1_555
C44 C43 1_555 1_555
H35 C44 1_555 1_555
C45 C40 1_555 1_555
H36 C45 1_555 1_555
C46 N4 1_555 1_555
H37 C46 1_555 1_555
H38 C46 1_555 1_555
H39 C46 1_555 1_555
N1 C3 1_555 1_555
C1 C12 1_555 1_555
C5 C6 1_555 1_555
C8 C9 1_555 1_555
C12 C13 1_555 1_555
C14 C15 1_555 1_555
C18 C19 1_555 1_555
C24 C25 1_555 1_555
C31 C32 1_555 1_555
C38 C39 1_555 1_555
C44 C45 1_555 1_555

#END
