
#######################################################################
#
#                 Cambridge Crystallographic Data Centre
#                                CCDC 
#
#######################################################################
#
# If this CIF has been generated from an entry in the Cambridge 
# Structural Database, then it will include bibliographic, chemical, 
# crystal, experimental, refinement or atomic coordinate data resulting 
# from the CCDC's data processing and validation procedures.
#
#######################################################################

data_REQNAF
_chemical_formula_moiety         'C26 H26 N4 O4,2(C2 H6 O1 S1)'
_chemical_name_systematic        
'N^1^,N^4^-bis[(2,6-dimethylphenyl)carbamoyl]benzene-1,4-dicarboxamide dimethyl sulfoxide solvate'
_symmetry_cell_setting           triclinic
_symmetry_space_group_name_H-M   'P -1'
_symmetry_Int_Tables_number      2
_space_group_name_Hall           '-P 1'
loop_
_symmetry_equiv_pos_site_id
_symmetry_equiv_pos_as_xyz
1 x,y,z
2 -x,-y,-z
_cell_length_a                   8.4442(6)
_cell_length_b                   8.7950(7)
_cell_length_c                   12.4541(10)
_cell_angle_alpha                70.069(4)
_cell_angle_beta                 75.210(4)
_cell_angle_gamma                65.512(4)
_cell_volume                     784.257
_exptl_crystal_colour            colorless
_exptl_crystal_description       block
_cell_formula_units_Z            1
loop_
_atom_site_label
_atom_site_type_symbol
_atom_site_fract_x
_atom_site_fract_y
_atom_site_fract_z
O1 O 0.21410(14) -0.04690(17) 0.26719(10)
N1 N -0.07780(16) 0.01741(17) 0.32231(11)
H1 H -0.0531 -0.0707 0.3813
N2 N 0.03042(18) 0.1773(2) 0.14889(12)
O2 O -0.30700(15) 0.23582(17) 0.23560(12)
C1 C 0.06739(19) 0.0473(2) 0.24414(13)
C2 C -0.25171(19) 0.1110(2) 0.31569(13)
C3 C -0.37674(17) 0.05000(17) 0.41317(12)
C4 C -0.34247(18) -0.01691(19) 0.52640(13)
H2 H -0.2369 -0.0283 0.5442
C5 C -0.53492(18) 0.06678(19) 0.38699(13)
H3 H -0.5582 0.1117 0.3111
C6 C 0.16365(18) 0.2338(2) 0.06832(12)
C7 C 0.1871(2) 0.3765(2) 0.07730(14)
C8 C 0.3097(2) 0.4376(3) -0.00345(18)
H4 H 0.3260 0.5340 0.0001
C9 C 0.4058(2) 0.3577(3) -0.08752(18)
H5 H 0.4875 0.4000 -0.1408
C10 C 0.3842(2) 0.2155(3) -0.09510(15)
H6 H 0.4529 0.1615 -0.1525
C11 C 0.2597(2) 0.1504(2) -0.01727(15)
C12 C 0.2314(3) 0.0003(3) -0.0299(2)
H7 H 0.2134 -0.0751 0.0449
H8 H 0.3326 -0.0625 -0.0746
H9 H 0.1299 0.0425 -0.0681
C13 C 0.0812(3) 0.4647(3) 0.16999(19)
H10 H 0.0978 0.3821 0.2440
H11 H -0.0408 0.5120 0.1605
H12 H 0.1188 0.5564 0.1649
H13 H -0.071(3) 0.240(3) 0.1435(18)
O1A O -1.21410(14) 0.04690(17) 0.73281(10)
N1A N -0.92220(16) -0.01741(17) 0.67769(11)
H1A H -0.9469 0.0707 0.6187
N2A N -1.03042(18) -0.1773(2) 0.85111(12)
O2A O -0.69300(15) -0.23582(17) 0.76440(12)
C1A C -1.06739(19) -0.0473(2) 0.75586(13)
C2A C -0.74829(19) -0.1110(2) 0.68431(13)
C3A C -0.62326(17) -0.05000(17) 0.58683(12)
C4A C -0.65753(18) 0.01691(19) 0.47360(13)
H2A H -0.7631 0.0283 0.4558
C5A C -0.46508(18) -0.06678(19) 0.61301(13)
H3A H -0.4418 -0.1117 0.6889
C6A C -1.16365(18) -0.2338(2) 0.93168(12)
C7A C -1.1871(2) -0.3765(2) 0.92270(14)
C8A C -1.3097(2) -0.4376(3) 1.00345(18)
H4A H -1.3260 -0.5340 0.9999
C9A C -1.4058(2) -0.3577(3) 1.08752(18)
H5A H -1.4875 -0.4000 1.1408
C10A C -1.3842(2) -0.2155(3) 1.09510(15)
H6A H -1.4529 -0.1615 1.1525
C11A C -1.2597(2) -0.1504(2) 1.01727(15)
C12A C -1.2314(3) -0.0003(3) 1.0299(2)
H7A H -1.2134 0.0751 0.9551
H8A H -1.3326 0.0625 1.0746
H9A H -1.1299 -0.0425 1.0681
C13A C -1.0812(3) -0.4647(3) 0.83001(19)
H10A H -1.0978 -0.3821 0.7560
H11A H -0.9592 -0.5120 0.8395
H12A H -1.1188 -0.5564 0.8351
H13A H -0.929(3) -0.240(3) 0.8565(18)
C14 C 0.2844(3) 0.5319(3) 0.37520(19)
H14 H 0.2104 0.4687 0.3842
H15 H 0.4053 0.4576 0.3656
H16 H 0.2610 0.6295 0.3086
C15 C 0.2650(3) 0.4016(3) 0.6010(2)
H17 H 0.2498 0.4135 0.6771
H18 H 0.3801 0.3197 0.5850
H19 H 0.1782 0.3612 0.5960
O3 O 0.04942(17) 0.71231(17) 0.51125(12)
S1 S 0.24092(5) 0.60570(5) 0.49891(4)
loop_
_geom_bond_atom_site_label_1
_geom_bond_atom_site_label_2
_geom_bond_site_symmetry_1
_geom_bond_site_symmetry_2
O1 C1 1_555 1_555
N1 H1 1_555 1_555
N2 C1 1_555 1_555
O2 C2 1_555 1_555
C1 N1 1_555 1_555
C2 N1 1_555 1_555
C3 C2 1_555 1_555
C4 C3 1_555 1_555
H2 C4 1_555 1_555
C5 C3 1_555 1_555
H3 C5 1_555 1_555
C6 N2 1_555 1_555
C7 C6 1_555 1_555
C8 C7 1_555 1_555
H4 C8 1_555 1_555
C9 C8 1_555 1_555
H5 C9 1_555 1_555
C10 C9 1_555 1_555
H6 C10 1_555 1_555
C11 C6 1_555 1_555
C12 C11 1_555 1_555
H7 C12 1_555 1_555
H8 C12 1_555 1_555
H9 C12 1_555 1_555
C13 C7 1_555 1_555
H10 C13 1_555 1_555
H11 C13 1_555 1_555
H12 C13 1_555 1_555
H13 N2 1_555 1_555
C14 H14 1_555 1_555
H15 C14 1_555 1_555
H16 C14 1_555 1_555
C15 H17 1_555 1_555
H18 C15 1_555 1_555
H19 C15 1_555 1_555
O3 S1 1_555 1_555
S1 C14 1_555 1_555
O1A C1A 1_555 1_555
N1A H1A 1_555 1_555
N2A C1A 1_555 1_555
O2A C2A 1_555 1_555
C1A N1A 1_555 1_555
C2A N1A 1_555 1_555
C3A C2A 1_555 1_555
C4A C5 1_555 1_555
H2A C4A 1_555 1_555
C5A C4 1_555 1_555
H3A C5A 1_555 1_555
C6A N2A 1_555 1_555
C7A C6A 1_555 1_555
C8A C7A 1_555 1_555
H4A C8A 1_555 1_555
C9A C8A 1_555 1_555
H5A C9A 1_555 1_555
C10A C9A 1_555 1_555
H6A C10A 1_555 1_555
C11A C6A 1_555 1_555
C12A C11A 1_555 1_555
H7A C12A 1_555 1_555
H8A C12A 1_555 1_555
H9A C12A 1_555 1_555
C13A C7A 1_555 1_555
H10A C13A 1_555 1_555
H11A C13A 1_555 1_555
H12A C13A 1_555 1_555
H13A N2A 1_555 1_555
C10 C11 1_555 1_555
C15 S1 1_555 1_555
C3A C4A 1_555 1_555
C3A C5A 1_555 1_555
C10A C11A 1_555 1_555

#END
