
#######################################################################
#
#                 Cambridge Crystallographic Data Centre
#                                CCDC 
#
#######################################################################
#
# If this CIF has been generated from an entry in the Cambridge 
# Structural Database, then it will include bibliographic, chemical, 
# crystal, experimental, refinement or atomic coordinate data resulting 
# from the CCDC's data processing and validation procedures.
#
#######################################################################

data_REQQAH
_chemical_formula_moiety         'C16 H15 Cl1 N4 O2'
_chemical_name_systematic        
3-(5-t-Butyl-1,2-oxazol-3-yl)-2-((3-chlorophenyl)hydrazono)-3-oxopropanenitrile
_symmetry_cell_setting           triclinic
_symmetry_space_group_name_H-M   'P -1'
_symmetry_Int_Tables_number      2
_space_group_name_Hall           '-P 1'
loop_
_symmetry_equiv_pos_site_id
_symmetry_equiv_pos_as_xyz
1 x,y,z
2 -x,-y,-z
_cell_length_a                   5.7618(15)
_cell_length_b                   7.0258(19)
_cell_length_c                   22.527(6)
_cell_angle_alpha                86.562(18)
_cell_angle_beta                 83.460(18)
_cell_angle_gamma                73.28(2)
_cell_volume                     867.329
_exptl_crystal_colour            yellow
_exptl_crystal_description       'thin rectangular plate'
_cell_formula_units_Z            2
loop_
_atom_site_label
_atom_site_type_symbol
_atom_site_fract_x
_atom_site_fract_y
_atom_site_fract_z
Cl1 Cl -0.9110(5) 1.3145(4) 0.79453(11)
C1 C -0.8203(14) 1.3117(12) 0.7160(4)
C2 C -0.5886(13) 1.2093(11) 0.6977(3)
C3 C -0.5180(11) 1.2035(10) 0.6378(3)
N1 N -0.2811(9) 1.0904(9) 0.6157(2)
N2 N -0.1275(9) 0.9979(8) 0.6519(2)
C4 C 0.0933(11) 0.8933(10) 0.6328(3)
C5 C 0.2715(12) 0.7950(11) 0.6749(3)
O1 O 0.4777(8) 0.7106(8) 0.6559(2)
C6 C 0.2021(12) 0.7992(11) 0.7407(3)
N3 N -0.0167(10) 0.8350(10) 0.7662(3)
O2 O 0.0032(8) 0.8176(9) 0.8275(2)
C7 C 0.2407(13) 0.7670(13) 0.8356(3)
C8 C 0.3716(14) 0.7549(13) 0.7841(3)
C9 C 0.3026(17) 0.7362(18) 0.8997(4)
C10 C 0.544(2) 0.571(3) 0.8996(6)
C11 C 0.128(3) 0.673(4) 0.9408(6)
C12 C 0.371(4) 0.921(3) 0.9170(7)
C13 C 0.1791(12) 0.8687(12) 0.5702(3)
N4 N 0.2373(13) 0.8550(13) 0.5207(3)
C14 C -0.6768(14) 1.2977(12) 0.5964(4)
C15 C -0.9177(14) 1.4080(12) 0.6191(4)
C16 C -0.9857(13) 1.4111(12) 0.6778(4)
H1 H -0.4822 1.1471 0.7246
H2 H 0.5403 0.7246 0.7780
H3 H 0.6121 0.5653 0.9373
H4 H 0.6572 0.5960 0.8672
H5 H 0.5110 0.4476 0.8937
H6 H 0.1958 0.6498 0.9810
H7 H -0.0297 0.7840 0.9427
H8 H 0.1064 0.5471 0.9260
H9 H 0.4380 0.8857 0.9593
H10 H 0.2101 1.0387 0.9191
H11 H 0.5056 0.9462 0.8836
H12 H -0.6278 1.2887 0.5551
H13 H -1.0277 1.4802 0.5916
H14 H -1.1427 1.4795 0.6924
H15 H -0.2371 1.0918 0.5775
loop_
_geom_bond_atom_site_label_1
_geom_bond_atom_site_label_2
_geom_bond_site_symmetry_1
_geom_bond_site_symmetry_2
Cl1 C1 1_555 1_555
C1 C2 1_555 1_555
C2 C3 1_555 1_555
C3 N1 1_555 1_555
N1 N2 1_555 1_555
N2 C4 1_555 1_555
C4 C5 1_555 1_555
C5 O1 1_555 1_555
C6 C5 1_555 1_555
N3 C6 1_555 1_555
O2 N3 1_555 1_555
C7 O2 1_555 1_555
C8 C6 1_555 1_555
C9 C7 1_555 1_555
C10 C9 1_555 1_555
C11 C9 1_555 1_555
C12 C9 1_555 1_555
C13 C4 1_555 1_555
N4 C13 1_555 1_555
C14 C3 1_555 1_555
C15 C14 1_555 1_555
C16 C1 1_555 1_555
H1 C2 1_555 1_555
H2 C8 1_555 1_555
H3 C10 1_555 1_555
H4 C10 1_555 1_555
H5 C10 1_555 1_555
H6 C11 1_555 1_555
H7 C11 1_555 1_555
H8 C11 1_555 1_555
H9 C12 1_555 1_555
H10 C12 1_555 1_555
H11 C12 1_555 1_555
H12 C14 1_555 1_555
H13 C15 1_555 1_555
H14 C16 1_555 1_555
H15 N1 1_555 1_555
C7 C8 1_555 1_555
C15 C16 1_555 1_555

#END
