
#######################################################################
#
#                 Cambridge Crystallographic Data Centre
#                                CCDC 
#
#######################################################################
#
# If this CIF has been generated from an entry in the Cambridge 
# Structural Database, then it will include bibliographic, chemical, 
# crystal, experimental, refinement or atomic coordinate data resulting 
# from the CCDC's data processing and validation procedures.
#
#######################################################################

data_REQROX
_chemical_formula_moiety         'C22 H18 N2 O1'
_chemical_name_systematic        
2^6^-acetyl-2^5^,2^6^-dihydro[1^1^,2^1^:2^3^,3^1^-terphenyl]-2^4^,2^4^(2^1^H)-dicarbonitrile
_symmetry_cell_setting           monoclinic
_symmetry_space_group_name_H-M   'P 21/n'
_symmetry_Int_Tables_number      14
_space_group_name_Hall           '-P 2yn'
loop_
_symmetry_equiv_pos_site_id
_symmetry_equiv_pos_as_xyz
1 x,y,z
2 1/2-x,1/2+y,1/2-z
3 -x,-y,-z
4 1/2+x,1/2-y,1/2+z
_cell_length_a                   5.8471(4)
_cell_length_b                   7.8010(5)
_cell_length_c                   38.119(2)
_cell_angle_alpha                90
_cell_angle_beta                 93.172(2)
_cell_angle_gamma                90
_cell_volume                     1736.07
_exptl_crystal_colour            colorless
_exptl_crystal_description       block
_cell_formula_units_Z            4
loop_
_atom_site_label
_atom_site_type_symbol
_atom_site_fract_x
_atom_site_fract_y
_atom_site_fract_z
O1 O 0.3793(2) -0.14466(18) 0.03802(3)
N1 N 1.0827(2) -0.03489(19) 0.14954(4)
N2 N 0.4784(2) 0.24226(18) 0.17318(4)
C1 C 0.3472(3) -0.2981(2) 0.21415(4)
H1 H 0.2388 -0.3550 0.1987
C2 C 0.3207(3) -0.3013(2) 0.24987(5)
H2 H 0.1946 -0.3604 0.2589
C3 C 0.4771(3) -0.2189(2) 0.27265(4)
H3 H 0.4582 -0.2210 0.2972
C4 C 0.6609(3) -0.1336(2) 0.25945(4)
H4 H 0.7694 -0.0776 0.2750
C5 C 0.6870(3) -0.1296(2) 0.22361(4)
H5 H 0.8129 -0.0698 0.2147
C6 C 0.5311(3) -0.21231(19) 0.20036(4)
C7 C 0.5585(2) -0.20944(19) 0.16186(4)
C8 C 0.6338(2) -0.03894(19) 0.14544(4)
C9 C 0.5543(3) -0.0303(2) 0.10615(4)
H6 H 0.3849 -0.0279 0.1037
H7 H 0.6126 0.0761 0.0957
C10 C 0.6433(3) -0.18554(19) 0.08680(4)
H8 H 0.8141 -0.1878 0.0900
C11 C 0.5471(3) -0.35367(19) 0.10195(4)
H9 H 0.3898 -0.3711 0.0908
C12 C 0.5259(3) -0.3453(2) 0.14112(4)
H10 H 0.4845 -0.4489 0.1523
C13 C 0.6948(3) -0.5026(2) 0.09085(4)
C14 C 0.6461(3) -0.5882(2) 0.05939(4)
H11 H 0.5083 -0.5631 0.0460
C15 C 0.7958(3) -0.7102(2) 0.04712(5)
H12 H 0.7615 -0.7659 0.0253
C16 C 0.9940(3) -0.7501(2) 0.06671(5)
H13 H 1.0968 -0.8331 0.0584
C17 C 1.0426(3) -0.6694(2) 0.09844(5)
H14 H 1.1778 -0.6983 0.1121
C18 C 0.8948(3) -0.5460(2) 0.11041(4)
H15 H 0.9303 -0.4905 0.1322
C19 C 0.5773(3) -0.1693(2) 0.04786(4)
C20 C 0.7619(3) -0.1859(2) 0.02250(5)
H16 H 0.6957 -0.1722 -0.0015
H17 H 0.8332 -0.2992 0.0250
H18 H 0.8778 -0.0970 0.0274
C21 C 0.8876(3) -0.0313(2) 0.14857(4)
C22 C 0.5442(3) 0.1157(2) 0.16271(4)
loop_
_geom_bond_atom_site_label_1
_geom_bond_atom_site_label_2
_geom_bond_site_symmetry_1
_geom_bond_site_symmetry_2
O1 C19 1_555 1_555
N1 C21 1_555 1_555
N2 C22 1_555 1_555
C1 H1 1_555 1_555
C2 C1 1_555 1_555
H2 C2 1_555 1_555
C3 C2 1_555 1_555
H3 C3 1_555 1_555
C4 C3 1_555 1_555
H4 C4 1_555 1_555
C5 C4 1_555 1_555
H5 C5 1_555 1_555
C6 C1 1_555 1_555
C7 C6 1_555 1_555
C8 C7 1_555 1_555
C9 C8 1_555 1_555
H6 C9 1_555 1_555
H7 C9 1_555 1_555
C10 C9 1_555 1_555
H8 C10 1_555 1_555
C11 C10 1_555 1_555
H9 C11 1_555 1_555
C12 C7 1_555 1_555
H10 C12 1_555 1_555
C13 C11 1_555 1_555
C14 C13 1_555 1_555
H11 C14 1_555 1_555
C15 C14 1_555 1_555
H12 C15 1_555 1_555
C16 C15 1_555 1_555
H13 C16 1_555 1_555
C17 C16 1_555 1_555
H14 C17 1_555 1_555
C18 C13 1_555 1_555
H15 C18 1_555 1_555
C19 C10 1_555 1_555
C20 C19 1_555 1_555
H16 C20 1_555 1_555
H17 C20 1_555 1_555
H18 C20 1_555 1_555
C21 C8 1_555 1_555
C22 C8 1_555 1_555
C5 C6 1_555 1_555
C11 C12 1_555 1_555
C17 C18 1_555 1_555

#END
