
#######################################################################
#
#                 Cambridge Crystallographic Data Centre
#                                CCDC 
#
#######################################################################
#
# If this CIF has been generated from an entry in the Cambridge 
# Structural Database, then it will include bibliographic, chemical, 
# crystal, experimental, refinement or atomic coordinate data resulting 
# from the CCDC's data processing and validation procedures.
#
#######################################################################

data_REQTUD
_chemical_formula_moiety         'C16 H12 N2 O2'
_chemical_name_systematic        
1,6-Dihydro-1-(3-(4-methoxyphenyl)prop-2-yn-1-yl)-6-oxopyridine-2-carbonitrile
_symmetry_cell_setting           monoclinic
_symmetry_space_group_name_H-M   'P 21/c'
_symmetry_Int_Tables_number      14
_space_group_name_Hall           '-P 2ybc'
loop_
_symmetry_equiv_pos_site_id
_symmetry_equiv_pos_as_xyz
1 x,y,z
2 -x,1/2+y,1/2-z
3 -x,-y,-z
4 x,1/2-y,1/2+z
_cell_length_a                   4.4469(4)
_cell_length_b                   11.4613(10)
_cell_length_c                   26.073(2)
_cell_angle_alpha                90
_cell_angle_beta                 93.528(2)
_cell_angle_gamma                90
_cell_volume                     1326.35
_cell_formula_units_Z            4
_exptl_crystal_recrystallization_method dichloromethane/hexanes
loop_
_atom_site_label
_atom_site_type_symbol
_atom_site_fract_x
_atom_site_fract_y
_atom_site_fract_z
O1 O 0.6064(3) 1.05640(14) 0.80734(6)
O2 O 0.1912(3) 0.66442(13) 1.10980(5)
N1 N 0.9034(3) 0.89495(13) 0.81264(5)
N2 N 1.3791(5) 0.66267(18) 0.84363(8)
C1 C 0.6867(4) 0.96540(18) 0.78731(7)
C2 C 0.5724(4) 0.92298(19) 0.73801(8)
H1 H 0.4348 0.9686 0.7187
C3 C 0.6558(5) 0.8206(2) 0.71888(8)
H2 H 0.5722 0.7954 0.6872
C4 C 0.8699(4) 0.75111(19) 0.74653(8)
H3 H 0.9298 0.6799 0.7334
C5 C 0.9872(4) 0.78941(16) 0.79254(7)
C6 C 1.0332(4) 0.93492(18) 0.86323(7)
H4 H 1.2426 0.9110 0.8672
H5 H 1.0274 1.0195 0.8644
C7 C 0.8724(4) 0.88832(17) 0.90587(7)
C8 C 0.7506(4) 0.84901(17) 0.94140(7)
C9 C 0.6033(4) 0.80017(17) 0.98405(7)
C10 C 0.4576(4) 0.69342(18) 0.97987(7)
H6 H 0.4544 0.6532 0.9489
C11 C 0.3170(4) 0.64526(18) 1.02070(8)
H7 H 0.2211 0.5734 1.0171
C12 C 0.3197(4) 0.70457(17) 1.06687(7)
C13 C 0.4632(5) 0.81133(17) 1.07178(7)
H8 H 0.4651 0.8514 1.1028
C14 C 0.6030(5) 0.85864(18) 1.03101(7)
H9 H 0.6987 0.9306 1.0348
C15 C 1.2056(4) 0.72078(19) 0.82199(8)
C16 C 0.0418(5) 0.5553(2) 1.10683(9)
H10 H -0.1144 0.5574 1.0797
H11 H -0.0452 0.5393 1.1389
H12 H 0.1837 0.4951 1.0999
loop_
_geom_bond_atom_site_label_1
_geom_bond_atom_site_label_2
_geom_bond_site_symmetry_1
_geom_bond_site_symmetry_2
O1 C1 1_555 1_555
O2 C12 1_555 1_555
N1 C1 1_555 1_555
N2 C15 1_555 1_555
C1 C2 1_555 1_555
C2 H1 1_555 1_555
C3 C2 1_555 1_555
H2 C3 1_555 1_555
C4 C3 1_555 1_555
H3 C4 1_555 1_555
C5 N1 1_555 1_555
C6 N1 1_555 1_555
H4 C6 1_555 1_555
H5 C6 1_555 1_555
C7 C6 1_555 1_555
C8 C7 1_555 1_555
C9 C8 1_555 1_555
C10 C9 1_555 1_555
H6 C10 1_555 1_555
C11 C10 1_555 1_555
H7 C11 1_555 1_555
C12 C11 1_555 1_555
C13 C12 1_555 1_555
H8 C13 1_555 1_555
C14 C9 1_555 1_555
H9 C14 1_555 1_555
C15 C5 1_555 1_555
C16 O2 1_555 1_555
H10 C16 1_555 1_555
H11 C16 1_555 1_555
H12 C16 1_555 1_555
C4 C5 1_555 1_555
C13 C14 1_555 1_555

#END
