
#######################################################################
#
#                 Cambridge Crystallographic Data Centre
#                                CCDC 
#
#######################################################################
#
# If this CIF has been generated from an entry in the Cambridge 
# Structural Database, then it will include bibliographic, chemical, 
# crystal, experimental, refinement or atomic coordinate data resulting 
# from the CCDC's data processing and validation procedures.
#
#######################################################################

data_REQXES
_chemical_formula_moiety         'C112 H62 O2'
_chemical_name_systematic        
'1,14-bis(4-methoxyphenyl)-2,13,15,26,27,38(1,4),5,10,18,23,30,35(1,3)-dodecabenzenabicyclo(12.12.12)tetratriacontaphane-3,6,8,11,16,19,21,24,28,31,33,36-dodecayne unknown solvate'
_symmetry_cell_setting           orthorhombic
_symmetry_space_group_name_H-M   'P b c n'
_symmetry_Int_Tables_number      60
_space_group_name_Hall           '-P 2n 2ab'
loop_
_symmetry_equiv_pos_site_id
_symmetry_equiv_pos_as_xyz
1 x,y,z
2 1/2-x,1/2-y,1/2+z
3 1/2+x,1/2-y,-z
4 -x,y,1/2-z
5 -x,-y,-z
6 1/2+x,1/2+y,1/2-z
7 1/2-x,1/2+y,z
8 x,-y,1/2+z
_cell_length_a                   31.9812(14)
_cell_length_b                   18.5193(8)
_cell_length_c                   20.3265(7)
_cell_angle_alpha                90
_cell_angle_beta                 90
_cell_angle_gamma                90
_cell_volume                     12038.8
_exptl_crystal_colour            colorless
_exptl_crystal_description       block
_cell_formula_units_Z            4
loop_
_atom_site_label
_atom_site_type_symbol
_atom_site_fract_x
_atom_site_fract_y
_atom_site_fract_z
O1 O 0.24059(13) 0.27980(17) 0.36480(14)
C1 C 0.20943(13) 0.47723(19) -0.4220(2)
C2 C 0.16417(11) 0.27480(18) 0.11134(15)
C3 C 0.28014(12) 0.47654(19) -0.20751(17)
C4 C 0.23686(12) 0.37497(19) -0.04622(17)
C5 C 0.15592(13) 0.19675(19) 0.08585(16)
C6 C 0.12342(12) 0.31633(19) 0.12058(17)
C7 C 0.19582(12) 0.34027(19) 0.20831(16)
H1 H 0.1888 0.3835 0.1858
C8 C 0.19187(12) 0.30944(18) 0.05705(17)
C9 C 0.19834(13) 0.3426(2) -0.05777(17)
H2 H 0.1870 0.3426 -0.1010
C10 C 0.23279(13) 0.4846(2) -0.37483(19)
C11 C 0.18941(12) 0.1526(2) 0.07040(17)
H3 H 0.2169 0.1685 0.0807
C12 C -0.18410(12) 0.47352(19) -0.02190(19)
C13 C 0.26089(12) 0.4957(2) -0.32178(17)
C14 C 0.25670(12) 0.4124(2) -0.09896(18)
C15 C 0.18657(11) 0.27496(19) 0.17841(16)
C16 C 0.23096(12) 0.33785(19) 0.06709(17)
H4 H 0.2430 0.3352 0.1097
C17 C -0.07522(13) 0.45445(19) 0.14523(19)
C18 C -0.09832(12) 0.45362(19) 0.08690(18)
H5 H -0.0850 0.4394 0.0472
C19 C 0.21487(12) 0.3458(2) 0.26959(17)
H6 H 0.2222 0.3916 0.2873
C20 C -0.14018(11) 0.47294(19) 0.08552(18)
C21 C 0.17629(13) 0.3104(2) -0.00730(17)
H7 H 0.1501 0.2884 -0.0164
C22 C 0.04517(12) 0.3839(2) 0.13839(19)
C23 C 0.25336(12) 0.37028(19) 0.01683(17)
H8 H 0.2803 0.3895 0.0256
C24 C 0.25276(12) 0.46562(18) -0.26051(16)
H9 H 0.2283 0.4372 -0.2544
C25 C 0.26954(12) 0.4443(2) -0.14559(19)
C26 C 0.18429(12) 0.08710(19) 0.04091(16)
H10 H 0.2082 0.0587 0.0311
C27 C -0.15914(13) 0.4943(2) 0.14429(19)
H11 H -0.1876 0.5089 0.1443
C28 C -0.13681(14) 0.4944(3) 0.2023(2)
H12 H -0.1500 0.5083 0.2422
C29 C 0.29666(14) 0.5364(2) -0.33018(19)
H13 H 0.3024 0.5578 -0.3717
C30 C -0.16339(12) 0.4726(2) 0.02561(18)
C31 C -0.09557(14) 0.4743(2) 0.2025(2)
H14 H -0.0806 0.4741 0.2428
C32 C 0.09513(13) 0.2949(2) 0.16951(17)
H15 H 0.1026 0.2563 0.1979
C33 C -0.03260(15) 0.4340(2) 0.14525(19)
C34 C 0.14587(14) 0.0614(2) 0.0253(2)
C35 C 0.22280(16) 0.2831(2) 0.3040(2)
C36 C 0.00325(14) 0.4133(2) 0.14370(18)
C37 C 0.11119(15) 0.3769(2) 0.0850(2)
H16 H 0.1301 0.3966 0.0538
C38 C 0.13977(14) -0.0077(2) -0.0066(2)
C39 C 0.12435(15) -0.1291(2) -0.0690(2)
C40 C 0.05693(13) 0.3277(2) 0.17785(18)
H17 H 0.0385 0.3112 0.2113
C41 C 0.31573(14) 0.5166(2) -0.2169(2)
H18 H 0.3345 0.5241 -0.1813
C42 C 0.32447(15) 0.5463(3) -0.2779(2)
H19 H 0.3494 0.5734 -0.2843
C43 C 0.25230(17) 0.3446(3) 0.3968(2)
H20 H 0.2719 0.3714 0.3689
H21 H 0.2657 0.3332 0.4389
H22 H 0.2274 0.3741 0.4047
C44 C 0.10322(18) -0.2543(2) -0.1375(2)
H23 H 0.0960 -0.2972 -0.1606
C45 C 0.07242(14) 0.4101(2) 0.0930(2)
H24 H 0.0651 0.4507 0.0668
C46 C 0.08034(17) -0.1903(2) -0.1481(2)
C47 C 0.11685(14) 0.1720(2) 0.0686(2)
H25 H 0.0930 0.2012 0.0769
C48 C 0.11191(16) 0.1053(3) 0.0393(3)
H26 H 0.0846 0.0891 0.0285
C49 C 0.09195(16) -0.1279(2) -0.1126(2)
H27 H 0.0769 -0.0843 -0.1192
C50 C 0.19522(16) 0.2130(2) 0.21430(19)
H28 H 0.1894 0.1670 0.1958
C51 C 0.21213(19) 0.2175(2) 0.2763(2)
H29 H 0.2166 0.1745 0.3008
C52 C 0.13404(15) -0.0639(2) -0.0342(2)
C53 C 0.13599(16) -0.2546(2) -0.0938(2)
H30 H 0.1514 -0.2977 -0.0867
C54 C 0.0167(2) -0.1851(3) -0.2296(3)
C55 C 0.0451(2) -0.1880(2) -0.1929(3)
C56 C 0.14667(16) -0.1922(3) -0.0601(2)
H31 H 0.1696 -0.1929 -0.0304
O1C O -0.24059(13) 0.27980(17) -0.86480(14)
C1C C -0.20943(13) 0.47723(19) -0.0780(2)
C2C C -0.16417(11) 0.27480(18) -0.61134(15)
C3C C -0.28014(12) 0.47654(19) -0.29249(17)
C4C C -0.23686(12) 0.37497(19) -0.45378(17)
C5C C -0.15592(13) 0.19675(19) -0.58585(16)
C6C C -0.12342(12) 0.31633(19) -0.62058(17)
C7C C -0.19582(12) 0.34027(19) -0.70831(16)
H1C H -0.1888 0.3835 -0.6858
C8C C -0.19187(12) 0.30944(18) -0.55705(17)
C9C C -0.19834(13) 0.3426(2) -0.44223(17)
H2C H -0.1870 0.3426 -0.3990
C10C C -0.23279(13) 0.4846(2) -0.12517(19)
C11C C -0.18941(12) 0.1526(2) -0.57040(17)
H3C H -0.2169 0.1685 -0.5807
C12C C 0.18410(12) 0.47352(19) -0.47810(19)
C13C C -0.26089(12) 0.4957(2) -0.17822(17)
C14C C -0.25670(12) 0.4124(2) -0.40104(18)
C15C C -0.18657(11) 0.27496(19) -0.67841(16)
C16C C -0.23096(12) 0.33785(19) -0.56709(17)
H4C H -0.2430 0.3352 -0.6097
C17C C 0.07522(13) 0.45445(19) -0.64523(19)
C18C C 0.09832(12) 0.45362(19) -0.58690(18)
H5C H 0.0850 0.4394 -0.5472
C19C C -0.21487(12) 0.3458(2) -0.76959(17)
H6C H -0.2222 0.3916 -0.7873
C20C C 0.14018(11) 0.47294(19) -0.58552(18)
C21C C -0.17629(13) 0.3104(2) -0.49270(17)
H7C H -0.1501 0.2884 -0.4836
C22C C -0.04517(12) 0.3839(2) -0.63839(19)
C23C C -0.25336(12) 0.37028(19) -0.51683(17)
H8C H -0.2803 0.3895 -0.5256
C24C C -0.25276(12) 0.46562(18) -0.23949(16)
H9C H -0.2283 0.4372 -0.2456
C25C C -0.26954(12) 0.4443(2) -0.35441(19)
C26C C -0.18429(12) 0.08710(19) -0.54091(16)
H10C H -0.2082 0.0587 -0.5311
C27C C 0.15914(13) 0.4943(2) -0.64429(19)
H11C H 0.1876 0.5089 -0.6443
C28C C 0.13681(14) 0.4944(3) -0.7023(2)
H12C H 0.1500 0.5083 -0.7422
C29C C -0.29666(14) 0.5364(2) -0.16982(19)
H13C H -0.3024 0.5578 -0.1283
C30C C 0.16339(12) 0.4726(2) -0.52561(18)
C31C C 0.09557(14) 0.4743(2) -0.7025(2)
H14C H 0.0806 0.4741 -0.7428
C32C C -0.09513(13) 0.2949(2) -0.66951(17)
H15C H -0.1026 0.2563 -0.6979
C33C C 0.03260(15) 0.4340(2) -0.64525(19)
C34C C -0.14587(14) 0.0614(2) -0.5253(2)
C35C C -0.22280(16) 0.2831(2) -0.8040(2)
C36C C -0.00325(14) 0.4133(2) -0.64370(18)
C37C C -0.11119(15) 0.3769(2) -0.5850(2)
H16C H -0.1301 0.3966 -0.5538
C38C C -0.13977(14) -0.0077(2) -0.4934(2)
C39C C -0.12435(15) -0.1291(2) -0.4310(2)
C40C C -0.05693(13) 0.3277(2) -0.67785(18)
H17C H -0.0385 0.3112 -0.7113
C41C C -0.31573(14) 0.5166(2) -0.2831(2)
H18C H -0.3345 0.5241 -0.3187
C42C C -0.32447(15) 0.5463(3) -0.2221(2)
H19C H -0.3494 0.5734 -0.2157
C43C C -0.25230(17) 0.3446(3) -0.8968(2)
H20C H -0.2719 0.3714 -0.8689
H21C H -0.2657 0.3332 -0.9389
H22C H -0.2274 0.3741 -0.9047
C44C C -0.10322(18) -0.2543(2) -0.3625(2)
H23C H -0.0960 -0.2972 -0.3394
C45C C -0.07242(14) 0.4101(2) -0.5930(2)
H24C H -0.0651 0.4507 -0.5668
C46C C -0.08034(17) -0.1903(2) -0.3519(2)
C47C C -0.11685(14) 0.1720(2) -0.5686(2)
H25C H -0.0930 0.2012 -0.5769
C48C C -0.11191(16) 0.1053(3) -0.5393(3)
H26C H -0.0846 0.0891 -0.5285
C49C C -0.09195(16) -0.1279(2) -0.3874(2)
H27C H -0.0769 -0.0843 -0.3808
C50C C -0.19522(16) 0.2130(2) -0.71430(19)
H28C H -0.1894 0.1670 -0.6958
C51C C -0.21213(19) 0.2175(2) -0.7763(2)
H29C H -0.2166 0.1745 -0.8008
C52C C -0.13404(15) -0.0639(2) -0.4658(2)
C53C C -0.13599(16) -0.2546(2) -0.4062(2)
H30C H -0.1514 -0.2977 -0.4133
C54C C -0.0167(2) -0.1851(3) -0.2704(3)
C55C C -0.0451(2) -0.1880(2) -0.3071(3)
C56C C -0.14667(16) -0.1922(3) -0.4399(2)
H31C H -0.1696 -0.1929 -0.4696
loop_
_geom_bond_atom_site_label_1
_geom_bond_atom_site_label_2
_geom_bond_site_symmetry_1
_geom_bond_site_symmetry_2
O1 C35 1_555 1_555
C1 C10 1_555 1_555
C2 C5 1_555 1_555
C3 C24 1_555 1_555
C4 C9 1_555 1_555
C5 C11 1_555 1_555
C6 C2 1_555 1_555
C7 H1 1_555 1_555
C8 C2 1_555 1_555
C9 H2 1_555 1_555
C10 C13 1_555 1_555
C11 H3 1_555 1_555
C12 C30 1_555 1_555
C13 C24 1_555 1_555
C14 C4 1_555 1_555
C15 C2 1_555 1_555
C16 C8 1_555 1_555
H4 C16 1_555 1_555
C17 C18 1_555 1_555
C18 H5 1_555 1_555
C19 C7 1_555 1_555
H6 C19 1_555 1_555
C20 C18 1_555 1_555
C21 C8 1_555 1_555
H7 C21 1_555 1_555
C22 C36 1_555 1_555
C23 C4 1_555 1_555
H8 C23 1_555 1_555
C24 H9 1_555 1_555
C25 C3 1_555 1_555
C26 C11 1_555 1_555
H10 C26 1_555 1_555
C27 C20 1_555 1_555
H11 C27 1_555 1_555
C28 C27 1_555 1_555
H12 C28 1_555 1_555
C29 C13 1_555 1_555
H13 C29 1_555 1_555
C30 C20 1_555 1_555
C31 C17 1_555 1_555
H14 C31 1_555 1_555
C32 C6 1_555 1_555
H15 C32 1_555 1_555
C33 C17 1_555 1_555
C34 C26 1_555 1_555
C35 C19 1_555 1_555
C36 C33 1_555 1_555
C37 C6 1_555 1_555
H16 C37 1_555 1_555
C38 C34 1_555 1_555
C39 C49 1_555 1_555
C40 C22 1_555 1_555
H17 C40 1_555 1_555
C41 C3 1_555 1_555
H18 C41 1_555 1_555
C42 C29 1_555 1_555
H19 C42 1_555 1_555
C43 O1 1_555 1_555
H20 C43 1_555 1_555
H21 C43 1_555 1_555
H22 C43 1_555 1_555
C44 H23 1_555 1_555
C45 C22 1_555 1_555
H24 C45 1_555 1_555
C46 C44 1_555 1_555
C47 C5 1_555 1_555
H25 C47 1_555 1_555
C48 C34 1_555 1_555
H26 C48 1_555 1_555
C49 C46 1_555 1_555
H27 C49 1_555 1_555
C50 C15 1_555 1_555
H28 C50 1_555 1_555
C51 C35 1_555 1_555
H29 C51 1_555 1_555
C52 C38 1_555 1_555
C53 C44 1_555 1_555
H30 C53 1_555 1_555
C54 C55 1_555 1_555
C55 C46 1_555 1_555
C56 C39 1_555 1_555
H31 C56 1_555 1_555
O1C C35C 1_555 1_555
C1C C12 1_555 1_555
C2C C5C 1_555 1_555
C3C C24C 1_555 1_555
C4C C9C 1_555 1_555
C5C C11C 1_555 1_555
C6C C2C 1_555 1_555
C7C H1C 1_555 1_555
C8C C2C 1_555 1_555
C9C H2C 1_555 1_555
C10C C1C 1_555 1_555
C11C H3C 1_555 1_555
C12C C1 1_555 1_555
C13C C10C 1_555 1_555
C14C C4C 1_555 1_555
C15C C2C 1_555 1_555
C16C C8C 1_555 1_555
H4C C16C 1_555 1_555
C17C C18C 1_555 1_555
C18C H5C 1_555 1_555
C19C C7C 1_555 1_555
H6C C19C 1_555 1_555
C20C C18C 1_555 1_555
C21C C8C 1_555 1_555
H7C C21C 1_555 1_555
C22C C36C 1_555 1_555
C23C C4C 1_555 1_555
H8C C23C 1_555 1_555
C24C C13C 1_555 1_555
H9C C24C 1_555 1_555
C25C C3C 1_555 1_555
C26C C11C 1_555 1_555
H10C C26C 1_555 1_555
C27C C20C 1_555 1_555
H11C C27C 1_555 1_555
C28C C27C 1_555 1_555
H12C C28C 1_555 1_555
C29C C13C 1_555 1_555
H13C C29C 1_555 1_555
C30C C12C 1_555 1_555
C31C C17C 1_555 1_555
H14C C31C 1_555 1_555
C32C C6C 1_555 1_555
H15C C32C 1_555 1_555
C33C C17C 1_555 1_555
C34C C26C 1_555 1_555
C35C C19C 1_555 1_555
C36C C33C 1_555 1_555
C37C C6C 1_555 1_555
H16C C37C 1_555 1_555
C38C C34C 1_555 1_555
C39C C49C 1_555 1_555
C40C C22C 1_555 1_555
H17C C40C 1_555 1_555
C41C C3C 1_555 1_555
H18C C41C 1_555 1_555
C42C C29C 1_555 1_555
H19C C42C 1_555 1_555
C43C O1C 1_555 1_555
H20C C43C 1_555 1_555
H21C C43C 1_555 1_555
H22C C43C 1_555 1_555
C44C H23C 1_555 1_555
C45C C22C 1_555 1_555
H24C C45C 1_555 1_555
C46C C44C 1_555 1_555
C47C C5C 1_555 1_555
H25C C47C 1_555 1_555
C48C C34C 1_555 1_555
H26C C48C 1_555 1_555
C49C C46C 1_555 1_555
H27C C49C 1_555 1_555
C50C C15C 1_555 1_555
H28C C50C 1_555 1_555
C51C C35C 1_555 1_555
H29C C51C 1_555 1_555
C52C C38C 1_555 1_555
C53C C44C 1_555 1_555
H30C C53C 1_555 1_555
C54C C54 1_555 1_555
C55C C46C 1_555 1_555
C56C C39C 1_555 1_555
H31C C56C 1_555 1_555
C7 C15 1_555 1_555
C9 C21 1_555 1_555
C14 C25 1_555 1_555
C16 C23 1_555 1_555
C28 C31 1_555 1_555
C32 C40 1_555 1_555
C37 C45 1_555 1_555
C39 C52 1_555 1_555
C41 C42 1_555 1_555
C47 C48 1_555 1_555
C50 C51 1_555 1_555
C53 C56 1_555 1_555
C7C C15C 1_555 1_555
C9C C21C 1_555 1_555
C14C C25C 1_555 1_555
C16C C23C 1_555 1_555
C20C C30C 1_555 1_555
C28C C31C 1_555 1_555
C32C C40C 1_555 1_555
C37C C45C 1_555 1_555
C39C C52C 1_555 1_555
C41C C42C 1_555 1_555
C47C C48C 1_555 1_555
C50C C51C 1_555 1_555
C53C C56C 1_555 1_555
C54C C55C 1_555 1_555

#END
