
#######################################################################
#
#                 Cambridge Crystallographic Data Centre
#                                CCDC 
#
#######################################################################
#
# If this CIF has been generated from an entry in the Cambridge 
# Structural Database, then it will include bibliographic, chemical, 
# crystal, experimental, refinement or atomic coordinate data resulting 
# from the CCDC's data processing and validation procedures.
#
#######################################################################

data_REQXER
_chemical_formula_moiety         'C17 H16 N2 S8'
_chemical_name_systematic        
4,5-bis(2-Cyanoethylthio)-4',5'-(cyclopentane-1,2-dithio)-1,1',3,3'-tetrathiafulvalene
_symmetry_cell_setting           monoclinic
_symmetry_space_group_name_H-M   'P 21/c'
_symmetry_Int_Tables_number      14
_space_group_name_Hall           '-P 2ybc'
loop_
_symmetry_equiv_pos_site_id
_symmetry_equiv_pos_as_xyz
1 x,y,z
2 -x,1/2+y,1/2-z
3 -x,-y,-z
4 x,1/2-y,1/2+z
_cell_length_a                   20.159(3)
_cell_length_b                   8.3200(11)
_cell_length_c                   12.9181(17)
_cell_angle_alpha                90
_cell_angle_beta                 99.359(3)
_cell_angle_gamma                90
_cell_volume                     2137.82
_exptl_crystal_colour            orange
_exptl_crystal_description       prism
_cell_formula_units_Z            4
_exptl_crystal_recrystallization_method dichloromethane/methanol
loop_
_atom_site_label
_atom_site_type_symbol
_atom_site_fract_x
_atom_site_fract_y
_atom_site_fract_z
S1 S 0.40251(6) 0.21367(15) 0.47444(11)
S2 S 0.55072(5) 0.29098(14) 0.52662(9)
S3 S 0.52043(5) 0.43900(15) 0.74464(9)
S4 S 0.37562(5) 0.34402(14) 0.67406(9)
S5 S 0.22021(5) 0.40598(13) 0.57245(7)
S6 S 0.24422(5) 0.27212(14) 0.37269(8)
S7 S 0.09144(4) 0.56781(12) 0.47816(7)
S8 S 0.12723(4) 0.44235(12) 0.24473(7)
N1 N 0.05204(17) 0.1363(4) 0.4533(3)
N2 N 0.13942(18) 0.8841(4) 0.2918(3)
C1 C 0.3418(2) 0.2958(5) 0.5436(3)
C2 C 0.47243(19) 0.2930(5) 0.5604(3)
C3 C 0.5985(2) 0.2123(6) 0.6480(3)
H1 H 0.5894 0.0971 0.6527
C4 C 0.6704(2) 0.2357(5) 0.6416(3)
H2 H 0.6752 0.3126 0.5869
H3 H 0.6903 0.1347 0.6249
C5 C 0.70531(19) 0.2972(5) 0.7467(4)
H4 H 0.7418 0.3694 0.7381
H5 H 0.7230 0.2091 0.7920
C6 C 0.6501(2) 0.3857(5) 0.7912(3)
H6 H 0.6589 0.3846 0.8673
H7 H 0.6470 0.4964 0.7673
C7 C 0.58642(19) 0.2955(6) 0.7505(3)
H8 H 0.5798 0.2125 0.8016
C8 C 0.45947(19) 0.3546(5) 0.6524(3)
C9 C 0.27688(19) 0.3228(4) 0.5012(3)
C10 C 0.16247(15) 0.4587(4) 0.4614(3)
C11 C 0.17438(17) 0.3986(4) 0.3673(3)
C12 C 0.0844(2) 0.2570(6) 0.2074(3)
H9 H 0.0699 0.2582 0.1320
H10 H 0.1163 0.1696 0.2232
C13 C 0.0247(2) 0.2216(5) 0.2585(4)
H11 H -0.0042 0.3156 0.2525
H12 H -0.0006 0.1344 0.2209
C14 C 0.04144(17) 0.1780(5) 0.3676(3)
C15 C 0.12710(19) 0.7530(5) 0.5447(3)
H13 H 0.0909 0.8284 0.5484
H14 H 0.1473 0.7265 0.6160
C16 C 0.17964(19) 0.8338(4) 0.4902(3)
H15 H 0.1923 0.9352 0.5248
H16 H 0.2194 0.7664 0.4982
C17 C 0.15781(19) 0.8636(5) 0.3803(3)
loop_
_geom_bond_atom_site_label_1
_geom_bond_atom_site_label_2
_geom_bond_site_symmetry_1
_geom_bond_site_symmetry_2
S1 C1 1_555 1_555
S2 C2 1_555 1_555
S3 C7 1_555 1_555
S4 C1 1_555 1_555
S5 C9 1_555 1_555
S6 C9 1_555 1_555
S7 C10 1_555 1_555
S8 C11 1_555 1_555
N1 C14 1_555 1_555
N2 C17 1_555 1_555
C1 C9 1_555 1_555
C2 S1 1_555 1_555
C3 S2 1_555 1_555
H1 C3 1_555 1_555
C4 C3 1_555 1_555
H2 C4 1_555 1_555
H3 C4 1_555 1_555
C5 C4 1_555 1_555
H4 C5 1_555 1_555
H5 C5 1_555 1_555
C6 C5 1_555 1_555
H6 C6 1_555 1_555
H7 C6 1_555 1_555
C7 C3 1_555 1_555
H8 C7 1_555 1_555
C8 S3 1_555 1_555
C10 S5 1_555 1_555
C11 S6 1_555 1_555
C12 S8 1_555 1_555
H9 C12 1_555 1_555
H10 C12 1_555 1_555
C13 C12 1_555 1_555
H11 C13 1_555 1_555
H12 C13 1_555 1_555
C14 C13 1_555 1_555
C15 S7 1_555 1_555
H13 C15 1_555 1_555
H14 C15 1_555 1_555
C16 C15 1_555 1_555
H15 C16 1_555 1_555
H16 C16 1_555 1_555
C17 C16 1_555 1_555
S4 C8 1_555 1_555
C2 C8 1_555 1_555
C6 C7 1_555 1_555
C10 C11 1_555 1_555

#END
