
#######################################################################
#
#                 Cambridge Crystallographic Data Centre
#                                CCDC 
#
#######################################################################
#
# If this CIF has been generated from an entry in the Cambridge 
# Structural Database, then it will include bibliographic, chemical, 
# crystal, experimental, refinement or atomic coordinate data resulting 
# from the CCDC's data processing and validation procedures.
#
#######################################################################

data_RERDOK
_chemical_formula_moiety         'C19 H19 N3 O3 S1'
_chemical_name_systematic        
3-ethenyl-4-[(4-methylphenyl)sulfonyl]-3,4-dihydro-2H,11bH-[1,3,4]oxadiazino[3,2-c]quinazoline
_symmetry_cell_setting           orthorhombic
_symmetry_space_group_name_H-M   'P n a 21'
_symmetry_Int_Tables_number      33
_space_group_name_Hall           'P 2c -2n'
loop_
_symmetry_equiv_pos_site_id
_symmetry_equiv_pos_as_xyz
1 x,y,z
2 -x,-y,1/2+z
3 1/2+x,1/2-y,z
4 1/2-x,1/2+y,1/2+z
_cell_length_a                   14.0664(10)
_cell_length_b                   18.5830(14)
_cell_length_c                   6.6594(5)
_cell_angle_alpha                90
_cell_angle_beta                 90
_cell_angle_gamma                90
_cell_volume                     1740.74
_exptl_crystal_colour            colorless
_exptl_crystal_description       block
_cell_formula_units_Z            4
loop_
_atom_site_label
_atom_site_type_symbol
_atom_site_fract_x
_atom_site_fract_y
_atom_site_fract_z
S1 S 0.41560(5) 0.39610(4) 0.76348(14)
O1 O 0.53630(13) 0.28922(10) 0.2681(4)
O2 O 0.38239(16) 0.35242(13) 0.9267(4)
O3 O 0.45726(15) 0.46522(12) 0.8006(4)
N1 N 0.4902(2) 0.15574(14) 0.6738(5)
N2 N 0.47212(17) 0.27932(13) 0.5934(4)
N3 N 0.50187(18) 0.34861(14) 0.6523(4)
C1 C 0.4499(2) 0.13959(16) 0.4846(5)
C2 C 0.4306(2) 0.06777(18) 0.4403(6)
H1 H 0.4459 0.0314 0.5352
C3 C 0.3894(2) 0.04893(17) 0.2597(7)
H2 H 0.3773 -0.0003 0.2303
C4 C 0.3655(3) 0.10183(17) 0.1204(6)
H3 H 0.3360 0.0890 -0.0028
C5 C 0.3851(2) 0.17339(17) 0.1627(5)
H4 H 0.3691 0.2096 0.0678
C6 C 0.4280(2) 0.19252(16) 0.3426(5)
C7 C 0.4535(2) 0.26945(16) 0.3811(5)
H5 H 0.3992 0.3009 0.3404
C8 C 0.5000(2) 0.22269(17) 0.7148(5)
H6 H 0.5289 0.2345 0.8394
C9 C 0.5515(2) 0.36496(16) 0.2969(5)
H7 H 0.4941 0.3917 0.2545
H8 H 0.6053 0.3810 0.2119
C10 C 0.5732(2) 0.38198(17) 0.5164(5)
H9 H 0.5690 0.4353 0.5336
C11 C 0.6723(2) 0.35925(18) 0.5754(6)
H10 H 0.7202 0.3648 0.4759
C12 C 0.6999(2) 0.33266(18) 0.7489(7)
H11 H 0.6551 0.3260 0.8539
H12 H 0.7647 0.3202 0.7691
C13 C 0.3242(2) 0.40279(16) 0.5861(5)
C14 C 0.2586(2) 0.34666(16) 0.5755(5)
H13 H 0.2549 0.3120 0.6800
C15 C 0.1991(2) 0.34213(17) 0.4112(5)
H14 H 0.1549 0.3036 0.4024
C16 C 0.20285(19) 0.39269(15) 0.2596(6)
C17 C 0.2651(2) 0.45087(16) 0.2772(6)
H15 H 0.2652 0.4873 0.1772
C18 C 0.3269(2) 0.45609(16) 0.4389(5)
H16 H 0.3702 0.4952 0.4492
C19 C 0.1416(2) 0.38335(19) 0.0752(6)
H17 H 0.1383 0.3322 0.0400
H18 H 0.1693 0.4104 -0.0368
H19 H 0.0775 0.4014 0.1029
loop_
_geom_bond_atom_site_label_1
_geom_bond_atom_site_label_2
_geom_bond_site_symmetry_1
_geom_bond_site_symmetry_2
S1 O2 1_555 1_555
O1 C7 1_555 1_555
O3 S1 1_555 1_555
N1 C1 1_555 1_555
N2 N3 1_555 1_555
N3 S1 1_555 1_555
C1 C2 1_555 1_555
C2 H1 1_555 1_555
C3 C2 1_555 1_555
H2 C3 1_555 1_555
C4 C3 1_555 1_555
H3 C4 1_555 1_555
C5 C4 1_555 1_555
H4 C5 1_555 1_555
C6 C1 1_555 1_555
C7 N2 1_555 1_555
H5 C7 1_555 1_555
C8 N1 1_555 1_555
H6 C8 1_555 1_555
C9 O1 1_555 1_555
H7 C9 1_555 1_555
H8 C9 1_555 1_555
C10 N3 1_555 1_555
H9 C10 1_555 1_555
C11 C10 1_555 1_555
H10 C11 1_555 1_555
C12 C11 1_555 1_555
H11 C12 1_555 1_555
H12 C12 1_555 1_555
C13 S1 1_555 1_555
C14 C13 1_555 1_555
H13 C14 1_555 1_555
C15 C14 1_555 1_555
H14 C15 1_555 1_555
C16 C15 1_555 1_555
C17 C16 1_555 1_555
H15 C17 1_555 1_555
C18 C13 1_555 1_555
H16 C18 1_555 1_555
C19 C16 1_555 1_555
H17 C19 1_555 1_555
H18 C19 1_555 1_555
H19 C19 1_555 1_555
N2 C8 1_555 1_555
C5 C6 1_555 1_555
C6 C7 1_555 1_555
C9 C10 1_555 1_555
C17 C18 1_555 1_555

#END
