
#######################################################################
#
#                 Cambridge Crystallographic Data Centre
#                                CCDC 
#
#######################################################################
#
# If this CIF has been generated from an entry in the Cambridge 
# Structural Database, then it will include bibliographic, chemical, 
# crystal, experimental, refinement or atomic coordinate data resulting 
# from the CCDC's data processing and validation procedures.
#
#######################################################################

data_RERDUQ
_chemical_formula_moiety         'C25 H22 Br3 N3 O3 S1'
_chemical_name_systematic        
3,4-dibromo-3-(4-bromophenyl)-6-[(4-methylphenyl)sulfonyl]-3,4,5,6-tetrahydro-2H,13bH-[1,3,4]oxadiazocino[3,2-c]quinazoline
_symmetry_cell_setting           monoclinic
_symmetry_space_group_name_H-M   'P 21/c'
_symmetry_Int_Tables_number      14
_space_group_name_Hall           '-P 2ybc'
loop_
_symmetry_equiv_pos_site_id
_symmetry_equiv_pos_as_xyz
1 x,y,z
2 -x,1/2+y,1/2-z
3 -x,-y,-z
4 x,1/2-y,1/2+z
_cell_length_a                   12.9333(8)
_cell_length_b                   14.3147(6)
_cell_length_c                   14.7790(9)
_cell_angle_alpha                90
_cell_angle_beta                 109.811(7)
_cell_angle_gamma                90
_cell_volume                     2574.19
_exptl_crystal_colour            colorless
_exptl_crystal_description       block
_cell_formula_units_Z            4
loop_
_atom_site_label
_atom_site_type_symbol
_atom_site_fract_x
_atom_site_fract_y
_atom_site_fract_z
Br1 Br 0.76710(8) 0.30025(6) 0.70539(6)
Br2 Br 1.02299(6) 0.36717(5) 0.67437(5)
Br3 Br 0.85409(8) -0.09992(6) 0.50914(7)
S1 S 0.81946(15) 0.64585(12) 0.56719(13)
O1 O 0.7863(4) 0.3857(3) 0.4059(3)
O2 O 0.9231(4) 0.6422(4) 0.6425(4)
O3 O 0.8089(4) 0.6866(3) 0.4761(3)
N1 N 0.7847(4) 0.5335(4) 0.5428(4)
N2 N 0.7023(4) 0.5170(4) 0.4534(4)
N3 N 0.5139(5) 0.4904(4) 0.3721(4)
C1 C 0.8647(6) 0.0313(5) 0.5297(5)
C2 C 0.9228(6) 0.0671(5) 0.6187(5)
H1 H 0.956979 0.026904 0.669541
C3 C 0.9305(6) 0.1630(5) 0.6331(5)
H2 H 0.969613 0.186423 0.693761
C4 C 0.8811(6) 0.2245(5) 0.5588(5)
C5 C 0.8236(7) 0.1867(5) 0.4689(5)
H3 H 0.789103 0.226520 0.417873
C6 C 0.8170(7) 0.0908(6) 0.4541(6)
H4 H 0.780218 0.066811 0.393178
C7 C 0.8853(5) 0.3310(5) 0.5711(5)
C8 C 0.8915(6) 0.3806(5) 0.4798(5)
H5 H 0.920081 0.443336 0.496564
H6 H 0.941975 0.346957 0.455843
C9 C 0.7428(6) 0.4780(5) 0.3817(5)
H7 H 0.799484 0.519025 0.373142
C10 C 0.7847(6) 0.4707(5) 0.6231(4)
H8 H 0.720118 0.483502 0.640330
H9 H 0.848981 0.483947 0.678828
C11 C 0.7853(6) 0.3680(5) 0.5971(5)
H10 H 0.719200 0.356727 0.541265
C12 C 0.5940(6) 0.5126(5) 0.4472(5)
H11 H 0.577801 0.527033 0.502259
C13 C 0.5411(6) 0.4727(4) 0.2888(5)
C14 C 0.6486(6) 0.4703(4) 0.2887(5)
C15 C 0.6686(7) 0.4551(5) 0.2030(5)
H12 H 0.740612 0.454525 0.203398
C16 C 0.5844(8) 0.4411(6) 0.1184(6)
H13 H 0.598726 0.431038 0.061583
C17 C 0.4779(8) 0.4420(6) 0.1184(6)
H14 H 0.420459 0.431553 0.061112
C18 C 0.4543(7) 0.4581(5) 0.2012(5)
H15 H 0.381714 0.459314 0.199491
C19 C 0.7214(6) 0.6950(4) 0.6114(5)
C20 C 0.6206(6) 0.7261(5) 0.5481(5)
H16 H 0.606821 0.726112 0.482123
C21 C 0.5415(7) 0.7568(5) 0.5848(6)
H17 H 0.473112 0.775387 0.542979
C22 C 0.5631(7) 0.7604(5) 0.6833(6)
C23 C 0.6628(6) 0.7350(5) 0.7444(6)
H18 H 0.678026 0.740662 0.810342
C24 C 0.7431(6) 0.7005(5) 0.7103(5)
H19 H 0.810709 0.681344 0.753046
C25 C 0.4742(7) 0.7888(5) 0.7224(7)
H20 H 0.414748 0.817247 0.672192
H21 H 0.503533 0.832638 0.773931
H22 H 0.447796 0.734600 0.746051
loop_
_geom_bond_atom_site_label_1
_geom_bond_atom_site_label_2
_geom_bond_site_symmetry_1
_geom_bond_site_symmetry_2
Br1 C11 1_555 1_555
Br2 C7 1_555 1_555
Br3 C1 1_555 1_555
S1 O2 1_555 1_555
O1 C8 1_555 1_555
O3 S1 1_555 1_555
N1 S1 1_555 1_555
N2 N1 1_555 1_555
N3 C12 1_555 1_555
C1 C2 1_555 1_555
C2 H1 1_555 1_555
C3 C2 1_555 1_555
H2 C3 1_555 1_555
C4 C3 1_555 1_555
C5 C4 1_555 1_555
H3 C5 1_555 1_555
C6 C1 1_555 1_555
H4 C6 1_555 1_555
C7 C4 1_555 1_555
C8 C7 1_555 1_555
H5 C8 1_555 1_555
H6 C8 1_555 1_555
C9 O1 1_555 1_555
H7 C9 1_555 1_555
C10 N1 1_555 1_555
H8 C10 1_555 1_555
H9 C10 1_555 1_555
C11 C7 1_555 1_555
H10 C11 1_555 1_555
C12 N2 1_555 1_555
H11 C12 1_555 1_555
C13 N3 1_555 1_555
C14 C9 1_555 1_555
C15 C14 1_555 1_555
H12 C15 1_555 1_555
C16 C15 1_555 1_555
H13 C16 1_555 1_555
C17 C16 1_555 1_555
H14 C17 1_555 1_555
C18 C13 1_555 1_555
H15 C18 1_555 1_555
C19 S1 1_555 1_555
C20 C19 1_555 1_555
H16 C20 1_555 1_555
C21 C20 1_555 1_555
H17 C21 1_555 1_555
C22 C21 1_555 1_555
C23 C22 1_555 1_555
H18 C23 1_555 1_555
C24 C19 1_555 1_555
H19 C24 1_555 1_555
C25 C22 1_555 1_555
H20 C25 1_555 1_555
H21 C25 1_555 1_555
H22 C25 1_555 1_555
N2 C9 1_555 1_555
C5 C6 1_555 1_555
C10 C11 1_555 1_555
C13 C14 1_555 1_555
C17 C18 1_555 1_555
C23 C24 1_555 1_555

#END
