
#######################################################################
#
#                 Cambridge Crystallographic Data Centre
#                                CCDC 
#
#######################################################################
#
# If this CIF has been generated from an entry in the Cambridge 
# Structural Database, then it will include bibliographic, chemical, 
# crystal, experimental, refinement or atomic coordinate data resulting 
# from the CCDC's data processing and validation procedures.
#
#######################################################################

data_RERGON
_chemical_formula_moiety         'C24 H31 N2 O5 P1'
_chemical_name_systematic        
'diisopropyl (2-((4-acetylphenyl)amino)-2-((4-acetylphenyl)imino)ethyl)phosphonate'
_symmetry_cell_setting           monoclinic
_symmetry_space_group_name_H-M   'P 21/n'
_symmetry_Int_Tables_number      14
_space_group_name_Hall           '-P 2yn'
loop_
_symmetry_equiv_pos_site_id
_symmetry_equiv_pos_as_xyz
1 x,y,z
2 1/2-x,1/2+y,1/2-z
3 -x,-y,-z
4 1/2+x,1/2-y,1/2+z
_cell_length_a                   11.7763(5)
_cell_length_b                   8.9819(3)
_cell_length_c                   23.3929(9)
_cell_angle_alpha                90
_cell_angle_beta                 102.790(4)
_cell_angle_gamma                90
_cell_volume                     2412.96
_exptl_crystal_colour            colorless
_exptl_crystal_description       prism
_cell_formula_units_Z            4
loop_
_atom_site_label
_atom_site_type_symbol
_atom_site_fract_x
_atom_site_fract_y
_atom_site_fract_z
P1 P 0.99219(3) 0.56661(4) 0.70386(2)
O1 O 0.93143(9) 0.43385(12) 0.72894(4)
O2 O 1.11657(8) 0.57132(11) 0.74600(4)
O3 O 0.93007(9) 0.71026(12) 0.69685(5)
O4 O 0.37995(9) 0.88028(12) 0.41941(5)
O5 O 1.17886(10) -0.24414(12) 0.60945(5)
N1 N 0.83298(10) 0.59572(13) 0.58054(5)
H1 H 0.8549 0.6662 0.6054
N2 N 0.87654(10) 0.35410(13) 0.55751(5)
C1 C 0.73134(11) 0.62430(15) 0.53836(6)
C2 C 0.67163(11) 0.75535(15) 0.54603(6)
H2 H 0.6998 0.8160 0.5783
C3 C 0.52757(11) 0.70674(15) 0.45714(6)
C4 C 0.90341(11) 0.47148(15) 0.58830(6)
C5 C 0.42008(12) 0.75657(16) 0.41497(6)
C6 C 1.01328(11) 0.49138(15) 0.63587(6)
H3 H 1.0658 0.5564 0.6210
H4 H 1.0512 0.3953 0.6437
C7 C 0.95582(11) 0.23396(15) 0.56413(6)
C8 C 0.57169(12) 0.79496(15) 0.50623(6)
H5 H 0.5329 0.8819 0.5121
C9 C 1.11096(11) -0.00612(15) 0.57447(6)
C10 C 1.19393(12) -0.13324(15) 0.58175(6)
C11 C 1.01232(12) -0.01344(16) 0.59891(6)
H6 H 0.9988 -0.0985 0.6191
C12 C 0.93514(12) 0.10451(16) 0.59326(6)
H7 H 0.8693 0.0976 0.6089
C13 C 1.18592(12) 0.70918(16) 0.75613(7)
H8 H 1.1578 0.7797 0.7242
C14 C 0.68872(12) 0.53518(15) 0.48942(6)
H9 H 0.7277 0.4485 0.4835
C15 C 0.58747(12) 0.57706(16) 0.44960(6)
H10 H 0.5592 0.5170 0.4172
C16 C 1.05269(12) 0.24147(16) 0.53922(6)
H11 H 1.0661 0.3265 0.5190
C17 C 0.36259(12) 0.65346(17) 0.36627(7)
H12 H 0.2868 0.6910 0.3483
H13 H 0.3552 0.5561 0.3820
H14 H 0.4092 0.6475 0.3375
C18 C 1.12911(12) 0.12234(16) 0.54449(6)
H15 H 1.1936 0.1284 0.5277
C19 C 1.29879(12) -0.12238(17) 0.55467(7)
H16 H 1.3457 -0.2102 0.5640
H17 H 1.3439 -0.0364 0.5699
H18 H 1.2734 -0.1136 0.5129
C20 C 0.90821(13) 0.4449(2) 0.78840(7)
H19 H 0.9502 0.5307 0.8088
C21 C 0.95503(18) 0.3040(3) 0.81981(9)
H20 H 0.9147 0.2199 0.7996
H21 H 0.9436 0.3067 0.8592
H22 H 1.0367 0.2957 0.8207
C22 C 0.77983(14) 0.4658(2) 0.78300(7)
H23 H 0.7534 0.5494 0.7580
H24 H 0.7647 0.4836 0.8211
H25 H 0.7392 0.3778 0.7664
C23 C 1.17129(15) 0.7747(2) 0.81333(8)
H26 H 1.0915 0.8031 0.8100
H27 H 1.2203 0.8607 0.8226
H28 H 1.1928 0.7020 0.8439
C24 C 1.30963(14) 0.6653(2) 0.75677(9)
H29 H 1.3360 0.5941 0.7875
H30 H 1.3585 0.7519 0.7635
H31 H 1.3132 0.6218 0.7197
loop_
_geom_bond_atom_site_label_1
_geom_bond_atom_site_label_2
_geom_bond_site_symmetry_1
_geom_bond_site_symmetry_2
P1 O1 1_555 1_555
O1 C20 1_555 1_555
O2 P1 1_555 1_555
O3 P1 1_555 1_555
O4 C5 1_555 1_555
O5 C10 1_555 1_555
N1 H1 1_555 1_555
N2 C4 1_555 1_555
C1 N1 1_555 1_555
C2 C1 1_555 1_555
H2 C2 1_555 1_555
C3 C5 1_555 1_555
C4 N1 1_555 1_555
C5 C17 1_555 1_555
C6 P1 1_555 1_555
H3 C6 1_555 1_555
H4 C6 1_555 1_555
C7 N2 1_555 1_555
C8 C2 1_555 1_555
H5 C8 1_555 1_555
C9 C10 1_555 1_555
C10 C19 1_555 1_555
C11 C9 1_555 1_555
H6 C11 1_555 1_555
C12 C7 1_555 1_555
H7 C12 1_555 1_555
C13 O2 1_555 1_555
H8 C13 1_555 1_555
C14 C1 1_555 1_555
H9 C14 1_555 1_555
C15 C3 1_555 1_555
H10 C15 1_555 1_555
C16 C7 1_555 1_555
H11 C16 1_555 1_555
C17 H12 1_555 1_555
H13 C17 1_555 1_555
H14 C17 1_555 1_555
C18 C9 1_555 1_555
H15 C18 1_555 1_555
C19 H16 1_555 1_555
H17 C19 1_555 1_555
H18 C19 1_555 1_555
C20 H19 1_555 1_555
C21 C20 1_555 1_555
H20 C21 1_555 1_555
H21 C21 1_555 1_555
H22 C21 1_555 1_555
C22 C20 1_555 1_555
H23 C22 1_555 1_555
H24 C22 1_555 1_555
H25 C22 1_555 1_555
C23 C13 1_555 1_555
H26 C23 1_555 1_555
H27 C23 1_555 1_555
H28 C23 1_555 1_555
C24 C13 1_555 1_555
H29 C24 1_555 1_555
H30 C24 1_555 1_555
H31 C24 1_555 1_555
C3 C8 1_555 1_555
C4 C6 1_555 1_555
C11 C12 1_555 1_555
C14 C15 1_555 1_555
C16 C18 1_555 1_555

#END
