
#######################################################################
#
#                 Cambridge Crystallographic Data Centre
#                                CCDC 
#
#######################################################################
#
# If this CIF has been generated from an entry in the Cambridge 
# Structural Database, then it will include bibliographic, chemical, 
# crystal, experimental, refinement or atomic coordinate data resulting 
# from the CCDC's data processing and validation procedures.
#
#######################################################################

data_RERHEE
_chemical_formula_moiety         'C24 H35 N2 O5 P1'
_chemical_name_systematic        
'diisopropyl (2-((2-methoxy-5-methylphenyl)amino)-2-((2-methoxy-5-methylphenyl)imino)ethyl)phosphonate'
_symmetry_cell_setting           monoclinic
_symmetry_space_group_name_H-M   'P 21/c'
_symmetry_Int_Tables_number      14
_space_group_name_Hall           '-P 2ybc'
loop_
_symmetry_equiv_pos_site_id
_symmetry_equiv_pos_as_xyz
1 x,y,z
2 -x,1/2+y,1/2-z
3 -x,-y,-z
4 x,1/2-y,1/2+z
_cell_length_a                   12.9853(8)
_cell_length_b                   18.3803(7)
_cell_length_c                   10.8220(6)
_cell_angle_alpha                90
_cell_angle_beta                 109.334(6)
_cell_angle_gamma                90
_cell_volume                     2437.26
_exptl_crystal_colour            colorless
_exptl_crystal_description       prism
_cell_formula_units_Z            4
loop_
_atom_site_label
_atom_site_type_symbol
_atom_site_fract_x
_atom_site_fract_y
_atom_site_fract_z
P1 P 0.79533(3) 0.47698(2) 0.65985(3)
O1 O 0.87899(8) 0.42929(5) 0.61771(9)
O2 O 1.18015(8) 0.42174(5) 0.76686(10)
O3 O 0.70505(7) 0.42059(5) 0.66820(10)
N1 N 0.97647(9) 0.61196(6) 0.89166(11)
C1 C 0.57075(13) 0.49266(9) 0.72736(17)
H1 H 0.5896 0.4678 0.8099
H2 H 0.4952 0.5064 0.6998
H3 H 0.6151 0.5354 0.7366
C2 C 0.86444(12) 0.41854(8) 0.47749(13)
H4 H 0.8408 0.4644 0.4305
N2 N 1.05529(9) 0.51028(6) 0.83545(11)
H5 H 1.0415 0.4673 0.8026
C3 C 1.31789(12) 0.61528(8) 0.94511(14)
C4 C 1.20728(11) 0.59888(8) 0.92130(13)
H6 H 1.1631 0.6320 0.9451
O4 O 0.75075(8) 0.54033(5) 0.57601(10)
C5 C 1.16346(11) 0.53348(7) 0.86237(13)
C6 C 0.87012(11) 0.49549(7) 0.82892(13)
H7 H 0.8205 0.5169 0.8688
H8 H 0.8952 0.4496 0.8729
C7 C 0.77902(13) 0.36091(9) 0.42011(15)
H9 H 0.8016 0.3159 0.4662
H10 H 0.7703 0.3542 0.3292
H11 H 0.7108 0.3760 0.4284
C8 C 1.38294(12) 0.56517(9) 0.91085(15)
H12 H 1.4563 0.5756 0.9272
C9 C 0.96778(10) 0.54554(7) 0.85344(12)
C10 C 1.24140(13) 0.37194(8) 0.71704(16)
H13 H 1.2664 0.3962 0.6538
H14 H 1.1959 0.3316 0.6762
H15 H 1.3030 0.3546 0.7877
C11 C 0.52398(13) 0.37401(10) 0.6064(2)
H16 H 0.5425 0.3432 0.5453
H17 H 0.4477 0.3858 0.5727
H18 H 0.5395 0.3491 0.6886
C12 C 1.34064(12) 0.49924(8) 0.85219(15)
H19 H 1.3857 0.4659 0.8305
C13 C 1.23162(11) 0.48372(7) 0.82647(13)
C14 C 0.59025(11) 0.44286(8) 0.62637(15)
H20 H 0.5723 0.4688 0.5428
C15 C 1.36199(13) 0.68770(9) 1.00481(18)
H21 H 1.3338 0.7256 0.9415
H22 H 1.4402 0.6872 1.0310
H23 H 1.3401 0.6964 1.0800
C16 C 0.89128(11) 0.65000(7) 0.91729(14)
C17 C 0.70509(12) 0.69648(8) 0.85922(16)
C18 C 0.78539(11) 0.65579(7) 0.82960(14)
H24 H 0.7674 0.6321 0.7493
C19 C 0.84037(14) 0.73046(8) 1.06478(16)
H25 H 0.8587 0.7564 1.1429
C20 C 1.05713(16) 0.72373(8) 1.23455(15)
H26 H 1.0439 0.7744 1.2137
H27 H 1.1334 0.7163 1.2805
H28 H 1.0157 0.7085 1.2888
O5 O 1.02500(9) 0.68207(6) 1.11645(11)
C21 C 0.91885(13) 0.68919(7) 1.03588(14)
C22 C 0.59086(13) 0.70114(9) 0.76273(19)
H29 H 0.5908 0.6853 0.6782
H30 H 0.5658 0.7505 0.7571
H31 H 0.5433 0.6705 0.7915
C23 C 0.73468(14) 0.73308(8) 0.97749(16)
H32 H 0.6824 0.7601 0.9989
C24 C 0.97519(12) 0.39811(8) 0.47109(14)
H33 H 1.0281 0.4336 0.5177
H34 H 0.9722 0.3966 0.3813
H35 H 0.9957 0.3511 0.5102
loop_
_geom_bond_atom_site_label_1
_geom_bond_atom_site_label_2
_geom_bond_site_symmetry_1
_geom_bond_site_symmetry_2
P1 O1 1_555 1_555
O1 C2 1_555 1_555
O2 C10 1_555 1_555
O3 P1 1_555 1_555
N1 C9 1_555 1_555
C1 H1 1_555 1_555
H2 C1 1_555 1_555
H3 C1 1_555 1_555
C2 H4 1_555 1_555
N2 H5 1_555 1_555
C3 C4 1_555 1_555
C4 H6 1_555 1_555
O4 P1 1_555 1_555
C5 N2 1_555 1_555
C6 P1 1_555 1_555
H7 C6 1_555 1_555
H8 C6 1_555 1_555
C7 C2 1_555 1_555
H9 C7 1_555 1_555
H10 C7 1_555 1_555
H11 C7 1_555 1_555
C8 C3 1_555 1_555
H12 C8 1_555 1_555
C9 N2 1_555 1_555
C10 H13 1_555 1_555
H14 C10 1_555 1_555
H15 C10 1_555 1_555
C11 H16 1_555 1_555
H17 C11 1_555 1_555
H18 C11 1_555 1_555
C12 C8 1_555 1_555
H19 C12 1_555 1_555
C13 O2 1_555 1_555
C14 O3 1_555 1_555
H20 C14 1_555 1_555
C15 C3 1_555 1_555
H21 C15 1_555 1_555
H22 C15 1_555 1_555
H23 C15 1_555 1_555
C16 N1 1_555 1_555
C17 C18 1_555 1_555
C18 C16 1_555 1_555
H24 C18 1_555 1_555
C19 H25 1_555 1_555
C20 H26 1_555 1_555
H27 C20 1_555 1_555
H28 C20 1_555 1_555
O5 C20 1_555 1_555
C21 C16 1_555 1_555
C22 C17 1_555 1_555
H29 C22 1_555 1_555
H30 C22 1_555 1_555
H31 C22 1_555 1_555
C23 C17 1_555 1_555
H32 C23 1_555 1_555
C24 C2 1_555 1_555
H33 C24 1_555 1_555
H34 C24 1_555 1_555
H35 C24 1_555 1_555
C1 C14 1_555 1_555
C4 C5 1_555 1_555
C5 C13 1_555 1_555
C6 C9 1_555 1_555
C11 C14 1_555 1_555
C12 C13 1_555 1_555
C19 C21 1_555 1_555
C19 C23 1_555 1_555
O5 C21 1_555 1_555

#END
