
#######################################################################
#
#                 Cambridge Crystallographic Data Centre
#                                CCDC 
#
#######################################################################
#
# If this CIF has been generated from an entry in the Cambridge 
# Structural Database, then it will include bibliographic, chemical, 
# crystal, experimental, refinement or atomic coordinate data resulting 
# from the CCDC's data processing and validation procedures.
#
#######################################################################

data_RERKIL
_chemical_formula_moiety         'C25 H23 N3 O3 S1'
_chemical_name_systematic        
6-[(4-methylphenyl)sulfonyl]-3-phenyl-5,6-dihydro-2H,13bH-[1,3,4]oxadiazocino[3,2-c]quinazoline
_symmetry_cell_setting           triclinic
_symmetry_space_group_name_H-M   'P -1'
_symmetry_Int_Tables_number      2
_space_group_name_Hall           '-P 1'
loop_
_symmetry_equiv_pos_site_id
_symmetry_equiv_pos_as_xyz
1 x,y,z
2 -x,-y,-z
_cell_length_a                   6.9062(12)
_cell_length_b                   11.9573(17)
_cell_length_c                   14.014(3)
_cell_angle_alpha                74.923(8)
_cell_angle_beta                 85.213(8)
_cell_angle_gamma                75.333(8)
_cell_volume                     1080.83
_exptl_crystal_colour            colorless
_exptl_crystal_description       block
_cell_formula_units_Z            2
loop_
_atom_site_label
_atom_site_type_symbol
_atom_site_fract_x
_atom_site_fract_y
_atom_site_fract_z
S1 S 0.59663(5) 0.69825(3) 0.48356(2)
O1 O 0.62862(16) 0.71673(9) 0.14383(8)
O2 O 0.72267(17) 0.61511(9) 0.55999(8)
O3 O 0.38613(16) 0.73648(10) 0.50114(8)
N1 N 0.62091(18) 0.62864(10) 0.39280(9)
N2 N 0.49950(18) 0.69340(11) 0.31166(9)
N3 N 0.1764(2) 0.72848(12) 0.25160(10)
C1 C 0.8201(2) 0.55288(13) 0.37242(12)
H1 H 0.9063 0.6024 0.3354
H2 H 0.8846 0.5059 0.4339
C2 C 0.7820(2) 0.47312(13) 0.31354(12)
H3 H 0.7669 0.3976 0.3469
C3 C 0.7686(2) 0.50531(13) 0.21526(11)
C4 C 0.8096(2) 0.62271(13) 0.15590(12)
H4 H 0.9079 0.6434 0.1894
H5 H 0.8647 0.6143 0.0914
C5 C 0.5673(2) 0.77179(12) 0.22386(10)
H6 H 0.6737 0.8041 0.2403
C6 C 0.6916(2) 0.43393(13) 0.16127(11)
C7 C 0.5254(3) 0.38868(15) 0.19752(12)
H7 H 0.4623 0.4034 0.2558
C8 C 0.4532(3) 0.32193(17) 0.14754(14)
H8 H 0.3430 0.2915 0.1729
C9 C 0.5445(3) 0.30048(16) 0.06002(14)
H9 H 0.4959 0.2558 0.0266
C10 C 0.7070(3) 0.34540(16) 0.02289(14)
H10 H 0.7679 0.3317 -0.0361
C11 C 0.7810(3) 0.41133(15) 0.07325(13)
H11 H 0.8920 0.4408 0.0477
C12 C 0.6928(2) 0.82534(12) 0.44048(10)
C13 C 0.5675(2) 0.93450(14) 0.39584(13)
H12 H 0.4312 0.9413 0.3911
C14 C 0.6469(3) 1.03287(14) 0.35855(13)
H13 H 0.5630 1.1058 0.3288
C15 C 0.8499(3) 1.02430(14) 0.36484(12)
C16 C 0.9713(3) 0.91467(16) 0.41065(15)
H14 H 1.1071 0.9081 0.4164
C17 C 0.8952(2) 0.81481(14) 0.44808(13)
H15 H 0.9791 0.7419 0.4778
C18 C 0.9363(3) 1.13137(16) 0.32373(16)
H16 H 0.8819 1.1730 0.2598
H17 H 1.0792 1.1056 0.3179
H18 H 0.9029 1.1837 0.3674
C19 C 0.3198(2) 0.66436(13) 0.30920(11)
H19 H 0.3012 0.5939 0.3519
C20 C 0.2026(2) 0.84056(14) 0.19532(11)
C21 C 0.0361(3) 0.92555(16) 0.15109(13)
H20 H -0.0871 0.9061 0.1563
C22 C 0.0520(3) 1.03816(16) 0.09968(14)
H21 H -0.0606 1.0943 0.0710
C23 C 0.2359(3) 1.06798(15) 0.09065(13)
H22 H 0.2463 1.1440 0.0560
C24 C 0.4032(3) 0.98428(14) 0.13340(12)
H23 H 0.5262 1.0041 0.1275
C25 C 0.3879(2) 0.87023(13) 0.18531(10)
loop_
_geom_bond_atom_site_label_1
_geom_bond_atom_site_label_2
_geom_bond_site_symmetry_1
_geom_bond_site_symmetry_2
S1 O2 1_555 1_555
O1 C4 1_555 1_555
O3 S1 1_555 1_555
N1 S1 1_555 1_555
N2 N1 1_555 1_555
N3 C19 1_555 1_555
C1 N1 1_555 1_555
H1 C1 1_555 1_555
H2 C1 1_555 1_555
C2 C1 1_555 1_555
H3 C2 1_555 1_555
C3 C2 1_555 1_555
C4 C3 1_555 1_555
H4 C4 1_555 1_555
H5 C4 1_555 1_555
C5 O1 1_555 1_555
H6 C5 1_555 1_555
C6 C3 1_555 1_555
C7 C6 1_555 1_555
H7 C7 1_555 1_555
C8 C7 1_555 1_555
H8 C8 1_555 1_555
C9 C8 1_555 1_555
H9 C9 1_555 1_555
C10 C9 1_555 1_555
H10 C10 1_555 1_555
C11 C6 1_555 1_555
H11 C11 1_555 1_555
C12 S1 1_555 1_555
C13 C12 1_555 1_555
H12 C13 1_555 1_555
C14 C13 1_555 1_555
H13 C14 1_555 1_555
C15 C14 1_555 1_555
C16 C15 1_555 1_555
H14 C16 1_555 1_555
C17 C12 1_555 1_555
H15 C17 1_555 1_555
C18 C15 1_555 1_555
H16 C18 1_555 1_555
H17 C18 1_555 1_555
H18 C18 1_555 1_555
C19 N2 1_555 1_555
H19 C19 1_555 1_555
C20 N3 1_555 1_555
C21 C20 1_555 1_555
H20 C21 1_555 1_555
C22 C21 1_555 1_555
H21 C22 1_555 1_555
C23 C22 1_555 1_555
H22 C23 1_555 1_555
C24 C23 1_555 1_555
H23 C24 1_555 1_555
C25 C5 1_555 1_555
N2 C5 1_555 1_555
C10 C11 1_555 1_555
C16 C17 1_555 1_555
C20 C25 1_555 1_555
C24 C25 1_555 1_555

#END
