
#######################################################################
#
#                 Cambridge Crystallographic Data Centre
#                                CCDC 
#
#######################################################################
#
# If this CIF has been generated from an entry in the Cambridge 
# Structural Database, then it will include bibliographic, chemical, 
# crystal, experimental, refinement or atomic coordinate data resulting 
# from the CCDC's data processing and validation procedures.
#
#######################################################################

data_RERLIL
_chemical_formula_moiety         'C16 H23 N1 O4 S1'
_chemical_name_systematic        
1-((4-Methylphenyl)sulfonyl)-1-azaspiro[4.5]decane-6,7-diol
_symmetry_cell_setting           orthorhombic
_symmetry_space_group_name_H-M   'P 21 21 21'
_symmetry_Int_Tables_number      19
_space_group_name_Hall           'P 2ac 2ab'
loop_
_symmetry_equiv_pos_site_id
_symmetry_equiv_pos_as_xyz
1 x,y,z
2 1/2-x,-y,1/2+z
3 -x,1/2+y,1/2-z
4 1/2+x,1/2-y,-z
_cell_length_a                   9.8290(4)
_cell_length_b                   9.8991(4)
_cell_length_c                   16.3718(6)
_cell_angle_alpha                90
_cell_angle_beta                 90
_cell_angle_gamma                90
_cell_volume                     1592.95
_exptl_crystal_colour            colorless
_exptl_crystal_description       prism
_cell_formula_units_Z            4
loop_
_atom_site_label
_atom_site_type_symbol
_atom_site_fract_x
_atom_site_fract_y
_atom_site_fract_z
C1 C 0.1060(2) 0.6681(2) 0.21432(13)
C2 C 0.0067(2) 0.7595(2) 0.19105(14)
H1 H -0.0393 0.8119 0.2311
C3 C -0.0251(3) 0.7741(2) 0.10947(15)
H2 H -0.0921 0.8380 0.0937
C4 C 0.0391(2) 0.6971(2) 0.04998(14)
C5 C -0.0016(3) 0.7088(3) -0.03813(15)
H3 H 0.0536 0.6469 -0.0711
H4 H 0.0131 0.8017 -0.0568
H5 H -0.0980 0.6855 -0.0440
C6 C 0.1380(2) 0.6059(2) 0.07465(13)
H6 H 0.1831 0.5525 0.0348
C7 C 0.1725(2) 0.5910(2) 0.15611(13)
H7 H 0.2410 0.5286 0.1719
C8 C 0.1672(2) 0.9083(2) 0.35621(15)
H8 H 0.0821 0.9032 0.3884
H9 H 0.1465 0.9454 0.3014
C9 C 0.2730(2) 0.9919(2) 0.39930(15)
H10 H 0.2701 0.9771 0.4591
H11 H 0.2605 1.0894 0.3879
C10 C 0.4054(2) 0.9400(2) 0.36296(14)
H12 H 0.4816 0.9552 0.4014
H13 H 0.4258 0.9876 0.3112
C11 C 0.3859(2) 0.7876(2) 0.34727(12)
C12 C 0.4483(2) 0.6991(2) 0.41483(12)
H14 H 0.4155 0.6048 0.4053
C13 C 0.6029(2) 0.6941(2) 0.41420(13)
H15 H 0.6329 0.6212 0.4525
C14 C 0.6588(2) 0.6624(3) 0.32981(13)
H16 H 0.7591 0.6719 0.3305
H17 H 0.6370 0.5676 0.3157
C15 C 0.6002(2) 0.7551(2) 0.26536(13)
H18 H 0.6365 0.7297 0.2111
H19 H 0.6278 0.8494 0.2768
C16 C 0.4456(2) 0.7452(2) 0.26455(12)
H20 H 0.4182 0.6512 0.2522
H21 H 0.4088 0.8043 0.2211
N1 N 0.23330(17) 0.77501(17) 0.35024(11)
O1 O 0.01771(15) 0.65310(18) 0.36140(9)
O2 O 0.22782(15) 0.52888(15) 0.32730(9)
O3 O 0.40240(16) 0.73793(17) 0.49371(9)
H22 H 0.3170 0.7402 0.4942
O4 O 0.65252(15) 0.82044(15) 0.44426(9)
H23 H 0.7380 0.8197 0.4443
S1 S 0.14510(5) 0.64719(5) 0.31937(3)
loop_
_geom_bond_atom_site_label_1
_geom_bond_atom_site_label_2
_geom_bond_site_symmetry_1
_geom_bond_site_symmetry_2
C1 C2 1_555 1_555
C2 H1 1_555 1_555
C3 C2 1_555 1_555
H2 C3 1_555 1_555
C4 C3 1_555 1_555
C5 C4 1_555 1_555
H3 C5 1_555 1_555
H4 C5 1_555 1_555
H5 C5 1_555 1_555
C6 C4 1_555 1_555
H6 C6 1_555 1_555
C7 C1 1_555 1_555
H7 C7 1_555 1_555
C8 H8 1_555 1_555
H9 C8 1_555 1_555
C9 C8 1_555 1_555
H10 C9 1_555 1_555
H11 C9 1_555 1_555
C10 C9 1_555 1_555
H12 C10 1_555 1_555
H13 C10 1_555 1_555
C11 C10 1_555 1_555
C12 C11 1_555 1_555
H14 C12 1_555 1_555
C13 C12 1_555 1_555
H15 C13 1_555 1_555
C14 C13 1_555 1_555
H16 C14 1_555 1_555
H17 C14 1_555 1_555
C15 C14 1_555 1_555
H18 C15 1_555 1_555
H19 C15 1_555 1_555
C16 C11 1_555 1_555
H20 C16 1_555 1_555
H21 C16 1_555 1_555
N1 C8 1_555 1_555
O1 S1 1_555 1_555
O2 S1 1_555 1_555
O3 C12 1_555 1_555
H22 O3 1_555 1_555
O4 C13 1_555 1_555
H23 O4 1_555 1_555
S1 C1 1_555 1_555
C6 C7 1_555 1_555
C11 N1 1_555 1_555
C15 C16 1_555 1_555
N1 S1 1_555 1_555

#END
