
#######################################################################
#
#                 Cambridge Crystallographic Data Centre
#                                CCDC 
#
#######################################################################
#
# If this CIF has been generated from an entry in the Cambridge 
# Structural Database, then it will include bibliographic, chemical, 
# crystal, experimental, refinement or atomic coordinate data resulting 
# from the CCDC's data processing and validation procedures.
#
#######################################################################

data_RERLAE
_chemical_formula_moiety         'C33 H26 N4'
_chemical_name_systematic        
N-(1-(1H-indol-2-yl)-2,2-diphenylethenyl)-N-(4-methylphenyl)pyrimidin-2-amine
_symmetry_cell_setting           monoclinic
_symmetry_space_group_name_H-M   'P 21/c'
_symmetry_Int_Tables_number      14
_space_group_name_Hall           '-P 2ybc'
loop_
_symmetry_equiv_pos_site_id
_symmetry_equiv_pos_as_xyz
1 x,y,z
2 -x,1/2+y,1/2-z
3 -x,-y,-z
4 x,1/2-y,1/2+z
_cell_length_a                   15.3446(10)
_cell_length_b                   17.9822(12)
_cell_length_c                   19.1595(11)
_cell_angle_alpha                90
_cell_angle_beta                 93.128(6)
_cell_angle_gamma                90
_cell_volume                     5278.8
_exptl_crystal_colour            'light yellow'
_exptl_crystal_description       needle
_cell_formula_units_Z            8
loop_
_atom_site_label
_atom_site_type_symbol
_atom_site_fract_x
_atom_site_fract_y
_atom_site_fract_z
N1 N -0.20441(12) 0.35393(11) 0.40530(11)
H1 H -0.240901 0.318821 0.394901
N2 N -0.01141(11) 0.32284(11) 0.30699(10)
N3 N -0.00549(13) 0.25470(12) 0.40851(12)
N4 N 0.12129(13) 0.31820(11) 0.37235(11)
C1 C -0.12749(17) 0.50495(14) 0.51201(14)
H2 H -0.083295 0.540236 0.510728
C2 C -0.18210(18) 0.50403(15) 0.56592(15)
H3 H -0.173893 0.538397 0.601950
C3 C -0.24999(17) 0.45256(15) 0.56805(14)
H4 H -0.285726 0.453088 0.605726
C4 C -0.26519(16) 0.40133(15) 0.51596(14)
H5 H -0.311303 0.367851 0.516901
C5 C -0.20886(15) 0.40144(13) 0.46164(13)
C6 C -0.13900(14) 0.45173(13) 0.45835(13)
C7 C -0.09226(15) 0.43124(14) 0.39919(13)
H6 H -0.042640 0.454714 0.384155
C8 C -0.13276(15) 0.37126(13) 0.36833(13)
C9 C -0.10488(14) 0.32600(13) 0.30997(13)
C10 C -0.15542(15) 0.29149(13) 0.26028(13)
C11 C -0.24847(16) 0.30943(16) 0.24423(12)
C12 C -0.27787(18) 0.38209(18) 0.24576(15)
H7 H -0.239819 0.420109 0.259938
C13 C -0.3646(2) 0.3983(2) 0.22603(17)
H8 H -0.384231 0.447212 0.226843
C14 C -0.4215(2) 0.3421(3) 0.20533(17)
H9 H -0.479393 0.353047 0.192497
C15 C -0.3927(2) 0.2707(3) 0.20371(16)
H10 H -0.431183 0.232732 0.190212
C16 C -0.30690(16) 0.25419(18) 0.22193(13)
H11 H -0.287689 0.205272 0.219287
C17 C -0.11626(15) 0.23560(14) 0.21436(14)
C18 C -0.07318(18) 0.17456(16) 0.24213(17)
H12 H -0.068111 0.168008 0.290326
C19 C -0.0372(2) 0.12257(19) 0.1984(3)
H13 H -0.009547 0.080712 0.217683
C20 C -0.0417(2) 0.1321(2) 0.1280(3)
H14 H -0.015264 0.097921 0.099488
C21 C -0.0852(2) 0.1919(3) 0.0992(2)
H15 H -0.089739 0.198002 0.050965
C22 C -0.12242(18) 0.24315(17) 0.14216(15)
H16 H -0.152249 0.283624 0.122312
C23 C 0.03791(15) 0.29721(13) 0.36450(13)
C24 C 0.16233(17) 0.29798(16) 0.43264(15)
H17 H 0.220358 0.311890 0.440822
C25 C 0.12357(19) 0.25806(19) 0.48269(16)
H18 H 0.152750 0.246389 0.525092
C26 C 0.0396(2) 0.23607(17) 0.46735(16)
H19 H 0.012439 0.206570 0.499592
C27 C 0.02530(15) 0.35250(13) 0.24609(13)
C28 C -0.00995(17) 0.41561(15) 0.21540(15)
H20 H -0.054719 0.440533 0.236406
C29 C 0.02065(19) 0.44247(17) 0.15341(16)
H21 H -0.004961 0.484703 0.133179
C30 C 0.08753(19) 0.40850(17) 0.12117(15)
C31 C 0.12288(18) 0.34567(17) 0.15273(14)
H22 H 0.168795 0.321801 0.132253
C32 C 0.09232(16) 0.31674(14) 0.21408(13)
H23 H 0.116751 0.273622 0.233505
C33 C 0.1211(2) 0.4398(2) 0.05415(16)
H24 H 0.172328 0.469152 0.064936
H25 H 0.076837 0.470481 0.031404
H26 H 0.135224 0.399727 0.023707
N5 N 0.30392(12) 0.36062(11) 0.31886(10)
H27 H 0.255835 0.336387 0.321131
N6 N 0.45983(12) 0.28758(10) 0.45193(10)
N7 N 0.51422(13) 0.37719(12) 0.52992(11)
N8 N 0.36160(12) 0.36587(11) 0.50149(11)
C34 C 0.42968(19) 0.51240(14) 0.26022(14)
H28 H 0.488032 0.526609 0.263674
C35 C 0.3688(2) 0.55571(16) 0.22443(15)
H29 H 0.386220 0.599445 0.203352
C36 C 0.2815(2) 0.53515(16) 0.21922(15)
H30 H 0.241501 0.565969 0.195209
C37 C 0.25262(18) 0.47083(15) 0.24840(13)
H31 H 0.194011 0.457458 0.244570
C38 C 0.31392(16) 0.42660(13) 0.28372(12)
C39 C 0.40280(15) 0.44645(13) 0.29153(12)
C40 C 0.44454(15) 0.39115(13) 0.33432(12)
H32 H 0.503250 0.390205 0.349180
C41 C 0.38326(15) 0.33964(13) 0.34979(12)
C42 C 0.39721(14) 0.27405(13) 0.39518(12)
C43 C 0.36079(15) 0.20644(13) 0.38632(13)
C44 C 0.31423(18) 0.18410(14) 0.31948(16)
C45 C 0.23741(19) 0.14367(17) 0.31967(19)
H33 H 0.213533 0.131952 0.361873
C46 C 0.1961(3) 0.1207(2) 0.2576(3)
H34 H 0.145155 0.092763 0.258689
C47 C 0.2282(4) 0.1379(3) 0.1951(3)
H35 H 0.199187 0.122583 0.153664
C48 C 0.3034(3) 0.1780(2) 0.1935(2)
H36 H 0.326013 0.190084 0.150860
C49 C 0.3464(2) 0.20088(17) 0.25549(17)
H37 H 0.397840 0.228020 0.253844
C50 C 0.36892(16) 0.14899(15) 0.44193(17)
C51 C 0.35308(17) 0.16561(18) 0.51077(17)
H38 H 0.338471 0.213952 0.522826
C52 C 0.3588(2) 0.1108(3) 0.5619(2)
H39 H 0.348433 0.122708 0.607948
C53 C 0.3797(3) 0.0394(3) 0.5448(3)
H40 H 0.383409 0.002682 0.579042
C54 C 0.3949(3) 0.0225(2) 0.4774(3)
H41 H 0.409631 -0.025948 0.465903
C55 C 0.38900(19) 0.07616(17) 0.4256(2)
H42 H 0.398532 0.063268 0.379621
C56 C 0.44521(15) 0.34642(13) 0.49696(12)
C57 C 0.34830(17) 0.42459(15) 0.54195(14)
H43 H 0.291385 0.441232 0.545832
C58 C 0.41390(18) 0.46137(16) 0.57784(15)
H44 H 0.403216 0.502050 0.606103
C59 C 0.49626(19) 0.43526(17) 0.57009(15)
H45 H 0.542466 0.459244 0.594124
C60 C 0.54084(15) 0.24846(12) 0.45569(12)
C61 C 0.57505(16) 0.22103(14) 0.51899(13)
H46 H 0.543625 0.226138 0.558871
C62 C 0.65501(17) 0.18632(14) 0.52341(15)
H47 H 0.677395 0.169167 0.566533
C63 C 0.70295(16) 0.17638(14) 0.46477(15)
C64 C 0.66710(16) 0.20237(13) 0.40219(14)
H48 H 0.697519 0.195603 0.361994
C65 C 0.58761(15) 0.23812(13) 0.39696(13)
H49 H 0.565442 0.255308 0.353788
C66 C 0.79148(18) 0.13923(18) 0.46946(18)
H50 H 0.790965 0.097269 0.438467
H51 H 0.804585 0.122791 0.516538
H52 H 0.835109 0.174057 0.456358
loop_
_geom_bond_atom_site_label_1
_geom_bond_atom_site_label_2
_geom_bond_site_symmetry_1
_geom_bond_site_symmetry_2
N1 H1 1_555 1_555
N2 C9 1_555 1_555
N3 C23 1_555 1_555
N4 C23 1_555 1_555
C1 H2 1_555 1_555
C2 C1 1_555 1_555
H3 C2 1_555 1_555
C3 C2 1_555 1_555
H4 C3 1_555 1_555
C4 C3 1_555 1_555
H5 C4 1_555 1_555
C5 N1 1_555 1_555
C6 C1 1_555 1_555
C7 C6 1_555 1_555
H6 C7 1_555 1_555
C8 N1 1_555 1_555
C9 C8 1_555 1_555
C10 C9 1_555 1_555
C11 C10 1_555 1_555
C12 C11 1_555 1_555
H7 C12 1_555 1_555
C13 C12 1_555 1_555
H8 C13 1_555 1_555
C14 C13 1_555 1_555
H9 C14 1_555 1_555
C15 C14 1_555 1_555
H10 C15 1_555 1_555
C16 C11 1_555 1_555
H11 C16 1_555 1_555
C17 C10 1_555 1_555
C18 C17 1_555 1_555
H12 C18 1_555 1_555
C19 C18 1_555 1_555
H13 C19 1_555 1_555
C20 C19 1_555 1_555
H14 C20 1_555 1_555
C21 C20 1_555 1_555
H15 C21 1_555 1_555
C22 C17 1_555 1_555
H16 C22 1_555 1_555
C23 N2 1_555 1_555
C24 N4 1_555 1_555
H17 C24 1_555 1_555
C25 C24 1_555 1_555
H18 C25 1_555 1_555
C26 N3 1_555 1_555
H19 C26 1_555 1_555
C27 N2 1_555 1_555
C28 C27 1_555 1_555
H20 C28 1_555 1_555
C29 C28 1_555 1_555
H21 C29 1_555 1_555
C30 C29 1_555 1_555
C31 C30 1_555 1_555
H22 C31 1_555 1_555
C32 C27 1_555 1_555
H23 C32 1_555 1_555
C33 C30 1_555 1_555
H24 C33 1_555 1_555
H25 C33 1_555 1_555
H26 C33 1_555 1_555
N5 H27 1_555 1_555
N6 C42 1_555 1_555
N7 C56 1_555 1_555
N8 C56 1_555 1_555
C34 H28 1_555 1_555
C35 C34 1_555 1_555
H29 C35 1_555 1_555
C36 C35 1_555 1_555
H30 C36 1_555 1_555
C37 C36 1_555 1_555
H31 C37 1_555 1_555
C38 N5 1_555 1_555
C39 C34 1_555 1_555
C40 C39 1_555 1_555
H32 C40 1_555 1_555
C41 N5 1_555 1_555
C42 C41 1_555 1_555
C43 C42 1_555 1_555
C44 C43 1_555 1_555
C45 C44 1_555 1_555
H33 C45 1_555 1_555
C46 C45 1_555 1_555
H34 C46 1_555 1_555
C47 C46 1_555 1_555
H35 C47 1_555 1_555
C48 C47 1_555 1_555
H36 C48 1_555 1_555
C49 C44 1_555 1_555
H37 C49 1_555 1_555
C50 C43 1_555 1_555
C51 C50 1_555 1_555
H38 C51 1_555 1_555
C52 C51 1_555 1_555
H39 C52 1_555 1_555
C53 C52 1_555 1_555
H40 C53 1_555 1_555
C54 C53 1_555 1_555
H41 C54 1_555 1_555
C55 C50 1_555 1_555
H42 C55 1_555 1_555
C56 N6 1_555 1_555
C57 N8 1_555 1_555
H43 C57 1_555 1_555
C58 C57 1_555 1_555
H44 C58 1_555 1_555
C59 N7 1_555 1_555
H45 C59 1_555 1_555
C60 N6 1_555 1_555
C61 C60 1_555 1_555
H46 C61 1_555 1_555
C62 C61 1_555 1_555
H47 C62 1_555 1_555
C63 C62 1_555 1_555
C64 C63 1_555 1_555
H48 C64 1_555 1_555
C65 C60 1_555 1_555
H49 C65 1_555 1_555
C66 C63 1_555 1_555
H50 C66 1_555 1_555
H51 C66 1_555 1_555
H52 C66 1_555 1_555
C4 C5 1_555 1_555
C5 C6 1_555 1_555
C7 C8 1_555 1_555
C15 C16 1_555 1_555
C21 C22 1_555 1_555
C25 C26 1_555 1_555
C31 C32 1_555 1_555
C37 C38 1_555 1_555
C38 C39 1_555 1_555
C40 C41 1_555 1_555
C48 C49 1_555 1_555
C54 C55 1_555 1_555
C58 C59 1_555 1_555
C64 C65 1_555 1_555

#END
