
#######################################################################
#
#                 Cambridge Crystallographic Data Centre
#                                CCDC 
#
#######################################################################
#
# If this CIF has been generated from an entry in the Cambridge 
# Structural Database, then it will include bibliographic, chemical, 
# crystal, experimental, refinement or atomic coordinate data resulting 
# from the CCDC's data processing and validation procedures.
#
#######################################################################

data_RERLEH
_chemical_formula_moiety         'C18 H27 N1 O4 S1'
_chemical_name_systematic        
9,9-Dimethyl-1-((4-methylphenyl)sulfonyl)-1-azaspiro[4.5]decane-6,7-diol
_symmetry_cell_setting           triclinic
_symmetry_space_group_name_H-M   'P -1'
_symmetry_Int_Tables_number      2
_space_group_name_Hall           '-P 1'
loop_
_symmetry_equiv_pos_site_id
_symmetry_equiv_pos_as_xyz
1 x,y,z
2 -x,-y,-z
_cell_length_a                   9.9411(4)
_cell_length_b                   14.1752(5)
_cell_length_c                   14.3185(6)
_cell_angle_alpha                66.168(2)
_cell_angle_beta                 82.0060(10)
_cell_angle_gamma                90.097(2)
_cell_volume                     1824.01
_exptl_crystal_colour            colorless
_exptl_crystal_description       prism
_cell_formula_units_Z            4
loop_
_atom_site_label
_atom_site_type_symbol
_atom_site_fract_x
_atom_site_fract_y
_atom_site_fract_z
C1 C 0.3810(6) -1.6146(4) 0.2725(4)
C2 C 0.3800(6) -1.5758(5) 0.1676(5)
H1 H 0.3890 -1.5048 0.1284
C3 C 0.3655(7) -1.6429(6) 0.1207(5)
H2 H 0.3658 -1.6167 0.0497
C4 C 0.3505(6) -1.7499(5) 0.1792(6)
C5 C 0.3339(9) -1.8235(6) 0.1290(7)
H3 H 0.3242 -1.8932 0.1807
H4 H 0.4127 -1.8156 0.0787
H5 H 0.2544 -1.8087 0.0956
C6 C 0.3503(6) -1.7864(5) 0.2841(5)
H6 H 0.3400 -1.8573 0.3238
C7 C 0.3652(6) -1.7205(4) 0.3317(5)
H7 H 0.3645 -1.7466 0.4027
C8 C 0.1434(6) -1.5437(4) 0.3886(5)
H8 H 0.1440 -1.5696 0.4625
H9 H 0.1344 -1.6014 0.3695
C9 C 0.0324(6) -1.4701(5) 0.3556(5)
H10 H 0.0134 -1.4612 0.2880
H11 H -0.0507 -1.4945 0.4049
C10 C 0.0913(6) -1.3712(4) 0.3529(5)
H12 H 0.0778 -1.3719 0.4216
H13 H 0.0479 -1.3125 0.3077
C11 C 0.2450(5) -1.3643(4) 0.3118(4)
C12 C 0.3353(6) -1.3277(4) 0.3705(4)
H14 H 0.4294 -1.3401 0.3495
C13 C 0.3304(6) -1.2146(4) 0.3451(5)
H15 H 0.3978 -1.1974 0.3805
C14 C 0.3732(6) -1.1512(5) 0.2297(5)
H16 H 0.4682 -1.1612 0.2116
H17 H 0.3659 -1.0787 0.2157
C15 C 0.2905(6) -1.1774(4) 0.1601(4)
C16 C 0.1507(7) -1.1312(5) 0.1570(6)
H18 H 0.1014 -1.1506 0.1138
H19 H 0.1628 -1.0572 0.1297
H20 H 0.1005 -1.1568 0.2257
C17 C 0.3689(8) -1.1313(6) 0.0508(5)
H21 H 0.4563 -1.1600 0.0504
H22 H 0.3812 -1.0577 0.0275
H23 H 0.3189 -1.1470 0.0057
C18 C 0.2811(6) -1.2971(4) 0.1951(4)
H24 H 0.2135 -1.3139 0.1605
H25 H 0.3680 -1.3168 0.1708
N1 N 0.2661(4) -1.4756(3) 0.3294(4)
O1 O 0.4348(5) -1.5894(3) 0.4330(3)
O2 O 0.5126(4) -1.4510(3) 0.2628(4)
O3 O 0.3010(4) -1.3898(3) 0.4798(3)
H26 H 0.2839 -1.3521 0.5102
O4 O 0.2018(4) -1.1870(3) 0.3812(4)
H27 H 0.1492 -1.2385 0.4092
S1 S 0.40869(14) -1.52862(11) 0.33001(12)
C19 C 0.7093(6) -1.1234(4) 0.2803(4)
C20 C 0.7001(6) -1.2282(4) 0.3384(5)
H28 H 0.6700 -1.2542 0.4091
C21 C 0.7357(6) -1.2953(5) 0.2918(5)
H29 H 0.7298 -1.3661 0.3319
C22 C 0.7795(6) -1.2589(5) 0.1871(5)
C23 C 0.8170(9) -1.3301(6) 0.1352(6)
H30 H 0.8457 -1.2903 0.0627
H31 H 0.7394 -1.3753 0.1449
H32 H 0.8899 -1.3704 0.1648
C24 C 0.7897(7) -1.1514(5) 0.1300(5)
H33 H 0.8190 -1.1250 0.0592
C25 C 0.7581(7) -1.0847(5) 0.1750(5)
H34 H 0.7690 -1.0138 0.1358
C26 C 0.9050(6) -1.0456(4) 0.3881(5)
H35 H 0.9228 -1.1027 0.3682
H36 H 0.8761 -1.0724 0.4622
C27 C 1.0272(6) -0.9701(5) 0.3542(5)
H37 H 1.0742 -0.9620 0.2871
H38 H 1.0903 -0.9926 0.4038
C28 C 0.9673(6) -0.8699(4) 0.3492(5)
H39 H 1.0277 -0.8110 0.3025
H40 H 0.9534 -0.8687 0.4171
C29 C 0.8296(5) -0.8668(4) 0.3093(4)
C30 C 0.7156(6) -0.8301(4) 0.3667(4)
H41 H 0.6296 -0.8439 0.3470
C31 C 0.7308(6) -0.7152(4) 0.3406(5)
H42 H 0.6497 -0.6974 0.3760
C32 C 0.7324(6) -0.6563(4) 0.2250(5)
H43 H 0.7447 -0.5830 0.2081
H44 H 0.6441 -0.6683 0.2089
C33 C 0.8422(6) -0.6839(4) 0.1550(4)
C34 C 0.9837(7) -0.6342(5) 0.1485(6)
H45 H 0.9787 -0.5608 0.1256
H46 H 1.0485 -0.6486 0.1005
H47 H 1.0117 -0.6623 0.2155
C35 C 0.8064(8) -0.6404(5) 0.0447(5)
H48 H 0.8070 -0.5664 0.0185
H49 H 0.7176 -0.6680 0.0459
H50 H 0.8723 -0.6597 0.0009
C36 C 0.8382(6) -0.8022(4) 0.1925(4)
H51 H 0.9192 -0.8195 0.1579
H52 H 0.7605 -0.8236 0.1699
N2 N 0.8041(5) -0.9795(3) 0.3309(4)
O5 O 0.5798(4) -0.9600(3) 0.2695(3)
O6 O 0.5957(4) -1.0959(3) 0.4399(3)
O7 O 0.7084(4) -0.8886(3) 0.4768(3)
H53 H 0.6462 -0.8692 0.5074
O8 O 0.8455(4) -0.6850(3) 0.3722(3)
H54 H 0.8419 -0.7169 0.4348
S2 S 0.66008(14) -1.03539(11) 0.33528(12)
loop_
_geom_bond_atom_site_label_1
_geom_bond_atom_site_label_2
_geom_bond_site_symmetry_1
_geom_bond_site_symmetry_2
C1 C2 1_555 1_555
C2 H1 1_555 1_555
C3 C2 1_555 1_555
H2 C3 1_555 1_555
C4 C3 1_555 1_555
C5 C4 1_555 1_555
H3 C5 1_555 1_555
H4 C5 1_555 1_555
H5 C5 1_555 1_555
C6 C4 1_555 1_555
H6 C6 1_555 1_555
C7 C1 1_555 1_555
H7 C7 1_555 1_555
C8 H8 1_555 1_555
H9 C8 1_555 1_555
C9 C8 1_555 1_555
H10 C9 1_555 1_555
H11 C9 1_555 1_555
C10 C9 1_555 1_555
H12 C10 1_555 1_555
H13 C10 1_555 1_555
C11 C10 1_555 1_555
C12 C11 1_555 1_555
H14 C12 1_555 1_555
C13 C12 1_555 1_555
H15 C13 1_555 1_555
C14 C13 1_555 1_555
H16 C14 1_555 1_555
H17 C14 1_555 1_555
C15 C14 1_555 1_555
C16 C15 1_555 1_555
H18 C16 1_555 1_555
H19 C16 1_555 1_555
H20 C16 1_555 1_555
C17 C15 1_555 1_555
H21 C17 1_555 1_555
H22 C17 1_555 1_555
H23 C17 1_555 1_555
C18 C11 1_555 1_555
H24 C18 1_555 1_555
H25 C18 1_555 1_555
N1 C8 1_555 1_555
O1 S1 1_555 1_555
O2 S1 1_555 1_555
O3 C12 1_555 1_555
H26 O3 1_555 1_555
O4 C13 1_555 1_555
H27 O4 1_555 1_555
S1 C1 1_555 1_555
C19 C20 1_555 1_555
C20 H28 1_555 1_555
C21 C20 1_555 1_555
H29 C21 1_555 1_555
C22 C21 1_555 1_555
C23 C22 1_555 1_555
H30 C23 1_555 1_555
H31 C23 1_555 1_555
H32 C23 1_555 1_555
C24 C22 1_555 1_555
H33 C24 1_555 1_555
C25 C19 1_555 1_555
H34 C25 1_555 1_555
C26 H35 1_555 1_555
H36 C26 1_555 1_555
C27 C26 1_555 1_555
H37 C27 1_555 1_555
H38 C27 1_555 1_555
C28 C27 1_555 1_555
H39 C28 1_555 1_555
H40 C28 1_555 1_555
C29 C28 1_555 1_555
C30 C29 1_555 1_555
H41 C30 1_555 1_555
C31 C30 1_555 1_555
H42 C31 1_555 1_555
C32 C31 1_555 1_555
H43 C32 1_555 1_555
H44 C32 1_555 1_555
C33 C32 1_555 1_555
C34 C33 1_555 1_555
H45 C34 1_555 1_555
H46 C34 1_555 1_555
H47 C34 1_555 1_555
C35 C33 1_555 1_555
H48 C35 1_555 1_555
H49 C35 1_555 1_555
H50 C35 1_555 1_555
C36 C29 1_555 1_555
H51 C36 1_555 1_555
H52 C36 1_555 1_555
N2 C26 1_555 1_555
O5 S2 1_555 1_555
O6 S2 1_555 1_555
O7 C30 1_555 1_555
H53 O7 1_555 1_555
O8 C31 1_555 1_555
H54 O8 1_555 1_555
S2 C19 1_555 1_555
C6 C7 1_555 1_555
C11 N1 1_555 1_555
C15 C18 1_555 1_555
N1 S1 1_555 1_555
C24 C25 1_555 1_555
C29 N2 1_555 1_555
C33 C36 1_555 1_555
N2 S2 1_555 1_555

#END
