
#######################################################################
#
#                 Cambridge Crystallographic Data Centre
#                                CCDC 
#
#######################################################################
#
# If this CIF has been generated from an entry in the Cambridge 
# Structural Database, then it will include bibliographic, chemical, 
# crystal, experimental, refinement or atomic coordinate data resulting 
# from the CCDC's data processing and validation procedures.
#
#######################################################################

data_RERLOR
_chemical_formula_moiety         'C16 H22 O5 S1'
_chemical_name_systematic        
'6-Hydroxy-1-oxaspiro[4.5]dec-7-yl 4-methylbenzenesulfonate'
_symmetry_cell_setting           monoclinic
_symmetry_space_group_name_H-M   'P 21/n'
_symmetry_Int_Tables_number      14
_space_group_name_Hall           '-P 2yn'
loop_
_symmetry_equiv_pos_site_id
_symmetry_equiv_pos_as_xyz
1 x,y,z
2 1/2-x,1/2+y,1/2-z
3 -x,-y,-z
4 1/2+x,1/2-y,1/2+z
_cell_length_a                   5.9020(2)
_cell_length_b                   34.8990(12)
_cell_length_c                   7.9480(2)
_cell_angle_alpha                90
_cell_angle_beta                 100.6710(10)
_cell_angle_gamma                90
_cell_volume                     1608.77
_exptl_crystal_colour            colorless
_exptl_crystal_description       prism
_cell_formula_units_Z            4
loop_
_atom_site_label
_atom_site_type_symbol
_atom_site_fract_x
_atom_site_fract_y
_atom_site_fract_z
C1 C 0.4185(6) 0.07178(10) 0.3892(4)
C2 C 0.6304(6) 0.05467(11) 0.3983(5)
H1 H 0.7027 0.0545 0.3038
C3 C 0.7343(7) 0.03771(12) 0.5514(5)
H2 H 0.8764 0.0257 0.5580
C4 C 0.6317(7) 0.03822(11) 0.6937(5)
C5 C 0.7536(9) 0.02150(15) 0.8617(6)
H3 H 0.8997 0.0112 0.8478
H4 H 0.6608 0.0015 0.8967
H5 H 0.7775 0.0412 0.9474
C6 C 0.4194(7) 0.05514(11) 0.6800(4)
H6 H 0.3474 0.0554 0.7746
C7 C 0.3107(6) 0.07173(11) 0.5307(4)
H7 H 0.1661 0.0829 0.5239
C8 C 0.5373(5) 0.15627(10) 0.3264(4)
H8 H 0.6566 0.1371 0.3199
C9 C 0.5653(6) 0.18981(11) 0.2131(4)
H9 H 0.4402 0.2079 0.2127
H10 H 0.5606 0.1811 0.0967
C10 C 0.7952(6) 0.20922(11) 0.2803(4)
H11 H 0.8101 0.2318 0.2121
H12 H 0.9200 0.1918 0.2695
C11 C 0.8140(6) 0.22080(10) 0.4677(4)
H13 H 0.9658 0.2315 0.5086
H14 H 0.7014 0.2407 0.4755
C12 C 0.7754(5) 0.18782(9) 0.5826(4)
C13 C 0.5451(5) 0.16790(9) 0.5114(4)
H15 H 0.5290 0.1451 0.5800
C14 C 0.7921(6) 0.19836(11) 0.7715(4)
H16 H 0.8630 0.2233 0.7949
H17 H 0.6402 0.1989 0.8017
C15 C 0.9316(16) 0.1693(2) 0.8659(6)
H18 H 1.0590 0.1811 0.9431
H19 H 0.8404 0.1550 0.9342
C16 C 1.0199(7) 0.14354(13) 0.7521(4)
H20 H 0.9534 0.1182 0.7566
H21 H 1.1863 0.1415 0.7840
O1 O 0.0469(5) 0.08903(9) 0.1708(4)
O2 O 0.4191(5) 0.09108(9) 0.0753(3)
O3 O 0.3058(4) 0.13952(7) 0.2655(3)
O4 O 0.3670(3) 0.19428(7) 0.5258(3)
H22 H 0.2931 0.1991 0.4303
O5 O 0.9562(3) 0.15955(7) 0.5822(2)
S1 S 0.28726(15) 0.09663(3) 0.20571(10)
loop_
_geom_bond_atom_site_label_1
_geom_bond_atom_site_label_2
_geom_bond_site_symmetry_1
_geom_bond_site_symmetry_2
C1 C2 1_555 1_555
C2 H1 1_555 1_555
C3 C2 1_555 1_555
H2 C3 1_555 1_555
C4 C3 1_555 1_555
C5 C4 1_555 1_555
H3 C5 1_555 1_555
H4 C5 1_555 1_555
H5 C5 1_555 1_555
C6 C4 1_555 1_555
H6 C6 1_555 1_555
C7 C1 1_555 1_555
H7 C7 1_555 1_555
C8 H8 1_555 1_555
C9 C8 1_555 1_555
H9 C9 1_555 1_555
H10 C9 1_555 1_555
C10 C9 1_555 1_555
H11 C10 1_555 1_555
H12 C10 1_555 1_555
C11 C10 1_555 1_555
H13 C11 1_555 1_555
H14 C11 1_555 1_555
C12 C11 1_555 1_555
C13 C8 1_555 1_555
H15 C13 1_555 1_555
C14 C12 1_555 1_555
H16 C14 1_555 1_555
H17 C14 1_555 1_555
C15 C14 1_555 1_555
H18 C15 1_555 1_555
H19 C15 1_555 1_555
C16 C15 1_555 1_555
H20 C16 1_555 1_555
H21 C16 1_555 1_555
O1 S1 1_555 1_555
O2 S1 1_555 1_555
O3 C8 1_555 1_555
O4 C13 1_555 1_555
H22 O4 1_555 1_555
O5 C12 1_555 1_555
S1 C1 1_555 1_555
C6 C7 1_555 1_555
C12 C13 1_555 1_555
C16 O5 1_555 1_555
O3 S1 1_555 1_555

#END
