
#######################################################################
#
#                 Cambridge Crystallographic Data Centre
#                                CCDC 
#
#######################################################################
#
# If this CIF has been generated from an entry in the Cambridge 
# Structural Database, then it will include bibliographic, chemical, 
# crystal, experimental, refinement or atomic coordinate data resulting 
# from the CCDC's data processing and validation procedures.
#
#######################################################################

data_RERMIN
_chemical_formula_moiety         'C9 H14 N2 2+,2(C2 F3 O2 1-)'
_chemical_name_systematic        
'(S)-8-ammonio-5,6,7,8-tetrahydroquinolin-1-ium 2,2,2-trifluoroacetate'
_symmetry_cell_setting           trigonal
_symmetry_space_group_name_H-M   'P 31 2 1'
_symmetry_Int_Tables_number      152
_space_group_name_Hall           'P 31 2"'
loop_
_symmetry_equiv_pos_site_id
_symmetry_equiv_pos_as_xyz
1 x,y,z
2 -y,x-y,1/3+z
3 -x+y,-x,2/3+z
4 x-y,-y,2/3-z
5 -x,-x+y,1/3-z
6 y,x,-z
_cell_length_a                   9.4705(5)
_cell_length_b                   9.4705(5)
_cell_length_c                   30.3088(15)
_cell_angle_alpha                90
_cell_angle_beta                 90
_cell_angle_gamma                120
_cell_volume                     2354.21
_exptl_crystal_colour            colorless
_exptl_crystal_description       plate
_cell_formula_units_Z            6
_chemical_properties_physical    air-sensitive
_exptl_crystal_recrystallization_method dichloromethane
loop_
_atom_site_label
_atom_site_type_symbol
_atom_site_fract_x
_atom_site_fract_y
_atom_site_fract_z
C1 C -1.0505(4) -0.3386(4) -0.56707(11)
C2 C -0.9193(5) -0.1777(4) -0.54886(12)
H1 H -0.9720 -0.1206 -0.5346
C3 C -0.8055(5) -0.0690(5) -0.58508(13)
H2 H -0.7068 0.0220 -0.5715
H3 H -0.8607 -0.0216 -0.6023
C4 C -0.7553(5) -0.1628(6) -0.61610(14)
H4 H -0.6776 -0.0873 -0.6383
H5 H -0.6997 -0.2101 -0.5991
C5 C -0.9037(5) -0.2983(6) -0.63926(13)
H6 H -0.9413 -0.2498 -0.6621
H7 H -0.8718 -0.3709 -0.6543
C6 C -1.0420(5) -0.3981(5) -0.60826(11)
C7 C -1.1683(5) -0.5531(5) -0.62006(13)
H8 H -1.1653 -0.5975 -0.6479
C8 C -1.2965(5) -0.6419(5) -0.59198(13)
H9 H -1.3804 -0.7481 -0.5999
C9 C -1.3017(5) -0.5751(5) -0.55220(12)
H10 H -1.3912 -0.6337 -0.5328
N1 N -1.1801(4) -0.4272(4) -0.54094(9)
H11 H -1.184(5) -0.380(5) -0.5131(14)
N2 N -0.8244(4) -0.2103(3) -0.51453(9)
H12 H -0.8929 -0.2725 -0.4926
H13 H -0.7454 -0.1141 -0.5031
H14 H -0.7776 -0.2642 -0.5271
C10 C -0.5379(5) 0.1841(5) -0.45809(11)
O1 O -0.5704(3) 0.0757(4) -0.48550(10)
O2 O -0.4040(3) 0.3005(3) -0.44855(9)
C11 C -0.6887(10) 0.1710(10) -0.4341(2)
F1 F -0.8298(18) 0.0637(11) -0.4532(4)
F2 F -0.6959(10) 0.1259(12) -0.3921(2)
F3 F -0.6853(13) 0.3135(9) -0.4333(3)
C14 C -1.1174(4) -0.3340(4) -0.43468(11)
C15 C -1.1778(5) -0.3263(5) -0.38784(11)
F10 F -1.3396(3) -0.3840(3) -0.38637(7)
F11 F -1.1461(3) -0.4096(3) -0.35811(7)
F12 F -1.1066(3) -0.1712(3) -0.37414(8)
O3 O -1.1833(4) -0.2948(4) -0.46453(7)
O4 O -1.0095(3) -0.3703(3) -0.43781(8)
C12? C -0.6709(11) 0.1687(15) -0.4253(3)
F4? F -0.8194(14) 0.0479(16) -0.4363(4)
F5? F -0.6438(14) 0.1365(17) -0.3842(3)
F6? F -0.680(2) 0.3045(15) -0.4205(5)
C13? C -0.690(3) 0.1836(19) -0.4416(4)
F7? F -0.834(5) 0.0497(17) -0.4491(9)
F8? F -0.679(2) 0.207(2) -0.3979(4)
F9? F -0.6997(18) 0.3103(16) -0.4575(5)
loop_
_geom_bond_atom_site_label_1
_geom_bond_atom_site_label_2
_geom_bond_site_symmetry_1
_geom_bond_site_symmetry_2
C1 C2 1_555 1_555
C2 H1 1_555 1_555
C3 C2 1_555 1_555
H2 C3 1_555 1_555
H3 C3 1_555 1_555
C4 C3 1_555 1_555
H4 C4 1_555 1_555
H5 C4 1_555 1_555
C5 C4 1_555 1_555
H6 C5 1_555 1_555
H7 C5 1_555 1_555
C6 C1 1_555 1_555
C7 C6 1_555 1_555
H8 C7 1_555 1_555
C8 C7 1_555 1_555
H9 C8 1_555 1_555
C9 C8 1_555 1_555
H10 C9 1_555 1_555
N1 C1 1_555 1_555
H11 N1 1_555 1_555
N2 C2 1_555 1_555
H12 N2 1_555 1_555
H13 N2 1_555 1_555
H14 N2 1_555 1_555
C10 O1 1_555 1_555
O2 C10 1_555 1_555
C11 C10 1_555 1_555
F1 C11 1_555 1_555
F2 C11 1_555 1_555
F3 C11 1_555 1_555
C14 C15 1_555 1_555
C15 F10 1_555 1_555
F11 C15 1_555 1_555
F12 C15 1_555 1_555
O3 C14 1_555 1_555
O4 C14 1_555 1_555
C5 C6 1_555 1_555
C9 N1 1_555 1_555

#END
