
#######################################################################
#
#                 Cambridge Crystallographic Data Centre
#                                CCDC 
#
#######################################################################
#
# If this CIF has been generated from an entry in the Cambridge 
# Structural Database, then it will include bibliographic, chemical, 
# crystal, experimental, refinement or atomic coordinate data resulting 
# from the CCDC's data processing and validation procedures.
#
#######################################################################

data_RERMUX
_chemical_name_common            
'2,7,12-Tribromo-5,5,10,10,15,15-hexaethyltruxene trihydrate'
_chemical_formula_moiety         'C39 H39 Br3,3(H2 O1)'
_chemical_name_systematic        
"2,7,12-Tribromo-5,5,10,10,15,15-hexaethyl-10,15-dihydro-5H-diindeno[1,2-a:1',2'-c]fluorene trihydrate"
_symmetry_cell_setting           cubic
_symmetry_space_group_name_H-M   'P a -3'
_symmetry_Int_Tables_number      205
_space_group_name_Hall           '-P 2ac 2ab 3'
loop_
_symmetry_equiv_pos_site_id
_symmetry_equiv_pos_as_xyz
1 x,y,z
2 z,x,y
3 y,z,x
4 1/2-x,-y,1/2+z
5 -x,1/2+y,1/2-z
6 1/2+x,1/2-y,-z
7 1/2+z,1/2-x,-y
8 1/2-z,-x,1/2+y
9 -z,1/2+x,1/2-y
10 -y,1/2+z,1/2-x
11 1/2+y,1/2-z,-x
12 1/2-y,-z,1/2+x
13 -x,-y,-z
14 -z,-x,-y
15 -y,-z,-x
16 1/2+x,y,1/2-z
17 x,1/2-y,1/2+z
18 1/2-x,1/2+y,z
19 1/2-z,1/2+x,y
20 1/2+z,x,1/2-y
21 z,1/2-x,1/2+y
22 y,1/2-z,1/2+x
23 1/2-y,1/2+z,x
24 1/2+y,z,1/2-x
_cell_length_a                   19.732(2)
_cell_length_b                   19.732(2)
_cell_length_c                   19.732(2)
_cell_angle_alpha                90
_cell_angle_beta                 90
_cell_angle_gamma                90
_cell_volume                     7682.69
_exptl_crystal_colour            colorless
_exptl_crystal_description       block
_cell_formula_units_Z            8
loop_
_atom_site_label
_atom_site_type_symbol
_atom_site_fract_x
_atom_site_fract_y
_atom_site_fract_z
O1 O 0.5188(6) 0.4814(6) 0.8989(5)
H1 H 0.5535 0.4531 0.8997
H2 H 0.5192 0.4974 0.9403
Br1 Br 0.18842(4) 0.53201(3) 0.99851(3)
C1 C 0.2380(2) 0.4056(2) 0.8395(2)
C2 C 0.2383(3) 0.4585(2) 0.8856(2)
H3 H 0.2711 0.4922 0.8833
C3 C 0.1885(3) 0.4600(2) 0.9351(2)
C4 C 0.1408(2) 0.4105(2) 0.9393(2)
H4 H 0.1080 0.4122 0.9731
C5 C 0.1411(2) 0.3576(2) 0.8932(2)
H5 H 0.1085 0.3236 0.8966
C6 C 0.1897(2) 0.3545(2) 0.8415(2)
C7 C 0.2035(2) 0.30772(19) 0.78500(19)
C8 C 0.26098(19) 0.33090(18) 0.7504(2)
C9 C 0.2879(2) 0.3953(2) 0.7827(2)
C10 C 0.3592(2) 0.3869(3) 0.8133(2)
H6 H 0.3911 0.3782 0.7769
H7 H 0.3723 0.4292 0.8347
C11 C 0.3648(3) 0.3304(4) 0.8651(3)
H8 H 0.4104 0.3282 0.8817
H9 H 0.3530 0.2881 0.8442
H10 H 0.3344 0.3393 0.9021
C12 C 0.2843(3) 0.4563(2) 0.7338(3)
H11 H 0.2953 0.4972 0.7587
H12 H 0.3183 0.4505 0.6988
C13 C 0.2155(3) 0.4652(3) 0.7003(3)
H13 H 0.2168 0.5038 0.6707
H14 H 0.1816 0.4721 0.7345
H15 H 0.2047 0.4254 0.6745
Br1F Br 0.49851(3) 0.31158(4) 0.46799(3)
Br1K Br -0.03201(3) 0.00149(3) 0.68842(4)
C1F C 0.3395(2) 0.2620(2) 0.5944(2)
C1K C 0.0944(2) 0.1605(2) 0.7380(2)
C2F C 0.3856(2) 0.2617(3) 0.5415(2)
C2K C 0.0415(2) 0.1144(2) 0.7383(3)
H3F H 0.3833 0.2289 0.5078
H3K H 0.0078 0.1167 0.7711
C3F C 0.4351(2) 0.3115(3) 0.5400(2)
C3K C 0.0400(2) 0.0649(2) 0.6885(3)
C4F C 0.4393(2) 0.3592(2) 0.5895(2)
C4K C 0.0895(2) 0.0607(2) 0.6408(2)
H4F H 0.4731 0.3920 0.5878
H4K H 0.0878 0.0269 0.6080
C5F C 0.3932(2) 0.3589(2) 0.6424(2)
C5K C 0.1424(2) 0.1068(2) 0.6411(2)
H5F H 0.3966 0.3915 0.6764
H5K H 0.1764 0.1034 0.6085
C6F C 0.3415(2) 0.3103(2) 0.6455(2)
C6K C 0.1455(2) 0.1585(2) 0.6897(2)
C7F C 0.28500(19) 0.2965(2) 0.69228(19)
C7K C 0.19228(19) 0.21500(19) 0.7035(2)
C8F C 0.2504(2) 0.23902(19) 0.66910(18)
C8K C 0.16910(18) 0.2496(2) 0.76098(19)
C9F C 0.2827(2) 0.2121(2) 0.6047(2)
C9K C 0.1047(2) 0.2173(2) 0.7879(2)
C10K C 0.1131(3) 0.1867(2) 0.8592(2)
C10F C 0.3133(2) 0.1408(2) 0.6131(3)
H6K H 0.1218 0.2231 0.8911
H6F H 0.2769 0.1089 0.6218
H7K H 0.0708 0.1653 0.8723
H7F H 0.3347 0.1277 0.5708
C11K C 0.1696(4) 0.1349(3) 0.8648(3)
C11F C 0.3651(3) 0.1352(3) 0.6696(4)
H8K H 0.1718 0.1183 0.9104
H8F H 0.3817 0.0896 0.6718
H9K H 0.2119 0.1558 0.8530
H9F H 0.3442 0.1470 0.7119
H10K H 0.1607 0.0979 0.8344
H10F H 0.4021 0.1656 0.6607
C12K C 0.0437(2) 0.2662(3) 0.7843(3)
C12F C 0.2338(3) 0.2157(3) 0.5437(2)
H11K H 0.0028 0.2413 0.7953
H11F H 0.2587 0.2047 0.5028
H12K H 0.0495 0.3012 0.8183
H12F H 0.1988 0.1817 0.5495
C13K C 0.0348(3) 0.2997(3) 0.7155(3)
C13F C 0.2003(3) 0.2845(3) 0.5348(3)
H13K H -0.0038 0.3293 0.7168
H13F H 0.1707 0.2832 0.4962
H14K H 0.0279 0.2655 0.6816
H14F H 0.2345 0.3184 0.5279
H15K H 0.0746 0.3255 0.7047
H15F H 0.1745 0.2953 0.5746
loop_
_geom_bond_atom_site_label_1
_geom_bond_atom_site_label_2
_geom_bond_site_symmetry_1
_geom_bond_site_symmetry_2
O1 H1 1_555 1_555
H2 O1 1_555 1_555
Br1 C3 1_555 1_555
C1 C2 1_555 1_555
C2 H3 1_555 1_555
C3 C2 1_555 1_555
C4 C3 1_555 1_555
H4 C4 1_555 1_555
C5 C4 1_555 1_555
H5 C5 1_555 1_555
C6 C1 1_555 1_555
C7 C6 1_555 1_555
C8 C7 1_555 1_555
C9 C1 1_555 1_555
C10 C9 1_555 1_555
H6 C10 1_555 1_555
H7 C10 1_555 1_555
C11 C10 1_555 1_555
H8 C11 1_555 1_555
H9 C11 1_555 1_555
H10 C11 1_555 1_555
C12 C9 1_555 1_555
H11 C12 1_555 1_555
H12 C12 1_555 1_555
C13 C12 1_555 1_555
H13 C13 1_555 1_555
H14 C13 1_555 1_555
H15 C13 1_555 1_555
Br1F C3F 1_555 1_555
Br1K C3K 1_555 1_555
C1F C2F 1_555 1_555
C1K C2K 1_555 1_555
C2F H3F 1_555 1_555
C2K H3K 1_555 1_555
C3F C2F 1_555 1_555
C3K C2K 1_555 1_555
C4F C3F 1_555 1_555
C4K C3K 1_555 1_555
H4F C4F 1_555 1_555
H4K C4K 1_555 1_555
C5F C4F 1_555 1_555
C5K C4K 1_555 1_555
H5F C5F 1_555 1_555
H5K C5K 1_555 1_555
C6F C1F 1_555 1_555
C6K C1K 1_555 1_555
C7F C8 1_555 1_555
C7K C6K 1_555 1_555
C8F C7F 1_555 1_555
C8K C7 1_555 1_555
C9F C1F 1_555 1_555
C9K C1K 1_555 1_555
C10K C9K 1_555 1_555
C10F C9F 1_555 1_555
H6K C10K 1_555 1_555
H6F C10F 1_555 1_555
H7K C10K 1_555 1_555
H7F C10F 1_555 1_555
C11K C10K 1_555 1_555
C11F C10F 1_555 1_555
H8K C11K 1_555 1_555
H8F C11F 1_555 1_555
H9K C11K 1_555 1_555
H9F C11F 1_555 1_555
H10K C11K 1_555 1_555
H10F C11F 1_555 1_555
C12K C9K 1_555 1_555
C12F C9F 1_555 1_555
H11K C12K 1_555 1_555
H11F C12F 1_555 1_555
H12K C12K 1_555 1_555
H12F C12F 1_555 1_555
C13K C12K 1_555 1_555
C13F C12F 1_555 1_555
H13K C13K 1_555 1_555
H13F C13F 1_555 1_555
H14K C13K 1_555 1_555
H14F C13F 1_555 1_555
H15K C13K 1_555 1_555
H15F C13F 1_555 1_555
C5 C6 1_555 1_555
C8 C9 1_555 1_555
C5F C6F 1_555 1_555
C5K C6K 1_555 1_555
C6F C7F 1_555 1_555
C7K C8F 1_555 1_555
C7K C8K 1_555 1_555
C8F C9F 1_555 1_555
C8K C9K 1_555 1_555

#END
