
#######################################################################
#
#                 Cambridge Crystallographic Data Centre
#                                CCDC 
#
#######################################################################
#
# If this CIF has been generated from an entry in the Cambridge 
# Structural Database, then it will include bibliographic, chemical, 
# crystal, experimental, refinement or atomic coordinate data resulting 
# from the CCDC's data processing and validation procedures.
#
#######################################################################

data_RERNIM
_chemical_name_common            
2,7,12-tris(Diphenylamino)-5,5,10,10,15,15-hexaethyltruxene
_chemical_formula_moiety         'C75 H69 N3'
_chemical_name_systematic        
2,7,12-tris(Diphenylamino)-5,5,10,10,15,15-hexaethyl-10,15-dihydro-5H-diindeno[1,2-a:1',2'-c]fluorene
_symmetry_cell_setting           hexagonal
_symmetry_space_group_name_H-M   'P 63'
_symmetry_Int_Tables_number      173
_space_group_name_Hall           'P 6c'
loop_
_symmetry_equiv_pos_site_id
_symmetry_equiv_pos_as_xyz
1 x,y,z
2 -y,x-y,z
3 -x+y,-x,z
4 -x,-y,1/2+z
5 y,-x+y,1/2+z
6 x-y,x,1/2+z
_cell_length_a                   32.199(7)
_cell_length_b                   32.199(7)
_cell_length_c                   12.957(4)
_cell_angle_alpha                90
_cell_angle_beta                 90
_cell_angle_gamma                120
_cell_volume                     11633.8
_exptl_crystal_colour            colorless
_exptl_crystal_description       Bar
_chemical_melting_point          310-312deg.C
_cell_formula_units_Z            8
_exptl_crystal_recrystallization_method dichloromethane
_exptl_crystal_preparation       fluorescent
loop_
_atom_site_label
_atom_site_type_symbol
_atom_site_fract_x
_atom_site_fract_y
_atom_site_fract_z
C1 C 0.1488(3) 0.8650(3) 0.4182(5)
C2 C 0.1980(3) 0.8823(3) 0.4296(5)
C3 C 0.2271(3) 0.9380(3) 0.4229(6)
C4 C 0.2484(3) 0.9588(3) 0.5358(6)
H1 H 0.2739 0.9520 0.5504
H2 H 0.2625 0.9934 0.5343
C5 C 0.2130(4) 0.9394(4) 0.6225(7)
H3 H 0.2289 0.9537 0.6862
H4 H 0.1993 0.9053 0.6263
H5 H 0.1880 0.9469 0.6105
C6 C 0.2632(3) 0.9574(3) 0.3386(7)
H6 H 0.2870 0.9479 0.3509
H7 H 0.2795 0.9921 0.3403
C7 C 0.2417(3) 0.9402(3) 0.2322(6)
H8 H 0.2667 0.9531 0.1814
H9 H 0.2193 0.9510 0.2180
H10 H 0.2254 0.9058 0.2300
C8 C 0.1866(2) 0.9483(2) 0.4067(5)
C9 C 0.1423(3) 0.9073(2) 0.4051(6)
C10 C 0.1016(2) 0.9120(2) 0.3914(6)
H11 H 0.0710 0.8851 0.3917
C11 C 0.1074(2) 0.9569(2) 0.3778(6)
H12 H 0.0803 0.9598 0.3707
C12 C 0.1519(2) 0.9980(2) 0.3739(6)
C13 C 0.1925(2) 0.9933(2) 0.3948(5)
H13 H 0.2228 1.0204 0.4004
C14 C 0.1320(2) 1.0483(3) 0.2692(7)
C15 C 0.1245(3) 1.0213(3) 0.1825(7)
H14 H 0.1355 0.9996 0.1779
C16 C 0.0994(3) 1.0276(4) 0.1000(7)
H15 H 0.0940 1.0096 0.0403
C17 C 0.0835(4) 1.0577(5) 0.1049(8)
H16 H 0.0670 1.0606 0.0489
C18 C 0.0908(4) 1.0851(4) 0.1912(8)
H17 H 0.0791 1.1062 0.1938
C19 C 0.1162(3) 1.0811(3) 0.2770(7)
H18 H 0.1221 1.0998 0.3358
C20 C 0.1931(3) 1.0839(3) 0.4078(7)
C21 C 0.2260(3) 1.1244(2) 0.3565(7)
H19 H 0.2242 1.1248 0.2849
C22 C 0.2605(4) 1.1634(4) 0.4036(11)
H20 H 0.2811 1.1904 0.3652
C23 C 0.2656(3) 1.1636(4) 0.5128(11)
H21 H 0.2910 1.1894 0.5459
C24 C 0.2330(4) 1.1258(4) 0.5670(8)
H22 H 0.2345 1.1261 0.6387
C25 C 0.1962(3) 1.0852(2) 0.5145(6)
H23 H 0.1739 1.0590 0.5526
C26 C 0.2159(3) 0.8504(3) 0.4423(6)
C27 C 0.1828(3) 0.8006(3) 0.4452(5)
C28 C 0.2104(3) 0.7732(3) 0.4464(5)
C29 C 0.2027(4) 0.7433(4) 0.5486(8)
H24 H 0.1701 0.7165 0.5491
H25 H 0.2242 0.7304 0.5474
C30 C 0.2114(7) 0.7723(7) 0.6498(11)
H26 H 0.2063 0.7519 0.7080
H27 H 0.1895 0.7843 0.6532
H28 H 0.2437 0.7987 0.6509
C31 C 0.2009(3) 0.7412(3) 0.3551(7)
H29 H 0.1684 0.7144 0.3596
H30 H 0.2226 0.7285 0.3575
C32 C 0.2072(5) 0.7667(5) 0.2510(8)
H31 H 0.1997 0.7442 0.1958
H32 H 0.2398 0.7922 0.2441
H33 H 0.1861 0.7797 0.2481
C33 C 0.2597(3) 0.8118(3) 0.4580(7)
C34 C 0.2631(3) 0.8564(3) 0.4604(6)
C35 C 0.3060(3) 0.8955(3) 0.4824(7)
H34 H 0.3088 0.9256 0.4841
C36 C 0.3459(3) 0.8909(3) 0.5025(7)
H35 H 0.3751 0.9177 0.5193
C37 C 0.3415(3) 0.8444(3) 0.4970(7)
C38 C 0.2983(3) 0.8058(3) 0.4775(7)
H36 H 0.2947 0.7753 0.4772
C39 C 0.4130(3) 0.8668(3) 0.6013(8)
C40 C 0.3961(4) 0.8743(3) 0.6954(8)
H37 H 0.3632 0.8599 0.7055
C41 C 0.4251(5) 0.9008(4) 0.7703(9)
H38 H 0.4132 0.9077 0.8291
C42 C 0.4768(5) 0.9192(4) 0.7581(11)
H39 H 0.4982 0.9379 0.8094
C43 C 0.4931(4) 0.9084(5) 0.6690(12)
H40 H 0.5252 0.9171 0.6616
C44 C 0.4623(3) 0.8856(4) 0.5960(10)
H41 H 0.4745 0.8814 0.5341
C45 C 0.3909(3) 0.8063(4) 0.4751(14)
C46 C 0.3950(4) 0.7731(4) 0.5386(12)
H42 H 0.3940 0.7740 0.6102
C47 C 0.4008(5) 0.7378(5) 0.4837(19)
H43 H 0.4042 0.7152 0.5216
C48 C 0.4016(5) 0.7359(6) 0.3897(18)
H44 H 0.4073 0.7131 0.3594
C49 C 0.3943(4) 0.7665(5) 0.3258(15)
H45 H 0.3925 0.7625 0.2545
C50 C 0.3901(4) 0.8024(5) 0.3712(19)
H46 H 0.3866 0.8242 0.3306
C51 C 0.1343(3) 0.7842(3) 0.4411(6)
C52 C 0.1162(3) 0.8156(3) 0.4280(5)
C53 C 0.0615(3) 0.7890(3) 0.4268(6)
C54 C 0.0419(3) 0.7905(3) 0.3248(6)
H47 H 0.0492 0.8231 0.3121
H48 H 0.0073 0.7706 0.3279
C55 C 0.0595(3) 0.7743(4) 0.2338(7)
H49 H 0.0442 0.7763 0.1719
H50 H 0.0520 0.7417 0.2442
H51 H 0.0936 0.7946 0.2273
C56 C 0.0409(2) 0.8051(2) 0.5165(5)
H52 H 0.0480 0.8377 0.5030
H53 H 0.0063 0.7848 0.5169
C57 C 0.0601(3) 0.8036(3) 0.6242(6)
H54 H 0.0445 0.8128 0.6751
H55 H 0.0941 0.8254 0.6264
H56 H 0.0537 0.7716 0.6383
C58 C 0.0512(3) 0.7378(3) 0.4563(7)
C59 C 0.0933(3) 0.7347(3) 0.4612(6)
C60 C 0.0872(3) 0.6890(3) 0.4860(8)
H57 H 0.1140 0.6854 0.4910
C61 C 0.0422(3) 0.6498(3) 0.5027(6)
H58 H 0.0389 0.6200 0.5165
C62 C 0.0012(3) 0.6551(3) 0.4987(6)
C63 C 0.0066(3) 0.6986(3) 0.4764(8)
H59 H -0.0203 0.7022 0.4746
C64 C -0.0503(3) 0.5823(3) 0.6039(7)
C65 C -0.0255(3) 0.5992(3) 0.6949(7)
H60 H -0.0056 0.6321 0.7028
C66 C -0.0286(4) 0.5699(4) 0.7742(9)
H61 H -0.0094 0.5819 0.8324
C67 C -0.0625(5) 0.5201(4) 0.7643(10)
H62 H -0.0665 0.4990 0.8175
C68 C -0.0891(5) 0.5037(4) 0.6764(14)
H63 H -0.1126 0.4716 0.6704
C69 C -0.0808(4) 0.5344(3) 0.5985(9)
H64 H -0.0970 0.5219 0.5367
C70 C -0.0850(3) 0.6077(3) 0.4750(13)
C71 C -0.1256(4) 0.5991(4) 0.5340(12)
H65 H -0.1258 0.5942 0.6048
C72 C -0.1642(4) 0.5979(3) 0.4885(16)
H66 H -0.1900 0.5943 0.5275
C73 C -0.1638(4) 0.6024(4) 0.3784(15)
H67 H -0.1901 0.5998 0.3431
C74 C -0.1245(4) 0.6104(4) 0.3290(13)
H68 H -0.1243 0.6148 0.2581
C75 C -0.0843(5) 0.6130(4) 0.3697(19)
H69 H -0.0583 0.6179 0.3293
N1 N 0.15736(19) 1.04346(18) 0.3547(5)
N2 N 0.3834(3) 0.8417(3) 0.5196(6)
N3 N -0.0435(2) 0.6133(2) 0.5206(6)
C76 C 0.3503(3) 0.6339(3) 0.9476(6)
C77 C 0.3011(3) 0.6173(3) 0.9487(5)
C78 C 0.2730(3) 0.5629(3) 0.9451(6)
C79 C 0.2422(4) 0.5401(3) 1.0467(8)
H70 H 0.2155 0.5461 1.0468
H71 H 0.2290 0.5057 1.0446
C80 C 0.2699(7) 0.5592(4) 1.1467(11)
H72 H 0.2489 0.5438 1.2041
H73 H 0.2824 0.5932 1.1506
H74 H 0.2958 0.5526 1.1486
C81 C 0.2417(4) 0.5420(4) 0.8522(9)
H75 H 0.2164 0.5501 0.8543
H76 H 0.2267 0.5074 0.8548
C82 C 0.2689(6) 0.5598(4) 0.7509(9)
H77 H 0.2471 0.5455 0.6942
H78 H 0.2934 0.5512 0.7473
H79 H 0.2834 0.5941 0.7471
C83 C 0.3127(3) 0.5499(3) 0.9566(7)
C84 C 0.3572(3) 0.5913(3) 0.9600(6)
C85 C 0.3971(3) 0.5847(3) 0.9764(8)
H80 H 0.4278 0.6114 0.9780
C86 C 0.3915(3) 0.5400(3) 0.9898(6)
H81 H 0.4183 0.5367 1.0005
C87 C 0.3459(3) 0.4994(3) 0.9874(6)
C88 C 0.3061(3) 0.5042(3) 0.9706(7)
H82 H 0.2756 0.4774 0.9686
C89 C 0.3655(3) 0.4488(3) 1.0940(7)
C90 C 0.3740(3) 0.4748(3) 1.1868(7)
H83 H 0.3629 0.4964 1.1921
C91 C 0.3964(4) 0.4702(4) 1.2648(9)
H84 H 0.4027 0.4893 1.3230
C92 C 0.4115(4) 0.4350(5) 1.2603(10)
H85 H 0.4274 0.4308 1.3159
C93 C 0.4020(5) 0.4073(6) 1.1719(12)
H86 H 0.4104 0.3836 1.1683
C94 C 0.3801(4) 0.4153(4) 1.0902(9)
H87 H 0.3749 0.3976 1.0301
C95 C 0.3035(4) 0.4133(3) 0.9663(9)
C96 C 0.3045(3) 0.4140(3) 0.8542(8)
H88 H 0.3274 0.4409 0.8187
C97 C 0.2717(4) 0.3750(4) 0.8030(8)
H89 H 0.2727 0.3743 0.7313
C98 C 0.2370(3) 0.3362(3) 0.8548(7)
H90 H 0.2143 0.3098 0.8177
C99 C 0.2349(4) 0.3354(4) 0.9606(9)
H91 H 0.2109 0.3093 0.9959
C100 C 0.2696(3) 0.3745(3) 1.0119(8)
H92 H 0.2694 0.3736 1.0836
N4 N 0.3420(3) 0.4549(2) 1.0068(5)
C76B C 0.2836(4) 0.6497(3) 0.9476(6)
C76A C 0.3661(3) 0.7164(4) 0.9476(6)
C77B C 0.3162(4) 0.6989(3) 0.9487(5)
C77A C 0.3827(3) 0.6838(4) 0.9487(5)
C78A C 0.4371(3) 0.7101(4) 0.9451(6)
C78B C 0.2899(4) 0.7270(3) 0.9451(6)
C79A C 0.4599(3) 0.7021(5) 1.0467(8)
C79B C 0.2979(5) 0.7578(4) 1.0467(8)
H70A H 0.4539 0.6694 1.0468
H70B H 0.3306 0.7845 1.0468
H71A H 0.4943 0.7233 1.0446
H71B H 0.2767 0.7710 1.0446
C80A C 0.4408(4) 0.7107(8) 1.1467(11)
C80B C 0.2893(8) 0.7301(7) 1.1467(11)
H72A H 0.4562 0.7051 1.2041
H72B H 0.2949 0.7511 1.2041
H73A H 0.4068 0.6892 1.1506
H73B H 0.3108 0.7176 1.1506
H74A H 0.4474 0.7432 1.1486
H74B H 0.2568 0.7042 1.1486
C81A C 0.4580(4) 0.6997(6) 0.8522(9)
C81B C 0.3003(6) 0.7583(4) 0.8522(9)
H75A H 0.4499 0.6663 0.8543
H75B H 0.3337 0.7836 0.8543
H76A H 0.4926 0.7193 0.8548
H76B H 0.2807 0.7733 0.8548
C82A C 0.4402(4) 0.7091(7) 0.7509(9)
C82B C 0.2909(7) 0.7311(6) 0.7509(9)
H77A H 0.4545 0.7016 0.6942
H77B H 0.2984 0.7529 0.6942
H78A H 0.4488 0.7422 0.7473
H78B H 0.2578 0.7066 0.7473
H79A H 0.4059 0.6893 0.7471
H79B H 0.3107 0.7166 0.7471
C83A C 0.4501(3) 0.7628(4) 0.9566(7)
C83B C 0.2372(4) 0.6873(3) 0.9566(7)
C84A C 0.4087(3) 0.7659(4) 0.9600(6)
C84B C 0.2341(4) 0.6428(3) 0.9600(6)
C85A C 0.4153(3) 0.8124(4) 0.9764(8)
C85B C 0.1876(4) 0.6029(3) 0.9764(8)
H80A H 0.3886 0.8164 0.9780
H80B H 0.1836 0.5722 0.9780
C86A C 0.4600(3) 0.8515(4) 0.9898(6)
C86B C 0.1485(4) 0.6085(3) 0.9898(6)
H81A H 0.4633 0.8816 1.0005
H81B H 0.1184 0.5817 1.0005
C87A C 0.5006(3) 0.8465(4) 0.9874(6)
C87B C 0.1535(4) 0.6541(3) 0.9874(6)
C88A C 0.4958(3) 0.8019(4) 0.9706(7)
C88B C 0.1981(4) 0.6939(3) 0.9706(7)
H82A H 0.5226 0.7982 0.9686
H82B H 0.2018 0.7244 0.9686
C89A C 0.5512(3) 0.9167(4) 1.0940(7)
C89B C 0.0833(4) 0.6345(3) 1.0940(7)
C90A C 0.5252(3) 0.8992(4) 1.1868(7)
C90B C 0.1008(4) 0.6260(3) 1.1868(7)
H83A H 0.5036 0.8665 1.1921
H83B H 0.1335 0.6371 1.1921
C91A C 0.5298(4) 0.9262(6) 1.2648(9)
C91B C 0.0738(6) 0.6036(4) 1.2648(9)
H84A H 0.5107 0.9134 1.3230
H84B H 0.0866 0.5973 1.3230
C92A C 0.5650(5) 0.9765(6) 1.2603(10)
C92B C 0.0235(6) 0.5885(4) 1.2603(10)
H85A H 0.5692 0.9966 1.3159
H85B H 0.0034 0.5726 1.3159
C93A C 0.5927(6) 0.9947(8) 1.1719(12)
C93B C 0.0053(8) 0.5980(5) 1.1719(12)
H86A H 0.6164 1.0268 1.1683
H86B H -0.0268 0.5896 1.1683
C94A C 0.5847(4) 0.9648(6) 1.0902(9)
C94B C 0.0352(6) 0.6199(4) 1.0902(9)
H87A H 0.6024 0.9773 1.0301
H87B H 0.0227 0.6251 1.0301
C95A C 0.5867(3) 0.8902(5) 0.9663(9)
C95B C 0.1098(5) 0.6965(4) 0.9663(9)
C96A C 0.5860(3) 0.8905(4) 0.8542(8)
C96B C 0.1095(4) 0.6955(3) 0.8542(8)
H88A H 0.5591 0.8865 0.8187
H88B H 0.1135 0.6726 0.8187
C97A C 0.6250(4) 0.8967(6) 0.8030(8)
C97B C 0.1033(6) 0.7283(4) 0.8030(8)
H89A H 0.6257 0.8984 0.7313
H89B H 0.1016 0.7273 0.7313
C98A C 0.6638(3) 0.9008(4) 0.8548(7)
C98B C 0.0992(4) 0.7630(3) 0.8548(7)
H90A H 0.6902 0.9045 0.8177
H90B H 0.0955 0.7857 0.8177
C99A C 0.6646(4) 0.8995(6) 0.9606(9)
C99B C 0.1005(6) 0.7651(4) 0.9606(9)
H91A H 0.6907 0.9016 0.9959
H91B H 0.0984 0.7891 0.9959
C100A C 0.6255(3) 0.8951(4) 1.0119(8)
C100B C 0.1049(4) 0.7304(3) 1.0119(8)
H92A H 0.6264 0.8958 1.0836
H92B H 0.1042 0.7306 1.0836
N4A N 0.5451(2) 0.8871(4) 1.0068(5)
N4B N 0.1129(4) 0.6580(3) 1.0068(5)
loop_
_geom_bond_atom_site_label_1
_geom_bond_atom_site_label_2
_geom_bond_site_symmetry_1
_geom_bond_site_symmetry_2
C1 C2 1_555 1_555
C2 C3 1_555 1_555
C3 C4 1_555 1_555
C4 H1 1_555 1_555
H2 C4 1_555 1_555
C5 C4 1_555 1_555
H3 C5 1_555 1_555
H4 C5 1_555 1_555
H5 C5 1_555 1_555
C6 C3 1_555 1_555
H6 C6 1_555 1_555
H7 C6 1_555 1_555
C7 C6 1_555 1_555
H8 C7 1_555 1_555
H9 C7 1_555 1_555
H10 C7 1_555 1_555
C8 C3 1_555 1_555
C9 C1 1_555 1_555
C10 C9 1_555 1_555
H11 C10 1_555 1_555
C11 C10 1_555 1_555
H12 C11 1_555 1_555
C12 C11 1_555 1_555
C13 C8 1_555 1_555
H13 C13 1_555 1_555
C14 C15 1_555 1_555
C15 H14 1_555 1_555
C16 C15 1_555 1_555
H15 C16 1_555 1_555
C17 C16 1_555 1_555
H16 C17 1_555 1_555
C18 C17 1_555 1_555
H17 C18 1_555 1_555
C19 C14 1_555 1_555
H18 C19 1_555 1_555
C20 C21 1_555 1_555
C21 H19 1_555 1_555
C22 C21 1_555 1_555
H20 C22 1_555 1_555
C23 C22 1_555 1_555
H21 C23 1_555 1_555
C24 C23 1_555 1_555
H22 C24 1_555 1_555
C25 C20 1_555 1_555
H23 C25 1_555 1_555
C26 C2 1_555 1_555
C27 C26 1_555 1_555
C28 C27 1_555 1_555
C29 C28 1_555 1_555
H24 C29 1_555 1_555
H25 C29 1_555 1_555
C30 C29 1_555 1_555
H26 C30 1_555 1_555
H27 C30 1_555 1_555
H28 C30 1_555 1_555
C31 C28 1_555 1_555
H29 C31 1_555 1_555
H30 C31 1_555 1_555
C32 C31 1_555 1_555
H31 C32 1_555 1_555
H32 C32 1_555 1_555
H33 C32 1_555 1_555
C33 C28 1_555 1_555
C34 C26 1_555 1_555
C35 C34 1_555 1_555
H34 C35 1_555 1_555
C36 C35 1_555 1_555
H35 C36 1_555 1_555
C37 C36 1_555 1_555
C38 C33 1_555 1_555
H36 C38 1_555 1_555
C39 C40 1_555 1_555
C40 H37 1_555 1_555
C41 C40 1_555 1_555
H38 C41 1_555 1_555
C42 C41 1_555 1_555
H39 C42 1_555 1_555
C43 C42 1_555 1_555
H40 C43 1_555 1_555
C44 C39 1_555 1_555
H41 C44 1_555 1_555
C45 C46 1_555 1_555
C46 H42 1_555 1_555
C47 C46 1_555 1_555
H43 C47 1_555 1_555
C48 C47 1_555 1_555
H44 C48 1_555 1_555
C49 C48 1_555 1_555
H45 C49 1_555 1_555
C50 C45 1_555 1_555
H46 C50 1_555 1_555
C51 C27 1_555 1_555
C52 C1 1_555 1_555
C53 C52 1_555 1_555
C54 C53 1_555 1_555
H47 C54 1_555 1_555
H48 C54 1_555 1_555
C55 C54 1_555 1_555
H49 C55 1_555 1_555
H50 C55 1_555 1_555
H51 C55 1_555 1_555
C56 C53 1_555 1_555
H52 C56 1_555 1_555
H53 C56 1_555 1_555
C57 C56 1_555 1_555
H54 C57 1_555 1_555
H55 C57 1_555 1_555
H56 C57 1_555 1_555
C58 C53 1_555 1_555
C59 C51 1_555 1_555
C60 C59 1_555 1_555
H57 C60 1_555 1_555
C61 C60 1_555 1_555
H58 C61 1_555 1_555
C62 C61 1_555 1_555
C63 C58 1_555 1_555
H59 C63 1_555 1_555
C64 C65 1_555 1_555
C65 H60 1_555 1_555
C66 C65 1_555 1_555
H61 C66 1_555 1_555
C67 C66 1_555 1_555
H62 C67 1_555 1_555
C68 C67 1_555 1_555
H63 C68 1_555 1_555
C69 C64 1_555 1_555
H64 C69 1_555 1_555
C70 C71 1_555 1_555
C71 H65 1_555 1_555
C72 C71 1_555 1_555
H66 C72 1_555 1_555
C73 C72 1_555 1_555
H67 C73 1_555 1_555
C74 C73 1_555 1_555
H68 C74 1_555 1_555
C75 C70 1_555 1_555
H69 C75 1_555 1_555
C76 C77 1_555 1_555
C77 C78 1_555 1_555
C78 C79 1_555 1_555
C79 H70 1_555 1_555
H71 C79 1_555 1_555
C80 C79 1_555 1_555
H72 C80 1_555 1_555
H73 C80 1_555 1_555
H74 C80 1_555 1_555
C81 C78 1_555 1_555
H75 C81 1_555 1_555
H76 C81 1_555 1_555
C82 C81 1_555 1_555
H77 C82 1_555 1_555
H78 C82 1_555 1_555
H79 C82 1_555 1_555
C83 C78 1_555 1_555
C84 C76 1_555 1_555
C85 C84 1_555 1_555
H80 C85 1_555 1_555
C86 C85 1_555 1_555
H81 C86 1_555 1_555
C87 C86 1_555 1_555
C88 C83 1_555 1_555
H82 C88 1_555 1_555
C89 C90 1_555 1_555
C90 H83 1_555 1_555
C91 C90 1_555 1_555
H84 C91 1_555 1_555
C92 C91 1_555 1_555
H85 C92 1_555 1_555
C93 C92 1_555 1_555
H86 C93 1_555 1_555
C94 C89 1_555 1_555
H87 C94 1_555 1_555
C95 C96 1_555 1_555
C96 H88 1_555 1_555
C97 C96 1_555 1_555
H89 C97 1_555 1_555
C98 C97 1_555 1_555
H90 C98 1_555 1_555
C99 C98 1_555 1_555
H91 C99 1_555 1_555
C100 C95 1_555 1_555
H92 C100 1_555 1_555
N1 C12 1_555 1_555
N2 C37 1_555 1_555
N3 C62 1_555 1_555
N4 C87 1_555 1_555
C76B C77 1_555 1_555
C76A C77B 1_555 1_555
C77B C76B 1_555 1_555
C77A C76 1_555 1_555
C78A C77A 1_555 1_555
C78B C77B 1_555 1_555
C79A C78A 1_555 1_555
C79B C78B 1_555 1_555
H70A C79A 1_555 1_555
H70B C79B 1_555 1_555
H71A C79A 1_555 1_555
H71B C79B 1_555 1_555
C80A C79A 1_555 1_555
C80B C79B 1_555 1_555
H72A C80A 1_555 1_555
H72B C80B 1_555 1_555
H73A C80A 1_555 1_555
H73B C80B 1_555 1_555
H74A C80A 1_555 1_555
H74B C80B 1_555 1_555
C81A C78A 1_555 1_555
C81B C78B 1_555 1_555
H75A C81A 1_555 1_555
H75B C81B 1_555 1_555
H76A C81A 1_555 1_555
H76B C81B 1_555 1_555
C82A C81A 1_555 1_555
C82B C81B 1_555 1_555
H77A C82A 1_555 1_555
H77B C82B 1_555 1_555
H78A C82A 1_555 1_555
H78B C82B 1_555 1_555
H79A C82A 1_555 1_555
H79B C82B 1_555 1_555
C83A C78A 1_555 1_555
C83B C78B 1_555 1_555
C84A C76A 1_555 1_555
C84B C76B 1_555 1_555
C85A C84A 1_555 1_555
C85B C84B 1_555 1_555
H80A C85A 1_555 1_555
H80B C85B 1_555 1_555
C86A C85A 1_555 1_555
C86B C85B 1_555 1_555
H81A C86A 1_555 1_555
H81B C86B 1_555 1_555
C87A C86A 1_555 1_555
C87B C86B 1_555 1_555
C88A C83A 1_555 1_555
C88B C83B 1_555 1_555
H82A C88A 1_555 1_555
H82B C88B 1_555 1_555
C89A C90A 1_555 1_555
C89B C90B 1_555 1_555
C90A H83A 1_555 1_555
C90B H83B 1_555 1_555
C91A C90A 1_555 1_555
C91B C90B 1_555 1_555
H84A C91A 1_555 1_555
H84B C91B 1_555 1_555
C92A C91A 1_555 1_555
C92B C91B 1_555 1_555
H85A C92A 1_555 1_555
H85B C92B 1_555 1_555
C93A C92A 1_555 1_555
C93B C92B 1_555 1_555
H86A C93A 1_555 1_555
H86B C93B 1_555 1_555
C94A C89A 1_555 1_555
C94B C89B 1_555 1_555
H87A C94A 1_555 1_555
H87B C94B 1_555 1_555
C95A C96A 1_555 1_555
C95B C96B 1_555 1_555
C96A H88A 1_555 1_555
C96B H88B 1_555 1_555
C97A C96A 1_555 1_555
C97B C96B 1_555 1_555
H89A C97A 1_555 1_555
H89B C97B 1_555 1_555
C98A C97A 1_555 1_555
C98B C97B 1_555 1_555
H90A C98A 1_555 1_555
H90B C98B 1_555 1_555
C99A C98A 1_555 1_555
C99B C98B 1_555 1_555
H91A C99A 1_555 1_555
H91B C99B 1_555 1_555
C100A C95A 1_555 1_555
C100B C95B 1_555 1_555
H92A C100A 1_555 1_555
H92B C100B 1_555 1_555
N4A C87A 1_555 1_555
N4B C87B 1_555 1_555
C8 C9 1_555 1_555
C12 C13 1_555 1_555
C14 N1 1_555 1_555
C18 C19 1_555 1_555
C20 N1 1_555 1_555
C24 C25 1_555 1_555
C33 C34 1_555 1_555
C37 C38 1_555 1_555
C39 N2 1_555 1_555
C43 C44 1_555 1_555
C45 N2 1_555 1_555
C49 C50 1_555 1_555
C51 C52 1_555 1_555
C58 C59 1_555 1_555
C62 C63 1_555 1_555
C64 N3 1_555 1_555
C68 C69 1_555 1_555
C70 N3 1_555 1_555
C74 C75 1_555 1_555
C83 C84 1_555 1_555
C87 C88 1_555 1_555
C89 N4 1_555 1_555
C93 C94 1_555 1_555
C95 N4 1_555 1_555
C99 C100 1_555 1_555
C76A C77A 1_555 1_555
C83A C84A 1_555 1_555
C83B C84B 1_555 1_555
C87A C88A 1_555 1_555
C87B C88B 1_555 1_555
C89A N4A 1_555 1_555
C89B N4B 1_555 1_555
C93A C94A 1_555 1_555
C93B C94B 1_555 1_555
C95A N4A 1_555 1_555
C95B N4B 1_555 1_555
C99A C100A 1_555 1_555
C99B C100B 1_555 1_555

#END
