
#######################################################################
#
#                 Cambridge Crystallographic Data Centre
#                                CCDC 
#
#######################################################################
#
# If this CIF has been generated from an entry in the Cambridge 
# Structural Database, then it will include bibliographic, chemical, 
# crystal, experimental, refinement or atomic coordinate data resulting 
# from the CCDC's data processing and validation procedures.
#
#######################################################################

data_RERNUZ
_chemical_formula_moiety         'C28 H22 N2 O2,C10 H8 O1'
_chemical_name_systematic        
1-(5-(pyren-1-yl)-3-(4-methoxyphenyl)-4,5-dihydropyrazol-1-yl)ethanone-2-naphthol
_symmetry_cell_setting           monoclinic
_symmetry_space_group_name_H-M   'P 21'
_symmetry_Int_Tables_number      4
_space_group_name_Hall           'P 2yb'
loop_
_symmetry_equiv_pos_site_id
_symmetry_equiv_pos_as_xyz
1 x,y,z
2 -x,1/2+y,-z
_cell_length_a                   10.133(2)
_cell_length_b                   8.7760(18)
_cell_length_c                   16.458(3)
_cell_angle_alpha                90
_cell_angle_beta                 92.60(3)
_cell_angle_gamma                90
_cell_volume                     1462.06
_cell_formula_units_Z            2
loop_
_atom_site_label
_atom_site_type_symbol
_atom_site_fract_x
_atom_site_fract_y
_atom_site_fract_z
C1 C 0.4615(4) 0.9364(4) 1.0862(2)
N1 N 0.7533(4) 0.9756(4) 0.8647(2)
O1 O 0.7565(3) 1.2068(3) 1.03909(18)
O2 O 0.6771(4) 0.5864(4) 0.53933(19)
N2 N 0.7180(4) 1.0417(4) 0.9376(2)
C2 C 0.3453(5) 1.0214(5) 1.0593(3)
H1 H 0.3447 1.0740 1.0102
C3 C 0.2369(5) 1.0253(5) 1.1050(3)
H2 H 0.1643 1.0831 1.0870
C4 C 0.2309(5) 0.9440(6) 1.1792(3)
C5 C 0.3402(5) 0.8563(5) 1.2055(3)
C6 C 0.4556(5) 0.8568(4) 1.1602(2)
C7 C 0.1165(6) 0.9455(7) 1.2231(4)
H3 H 0.0440 1.0040 1.2058
C8 C 0.1129(8) 0.8584(9) 1.2927(5)
H4 H 0.0372 0.8597 1.3227
C9 C 0.2172(9) 0.7702(8) 1.3189(4)
H5 H 0.2104 0.7103 1.3651
C10 C 0.3342(7) 0.7687(6) 1.2772(3)
C11 C 0.4456(8) 0.6848(6) 1.3038(3)
H6 H 0.4411 0.6263 1.3507
C12 C 0.5594(6) 0.6854(6) 1.2639(3)
H7 H 0.6326 0.6314 1.2843
C13 C 0.5659(5) 0.7703(5) 1.1898(3)
C14 C 0.6780(5) 0.7690(5) 1.1448(3)
H8 H 0.7516 0.7142 1.1638
C15 C 0.6829(4) 0.8475(5) 1.0723(3)
H9 H 0.7594 0.8437 1.0432
C16 C 0.5766(4) 0.9314(4) 1.0421(2)
C17 C 0.5830(4) 1.0096(5) 0.9606(2)
H10 H 0.5319 1.1044 0.9608
C18 C 0.5338(4) 0.9089(5) 0.8888(2)
H11 H 0.5089 0.8084 0.9073
H12 H 0.4590 0.9551 0.8594
C19 C 0.6518(5) 0.9009(5) 0.8370(3)
C20 C 0.7977(5) 1.1431(5) 0.9782(3)
C21 C 0.9331(4) 1.1656(6) 0.9487(3)
H13 H 0.9796 1.2386 0.9827
H14 H 0.9274 1.2022 0.8937
H15 H 0.9798 1.0703 0.9508
C22 C 0.6556(4) 0.8202(5) 0.7589(3)
C23 C 0.5475(5) 0.7409(5) 0.7280(3)
H16 H 0.4707 0.7408 0.7568
C24 C 0.5494(5) 0.6604(6) 0.6546(3)
H17 H 0.4749 0.6075 0.6352
C25 C 0.6627(6) 0.6607(6) 0.6116(3)
C26 C 0.7717(5) 0.7389(6) 0.6422(3)
H18 H 0.8486 0.7389 0.6134
C27 C 0.7693(5) 0.8173(6) 0.7148(3)
H19 H 0.8444 0.8687 0.7344
C28 C 0.5727(5) 0.4913(7) 0.5098(3)
H20 H 0.5959 0.4459 0.4593
H21 H 0.4939 0.5510 0.5012
H22 H 0.5576 0.4127 0.5488
O3 O 0.1541(3) 0.9171(4) 0.8559(2)
H23 H 0.1813 0.8530 0.8888
C29 C 0.1529(4) 0.8576(6) 0.7800(3)
C30 C 0.1161(4) 0.9573(6) 0.7161(3)
H24 H 0.0927 1.0573 0.7274
C31 C 0.1148(5) 0.9084(7) 0.6385(4)
H25 H 0.0920 0.9768 0.5971
C32 C 0.1465(5) 0.7571(7) 0.6176(3)
C33 C 0.1423(6) 0.7012(10) 0.5381(4)
H26 H 0.1184 0.7663 0.4953
C34 C 0.1724(6) 0.5544(10) 0.5219(4)
H27 H 0.1673 0.5198 0.4684
C35 C 0.2112(5) 0.4544(7) 0.5843(4)
H28 H 0.2337 0.3541 0.5730
C36 C 0.2152(5) 0.5073(7) 0.6626(3)
H29 H 0.2405 0.4409 0.7045
C37 C 0.1829(4) 0.6570(6) 0.6819(3)
C38 C 0.1863(4) 0.7126(6) 0.7625(3)
H30 H 0.2122 0.6474 0.8048
loop_
_geom_bond_atom_site_label_1
_geom_bond_atom_site_label_2
_geom_bond_site_symmetry_1
_geom_bond_site_symmetry_2
C1 C2 1_555 1_555
N1 N2 1_555 1_555
O1 C20 1_555 1_555
O2 C25 1_555 1_555
N2 C17 1_555 1_555
C2 H1 1_555 1_555
C3 C2 1_555 1_555
H2 C3 1_555 1_555
C4 C3 1_555 1_555
C5 C4 1_555 1_555
C6 C1 1_555 1_555
C7 C4 1_555 1_555
H3 C7 1_555 1_555
C8 C7 1_555 1_555
H4 C8 1_555 1_555
C9 C8 1_555 1_555
H5 C9 1_555 1_555
C10 C5 1_555 1_555
C11 C10 1_555 1_555
H6 C11 1_555 1_555
C12 C11 1_555 1_555
H7 C12 1_555 1_555
C13 C6 1_555 1_555
C14 C13 1_555 1_555
H8 C14 1_555 1_555
C15 C14 1_555 1_555
H9 C15 1_555 1_555
C16 C1 1_555 1_555
C17 C16 1_555 1_555
H10 C17 1_555 1_555
C18 C17 1_555 1_555
H11 C18 1_555 1_555
H12 C18 1_555 1_555
C19 N1 1_555 1_555
C20 N2 1_555 1_555
C21 C20 1_555 1_555
H13 C21 1_555 1_555
H14 C21 1_555 1_555
H15 C21 1_555 1_555
C22 C19 1_555 1_555
C23 C22 1_555 1_555
H16 C23 1_555 1_555
C24 C23 1_555 1_555
H17 C24 1_555 1_555
C25 C24 1_555 1_555
C26 C25 1_555 1_555
H18 C26 1_555 1_555
C27 C22 1_555 1_555
H19 C27 1_555 1_555
C28 O2 1_555 1_555
H20 C28 1_555 1_555
H21 C28 1_555 1_555
H22 C28 1_555 1_555
O3 H23 1_555 1_555
C29 O3 1_555 1_555
C30 C29 1_555 1_555
H24 C30 1_555 1_555
C31 C30 1_555 1_555
H25 C31 1_555 1_555
C32 C31 1_555 1_555
C33 C32 1_555 1_555
H26 C33 1_555 1_555
C34 C33 1_555 1_555
H27 C34 1_555 1_555
C35 C34 1_555 1_555
H28 C35 1_555 1_555
C36 C35 1_555 1_555
H29 C36 1_555 1_555
C37 C32 1_555 1_555
C38 C29 1_555 1_555
H30 C38 1_555 1_555
C5 C6 1_555 1_555
C9 C10 1_555 1_555
C12 C13 1_555 1_555
C15 C16 1_555 1_555
C18 C19 1_555 1_555
C26 C27 1_555 1_555
C36 C37 1_555 1_555
C37 C38 1_555 1_555

#END
