
#######################################################################
#
#                 Cambridge Crystallographic Data Centre
#                                CCDC 
#
#######################################################################
#
# If this CIF has been generated from an entry in the Cambridge 
# Structural Database, then it will include bibliographic, chemical, 
# crystal, experimental, refinement or atomic coordinate data resulting 
# from the CCDC's data processing and validation procedures.
#
#######################################################################

data_RERNAG
_chemical_formula_moiety         'C11 H18 N6 O3 Si1'
_chemical_name_systematic        
4-oxo-3-((2-(trimethylsilyl)ethoxy)methyl)-3,4-dihydroimidazo[5,1-d][1,2,3,5]tetrazine-8-carboxamide
_symmetry_cell_setting           triclinic
_symmetry_space_group_name_H-M   'P -1'
_symmetry_Int_Tables_number      2
_space_group_name_Hall           '-P 1'
loop_
_symmetry_equiv_pos_site_id
_symmetry_equiv_pos_as_xyz
1 x,y,z
2 -x,-y,-z
_cell_length_a                   7.5168(10)
_cell_length_b                   9.0109(15)
_cell_length_c                   11.4120(15)
_cell_angle_alpha                88.485(12)
_cell_angle_beta                 78.814(11)
_cell_angle_gamma                86.275(12)
_cell_volume                     756.609
_exptl_crystal_colour            colorless
_exptl_crystal_description       plate
_cell_formula_units_Z            2
_exptl_crystal_recrystallization_method water/acetone
loop_
_atom_site_label
_atom_site_type_symbol
_atom_site_fract_x
_atom_site_fract_y
_atom_site_fract_z
C1 C -0.1396(2) 0.26723(17) 1.00353(14)
N1 N -0.17529(19) 0.25543(15) 0.89071(12)
N2 N -0.25869(19) 0.36377(15) 0.82780(12)
N3 N -0.30389(18) 0.49184(15) 0.87204(12)
C2 C -0.2703(2) 0.51990(17) 0.98287(14)
C3 C -0.2968(2) 0.64374(18) 1.05408(14)
N4 N -0.23598(19) 0.61072(15) 1.15878(12)
C4 C -0.1760(2) 0.47073(18) 1.15285(15)
H1 H -0.1277 0.4183 1.2141
N5 N -0.19194(18) 0.41006(15) 1.04770(12)
O1 O -0.06991(17) 0.17191(13) 1.05825(11)
C5 C -0.1286(2) 0.11377(18) 0.82735(15)
H2 H -0.1378 0.0309 0.8865
H3 H -0.2175 0.1003 0.7755
O2 O 0.04613(15) 0.10738(13) 0.75762(10)
C6 C 0.0615(2) 0.19592(19) 0.64917(15)
H4 H 0.0428 0.3029 0.6688
H5 H -0.0326 0.1707 0.6044
C7 C 0.2480(2) 0.16475(19) 0.57393(15)
H6 H 0.2654 0.0571 0.5568
H7 H 0.3402 0.1894 0.6204
Si1 Si 0.28769(6) 0.27221(5) 0.42821(4)
C8 C 0.2730(3) 0.4751(2) 0.46091(18)
H8 H 0.3389 0.4919 0.5251
H9 H 0.1453 0.5098 0.4859
H10 H 0.3271 0.5300 0.3889
C9 C 0.5166(3) 0.2141(2) 0.34147(17)
H11 H 0.5362 0.2661 0.2639
H12 H 0.5245 0.1065 0.3290
H13 H 0.6097 0.2392 0.3858
C10 C 0.1093(3) 0.2300(2) 0.34240(16)
H14 H 0.1425 0.2683 0.2604
H15 H -0.0078 0.2775 0.3808
H16 H 0.0996 0.1222 0.3411
C11 C -0.3811(2) 0.79254(17) 1.03065(14)
O3 O -0.47237(16) 0.80814(13) 0.95143(11)
N6 N -0.35561(19) 0.90079(15) 1.10149(12)
H17 H -0.4054 0.9907 1.0936
H18 H -0.2890 0.8825 1.1563
loop_
_geom_bond_atom_site_label_1
_geom_bond_atom_site_label_2
_geom_bond_site_symmetry_1
_geom_bond_site_symmetry_2
C1 N1 1_555 1_555
N1 N2 1_555 1_555
N2 N3 1_555 1_555
N3 C2 1_555 1_555
C2 C3 1_555 1_555
C3 N4 1_555 1_555
N4 C4 1_555 1_555
C4 H1 1_555 1_555
N5 C1 1_555 1_555
O1 C1 1_555 1_555
C5 N1 1_555 1_555
H2 C5 1_555 1_555
H3 C5 1_555 1_555
O2 C5 1_555 1_555
C6 O2 1_555 1_555
H4 C6 1_555 1_555
H5 C6 1_555 1_555
C7 C6 1_555 1_555
H6 C7 1_555 1_555
H7 C7 1_555 1_555
Si1 C7 1_555 1_555
C8 Si1 1_555 1_555
H8 C8 1_555 1_555
H9 C8 1_555 1_555
H10 C8 1_555 1_555
C9 Si1 1_555 1_555
H11 C9 1_555 1_555
H12 C9 1_555 1_555
H13 C9 1_555 1_555
C10 Si1 1_555 1_555
H14 C10 1_555 1_555
H15 C10 1_555 1_555
H16 C10 1_555 1_555
C11 C3 1_555 1_555
O3 C11 1_555 1_555
N6 C11 1_555 1_555
H17 N6 1_555 1_555
H18 N6 1_555 1_555
C2 N5 1_555 1_555
C4 N5 1_555 1_555

#END
