
#######################################################################
#
#                 Cambridge Crystallographic Data Centre
#                                CCDC 
#
#######################################################################
#
# If this CIF has been generated from an entry in the Cambridge 
# Structural Database, then it will include bibliographic, chemical, 
# crystal, experimental, refinement or atomic coordinate data resulting 
# from the CCDC's data processing and validation procedures.
#
#######################################################################

data_RERPEM
_chemical_formula_moiety         'C15 H12 F6 N1 O1 P1'
_chemical_name_systematic        
'N-[3,5-bis(trifluoromethyl)phenyl]-P-methyl-P-phenylphosphinic amide'
_symmetry_cell_setting           monoclinic
_symmetry_space_group_name_H-M   'P 21'
_symmetry_Int_Tables_number      4
_space_group_name_Hall           'P 2yb'
loop_
_symmetry_equiv_pos_site_id
_symmetry_equiv_pos_as_xyz
1 x,y,z
2 -x,1/2+y,-z
_cell_length_a                   10.17707(14)
_cell_length_b                   8.43885(15)
_cell_length_c                   18.8541(3)
_cell_angle_alpha                90
_cell_angle_beta                 101.7242(15)
_cell_angle_gamma                90
_cell_volume                     1585.46
_exptl_crystal_colour            colorless
_exptl_crystal_description       prism
_cell_formula_units_Z            4
loop_
_atom_site_label
_atom_site_type_symbol
_atom_site_fract_x
_atom_site_fract_y
_atom_site_fract_z
P1 P 0.09640(9) 0.59621(13) 0.24494(5)
C1 C 0.5001(13) 0.4221(17) 0.5445(6)
F1 F 0.5821(18) 0.360(2) 0.5037(7)
F2 F 0.5690(17) 0.5516(14) 0.5742(8)
F3 F 0.5143(18) 0.3212(16) 0.6009(5)
C2 C 0.0037(8) 0.5737(10) 0.5163(4)
F4 F 0.039(2) 0.6731(11) 0.5709(7)
F5 F -0.0492(7) 0.4448(8) 0.5410(4)
F6 F -0.1007(5) 0.6428(8) 0.4718(3)
O1 O -0.0342(3) 0.5219(4) 0.24943(17)
N1 N 0.2235(3) 0.5342(5) 0.30843(18)
H1 H 0.289(5) 0.521(5) 0.295(2)
C3 C 0.2295(4) 0.5179(5) 0.3828(2)
C4 C 0.3512(5) 0.4742(6) 0.4258(2)
H2 H 0.426747 0.455147 0.404529
C5 C 0.3623(7) 0.4585(8) 0.5003(3)
C6 C 0.2538(8) 0.4878(8) 0.5319(3)
H3 H 0.262312 0.478456 0.582865
C7 C 0.1333(6) 0.5308(8) 0.4888(3)
C8 C 0.1190(5) 0.5473(7) 0.4141(3)
H4 H 0.035374 0.578076 0.385046
C9 C 0.1552(4) 0.5509(6) 0.1642(2)
H5 H 0.154092 0.435887 0.157010
H6 H 0.246987 0.590550 0.168597
H7 H 0.096646 0.601524 0.122665
C10 C 0.0860(4) 0.8076(6) 0.2494(2)
C11 C 0.1603(5) 0.8955(6) 0.3060(3)
H8 H 0.221347 0.844198 0.343878
C12 C 0.1443(7) 1.0601(7) 0.3068(4)
H9 H 0.193238 1.120414 0.345966
C13 C 0.0600(6) 1.1338(7) 0.2525(4)
H10 H 0.051117 1.245826 0.253686
C14 C -0.0135(6) 1.0502(7) 0.1953(4)
H11 H -0.071767 1.103750 0.156979
C15 C -0.0012(5) 0.8862(7) 0.1944(3)
H12 H -0.052983 0.827105 0.155636
P2 P 0.59825(9) 0.40469(14) 0.26561(5)
C18 C 0.8139(8) 0.5073(12) -0.0313(4)
F13 F 0.9288(5) 0.5592(11) 0.0058(3)
F14 F 0.7824(5) 0.6101(9) -0.0851(3)
F15 F 0.8321(9) 0.3718(12) -0.0618(5)
C19 C 0.3359(8) 0.4603(12) -0.0157(5)
F16 F 0.2853(9) 0.6018(10) -0.0348(7)
F17 F 0.3163(13) 0.3741(12) -0.0765(4)
F18 F 0.2569(6) 0.3948(13) 0.0242(3)
O2 O 0.4658(3) 0.4834(4) 0.26057(15)
N2 N 0.6861(3) 0.4740(5) 0.20715(19)
H13 H 0.761(5) 0.497(6) 0.225(3)
C20 C 0.6472(4) 0.4742(5) 0.1316(2)
C21 C 0.7465(4) 0.4819(6) 0.0907(2)
H14 H 0.838461 0.483976 0.114149
C22 C 0.7110(5) 0.4865(8) 0.0155(3)
C23 C 0.5789(5) 0.4834(7) -0.0198(3)
H15 H 0.555292 0.487857 -0.071194
C24 C 0.4819(4) 0.4736(6) 0.0210(2)
C25 C 0.5140(4) 0.4700(6) 0.0962(2)
H16 H 0.444861 0.464753 0.123189
C26 C 0.7131(4) 0.4362(7) 0.3501(2)
H17 H 0.720502 0.549966 0.360555
H18 H 0.801454 0.394034 0.347006
H19 H 0.679989 0.381755 0.388939
C27 C 0.5778(4) 0.1951(6) 0.2516(2)
C28 C 0.4498(4) 0.1308(6) 0.2345(3)
H20 H 0.373506 0.197768 0.230354
C29 C 0.4330(6) -0.0310(7) 0.2236(3)
H21 H 0.345198 -0.074512 0.211917
C30 C 0.5431(7) -0.1292(7) 0.2297(3)
H22 H 0.530911 -0.239978 0.222227
C31 C 0.6706(6) -0.0669(7) 0.2466(3)
H23 H 0.746353 -0.134668 0.250779
C32 C 0.6883(5) 0.0940(7) 0.2574(3)
H24 H 0.776538 0.136561 0.268997
C16? C 0.4863(13) 0.4122(17) 0.5501(7)
F7? F 0.5879(19) 0.380(2) 0.5192(8)
F8? F 0.5254(17) 0.5252(18) 0.5984(7)
F9? F 0.4578(18) 0.2859(17) 0.5851(8)
C17? C 0.0372(11) 0.5355(17) 0.5388(6)
F10? F 0.035(3) 0.6658(16) 0.5780(10)
F11? F 0.0428(11) 0.4132(13) 0.5832(5)
F12? F -0.0770(9) 0.5270(16) 0.4921(5)
C33? C 0.8326(13) 0.452(2) -0.0178(8)
F19? F 0.9373(11) 0.369(2) 0.0152(6)
F20? F 0.8824(19) 0.590(2) -0.0297(10)
F21? F 0.7932(19) 0.384(3) -0.0822(8)
C34? C 0.3395(9) 0.4843(13) -0.0197(5)
F22? F 0.3190(10) 0.5992(10) -0.0694(5)
F23? F 0.3050(15) 0.3509(11) -0.0556(7)
F24? F 0.2541(8) 0.5099(18) 0.0226(4)
loop_
_geom_bond_atom_site_label_1
_geom_bond_atom_site_label_2
_geom_bond_site_symmetry_1
_geom_bond_site_symmetry_2
P1 O1 1_555 1_555
C1 F1 1_555 1_555
F2 C1 1_555 1_555
F3 C1 1_555 1_555
C2 F4 1_555 1_555
F5 C2 1_555 1_555
F6 C2 1_555 1_555
N1 P1 1_555 1_555
H1 N1 1_555 1_555
C3 N1 1_555 1_555
C4 C3 1_555 1_555
H2 C4 1_555 1_555
C5 C1 1_555 1_555
C6 C5 1_555 1_555
H3 C6 1_555 1_555
C7 C2 1_555 1_555
C8 C3 1_555 1_555
H4 C8 1_555 1_555
C9 P1 1_555 1_555
H5 C9 1_555 1_555
H6 C9 1_555 1_555
H7 C9 1_555 1_555
C10 P1 1_555 1_555
C11 C10 1_555 1_555
H8 C11 1_555 1_555
C12 C11 1_555 1_555
H9 C12 1_555 1_555
C13 C12 1_555 1_555
H10 C13 1_555 1_555
C14 C13 1_555 1_555
H11 C14 1_555 1_555
C15 C10 1_555 1_555
H12 C15 1_555 1_555
P2 O2 1_555 1_555
C18 F13 1_555 1_555
F14 C18 1_555 1_555
F15 C18 1_555 1_555
C19 F16 1_555 1_555
F17 C19 1_555 1_555
F18 C19 1_555 1_555
N2 P2 1_555 1_555
H13 N2 1_555 1_555
C20 N2 1_555 1_555
C21 C20 1_555 1_555
H14 C21 1_555 1_555
C22 C18 1_555 1_555
C23 C22 1_555 1_555
H15 C23 1_555 1_555
C24 C19 1_555 1_555
C25 C20 1_555 1_555
H16 C25 1_555 1_555
C26 P2 1_555 1_555
H17 C26 1_555 1_555
H18 C26 1_555 1_555
H19 C26 1_555 1_555
C27 P2 1_555 1_555
C28 C27 1_555 1_555
H20 C28 1_555 1_555
C29 C28 1_555 1_555
H21 C29 1_555 1_555
C30 C29 1_555 1_555
H22 C30 1_555 1_555
C31 C30 1_555 1_555
H23 C31 1_555 1_555
C32 C27 1_555 1_555
H24 C32 1_555 1_555
C4 C5 1_555 1_555
C6 C7 1_555 1_555
C7 C8 1_555 1_555
C14 C15 1_555 1_555
C21 C22 1_555 1_555
C23 C24 1_555 1_555
C24 C25 1_555 1_555
C31 C32 1_555 1_555

#END
