
#######################################################################
#
#                 Cambridge Crystallographic Data Centre
#                                CCDC 
#
#######################################################################
#
# If this CIF has been generated from an entry in the Cambridge 
# Structural Database, then it will include bibliographic, chemical, 
# crystal, experimental, refinement or atomic coordinate data resulting 
# from the CCDC's data processing and validation procedures.
#
#######################################################################

data_RERRAK
_chemical_formula_moiety         'C23 H21 Br1 N2 O1'
_chemical_name_systematic        
'[3-(4-bromophenyl)-5-(propan-2-ylidene)-4,4a,5,7a-tetrahydro-1H-cyclopenta[c]pyridazin-1-yl](phenyl)methanone'
_symmetry_cell_setting           orthorhombic
_symmetry_space_group_name_H-M   'P 21 21 21'
_symmetry_Int_Tables_number      19
_space_group_name_Hall           'P 2ac 2ab'
loop_
_symmetry_equiv_pos_site_id
_symmetry_equiv_pos_as_xyz
1 x,y,z
2 1/2-x,-y,1/2+z
3 -x,1/2+y,1/2-z
4 1/2+x,1/2-y,-z
_cell_length_a                   5.9550(14)
_cell_length_b                   18.080(4)
_cell_length_c                   18.630(4)
_cell_angle_alpha                90
_cell_angle_beta                 90
_cell_angle_gamma                90
_cell_volume                     2005.83
_exptl_crystal_colour            colorless
_exptl_crystal_description       block
_cell_formula_units_Z            4
loop_
_atom_site_label
_atom_site_type_symbol
_atom_site_fract_x
_atom_site_fract_y
_atom_site_fract_z
Br1 Br -0.19998(11) 0.28411(3) -0.15584(2)
C1 C -0.0844(8) 0.32980(19) -0.07192(19)
C2 C -0.1948(8) 0.31943(18) -0.00789(19)
H1 H -0.3242 0.2907 -0.0059
C3 C -0.1103(7) 0.35249(19) 0.05358(19)
H2 H -0.1829 0.3454 0.0972
C4 C 0.0820(6) 0.39612(17) 0.05060(18)
C5 C 0.1906(7) 0.40375(18) -0.01498(18)
H3 H 0.3217 0.4316 -0.0176
C6 C 0.1085(8) 0.3711(2) -0.07583(19)
H4 H 0.1827 0.3769 -0.1194
C7 C 0.1629(7) 0.43383(17) 0.11641(19)
C8 C 0.4076(7) 0.4517(2) 0.1272(2)
H5 H 0.4870 0.4460 0.0821
H6 H 0.4720 0.4175 0.1616
C9 C 0.4368(7) 0.53079(19) 0.1544(2)
H7 H 0.5874 0.5363 0.1750
C10 C 0.2607(7) 0.5475(2) 0.21250(19)
H8 H 0.3358 0.5611 0.2574
C11 C 0.1345(9) 0.6119(2) 0.1840(3)
H9 H 0.0160 0.6345 0.2080
C12 C 0.2093(10) 0.6333(2) 0.1210(3)
H10 H 0.1465 0.6716 0.0943
C13 C 0.3999(8) 0.5906(2) 0.0981(2)
C14 C 0.5301(8) 0.6019(2) 0.0406(2)
C15 C 0.7334(8) 0.5555(3) 0.0229(2)
H11 H 0.7760 0.5271 0.0643
H12 H 0.8554 0.5871 0.0091
H13 H 0.6981 0.5226 -0.0159
C16 C 0.4910(10) 0.6646(2) -0.0121(3)
H14 H 0.3412 0.6833 -0.0064
H15 H 0.5101 0.6466 -0.0602
H16 H 0.5970 0.7035 -0.0031
C17 C -0.0175(8) 0.4840(2) 0.2869(2)
C18 C -0.1916(8) 0.4260(2) 0.29713(17)
C19 C -0.1656(8) 0.3532(2) 0.2745(2)
H17 H -0.0387 0.3388 0.2489
C20 C -0.3326(11) 0.3025(2) 0.2907(3)
H18 H -0.3171 0.2535 0.2765
C21 C -0.5223(10) 0.3243(4) 0.3280(3)
H19 H -0.6352 0.2901 0.3375
C22 C -0.5448(9) 0.3956(3) 0.3509(3)
H20 H -0.6716 0.4101 0.3763
C23 C -0.3786(8) 0.4452(2) 0.3358(2)
H21 H -0.3926 0.4935 0.3523
N1 N 0.0170(5) 0.44772(14) 0.16504(16)
N2 N 0.1069(5) 0.48402(16) 0.22522(16)
O1 O 0.0218(5) 0.52887(15) 0.33478(15)
loop_
_geom_bond_atom_site_label_1
_geom_bond_atom_site_label_2
_geom_bond_site_symmetry_1
_geom_bond_site_symmetry_2
Br1 C1 1_555 1_555
C1 C2 1_555 1_555
C2 H1 1_555 1_555
C3 C2 1_555 1_555
H2 C3 1_555 1_555
C4 C3 1_555 1_555
C5 C4 1_555 1_555
H3 C5 1_555 1_555
C6 C1 1_555 1_555
H4 C6 1_555 1_555
C7 C4 1_555 1_555
C8 C7 1_555 1_555
H5 C8 1_555 1_555
H6 C8 1_555 1_555
C9 C8 1_555 1_555
H7 C9 1_555 1_555
C10 C9 1_555 1_555
H8 C10 1_555 1_555
C11 C10 1_555 1_555
H9 C11 1_555 1_555
C12 C11 1_555 1_555
H10 C12 1_555 1_555
C13 C9 1_555 1_555
C14 C13 1_555 1_555
C15 C14 1_555 1_555
H11 C15 1_555 1_555
H12 C15 1_555 1_555
H13 C15 1_555 1_555
C16 C14 1_555 1_555
H14 C16 1_555 1_555
H15 C16 1_555 1_555
H16 C16 1_555 1_555
C17 C18 1_555 1_555
C18 C19 1_555 1_555
C19 H17 1_555 1_555
C20 C19 1_555 1_555
H18 C20 1_555 1_555
C21 C20 1_555 1_555
H19 C21 1_555 1_555
C22 C21 1_555 1_555
H20 C22 1_555 1_555
C23 C18 1_555 1_555
H21 C23 1_555 1_555
N1 C7 1_555 1_555
N2 C10 1_555 1_555
O1 C17 1_555 1_555
C5 C6 1_555 1_555
C12 C13 1_555 1_555
C17 N2 1_555 1_555
C22 C23 1_555 1_555
N1 N2 1_555 1_555

#END
