
#######################################################################
#
#                 Cambridge Crystallographic Data Centre
#                                CCDC 
#
#######################################################################
#
# If this CIF has been generated from an entry in the Cambridge 
# Structural Database, then it will include bibliographic, chemical, 
# crystal, experimental, refinement or atomic coordinate data resulting 
# from the CCDC's data processing and validation procedures.
#
#######################################################################

data_RERXES
_chemical_name_common            '1-imino nitroxide pyrene'
_chemical_formula_moiety         'C23 H21 N2 O1'
_chemical_name_systematic        
2-(pyrenyl)-4,4,5,5-tetramethylimidazoline-1-oxyl-3-oxide
_symmetry_cell_setting           monoclinic
_symmetry_space_group_name_H-M   'P 21/n'
_symmetry_Int_Tables_number      14
_space_group_name_Hall           '-P 2yn'
loop_
_symmetry_equiv_pos_site_id
_symmetry_equiv_pos_as_xyz
1 x,y,z
2 1/2-x,1/2+y,1/2-z
3 -x,-y,-z
4 1/2+x,1/2-y,1/2+z
_cell_length_a                   10.392(2)
_cell_length_b                   7.2494(14)
_cell_length_c                   24.220(5)
_cell_angle_alpha                90
_cell_angle_beta                 98.63(3)
_cell_angle_gamma                90
_cell_volume                     1803.97
_cell_formula_units_Z            4
loop_
_atom_site_label
_atom_site_type_symbol
_atom_site_fract_x
_atom_site_fract_y
_atom_site_fract_z
C1 C 0.1516(3) 1.0140(5) 0.12053(11)
H1 H 0.1682 1.0910 0.1531
H2 H 0.1418 0.8884 0.1317
H3 H 0.0732 1.0540 0.0976
C2 C 0.1971(3) 1.0059(4) -0.02050(10)
H4 H 0.1921 0.9199 -0.0509
H5 H 0.2541 1.1056 -0.0267
H6 H 0.1119 1.0537 -0.0182
C3 C 0.1774(3) 0.7274(4) 0.03878(13)
H7 H 0.1713 0.6604 0.0043
H8 H 0.0915 0.7529 0.0469
H9 H 0.2240 0.6548 0.0684
C4 C 1.0900(3) 1.0147(5) 0.27955(11)
H10 H 1.1543 1.0667 0.3058
C5 C 0.2923(3) 1.2299(3) 0.07635(11)
H11 H 0.3007 1.2979 0.1107
H12 H 0.2216 1.2797 0.0505
H13 H 0.3716 1.2395 0.0607
C6 C 1.0267(3) 0.5774(4) 0.19856(13)
H14 H 1.1017 0.5104 0.2111
C7 C 1.1064(3) 0.8393(4) 0.26004(11)
H15 H 1.1816 0.7742 0.2735
C8 C 0.9791(3) 1.1141(4) 0.26058(10)
H16 H 0.9695 1.2327 0.2740
C9 C 0.9356(3) 0.5019(4) 0.16049(12)
H17 H 0.9496 0.3851 0.1467
C10 C 0.2651(2) 1.0277(3) 0.08761(9)
C11 C 0.7175(3) 0.5173(3) 0.10294(11)
H18 H 0.7290 0.3997 0.0891
C12 C 0.2498(2) 0.9090(3) 0.03365(9)
C13 C 1.0125(2) 0.7572(3) 0.22045(10)
C14 C 0.6031(2) 0.6099(3) 0.08604(10)
H19 H 0.5386 0.5540 0.0607
C15 C 0.7631(2) 1.1339(3) 0.20122(9)
H20 H 0.7519 1.2534 0.2137
C16 C 0.8808(2) 1.0384(3) 0.22135(9)
C17 C 0.6679(2) 1.0572(3) 0.16493(9)
H21 H 0.5924 1.1242 0.1533
C18 C 0.5814(2) 0.7859(3) 0.10602(9)
C19 C 0.8163(2) 0.5970(3) 0.14033(10)
C20 C 0.4533(2) 0.8714(3) 0.08934(9)
C21 C 0.7980(2) 0.7767(3) 0.16121(8)
C22 C 0.6796(2) 0.8738(3) 0.14359(8)
C23 C 0.8977(2) 0.8581(3) 0.20058(8)
N1 N 0.38882(18) 0.8584(3) 0.03429(7)
N2 N 0.38496(19) 0.9548(3) 0.12195(7)
O1 O 0.43362(18) 0.7929(3) -0.00746(7)
loop_
_geom_bond_atom_site_label_1
_geom_bond_atom_site_label_2
_geom_bond_site_symmetry_1
_geom_bond_site_symmetry_2
C1 H1 1_555 1_555
H2 C1 1_555 1_555
H3 C1 1_555 1_555
C2 H4 1_555 1_555
H5 C2 1_555 1_555
H6 C2 1_555 1_555
C3 H7 1_555 1_555
H8 C3 1_555 1_555
H9 C3 1_555 1_555
C4 H10 1_555 1_555
C5 H11 1_555 1_555
H12 C5 1_555 1_555
H13 C5 1_555 1_555
C6 H14 1_555 1_555
C7 C4 1_555 1_555
H15 C7 1_555 1_555
C8 C4 1_555 1_555
H16 C8 1_555 1_555
C9 C6 1_555 1_555
H17 C9 1_555 1_555
C10 C1 1_555 1_555
C11 H18 1_555 1_555
C12 C2 1_555 1_555
C13 C6 1_555 1_555
C14 C11 1_555 1_555
H19 C14 1_555 1_555
C15 H20 1_555 1_555
C16 C8 1_555 1_555
C17 C15 1_555 1_555
H21 C17 1_555 1_555
C18 C14 1_555 1_555
C19 C9 1_555 1_555
C20 C18 1_555 1_555
C21 C19 1_555 1_555
C22 C17 1_555 1_555
C23 C13 1_555 1_555
N1 C12 1_555 1_555
N2 C10 1_555 1_555
O1 N1 1_555 1_555
C3 C12 1_555 1_555
C5 C10 1_555 1_555
C7 C13 1_555 1_555
C10 C12 1_555 1_555
C11 C19 1_555 1_555
C15 C16 1_555 1_555
C16 C23 1_555 1_555
C18 C22 1_555 1_555
C20 N1 1_555 1_555
C20 N2 1_555 1_555
C21 C22 1_555 1_555
C21 C23 1_555 1_555

#END
