
#######################################################################
#
#                 Cambridge Crystallographic Data Centre
#                                CCDC 
#
#######################################################################
#
# If this CIF has been generated from an entry in the Cambridge 
# Structural Database, then it will include bibliographic, chemical, 
# crystal, experimental, refinement or atomic coordinate data resulting 
# from the CCDC's data processing and validation procedures.
#
#######################################################################

data_RERXAP
_chemical_formula_moiety         'C32 H96 Si18'
_chemical_name_systematic        
1,1,2,2,7,7,8,8-Octamethyl-3,3,4,5,6,6,9,10-octakis(trimethylsilyl)decahydropentasilolo[1',2':3,4]tetrasileto[1,2-a]pentasilole
_symmetry_cell_setting           monoclinic
_symmetry_space_group_name_H-M   'C 2/c'
_symmetry_Int_Tables_number      15
_space_group_name_Hall           '-C 2yn'
loop_
_symmetry_equiv_pos_site_id
_symmetry_equiv_pos_as_xyz
1 x,y,z
2 -x,y,1/2-z
3 1/2+x,1/2+y,z
4 1/2-x,1/2+y,1/2-z
5 -x,-y,-z
6 x,-y,1/2+z
7 1/2-x,1/2-y,-z
8 1/2+x,1/2-y,1/2+z
_cell_length_a                   27.289(2)
_cell_length_b                   12.4843(10)
_cell_length_c                   20.2377(16)
_cell_angle_alpha                90
_cell_angle_beta                 113.0010(10)
_cell_angle_gamma                90
_cell_volume                     6346.52
_exptl_crystal_colour            colorless
_exptl_crystal_description       prism
_cell_formula_units_Z            4
loop_
_atom_site_label
_atom_site_type_symbol
_atom_site_fract_x
_atom_site_fract_y
_atom_site_fract_z
C1 C 0.05637(12) 1.17649(19) 0.34566(16)
H1 H 0.0245 1.1501 0.3493
H2 H 0.0473 1.2153 0.3015
H3 H 0.0746 1.2232 0.3854
C2 C 0.13752(9) 1.0190(2) 0.44286(12)
H4 H 0.1615 0.9615 0.4449
H5 H 0.1125 0.9952 0.4625
H6 H 0.1574 1.0786 0.4702
C3 C 0.15377(12) 1.1153(3) 0.31911(17)
H7 H 0.1782 1.1578 0.3573
H8 H 0.1377 1.1589 0.2770
H9 H 0.1725 1.0570 0.3087
C4 C 0.02006(9) 0.6453(2) 0.43008(13)
H10 H -0.0134 0.6538 0.3901
H11 H 0.0237 0.7000 0.4650
H12 H 0.0213 0.5762 0.4514
C5 C 0.09715(9) 0.51678(19) 0.39141(14)
H13 H 0.1114 0.4847 0.4382
H14 H 0.1240 0.5179 0.3718
H15 H 0.0672 0.4758 0.3606
C6 C 0.13096(9) 0.7286(2) 0.47079(12)
H16 H 0.1170 0.7904 0.4857
H17 H 0.1571 0.7507 0.4527
H18 H 0.1472 0.6816 0.5110
C7 C 0.04764(12) 0.4220(2) 0.1882(2)
H19 H 0.0525 0.3460 0.1870
H20 H 0.0202 0.4447 0.1439
H21 H 0.0375 0.4395 0.2273
C8 C 0.16508(11) 0.4077(2) 0.2658(2)
H22 H 0.1631 0.3367 0.2467
H23 H 0.1605 0.4045 0.3105
H24 H 0.1992 0.4384 0.2737
C9 C 0.12131(18) 0.4830(3) 0.11455(19)
H25 H 0.1545 0.5158 0.1203
H26 H 0.0927 0.5193 0.0774
H27 H 0.1217 0.4091 0.1016
C10 C 0.22745(9) 0.6036(2) 0.40815(15)
H28 H 0.2643 0.6182 0.4366
H29 H 0.2234 0.5298 0.3937
H30 H 0.2066 0.6179 0.4360
C11 C 0.24954(10) 0.6569(2) 0.27957(18)
H31 H 0.2418 0.7026 0.2385
H32 H 0.2442 0.5835 0.2643
H33 H 0.2859 0.6671 0.3120
C12 C 0.21787(12) 0.8322(2) 0.36134(17)
H34 H 0.2465 0.8320 0.4078
H35 H 0.1865 0.8616 0.3650
H36 H 0.2276 0.8750 0.3290
C13 C 0.18140(9) 0.8673(2) 0.16878(16)
H37 H 0.2066 0.8145 0.1678
H38 H 0.1941 0.9010 0.2151
H39 H 0.1771 0.9203 0.1325
C14 C 0.09562(12) 0.7515(2) 0.05574(13)
H40 H 0.0905 0.8116 0.0242
H41 H 0.0631 0.7114 0.0417
H42 H 0.1233 0.7065 0.0530
C15 C 0.08568(10) 1.07120(19) 0.13599(14)
H43 H 0.0838 1.0710 0.0876
H44 H 0.1221 1.0793 0.1687
H45 H 0.0650 1.1297 0.1421
C16 C -0.00812(8) 0.92709(19) 0.07748(11)
H46 H -0.0254 0.9957 0.0672
H47 H -0.0299 0.8772 0.0899
H48 H -0.0030 0.9016 0.0359
Si1 Si 0.046848(17) 0.92885(4) 0.26494(2)
Si2 Si 0.049189(16) 0.73821(3) 0.28349(2)
Si3 Si 0.115010(18) 0.67354(4) 0.23920(3)
Si4 Si 0.11523(2) 0.80079(5) 0.15090(3)
Si5 Si 0.05844(2) 0.94027(4) 0.15477(3)
Si6 Si 0.07552(2) 0.65662(4) 0.39852(3)
Si7 Si 0.10073(2) 1.06090(4) 0.34714(3)
Si8 Si 0.20408(2) 0.69148(5) 0.32651(3)
Si9 Si 0.11147(2) 0.49207(5) 0.20078(4)
C1A C -0.05637(12) 1.17649(19) 0.15434(16)
H1A H -0.0245 1.1501 0.1507
H2A H -0.0473 1.2153 0.1985
H3A H -0.0746 1.2232 0.1146
C2A C -0.13752(9) 1.0190(2) 0.05714(12)
H4A H -0.1615 0.9615 0.0551
H5A H -0.1125 0.9952 0.0375
H6A H -0.1574 1.0786 0.0298
C3A C -0.15377(12) 1.1153(3) 0.18089(17)
H7A H -0.1782 1.1578 0.1427
H8A H -0.1377 1.1589 0.2230
H9A H -0.1725 1.0570 0.1913
C4A C -0.02006(9) 0.6453(2) 0.06992(13)
H10A H 0.0134 0.6538 0.1099
H11A H -0.0237 0.7000 0.0350
H12A H -0.0213 0.5762 0.0486
C5A C -0.09715(9) 0.51678(19) 0.10859(14)
H13A H -0.1114 0.4847 0.0618
H14A H -0.1240 0.5179 0.1282
H15A H -0.0672 0.4758 0.1394
C6A C -0.13096(9) 0.7286(2) 0.02921(12)
H16A H -0.1170 0.7904 0.0143
H17A H -0.1571 0.7507 0.0473
H18A H -0.1472 0.6816 -0.0110
C7A C -0.04764(12) 0.4220(2) 0.3118(2)
H19A H -0.0525 0.3460 0.3130
H20A H -0.0202 0.4447 0.3561
H21A H -0.0375 0.4395 0.2727
C8A C -0.16508(11) 0.4077(2) 0.2342(2)
H22A H -0.1631 0.3367 0.2533
H23A H -0.1605 0.4045 0.1895
H24A H -0.1992 0.4384 0.2263
C9A C -0.12131(18) 0.4830(3) 0.38545(19)
H25A H -0.1545 0.5158 0.3797
H26A H -0.0927 0.5193 0.4226
H27A H -0.1217 0.4091 0.3984
C10A C -0.22745(9) 0.6036(2) 0.09185(15)
H28A H -0.2643 0.6182 0.0634
H29A H -0.2234 0.5298 0.1063
H30A H -0.2066 0.6179 0.0640
C11A C -0.24954(10) 0.6569(2) 0.22043(18)
H31A H -0.2418 0.7026 0.2615
H32A H -0.2442 0.5835 0.2357
H33A H -0.2859 0.6671 0.1880
C12A C -0.21787(12) 0.8322(2) 0.13866(17)
H34A H -0.2465 0.8320 0.0922
H35A H -0.1865 0.8616 0.1350
H36A H -0.2276 0.8750 0.1710
C13A C -0.18140(9) 0.8673(2) 0.33122(16)
H37A H -0.2066 0.8145 0.3322
H38A H -0.1941 0.9010 0.2849
H39A H -0.1771 0.9203 0.3675
C14A C -0.09562(12) 0.7515(2) 0.44426(13)
H40A H -0.0905 0.8116 0.4758
H41A H -0.0631 0.7114 0.4583
H42A H -0.1233 0.7065 0.4470
C15A C -0.08568(10) 1.07120(19) 0.36401(14)
H43A H -0.0838 1.0710 0.4124
H44A H -0.1221 1.0793 0.3313
H45A H -0.0650 1.1297 0.3579
C16A C 0.00812(8) 0.92709(19) 0.42252(11)
H46A H 0.0254 0.9957 0.4328
H47A H 0.0299 0.8772 0.4101
H48A H 0.0030 0.9016 0.4641
Si1A Si -0.046848(17) 0.92885(4) 0.23506(2)
Si2A Si -0.049189(16) 0.73821(3) 0.21651(2)
Si3A Si -0.115010(18) 0.67354(4) 0.26080(3)
Si4A Si -0.11523(2) 0.80079(5) 0.34910(3)
Si5A Si -0.05844(2) 0.94027(4) 0.34523(3)
Si6A Si -0.07552(2) 0.65662(4) 0.10148(3)
Si7A Si -0.10073(2) 1.06090(4) 0.15286(3)
Si8A Si -0.20408(2) 0.69148(5) 0.17349(3)
Si9A Si -0.11147(2) 0.49207(5) 0.29922(4)
loop_
_geom_bond_atom_site_label_1
_geom_bond_atom_site_label_2
_geom_bond_site_symmetry_1
_geom_bond_site_symmetry_2
C1 H1 1_555 1_555
H2 C1 1_555 1_555
H3 C1 1_555 1_555
C2 H4 1_555 1_555
H5 C2 1_555 1_555
H6 C2 1_555 1_555
C3 H7 1_555 1_555
H8 C3 1_555 1_555
H9 C3 1_555 1_555
C4 H10 1_555 1_555
H11 C4 1_555 1_555
H12 C4 1_555 1_555
C5 H13 1_555 1_555
H14 C5 1_555 1_555
H15 C5 1_555 1_555
C6 H16 1_555 1_555
H17 C6 1_555 1_555
H18 C6 1_555 1_555
C7 H19 1_555 1_555
H20 C7 1_555 1_555
H21 C7 1_555 1_555
C8 H22 1_555 1_555
H23 C8 1_555 1_555
H24 C8 1_555 1_555
C9 H25 1_555 1_555
H26 C9 1_555 1_555
H27 C9 1_555 1_555
C10 H28 1_555 1_555
H29 C10 1_555 1_555
H30 C10 1_555 1_555
C11 H31 1_555 1_555
H32 C11 1_555 1_555
H33 C11 1_555 1_555
C12 H34 1_555 1_555
H35 C12 1_555 1_555
H36 C12 1_555 1_555
C13 H37 1_555 1_555
H38 C13 1_555 1_555
H39 C13 1_555 1_555
C14 H40 1_555 1_555
H41 C14 1_555 1_555
H42 C14 1_555 1_555
C15 H43 1_555 1_555
H44 C15 1_555 1_555
H45 C15 1_555 1_555
C16 H46 1_555 1_555
H47 C16 1_555 1_555
H48 C16 1_555 1_555
Si1 Si2 1_555 1_555
Si2 Si3 1_555 1_555
Si3 Si4 1_555 1_555
Si4 C13 1_555 1_555
Si5 C15 1_555 1_555
Si6 C4 1_555 1_555
Si7 C1 1_555 1_555
Si8 C10 1_555 1_555
Si9 C7 1_555 1_555
C1A H1A 1_555 1_555
H2A C1A 1_555 1_555
H3A C1A 1_555 1_555
C2A H4A 1_555 1_555
H5A C2A 1_555 1_555
H6A C2A 1_555 1_555
C3A H7A 1_555 1_555
H8A C3A 1_555 1_555
H9A C3A 1_555 1_555
C4A H10A 1_555 1_555
H11A C4A 1_555 1_555
H12A C4A 1_555 1_555
C5A H13A 1_555 1_555
H14A C5A 1_555 1_555
H15A C5A 1_555 1_555
C6A H16A 1_555 1_555
H17A C6A 1_555 1_555
H18A C6A 1_555 1_555
C7A H19A 1_555 1_555
H20A C7A 1_555 1_555
H21A C7A 1_555 1_555
C8A H22A 1_555 1_555
H23A C8A 1_555 1_555
H24A C8A 1_555 1_555
C9A H25A 1_555 1_555
H26A C9A 1_555 1_555
H27A C9A 1_555 1_555
C10A H28A 1_555 1_555
H29A C10A 1_555 1_555
H30A C10A 1_555 1_555
C11A H31A 1_555 1_555
H32A C11A 1_555 1_555
H33A C11A 1_555 1_555
C12A H34A 1_555 1_555
H35A C12A 1_555 1_555
H36A C12A 1_555 1_555
C13A H37A 1_555 1_555
H38A C13A 1_555 1_555
H39A C13A 1_555 1_555
C14A H40A 1_555 1_555
H41A C14A 1_555 1_555
H42A C14A 1_555 1_555
C15A H43A 1_555 1_555
H44A C15A 1_555 1_555
H45A C15A 1_555 1_555
C16A H46A 1_555 1_555
H47A C16A 1_555 1_555
H48A C16A 1_555 1_555
Si1A Si1 1_555 1_555
Si2A Si2 1_555 1_555
Si3A Si2A 1_555 1_555
Si4A C13A 1_555 1_555
Si5A C15A 1_555 1_555
Si6A C4A 1_555 1_555
Si7A C1A 1_555 1_555
Si8A C10A 1_555 1_555
Si9A C7A 1_555 1_555
C2 Si7 1_555 1_555
C3 Si7 1_555 1_555
C5 Si6 1_555 1_555
C6 Si6 1_555 1_555
C8 Si9 1_555 1_555
C9 Si9 1_555 1_555
C11 Si8 1_555 1_555
C12 Si8 1_555 1_555
C14 Si4 1_555 1_555
C16 Si5 1_555 1_555
Si1 Si5 1_555 1_555
Si1 Si7 1_555 1_555
Si2 Si6 1_555 1_555
Si3 Si8 1_555 1_555
Si3 Si9 1_555 1_555
Si4 Si5 1_555 1_555
C2A Si7A 1_555 1_555
C3A Si7A 1_555 1_555
C5A Si6A 1_555 1_555
C6A Si6A 1_555 1_555
C8A Si9A 1_555 1_555
C9A Si9A 1_555 1_555
C11A Si8A 1_555 1_555
C12A Si8A 1_555 1_555
C14A Si4A 1_555 1_555
C16A Si5A 1_555 1_555
Si1A Si2A 1_555 1_555
Si1A Si5A 1_555 1_555
Si1A Si7A 1_555 1_555
Si2A Si6A 1_555 1_555
Si3A Si4A 1_555 1_555
Si3A Si8A 1_555 1_555
Si3A Si9A 1_555 1_555
Si4A Si5A 1_555 1_555

#END
