
#######################################################################
#
#                 Cambridge Crystallographic Data Centre
#                                CCDC 
#
#######################################################################
#
# If this CIF has been generated from an entry in the Cambridge 
# Structural Database, then it will include bibliographic, chemical, 
# crystal, experimental, refinement or atomic coordinate data resulting 
# from the CCDC's data processing and validation procedures.
#
#######################################################################

data_RERXOC
_chemical_formula_moiety         'C18 H20 N2 O2 S1'
_chemical_name_systematic        1-benzyl-2-p-tosyliminopyrrole
_symmetry_cell_setting           monoclinic
_symmetry_space_group_name_H-M   'P 21/c'
_symmetry_Int_Tables_number      14
_space_group_name_Hall           '-P 2ybc'
loop_
_symmetry_equiv_pos_site_id
_symmetry_equiv_pos_as_xyz
1 x,y,z
2 -x,1/2+y,1/2-z
3 -x,-y,-z
4 x,1/2-y,1/2+z
_cell_length_a                   9.992(8)
_cell_length_b                   20.362(15)
_cell_length_c                   8.962(7)
_cell_angle_alpha                90.00
_cell_angle_beta                 113.707(19)
_cell_angle_gamma                90.00
_cell_volume                     1669.51
_cell_formula_units_Z            4
_exptl_crystal_preparation       'magnetic properties'
loop_
_atom_site_label
_atom_site_type_symbol
_atom_site_fract_x
_atom_site_fract_y
_atom_site_fract_z
C1 C 0.1504(5) 0.3862(2) 0.0106(5)
C2 C 0.1781(5) 0.3246(2) -0.0332(6)
H1 H 0.2325 0.2949 0.0471
C3 C 0.1260(5) 0.3064(2) -0.1951(6)
H2 H 0.1431 0.2642 -0.2230
C4 C 0.0479(5) 0.3511(3) -0.3168(6)
C5 C 0.0218(5) 0.4132(2) -0.2716(5)
H3 H -0.0316 0.4431 -0.3518
C6 C 0.0734(5) 0.4315(2) -0.1097(5)
H4 H 0.0569 0.4737 -0.0814
C7 C -0.0118(7) 0.3320(3) -0.4960(6)
H5 H -0.1164 0.3293 -0.5382
H6 H 0.0273 0.2901 -0.5071
H7 H 0.0161 0.3645 -0.5556
S1 S 0.20212(13) 0.40713(6) 0.21840(14)
O1 O 0.2840(4) 0.35204(16) 0.3141(4)
O2 O 0.0711(3) 0.42506(16) 0.2383(4)
N1 N 0.2967(4) 0.47325(18) 0.2515(4)
C8 C 0.4300(5) 0.4743(2) 0.2552(5)
C9 C 0.5179(6) 0.4204(3) 0.2220(6)
H8 H 0.4653 0.4011 0.1152
H9 H 0.5422 0.3861 0.3040
C10 C 0.6697(7) 0.4604(4) 0.2313(10)
H10 H 0.7574 0.4384 0.3051
H11 H 0.6722 0.4631 0.1244
C11 C 0.6557(5) 0.5293(3) 0.2954(6)
H12 H 0.7282 0.5356 0.4056
H13 H 0.6678 0.5633 0.2261
N2 N 0.5062(4) 0.5306(2) 0.2913(4)
C12 C 0.4502(5) 0.5912(2) 0.3312(5)
H14 H 0.5261 0.6111 0.4259
H15 H 0.3686 0.5808 0.3595
C13 C 0.4000(5) 0.6408(2) 0.1913(5)
C14 C 0.2592(5) 0.6381(3) 0.0717(6)
H16 H 0.1946 0.6062 0.0769
C15 C 0.2148(6) 0.6823(3) -0.0544(6)
H17 H 0.1197 0.6802 -0.1334
C16 C 0.3086(6) 0.7297(3) -0.0660(6)
H18 H 0.2775 0.7588 -0.1533
C17 C 0.4493(6) 0.7336(3) 0.0528(6)
H19 H 0.5129 0.7659 0.0470
C18 C 0.4945(5) 0.6892(2) 0.1801(6)
H20 H 0.5893 0.6916 0.2596
loop_
_geom_bond_atom_site_label_1
_geom_bond_atom_site_label_2
_geom_bond_site_symmetry_1
_geom_bond_site_symmetry_2
C1 C2 1_555 1_555
C2 H1 1_555 1_555
C3 C2 1_555 1_555
H2 C3 1_555 1_555
C4 C3 1_555 1_555
C5 C4 1_555 1_555
H3 C5 1_555 1_555
C6 C1 1_555 1_555
H4 C6 1_555 1_555
C7 C4 1_555 1_555
H5 C7 1_555 1_555
H6 C7 1_555 1_555
H7 C7 1_555 1_555
S1 C1 1_555 1_555
O1 S1 1_555 1_555
O2 S1 1_555 1_555
N1 S1 1_555 1_555
C8 N1 1_555 1_555
C9 C8 1_555 1_555
H8 C9 1_555 1_555
H9 C9 1_555 1_555
C10 C9 1_555 1_555
H10 C10 1_555 1_555
H11 C10 1_555 1_555
C11 C10 1_555 1_555
H12 C11 1_555 1_555
H13 C11 1_555 1_555
N2 C8 1_555 1_555
C12 N2 1_555 1_555
H14 C12 1_555 1_555
H15 C12 1_555 1_555
C13 C12 1_555 1_555
C14 C13 1_555 1_555
H16 C14 1_555 1_555
C15 C14 1_555 1_555
H17 C15 1_555 1_555
C16 C15 1_555 1_555
H18 C16 1_555 1_555
C17 C16 1_555 1_555
H19 C17 1_555 1_555
C18 C13 1_555 1_555
H20 C18 1_555 1_555
C5 C6 1_555 1_555
C11 N2 1_555 1_555
C17 C18 1_555 1_555

#END
