
#######################################################################
#
#                 Cambridge Crystallographic Data Centre
#                                CCDC 
#
#######################################################################
#
# If this CIF has been generated from an entry in the Cambridge 
# Structural Database, then it will include bibliographic, chemical, 
# crystal, experimental, refinement or atomic coordinate data resulting 
# from the CCDC's data processing and validation procedures.
#
#######################################################################

data_RERXIX
_chemical_formula_moiety         'C16 H48 Br2 Si9'
_chemical_name_systematic        
1,1-Dibromo-3,3,4,4-tetramethyl-2,2,5,5-tetrakis(trimethylsilyl)pentasilolane
_symmetry_cell_setting           monoclinic
_symmetry_space_group_name_H-M   'C 2/c'
_symmetry_Int_Tables_number      15
_space_group_name_Hall           '-C 2yn'
loop_
_symmetry_equiv_pos_site_id
_symmetry_equiv_pos_as_xyz
1 x,y,z
2 -x,y,1/2-z
3 1/2+x,1/2+y,z
4 1/2-x,1/2+y,1/2-z
5 -x,-y,-z
6 x,-y,1/2+z
7 1/2-x,1/2-y,-z
8 1/2+x,1/2-y,1/2+z
_cell_length_a                   16.3991(19)
_cell_length_b                   9.4161(11)
_cell_length_c                   22.631(3)
_cell_angle_alpha                90
_cell_angle_beta                 95.312(3)
_cell_angle_gamma                90
_cell_volume                     3479.57
_exptl_crystal_colour            colorless
_exptl_crystal_description       prism
_cell_formula_units_Z            4
loop_
_atom_site_label
_atom_site_type_symbol
_atom_site_fract_x
_atom_site_fract_y
_atom_site_fract_z
Br1 Br 0.10754(2) 0.46143(4) 0.254079(16)
Si1 Si 0.0000 0.61240(10) 0.2500
Si2 Si 0.00217(5) 0.74917(8) 0.33712(3)
Si3 Si -0.02005(6) 0.98061(8) 0.29861(4)
Si4 Si 0.13272(6) 0.72965(11) 0.38969(5)
Si5 Si -0.10075(7) 0.67550(11) 0.39643(4)
C1 C 0.2125(2) 0.7885(5) 0.3417(2)
H1 H 0.2655 0.7820 0.3635
H2 H 0.2023 0.8851 0.3297
H3 H 0.2110 0.7288 0.3072
C2 C 0.1553(3) 0.5434(5) 0.4150(2)
H4 H 0.1510 0.4809 0.3813
H5 H 0.1167 0.5150 0.4421
H6 H 0.2098 0.5387 0.4345
C3 C 0.1379(3) 0.8470(6) 0.4572(2)
H7 H 0.1003 0.8127 0.4840
H8 H 0.1235 0.9424 0.4455
H9 H 0.1925 0.8456 0.4766
C4 C -0.0837(3) 0.4854(5) 0.41852(19)
H10 H -0.1265 0.4550 0.4418
H11 H -0.0318 0.4762 0.4415
H12 H -0.0842 0.4275 0.3836
C5 C -0.0948(4) 0.7893(6) 0.4648(2)
H13 H -0.1062 0.8862 0.4537
H14 H -0.0409 0.7828 0.4851
H15 H -0.1344 0.7571 0.4905
C6 C -0.2062(2) 0.6934(5) 0.3585(2)
H16 H -0.2454 0.6626 0.3848
H17 H -0.2111 0.6359 0.3233
H18 H -0.2163 0.7910 0.3479
C7 C 0.0399(3) 1.1164(4) 0.3463(2)
H19 H 0.0310 1.2091 0.3292
H20 H 0.0972 1.0938 0.3484
H21 H 0.0220 1.1154 0.3855
C8 C -0.1303(3) 1.0306(5) 0.2968(2)
H22 H -0.1453 1.0394 0.3366
H23 H -0.1632 0.9585 0.2762
H24 H -0.1391 1.1196 0.2765
Br1A Br -0.10754(2) 0.46143(4) 0.245921(16)
Si2A Si -0.00217(5) 0.74917(8) 0.16288(3)
Si3A Si 0.02005(6) 0.98061(8) 0.20139(4)
Si4A Si -0.13272(6) 0.72965(11) 0.11031(5)
Si5A Si 0.10075(7) 0.67550(11) 0.10357(4)
C1A C -0.2125(2) 0.7885(5) 0.1583(2)
H1A H -0.2655 0.7820 0.1365
H2A H -0.2023 0.8851 0.1703
H3A H -0.2110 0.7288 0.1928
C2A C -0.1553(3) 0.5434(5) 0.0850(2)
H4A H -0.1510 0.4809 0.1187
H5A H -0.1167 0.5150 0.0579
H6A H -0.2098 0.5387 0.0655
C3A C -0.1379(3) 0.8470(6) 0.0428(2)
H7A H -0.1003 0.8127 0.0160
H8A H -0.1235 0.9424 0.0545
H9A H -0.1925 0.8456 0.0234
C4A C 0.0837(3) 0.4854(5) 0.08148(19)
H10A H 0.1265 0.4550 0.0582
H11A H 0.0318 0.4762 0.0585
H12A H 0.0842 0.4275 0.1164
C5A C 0.0948(4) 0.7893(6) 0.0352(2)
H13A H 0.1062 0.8862 0.0463
H14A H 0.0409 0.7828 0.0149
H15A H 0.1344 0.7571 0.0095
C6A C 0.2062(2) 0.6934(5) 0.1415(2)
H16A H 0.2454 0.6626 0.1152
H17A H 0.2111 0.6359 0.1767
H18A H 0.2163 0.7910 0.1521
C7A C -0.0399(3) 1.1164(4) 0.1537(2)
H19A H -0.0310 1.2091 0.1708
H20A H -0.0972 1.0938 0.1516
H21A H -0.0220 1.1154 0.1145
C8A C 0.1303(3) 1.0306(5) 0.2032(2)
H22A H 0.1453 1.0394 0.1634
H23A H 0.1632 0.9585 0.2238
H24A H 0.1391 1.1196 0.2235
loop_
_geom_bond_atom_site_label_1
_geom_bond_atom_site_label_2
_geom_bond_site_symmetry_1
_geom_bond_site_symmetry_2
Br1 Si1 1_555 1_555
Si1 Si2 1_555 1_555
Si2 Si3 1_555 1_555
Si3 C7 1_555 1_555
Si4 Si2 1_555 1_555
Si5 Si2 1_555 1_555
C1 Si4 1_555 1_555
H1 C1 1_555 1_555
H2 C1 1_555 1_555
H3 C1 1_555 1_555
C2 Si4 1_555 1_555
H4 C2 1_555 1_555
H5 C2 1_555 1_555
H6 C2 1_555 1_555
C3 Si4 1_555 1_555
H7 C3 1_555 1_555
H8 C3 1_555 1_555
H9 C3 1_555 1_555
C4 Si5 1_555 1_555
H10 C4 1_555 1_555
H11 C4 1_555 1_555
H12 C4 1_555 1_555
C5 Si5 1_555 1_555
H13 C5 1_555 1_555
H14 C5 1_555 1_555
H15 C5 1_555 1_555
C6 Si5 1_555 1_555
H16 C6 1_555 1_555
H17 C6 1_555 1_555
H18 C6 1_555 1_555
C7 H19 1_555 1_555
H20 C7 1_555 1_555
H21 C7 1_555 1_555
C8 Si3 1_555 1_555
H22 C8 1_555 1_555
H23 C8 1_555 1_555
H24 C8 1_555 1_555
Br1A Si1 1_555 1_555
Si2A Si1 1_555 1_555
Si3A Si3 1_555 1_555
Si4A Si2A 1_555 1_555
Si5A Si2A 1_555 1_555
C1A Si4A 1_555 1_555
H1A C1A 1_555 1_555
H2A C1A 1_555 1_555
H3A C1A 1_555 1_555
C2A Si4A 1_555 1_555
H4A C2A 1_555 1_555
H5A C2A 1_555 1_555
H6A C2A 1_555 1_555
C3A Si4A 1_555 1_555
H7A C3A 1_555 1_555
H8A C3A 1_555 1_555
H9A C3A 1_555 1_555
C4A Si5A 1_555 1_555
H10A C4A 1_555 1_555
H11A C4A 1_555 1_555
H12A C4A 1_555 1_555
C5A Si5A 1_555 1_555
H13A C5A 1_555 1_555
H14A C5A 1_555 1_555
H15A C5A 1_555 1_555
C6A Si5A 1_555 1_555
H16A C6A 1_555 1_555
H17A C6A 1_555 1_555
H18A C6A 1_555 1_555
C7A Si3A 1_555 1_555
H19A C7A 1_555 1_555
H20A C7A 1_555 1_555
H21A C7A 1_555 1_555
C8A Si3A 1_555 1_555
H22A C8A 1_555 1_555
H23A C8A 1_555 1_555
H24A C8A 1_555 1_555
Si2A Si3A 1_555 1_555

#END
