
#######################################################################
#
#                 Cambridge Crystallographic Data Centre
#                                CCDC 
#
#######################################################################
#
# If this CIF has been generated from an entry in the Cambridge 
# Structural Database, then it will include bibliographic, chemical, 
# crystal, experimental, refinement or atomic coordinate data resulting 
# from the CCDC's data processing and validation procedures.
#
#######################################################################

data_RERZUK
_chemical_name_common            1-mesityl-1,3-dihydroimidazole-2-selone
_chemical_formula_moiety         'C12 H14 N2 Se1'
_chemical_name_systematic        1-mesityl-1,3-dihydroimidazole-2-selenone
_symmetry_cell_setting           monoclinic
_symmetry_space_group_name_H-M   'P 21/c'
_symmetry_Int_Tables_number      14
_space_group_name_Hall           '-P 2ybc'
loop_
_symmetry_equiv_pos_site_id
_symmetry_equiv_pos_as_xyz
1 x,y,z
2 -x,1/2+y,1/2-z
3 -x,-y,-z
4 x,1/2-y,1/2+z
_cell_length_a                   7.6278(5)
_cell_length_b                   21.1826(13)
_cell_length_c                   7.4022(5)
_cell_angle_alpha                90
_cell_angle_beta                 90.1930(10)
_cell_angle_gamma                90
_cell_volume                     1196.02
_exptl_crystal_colour            yellow
_exptl_crystal_description       block
_cell_formula_units_Z            4
loop_
_atom_site_label
_atom_site_type_symbol
_atom_site_fract_x
_atom_site_fract_y
_atom_site_fract_z
Se1 Se 0.15607(4) 0.404880(11) 0.06577(4)
C1 C 0.2024(3) 0.43755(10) -0.1602(3)
C2 C 0.2032(4) 0.49970(14) -0.4044(4)
H1 H 0.1782 0.5337 -0.4819
C3 C 0.3094(4) 0.45132(12) -0.4399(4)
H2 H 0.3720 0.4445 -0.5474
N1 N 0.1370(3) 0.49082(9) -0.2343(3)
H3 H 0.0631 0.5160 -0.1814
N2 N 0.3100(3) 0.41272(9) -0.2875(3)
C4 C 0.4125(3) 0.35598(10) -0.2658(3)
C5 C 0.3436(3) 0.29859(11) -0.3216(3)
C6 C 0.4452(4) 0.24521(12) -0.2999(3)
H4 H 0.4008 0.2061 -0.3388
C7 C 0.6113(4) 0.24764(12) -0.2222(3)
C8 C 0.6771(3) 0.30598(12) -0.1714(3)
H5 H 0.7910 0.3083 -0.1231
C9 C 0.5795(3) 0.36154(11) -0.1898(3)
C10 C 0.1619(4) 0.29476(16) -0.4054(5)
H6 H 0.1358 0.2512 -0.4363
H7 H 0.1580 0.3205 -0.5138
H8 H 0.0759 0.3101 -0.3198
C11 C 0.7171(5) 0.18838(14) -0.1915(4)
H9 H 0.8288 0.1993 -0.1367
H10 H 0.7371 0.1675 -0.3061
H11 H 0.6533 0.1603 -0.1117
C12 C 0.6497(4) 0.42417(13) -0.1272(4)
H12 H 0.5636 0.4568 -0.1512
H13 H 0.7570 0.4337 -0.1915
H14 H 0.6736 0.4224 0.0015
loop_
_geom_bond_atom_site_label_1
_geom_bond_atom_site_label_2
_geom_bond_site_symmetry_1
_geom_bond_site_symmetry_2
Se1 C1 1_555 1_555
C1 N1 1_555 1_555
C2 H1 1_555 1_555
C3 C2 1_555 1_555
H2 C3 1_555 1_555
N1 C2 1_555 1_555
H3 N1 1_555 1_555
N2 C1 1_555 1_555
C4 N2 1_555 1_555
C5 C4 1_555 1_555
C6 C5 1_555 1_555
H4 C6 1_555 1_555
C7 C6 1_555 1_555
C8 C7 1_555 1_555
H5 C8 1_555 1_555
C9 C4 1_555 1_555
C10 C5 1_555 1_555
H6 C10 1_555 1_555
H7 C10 1_555 1_555
H8 C10 1_555 1_555
C11 C7 1_555 1_555
H9 C11 1_555 1_555
H10 C11 1_555 1_555
H11 C11 1_555 1_555
C12 C9 1_555 1_555
H12 C12 1_555 1_555
H13 C12 1_555 1_555
H14 C12 1_555 1_555
C3 N2 1_555 1_555
C8 C9 1_555 1_555

#END
