
#######################################################################
#
#                 Cambridge Crystallographic Data Centre
#                                CCDC 
#
#######################################################################
#
# If this CIF has been generated from an entry in the Cambridge 
# Structural Database, then it will include bibliographic, chemical, 
# crystal, experimental, refinement or atomic coordinate data resulting 
# from the CCDC's data processing and validation procedures.
#
#######################################################################

data_RESBEX
_chemical_formula_moiety         'C4 H6 N2 Se1'
_chemical_name_systematic        1-methyl-1,3-dihydroimidazole-2-selenone
_symmetry_cell_setting           monoclinic
_symmetry_space_group_name_H-M   'P 21/c'
_symmetry_Int_Tables_number      14
_space_group_name_Hall           '-P 2ybc'
loop_
_symmetry_equiv_pos_site_id
_symmetry_equiv_pos_as_xyz
1 x,y,z
2 -x,1/2+y,1/2-z
3 -x,-y,-z
4 x,1/2-y,1/2+z
_cell_length_a                   6.6820(5)
_cell_length_b                   15.0829(12)
_cell_length_c                   17.9190(14)
_cell_angle_alpha                90
_cell_angle_beta                 96.5240(10)
_cell_angle_gamma                90
_cell_volume                     1794.25
_exptl_crystal_colour            colorless
_exptl_crystal_description       plates
_cell_formula_units_Z            12
_exptl_crystal_recrystallization_method dichloromethane
loop_
_atom_site_label
_atom_site_type_symbol
_atom_site_fract_x
_atom_site_fract_y
_atom_site_fract_z
Se1 Se -0.19878(5) 0.47681(3) -0.080395(19)
N1 N -0.5942(4) 0.43586(17) -0.15214(14)
N2 N -0.4374(4) 0.5259(2) -0.21772(16)
H1 H -0.344(5) 0.564(2) -0.2297(19)
C1 C -0.4191(4) 0.4798(2) -0.15283(17)
C2 C -0.6235(5) 0.5115(3) -0.2576(2)
C3 C -0.7219(5) 0.4547(3) -0.2171(2)
C4 C -0.6438(5) 0.3779(2) -0.09169(19)
H4 H -0.5307 0.3755 -0.0527
H5 H -0.6726 0.3188 -0.1113
H6 H -0.7611 0.4010 -0.0709
H7 H -0.657(5) 0.539(2) -0.3035(19)
H9 H -0.852(5) 0.433(2) -0.2243(19)
Se2 Se -0.14316(5) 0.69253(3) -0.27043(2)
N3 N 0.2535(4) 0.73400(19) -0.20024(16)
N4 N 0.1055(4) 0.6398(2) -0.13655(16)
H2 H 0.028(5) 0.603(2) -0.1237(19)
H8 H 0.510(6) 0.739(3) -0.127(2)
H10 H 0.340(6) 0.621(3) -0.052(2)
C5 C 0.0802(5) 0.6888(2) -0.19936(19)
C6 C 0.2921(6) 0.6527(3) -0.0982(2)
C7 C 0.3855(6) 0.7121(3) -0.1372(2)
C8 C 0.2945(6) 0.7961(3) -0.2591(2)
H13 H 0.1780 0.7996 -0.2966
H14 H 0.4101 0.7757 -0.2825
H15 H 0.3227 0.8543 -0.2373
Se3 Se -0.44296(5) 0.13684(3) -0.06032(2)
N5 N -0.0564(4) 0.1449(2) 0.02734(17)
N6 N -0.2363(5) 0.0376(2) 0.06050(19)
H3 H -0.320(5) 0.005(2) 0.0592(18)
H11 H 0.194(5) 0.113(2) 0.1060(19)
H12 H -0.046(5) -0.013(3) 0.143(2)
C9 C -0.2370(5) 0.1046(2) 0.01235(19)
C10 C -0.0542(6) 0.0334(3) 0.1057(3)
C11 C 0.0557(6) 0.1001(3) 0.0851(3)
C12 C 0.0123(6) 0.2202(3) -0.0144(2)
H16 H -0.0955 0.2394 -0.0517
H17 H 0.1278 0.2025 -0.0391
H18 H 0.0500 0.2685 0.0200
loop_
_geom_bond_atom_site_label_1
_geom_bond_atom_site_label_2
_geom_bond_site_symmetry_1
_geom_bond_site_symmetry_2
Se1 C1 1_555 1_555
Se2 C5 1_555 1_555
Se3 C9 1_555 1_555
N1 C1 1_555 1_555
N2 H1 1_555 1_555
N3 C5 1_555 1_555
N4 H2 1_555 1_555
N5 C9 1_555 1_555
N6 H3 1_555 1_555
C1 N2 1_555 1_555
C2 N2 1_555 1_555
C3 N1 1_555 1_555
C4 N1 1_555 1_555
H4 C4 1_555 1_555
H5 C4 1_555 1_555
H6 C4 1_555 1_555
H7 C2 1_555 1_555
H8 C7 1_555 1_555
H9 C3 1_555 1_555
H10 C6 1_555 1_555
H11 C11 1_555 1_555
H12 C10 1_555 1_555
C5 N4 1_555 1_555
C6 N4 1_555 1_555
C7 N3 1_555 1_555
C8 N3 1_555 1_555
H13 C8 1_555 1_555
H14 C8 1_555 1_555
H15 C8 1_555 1_555
C9 N6 1_555 1_555
C10 N6 1_555 1_555
C11 N5 1_555 1_555
C12 N5 1_555 1_555
H16 C12 1_555 1_555
H17 C12 1_555 1_555
H18 C12 1_555 1_555
C2 C3 1_555 1_555
C6 C7 1_555 1_555
C10 C11 1_555 1_555

#END
