
#######################################################################
#
#                 Cambridge Crystallographic Data Centre
#                                CCDC 
#
#######################################################################
#
# If this CIF has been generated from an entry in the Cambridge 
# Structural Database, then it will include bibliographic, chemical, 
# crystal, experimental, refinement or atomic coordinate data resulting 
# from the CCDC's data processing and validation procedures.
#
#######################################################################

data_RESDUR
_chemical_formula_moiety         'C40 H40 Mg1 N4 O1 P2 Se2,2(C4 H8 O1)'
_chemical_name_systematic        
'bis{P,P-diphenyl-N-[(pyridin-2-yl)methyl]phosphinoselenoic amidato}-tetrahydrofuran-magnesium(ii) tetrahydrofuran solvate'
_symmetry_cell_setting           triclinic
_symmetry_space_group_name_H-M   'P -1'
_symmetry_Int_Tables_number      2
_space_group_name_Hall           '-P 1'
loop_
_symmetry_equiv_pos_site_id
_symmetry_equiv_pos_as_xyz
1 x,y,z
2 -x,-y,-z
_cell_length_a                   10.1289(9)
_cell_length_b                   11.1529(10)
_cell_length_c                   20.707(2)
_cell_angle_alpha                86.445(8)
_cell_angle_beta                 84.254(8)
_cell_angle_gamma                85.495(7)
_cell_volume                     2316.8
_exptl_crystal_colour            colorless
_exptl_crystal_description       needle
_cell_formula_units_Z            2
loop_
_atom_site_label
_atom_site_type_symbol
_atom_site_fract_x
_atom_site_fract_y
_atom_site_fract_z
Mg1 Mg -0.1554(2) 0.61434(18) 0.20305(11)
Se1 Se -0.46971(7) 0.86407(6) 0.31616(4)
Se2 Se 0.16591(7) 0.38005(7) 0.09966(4)
P1 P -0.38254(16) 0.68373(14) 0.32558(8)
P2 P 0.05604(16) 0.37183(14) 0.19343(8)
O1 O -0.0968(4) 0.7168(4) 0.1176(2)
N1 N -0.2751(5) 0.5330(4) 0.1395(3)
N2 N -0.3368(5) 0.6169(4) 0.2595(2)
N3 N -0.0421(5) 0.7371(4) 0.2462(3)
N4 N 0.0038(5) 0.4985(4) 0.2252(2)
C1 C -0.2338(7) 0.4816(6) 0.0834(3)
H1 H -0.1443 0.4816 0.0681
C2 C -0.3190(7) 0.4288(6) 0.0473(3)
H2 H -0.2883 0.3946 0.0083
C3 C -0.4521(7) 0.4284(7) 0.0714(4)
H3 H -0.5122 0.3924 0.0491
C4 C -0.4931(6) 0.4808(6) 0.1277(4)
H4 H -0.5821 0.4820 0.1440
C5 C -0.4042(6) 0.5318(6) 0.1604(3)
C6 C -0.4475(7) 0.5970(7) 0.2218(3)
H5 H -0.4923 0.6743 0.2102
H6 H -0.5111 0.5505 0.2488
C7 C 0.0779(6) 0.6909(5) 0.2595(3)
C8 C 0.1702(7) 0.7618(6) 0.2814(3)
H7 H 0.2518 0.7266 0.2923
C9 C 0.1414(8) 0.8816(6) 0.2868(4)
H8 H 0.2036 0.9292 0.3004
C10 C 0.0182(8) 0.9324(6) 0.2718(3)
H9 H -0.0039 1.0146 0.2747
C11 C -0.0711(7) 0.8576(6) 0.2523(3)
H10 H -0.1546 0.8908 0.2429
C12 C 0.1130(6) 0.5587(6) 0.2489(3)
H11 H 0.1908 0.5508 0.2176
H12 H 0.1359 0.5182 0.2895
C13 C -0.4965(6) 0.5919(5) 0.3765(3)
C14 C -0.4950(7) 0.4689(6) 0.3665(4)
H13 H -0.4382 0.4353 0.3333
C15 C -0.5793(7) 0.3966(6) 0.4068(4)
H14 H -0.5792 0.3151 0.3997
C16 C -0.6613(7) 0.4441(6) 0.4561(4)
H15 H -0.7174 0.3955 0.4824
C17 C -0.6609(7) 0.5652(7) 0.4669(3)
H16 H -0.7153 0.5976 0.5014
C18 C -0.5801(6) 0.6382(6) 0.4269(3)
H17 H -0.5822 0.7198 0.4340
C19 C -0.2366(6) 0.6738(5) 0.3705(3)
C20 C -0.1625(6) 0.5640(6) 0.3786(3)
H18 H -0.1875 0.4961 0.3604
C21 C -0.0522(7) 0.5551(6) 0.4136(3)
H19 H -0.0022 0.4820 0.4179
C22 C -0.0166(7) 0.6560(6) 0.4422(3)
H20 H 0.0569 0.6502 0.4661
C23 C -0.0901(7) 0.7640(6) 0.4354(3)
H21 H -0.0666 0.8314 0.4546
C24 C -0.1994(6) 0.7723(6) 0.3996(3)
H22 H -0.2487 0.8457 0.3951
C25 C -0.0888(6) 0.2854(6) 0.1925(3)
C26 C -0.1990(7) 0.3031(6) 0.2381(3)
H23 H -0.2011 0.3629 0.2676
C27 C -0.3055(7) 0.2311(6) 0.2392(4)
H24 H -0.3787 0.2431 0.2696
C28 C -0.3032(7) 0.1418(6) 0.1956(4)
H25 H -0.3738 0.0929 0.1971
C29 C -0.1963(7) 0.1258(6) 0.1498(4)
H26 H -0.1956 0.0675 0.1196
C30 C -0.0893(7) 0.1964(6) 0.1487(3)
H27 H -0.0166 0.1839 0.1181
C31 C 0.1529(6) 0.2821(5) 0.2517(3)
C32 C 0.0973(7) 0.2729(6) 0.3163(3)
H28 H 0.0161 0.3144 0.3282
C33 C 0.1620(7) 0.2027(6) 0.3627(4)
H29 H 0.1239 0.1955 0.4053
C34 C 0.2843(7) 0.1433(6) 0.3447(4)
H30 H 0.3297 0.0974 0.3757
C35 C 0.3383(7) 0.1521(6) 0.2813(4)
H31 H 0.4191 0.1098 0.2694
C36 C 0.2745(6) 0.2231(6) 0.2345(4)
H32 H 0.3138 0.2306 0.1921
C37 C 0.0412(7) 0.7306(7) 0.0960(4)
H33 H 0.0927 0.6537 0.0986
H34 H 0.0781 0.7862 0.1223
C38 C 0.0423(8) 0.7793(7) 0.0267(4)
H35 H 0.0418 0.7151 -0.0028
H36 H 0.1190 0.8252 0.0140
C39 C -0.0857(8) 0.8592(7) 0.0282(4)
H37 H -0.0740 0.9372 0.0443
H38 H -0.1173 0.8706 -0.0146
C40 C -0.1797(8) 0.7895(7) 0.0745(4)
H39 H -0.2422 0.8439 0.0990
H40 H -0.2293 0.7386 0.0509
O2 O 0.3159(8) -0.0382(7) 0.0306(5)
C41 C 0.4130(13) -0.1406(10) 0.0241(8)
H41 H 0.3830 -0.1998 -0.0025
H42 H 0.4982 -0.1154 0.0046
C42 C 0.4228(15) -0.1883(12) 0.0886(8)
H43 H 0.5046 -0.2385 0.0921
H44 H 0.3477 -0.2347 0.1039
C43 C 0.4217(16) -0.0740(13) 0.1258(6)
H45 H 0.4039 -0.0901 0.1724
H46 H 0.5045 -0.0353 0.1168
C44 C 0.3122(13) -0.0035(11) 0.0987(6)
H47 H 0.3231 0.0819 0.1001
H48 H 0.2283 -0.0214 0.1228
O3 O 0.1348(6) 0.8463(6) 0.5317(3)
C45 C 0.1956(7) 0.9134(7) 0.4795(4)
H49 H 0.1365 0.9823 0.4678
H50 H 0.2141 0.8643 0.4422
C46 C 0.3240(7) 0.9558(6) 0.4986(4)
H51 H 0.3163 1.0418 0.5042
H52 H 0.3978 0.9368 0.4664
C47 C 0.3406(8) 0.8849(7) 0.5624(4)
H53 H 0.3956 0.8107 0.5558
H54 H 0.3798 0.9319 0.5924
C48 C 0.2003(9) 0.8600(8) 0.5868(4)
H55 H 0.1990 0.7871 0.6149
H56 H 0.1576 0.9264 0.6111
loop_
_geom_bond_atom_site_label_1
_geom_bond_atom_site_label_2
_geom_bond_site_symmetry_1
_geom_bond_site_symmetry_2
Mg1 O1 1_555 1_555
Se1 P1 1_555 1_555
Se2 P2 1_555 1_555
P1 N2 1_555 1_555
P2 N4 1_555 1_555
O1 C37 1_555 1_555
N1 Mg1 1_555 1_555
N2 Mg1 1_555 1_555
N3 Mg1 1_555 1_555
N4 Mg1 1_555 1_555
C1 N1 1_555 1_555
H1 C1 1_555 1_555
C2 C1 1_555 1_555
H2 C2 1_555 1_555
C3 C2 1_555 1_555
H3 C3 1_555 1_555
C4 C3 1_555 1_555
H4 C4 1_555 1_555
C5 N1 1_555 1_555
C6 N2 1_555 1_555
H5 C6 1_555 1_555
H6 C6 1_555 1_555
C7 N3 1_555 1_555
C8 C7 1_555 1_555
H7 C8 1_555 1_555
C9 C8 1_555 1_555
H8 C9 1_555 1_555
C10 C9 1_555 1_555
H9 C10 1_555 1_555
C11 N3 1_555 1_555
H10 C11 1_555 1_555
C12 N4 1_555 1_555
H11 C12 1_555 1_555
H12 C12 1_555 1_555
C13 P1 1_555 1_555
C14 C13 1_555 1_555
H13 C14 1_555 1_555
C15 C14 1_555 1_555
H14 C15 1_555 1_555
C16 C15 1_555 1_555
H15 C16 1_555 1_555
C17 C16 1_555 1_555
H16 C17 1_555 1_555
C18 C13 1_555 1_555
H17 C18 1_555 1_555
C19 P1 1_555 1_555
C20 C19 1_555 1_555
H18 C20 1_555 1_555
C21 C20 1_555 1_555
H19 C21 1_555 1_555
C22 C21 1_555 1_555
H20 C22 1_555 1_555
C23 C22 1_555 1_555
H21 C23 1_555 1_555
C24 C19 1_555 1_555
H22 C24 1_555 1_555
C25 P2 1_555 1_555
C26 C25 1_555 1_555
H23 C26 1_555 1_555
C27 C26 1_555 1_555
H24 C27 1_555 1_555
C28 C27 1_555 1_555
H25 C28 1_555 1_555
C29 C28 1_555 1_555
H26 C29 1_555 1_555
C30 C25 1_555 1_555
H27 C30 1_555 1_555
C31 P2 1_555 1_555
C32 C31 1_555 1_555
H28 C32 1_555 1_555
C33 C32 1_555 1_555
H29 C33 1_555 1_555
C34 C33 1_555 1_555
H30 C34 1_555 1_555
C35 C34 1_555 1_555
H31 C35 1_555 1_555
C36 C31 1_555 1_555
H32 C36 1_555 1_555
C37 H33 1_555 1_555
H34 C37 1_555 1_555
C38 C37 1_555 1_555
H35 C38 1_555 1_555
H36 C38 1_555 1_555
C39 C38 1_555 1_555
H37 C39 1_555 1_555
H38 C39 1_555 1_555
C40 O1 1_555 1_555
H39 C40 1_555 1_555
H40 C40 1_555 1_555
O2 C41 1_555 1_555
C41 H41 1_555 1_555
H42 C41 1_555 1_555
C42 C41 1_555 1_555
H43 C42 1_555 1_555
H44 C42 1_555 1_555
C43 C42 1_555 1_555
H45 C43 1_555 1_555
H46 C43 1_555 1_555
C44 O2 1_555 1_555
H47 C44 1_555 1_555
H48 C44 1_555 1_555
O3 C45 1_555 1_555
C45 H49 1_555 1_555
H50 C45 1_555 1_555
C46 C45 1_555 1_555
H51 C46 1_555 1_555
H52 C46 1_555 1_555
C47 C46 1_555 1_555
H53 C47 1_555 1_555
H54 C47 1_555 1_555
C48 O3 1_555 1_555
H55 C48 1_555 1_555
H56 C48 1_555 1_555
C4 C5 1_555 1_555
C5 C6 1_555 1_555
C7 C12 1_555 1_555
C10 C11 1_555 1_555
C17 C18 1_555 1_555
C23 C24 1_555 1_555
C29 C30 1_555 1_555
C35 C36 1_555 1_555
C39 C40 1_555 1_555
C43 C44 1_555 1_555
C47 C48 1_555 1_555

#END
