
#######################################################################
#
#                 Cambridge Crystallographic Data Centre
#                                CCDC 
#
#######################################################################
#
# If this CIF has been generated from an entry in the Cambridge 
# Structural Database, then it will include bibliographic, chemical, 
# crystal, experimental, refinement or atomic coordinate data resulting 
# from the CCDC's data processing and validation procedures.
#
#######################################################################

data_RESFAZ
_chemical_formula_moiety         'C26 H32 Li1 N2 O2 P1 Se1'
_chemical_name_systematic        
'{P,P-diphenyl-N-[(pyridin-2-yl)methyl]phosphinoselenoic amidato}-bis(tetrahydrofuran)-lithium'
_symmetry_cell_setting           monoclinic
_symmetry_space_group_name_H-M   'P 21/c'
_symmetry_Int_Tables_number      14
_space_group_name_Hall           '-P 2ybc'
loop_
_symmetry_equiv_pos_site_id
_symmetry_equiv_pos_as_xyz
1 x,y,z
2 -x,1/2+y,1/2-z
3 -x,-y,-z
4 x,1/2-y,1/2+z
_cell_length_a                   11.8706(4)
_cell_length_b                   14.6950(10)
_cell_length_c                   17.9378(9)
_cell_angle_alpha                90
_cell_angle_beta                 124.713(3)
_cell_angle_gamma                90
_cell_volume                     2572.12
_exptl_crystal_colour            yellow
_exptl_crystal_description       block
_cell_formula_units_Z            4
loop_
_atom_site_label
_atom_site_type_symbol
_atom_site_fract_x
_atom_site_fract_y
_atom_site_fract_z
Se1 Se -0.26756(7) -0.32944(5) -0.31328(5)
P1 P -0.15015(16) -0.24589(10) -0.19490(11)
O1 O 0.2134(5) -0.1800(3) -0.1691(3)
O2 O 0.2717(5) -0.1254(3) 0.0256(3)
N1 N 0.0055(5) -0.2732(3) -0.1183(4)
C1 C 0.1661(6) -0.3935(4) -0.0169(4)
C2 C -0.2108(8) -0.0113(5) -0.3377(5)
H1 H -0.2689 0.0083 -0.3975
N2 N 0.2645(5) -0.3363(3) -0.0010(4)
C3 C 0.2383(7) -0.0851(5) -0.2655(5)
H2 H 0.2311 -0.0216 -0.2825
H3 H 0.3052 -0.1150 -0.2720
C4 C 0.1007(8) -0.1322(5) -0.3210(5)
H4 H 0.0798 -0.1520 -0.3792
H5 H 0.0278 -0.0928 -0.3308
C5 C 0.2748(7) -0.0950(5) -0.1700(5)
H6 H 0.3735 -0.0968 -0.1264
H7 H 0.2385 -0.0444 -0.1552
C6 C 0.3590(8) -0.0468(5) 0.0485(5)
H8 H 0.3099 0.0014 0.0045
H9 H 0.4393 -0.0627 0.0496
C7 C -0.2458(7) -0.2375(4) -0.1426(4)
C8 C -0.1720(7) -0.2238(5) -0.0487(5)
H10 H -0.0776 -0.2150 -0.0151
C9 C 0.3319(7) -0.5019(5) 0.0890(5)
H11 H 0.3537 -0.5580 0.1182
C10 C 0.1968(7) -0.4773(5) 0.0273(5)
H12 H 0.1266 -0.5164 0.0152
C11 C 0.1215(8) -0.2128(5) -0.2614(5)
H13 H 0.0350 -0.2322 -0.2726
H14 H 0.1620 -0.2636 -0.2727
C12 C -0.3867(7) -0.2496(5) -0.1911(5)
H15 H -0.4370 -0.2594 -0.2533
C13 C 0.3960(7) -0.3604(5) 0.0605(5)
H16 H 0.4647 -0.3201 0.0723
C14 C 0.2555(9) -0.1429(6) 0.0978(6)
H17 H 0.3020 -0.1989 0.1290
H18 H 0.1592 -0.1489 0.0739
C15 C 0.3172(12) -0.0637(7) 0.1617(8)
H19 H 0.2458 -0.0240 0.1538
H20 H 0.3723 -0.0847 0.2240
C16 C 0.0199(6) -0.3660(4) -0.0844(5)
H21 H -0.0218 -0.4079 -0.1352
H22 H -0.0295 -0.3710 -0.0562
C17 C 0.3999(15) -0.0168(8) 0.1404(8)
H23 H 0.4958 -0.0305 0.1852
H24 H 0.3869 0.0483 0.1406
C18 C 0.4339(7) -0.4422(5) 0.1068(5)
H25 H 0.5258 -0.4565 0.1489
C19 C -0.2210(7) -0.1000(5) -0.3142(5)
H26 H -0.2843 -0.1399 -0.3590
C20 C -0.1383(6) -0.1294(4) -0.2252(5)
C21 C -0.4530(7) -0.2474(5) -0.1484(5)
H27 H -0.5477 -0.2542 -0.1824
C22 C -0.1141(8) 0.0470(5) -0.2721(6)
H28 H -0.1056 0.1057 -0.2878
C23 C -0.0431(8) -0.0699(5) -0.1589(5)
H29 H 0.0120 -0.0883 -0.0986
C24 C -0.3798(7) -0.2349(5) -0.0547(5)
H30 H -0.4246 -0.2344 -0.0258
C25 C -0.0304(8) 0.0184(5) -0.1836(6)
H31 H 0.0352 0.0579 -0.1396
C26 C -0.2386(8) -0.2234(6) -0.0055(5)
H32 H -0.1883 -0.2152 0.0570
Li1 Li 0.1866(11) -0.2162(7) -0.0739(8)
loop_
_geom_bond_atom_site_label_1
_geom_bond_atom_site_label_2
_geom_bond_site_symmetry_1
_geom_bond_site_symmetry_2
Se1 P1 1_555 1_555
P1 N1 1_555 1_555
O1 C5 1_555 1_555
O2 C6 1_555 1_555
N1 C16 1_555 1_555
C1 N2 1_555 1_555
C2 H1 1_555 1_555
N2 C13 1_555 1_555
C3 H2 1_555 1_555
H3 C3 1_555 1_555
C4 C3 1_555 1_555
H4 C4 1_555 1_555
H5 C4 1_555 1_555
C5 C3 1_555 1_555
H6 C5 1_555 1_555
H7 C5 1_555 1_555
C6 H8 1_555 1_555
H9 C6 1_555 1_555
C7 P1 1_555 1_555
C8 C7 1_555 1_555
H10 C8 1_555 1_555
C9 H11 1_555 1_555
C10 C1 1_555 1_555
H12 C10 1_555 1_555
C11 O1 1_555 1_555
H13 C11 1_555 1_555
H14 C11 1_555 1_555
C12 C7 1_555 1_555
H15 C12 1_555 1_555
C13 H16 1_555 1_555
C14 O2 1_555 1_555
H17 C14 1_555 1_555
H18 C14 1_555 1_555
C15 C14 1_555 1_555
H19 C15 1_555 1_555
H20 C15 1_555 1_555
C16 C1 1_555 1_555
H21 C16 1_555 1_555
H22 C16 1_555 1_555
C17 C6 1_555 1_555
H23 C17 1_555 1_555
H24 C17 1_555 1_555
C18 C9 1_555 1_555
H25 C18 1_555 1_555
C19 C2 1_555 1_555
H26 C19 1_555 1_555
C20 P1 1_555 1_555
C21 C12 1_555 1_555
H27 C21 1_555 1_555
C22 C2 1_555 1_555
H28 C22 1_555 1_555
C23 C20 1_555 1_555
H29 C23 1_555 1_555
C24 C21 1_555 1_555
H30 C24 1_555 1_555
C25 C22 1_555 1_555
H31 C25 1_555 1_555
C26 C8 1_555 1_555
H32 C26 1_555 1_555
Li1 O1 1_555 1_555
O2 Li1 1_555 1_555
N1 Li1 1_555 1_555
N2 Li1 1_555 1_555
C4 C11 1_555 1_555
C9 C10 1_555 1_555
C13 C18 1_555 1_555
C15 C17 1_555 1_555
C19 C20 1_555 1_555
C23 C25 1_555 1_555
C24 C26 1_555 1_555

#END
