
#######################################################################
#
#                 Cambridge Crystallographic Data Centre
#                                CCDC 
#
#######################################################################
#
# If this CIF has been generated from an entry in the Cambridge 
# Structural Database, then it will include bibliographic, chemical, 
# crystal, experimental, refinement or atomic coordinate data resulting 
# from the CCDC's data processing and validation procedures.
#
#######################################################################

data_RESGEE
_chemical_formula_moiety         'C26 H24 O4'
_chemical_name_systematic        
2,2-dimethyl-5-[4-(naphthalen-2-yl)-4-phenylbutan-2-ylidene]-1,3-dioxane-4,6-dione
_symmetry_cell_setting           orthorhombic
_symmetry_space_group_name_H-M   'P 21 21 21'
_symmetry_Int_Tables_number      19
_space_group_name_Hall           'P 2ac 2ab'
loop_
_symmetry_equiv_pos_site_id
_symmetry_equiv_pos_as_xyz
1 x,y,z
2 1/2-x,-y,1/2+z
3 1/2+x,1/2-y,-z
4 -x,1/2+y,1/2-z
_cell_length_a                   7.4823(3)
_cell_length_b                   13.0258(6)
_cell_length_c                   21.7018(10)
_cell_angle_alpha                90
_cell_angle_beta                 90
_cell_angle_gamma                90
_cell_volume                     2115.12
_exptl_crystal_colour            colorless
_exptl_crystal_description       block
_cell_formula_units_Z            4
loop_
_atom_site_label
_atom_site_type_symbol
_atom_site_fract_x
_atom_site_fract_y
_atom_site_fract_z
C1 C 0.8465(3) -0.01753(14) 0.31475(9)
C2 C 0.6536(2) -0.05507(13) 0.40000(8)
C3 C 0.6462(2) 0.05793(13) 0.40955(8)
C4 C 0.8110(2) 0.11476(13) 0.39210(8)
C5 C 0.7067(3) 0.01131(16) 0.26805(9)
H1 H 0.6658 -0.0493 0.2472
H2 H 0.7572 0.0580 0.2386
H3 H 0.6079 0.0437 0.2885
C6 C 1.0083(3) -0.06794(19) 0.28705(12)
H4 H 1.0900 -0.0868 0.3192
H5 H 1.0658 -0.0210 0.2593
H6 H 0.9724 -0.1283 0.2649
C7 C 0.4984(2) 0.10386(14) 0.43270(7)
C8 C 0.3308(3) 0.04492(16) 0.44737(10)
H7 H 0.3035 -0.0007 0.4139
H8 H 0.2336 0.0920 0.4532
H9 H 0.3484 0.0058 0.4844
C9 C 0.4839(2) 0.21774(14) 0.44374(8)
H10 H 0.6002 0.2491 0.4376
H11 H 0.4488 0.2297 0.4862
C10 C 0.3465(2) 0.26935(13) 0.40032(8)
H12 H 0.2312 0.2356 0.4073
C11 C 0.3949(2) 0.25323(12) 0.33282(8)
C12 C 0.2746(3) 0.20514(15) 0.29417(8)
H13 H 0.1666 0.1815 0.3100
C13 C 0.3124(3) 0.19153(18) 0.23208(9)
H14 H 0.2295 0.1592 0.2067
C14 C 0.4710(3) 0.22533(17) 0.20784(9)
H15 H 0.4958 0.2165 0.1662
C15 C 0.5928(3) 0.27229(15) 0.24578(9)
H16 H 0.7011 0.2949 0.2297
C16 C 0.5564(3) 0.28645(14) 0.30790(9)
H17 H 0.6403 0.3183 0.3330
C17 C 0.3210(2) 0.38308(13) 0.41399(8)
C18 C 0.1550(2) 0.42628(13) 0.40630(8)
H18 H 0.0595 0.3842 0.3955
C19 C 0.1245(2) 0.53265(12) 0.41427(7)
C20 C -0.0457(2) 0.57830(14) 0.40562(8)
H19 H -0.1422 0.5375 0.3942
C21 C -0.0703(3) 0.68110(14) 0.41375(9)
H20 H -0.1830 0.7097 0.4082
C22 C 0.0748(3) 0.74422(14) 0.43051(8)
H21 H 0.0572 0.8144 0.4356
C23 C 0.2407(3) 0.70354(14) 0.43939(8)
H22 H 0.3352 0.7461 0.4505
C24 C 0.2702(2) 0.59660(13) 0.43179(8)
C25 C 0.4391(2) 0.55068(14) 0.44006(9)
H23 H 0.5357 0.5914 0.4515
C26 C 0.4641(2) 0.44774(14) 0.43160(9)
H24 H 0.5771 0.4197 0.4375
O1 O 0.91187(17) 0.07135(10) 0.34742(6)
O2 O 0.77777(18) -0.08884(9) 0.35887(6)
O3 O 0.86645(17) 0.19289(10) 0.41485(6)
O4 O 0.5682(2) -0.11828(10) 0.42720(6)
loop_
_geom_bond_atom_site_label_1
_geom_bond_atom_site_label_2
_geom_bond_site_symmetry_1
_geom_bond_site_symmetry_2
C1 C5 1_555 1_555
C2 C3 1_555 1_555
C3 C4 1_555 1_555
C4 O1 1_555 1_555
C5 H1 1_555 1_555
H2 C5 1_555 1_555
H3 C5 1_555 1_555
C6 C1 1_555 1_555
H4 C6 1_555 1_555
H5 C6 1_555 1_555
H6 C6 1_555 1_555
C7 C3 1_555 1_555
C8 C7 1_555 1_555
H7 C8 1_555 1_555
H8 C8 1_555 1_555
H9 C8 1_555 1_555
C9 C7 1_555 1_555
H10 C9 1_555 1_555
H11 C9 1_555 1_555
C10 C9 1_555 1_555
H12 C10 1_555 1_555
C11 C10 1_555 1_555
C12 C11 1_555 1_555
H13 C12 1_555 1_555
C13 C12 1_555 1_555
H14 C13 1_555 1_555
C14 C13 1_555 1_555
H15 C14 1_555 1_555
C15 C14 1_555 1_555
H16 C15 1_555 1_555
C16 C11 1_555 1_555
H17 C16 1_555 1_555
C17 C10 1_555 1_555
C18 C17 1_555 1_555
H18 C18 1_555 1_555
C19 C18 1_555 1_555
C20 C19 1_555 1_555
H19 C20 1_555 1_555
C21 C20 1_555 1_555
H20 C21 1_555 1_555
C22 C21 1_555 1_555
H21 C22 1_555 1_555
C23 C22 1_555 1_555
H22 C23 1_555 1_555
C24 C19 1_555 1_555
C25 C24 1_555 1_555
H23 C25 1_555 1_555
C26 C17 1_555 1_555
H24 C26 1_555 1_555
O1 C1 1_555 1_555
O2 C1 1_555 1_555
O3 C4 1_555 1_555
O4 C2 1_555 1_555
C2 O2 1_555 1_555
C15 C16 1_555 1_555
C23 C24 1_555 1_555
C25 C26 1_555 1_555

#END
