
#######################################################################
#
#                 Cambridge Crystallographic Data Centre
#                                CCDC 
#
#######################################################################
#
# If this CIF has been generated from an entry in the Cambridge 
# Structural Database, then it will include bibliographic, chemical, 
# crystal, experimental, refinement or atomic coordinate data resulting 
# from the CCDC's data processing and validation procedures.
#
#######################################################################

data_RESGII
_chemical_formula_moiety         'C26 H22 N2 O3'
_chemical_name_systematic        
1-ethyl-2-oxo-2'-phenyl-1,2-dihydro-5'H-spiro[indole-3,4'-[2,5]methano[1,3]benzoxazepine]-3'(2'H)-carbaldehyde
_symmetry_cell_setting           monoclinic
_symmetry_space_group_name_H-M   'P 21'
_symmetry_Int_Tables_number      4
_space_group_name_Hall           'P 2yb'
loop_
_symmetry_equiv_pos_site_id
_symmetry_equiv_pos_as_xyz
1 x,y,z
2 -x,1/2+y,-z
_cell_length_a                   10.4093(12)
_cell_length_b                   6.2017(7)
_cell_length_c                   15.4242(17)
_cell_angle_alpha                90
_cell_angle_beta                 92.398(2)
_cell_angle_gamma                90
_cell_volume                     994.843
_exptl_crystal_colour            colorless
_exptl_crystal_description       prism
_cell_formula_units_Z            2
loop_
_atom_site_label
_atom_site_type_symbol
_atom_site_fract_x
_atom_site_fract_y
_atom_site_fract_z
O1 O 0.58630(11) 0.4682(2) 0.26895(8)
O2 O 0.94500(11) 0.3118(2) 0.12887(8)
O3 O 0.68347(12) 0.9355(2) 0.21086(8)
N1 N 0.77481(13) 0.4837(2) 0.20152(9)
N2 N 0.72374(13) 0.8827(2) 0.35765(10)
C1 C 0.60096(17) 0.3318(4) -0.10265(12)
H1 H 0.5460 0.3007 -0.1518
C2 C 0.58647(17) 0.5230(4) -0.05698(12)
H2 H 0.5208 0.6218 -0.0748
C3 C 0.66724(17) 0.5710(3) 0.01450(12)
H3 H 0.6574 0.7027 0.0449
C4 C 0.76313(15) 0.4246(3) 0.04154(11)
C5 C 0.84754(15) 0.4773(3) 0.12142(11)
C6 C 0.82793(15) 0.6424(3) 0.26402(10)
C7 C 0.73489(15) 0.8381(3) 0.27141(11)
C8 C 0.62626(17) 1.0296(3) 0.38960(12)
H4 H 0.6123 1.1494 0.3478
H5 H 0.6572 1.0920 0.4457
C9 C 0.49926(17) 0.9121(4) 0.40158(15)
H6 H 0.4673 0.8538 0.3457
H7 H 0.4361 1.0133 0.4236
H8 H 0.5129 0.7939 0.4431
C10 C 0.78224(14) 0.7204(3) 0.40928(11)
C11 C 0.84267(14) 0.5686(3) 0.35740(10)
C12 C 0.90082(15) 0.3889(3) 0.39536(11)
H9 H 0.9416 0.2843 0.3609
C13 C 0.89829(16) 0.3643(3) 0.48576(12)
H10 H 0.9361 0.2406 0.5127
C14 C 0.84086(16) 0.5198(3) 0.53593(11)
H11 H 0.8421 0.5026 0.5972
C15 C 0.78118(15) 0.7013(3) 0.49844(11)
H12 H 0.7415 0.8071 0.5329
C16 C 0.65194(15) 0.4136(3) 0.20910(11)
H13 H 0.6160 0.3187 0.1662
C17 C 1.04985(15) 0.3557(3) 0.18387(11)
C18 C 1.05923(15) 0.5466(3) 0.23244(11)
C19 C 0.95334(15) 0.7119(3) 0.21964(11)
H14 H 0.9820 0.8598 0.2375
C20 C 0.91002(15) 0.7014(3) 0.12347(11)
H15 H 0.9837 0.7096 0.0851
H16 H 0.8473 0.8163 0.1076
C21 C 1.16984(16) 0.5796(3) 0.28507(11)
H17 H 1.1779 0.7080 0.3184
C22 C 1.26837(15) 0.4287(3) 0.28965(11)
H18 H 1.3431 0.4541 0.3256
C23 C 1.25686(16) 0.2393(3) 0.24104(12)
H19 H 1.3237 0.1350 0.2444
C24 C 1.14767(15) 0.2024(3) 0.18761(11)
H20 H 1.1401 0.0741 0.1541
C25 C 0.69636(17) 0.1864(3) -0.07609(11)
H21 H 0.7067 0.0557 -0.1072
C26 C 0.77706(15) 0.2320(3) -0.00381(11)
H22 H 0.8416 0.1317 0.0145
loop_
_geom_bond_atom_site_label_1
_geom_bond_atom_site_label_2
_geom_bond_site_symmetry_1
_geom_bond_site_symmetry_2
O1 C16 1_555 1_555
O2 C5 1_555 1_555
O3 C7 1_555 1_555
N1 C5 1_555 1_555
N2 C7 1_555 1_555
C1 H1 1_555 1_555
C2 C1 1_555 1_555
H2 C2 1_555 1_555
C3 C2 1_555 1_555
H3 C3 1_555 1_555
C4 C3 1_555 1_555
C5 C4 1_555 1_555
C6 N1 1_555 1_555
C7 C6 1_555 1_555
C8 N2 1_555 1_555
H4 C8 1_555 1_555
H5 C8 1_555 1_555
C9 C8 1_555 1_555
H6 C9 1_555 1_555
H7 C9 1_555 1_555
H8 C9 1_555 1_555
C10 N2 1_555 1_555
C11 C6 1_555 1_555
C12 C11 1_555 1_555
H9 C12 1_555 1_555
C13 C12 1_555 1_555
H10 C13 1_555 1_555
C14 C13 1_555 1_555
H11 C14 1_555 1_555
C15 C10 1_555 1_555
H12 C15 1_555 1_555
C16 N1 1_555 1_555
H13 C16 1_555 1_555
C17 O2 1_555 1_555
C18 C17 1_555 1_555
C19 C6 1_555 1_555
H14 C19 1_555 1_555
C20 C5 1_555 1_555
H15 C20 1_555 1_555
H16 C20 1_555 1_555
C21 C18 1_555 1_555
H17 C21 1_555 1_555
C22 C21 1_555 1_555
H18 C22 1_555 1_555
C23 C22 1_555 1_555
H19 C23 1_555 1_555
C24 C17 1_555 1_555
H20 C24 1_555 1_555
C25 C1 1_555 1_555
H21 C25 1_555 1_555
C26 C4 1_555 1_555
H22 C26 1_555 1_555
C10 C11 1_555 1_555
C14 C15 1_555 1_555
C18 C19 1_555 1_555
C19 C20 1_555 1_555
C23 C24 1_555 1_555
C25 C26 1_555 1_555

#END
