
#######################################################################
#
#                 Cambridge Crystallographic Data Centre
#                                CCDC 
#
#######################################################################
#
# If this CIF has been generated from an entry in the Cambridge 
# Structural Database, then it will include bibliographic, chemical, 
# crystal, experimental, refinement or atomic coordinate data resulting 
# from the CCDC's data processing and validation procedures.
#
#######################################################################

data_RESJAB
_chemical_formula_moiety         'C24 H22 Br1 F3 N2 O4'
_chemical_name_systematic        
(+-)-2-(1,3-Benzodioxol-5-ylmethyl)-4-(4-bromophenyl)-1-hydroxy-1-(trifluoromethyl)octahydropyrrolo(3,4-a)pyrrolizin-3(2H)-one
_symmetry_cell_setting           monoclinic
_symmetry_space_group_name_H-M   'P 21/n'
_symmetry_Int_Tables_number      14
_space_group_name_Hall           '-P 2yn'
loop_
_symmetry_equiv_pos_site_id
_symmetry_equiv_pos_as_xyz
1 x,y,z
2 1/2-x,1/2+y,1/2-z
3 -x,-y,-z
4 1/2+x,1/2-y,1/2+z
_cell_length_a                   15.1411(3)
_cell_length_b                   9.3535(2)
_cell_length_c                   15.9145(3)
_cell_angle_alpha                90
_cell_angle_beta                 93.549(1)
_cell_angle_gamma                90
_cell_volume                     2249.53
_exptl_crystal_colour            colorless
_cell_formula_units_Z            4
loop_
_atom_site_label
_atom_site_type_symbol
_atom_site_fract_x
_atom_site_fract_y
_atom_site_fract_z
C1 C 0.03906(11) 0.69845(17) 0.88833(10)
N1 N 0.06726(9) 0.58035(14) 0.83704(8)
C2 C 0.14054(11) 0.61170(19) 0.79402(10)
C3 C 0.16487(11) 0.76704(18) 0.80881(10)
H1 H 0.1744 0.8171 0.7546
C4 C 0.08612(11) 0.83122(18) 0.85207(10)
H2 H 0.0459 0.8870 0.8121
C5 C 0.24571(11) 0.78925(18) 0.87426(10)
H3 H 0.2812 0.8715 0.8545
N2 N 0.20425(9) 0.83484(15) 0.95259(8)
C6 C 0.12738(12) 0.92383(18) 0.92224(10)
H4 H 0.0854 0.9360 0.9678
C7 C 0.16642(13) 1.06909(19) 0.89859(12)
H5 H 0.1243 1.1476 0.9078
H6 H 0.1817 1.0700 0.8390
C8 C 0.25023(13) 1.0832(2) 0.95840(12)
H7 H 0.2427 1.1596 1.0004
H8 H 0.3024 1.1059 0.9263
C9 C 0.26173(13) 0.9359(2) 1.00232(11)
H9 H 0.3243 0.9046 1.0033
H10 H 0.2437 0.9413 1.0610
C10 C 0.30758(11) 0.66402(18) 0.88867(10)
C11 C 0.38171(12) 0.6560(2) 0.84131(11)
H11 H 0.3927 0.7301 0.8025
C12 C 0.43985(12) 0.5414(2) 0.84993(12)
H12 H 0.4900 0.5367 0.8171
C13 C 0.42397(12) 0.4348(2) 0.90665(11)
C14 C 0.35184(13) 0.4407(2) 0.95586(12)
H13 H 0.3420 0.3675 0.9956
C15 C 0.29402(12) 0.5560(2) 0.94602(11)
H14 H 0.2442 0.5607 0.9793
Br1 Br 0.502291(15) 0.27629(3) 0.917578(16)
O1 O 0.17900(9) 0.52491(15) 0.75255(8)
O2 O 0.05951(8) 0.67367(13) 0.97424(7)
H15 H 0.1111 0.7024 0.9872
C16 C -0.06121(12) 0.71652(19) 0.88109(11)
F1 F -0.08464(7) 0.83671(13) 0.92029(7)
F2 F -0.10344(7) 0.60818(13) 0.91556(7)
F3 F -0.09250(7) 0.72774(12) 0.80082(6)
C17 C 0.04559(11) 0.43163(17) 0.85530(10)
H16 H 0.0267 0.4262 0.9137
H17 H 0.1000 0.3735 0.8527
C18 C -0.02611(11) 0.36533(18) 0.79693(10)
C19 C -0.04555(12) 0.41567(19) 0.71601(10)
H18 H -0.0161 0.4986 0.6977
C20 C -0.10747(12) 0.3476(2) 0.66044(11)
H19 H -0.1205 0.3824 0.6050
C21 C -0.14848(11) 0.2285(2) 0.68970(11)
C22 C -0.12942(12) 0.1774(2) 0.77025(11)
C23 C -0.06882(12) 0.24299(19) 0.82570(10)
H20 H -0.0564 0.2071 0.8810
O3 O -0.21188(9) 0.14339(16) 0.64872(8)
C24 C -0.22056(14) 0.0226(2) 0.70310(12)
H21 H -0.2838 -0.0007 0.7078
H22 H -0.1909 -0.0618 0.6801
O4 O -0.18037(10) 0.05880(16) 0.78378(8)
loop_
_geom_bond_atom_site_label_1
_geom_bond_atom_site_label_2
_geom_bond_site_symmetry_1
_geom_bond_site_symmetry_2
C1 N1 1_555 1_555
N1 C2 1_555 1_555
C2 C3 1_555 1_555
C3 H1 1_555 1_555
C4 C1 1_555 1_555
H2 C4 1_555 1_555
C5 C3 1_555 1_555
H3 C5 1_555 1_555
N2 C5 1_555 1_555
C6 C4 1_555 1_555
H4 C6 1_555 1_555
C7 C6 1_555 1_555
H5 C7 1_555 1_555
H6 C7 1_555 1_555
C8 C7 1_555 1_555
H7 C8 1_555 1_555
H8 C8 1_555 1_555
C9 N2 1_555 1_555
H9 C9 1_555 1_555
H10 C9 1_555 1_555
C10 C5 1_555 1_555
C11 C10 1_555 1_555
H11 C11 1_555 1_555
C12 C11 1_555 1_555
H12 C12 1_555 1_555
C13 C12 1_555 1_555
C14 C13 1_555 1_555
H13 C14 1_555 1_555
C15 C10 1_555 1_555
H14 C15 1_555 1_555
Br1 C13 1_555 1_555
O1 C2 1_555 1_555
O2 C1 1_555 1_555
H15 O2 1_555 1_555
C16 C1 1_555 1_555
F1 C16 1_555 1_555
F2 C16 1_555 1_555
F3 C16 1_555 1_555
C17 N1 1_555 1_555
H16 C17 1_555 1_555
H17 C17 1_555 1_555
C18 C17 1_555 1_555
C19 C18 1_555 1_555
H18 C19 1_555 1_555
C20 C19 1_555 1_555
H19 C20 1_555 1_555
C21 C20 1_555 1_555
C22 C21 1_555 1_555
C23 C18 1_555 1_555
H20 C23 1_555 1_555
O3 C21 1_555 1_555
C24 O3 1_555 1_555
H21 C24 1_555 1_555
H22 C24 1_555 1_555
O4 C22 1_555 1_555
C3 C4 1_555 1_555
N2 C6 1_555 1_555
C8 C9 1_555 1_555
C14 C15 1_555 1_555
C22 C23 1_555 1_555
C24 O4 1_555 1_555

#END
