
#######################################################################
#
#                 Cambridge Crystallographic Data Centre
#                                CCDC 
#
#######################################################################
#
# If this CIF has been generated from an entry in the Cambridge 
# Structural Database, then it will include bibliographic, chemical, 
# crystal, experimental, refinement or atomic coordinate data resulting 
# from the CCDC's data processing and validation procedures.
#
#######################################################################

data_RESLOS
_chemical_formula_moiety         'C11 H18 O4'
_chemical_name_systematic        
6,7-Dihydroxy-9,9-dimethyl-1-oxaspiro[4.5]decan-2-one
_symmetry_cell_setting           monoclinic
_symmetry_space_group_name_H-M   'P 21/c'
_symmetry_Int_Tables_number      14
_space_group_name_Hall           '-P 2ybc'
loop_
_symmetry_equiv_pos_site_id
_symmetry_equiv_pos_as_xyz
1 x,y,z
2 -x,1/2+y,1/2-z
3 -x,-y,-z
4 x,1/2-y,1/2+z
_cell_length_a                   15.1080(3)
_cell_length_b                   9.3204(2)
_cell_length_c                   16.7632(4)
_cell_angle_alpha                90
_cell_angle_beta                 112.4030(10)
_cell_angle_gamma                90
_cell_volume                     2182.32
_exptl_crystal_colour            colorless
_exptl_crystal_description       prism
_cell_formula_units_Z            8
loop_
_atom_site_label
_atom_site_type_symbol
_atom_site_fract_x
_atom_site_fract_y
_atom_site_fract_z
C1 C 0.26384(10) 1.06943(16) 0.41708(9)
C2 C 0.17587(10) 0.97799(15) 0.39090(10)
H1 H 0.1348 0.9946 0.3310
H2 H 0.1399 0.9971 0.4269
C3 C 0.21480(10) 0.82564(16) 0.40406(10)
H3 H 0.2176 0.7873 0.3513
H4 H 0.1758 0.7629 0.4235
C4 C 0.31558(10) 0.84315(14) 0.47395(10)
C5 C 0.39006(10) 0.74395(15) 0.46198(10)
H5 H 0.3956 0.7660 0.4069
C6 C 0.48717(10) 0.76271(15) 0.53471(11)
H6 H 0.5100 0.8602 0.5319
C7 C 0.48255(10) 0.74108(16) 0.62259(10)
H7 H 0.5461 0.7532 0.6667
H8 H 0.4619 0.6437 0.6266
C8 C 0.41356(10) 0.84673(16) 0.63984(10)
C9 C 0.40020(13) 0.80532(19) 0.72285(11)
H9 H 0.3568 0.8714 0.7329
H10 H 0.4609 0.8086 0.7705
H11 H 0.3745 0.7100 0.7173
C10 C 0.45416(11) 0.99966(16) 0.65150(11)
H12 H 0.4632 1.0286 0.6002
H13 H 0.5145 1.0020 0.6996
H14 H 0.4102 1.0641 0.6620
C11 C 0.31557(10) 0.83535(15) 0.56471(9)
H15 H 0.2864 0.7452 0.5703
H16 H 0.2751 0.9118 0.5709
O1 O 0.26988(7) 1.19675(11) 0.40613(7)
O2 O 0.34246(7) 0.99011(10) 0.45834(7)
O3 O 0.35351(7) 0.60284(11) 0.45857(7)
H17 H 0.4038 0.5344 0.4667
O4 O 0.55158(7) 0.66287(11) 0.51998(8)
H18 H 0.6148 0.7029 0.5433
C12 C 0.06703(10) 0.18831(16) 0.79134(9)
C13 C 0.10784(12) 0.04039(17) 0.80666(10)
H19 H 0.0573 -0.0308 0.7870
H20 H 0.1451 0.0250 0.8675
C14 C 0.17098(11) 0.03127(16) 0.75495(10)
H21 H 0.1595 -0.0574 0.7223
H22 H 0.2381 0.0359 0.7926
C15 C 0.14259(10) 0.16170(15) 0.69412(9)
C16 C 0.07152(10) 0.12579(15) 0.60301(9)
H23 H 0.0147 0.0798 0.6063
C17 C 0.04227(10) 0.26275(16) 0.54963(9)
H24 H 0.0154 0.3295 0.5796
C18 C 0.12884(10) 0.33329(16) 0.54102(9)
H25 H 0.1085 0.4208 0.5077
H26 H 0.1543 0.2695 0.5093
C19 C 0.20907(10) 0.36980(16) 0.62835(9)
C20 C 0.30084(11) 0.40039(18) 0.61264(11)
H27 H 0.2905 0.4806 0.5742
H28 H 0.3175 0.3175 0.5873
H29 H 0.3519 0.4222 0.6665
C21 C 0.18314(12) 0.50391(16) 0.66770(11)
H30 H 0.1259 0.4861 0.6782
H31 H 0.1726 0.5829 0.6284
H32 H 0.2346 0.5267 0.7211
C22 C 0.22877(10) 0.24043(15) 0.68997(9)
H33 H 0.2670 0.1718 0.6735
H34 H 0.2674 0.2735 0.7477
O5 O 0.01812(8) 0.24789(12) 0.82385(7)
O6 O 0.08986(7) 0.25631(10) 0.73138(6)
O7 O 0.11628(7) 0.03058(11) 0.56391(7)
H35 H 0.0857 -0.0618 0.5585
O8 O -0.03045(7) 0.23029(12) 0.46697(6)
H36 H -0.0108 0.2536 0.4208
loop_
_geom_bond_atom_site_label_1
_geom_bond_atom_site_label_2
_geom_bond_site_symmetry_1
_geom_bond_site_symmetry_2
C1 C2 1_555 1_555
C2 H1 1_555 1_555
H2 C2 1_555 1_555
C3 C2 1_555 1_555
H3 C3 1_555 1_555
H4 C3 1_555 1_555
C4 C3 1_555 1_555
C5 C4 1_555 1_555
H5 C5 1_555 1_555
C6 C5 1_555 1_555
H6 C6 1_555 1_555
C7 C6 1_555 1_555
H7 C7 1_555 1_555
H8 C7 1_555 1_555
C8 C7 1_555 1_555
C9 C8 1_555 1_555
H9 C9 1_555 1_555
H10 C9 1_555 1_555
H11 C9 1_555 1_555
C10 C8 1_555 1_555
H12 C10 1_555 1_555
H13 C10 1_555 1_555
H14 C10 1_555 1_555
C11 C4 1_555 1_555
H15 C11 1_555 1_555
H16 C11 1_555 1_555
O1 C1 1_555 1_555
O2 C1 1_555 1_555
O3 C5 1_555 1_555
H17 O3 1_555 1_555
O4 C6 1_555 1_555
H18 O4 1_555 1_555
C12 C13 1_555 1_555
C13 H19 1_555 1_555
H20 C13 1_555 1_555
C14 C13 1_555 1_555
H21 C14 1_555 1_555
H22 C14 1_555 1_555
C15 C14 1_555 1_555
C16 C15 1_555 1_555
H23 C16 1_555 1_555
C17 C16 1_555 1_555
H24 C17 1_555 1_555
C18 C17 1_555 1_555
H25 C18 1_555 1_555
H26 C18 1_555 1_555
C19 C18 1_555 1_555
C20 C19 1_555 1_555
H27 C20 1_555 1_555
H28 C20 1_555 1_555
H29 C20 1_555 1_555
C21 C19 1_555 1_555
H30 C21 1_555 1_555
H31 C21 1_555 1_555
H32 C21 1_555 1_555
C22 C15 1_555 1_555
H33 C22 1_555 1_555
H34 C22 1_555 1_555
O5 C12 1_555 1_555
O6 C12 1_555 1_555
O7 C16 1_555 1_555
H35 O7 1_555 1_555
O8 C17 1_555 1_555
H36 O8 1_555 1_555
C4 O2 1_555 1_555
C8 C11 1_555 1_555
C15 O6 1_555 1_555
C19 C22 1_555 1_555

#END
