
#######################################################################
#
#                 Cambridge Crystallographic Data Centre
#                                CCDC 
#
#######################################################################
#
# If this CIF has been generated from an entry in the Cambridge 
# Structural Database, then it will include bibliographic, chemical, 
# crystal, experimental, refinement or atomic coordinate data resulting 
# from the CCDC's data processing and validation procedures.
#
#######################################################################

data_RESLIN
_chemical_formula_moiety         'C12 H13 Br1 O5'
_chemical_name_systematic        
'ethyl syn-(2R,3R)-4-(4-bromophenyl)-2,3-dihydroxy-4-oxobutanoate'
_symmetry_cell_setting           monoclinic
_symmetry_space_group_name_H-M   'P 21'
_symmetry_Int_Tables_number      4
_space_group_name_Hall           'P 2yb'
loop_
_symmetry_equiv_pos_site_id
_symmetry_equiv_pos_as_xyz
1 x,y,z
2 -x,1/2+y,-z
_cell_length_a                   10.8803(4)
_cell_length_b                   8.4591(3)
_cell_length_c                   14.7041(4)
_cell_angle_alpha                90
_cell_angle_beta                 101.774(3)
_cell_angle_gamma                90
_cell_volume                     1324.86
_exptl_crystal_colour            'pale yellow'
_chemical_melting_point          '74-77 deg.C'
_cell_formula_units_Z            4
loop_
_atom_site_label
_atom_site_type_symbol
_atom_site_fract_x
_atom_site_fract_y
_atom_site_fract_z
Br1 Br 1.14001(7) 0.82156(8) 0.96250(4)
O1 O 1.0913(3) 0.1171(4) 0.73439(18)
O2 O 1.1331(2) 0.1189(3) 0.56543(16)
O3 O 0.9746(2) 0.3242(4) 0.44517(15)
O4 O 0.8161(2) 0.1050(4) 0.49874(19)
O5 O 0.8344(2) 0.2304(4) 0.63500(17)
C1 C 1.1249(3) 0.5425(5) 0.7296(2)
H1 H 1.1293 0.5570 0.6677
C2 C 1.1368(3) 0.6715(5) 0.7891(3)
H2 H 1.1489 0.7725 0.7676
C3 C 1.1303(4) 0.6469(6) 0.8804(3)
C4 C 1.1124(4) 0.4977(6) 0.9144(3)
H3 H 1.1086 0.4838 0.9765
C5 C 1.1004(4) 0.3711(6) 0.8553(3)
H4 H 1.0880 0.2705 0.8775
C6 C 1.1064(3) 0.3914(5) 0.7620(2)
C7 C 1.0966(3) 0.2478(4) 0.7026(2)
C8 C 1.0965(3) 0.2625(4) 0.5986(2)
H5 H 1.1588 0.3425 0.5911
C9 C 0.9682(3) 0.3143(5) 0.5400(2)
H6 H 0.9488 0.4198 0.5609
C10 C 0.8635(3) 0.2028(4) 0.5525(2)
C11 C 0.7493(4) 0.1195(6) 0.6656(3)
H7 H 0.7756 0.0117 0.6576
H8 H 0.6647 0.1334 0.6296
C12 C 0.7528(5) 0.1528(9) 0.7661(3)
H9 H 0.7255 0.2592 0.7729
H10 H 0.8371 0.1399 0.8008
H11 H 0.6983 0.0805 0.7890
H12 H 1.102(5) 0.029(8) 0.581(3)
H13 H 1.035(3) 0.269(5) 0.438(3)
Br2 Br 0.41364(8) 0.02394(8) 0.89381(4)
O6 O 0.4179(3) 0.7484(4) 0.6914(2)
O7 O 0.5067(3) 0.7677(4) 0.5399(2)
O8 O 0.6547(2) 0.5247(4) 0.49476(17)
O9 O 0.8219(3) 0.6801(4) 0.6287(2)
O10 O 0.7055(2) 0.6293(4) 0.73381(17)
C13 C 0.4415(3) 0.4863(6) 0.8121(2)
H14 H 0.4477 0.5852 0.8402
C14 C 0.4357(4) 0.3526(6) 0.8646(2)
H15 H 0.4402 0.3603 0.9283
C15 C 0.4234(4) 0.2083(6) 0.8216(3)
C16 C 0.4166(3) 0.1903(5) 0.7275(3)
H16 H 0.4069 0.0912 0.6997
C17 C 0.4246(3) 0.3269(5) 0.6758(2)
H17 H 0.4209 0.3182 0.6122
C18 C 0.4380(3) 0.4742(4) 0.7167(2)
C19 C 0.4488(3) 0.6221(5) 0.6653(2)
C20 C 0.4985(3) 0.6170(5) 0.5747(2)
H18 H 0.4381 0.5573 0.5289
C21 C 0.6277(3) 0.5372(4) 0.5837(2)
H19 H 0.6224 0.4303 0.6083
C22 C 0.7291(3) 0.6260(5) 0.6492(2)
C23 C 0.8014(5) 0.6926(8) 0.8071(3)
H20 H 0.8214 0.8004 0.7927
H21 H 0.8772 0.6295 0.8143
C24 C 0.7524(6) 0.6888(10) 0.8926(3)
H22 H 0.6869 0.7660 0.8889
H23 H 0.8189 0.7123 0.9446
H24 H 0.7193 0.5856 0.9003
H25 H 0.461(4) 0.823(6) 0.560(3)
H26 H 0.720(3) 0.571(5) 0.487(3)
loop_
_geom_bond_atom_site_label_1
_geom_bond_atom_site_label_2
_geom_bond_site_symmetry_1
_geom_bond_site_symmetry_2
Br1 C3 1_555 1_555
O1 C7 1_555 1_555
O2 C8 1_555 1_555
O3 C9 1_555 1_555
O4 C10 1_555 1_555
O5 C10 1_555 1_555
C1 H1 1_555 1_555
C2 C1 1_555 1_555
H2 C2 1_555 1_555
C3 C2 1_555 1_555
C4 C3 1_555 1_555
H3 C4 1_555 1_555
C5 C4 1_555 1_555
H4 C5 1_555 1_555
C6 C1 1_555 1_555
C7 C6 1_555 1_555
C8 C7 1_555 1_555
H5 C8 1_555 1_555
C9 C8 1_555 1_555
H6 C9 1_555 1_555
C10 C9 1_555 1_555
C11 O5 1_555 1_555
H7 C11 1_555 1_555
H8 C11 1_555 1_555
C12 C11 1_555 1_555
H9 C12 1_555 1_555
H10 C12 1_555 1_555
H11 C12 1_555 1_555
H12 O2 1_555 1_555
H13 O3 1_555 1_555
Br2 C15 1_555 1_555
O6 C19 1_555 1_555
O7 C20 1_555 1_555
O8 C21 1_555 1_555
O9 C22 1_555 1_555
O10 C22 1_555 1_555
C13 H14 1_555 1_555
C14 C13 1_555 1_555
H15 C14 1_555 1_555
C15 C14 1_555 1_555
C16 C15 1_555 1_555
H16 C16 1_555 1_555
C17 C16 1_555 1_555
H17 C17 1_555 1_555
C18 C13 1_555 1_555
C19 C18 1_555 1_555
C20 C19 1_555 1_555
H18 C20 1_555 1_555
C21 C20 1_555 1_555
H19 C21 1_555 1_555
C22 C21 1_555 1_555
C23 O10 1_555 1_555
H20 C23 1_555 1_555
H21 C23 1_555 1_555
C24 C23 1_555 1_555
H22 C24 1_555 1_555
H23 C24 1_555 1_555
H24 C24 1_555 1_555
H25 O7 1_555 1_555
H26 O8 1_555 1_555
C5 C6 1_555 1_555
C17 C18 1_555 1_555

#END
