
#######################################################################
#
#                 Cambridge Crystallographic Data Centre
#                                CCDC 
#
#######################################################################
#
# If this CIF has been generated from an entry in the Cambridge 
# Structural Database, then it will include bibliographic, chemical, 
# crystal, experimental, refinement or atomic coordinate data resulting 
# from the CCDC's data processing and validation procedures.
#
#######################################################################

data_RESPAJ
_chemical_formula_moiety         'C21 H25 N1'
_chemical_name_systematic        
4-((E)-(2,4-di-t-butyl-2,4-cyclopentadien-1-ylidene)methyl)benzonitrile
_symmetry_cell_setting           monoclinic
_symmetry_space_group_name_H-M   'P 21/c'
_symmetry_Int_Tables_number      14
_space_group_name_Hall           '-P 2ybc'
loop_
_symmetry_equiv_pos_site_id
_symmetry_equiv_pos_as_xyz
1 x,y,z
2 -x,1/2+y,1/2-z
3 -x,-y,-z
4 x,1/2-y,1/2+z
_cell_length_a                   8.94890(10)
_cell_length_b                   15.90340(10)
_cell_length_c                   12.47980(10)
_cell_angle_alpha                90
_cell_angle_beta                 100.3580(10)
_cell_angle_gamma                90
_cell_volume                     1747.16
_exptl_crystal_colour            red
_exptl_crystal_description       block
_cell_formula_units_Z            4
_exptl_crystal_recrystallization_method 'ethyl acetate/pentane'
loop_
_atom_site_label
_atom_site_type_symbol
_atom_site_fract_x
_atom_site_fract_y
_atom_site_fract_z
N1 N 0.79545(14) 0.74844(7) 0.08960(9)
C1 C 0.77707(11) 0.50714(6) 0.38987(8)
C2 C 0.67957(12) 0.57647(6) 0.38394(8)
H1 H 0.610926 0.580266 0.431530
C3 C 0.68418(12) 0.63948(6) 0.30800(8)
H2 H 0.618903 0.685285 0.304672
C4 C 0.78730(12) 0.63401(6) 0.23632(8)
C5 C 0.88597(12) 0.56553(7) 0.24158(8)
H3 H 0.955572 0.562245 0.194645
C6 C 0.87945(12) 0.50276(6) 0.31694(8)
H4 H 0.944044 0.456712 0.319482
C7 C 0.77243(12) 0.43567(6) 0.46364(8)
H5 H 0.790199 0.383111 0.435759
C8 C 0.74570(11) 0.43636(6) 0.56673(8)
C9 C 0.72511(11) 0.51049(6) 0.63276(8)
H6 H 0.723804 0.566064 0.609431
C10 C 0.70837(11) 0.48455(6) 0.73304(8)
C11 C 0.71645(11) 0.39178(6) 0.73507(8)
H7 H 0.706646 0.358678 0.794853
C12 C 0.74004(11) 0.36148(6) 0.63820(8)
C13 C 0.68657(12) 0.53717(6) 0.83003(8)
C14 C 0.53127(13) 0.51710(7) 0.85971(9)
H8 H 0.452450 0.530355 0.799140
H9 H 0.517625 0.549980 0.921738
H10 H 0.526603 0.458413 0.876809
C15 C 0.69360(14) 0.63098(7) 0.80488(9)
H11 H 0.790371 0.644011 0.786025
H12 H 0.680626 0.662938 0.867819
H13 H 0.614201 0.644917 0.744989
C16 C 0.81132(14) 0.51668(8) 0.92778(9)
H14 H 0.810882 0.457434 0.942483
H15 H 0.792836 0.547207 0.990459
H16 H 0.908347 0.532555 0.911586
C17 C 0.75254(12) 0.26943(6) 0.60716(8)
C18 C 0.62037(13) 0.24595(7) 0.51464(9)
H17 H 0.525436 0.256941 0.537562
H18 H 0.626675 0.187349 0.497558
H19 H 0.626774 0.278967 0.451220
C19 C 0.90537(13) 0.25023(7) 0.57230(10)
H20 H 0.913530 0.282316 0.508449
H21 H 0.910945 0.191354 0.556487
H22 H 0.987012 0.265033 0.630208
C20 C 0.74185(14) 0.21336(7) 0.70559(9)
H23 H 0.823855 0.226438 0.764050
H24 H 0.748264 0.155388 0.685464
H25 H 0.646739 0.223191 0.728815
C21 C 0.79117(13) 0.69801(7) 0.15488(9)
loop_
_geom_bond_atom_site_label_1
_geom_bond_atom_site_label_2
_geom_bond_site_symmetry_1
_geom_bond_site_symmetry_2
N1 C21 1_555 1_555
C1 C2 1_555 1_555
C2 H1 1_555 1_555
C3 C2 1_555 1_555
H2 C3 1_555 1_555
C4 C3 1_555 1_555
C5 C4 1_555 1_555
H3 C5 1_555 1_555
C6 C1 1_555 1_555
H4 C6 1_555 1_555
C7 C1 1_555 1_555
H5 C7 1_555 1_555
C8 C7 1_555 1_555
C9 C8 1_555 1_555
H6 C9 1_555 1_555
C10 C9 1_555 1_555
C11 C10 1_555 1_555
H7 C11 1_555 1_555
C12 C8 1_555 1_555
C13 C10 1_555 1_555
C14 C13 1_555 1_555
H8 C14 1_555 1_555
H9 C14 1_555 1_555
H10 C14 1_555 1_555
C15 C13 1_555 1_555
H11 C15 1_555 1_555
H12 C15 1_555 1_555
H13 C15 1_555 1_555
C16 C13 1_555 1_555
H14 C16 1_555 1_555
H15 C16 1_555 1_555
H16 C16 1_555 1_555
C17 C12 1_555 1_555
C18 C17 1_555 1_555
H17 C18 1_555 1_555
H18 C18 1_555 1_555
H19 C18 1_555 1_555
C19 C17 1_555 1_555
H20 C19 1_555 1_555
H21 C19 1_555 1_555
H22 C19 1_555 1_555
C20 C17 1_555 1_555
H23 C20 1_555 1_555
H24 C20 1_555 1_555
H25 C20 1_555 1_555
C21 C4 1_555 1_555
C5 C6 1_555 1_555
C11 C12 1_555 1_555

#END
