
#######################################################################
#
#                 Cambridge Crystallographic Data Centre
#                                CCDC 
#
#######################################################################
#
# If this CIF has been generated from an entry in the Cambridge 
# Structural Database, then it will include bibliographic, chemical, 
# crystal, experimental, refinement or atomic coordinate data resulting 
# from the CCDC's data processing and validation procedures.
#
#######################################################################

data_RESPEN
_chemical_formula_moiety         'C39 H30 O1'
_chemical_name_systematic        
7-((1-methoxy-2,3,4,5-tetraphenylcyclopenta-2,4-dien-1-yl)ethynyl)cyclohepta-1,3,5-triene
_symmetry_cell_setting           monoclinic
_symmetry_space_group_name_H-M   'P 21'
_symmetry_Int_Tables_number      4
_space_group_name_Hall           'P 2yb'
loop_
_symmetry_equiv_pos_site_id
_symmetry_equiv_pos_as_xyz
1 x,y,z
2 -x,1/2+y,-z
_cell_length_a                   10.7816(5)
_cell_length_b                   9.5535(5)
_cell_length_c                   14.5739(7)
_cell_angle_alpha                90
_cell_angle_beta                 109.8760(10)
_cell_angle_gamma                90
_cell_volume                     1411.72
_exptl_crystal_colour            'light yellow'
_exptl_crystal_description       plate
_chemical_melting_point          '107-111 deg.C'
_cell_formula_units_Z            2
loop_
_atom_site_label
_atom_site_type_symbol
_atom_site_fract_x
_atom_site_fract_y
_atom_site_fract_z
O1 O 0.95061(13) 0.27768(15) 0.25703(10)
C1 C 1.00844(18) 0.4084(2) 0.45716(14)
C2 C 0.87442(18) 0.3931(2) 0.26946(14)
C3 C 0.88147(19) 0.4122(2) 0.37591(14)
C4 C 0.9427(2) 0.6189(2) 0.19142(15)
C5 C 1.2424(2) 0.4595(2) 0.52351(16)
H1 H 1.3188 0.5001 0.5161
C6 C 1.0194(2) 0.3406(2) 0.54484(15)
H2 H 0.9436 0.2989 0.5526
C7 C 1.1221(2) 0.4663(2) 0.44734(16)
H3 H 1.1173 0.5108 0.3880
C8 C 0.51695(18) 0.4046(2) 0.25735(14)
C9 C 0.75794(19) 0.4182(2) 0.37851(14)
C10 C 0.72456(18) 0.3831(2) 0.21371(14)
C11 C 0.66072(18) 0.4014(2) 0.27803(14)
C12 C 0.6309(2) 0.3450(2) 0.48512(15)
H4 H 0.6059 0.2619 0.4475
C13 C 0.67011(19) 0.3770(2) 0.10608(14)
C14 C 1.0707(2) 0.8398(2) 0.20323(15)
H5 H 1.1045 0.8271 0.2720
C15 C 0.91891(19) 0.5177(2) 0.22995(15)
C16 C 0.9136(2) 0.1476(2) 0.28950(16)
H6 H 0.9276 0.1533 0.3595
H7 H 0.9676 0.0718 0.2777
H8 H 0.8203 0.1287 0.2536
C17 C 0.7520(2) 0.5609(2) 0.52056(15)
H9 H 0.8120 0.6250 0.5084
C18 C 0.4587(2) 0.5146(2) 0.29100(16)
H10 H 0.5113 0.5913 0.3239
C19 C 1.0651(2) 0.9811(2) 0.05993(17)
H11 H 1.1255 1.0124 0.0296
C20 C 0.2476(2) 0.4024(3) 0.22962(16)
H12 H 0.1565 0.3999 0.2220
C21 C 0.8379(2) 0.8311(2) 0.10094(16)
H13 H 0.7658 0.8137 0.1228
C22 C 1.2507(2) 0.3938(3) 0.61001(15)
H14 H 1.3327 0.3900 0.6621
C23 C 0.8290(2) 0.9308(2) 0.03506(16)
H15 H 0.7457 0.9746 0.0059
C24 C 0.9631(2) 0.7455(2) 0.14101(15)
H16 H 0.9887 0.7147 0.0844
C25 C 0.4375(2) 0.2947(2) 0.20718(15)
H17 H 0.4750 0.2199 0.1825
C26 C 1.1397(2) 0.3336(2) 0.62059(15)
H18 H 1.1456 0.2874 0.6797
C27 C 0.5663(2) 0.4653(3) 0.05410(16)
H19 H 0.5304 0.5288 0.0886
C28 C 0.9365(2) 0.9771(2) 0.00461(17)
H20 H 0.9143 1.0079 -0.0610
C29 C 0.7223(2) 0.2867(2) 0.05300(16)
H21 H 0.7941 0.2274 0.0865
C30 C 0.3247(2) 0.5130(3) 0.27679(17)
H22 H 0.2860 0.5887 0.2997
C31 C 0.71571(19) 0.4406(2) 0.46401(14)
C32 C 0.3032(2) 0.2946(3) 0.19336(17)
H23 H 0.2493 0.2199 0.1587
C33 C 0.6162(2) 0.4934(3) 0.61419(16)
H24 H 0.5808 0.5126 0.6643
C34 C 0.5153(2) 0.4613(3) -0.04697(17)
H25 H 0.4449 0.5219 -0.0812
C35 C 1.1191(2) 0.9417(2) 0.16188(16)
H26 H 1.1941 0.9915 0.2022
C36 C 0.5828(2) 0.3708(3) 0.56085(15)
H27 H 0.5270 0.3043 0.5759
C37 C 0.6702(2) 0.2827(3) -0.04823(16)
H28 H 0.7060 0.2200 -0.0832
C38 C 0.7015(2) 0.5883(3) 0.59469(16)
H29 H 0.7253 0.6719 0.6319
C39 C 0.5668(2) 0.3691(3) -0.09829(16)
H30 H 0.5310 0.3655 -0.1675
loop_
_geom_bond_atom_site_label_1
_geom_bond_atom_site_label_2
_geom_bond_site_symmetry_1
_geom_bond_site_symmetry_2
O1 C2 1_555 1_555
C1 C3 1_555 1_555
C2 C3 1_555 1_555
C3 C9 1_555 1_555
C4 C15 1_555 1_555
C5 H1 1_555 1_555
C6 C1 1_555 1_555
H2 C6 1_555 1_555
C7 C1 1_555 1_555
H3 C7 1_555 1_555
C8 C11 1_555 1_555
C9 C11 1_555 1_555
C10 C2 1_555 1_555
C11 C10 1_555 1_555
C12 H4 1_555 1_555
C13 C10 1_555 1_555
C14 H5 1_555 1_555
C15 C2 1_555 1_555
C16 O1 1_555 1_555
H6 C16 1_555 1_555
H7 C16 1_555 1_555
H8 C16 1_555 1_555
C17 H9 1_555 1_555
C18 C8 1_555 1_555
H10 C18 1_555 1_555
C19 H11 1_555 1_555
C20 H12 1_555 1_555
C21 H13 1_555 1_555
C22 C5 1_555 1_555
H14 C22 1_555 1_555
C23 C21 1_555 1_555
H15 C23 1_555 1_555
C24 C4 1_555 1_555
H16 C24 1_555 1_555
C25 C8 1_555 1_555
H17 C25 1_555 1_555
C26 C6 1_555 1_555
H18 C26 1_555 1_555
C27 C13 1_555 1_555
H19 C27 1_555 1_555
C28 C19 1_555 1_555
H20 C28 1_555 1_555
C29 C13 1_555 1_555
H21 C29 1_555 1_555
C30 C18 1_555 1_555
H22 C30 1_555 1_555
C31 C9 1_555 1_555
C32 C20 1_555 1_555
H23 C32 1_555 1_555
C33 H24 1_555 1_555
C34 C27 1_555 1_555
H25 C34 1_555 1_555
C35 C14 1_555 1_555
H26 C35 1_555 1_555
C36 C12 1_555 1_555
H27 C36 1_555 1_555
C37 C29 1_555 1_555
H28 C37 1_555 1_555
C38 C17 1_555 1_555
H29 C38 1_555 1_555
C39 C34 1_555 1_555
H30 C39 1_555 1_555
C5 C7 1_555 1_555
C12 C31 1_555 1_555
C14 C24 1_555 1_555
C17 C31 1_555 1_555
C19 C35 1_555 1_555
C20 C30 1_555 1_555
C21 C24 1_555 1_555
C22 C26 1_555 1_555
C23 C28 1_555 1_555
C25 C32 1_555 1_555
C33 C36 1_555 1_555
C33 C38 1_555 1_555
C37 C39 1_555 1_555

#END
