
#######################################################################
#
#                 Cambridge Crystallographic Data Centre
#                                CCDC 
#
#######################################################################
#
# If this CIF has been generated from an entry in the Cambridge 
# Structural Database, then it will include bibliographic, chemical, 
# crystal, experimental, refinement or atomic coordinate data resulting 
# from the CCDC's data processing and validation procedures.
#
#######################################################################

data_RESQIR
_chemical_formula_moiety         'C76 H14 O3,C7 H8'
_chemical_name_systematic        
'(1,4-Diphenylbut-2-ene-1,4-diyl)-dioxo-oxa-open-cage-C60fullerene toluene solvate'
_symmetry_cell_setting           monoclinic
_symmetry_space_group_name_H-M   'P 21/n'
_symmetry_Int_Tables_number      14
_space_group_name_Hall           '-P 2yn'
loop_
_symmetry_equiv_pos_site_id
_symmetry_equiv_pos_as_xyz
1 x,y,z
2 1/2-x,1/2+y,1/2-z
3 -x,-y,-z
4 1/2+x,1/2-y,1/2+z
_cell_length_a                   16.947(4)
_cell_length_b                   15.195(3)
_cell_length_c                   18.824(4)
_cell_angle_alpha                90
_cell_angle_beta                 114.551(4)
_cell_angle_gamma                90
_cell_volume                     4409.12
_exptl_crystal_colour            black
_exptl_crystal_description       plate
_cell_formula_units_Z            4
loop_
_atom_site_label
_atom_site_type_symbol
_atom_site_fract_x
_atom_site_fract_y
_atom_site_fract_z
O1 O 0.4725(2) 0.4778(2) 0.9133(2)
O2 O 0.6024(3) 0.4159(3) 0.9530(2)
O3 O 0.4703(3) 0.3404(2) 0.8241(2)
C1 C 0.5101(3) 0.4056(3) 0.7222(3)
C2 C 0.5946(3) 0.4710(3) 0.7556(3)
C3 C 0.6811(3) 0.4133(3) 0.7830(3)
H1 H 0.6803 0.3729 0.8246
C4 C 0.6758(3) 0.3563(3) 0.7174(3)
H2 H 0.7212 0.3556 0.7003
C5 C 0.6056(3) 0.3059(3) 0.6828(3)
H3 H 0.5981 0.2704 0.6389
C6 C 0.5391(3) 0.3075(3) 0.7158(3)
H4 H 0.5692 0.2856 0.7707
C7 C 0.7644(3) 0.4655(3) 0.8195(3)
C8 C 0.8058(3) 0.4763(3) 0.9004(3)
H5 H 0.7801 0.4525 0.9325
C9 C 0.8836(4) 0.5211(3) 0.9343(3)
H6 H 0.9122 0.5264 0.9895
C10 C 0.9197(4) 0.5580(3) 0.8877(4)
H7 H 0.9729 0.5894 0.9109
C11 C 0.8787(3) 0.5495(3) 0.8076(4)
H8 H 0.9034 0.5754 0.7757
C12 C 0.8020(3) 0.5034(3) 0.7737(3)
H9 H 0.7744 0.4975 0.7185
C13 C 0.4665(3) 0.2438(3) 0.6747(3)
C14 C 0.4487(3) 0.1767(3) 0.7171(3)
H10 H 0.4787 0.1755 0.7724
C15 C 0.3883(3) 0.1126(3) 0.6797(3)
H11 H 0.3780 0.0671 0.7094
C16 C 0.3423(4) 0.1138(3) 0.5991(3)
H12 H 0.3003 0.0697 0.5734
C17 C 0.3586(4) 0.1799(3) 0.5567(3)
H13 H 0.3269 0.1815 0.5016
C18 C 0.4196(3) 0.2431(3) 0.5928(3)
H14 H 0.4305 0.2872 0.5623
C19 C 0.6037(3) 0.5415(3) 0.8195(3)
C20 C 0.5763(3) 0.5473(3) 0.8775(3)
C21 C 0.5528(4) 0.4728(4) 0.9163(3)
C22 C 0.4246(4) 0.5541(3) 0.8850(3)
C23 C 0.4710(4) 0.6352(3) 0.9036(3)
C24 C 0.5527(4) 0.6343(3) 0.8994(3)
C25 C 0.3429(4) 0.5482(4) 0.8252(3)
C26 C 0.3143(4) 0.4911(3) 0.7530(4)
C27 C 0.3677(4) 0.4380(3) 0.7287(4)
C28 C 0.3568(3) 0.4397(3) 0.6494(3)
C29 C 0.4374(4) 0.4337(3) 0.6438(3)
C30 C 0.4518(3) 0.3941(3) 0.7689(3)
C31 C 0.3330(4) 0.8749(3) 0.6647(3)
C32 C 0.5892(3) 0.5355(3) 0.6864(3)
C33 C 0.5307(3) 0.5297(3) 0.6101(3)
C34 C 0.4515(4) 0.4781(3) 0.5893(3)
C35 C 0.3782(4) 0.5270(3) 0.5289(3)
C36 C 0.2981(4) 0.5288(3) 0.5281(3)
C37 C 0.2859(3) 0.4833(3) 0.5904(4)
C38 C 0.2292(3) 0.5332(3) 0.6096(4)
C39 C 0.2447(4) 0.5384(4) 0.6918(4)
C40 C 0.2303(3) 0.6222(4) 0.7212(4)
C41 C 0.2939(4) 0.6291(3) 0.8026(3)
C42 C 0.3302(4) 0.7093(3) 0.8329(3)
C43 C 0.4212(4) 0.7132(3) 0.8805(3)
C44 C 0.4556(4) 0.7908(3) 0.8619(3)
C45 C 0.5349(4) 0.7891(3) 0.8620(3)
C46 C 0.5818(3) 0.7085(4) 0.8785(3)
C47 C 0.6278(3) 0.7040(3) 0.8285(3)
C48 C 0.6328(3) 0.6234(3) 0.7970(3)
C49 C 0.6248(3) 0.6168(4) 0.7182(3)
C50 C 0.6080(3) 0.6936(4) 0.6714(3)
C51 C 0.5469(4) 0.6873(3) 0.5918(3)
C52 C 0.5067(4) 0.6082(3) 0.5610(3)
C53 C 0.4157(4) 0.6052(4) 0.5126(3)
C54 C 0.3659(4) 0.6843(4) 0.4946(3)
C55 C 0.2817(4) 0.6840(4) 0.4947(3)
C56 C 0.2499(3) 0.6092(4) 0.5110(3)
C57 C 0.2038(3) 0.6116(4) 0.5638(4)
C58 C 0.1921(3) 0.6910(3) 0.5923(3)
C59 C 0.2060(3) 0.6968(4) 0.6740(4)
C60 C 0.2452(4) 0.7794(4) 0.7064(4)
C61 C 0.3057(3) 0.7865(3) 0.7830(3)
C62 C 0.3825(4) 0.8385(3) 0.8002(4)
C63 C 0.3974(4) 0.8808(3) 0.7441(3)
C64 C 0.4819(3) 0.8806(3) 0.7426(3)
C65 C 0.5504(4) 0.8355(3) 0.7996(4)
C66 C 0.6084(3) 0.7824(3) 0.7827(3)
C67 C 0.5984(4) 0.7769(4) 0.7033(3)
C68 C 0.5296(4) 0.8233(3) 0.6435(4)
C69 C 0.4954(4) 0.7692(4) 0.5727(3)
C70 C 0.4076(4) 0.7657(3) 0.5259(3)
C71 C 0.3484(4) 0.8178(3) 0.5456(3)
C72 C 0.2710(4) 0.7696(4) 0.5288(3)
C73 C 0.2278(4) 0.7725(4) 0.5748(3)
C74 C 0.2590(3) 0.8258(3) 0.6422(4)
C75 C 0.3828(4) 0.8712(3) 0.6144(4)
C76 C 0.4724(4) 0.8749(3) 0.6632(4)
C77 C 0.1557(3) 0.3639(3) 0.4066(3)
C78 C 0.1173(4) 0.3011(3) 0.4353(3)
H15 H 0.1402 0.2430 0.4450
C79 C 0.0469(4) 0.3218(4) 0.4498(3)
H16 H 0.0200 0.2776 0.4679
C80 C 0.0153(4) 0.4052(4) 0.4386(3)
H17 H -0.0320 0.4196 0.4511
C81 C 0.0503(4) 0.4679(4) 0.4097(3)
H18 H 0.0271 0.5258 0.4011
C82 C 0.1204(3) 0.4477(3) 0.3924(3)
H19 H 0.1441 0.4915 0.3708
C83 C 0.2316(4) 0.3416(4) 0.3893(4)
H20 H 0.2116 0.3292 0.3334
H21 H 0.2611 0.2897 0.4195
H22 H 0.2720 0.3914 0.4035
loop_
_geom_bond_atom_site_label_1
_geom_bond_atom_site_label_2
_geom_bond_site_symmetry_1
_geom_bond_site_symmetry_2
O1 C21 1_555 1_555
O2 C21 1_555 1_555
O3 C30 1_555 1_555
C1 C2 1_555 1_555
C2 C3 1_555 1_555
C3 H1 1_555 1_555
C4 C3 1_555 1_555
H2 C4 1_555 1_555
C5 C4 1_555 1_555
H3 C5 1_555 1_555
C6 C1 1_555 1_555
H4 C6 1_555 1_555
C7 C3 1_555 1_555
C8 C7 1_555 1_555
H5 C8 1_555 1_555
C9 C8 1_555 1_555
H6 C9 1_555 1_555
C10 C9 1_555 1_555
H7 C10 1_555 1_555
C11 C10 1_555 1_555
H8 C11 1_555 1_555
C12 C7 1_555 1_555
H9 C12 1_555 1_555
C13 C6 1_555 1_555
C14 C13 1_555 1_555
H10 C14 1_555 1_555
C15 C14 1_555 1_555
H11 C15 1_555 1_555
C16 C15 1_555 1_555
H12 C16 1_555 1_555
C17 C16 1_555 1_555
H13 C17 1_555 1_555
C18 C13 1_555 1_555
H14 C18 1_555 1_555
C19 C2 1_555 1_555
C20 C19 1_555 1_555
C21 C20 1_555 1_555
C22 O1 1_555 1_555
C23 C22 1_555 1_555
C24 C20 1_555 1_555
C25 C22 1_555 1_555
C26 C25 1_555 1_555
C27 C26 1_555 1_555
C28 C27 1_555 1_555
C29 C1 1_555 1_555
C30 C1 1_555 1_555
C31 C63 1_555 1_555
C32 C2 1_555 1_555
C33 C32 1_555 1_555
C34 C29 1_555 1_555
C35 C34 1_555 1_555
C36 C35 1_555 1_555
C37 C28 1_555 1_555
C38 C37 1_555 1_555
C39 C26 1_555 1_555
C40 C39 1_555 1_555
C41 C25 1_555 1_555
C42 C41 1_555 1_555
C43 C23 1_555 1_555
C44 C43 1_555 1_555
C45 C44 1_555 1_555
C46 C24 1_555 1_555
C47 C46 1_555 1_555
C48 C19 1_555 1_555
C49 C32 1_555 1_555
C50 C49 1_555 1_555
C51 C50 1_555 1_555
C52 C33 1_555 1_555
C53 C35 1_555 1_555
C54 C53 1_555 1_555
C55 C54 1_555 1_555
C56 C36 1_555 1_555
C57 C38 1_555 1_555
C58 C57 1_555 1_555
C59 C40 1_555 1_555
C60 C59 1_555 1_555
C61 C42 1_555 1_555
C62 C44 1_555 1_555
C63 C62 1_555 1_555
C64 C63 1_555 1_555
C65 C45 1_555 1_555
C66 C47 1_555 1_555
C67 C50 1_555 1_555
C68 C67 1_555 1_555
C69 C51 1_555 1_555
C70 C54 1_555 1_555
C71 C70 1_555 1_555
C72 C55 1_555 1_555
C73 C58 1_555 1_555
C74 C31 1_555 1_555
C75 C31 1_555 1_555
C76 C64 1_555 1_555
C77 C78 1_555 1_555
C78 H15 1_555 1_555
C79 C78 1_555 1_555
H16 C79 1_555 1_555
C80 C79 1_555 1_555
H17 C80 1_555 1_555
C81 C80 1_555 1_555
H18 C81 1_555 1_555
C82 C77 1_555 1_555
H19 C82 1_555 1_555
C83 C77 1_555 1_555
H20 C83 1_555 1_555
H21 C83 1_555 1_555
H22 C83 1_555 1_555
C5 C6 1_555 1_555
C11 C12 1_555 1_555
C17 C18 1_555 1_555
C23 C24 1_555 1_555
C27 C30 1_555 1_555
C28 C29 1_555 1_555
C33 C34 1_555 1_555
C36 C37 1_555 1_555
C38 C39 1_555 1_555
C40 C41 1_555 1_555
C42 C43 1_555 1_555
C45 C46 1_555 1_555
C47 C48 1_555 1_555
C48 C49 1_555 1_555
C51 C52 1_555 1_555
C52 C53 1_555 1_555
C55 C56 1_555 1_555
C56 C57 1_555 1_555
C58 C59 1_555 1_555
C60 C61 1_555 1_555
C60 C74 1_555 1_555
C61 C62 1_555 1_555
C64 C65 1_555 1_555
C65 C66 1_555 1_555
C66 C67 1_555 1_555
C68 C69 1_555 1_555
C68 C76 1_555 1_555
C69 C70 1_555 1_555
C71 C72 1_555 1_555
C71 C75 1_555 1_555
C72 C73 1_555 1_555
C73 C74 1_555 1_555
C75 C76 1_555 1_555
C81 C82 1_555 1_555

#END
