
#######################################################################
#
#                 Cambridge Crystallographic Data Centre
#                                CCDC 
#
#######################################################################
#
# If this CIF has been generated from an entry in the Cambridge 
# Structural Database, then it will include bibliographic, chemical, 
# crystal, experimental, refinement or atomic coordinate data resulting 
# from the CCDC's data processing and validation procedures.
#
#######################################################################

data_RETLOT01
_chemical_formula_moiety         'C26 H24 N6 O4 2+,2(C1 H3 O4 S1 1-)'
_chemical_name_systematic        
"1,1'-((1,3,6,8-Tetraoxo-1,3,6,8-tetrahydrobenzo[lmn][3,8]phenanthroline-2,7-diyl)dipropane-3,1-diyl)bis-1H-imidazol-3-ium bis(methyl sulfate)"
_symmetry_cell_setting           monoclinic
_symmetry_space_group_name_H-M   'P 21/n'
_symmetry_Int_Tables_number      14
_space_group_name_Hall           '-P 2yn'
loop_
_symmetry_equiv_pos_site_id
_symmetry_equiv_pos_as_xyz
1 x,y,z
2 1/2-x,1/2+y,1/2-z
3 -x,-y,-z
4 1/2+x,1/2-y,1/2+z
_cell_length_a                   6.6199(8)
_cell_length_b                   13.8566(18)
_cell_length_c                   16.819(2)
_cell_angle_alpha                90
_cell_angle_beta                 91.667(3)
_cell_angle_gamma                90
_cell_volume                     1542.14
_exptl_crystal_colour            brown
_exptl_crystal_description       block
_cell_formula_units_Z            2
loop_
_atom_site_label
_atom_site_type_symbol
_atom_site_fract_x
_atom_site_fract_y
_atom_site_fract_z
N1 N -0.0112(3) 0.85781(14) 0.78674(12)
C1 C 0.3164(4) 0.50648(16) 0.91393(14)
N2 N 0.4368(3) 0.62780(15) 0.81931(12)
O1 O 0.7145(3) 0.71708(15) 0.85109(13)
C2 C 0.6323(4) 0.59529(17) 0.94321(14)
C3 C 0.4870(3) 0.52582(16) 0.96401(13)
C4 C -0.1252(4) 0.98155(16) 0.84839(15)
H1 H -0.1426 1.0285 0.8871
C5 C 0.1742(4) 0.44003(17) 0.93669(15)
H2 H 0.0604 0.4290 0.9042
C6 C 0.2922(4) 0.55827(17) 0.83683(15)
C7 C 0.6015(4) 0.65224(18) 0.86917(15)
C8 C 0.3122(4) 0.77870(19) 0.75231(16)
H3 H 0.3808 0.8153 0.7942
H4 H 0.3210 0.8149 0.7032
C9 C 0.8007(4) 0.61110(18) 0.99173(16)
H5 H 0.8977 0.6557 0.9770
C10 C 0.4159(4) 0.6808(2) 0.74315(15)
H6 H 0.3381 0.6420 0.7053
H7 H 0.5489 0.6907 0.7219
C11 C 0.0926(4) 0.76533(18) 0.77231(16)
H8 H 0.0234 0.7319 0.7288
H9 H 0.0847 0.7252 0.8194
N3 N -0.2303(4) 0.97608(19) 0.77763(16)
H10 H -0.3242 1.0147 0.7611
O2 O 0.1538(3) 0.54040(14) 0.78976(12)
C12 C -0.1591(4) 0.89830(19) 0.73807(16)
H11 H -0.2018 0.8767 0.6880
C13 C 0.0062(4) 0.90912(18) 0.85321(15)
H12 H 0.0951 0.8966 0.8958
N1B N 1.0112(3) 0.14219(14) 1.21326(12)
C1B C 0.6836(4) 0.49352(16) 1.08607(14)
N2B N 0.5632(3) 0.37220(15) 1.18069(12)
O1B O 0.2855(3) 0.28292(15) 1.14891(13)
C2B C 0.3677(4) 0.40471(17) 1.05679(14)
C3B C 0.5130(3) 0.47418(16) 1.03599(13)
C4B C 1.1252(4) 0.01845(16) 1.15161(15)
H1B H 1.1426 -0.0285 1.1129
C5B C 0.8258(4) 0.55997(17) 1.06331(15)
H2B H 0.9396 0.5710 1.0958
C6B C 0.7078(4) 0.44173(17) 1.16317(15)
C7B C 0.3985(4) 0.34776(18) 1.13083(15)
C8B C 0.6878(4) 0.22130(19) 1.24769(16)
H3B H 0.6192 0.1847 1.2058
H4B H 0.6790 0.1851 1.2968
C9B C 0.1993(4) 0.38890(18) 1.00827(16)
H5B H 0.1023 0.3443 1.0230
C10B C 0.5841(4) 0.3192(2) 1.25685(15)
H6B H 0.6619 0.3580 1.2947
H7B H 0.4511 0.3093 1.2781
C11B C 0.9074(4) 0.23467(18) 1.22769(16)
H8B H 0.9766 0.2681 1.2712
H9B H 0.9153 0.2748 1.1806
N3B N 1.2303(4) 0.02392(19) 1.22237(16)
H10B H 1.3242 -0.0147 1.2389
O2B O 0.8462(3) 0.45960(14) 1.21024(12)
C12B C 1.1591(4) 0.10170(19) 1.26193(16)
H11B H 1.2018 0.1233 1.3120
C13B C 0.9938(4) 0.09088(18) 1.14679(15)
H12B H 0.9049 0.1034 1.1042
S1 S 0.27429(9) 0.79329(4) 1.03589(3)
O3 O 0.2805(3) 0.75193(15) 0.95749(11)
O4 O 0.2016(3) 0.89275(15) 1.03225(12)
O5 O 0.1782(3) 0.73523(17) 1.09400(13)
O6 O 0.5008(3) 0.79919(16) 1.07035(12)
C14 C 0.6408(5) 0.8565(3) 1.0260(2)
H13 H 0.7716 0.8548 1.0522
H14 H 0.5937 0.9220 1.0230
H15 H 0.6502 0.8308 0.9732
loop_
_geom_bond_atom_site_label_1
_geom_bond_atom_site_label_2
_geom_bond_site_symmetry_1
_geom_bond_site_symmetry_2
N1 C11 1_555 1_555
C1 C3 1_555 1_555
N2 C6 1_555 1_555
O1 C7 1_555 1_555
C2 C3 1_555 1_555
C3 C3B 1_555 1_555
C4 H1 1_555 1_555
C5 C1 1_555 1_555
H2 C5 1_555 1_555
C6 C1 1_555 1_555
C7 N2 1_555 1_555
C8 H3 1_555 1_555
H4 C8 1_555 1_555
C9 C2 1_555 1_555
H5 C9 1_555 1_555
C10 N2 1_555 1_555
H6 C10 1_555 1_555
H7 C10 1_555 1_555
C11 C8 1_555 1_555
H8 C11 1_555 1_555
H9 C11 1_555 1_555
N3 C4 1_555 1_555
H10 N3 1_555 1_555
O2 C6 1_555 1_555
C12 N1 1_555 1_555
H11 C12 1_555 1_555
C13 N1 1_555 1_555
H12 C13 1_555 1_555
S1 O3 1_555 1_555
O4 S1 1_555 1_555
O5 S1 1_555 1_555
O6 S1 1_555 1_555
C14 O6 1_555 1_555
H13 C14 1_555 1_555
H14 C14 1_555 1_555
H15 C14 1_555 1_555
N1B C11B 1_555 1_555
C1B C3B 1_555 1_555
N2B C6B 1_555 1_555
O1B C7B 1_555 1_555
C2B C3B 1_555 1_555
C4B H1B 1_555 1_555
C5B C9 1_555 1_555
H2B C5B 1_555 1_555
C6B C1B 1_555 1_555
C7B N2B 1_555 1_555
C8B H3B 1_555 1_555
H4B C8B 1_555 1_555
C9B C5 1_555 1_555
H5B C9B 1_555 1_555
C10B N2B 1_555 1_555
H6B C10B 1_555 1_555
H7B C10B 1_555 1_555
C11B C8B 1_555 1_555
H8B C11B 1_555 1_555
H9B C11B 1_555 1_555
N3B C4B 1_555 1_555
H10B N3B 1_555 1_555
O2B C6B 1_555 1_555
C12B N1B 1_555 1_555
H11B C12B 1_555 1_555
C13B N1B 1_555 1_555
H12B C13B 1_555 1_555
C2 C7 1_555 1_555
C4 C13 1_555 1_555
C8 C10 1_555 1_555
N3 C12 1_555 1_555
C1B C5B 1_555 1_555
C2B C7B 1_555 1_555
C2B C9B 1_555 1_555
C4B C13B 1_555 1_555
C8B C10B 1_555 1_555
N3B C12B 1_555 1_555

#END
