
#######################################################################
#
#                 Cambridge Crystallographic Data Centre
#                                CCDC 
#
#######################################################################
#
# If this CIF has been generated from an entry in the Cambridge 
# Structural Database, then it will include bibliographic, chemical, 
# crystal, experimental, refinement or atomic coordinate data resulting 
# from the CCDC's data processing and validation procedures.
#
#######################################################################

data_RETQEM
_chemical_formula_moiety         'C36 H48 N18 6+,6(N1 O3 1-),16(H2 O1)'
_chemical_name_systematic        
'5,12,19,26,33,40-Hexa-amino-3,10,17,24,31,38-hexamethyl(1.~6~)(1,5)pyrimidiniophane hexanitrate hexadecahydrate'
_symmetry_cell_setting           rhombohedral
_symmetry_space_group_name_H-M   'R -3'
_symmetry_Int_Tables_number      148
_space_group_name_Hall           '-P 3*'
loop_
_symmetry_equiv_pos_site_id
_symmetry_equiv_pos_as_xyz
1 x,y,z
2 z,x,y
3 y,z,x
4 -x,-y,-z
5 -z,-x,-y
6 -y,-z,-x
_cell_length_a                   14.131(11)
_cell_length_b                   14.131(11)
_cell_length_c                   14.131(11)
_cell_angle_alpha                115.26(5)
_cell_angle_beta                 115.26(5)
_cell_angle_gamma                115.26(5)
_cell_volume                     1541.16
_exptl_crystal_colour            colorless
_chemical_melting_point          203deg.C
_cell_formula_units_Z            1
loop_
_atom_site_label
_atom_site_type_symbol
_atom_site_fract_x
_atom_site_fract_y
_atom_site_fract_z
N1 N 0.3353(3) 0.6747(3) 0.5801(3)
C1 C 0.2051(4) 0.6397(3) 0.5030(3)
N2 N 0.0685(3) 0.5082(3) 0.4213(3)
C2 C 0.0552(3) 0.4035(3) 0.4150(3)
C3 C 0.1900(3) 0.4413(3) 0.5065(3)
C4 C 0.3260(3) 0.5765(3) 0.5846(3)
H1 H 0.4162(3) 0.6039(3) 0.6433(3)
C5 C 0.2198(4) 0.7566(4) 0.5162(4)
H2 H 0.2644(22) 0.7838(18) 0.4846(23)
H3 H 0.2865(19) 0.8489(10) 0.6228(6)
H4 H 0.1181(5) 0.7125(9) 0.4495(18)
N3 N -0.0872(3) 0.2687(3) 0.3216(3)
H5 H -0.1657(3) 0.2505(3) 0.2687(3)
H6 H -0.1017(3) 0.1990(3) 0.3136(3)
C6 C 0.4875(3) 0.8205(3) 0.6671(3)
H7 H 0.5058(3) 0.9072(3) 0.7267(3)
H8 H 0.5705(3) 0.8416(3) 0.7407(3)
C3D C 0.4935(3) 0.8100(3) 0.5587(3)
C2D C 0.5850(3) 0.9448(3) 0.5965(3)
N2D N 0.5787(3) 0.9315(3) 0.4918(3)
C1D C 0.4970(3) 0.7949(4) 0.3603(3)
N1D N 0.4199(3) 0.6647(3) 0.3253(3)
C4D C 0.4154(3) 0.6740(3) 0.4235(3)
H1D H 0.3567(3) 0.5838(3) 0.3961(3)
C6D C 0.3329(3) 0.5125(3) 0.1795(3)
C3B C 0.4413(3) 0.5065(3) 0.1900(3)
C2B C 0.4035(3) 0.4150(3) 0.0552(3)
N2B N 0.5082(3) 0.4213(3) 0.0685(3)
C1B C 0.6397(3) 0.5030(3) 0.2051(4)
N1B N 0.6747(3) 0.5801(3) 0.3353(3)
C4B C 0.5765(3) 0.5846(3) 0.3260(3)
H1B H 0.6039(3) 0.6433(3) 0.4162(3)
C6B C 0.8205(3) 0.6671(3) 0.4875(3)
C3C C 0.8100(3) 0.5587(3) 0.4935(3)
C2C C 0.9448(3) 0.5965(3) 0.5850(3)
N2C N 0.9315(3) 0.4918(3) 0.5787(3)
C1C C 0.7949(4) 0.3603(3) 0.4970(3)
N1C N 0.6647(3) 0.3253(3) 0.4199(3)
C4C C 0.6740(3) 0.4235(3) 0.4154(3)
H1C H 0.5838(3) 0.3961(3) 0.3567(3)
C6C C 0.5125(3) 0.1795(3) 0.3329(3)
C3A C 0.5065(3) 0.1900(3) 0.4413(3)
C2A C 0.4150(3) 0.0552(3) 0.4035(3)
N2A N 0.4213(3) 0.0685(3) 0.5082(3)
C1A C 0.5030(3) 0.2051(4) 0.6397(3)
N1A N 0.5801(3) 0.3353(3) 0.6747(3)
C4A C 0.5846(3) 0.3260(3) 0.5765(3)
H1A H 0.6433(3) 0.4162(3) 0.6039(3)
C6A C 0.6671(3) 0.4875(3) 0.8205(3)
C3E C 0.5587(3) 0.4935(3) 0.8100(3)
C2E C 0.5965(3) 0.5850(3) 0.9448(3)
N2E N 0.4918(3) 0.5787(3) 0.9315(3)
C1E C 0.3603(3) 0.4970(3) 0.7949(4)
N1E N 0.3253(3) 0.4199(3) 0.6647(3)
C4E C 0.4235(3) 0.4154(3) 0.6740(3)
H1E H 0.3961(3) 0.3567(3) 0.5838(3)
C6E C 0.1795(3) 0.3329(3) 0.5125(3)
H7E H 0.0928(3) 0.2733(3) 0.4942(3)
H8E H 0.1584(3) 0.2593(3) 0.4295(3)
C5E C 0.2434(4) 0.4838(4) 0.7802(4)
H2E H 0.2162(18) 0.5154(23) 0.7356(22)
H3E H 0.1511(10) 0.3772(6) 0.7135(19)
H4E H 0.2875(9) 0.5505(18) 0.8819(5)
N3E N 0.7313(3) 0.6784(3) 1.0872(3)
H5E H 0.7495(3) 0.7313(3) 1.1657(3)
H6E H 0.8010(3) 0.6864(3) 1.1017(3)
H7A H 0.7267(3) 0.5058(3) 0.9072(3)
H8A H 0.7407(3) 0.5705(3) 0.8416(3)
C5A C 0.5162(4) 0.2198(4) 0.7566(4)
H2A H 0.4846(23) 0.2644(22) 0.7838(18)
H3A H 0.6228(6) 0.2865(19) 0.8489(10)
H4A H 0.4495(18) 0.1181(5) 0.7125(9)
N3A N 0.3216(3) -0.0872(3) 0.2687(3)
H5A H 0.2687(3) -0.1657(3) 0.2505(3)
H6A H 0.3136(3) -0.1017(3) 0.1990(3)
H7C H 0.4942(3) 0.0928(3) 0.2733(3)
H8C H 0.4295(3) 0.1584(3) 0.2593(3)
C5C C 0.7802(4) 0.2434(4) 0.4838(4)
H2C H 0.7356(22) 0.2162(18) 0.5154(23)
H3C H 0.7135(19) 0.1511(10) 0.3772(6)
H4C H 0.8819(5) 0.2875(9) 0.5505(18)
N3C N 1.0872(3) 0.7313(3) 0.6784(3)
H5C H 1.1657(3) 0.7495(3) 0.7313(3)
H6C H 1.1017(3) 0.8010(3) 0.6864(3)
H7B H 0.9072(3) 0.7267(3) 0.5058(3)
H8B H 0.8416(3) 0.7407(3) 0.5705(3)
C5B C 0.7566(4) 0.5162(4) 0.2198(4)
H2B H 0.7838(18) 0.4846(23) 0.2644(22)
H3B H 0.8489(10) 0.6228(6) 0.2865(19)
H4B H 0.7125(9) 0.4495(18) 0.1181(5)
N3B N 0.2687(3) 0.3216(3) -0.0872(3)
H5B H 0.2505(3) 0.2687(3) -0.1657(3)
H6B H 0.1990(3) 0.3136(3) -0.1017(3)
H7D H 0.2733(3) 0.4942(3) 0.0928(3)
H8D H 0.2593(3) 0.4295(3) 0.1584(3)
C5D C 0.4838(4) 0.7802(4) 0.2434(4)
H2D H 0.5154(23) 0.7356(22) 0.2162(18)
H3D H 0.3772(6) 0.7135(19) 0.1511(10)
H4D H 0.5505(18) 0.8819(5) 0.2875(9)
N3D N 0.6784(3) 1.0872(3) 0.7313(3)
H5D H 0.7313(3) 1.1657(3) 0.7495(3)
H6D H 0.6864(3) 1.1017(3) 0.8010(3)
N4 N -0.4761(4) 0.1506(3) 0.0554(4)
O1 O -0.5680(4) 0.1326(4) 0.0570(4)
O2 O -0.5060(3) 0.1156(4) -0.0584(4)
O3 O -0.3556(3) 0.2056(4) 0.1651(3)
O4 O -0.2478(4) 0.1939(3) 0.0019(3)
H9 H -0.3266(60) 0.1732(57) 0.0062(57)
H10 H -0.1819(55) 0.2878(56) 0.0520(53)
O5 O -0.0806(13) 0.1298(12) 0.0594(12)
H11 H -0.1203(78) 0.0404(76) 0.0573(83)
H12 H -0.1411(66) 0.1617(66) 0.0495(66)
N5 N 0.7648(53) 0.7648(53) 0.7648(53)
O9 O 0.7077(22) 0.8061(27) 0.7871(22)
O9A O 0.7871(22) 0.7077(22) 0.8061(27)
O9B O 0.8061(27) 0.7871(22) 0.7077(22)
O6? O 0.5000 0.5000 0.5000
O7? O 0.6494(55) 0.6574(73) 0.6944(58)
O8? O 0.7617(32) 0.8507(26) 0.9628(35)
O10? O 0.6744(28) 0.7242(35) 0.7815(38)
loop_
_geom_bond_atom_site_label_1
_geom_bond_atom_site_label_2
_geom_bond_site_symmetry_1
_geom_bond_site_symmetry_2
N1 C1 1_555 1_555
C1 N2 1_555 1_555
N2 C2 1_555 1_555
C2 C3 1_555 1_555
C3 C4 1_555 1_555
C4 N1 1_555 1_555
H1 C4 1_555 1_555
C5 C1 1_555 1_555
H2 C5 1_555 1_555
H3 C5 1_555 1_555
H4 C5 1_555 1_555
N3 C2 1_555 1_555
H5 N3 1_555 1_555
H6 N3 1_555 1_555
C6 N1 1_555 1_555
H7 C6 1_555 1_555
H8 C6 1_555 1_555
N4 O1 1_555 1_555
O2 N4 1_555 1_555
O3 N4 1_555 1_555
O4 H9 1_555 1_555
H10 O4 1_555 1_555
O5 H11 1_555 1_555
H12 O5 1_555 1_555
N5 O9 1_555 1_555
C3D C6 1_555 1_555
C2D C3D 1_555 1_555
N2D C2D 1_555 1_555
C1D N2D 1_555 1_555
N1D C1D 1_555 1_555
C4D C3D 1_555 1_555
H1D C4D 1_555 1_555
C6D N1D 1_555 1_555
C3B C6D 1_555 1_555
C2B C3B 1_555 1_555
N2B C2B 1_555 1_555
C1B N2B 1_555 1_555
N1B C1B 1_555 1_555
C4B C3B 1_555 1_555
H1B C4B 1_555 1_555
C6B N1B 1_555 1_555
C3C C6B 1_555 1_555
C2C C3C 1_555 1_555
N2C C2C 1_555 1_555
C1C N2C 1_555 1_555
N1C C1C 1_555 1_555
C4C C3C 1_555 1_555
H1C C4C 1_555 1_555
C6C N1C 1_555 1_555
C3A C6C 1_555 1_555
C2A C3A 1_555 1_555
N2A C2A 1_555 1_555
C1A N2A 1_555 1_555
N1A C1A 1_555 1_555
C4A C3A 1_555 1_555
H1A C4A 1_555 1_555
C6A N1A 1_555 1_555
C3E C6A 1_555 1_555
C2E C3E 1_555 1_555
N2E C2E 1_555 1_555
C1E N2E 1_555 1_555
N1E C1E 1_555 1_555
C4E C3E 1_555 1_555
H1E C4E 1_555 1_555
C6E C3 1_555 1_555
H7E C6E 1_555 1_555
H8E C6E 1_555 1_555
C5E C1E 1_555 1_555
H2E C5E 1_555 1_555
H3E C5E 1_555 1_555
H4E C5E 1_555 1_555
N3E C2E 1_555 1_555
H5E N3E 1_555 1_555
H6E N3E 1_555 1_555
H7A C6A 1_555 1_555
H8A C6A 1_555 1_555
C5A C1A 1_555 1_555
H2A C5A 1_555 1_555
H3A C5A 1_555 1_555
H4A C5A 1_555 1_555
N3A C2A 1_555 1_555
H5A N3A 1_555 1_555
H6A N3A 1_555 1_555
H7C C6C 1_555 1_555
H8C C6C 1_555 1_555
C5C C1C 1_555 1_555
H2C C5C 1_555 1_555
H3C C5C 1_555 1_555
H4C C5C 1_555 1_555
N3C C2C 1_555 1_555
H5C N3C 1_555 1_555
H6C N3C 1_555 1_555
H7B C6B 1_555 1_555
H8B C6B 1_555 1_555
C5B C1B 1_555 1_555
H2B C5B 1_555 1_555
H3B C5B 1_555 1_555
H4B C5B 1_555 1_555
N3B C2B 1_555 1_555
H5B N3B 1_555 1_555
H6B N3B 1_555 1_555
H7D C6D 1_555 1_555
H8D C6D 1_555 1_555
C5D C1D 1_555 1_555
H2D C5D 1_555 1_555
H3D C5D 1_555 1_555
H4D C5D 1_555 1_555
N3D C2D 1_555 1_555
H5D N3D 1_555 1_555
H6D N3D 1_555 1_555
O9A N5 1_555 1_555
O9B N5 1_555 1_555
N1D C4D 1_555 1_555
N1B C4B 1_555 1_555
N1C C4C 1_555 1_555
N1A C4A 1_555 1_555
N1E C4E 1_555 1_555
N1E C6E 1_555 1_555

#END
