
#######################################################################
#
#                 Cambridge Crystallographic Data Centre
#                                CCDC 
#
#######################################################################
#
# If this CIF has been generated from an entry in the Cambridge 
# Structural Database, then it will include bibliographic, chemical, 
# crystal, experimental, refinement or atomic coordinate data resulting 
# from the CCDC's data processing and validation procedures.
#
#######################################################################

data_RETRUF
_chemical_formula_moiety         'C36 H50'
_chemical_name_systematic        
1,1'-(4,5,6,7,8,9-Hexaethyldodeca-3,5,7,9-tetraene-3,10-diyl)dibenzene
_symmetry_cell_setting           monoclinic
_symmetry_space_group_name_H-M   'C 2/c'
_symmetry_Int_Tables_number      15
_space_group_name_Hall           '-C 2yn'
loop_
_symmetry_equiv_pos_site_id
_symmetry_equiv_pos_as_xyz
1 x,y,z
2 -x,y,1/2-z
3 1/2+x,1/2+y,z
4 1/2-x,1/2+y,1/2-z
5 -x,-y,-z
6 x,-y,1/2+z
7 1/2-x,1/2-y,-z
8 1/2+x,1/2-y,1/2+z
_cell_length_a                   13.9811(5)
_cell_length_b                   14.0204(5)
_cell_length_c                   15.8490(6)
_cell_angle_alpha                90
_cell_angle_beta                 95.903(3)
_cell_angle_gamma                90
_cell_volume                     3090.26
_exptl_crystal_colour            'light colorless'
_exptl_crystal_description       block
_cell_formula_units_Z            4
loop_
_atom_site_label
_atom_site_type_symbol
_atom_site_fract_x
_atom_site_fract_y
_atom_site_fract_z
C1 C 0.23929(9) 0.16369(9) 0.67276(8)
C2 C 0.15159(9) 0.19076(9) 0.69196(7)
C3 C 0.06080(8) 0.14274(8) 0.65481(7)
C4 C -0.00609(8) 0.10797(8) 0.70220(7)
C5 C 0.25549(9) 0.07765(10) 0.62046(8)
C6 C 0.20947(9) -0.00863(9) 0.63280(8)
H1 H 0.1683 -0.0130 0.6752
C7 C 0.22340(10) -0.08802(10) 0.58361(8)
H2 H 0.1907 -0.1443 0.5923
C8 C 0.28588(11) -0.08370(12) 0.52155(9)
H3 H 0.2958 -0.1370 0.4887
C9 C 0.33330(12) 0.00038(13) 0.50892(10)
H4 H 0.3756 0.0036 0.4674
C10 C 0.31851(10) 0.08014(12) 0.55753(9)
H5 H 0.3511 0.1363 0.5481
C11 C 0.32989(10) 0.21441(10) 0.70972(9)
H6 H 0.3139 0.2790 0.7252
H7 H 0.3747 0.2182 0.6670
C12 C 0.37768(10) 0.16299(11) 0.78766(9)
H8 H 0.3945 0.0994 0.7724
H9 H 0.3339 0.1604 0.8305
H10 H 0.4347 0.1969 0.8092
C13 C 0.13913(9) 0.27399(9) 0.75127(8)
H11 H 0.1960 0.2787 0.7916
H12 H 0.0848 0.2610 0.7830
C14 C 0.12290(11) 0.36969(10) 0.70596(10)
H13 H 0.0640 0.3674 0.6691
H14 H 0.1755 0.3824 0.6731
H15 H 0.1191 0.4194 0.7472
C15 C 0.04501(9) 0.14215(9) 0.55828(7)
H16 H 0.0091 0.0854 0.5396
H17 H 0.1069 0.1393 0.5357
C16 C -0.00951(10) 0.23027(10) 0.52297(8)
H18 H -0.0173 0.2273 0.4621
H19 H 0.0261 0.2866 0.5408
H20 H -0.0716 0.2323 0.5438
C17 C -0.09677(8) 0.06104(9) 0.66033(7)
H21 H -0.1128 0.0889 0.6046
H22 H -0.1496 0.0739 0.6939
C18 C -0.08558(10) -0.04662(9) 0.65119(8)
H23 H -0.0315 -0.0599 0.6204
H24 H -0.1428 -0.0725 0.6210
H25 H -0.0755 -0.0752 0.7064
C1A C -0.23929(9) 0.16369(9) 0.82724(8)
C2A C -0.15159(9) 0.19076(9) 0.80804(7)
C3A C -0.06080(8) 0.14274(8) 0.84519(7)
C4A C 0.00609(8) 0.10797(8) 0.79780(7)
C5A C -0.25549(9) 0.07765(10) 0.87954(8)
C6A C -0.20947(9) -0.00863(9) 0.86720(8)
H1A H -0.1683 -0.0130 0.8248
C7A C -0.22340(10) -0.08802(10) 0.91639(8)
H2A H -0.1907 -0.1443 0.9077
C8A C -0.28588(11) -0.08370(12) 0.97845(9)
H3A H -0.2958 -0.1370 1.0113
C9A C -0.33330(12) 0.00038(13) 0.99108(10)
H4A H -0.3756 0.0036 1.0326
C10A C -0.31851(10) 0.08014(12) 0.94247(9)
H5A H -0.3511 0.1363 0.9519
C11A C -0.32989(10) 0.21441(10) 0.79028(9)
H6A H -0.3139 0.2790 0.7748
H7A H -0.3747 0.2182 0.8330
C12A C -0.37768(10) 0.16299(11) 0.71234(9)
H8A H -0.3945 0.0994 0.7276
H9A H -0.3339 0.1604 0.6695
H10A H -0.4347 0.1969 0.6908
C13A C -0.13913(9) 0.27399(9) 0.74873(8)
H11A H -0.1960 0.2787 0.7084
H12A H -0.0848 0.2610 0.7170
C14A C -0.12290(11) 0.36969(10) 0.79404(10)
H13A H -0.0640 0.3674 0.8309
H14A H -0.1755 0.3824 0.8269
H15A H -0.1191 0.4194 0.7528
C15A C -0.04501(9) 0.14215(9) 0.94172(7)
H16A H -0.0091 0.0854 0.9604
H17A H -0.1069 0.1393 0.9643
C16A C 0.00951(10) 0.23027(10) 0.97703(8)
H18A H 0.0173 0.2273 1.0379
H19A H -0.0261 0.2866 0.9592
H20A H 0.0716 0.2323 0.9562
C17A C 0.09677(8) 0.06104(9) 0.83967(7)
H21A H 0.1128 0.0889 0.8954
H22A H 0.1496 0.0739 0.8061
C18A C 0.08558(10) -0.04662(9) 0.84881(8)
H23A H 0.0315 -0.0599 0.8796
H24A H 0.1428 -0.0725 0.8790
H25A H 0.0755 -0.0752 0.7936
loop_
_geom_bond_atom_site_label_1
_geom_bond_atom_site_label_2
_geom_bond_site_symmetry_1
_geom_bond_site_symmetry_2
C1 C2 1_555 1_555
C2 C3 1_555 1_555
C3 C4 1_555 1_555
C4 C17 1_555 1_555
C5 C1 1_555 1_555
C6 C5 1_555 1_555
H1 C6 1_555 1_555
C7 C6 1_555 1_555
H2 C7 1_555 1_555
C8 C7 1_555 1_555
H3 C8 1_555 1_555
C9 C8 1_555 1_555
H4 C9 1_555 1_555
C10 C5 1_555 1_555
H5 C10 1_555 1_555
C11 C1 1_555 1_555
H6 C11 1_555 1_555
H7 C11 1_555 1_555
C12 C11 1_555 1_555
H8 C12 1_555 1_555
H9 C12 1_555 1_555
H10 C12 1_555 1_555
C13 C2 1_555 1_555
H11 C13 1_555 1_555
H12 C13 1_555 1_555
C14 C13 1_555 1_555
H13 C14 1_555 1_555
H14 C14 1_555 1_555
H15 C14 1_555 1_555
C15 C3 1_555 1_555
H16 C15 1_555 1_555
H17 C15 1_555 1_555
C16 C15 1_555 1_555
H18 C16 1_555 1_555
H19 C16 1_555 1_555
H20 C16 1_555 1_555
C17 H21 1_555 1_555
H22 C17 1_555 1_555
C18 C17 1_555 1_555
H23 C18 1_555 1_555
H24 C18 1_555 1_555
H25 C18 1_555 1_555
C1A C2A 1_555 1_555
C2A C3A 1_555 1_555
C3A C4A 1_555 1_555
C4A C4 1_555 1_555
C5A C1A 1_555 1_555
C6A C5A 1_555 1_555
H1A C6A 1_555 1_555
C7A C6A 1_555 1_555
H2A C7A 1_555 1_555
C8A C7A 1_555 1_555
H3A C8A 1_555 1_555
C9A C8A 1_555 1_555
H4A C9A 1_555 1_555
C10A C5A 1_555 1_555
H5A C10A 1_555 1_555
C11A C1A 1_555 1_555
H6A C11A 1_555 1_555
H7A C11A 1_555 1_555
C12A C11A 1_555 1_555
H8A C12A 1_555 1_555
H9A C12A 1_555 1_555
H10A C12A 1_555 1_555
C13A C2A 1_555 1_555
H11A C13A 1_555 1_555
H12A C13A 1_555 1_555
C14A C13A 1_555 1_555
H13A C14A 1_555 1_555
H14A C14A 1_555 1_555
H15A C14A 1_555 1_555
C15A C3A 1_555 1_555
H16A C15A 1_555 1_555
H17A C15A 1_555 1_555
C16A C15A 1_555 1_555
H18A C16A 1_555 1_555
H19A C16A 1_555 1_555
H20A C16A 1_555 1_555
C17A C4A 1_555 1_555
H21A C17A 1_555 1_555
H22A C17A 1_555 1_555
C18A C17A 1_555 1_555
H23A C18A 1_555 1_555
H24A C18A 1_555 1_555
H25A C18A 1_555 1_555
C9 C10 1_555 1_555
C9A C10A 1_555 1_555

#END
