
#######################################################################
#
#                 Cambridge Crystallographic Data Centre
#                                CCDC 
#
#######################################################################
#
# If this CIF has been generated from an entry in the Cambridge 
# Structural Database, then it will include bibliographic, chemical, 
# crystal, experimental, refinement or atomic coordinate data resulting 
# from the CCDC's data processing and validation procedures.
#
#######################################################################

data_RETVUI
_chemical_formula_moiety         'C69 H72 O5'
_chemical_name_systematic        
3,6-bis(2-(2,5-dihexyloxy-4-(2-phenylethynyl)phenyl)ethynyl)-9H-fluoren-9-one
_symmetry_cell_setting           monoclinic
_symmetry_space_group_name_H-M   'C 2/c'
_symmetry_Int_Tables_number      15
_space_group_name_Hall           '-C 2yn'
loop_
_symmetry_equiv_pos_site_id
_symmetry_equiv_pos_as_xyz
1 x,y,z
2 1/2+x,1/2+y,z
3 -x,y,1/2-z
4 1/2-x,1/2+y,1/2-z
5 -x,-y,-z
6 1/2-x,1/2-y,-z
7 x,-y,1/2+z
8 1/2+x,1/2-y,1/2+z
_cell_length_a                   16.0034(9)
_cell_length_b                   33.0383(7)
_cell_length_c                   10.6224(5)
_cell_angle_alpha                90
_cell_angle_beta                 97.142(2)
_cell_angle_gamma                90
_cell_volume                     5572.75
_exptl_crystal_colour            green
_exptl_crystal_description       needle
_chemical_melting_point          '104.3 deg.C'
_cell_formula_units_Z            4
loop_
_atom_site_label
_atom_site_type_symbol
_atom_site_fract_x
_atom_site_fract_y
_atom_site_fract_z
O1 O 0.0000 0.39228(4) 0.2500
C1 C 0.0000 0.42904(6) 0.2500
C2 C 0.04939(9) 0.45660(4) 0.17554(13)
C3 C 0.10501(9) 0.44732(4) 0.09005(14)
H1 H 0.1181 0.4200 0.0730
C4 C 0.14123(9) 0.47881(4) 0.02978(14)
H2 H 0.1800 0.4729 -0.0286
C5 C 0.12148(9) 0.51920(4) 0.05374(13)
C6 C 0.06595(9) 0.52840(4) 0.14252(13)
H3 H 0.0532 0.5557 0.1607
C7 C 0.03037(8) 0.49690(4) 0.20265(12)
C8 C 0.15787(9) 0.55064(4) -0.01477(14)
C9 C 0.18923(9) 0.57505(4) -0.07761(13)
C10 C 0.22787(9) 0.60447(4) -0.15053(13)
C11 C 0.29016(9) 0.59250(4) -0.22567(13)
C12 C 0.33074(9) 0.62164(4) -0.29053(14)
H4 H 0.3737 0.6137 -0.3395
C13 C 0.30895(9) 0.66242(4) -0.28436(14)
C14 C 0.24364(10) 0.67405(5) -0.21431(15)
C15 C 0.20483(10) 0.64525(5) -0.14720(15)
H5 H 0.1619 0.6533 -0.0981
C16 C 0.35197(10) 0.69355(4) -0.34491(14)
C17 C 0.38397(10) 0.72269(5) -0.38537(14)
C18 C 0.42008(10) 0.75969(4) -0.42461(14)
C19 C 0.50644(10) 0.76661(5) -0.40279(15)
H6 H 0.5432 0.7457 -0.3684
C20 C 0.53875(11) 0.80390(5) -0.43113(16)
H7 H 0.5975 0.8088 -0.4129
C21 C 0.48626(12) 0.83403(5) -0.48576(18)
H8 H 0.5089 0.8595 -0.5059
C22 C 0.40096(13) 0.82693(5) -0.51076(19)
H9 H 0.3649 0.8474 -0.5499
C23 C 0.36735(11) 0.79023(5) -0.47935(17)
H10 H 0.3083 0.7858 -0.4951
O2 O 0.30720(7) 0.55210(3) -0.22660(10)
C24 C 0.35991(10) 0.53779(4) -0.31634(15)
H11 H 0.4180 0.5480 -0.2944
H12 H 0.3384 0.5474 -0.4026
C25 C 0.35913(9) 0.49214(4) -0.31213(14)
H13 H 0.3006 0.4824 -0.3341
H14 H 0.3790 0.4830 -0.2247
C26 C 0.41464(10) 0.47350(5) -0.40330(15)
H15 H 0.3947 0.4827 -0.4906
H16 H 0.4731 0.4833 -0.3814
C27 C 0.41448(10) 0.42743(5) -0.39991(15)
H17 H 0.4304 0.4185 -0.3112
H18 H 0.3565 0.4177 -0.4273
C28 C 0.47385(11) 0.40776(5) -0.48327(16)
H19 H 0.5323 0.4162 -0.4535
H20 H 0.4597 0.4175 -0.5715
C29 C 0.46902(13) 0.36172(6) -0.48186(19)
H21 H 0.5044 0.3506 -0.5426
H22 H 0.4105 0.3532 -0.5056
H23 H 0.4891 0.3518 -0.3965
O3 O 0.22498(8) 0.71406(3) -0.21963(13)
C30 C 0.15269(11) 0.72819(5) -0.16535(19)
H24 H 0.1647 0.7292 -0.0717
H25 H 0.1042 0.7099 -0.1885
C31 C 0.13361(11) 0.77016(5) -0.21884(18)
H26 H 0.1169 0.7679 -0.3115
H27 H 0.0851 0.7814 -0.1810
C32 C 0.20672(11) 0.79937(5) -0.19484(17)
H28 H 0.2587 0.7856 -0.2135
H29 H 0.2144 0.8069 -0.1039
C33 C 0.19487(12) 0.83777(5) -0.27413(17)
H30 H 0.1866 0.8302 -0.3650
H31 H 0.1431 0.8517 -0.2549
C34 C 0.26782(13) 0.86678(5) -0.25138(18)
H32 H 0.3203 0.8523 -0.2643
H33 H 0.2733 0.8760 -0.1620
C35 C 0.25854(15) 0.90350(6) -0.3375(2)
H34 H 0.3049 0.9224 -0.3127
H35 H 0.2048 0.9169 -0.3299
H36 H 0.2599 0.8950 -0.4255
C2B C -0.04939(9) 0.45660(4) 0.32446(13)
C3B C -0.10501(9) 0.44732(4) 0.40995(14)
H1B H -0.1181 0.4200 0.4270
C4B C -0.14123(9) 0.47881(4) 0.47022(14)
H2B H -0.1800 0.4729 0.5286
C5B C -0.12148(9) 0.51920(4) 0.44626(13)
C6B C -0.06595(9) 0.52840(4) 0.35748(13)
H3B H -0.0532 0.5557 0.3393
C7B C -0.03037(8) 0.49690(4) 0.29735(12)
C8B C -0.15787(9) 0.55064(4) 0.51477(14)
C9B C -0.18923(9) 0.57505(4) 0.57761(13)
C10B C -0.22787(9) 0.60447(4) 0.65053(13)
C11B C -0.29016(9) 0.59250(4) 0.72567(13)
C12B C -0.33074(9) 0.62164(4) 0.79053(14)
H4B H -0.3737 0.6137 0.8395
C13B C -0.30895(9) 0.66242(4) 0.78436(14)
C14B C -0.24364(10) 0.67405(5) 0.71431(15)
C15B C -0.20483(10) 0.64525(5) 0.64720(15)
H5B H -0.1619 0.6533 0.5981
C16B C -0.35197(10) 0.69355(4) 0.84491(14)
C17B C -0.38397(10) 0.72269(5) 0.88537(14)
C18B C -0.42008(10) 0.75969(4) 0.92461(14)
C19B C -0.50644(10) 0.76661(5) 0.90279(15)
H6B H -0.5432 0.7457 0.8684
C20B C -0.53875(11) 0.80390(5) 0.93113(16)
H7B H -0.5975 0.8088 0.9129
C21B C -0.48626(12) 0.83403(5) 0.98576(18)
H8B H -0.5089 0.8595 1.0059
C22B C -0.40096(13) 0.82693(5) 1.01076(19)
H9B H -0.3649 0.8474 1.0499
C23B C -0.36735(11) 0.79023(5) 0.97935(17)
H10B H -0.3083 0.7858 0.9951
O2B O -0.30720(7) 0.55210(3) 0.72660(10)
C24B C -0.35991(10) 0.53779(4) 0.81634(15)
H11B H -0.4180 0.5480 0.7944
H12B H -0.3384 0.5474 0.9026
C25B C -0.35913(9) 0.49214(4) 0.81213(14)
H13B H -0.3006 0.4824 0.8341
H14B H -0.3790 0.4830 0.7247
C26B C -0.41464(10) 0.47350(5) 0.90330(15)
H15B H -0.3947 0.4827 0.9906
H16B H -0.4731 0.4833 0.8814
C27B C -0.41448(10) 0.42743(5) 0.89991(15)
H17B H -0.4304 0.4185 0.8112
H18B H -0.3565 0.4177 0.9273
C28B C -0.47385(11) 0.40776(5) 0.98327(16)
H19B H -0.5323 0.4162 0.9535
H20B H -0.4597 0.4175 1.0715
C29B C -0.46902(13) 0.36172(6) 0.98186(19)
H21B H -0.5044 0.3506 1.0426
H22B H -0.4105 0.3532 1.0056
H23B H -0.4891 0.3518 0.8965
O3B O -0.22498(8) 0.71406(3) 0.71963(13)
C30B C -0.15269(11) 0.72819(5) 0.66535(19)
H24B H -0.1647 0.7292 0.5717
H25B H -0.1042 0.7099 0.6885
C31B C -0.13361(11) 0.77016(5) 0.71884(18)
H26B H -0.1169 0.7679 0.8115
H27B H -0.0851 0.7814 0.6810
C32B C -0.20672(11) 0.79937(5) 0.69484(17)
H28B H -0.2587 0.7856 0.7135
H29B H -0.2144 0.8069 0.6039
C33B C -0.19487(12) 0.83777(5) 0.77413(17)
H30B H -0.1866 0.8302 0.8650
H31B H -0.1431 0.8517 0.7549
C34B C -0.26782(13) 0.86678(5) 0.75138(18)
H32B H -0.3203 0.8523 0.7643
H33B H -0.2733 0.8760 0.6620
C35B C -0.25854(15) 0.90350(6) 0.8375(2)
H34B H -0.3049 0.9224 0.8127
H35B H -0.2048 0.9169 0.8299
H36B H -0.2599 0.8950 0.9255
loop_
_geom_bond_atom_site_label_1
_geom_bond_atom_site_label_2
_geom_bond_site_symmetry_1
_geom_bond_site_symmetry_2
O1 C1 1_555 1_555
C1 C2 1_555 1_555
C2 C3 1_555 1_555
C3 H1 1_555 1_555
C4 C3 1_555 1_555
H2 C4 1_555 1_555
C5 C4 1_555 1_555
C6 C5 1_555 1_555
H3 C6 1_555 1_555
C7 C2 1_555 1_555
C8 C5 1_555 1_555
C9 C8 1_555 1_555
C10 C9 1_555 1_555
C11 C10 1_555 1_555
C12 C11 1_555 1_555
H4 C12 1_555 1_555
C13 C12 1_555 1_555
C14 C13 1_555 1_555
C15 C10 1_555 1_555
H5 C15 1_555 1_555
C16 C13 1_555 1_555
C17 C16 1_555 1_555
C18 C17 1_555 1_555
C19 C18 1_555 1_555
H6 C19 1_555 1_555
C20 C19 1_555 1_555
H7 C20 1_555 1_555
C21 C20 1_555 1_555
H8 C21 1_555 1_555
C22 C21 1_555 1_555
H9 C22 1_555 1_555
C23 C18 1_555 1_555
H10 C23 1_555 1_555
O2 C11 1_555 1_555
C24 O2 1_555 1_555
H11 C24 1_555 1_555
H12 C24 1_555 1_555
C25 C24 1_555 1_555
H13 C25 1_555 1_555
H14 C25 1_555 1_555
C26 C25 1_555 1_555
H15 C26 1_555 1_555
H16 C26 1_555 1_555
C27 C26 1_555 1_555
H17 C27 1_555 1_555
H18 C27 1_555 1_555
C28 C27 1_555 1_555
H19 C28 1_555 1_555
H20 C28 1_555 1_555
C29 C28 1_555 1_555
H21 C29 1_555 1_555
H22 C29 1_555 1_555
H23 C29 1_555 1_555
O3 C14 1_555 1_555
C30 O3 1_555 1_555
H24 C30 1_555 1_555
H25 C30 1_555 1_555
C31 C30 1_555 1_555
H26 C31 1_555 1_555
H27 C31 1_555 1_555
C32 C31 1_555 1_555
H28 C32 1_555 1_555
H29 C32 1_555 1_555
C33 C32 1_555 1_555
H30 C33 1_555 1_555
H31 C33 1_555 1_555
C34 C33 1_555 1_555
H32 C34 1_555 1_555
H33 C34 1_555 1_555
C35 C34 1_555 1_555
H34 C35 1_555 1_555
H35 C35 1_555 1_555
H36 C35 1_555 1_555
C2B C1 1_555 1_555
C3B C2B 1_555 1_555
H1B C3B 1_555 1_555
C4B C3B 1_555 1_555
H2B C4B 1_555 1_555
C5B C4B 1_555 1_555
C6B C5B 1_555 1_555
H3B C6B 1_555 1_555
C7B C7 1_555 1_555
C8B C5B 1_555 1_555
C9B C8B 1_555 1_555
C10B C9B 1_555 1_555
C11B C10B 1_555 1_555
C12B C11B 1_555 1_555
H4B C12B 1_555 1_555
C13B C12B 1_555 1_555
C14B C13B 1_555 1_555
C15B C10B 1_555 1_555
H5B C15B 1_555 1_555
C16B C13B 1_555 1_555
C17B C16B 1_555 1_555
C18B C17B 1_555 1_555
C19B C18B 1_555 1_555
H6B C19B 1_555 1_555
C20B C19B 1_555 1_555
H7B C20B 1_555 1_555
C21B C20B 1_555 1_555
H8B C21B 1_555 1_555
C22B C21B 1_555 1_555
H9B C22B 1_555 1_555
C23B C18B 1_555 1_555
H10B C23B 1_555 1_555
O2B C11B 1_555 1_555
C24B O2B 1_555 1_555
H11B C24B 1_555 1_555
H12B C24B 1_555 1_555
C25B C24B 1_555 1_555
H13B C25B 1_555 1_555
H14B C25B 1_555 1_555
C26B C25B 1_555 1_555
H15B C26B 1_555 1_555
H16B C26B 1_555 1_555
C27B C26B 1_555 1_555
H17B C27B 1_555 1_555
H18B C27B 1_555 1_555
C28B C27B 1_555 1_555
H19B C28B 1_555 1_555
H20B C28B 1_555 1_555
C29B C28B 1_555 1_555
H21B C29B 1_555 1_555
H22B C29B 1_555 1_555
H23B C29B 1_555 1_555
O3B C14B 1_555 1_555
C30B O3B 1_555 1_555
H24B C30B 1_555 1_555
H25B C30B 1_555 1_555
C31B C30B 1_555 1_555
H26B C31B 1_555 1_555
H27B C31B 1_555 1_555
C32B C31B 1_555 1_555
H28B C32B 1_555 1_555
H29B C32B 1_555 1_555
C33B C32B 1_555 1_555
H30B C33B 1_555 1_555
H31B C33B 1_555 1_555
C34B C33B 1_555 1_555
H32B C34B 1_555 1_555
H33B C34B 1_555 1_555
C35B C34B 1_555 1_555
H34B C35B 1_555 1_555
H35B C35B 1_555 1_555
H36B C35B 1_555 1_555
C6 C7 1_555 1_555
C14 C15 1_555 1_555
C22 C23 1_555 1_555
C2B C7B 1_555 1_555
C6B C7B 1_555 1_555
C14B C15B 1_555 1_555
C22B C23B 1_555 1_555

#END
