
#######################################################################
#
#                 Cambridge Crystallographic Data Centre
#                                CCDC 
#
#######################################################################
#
# If this CIF has been generated from an entry in the Cambridge 
# Structural Database, then it will include bibliographic, chemical, 
# crystal, experimental, refinement or atomic coordinate data resulting 
# from the CCDC's data processing and validation procedures.
#
#######################################################################

data_RETVEU
_chemical_name_common            
2-methyl-10-phenyl-9-(p-tolyl)indeno[1,2,3-fg]tetracene
_chemical_formula_moiety         'C38 H26'
_chemical_name_systematic        
2-methyl-9-(4-methylphenyl)-10-phenylindeno[1,2,3-fg]tetracene
_symmetry_cell_setting           orthorhombic
_symmetry_space_group_name_H-M   'P b c a'
_symmetry_Int_Tables_number      61
_space_group_name_Hall           '-P 2ac 2ab'
loop_
_symmetry_equiv_pos_site_id
_symmetry_equiv_pos_as_xyz
1 x,y,z
2 1/2-x,-y,1/2+z
3 -x,1/2+y,1/2-z
4 1/2+x,1/2-y,-z
5 -x,-y,-z
6 1/2+x,y,1/2-z
7 x,1/2-y,1/2+z
8 1/2-x,1/2+y,z
_cell_length_a                   7.2443(4)
_cell_length_b                   21.6508(13)
_cell_length_c                   31.7616(19)
_cell_angle_alpha                90
_cell_angle_beta                 90
_cell_angle_gamma                90
_cell_volume                     4981.64
_exptl_crystal_colour            purple
_exptl_crystal_description       rectangle
_chemical_melting_point          '453 K'
_cell_formula_units_Z            8
loop_
_atom_site_label
_atom_site_type_symbol
_atom_site_fract_x
_atom_site_fract_y
_atom_site_fract_z
C1 C 0.2167(3) 0.38784(13) 0.28221(7)
H1 H 0.2039 0.3681 0.3081
C2 C 0.2754(3) 0.44753(12) 0.28131(9)
H2 H 0.3024 0.4680 0.3063
C3 C 0.2951(3) 0.47797(13) 0.24308(8)
H3 H 0.3338 0.5189 0.2428
C4 C 0.2590(3) 0.44898(11) 0.20636(8)
H4 H 0.2748 0.4705 0.1813
C5 C 0.1966(3) 0.38575(10) 0.20476(6)
C6 C 0.1571(3) 0.35722(9) 0.16596(6)
C7 C 0.0931(2) 0.29486(9) 0.16467(6)
C8 C 0.0442(3) 0.25904(10) 0.12858(6)
C9 C -0.0011(3) 0.19610(9) 0.13310(7)
C10 C -0.0379(3) 0.15859(10) 0.09721(8)
H5 H -0.0344 0.1765 0.0706
C11 C -0.0778(3) 0.09740(11) 0.10067(8)
H6 H -0.1000 0.0741 0.0766
C12 C -0.0858(3) 0.06918(11) 0.14043(8)
H7 H -0.1112 0.0272 0.1425
C13 C -0.0567(3) 0.10262(11) 0.17586(8)
H8 H -0.0663 0.0833 0.2019
C14 C -0.0117(3) 0.16665(10) 0.17421(7)
C15 C 0.0218(2) 0.20292(10) 0.20959(7)
C16 C 0.0768(2) 0.26480(10) 0.20421(6)
C17 C 0.1116(3) 0.29365(10) 0.24331(6)
C18 C 0.1737(3) 0.35445(10) 0.24443(6)
C19 C 0.0707(3) 0.24771(11) 0.27603(7)
C20 C 0.0716(3) 0.25065(15) 0.31972(7)
H9 H 0.1051 0.2872 0.3330
C21 C 0.0242(3) 0.20080(15) 0.34324(9)
H10 H -0.0003(12) 0.1853(7) 0.3774(15)
C22 C -0.0265(3) 0.14587(15) 0.32429(9)
C23 C -0.0311(3) 0.14147(13) 0.27957(8)
H11 H -0.0662 0.1048 0.2666
C24 C 0.0173(3) 0.19250(11) 0.25563(7)
C25 C 0.195(3) 0.3925(9) 0.1286(6)
C26 C 0.374(2) 0.4002(11) 0.1134(7)
H12 H 0.4724 0.3842 0.1286
C27 C 0.406(3) 0.4311(12) 0.0763(6)
H13 H 0.5225 0.4289 0.0640
C28 C 0.271(3) 0.4650(11) 0.0570(7)
C29 C 0.097(3) 0.4637(10) 0.0742(7)
H14 H 0.0008 0.4850 0.0613
C30 C 0.064(3) 0.4303(9) 0.1109(7)
H15 H -0.0511 0.4337 0.1239
C31 C 0.020(3) 0.2887(13) 0.0839(5)
C32 C -0.157(2) 0.3064(14) 0.0724(5)
H16 H -0.2516 0.3048 0.0921
C33 C -0.195(3) 0.3267(10) 0.0317(6)
H17 H -0.3155 0.3363 0.0240
C34 C -0.055(4) 0.3325(15) 0.0029(6)
H18 H -0.0790 0.3495 -0.0234
C35 C 0.119(3) 0.3134(11) 0.0131(6)
H19 H 0.2121 0.3153 -0.0070
C36 C 0.159(3) 0.2909(14) 0.0534(6)
H20 H 0.2777 0.2775 0.0598
C37 C 0.303(4) 0.5050(10) 0.0113(6)
C38 C -0.0707(4) 0.09279(15) 0.35127(12)
H21 H 0.0243 0.0878 0.3721
H22 H -0.0785 0.0561 0.3344
H23 H -0.1869 0.0998 0.3650
C39? C 0.181(2) 0.3971(8) 0.1263(6)
C40? C 0.350(2) 0.4023(12) 0.1066(8)
H24? H 0.4455 0.3760 0.1145
C41? C 0.380(2) 0.4457(11) 0.0757(5)
H25? H 0.4994 0.4530 0.0661
C42? C 0.235(3) 0.4783(11) 0.0588(6)
H26? H 0.2536 0.5058 0.0367
C43? C 0.063(3) 0.4692(9) 0.0756(6)
H27? H -0.0368 0.4914 0.0650
C44? C 0.033(2) 0.4274(6) 0.1083(5)
H28? H -0.0860 0.4198 0.1179
C45? C 0.034(3) 0.2826(13) 0.0873(6)
C46? C -0.130(3) 0.3005(16) 0.0690(7)
H29? H -0.2380 0.2958 0.0845
C47? C -0.143(4) 0.3253(12) 0.0288(6)
H30? H -0.2542 0.3407 0.0189
C48? C 0.012(4) 0.3266(16) 0.0041(6)
H31? H 0.010(4) 0.3430(16) -0.0287(6)
C49? C 0.179(4) 0.3108(13) 0.0216(7)
H32? H 0.2856 0.3160 0.0058
C50? C 0.194(3) 0.2871(15) 0.0626(6)
H33? H 0.3075 0.2746 0.0732
H34? H 0.2082 0.5363 0.0275
H35? H 0.3745 0.5472 0.0209
H36? H 0.2668 0.4730 -0.0141
H37? H 0.3396 0.4911 0.0439
H38? H 0.2999 0.5660 0.0322
H39? H 0.3507 0.5205 -0.0054
C51? C -0.040(2) 0.3615(6) -0.0400(4)
H40? H -0.1871 0.3528 -0.0355
H41? H -0.1407 0.3990 -0.0385
H42? H 0.0895 0.3363 -0.0455
H43? H -0.1850 0.0747 0.3422
H44? H -0.0822 0.1063 0.3799
H45? H 0.0262 0.0627 0.3493
C52? C -0.0088(13) 0.1794(6) 0.3862(3)
H46? H -0.0018 0.1351 0.3870
H47? H -0.1291 0.1924 0.3952
H48? H 0.0829 0.1966 0.4046
H49? H -0.0302 0.2143 0.4042
H50? H 0.0972 0.1570 0.3960
H51? H -0.1149 0.1529 0.3866
H52? H -0.0944(5) 0.1025(3) 0.33344(10)
H53? H -0.1560 0.3384 -0.0553
H54? H 0.0230 0.4074 -0.0383
H55? H 0.0671 0.3659 -0.0642
H56? H 0.2956 0.4882 0.0331
C53? C 0.260(3) 0.5196(10) 0.0221(6)
H57? H 0.1238 0.5415 0.0192
H58? H 0.1750 0.5275 0.0013
H59? H 0.4338 0.4822 0.0034
H60? H 0.4042 0.5086 0.0156
H61? H 0.3298 0.4871 0.0011
H62? H 0.2082 0.5363 0.0275
loop_
_geom_bond_atom_site_label_1
_geom_bond_atom_site_label_2
_geom_bond_site_symmetry_1
_geom_bond_site_symmetry_2
C1 H1 1_555 1_555
C2 C1 1_555 1_555
H2 C2 1_555 1_555
C3 C2 1_555 1_555
H3 C3 1_555 1_555
C4 C3 1_555 1_555
H4 C4 1_555 1_555
C5 C4 1_555 1_555
C6 C5 1_555 1_555
C7 C6 1_555 1_555
C8 C7 1_555 1_555
C9 C8 1_555 1_555
C10 C9 1_555 1_555
H5 C10 1_555 1_555
C11 C10 1_555 1_555
H6 C11 1_555 1_555
C12 C11 1_555 1_555
H7 C12 1_555 1_555
C13 C12 1_555 1_555
H8 C13 1_555 1_555
C14 C9 1_555 1_555
C15 C14 1_555 1_555
C16 C7 1_555 1_555
C17 C16 1_555 1_555
C18 C1 1_555 1_555
C19 C17 1_555 1_555
C20 C19 1_555 1_555
H9 C20 1_555 1_555
C21 C20 1_555 1_555
H10 C21 1_555 1_555
C22 C21 1_555 1_555
C23 C22 1_555 1_555
H11 C23 1_555 1_555
C24 C15 1_555 1_555
C25 C6 1_555 1_555
C26 C25 1_555 1_555
H12 C26 1_555 1_555
C27 C26 1_555 1_555
H13 C27 1_555 1_555
C28 C27 1_555 1_555
C29 C28 1_555 1_555
H14 C29 1_555 1_555
C30 C25 1_555 1_555
H15 C30 1_555 1_555
C31 C8 1_555 1_555
C32 C31 1_555 1_555
H16 C32 1_555 1_555
C33 C32 1_555 1_555
H17 C33 1_555 1_555
C34 C33 1_555 1_555
H18 C34 1_555 1_555
C35 C34 1_555 1_555
H19 C35 1_555 1_555
C36 C31 1_555 1_555
H20 C36 1_555 1_555
C37 C28 1_555 1_555
C38 C22 1_555 1_555
H21 C38 1_555 1_555
H22 C38 1_555 1_555
H23 C38 1_555 1_555
C5 C18 1_555 1_555
C13 C14 1_555 1_555
C15 C16 1_555 1_555
C17 C18 1_555 1_555
C19 C24 1_555 1_555
C23 C24 1_555 1_555
C29 C30 1_555 1_555
C35 C36 1_555 1_555

#END
