
#######################################################################
#
#                 Cambridge Crystallographic Data Centre
#                                CCDC 
#
#######################################################################
#
# If this CIF has been generated from an entry in the Cambridge 
# Structural Database, then it will include bibliographic, chemical, 
# crystal, experimental, refinement or atomic coordinate data resulting 
# from the CCDC's data processing and validation procedures.
#
#######################################################################

data_RETWAR
_chemical_formula_moiety         'C36 H21 F1'
_chemical_name_systematic        
9-(4-fluorophenyl)-10-phenylindeno[1,2,3-fg]tetracene
_symmetry_cell_setting           monoclinic
_symmetry_space_group_name_H-M   'C 2/c'
_symmetry_Int_Tables_number      15
_space_group_name_Hall           '-C 2yn'
loop_
_symmetry_equiv_pos_site_id
_symmetry_equiv_pos_as_xyz
1 x,y,z
2 -x,y,1/2-z
3 1/2+x,1/2+y,z
4 1/2-x,1/2+y,1/2-z
5 -x,-y,-z
6 x,-y,1/2+z
7 1/2-x,1/2-y,-z
8 1/2+x,1/2-y,1/2+z
_cell_length_a                   15.90(3)
_cell_length_b                   19.904(14)
_cell_length_c                   7.730(13)
_cell_angle_alpha                90
_cell_angle_beta                 112.49(10)
_cell_angle_gamma                90
_cell_volume                     2260.29
_exptl_crystal_colour            purple
_exptl_crystal_description       rectangle
_chemical_melting_point          '517 K'
_cell_formula_units_Z            4
loop_
_atom_site_label
_atom_site_type_symbol
_atom_site_fract_x
_atom_site_fract_y
_atom_site_fract_z
C1 C 0.5000 0.59847(11) 0.7500
C2 C 0.5000 0.66997(10) 0.7500
C3 C 0.45774(10) 0.48807(8) 0.76140(18)
C4 C 0.43077(9) 0.55832(8) 0.76805(17)
C5 C 0.64381(10) 0.66153(8) 0.69920(18)
C6 C 0.57420(9) 0.70126(8) 0.71932(17)
C7 C 0.35669(10) 0.58902(8) 0.79025(18)
C8 C 0.51885(10) 0.80685(8) 0.5362(2)
H1 H 0.4735 0.7811 0.4433
C9 C 0.57949(9) 0.77512(8) 0.69478(19)
C10 C 0.41659(11) 0.42735(8) 0.77333(19)
H2 H 0.3603 0.4269 0.7894
C11 C 0.28364(10) 0.69164(9) 0.84138(19)
H3 H 0.2822 0.7391 0.8524
C12 C 0.64671(10) 0.81402(9) 0.8265(2)
H4 H 0.6894 0.7931 0.9351
C13 C 0.28336(10) 0.55252(8) 0.8109(2)
H5 H 0.2818 0.5050 0.7989
C14 C 0.45895(12) 0.36746(8) 0.7614(2)
H6 H 0.4311 0.3259 0.7691
C15 C 0.52350(11) 0.87536(8) 0.5114(2)
H7 H 0.4811 0.8966 0.4033
C16 C 0.21685(10) 0.65448(9) 0.8646(2)
H8 H 0.1704 0.6762 0.8928
C17 C 0.21627(10) 0.58381(9) 0.8469(2)
H9 H 0.1687 0.5582 0.8602
C18 C 0.59006(11) 0.91240(9) 0.6446(2)
C19 C 0.65225(11) 0.88236(9) 0.8017(2)
H10 H 0.6985 0.9083 0.8922
F1 F 0.58866(16) 0.97760(18) 0.6103(4)
C3A C 0.54226(10) 0.48807(8) 0.73860(18)
C4A C 0.56923(9) 0.55832(8) 0.73195(17)
C5A C 0.35619(10) 0.66153(8) 0.80080(18)
C6A C 0.42580(9) 0.70126(8) 0.78068(17)
C7A C 0.64331(10) 0.58902(8) 0.70975(18)
C8A C 0.48115(10) 0.80685(8) 0.9638(2)
H1A H 0.5265 0.7811 1.0567
C9A C 0.42051(9) 0.77512(8) 0.80522(19)
C10A C 0.58341(11) 0.42735(8) 0.72667(19)
H2A H 0.6397 0.4269 0.7106
C11A C 0.71636(10) 0.69164(9) 0.65862(19)
H3A H 0.7178 0.7391 0.6476
C12A C 0.35329(10) 0.81402(9) 0.6735(2)
H4A H 0.3106 0.7931 0.5649
C13A C 0.71664(10) 0.55252(8) 0.6891(2)
H5A H 0.7182 0.5050 0.7011
C14A C 0.54105(12) 0.36746(8) 0.7386(2)
H6A H 0.5689 0.3259 0.7309
C15A C 0.47650(11) 0.87536(8) 0.9886(2)
H7A H 0.5189 0.8966 1.0967
C16A C 0.78315(10) 0.65448(9) 0.6354(2)
H8A H 0.8296 0.6762 0.6072
C17A C 0.78373(10) 0.58381(9) 0.6531(2)
H9A H 0.8313 0.5582 0.6398
C18A C 0.40994(11) 0.91240(9) 0.8554(2)
C19A C 0.34775(11) 0.88236(9) 0.6983(2)
H10A H 0.3015 0.9083 0.6078
F1A F 0.41134(16) 0.97760(18) 0.8897(4)
H11? H 0.5931 0.9595 0.6279
loop_
_geom_bond_atom_site_label_1
_geom_bond_atom_site_label_2
_geom_bond_site_symmetry_1
_geom_bond_site_symmetry_2
C1 C2 1_555 1_555
C2 C6 1_555 1_555
C3 C4 1_555 1_555
C4 C1 1_555 1_555
C5 C6 1_555 1_555
C6 C9 1_555 1_555
C7 C4 1_555 1_555
C8 H1 1_555 1_555
C9 C8 1_555 1_555
C10 C3 1_555 1_555
H2 C10 1_555 1_555
C11 H3 1_555 1_555
C12 C9 1_555 1_555
H4 C12 1_555 1_555
C13 C7 1_555 1_555
H5 C13 1_555 1_555
C14 C10 1_555 1_555
H6 C14 1_555 1_555
C15 C8 1_555 1_555
H7 C15 1_555 1_555
C16 C11 1_555 1_555
H8 C16 1_555 1_555
C17 C13 1_555 1_555
H9 C17 1_555 1_555
C18 C15 1_555 1_555
C19 C12 1_555 1_555
H10 C19 1_555 1_555
F1 C18 1_555 1_555
C3A C3 1_555 1_555
C4A C1 1_555 1_555
C5A C7 1_555 1_555
C6A C2 1_555 1_555
C7A C5 1_555 1_555
C8A H1A 1_555 1_555
C9A C6A 1_555 1_555
C10A C3A 1_555 1_555
H2A C10A 1_555 1_555
C11A C5 1_555 1_555
H3A C11A 1_555 1_555
C12A C9A 1_555 1_555
H4A C12A 1_555 1_555
C13A C7A 1_555 1_555
H5A C13A 1_555 1_555
C14A C14 1_555 1_555
H6A C14A 1_555 1_555
C15A C8A 1_555 1_555
H7A C15A 1_555 1_555
C16A C11A 1_555 1_555
H8A C16A 1_555 1_555
C17A C13A 1_555 1_555
H9A C17A 1_555 1_555
C18A C15A 1_555 1_555
C19A C12A 1_555 1_555
H10A C19A 1_555 1_555
F1A C18A 1_555 1_555
C11 C5A 1_555 1_555
C16 C17 1_555 1_555
C18 C19 1_555 1_555
C3A C4A 1_555 1_555
C4A C7A 1_555 1_555
C5A C6A 1_555 1_555
C8A C9A 1_555 1_555
C10A C14A 1_555 1_555
C16A C17A 1_555 1_555
C18A C19A 1_555 1_555

#END
