
#######################################################################
#
#                 Cambridge Crystallographic Data Centre
#                                CCDC 
#
#######################################################################
#
# If this CIF has been generated from an entry in the Cambridge 
# Structural Database, then it will include bibliographic, chemical, 
# crystal, experimental, refinement or atomic coordinate data resulting 
# from the CCDC's data processing and validation procedures.
#
#######################################################################

data_RETYEX
_chemical_formula_moiety         'C45 H30 F3 N1 O1'
_chemical_name_systematic        
1-(3-benzyl-6,7,8,9-tetraphenyl-3H-benzo[e]indol-1-yl)-2,2,2-trifluoroethan-1-one
_symmetry_cell_setting           orthorhombic
_symmetry_space_group_name_H-M   'P b c a'
_symmetry_Int_Tables_number      61
_space_group_name_Hall           '-P 2ac 2ab'
loop_
_symmetry_equiv_pos_site_id
_symmetry_equiv_pos_as_xyz
1 x,y,z
2 1/2-x,-y,1/2+z
3 -x,1/2+y,1/2-z
4 1/2+x,1/2-y,-z
5 -x,-y,-z
6 1/2+x,y,1/2-z
7 x,1/2-y,1/2+z
8 1/2-x,1/2+y,z
_cell_length_a                   14.2573(13)
_cell_length_b                   19.037(2)
_cell_length_c                   25.037(2)
_cell_angle_alpha                90
_cell_angle_beta                 90
_cell_angle_gamma                90
_cell_volume                     6795.45
_cell_formula_units_Z            8
loop_
_atom_site_label
_atom_site_type_symbol
_atom_site_fract_x
_atom_site_fract_y
_atom_site_fract_z
C1 C 0.9543(3) 0.1009(2) 0.36568(16)
C2 C 1.0278(3) 0.1342(2) 0.39310(16)
C3 C 1.0293(3) 0.2075(3) 0.40169(15)
C4 C 0.9550(3) 0.2492(2) 0.38303(16)
C5 C 0.8019(3) 0.2583(3) 0.33735(19)
C6 C 0.7274(4) 0.2306(3) 0.31191(19)
C7 C 0.7318(3) 0.1605(3) 0.29703(17)
C8 C 0.8092(3) 0.1177(2) 0.30723(15)
C9 C 0.8831(3) 0.1434(2) 0.34110(15)
C10 C 0.8807(3) 0.2172(2) 0.35320(15)
C11 C 0.9468(3) 0.0230(3) 0.36735(16)
C12 C 1.0186(4) -0.0229(3) 0.3533(2)
C13 C 1.0097(5) -0.0946(3) 0.3583(2)
C14 C 0.9277(6) -0.1232(4) 0.3788(3)
C15 C 0.8551(5) -0.0797(4) 0.3931(2)
C16 C 0.8644(4) -0.0071(3) 0.38774(18)
C17 C 1.1098(3) 0.0920(3) 0.41320(19)
C18 C 1.1947(4) 0.0962(3) 0.3858(3)
C19 C 1.2694(5) 0.0536(4) 0.4000(4)
C20 C 1.2620(6) 0.0090(5) 0.4410(4)
C21 C 1.1814(7) 0.0053(4) 0.4698(3)
C22 C 1.1031(5) 0.0468(3) 0.4561(2)
C23 C 1.1056(3) 0.2424(3) 0.43350(18)
C24 C 1.1173(4) 0.2256(3) 0.4873(2)
C25 C 1.1871(5) 0.2592(4) 0.5171(3)
C26 C 1.2437(5) 0.3076(4) 0.4935(3)
C27 C 1.2332(4) 0.3240(3) 0.4408(3)
C28 C 1.1644(3) 0.2918(3) 0.4106(2)
C29 C 0.9496(3) 0.3256(2) 0.39620(17)
C30 C 0.9266(3) 0.3464(3) 0.4480(2)
C31 C 0.9218(5) 0.4168(4) 0.4598(3)
C32 C 0.9403(4) 0.4676(3) 0.4226(3)
C33 C 0.9626(4) 0.4476(3) 0.3710(3)
C34 C 0.9674(4) 0.3763(3) 0.3586(2)
C35 C 0.7865(3) 0.0514(3) 0.28027(17)
C36 C 0.6967(4) 0.0578(3) 0.26000(18)
C37 C 0.5706(3) 0.1491(4) 0.2560(2)
C38 C 0.5135(3) 0.1695(3) 0.3041(2)
C39 C 0.5358(4) 0.1470(3) 0.3555(2)
C40 C 0.4800(4) 0.1668(3) 0.3981(3)
C41 C 0.4016(4) 0.2075(4) 0.3908(3)
C42 C 0.3775(4) 0.2291(4) 0.3398(3)
C43 C 0.4340(4) 0.2105(3) 0.2975(3)
C44 C 0.8490(4) -0.0020(3) 0.25952(16)
C45 C 0.8054(4) -0.0720(3) 0.2412(2)
N1 N 0.6642(3) 0.1232(2) 0.26977(14)
O1 O 0.9333(2) 0.00410(19) 0.25264(12)
F1 F 0.7746(3) -0.06755(18) 0.19141(13)
F2 F 0.8672(2) -0.12411(18) 0.24258(13)
F3 F 0.7332(2) -0.09274(18) 0.27081(14)
H1 H 0.800(2) 0.304(2) 0.3488(13)
H2 H 0.672(3) 0.257(2) 0.3028(15)
H3 H 1.072(3) -0.004(3) 0.336(2)
H4 H 1.064(4) -0.130(3) 0.348(2)
H5 H 0.920(5) -0.169(5) 0.385(3)
H6 H 0.795(3) -0.089(2) 0.4112(14)
H7 H 0.813(3) 0.025(2) 0.3983(14)
H8 H 1.203(3) 0.133(3) 0.3585(18)
H9 H 1.330(4) 0.061(3) 0.382(2)
H10 H 1.312(5) -0.029(4) 0.452(3)
H11 H 1.160(4) -0.023(3) 0.502(2)
H12 H 1.045(3) 0.050(2) 0.4767(16)
H13 H 1.072(3) 0.190(3) 0.5055(17)
H14 H 1.198(4) 0.246(3) 0.559(3)
H15 H 1.293(4) 0.331(3) 0.517(2)
H16 H 1.262(3) 0.359(3) 0.4241(18)
H17 H 1.144(3) 0.307(3) 0.372(2)
H18 H 0.911(4) 0.301(4) 0.475(3)
H19 H 0.907(4) 0.429(4) 0.494(3)
H20 H 0.938(4) 0.516(3) 0.433(2)
H21 H 0.974(4) 0.489(3) 0.343(2)
H22 H 0.984(3) 0.363(3) 0.3244(19)
H23 H 0.659(3) 0.019(3) 0.2395(18)
H24 H 0.533(3) 0.108(2) 0.2354(16)
H25 H 0.583(3) 0.193(2) 0.2311(15)
H26 H 0.589(3) 0.113(3) 0.3622(18)
H27 H 0.505(4) 0.147(3) 0.433(2)
H28 H 0.359(4) 0.221(3) 0.423(2)
H29 H 0.320(4) 0.264(3) 0.333(2)
H30 H 0.427(2) 0.226(2) 0.2650(15)
loop_
_geom_bond_atom_site_label_1
_geom_bond_atom_site_label_2
_geom_bond_site_symmetry_1
_geom_bond_site_symmetry_2
C1 C2 1_555 1_555
C2 C3 1_555 1_555
C3 C4 1_555 1_555
C4 C10 1_555 1_555
C5 C6 1_555 1_555
C6 C7 1_555 1_555
C7 C8 1_555 1_555
C8 C9 1_555 1_555
C9 C1 1_555 1_555
C10 C5 1_555 1_555
C11 C1 1_555 1_555
C12 C11 1_555 1_555
C13 C12 1_555 1_555
C14 C13 1_555 1_555
C15 C14 1_555 1_555
C16 C11 1_555 1_555
C17 C2 1_555 1_555
C18 C17 1_555 1_555
C19 C18 1_555 1_555
C20 C19 1_555 1_555
C21 C20 1_555 1_555
C22 C17 1_555 1_555
C23 C3 1_555 1_555
C24 C23 1_555 1_555
C25 C24 1_555 1_555
C26 C25 1_555 1_555
C27 C26 1_555 1_555
C28 C23 1_555 1_555
C29 C4 1_555 1_555
C30 C29 1_555 1_555
C31 C30 1_555 1_555
C32 C31 1_555 1_555
C33 C32 1_555 1_555
C34 C29 1_555 1_555
C35 C8 1_555 1_555
C36 C35 1_555 1_555
C37 C38 1_555 1_555
C38 C39 1_555 1_555
C39 C40 1_555 1_555
C40 C41 1_555 1_555
C41 C42 1_555 1_555
C42 C43 1_555 1_555
C43 C38 1_555 1_555
C44 C35 1_555 1_555
C45 C44 1_555 1_555
N1 C7 1_555 1_555
O1 C44 1_555 1_555
F1 C45 1_555 1_555
F2 C45 1_555 1_555
F3 C45 1_555 1_555
H1 C5 1_555 1_555
H2 C6 1_555 1_555
H3 C12 1_555 1_555
H4 C13 1_555 1_555
H5 C14 1_555 1_555
H6 C15 1_555 1_555
H7 C16 1_555 1_555
H8 C18 1_555 1_555
H9 C19 1_555 1_555
H10 C20 1_555 1_555
H11 C21 1_555 1_555
H12 C22 1_555 1_555
H13 C24 1_555 1_555
H14 C25 1_555 1_555
H15 C26 1_555 1_555
H16 C27 1_555 1_555
H17 C28 1_555 1_555
H18 C30 1_555 1_555
H19 C31 1_555 1_555
H20 C32 1_555 1_555
H21 C33 1_555 1_555
H22 C34 1_555 1_555
H23 C36 1_555 1_555
H24 C37 1_555 1_555
H25 C37 1_555 1_555
H26 C39 1_555 1_555
H27 C40 1_555 1_555
H28 C41 1_555 1_555
H29 C42 1_555 1_555
H30 C43 1_555 1_555
C9 C10 1_555 1_555
C15 C16 1_555 1_555
C21 C22 1_555 1_555
C27 C28 1_555 1_555
C33 C34 1_555 1_555
C36 N1 1_555 1_555
C37 N1 1_555 1_555

#END
