
#######################################################################
#
#                 Cambridge Crystallographic Data Centre
#                                CCDC 
#
#######################################################################
#
# If this CIF has been generated from an entry in the Cambridge 
# Structural Database, then it will include bibliographic, chemical, 
# crystal, experimental, refinement or atomic coordinate data resulting 
# from the CCDC's data processing and validation procedures.
#
#######################################################################

data_RETZOH
_chemical_formula_moiety         'C22 H13 O2 P1 S1'
_chemical_name_systematic        
"11-Phenyl-11H-[1]benzofuro[2',3':4,5]phospholo[3,2-b][1]benzofuran 11-sulfide"
_symmetry_cell_setting           triclinic
_symmetry_space_group_name_H-M   'P -1'
_symmetry_Int_Tables_number      2
_space_group_name_Hall           '-P 1'
loop_
_symmetry_equiv_pos_site_id
_symmetry_equiv_pos_as_xyz
1 x,y,z
2 -x,-y,-z
_cell_length_a                   13.099(1)
_cell_length_b                   13.122(2)
_cell_length_c                   13.604(2)
_cell_angle_alpha                117.831(4)
_cell_angle_beta                 117.735(4)
_cell_angle_gamma                91.969(5)
_cell_volume                     1733.11
_exptl_crystal_colour            yellow
_exptl_crystal_description       block
_cell_formula_units_Z            4
_exptl_crystal_recrystallization_method dichloromethane/pentane
loop_
_atom_site_label
_atom_site_type_symbol
_atom_site_fract_x
_atom_site_fract_y
_atom_site_fract_z
P1 P -0.18942(4) -0.55394(4) 0.17860(4)
S1 S -0.10785(4) -0.39129(4) 0.33876(4)
O1 O -0.52517(11) -0.68538(11) -0.11730(12)
O2 O -0.46427(11) -0.80413(11) 0.05625(12)
C1 C -0.32407(15) -0.57316(15) 0.03632(16)
C2 C -0.37144(15) -0.52889(15) -0.04986(16)
C3 C -0.32654(16) -0.43642(16) -0.05764(17)
H1 H -0.2460 -0.3859 0.0034
C4 C -0.40509(18) -0.42185(18) -0.15862(19)
H2 H -0.3766 -0.3603 -0.1645
C5 C -0.52620(18) -0.49784(18) -0.25177(18)
H3 H -0.5761 -0.4868 -0.3193
C6 C -0.57358(17) -0.58961(18) -0.24546(18)
H4 H -0.6541 -0.6402 -0.3068
C7 C -0.49460(16) -0.60146(16) -0.14330(17)
C8 C -0.41958(15) -0.66349(15) -0.00905(16)
C9 C -0.39197(15) -0.71731(14) 0.06785(17)
C10 C -0.27361(15) -0.67300(14) 0.17076(16)
C11 C -0.26638(16) -0.73825(14) 0.23330(17)
C12 C -0.38590(17) -0.81664(15) 0.16040(18)
C13 C -0.42017(19) -0.89507(16) 0.1887(2)
H5 H -0.5003 -0.9447 0.1393
C14 C -0.3287(2) -0.89580(17) 0.2945(2)
H6 H -0.3476 -0.9475 0.3169
C15 C -0.20850(19) -0.82066(16) 0.36864(19)
H7 H -0.1491 -0.8237 0.4388
C16 C -0.17599(17) -0.74138(15) 0.33936(18)
H8 H -0.0959 -0.6916 0.3893
C17 C -0.08892(14) -0.61412(14) 0.12710(16)
C18 C -0.08572(16) -0.73187(15) 0.08919(17)
H9 H -0.1383 -0.7835 0.0870
C19 C -0.00347(17) -0.77232(16) 0.05443(18)
H10 H -0.0011 -0.8509 0.0293
C20 C 0.07412(17) -0.69620(17) 0.0572(2)
H11 H 0.1290 -0.7235 0.0342
C21 C 0.07085(19) -0.57878(18) 0.0940(2)
H12 H 0.1233 -0.5278 0.0954
C22 C -0.01079(17) -0.53741(16) 0.1287(2)
H13 H -0.0133 -0.4590 0.1530
P2 P -0.26750(4) -0.13199(4) 0.67853(4)
S2 S -0.26994(4) -0.05332(4) 0.83883(4)
O3 O -0.43186(11) -0.09217(11) 0.38281(11)
O4 O -0.13972(12) 0.02054(11) 0.55615(12)
C23 C -0.39055(15) -0.13955(14) 0.53641(16)
C24 C -0.52066(16) -0.17847(14) 0.45044(16)
C25 C -0.62107(16) -0.23097(15) 0.44250(17)
H14 H -0.6106 -0.2502 0.5036
C26 C -0.73695(17) -0.25370(16) 0.34110(19)
H15 H -0.8047 -0.2883 0.3348
C27 C -0.75378(18) -0.22556(16) 0.24829(18)
H16 H -0.8326 -0.2434 0.1807
C28 C -0.65589(18) -0.17173(16) 0.25453(17)
H17 H -0.6667 -0.1524 0.1934
C29 C -0.54196(16) -0.14873(14) 0.35650(17)
C30 C -0.34561(16) -0.08939(14) 0.49084(16)
C31 C -0.21478(16) -0.04016(15) 0.56779(17)
C32 C -0.02314(17) 0.04630(15) 0.66015(18)
C33 C 0.08378(18) 0.10880(16) 0.6887(2)
H18 H 0.0843 0.1396 0.6396
C34 C 0.19041(18) 0.12311(17) 0.7947(2)
H19 H 0.2647 0.1644 0.8173
C35 C 0.18917(18) 0.07694(17) 0.8685(2)
H20 H 0.2626 0.0879 0.9386
C36 C 0.08088(16) 0.01532(16) 0.83925(18)
H21 H 0.0809 -0.0149 0.8889
C37 C -0.02848(16) -0.00028(14) 0.73327(17)
C38 C -0.15623(16) -0.05580(14) 0.67057(16)
C39 C -0.25892(15) -0.28411(14) 0.62690(16)
C40 C -0.33380(19) -0.36054(17) 0.6285(2)
H22 H -0.3880 -0.3337 0.6528
C41 C -0.3274(2) -0.47681(18) 0.5938(2)
H23 H -0.3773 -0.5278 0.5950
C42 C -0.24655(19) -0.51686(17) 0.5574(2)
H24 H -0.2419 -0.5944 0.5350
C43 C -0.17325(18) -0.44208(16) 0.55433(19)
H25 H -0.1198 -0.4696 0.5290
C44 C -0.17892(16) -0.32505(15) 0.58918(17)
H26 H -0.1293 -0.2746 0.5872
loop_
_geom_bond_atom_site_label_1
_geom_bond_atom_site_label_2
_geom_bond_site_symmetry_1
_geom_bond_site_symmetry_2
P1 S1 1_555 1_555
O1 C7 1_555 1_555
O2 C9 1_555 1_555
C1 P1 1_555 1_555
C2 C1 1_555 1_555
C3 C2 1_555 1_555
H1 C3 1_555 1_555
C4 C3 1_555 1_555
H2 C4 1_555 1_555
C5 C4 1_555 1_555
H3 C5 1_555 1_555
C6 C5 1_555 1_555
H4 C6 1_555 1_555
C7 C2 1_555 1_555
C8 O1 1_555 1_555
C9 C8 1_555 1_555
C10 P1 1_555 1_555
C11 C10 1_555 1_555
C12 O2 1_555 1_555
C13 C12 1_555 1_555
H5 C13 1_555 1_555
C14 C13 1_555 1_555
H6 C14 1_555 1_555
C15 C14 1_555 1_555
H7 C15 1_555 1_555
C16 C11 1_555 1_555
H8 C16 1_555 1_555
C17 P1 1_555 1_555
C18 C17 1_555 1_555
H9 C18 1_555 1_555
C19 C18 1_555 1_555
H10 C19 1_555 1_555
C20 C19 1_555 1_555
H11 C20 1_555 1_555
C21 C20 1_555 1_555
H12 C21 1_555 1_555
C22 C17 1_555 1_555
H13 C22 1_555 1_555
P2 S2 1_555 1_555
O3 C29 1_555 1_555
O4 C31 1_555 1_555
C23 P2 1_555 1_555
C24 C23 1_555 1_555
C25 C24 1_555 1_555
H14 C25 1_555 1_555
C26 C25 1_555 1_555
H15 C26 1_555 1_555
C27 C26 1_555 1_555
H16 C27 1_555 1_555
C28 C27 1_555 1_555
H17 C28 1_555 1_555
C29 C24 1_555 1_555
C30 O3 1_555 1_555
C31 C30 1_555 1_555
C32 O4 1_555 1_555
C33 C32 1_555 1_555
H18 C33 1_555 1_555
C34 C33 1_555 1_555
H19 C34 1_555 1_555
C35 C34 1_555 1_555
H20 C35 1_555 1_555
C36 C35 1_555 1_555
H21 C36 1_555 1_555
C37 C32 1_555 1_555
C38 P2 1_555 1_555
C39 P2 1_555 1_555
C40 C39 1_555 1_555
H22 C40 1_555 1_555
C41 C40 1_555 1_555
H23 C41 1_555 1_555
C42 C41 1_555 1_555
H24 C42 1_555 1_555
C43 C42 1_555 1_555
H25 C43 1_555 1_555
C44 C39 1_555 1_555
H26 C44 1_555 1_555
C1 C8 1_555 1_555
C6 C7 1_555 1_555
C9 C10 1_555 1_555
C11 C12 1_555 1_555
C15 C16 1_555 1_555
C21 C22 1_555 1_555
C23 C30 1_555 1_555
C28 C29 1_555 1_555
C31 C38 1_555 1_555
C36 C37 1_555 1_555
C37 C38 1_555 1_555
C43 C44 1_555 1_555

#END
