
#######################################################################
#
#                 Cambridge Crystallographic Data Centre
#                                CCDC 
#
#######################################################################
#
# If this CIF has been generated from an entry in the Cambridge 
# Structural Database, then it will include bibliographic, chemical, 
# crystal, experimental, refinement or atomic coordinate data resulting 
# from the CCDC's data processing and validation procedures.
#
#######################################################################

data_REVFEE
_chemical_formula_moiety         'C28 H24 N2 O6'
_chemical_name_systematic        
10-Methoxy-7-methyl-6-nitrobenzyl-6,12-isopropano-6H,12H,13H-(1)benzopyrano(4,3-d)(1,3)benzoxazocin-13-one
_symmetry_cell_setting           triclinic
_symmetry_space_group_name_H-M   'P -1'
_symmetry_Int_Tables_number      2
_space_group_name_Hall           '-P 1'
loop_
_symmetry_equiv_pos_site_id
_symmetry_equiv_pos_as_xyz
1 x,y,z
2 -x,-y,-z
_cell_length_a                   9.2966(8)
_cell_length_b                   10.9142(10)
_cell_length_c                   12.7458(12)
_cell_angle_alpha                87.153(2)
_cell_angle_beta                 69.584(2)
_cell_angle_gamma                73.540(2)
_cell_volume                     1160.6
_chemical_melting_point          '317-318 deg.C'
_cell_formula_units_Z            2
loop_
_atom_site_label
_atom_site_type_symbol
_atom_site_fract_x
_atom_site_fract_y
_atom_site_fract_z
O1 O 0.1976(2) 0.2074(1) 0.6494(1)
O2 O 0.0508(2) -0.1177(1) 0.6691(1)
O3 O -0.0675(2) -0.0871(2) 0.8518(1)
O4 O -0.6009(2) 0.2813(2) 1.0377(2)
O5 O 0.6223(2) 0.6327(2) 0.6046(2)
O6 O 0.4074(3) 0.7782(2) 0.6922(2)
N1 N -0.0420(2) 0.3685(2) 0.7427(1)
N2 N 0.4789(3) 0.6681(2) 0.6575(2)
C1 C 0.1456(2) 0.1022(2) 0.6615(2)
C2 C 0.1951(2) 0.0245(2) 0.5595(2)
C3 C 0.2836(2) 0.0551(2) 0.4537(2)
C4 C 0.3167(3) -0.0207(2) 0.3608(2)
C5 C 0.2618(3) -0.1280(2) 0.3711(2)
C6 C 0.1750(3) -0.1594(2) 0.4741(2)
C7 C 0.1411(2) -0.0835(2) 0.5679(2)
C8 C 0.0073(2) -0.0461(2) 0.7670(2)
C9 C 0.0537(2) 0.0697(2) 0.7606(2)
C10 C -0.0045(2) 0.1535(2) 0.8665(2)
C11 C -0.1703(2) 0.2380(2) 0.8834(2)
C12 C -0.3092(2) 0.2154(2) 0.9593(2)
C13 C -0.4573(2) 0.2949(2) 0.9661(2)
C14 C -0.4680(3) 0.3969(2) 0.8992(2)
C15 C -0.3315(2) 0.4221(2) 0.8260(2)
C16 C -0.1811(2) 0.3431(2) 0.8167(2)
C17 C 0.1151(2) 0.3046(2) 0.7444(2)
C18 C 0.1091(2) 0.2361(2) 0.8549(2)
C19 C 0.2754(2) 0.1518(2) 0.8474(2)
C20 C 0.0450(3) 0.3297(2) 0.9568(2)
C21 C 0.2159(2) 0.3982(2) 0.7194(2)
C22 C 0.1449(3) 0.5219(2) 0.7672(2)
C23 C 0.2309(3) 0.6099(2) 0.7479(2)
C24 C 0.3890(3) 0.5733(2) 0.6797(2)
C25 C 0.4638(3) 0.4506(2) 0.6322(2)
C26 C 0.3760(2) 0.3636(2) 0.6524(2)
C27 C -0.0510(3) 0.4402(2) 0.6441(2)
C28 C -0.5987(3) 0.1819(3) 1.1108(2)
H1 H 0.3204 0.1271 0.4462
H2 H 0.3761 0.0000 0.2904
H3 H 0.2842 -0.1787 0.3076
H4 H 0.1389 -0.2317 0.4810
H5 H -0.0065 0.0997 0.9306
H6 H -0.3019 0.1468 1.0053
H7 H -0.5680 0.4496 0.9032
H8 H -0.3404 0.4928 0.7823
H9 H 0.3180 0.0920 0.7838
H10 H 0.2673 0.1059 0.9145
H11 H 0.3451 0.2046 0.8392
H12 H 0.0436 0.2829 1.0227
H13 H -0.0618 0.3804 0.9654
H14 H 0.1127 0.3846 0.9462
H15 H 0.0376 0.5457 0.8130
H16 H 0.1828 0.6925 0.7804
H17 H 0.5715 0.4270 0.5874
H18 H 0.4251 0.2807 0.6207
H19 H -0.1611 0.4781 0.6521
H20 H 0.0014 0.3834 0.5782
H21 H 0.0010 0.5063 0.6372
H22 H -0.7066 0.1835 1.1554
H23 H -0.5429 0.1923 1.1590
H24 H -0.5452 0.1015 1.0684
loop_
_geom_bond_atom_site_label_1
_geom_bond_atom_site_label_2
_geom_bond_site_symmetry_1
_geom_bond_site_symmetry_2
O1 C1 1_555 1_555
O2 C7 1_555 1_555
O3 C8 1_555 1_555
O4 C13 1_555 1_555
O5 N2 1_555 1_555
O6 N2 1_555 1_555
N1 C16 1_555 1_555
N2 C24 1_555 1_555
C1 C2 1_555 1_555
C2 C3 1_555 1_555
C3 C4 1_555 1_555
C4 C5 1_555 1_555
C5 C6 1_555 1_555
C6 C7 1_555 1_555
C7 C2 1_555 1_555
C8 O2 1_555 1_555
C9 C1 1_555 1_555
C10 C9 1_555 1_555
C11 C10 1_555 1_555
C12 C11 1_555 1_555
C13 C12 1_555 1_555
C14 C13 1_555 1_555
C15 C14 1_555 1_555
C16 C11 1_555 1_555
C17 O1 1_555 1_555
C18 C10 1_555 1_555
C19 C18 1_555 1_555
C20 C18 1_555 1_555
C21 C17 1_555 1_555
C22 C21 1_555 1_555
C23 C22 1_555 1_555
C24 C23 1_555 1_555
C25 C24 1_555 1_555
C26 C21 1_555 1_555
C27 N1 1_555 1_555
C28 O4 1_555 1_555
H1 C3 1_555 1_555
H2 C4 1_555 1_555
H3 C5 1_555 1_555
H4 C6 1_555 1_555
H5 C10 1_555 1_555
H6 C12 1_555 1_555
H7 C14 1_555 1_555
H8 C15 1_555 1_555
H9 C19 1_555 1_555
H10 C19 1_555 1_555
H11 C19 1_555 1_555
H12 C20 1_555 1_555
H13 C20 1_555 1_555
H14 C20 1_555 1_555
H15 C22 1_555 1_555
H16 C23 1_555 1_555
H17 C25 1_555 1_555
H18 C26 1_555 1_555
H19 C27 1_555 1_555
H20 C27 1_555 1_555
H21 C27 1_555 1_555
H22 C28 1_555 1_555
H23 C28 1_555 1_555
H24 C28 1_555 1_555
N1 C17 1_555 1_555
C8 C9 1_555 1_555
C15 C16 1_555 1_555
C17 C18 1_555 1_555
C25 C26 1_555 1_555

#END
