
#######################################################################
#
#                 Cambridge Crystallographic Data Centre
#                                CCDC 
#
#######################################################################
#
# If this CIF has been generated from an entry in the Cambridge 
# Structural Database, then it will include bibliographic, chemical, 
# crystal, experimental, refinement or atomic coordinate data resulting 
# from the CCDC's data processing and validation procedures.
#
#######################################################################

data_REVFAA
_chemical_formula_moiety         'C25 H18 N2 O5'
_chemical_name_systematic        
7-Methyl-6-(4-nitrophenyl)-6,12-methano-6H,12H,13H-(1)benzopyrano(4,3-d)(1,3)benzoxazocin-13-one
_symmetry_cell_setting           monoclinic
_symmetry_space_group_name_H-M   'P 21/n'
_symmetry_Int_Tables_number      14
_space_group_name_Hall           '-P 2yn'
loop_
_symmetry_equiv_pos_site_id
_symmetry_equiv_pos_as_xyz
1 x,y,z
2 1/2-x,1/2+y,1/2-z
3 -x,-y,-z
4 1/2+x,1/2-y,1/2+z
_cell_length_a                   10.4596(17)
_cell_length_b                   14.076(2)
_cell_length_c                   13.307(2)
_cell_angle_alpha                90
_cell_angle_beta                 91.616(4)
_cell_angle_gamma                90
_cell_volume                     1958.4
_chemical_melting_point          '210-211 deg.C'
_cell_formula_units_Z            4
loop_
_atom_site_label
_atom_site_type_symbol
_atom_site_fract_x
_atom_site_fract_y
_atom_site_fract_z
O1 O 0.1864(2) 0.7221(4) 0.9555(2)
O2 O 0.2482(3) 0.4337(4) 0.9766(3)
O3 O 0.4075(3) 0.4547(4) 1.0851(3)
O4 O 0.1717(3) 1.1589(4) 0.7393(2)
O5 O 0.3190(5) 1.2128(5) 0.8415(3)
N1 N 0.2176(3) 0.8051(4) 1.1100(2)
N2 N 0.2499(4) 1.1484(5) 0.8087(3)
C1 C 0.2107(4) 0.6275(6) 0.9673(3)
C2 C 0.1230(4) 0.5676(5) 0.9119(3)
C3 C 0.0197(3) 0.5968(5) 0.8519(3)
C4 C -0.0543(5) 0.5302(7) 0.8014(4)
C5 C -0.0279(5) 0.4371(7) 0.8063(4)
C6 C 0.0752(5) 0.4035(6) 0.8672(4)
C7 C 0.1486(4) 0.4709(6) 0.9183(3)
C8 C 0.3275(4) 0.4938(7) 1.0337(4)
C9 C 0.3069(4) 0.5936(6) 1.0249(3)
C10 C 0.3984(3) 0.6603(5) 1.0798(3)
C11 C 0.3505(3) 0.6811(5) 1.1845(3)
C12 C 0.3909(4) 0.6312(6) 1.2682(3)
C13 C 0.3453(5) 0.6528(6) 1.3626(3)
C14 C 0.2609(5) 0.7258(6) 1.3723(3)
C15 C 0.2186(4) 0.7761(6) 1.2903(3)
C16 C 0.2622(3) 0.7556(5) 1.1935(3)
C17 C 0.2682(3) 0.7903(5) 1.0113(3)
C18 C 0.4046(4) 0.7503(5) 1.0218(3)
C19 C 0.0944(4) 0.8532(6) 1.1138(3)
C20 C 0.2654(3) 0.8820(5) 0.9523(3)
C21 C 0.3237(4) 0.9623(6) 0.9952(3)
C22 C 0.3243(4) 1.0466(6) 0.9479(3)
C23 C 0.2597(4) 1.0572(6) 0.8559(3)
C24 C 0.2040(4) 0.9781(5) 0.8098(3)
C25 C 0.2086(4) 0.8904(5) 0.8575(3)
loop_
_geom_bond_atom_site_label_1
_geom_bond_atom_site_label_2
_geom_bond_site_symmetry_1
_geom_bond_site_symmetry_2
O1 C1 1_555 1_555
O2 C7 1_555 1_555
O3 C8 1_555 1_555
O4 N2 1_555 1_555
O5 N2 1_555 1_555
N1 C16 1_555 1_555
N2 C23 1_555 1_555
C1 C2 1_555 1_555
C2 C3 1_555 1_555
C3 C4 1_555 1_555
C4 C5 1_555 1_555
C5 C6 1_555 1_555
C6 C7 1_555 1_555
C7 C2 1_555 1_555
C8 O2 1_555 1_555
C9 C1 1_555 1_555
C10 C9 1_555 1_555
C11 C10 1_555 1_555
C12 C11 1_555 1_555
C13 C12 1_555 1_555
C14 C13 1_555 1_555
C15 C14 1_555 1_555
C16 C11 1_555 1_555
C17 O1 1_555 1_555
C18 C10 1_555 1_555
C19 N1 1_555 1_555
C20 C17 1_555 1_555
C21 C20 1_555 1_555
C22 C21 1_555 1_555
C23 C22 1_555 1_555
C24 C23 1_555 1_555
C25 C20 1_555 1_555
N1 C17 1_555 1_555
C8 C9 1_555 1_555
C15 C16 1_555 1_555
C17 C18 1_555 1_555
C24 C25 1_555 1_555

#END
