
#######################################################################
#
#                 Cambridge Crystallographic Data Centre
#                                CCDC 
#
#######################################################################
#
# If this CIF has been generated from an entry in the Cambridge 
# Structural Database, then it will include bibliographic, chemical, 
# crystal, experimental, refinement or atomic coordinate data resulting 
# from the CCDC's data processing and validation procedures.
#
#######################################################################

data_REVHUW
_chemical_formula_moiety         'C27 H32 N4 O6 S1'
_chemical_name_systematic        
'Benzofuran-2-carboxylic acid (S)-3-methyl-1-((4R,6R)-6-methyl-3-oxo-1-(pyridine-2-sulfonyl)azepan-4-yl)butylamide'
_symmetry_cell_setting           orthorhombic
_symmetry_space_group_name_H-M   'P 21 21 21'
_symmetry_Int_Tables_number      19
_space_group_name_Hall           'P 2ac 2ab'
loop_
_symmetry_equiv_pos_site_id
_symmetry_equiv_pos_as_xyz
1 x,y,z
2 1/2-x,-y,1/2+z
3 1/2+x,1/2-y,-z
4 -x,1/2+y,1/2-z
_cell_length_a                   10.47650(10)
_cell_length_b                   14.5345(2)
_cell_length_c                   18.5909(3)
_cell_angle_alpha                90
_cell_angle_beta                 90
_cell_angle_gamma                90
_cell_volume                     2830.85
_exptl_crystal_colour            colorless
_exptl_crystal_description       blade
_cell_formula_units_Z            4
_exptl_crystal_recrystallization_method ethanol
loop_
_atom_site_label
_atom_site_type_symbol
_atom_site_fract_x
_atom_site_fract_y
_atom_site_fract_z
S1 S -0.06134(4) 0.07723(3) 0.11578(2)
O1 O -0.07902(12) 0.42493(11) 0.02148(10)
O2 O 0.10200(14) 0.61768(10) 0.12905(8)
O3 O -0.14048(11) 0.04729(10) 0.05765(7)
O4 O -0.10732(18) 0.14675(10) 0.16373(9)
O5 O 0.27640(13) 0.30127(9) 0.12097(8)
O6 O 0.41662(13) 0.64061(9) 0.06044(7)
N1 N 0.12970(15) 0.39101(10) 0.02417(9)
N2 N 0.18586(14) 0.57902(10) 0.02131(8)
N3 N 0.07054(15) 0.11161(10) 0.08028(8)
N4 N 0.00327(17) -0.09506(11) 0.13169(10)
C1 C 0.03237(16) 0.44849(12) 0.01425(10)
C2 C 0.06635(16) 0.54629(12) -0.00882(10)
C3 C 0.19385(19) 0.61163(11) 0.08858(10)
C4 C 0.07462(18) 0.55291(12) -0.09090(10)
C5 C -0.0399(2) 0.51710(14) -0.13304(13)
C6 C -0.1607(2) 0.57115(17) -0.11756(19)
C7 C -0.0093(4) 0.5196(2) -0.21283(15)
C8 C 0.1619(2) 0.16290(14) 0.12392(13)
C9 C 0.19113(16) 0.25746(12) 0.09467(9)
C10 C 0.11133(16) 0.29237(11) 0.03238(10)
C11 C 0.1456(2) 0.24089(13) -0.03757(10)
C12 C 0.0806(2) 0.14823(13) -0.04920(10)
C13 C 0.11049(17) 0.07886(13) 0.00927(10)
C14 C 0.1208(3) 0.10782(19) -0.12149(13)
C15 C 0.0410(2) -0.16768(16) 0.1706(2)
C16 C 0.0565(3) -0.1664(3) 0.2434(2)
C17 C 0.0292(3) -0.0887(3) 0.27936(17)
C18 C -0.0114(2) -0.0112(2) 0.24253(12)
C19 C -0.02157(17) -0.01967(12) 0.16933(10)
C20 C 0.32177(19) 0.64181(12) 0.11144(10)
C21 C 0.3659(2) 0.66972(13) 0.17604(11)
C22 C 0.5993(2) 0.71785(16) 0.21150(13)
C23 C 0.7187(3) 0.72630(19) 0.18216(16)
C24 C 0.7413(2) 0.70698(18) 0.10973(18)
C25 C 0.6449(2) 0.67773(17) 0.06421(15)
C26 C 0.5264(2) 0.66878(13) 0.09539(12)
C27 C 0.4997(2) 0.68763(13) 0.16716(11)
H1 H 0.210(3) 0.4108(19) 0.0193(14)
H2 H 0.2516(19) 0.5711(13) -0.0003(10)
H3 H -0.0033 0.5882 0.0078
H4 H 0.0878 0.6183 -0.1039
H5 H 0.1512 0.5186 -0.1068
H6 H -0.0548 0.4516 -0.1189
H7 H -0.2317 0.5451 -0.1452
H8 H -0.1481 0.6356 -0.1314
H9 H -0.1802 0.5677 -0.0661
H10 H -0.0813 0.4942 -0.2401
H11 H 0.0673 0.4828 -0.2222
H12 H 0.0058 0.5833 -0.2278
H13 H 0.2423 0.1273 0.1270
H14 H 0.1275 0.1692 0.1733
H15 H 0.0194 0.2807 0.0435
H16 H 0.1243 0.2812 -0.0788
H17 H 0.2391 0.2311 -0.0383
H18 H -0.0138 0.1584 -0.0501
H19 H 0.0663 0.0203 -0.0016
H20 H 0.2035 0.0667 0.0098
H21 H 0.1018 0.1520 -0.1599
H22 H 0.0737 0.0506 -0.1302
H23 H 0.2126 0.0949 -0.1208
H24 H 0.0581 -0.2236 0.1460
H25 H 0.0860 -0.2194 0.2682
H26 H 0.0378 -0.0869 0.3302
H27 H -0.0311 0.0446 0.2666
H28 H 0.3177 0.6762 0.2190
H29 H 0.5845 0.7321 0.2607
H30 H 0.7876 0.7457 0.2117
H31 H 0.8252 0.7141 0.0911
H32 H 0.6595 0.6647 0.0148
loop_
_geom_bond_atom_site_label_1
_geom_bond_atom_site_label_2
_geom_bond_site_symmetry_1
_geom_bond_site_symmetry_2
S1 O3 1_555 1_555
O1 C1 1_555 1_555
O2 C3 1_555 1_555
O4 S1 1_555 1_555
O5 C9 1_555 1_555
O6 C20 1_555 1_555
N1 C1 1_555 1_555
N2 C2 1_555 1_555
N3 S1 1_555 1_555
N4 C15 1_555 1_555
C1 C2 1_555 1_555
C2 C4 1_555 1_555
C3 N2 1_555 1_555
C4 C5 1_555 1_555
C5 C6 1_555 1_555
C6 H7 1_555 1_555
C7 C5 1_555 1_555
C8 N3 1_555 1_555
C9 C8 1_555 1_555
C10 N1 1_555 1_555
C11 C10 1_555 1_555
C12 C11 1_555 1_555
C13 N3 1_555 1_555
C14 C12 1_555 1_555
C15 C16 1_555 1_555
C16 C17 1_555 1_555
C17 C18 1_555 1_555
C18 C19 1_555 1_555
C19 S1 1_555 1_555
C20 C3 1_555 1_555
C21 C20 1_555 1_555
C22 C23 1_555 1_555
C23 C24 1_555 1_555
C24 C25 1_555 1_555
C25 C26 1_555 1_555
C26 O6 1_555 1_555
C27 C21 1_555 1_555
H1 N1 1_555 1_555
H2 N2 1_555 1_555
H3 C2 1_555 1_555
H4 C4 1_555 1_555
H5 C4 1_555 1_555
H6 C5 1_555 1_555
H8 C6 1_555 1_555
H9 C6 1_555 1_555
H10 C7 1_555 1_555
H11 C7 1_555 1_555
H12 C7 1_555 1_555
H13 C8 1_555 1_555
H14 C8 1_555 1_555
H15 C10 1_555 1_555
H16 C11 1_555 1_555
H17 C11 1_555 1_555
H18 C12 1_555 1_555
H19 C13 1_555 1_555
H20 C13 1_555 1_555
H21 C14 1_555 1_555
H22 C14 1_555 1_555
H23 C14 1_555 1_555
H24 C15 1_555 1_555
H25 C16 1_555 1_555
H26 C17 1_555 1_555
H27 C18 1_555 1_555
H28 C21 1_555 1_555
H29 C22 1_555 1_555
H30 C23 1_555 1_555
H31 C24 1_555 1_555
H32 C25 1_555 1_555
N4 C19 1_555 1_555
C9 C10 1_555 1_555
C12 C13 1_555 1_555
C22 C27 1_555 1_555
C26 C27 1_555 1_555

#END
