
#######################################################################
#
#                 Cambridge Crystallographic Data Centre
#                                CCDC 
#
#######################################################################
#
# If this CIF has been generated from an entry in the Cambridge 
# Structural Database, then it will include bibliographic, chemical, 
# crystal, experimental, refinement or atomic coordinate data resulting 
# from the CCDC's data processing and validation procedures.
#
#######################################################################

data_REVHOS
_chemical_formula_moiety         'C21 H17 N3 O1'
_chemical_name_systematic        
8,10,13-trimethylindolo[2',3':3,4]pyrido[2,1-b]quinazolin-5(13H)-one
_symmetry_cell_setting           monoclinic
_symmetry_space_group_name_H-M   'P 21/n'
_symmetry_Int_Tables_number      14
_space_group_name_Hall           '-P 2yn'
loop_
_symmetry_equiv_pos_site_id
_symmetry_equiv_pos_as_xyz
1 x,y,z
2 1/2-x,1/2+y,1/2-z
3 -x,-y,-z
4 1/2+x,1/2-y,1/2+z
_cell_length_a                   7.4255(14)
_cell_length_b                   9.3666(17)
_cell_length_c                   22.949(4)
_cell_angle_alpha                90
_cell_angle_beta                 94.428(3)
_cell_angle_gamma                90
_cell_volume                     1591.38
_exptl_crystal_colour            colorless
_exptl_crystal_description       needle
_cell_formula_units_Z            4
loop_
_atom_site_label
_atom_site_type_symbol
_atom_site_fract_x
_atom_site_fract_y
_atom_site_fract_z
N1 N 0.15171(15) 0.22762(12) 0.04655(5)
N2 N 0.18090(15) 0.03582(12) 0.11589(5)
C1 C 0.24135(16) -0.00273(14) 0.01580(6)
C2 C 0.24240(17) 0.04555(15) -0.04169(6)
N3 N 0.29200(15) -0.14487(12) 0.01875(5)
C3 C 0.10280(18) 0.27519(15) 0.14758(6)
C4 C 0.13414(17) 0.12944(16) 0.15827(6)
C5 C 0.19061(16) 0.08571(13) 0.06281(6)
O1 O 0.08811(19) 0.45564(11) 0.07496(5)
C6 C 0.19097(18) 0.18971(15) -0.05570(6)
C7 C 0.15031(19) 0.27546(15) -0.01127(6)
H1 H 0.120145 0.370132 -0.019412
C8 C 0.29796(17) -0.07230(15) -0.07599(6)
C9 C 0.11192(19) 0.33086(15) 0.08926(6)
C10 C 0.1184(2) 0.07737(18) 0.21518(7)
H2 H 0.135046 -0.019399 0.222914
C11 C 0.0510(2) 0.3134(2) 0.24873(7)
H3 H 0.024874 0.374034 0.279035
C12 C 0.32654(18) -0.18778(16) -0.03669(7)
C13 C 0.0624(2) 0.36649(18) 0.19343(7)
H4 H 0.043418 0.463244 0.186242
C14 C 0.32686(18) -0.09263(18) -0.13521(7)
H5 H 0.307454 -0.017692 -0.161534
C15 C 0.3823(2) -0.32116(18) -0.05597(8)
H6 H 0.399871 -0.397560 -0.030269
C16 C 0.1744(2) 0.24439(18) -0.11744(7)
H7 H 0.288259 0.234282 -0.134189
H8 H 0.140474 0.343292 -0.117536
H9 H 0.083887 0.190518 -0.140047
C17 C 0.3177(2) -0.23700(17) 0.07001(7)
H10 H 0.319588 -0.179892 0.104791
H11 H 0.430132 -0.287265 0.069158
H12 H 0.220287 -0.304423 0.069802
C18 C 0.0788(2) 0.1680(2) 0.25934(7)
H13 H 0.070296 0.132189 0.296825
C19 C 0.4103(2) -0.3355(2) -0.11427(9)
H14 H 0.448450 -0.423391 -0.127580
C20 C 0.3839(2) -0.2234(2) -0.15445(8)
C21 C 0.4173(2) -0.2460(2) -0.21794(9)
H15 H 0.359671 -0.171353 -0.241156
H16 H 0.368683 -0.336697 -0.230746
H17 H 0.544919 -0.244464 -0.222224
loop_
_geom_bond_atom_site_label_1
_geom_bond_atom_site_label_2
_geom_bond_site_symmetry_1
_geom_bond_site_symmetry_2
N1 C5 1_555 1_555
N2 C4 1_555 1_555
C1 C2 1_555 1_555
C2 C6 1_555 1_555
N3 C1 1_555 1_555
C3 C4 1_555 1_555
C4 C10 1_555 1_555
C5 N2 1_555 1_555
O1 C9 1_555 1_555
C6 C7 1_555 1_555
C7 N1 1_555 1_555
H1 C7 1_555 1_555
C8 C2 1_555 1_555
C9 N1 1_555 1_555
C10 H2 1_555 1_555
C11 H3 1_555 1_555
C12 N3 1_555 1_555
C13 C3 1_555 1_555
H4 C13 1_555 1_555
C14 C8 1_555 1_555
H5 C14 1_555 1_555
C15 C12 1_555 1_555
H6 C15 1_555 1_555
C16 C6 1_555 1_555
H7 C16 1_555 1_555
H8 C16 1_555 1_555
H9 C16 1_555 1_555
C17 N3 1_555 1_555
H10 C17 1_555 1_555
H11 C17 1_555 1_555
H12 C17 1_555 1_555
C18 C10 1_555 1_555
H13 C18 1_555 1_555
C19 C15 1_555 1_555
H14 C19 1_555 1_555
C20 C14 1_555 1_555
C21 C20 1_555 1_555
H15 C21 1_555 1_555
H16 C21 1_555 1_555
H17 C21 1_555 1_555
C1 C5 1_555 1_555
C3 C9 1_555 1_555
C8 C12 1_555 1_555
C11 C13 1_555 1_555
C11 C18 1_555 1_555
C19 C20 1_555 1_555

#END
