
#######################################################################
#
#                 Cambridge Crystallographic Data Centre
#                                CCDC 
#
#######################################################################
#
# If this CIF has been generated from an entry in the Cambridge 
# Structural Database, then it will include bibliographic, chemical, 
# crystal, experimental, refinement or atomic coordinate data resulting 
# from the CCDC's data processing and validation procedures.
#
#######################################################################

data_REVJEI
_chemical_formula_moiety         'C15 H20 N4 O3'
_chemical_name_systematic        
'Benzyl trans-5-azido-6-hydroxy-2-methylazepane-1-carboxylate'
_symmetry_cell_setting           monoclinic
_symmetry_space_group_name_H-M   'C 2/c'
_symmetry_Int_Tables_number      15
_space_group_name_Hall           '-C 2yn'
loop_
_symmetry_equiv_pos_site_id
_symmetry_equiv_pos_as_xyz
1 x,y,z
2 -x,y,1/2-z
3 1/2+x,1/2+y,z
4 1/2-x,1/2+y,1/2-z
5 -x,-y,-z
6 x,-y,1/2+z
7 1/2-x,1/2-y,-z
8 1/2+x,1/2-y,1/2+z
_cell_length_a                   12.505(9)
_cell_length_b                   11.412(11)
_cell_length_c                   22.001(11)
_cell_angle_alpha                90
_cell_angle_beta                 94.01(5)
_cell_angle_gamma                90
_cell_volume                     3132.01
_exptl_crystal_colour            colorless
_exptl_crystal_description       block
_cell_formula_units_Z            8
loop_
_atom_site_label
_atom_site_type_symbol
_atom_site_fract_x
_atom_site_fract_y
_atom_site_fract_z
O1 O 0.7648(2) 0.1960(2) 0.4322(1)
O2 O 0.7172(2) 0.1722(2) 0.3322(1)
O3 O 0.6184(2) 0.3934(2) 0.4653(1)
N1 N 0.5881(2) 0.1826(2) 0.3981(1)
N2 N 0.3369(2) 0.3249(2) 0.4736(1)
N3 N 0.2564(3) 0.3852(2) 0.4685(1)
N4 N 0.1776(3) 0.4336(3) 0.4665(2)
C1 C 0.6947(3) 0.1844(3) 0.3916(1)
C2 C 0.5527(3) 0.1932(3) 0.4599(1)
C3 C 0.5304(3) 0.3201(2) 0.4772(1)
C4 C 0.4321(3) 0.3746(2) 0.4439(1)
C5 C 0.4168(3) 0.3545(3) 0.3748(1)
C6 C 0.4046(3) 0.2276(3) 0.3554(1)
C7 C 0.5083(3) 0.1623(3) 0.3465(1)
C8 C 0.4895(4) 0.0314(3) 0.3372(2)
C9 C 0.8298(3) 0.1797(3) 0.3223(1)
C10 C 0.8403(3) 0.1541(3) 0.2556(1)
C11 C 0.8722(3) 0.2408(3) 0.2169(1)
C12 C 0.8835(3) 0.2164(3) 0.1556(1)
C13 C 0.8640(3) 0.1045(3) 0.1335(1)
C14 C 0.8324(3) 0.0179(3) 0.1717(1)
C15 C 0.8206(3) 0.0418(3) 0.2330(1)
H1 H 0.6087 0.1606 0.4892
H2 H 0.4867 0.1463 0.4630
H3 H 0.5207 0.3229 0.5219
H4 H 0.4343 0.4611 0.4515
H5 H 0.3523 0.3980 0.3589
H6 H 0.4791 0.3881 0.3556
H7 H 0.3593 0.2247 0.3167
H8 H 0.3659 0.1854 0.3865
H9 H 0.5384 0.1938 0.3089
H10 H 0.5579 -0.0074 0.3313
H11 H 0.4402 0.0189 0.3011
H12 H 0.4583 -0.0015 0.3731
H13 H 0.8710 0.1218 0.3480
H14 H 0.8574 0.2590 0.3327
H15 H 0.8865 0.3175 0.2321
H16 H 0.9046 0.2766 0.1291
H17 H 0.8725 0.0874 0.0918
H18 H 0.8186 -0.0588 0.1563
H19 H 0.7990 -0.0185 0.2592
H20 H 0.6780(50) 0.3730(60) 0.4890(30)
loop_
_geom_bond_atom_site_label_1
_geom_bond_atom_site_label_2
_geom_bond_site_symmetry_1
_geom_bond_site_symmetry_2
O1 C1 1_555 1_555
O2 C1 1_555 1_555
O3 C3 1_555 1_555
N1 C1 1_555 1_555
N2 N3 1_555 1_555
N3 N4 1_555 1_555
C2 N1 1_555 1_555
C3 C2 1_555 1_555
C4 N2 1_555 1_555
C5 C4 1_555 1_555
C6 C5 1_555 1_555
C7 N1 1_555 1_555
C8 C7 1_555 1_555
C9 O2 1_555 1_555
C10 C9 1_555 1_555
C11 C10 1_555 1_555
C12 C11 1_555 1_555
C13 C12 1_555 1_555
C14 C13 1_555 1_555
C15 C10 1_555 1_555
H1 C2 1_555 1_555
H2 C2 1_555 1_555
H3 C3 1_555 1_555
H4 C4 1_555 1_555
H5 C5 1_555 1_555
H6 C5 1_555 1_555
H7 C6 1_555 1_555
H8 C6 1_555 1_555
H9 C7 1_555 1_555
H10 C8 1_555 1_555
H11 C8 1_555 1_555
H12 C8 1_555 1_555
H13 C9 1_555 1_555
H14 C9 1_555 1_555
H15 C11 1_555 1_555
H16 C12 1_555 1_555
H17 C13 1_555 1_555
H18 C14 1_555 1_555
H19 C15 1_555 1_555
H20 O3 1_555 1_555
C3 C4 1_555 1_555
C6 C7 1_555 1_555
C14 C15 1_555 1_555

#END
