
#######################################################################
#
#                 Cambridge Crystallographic Data Centre
#                                CCDC 
#
#######################################################################
#
# If this CIF has been generated from an entry in the Cambridge 
# Structural Database, then it will include bibliographic, chemical, 
# crystal, experimental, refinement or atomic coordinate data resulting 
# from the CCDC's data processing and validation procedures.
#
#######################################################################

data_REVNUE
_chemical_formula_moiety         'C17 H12 N2 O1'
_chemical_name_systematic        
4-methyl-2-phenyl[1]benzofuro[3,2-d]pyrimidine
_symmetry_cell_setting           orthorhombic
_symmetry_space_group_name_H-M   'P b c a'
_symmetry_Int_Tables_number      61
_space_group_name_Hall           '-P 2ac 2ab'
loop_
_symmetry_equiv_pos_site_id
_symmetry_equiv_pos_as_xyz
1 x,y,z
2 1/2-x,-y,1/2+z
3 -x,1/2+y,1/2-z
4 1/2+x,1/2-y,-z
5 -x,-y,-z
6 1/2+x,y,1/2-z
7 x,1/2-y,1/2+z
8 1/2-x,1/2+y,z
_cell_length_a                   13.4110(6)
_cell_length_b                   10.1144(4)
_cell_length_c                   18.3473(10)
_cell_angle_alpha                90
_cell_angle_beta                 90
_cell_angle_gamma                90
_cell_volume                     2488.71
_exptl_crystal_colour            colorless
_exptl_crystal_description       Acicular
_cell_formula_units_Z            8
loop_
_atom_site_label
_atom_site_type_symbol
_atom_site_fract_x
_atom_site_fract_y
_atom_site_fract_z
C1 C 0.3727(2) 0.5894(3) 0.37963(17)
C2 C 0.3126(2) 0.5088(3) 0.41961(17)
C3 C 0.2477(3) 0.3614(3) 0.4978(2)
C4 C 0.2395(3) 0.2640(3) 0.5511(2)
H1 H 0.2963 0.2269 0.5744
C5 C 0.1433(3) 0.2244(3) 0.5680(2)
H2 H 0.1333 0.1591 0.6046
C6 C 0.0607(2) 0.2784(3) 0.53246(18)
H3 H -0.0043 0.2490 0.5450
C7 C 0.0722(3) 0.3739(3) 0.47944(18)
H4 H 0.0158 0.4092 0.4550
C8 C 0.1674(3) 0.4176(3) 0.46233(18)
C9 C 0.2088(3) 0.5152(3) 0.41270(18)
C10 C 0.2267(2) 0.6777(3) 0.33048(18)
C11 C 0.1851(3) 0.7776(3) 0.27946(18)
C12 C 0.0828(3) 0.7838(3) 0.26408(19)
H5 H 0.0380 0.7232 0.2862
C13 C 0.0476(3) 0.8795(4) 0.2161(2)
H6 H -0.0216 0.8831 0.2052
C14 C 0.1114(3) 0.9689(3) 0.18419(19)
H7 H 0.0862 1.0341 0.1518
C15 C 0.2114(3) 0.9638(3) 0.1993(2)
H8 H 0.2555 1.0259 0.1776
C16 C 0.2480(3) 0.8688(4) 0.2457(2)
H9 H 0.3176 0.8652 0.2550
C17 C 0.4838(2) 0.5810(3) 0.3823(2)
H10 H 0.5077 0.5271 0.3416
H11 H 0.5043 0.5403 0.4284
H12 H 0.5122 0.6700 0.3788
N1 N 0.3279(2) 0.6761(3) 0.33468(15)
N2 N 0.16403(19) 0.6002(3) 0.36712(15)
O1 O 0.33708(18) 0.4160(2) 0.47179(14)
loop_
_geom_bond_atom_site_label_1
_geom_bond_atom_site_label_2
_geom_bond_site_symmetry_1
_geom_bond_site_symmetry_2
C1 C2 1_555 1_555
C2 C9 1_555 1_555
C3 C4 1_555 1_555
C4 H1 1_555 1_555
C5 C4 1_555 1_555
H2 C5 1_555 1_555
C6 C5 1_555 1_555
H3 C6 1_555 1_555
C7 C6 1_555 1_555
H4 C7 1_555 1_555
C8 C3 1_555 1_555
C9 C8 1_555 1_555
C10 C11 1_555 1_555
C11 C12 1_555 1_555
C12 H5 1_555 1_555
C13 C12 1_555 1_555
H6 C13 1_555 1_555
C14 C13 1_555 1_555
H7 C14 1_555 1_555
C15 C14 1_555 1_555
H8 C15 1_555 1_555
C16 C11 1_555 1_555
H9 C16 1_555 1_555
C17 C1 1_555 1_555
H10 C17 1_555 1_555
H11 C17 1_555 1_555
H12 C17 1_555 1_555
N1 C1 1_555 1_555
N2 C9 1_555 1_555
O1 C2 1_555 1_555
C3 O1 1_555 1_555
C7 C8 1_555 1_555
C10 N1 1_555 1_555
C10 N2 1_555 1_555
C15 C16 1_555 1_555

#END
