
#######################################################################
#
#                 Cambridge Crystallographic Data Centre
#                                CCDC 
#
#######################################################################
#
# If this CIF has been generated from an entry in the Cambridge 
# Structural Database, then it will include bibliographic, chemical, 
# crystal, experimental, refinement or atomic coordinate data resulting 
# from the CCDC's data processing and validation procedures.
#
#######################################################################

data_REVPAM
_chemical_formula_moiety         'C17 H16 N2 O3 S1'
_chemical_name_systematic        
2-(5-methyl-4-((4-methylphenyl)sulfonyl)-1H-pyrazol-3-yl)phenol
_symmetry_cell_setting           monoclinic
_symmetry_space_group_name_H-M   'P 21/c'
_symmetry_Int_Tables_number      14
_space_group_name_Hall           '-P 2ybc'
loop_
_symmetry_equiv_pos_site_id
_symmetry_equiv_pos_as_xyz
1 x,y,z
2 -x,1/2+y,1/2-z
3 -x,-y,-z
4 x,1/2-y,1/2+z
_cell_length_a                   29.6762(12)
_cell_length_b                   13.3274(5)
_cell_length_c                   8.2384(3)
_cell_angle_alpha                90
_cell_angle_beta                 97.1880(10)
_cell_angle_gamma                90
_cell_volume                     3232.73
_exptl_crystal_colour            colorless
_exptl_crystal_description       Tabular
_cell_formula_units_Z            8
loop_
_atom_site_label
_atom_site_type_symbol
_atom_site_fract_x
_atom_site_fract_y
_atom_site_fract_z
S1 S 0.36982(2) 0.54830(4) 0.31856(6)
N1 N 0.24979(6) 0.62194(14) 0.4072(2)
H1 H 0.2239 0.6515 0.3866
N2 N 0.26078(6) 0.56190(13) 0.5404(2)
O1 O 0.37527(6) 0.44256(12) 0.2981(2)
O2 O 0.37312(6) 0.61183(13) 0.17829(17)
O3 O 0.34817(7) 0.58858(13) 0.83419(19)
H2 H 0.3583 0.5957 0.9307
C1 C 0.41163(7) 0.58729(18) 0.4765(2)
C2 C 0.41767(9) 0.6878(2) 0.5097(3)
H3 H 0.3988 0.7351 0.4530
C3 C 0.45223(10) 0.7178(3) 0.6287(4)
H4 H 0.4560 0.7857 0.6526
C4 C 0.48086(9) 0.6498(3) 0.7115(4)
C5 C 0.47363(10) 0.5497(3) 0.6797(4)
H5 H 0.4923 0.5027 0.7381
C6 C 0.43894(9) 0.5167(2) 0.5621(3)
H6 H 0.4344 0.4486 0.5418
C7 C 0.52055(11) 0.6832(4) 0.8353(5)
H7 H 0.5486 0.6656 0.7959
H8 H 0.5187 0.6504 0.9380
H9 H 0.5193 0.7546 0.8498
C8 C 0.28288(7) 0.63074(16) 0.3112(3)
C9 C 0.31801(7) 0.57255(15) 0.3868(2)
C10 C 0.30246(7) 0.53152(15) 0.5280(2)
C11 C 0.32695(7) 0.45969(16) 0.6438(2)
C12 C 0.32761(8) 0.35881(17) 0.6011(3)
H10 H 0.3116 0.3376 0.5029
C13 C 0.35161(9) 0.28980(19) 0.7017(3)
H11 H 0.3512 0.2223 0.6729
C14 C 0.37633(8) 0.3216(2) 0.8455(3)
H12 H 0.3933 0.2755 0.9124
C15 C 0.37607(8) 0.42081(19) 0.8905(3)
H13 H 0.3930 0.4417 0.9872
C16 C 0.35065(7) 0.48997(17) 0.7921(2)
C17 C 0.27748(9) 0.6931(2) 0.1607(3)
H14 H 0.2473 0.7201 0.1437
H15 H 0.2826 0.6524 0.0685
H16 H 0.2991 0.7470 0.1725
S2 S 0.18238(2) 0.41973(5) 0.23978(7)
N3 N 0.17953(6) 0.58612(14) -0.1547(2)
N4 N 0.21429(6) 0.52184(14) -0.1695(2)
H17 H 0.2303 0.5238 -0.2496
O4 O 0.22507(6) 0.37600(14) 0.3028(2)
O5 O 0.16144(6) 0.49191(13) 0.3358(2)
O6 O 0.16935(6) 0.73648(17) 0.1670(4)
H18 H 0.1675 0.7897 0.2156
C18 C 0.14350(8) 0.32038(18) 0.1944(3)
C19 C 0.15903(9) 0.2255(2) 0.1618(3)
H19 H 0.1899 0.2138 0.1617
C20 C 0.12820(11) 0.1481(2) 0.1294(3)
H20 H 0.1387 0.0842 0.1088
C21 C 0.08226(11) 0.1638(2) 0.1270(3)
C22 C 0.06738(10) 0.2588(3) 0.1611(4)
H21 H 0.0365 0.2703 0.1611
C23 C 0.09756(9) 0.3370(2) 0.1950(3)
H22 H 0.0870 0.4005 0.2181
C24 C 0.04866(14) 0.0787(3) 0.0836(5)
H23 H 0.0286 0.0735 0.1661
H24 H 0.0649 0.0168 0.0779
H25 H 0.0313 0.0921 -0.0204
C25 C 0.22131(7) 0.45532(17) -0.0475(3)
C26 C 0.18874(7) 0.47757(16) 0.0549(3)
C27 C 0.16360(7) 0.55915(16) -0.0173(3)
C28 C 0.12330(7) 0.61082(18) 0.0337(3)
C29 C 0.08071(8) 0.5701(2) -0.0087(3)
H26 H 0.0778 0.5097 -0.0655
C30 C 0.04228(9) 0.6176(3) 0.0315(4)
H27 H 0.0138 0.5892 0.0028
C31 C 0.04657(9) 0.7065(3) 0.1137(4)
H28 H 0.0207 0.7395 0.1391
C32 C 0.08830(9) 0.7475(3) 0.1591(4)
H29 H 0.0907 0.8079 0.2161
C33 C 0.12717(8) 0.6998(2) 0.1211(4)
C34 C 0.25736(9) 0.3775(2) -0.0385(4)
H30 H 0.2688 0.3728 -0.1422
H31 H 0.2450 0.3139 -0.0118
H32 H 0.2817 0.3955 0.0445
loop_
_geom_bond_atom_site_label_1
_geom_bond_atom_site_label_2
_geom_bond_site_symmetry_1
_geom_bond_site_symmetry_2
S1 O1 1_555 1_555
N1 H1 1_555 1_555
N2 N1 1_555 1_555
O2 S1 1_555 1_555
O3 H2 1_555 1_555
C1 S1 1_555 1_555
C2 C1 1_555 1_555
H3 C2 1_555 1_555
C3 C2 1_555 1_555
H4 C3 1_555 1_555
C4 C3 1_555 1_555
C5 C4 1_555 1_555
H5 C5 1_555 1_555
C6 C1 1_555 1_555
H6 C6 1_555 1_555
C7 C4 1_555 1_555
H7 C7 1_555 1_555
H8 C7 1_555 1_555
H9 C7 1_555 1_555
C8 N1 1_555 1_555
C9 S1 1_555 1_555
C10 N2 1_555 1_555
C11 C10 1_555 1_555
C12 C11 1_555 1_555
H10 C12 1_555 1_555
C13 C12 1_555 1_555
H11 C13 1_555 1_555
C14 C13 1_555 1_555
H12 C14 1_555 1_555
C15 C14 1_555 1_555
H13 C15 1_555 1_555
C16 O3 1_555 1_555
C17 C8 1_555 1_555
H14 C17 1_555 1_555
H15 C17 1_555 1_555
H16 C17 1_555 1_555
S2 O4 1_555 1_555
N3 N4 1_555 1_555
N4 H17 1_555 1_555
O5 S2 1_555 1_555
O6 H18 1_555 1_555
C18 S2 1_555 1_555
C19 C18 1_555 1_555
H19 C19 1_555 1_555
C20 C19 1_555 1_555
H20 C20 1_555 1_555
C21 C20 1_555 1_555
C22 C21 1_555 1_555
H21 C22 1_555 1_555
C23 C18 1_555 1_555
H22 C23 1_555 1_555
C24 C21 1_555 1_555
H23 C24 1_555 1_555
H24 C24 1_555 1_555
H25 C24 1_555 1_555
C25 N4 1_555 1_555
C26 S2 1_555 1_555
C27 N3 1_555 1_555
C28 C27 1_555 1_555
C29 C28 1_555 1_555
H26 C29 1_555 1_555
C30 C29 1_555 1_555
H27 C30 1_555 1_555
C31 C30 1_555 1_555
H28 C31 1_555 1_555
C32 C31 1_555 1_555
H29 C32 1_555 1_555
C33 O6 1_555 1_555
C34 C25 1_555 1_555
H30 C34 1_555 1_555
H31 C34 1_555 1_555
H32 C34 1_555 1_555
C5 C6 1_555 1_555
C8 C9 1_555 1_555
C9 C10 1_555 1_555
C11 C16 1_555 1_555
C15 C16 1_555 1_555
C22 C23 1_555 1_555
C25 C26 1_555 1_555
C26 C27 1_555 1_555
C28 C33 1_555 1_555
C32 C33 1_555 1_555

#END
