
#######################################################################
#
#                 Cambridge Crystallographic Data Centre
#                                CCDC 
#
#######################################################################
#
# If this CIF has been generated from an entry in the Cambridge 
# Structural Database, then it will include bibliographic, chemical, 
# crystal, experimental, refinement or atomic coordinate data resulting 
# from the CCDC's data processing and validation procedures.
#
#######################################################################

data_REVQIU
_chemical_formula_moiety         'C19 H12 F1 N1 O1'
_chemical_name_systematic        10-(4-Fluorophenyl)acridin-9(10H)-one
_symmetry_cell_setting           monoclinic
_symmetry_space_group_name_H-M   'P 21/c'
_symmetry_Int_Tables_number      14
_space_group_name_Hall           '-P 2ybc'
loop_
_symmetry_equiv_pos_site_id
_symmetry_equiv_pos_as_xyz
1 x,y,z
2 -x,1/2+y,1/2-z
3 -x,-y,-z
4 x,1/2-y,1/2+z
_cell_length_a                   9.5851(5)
_cell_length_b                   10.2428(5)
_cell_length_c                   14.3718(7)
_cell_angle_alpha                90
_cell_angle_beta                 102.4300(10)
_cell_angle_gamma                90
_cell_volume                     1377.92
_exptl_crystal_colour            'pale yellow'
_exptl_crystal_description       Columnar
_cell_formula_units_Z            4
loop_
_atom_site_label
_atom_site_type_symbol
_atom_site_fract_x
_atom_site_fract_y
_atom_site_fract_z
F1 F 0.04057(10) 0.63922(8) 0.88222(6)
O1 O 0.42113(9) -0.23473(8) 0.95129(7)
N1 N 0.24244(11) 0.13180(9) 0.91776(7)
C1 C 0.36574(12) -0.12465(11) 0.94091(9)
C2 C 0.36000(12) -0.04777(11) 0.85464(8)
C3 C 0.30241(12) 0.07930(11) 0.84619(8)
C4 C 0.18950(13) 0.26439(11) 0.90883(8)
C5 C 0.28380(13) 0.36706(11) 0.93657(8)
H1 H 0.3822 0.3503 0.9615
C6 C 0.23307(14) 0.49486(12) 0.92757(8)
H2 H 0.2959 0.5665 0.9458
C7 C 0.08972(14) 0.51468(12) 0.89155(9)
C8 C 0.04586(13) 0.28760(13) 0.87238(9)
H3 H -0.0174 0.2165 0.8531
C9 C -0.00577(14) 0.41455(14) 0.86397(10)
H4 H -0.1043 0.4318 0.8398
C10 C 0.41666(13) -0.09933(12) 0.77989(9)
H5 H 0.4542 -0.1855 0.7851
C11 C 0.41863(13) -0.02740(12) 0.69953(9)
H6 H 0.4569 -0.0634 0.6494
C12 C 0.36366(13) 0.09948(12) 0.69239(9)
H7 H 0.3659 0.1500 0.6373
C13 C 0.30634(13) 0.15237(12) 0.76375(8)
H8 H 0.2692 0.2387 0.7574
C14 C 0.30262(13) -0.06357(11) 1.01396(8)
C15 C 0.30594(14) -0.12981(12) 1.10013(9)
H9 H 0.3507 -0.2129 1.1102
C16 C 0.24594(15) -0.07691(13) 1.16974(9)
H10 H 0.2511 -0.1216 1.2283
C17 C 0.17687(15) 0.04400(13) 1.15338(9)
H11 H 0.1311 0.0791 1.2002
C18 C 0.17397(14) 0.11308(12) 1.07072(9)
H12 H 0.1276 0.1955 1.0614
C19 C 0.23986(13) 0.06130(11) 1.00010(8)
loop_
_geom_bond_atom_site_label_1
_geom_bond_atom_site_label_2
_geom_bond_site_symmetry_1
_geom_bond_site_symmetry_2
F1 C7 1_555 1_555
O1 C1 1_555 1_555
N1 C3 1_555 1_555
C1 C2 1_555 1_555
C2 C3 1_555 1_555
C3 C13 1_555 1_555
C4 N1 1_555 1_555
C5 C4 1_555 1_555
H1 C5 1_555 1_555
C6 C5 1_555 1_555
H2 C6 1_555 1_555
C7 C6 1_555 1_555
C8 C4 1_555 1_555
H3 C8 1_555 1_555
C9 C7 1_555 1_555
H4 C9 1_555 1_555
C10 C2 1_555 1_555
H5 C10 1_555 1_555
C11 C10 1_555 1_555
H6 C11 1_555 1_555
C12 C11 1_555 1_555
H7 C12 1_555 1_555
C13 C12 1_555 1_555
H8 C13 1_555 1_555
C14 C1 1_555 1_555
C15 C14 1_555 1_555
H9 C15 1_555 1_555
C16 C15 1_555 1_555
H10 C16 1_555 1_555
C17 C16 1_555 1_555
H11 C17 1_555 1_555
C18 C17 1_555 1_555
H12 C18 1_555 1_555
C19 N1 1_555 1_555
C8 C9 1_555 1_555
C14 C19 1_555 1_555
C18 C19 1_555 1_555

#END
