
#######################################################################
#
#                 Cambridge Crystallographic Data Centre
#                                CCDC 
#
#######################################################################
#
# If this CIF has been generated from an entry in the Cambridge 
# Structural Database, then it will include bibliographic, chemical, 
# crystal, experimental, refinement or atomic coordinate data resulting 
# from the CCDC's data processing and validation procedures.
#
#######################################################################

data_REVRAO
_chemical_formula_moiety         'C22 H20 N4 O4,H2 O1'
_chemical_name_systematic        
't-butyl 5-methyl-2-(4-nitrophenyl)-5H-pyrazino[2,3-b]indole-3-carboxylate monohydrate'
_symmetry_cell_setting           triclinic
_symmetry_space_group_name_H-M   'P -1'
_symmetry_Int_Tables_number      2
_space_group_name_Hall           '-P 1'
loop_
_symmetry_equiv_pos_site_id
_symmetry_equiv_pos_as_xyz
1 x,y,z
2 -x,-y,-z
_cell_length_a                   7.0232(9)
_cell_length_b                   8.8151(11)
_cell_length_c                   17.845(2)
_cell_angle_alpha                82.5800(11)
_cell_angle_beta                 89.9930(12)
_cell_angle_gamma                73.8609(12)
_cell_volume                     1051.62
_exptl_crystal_colour            colorless
_exptl_crystal_description       plate
_cell_formula_units_Z            2
loop_
_atom_site_label
_atom_site_type_symbol
_atom_site_fract_x
_atom_site_fract_y
_atom_site_fract_z
C1 C 0.7160(3) -0.0197(2) 0.08989(9)
C2 C 0.6330(3) -0.1022(2) 0.14539(10)
H1 H 0.5927 -0.1898 0.1355
C3 C 0.6108(2) -0.0522(2) 0.21596(9)
H2 H 0.5531 -0.1057 0.2537
C4 C 0.6739(2) 0.07752(18) 0.23122(9)
C5 C 0.7596(3) 0.1562(2) 0.17352(10)
H3 H 0.8042 0.242 0.1832
C6 C 0.7793(3) 0.1091(2) 0.10260(10)
H4 H 0.8343 0.1633 0.0642
C7 C 0.6623(2) 0.12497(17) 0.30821(8)
C8 C 0.6211(2) 0.28518(17) 0.32081(8)
C9 C 0.5366(2) 0.42490(18) 0.26049(9)
C10 C 0.2619(3) 0.5298(2) 0.16475(10)
C11 C 0.0929(3) 0.4606(3) 0.14838(14)
H5 H 0.1463 0.3557 0.1347
H6 H 0.0095 0.5277 0.1075
H7 H 0.0163 0.4548 0.1927
C12 C 0.3890(4) 0.5386(3) 0.09670(11)
H8 H 0.5025 0.5711 0.1103
H9 H 0.3129 0.6146 0.0567
H10 H 0.4322 0.4357 0.0799
C13 C 0.1853(3) 0.6878(2) 0.19524(12)
H11 H 0.1156 0.6727 0.2406
H12 H 0.0968 0.763 0.1581
H13 H 0.2949 0.7275 0.2062
C14 C 0.6932(2) 0.20920(17) 0.44444(8)
C15 C 0.7181(2) 0.04709(17) 0.43476(8)
C16 C 0.7614(2) -0.04399(18) 0.50890(9)
C17 C 0.7986(2) -0.2057(2) 0.53704(10)
H14 H 0.7984 -0.2806 0.5048
C18 C 0.8356(3) -0.2510(2) 0.61377(10)
H15 H 0.8607 -0.358 0.6334
C19 C 0.8359(3) -0.1393(2) 0.66230(10)
H16 H 0.8601 -0.1735 0.7138
C20 C 0.8015(2) 0.0204(2) 0.63622(9)
H17 H 0.8033 0.094 0.669
C21 C 0.7639(2) 0.06715(19) 0.55872(9)
C22 C 0.7237(3) 0.3640(2) 0.55049(11)
H18 H 0.7184 0.4487 0.5102
H19 H 0.8424 0.345 0.5812
H20 H 0.6101 0.3936 0.581
N1 N 0.7424(3) -0.0734(3) 0.01496(10)
N2 N 0.64209(18) 0.32961(15) 0.38888(7)
N3 N 0.70659(17) 0.00462(14) 0.36630(7)
N4 N 0.72396(19) 0.21958(15) 0.51888(7)
O1 O 0.7832(3) 0.0150(2) -0.03752(9)
O2 O 0.7207(4) -0.2030(3) 0.00808(10)
O3 O 0.6020(2) 0.53859(15) 0.24964(8)
O4 O 0.37957(16) 0.40677(12) 0.22551(6)
O5 O 0.8330(3) 0.6459(2) 0.36818(12)
H21 H 0.780(5) 0.7597(6) 0.359(2)
H22 H 0.754(4) 0.600(4) 0.3392(16)
loop_
_geom_bond_atom_site_label_1
_geom_bond_atom_site_label_2
_geom_bond_site_symmetry_1
_geom_bond_site_symmetry_2
C1 C2 1_555 1_555
C2 H1 1_555 1_555
C3 C2 1_555 1_555
H2 C3 1_555 1_555
C4 C3 1_555 1_555
C5 C4 1_555 1_555
H3 C5 1_555 1_555
C6 C1 1_555 1_555
H4 C6 1_555 1_555
C7 C4 1_555 1_555
C8 C7 1_555 1_555
C9 C8 1_555 1_555
C10 C11 1_555 1_555
C11 H5 1_555 1_555
H6 C11 1_555 1_555
H7 C11 1_555 1_555
C12 C10 1_555 1_555
H8 C12 1_555 1_555
H9 C12 1_555 1_555
H10 C12 1_555 1_555
C13 C10 1_555 1_555
H11 C13 1_555 1_555
H12 C13 1_555 1_555
H13 C13 1_555 1_555
C14 C15 1_555 1_555
C15 C16 1_555 1_555
C16 C17 1_555 1_555
C17 H14 1_555 1_555
C18 C17 1_555 1_555
H15 C18 1_555 1_555
C19 C18 1_555 1_555
H16 C19 1_555 1_555
C20 C19 1_555 1_555
H17 C20 1_555 1_555
C21 C16 1_555 1_555
C22 H18 1_555 1_555
H19 C22 1_555 1_555
H20 C22 1_555 1_555
N1 C1 1_555 1_555
N2 C8 1_555 1_555
N3 C7 1_555 1_555
N4 C14 1_555 1_555
O1 N1 1_555 1_555
O2 N1 1_555 1_555
O3 C9 1_555 1_555
O4 C9 1_555 1_555
O5 H21 1_555 1_555
H22 O5 1_555 1_555
C5 C6 1_555 1_555
C10 O4 1_555 1_555
C14 N2 1_555 1_555
C15 N3 1_555 1_555
C20 C21 1_555 1_555
C21 N4 1_555 1_555
C22 N4 1_555 1_555

#END
