
#######################################################################
#
#                 Cambridge Crystallographic Data Centre
#                                CCDC 
#
#######################################################################
#
# If this CIF has been generated from an entry in the Cambridge 
# Structural Database, then it will include bibliographic, chemical, 
# crystal, experimental, refinement or atomic coordinate data resulting 
# from the CCDC's data processing and validation procedures.
#
#######################################################################

data_REVWIB
_chemical_formula_moiety         'C35 H21 B2 F20 N1 O1'
_chemical_name_systematic        
'[({[3-(2,6-dimethyl-2,3,4,5-tetrahydropyridin-1-ium-1-yl)propyl][bis(pentafluorophenyl)]boranyl}oxy)methyl][bis(pentafluorophenyl)]boron'
_symmetry_cell_setting           monoclinic
_symmetry_space_group_name_H-M   'P 21/c'
_symmetry_Int_Tables_number      14
_space_group_name_Hall           '-P 2ybc'
loop_
_symmetry_equiv_pos_site_id
_symmetry_equiv_pos_as_xyz
1 x,y,z
2 -x,1/2+y,1/2-z
3 -x,-y,-z
4 x,1/2-y,1/2+z
_cell_length_a                   14.7977(3)
_cell_length_b                   12.9771(3)
_cell_length_c                   17.5752(5)
_cell_angle_alpha                90
_cell_angle_beta                 96.350(1)
_cell_angle_gamma                90
_cell_volume                     3354.28
_exptl_crystal_colour            colorless
_exptl_crystal_description       plate
_cell_formula_units_Z            4
loop_
_atom_site_label
_atom_site_type_symbol
_atom_site_fract_x
_atom_site_fract_y
_atom_site_fract_z
O1 O 0.75090(13) -0.26903(15) 0.00554(11)
C1 C 0.8875(2) -0.0266(2) 0.21128(19)
H1 H 0.8714 -0.0775 0.2495
H2 H 0.9435 0.0094 0.2330
C2 C 0.9061(2) -0.0831(2) 0.13819(18)
H3 H 0.9218 -0.0316 0.1003
H4 H 0.9597 -0.1282 0.1502
C3 C 0.8270(2) -0.1487(2) 0.10165(17)
H5 H 0.7731 -0.1035 0.0917
H6 H 0.8127 -0.2008 0.1397
C4 C 0.7262(2) -0.3333(2) -0.06335(18)
H7 H 0.7151 -0.4076 -0.0555
H8 H 0.7556 -0.3170 -0.1099
N1 N 0.81239(19) 0.0498(2) 0.19693(15)
C5 C 0.7299(3) 0.0311(3) 0.2084(2)
C6 C 0.6559(3) 0.1076(4) 0.1875(3)
H9 H 0.6192 0.1137 0.2311
H10 H 0.6156 0.0798 0.1435
C7 C 0.6855(4) 0.2139(4) 0.1668(3)
H11 H 0.7018 0.2545 0.2141
H12 H 0.6349 0.2495 0.1359
C8 C 0.7677(4) 0.2070(3) 0.1211(3)
H13 H 0.7508 0.1689 0.0729
H14 H 0.7872 0.2772 0.1080
C9 C 0.8443(3) 0.1527(3) 0.1676(2)
H15 H 0.8925 0.1383 0.1334
C10 C 0.7015(3) -0.0662(3) 0.2416(2)
H16 H 0.7408 -0.1223 0.2275
H17 H 0.6383 -0.0812 0.2219
H18 H 0.7065 -0.0600 0.2975
C11 C 0.8872(3) 0.2142(3) 0.2354(3)
H19 H 0.9157 0.2763 0.2171
H20 H 0.9334 0.1720 0.2652
H21 H 0.8403 0.2340 0.2678
B1 B 0.8408(2) -0.2079(3) 0.0233(2)
C12 C 0.8541(2) -0.1351(2) -0.05234(18)
F1 F 0.80225(13) 0.02007(13) 0.00136(10)
C13 C 0.8310(2) -0.0313(2) -0.05870(18)
F2 F 0.80677(15) 0.12612(14) -0.12540(12)
C14 C 0.8322(2) 0.0263(2) -0.1243(2)
F3 F 0.85543(18) 0.03607(17) -0.25396(12)
C15 C 0.8566(3) -0.0185(3) -0.1892(2)
F4 F 0.90437(16) -0.16587(17) -0.25048(12)
C16 C 0.8811(2) -0.1199(3) -0.18701(19)
F5 F 0.91001(13) -0.27328(14) -0.12297(11)
C17 C 0.8815(2) -0.1743(2) -0.11981(19)
C18 C 0.9235(2) -0.2929(2) 0.04124(17)
F6 F 1.03550(12) -0.17751(14) 0.00403(12)
C19 C 1.0136(2) -0.2701(2) 0.03278(18)
F7 F 1.17099(13) -0.30985(16) 0.04144(13)
C20 C 1.0854(2) -0.3365(3) 0.05201(19)
F8 F 1.13826(14) -0.49529(15) 0.10339(12)
C21 C 1.0688(2) -0.4310(3) 0.08275(18)
F9 F 0.96515(14) -0.55050(14) 0.12201(12)
C22 C 0.9814(2) -0.4575(2) 0.09245(18)
F10 F 0.82836(12) -0.42225(14) 0.08568(11)
C23 C 0.9115(2) -0.3896(2) 0.07235(17)
B2 B 0.6550(2) -0.2560(3) -0.0391(2)
C24 C 0.6344(2) -0.1481(2) -0.08196(19)
F11 F 0.60849(13) -0.06556(15) 0.03320(12)
C25 C 0.6123(2) -0.0607(2) -0.0433(2)
F12 F 0.58185(15) 0.11745(15) -0.03395(15)
C26 C 0.5976(2) 0.0346(3) -0.0768(2)
F13 F 0.59001(18) 0.13707(17) -0.18729(16)
C27 C 0.6021(2) 0.0450(3) -0.1534(2)
F14 F 0.63193(17) -0.02783(19) -0.27058(13)
C28 C 0.6234(2) -0.0391(3) -0.1955(2)
F15 F 0.66006(15) -0.21205(16) -0.20405(11)
C29 C 0.6383(2) -0.1331(3) -0.1596(2)
C30 C 0.5743(2) -0.3009(2) 0.00468(18)
F16 F 0.50544(13) -0.36249(16) -0.11414(12)
C31 C 0.5035(2) -0.3515(2) -0.03758(19)
F17 F 0.36250(14) -0.44086(17) -0.05095(14)
C32 C 0.4294(2) -0.3927(3) -0.0064(2)
F18 F 0.35481(13) -0.42336(17) 0.10281(14)
C33 C 0.4258(2) -0.3849(3) 0.0706(2)
F19 F 0.49076(14) -0.32926(16) 0.19096(12)
C34 C 0.4948(2) -0.3373(3) 0.1151(2)
F20 F 0.63193(13) -0.24818(16) 0.12882(11)
C35 C 0.5669(2) -0.2962(2) 0.08187(19)
loop_
_geom_bond_atom_site_label_1
_geom_bond_atom_site_label_2
_geom_bond_site_symmetry_1
_geom_bond_site_symmetry_2
O1 C4 1_555 1_555
C1 H1 1_555 1_555
H2 C1 1_555 1_555
C2 C1 1_555 1_555
H3 C2 1_555 1_555
H4 C2 1_555 1_555
C3 C2 1_555 1_555
H5 C3 1_555 1_555
H6 C3 1_555 1_555
C4 H7 1_555 1_555
H8 C4 1_555 1_555
N1 C1 1_555 1_555
C5 N1 1_555 1_555
C6 C5 1_555 1_555
H9 C6 1_555 1_555
H10 C6 1_555 1_555
C7 C6 1_555 1_555
H11 C7 1_555 1_555
H12 C7 1_555 1_555
C8 C7 1_555 1_555
H13 C8 1_555 1_555
H14 C8 1_555 1_555
C9 N1 1_555 1_555
H15 C9 1_555 1_555
C10 C5 1_555 1_555
H16 C10 1_555 1_555
H17 C10 1_555 1_555
H18 C10 1_555 1_555
C11 C9 1_555 1_555
H19 C11 1_555 1_555
H20 C11 1_555 1_555
H21 C11 1_555 1_555
B1 O1 1_555 1_555
C12 B1 1_555 1_555
F1 C13 1_555 1_555
C13 C12 1_555 1_555
F2 C14 1_555 1_555
C14 C13 1_555 1_555
F3 C15 1_555 1_555
C15 C14 1_555 1_555
F4 C16 1_555 1_555
C16 C15 1_555 1_555
F5 C17 1_555 1_555
C17 C12 1_555 1_555
C18 B1 1_555 1_555
F6 C19 1_555 1_555
C19 C18 1_555 1_555
F7 C20 1_555 1_555
C20 C19 1_555 1_555
F8 C21 1_555 1_555
C21 C20 1_555 1_555
F9 C22 1_555 1_555
C22 C21 1_555 1_555
F10 C23 1_555 1_555
C23 C18 1_555 1_555
B2 O1 1_555 1_555
C24 B2 1_555 1_555
F11 C25 1_555 1_555
C25 C24 1_555 1_555
F12 C26 1_555 1_555
C26 C25 1_555 1_555
F13 C27 1_555 1_555
C27 C26 1_555 1_555
F14 C28 1_555 1_555
C28 C27 1_555 1_555
F15 C29 1_555 1_555
C29 C24 1_555 1_555
C30 B2 1_555 1_555
F16 C31 1_555 1_555
C31 C30 1_555 1_555
F17 C32 1_555 1_555
C32 C31 1_555 1_555
F18 C33 1_555 1_555
C33 C32 1_555 1_555
F19 C34 1_555 1_555
C34 C33 1_555 1_555
F20 C35 1_555 1_555
C35 C30 1_555 1_555
C3 B1 1_555 1_555
C4 B2 1_555 1_555
C8 C9 1_555 1_555
C16 C17 1_555 1_555
C22 C23 1_555 1_555
C28 C29 1_555 1_555
C34 C35 1_555 1_555

#END
