
#######################################################################
#
#                 Cambridge Crystallographic Data Centre
#                                CCDC 
#
#######################################################################
#
# If this CIF has been generated from an entry in the Cambridge 
# Structural Database, then it will include bibliographic, chemical, 
# crystal, experimental, refinement or atomic coordinate data resulting 
# from the CCDC's data processing and validation procedures.
#
#######################################################################

data_REVXEY
_chemical_formula_moiety         'C36 H21 B2 F20 N1 O3'
_chemical_name_systematic        
(3-(2,6-dimethyl-2,3,4,5-tetrahydropyridin-1-ium-1-yl)propyl)(5-oxo-2,2-bis(perfluorophenyl)-1,4,2-dioxaborato)bis(pentafluorophenyl)boron
_symmetry_cell_setting           triclinic
_symmetry_space_group_name_H-M   'P -1'
_symmetry_Int_Tables_number      2
_space_group_name_Hall           '-P 1'
loop_
_symmetry_equiv_pos_site_id
_symmetry_equiv_pos_as_xyz
1 x,y,z
2 -x,-y,-z
_cell_length_a                   11.5597(4)
_cell_length_b                   12.8871(4)
_cell_length_c                   13.2855(4)
_cell_angle_alpha                72.6940(10)
_cell_angle_beta                 80.405(2)
_cell_angle_gamma                72.5420(10)
_cell_volume                     1795.99
_exptl_crystal_colour            colorless
_exptl_crystal_description       prism
_cell_formula_units_Z            2
loop_
_atom_site_label
_atom_site_type_symbol
_atom_site_fract_x
_atom_site_fract_y
_atom_site_fract_z
B1 B 0.25756(19) 0.31011(18) 0.59448(17)
C1 C 0.34299(18) 0.57209(16) 0.37995(16)
H1 H 0.3697 0.601 0.4308
H2 H 0.4166 0.53 0.3446
N1 N 0.27502(14) 0.66863(13) 0.29940(13)
O1 O 0.13288(12) 0.37707(11) 0.64084(10)
B2 B 0.1676(2) 0.50223(18) 0.83462(17)
C2 C 0.26501(18) 0.49246(16) 0.43969(16)
H3 H 0.2412 0.4606 0.3895
H4 H 0.1899 0.5348 0.4731
O2 O 0.21291(11) 0.44368(11) 0.74370(10)
C3 C 0.33575(17) 0.39644(15) 0.52516(15)
H5 H 0.362 0.4293 0.5731
H6 H 0.4098 0.3538 0.4908
O3 O 0.01313(12) 0.46722(11) 0.75154(11)
C4 C 0.12301(17) 0.42797(15) 0.71030(15)
C5 C 0.02085(18) 0.51866(16) 0.83522(15)
H7 H -0.0126 0.4794 0.9048
H8 H -0.0239 0.5995 0.8186
C6 C 0.2092(2) 0.76111(17) 0.32248(17)
C7 C 0.13504(19) 0.85615(17) 0.24345(17)
H9 H 0.157 0.9259 0.2395
H10 H 0.0482 0.8669 0.2702
C8 C 0.1485(2) 0.8425(2) 0.13299(18)
H11 H 0.0737 0.8875 0.0974
H12 H 0.2176 0.8706 0.0917
C9 C 0.1702(2) 0.7211(2) 0.1369(2)
H13 H 0.1808 0.713 0.0638
H14 H 0.0982 0.6949 0.1738
C10 C 0.2823(3) 0.6480(2) 0.1938(2)
H15 H 0.2838 0.5674 0.2053
C11 C 0.4027(3) 0.6651(3) 0.1331(2)
H16 H 0.4006 0.7451 0.115
H17 H 0.4149 0.6406 0.0681
H18 H 0.4698 0.6206 0.1773
C12 C 0.2047(2) 0.77968(19) 0.42786(17)
H19 H 0.2024 0.7098 0.4828
H20 H 0.1317 0.8394 0.4384
H21 H 0.2772 0.802 0.4323
C13 C 0.21789(17) 0.24793(15) 0.51906(14)
C14 C 0.10897(18) 0.28479(16) 0.47194(15)
F1 F 0.02477(11) 0.38021(10) 0.48359(10)
C15 C 0.07870(18) 0.22959(18) 0.40984(15)
F2 F -0.02909(11) 0.27041(11) 0.36658(10)
C16 C 0.1584(2) 0.13278(17) 0.39124(16)
F3 F 0.12898(13) 0.07846(11) 0.33092(11)
C17 C 0.2689(2) 0.09282(16) 0.43377(16)
F4 F 0.34867(13) -0.00074(11) 0.41482(11)
C18 C 0.29638(18) 0.15144(16) 0.49464(15)
F5 F 0.40756(10) 0.10934(10) 0.53150(10)
C19 C 0.32013(17) 0.21283(15) 0.69610(15)
C20 C 0.25534(17) 0.14147(16) 0.76454(15)
F6 F 0.13665(10) 0.15794(10) 0.75082(9)
C21 C 0.30285(19) 0.05164(17) 0.84639(16)
F7 F 0.23379(12) -0.01488(11) 0.90764(10)
C22 C 0.42257(19) 0.02856(16) 0.86471(15)
F8 F 0.47099(12) -0.06088(10) 0.94255(9)
C23 C 0.49156(18) 0.09764(17) 0.80115(16)
F9 F 0.60930(11) 0.07726(10) 0.81687(10)
C24 C 0.43954(18) 0.18674(16) 0.72008(15)
F10 F 0.51555(10) 0.24856(10) 0.66058(10)
C25 C 0.22647(18) 0.41279(16) 0.94079(15)
C26 C 0.20609(18) 0.30604(17) 0.97348(16)
F11 F 0.13702(11) 0.27955(9) 0.91706(9)
C27 C 0.2501(2) 0.22354(17) 1.06198(17)
F12 F 0.22491(13) 0.12324(10) 1.08845(11)
C28 C 0.3203(2) 0.24579(19) 1.12328(17)
F13 F 0.36564(13) 0.16730(12) 1.20883(10)
C29 C 0.3444(2) 0.3497(2) 1.09468(17)
F14 F 0.41340(14) 0.37208(13) 1.15334(11)
C30 C 0.29804(19) 0.42995(17) 1.00499(17)
F15 F 0.32710(13) 0.52922(10) 0.98251(10)
C31 C 0.20234(17) 0.62205(16) 0.79952(15)
C32 C 0.29305(18) 0.64990(17) 0.72292(17)
F16 F 0.37194(11) 0.57035(11) 0.67890(11)
C33 C 0.3090(2) 0.75739(19) 0.68525(17)
F17 F 0.39749(14) 0.77900(12) 0.60917(12)
C34 C 0.2316(2) 0.84333(17) 0.72475(17)
F18 F 0.24341(15) 0.94856(11) 0.68612(11)
C35 C 0.14202(19) 0.82008(17) 0.80307(17)
F19 F 0.06500(12) 0.90245(11) 0.84235(12)
C36 C 0.13133(18) 0.71091(17) 0.83908(15)
F20 F 0.04271(11) 0.69167(11) 0.91779(10)
H22? H 0.0765 0.8206 0.124
H23? H 0.1459 0.9172 0.0827
C37? C 0.2576(13) 0.7612(12) 0.1019(12)
H24? H 0.3142 0.8034 0.0557
H25? H 0.2336 0.7209 0.0593
C38? C 0.3248(17) 0.6753(15) 0.1918(13)
H26? H 0.2868 0.6168 0.1872
C39? C 0.4513(16) 0.606(2) 0.1628(17)
H27? H 0.5103 0.6146 0.203
H28? H 0.473 0.6336 0.0869
H29? H 0.4521 0.5269 0.1797
loop_
_geom_bond_atom_site_label_1
_geom_bond_atom_site_label_2
_geom_bond_site_symmetry_1
_geom_bond_site_symmetry_2
B1 O1 1_555 1_555
C1 H1 1_555 1_555
H2 C1 1_555 1_555
N1 C1 1_555 1_555
O1 C4 1_555 1_555
B2 O2 1_555 1_555
C2 C1 1_555 1_555
H3 C2 1_555 1_555
H4 C2 1_555 1_555
O2 C4 1_555 1_555
C3 B1 1_555 1_555
H5 C3 1_555 1_555
H6 C3 1_555 1_555
O3 C4 1_555 1_555
C5 B2 1_555 1_555
H7 C5 1_555 1_555
H8 C5 1_555 1_555
C6 N1 1_555 1_555
C7 C6 1_555 1_555
H9 C7 1_555 1_555
H10 C7 1_555 1_555
C8 C7 1_555 1_555
H11 C8 1_555 1_555
H12 C8 1_555 1_555
C9 C8 1_555 1_555
H13 C9 1_555 1_555
H14 C9 1_555 1_555
C10 N1 1_555 1_555
H15 C10 1_555 1_555
C11 C10 1_555 1_555
H16 C11 1_555 1_555
H17 C11 1_555 1_555
H18 C11 1_555 1_555
C12 C6 1_555 1_555
H19 C12 1_555 1_555
H20 C12 1_555 1_555
H21 C12 1_555 1_555
C13 B1 1_555 1_555
C14 C13 1_555 1_555
F1 C14 1_555 1_555
C15 C14 1_555 1_555
F2 C15 1_555 1_555
C16 C15 1_555 1_555
F3 C16 1_555 1_555
C17 C16 1_555 1_555
F4 C17 1_555 1_555
C18 C13 1_555 1_555
F5 C18 1_555 1_555
C19 B1 1_555 1_555
C20 C19 1_555 1_555
F6 C20 1_555 1_555
C21 C20 1_555 1_555
F7 C21 1_555 1_555
C22 C21 1_555 1_555
F8 C22 1_555 1_555
C23 C22 1_555 1_555
F9 C23 1_555 1_555
C24 C19 1_555 1_555
F10 C24 1_555 1_555
C25 B2 1_555 1_555
C26 C25 1_555 1_555
F11 C26 1_555 1_555
C27 C26 1_555 1_555
F12 C27 1_555 1_555
C28 C27 1_555 1_555
F13 C28 1_555 1_555
C29 C28 1_555 1_555
F14 C29 1_555 1_555
C30 C25 1_555 1_555
F15 C30 1_555 1_555
C31 B2 1_555 1_555
C32 C31 1_555 1_555
F16 C32 1_555 1_555
C33 C32 1_555 1_555
F17 C33 1_555 1_555
C34 C33 1_555 1_555
F18 C34 1_555 1_555
C35 C34 1_555 1_555
F19 C35 1_555 1_555
C36 C31 1_555 1_555
F20 C36 1_555 1_555
C2 C3 1_555 1_555
O3 C5 1_555 1_555
C9 C10 1_555 1_555
C17 C18 1_555 1_555
C23 C24 1_555 1_555
C29 C30 1_555 1_555
C35 C36 1_555 1_555

#END
