
#######################################################################
#
#                 Cambridge Crystallographic Data Centre
#                                CCDC 
#
#######################################################################
#
# If this CIF has been generated from an entry in the Cambridge 
# Structural Database, then it will include bibliographic, chemical, 
# crystal, experimental, refinement or atomic coordinate data resulting 
# from the CCDC's data processing and validation procedures.
#
#######################################################################

data_REVXIC
_chemical_formula_moiety         'C20 H8 B1 F10 N1 O1'
_chemical_name_systematic        
4,4-bis(perfluorophenyl)-2-phenyl-1,3,4-oxazaborate
_symmetry_cell_setting           monoclinic
_symmetry_space_group_name_H-M   'P 21/c'
_symmetry_Int_Tables_number      14
_space_group_name_Hall           '-P 2ybc'
loop_
_symmetry_equiv_pos_site_id
_symmetry_equiv_pos_as_xyz
1 x,y,z
2 -x,1/2+y,1/2-z
3 -x,-y,-z
4 x,1/2-y,1/2+z
_cell_length_a                   10.7586(2)
_cell_length_b                   12.1151(2)
_cell_length_c                   14.5972(3)
_cell_angle_alpha                90
_cell_angle_beta                 104.575(1)
_cell_angle_gamma                90
_cell_volume                     1841.39
_exptl_crystal_colour            colorless
_exptl_crystal_description       plate
_cell_formula_units_Z            4
loop_
_atom_site_label
_atom_site_type_symbol
_atom_site_fract_x
_atom_site_fract_y
_atom_site_fract_z
O1 O 0.09984(12) 0.56122(11) -0.23398(9)
N1 N 0.28153(14) 0.62646(13) -0.25507(11)
H1 H 0.336(2) 0.6293(17) -0.2866(15)
C1 C 0.13739(18) 0.64381(17) -0.15594(14)
H2 H 0.1514 0.6074 -0.0935
H3 H 0.0698 0.7007 -0.1613
C2 C 0.18712(16) 0.55824(15) -0.28241(13)
B1 B 0.27147(19) 0.69940(18) -0.16885(15)
C3 C 0.39249(16) 0.67542(15) -0.07776(13)
F1 F 0.53261(10) 0.60890(11) -0.16757(8)
C4 C 0.51024(17) 0.63273(15) -0.08260(13)
F2 F 0.72181(10) 0.57003(10) -0.01440(9)
C5 C 0.61046(17) 0.61212(16) -0.00426(14)
F3 F 0.69252(11) 0.61810(11) 0.16089(8)
C6 C 0.59565(17) 0.63535(15) 0.08403(13)
F4 F 0.46496(11) 0.69999(11) 0.18004(8)
C7 C 0.48033(18) 0.67702(16) 0.09376(13)
F5 F 0.27390(10) 0.74116(11) 0.02708(8)
C8 C 0.38373(17) 0.69600(16) 0.01338(14)
C9 C 0.25696(16) 0.82903(15) -0.20151(13)
F6 F 0.42746(10) 0.90294(9) -0.07990(8)
C10 C 0.33167(17) 0.91721(16) -0.15943(13)
F7 F 0.39595(12) 1.10416(10) -0.15020(9)
C11 C 0.31707(18) 1.02370(16) -0.19395(14)
F8 F 0.20683(13) 1.15078(10) -0.30747(10)
C12 C 0.22315(19) 1.04733(17) -0.27456(15)
F9 F 0.05686(11) 0.98291(12) -0.40047(8)
C13 C 0.14682(18) 0.96321(18) -0.32008(14)
F10 F 0.08350(10) 0.78013(10) -0.33047(8)
C14 C 0.16442(17) 0.85850(16) -0.28277(13)
C15 C 0.17003(17) 0.47905(15) -0.36017(13)
C16 C 0.26950(18) 0.45784(18) -0.40246(14)
H4 H 0.3486 0.4962 -0.3817
C17 C 0.2541(2) 0.38143(19) -0.47449(15)
H5 H 0.3228 0.3669 -0.5029
C18 C 0.1389(2) 0.32589(17) -0.50545(14)
H6 H 0.1282 0.2735 -0.5553
C19 C 0.03934(19) 0.34687(17) -0.46367(14)
H7 H -0.0400 0.3090 -0.4852
C20 C 0.05421(18) 0.42243(16) -0.39094(14)
H8 H -0.0142 0.4358 -0.3620
loop_
_geom_bond_atom_site_label_1
_geom_bond_atom_site_label_2
_geom_bond_site_symmetry_1
_geom_bond_site_symmetry_2
O1 C1 1_555 1_555
N1 H1 1_555 1_555
C1 H2 1_555 1_555
H3 C1 1_555 1_555
C2 O1 1_555 1_555
B1 N1 1_555 1_555
C3 B1 1_555 1_555
F1 C4 1_555 1_555
C4 C3 1_555 1_555
F2 C5 1_555 1_555
C5 C4 1_555 1_555
F3 C6 1_555 1_555
C6 C5 1_555 1_555
F4 C7 1_555 1_555
C7 C6 1_555 1_555
F5 C8 1_555 1_555
C8 C3 1_555 1_555
C9 B1 1_555 1_555
F6 C10 1_555 1_555
C10 C9 1_555 1_555
F7 C11 1_555 1_555
C11 C10 1_555 1_555
F8 C12 1_555 1_555
C12 C11 1_555 1_555
F9 C13 1_555 1_555
C13 C12 1_555 1_555
F10 C14 1_555 1_555
C14 C9 1_555 1_555
C15 C2 1_555 1_555
C16 C15 1_555 1_555
H4 C16 1_555 1_555
C17 C16 1_555 1_555
H5 C17 1_555 1_555
C18 C17 1_555 1_555
H6 C18 1_555 1_555
C19 C18 1_555 1_555
H7 C19 1_555 1_555
C20 C15 1_555 1_555
H8 C20 1_555 1_555
N1 C2 1_555 1_555
C1 B1 1_555 1_555
C7 C8 1_555 1_555
C13 C14 1_555 1_555
C19 C20 1_555 1_555

#END
