
#######################################################################
#
#                 Cambridge Crystallographic Data Centre
#                                CCDC 
#
#######################################################################
#
# If this CIF has been generated from an entry in the Cambridge 
# Structural Database, then it will include bibliographic, chemical, 
# crystal, experimental, refinement or atomic coordinate data resulting 
# from the CCDC's data processing and validation procedures.
#
#######################################################################

data_REVYAV
_chemical_formula_moiety         'C29 H26 B1 F10 N1 O1,C1 H2 Cl2'
_chemical_name_systematic        
'[3-(2,6-dimethyl-2,3,4,5-tetrahydropyridin-1-ium-1-yl)propyl][bis(pentafluorophenyl)](phenylmethanolato)boron dichloromethane solvate'
_symmetry_cell_setting           triclinic
_symmetry_space_group_name_H-M   'P -1'
_symmetry_Int_Tables_number      2
_space_group_name_Hall           '-P 1'
loop_
_symmetry_equiv_pos_site_id
_symmetry_equiv_pos_as_xyz
1 x,y,z
2 -x,-y,-z
_cell_length_a                   10.4021(3)
_cell_length_b                   11.5070(3)
_cell_length_c                   13.9645(4)
_cell_angle_alpha                94.139(2)
_cell_angle_beta                 101.3540(10)
_cell_angle_gamma                111.6490(10)
_cell_volume                     1503.84
_exptl_crystal_colour            colorless
_exptl_crystal_description       prism
_cell_formula_units_Z            2
loop_
_atom_site_label
_atom_site_type_symbol
_atom_site_fract_x
_atom_site_fract_y
_atom_site_fract_z
B1 B 0.2755(3) 0.6934(3) 0.3379(2)
C1 C 0.1871(3) 0.7152(3) 0.6004(2)
H1 H 0.0841 0.6973 0.579
H2 H 0.1965 0.6355 0.6154
O1 O 0.28920(19) 0.81924(17) 0.31426(14)
C2 C 0.2567(3) 0.7578(3) 0.5165(2)
H3 H 0.3602 0.7782 0.538
H4 H 0.2441 0.8355 0.4992
C3 C 0.1910(3) 0.6540(2) 0.42523(19)
H5 H 0.0896 0.6394 0.4
H6 H 0.1952 0.5739 0.4442
C4 C 0.1600(3) 0.8302(3) 0.2746(2)
H7 H 0.1001 0.8131 0.3232
H8 H 0.1076 0.7667 0.2141
N1 N 0.2509(2) 0.8114(2) 0.69210(16)
C5 C 0.1893(5) 0.8865(4) 0.7141(3)
C6 C 0.2559(4) 0.9892(4) 0.8021(3)
H9 H 0.1834 0.9828 0.8403
H10 H 0.2816 1.0718 0.7783
C7 C 0.3875(10) 0.9885(8) 0.8717(4)
H11 H 0.4438 1.0736 0.9114
H12 H 0.3589 0.9273 0.9176
C8 C 0.4768(4) 0.9517(4) 0.8121(3)
H13 H 0.5627 0.9511 0.8572
H14 H 0.5082 1.0149 0.7681
C9 C 0.3918(5) 0.8221(4) 0.7507(3)
H15 H 0.447 0.8102 0.7025
C10 C 0.0482(5) 0.8737(4) 0.6530(4)
H16 H 0.0499 0.8676 0.5829
H17 H 0.0289 0.9479 0.6726
H18 H -0.0266 0.7971 0.6633
C11 C 0.3697(5) 0.7140(5) 0.8102(4)
H19 H 0.3253 0.7276 0.8634
H20 H 0.4619 0.7106 0.8388
H21 H 0.3075 0.6339 0.7668
C12 C 0.4392(3) 0.6967(3) 0.37628(19)
C13 C 0.4596(3) 0.5844(3) 0.3822(2)
F1 F 0.34494(18) 0.47223(15) 0.35896(14)
C14 C 0.5903(3) 0.5751(3) 0.4102(2)
F2 F 0.5999(2) 0.46166(18) 0.41069(16)
C15 C 0.7112(3) 0.6840(3) 0.4376(2)
F3 F 0.83971(19) 0.6773(2) 0.46448(15)
C16 C 0.6991(3) 0.7989(3) 0.4361(2)
F4 F 0.8175(2) 0.90627(19) 0.46277(17)
C17 C 0.5654(3) 0.8030(3) 0.4061(2)
F5 F 0.5660(2) 0.92066(17) 0.40784(17)
C18 C 0.2016(3) 0.5889(2) 0.23184(19)
C19 C 0.0865(3) 0.4739(3) 0.2148(2)
F6 F 0.01915(18) 0.43261(15) 0.28709(12)
C20 C 0.0319(3) 0.3905(3) 0.1263(2)
F7 F -0.07925(19) 0.27900(16) 0.11593(13)
C21 C 0.0932(3) 0.4214(3) 0.0482(2)
F8 F 0.04163(19) 0.34228(17) -0.03824(12)
C22 C 0.2079(3) 0.5350(3) 0.0604(2)
F9 F 0.2690(2) 0.56704(18) -0.01584(13)
C23 C 0.2586(3) 0.6144(3) 0.1503(2)
F10 F 0.37287(18) 0.72325(16) 0.15531(12)
C24 C 0.1877(3) 0.9612(3) 0.2500(2)
C25 C 0.2795(4) 1.0663(3) 0.3198(2)
H22 H 0.3254 1.0542 0.3819
C26 C 0.3052(4) 1.1877(3) 0.3005(3)
H23 H 0.3675 1.2583 0.3493
C27 C 0.2397(4) 1.2065(3) 0.2095(3)
H24 H 0.2579 1.2899 0.1955
C28 C 0.1484(4) 1.1035(4) 0.1399(3)
H25 H 0.1028 1.1159 0.0779
C29 C 0.1221(4) 0.9809(3) 0.1597(2)
H26 H 0.0588 0.9105 0.1111
C37 C 0.3727(4) 0.3741(5) 0.8678(3)
H40 H 0.4144 0.4673 0.8874
H41 H 0.4389 0.3503 0.8366
Cl1 Cl 0.35374(16) 0.30166(14) 0.97421(9)
Cl2 Cl 0.20866(10) 0.32870(11) 0.78189(7)
C30? C 0.3235(15) 0.7789(11) 0.7688(8)
C31? C 0.4027(12) 0.8737(10) 0.8619(8)
H27? H 0.5062 0.9024 0.8664
H28? H 0.3831 0.8306 0.9194
C32? C 0.365(4) 0.989(2) 0.8691(13)
H29? H 0.4415 1.0585 0.9188
H30? H 0.275 0.9682 0.89
C33? C 0.3504(13) 1.0312(11) 0.7683(8)
H31? H 0.3309 1.1091 0.7722
H32? H 0.4403 1.0501 0.7468
C34? C 0.2297(14) 0.9271(12) 0.6944(10)
H33? H 0.2343 0.9528 0.6279
C35? C 0.3381(16) 0.6546(12) 0.7690(11)
H34? H 0.2505 0.5905 0.7787
H35? H 0.4187 0.6627 0.8229
H36? H 0.3548 0.629 0.7057
C36? C 0.0820(16) 0.9057(17) 0.7057(14)
H37? H 0.0122 0.8325 0.6579
H38? H 0.0622 0.9811 0.6938
H39? H 0.0755 0.8897 0.773
C38? C 0.318(4) 0.338(4) 0.864(3)
H42? H 0.2949 0.2778 0.803
H43? H 0.2415 0.3714 0.856
Cl3? Cl 0.474(3) 0.468(2) 0.8601(18)
Cl4? Cl 0.294(2) 0.246(2) 0.9600(17)
loop_
_geom_bond_atom_site_label_1
_geom_bond_atom_site_label_2
_geom_bond_site_symmetry_1
_geom_bond_site_symmetry_2
B1 O1 1_555 1_555
C1 H1 1_555 1_555
H2 C1 1_555 1_555
O1 C4 1_555 1_555
C2 C1 1_555 1_555
H3 C2 1_555 1_555
H4 C2 1_555 1_555
C3 B1 1_555 1_555
H5 C3 1_555 1_555
H6 C3 1_555 1_555
C4 H7 1_555 1_555
H8 C4 1_555 1_555
N1 C1 1_555 1_555
C5 N1 1_555 1_555
C6 C5 1_555 1_555
H9 C6 1_555 1_555
H10 C6 1_555 1_555
C7 C6 1_555 1_555
H11 C7 1_555 1_555
H12 C7 1_555 1_555
C8 C7 1_555 1_555
H13 C8 1_555 1_555
H14 C8 1_555 1_555
C9 N1 1_555 1_555
H15 C9 1_555 1_555
C10 C5 1_555 1_555
H16 C10 1_555 1_555
H17 C10 1_555 1_555
H18 C10 1_555 1_555
C11 C9 1_555 1_555
H19 C11 1_555 1_555
H20 C11 1_555 1_555
H21 C11 1_555 1_555
C12 B1 1_555 1_555
C13 C12 1_555 1_555
F1 C13 1_555 1_555
C14 C13 1_555 1_555
F2 C14 1_555 1_555
C15 C14 1_555 1_555
F3 C15 1_555 1_555
C16 C15 1_555 1_555
F4 C16 1_555 1_555
C17 C12 1_555 1_555
F5 C17 1_555 1_555
C18 B1 1_555 1_555
C19 C18 1_555 1_555
F6 C19 1_555 1_555
C20 C19 1_555 1_555
F7 C20 1_555 1_555
C21 C20 1_555 1_555
F8 C21 1_555 1_555
C22 C21 1_555 1_555
F9 C22 1_555 1_555
C23 C18 1_555 1_555
F10 C23 1_555 1_555
C24 C4 1_555 1_555
C25 C24 1_555 1_555
H22 C25 1_555 1_555
C26 C25 1_555 1_555
H23 C26 1_555 1_555
C27 C26 1_555 1_555
H24 C27 1_555 1_555
C28 C27 1_555 1_555
H25 C28 1_555 1_555
C29 C24 1_555 1_555
H26 C29 1_555 1_555
C37 H40 1_555 1_555
H41 C37 1_555 1_555
Cl1 C37 1_555 1_555
Cl2 C37 1_555 1_555
C2 C3 1_555 1_555
C8 C9 1_555 1_555
C16 C17 1_555 1_555
C22 C23 1_555 1_555
C28 C29 1_555 1_555

#END
