
#######################################################################
#
#                 Cambridge Crystallographic Data Centre
#                                CCDC 
#
#######################################################################
#
# If this CIF has been generated from an entry in the Cambridge 
# Structural Database, then it will include bibliographic, chemical, 
# crystal, experimental, refinement or atomic coordinate data resulting 
# from the CCDC's data processing and validation procedures.
#
#######################################################################

data_REVZUP
_chemical_formula_moiety         'C75 H110 O10,C8 H12 N6'
_chemical_name_systematic        
"4,9,14,19,24,26,28,30,32,34-Decabutoxyhexacyclo[21.2.2.2^3,6^.2^8,11^.2^13,16^.2^18,21^]pentatriaconta-1(25),3,5,8,10,13,15,18,20,23,26,28,30,32,34-pentadecaene 1,1'-butane-1,4-diylbis(1H-1,2,4-triazole)"
_symmetry_cell_setting           triclinic
_symmetry_space_group_name_H-M   'P -1'
_symmetry_Int_Tables_number      2
_space_group_name_Hall           '-P 1'
loop_
_symmetry_equiv_pos_site_id
_symmetry_equiv_pos_as_xyz
1 x,y,z
2 -x,-y,-z
_cell_length_a                   12.6086(17)
_cell_length_b                   15.892(2)
_cell_length_c                   21.112(3)
_cell_angle_alpha                102.516(2)
_cell_angle_beta                 93.690(2)
_cell_angle_gamma                96.901(2)
_cell_volume                     4082.01
_exptl_crystal_colour            colorless
_exptl_crystal_description       block
_cell_formula_units_Z            2
loop_
_atom_site_label
_atom_site_type_symbol
_atom_site_fract_x
_atom_site_fract_y
_atom_site_fract_z
N1 N 0.3375(5) -0.1207(5) 0.2218(3)
N2 N 0.2442(7) -0.1833(7) 0.2036(6)
C1 C 0.2013(10) 0.1553(7) 0.2681(9)
H1 H 0.1534 0.1326 0.2964
H2 H 0.1635 0.1411 0.2249
C2 C 0.2830(6) 0.1121(6) 0.2652(4)
H3 H 0.3195 0.1258 0.3088
H4 H 0.3316 0.1366 0.2381
C3 C 0.2723(7) 0.0193(6) 0.2427(5)
H5 H 0.2196 -0.0051 0.2676
H6 H 0.2408 0.0059 0.1979
C4 C 0.3560(8) -0.0257(7) 0.2436(5)
H7 H 0.3895 -0.0117 0.2880
H8 H 0.4079 -0.0038 0.2171
C5 C 0.2656(7) -0.2578(6) 0.1879(7)
H9 H 0.2176 -0.3083 0.1717
N3 N 0.3788(7) -0.2512(5) 0.1996(4)
C6 C 0.4202(5) -0.1618(6) 0.2227(4)
H10 H 0.4913 -0.1379 0.2358
N4 N 0.2157(6) 0.2432(4) 0.2884(4)
N5 N 0.2921(7) 0.2996(7) 0.2652(5)
C7 C 0.2723(10) 0.3864(5) 0.2891(6)
H11 H 0.3107 0.4362 0.2813
N6 N 0.1836(8) 0.3836(6) 0.3272(5)
C8 C 0.1486(5) 0.2951(7) 0.3267(4)
H12 H 0.0917 0.2747 0.3478
O1 O 0.2988(3) -0.0847(2) 0.42742(18)
O2 O 0.3970(3) 0.2710(2) 0.4639(2)
O3 O -0.0006(3) -0.1843(2) 0.24515(19)
O4 O 0.0066(3) 0.1311(3) 0.4189(2)
O5 O 0.1421(4) -0.1416(3) 0.0311(2)
O6 O -0.0649(3) 0.1056(3) 0.1798(2)
O7 O 0.5456(3) -0.0085(2) 0.10465(16)
O8 O 0.2468(3) 0.2069(3) 0.0660(2)
O9 O 0.6339(3) 0.0351(3) 0.34955(16)
O10 O 0.5551(4) 0.3128(3) 0.2444(2)
C9 C 0.3250(4) 0.0034(3) 0.4374(2)
C10 C 0.2452(4) 0.0541(3) 0.4529(2)
C11 C 0.2683(4) 0.1429(3) 0.4622(2)
H13 H 0.2146 0.1773 0.4729
C12 C 0.3719(4) 0.1829(3) 0.4557(2)
C13 C 0.4525(4) 0.1330(3) 0.4412(2)
C14 C 0.4298(4) 0.0433(3) 0.4324(2)
H14 H 0.4840 0.0090 0.4231
C15 C 0.3752(4) -0.1395(3) 0.4048(3)
H15 H 0.4354 -0.1304 0.4376
H16 H 0.4018 -0.1255 0.3656
C16 C 0.3251(5) -0.2314(4) 0.3904(3)
H17 H 0.2689 -0.2406 0.3550
H18 H 0.2918 -0.2426 0.4285
C17 C 0.4015(7) -0.2947(4) 0.3723(4)
H19 H 0.4527 -0.2910 0.4094
H20 H 0.4409 -0.2801 0.3372
C18 C 0.3420(13) -0.3892(6) 0.3500(7)
H21 H 0.2995 -0.4025 0.3836
H22 H 0.3935 -0.4291 0.3417
H23 H 0.2961 -0.3942 0.3108
C19 C 0.3220(6) 0.3253(4) 0.4841(4)
H24 H 0.2991 0.3155 0.5252
H25 H 0.2597 0.3104 0.4524
C20 C 0.3633(6) 0.4190(4) 0.4925(5)
H26 H 0.4277 0.4330 0.5225
H27 H 0.3831 0.4291 0.4509
C21 C 0.2877(9) 0.4769(5) 0.5166(8)
H28 H 0.2224 0.4601 0.4873
H29 H 0.2699 0.4669 0.5586
C22 C 0.3184(14) 0.5689(6) 0.5243(9)
H30 H 0.2607 0.5993 0.5403
H31 H 0.3341 0.5810 0.4830
H32 H 0.3810 0.5879 0.5548
C23 C 0.1315(4) 0.0120(3) 0.4589(2)
H33 H 0.1350 -0.0416 0.4733
H34 H 0.0982 0.0510 0.4912
C24 C 0.0634(4) -0.0075(3) 0.3935(2)
C25 C 0.0610(4) -0.0872(3) 0.3500(3)
H35 H 0.0976 -0.1294 0.3623
C26 C 0.0052(4) -0.1055(3) 0.2885(3)
C27 C -0.0481(3) -0.0430(3) 0.2686(2)
C28 C -0.0472(4) 0.0353(3) 0.3120(3)
H36 H -0.0836 0.0775 0.2995
C29 C 0.0061(4) 0.0533(3) 0.3737(3)
C30 C 0.0200(7) -0.2607(4) 0.2666(3)
H37 H -0.0208 -0.2662 0.3033
H38 H 0.0956 -0.2557 0.2810
C31 C -0.0094(12) -0.3373(5) 0.2144(5)
H39 H 0.0446 -0.3340 0.1840
H40 H 0.0025 -0.3860 0.2336
C32 C -0.1097(10) -0.3645(11) 0.1746(9)
H41 H -0.1265 -0.3196 0.1525
H42 H -0.1673 -0.3761 0.2011
C33 C -0.0967(11) -0.4425(7) 0.1280(7)
H43 H -0.0367 -0.4309 0.1039
H44 H -0.1605 -0.4613 0.0986
H45 H -0.0841 -0.4873 0.1505
C34 C -0.0789(7) 0.1778(5) 0.4143(4)
H46 H -0.1460 0.1392 0.4102
H47 H -0.0763 0.2014 0.3757
C35 C -0.0750(13) 0.2500(8) 0.4728(7)
H48 H -0.1221 0.2870 0.4577
H49 H -0.1160 0.2221 0.5017
C36 C -0.0189(13) 0.2958(11) 0.5059(9)
H50 H 0.0223 0.3252 0.4779
H51 H 0.0289 0.2599 0.5218
C37 C -0.0245(10) 0.3689(8) 0.5662(5)
H52 H 0.0451 0.3853 0.5900
H53 H -0.0749 0.3487 0.5937
H54 H -0.0472 0.4183 0.5527
C38 C -0.1053(4) -0.0599(3) 0.2003(2)
H55 H -0.1358 -0.1208 0.1869
H56 H -0.1638 -0.0254 0.2013
C39 C -0.0318(4) -0.0383(4) 0.1504(2)
C40 C 0.0188(4) -0.1006(4) 0.1126(3)
H57 H 0.0055 -0.1577 0.1170
C41 C 0.0891(4) -0.0809(4) 0.0679(3)
C42 C 0.1077(4) 0.0025(4) 0.0589(2)
C43 C 0.0546(4) 0.0651(4) 0.0949(3)
H58 H 0.0645 0.1214 0.0883
C44 C -0.0139(4) 0.0455(4) 0.1412(3)
C45 C 0.1184(8) -0.2302(6) 0.0326(4)
H59 H 0.0431 -0.2504 0.0189
H60 H 0.1330 -0.2374 0.0767
C46 C 0.1877(16) -0.2833(9) -0.0131(6)
H61 H 0.1423 -0.3378 -0.0324
H62 H 0.1971 -0.2532 -0.0481
C47 C 0.2700(13) -0.3024(15) -0.0013(9)
H63 H 0.2630 -0.3285 0.0360
H64 H 0.3178 -0.2482 0.0140
C48 C 0.3305(9) -0.3607(8) -0.0475(6)
H65 H 0.3297 -0.4155 -0.0353
H66 H 0.4033 -0.3337 -0.0456
H67 H 0.2971 -0.3700 -0.0911
C49 C -0.0555(5) 0.1923(4) 0.1718(3)
H68 H -0.0933 0.1940 0.1307
H69 H 0.0194 0.2147 0.1714
C50 C -0.1026(5) 0.2472(4) 0.2270(4)
H70 H -0.1768 0.2226 0.2273
H71 H -0.0645 0.2438 0.2676
C51 C -0.0995(7) 0.3397(5) 0.2252(5)
H72 H -0.1457 0.3439 0.1878
H73 H -0.0269 0.3626 0.2192
C52 C -0.1342(9) 0.3961(6) 0.2861(6)
H74 H -0.1305 0.4551 0.2813
H75 H -0.0874 0.3941 0.3233
H76 H -0.2065 0.3748 0.2921
C53 C 0.1865(4) 0.0287(4) 0.0132(3)
H77 H 0.1939 -0.0219 -0.0206
H78 H 0.1591 0.0714 -0.0076
C54 C 0.2955(4) 0.0664(4) 0.0491(2)
C55 C 0.3702(4) 0.0113(4) 0.0578(2)
H79 H 0.3530 -0.0480 0.0398
C56 C 0.4699(4) 0.0424(3) 0.0927(2)
C57 C 0.4977(4) 0.1321(3) 0.1188(2)
C58 C 0.4233(4) 0.1856(4) 0.1089(2)
H80 H 0.4407 0.2452 0.1252
C59 C 0.3237(4) 0.1539(4) 0.0758(3)
C60 C 0.5239(4) -0.1003(3) 0.0783(2)
H81 H 0.5144 -0.1120 0.0311
H82 H 0.4585 -0.1241 0.0936
C61 C 0.6154(4) -0.1412(3) 0.0994(3)
H83 H 0.6241 -0.1286 0.1467
H84 H 0.6804 -0.1155 0.0848
C62 C 0.6021(5) -0.2371(4) 0.0740(3)
H85 H 0.5903 -0.2497 0.0269
H86 H 0.5385 -0.2629 0.0900
C63 C 0.6974(7) -0.2799(5) 0.0931(4)
H87 H 0.7614 -0.2532 0.0790
H88 H 0.6854 -0.3408 0.0727
H89 H 0.7056 -0.2726 0.1396
C64 C 0.2677(5) 0.2974(5) 0.0918(4)
H90 H 0.3297 0.3216 0.0734
H91 H 0.2839 0.3087 0.1386
C65 C 0.1765(5) 0.3389(5) 0.0771(5)
H92 H 0.1680 0.3336 0.0303
H93 H 0.1131 0.3065 0.0884
C66 C 0.1786(10) 0.4293(6) 0.1084(7)
H94 H 0.1072 0.4458 0.1058
H95 H 0.2056 0.4400 0.1539
C67 C 0.2488(19) 0.4778(7) 0.0740(12)
H96 H 0.2535 0.5388 0.0932
H97 H 0.2209 0.4667 0.0291
H98 H 0.3189 0.4602 0.0765
C68 C 0.6061(4) 0.1672(3) 0.1573(2)
H99 H 0.6295 0.2251 0.1511
H100 H 0.6586 0.1301 0.1409
C69 C 0.6009(4) 0.1714(3) 0.2300(2)
C70 C 0.6213(3) 0.1009(3) 0.2553(2)
H101 H 0.6409 0.0521 0.2280
C71 C 0.6129(3) 0.1018(3) 0.3210(2)
C72 C 0.5813(4) 0.1727(3) 0.3623(2)
C73 C 0.5620(4) 0.2438(3) 0.3368(3)
H102 H 0.5422 0.2927 0.3639
C74 C 0.5719(4) 0.2427(3) 0.2714(3)
C75 C 0.6629(4) -0.0423(4) 0.3106(3)
H103 H 0.7245 -0.0280 0.2878
H104 H 0.6038 -0.0710 0.2785
C76 C 0.6890(5) -0.1008(4) 0.3534(3)
H105 H 0.6295 -0.1103 0.3790
H106 H 0.7515 -0.0734 0.3831
C77 C 0.7116(6) -0.1886(5) 0.3136(4)
H107 H 0.6485 -0.2155 0.2842
H108 H 0.7698 -0.1781 0.2872
C78 C 0.7402(9) -0.2501(6) 0.3525(5)
H109 H 0.8042 -0.2252 0.3807
H110 H 0.7524 -0.3032 0.3240
H111 H 0.6826 -0.2621 0.3782
C79 C 0.5467(10) 0.3951(5) 0.2843(4)
H112 H 0.5905 0.4024 0.3251
H113 H 0.4728 0.3969 0.2942
C80 C 0.5810(14) 0.4682(7) 0.2537(7)
H114 H 0.5811 0.5227 0.2851
H115 H 0.6539 0.4650 0.2421
C81 C 0.5170(14) 0.4675(7) 0.2002(7)
H116 H 0.4429 0.4652 0.2103
H117 H 0.5229 0.4165 0.1664
C82 C 0.5501(14) 0.5490(9) 0.1764(8)
H118 H 0.5909 0.5351 0.1396
H119 H 0.5931 0.5913 0.2106
H120 H 0.4872 0.5722 0.1638
C83 C 0.5659(4) 0.1732(4) 0.4329(2)
H121 H 0.5792 0.2327 0.4584
H122 H 0.6177 0.1410 0.4494
loop_
_geom_bond_atom_site_label_1
_geom_bond_atom_site_label_2
_geom_bond_site_symmetry_1
_geom_bond_site_symmetry_2
N1 N2 1_555 1_555
N2 C5 1_555 1_555
C1 H1 1_555 1_555
H2 C1 1_555 1_555
C2 C1 1_555 1_555
H3 C2 1_555 1_555
H4 C2 1_555 1_555
C3 C2 1_555 1_555
H5 C3 1_555 1_555
H6 C3 1_555 1_555
C4 N1 1_555 1_555
H7 C4 1_555 1_555
H8 C4 1_555 1_555
C5 H9 1_555 1_555
N3 C5 1_555 1_555
C6 N1 1_555 1_555
H10 C6 1_555 1_555
N4 C1 1_555 1_555
N5 N4 1_555 1_555
C7 N5 1_555 1_555
H11 C7 1_555 1_555
N6 C7 1_555 1_555
C8 N4 1_555 1_555
H12 C8 1_555 1_555
O1 C9 1_555 1_555
O2 C12 1_555 1_555
O3 C26 1_555 1_555
O4 C29 1_555 1_555
O5 C41 1_555 1_555
O6 C44 1_555 1_555
O7 C56 1_555 1_555
O8 C59 1_555 1_555
O9 C71 1_555 1_555
O10 C74 1_555 1_555
C9 C10 1_555 1_555
C10 C11 1_555 1_555
C11 H13 1_555 1_555
C12 C11 1_555 1_555
C13 C12 1_555 1_555
C14 C9 1_555 1_555
H14 C14 1_555 1_555
C15 O1 1_555 1_555
H15 C15 1_555 1_555
H16 C15 1_555 1_555
C16 C15 1_555 1_555
H17 C16 1_555 1_555
H18 C16 1_555 1_555
C17 C16 1_555 1_555
H19 C17 1_555 1_555
H20 C17 1_555 1_555
C18 C17 1_555 1_555
H21 C18 1_555 1_555
H22 C18 1_555 1_555
H23 C18 1_555 1_555
C19 O2 1_555 1_555
H24 C19 1_555 1_555
H25 C19 1_555 1_555
C20 C19 1_555 1_555
H26 C20 1_555 1_555
H27 C20 1_555 1_555
C21 C20 1_555 1_555
H28 C21 1_555 1_555
H29 C21 1_555 1_555
C22 C21 1_555 1_555
H30 C22 1_555 1_555
H31 C22 1_555 1_555
H32 C22 1_555 1_555
C23 C10 1_555 1_555
H33 C23 1_555 1_555
H34 C23 1_555 1_555
C24 C23 1_555 1_555
C25 C24 1_555 1_555
H35 C25 1_555 1_555
C26 C25 1_555 1_555
C27 C26 1_555 1_555
C28 C27 1_555 1_555
H36 C28 1_555 1_555
C29 C24 1_555 1_555
C30 O3 1_555 1_555
H37 C30 1_555 1_555
H38 C30 1_555 1_555
C31 C30 1_555 1_555
H39 C31 1_555 1_555
H40 C31 1_555 1_555
C32 C31 1_555 1_555
H41 C32 1_555 1_555
H42 C32 1_555 1_555
C33 C32 1_555 1_555
H43 C33 1_555 1_555
H44 C33 1_555 1_555
H45 C33 1_555 1_555
C34 O4 1_555 1_555
H46 C34 1_555 1_555
H47 C34 1_555 1_555
C35 C34 1_555 1_555
H48 C35 1_555 1_555
H49 C35 1_555 1_555
C36 C35 1_555 1_555
H50 C36 1_555 1_555
H51 C36 1_555 1_555
C37 C36 1_555 1_555
H52 C37 1_555 1_555
H53 C37 1_555 1_555
H54 C37 1_555 1_555
C38 C27 1_555 1_555
H55 C38 1_555 1_555
H56 C38 1_555 1_555
C39 C38 1_555 1_555
C40 C39 1_555 1_555
H57 C40 1_555 1_555
C41 C40 1_555 1_555
C42 C41 1_555 1_555
C43 C42 1_555 1_555
H58 C43 1_555 1_555
C44 C39 1_555 1_555
C45 O5 1_555 1_555
H59 C45 1_555 1_555
H60 C45 1_555 1_555
C46 C45 1_555 1_555
H61 C46 1_555 1_555
H62 C46 1_555 1_555
C47 C46 1_555 1_555
H63 C47 1_555 1_555
H64 C47 1_555 1_555
C48 C47 1_555 1_555
H65 C48 1_555 1_555
H66 C48 1_555 1_555
H67 C48 1_555 1_555
C49 O6 1_555 1_555
H68 C49 1_555 1_555
H69 C49 1_555 1_555
C50 C49 1_555 1_555
H70 C50 1_555 1_555
H71 C50 1_555 1_555
C51 C50 1_555 1_555
H72 C51 1_555 1_555
H73 C51 1_555 1_555
C52 C51 1_555 1_555
H74 C52 1_555 1_555
H75 C52 1_555 1_555
H76 C52 1_555 1_555
C53 C42 1_555 1_555
H77 C53 1_555 1_555
H78 C53 1_555 1_555
C54 C53 1_555 1_555
C55 C54 1_555 1_555
H79 C55 1_555 1_555
C56 C55 1_555 1_555
C57 C56 1_555 1_555
C58 C57 1_555 1_555
H80 C58 1_555 1_555
C59 C54 1_555 1_555
C60 O7 1_555 1_555
H81 C60 1_555 1_555
H82 C60 1_555 1_555
C61 C60 1_555 1_555
H83 C61 1_555 1_555
H84 C61 1_555 1_555
C62 C61 1_555 1_555
H85 C62 1_555 1_555
H86 C62 1_555 1_555
C63 C62 1_555 1_555
H87 C63 1_555 1_555
H88 C63 1_555 1_555
H89 C63 1_555 1_555
C64 O8 1_555 1_555
H90 C64 1_555 1_555
H91 C64 1_555 1_555
C65 C64 1_555 1_555
H92 C65 1_555 1_555
H93 C65 1_555 1_555
C66 C65 1_555 1_555
H94 C66 1_555 1_555
H95 C66 1_555 1_555
C67 C66 1_555 1_555
H96 C67 1_555 1_555
H97 C67 1_555 1_555
H98 C67 1_555 1_555
C68 C57 1_555 1_555
H99 C68 1_555 1_555
H100 C68 1_555 1_555
C69 C68 1_555 1_555
C70 C69 1_555 1_555
H101 C70 1_555 1_555
C71 C70 1_555 1_555
C72 C71 1_555 1_555
C73 C72 1_555 1_555
H102 C73 1_555 1_555
C74 C69 1_555 1_555
C75 O9 1_555 1_555
H103 C75 1_555 1_555
H104 C75 1_555 1_555
C76 C75 1_555 1_555
H105 C76 1_555 1_555
H106 C76 1_555 1_555
C77 C76 1_555 1_555
H107 C77 1_555 1_555
H108 C77 1_555 1_555
C78 C77 1_555 1_555
H109 C78 1_555 1_555
H110 C78 1_555 1_555
H111 C78 1_555 1_555
C79 O10 1_555 1_555
H112 C79 1_555 1_555
H113 C79 1_555 1_555
C80 C79 1_555 1_555
H114 C80 1_555 1_555
H115 C80 1_555 1_555
C81 C80 1_555 1_555
H116 C81 1_555 1_555
H117 C81 1_555 1_555
C82 C81 1_555 1_555
H118 C82 1_555 1_555
H119 C82 1_555 1_555
H120 C82 1_555 1_555
C83 C13 1_555 1_555
H121 C83 1_555 1_555
H122 C83 1_555 1_555
C3 C4 1_555 1_555
N3 C6 1_555 1_555
N6 C8 1_555 1_555
C13 C14 1_555 1_555
C28 C29 1_555 1_555
C43 C44 1_555 1_555
C58 C59 1_555 1_555
C72 C83 1_555 1_555
C73 C74 1_555 1_555

#END
