
#######################################################################
#
#                 Cambridge Crystallographic Data Centre
#                                CCDC 
#
#######################################################################
#
# If this CIF has been generated from an entry in the Cambridge 
# Structural Database, then it will include bibliographic, chemical, 
# crystal, experimental, refinement or atomic coordinate data resulting 
# from the CCDC's data processing and validation procedures.
#
#######################################################################

data_REVZUO
_chemical_formula_moiety         'C22 H30 N2 O4'
_chemical_name_systematic        
6,6'-Dimethoxy-2,2'-(2,2,4-trimethylimidazolidine-1,3-diyldimethylene)diphenol
_symmetry_cell_setting           triclinic
_symmetry_space_group_name_H-M   'P -1'
_symmetry_Int_Tables_number      2
_space_group_name_Hall           '-P 1'
loop_
_symmetry_equiv_pos_site_id
_symmetry_equiv_pos_as_xyz
1 x,y,z
2 -x,-y,-z
_cell_length_a                   9.879(2)
_cell_length_b                   10.443(2)
_cell_length_c                   10.941(3)
_cell_angle_alpha                68.260(3)
_cell_angle_beta                 85.659(3)
_cell_angle_gamma                84.541(4)
_cell_volume                     1042.71
_exptl_crystal_colour            colorless
_exptl_crystal_description       block
_cell_formula_units_Z            2
loop_
_atom_site_label
_atom_site_type_symbol
_atom_site_fract_x
_atom_site_fract_y
_atom_site_fract_z
N1 N 0.7485(2) 0.7656(2) 0.5890(2)
N2 N 0.5736(2) 0.6341(2) 0.7134(2)
O1 O 0.7468(2) 1.0227(2) 0.4017(2)
H1 H 0.7280 0.9716 0.4773
O2 O 0.8370(2) 1.1650(2) 0.1634(2)
O3 O 0.5566(2) 0.3640(2) 0.8601(2)
H2 H 0.5891 0.4372 0.8482
O4 O 0.4176(2) 0.1500(2) 0.8911(2)
C1 C 0.6772(3) 0.7249(3) 0.7219(3)
C2 C 0.5691(3) 0.6452(4) 0.5755(3)
H4 H 0.5400 0.5624 0.5680
C3 C 0.7159(3) 0.6679(4) 0.5301(3)
H5 H 0.7718 0.5819 0.5649
H6 H 0.7274 0.7050 0.4348
C4 C 0.6175(3) 0.8557(3) 0.7421(3)
H7 H 0.5496 0.9012 0.6788
H8 H 0.6885 0.9164 0.7307
H9 H 0.5769 0.8321 0.8294
C5 C 0.7681(3) 0.6396(4) 0.8352(3)
H10 H 0.7132 0.6051 0.9152
H11 H 0.8338 0.6968 0.8452
H12 H 0.8144 0.5635 0.8165
C6 C 0.4770(5) 0.7469(5) 0.4869(5)
H13 H 0.3848 0.7271 0.5173
H14 H 0.4922 0.7436 0.4003
H15 H 0.4927 0.8373 0.4839
C8 C 0.8935(3) 0.7886(3) 0.5820(3)
H19 H 0.9454 0.7004 0.6195
H20 H 0.9078 0.8440 0.6334
C9 C 0.9438(3) 0.8613(3) 0.4411(3)
C10 C 0.8700(3) 0.9777(3) 0.3605(3)
C11 C 0.9187(3) 1.0516(3) 0.2320(3)
C12 C 1.0405(3) 1.0083(4) 0.1851(3)
H21 H 1.0735 1.0573 0.1002
C13 C 1.1137(3) 0.8919(4) 0.2648(4)
H22 H 1.1955 0.8619 0.2328
C14 C 1.0662(3) 0.8194(4) 0.3917(3)
H23 H 1.1170 0.7416 0.4445
C15 C 0.8790(4) 1.2462(4) 0.0314(3)
H24 H 0.9643 1.2830 0.0317
H25 H 0.8116 1.3207 -0.0052
H26 H 0.8894 1.1892 -0.0208
C16 C 0.4401(3) 0.6410(3) 0.7817(3)
H27 H 0.3895 0.7273 0.7339
H28 H 0.4535 0.6391 0.8693
C17 C 0.3592(3) 0.5215(3) 0.7921(3)
C18 C 0.4217(3) 0.3884(3) 0.8335(3)
C19 C 0.3464(3) 0.2762(3) 0.8479(3)
C20 C 0.2104(3) 0.2981(4) 0.8194(3)
H29 H 0.1603 0.2239 0.8285
C21 C 0.1494(3) 0.4303(4) 0.7775(3)
H30 H 0.0579 0.4449 0.7581
C22 C 0.2222(3) 0.5412(4) 0.7639(3)
H31 H 0.1795 0.6299 0.7356
C23 C 0.3494(3) 0.0333(3) 0.9022(4)
H32 H 0.2701 0.0271 0.9600
H33 H 0.4091 -0.0485 0.9375
H34 H 0.3226 0.0419 0.8169
H3? H 0.5103 0.7243 0.5257
C7? C 0.7866(11) 0.5384(12) 0.5496(11)
H16? H 0.8771 0.5526 0.5109
H17? H 0.7410 0.4870 0.5103
H18? H 0.7912 0.4877 0.6426
loop_
_geom_bond_atom_site_label_1
_geom_bond_atom_site_label_2
_geom_bond_site_symmetry_1
_geom_bond_site_symmetry_2
N1 C1 1_555 1_555
N2 C1 1_555 1_555
O1 H1 1_555 1_555
O2 C11 1_555 1_555
O3 H2 1_555 1_555
O4 C19 1_555 1_555
C1 C4 1_555 1_555
C2 N2 1_555 1_555
H4 C2 1_555 1_555
C3 N1 1_555 1_555
H5 C3 1_555 1_555
H6 C3 1_555 1_555
C4 H7 1_555 1_555
H8 C4 1_555 1_555
H9 C4 1_555 1_555
C5 C1 1_555 1_555
H10 C5 1_555 1_555
H11 C5 1_555 1_555
H12 C5 1_555 1_555
C6 C2 1_555 1_555
H13 C6 1_555 1_555
H14 C6 1_555 1_555
H15 C6 1_555 1_555
C8 N1 1_555 1_555
H19 C8 1_555 1_555
H20 C8 1_555 1_555
C9 C8 1_555 1_555
C10 O1 1_555 1_555
C11 C10 1_555 1_555
C12 C11 1_555 1_555
H21 C12 1_555 1_555
C13 C12 1_555 1_555
H22 C13 1_555 1_555
C14 C9 1_555 1_555
H23 C14 1_555 1_555
C15 O2 1_555 1_555
H24 C15 1_555 1_555
H25 C15 1_555 1_555
H26 C15 1_555 1_555
C16 N2 1_555 1_555
H27 C16 1_555 1_555
H28 C16 1_555 1_555
C17 C16 1_555 1_555
C18 O3 1_555 1_555
C19 C18 1_555 1_555
C20 C19 1_555 1_555
H29 C20 1_555 1_555
C21 C20 1_555 1_555
H30 C21 1_555 1_555
C22 C17 1_555 1_555
H31 C22 1_555 1_555
C23 O4 1_555 1_555
H32 C23 1_555 1_555
H33 C23 1_555 1_555
H34 C23 1_555 1_555
C2 C3 1_555 1_555
C9 C10 1_555 1_555
C13 C14 1_555 1_555
C17 C18 1_555 1_555
C21 C22 1_555 1_555

#END
