
#######################################################################
#
#                 Cambridge Crystallographic Data Centre
#                                CCDC 
#
#######################################################################
#
# If this CIF has been generated from an entry in the Cambridge 
# Structural Database, then it will include bibliographic, chemical, 
# crystal, experimental, refinement or atomic coordinate data resulting 
# from the CCDC's data processing and validation procedures.
#
#######################################################################

data_REWBUR
_chemical_formula_moiety         'C18 H17 N3 O1 S1'
_chemical_name_systematic        
3,5-Dimethyl-N-(5-(m-tolyl)-1,3,4-thiadiazol-2-yl)benzamide
_symmetry_cell_setting           triclinic
_symmetry_space_group_name_H-M   'P -1'
_symmetry_Int_Tables_number      2
_space_group_name_Hall           '-P 1'
loop_
_symmetry_equiv_pos_site_id
_symmetry_equiv_pos_as_xyz
1 x,y,z
2 -x,-y,-z
_cell_length_a                   8.6420(17)
_cell_length_b                   9.0980(18)
_cell_length_c                   10.924(2)
_cell_angle_alpha                84.08(3)
_cell_angle_beta                 72.59(3)
_cell_angle_gamma                79.42(3)
_cell_volume                     804.554
_exptl_crystal_colour            colorless
_exptl_crystal_description       block
_chemical_melting_point          '520-524 K'
_cell_formula_units_Z            2
_exptl_crystal_recrystallization_method acetone
loop_
_atom_site_label
_atom_site_type_symbol
_atom_site_fract_x
_atom_site_fract_y
_atom_site_fract_z
S1 S 0.75153(7) 0.68192(6) 0.53517(6)
O1 O 0.6206(2) 0.86220(19) 0.38128(19)
N1 N 0.9550(2) 0.7016(2) 0.65864(19)
N2 N 0.9412(2) 0.8362(2) 0.58684(19)
N3 N 0.8052(2) 0.9628(2) 0.43951(18)
H1 H 0.8570 1.0372 0.4308
C1 C 0.9951(4) 0.2298(4) 0.9758(3)
H2 H 1.0114 0.3173 1.0094
H3 H 1.0989 0.1663 0.9448
H4 H 0.9230 0.1764 1.0425
C2 C 0.9196(3) 0.2759(3) 0.8668(3)
C3 C 0.9183(3) 0.4190(3) 0.8092(2)
H5 H 0.9606 0.4889 0.8409
C4 C 0.8554(3) 0.4611(2) 0.7046(2)
C5 C 0.7876(3) 0.3584(3) 0.6607(2)
H6 H 0.7449 0.3847 0.5914
C6 C 0.7832(4) 0.2162(3) 0.7198(3)
H7 H 0.7346 0.1482 0.6917
C7 C 0.8508(4) 0.1757(3) 0.8199(3)
H8 H 0.8503 0.0790 0.8569
C8 C 0.8644(3) 0.6121(2) 0.6407(2)
C9 C 0.8397(3) 0.8399(2) 0.5188(2)
C10 C 0.6902(3) 0.9687(3) 0.3743(2)
C11 C 0.6846(3) 1.2453(3) 0.3169(2)
H9 H 0.7422 1.2519 0.3752
C12 C 0.6513(3) 1.1083(2) 0.2979(2)
C13 C 0.5649(3) 1.0990(3) 0.2104(2)
H10 H 0.5418 1.0066 0.1982
C14 C 0.5127(3) 1.2251(3) 0.1411(2)
C15 C 0.5486(3) 1.3608(3) 0.1623(2)
H11 H 0.5151 1.4462 0.1162
C16 C 0.6325(3) 1.3742(3) 0.2495(2)
C17 C 0.6607(4) 1.5243(3) 0.2754(3)
H12 H 0.6710 1.5887 0.1990
H13 H 0.7597 1.5126 0.3007
H14 H 0.5695 1.5677 0.3431
C18 C 0.4140(4) 1.2162(3) 0.0504(3)
H15 H 0.3221 1.2961 0.0647
H16 H 0.3751 1.1218 0.0651
H17 H 0.4820 1.2249 -0.0366
loop_
_geom_bond_atom_site_label_1
_geom_bond_atom_site_label_2
_geom_bond_site_symmetry_1
_geom_bond_site_symmetry_2
S1 C8 1_555 1_555
O1 C10 1_555 1_555
N1 N2 1_555 1_555
N2 C9 1_555 1_555
N3 H1 1_555 1_555
C1 H2 1_555 1_555
H3 C1 1_555 1_555
H4 C1 1_555 1_555
C2 C1 1_555 1_555
C3 C2 1_555 1_555
H5 C3 1_555 1_555
C4 C3 1_555 1_555
C5 C4 1_555 1_555
H6 C5 1_555 1_555
C6 C5 1_555 1_555
H7 C6 1_555 1_555
C7 C2 1_555 1_555
H8 C7 1_555 1_555
C8 N1 1_555 1_555
C9 S1 1_555 1_555
C10 N3 1_555 1_555
C11 H9 1_555 1_555
C12 C10 1_555 1_555
C13 C12 1_555 1_555
H10 C13 1_555 1_555
C14 C13 1_555 1_555
C15 C14 1_555 1_555
H11 C15 1_555 1_555
C16 C11 1_555 1_555
C17 C16 1_555 1_555
H12 C17 1_555 1_555
H13 C17 1_555 1_555
H14 C17 1_555 1_555
C18 C14 1_555 1_555
H15 C18 1_555 1_555
H16 C18 1_555 1_555
H17 C18 1_555 1_555
N3 C9 1_555 1_555
C4 C8 1_555 1_555
C6 C7 1_555 1_555
C11 C12 1_555 1_555
C15 C16 1_555 1_555

#END
