
#######################################################################
#
#                 Cambridge Crystallographic Data Centre
#                                CCDC 
#
#######################################################################
#
# If this CIF has been generated from an entry in the Cambridge 
# Structural Database, then it will include bibliographic, chemical, 
# crystal, experimental, refinement or atomic coordinate data resulting 
# from the CCDC's data processing and validation procedures.
#
#######################################################################

data_REWCOL
_chemical_formula_moiety         'C17 H19 N3 O7'
_chemical_name_systematic        
"Diethyl 1,4-dihydro-6-methyl-4-(3'-nitrophenyl)-2-oxo-3,5-pyrimidinedicarboxylate"
_symmetry_cell_setting           monoclinic
_symmetry_space_group_name_H-M   'C 2/c'
_symmetry_Int_Tables_number      15
_space_group_name_Hall           '-C 2yn'
loop_
_symmetry_equiv_pos_site_id
_symmetry_equiv_pos_as_xyz
1 x,y,z
2 -x,y,1/2-z
3 1/2+x,1/2+y,z
4 1/2-x,1/2+y,1/2-z
5 -x,-y,-z
6 x,-y,1/2+z
7 1/2-x,1/2-y,-z
8 1/2+x,1/2-y,1/2+z
_cell_length_a                   28.07(1)
_cell_length_b                   9.806(1)
_cell_length_c                   13.964(4)
_cell_angle_alpha                90
_cell_angle_beta                 110.95(2)
_cell_angle_gamma                90
_cell_volume                     3589.56
_cell_formula_units_Z            8
loop_
_atom_site_label
_atom_site_type_symbol
_atom_site_fract_x
_atom_site_fract_y
_atom_site_fract_z
N1 N 0.9583(1) 0.9744(4) 0.5828(3)
C1 C 0.9745(2) 0.8455(5) 0.5729(4)
O1 O 1.0033(1) 0.8238(3) 0.5264(2)
N2 N 0.9553(1) 0.7450(4) 0.6191(3)
C2 C 0.9097(2) 0.7677(5) 0.6468(3)
C3 C 0.9099(2) 0.9134(5) 0.6830(3)
C4 C 0.9313(2) 1.0098(5) 0.6458(4)
C5 C 0.8608(2) 0.7281(5) 0.5612(3)
C6 C 0.8300(2) 0.6301(5) 0.5782(4)
C7 C 0.7859(2) 0.5923(6) 0.4998(4)
N3 N 0.7530(2) 0.4882(5) 0.5197(4)
O2 O 0.7144(1) 0.4536(5) 0.4499(4)
O3 O 0.7656(2) 0.4427(5) 0.6064(4)
C8 C 0.7721(2) 0.6478(6) 0.4037(4)
C9 C 0.8033(2) 0.7459(6) 0.3872(4)
C10 C 0.8470(2) 0.7858(5) 0.4653(4)
C11 C 0.9698(2) 0.6056(5) 0.6249(3)
O4 O 0.9416(1) 0.5171(4) 0.6314(2)
O5 O 1.0169(1) 0.5878(3) 0.6274(2)
C12 C 1.0319(2) 0.4437(5) 0.6345(4)
C13 C 1.0865(2) 0.4380(6) 0.6439(4)
C14 C 0.8862(2) 0.9442(6) 0.7589(4)
O6 O 0.8859(1) 1.0519(4) 0.7991(3)
O7 O 0.8644(1) 0.8313(4) 0.7798(2)
C15 C 0.8421(2) 0.8471(6) 0.8576(4)
C16 C 0.8235(2) 0.7141(7) 0.8772(5)
C17 C 0.9303(2) 1.1612(6) 0.6612(4)
H1 H 0.9663 1.0473 0.5436
H2 H 0.9101 0.7088 0.7049
H3 H 0.8375 0.5887 0.6461
H4 H 0.7413 0.6182 0.3486
H5 H 0.7944 0.7829 0.3171
H6 H 0.8679 0.8585 0.4517
H7 H 1.0099 0.3888 0.5772
H8 H 1.0277 0.3967 0.6958
H9 H 1.0999 0.3472 0.6484
H10 H 1.1076 0.4880 0.7025
H11 H 1.0898 0.4801 0.5839
H12 H 0.8155 0.9138 0.8457
H13 H 0.8685 0.8783 0.9265
H14 H 0.8096 0.7082 0.9277
H15 H 0.8516 0.6459 0.8931
H16 H 0.7986 0.6814 0.8123
H17 H 0.9468 1.2120 0.6253
H18 H 0.9438 1.1867 0.7328
H19 H 0.8941 1.1962 0.6371
loop_
_geom_bond_atom_site_label_1
_geom_bond_atom_site_label_2
_geom_bond_site_symmetry_1
_geom_bond_site_symmetry_2
N1 C1 1_555 1_555
C1 O1 1_555 1_555
N2 C1 1_555 1_555
C2 N2 1_555 1_555
C3 C2 1_555 1_555
C4 N1 1_555 1_555
C5 C2 1_555 1_555
C6 C5 1_555 1_555
C7 C6 1_555 1_555
N3 C7 1_555 1_555
O2 N3 1_555 1_555
O3 N3 1_555 1_555
C8 C7 1_555 1_555
C9 C8 1_555 1_555
C10 C5 1_555 1_555
C11 N2 1_555 1_555
O4 C11 1_555 1_555
O5 C11 1_555 1_555
C12 O5 1_555 1_555
C13 C12 1_555 1_555
C14 C3 1_555 1_555
O6 C14 1_555 1_555
O7 C14 1_555 1_555
C15 O7 1_555 1_555
C16 C15 1_555 1_555
C17 C4 1_555 1_555
H1 N1 1_555 1_555
H2 C2 1_555 1_555
H3 C6 1_555 1_555
H4 C8 1_555 1_555
H5 C9 1_555 1_555
H6 C10 1_555 1_555
H7 C12 1_555 1_555
H8 C12 1_555 1_555
H9 C13 1_555 1_555
H10 C13 1_555 1_555
H11 C13 1_555 1_555
H12 C15 1_555 1_555
H13 C15 1_555 1_555
H14 C16 1_555 1_555
H15 C16 1_555 1_555
H16 C16 1_555 1_555
H17 C17 1_555 1_555
H18 C17 1_555 1_555
H19 C17 1_555 1_555
C3 C4 1_555 1_555
C9 C10 1_555 1_555

#END
