
#######################################################################
#
#                 Cambridge Crystallographic Data Centre
#                                CCDC 
#
#######################################################################
#
# If this CIF has been generated from an entry in the Cambridge 
# Structural Database, then it will include bibliographic, chemical, 
# crystal, experimental, refinement or atomic coordinate data resulting 
# from the CCDC's data processing and validation procedures.
#
#######################################################################

data_REWCIF
_chemical_formula_moiety         'C18 H19 F3 N2 O4 S1'
_chemical_name_systematic        
"Diethyl 1,4-dihydro-6-methyl-4-(2'-trifluoromethylphenyl)-2-thioxo-3,5-pyrimidinedicarboxylate"
_symmetry_cell_setting           monoclinic
_symmetry_space_group_name_H-M   'P 21/c'
_symmetry_Int_Tables_number      14
_space_group_name_Hall           '-P 2ybc'
loop_
_symmetry_equiv_pos_site_id
_symmetry_equiv_pos_as_xyz
1 x,y,z
2 -x,1/2+y,1/2-z
3 -x,-y,-z
4 x,1/2-y,1/2+z
_cell_length_a                   14.925(7)
_cell_length_b                   8.035(4)
_cell_length_c                   16.079(7)
_cell_angle_alpha                90
_cell_angle_beta                 99.18(3)
_cell_angle_gamma                90
_cell_volume                     1903.54
_cell_formula_units_Z            4
loop_
_atom_site_label
_atom_site_type_symbol
_atom_site_fract_x
_atom_site_fract_y
_atom_site_fract_z
S1 S 0.9643(1) 0.7552(3) 0.8185(1)
F1 F 1.3818(3) 0.5411(5) 0.9252(3)
F2 F 1.3914(4) 0.6972(7) 1.0295(3)
F3 F 1.4834(3) 0.7200(6) 0.9456(4)
O1 O 1.0469(3) 0.4398(6) 0.9046(3)
O2 O 1.1909(3) 0.4978(6) 0.9533(3)
O3 O 1.3638(3) 0.5223(6) 0.7383(3)
O4 O 1.2923(3) 0.5068(8) 0.6072(3)
N1 N 1.0650(3) 0.7104(7) 0.7014(3)
N2 N 1.1300(3) 0.6126(6) 0.8310(3)
C1 C 1.0545(4) 0.6874(8) 0.7834(4)
C2 C 1.2227(4) 0.6367(8) 0.8089(4)
C3 C 1.2145(4) 0.6128(8) 0.7140(4)
C4 C 1.1368(4) 0.6539(8) 0.6644(4)
C5 C 1.2625(4) 0.8058(8) 0.8405(4)
C6 C 1.3380(4) 0.8291(8) 0.9018(4)
C7 C 1.3666(5) 0.9891(9) 0.9274(4)
C8 C 1.3235(1) 1.1263(9) 0.8913(5)
C9 C 1.2481(5) 1.1065(9) 0.8290(5)
C10 C 1.2184(4) 0.9464(9) 0.8050(4)
C11 C 1.1163(4) 0.5081(9) 0.8988(4)
C12 C 1.1846(6) 0.383(1) 1.0246(5)
C13 C 1.2551(7) 0.412(1) 1.0899(6)
C14 C 1.2908(4) 0.5449(9) 0.6795(4)
C15 C 1.4422(5) 0.452(1) 0.7093(5)
C16 C 1.5146(6) 0.429(1) 0.7777(5)
C17 C 1.1152(5) 0.646(1) 0.5699(4)
C18 C 1.3964(5) 0.6984(9) 0.9486(4)
H1 H 1.0180 0.7703 0.6655
H2 H 1.2656 0.5541 0.8367
H3 H 1.4176 1.0032 0.9741
H4 H 1.3469 1.2378 0.9099
H5 H 1.2171 1.2046 0.8016
H6 H 1.1644 0.9325 0.7629
H7 H 1.1275 0.4041 1.0468
H8 H 1.1827 0.2697 1.0076
H9 H 1.2562 0.3423 1.1374
H10 H 1.2586 0.5260 1.1082
H11 H 1.3138 0.3916 1.0690
H12 H 1.4608 0.5159 0.6639
H13 H 1.4263 0.3398 0.6825
H14 H 1.5684 0.3826 0.7600
H15 H 1.4975 0.3616 0.8201
H16 H 1.5319 0.5377 0.8014
H17 H 1.1661 0.6064 0.5456
H18 H 1.0993 0.7542 0.5460
H19 H 1.0650 0.5730 0.5515
loop_
_geom_bond_atom_site_label_1
_geom_bond_atom_site_label_2
_geom_bond_site_symmetry_1
_geom_bond_site_symmetry_2
S1 C1 1_555 1_555
F1 C18 1_555 1_555
F2 C18 1_555 1_555
F3 C18 1_555 1_555
O1 C11 1_555 1_555
O2 C11 1_555 1_555
O3 C14 1_555 1_555
O4 C14 1_555 1_555
N1 C1 1_555 1_555
N2 C1 1_555 1_555
C2 N2 1_555 1_555
C3 C2 1_555 1_555
C4 N1 1_555 1_555
C5 C2 1_555 1_555
C6 C5 1_555 1_555
C7 C6 1_555 1_555
C8 C7 1_555 1_555
C9 C8 1_555 1_555
C10 C5 1_555 1_555
C11 N2 1_555 1_555
C12 O2 1_555 1_555
C13 C12 1_555 1_555
C14 C3 1_555 1_555
C15 O3 1_555 1_555
C16 C15 1_555 1_555
C17 C4 1_555 1_555
C18 C6 1_555 1_555
H1 N1 1_555 1_555
H2 C2 1_555 1_555
H3 C7 1_555 1_555
H4 C8 1_555 1_555
H5 C9 1_555 1_555
H6 C10 1_555 1_555
H7 C12 1_555 1_555
H8 C12 1_555 1_555
H9 C13 1_555 1_555
H10 C13 1_555 1_555
H11 C13 1_555 1_555
H12 C15 1_555 1_555
H13 C15 1_555 1_555
H14 C16 1_555 1_555
H15 C16 1_555 1_555
H16 C16 1_555 1_555
H17 C17 1_555 1_555
H18 C17 1_555 1_555
H19 C17 1_555 1_555
C3 C4 1_555 1_555
C9 C10 1_555 1_555

#END
