
#######################################################################
#
#                 Cambridge Crystallographic Data Centre
#                                CCDC 
#
#######################################################################
#
# If this CIF has been generated from an entry in the Cambridge 
# Structural Database, then it will include bibliographic, chemical, 
# crystal, experimental, refinement or atomic coordinate data resulting 
# from the CCDC's data processing and validation procedures.
#
#######################################################################

data_REWCUR
_chemical_formula_moiety         'C17 H19 N3 O6 S1'
_chemical_name_systematic        
"Diethyl 1,4-dihydro-6-methyl-4-(3'-nitrophenyl)-2-thioxo-3,5-pyrimidinedicarboxylate"
_symmetry_cell_setting           triclinic
_symmetry_space_group_name_H-M   'P -1'
_symmetry_Int_Tables_number      2
_space_group_name_Hall           '-P 1'
loop_
_symmetry_equiv_pos_site_id
_symmetry_equiv_pos_as_xyz
1 x,y,z
2 -x,-y,-z
_cell_length_a                   12.151(1)
_cell_length_b                   12.324(1)
_cell_length_c                   7.284(1)
_cell_angle_alpha                90.39(1)
_cell_angle_beta                 103.06(1)
_cell_angle_gamma                114.04(1)
_cell_volume                     964.382
_cell_formula_units_Z            2
loop_
_atom_site_label
_atom_site_type_symbol
_atom_site_fract_x
_atom_site_fract_y
_atom_site_fract_z
N1 N 0.2548(3) 0.3675(3) 1.1042(4)
C1 C 0.1720(3) 0.3727(3) 0.9480(5)
S1 S 0.0480(1) 0.3909(1) 0.9628(2)
N2 N 0.2025(3) 0.3532(2) 0.7799(4)
C2 C 0.2583(3) 0.2677(3) 0.7810(5)
C3 C 0.3724(3) 0.3094(3) 0.9446(5)
C4 C 0.3643(4) 0.3567(3) 1.1048(6)
C5 C 0.1627(3) 0.1401(3) 0.7861(5)
C6 C 0.0367(3) 0.1105(3) 0.7228(5)
C7 C -0.0463(3) -0.0064(3) 0.7253(5)
N3 N -0.1807(3) -0.0357(3) 0.6633(5)
O1 O -0.2537(3) -0.1396(3) 0.6600(5)
O2 O -0.2118(3) 0.0438(3) 0.6184(7)
C8 C -0.0105(4) -0.0950(3) 0.7857(6)
C9 C 0.1152(4) -0.0647(3) 0.8486(7)
C10 C 0.2013(4) 0.0518(3) 0.8509(6)
C11 C 0.4858(4) 0.3002(4) 0.9256(7)
O3 O 0.5830(3) 0.3364(4) 1.0420(7)
O4 O 0.4670(3) 0.2403(3) 0.7607(5)
C12 C 0.5673(5) 0.2147(6) 0.723(1)
C13 C 0.5578(7) 0.1042(8) 0.782(2)
C14 C 0.1950(3) 0.4164(3) 0.6233(5)
O5 O 0.2190(3) 0.3915(3) 0.4825(4)
O6 O 0.1663(2) 0.5053(2) 0.6525(4)
C15 C 0.1687(4) 0.5839(4) 0.5043(7)
C16 C 0.1628(5) 0.6912(4) 0.5889(9)
C17 C 0.4591(4) 0.3986(5) 1.2911(7)
H1 H 0.2852 0.2649 0.6481
H2 H 0.0035 0.1781 0.6733
H3 H -0.0788 -0.1866 0.7817
H4 H 0.1483 -0.1321 0.8985
H5 H 0.3005 0.0756 0.9042
H6 H 0.2533 0.6097 0.4560
H7 H 0.0895 0.5392 0.3811
H8 H 0.5418 0.3869 1.2826
H9 H 0.4853 0.4925 1.3301
H10 H 0.4221 0.3481 1.4019
H11 H 0.1622 0.7541 0.4862
H12 H 0.0756 0.6643 0.6362
H13 H 0.2395 0.7350 0.7112
H14 H 0.5659 0.2165 0.5716
H15 H 0.6582 0.2843 0.8007
H16 H 0.6291 0.0799 0.7537
H17 H 0.5587 0.1007 0.9296
H18 H 0.4664 0.0328 0.7006
H19 H 0.2357 0.3727 1.2310
loop_
_geom_bond_atom_site_label_1
_geom_bond_atom_site_label_2
_geom_bond_site_symmetry_1
_geom_bond_site_symmetry_2
N1 C1 1_555 1_555
C1 S1 1_555 1_555
N2 C1 1_555 1_555
C2 N2 1_555 1_555
C3 C2 1_555 1_555
C4 N1 1_555 1_555
C5 C2 1_555 1_555
C6 C5 1_555 1_555
C7 C6 1_555 1_555
N3 C7 1_555 1_555
O1 N3 1_555 1_555
O2 N3 1_555 1_555
C8 C7 1_555 1_555
C9 C8 1_555 1_555
C10 C5 1_555 1_555
C11 C3 1_555 1_555
O3 C11 1_555 1_555
O4 C11 1_555 1_555
C12 O4 1_555 1_555
C13 C12 1_555 1_555
C14 N2 1_555 1_555
O5 C14 1_555 1_555
O6 C14 1_555 1_555
C15 O6 1_555 1_555
C16 C15 1_555 1_555
C17 C4 1_555 1_555
H1 C2 1_555 1_555
H2 C6 1_555 1_555
H3 C8 1_555 1_555
H4 C9 1_555 1_555
H5 C10 1_555 1_555
H6 C15 1_555 1_555
H7 C15 1_555 1_555
H8 C17 1_555 1_555
H9 C17 1_555 1_555
H10 C17 1_555 1_555
H11 C16 1_555 1_555
H12 C16 1_555 1_555
H13 C16 1_555 1_555
H14 C12 1_555 1_555
H15 C12 1_555 1_555
H16 C13 1_555 1_555
H17 C13 1_555 1_555
H18 C13 1_555 1_555
H19 N1 1_555 1_555
C3 C4 1_555 1_555
C9 C10 1_555 1_555

#END
