
#######################################################################
#
#                 Cambridge Crystallographic Data Centre
#                                CCDC 
#
#######################################################################
#
# If this CIF has been generated from an entry in the Cambridge 
# Structural Database, then it will include bibliographic, chemical, 
# crystal, experimental, refinement or atomic coordinate data resulting 
# from the CCDC's data processing and validation procedures.
#
#######################################################################

data_REWDEC
_chemical_formula_moiety         'C23 H30 N2 O4 S2'
_chemical_name_systematic        
'1,4-Dihydro-6-methyl-2-(methylthio)-4-(2-((5-hydroxypentyl)thio)phenyl)-3,5-pyrimidinedicarboxylic acid 3-t-butyl ester'
_symmetry_cell_setting           triclinic
_symmetry_space_group_name_H-M   'P -1'
_symmetry_Int_Tables_number      2
_space_group_name_Hall           '-P 1'
loop_
_symmetry_equiv_pos_site_id
_symmetry_equiv_pos_as_xyz
1 x,y,z
2 -x,-y,-z
_cell_length_a                   12.027(1)
_cell_length_b                   12.446(2)
_cell_length_c                   9.473(1)
_cell_angle_alpha                111.43(1)
_cell_angle_beta                 108.67(1)
_cell_angle_gamma                95.99(1)
_cell_volume                     1210.48
_cell_formula_units_Z            2
loop_
_atom_site_label
_atom_site_type_symbol
_atom_site_fract_x
_atom_site_fract_y
_atom_site_fract_z
N1 N 0.9172(2) 0.2821(2) 0.3086(2)
C1 C 0.9037(2) 0.1782(2) 0.1999(3)
N2 N 0.8076(2) 0.1301(1) 0.0441(2)
C2 C 0.7775(2) 0.2186(2) -0.0231(2)
C3 C 0.7695(2) 0.3256(2) 0.1133(2)
C4 C 0.8329(2) 0.3475(2) 0.2709(3)
C5 C 0.8660(2) 0.2510(2) -0.0935(2)
C6 C 0.8406(2) 0.1986(2) -0.2625(3)
C7 C 0.9209(2) 0.2385(2) -0.3219(3)
C8 C 1.0241(2) 0.3282(2) -0.2172(3)
C9 C 1.0514(2) 0.3773(2) -0.0508(3)
C10 C 0.9730(2) 0.3391(2) 0.0096(3)
S1 S 1.00893(6) 0.09282(6) 0.22273(9)
C11 C 1.1255(6) 0.1907(3) 0.4138(4)
C12 C 0.7236(2) 0.0229(2) -0.0209(2)
O1 O 0.6410(2) -0.0153(1) -0.1526(2)
O2 O 0.7462(2) -0.0268(1) 0.0840(2)
C13 C 0.6838(2) -0.1518(2) 0.0321(3)
C14 C 0.7439(3) -0.1705(2) 0.1850(3)
C15 C 0.7091(3) -0.2319(2) -0.1111(4)
C16 C 0.5503(3) -0.1633(3) -0.0074(4)
C17 C 0.6988(2) 0.4050(2) 0.0641(3)
O3 O 0.6991(2) 0.5033(2) 0.1522(2)
C18 C 0.5774(3) 0.4280(2) -0.1740(3)
O4 O 0.6359(2) 0.3565(1) -0.0976(2)
C19 C 0.4737(3) 0.3469(2) -0.3319(3)
C20 C 0.5002(2) 0.2340(3) -0.4333(3)
C21 C 0.6052(3) 0.2520(2) -0.4854(3)
C22 C 0.6431(3) 0.1387(3) -0.5548(3)
S2 S 0.70843(7) 0.08213(5) -0.40344(7)
C23 C 0.8289(3) 0.4424(2) 0.4204(3)
H1 H 0.7018 0.1852 -0.1147
H2 H 0.9037 0.2030 -0.4365
H3 H 1.0765 0.3561 -0.2599
H4 H 0.9925 0.3738 0.1248
H5 H 1.1242 0.4375 0.0223
H6 H 1.1889 0.1529 0.4389
H7 H 1.1560 0.2613 0.4065
H8 H 1.0938 0.2103 0.4969
H9 H 0.8277 -0.1628 0.2068
H10 H 0.7337 -0.1127 0.2752
H11 H 0.7075 -0.2481 0.1678
H12 H 0.6700 -0.2175 -0.2046
H13 H 0.7940 -0.2155 -0.0843
H14 H 0.6791 -0.3127 -0.1347
H15 H 0.5149 -0.1512 -0.1037
H16 H 0.5129 -0.2409 -0.0255
H17 H 0.5391 -0.1054 0.0818
H18 H 0.6339 0.4719 -0.1962
H19 H 0.5479 0.4816 -0.1026
H20 H 0.4518 0.3898 -0.3971
H21 H 0.4073 0.3244 -0.3061
H22 H 0.5177 0.1891 -0.3700
H23 H 0.4292 0.1897 -0.5300
H24 H 0.6725 0.3088 -0.3924
H25 H 0.5814 0.2814 -0.5672
H26 H 0.7017 0.1543 -0.5970
H27 H 0.5739 0.0796 -0.6413
H28 H 0.8823 0.4384 0.5160
H29 H 0.8533 0.5183 0.4228
H30 H 0.7486 0.4305 0.4170
loop_
_geom_bond_atom_site_label_1
_geom_bond_atom_site_label_2
_geom_bond_site_symmetry_1
_geom_bond_site_symmetry_2
N1 C1 1_555 1_555
C1 N2 1_555 1_555
N2 C2 1_555 1_555
C2 C3 1_555 1_555
C3 C4 1_555 1_555
C4 N1 1_555 1_555
C5 C2 1_555 1_555
C6 C5 1_555 1_555
C7 C6 1_555 1_555
C8 C7 1_555 1_555
C9 C8 1_555 1_555
C10 C5 1_555 1_555
S1 C1 1_555 1_555
C11 S1 1_555 1_555
C12 N2 1_555 1_555
O1 C12 1_555 1_555
O2 C12 1_555 1_555
C13 O2 1_555 1_555
C14 C13 1_555 1_555
C15 C13 1_555 1_555
C16 C13 1_555 1_555
C17 C3 1_555 1_555
O3 C17 1_555 1_555
C18 O4 1_555 1_555
O4 C17 1_555 1_555
C19 C18 1_555 1_555
C20 C19 1_555 1_555
C21 C20 1_555 1_555
C22 C21 1_555 1_555
S2 C6 1_555 1_555
C23 C4 1_555 1_555
H1 C2 1_555 1_555
H2 C7 1_555 1_555
H3 C8 1_555 1_555
H4 C10 1_555 1_555
H5 C9 1_555 1_555
H6 C11 1_555 1_555
H7 C11 1_555 1_555
H8 C11 1_555 1_555
H9 C14 1_555 1_555
H10 C14 1_555 1_555
H11 C14 1_555 1_555
H12 C15 1_555 1_555
H13 C15 1_555 1_555
H14 C15 1_555 1_555
H15 C16 1_555 1_555
H16 C16 1_555 1_555
H17 C16 1_555 1_555
H18 C18 1_555 1_555
H19 C18 1_555 1_555
H20 C19 1_555 1_555
H21 C19 1_555 1_555
H22 C20 1_555 1_555
H23 C20 1_555 1_555
H24 C21 1_555 1_555
H25 C21 1_555 1_555
H26 C22 1_555 1_555
H27 C22 1_555 1_555
H28 C23 1_555 1_555
H29 C23 1_555 1_555
H30 C23 1_555 1_555
C9 C10 1_555 1_555
C22 S2 1_555 1_555

#END
