
#######################################################################
#
#                 Cambridge Crystallographic Data Centre
#                                CCDC 
#
#######################################################################
#
# If this CIF has been generated from an entry in the Cambridge 
# Structural Database, then it will include bibliographic, chemical, 
# crystal, experimental, refinement or atomic coordinate data resulting 
# from the CCDC's data processing and validation procedures.
#
#######################################################################

data_REWDIG
_chemical_formula_moiety         'C23 H29 N3 O6 S2'
_chemical_name_systematic        
'1,4-Dihydro-6-methyl-2-(methylthio)-4-(2-((5-hydroxypentyl)thio)-5-nitrophenyl)-3,5-pyrimidinedicarboxylic acid 3-t-butyl ester'
_symmetry_cell_setting           triclinic
_symmetry_space_group_name_H-M   'P -1'
_symmetry_Int_Tables_number      2
_space_group_name_Hall           '-P 1'
loop_
_symmetry_equiv_pos_site_id
_symmetry_equiv_pos_as_xyz
1 x,y,z
2 -x,-y,-z
_cell_length_a                   11.055(1)
_cell_length_b                   12.191(1)
_cell_length_c                   10.033(1)
_cell_angle_alpha                101.32(1)
_cell_angle_beta                 105.56(1)
_cell_angle_gamma                95.99(1)
_cell_volume                     1259.5
_cell_formula_units_Z            2
loop_
_atom_site_label
_atom_site_type_symbol
_atom_site_fract_x
_atom_site_fract_y
_atom_site_fract_z
N1 N 0.3356(3) 0.2122(2) 0.4761(3)
C1 C 0.4313(3) 0.2933(3) 0.5363(3)
N2 N 0.5536(2) 0.2809(2) 0.5301(3)
C2 C 0.5630(3) 0.2021(3) 0.4012(3)
C3 C 0.4624(3) 0.0980(3) 0.3654(4)
C4 C 0.3570(3) 0.1070(3) 0.4055(4)
C5 C 0.5487(3) 0.2606(3) 0.2769(3)
C6 C 0.6499(3) 0.2917(3) 0.2257(4)
C7 C 0.6284(4) 0.3407(3) 0.1083(4)
C8 C 0.5099(4) 0.3613(3) 0.0428(4)
C9 C 0.4120(3) 0.3333(3) 0.0975(4)
C10 C 0.4293(3) 0.2826(3) 0.2117(4)
S1 S 0.40627(8) 0.42252(8) 0.6254(1)
C11 C 0.2360(4) 0.3958(4) 0.5771(6)
C12 C 0.6612(3) 0.3417(3) 0.6390(4)
O1 O 0.6563(3) 0.4170(3) 0.7330(3)
O2 O 0.7651(2) 0.3023(2) 0.6220(2)
C13 C 0.8899(3) 0.3452(3) 0.7312(4)
C14 C 0.8811(4) 0.3380(5) 0.8765(4)
C15 C 0.9721(3) 0.2620(4) 0.6828(5)
C16 C 0.9376(4) 0.4635(4) 0.7235(5)
C17 C 0.4828(4) -0.0083(3) 0.2805(4)
O3 O 0.4095(3) -0.0953(2) 0.2343(4)
O4 O 0.5950(3) 0.0051(3) 0.2582(4)
C18 C 0.6259(5) -0.0915(4) 0.1656(7)
C19 C 0.7320(7) -0.0299(7) 0.1014(9)
C21 C 0.8480(5) 0.0192(4) 0.2306(7)
C22 C 0.9346(7) 0.1177(6) 0.1899(9)
C24 C 0.8648(4) 0.2135(4) 0.1637(5)
S2 S 0.80697(8) 0.27488(9) 0.3119(1)
N3 N 0.2851(3) 0.3572(3) 0.0343(3)
O5 O 0.2713(3) 0.4108(3) -0.0581(3)
O6 O 0.1973(3) 0.3209(3) 0.0742(3)
C25 C 0.2476(4) 0.0136(4) 0.3796(6)
H1 H 0.6445 0.1797 0.4188
H2 H 0.6974 0.3605 0.0733
H3 H 0.4955 0.3935 -0.0379
H4 H 0.3592 0.2625 0.2450
H5 H 0.2068 0.4607 0.6190
H6 H 0.2021 0.3802 0.4766
H7 H 0.2092 0.3325 0.6104
H8 H 0.8298 0.3902 0.9050
H9 H 0.8441 0.2633 0.8729
H10 H 0.9640 0.3562 0.9423
H11 H 0.9402 0.1881 0.6886
H12 H 0.9697 0.2615 0.5876
H13 H 1.0572 0.2845 0.7429
H14 H 0.9413 0.4625 0.6300
H15 H 0.8814 0.5123 0.7471
H16 H 1.0203 0.4889 0.7891
H17 H 0.1852 0.0426 0.4190
H18 H 0.2113 -0.0162 0.2800
H19 H 0.2777 -0.0449 0.4231
C20? C 0.757(2) -0.098(2) 0.215(2)
C23? C 0.793(2) 0.076(2) 0.116(2)
loop_
_geom_bond_atom_site_label_1
_geom_bond_atom_site_label_2
_geom_bond_site_symmetry_1
_geom_bond_site_symmetry_2
N1 C1 1_555 1_555
C1 N2 1_555 1_555
N2 C2 1_555 1_555
C2 C3 1_555 1_555
C3 C4 1_555 1_555
C4 N1 1_555 1_555
C5 C2 1_555 1_555
C6 C5 1_555 1_555
C7 C6 1_555 1_555
C8 C7 1_555 1_555
C9 C8 1_555 1_555
C10 C5 1_555 1_555
S1 C1 1_555 1_555
C11 S1 1_555 1_555
C12 N2 1_555 1_555
O1 C12 1_555 1_555
O2 C12 1_555 1_555
C13 O2 1_555 1_555
C14 C13 1_555 1_555
C15 C13 1_555 1_555
C16 C13 1_555 1_555
C17 C3 1_555 1_555
O3 C17 1_555 1_555
O4 C17 1_555 1_555
C18 O4 1_555 1_555
C19 C18 1_555 1_555
C21 C19 1_555 1_555
C22 C21 1_555 1_555
C24 C22 1_555 1_555
S2 C6 1_555 1_555
N3 C9 1_555 1_555
O5 N3 1_555 1_555
O6 N3 1_555 1_555
C25 C4 1_555 1_555
H1 C2 1_555 1_555
H2 C7 1_555 1_555
H3 C8 1_555 1_555
H4 C10 1_555 1_555
H5 C11 1_555 1_555
H6 C11 1_555 1_555
H7 C11 1_555 1_555
H8 C14 1_555 1_555
H9 C14 1_555 1_555
H10 C14 1_555 1_555
H11 C15 1_555 1_555
H12 C15 1_555 1_555
H13 C15 1_555 1_555
H14 C16 1_555 1_555
H15 C16 1_555 1_555
H16 C16 1_555 1_555
H17 C25 1_555 1_555
H18 C25 1_555 1_555
H19 C25 1_555 1_555
C9 C10 1_555 1_555
C24 S2 1_555 1_555

#END
