
#######################################################################
#
#                 Cambridge Crystallographic Data Centre
#                                CCDC 
#
#######################################################################
#
# If this CIF has been generated from an entry in the Cambridge 
# Structural Database, then it will include bibliographic, chemical, 
# crystal, experimental, refinement or atomic coordinate data resulting 
# from the CCDC's data processing and validation procedures.
#
#######################################################################

data_REWDOM
_chemical_formula_moiety         'C14 H15 N3 O4 S1'
_chemical_name_systematic        
"Ethyl 1,4-dihydro-6-methyl-2-thioxo-4-(3'-nitrophenyl)-5-pyrimidinecarboxylate"
_symmetry_cell_setting           triclinic
_symmetry_space_group_name_H-M   'P -1'
_symmetry_Int_Tables_number      2
_space_group_name_Hall           '-P 1'
loop_
_symmetry_equiv_pos_site_id
_symmetry_equiv_pos_as_xyz
1 x,y,z
2 -x,-y,-z
_cell_length_a                   8.45(1)
_cell_length_b                   13.56(1)
_cell_length_c                   14.47(2)
_cell_angle_alpha                101.35(9)
_cell_angle_beta                 98.23(8)
_cell_angle_gamma                104.34(9)
_cell_volume                     1542.46
_cell_formula_units_Z            4
loop_
_atom_site_label
_atom_site_type_symbol
_atom_site_fract_x
_atom_site_fract_y
_atom_site_fract_z
N1 N 0.0341(6) 0.7836(4) 0.6464(4)
C1 C 0.1563(8) 0.8018(5) 0.5962(5)
S1 S 0.1321(2) 0.8498(1) 0.4980(1)
N2 N 0.2975(6) 0.7844(4) 0.6311(4)
C2 C 0.3237(8) 0.7324(5) 0.7099(4)
C3 C 0.1976(8) 0.7418(5) 0.7714(4)
C4 C 0.0578(9) 0.7646(5) 0.7388(4)
C5 C 0.3212(8) 0.6185(5) 0.6669(4)
C6 C 0.4668(8) 0.5950(5) 0.6583(5)
C7 C 0.4641(9) 0.4926(5) 0.6171(5)
N3 N 0.6257(8) 0.4722(4) 0.6086(4)
O1 O 0.7551(6) 0.5432(4) 0.6419(4)
O2 O 0.6253(7) 0.3826(4) 0.5698(4)
C8 C 0.319(1) 0.4150(5) 0.5833(5)
C9 C 0.1716(9) 0.4384(5) 0.5927(5)
C10 C 0.1708(9) 0.5402(5) 0.6335(5)
C11 C 0.2347(9) 0.7260(5) 0.8695(5)
O3 O 0.1370(7) 0.7158(4) 0.9231(3)
O4 O 0.3920(6) 0.7232(3) 0.8916(3)
C12 C 0.445(1) 0.7061(6) 0.9858(5)
C13 C 0.621(1) 0.7090(8) 0.9959(7)
C14 C -0.0790(9) 0.7776(6) 0.7905(5)
H1 H -0.0747 0.7848 0.6186
H2 H 0.3913 0.8078 0.6022
H3 H 0.4295 0.7656 0.7517
H4 H 0.5723 0.6497 0.6807
H5 H 0.3175 0.3447 0.5540
H6 H 0.0671 0.3845 0.5693
H7 H 0.0675 0.5570 0.6393
H8 H 0.3800 0.6401 0.9909
H9 H 0.4313 0.7601 1.0350
H10 H 0.6602 0.6984 1.0573
H11 H 0.6848 0.7757 0.9911
H12 H 0.6335 0.6557 0.9469
H13 H -0.0561 0.7630 0.8519
H14 H -0.1816 0.7300 0.7543
H15 H -0.0851 0.8472 0.7981
N4 N 0.7521(6) 0.8746(4) 0.4095(4)
C15 C 0.6353(8) 0.8683(5) 0.4638(4)
S2 S 0.6762(2) 0.8606(1) 0.5792(1)
N5 N 0.4876(6) 0.8737(4) 0.4216(4)
C16 C 0.4374(8) 0.8696(5) 0.3202(4)
C17 C 0.5895(8) 0.9122(4) 0.2826(4)
C18 C 0.7399(8) 0.9096(5) 0.3244(4)
C19 C 0.3356(8) 0.7595(5) 0.2633(4)
C20 C 0.1635(8) 0.7331(5) 0.2469(5)
C21 C 0.0717(9) 0.6327(5) 0.1947(5)
N6 N -0.1121(8) 0.6086(5) 0.1795(5)
O5 O -0.1740(7) 0.6746(4) 0.2137(4)
O6 O -0.1935(8) 0.5221(5) 0.1315(6)
C22 C 0.145(1) 0.5590(5) 0.1611(5)
C23 C 0.3178(9) 0.5839(5) 0.1776(5)
C24 C 0.4104(9) 0.6849(5) 0.2295(5)
C25 C 0.5664(9) 0.9542(5) 0.1949(5)
O7 O 0.6698(6) 0.9870(4) 0.1509(3)
O8 O 0.4057(6) 0.9498(3) 0.1704(3)
C26 C 0.359(1) 0.9842(6) 0.0853(5)
C27 C 0.178(1) 0.9676(7) 0.0689(6)
C28 C 0.9009(8) 0.9375(5) 0.2914(5)
H16 H 0.8495 0.8545 0.4303
H17 H 0.4074 0.8802 0.4612
H18 H 0.3648 0.9129 0.3127
H19 H 0.1080 0.7835 0.2712
H20 H 0.0781 0.4895 0.1243
H21 H 0.3730 0.5328 0.1539
H22 H 0.5299 0.7025 0.2421
H23 H 0.3878 0.9454 0.0306
H24 H 0.4145 1.0571 0.0935
H25 H 0.1392 0.9892 0.0133
H26 H 0.1488 1.0066 0.1233
H27 H 0.1221 0.8948 0.0605
H28 H 0.8852 0.9606 0.2335
H29 H 0.9428 0.8782 0.2798
H30 H 0.9809 0.9926 0.3396
loop_
_geom_bond_atom_site_label_1
_geom_bond_atom_site_label_2
_geom_bond_site_symmetry_1
_geom_bond_site_symmetry_2
N1 C1 1_555 1_555
C1 S1 1_555 1_555
N2 C1 1_555 1_555
C2 N2 1_555 1_555
C3 C2 1_555 1_555
C4 N1 1_555 1_555
C5 C2 1_555 1_555
C6 C5 1_555 1_555
C7 C6 1_555 1_555
N3 C7 1_555 1_555
O1 N3 1_555 1_555
O2 N3 1_555 1_555
C8 C7 1_555 1_555
C9 C8 1_555 1_555
C10 C5 1_555 1_555
C11 C3 1_555 1_555
O3 C11 1_555 1_555
O4 C11 1_555 1_555
C12 O4 1_555 1_555
C13 C12 1_555 1_555
C14 C4 1_555 1_555
H1 N1 1_555 1_555
H2 N2 1_555 1_555
H3 C2 1_555 1_555
H4 C6 1_555 1_555
H5 C8 1_555 1_555
H6 C9 1_555 1_555
H7 C10 1_555 1_555
H8 C12 1_555 1_555
H9 C12 1_555 1_555
H10 C13 1_555 1_555
H11 C13 1_555 1_555
H12 C13 1_555 1_555
H13 C14 1_555 1_555
H14 C14 1_555 1_555
H15 C14 1_555 1_555
N4 C15 1_555 1_555
C15 S2 1_555 1_555
N5 C15 1_555 1_555
C16 N5 1_555 1_555
C17 C16 1_555 1_555
C18 N4 1_555 1_555
C19 C16 1_555 1_555
C20 C19 1_555 1_555
C21 C20 1_555 1_555
N6 C21 1_555 1_555
O5 N6 1_555 1_555
O6 N6 1_555 1_555
C22 C21 1_555 1_555
C23 C22 1_555 1_555
C24 C19 1_555 1_555
C25 C17 1_555 1_555
O7 C25 1_555 1_555
O8 C25 1_555 1_555
C26 O8 1_555 1_555
C27 C26 1_555 1_555
C28 C18 1_555 1_555
H16 N4 1_555 1_555
H17 N5 1_555 1_555
H18 C16 1_555 1_555
H19 C20 1_555 1_555
H20 C22 1_555 1_555
H21 C23 1_555 1_555
H22 C24 1_555 1_555
H23 C26 1_555 1_555
H24 C26 1_555 1_555
H25 C27 1_555 1_555
H26 C27 1_555 1_555
H27 C27 1_555 1_555
H28 C28 1_555 1_555
H29 C28 1_555 1_555
H30 C28 1_555 1_555
C3 C4 1_555 1_555
C9 C10 1_555 1_555
C17 C18 1_555 1_555
C23 C24 1_555 1_555

#END
