
#######################################################################
#
#                 Cambridge Crystallographic Data Centre
#                                CCDC 
#
#######################################################################
#
# If this CIF has been generated from an entry in the Cambridge 
# Structural Database, then it will include bibliographic, chemical, 
# crystal, experimental, refinement or atomic coordinate data resulting 
# from the CCDC's data processing and validation procedures.
#
#######################################################################

data_REWDOO
_chemical_formula_moiety         'C20 H19 N3 O2 S1'
_chemical_name_systematic        
'Methyl 5-cyano-6-methyl-2-((methylsulfanyl)methyl)-4-(quinolin-4-yl)-1,4-dihydropyridine-3-carboxylate'
_symmetry_cell_setting           tetragonal
_symmetry_space_group_name_H-M   'P 43 21 2'
_symmetry_Int_Tables_number      96
_space_group_name_Hall           'P 4nw 2abw'
loop_
_symmetry_equiv_pos_site_id
_symmetry_equiv_pos_as_xyz
1 x,y,z
2 -x,-y,1/2+z
3 y,x,-z
4 -y,-x,1/2-z
5 1/2-y,1/2+x,3/4+z
6 1/2+x,1/2-y,1/4-z
7 1/2+y,1/2-x,1/4+z
8 1/2-x,1/2+y,3/4-z
_cell_length_a                   9.506
_cell_length_b                   9.506
_cell_length_c                   41.962
_cell_angle_alpha                90
_cell_angle_beta                 90
_cell_angle_gamma                90
_cell_volume                     3791.86
_cell_formula_units_Z            8
loop_
_atom_site_label
_atom_site_type_symbol
_atom_site_fract_x
_atom_site_fract_y
_atom_site_fract_z
N1 N 0.3652(3) -0.0100(3) 0.0331(1)
C1 C 0.3094(4) -0.1080(4) 0.0129(1)
C2 C 0.1746(3) -0.1468(3) 0.0165(1)
C3 C 0.0812(3) -0.0941(3) 0.0434(1)
C4 C 0.1494(4) 0.0331(3) 0.0592(1)
C5 C 0.2864(4) 0.0657(3) 0.0549(1)
C6 C 0.4055(4) -0.1648(4) -0.0121(1)
C7 C 0.1162(3) -0.2502(4) -0.0038(1)
N2 N 0.0639(3) -0.3346(3) -0.0192(1)
C8 C 0.0567(4) -0.2100(3) 0.0679(1)
C9 C 0.1657(5) -0.2517(4) 0.0867(1)
C10 C 0.1449(7) -0.3547(5) 0.1099(1)
N3 N 0.0288(7) -0.4203(4) 0.1153(1)
C11 C -0.0813(6) -0.3836(4) 0.0965(1)
C12 C -0.0741(4) -0.2775(3) 0.0725(1)
C13 C -0.1965(4) -0.2451(4) 0.0553(1)
C14 C -0.3198(5) -0.3142(5) 0.0610(1)
C15 C -0.3233(7) -0.4214(6) 0.0842(1)
C16 C -0.2103(8) -0.4519(5) 0.1014(1)
C17 C 0.0589(4) 0.1124(4) 0.0813(1)
O1 O 0.0950(3) 0.1933(3) 0.1021(1)
O2 O -0.0760(3) 0.0807(3) 0.0765(1)
C18 C -0.1786(4) 0.1499(4) 0.0964(1)
C19 C 0.3671(4) 0.1798(4) 0.0711(1)
S1 S 0.4031(2) 0.3288(1) 0.0459(1)
C20 C 0.2290(7) 0.3961(5) 0.0408(1)
H1 H 0.4440(40) 0.0220(40) 0.0290(9)
H2 H -0.0097 -0.0656 0.0345
H3 H 0.3556 -0.2318 -0.0250
H4 H 0.4842 -0.2102 -0.0021
H5 H 0.4385 -0.0892 -0.0253
H6 H 0.2541 -0.2114 0.0841
H7 H 0.2215 -0.3779 0.1226
H8 H -0.1935 -0.1754 0.0398
H9 H -0.4007 -0.2906 0.0498
H10 H -0.4061 -0.4716 0.0874
H11 H -0.2168 -0.5203 0.1172
H12 H -0.2713 0.1193 0.0905
H13 H -0.1715 0.2499 0.0936
H14 H -0.1613 0.1265 0.1183
H15 H 0.4556 0.1416 0.0787
H16 H 0.3144 0.2115 0.0895
H17 H 0.2319 0.4776 0.0273
H18 H 0.1909 0.4216 0.0612
H19 H 0.1708 0.3254 0.0312
loop_
_geom_bond_atom_site_label_1
_geom_bond_atom_site_label_2
_geom_bond_site_symmetry_1
_geom_bond_site_symmetry_2
N1 C1 1_555 1_555
C1 C2 1_555 1_555
C2 C3 1_555 1_555
C3 C4 1_555 1_555
C4 C5 1_555 1_555
C5 N1 1_555 1_555
C6 C1 1_555 1_555
C7 C2 1_555 1_555
N2 C7 1_555 1_555
C8 C3 1_555 1_555
C9 C8 1_555 1_555
C10 C9 1_555 1_555
N3 C10 1_555 1_555
C11 N3 1_555 1_555
C12 C8 1_555 1_555
C13 C12 1_555 1_555
C14 C13 1_555 1_555
C15 C14 1_555 1_555
C16 C11 1_555 1_555
C17 C4 1_555 1_555
O1 C17 1_555 1_555
O2 C17 1_555 1_555
C18 O2 1_555 1_555
C19 C5 1_555 1_555
S1 C19 1_555 1_555
C20 S1 1_555 1_555
H1 N1 1_555 1_555
H2 C3 1_555 1_555
H3 C6 1_555 1_555
H4 C6 1_555 1_555
H5 C6 1_555 1_555
H6 C9 1_555 1_555
H7 C10 1_555 1_555
H8 C13 1_555 1_555
H9 C14 1_555 1_555
H10 C15 1_555 1_555
H11 C16 1_555 1_555
H12 C18 1_555 1_555
H13 C18 1_555 1_555
H14 C18 1_555 1_555
H15 C19 1_555 1_555
H16 C19 1_555 1_555
H17 C20 1_555 1_555
H18 C20 1_555 1_555
H19 C20 1_555 1_555
C11 C12 1_555 1_555
C15 C16 1_555 1_555

#END
