
#######################################################################
#
#                 Cambridge Crystallographic Data Centre
#                                CCDC 
#
#######################################################################
#
# If this CIF has been generated from an entry in the Cambridge 
# Structural Database, then it will include bibliographic, chemical, 
# crystal, experimental, refinement or atomic coordinate data resulting 
# from the CCDC's data processing and validation procedures.
#
#######################################################################

data_REWDAY
_chemical_formula_moiety         'C17 H20 N4 O6'
_chemical_name_systematic        
"Isopropyl 1,4-dihydro-6-methyl-3-(N-methylamido)-4-(3'-nitrophenyl)-2-oxo-5-pyrimidinecarboxylate"
_symmetry_cell_setting           monoclinic
_symmetry_space_group_name_H-M   'P 21/c'
_symmetry_Int_Tables_number      14
_space_group_name_Hall           '-P 2ybc'
loop_
_symmetry_equiv_pos_site_id
_symmetry_equiv_pos_as_xyz
1 x,y,z
2 -x,1/2+y,1/2-z
3 -x,-y,-z
4 x,1/2-y,1/2+z
_cell_length_a                   7.386(1)
_cell_length_b                   28.489(5)
_cell_length_c                   9.230(2)
_cell_angle_alpha                90
_cell_angle_beta                 109.03(2)
_cell_angle_gamma                90
_cell_volume                     1836.03
_cell_formula_units_Z            4
loop_
_atom_site_label
_atom_site_type_symbol
_atom_site_fract_x
_atom_site_fract_y
_atom_site_fract_z
N1 N 1.0366(4) 0.3827(1) 0.6323(4)
C1 C 0.9368(5) 0.3646(1) 0.7206(4)
N2 N 0.7395(4) 0.3712(1) 0.6629(3)
C2 C 0.6445(5) 0.3823(1) 0.4988(4)
C3 C 0.7694(5) 0.4137(1) 0.4397(4)
C4 C 0.9613(5) 0.4123(1) 0.5075(4)
C5 C 0.5828(5) 0.3377(1) 0.4051(4)
C6 C 0.3914(5) 0.3292(2) 0.3276(5)
C7 C 0.3403(6) 0.2893(2) 0.2416(5)
N3 N 0.1349(6) 0.2815(2) 0.1573(6)
O1 O 0.0949(6) 0.2468(2) 0.0747(7)
O2 O 0.0198(4) 0.3102(2) 0.1702(4)
C8 C 0.4696(8) 0.2563(2) 0.2305(6)
C9 C 0.6617(7) 0.2642(1) 0.3091(6)
C10 C 0.7156(6) 0.3046(1) 0.3934(5)
O3 O 1.0185(4) 0.3448(1) 0.8408(3)
C11 C 0.6145(5) 0.3649(1) 0.7502(4)
O4 O 0.4420(3) 0.3705(1) 0.6859(3)
N4 N 0.6912(4) 0.3541(1) 0.8969(4)
C12 C 0.5705(7) 0.3489(2) 0.9921(5)
C13 C 0.6785(5) 0.4440(1) 0.3079(4)
O5 O 0.7574(4) 0.4683(1) 0.2405(4)
O6 O 0.4851(3) 0.44068(9) 0.2650(3)
C14 C 0.3747(6) 0.4688(2) 0.1336(5)
C15 C 0.1905(7) 0.4432(2) 0.0581(6)
C16 C 0.3446(8) 0.5169(2) 0.1864(7)
C17 C 1.1093(5) 0.4395(2) 0.4645(5)
H1 H 0.8339 0.3457 0.9453
H2 H 1.1679 0.3743 0.6583
H3 H 0.5299 0.3994 0.4879
H4 H 0.2959 0.3509 0.3341
H5 H 0.4287 0.2286 0.1710
H6 H 0.7554 0.2419 0.3044
H7 H 0.8479 0.3100 0.4461
H8 H 0.6465 0.3412 1.0936
H9 H 0.5058 0.3778 0.9922
H10 H 0.4796 0.3248 0.9512
H11 H 0.4400 0.4731 0.0610
H12 H 0.1145 0.4605 -0.0284
H13 H 0.2178 0.4131 0.0256
H14 H 0.1228 0.4396 0.1288
H15 H 0.4653 0.5314 0.2323
H16 H 0.2715 0.5349 0.1002
H17 H 0.2783 0.5146 0.2578
H18 H 1.0481 0.4588 0.3786
H19 H 1.1801 0.4584 0.5482
H20 H 1.1933 0.4182 0.4386
loop_
_geom_bond_atom_site_label_1
_geom_bond_atom_site_label_2
_geom_bond_site_symmetry_1
_geom_bond_site_symmetry_2
N1 C1 1_555 1_555
C1 N2 1_555 1_555
N2 C2 1_555 1_555
C2 C3 1_555 1_555
C3 C4 1_555 1_555
C4 N1 1_555 1_555
C5 C2 1_555 1_555
C6 C5 1_555 1_555
C7 C6 1_555 1_555
N3 C7 1_555 1_555
O1 N3 1_555 1_555
O2 N3 1_555 1_555
C8 C7 1_555 1_555
C9 C8 1_555 1_555
C10 C5 1_555 1_555
O3 C1 1_555 1_555
C11 N2 1_555 1_555
O4 C11 1_555 1_555
N4 C11 1_555 1_555
C12 N4 1_555 1_555
C13 C3 1_555 1_555
O5 C13 1_555 1_555
O6 C13 1_555 1_555
C14 O6 1_555 1_555
C15 C14 1_555 1_555
C16 C14 1_555 1_555
C17 C4 1_555 1_555
H1 N4 1_555 1_555
H2 N1 1_555 1_555
H3 C2 1_555 1_555
H4 C6 1_555 1_555
H5 C8 1_555 1_555
H6 C9 1_555 1_555
H7 C10 1_555 1_555
H8 C12 1_555 1_555
H9 C12 1_555 1_555
H10 C12 1_555 1_555
H11 C14 1_555 1_555
H12 C15 1_555 1_555
H13 C15 1_555 1_555
H14 C15 1_555 1_555
H15 C16 1_555 1_555
H16 C16 1_555 1_555
H17 C16 1_555 1_555
H18 C17 1_555 1_555
H19 C17 1_555 1_555
H20 C17 1_555 1_555
C9 C10 1_555 1_555

#END
