
#######################################################################
#
#                 Cambridge Crystallographic Data Centre
#                                CCDC 
#
#######################################################################
#
# If this CIF has been generated from an entry in the Cambridge 
# Structural Database, then it will include bibliographic, chemical, 
# crystal, experimental, refinement or atomic coordinate data resulting 
# from the CCDC's data processing and validation procedures.
#
#######################################################################

data_REWFEG
_chemical_name_common            'Kadcoccitone C'
_chemical_formula_moiety         'C30 H44 O5'
_chemical_name_systematic        
'6-(5b-Hydroxy-1,1,4a,6,9a-pentamethyl-2-oxo-1,2,3,4,4a,5a,5b,8,9,9a,9b,10,11,11a-tetradecahydrobenzo[7,8]fluoreno[8a,9-b]oxiren-7-yl)-2-methylhept-2-enoic acid'
_symmetry_cell_setting           orthorhombic
_symmetry_space_group_name_H-M   'P 21 21 21'
_symmetry_Int_Tables_number      19
_space_group_name_Hall           'P 2ac 2ab'
loop_
_symmetry_equiv_pos_site_id
_symmetry_equiv_pos_as_xyz
1 x,y,z
2 1/2+x,1/2-y,-z
3 -x,1/2+y,1/2-z
4 1/2-x,-y,1/2+z
_cell_length_a                   7.26700(10)
_cell_length_b                   17.0474(2)
_cell_length_c                   21.4660(3)
_cell_angle_alpha                90
_cell_angle_beta                 90
_cell_angle_gamma                90
_cell_volume                     2659.28
_exptl_crystal_colour            colorless
_exptl_crystal_description       prism
_cell_formula_units_Z            4
loop_
_atom_site_label
_atom_site_type_symbol
_atom_site_fract_x
_atom_site_fract_y
_atom_site_fract_z
O1 O -0.3520(3) 1.08617(10) 0.45438(8)
O2 O 0.3007(2) 0.64840(8) 0.63694(6)
H1 H 0.2278 0.6104 0.6338
O3 O 0.3825(3) 0.60924(10) 0.54258(7)
O4 O -0.18303(18) 1.08785(7) 0.72713(6)
O5 O -0.0843(2) 1.02193(8) 0.85708(6)
H2 H -0.1990 1.0169 0.8546
C1 C -0.2736(3) 1.06943(13) 0.50291(10)
C2 C -0.0889(3) 1.10766(11) 0.51823(9)
C3 C -0.0376(3) 1.10246(11) 0.58896(9)
H3 H -0.1093 1.1455 0.6093
C4 C -0.0997(3) 1.02620(10) 0.62299(8)
C5 C -0.0535(2) 1.04075(10) 0.69116(8)
C6 C -0.1419(2) 1.00787(10) 0.74613(8)
H4 H -0.2376 0.9662 0.7411
C7 C -0.0016(2) 1.00102(10) 0.79819(8)
C8 C 0.0588(2) 0.91513(10) 0.79868(8)
C9 C 0.2316(3) 0.89198(10) 0.78765(8)
C10 C 0.2824(3) 0.80532(10) 0.78305(8)
H5 H 0.1670 0.7752 0.7745
C11 C 0.4198(3) 0.78711(11) 0.73056(8)
H6 H 0.4497 0.7305 0.7317
H7 H 0.5349 0.8165 0.7384
C12 C 0.3485(3) 0.80807(11) 0.66515(9)
H8 H 0.2356 0.7775 0.6564
H9 H 0.3157 0.8644 0.6640
C13 C 0.4879(3) 0.79151(11) 0.61584(9)
H10 H 0.5727 0.8328 0.6082
C14 C 0.5120(3) 0.72753(11) 0.58068(8)
C15 C 0.3930(3) 0.65667(11) 0.58430(8)
C16 C -0.0948(3) 0.85675(11) 0.81019(8)
H11 H -0.1236 0.8292 0.7713
H12 H -0.2045 0.8846 0.8249
H13 H -0.0557 0.8187 0.8418
C17 C 0.0553(4) 1.06798(14) 0.47546(10)
H14 H 0.0670 1.0125 0.4868
H15 H 0.1745 1.0940 0.4806
H16 H 0.0157 1.0723 0.4320
C18 C -0.3584(3) 1.00862(12) 0.54504(9)
H17 H -0.3195 0.9560 0.5307
H18 H -0.4939 1.0115 0.5410
C19 C -0.3078(3) 1.01724(12) 0.61379(9)
H19 H -0.3511 0.9705 0.6369
H20 H -0.3710 1.0638 0.6312
C20 C -0.1019(4) 1.19489(12) 0.50002(10)
H21 H -0.1341 1.1992 0.4558
H22 H 0.0170 1.2204 0.5074
H23 H -0.1968 1.2205 0.5253
C21 C 0.1650(3) 1.12241(11) 0.60200(9)
H24 H 0.2440 1.0796 0.5861
H25 H 0.1982 1.1710 0.5794
C22 C 0.2022(3) 1.13384(11) 0.67185(9)
H26 H 0.3349 1.1438 0.6787
H27 H 0.1325 1.1797 0.6874
C23 C 0.1435(3) 1.06043(10) 0.70713(8)
H28 H 0.2218 1.0162 0.6919
C24 C 0.1535(3) 1.06030(10) 0.77986(8)
C25 C 0.1218(3) 1.14257(10) 0.80760(9)
H29 H 0.1179 1.1390 0.8531
H30 H 0.0048 1.1636 0.7922
H31 H 0.2225 1.1774 0.7951
C26 C 0.3387(3) 1.03148(11) 0.80400(9)
H32 H 0.3367 1.0324 0.8501
H33 H 0.4357 1.0683 0.7900
C27 C 0.3888(3) 0.94901(10) 0.78238(8)
H34 H 0.4297 0.9513 0.7384
H35 H 0.4933 0.9296 0.8076
C28 C -0.0007(3) 0.95077(11) 0.60270(8)
H36 H 0.1324 0.9601 0.6016
H37 H -0.0433 0.9354 0.5611
H38 H -0.0280 0.9087 0.6324
C29 C 0.3605(3) 0.77673(11) 0.84541(8)
H39 H 0.4804 0.8014 0.8528
H40 H 0.3753 0.7196 0.8442
H41 H 0.2758 0.7909 0.8791
C30 C 0.6590(3) 0.72226(14) 0.53138(10)
H42 H 0.6014 0.7215 0.4901
H43 H 0.7304 0.6741 0.5374
H44 H 0.7408 0.7678 0.5346
loop_
_geom_bond_atom_site_label_1
_geom_bond_atom_site_label_2
_geom_bond_site_symmetry_1
_geom_bond_site_symmetry_2
O1 C1 1_555 1_555
O2 H1 1_555 1_555
O3 C15 1_555 1_555
O4 C5 1_555 1_555
O5 H2 1_555 1_555
C1 C2 1_555 1_555
C2 C3 1_555 1_555
C3 H3 1_555 1_555
C4 C3 1_555 1_555
C5 C4 1_555 1_555
C6 O4 1_555 1_555
H4 C6 1_555 1_555
C7 O5 1_555 1_555
C8 C7 1_555 1_555
C9 C8 1_555 1_555
C10 C9 1_555 1_555
H5 C10 1_555 1_555
C11 C10 1_555 1_555
H6 C11 1_555 1_555
H7 C11 1_555 1_555
C12 C11 1_555 1_555
H8 C12 1_555 1_555
H9 C12 1_555 1_555
C13 C12 1_555 1_555
H10 C13 1_555 1_555
C14 C13 1_555 1_555
C15 O2 1_555 1_555
C16 C8 1_555 1_555
H11 C16 1_555 1_555
H12 C16 1_555 1_555
H13 C16 1_555 1_555
C17 C2 1_555 1_555
H14 C17 1_555 1_555
H15 C17 1_555 1_555
H16 C17 1_555 1_555
C18 C1 1_555 1_555
H17 C18 1_555 1_555
H18 C18 1_555 1_555
C19 C4 1_555 1_555
H19 C19 1_555 1_555
H20 C19 1_555 1_555
C20 C2 1_555 1_555
H21 C20 1_555 1_555
H22 C20 1_555 1_555
H23 C20 1_555 1_555
C21 C3 1_555 1_555
H24 C21 1_555 1_555
H25 C21 1_555 1_555
C22 C21 1_555 1_555
H26 C22 1_555 1_555
H27 C22 1_555 1_555
C23 C5 1_555 1_555
H28 C23 1_555 1_555
C24 C7 1_555 1_555
C25 C24 1_555 1_555
H29 C25 1_555 1_555
H30 C25 1_555 1_555
H31 C25 1_555 1_555
C26 C24 1_555 1_555
H32 C26 1_555 1_555
H33 C26 1_555 1_555
C27 C9 1_555 1_555
H34 C27 1_555 1_555
H35 C27 1_555 1_555
C28 C4 1_555 1_555
H36 C28 1_555 1_555
H37 C28 1_555 1_555
H38 C28 1_555 1_555
C29 C10 1_555 1_555
H39 C29 1_555 1_555
H40 C29 1_555 1_555
H41 C29 1_555 1_555
C30 C14 1_555 1_555
H42 C30 1_555 1_555
H43 C30 1_555 1_555
H44 C30 1_555 1_555
C5 C6 1_555 1_555
C6 C7 1_555 1_555
C14 C15 1_555 1_555
C18 C19 1_555 1_555
C22 C23 1_555 1_555
C23 C24 1_555 1_555
C26 C27 1_555 1_555

#END
