
#######################################################################
#
#                 Cambridge Crystallographic Data Centre
#                                CCDC 
#
#######################################################################
#
# If this CIF has been generated from an entry in the Cambridge 
# Structural Database, then it will include bibliographic, chemical, 
# crystal, experimental, refinement or atomic coordinate data resulting 
# from the CCDC's data processing and validation procedures.
#
#######################################################################

data_REWKEM
_chemical_formula_moiety         'C28 H16 Br2'
_chemical_name_systematic        5-bromo-7-(4-bromonaphthalen-1-yl)tetraphene
_symmetry_cell_setting           triclinic
_symmetry_space_group_name_H-M   'P -1'
_symmetry_Int_Tables_number      2
_space_group_name_Hall           '-P 1'
loop_
_symmetry_equiv_pos_site_id
_symmetry_equiv_pos_as_xyz
1 x,y,z
2 -x,-y,-z
_cell_length_a                   9.3136(4)
_cell_length_b                   10.8927(5)
_cell_length_c                   11.7419(5)
_cell_angle_alpha                110.9542(12)
_cell_angle_beta                 109.9256(13)
_cell_angle_gamma                97.6942(13)
_cell_volume                     1000.48
_exptl_crystal_colour            colorless
_exptl_crystal_description       parallelepiped
_cell_formula_units_Z            2
loop_
_atom_site_label
_atom_site_type_symbol
_atom_site_fract_x
_atom_site_fract_y
_atom_site_fract_z
Br1 Br 0.96792(4) 0.12308(3) 0.12903(3)
Br2 Br 1.21698(4) 0.97985(3) 0.41330(3)
C1 C 0.8042(3) 0.1738(3) 0.1805(3)
C2 C 0.8093(3) 0.3075(3) 0.2277(3)
H1 H 0.8963 0.3737 0.2384
C3 C 0.6843(3) 0.3510(3) 0.2622(3)
C4 C 0.6862(3) 0.4900(3) 0.3063(3)
C5 C 0.5590(3) 0.5296(3) 0.3349(3)
C6 C 0.5498(4) 0.6675(3) 0.3757(3)
H2 H 0.6313 0.7367 0.3836
C7 C 0.4260(4) 0.7014(3) 0.4033(3)
H3 H 0.4219 0.7936 0.4294
C8 C 0.3028(4) 0.6006(3) 0.3936(3)
H4 H 0.2185 0.626 0.4155
C9 C 0.3059(3) 0.4680(3) 0.3529(3)
H5 H 0.2225 0.4008 0.3456
C10 C 0.4323(3) 0.4276(3) 0.3210(3)
C11 C 0.4334(3) 0.2902(3) 0.2778(3)
H6 H 0.3483 0.2235 0.2689
C12 C 0.5553(3) 0.2494(3) 0.2479(3)
C13 C 0.5586(3) 0.1062(3) 0.2042(3)
C14 C 0.4420(4) 0.0038(3) 0.1971(3)
H7 H 0.3577 0.0277 0.2198
C15 C 0.4469(4) -0.1302(3) 0.1582(4)
H8 H 0.3667 -0.1973 0.1545
C16 C 0.5689(4) -0.1674(3) 0.1243(3)
H9 H 0.5725 -0.2597 0.0982
C17 C 0.6843(4) -0.0707(3) 0.1285(3)
H10 H 0.7666 -0.097 0.104
C18 C 0.6817(3) 0.0669(3) 0.1688(3)
C19 C 0.8210(3) 0.5997(3) 0.3273(3)
C20 C 0.9199(3) 0.6970(3) 0.4554(3)
H11 H 0.908 0.6875 0.5293
C21 C 1.0388(4) 0.8107(3) 0.4808(3)
H12 H 1.1044 0.8774 0.5702
C22 C 1.0582(3) 0.8236(3) 0.3752(3)
C23 C 0.9651(3) 0.7248(3) 0.2404(3)
C24 C 0.9862(4) 0.7326(3) 0.1282(3)
H13 H 1.0675 0.8064 0.1424
C25 C 0.8907(4) 0.6351(3) 0.0005(3)
H14 H 0.9078 0.6407 -0.073
C26 C 0.7675(4) 0.5267(3) -0.0232(3)
H15 H 0.7006 0.4606 -0.1127
C27 C 0.7430(4) 0.5157(3) 0.0819(3)
H16 H 0.6587 0.4423 0.0644
C28 C 0.8423(3) 0.6126(3) 0.2169(3)
loop_
_geom_bond_atom_site_label_1
_geom_bond_atom_site_label_2
_geom_bond_site_symmetry_1
_geom_bond_site_symmetry_2
Br1 C1 1_555 1_555
Br2 C22 1_555 1_555
C1 C2 1_555 1_555
C2 H1 1_555 1_555
C3 C2 1_555 1_555
C4 C3 1_555 1_555
C5 C4 1_555 1_555
C6 C5 1_555 1_555
H2 C6 1_555 1_555
C7 C6 1_555 1_555
H3 C7 1_555 1_555
C8 C7 1_555 1_555
H4 C8 1_555 1_555
C9 C8 1_555 1_555
H5 C9 1_555 1_555
C10 C5 1_555 1_555
C11 C10 1_555 1_555
H6 C11 1_555 1_555
C12 C3 1_555 1_555
C13 C12 1_555 1_555
C14 C13 1_555 1_555
H7 C14 1_555 1_555
C15 C14 1_555 1_555
H8 C15 1_555 1_555
C16 C15 1_555 1_555
H9 C16 1_555 1_555
C17 C16 1_555 1_555
H10 C17 1_555 1_555
C18 C1 1_555 1_555
C19 C4 1_555 1_555
C20 C19 1_555 1_555
H11 C20 1_555 1_555
C21 C20 1_555 1_555
H12 C21 1_555 1_555
C22 C21 1_555 1_555
C23 C22 1_555 1_555
C24 C23 1_555 1_555
H13 C24 1_555 1_555
C25 C24 1_555 1_555
H14 C25 1_555 1_555
C26 C25 1_555 1_555
H15 C26 1_555 1_555
C27 C26 1_555 1_555
H16 C27 1_555 1_555
C28 C19 1_555 1_555
C9 C10 1_555 1_555
C11 C12 1_555 1_555
C13 C18 1_555 1_555
C17 C18 1_555 1_555
C23 C28 1_555 1_555
C27 C28 1_555 1_555

#END
