
#######################################################################
#
#                 Cambridge Crystallographic Data Centre
#                                CCDC 
#
#######################################################################
#
# If this CIF has been generated from an entry in the Cambridge 
# Structural Database, then it will include bibliographic, chemical, 
# crystal, experimental, refinement or atomic coordinate data resulting 
# from the CCDC's data processing and validation procedures.
#
#######################################################################

data_REWMUD
_chemical_formula_moiety         'C27 H22 N2'
_chemical_name_systematic        1,2,4,5-Tetraphenyl-4,5-dihydro-1H-imidazole
_symmetry_cell_setting           triclinic
_symmetry_space_group_name_H-M   'P -1'
_symmetry_Int_Tables_number      2
_space_group_name_Hall           '-P 1'
loop_
_symmetry_equiv_pos_site_id
_symmetry_equiv_pos_as_xyz
1 x,y,z
2 -x,-y,-z
_cell_length_a                   8.3493(5)
_cell_length_b                   10.2504(6)
_cell_length_c                   13.0418(7)
_cell_angle_alpha                91.274(4)
_cell_angle_beta                 104.819(3)
_cell_angle_gamma                112.131(3)
_cell_volume                     990.739
_exptl_crystal_colour            colorless
_exptl_crystal_description       block
_cell_formula_units_Z            2
loop_
_atom_site_label
_atom_site_type_symbol
_atom_site_fract_x
_atom_site_fract_y
_atom_site_fract_z
C1 C 0.13964(19) 0.17066(14) 0.10152(11)
H1 H 0.1428 0.0941 0.1406
C2 C -0.0235(2) 0.16615(15) 0.03770(11)
H2 H -0.1319 0.0864 0.0328
C3 C -0.0287(2) 0.27834(16) -0.01926(11)
H3 H -0.1402 0.2743 -0.0641
C4 C 0.1295(2) 0.39643(15) -0.01052(11)
H4 H 0.1254 0.4739 -0.0482
C5 C 0.29271(19) 0.40140(14) 0.05279(11)
H5 H 0.4004 0.4822 0.0585
C6 C 0.29959(18) 0.28757(14) 0.10856(10)
C7 C 0.47621(18) 0.28696(13) 0.16554(10)
C8 C 0.67606(18) 0.20245(14) 0.27063(10)
H6 H 0.7378 0.2339 0.3488
C9 C 0.76723(18) 0.32015(14) 0.20450(10)
H7 H 0.8163 0.2780 0.1565
C10 C 0.91963(18) 0.45175(14) 0.27164(10)
C11 C 0.8919(2) 0.53299(16) 0.34717(13)
H8 H 0.7745 0.5077 0.3552
C12 C 1.0347(2) 0.65062(16) 0.41074(13)
H9 H 1.0150 0.7047 0.4627
C13 C 1.2059(2) 0.68920(15) 0.39851(12)
H10 H 1.3038 0.7691 0.4425
C14 C 1.2342(2) 0.61132(16) 0.32236(13)
H11 H 1.3510 0.6390 0.3128
C15 C 1.09180(19) 0.49245(15) 0.25968(12)
H12 H 1.1125 0.4385 0.2081
C16 C 0.68294(18) 0.06222(14) 0.23858(10)
C17 C 0.83963(19) 0.04007(15) 0.28328(11)
H13 H 0.9362 0.1099 0.3366
C18 C 0.8560(2) -0.08292(16) 0.25063(12)
H14 H 0.9636 -0.0967 0.2818
C19 C 0.7169(2) -0.18561(17) 0.17296(13)
H15 H 0.7280 -0.2701 0.1512
C20 C 0.5611(2) -0.16408(17) 0.12708(13)
H16 H 0.4657 -0.2336 0.0730
C21 C 0.5437(2) -0.04057(16) 0.15996(12)
H17 H 0.4363 -0.0268 0.1284
C22 C 0.41399(18) 0.19751(14) 0.33136(10)
C23 C 0.38603(19) 0.31499(14) 0.36592(11)
H18 H 0.4137 0.3967 0.3299
C24 C 0.3180(2) 0.31278(15) 0.45280(11)
H19 H 0.2975 0.3924 0.4753
C25 C 0.2797(2) 0.19470(16) 0.50682(11)
H20 H 0.2358 0.1941 0.5673
C26 C 0.3062(2) 0.07721(15) 0.47181(11)
H21 H 0.2789 -0.0041 0.5082
C27 C 0.37207(19) 0.07755(14) 0.38430(11)
H22 H 0.3886 -0.0035 0.3605
N1 N 0.49096(15) 0.19913(12) 0.24530(9)
N2 N 0.61989(16) 0.35316(12) 0.13696(9)
loop_
_geom_bond_atom_site_label_1
_geom_bond_atom_site_label_2
_geom_bond_site_symmetry_1
_geom_bond_site_symmetry_2
C1 H1 1_555 1_555
C2 C1 1_555 1_555
H2 C2 1_555 1_555
C3 C2 1_555 1_555
H3 C3 1_555 1_555
C4 C3 1_555 1_555
H4 C4 1_555 1_555
C5 C4 1_555 1_555
H5 C5 1_555 1_555
C6 C1 1_555 1_555
C7 C6 1_555 1_555
C8 H6 1_555 1_555
C9 C8 1_555 1_555
H7 C9 1_555 1_555
C10 C9 1_555 1_555
C11 C10 1_555 1_555
H8 C11 1_555 1_555
C12 C11 1_555 1_555
H9 C12 1_555 1_555
C13 C12 1_555 1_555
H10 C13 1_555 1_555
C14 C13 1_555 1_555
H11 C14 1_555 1_555
C15 C10 1_555 1_555
H12 C15 1_555 1_555
C16 C8 1_555 1_555
C17 C16 1_555 1_555
H13 C17 1_555 1_555
C18 C17 1_555 1_555
H14 C18 1_555 1_555
C19 C18 1_555 1_555
H15 C19 1_555 1_555
C20 C19 1_555 1_555
H16 C20 1_555 1_555
C21 C16 1_555 1_555
H17 C21 1_555 1_555
C22 C23 1_555 1_555
C23 H18 1_555 1_555
C24 C23 1_555 1_555
H19 C24 1_555 1_555
C25 C24 1_555 1_555
H20 C25 1_555 1_555
C26 C25 1_555 1_555
H21 C26 1_555 1_555
C27 C22 1_555 1_555
H22 C27 1_555 1_555
N1 C7 1_555 1_555
N2 C7 1_555 1_555
C5 C6 1_555 1_555
C8 N1 1_555 1_555
C9 N2 1_555 1_555
C14 C15 1_555 1_555
C20 C21 1_555 1_555
C22 N1 1_555 1_555
C26 C27 1_555 1_555

#END
