
#######################################################################
#
#                 Cambridge Crystallographic Data Centre
#                                CCDC 
#
#######################################################################
#
# If this CIF has been generated from an entry in the Cambridge 
# Structural Database, then it will include bibliographic, chemical, 
# crystal, experimental, refinement or atomic coordinate data resulting 
# from the CCDC's data processing and validation procedures.
#
#######################################################################

data_REWMOX
_chemical_formula_moiety         'C25 H20 N2'
_chemical_name_systematic        (2-(1-Naphthyl)-2-phenylethyl)phenylcyanamide
_symmetry_cell_setting           monoclinic
_symmetry_space_group_name_H-M   'P 21/c'
_symmetry_Int_Tables_number      14
_space_group_name_Hall           '-P 2ybc'
loop_
_symmetry_equiv_pos_site_id
_symmetry_equiv_pos_as_xyz
1 x,y,z
2 -x,1/2+y,1/2-z
3 -x,-y,-z
4 x,1/2-y,1/2+z
_cell_length_a                   12.2998(10)
_cell_length_b                   8.3428(7)
_cell_length_c                   18.0813(14)
_cell_angle_alpha                90
_cell_angle_beta                 95.545(3)
_cell_angle_gamma                90
_cell_volume                     1846.73
_exptl_crystal_colour            colorless
_exptl_crystal_description       block
_cell_formula_units_Z            4
loop_
_atom_site_label
_atom_site_type_symbol
_atom_site_fract_x
_atom_site_fract_y
_atom_site_fract_z
C1 C 0.10208(10) 0.40157(17) -0.09979(8)
C2 C 0.13969(11) 0.55442(18) -0.07988(8)
H1 H 0.1577 0.5808 -0.0291
C3 C 0.15077(11) 0.66814(19) -0.13469(9)
H2 H 0.1766 0.7724 -0.1211
C4 C 0.12463(12) 0.6316(2) -0.20894(9)
H3 H 0.1330 0.7098 -0.2462
C5 C 0.08607(12) 0.4796(2) -0.22833(9)
H4 H 0.0670 0.4542 -0.2791
C6 C 0.07514(11) 0.36489(19) -0.17451(8)
H5 H 0.0492 0.2609 -0.1884
C7 C 0.05767(11) 0.13524(19) -0.06711(8)
C8 C 0.11716(11) 0.31173(18) 0.03511(8)
H6 H 0.0806 0.2308 0.0642
H7 H 0.0902 0.4188 0.0482
C9 C 0.24163(11) 0.30336(17) 0.05605(8)
H8 H 0.2770 0.3667 0.0180
C10 C 0.28187(11) 0.13141(18) 0.05145(8)
C11 C 0.33193(11) 0.07863(19) -0.00992(8)
H9 H 0.3417 0.1508 -0.0494
C12 C 0.36783(13) -0.0789(2) -0.01394(9)
H10 H 0.4026 -0.1134 -0.0559
C13 C 0.35326(13) -0.1852(2) 0.04259(9)
H11 H 0.3778 -0.2928 0.0397
C14 C 0.30246(14) -0.1345(2) 0.10385(9)
H12 H 0.2918 -0.2074 0.1428
C15 C 0.26742(12) 0.02272(19) 0.10798(9)
H13 H 0.2330 0.0568 0.1501
C16 C 0.27426(11) 0.38073(17) 0.13104(8)
C17 C 0.20107(12) 0.40011(18) 0.18324(8)
H14 H 0.1284 0.3622 0.1726
C18 C 0.23112(13) 0.47486(19) 0.25213(9)
H15 H 0.1792 0.4852 0.2875
C19 C 0.33445(13) 0.5323(2) 0.26813(9)
H16 H 0.3535 0.5851 0.3141
C20 C 0.41380(12) 0.51432(18) 0.21695(8)
C21 C 0.52152(13) 0.5744(2) 0.23261(10)
H17 H 0.5407 0.6291 0.2781
C22 C 0.59794(12) 0.5551(2) 0.18366(10)
H18 H 0.6696 0.5963 0.1950
C23 C 0.57039(12) 0.4741(2) 0.11635(9)
H19 H 0.6241 0.4594 0.0826
C24 C 0.46693(11) 0.41602(18) 0.09882(8)
H20 H 0.4499 0.3616 0.0530
C25 C 0.38470(11) 0.43578(17) 0.14798(8)
N1 N 0.08852(9) 0.28257(14) -0.04478(6)
N2 N 0.03001(11) 0.01049(17) -0.08880(7)
loop_
_geom_bond_atom_site_label_1
_geom_bond_atom_site_label_2
_geom_bond_site_symmetry_1
_geom_bond_site_symmetry_2
C1 C2 1_555 1_555
C2 H1 1_555 1_555
C3 C2 1_555 1_555
H2 C3 1_555 1_555
C4 C3 1_555 1_555
H3 C4 1_555 1_555
C5 C4 1_555 1_555
H4 C5 1_555 1_555
C6 C1 1_555 1_555
H5 C6 1_555 1_555
C7 N1 1_555 1_555
C8 H6 1_555 1_555
H7 C8 1_555 1_555
C9 C8 1_555 1_555
H8 C9 1_555 1_555
C10 C9 1_555 1_555
C11 C10 1_555 1_555
H9 C11 1_555 1_555
C12 C11 1_555 1_555
H10 C12 1_555 1_555
C13 C12 1_555 1_555
H11 C13 1_555 1_555
C14 C13 1_555 1_555
H12 C14 1_555 1_555
C15 C10 1_555 1_555
H13 C15 1_555 1_555
C16 C9 1_555 1_555
C17 C16 1_555 1_555
H14 C17 1_555 1_555
C18 C17 1_555 1_555
H15 C18 1_555 1_555
C19 C18 1_555 1_555
H16 C19 1_555 1_555
C20 C19 1_555 1_555
C21 C20 1_555 1_555
H17 C21 1_555 1_555
C22 C21 1_555 1_555
H18 C22 1_555 1_555
C23 C22 1_555 1_555
H19 C23 1_555 1_555
C24 C23 1_555 1_555
H20 C24 1_555 1_555
C25 C16 1_555 1_555
N1 C1 1_555 1_555
N2 C7 1_555 1_555
C5 C6 1_555 1_555
C8 N1 1_555 1_555
C14 C15 1_555 1_555
C20 C25 1_555 1_555
C24 C25 1_555 1_555

#END
