
#######################################################################
#
#                 Cambridge Crystallographic Data Centre
#                                CCDC 
#
#######################################################################
#
# If this CIF has been generated from an entry in the Cambridge 
# Structural Database, then it will include bibliographic, chemical, 
# crystal, experimental, refinement or atomic coordinate data resulting 
# from the CCDC's data processing and validation procedures.
#
#######################################################################

data_REXCON01
_chemical_name_common            
'2,3[bis(3-methylimidazolio)methyl]-quinoxaline bis(hexafluorophosphate)'
_chemical_formula_moiety         'C18 H20 N6 2+,2(F6 P1 1-)'
_chemical_name_systematic        
'3-Methyl-1-((3-((1-methyl-1H-imidazol-3-ium-3-yl)methyl)quinoxalin-2-yl)methyl)-1H-imidazol-3-ium bis(hexafluorophosphate)'
_symmetry_cell_setting           monoclinic
_symmetry_space_group_name_H-M   'P 21/c'
_symmetry_Int_Tables_number      14
_space_group_name_Hall           '-P 2ybc'
loop_
_symmetry_equiv_pos_site_id
_symmetry_equiv_pos_as_xyz
1 x,y,z
2 -x,1/2+y,1/2-z
3 -x,-y,-z
4 x,1/2-y,1/2+z
_cell_length_a                   13.087(4)
_cell_length_b                   13.358(4)
_cell_length_c                   15.401(5)
_cell_angle_alpha                90
_cell_angle_beta                 112.431(5)
_cell_angle_gamma                90
_cell_volume                     2488.64
_cell_formula_units_Z            4
loop_
_atom_site_label
_atom_site_type_symbol
_atom_site_fract_x
_atom_site_fract_y
_atom_site_fract_z
N1 N -0.0142(3) 0.9721(2) 0.3322(2)
N2 N 0.1540(3) 0.9273(2) 0.5058(2)
N3 N 0.0015(3) 1.1026(2) 0.2084(2)
N4 N -0.1586(3) 1.1257(3) 0.0995(2)
N5 N 0.3583(3) 0.9976(3) 0.5629(2)
N6 N 0.4408(3) 0.9354(3) 0.7001(2)
C1 C 0.0787(3) 1.0209(3) 0.3622(2)
C2 C -0.0273(3) 0.8964(3) 0.3873(3)
C3 C -0.1246(4) 0.8385(3) 0.3552(3)
H1 H -0.1798 0.8511 0.2967
C4 C -0.1372(4) 0.7639(4) 0.4103(4)
H2 H -0.2014 0.7255 0.3891
C5 C -0.0548(4) 0.7440(3) 0.4988(4)
H3 H -0.0652 0.6931 0.5359
C6 C 0.0403(4) 0.7985(3) 0.5309(3)
H4 H 0.0947 0.7848 0.5895
C7 C 0.0559(3) 0.8755(3) 0.4753(3)
C8 C 0.1660(3) 0.9967(3) 0.4508(3)
C9 C 0.2763(3) 1.0507(3) 0.4837(3)
H5 H 0.3018 1.0549 0.4324
H6 H 0.2673 1.1183 0.5027
C10 C 0.3740(4) 1.0070(3) 0.6523(3)
H7 H 0.3431 1.0562 0.6774
C11 C 0.4683(4) 0.8783(4) 0.6396(3)
H8 H 0.5150 0.8229 0.6552
C12 C 0.4167(4) 0.9156(4) 0.5539(3)
H9 H 0.4196 0.8909 0.4984
C13 C 0.4838(5) 0.9207(4) 0.8026(3)
H10 H 0.4362 0.9538 0.8280
H11 H 0.5569 0.9482 0.8303
H12 H 0.4862 0.8504 0.8163
C14 C 0.0923(4) 1.1039(3) 0.3008(3)
H13 H 0.0936 1.1680 0.3308
H14 H 0.1621 1.0958 0.2932
C15 C -0.0909(4) 1.1542(3) 0.1840(3)
H15 H -0.1060 1.2031 0.2204
C16 C -0.1074(4) 1.0520(3) 0.0699(3)
H16 H -0.1362 1.0185 0.0128
C17 C -0.0083(4) 1.0368(4) 0.1381(3)
H17 H 0.0442 0.9901 0.1377
C18 C -0.2700(4) 1.1655(4) 0.0472(3)
H18 H -0.2969 1.1980 0.0899
H19 H -0.3188 1.1115 0.0161
H20 H -0.2672 1.2128 0.0013
P1 P 0.29422(10) 0.87207(9) 0.24599(8)
F1 F 0.2805(3) 0.7552(2) 0.2324(3)
F2 F 0.3904(4) 0.8556(4) 0.3414(3)
F3 F 0.2078(4) 0.8728(3) 0.2938(4)
F4 F 0.3042(4) 0.9886(3) 0.2610(3)
F5 F 0.1994(4) 0.8901(3) 0.1499(2)
F6 F 0.3825(4) 0.8726(3) 0.2008(3)
P2 P 0.65413(10) 0.84164(9) 0.07463(9)
F7 F 0.6217(9) 0.8211(8) 0.1619(6)
F8 F 0.5866(10) 0.7498(7) 0.0233(7)
F9 F 0.7598(10) 0.7798(9) 0.1208(6)
F10 F 0.6905(7) 0.8659(10) -0.0082(5)
F11 F 0.7149(7) 0.9350(6) 0.1308(6)
F12 F 0.5478(8) 0.9063(8) 0.0252(7)
F13? F 0.7805(6) 0.8332(8) 0.0991(8)
F14? F 0.6357(12) 0.7703(8) -0.0117(7)
F15? F 0.6780(11) 0.9089(10) 0.1593(6)
F16? F 0.6738(7) 0.7460(7) 0.1393(7)
F17? F 0.6413(10) 0.9299(6) 0.0099(6)
F18? F 0.5320(6) 0.8392(10) 0.0548(9)
loop_
_geom_bond_atom_site_label_1
_geom_bond_atom_site_label_2
_geom_bond_site_symmetry_1
_geom_bond_site_symmetry_2
N1 C1 1_555 1_555
N2 C7 1_555 1_555
N3 C14 1_555 1_555
N4 C15 1_555 1_555
N5 C9 1_555 1_555
N6 C10 1_555 1_555
C1 C8 1_555 1_555
C2 N1 1_555 1_555
C3 C2 1_555 1_555
H1 C3 1_555 1_555
C4 C3 1_555 1_555
H2 C4 1_555 1_555
C5 C4 1_555 1_555
H3 C5 1_555 1_555
C6 C5 1_555 1_555
H4 C6 1_555 1_555
C7 C2 1_555 1_555
C8 N2 1_555 1_555
C9 C8 1_555 1_555
H5 C9 1_555 1_555
H6 C9 1_555 1_555
C10 N5 1_555 1_555
H7 C10 1_555 1_555
C11 N6 1_555 1_555
H8 C11 1_555 1_555
C12 N5 1_555 1_555
H9 C12 1_555 1_555
C13 N6 1_555 1_555
H10 C13 1_555 1_555
H11 C13 1_555 1_555
H12 C13 1_555 1_555
C14 C1 1_555 1_555
H13 C14 1_555 1_555
H14 C14 1_555 1_555
C15 N3 1_555 1_555
H15 C15 1_555 1_555
C16 N4 1_555 1_555
H16 C16 1_555 1_555
C17 N3 1_555 1_555
H17 C17 1_555 1_555
C18 N4 1_555 1_555
H18 C18 1_555 1_555
H19 C18 1_555 1_555
H20 C18 1_555 1_555
P1 F1 1_555 1_555
F2 P1 1_555 1_555
F3 P1 1_555 1_555
F4 P1 1_555 1_555
F5 P1 1_555 1_555
F6 P1 1_555 1_555
P2 F7 1_555 1_555
F8 P2 1_555 1_555
F9 P2 1_555 1_555
F10 P2 1_555 1_555
F11 P2 1_555 1_555
F12 P2 1_555 1_555
C6 C7 1_555 1_555
C11 C12 1_555 1_555
C16 C17 1_555 1_555

#END
