
#######################################################################
#
#                 Cambridge Crystallographic Data Centre
#                                CCDC 
#
#######################################################################
#
# If this CIF has been generated from an entry in the Cambridge 
# Structural Database, then it will include bibliographic, chemical, 
# crystal, experimental, refinement or atomic coordinate data resulting 
# from the CCDC's data processing and validation procedures.
#
#######################################################################

data_REXCED
_chemical_formula_moiety         'C20 H16 N2'
_chemical_name_systematic        N,N-Diphenyl-N-(indolizin-3-yl)amine
_symmetry_cell_setting           monoclinic
_symmetry_space_group_name_H-M   'P 21'
_symmetry_Int_Tables_number      4
_space_group_name_Hall           'P 2yb'
loop_
_symmetry_equiv_pos_site_id
_symmetry_equiv_pos_as_xyz
1 x,y,z
2 -x,1/2+y,-z
_cell_length_a                   8.6574(11)
_cell_length_b                   6.3454(8)
_cell_length_c                   14.4396(18)
_cell_angle_alpha                90
_cell_angle_beta                 102.638(2)
_cell_angle_gamma                90
_cell_volume                     774.016
_exptl_crystal_colour            yellow
_cell_formula_units_Z            2
loop_
_atom_site_label
_atom_site_type_symbol
_atom_site_fract_x
_atom_site_fract_y
_atom_site_fract_z
N1 N 0.32689(19) -0.0375(3) 0.83704(12)
N2 N 0.4202(2) 0.0675(3) 0.69813(11)
C1 C 0.3446(2) -0.0785(4) 0.74572(14)
C2 C 0.2790(3) -0.2698(4) 0.72004(19)
H1 H 0.2746 -0.3358 0.6620
C3 C 0.2192(3) -0.3515(5) 0.79476(19)
H2 H 0.1674 -0.4798 0.7949
C4 C 0.2505(3) -0.2083(5) 0.86848(17)
C5 C 0.2218(3) -0.1962(7) 0.9614(2)
H3 H 0.1702 -0.3058 0.9849
C6 C 0.2694(3) -0.0258(8) 1.01536(19)
H4 H 0.2517 -0.0195 1.0765
C7 C 0.3452(3) 0.1423(6) 0.98117(17)
H5 H 0.3760 0.2596 1.0194
C8 C 0.3740(3) 0.1355(5) 0.89333(16)
H6 H 0.4254 0.2469 0.8709
C9 C 0.3304(3) 0.1544(4) 0.61154(14)
C10 C 0.3944(3) 0.1727(4) 0.53215(15)
H7 H 0.4983 0.1316 0.5346
C11 C 0.3024(4) 0.2527(5) 0.44889(16)
H8 H 0.3451 0.2649 0.3954
C12 C 0.1496(4) 0.3141(5) 0.44437(19)
H9 H 0.0891 0.3694 0.3884
C13 C 0.0862(3) 0.2937(5) 0.5228(2)
H10 H -0.0183 0.3329 0.5198
C14 C 0.1762(3) 0.2155(4) 0.60619(16)
H11 H 0.1326 0.2039 0.6594
C15 C 0.5853(2) 0.1019(4) 0.73074(13)
C16 C 0.6767(2) -0.0481(4) 0.78772(13)
H12 H 0.6307 -0.1725 0.8024
C17 C 0.8359(3) -0.0126(5) 0.82254(15)
H13 H 0.8961 -0.1134 0.8612
C18 C 0.9069(3) 0.1676(6) 0.80129(17)
H14 H 1.0148 0.1889 0.8244
C19 C 0.8160(3) 0.3180(5) 0.74487(16)
H15 H 0.8632 0.4416 0.7300
C20 C 0.6565(3) 0.2867(5) 0.71049(15)
H16 H 0.5963 0.3899 0.6735
loop_
_geom_bond_atom_site_label_1
_geom_bond_atom_site_label_2
_geom_bond_site_symmetry_1
_geom_bond_site_symmetry_2
N1 C1 1_555 1_555
N2 C1 1_555 1_555
C1 C2 1_555 1_555
C2 H1 1_555 1_555
C3 C2 1_555 1_555
H2 C3 1_555 1_555
C4 N1 1_555 1_555
C5 C4 1_555 1_555
H3 C5 1_555 1_555
C6 C5 1_555 1_555
H4 C6 1_555 1_555
C7 C6 1_555 1_555
H5 C7 1_555 1_555
C8 N1 1_555 1_555
H6 C8 1_555 1_555
C9 N2 1_555 1_555
C10 C9 1_555 1_555
H7 C10 1_555 1_555
C11 C10 1_555 1_555
H8 C11 1_555 1_555
C12 C11 1_555 1_555
H9 C12 1_555 1_555
C13 C12 1_555 1_555
H10 C13 1_555 1_555
C14 C9 1_555 1_555
H11 C14 1_555 1_555
C15 N2 1_555 1_555
C16 C15 1_555 1_555
H12 C16 1_555 1_555
C17 C16 1_555 1_555
H13 C17 1_555 1_555
C18 C17 1_555 1_555
H14 C18 1_555 1_555
C19 C18 1_555 1_555
H15 C19 1_555 1_555
C20 C15 1_555 1_555
H16 C20 1_555 1_555
C3 C4 1_555 1_555
C7 C8 1_555 1_555
C13 C14 1_555 1_555
C19 C20 1_555 1_555

#END
