
#######################################################################
#
#                 Cambridge Crystallographic Data Centre
#                                CCDC 
#
#######################################################################
#
# If this CIF has been generated from an entry in the Cambridge 
# Structural Database, then it will include bibliographic, chemical, 
# crystal, experimental, refinement or atomic coordinate data resulting 
# from the CCDC's data processing and validation procedures.
#
#######################################################################

data_REXFIM
_chemical_formula_moiety         'C19 H24 O2'
_chemical_name_systematic        androsta-3,5-diene-7,17-dione
_symmetry_cell_setting           orthorhombic
_symmetry_space_group_name_H-M   'P 21 21 21'
_symmetry_Int_Tables_number      19
_space_group_name_Hall           'P 2ac 2ab'
loop_
_symmetry_equiv_pos_site_id
_symmetry_equiv_pos_as_xyz
1 x,y,z
2 1/2-x,-y,1/2+z
3 1/2+x,1/2-y,-z
4 -x,1/2+y,1/2-z
_cell_length_a                   8.3252(2)
_cell_length_b                   17.0398(4)
_cell_length_c                   32.4428(7)
_cell_angle_alpha                90
_cell_angle_beta                 90
_cell_angle_gamma                90
_cell_volume                     4602.33
_exptl_crystal_colour            colorless
_exptl_crystal_description       prism
_cell_formula_units_Z            12
loop_
_atom_site_label
_atom_site_type_symbol
_atom_site_fract_x
_atom_site_fract_y
_atom_site_fract_z
O1 O 0.5608(2) 0.18846(10) 0.53460(5)
O2 O 0.4368(3) 0.20022(13) 0.34840(7)
C1 C 0.7549(3) 0.45482(13) 0.49992(7)
H1 H 0.8027 0.4823 0.5226
H2 H 0.7514 0.4886 0.4763
H3 H 0.8177 0.4091 0.4936
C2 C 0.5914(3) 0.31556(13) 0.56089(7)
H4 H 0.5995 0.2971 0.5878
C3 C 0.5828(3) 0.25848(13) 0.52742(7)
C4 C 0.5883(3) 0.39407(13) 0.55471(7)
C5 C 0.5893(3) 0.44782(14) 0.58961(7)
H5 H 0.6066 0.4274 0.6158
C6 C 0.5831(3) 0.42979(13) 0.51150(6)
C7 C 0.6027(3) 0.28932(12) 0.48378(7)
H6 H 0.7173 0.2989 0.4790
C8 C 0.5666(3) 0.52544(14) 0.58574(7)
H7 H 0.5715 0.5568 0.6092
C9 C 0.5129(3) 0.36934(12) 0.48061(6)
H8 H 0.4021 0.3594 0.4894
C10 C 0.5029(3) 0.40143(13) 0.43625(7)
H9 H 0.4310 0.4462 0.4357
H10 H 0.6084 0.4193 0.4278
C11 C 0.5337(3) 0.56328(13) 0.54497(7)
H11 H 0.6313 0.5877 0.5348
H12 H 0.4535 0.6040 0.5484
C12 C 0.4739(3) 0.50293(12) 0.51351(7)
H13 H 0.4695 0.5272 0.4865
H14 H 0.3658 0.4868 0.5208
C13 C 0.5518(3) 0.26822(14) 0.40768(7)
C14 C 0.5433(3) 0.23193(13) 0.45112(7)
H15 H 0.4296 0.2220 0.4569
C15 C 0.6239(3) 0.15122(14) 0.44558(7)
H16 H 0.5941 0.1155 0.4676
H17 H 0.7399 0.1559 0.4447
C16 C 0.4426(3) 0.33955(13) 0.40556(7)
H18 H 0.3333 0.3246 0.4123
H19 H 0.4432 0.3610 0.3779
C17 C 0.7242(3) 0.28837(16) 0.39411(7)
H20 H 0.7759 0.3187 0.4152
H21 H 0.7209 0.3182 0.3690
H22 H 0.7834 0.2408 0.3896
C18 C 0.5043(3) 0.19806(15) 0.38137(8)
C19 C 0.5564(4) 0.12369(15) 0.40377(8)
H23 H 0.6381 0.0962 0.3881
H24 H 0.4656 0.0888 0.4078
O3 O 1.0063(2) 0.81935(10) 0.33966(5)
O4 O 1.0462(3) 0.67799(13) 0.16338(6)
C20 C 0.9974(3) 0.74810(13) 0.34515(7)
C21 C 1.0381(3) 0.61042(13) 0.31897(7)
H25 H 1.1541 0.6201 0.3194
C22 C 1.0046(3) 0.72123(13) 0.26806(7)
H26 H 1.1220 0.7256 0.2680
C23 C 0.9570(3) 0.69111(12) 0.31095(7)
H27 H 0.8404 0.6831 0.3111
C24 C 0.8167(3) 0.55103(14) 0.36439(7)
H28 H 0.7498 0.5919 0.3535
H29 H 0.7882 0.5413 0.3926
H30 H 0.8016 0.5040 0.3486
C25 C 1.0236(3) 0.63850(14) 0.39481(7)
C26 C 1.0079(3) 0.55149(14) 0.28364(7)
H31 H 1.0715 0.5047 0.2885
H32 H 0.8956 0.5363 0.2838
C27 C 0.9944(3) 0.57648(13) 0.36199(7)
C28 C 1.0222(3) 0.71602(14) 0.38656(7)
H33 H 1.0377 0.7509 0.4082
C29 C 0.9614(3) 0.66168(14) 0.23437(7)
C30 C 0.7778(3) 0.64816(15) 0.23045(7)
H34 H 0.7357 0.6309 0.2565
H35 H 0.7576 0.6089 0.2099
H36 H 0.7265 0.6963 0.2226
C31 C 1.0531(3) 0.61198(17) 0.43709(8)
H37 H 1.0574 0.6491 0.4581
C32 C 1.0741(3) 0.53636(18) 0.44665(8)
H38 H 1.0897 0.5229 0.4741
C33 C 0.9400(4) 0.79941(14) 0.25107(7)
H39 H 0.9929 0.8438 0.2639
H40 H 0.8250 0.8038 0.2552
C34 C 1.0503(4) 0.58490(14) 0.24121(7)
H41 H 1.1652 0.5938 0.2395
H42 H 1.0207 0.5476 0.2199
C35 C 1.0040(4) 0.70640(16) 0.19569(8)
C36 C 1.1039(3) 0.50553(15) 0.37192(8)
H43 H 1.0851 0.4645 0.3518
H44 H 1.2154 0.5215 0.3697
C37 C 1.0737(4) 0.47285(16) 0.41518(9)
H45 H 0.9708 0.4462 0.4157
H46 H 1.1563 0.4348 0.4219
C38 C 0.9824(4) 0.79369(16) 0.20458(8)
H47 H 0.8965 0.8153 0.1879
H48 H 1.0806 0.8222 0.1987
O5 O 0.2441(3) 0.71101(12) 0.51928(5)
O6 O -0.0351(3) 0.84536(10) 0.67946(6)
C39 C 0.1490(3) 0.73402(14) 0.54491(7)
C40 C 0.0644(3) 0.64071(13) 0.66699(7)
H49 H 0.1711 0.6588 0.6755
C41 C 0.0737(3) 0.68484(13) 0.57890(7)
C42 C -0.0372(3) 0.77452(13) 0.68594(7)
C43 C 0.0915(3) 0.58004(13) 0.63263(7)
H50 H 0.1580 0.5378 0.6432
H51 H -0.0111 0.5578 0.6247
C44 C -0.0277(3) 0.71467(12) 0.65146(7)
H52 H -0.1372 0.6990 0.6440
C45 C 0.1723(3) 0.61576(13) 0.59459(7)
H53 H 0.2797 0.6333 0.6017
H54 H 0.1814 0.5764 0.5731
C46 C 0.0554(3) 0.74735(12) 0.61292(7)
H55 H 0.1646 0.7615 0.6214
C47 C 0.0948(3) 0.53946(14) 0.72370(7)
H56 H 0.1003 0.4966 0.7041
H57 H 0.2024 0.5603 0.7270
C48 C -0.1830(3) 0.57028(15) 0.69715(8)
H58 H -0.2493 0.6098 0.6847
H59 H -0.2310 0.5533 0.7225
H60 H -0.1732 0.5264 0.6788
C49 C -0.0151(3) 0.60459(13) 0.70595(7)
C50 C -0.0483(3) 0.74499(14) 0.72814(7)
H61 H -0.0668 0.7809 0.7492
C51 C -0.0115(3) 0.81883(13) 0.58954(7)
H62 H 0.0082 0.8671 0.6046
H63 H -0.1259 0.8135 0.5846
C52 C -0.0888(3) 0.65730(15) 0.56103(8)
H64 H -0.1430 0.7010 0.5486
H65 H -0.1541 0.6363 0.5828
H66 H -0.0704 0.6175 0.5406
C53 C -0.0332(3) 0.66858(14) 0.73833(7)
C54 C 0.0841(3) 0.81690(15) 0.54869(8)
H67 H 0.0146 0.8292 0.5256
H68 H 0.1713 0.8546 0.5494
C55 C 0.0368(4) 0.50770(15) 0.76509(8)
H69 H -0.0548 0.4736 0.7606
H70 H 0.1216 0.4766 0.7775
C56 C -0.0386(4) 0.64524(17) 0.78170(8)
H71 H -0.0630 0.6829 0.8015
C57 C -0.0097(4) 0.57153(17) 0.79385(8)
H72 H -0.0192 0.5597 0.8217
loop_
_geom_bond_atom_site_label_1
_geom_bond_atom_site_label_2
_geom_bond_site_symmetry_1
_geom_bond_site_symmetry_2
O1 C3 1_555 1_555
O2 C18 1_555 1_555
C1 H1 1_555 1_555
H2 C1 1_555 1_555
H3 C1 1_555 1_555
C2 H4 1_555 1_555
C3 C2 1_555 1_555
C4 C2 1_555 1_555
C5 C4 1_555 1_555
H5 C5 1_555 1_555
C6 C1 1_555 1_555
C7 C3 1_555 1_555
H6 C7 1_555 1_555
C8 C5 1_555 1_555
H7 C8 1_555 1_555
C9 C6 1_555 1_555
H8 C9 1_555 1_555
C10 C9 1_555 1_555
H9 C10 1_555 1_555
H10 C10 1_555 1_555
C11 C8 1_555 1_555
H11 C11 1_555 1_555
H12 C11 1_555 1_555
C12 C6 1_555 1_555
H13 C12 1_555 1_555
H14 C12 1_555 1_555
C13 C14 1_555 1_555
C14 C7 1_555 1_555
H15 C14 1_555 1_555
C15 C14 1_555 1_555
H16 C15 1_555 1_555
H17 C15 1_555 1_555
C16 C10 1_555 1_555
H18 C16 1_555 1_555
H19 C16 1_555 1_555
C17 C13 1_555 1_555
H20 C17 1_555 1_555
H21 C17 1_555 1_555
H22 C17 1_555 1_555
C18 C13 1_555 1_555
C19 C15 1_555 1_555
H23 C19 1_555 1_555
H24 C19 1_555 1_555
O3 C20 1_555 1_555
O4 C35 1_555 1_555
C20 C23 1_555 1_555
C21 H25 1_555 1_555
C22 H26 1_555 1_555
C23 C21 1_555 1_555
H27 C23 1_555 1_555
C24 H28 1_555 1_555
H29 C24 1_555 1_555
H30 C24 1_555 1_555
C25 C27 1_555 1_555
C26 C21 1_555 1_555
H31 C26 1_555 1_555
H32 C26 1_555 1_555
C27 C21 1_555 1_555
C28 C20 1_555 1_555
H33 C28 1_555 1_555
C29 C22 1_555 1_555
C30 C29 1_555 1_555
H34 C30 1_555 1_555
H35 C30 1_555 1_555
H36 C30 1_555 1_555
C31 C25 1_555 1_555
H37 C31 1_555 1_555
C32 C31 1_555 1_555
H38 C32 1_555 1_555
C33 C22 1_555 1_555
H39 C33 1_555 1_555
H40 C33 1_555 1_555
C34 C26 1_555 1_555
H41 C34 1_555 1_555
H42 C34 1_555 1_555
C35 C29 1_555 1_555
C36 C27 1_555 1_555
H43 C36 1_555 1_555
H44 C36 1_555 1_555
C37 C32 1_555 1_555
H45 C37 1_555 1_555
H46 C37 1_555 1_555
C38 C33 1_555 1_555
H47 C38 1_555 1_555
H48 C38 1_555 1_555
O5 C39 1_555 1_555
O6 C42 1_555 1_555
C39 C41 1_555 1_555
C40 H49 1_555 1_555
C41 C45 1_555 1_555
C42 C44 1_555 1_555
C43 C40 1_555 1_555
H50 C43 1_555 1_555
H51 C43 1_555 1_555
C44 C40 1_555 1_555
H52 C44 1_555 1_555
C45 C43 1_555 1_555
H53 C45 1_555 1_555
H54 C45 1_555 1_555
C46 C41 1_555 1_555
H55 C46 1_555 1_555
C47 H56 1_555 1_555
H57 C47 1_555 1_555
C48 H58 1_555 1_555
H59 C48 1_555 1_555
H60 C48 1_555 1_555
C49 C40 1_555 1_555
C50 C42 1_555 1_555
H61 C50 1_555 1_555
C51 C46 1_555 1_555
H62 C51 1_555 1_555
H63 C51 1_555 1_555
C52 C41 1_555 1_555
H64 C52 1_555 1_555
H65 C52 1_555 1_555
H66 C52 1_555 1_555
C53 C49 1_555 1_555
C54 C39 1_555 1_555
H67 C54 1_555 1_555
H68 C54 1_555 1_555
C55 C47 1_555 1_555
H69 C55 1_555 1_555
H70 C55 1_555 1_555
C56 C53 1_555 1_555
H71 C56 1_555 1_555
C57 C55 1_555 1_555
H72 C57 1_555 1_555
C4 C6 1_555 1_555
C7 C9 1_555 1_555
C11 C12 1_555 1_555
C13 C16 1_555 1_555
C18 C19 1_555 1_555
C22 C23 1_555 1_555
C24 C27 1_555 1_555
C25 C28 1_555 1_555
C29 C34 1_555 1_555
C35 C38 1_555 1_555
C36 C37 1_555 1_555
C44 C46 1_555 1_555
C47 C49 1_555 1_555
C48 C49 1_555 1_555
C50 C53 1_555 1_555
C51 C54 1_555 1_555
C56 C57 1_555 1_555

#END
