
#######################################################################
#
#                 Cambridge Crystallographic Data Centre
#                                CCDC 
#
#######################################################################
#
# If this CIF has been generated from an entry in the Cambridge 
# Structural Database, then it will include bibliographic, chemical, 
# crystal, experimental, refinement or atomic coordinate data resulting 
# from the CCDC's data processing and validation procedures.
#
#######################################################################

data_REXGOT
_chemical_formula_moiety         'C26 H16 Cl1 N1 O5,0.5(C7 H8)'
_chemical_name_systematic        
"8-(4-chlorophenyl)-10-phenyl-10,11-dihydro-12H-pyrano[4',3':2,3]pyrrolo[2,1-c][1,4]benzoxazine-6,7,12-trione toluene solvate"
_symmetry_cell_setting           triclinic
_symmetry_space_group_name_H-M   'P -1'
_symmetry_Int_Tables_number      2
_space_group_name_Hall           '-P 1'
loop_
_symmetry_equiv_pos_site_id
_symmetry_equiv_pos_as_xyz
1 x,y,z
2 -x,-y,-z
_cell_length_a                   11.7171(15)
_cell_length_b                   14.022(2)
_cell_length_c                   16.309(3)
_cell_angle_alpha                66.350(15)
_cell_angle_beta                 83.189(12)
_cell_angle_gamma                79.085(12)
_cell_volume                     2407.36
_exptl_crystal_colour            yellow
_exptl_crystal_description       prism
_cell_formula_units_Z            4
loop_
_atom_site_label
_atom_site_type_symbol
_atom_site_fract_x
_atom_site_fract_y
_atom_site_fract_z
C27 C 0.5073(3) 0.5102(2) 0.1764(2)
C28 C 0.5384(3) 0.4719(3) 0.2736(2)
C29 C 0.7055(3) 0.5581(3) 0.2198(2)
C30 C 0.7035(3) 0.5588(3) 0.1361(2)
C31 C 0.7868(4) 0.6032(3) 0.0708(3)
H17 H 0.7871 0.6032 0.0138
C32 C 0.8690(4) 0.6474(3) 0.0916(3)
H18 H 0.9247 0.6777 0.0480
C33 C 0.8699(4) 0.6473(3) 0.1755(3)
H19 H 0.9261 0.6770 0.1887
C34 C 0.7869(4) 0.6028(3) 0.2407(3)
H20 H 0.7861 0.6032 0.2977
C35 C 0.6301(4) 0.4412(3) 0.0809(2)
C36 C 0.5183(3) 0.3907(3) 0.1036(2)
C37 C 0.4437(3) 0.4375(2) 0.1594(2)
C38 C 0.3269(3) 0.4458(3) 0.1732(2)
C39 C 0.3161(3) 0.6061(3) 0.2020(3)
H21 H 0.3295 0.5895 0.2648
C40 C 0.4307(3) 0.6187(2) 0.1497(2)
H22 H 0.4688 0.6665 0.1626
H23 H 0.4183 0.6480 0.0860
C41 C 0.2244(3) 0.7032(3) 0.1704(3)
C42 C 0.1816(4) 0.7515(3) 0.2284(3)
H24 H 0.2100 0.7249 0.2855
C43 C 0.0972(4) 0.8387(4) 0.2030(4)
H25 H 0.0696 0.8717 0.2424
C44 C 0.0540(4) 0.8769(3) 0.1206(4)
H26 H -0.0041 0.9354 0.1041
C45 C 0.0957(4) 0.8293(4) 0.0604(3)
H27 H 0.0666 0.8560 0.0036
C46 C 0.1813(4) 0.7416(3) 0.0868(3)
H28 H 0.2096 0.7085 0.0475
C47 C 0.2495(4) 0.3786(3) 0.1668(2)
C48 C 0.2883(4) 0.2724(3) 0.1853(3)
H29 H 0.3650 0.2434 0.2000
C49 C 0.2118(5) 0.2096(3) 0.1817(3)
H30 H 0.2372 0.1386 0.1936
C50 C 0.0985(5) 0.2534(4) 0.1605(3)
C51 C 0.0574(4) 0.3554(4) 0.1429(3)
H31 H -0.0195 0.3832 0.1282
C52 C 0.1334(4) 0.4186(3) 0.1475(3)
H32 H 0.1058 0.4889 0.1375
Cl2 Cl 0.00519(13) 0.17331(10) 0.15482(8)
N2 N 0.6163(3) 0.5103(2) 0.12239(17)
O6 O 0.4827(2) 0.4171(2) 0.33603(17)
O7 O 0.6290(2) 0.50780(18) 0.28974(15)
O8 O 0.7139(3) 0.42348(19) 0.03396(17)
O9 O 0.5047(2) 0.32780(19) 0.07263(17)
O10 O 0.2638(2) 0.52085(18) 0.19845(16)
C1 C 0.8238(3) 0.1543(2) 0.3747(2)
C2 C 0.7711(3) 0.2367(3) 0.2888(2)
C3 C 0.7287(4) 0.0976(3) 0.2534(3)
C4 C 0.8034(3) 0.0227(3) 0.3137(2)
C5 C 0.8131(4) -0.0818(3) 0.3252(3)
H1 H 0.8613 -0.1341 0.3676
C6 C 0.7498(4) -0.1065(4) 0.2726(3)
H2 H 0.7559 -0.1764 0.2795
C7 C 0.6787(5) -0.0310(4) 0.2109(3)
H3 H 0.6377 -0.0492 0.1753
C8 C 0.6671(4) 0.0728(4) 0.2009(3)
H4 H 0.6179 0.1249 0.1591
C9 C 0.9866(3) 0.0260(3) 0.3734(2)
C10 C 1.0289(3) 0.1084(3) 0.3954(2)
C11 C 0.9281(3) 0.1843(2) 0.3971(2)
C12 C 0.9132(3) 0.2506(3) 0.4419(2)
C13 C 0.7043(3) 0.2375(3) 0.4719(3)
H5 H 0.6554 0.2914 0.4250
C14 C 0.7309(3) 0.1407(3) 0.4516(2)
H6 H 0.6606 0.1272 0.4349
H7 H 0.7587 0.0807 0.5046
C15 C 0.6413(3) 0.2235(3) 0.5617(3)
C16 C 0.6735(4) 0.1411(3) 0.6394(3)
H8 H 0.7359 0.0893 0.6387
C17 C 0.6132(5) 0.1344(4) 0.7197(3)
H9 H 0.6351 0.0779 0.7726
C18 C 0.5217(5) 0.2105(4) 0.7212(4)
H10 H 0.4814 0.2059 0.7750
C19 C 0.4903(4) 0.2922(4) 0.6445(3)
H11 H 0.4281 0.3441 0.6453
C20 C 0.5504(4) 0.2991(3) 0.5645(3)
H12 H 0.5285 0.3561 0.5119
C21 C 1.0046(3) 0.2974(3) 0.4592(2)
C22 C 1.0986(4) 0.3227(3) 0.3993(3)
H13 H 1.1084 0.3037 0.3502
C23 C 1.1783(4) 0.3764(3) 0.4121(3)
H14 H 1.2413 0.3938 0.3716
C24 C 1.1633(3) 0.4037(3) 0.4849(3)
C25 C 1.0724(4) 0.3765(3) 0.5463(3)
H15 H 1.0645 0.3934 0.5966
C26 C 0.9930(3) 0.3241(3) 0.5328(2)
H16 H 0.9306 0.3063 0.5739
Cl1 Cl 1.25973(10) 0.47688(9) 0.49648(9)
N1 N 0.8688(3) 0.05665(19) 0.36119(18)
O1 O 0.7684(3) 0.32893(19) 0.26632(17)
O2 O 0.7176(2) 0.20423(19) 0.23797(17)
O3 O 1.0451(2) -0.0522(2) 0.36739(18)
O4 O 1.1310(2) 0.1003(2) 0.40998(18)
O5 O 0.8096(2) 0.28096(18) 0.47352(17)
loop_
_geom_bond_atom_site_label_1
_geom_bond_atom_site_label_2
_geom_bond_site_symmetry_1
_geom_bond_site_symmetry_2
C1 C2 1_555 1_555
C2 O1 1_555 1_555
C3 C4 1_555 1_555
C4 C5 1_555 1_555
C5 H1 1_555 1_555
C6 C5 1_555 1_555
H2 C6 1_555 1_555
C7 C6 1_555 1_555
H3 C7 1_555 1_555
C8 C3 1_555 1_555
H4 C8 1_555 1_555
C9 C10 1_555 1_555
C10 C11 1_555 1_555
C11 C1 1_555 1_555
C12 C11 1_555 1_555
C13 H5 1_555 1_555
C14 C1 1_555 1_555
H6 C14 1_555 1_555
H7 C14 1_555 1_555
C15 C13 1_555 1_555
C16 C15 1_555 1_555
H8 C16 1_555 1_555
C17 C16 1_555 1_555
H9 C17 1_555 1_555
C18 C17 1_555 1_555
H10 C18 1_555 1_555
C19 C18 1_555 1_555
H11 C19 1_555 1_555
C20 C15 1_555 1_555
H12 C20 1_555 1_555
C21 C12 1_555 1_555
C22 C21 1_555 1_555
H13 C22 1_555 1_555
C23 C22 1_555 1_555
H14 C23 1_555 1_555
C24 C23 1_555 1_555
C25 C24 1_555 1_555
H15 C25 1_555 1_555
C26 C21 1_555 1_555
H16 C26 1_555 1_555
Cl1 C24 1_555 1_555
N1 C1 1_555 1_555
O2 C2 1_555 1_555
O3 C9 1_555 1_555
O4 C10 1_555 1_555
O5 C12 1_555 1_555
C27 C28 1_555 1_555
C28 O6 1_555 1_555
C29 C30 1_555 1_555
C30 C31 1_555 1_555
C31 H17 1_555 1_555
C32 C31 1_555 1_555
H18 C32 1_555 1_555
C33 C32 1_555 1_555
H19 C33 1_555 1_555
C34 C29 1_555 1_555
H20 C34 1_555 1_555
C35 C36 1_555 1_555
C36 C37 1_555 1_555
C37 C27 1_555 1_555
C38 C37 1_555 1_555
C39 H21 1_555 1_555
C40 C27 1_555 1_555
H22 C40 1_555 1_555
H23 C40 1_555 1_555
C41 C39 1_555 1_555
C42 C41 1_555 1_555
H24 C42 1_555 1_555
C43 C42 1_555 1_555
H25 C43 1_555 1_555
C44 C43 1_555 1_555
H26 C44 1_555 1_555
C45 C44 1_555 1_555
H27 C45 1_555 1_555
C46 C41 1_555 1_555
H28 C46 1_555 1_555
C47 C38 1_555 1_555
C48 C47 1_555 1_555
H29 C48 1_555 1_555
C49 C48 1_555 1_555
H30 C49 1_555 1_555
C50 C49 1_555 1_555
C51 C50 1_555 1_555
H31 C51 1_555 1_555
C52 C47 1_555 1_555
H32 C52 1_555 1_555
Cl2 C50 1_555 1_555
N2 C27 1_555 1_555
O7 C28 1_555 1_555
O8 C35 1_555 1_555
O9 C36 1_555 1_555
O10 C38 1_555 1_555
C3 O2 1_555 1_555
C4 N1 1_555 1_555
C7 C8 1_555 1_555
C9 N1 1_555 1_555
C13 C14 1_555 1_555
C13 O5 1_555 1_555
C19 C20 1_555 1_555
C25 C26 1_555 1_555
C29 O7 1_555 1_555
C30 N2 1_555 1_555
C33 C34 1_555 1_555
C35 N2 1_555 1_555
C39 C40 1_555 1_555
C39 O10 1_555 1_555
C45 C46 1_555 1_555
C51 C52 1_555 1_555

#END
