
#######################################################################
#
#                 Cambridge Crystallographic Data Centre
#                                CCDC 
#
#######################################################################
#
# If this CIF has been generated from an entry in the Cambridge 
# Structural Database, then it will include bibliographic, chemical, 
# crystal, experimental, refinement or atomic coordinate data resulting 
# from the CCDC's data processing and validation procedures.
#
#######################################################################

data_REXMOY
_chemical_formula_moiety         'C12 H9 N2 1+,C8 H1 F4 O4 1-,H2 O1'
_chemical_name_systematic        
'1,10-phenanthrolinium 4-carboxy-2,3,5,6-tetrafluorobenzoate monohydrate'
_symmetry_cell_setting           triclinic
_symmetry_space_group_name_H-M   'P -1'
_symmetry_Int_Tables_number      2
_space_group_name_Hall           '-P 1'
loop_
_symmetry_equiv_pos_site_id
_symmetry_equiv_pos_as_xyz
1 x,y,z
2 -x,-y,-z
_cell_length_a                   7.8627(16)
_cell_length_b                   9.6759(19)
_cell_length_c                   13.503(3)
_cell_angle_alpha                79.34(3)
_cell_angle_beta                 81.08(3)
_cell_angle_gamma                66.64(3)
_cell_volume                     923.001
_exptl_crystal_colour            colorless
_exptl_crystal_description       block
_cell_formula_units_Z            2
loop_
_atom_site_label
_atom_site_type_symbol
_atom_site_fract_x
_atom_site_fract_y
_atom_site_fract_z
F1 F 0.18788(17) 0.40080(12) 0.01381(9)
F2 F -0.09694(19) 0.33354(13) 0.34555(9)
F3 F 0.2527(2) 0.11906(13) -0.00396(10)
F4 F -0.0293(2) 0.05057(14) 0.32642(11)
O1 O -0.1666(2) 0.61470(15) 0.23116(13)
O2 O 0.3105(2) -0.16848(15) 0.11963(15)
O3 O 0.1041(2) 0.60307(14) 0.14606(15)
H1 H 0.0669 0.6926 0.1543
C1 C -0.0128(3) 0.28504(18) 0.25734(14)
C2 C 0.1314(2) 0.31812(17) 0.09335(14)
C3 C 0.0387(2) 0.38073(17) 0.17957(14)
C4 C 0.1658(3) 0.16922(19) 0.08356(14)
O4 O 0.0132(2) -0.12668(16) 0.16575(17)
C5 C 0.1108(2) 0.07496(18) 0.15986(15)
C6 C -0.0154(2) 0.54787(18) 0.18814(14)
C7 C 0.1519(3) -0.08907(19) 0.14713(17)
C8 C 0.0232(3) 0.13579(19) 0.24709(15)
N1 N 0.5317(2) 0.18218(18) 0.21593(13)
C9 C 0.3126(3) 0.3708(2) 0.44111(17)
C10 C 0.3731(3) 0.2595(2) 0.37624(15)
N2 N 0.3462(3) 0.1273(2) 0.39888(15)
H2 H 0.3840 0.0618 0.3571
C11 C 0.4672(2) 0.2889(2) 0.27981(15)
C12 C 0.4924(3) 0.4271(2) 0.24913(15)
C13 C 0.6361(3) 0.3416(2) 0.08884(17)
H3 H 0.6906 0.3581 0.0239
C14 C 0.5759(3) 0.4521(2) 0.15213(17)
H4 H 0.5911 0.5437 0.1299
C15 C 0.4273(3) 0.5373(2) 0.31824(19)
H5 H 0.4442 0.6288 0.2996
C16 C 0.6134(3) 0.2060(2) 0.12415(16)
H6 H 0.6563 0.1298 0.0829
C17 C 0.2594(4) 0.1036(3) 0.4878(2)
H7 H 0.2386 0.0136 0.5042
C18 C 0.1963(4) 0.2047(3) 0.5592(2)
H8 H 0.1381 0.1811 0.6217
C19 C 0.2219(4) 0.3385(3) 0.5356(2)
H9 H 0.1797 0.4082 0.5816
C20 C 0.3422(4) 0.5098(3) 0.40946(19)
H10 H 0.3015 0.5828 0.4532
O5 O 0.5503(3) 0.90092(18) 0.21738(16)
H11 H 0.654(3) 0.832(4) 0.216(3)
H12 H 0.487(4) 0.883(4) 0.182(2)
loop_
_geom_bond_atom_site_label_1
_geom_bond_atom_site_label_2
_geom_bond_site_symmetry_1
_geom_bond_site_symmetry_2
F1 C2 1_555 1_555
F2 C1 1_555 1_555
F3 C4 1_555 1_555
F4 C8 1_555 1_555
O1 C6 1_555 1_555
O2 C7 1_555 1_555
O3 H1 1_555 1_555
C1 C3 1_555 1_555
C2 C3 1_555 1_555
C3 C6 1_555 1_555
C4 C2 1_555 1_555
O4 C7 1_555 1_555
C5 C4 1_555 1_555
C6 O3 1_555 1_555
C7 C5 1_555 1_555
C8 C1 1_555 1_555
N1 C11 1_555 1_555
C9 C10 1_555 1_555
C10 N2 1_555 1_555
N2 H2 1_555 1_555
C11 C10 1_555 1_555
C12 C11 1_555 1_555
C13 H3 1_555 1_555
C14 C12 1_555 1_555
H4 C14 1_555 1_555
C15 C12 1_555 1_555
H5 C15 1_555 1_555
C16 N1 1_555 1_555
H6 C16 1_555 1_555
C17 N2 1_555 1_555
H7 C17 1_555 1_555
C18 C17 1_555 1_555
H8 C18 1_555 1_555
C19 C9 1_555 1_555
H9 C19 1_555 1_555
C20 C9 1_555 1_555
H10 C20 1_555 1_555
O5 H11 1_555 1_555
H12 O5 1_555 1_555
C5 C8 1_555 1_555
C13 C14 1_555 1_555
C13 C16 1_555 1_555
C15 C20 1_555 1_555
C18 C19 1_555 1_555

#END
