
#######################################################################
#
#                 Cambridge Crystallographic Data Centre
#                                CCDC 
#
#######################################################################
#
# If this CIF has been generated from an entry in the Cambridge 
# Structural Database, then it will include bibliographic, chemical, 
# crystal, experimental, refinement or atomic coordinate data resulting 
# from the CCDC's data processing and validation procedures.
#
#######################################################################

data_REXMUE
_chemical_formula_moiety         '2(C12 H9 N2 1+),C8 H2 F4 O4,C8 F4 O4 2-'
_chemical_name_systematic        
'bis(1,10-phenanthrolinium) 2,3,5,6-tetrafluoroterephthalate 2,3,5,6-tetrafluoroterephthalic acid'
_symmetry_cell_setting           triclinic
_symmetry_space_group_name_H-M   'P -1'
_symmetry_Int_Tables_number      2
_space_group_name_Hall           '-P 1'
loop_
_symmetry_equiv_pos_site_id
_symmetry_equiv_pos_as_xyz
1 x,y,z
2 -x,-y,-z
_cell_length_a                   7.9033(16)
_cell_length_b                   7.9444(16)
_cell_length_c                   13.749(3)
_cell_angle_alpha                99.65(3)
_cell_angle_beta                 96.63(3)
_cell_angle_gamma                91.26(3)
_cell_volume                     844.598
_exptl_crystal_colour            colorless
_exptl_crystal_description       block
_cell_formula_units_Z            1
loop_
_atom_site_label
_atom_site_type_symbol
_atom_site_fract_x
_atom_site_fract_y
_atom_site_fract_z
F1 F 0.2332(2) 0.7785(2) 0.42327(14)
F2 F 0.1737(2) 1.0976(2) 0.49765(14)
O1 O 0.5122(3) 1.3954(3) 0.67265(15)
H1 H 0.4897 1.4932 0.6957
C1 C 0.3362(3) 1.0531(4) 0.49818(19)
C2 C 0.3679(3) 0.8863(3) 0.45959(19)
C3 C 0.4679(3) 1.1715(3) 0.53968(18)
O2 O 0.3336(3) 1.4363(3) 0.54096(18)
C4 C 0.4301(4) 1.3518(3) 0.5849(2)
F1A F 0.7668(2) 1.2215(2) 0.57673(14)
F2A F 0.8263(2) 0.9024(2) 0.50235(14)
O1A O 0.4878(3) 0.6046(3) 0.32735(15)
H1A H 0.5103 0.5068 0.3043
C1A C 0.6638(3) 0.9469(4) 0.50182(19)
C2A C 0.6321(3) 1.1137(3) 0.54041(19)
C3A C 0.5321(3) 0.8285(3) 0.46032(18)
O2A O 0.6664(3) 0.5637(3) 0.45904(18)
C4A C 0.5699(4) 0.6482(3) 0.4151(2)
F3 F 0.1784(2) 0.8808(2) 0.92813(13)
F4 F 0.7743(2) 0.8319(2) 0.93995(13)
O3 O 0.5122(3) 0.6863(3) 0.77257(15)
O4 O 0.3680(4) 0.5665(3) 0.8745(2)
C5 C 0.4748(3) 0.8494(3) 0.92833(18)
C6 C 0.6361(3) 0.9136(3) 0.96833(19)
C7 C 0.3385(3) 0.9377(3) 0.96215(18)
C8 C 0.4476(4) 0.6843(3) 0.8530(2)
F3A F 0.8216(2) 1.1192(2) 1.07187(13)
F4A F 0.2257(2) 1.1681(2) 1.06005(13)
O3A O 0.4878(3) 1.3137(3) 1.22743(15)
O4A O 0.6320(4) 1.4335(3) 1.1255(2)
C5A C 0.5252(3) 1.1506(3) 1.07167(18)
C6A C 0.3639(3) 1.0864(3) 1.03167(19)
C7A C 0.6615(3) 1.0623(3) 1.03785(18)
C8A C 0.5524(4) 1.3157(3) 1.1470(2)
C9 C 0.1048(4) 0.9027(4) 0.7058(2)
N1 N -0.2694(3) 1.1051(3) 0.80442(19)
C10 C -0.0591(3) 0.9282(3) 0.73450(19)
N2 N -0.1740(3) 0.7927(3) 0.71687(17)
H2 H -0.2730 0.8077 0.7362
C11 C -0.1065(4) 1.0902(4) 0.78347(19)
C12 C 0.0186(4) 0.6095(4) 0.6392(2)
H3 H 0.0422 0.5021 0.6063
C13 C 0.1397(4) 0.7403(4) 0.6566(2)
H4 H 0.2464 0.7211 0.6356
C14 C 0.2279(4) 1.0438(4) 0.7301(2)
H5 H 0.3374 1.0296 0.7124
C15 C 0.0195(4) 1.2239(4) 0.8067(2)
C16 C -0.1915(5) 1.3946(4) 0.8819(3)
H6 H -0.2252 1.4962 0.9171
C17 C 0.1865(4) 1.1964(4) 0.7783(2)
H7 H 0.2683 1.2858 0.7934
C18 C -0.1396(4) 0.6390(4) 0.6713(2)
H8 H -0.2221 0.5505 0.6608
C19 C -0.3078(4) 1.2549(4) 0.8524(2)
H9 H -0.4189 1.2685 0.8675
C20 C -0.0284(5) 1.3808(4) 0.8588(3)
H10 H 0.0498 1.4731 0.8770
loop_
_geom_bond_atom_site_label_1
_geom_bond_atom_site_label_2
_geom_bond_site_symmetry_1
_geom_bond_site_symmetry_2
F1 C2 1_555 1_555
F2 C1 1_555 1_555
O1 H1 1_555 1_555
C1 C2 1_555 1_555
C2 C3A 1_555 1_555
C3 C1 1_555 1_555
O2 C4 1_555 1_555
C4 O1 1_555 1_555
F3 C7 1_555 1_555
F4 C6 1_555 1_555
O3 C8 1_555 1_555
O4 C8 1_555 1_555
C5 C6 1_555 1_555
C6 C7A 1_555 1_555
C7 C5 1_555 1_555
C8 C5 1_555 1_555
C9 C10 1_555 1_555
N1 C11 1_555 1_555
C10 N2 1_555 1_555
N2 H2 1_555 1_555
C11 C10 1_555 1_555
C12 H3 1_555 1_555
C13 C9 1_555 1_555
H4 C13 1_555 1_555
C14 C9 1_555 1_555
H5 C14 1_555 1_555
C15 C11 1_555 1_555
C16 H6 1_555 1_555
C17 C14 1_555 1_555
H7 C17 1_555 1_555
C18 N2 1_555 1_555
H8 C18 1_555 1_555
C19 N1 1_555 1_555
H9 C19 1_555 1_555
C20 C15 1_555 1_555
H10 C20 1_555 1_555
F1A C2A 1_555 1_555
F2A C1A 1_555 1_555
O1A H1A 1_555 1_555
C1A C2A 1_555 1_555
C2A C3 1_555 1_555
C3A C1A 1_555 1_555
O2A C4A 1_555 1_555
C4A O1A 1_555 1_555
F3A C7A 1_555 1_555
F4A C6A 1_555 1_555
O3A C8A 1_555 1_555
O4A C8A 1_555 1_555
C5A C6A 1_555 1_555
C6A C7 1_555 1_555
C7A C5A 1_555 1_555
C8A C5A 1_555 1_555
C3 C4 1_555 1_555
C12 C13 1_555 1_555
C12 C18 1_555 1_555
C15 C17 1_555 1_555
C16 C19 1_555 1_555
C16 C20 1_555 1_555
C3A C4A 1_555 1_555

#END
