
#######################################################################
#
#                 Cambridge Crystallographic Data Centre
#                                CCDC 
#
#######################################################################
#
# If this CIF has been generated from an entry in the Cambridge 
# Structural Database, then it will include bibliographic, chemical, 
# crystal, experimental, refinement or atomic coordinate data resulting 
# from the CCDC's data processing and validation procedures.
#
#######################################################################

data_REXNEP
_chemical_formula_moiety         'C10 H8 N2,C8 H2 F4 O4'
_chemical_name_systematic        
"2,3,5,6-Tetrafluoroterephthalic acid 4,4'-bipyridine"
_symmetry_cell_setting           triclinic
_symmetry_space_group_name_H-M   'P -1'
_symmetry_Int_Tables_number      2
_space_group_name_Hall           '-P 1'
loop_
_symmetry_equiv_pos_site_id
_symmetry_equiv_pos_as_xyz
1 x,y,z
2 -x,-y,-z
_cell_length_a                   8.319(3)
_cell_length_b                   10.152(4)
_cell_length_c                   10.642(3)
_cell_angle_alpha                87.500(6)
_cell_angle_beta                 73.992(4)
_cell_angle_gamma                69.092(6)
_cell_volume                     805.525
_exptl_crystal_colour            colorless
_exptl_crystal_description       block
_cell_formula_units_Z            2
loop_
_atom_site_label
_atom_site_type_symbol
_atom_site_fract_x
_atom_site_fract_y
_atom_site_fract_z
F1 F 0.18708(16) 0.68893(14) 0.97416(13)
F2 F 0.42514(18) 0.53008(14) 0.76668(11)
O1 O 0.2054(2) 0.81421(16) 1.20374(16)
H1 H 0.1346 0.8632 1.2691
O2 O 0.1905(3) 0.63664(18) 1.32980(16)
C1 C 0.3430(2) 0.5986(2) 0.98937(19)
C2 C 0.3753(2) 0.58776(19) 1.11013(18)
C3 C 0.4656(3) 0.5139(2) 0.88182(18)
C4 C 0.2446(3) 0.6832(2) 1.2279(2)
F1A F 0.81292(16) 0.31107(14) 1.02584(13)
F2A F 0.57486(18) 0.46992(14) 1.23332(11)
O1A O 0.7946(2) 0.18579(16) 0.79626(16)
H1A H 0.8654 0.1368 0.7309
O2A O 0.8095(3) 0.36336(18) 0.67020(16)
C1A C 0.6570(2) 0.4014(2) 1.01063(19)
C2A C 0.6247(2) 0.41224(19) 0.88987(18)
C3A C 0.5344(3) 0.4861(2) 1.11818(18)
C4A C 0.7554(3) 0.3168(2) 0.7721(2)
F3 F 0.15112(15) 0.08644(15) 0.00465(15)
O3 O 0.1675(2) 0.35173(15) 0.10758(14)
H2 H 0.0972 0.4175 0.1600
C5 C 0.3748(2) 0.11997(18) 0.08096(17)
F4 F 0.61172(18) 0.13762(15) 0.14932(14)
O4 O 0.2139(3) 0.24461(18) 0.28627(15)
C6 C 0.2401(3) 0.24924(19) 0.16851(18)
C7 C 0.5536(3) 0.0709(2) 0.07561(18)
C8 C 0.3241(2) 0.0460(2) 0.00341(19)
F3A F 0.84888(15) -0.08644(15) -0.00465(15)
O3A O 0.8325(2) -0.35173(15) -0.10758(14)
H2A H 0.9028 -0.4175 -0.1600
C5A C 0.6252(2) -0.11997(18) -0.08096(17)
F4A F 0.38828(18) -0.13762(15) -0.14932(14)
O4A O 0.7861(3) -0.24461(18) -0.28627(15)
C6A C 0.7599(3) -0.24924(19) -0.16851(18)
C7A C 0.4464(3) -0.0709(2) -0.07561(18)
C8A C 0.6759(2) -0.0460(2) -0.00341(19)
N1 N -0.9236(2) 1.02044(19) 0.63679(16)
N2 N -0.1022(2) 0.54521(17) 0.25849(16)
C9 C -0.6695(3) 0.9733(2) 0.45174(19)
H3 H -0.6085 1.0060 0.3777
C10 C -0.5982(2) 0.83520(19) 0.48421(17)
C11 C -0.4226(2) 0.73552(18) 0.40596(17)
C12 C -0.3157(3) 0.6259(2) 0.46317(18)
H4 H -0.3514 0.6160 0.5528
C13 C -0.3607(3) 0.7481(2) 0.27277(18)
H5 H -0.4272 0.8216 0.2317
C14 C -0.1569(3) 0.5322(2) 0.3867(2)
H6 H -0.0864 0.4585 0.4252
C15 C -0.8320(3) 1.0627(2) 0.5300(2)
H7 H -0.8788 1.1553 0.5072
C16 C -0.6977(3) 0.7922(2) 0.5939(2)
H8 H -0.6570 0.6993 0.6175
C17 C -0.1993(3) 0.6509(2) 0.20132(19)
H9 H -0.1581 0.6594 0.1119
C18 C -0.8576(3) 0.8881(2) 0.6680(2)
H10 H -0.9216 0.8585 0.7427
loop_
_geom_bond_atom_site_label_1
_geom_bond_atom_site_label_2
_geom_bond_site_symmetry_1
_geom_bond_site_symmetry_2
F1 C1 1_555 1_555
F2 C3 1_555 1_555
O1 H1 1_555 1_555
O2 C4 1_555 1_555
C1 C2 1_555 1_555
C2 C4 1_555 1_555
C3 C1 1_555 1_555
C4 O1 1_555 1_555
F3 C8 1_555 1_555
O3 H2 1_555 1_555
C5 C6 1_555 1_555
F4 C7 1_555 1_555
O4 C6 1_555 1_555
C6 O3 1_555 1_555
C7 C5 1_555 1_555
C8 C5 1_555 1_555
N1 C15 1_555 1_555
N2 C14 1_555 1_555
C9 H3 1_555 1_555
C10 C9 1_555 1_555
C11 C10 1_555 1_555
C12 C11 1_555 1_555
H4 C12 1_555 1_555
C13 C11 1_555 1_555
H5 C13 1_555 1_555
C14 C12 1_555 1_555
H6 C14 1_555 1_555
C15 C9 1_555 1_555
H7 C15 1_555 1_555
C16 C10 1_555 1_555
H8 C16 1_555 1_555
C17 N2 1_555 1_555
H9 C17 1_555 1_555
C18 N1 1_555 1_555
H10 C18 1_555 1_555
F1A C1A 1_555 1_555
F2A C3A 1_555 1_555
O1A H1A 1_555 1_555
O2A C4A 1_555 1_555
C1A C2A 1_555 1_555
C2A C3 1_555 1_555
C3A C2 1_555 1_555
C4A O1A 1_555 1_555
F3A C8A 1_555 1_555
O3A H2A 1_555 1_555
C5A C6A 1_555 1_555
F4A C7A 1_555 1_555
O4A C6A 1_555 1_555
C6A O3A 1_555 1_555
C7A C8 1_555 1_555
C8A C7 1_555 1_555
C13 C17 1_555 1_555
C16 C18 1_555 1_555
C1A C3A 1_555 1_555
C2A C4A 1_555 1_555
C5A C7A 1_555 1_555
C5A C8A 1_555 1_555

#END
