
#######################################################################
#
#                 Cambridge Crystallographic Data Centre
#                                CCDC 
#
#######################################################################
#
# If this CIF has been generated from an entry in the Cambridge 
# Structural Database, then it will include bibliographic, chemical, 
# crystal, experimental, refinement or atomic coordinate data resulting 
# from the CCDC's data processing and validation procedures.
#
#######################################################################

data_REXNOZ
_chemical_formula_moiety         '2(C7 H11 N2 1+),C8 H2 F4 O4,C8 F4 O4 2-'
_chemical_name_systematic        
'bis(4-(dimethylamino)pyridinium) 2,3,5,6-tetrafluoroterephthalate 2,3,5,6-tetrafluoroterephthalic acid'
_symmetry_cell_setting           triclinic
_symmetry_space_group_name_H-M   'P -1'
_symmetry_Int_Tables_number      2
_space_group_name_Hall           '-P 1'
loop_
_symmetry_equiv_pos_site_id
_symmetry_equiv_pos_as_xyz
1 x,y,z
2 -x,-y,-z
_cell_length_a                   8.781(5)
_cell_length_b                   10.066(7)
_cell_length_c                   10.289(6)
_cell_angle_alpha                99.273(10)
_cell_angle_beta                 107.452(9)
_cell_angle_gamma                110.288(9)
_cell_volume                     777.211
_exptl_crystal_colour            colorless
_exptl_crystal_description       block
_cell_formula_units_Z            1
loop_
_atom_site_label
_atom_site_type_symbol
_atom_site_fract_x
_atom_site_fract_y
_atom_site_fract_z
F1 F 0.3200(3) 0.6489(2) 0.37925(19)
F2 F 0.5807(3) 0.5144(2) 0.77822(18)
O1 O 0.2315(3) 0.6498(2) 0.6262(2)
H1 H 0.2095 0.7034 0.6797
C1 C 0.4481(4) 0.5874(3) 0.5839(3)
C2 C 0.5425(4) 0.5117(3) 0.6405(3)
O2 O 0.5065(3) 0.7779(3) 0.7844(3)
C3 C 0.3972(4) 0.6831(4) 0.6763(3)
C4 C 0.4068(4) 0.5738(3) 0.4408(3)
F1A F 0.6800(3) 0.3511(2) 0.62075(19)
F2A F 0.4193(3) 0.4856(2) 0.22178(18)
O1A O 0.7685(3) 0.3502(2) 0.3738(2)
H1A H 0.7905 0.2966 0.3203
C1A C 0.5519(4) 0.4126(3) 0.4161(3)
C2A C 0.4575(4) 0.4883(3) 0.3595(3)
O2A O 0.4935(3) 0.2221(3) 0.2156(3)
C3A C 0.6028(4) 0.3169(4) 0.3237(3)
C4A C 0.5932(4) 0.4262(3) 0.5592(3)
N1 N -0.0941(4) 0.5913(3) 0.2201(3)
H2 H -0.0432 0.5327 0.2143
C5 C -0.2640(4) 0.7762(3) 0.2384(3)
N2 N -0.3500(3) 0.8618(3) 0.2452(3)
C6 C -0.1529(4) 0.7604(3) 0.3616(3)
H3 H -0.1355 0.8132 0.4517
C7 C -0.1947(4) 0.6049(4) 0.1009(3)
H4 H -0.2065 0.5519 0.0129
C8 C -0.2798(4) 0.6939(4) 0.1054(3)
H5 H -0.3490 0.7012 0.0210
C9 C -0.3357(5) 0.9460(4) 0.3816(4)
H6 H -0.4063 1.0007 0.3645
H7 H -0.2152 1.0135 0.4368
H8 H -0.3763 0.8789 0.4328
C10 C -0.0720(5) 0.6689(4) 0.3490(3)
H9 H 0.0000 0.6596 0.4309
C11 C -0.4641(5) 0.8742(4) 0.1164(4)
H10 H -0.5141 0.9404 0.1420
H11 H -0.5567 0.7781 0.0604
H12 H -0.3968 0.9121 0.0618
F3 F 0.1313(3) 0.0798(2) 0.28901(19)
F4 F -0.1750(3) 0.1382(2) -0.1462(2)
O3 O -0.1287(4) 0.1978(3) 0.2425(3)
C12 C -0.0244(4) 0.1159(3) 0.0761(3)
O4 O -0.0062(4) 0.3594(3) 0.1402(3)
C13 C -0.0866(4) 0.0720(3) -0.0707(3)
C14 C -0.0545(4) 0.2382(4) 0.1592(3)
C15 C 0.0636(4) 0.0416(3) 0.1448(3)
F3A F -0.1313(3) -0.0798(2) -0.28901(19)
F4A F 0.1750(3) -0.1382(2) 0.1462(2)
O3A O 0.1287(4) -0.1978(3) -0.2425(3)
C12A C 0.0244(4) -0.1159(3) -0.0761(3)
O4A O 0.0062(4) -0.3594(3) -0.1402(3)
C13A C 0.0866(4) -0.0720(3) 0.0707(3)
C14A C 0.0545(4) -0.2382(4) -0.1592(3)
C15A C -0.0636(4) -0.0416(3) -0.1448(3)
loop_
_geom_bond_atom_site_label_1
_geom_bond_atom_site_label_2
_geom_bond_site_symmetry_1
_geom_bond_site_symmetry_2
F1 C4 1_555 1_555
F2 C2 1_555 1_555
O1 H1 1_555 1_555
C1 C2 1_555 1_555
C2 C4A 1_555 1_555
O2 C3 1_555 1_555
C3 O1 1_555 1_555
C4 C1 1_555 1_555
N1 H2 1_555 1_555
C5 N2 1_555 1_555
N2 C9 1_555 1_555
C6 C5 1_555 1_555
H3 C6 1_555 1_555
C7 N1 1_555 1_555
H4 C7 1_555 1_555
C8 C5 1_555 1_555
H5 C8 1_555 1_555
C9 H6 1_555 1_555
H7 C9 1_555 1_555
H8 C9 1_555 1_555
C10 N1 1_555 1_555
H9 C10 1_555 1_555
C11 N2 1_555 1_555
H10 C11 1_555 1_555
H11 C11 1_555 1_555
H12 C11 1_555 1_555
F3 C15 1_555 1_555
F4 C13 1_555 1_555
O3 C14 1_555 1_555
C12 C13 1_555 1_555
O4 C14 1_555 1_555
C13 C15A 1_555 1_555
C14 C12 1_555 1_555
C15 C12 1_555 1_555
F1A C4A 1_555 1_555
F2A C2A 1_555 1_555
O1A H1A 1_555 1_555
C1A C2A 1_555 1_555
C2A C4 1_555 1_555
O2A C3A 1_555 1_555
C3A O1A 1_555 1_555
C4A C1A 1_555 1_555
F3A C15A 1_555 1_555
F4A C13A 1_555 1_555
O3A C14A 1_555 1_555
C12A C13A 1_555 1_555
O4A C14A 1_555 1_555
C13A C15 1_555 1_555
C14A C12A 1_555 1_555
C15A C12A 1_555 1_555
C1 C3 1_555 1_555
C6 C10 1_555 1_555
C7 C8 1_555 1_555
C1A C3A 1_555 1_555

#END
