
#######################################################################
#
#                 Cambridge Crystallographic Data Centre
#                                CCDC 
#
#######################################################################
#
# If this CIF has been generated from an entry in the Cambridge 
# Structural Database, then it will include bibliographic, chemical, 
# crystal, experimental, refinement or atomic coordinate data resulting 
# from the CCDC's data processing and validation procedures.
#
#######################################################################

data_REXNAL
_chemical_formula_moiety         'C12 H8 N4 O1,C8 H2 F4 O4'
_chemical_name_systematic        
"4,4'-(1,3,4-oxadiazole-2,5-diyl)dipyridine 2,3,5,6-tetrafluoroterephthalic acid"
_symmetry_cell_setting           monoclinic
_symmetry_space_group_name_H-M   'P 2/c'
_symmetry_Int_Tables_number      13
_space_group_name_Hall           '-P 2yc'
loop_
_symmetry_equiv_pos_site_id
_symmetry_equiv_pos_as_xyz
1 x,y,z
2 -x,y,1/2-z
3 -x,-y,-z
4 x,-y,1/2+z
_cell_length_a                   10.041(2)
_cell_length_b                   6.8049(14)
_cell_length_c                   13.405(3)
_cell_angle_alpha                90
_cell_angle_beta                 100.97(3)
_cell_angle_gamma                90
_cell_volume                     899.2
_exptl_crystal_colour            colorless
_exptl_crystal_description       block
_cell_formula_units_Z            2
loop_
_atom_site_label
_atom_site_type_symbol
_atom_site_fract_x
_atom_site_fract_y
_atom_site_fract_z
F1 F 0.49311(7) 0.14442(11) 0.08970(6)
F2 F 0.73764(7) 0.67130(11) -0.01874(6)
O1 O 0.76028(9) 0.11646(13) 0.05670(7)
H1 H 0.8344 0.0699 0.0819
O2 O 0.84857(9) 0.39302(14) 0.13287(8)
C1 C 0.62385(12) 0.40045(18) 0.03775(9)
C2 C 0.49917(13) 0.31722(18) 0.04325(9)
C3 C 0.62136(12) 0.58535(18) -0.00636(9)
C4 C 0.75722(12) 0.30053(18) 0.08090(9)
F1B F 0.50689(7) 0.85558(11) -0.08970(6)
F2B F 0.26236(7) 0.32870(11) 0.01874(6)
O1B O 0.23972(9) 0.88354(13) -0.05670(7)
H1B H 0.1656 0.9301 -0.0819
O2B O 0.15143(9) 0.60698(14) -0.13287(8)
C1B C 0.37615(12) 0.59955(18) -0.03775(9)
C2B C 0.50083(13) 0.68278(18) -0.04325(9)
C3B C 0.37864(12) 0.41465(18) 0.00636(9)
C4B C 0.24278(12) 0.69947(18) -0.08090(9)
O3 O 1.5000 0.86972(18) 0.2500
N1 N 0.99761(10) 0.97015(16) 0.12609(8)
C5 C 1.23303(12) 1.02702(19) 0.19265(9)
H2 H 1.3033 1.1155 0.2138
C6 C 1.39314(12) 0.74445(19) 0.22685(9)
C7 C 1.25694(12) 0.82534(18) 0.19488(9)
C8 C 1.02062(13) 0.77587(19) 0.12961(10)
H3 H 0.9483 0.6908 0.1082
N2 N 1.42917(10) 0.56151(16) 0.23472(8)
C9 C 1.10176(13) 1.09230(18) 0.15806(10)
H4 H 1.0851 1.2268 0.1570
C10 C 1.14815(13) 0.69781(19) 0.16402(10)
H5 H 1.1612 0.5625 0.1665
N1A N 2.00239(10) 0.97015(16) 0.37391(8)
C5A C 1.76697(12) 1.02702(19) 0.30735(9)
H2A H 1.6967 1.1155 0.2862
C6A C 1.60686(12) 0.74445(19) 0.27315(9)
C7A C 1.74306(12) 0.82534(18) 0.30512(9)
C8A C 1.97938(13) 0.77587(19) 0.37039(10)
H3A H 2.0517 0.6908 0.3918
N2A N 1.57083(10) 0.56151(16) 0.26528(8)
C9A C 1.89824(13) 1.09230(18) 0.34194(10)
H4A H 1.9149 1.2268 0.3430
C10A C 1.85185(13) 0.69781(19) 0.33598(10)
H5A H 1.8388 0.5625 0.3335
loop_
_geom_bond_atom_site_label_1
_geom_bond_atom_site_label_2
_geom_bond_site_symmetry_1
_geom_bond_site_symmetry_2
F1 C2 1_555 1_555
F2 C3 1_555 1_555
O1 H1 1_555 1_555
O2 C4 1_555 1_555
C1 C2 1_555 1_555
C2 C3B 1_555 1_555
C3 C1 1_555 1_555
C4 O1 1_555 1_555
O3 C6 1_555 1_555
N1 C8 1_555 1_555
C5 H2 1_555 1_555
C6 C7 1_555 1_555
C7 C5 1_555 1_555
C8 H3 1_555 1_555
N2 C6 1_555 1_555
C9 N1 1_555 1_555
H4 C9 1_555 1_555
C10 C7 1_555 1_555
H5 C10 1_555 1_555
F1B C2B 1_555 1_555
F2B C3B 1_555 1_555
O1B H1B 1_555 1_555
O2B C4B 1_555 1_555
C1B C2B 1_555 1_555
C2B C3 1_555 1_555
C3B C1B 1_555 1_555
C4B O1B 1_555 1_555
N1A C8A 1_555 1_555
C5A H2A 1_555 1_555
C6A O3 1_555 1_555
C7A C5A 1_555 1_555
C8A H3A 1_555 1_555
N2A N2 1_555 1_555
C9A N1A 1_555 1_555
H4A C9A 1_555 1_555
C10A C7A 1_555 1_555
H5A C10A 1_555 1_555
C1 C4 1_555 1_555
C5 C9 1_555 1_555
C8 C10 1_555 1_555
C1B C4B 1_555 1_555
C5A C9A 1_555 1_555
C6A C7A 1_555 1_555
C6A N2A 1_555 1_555
C8A C10A 1_555 1_555

#END
