
#######################################################################
#
#                 Cambridge Crystallographic Data Centre
#                                CCDC 
#
#######################################################################
#
# If this CIF has been generated from an entry in the Cambridge 
# Structural Database, then it will include bibliographic, chemical, 
# crystal, experimental, refinement or atomic coordinate data resulting 
# from the CCDC's data processing and validation procedures.
#
#######################################################################

data_REXNAK
_chemical_formula_moiety         'C52 H87 N9 O13,C2 H3 N1'
_chemical_name_systematic        
't-Butoxycarboyl-leucyl-(\a-amino-isobutyryl)-(L-glutamic acid)-leucyl-leucyl-(\b-(3-pyridyl)-L-alanyl)-(\a-amino-isobutyryl)-leucine ethyl ester acetonitrile solvate'
_symmetry_cell_setting           orthorhombic
_symmetry_space_group_name_H-M   'P 21 21 21'
_symmetry_Int_Tables_number      19
_space_group_name_Hall           'P 2ac 2ab'
loop_
_symmetry_equiv_pos_site_id
_symmetry_equiv_pos_as_xyz
1 x,y,z
2 1/2+x,1/2-y,-z
3 -x,1/2+y,1/2-z
4 1/2-x,-y,1/2+z
_cell_length_a                   10.5248(13)
_cell_length_b                   21.969(2)
_cell_length_c                   27.091(3)
_cell_angle_alpha                90
_cell_angle_beta                 90
_cell_angle_gamma                90
_cell_volume                     6263.96
_exptl_crystal_colour            colorless
_exptl_crystal_description       platelet
_chemical_melting_point          '395-396 K'
_cell_formula_units_Z            4
loop_
_atom_site_label
_atom_site_type_symbol
_atom_site_fract_x
_atom_site_fract_y
_atom_site_fract_z
O1 O 0.1306(4) -0.1936(2) -0.05479(14)
O2 O 0.2060(4) -0.13285(19) 0.00703(14)
O3 O 0.3919(4) 0.0050(2) -0.00662(14)
O4 O 0.1214(4) 0.09275(19) 0.04951(16)
O5 O 0.2432(4) 0.04658(19) 0.16971(13)
O6 O 0.3264(4) -0.1723(2) 0.19047(18)
O7 O 0.1735(6) -0.2051(2) 0.14333(19)
O8 O 0.4750(4) 0.1748(2) 0.15663(16)
O9 O 0.2175(5) 0.2817(2) 0.18690(17)
O10 O 0.2260(4) 0.1482(2) 0.32187(14)
O11 O 0.4384(4) 0.0449(2) 0.35938(16)
O12 O 0.4002(6) -0.1253(2) 0.3343(2)
O13 O 0.4805(6) -0.0735(2) 0.2717(2)
N1 N 0.2801(4) -0.1269(2) -0.07147(18)
N2 N 0.2093(4) -0.0075(2) -0.04943(18)
N3 N 0.1505(4) -0.0090(2) 0.04894(17)
N4 N 0.3559(5) 0.0393(2) 0.09865(17)
N5 N 0.3123(5) 0.1650(2) 0.10214(18)
N6 N 0.1928(4) 0.1801(2) 0.19077(18)
N7 N -0.2520(5) 0.2419(2) 0.2445(2)
N8 N 0.3684(4) 0.1429(2) 0.25971(17)
N9 N 0.3345(5) 0.0237(2) 0.28874(18)
C1 C 0.0206(7) -0.2185(3) -0.0252(2)
C2 C -0.0432(9) -0.2621(3) -0.0599(3)
C3 C 0.0679(8) -0.2535(3) 0.0189(2)
C4 C -0.0643(9) -0.1674(4) -0.0110(3)
C5 C 0.2039(6) -0.1501(2) -0.0357(2)
C6 C 0.3774(5) -0.0836(2) -0.0579(2)
C7 C 0.3261(6) -0.0239(2) -0.0360(2)
C8 C 0.4651(6) -0.0748(2) -0.1030(2)
C9 C 0.5896(6) -0.0423(3) -0.0943(2)
C10 C 0.6705(9) -0.0753(4) -0.0568(3)
C11 C 0.6630(9) -0.0388(4) -0.1422(3)
C12 C 0.1443(6) 0.0456(2) -0.0304(2)
C13 C 0.1396(5) 0.0445(2) 0.0256(2)
C14 C 0.0052(6) 0.0431(3) -0.0481(2)
C15 C 0.2049(7) 0.1060(3) -0.0472(2)
C16 C 0.1464(6) -0.0091(2) 0.1034(2)
C17 C 0.2542(6) 0.0278(2) 0.1260(2)
C18 C 0.1423(6) -0.0741(2) 0.1248(2)
C19 C 0.2657(7) -0.1077(2) 0.1240(2)
C20 C 0.2523(7) -0.1680(3) 0.1533(2)
C21 C 0.4601(6) 0.0780(2) 0.1181(2)
C22 C 0.4164(6) 0.1439(2) 0.1263(2)
C23 C 0.5736(6) 0.0769(2) 0.0835(2)
C24 C 0.6525(7) 0.0194(3) 0.0859(2)
C25 C 0.7663(9) 0.0260(4) 0.0491(3)
C26 C 0.7109(10) 0.0095(4) 0.1378(3)
C27 C 0.2658(7) 0.2260(2) 0.1138(2)
C28 C 0.2241(6) 0.2317(2) 0.1674(2)
C29 C 0.1553(7) 0.2429(3) 0.0793(2)
C30 C 0.1859(9) 0.2612(4) 0.0292(3)
C31 C 0.2544(11) 0.3230(4) 0.0286(4)
C32 C 0.0615(12) 0.2683(5) 0.0003(4)
C33 C 0.1531(6) 0.1775(2) 0.2423(2)
C34 C 0.2538(6) 0.1558(2) 0.2777(2)
C35 C 0.0311(5) 0.1398(2) 0.2479(2)
C36 C -0.0822(6) 0.1718(2) 0.2276(2)
C37 C -0.1525(6) 0.2079(2) 0.2596(2)
C38 C -0.2847(7) 0.2396(3) 0.1971(2)
C39 C -0.2220(6) 0.2049(3) 0.1637(2)
C40 C -0.1194(6) 0.1706(3) 0.1792(2)
C41 C 0.4673(6) 0.1148(2) 0.2911(2)
C42 C 0.4107(6) 0.0585(2) 0.3171(2)
C43 C 0.5167(6) 0.1596(2) 0.3289(2)
C44 C 0.5727(6) 0.0923(2) 0.2574(2)
C45 C 0.2891(6) -0.0360(2) 0.3057(2)
C46 C 0.3961(9) -0.0831(3) 0.3067(3)
C47 C 0.1762(7) -0.0567(3) 0.2742(2)
C48 C 0.1062(8) -0.1118(3) 0.2900(3)
C49 C 0.0459(9) -0.1054(4) 0.3403(3)
C50 C 0.0042(10) -0.1271(4) 0.2536(3)
C51 C 0.5918(15) -0.1141(7) 0.2717(4)
C52 C 0.6333(18) -0.1246(7) 0.2284(5)
H1 H -0.1064 -0.2415 -0.0786
H2 H -0.0822 -0.2942 -0.0419
H3 H 0.0192 -0.2784 -0.0815
H4 H 0.0828 -0.2949 0.0107
H5 H 0.0075 -0.2518 0.0449
H6 H 0.1454 -0.2351 0.0288
H7 H -0.0387 -0.1508 0.0198
H8 H -0.1490 -0.1820 -0.0086
H9 H -0.0594 -0.1367 -0.0357
H10 H 0.2700 -0.1389 -0.1049
H11 H 0.4279 -0.1023 -0.0332
H12 H 0.4826 -0.1135 -0.1170
H13 H 0.4193 -0.0507 -0.1261
H14 H 0.5740 -0.0019 -0.0832
H15 H 0.6489 -0.0613 -0.0247
H16 H 0.7581 -0.0678 -0.0627
H17 H 0.6523 -0.1175 -0.0593
H18 H 0.7150 -0.0740 -0.1449
H19 H 0.7138 -0.0031 -0.1434
H20 H 0.6039 -0.0381 -0.1688
H21 H 0.1664 -0.0321 -0.0730
H22 H -0.0010 0.0641 -0.0787
H23 H -0.0480 0.0619 -0.0243
H24 H -0.0197 0.0019 -0.0526
H25 H 0.2689 0.1177 -0.0244
H26 H 0.1411 0.1365 -0.0486
H27 H 0.2417 0.1004 -0.0789
H28 H 0.1605 -0.0458 0.0309
H29 H 0.0690 0.0101 0.1125
H30 H 0.1160 -0.0709 0.1582
H31 H 0.0816 -0.0972 0.1067
H32 H 0.2880 -0.1166 0.0908
H33 H 0.3304 -0.0835 0.1386
H34 H 0.2965 -0.2196 0.2137
H35 H 0.3633 0.0220 0.0667
H36 H 0.4855 0.0616 0.1490
H37 H 0.5441 0.0823 0.0507
H38 H 0.6270 0.1100 0.0924
H39 H 0.6014 -0.0144 0.0768
H40 H 0.7442 0.0122 0.0170
H41 H 0.8349 0.0021 0.0609
H42 H 0.7923 0.0674 0.0474
H43 H 0.7918 0.0285 0.1398
H44 H 0.7188 -0.0329 0.1441
H45 H 0.6550 0.0274 0.1612
H46 H 0.2716 0.1407 0.0778
H47 H 0.3326 0.2543 0.1083
H48 H 0.0995 0.2090 0.0782
H49 H 0.1127 0.2766 0.0939
H50 H 0.2378 0.2304 0.0151
H51 H 0.1955 0.3554 0.0250
H52 H 0.3122 0.3232 0.0017
H53 H 0.3000 0.3278 0.0586
H54 H 0.0412 0.2298 -0.0136
H55 H 0.0738 0.2972 -0.0254
H56 H -0.0052 0.2809 0.0216
H57 H 0.1956 0.1429 0.1730
H58 H 0.1325 0.2180 0.2516
H59 H 0.0414 0.1028 0.2302
H60 H 0.0184 0.1311 0.2819
H61 H -0.1301 0.2092 0.2935
H62 H -0.3553 0.2630 0.1863
H63 H -0.2476 0.2048 0.1301
H64 H -0.0749 0.1455 0.1565
H65 H 0.3865 0.1517 0.2261
H66 H 0.5877 0.1803 0.3153
H67 H 0.5416 0.1384 0.3579
H68 H 0.4529 0.1884 0.3374
H69 H 0.5561 0.0514 0.2478
H70 H 0.6513 0.0942 0.2746
H71 H 0.5759 0.1174 0.2289
H72 H 0.3102 0.0374 0.2569
H73 H 0.2604 -0.0307 0.3387
H74 H 0.1156 -0.0247 0.2748
H75 H 0.2055 -0.0625 0.2414
H76 H 0.1661 -0.1441 0.2909
H77 H 0.1053 -0.1160 0.3653
H78 H -0.0258 -0.1314 0.3428
H79 H 0.0214 -0.0640 0.3442
H80 H -0.0721 -0.1085 0.2647
H81 H -0.0054 -0.1700 0.2521
H82 H 0.0269 -0.1107 0.2223
H83 H 0.6570 -0.0990 0.2926
H84 H 0.5626 -0.1521 0.2838
H85 H 0.5887 -0.1583 0.2150
H86 H 0.7213 -0.1332 0.2319
H87 H 0.6192 -0.0897 0.2084
N10 N 0.2689(17) 0.3640(5) 0.4103(4)
C53 C 0.1441(11) 0.2885(4) 0.3634(3)
C54 C 0.2085(12) 0.3303(6) 0.3865(4)
H88 H 0.1361 0.3006 0.3298
H89 H 0.0620 0.2828 0.3772
H90 H 0.1906 0.2515 0.3651
loop_
_geom_bond_atom_site_label_1
_geom_bond_atom_site_label_2
_geom_bond_site_symmetry_1
_geom_bond_site_symmetry_2
O1 C1 1_555 1_555
O2 C5 1_555 1_555
O3 C7 1_555 1_555
O4 C13 1_555 1_555
O5 C17 1_555 1_555
O6 C20 1_555 1_555
O7 C20 1_555 1_555
O8 C22 1_555 1_555
O9 C28 1_555 1_555
O10 C34 1_555 1_555
O11 C42 1_555 1_555
O12 C46 1_555 1_555
O13 C46 1_555 1_555
N1 C5 1_555 1_555
N2 C7 1_555 1_555
N3 C13 1_555 1_555
N4 C17 1_555 1_555
N5 C22 1_555 1_555
N6 C28 1_555 1_555
N7 C37 1_555 1_555
N8 C34 1_555 1_555
N9 C42 1_555 1_555
N10 C54 1_555 1_555
C1 C2 1_555 1_555
C2 H1 1_555 1_555
C3 C1 1_555 1_555
C4 C1 1_555 1_555
C5 O1 1_555 1_555
C6 N1 1_555 1_555
C7 C6 1_555 1_555
C8 C6 1_555 1_555
C9 C8 1_555 1_555
C10 C9 1_555 1_555
C11 C9 1_555 1_555
C12 N2 1_555 1_555
C13 C12 1_555 1_555
C14 C12 1_555 1_555
C15 C12 1_555 1_555
C16 N3 1_555 1_555
C17 C16 1_555 1_555
C18 C16 1_555 1_555
C19 C18 1_555 1_555
C20 C19 1_555 1_555
C21 N4 1_555 1_555
C22 C21 1_555 1_555
C23 C21 1_555 1_555
C24 C23 1_555 1_555
C25 C24 1_555 1_555
C26 C24 1_555 1_555
C27 N5 1_555 1_555
C28 C27 1_555 1_555
C29 C27 1_555 1_555
C30 C29 1_555 1_555
C31 C30 1_555 1_555
C32 C30 1_555 1_555
C33 N6 1_555 1_555
C34 C33 1_555 1_555
C35 C33 1_555 1_555
C36 C35 1_555 1_555
C37 C36 1_555 1_555
C38 N7 1_555 1_555
C39 C38 1_555 1_555
C40 C36 1_555 1_555
C41 N8 1_555 1_555
C42 C41 1_555 1_555
C43 C41 1_555 1_555
C44 C41 1_555 1_555
C45 N9 1_555 1_555
C46 C45 1_555 1_555
C47 C45 1_555 1_555
C48 C47 1_555 1_555
C49 C48 1_555 1_555
C50 C48 1_555 1_555
C51 O13 1_555 1_555
C52 C51 1_555 1_555
C53 C54 1_555 1_555
H2 C2 1_555 1_555
H3 C2 1_555 1_555
H4 C3 1_555 1_555
H5 C3 1_555 1_555
H6 C3 1_555 1_555
H7 C4 1_555 1_555
H8 C4 1_555 1_555
H9 C4 1_555 1_555
H10 N1 1_555 1_555
H11 C6 1_555 1_555
H12 C8 1_555 1_555
H13 C8 1_555 1_555
H14 C9 1_555 1_555
H15 C10 1_555 1_555
H16 C10 1_555 1_555
H17 C10 1_555 1_555
H18 C11 1_555 1_555
H19 C11 1_555 1_555
H20 C11 1_555 1_555
H21 N2 1_555 1_555
H22 C14 1_555 1_555
H23 C14 1_555 1_555
H24 C14 1_555 1_555
H25 C15 1_555 1_555
H26 C15 1_555 1_555
H27 C15 1_555 1_555
H28 N3 1_555 1_555
H29 C16 1_555 1_555
H30 C18 1_555 1_555
H31 C18 1_555 1_555
H32 C19 1_555 1_555
H33 C19 1_555 1_555
H34 O6 1_555 1_555
H35 N4 1_555 1_555
H36 C21 1_555 1_555
H37 C23 1_555 1_555
H38 C23 1_555 1_555
H39 C24 1_555 1_555
H40 C25 1_555 1_555
H41 C25 1_555 1_555
H42 C25 1_555 1_555
H43 C26 1_555 1_555
H44 C26 1_555 1_555
H45 C26 1_555 1_555
H46 N5 1_555 1_555
H47 C27 1_555 1_555
H48 C29 1_555 1_555
H49 C29 1_555 1_555
H50 C30 1_555 1_555
H51 C31 1_555 1_555
H52 C31 1_555 1_555
H53 C31 1_555 1_555
H54 C32 1_555 1_555
H55 C32 1_555 1_555
H56 C32 1_555 1_555
H57 N6 1_555 1_555
H58 C33 1_555 1_555
H59 C35 1_555 1_555
H60 C35 1_555 1_555
H61 C37 1_555 1_555
H62 C38 1_555 1_555
H63 C39 1_555 1_555
H64 C40 1_555 1_555
H65 N8 1_555 1_555
H66 C43 1_555 1_555
H67 C43 1_555 1_555
H68 C43 1_555 1_555
H69 C44 1_555 1_555
H70 C44 1_555 1_555
H71 C44 1_555 1_555
H72 N9 1_555 1_555
H73 C45 1_555 1_555
H74 C47 1_555 1_555
H75 C47 1_555 1_555
H76 C48 1_555 1_555
H77 C49 1_555 1_555
H78 C49 1_555 1_555
H79 C49 1_555 1_555
H80 C50 1_555 1_555
H81 C50 1_555 1_555
H82 C50 1_555 1_555
H83 C51 1_555 1_555
H84 C51 1_555 1_555
H85 C52 1_555 1_555
H86 C52 1_555 1_555
H87 C52 1_555 1_555
H88 C53 1_555 1_555
H89 C53 1_555 1_555
H90 C53 1_555 1_555
C39 C40 1_555 1_555

#END
