
#######################################################################
#
#                 Cambridge Crystallographic Data Centre
#                                CCDC 
#
#######################################################################
#
# If this CIF has been generated from an entry in the Cambridge 
# Structural Database, then it will include bibliographic, chemical, 
# crystal, experimental, refinement or atomic coordinate data resulting 
# from the CCDC's data processing and validation procedures.
#
#######################################################################

data_REXNUF
_chemical_formula_moiety         'C8 F4 O4 2-,2(C5 H6 N1 O1 1+)'
_chemical_name_systematic        
'bis(3-hydroxypyridinium) 2,3,5,6-tetrafluoroterephthalate'
_symmetry_cell_setting           triclinic
_symmetry_space_group_name_H-M   'P -1'
_symmetry_Int_Tables_number      2
_space_group_name_Hall           '-P 1'
loop_
_symmetry_equiv_pos_site_id
_symmetry_equiv_pos_as_xyz
1 x,y,z
2 -x,-y,-z
_cell_length_a                   5.2649(11)
_cell_length_b                   8.6837(17)
_cell_length_c                   10.192(2)
_cell_angle_alpha                105.83(3)
_cell_angle_beta                 96.18(3)
_cell_angle_gamma                101.40(3)
_cell_volume                     432.953
_exptl_crystal_colour            colorless
_exptl_crystal_description       block
_cell_formula_units_Z            1
loop_
_atom_site_label
_atom_site_type_symbol
_atom_site_fract_x
_atom_site_fract_y
_atom_site_fract_z
F1 F 0.3485(4) 0.2059(2) 0.0468(2)
O1 O 0.5420(5) 0.1593(3) -0.2957(2)
F2 F 0.7807(5) 0.5306(3) -0.2027(2)
O2 O 0.7923(5) 0.1474(3) -0.1089(2)
C1 C 0.5694(6) 0.3607(4) -0.0819(3)
C2 C 0.6412(6) 0.2092(4) -0.1711(3)
C3 C 0.6427(6) 0.5131(4) -0.1022(3)
C4 C 0.4261(6) 0.3512(4) 0.0218(3)
F1A F 0.6515(4) 0.7941(2) -0.0468(2)
O1A O 0.4580(5) 0.8407(3) 0.2957(2)
F2A F 0.2193(5) 0.4694(3) 0.2027(2)
O2A O 0.2077(5) 0.8526(3) 0.1089(2)
C1A C 0.4306(6) 0.6393(4) 0.0819(3)
C2A C 0.3588(6) 0.7908(4) 0.1711(3)
C3A C 0.3573(6) 0.4869(4) 0.1022(3)
C4A C 0.5739(6) 0.6488(4) -0.0218(3)
C5 C 0.9593(5) -0.0855(3) -0.2770(3)
H1 H 0.8980 -0.0092 -0.2128
O3 O 0.8372(6) -0.2880(4) -0.6430(2)
H2 H 0.7210 -0.2406 -0.6557
C6 C 1.1422(6) -0.3037(4) -0.4643(3)
H3 H 1.2101 -0.3765 -0.5281
C7 C 0.8539(6) -0.1250(4) -0.4107(3)
H4 H 0.7229 -0.0764 -0.4375
C8 C 0.9403(6) -0.2382(4) -0.5091(3)
C9 C 1.1480(7) -0.1500(4) -0.2312(3)
H5 H 1.2148 -0.1203 -0.1372
N1 N 1.2410(6) -0.2606(5) -0.3254(3)
H6 H 1.3622 -0.3035 -0.2975
loop_
_geom_bond_atom_site_label_1
_geom_bond_atom_site_label_2
_geom_bond_site_symmetry_1
_geom_bond_site_symmetry_2
F1 C4 1_555 1_555
O1 C2 1_555 1_555
F2 C3 1_555 1_555
O2 C2 1_555 1_555
C1 C2 1_555 1_555
C3 C1 1_555 1_555
C4 C1 1_555 1_555
C5 H1 1_555 1_555
O3 H2 1_555 1_555
C6 H3 1_555 1_555
C7 C5 1_555 1_555
H4 C7 1_555 1_555
C8 O3 1_555 1_555
C9 C5 1_555 1_555
H5 C9 1_555 1_555
N1 C6 1_555 1_555
H6 N1 1_555 1_555
F1A C4A 1_555 1_555
O1A C2A 1_555 1_555
F2A C3A 1_555 1_555
O2A C2A 1_555 1_555
C1A C2A 1_555 1_555
C3A C4 1_555 1_555
C4A C3 1_555 1_555
C6 C8 1_555 1_555
C7 C8 1_555 1_555
C9 N1 1_555 1_555
C1A C3A 1_555 1_555
C1A C4A 1_555 1_555

#END
