
#######################################################################
#
#                 Cambridge Crystallographic Data Centre
#                                CCDC 
#
#######################################################################
#
# If this CIF has been generated from an entry in the Cambridge 
# Structural Database, then it will include bibliographic, chemical, 
# crystal, experimental, refinement or atomic coordinate data resulting 
# from the CCDC's data processing and validation procedures.
#
#######################################################################

data_REXQOB
_chemical_formula_moiety         'C26 H24 N2 O3'
_chemical_name_systematic        
(-)-(3aR,4S,7R,8aR,8bS)-hexahydro-7-hydroxy-4-(naphthalen-2-yl)-2-(phenylmethyl)pyrrolo[3,4-a]pyrrolizine-1,3(2H,4H)-dione
_symmetry_cell_setting           orthorhombic
_symmetry_space_group_name_H-M   'P 21 21 21'
_symmetry_Int_Tables_number      19
_space_group_name_Hall           'P 2ac 2ab'
loop_
_symmetry_equiv_pos_site_id
_symmetry_equiv_pos_as_xyz
1 x,y,z
2 1/2-x,-y,1/2+z
3 -x,1/2+y,1/2-z
4 1/2+x,1/2-y,-z
_cell_length_a                   10.7576(2)
_cell_length_b                   11.9045(3)
_cell_length_c                   15.9498(4)
_cell_angle_alpha                90
_cell_angle_beta                 90
_cell_angle_gamma                90
_cell_volume                     2042.59
_exptl_crystal_colour            white
_chemical_melting_point          '188-191 deg.C'
_cell_formula_units_Z            4
_exptl_crystal_recrystallization_method methanol
loop_
_atom_site_label
_atom_site_type_symbol
_atom_site_fract_x
_atom_site_fract_y
_atom_site_fract_z
C1 C 0.3829(2) 0.6984(2) 0.74265(15)
N1 N 0.33865(19) 0.79522(19) 0.70463(13)
C2 C 0.4076(2) 0.8894(2) 0.72344(16)
C3 C 0.5095(2) 0.8570(2) 0.78463(16)
H1 H 0.5917 0.8811 0.7633
C4 C 0.5020(2) 0.7276(2) 0.78898(15)
H2 H 0.5751 0.6923 0.7620
C5 C 0.4909(2) 0.8966(2) 0.87726(15)
H3 H 0.5744 0.9078 0.9020
N2 N 0.43357(18) 0.79801(18) 0.91965(12)
C6 C 0.4954(2) 0.6982(2) 0.88194(15)
H4 H 0.4445 0.6299 0.8907
C7 C 0.6199(3) 0.6876(3) 0.92709(17)
H5 H 0.6829 0.7355 0.9008
H6 H 0.6492 0.6097 0.9266
C8 C 0.5922(2) 0.7269(2) 1.01697(16)
H7 H 0.5806 0.6608 1.0538
C9 C 0.4682(3) 0.7923(3) 1.00965(16)
H8 H 0.4030 0.7539 1.0415
H9 H 0.4781 0.8683 1.0324
C10 C 0.4172(2) 1.0033(2) 0.89179(15)
C11 C 0.2879(2) 1.0097(2) 0.87196(17)
H10 H 0.2458 0.9451 0.8533
C12 C 0.2250(2) 1.1085(2) 0.87982(18)
H11 H 0.1404 1.1113 0.8651
C13 C 0.2841(2) 1.2071(2) 0.90969(16)
C14 C 0.4122(2) 1.2001(2) 0.93393(15)
C15 C 0.4748(2) 1.0963(2) 0.92342(15)
H12 H 0.5590 1.0912 0.9388
C16 C 0.2240(3) 1.3129(2) 0.91533(19)
H13 H 0.1409 1.3194 0.8979
C17 C 0.2839(3) 1.4053(2) 0.9454(2)
H14 H 0.2421 1.4745 0.9486
C18 C 0.4093(3) 1.3972(2) 0.97207(19)
H15 H 0.4501 1.4607 0.9937
C19 C 0.4708(3) 1.2968(2) 0.96628(17)
H16 H 0.5539 1.2923 0.9842
O1 O 0.33279(19) 0.60752(16) 0.73761(13)
O2 O 0.3874(2) 0.98111(18) 0.69369(13)
O3 O 0.68436(19) 0.79838(18) 1.05119(13)
H17 H 0.7451 0.7603 1.0660
C20 C 0.2321(3) 0.7988(3) 0.64757(17)
H18 H 0.2147 0.7225 0.6277
H19 H 0.2538 0.8447 0.5987
C21 C 0.1179(3) 0.8455(2) 0.68698(18)
C22 C 0.0544(4) 0.7885(4) 0.7469(3)
H20 H 0.0808 0.7164 0.7632
C23 C -0.0463(4) 0.8407(6) 0.7833(3)
H21 H -0.0926 0.8024 0.8243
C24 C -0.0836(5) 0.9493(5) 0.7534(3)
H22 H -0.1462 0.9882 0.7824
C25 C -0.0313(4) 0.9953(4) 0.6877(3)
H23 H -0.0648 1.0607 0.6636
C26 C 0.0757(4) 0.9466(3) 0.6538(3)
H24 H 0.1201 0.9834 0.6111
loop_
_geom_bond_atom_site_label_1
_geom_bond_atom_site_label_2
_geom_bond_site_symmetry_1
_geom_bond_site_symmetry_2
C1 N1 1_555 1_555
N1 C2 1_555 1_555
C2 C3 1_555 1_555
C3 H1 1_555 1_555
C4 C1 1_555 1_555
H2 C4 1_555 1_555
C5 C3 1_555 1_555
H3 C5 1_555 1_555
N2 C5 1_555 1_555
C6 C4 1_555 1_555
H4 C6 1_555 1_555
C7 C6 1_555 1_555
H5 C7 1_555 1_555
H6 C7 1_555 1_555
C8 C7 1_555 1_555
H7 C8 1_555 1_555
C9 N2 1_555 1_555
H8 C9 1_555 1_555
H9 C9 1_555 1_555
C10 C5 1_555 1_555
C11 C10 1_555 1_555
H10 C11 1_555 1_555
C12 C11 1_555 1_555
H11 C12 1_555 1_555
C13 C12 1_555 1_555
C14 C13 1_555 1_555
C15 C10 1_555 1_555
H12 C15 1_555 1_555
C16 C13 1_555 1_555
H13 C16 1_555 1_555
C17 C16 1_555 1_555
H14 C17 1_555 1_555
C18 C17 1_555 1_555
H15 C18 1_555 1_555
C19 C14 1_555 1_555
H16 C19 1_555 1_555
O1 C1 1_555 1_555
O2 C2 1_555 1_555
O3 C8 1_555 1_555
H17 O3 1_555 1_555
C20 N1 1_555 1_555
H18 C20 1_555 1_555
H19 C20 1_555 1_555
C21 C20 1_555 1_555
C22 C21 1_555 1_555
H20 C22 1_555 1_555
C23 C22 1_555 1_555
H21 C23 1_555 1_555
C24 C23 1_555 1_555
H22 C24 1_555 1_555
C25 C24 1_555 1_555
H23 C25 1_555 1_555
C26 C21 1_555 1_555
H24 C26 1_555 1_555
C3 C4 1_555 1_555
N2 C6 1_555 1_555
C8 C9 1_555 1_555
C14 C15 1_555 1_555
C18 C19 1_555 1_555
C25 C26 1_555 1_555

#END
