
#######################################################################
#
#                 Cambridge Crystallographic Data Centre
#                                CCDC 
#
#######################################################################
#
# If this CIF has been generated from an entry in the Cambridge 
# Structural Database, then it will include bibliographic, chemical, 
# crystal, experimental, refinement or atomic coordinate data resulting 
# from the CCDC's data processing and validation procedures.
#
#######################################################################

data_REXTEV
_chemical_formula_moiety         'C24 H24 Cl2 N2 O4'
_chemical_name_systematic        
'Ethyl 9b-(3,4-dichlorobenzyl)-1,4-dioxo-2-propyl-2,3,3a,4,5,9b-hexahydro-1H-pyrrolo[3,4-c]quinoline-3-carboxylate'
_symmetry_cell_setting           triclinic
_symmetry_space_group_name_H-M   'P 1'
_symmetry_Int_Tables_number      1
_space_group_name_Hall           'P 1'
loop_
_symmetry_equiv_pos_site_id
_symmetry_equiv_pos_as_xyz
1 x,y,z
_cell_length_a                   8.9665(12)
_cell_length_b                   11.7214(16)
_cell_length_c                   12.695(3)
_cell_angle_alpha                111.536(4)
_cell_angle_beta                 101.261(4)
_cell_angle_gamma                103.499(3)
_cell_volume                     1147.11
_exptl_crystal_colour            colorless
_exptl_crystal_description       prism
_cell_formula_units_Z            2
loop_
_atom_site_label
_atom_site_type_symbol
_atom_site_fract_x
_atom_site_fract_y
_atom_site_fract_z
Cl1 Cl 0.83128(12) -0.10110(9) 0.54172(10)
Cl2 Cl 1.15558(13) 0.00583(10) 0.75220(9)
O1 O 1.0504(2) 0.4949(2) 0.77690(18)
O2 O 1.0003(3) 0.3973(2) 0.2739(2)
O3 O 0.8777(3) 0.6828(2) 0.6908(2)
O4 O 0.7583(2) 0.5692(2) 0.49226(19)
N1 N 1.0425(3) 0.5696(2) 0.4516(2)
N2 N 0.8203(3) 0.3627(2) 0.6280(2)
H1 H 0.7746 0.3547 0.6797
C1 C 0.9674(4) 0.0912(3) 0.4880(3)
H2 H 0.8727 0.0566 0.4247
C2 C 0.9872(4) 0.0332(3) 0.5643(3)
C3 C 1.1280(5) 0.0809(4) 0.6573(3)
C4 C 1.2515(4) 0.1905(4) 0.6773(3)
H3 H 1.3462 0.2236 0.7404
C5 C 1.2307(4) 0.2494(3) 0.6016(3)
H4 H 1.3129 0.3229 0.6144
C6 C 1.0888(4) 0.2012(3) 0.5057(3)
C7 C 1.0733(4) 0.2656(3) 0.4228(3)
H5 H 1.0203 0.1987 0.3418
H6 H 1.1806 0.3124 0.4269
C8 C 0.9775(3) 0.3617(3) 0.4505(3)
C9 C 1.0474(3) 0.4684(3) 0.5803(3)
H7 H 1.1623 0.4801 0.6076
C10 C 0.9733(3) 0.4420(3) 0.6691(3)
C11 C 0.7275(3) 0.2908(3) 0.5065(3)
C12 C 0.5664(4) 0.2201(3) 0.4788(3)
H8 H 0.5221 0.2200 0.5392
C13 C 0.4720(4) 0.1498(3) 0.3606(3)
H9 H 0.3637 0.1029 0.3415
C14 C 0.5386(4) 0.1492(3) 0.2707(3)
H10 H 0.4751 0.1023 0.1914
C15 C 0.7004(4) 0.2186(3) 0.2995(3)
H11 H 0.7443 0.2175 0.2387
C16 C 0.7982(3) 0.2899(3) 0.4173(3)
C17 C 1.0063(3) 0.4418(3) 0.3787(3)
C18 C 1.0352(3) 0.5952(3) 0.5711(3)
H12 H 1.1300 0.6691 0.6292
C19 C 0.8819(4) 0.6230(3) 0.5918(3)
C20 C 0.6046(4) 0.5783(4) 0.5087(3)
H13 H 0.6032 0.6661 0.5284
H14 H 0.5874 0.5562 0.5729
C21 C 0.4757(4) 0.4842(3) 0.3937(3)
H15 H 0.4998 0.5020 0.3297
H16 H 0.3734 0.4936 0.3986
H17 H 0.4713 0.3970 0.3792
C22 C 1.0706(4) 0.6718(3) 0.4106(3)
H18 H 0.9941 0.7174 0.4260
H19 H 1.0513 0.6321 0.3252
C23 C 1.2404(5) 0.7691(3) 0.4710(3)
H20 H 1.3173 0.7234 0.4579
H21 H 1.2586 0.8115 0.5561
C24 C 1.2687(5) 0.8724(3) 0.4232(4)
H22 H 1.2587 0.8314 0.3402
H23 H 1.3750 0.9351 0.4664
H24 H 1.1901 0.9155 0.4332
Cl3 Cl 1.16295(17) 1.24088(14) 0.06070(14)
Cl4 Cl 0.95299(10) 1.25602(8) -0.16597(7)
O5 O 0.4415(3) 0.5845(3) -0.28667(19)
O6 O 0.9322(2) 0.9053(2) 0.19098(19)
O7 O 0.6454(3) 0.4077(2) -0.1837(2)
O8 O 0.7636(4) 0.5090(3) 0.0158(2)
N3 N 0.9081(3) 0.7346(2) 0.0180(2)
N4 N 0.3878(3) 0.5787(2) -0.1229(2)
H25 H 0.2918 0.5260 -0.1656
C25 C 0.8820(4) 1.0774(3) 0.0432(3)
H26 H 0.9405 1.0800 0.1136
C26 C 0.9562(4) 1.1533(3) -0.0063(3)
C27 C 0.8681(4) 1.1518(3) -0.1101(3)
C28 C 0.7087(4) 1.0699(3) -0.1676(3)
H27 H 0.6491 1.0662 -0.2411
C29 C 0.6366(4) 0.9930(3) -0.1171(3)
H28 H 0.5301 0.9380 -0.1553
C30 C 0.7214(4) 0.9975(3) -0.0111(3)
C31 C 0.6390(4) 0.9173(3) 0.0447(3)
H29 H 0.5233 0.8946 0.0121
H30 H 0.6690 0.9715 0.1295
C32 C 0.6765(3) 0.7914(3) 0.0275(2)
C33 C 0.6594(3) 0.7049(3) -0.1027(3)
H31 H 0.6950 0.7635 -0.1384
C34 C 0.4865(3) 0.6166(3) -0.1800(3)
C35 C 0.4283(3) 0.6181(3) 0.0011(3)
C36 C 0.3213(3) 0.5551(3) 0.0452(3)
H32 H 0.2289 0.4856 -0.0071
C37 C 0.3536(4) 0.5964(3) 0.1662(3)
H33 H 0.2814 0.5560 0.1957
C38 C 0.4935(4) 0.6984(3) 0.2445(3)
H34 H 0.5150 0.7263 0.3263
C39 C 0.6007(3) 0.7583(3) 0.2002(3)
H35 H 0.6951 0.8257 0.2528
C40 C 0.5691(3) 0.7191(3) 0.0779(3)
C41 C 0.8542(3) 0.8199(3) 0.0905(3)
C42 C 0.7868(3) 0.6373(3) -0.0916(3)
H36 H 0.8324 0.6272 -0.1573
C43 C 0.7214(4) 0.5035(3) -0.0928(3)
C44 C 0.7219(8) 0.3886(4) 0.0321(5)
H37 H 0.6627 0.3148 -0.0445
H38 H 0.8198 0.3752 0.0652
C45 C 0.6272(9) 0.3970(7) 0.1090(8)
H39 H 0.6692 0.4825 0.1739
H40 H 0.6299 0.3335 0.1396
H41 H 0.5179 0.3808 0.0661
C46 C 1.0706(4) 0.7285(3) 0.0550(3)
H42 H 1.0786 0.6513 -0.0042
H43 H 1.0883 0.7213 0.1298
C47 C 1.2008(4) 0.8480(3) 0.0700(3)
H44 H 1.1931 0.9250 0.1297
H45 H 1.3059 0.8420 0.0987
C48 C 1.1879(4) 0.8632(4) -0.0447(3)
H46 H 1.1984 0.7884 -0.1036
H47 H 1.2723 0.9400 -0.0302
H48 H 1.0850 0.8708 -0.0729
Cl5? Cl 0.5951(2) 1.05753(19) -0.30329(17)
H49? H 1.0677 1.2067 0.0310
loop_
_geom_bond_atom_site_label_1
_geom_bond_atom_site_label_2
_geom_bond_site_symmetry_1
_geom_bond_site_symmetry_2
Cl1 C2 1_555 1_555
Cl2 C3 1_555 1_555
O1 C10 1_555 1_555
O2 C17 1_555 1_555
O3 C19 1_555 1_555
O4 C19 1_555 1_555
N1 C17 1_555 1_555
N2 H1 1_555 1_555
C1 H2 1_555 1_555
C2 C1 1_555 1_555
C3 C2 1_555 1_555
C4 C3 1_555 1_555
H3 C4 1_555 1_555
C5 C4 1_555 1_555
H4 C5 1_555 1_555
C6 C1 1_555 1_555
C7 C6 1_555 1_555
H5 C7 1_555 1_555
H6 C7 1_555 1_555
C8 C7 1_555 1_555
C9 C8 1_555 1_555
H7 C9 1_555 1_555
C10 N2 1_555 1_555
C11 N2 1_555 1_555
C12 C11 1_555 1_555
H8 C12 1_555 1_555
C13 C12 1_555 1_555
H9 C13 1_555 1_555
C14 C13 1_555 1_555
H10 C14 1_555 1_555
C15 C14 1_555 1_555
H11 C15 1_555 1_555
C16 C8 1_555 1_555
C17 C8 1_555 1_555
C18 N1 1_555 1_555
H12 C18 1_555 1_555
C19 C18 1_555 1_555
C20 O4 1_555 1_555
H13 C20 1_555 1_555
H14 C20 1_555 1_555
C21 C20 1_555 1_555
H15 C21 1_555 1_555
H16 C21 1_555 1_555
H17 C21 1_555 1_555
C22 N1 1_555 1_555
H18 C22 1_555 1_555
H19 C22 1_555 1_555
C23 C22 1_555 1_555
H20 C23 1_555 1_555
H21 C23 1_555 1_555
C24 C23 1_555 1_555
H22 C24 1_555 1_555
H23 C24 1_555 1_555
H24 C24 1_555 1_555
Cl3 C26 1_555 1_555
Cl4 C27 1_555 1_555
O5 C34 1_555 1_555
O6 C41 1_555 1_555
O7 C43 1_555 1_555
O8 C43 1_555 1_555
N3 C41 1_555 1_555
N4 H25 1_555 1_555
C25 H26 1_555 1_555
C26 C25 1_555 1_555
C27 C26 1_555 1_555
C28 C27 1_555 1_555
H27 C28 1_555 1_555
C29 C28 1_555 1_555
H28 C29 1_555 1_555
C30 C25 1_555 1_555
C31 C30 1_555 1_555
H29 C31 1_555 1_555
H30 C31 1_555 1_555
C32 C31 1_555 1_555
C33 C32 1_555 1_555
H31 C33 1_555 1_555
C34 N4 1_555 1_555
C35 N4 1_555 1_555
C36 C35 1_555 1_555
H32 C36 1_555 1_555
C37 C36 1_555 1_555
H33 C37 1_555 1_555
C38 C37 1_555 1_555
H34 C38 1_555 1_555
C39 C38 1_555 1_555
H35 C39 1_555 1_555
C40 C32 1_555 1_555
C41 C32 1_555 1_555
C42 N3 1_555 1_555
H36 C42 1_555 1_555
C43 C42 1_555 1_555
C44 O8 1_555 1_555
H37 C44 1_555 1_555
H38 C44 1_555 1_555
C45 C44 1_555 1_555
H39 C45 1_555 1_555
H40 C45 1_555 1_555
H41 C45 1_555 1_555
C46 N3 1_555 1_555
H42 C46 1_555 1_555
H43 C46 1_555 1_555
C47 C46 1_555 1_555
H44 C47 1_555 1_555
H45 C47 1_555 1_555
C48 C47 1_555 1_555
H46 C48 1_555 1_555
H47 C48 1_555 1_555
H48 C48 1_555 1_555
C5 C6 1_555 1_555
C9 C10 1_555 1_555
C9 C18 1_555 1_555
C11 C16 1_555 1_555
C15 C16 1_555 1_555
C29 C30 1_555 1_555
C33 C34 1_555 1_555
C33 C42 1_555 1_555
C35 C40 1_555 1_555
C39 C40 1_555 1_555

#END
