
#######################################################################
#
#                 Cambridge Crystallographic Data Centre
#                                CCDC 
#
#######################################################################
#
# If this CIF has been generated from an entry in the Cambridge 
# Structural Database, then it will include bibliographic, chemical, 
# crystal, experimental, refinement or atomic coordinate data resulting 
# from the CCDC's data processing and validation procedures.
#
#######################################################################

data_REYFEJ
_chemical_formula_moiety         'C23 H28 N2 O2'
_chemical_name_systematic        
't-butyl {2-[4-(dimethylamino)phenyl]-1,2-dihydronaphthalen-1-yl}carbamate'
_symmetry_cell_setting           monoclinic
_symmetry_space_group_name_H-M   'P 21'
_symmetry_Int_Tables_number      4
_space_group_name_Hall           'P 2yb'
loop_
_symmetry_equiv_pos_site_id
_symmetry_equiv_pos_as_xyz
1 x,y,z
2 -x,1/2+y,-z
_cell_length_a                   9.9707(2)
_cell_length_b                   9.7555(2)
_cell_length_c                   10.8203(2)
_cell_angle_alpha                90
_cell_angle_beta                 107.7860(10)
_cell_angle_gamma                90
_cell_volume                     1002.18
_exptl_crystal_colour            colorless
_exptl_crystal_description       prism
_cell_formula_units_Z            2
loop_
_atom_site_label
_atom_site_type_symbol
_atom_site_fract_x
_atom_site_fract_y
_atom_site_fract_z
O1 O 0.95102(13) 1.11206(14) 0.75691(12)
O2 O 0.86190(14) 0.90734(16) 0.79826(12)
N1 N 1.41656(17) 0.6706(2) 0.79857(18)
N2 N 0.83216(15) 0.98200(17) 0.59273(14)
H1 H 0.8389 1.0532 0.5450
C1 C 1.4323(2) 0.5803(4) 0.9075(2)
H2 H 1.3868 0.6212 0.9672
H3 H 1.5326 0.5663 0.9528
H4 H 1.3880 0.4919 0.8765
C2 C 1.2826(2) 0.6983(2) 0.71556(19)
C3 C 1.1625(2) 0.6343(2) 0.73116(19)
H5 H 1.1728 0.5703 0.7996
C4 C 1.02939(19) 0.6632(2) 0.64809(18)
H6 H 0.9502 0.6188 0.6615
C5 C 1.00818(19) 0.7553(2) 0.54575(17)
C6 C 0.86253(18) 0.7889(2) 0.45620(17)
H7 H 0.8739 0.8562 0.3904
C7 C 0.76933(18) 0.8566(2) 0.52950(17)
H8 H 0.7661 0.7916 0.6000
C8 C 0.88081(17) 0.9923(2) 0.72372(17)
C9 C 1.03162(19) 1.1388(2) 0.89390(17)
C10 C 0.9334(2) 1.1478(2) 0.97664(19)
H9 H 0.8568 1.2120 0.9367
H10 H 0.9860 1.1803 1.0637
H11 H 0.8940 1.0570 0.9830
C11 C 1.5312(2) 0.7625(3) 0.8007(3)
H12 H 1.5391 0.7710 0.7130
H13 H 1.6194 0.7259 0.8591
H14 H 1.5127 0.8529 0.8316
C12 C 1.26212(19) 0.7890(2) 0.6110(2)
H15 H 1.3410 0.8327 0.5963
C13 C 1.1277(2) 0.8155(2) 0.5287(2)
H16 H 1.1170 0.8769 0.4582
C14 C 0.78772(19) 0.6641(2) 0.38360(17)
H17 H 0.8420 0.5883 0.3710
C15 C 0.64811(19) 0.6579(2) 0.33712(18)
H18 H 0.6053 0.5780 0.2917
C16 C 0.55874(19) 0.7705(2) 0.35386(17)
C17 C 0.61771(19) 0.8751(2) 0.44309(18)
C18 C 0.53499(19) 0.9840(2) 0.45729(18)
H19 H 0.5746 1.0546 0.5179
C19 C 0.3930(2) 0.9908(3) 0.3827(2)
H20 H 0.3371 1.0667 0.3917
C20 C 0.33424(19) 0.8873(3) 0.29635(19)
H21 H 0.2376 0.8913 0.2468
C21 C 0.4162(2) 0.7777(2) 0.28188(19)
H22 H 0.3751 0.7066 0.2224
C22 C 1.0983(2) 1.2777(2) 0.88723(18)
H23 H 1.1642 1.2697 0.8365
H24 H 1.1490 1.3088 0.9752
H25 H 1.0245 1.3441 0.8456
C23 C 1.1437(2) 1.0292(2) 0.9409(2)
H26 H 1.0984 0.9400 0.9410
H27 H 1.2026 1.0512 1.0292
H28 H 1.2023 1.0255 0.8830
loop_
_geom_bond_atom_site_label_1
_geom_bond_atom_site_label_2
_geom_bond_site_symmetry_1
_geom_bond_site_symmetry_2
O1 C8 1_555 1_555
O2 C8 1_555 1_555
N1 C1 1_555 1_555
N2 H1 1_555 1_555
C1 H2 1_555 1_555
H3 C1 1_555 1_555
H4 C1 1_555 1_555
C2 N1 1_555 1_555
C3 C2 1_555 1_555
H5 C3 1_555 1_555
C4 C3 1_555 1_555
H6 C4 1_555 1_555
C5 C4 1_555 1_555
C6 C5 1_555 1_555
H7 C6 1_555 1_555
C7 N2 1_555 1_555
H8 C7 1_555 1_555
C8 N2 1_555 1_555
C9 O1 1_555 1_555
C10 C9 1_555 1_555
H9 C10 1_555 1_555
H10 C10 1_555 1_555
H11 C10 1_555 1_555
C11 N1 1_555 1_555
H12 C11 1_555 1_555
H13 C11 1_555 1_555
H14 C11 1_555 1_555
C12 C2 1_555 1_555
H15 C12 1_555 1_555
C13 C5 1_555 1_555
H16 C13 1_555 1_555
C14 C6 1_555 1_555
H17 C14 1_555 1_555
C15 C14 1_555 1_555
H18 C15 1_555 1_555
C16 C15 1_555 1_555
C17 C7 1_555 1_555
C18 C17 1_555 1_555
H19 C18 1_555 1_555
C19 C18 1_555 1_555
H20 C19 1_555 1_555
C20 C19 1_555 1_555
H21 C20 1_555 1_555
C21 C16 1_555 1_555
H22 C21 1_555 1_555
C22 C9 1_555 1_555
H23 C22 1_555 1_555
H24 C22 1_555 1_555
H25 C22 1_555 1_555
C23 C9 1_555 1_555
H26 C23 1_555 1_555
H27 C23 1_555 1_555
H28 C23 1_555 1_555
C6 C7 1_555 1_555
C12 C13 1_555 1_555
C16 C17 1_555 1_555
C20 C21 1_555 1_555

#END
