
#######################################################################
#
#                 Cambridge Crystallographic Data Centre
#                                CCDC 
#
#######################################################################
#
# If this CIF has been generated from an entry in the Cambridge 
# Structural Database, then it will include bibliographic, chemical, 
# crystal, experimental, refinement or atomic coordinate data resulting 
# from the CCDC's data processing and validation procedures.
#
#######################################################################

data_REYGEK
_chemical_formula_moiety         'C17 H15 N1 O2 S2'
_chemical_name_systematic        
'methyl (6H,12H-6,12-epiminodibenzo[b,f][1,5]dithiocin-13-yl)acetate'
_symmetry_cell_setting           monoclinic
_symmetry_space_group_name_H-M   'P 21/n'
_symmetry_Int_Tables_number      14
_space_group_name_Hall           '-P 2yn'
loop_
_symmetry_equiv_pos_site_id
_symmetry_equiv_pos_as_xyz
1 x,y,z
2 1/2-x,1/2+y,1/2-z
3 -x,-y,-z
4 1/2+x,1/2-y,1/2+z
_cell_length_a                   15.2896(5)
_cell_length_b                   7.1208(2)
_cell_length_c                   15.8248(5)
_cell_angle_alpha                90
_cell_angle_beta                 118.3190(10)
_cell_angle_gamma                90
_cell_volume                     1516.71
_exptl_crystal_colour            colorless
_exptl_crystal_description       plate
_cell_formula_units_Z            4
loop_
_atom_site_label
_atom_site_type_symbol
_atom_site_fract_x
_atom_site_fract_y
_atom_site_fract_z
S1 S 0.56561(2) 0.56911(4) 0.30686(2)
S2 S 0.77077(2) 0.14102(4) 0.47512(2)
N1 N 0.58219(7) 0.25162(13) 0.41527(7)
O1 O 0.50715(7) -0.11304(13) 0.41831(7)
O2 O 0.35139(6) -0.00696(14) 0.32802(7)
C1 C 0.78632(8) 0.36940(15) 0.52130(8)
C2 C 0.88323(8) 0.41836(17) 0.58994(8)
H1 H 0.936020 0.331329 0.606802
C3 C 0.90194(9) 0.59347(18) 0.63311(9)
H2 H 0.967520 0.625941 0.679859
C4 C 0.82514(9) 0.72190(17) 0.60830(9)
H3 H 0.838132 0.842053 0.637887
C5 C 0.72925(9) 0.67377(16) 0.54001(8)
H4 H 0.677036 0.762284 0.522809
C6 C 0.70842(8) 0.49689(15) 0.49618(8)
C7 C 0.60239(8) 0.45082(15) 0.42435(8)
H5 H 0.559827 0.506553 0.450169
C8 C 0.60014(9) 0.39567(17) 0.24856(8)
C9 C 0.58983(10) 0.4431(2) 0.15810(9)
H6 H 0.568147 0.565352 0.132789
C10 C 0.61114(11) 0.3123(2) 0.10564(10)
H7 H 0.602933 0.344696 0.044065
C11 C 0.64432(10) 0.1346(2) 0.14242(10)
H8 H 0.659867 0.045761 0.106737
C12 C 0.65471(9) 0.0872(2) 0.23170(9)
H9 H 0.677563 -0.034779 0.256841
C13 C 0.63213(8) 0.21574(17) 0.28547(8)
C14 C 0.64178(8) 0.14934(15) 0.38037(8)
H10 H 0.617227 0.016809 0.369974
C15 C 0.47623(8) 0.21036(16) 0.36093(8)
H11 H 0.453994 0.231613 0.291880
H12 H 0.439469 0.298823 0.380842
C16 C 0.45024(8) 0.01116(17) 0.37451(8)
C17 C 0.31405(10) -0.1921(2) 0.33180(10)
H13 H 0.339219 -0.283516 0.302293
H14 H 0.241270 -0.190969 0.296797
H15 H 0.336413 -0.226958 0.398852
loop_
_geom_bond_atom_site_label_1
_geom_bond_atom_site_label_2
_geom_bond_site_symmetry_1
_geom_bond_site_symmetry_2
S1 C7 1_555 1_555
S2 C1 1_555 1_555
N1 C7 1_555 1_555
O1 C16 1_555 1_555
O2 C16 1_555 1_555
C1 C2 1_555 1_555
C2 H1 1_555 1_555
C3 C2 1_555 1_555
H2 C3 1_555 1_555
C4 C3 1_555 1_555
H3 C4 1_555 1_555
C5 C4 1_555 1_555
H4 C5 1_555 1_555
C6 C1 1_555 1_555
C7 C6 1_555 1_555
H5 C7 1_555 1_555
C8 S1 1_555 1_555
C9 C8 1_555 1_555
H6 C9 1_555 1_555
C10 C9 1_555 1_555
H7 C10 1_555 1_555
C11 C10 1_555 1_555
H8 C11 1_555 1_555
C12 C11 1_555 1_555
H9 C12 1_555 1_555
C13 C8 1_555 1_555
C14 S2 1_555 1_555
H10 C14 1_555 1_555
C15 N1 1_555 1_555
H11 C15 1_555 1_555
H12 C15 1_555 1_555
C16 C15 1_555 1_555
C17 O2 1_555 1_555
H13 C17 1_555 1_555
H14 C17 1_555 1_555
H15 C17 1_555 1_555
N1 C14 1_555 1_555
C5 C6 1_555 1_555
C12 C13 1_555 1_555
C13 C14 1_555 1_555

#END
