
#######################################################################
#
#                 Cambridge Crystallographic Data Centre
#                                CCDC 
#
#######################################################################
#
# If this CIF has been generated from an entry in the Cambridge 
# Structural Database, then it will include bibliographic, chemical, 
# crystal, experimental, refinement or atomic coordinate data resulting 
# from the CCDC's data processing and validation procedures.
#
#######################################################################

data_REYMAL
_chemical_formula_moiety         'C192 H240 N24 O12,12(H2 O1)'
_chemical_name_systematic        
'4^5^,10^5^,16^5^,22^5^,28^5^,34^5^,40^5^,46^5^-Octa-t-butyl-4^2^,10^2^,16^2^,22^2^,28^2^,34^2^,40^2^,46^2^-octahydroxy-1^5^,31^5^:7^5^,25^5^:13^5^,43^5^:19^5^,37^5^-tetrakis(5-t-butyl-2-hydroxy-1,3-phenylenedimethylenediamino)-2,6,8,12,14,18,20,24,26,30,32,36,38,42,44,48-hexadeca-aza-4,10,16,22,28,34,40,46(1,3)-octabenzena-1,7,13,19,25,31,37,43(1,3,5)-octacyclohexanaoctatetracontaphane-2,5,8,11,14,17,20,23,26,29,32,35,38,41,44,47-hexadecaene dodecahydrate unknown solvate'
_symmetry_cell_setting           tetragonal
_symmetry_space_group_name_H-M   'P -4 21 c'
_symmetry_Int_Tables_number      114
_space_group_name_Hall           'P -4 2n'
loop_
_symmetry_equiv_pos_site_id
_symmetry_equiv_pos_as_xyz
1 x,y,z
2 -x,-y,z
3 y,-x,-z
4 -y,x,-z
5 1/2-x,1/2+y,1/2-z
6 1/2+x,1/2-y,1/2-z
7 1/2-y,1/2-x,1/2+z
8 1/2+y,1/2+x,1/2+z
_cell_length_a                   25.7826(5)
_cell_length_b                   25.7826(5)
_cell_length_c                   25.6888(7)
_cell_angle_alpha                90
_cell_angle_beta                 90
_cell_angle_gamma                90
_cell_volume                     17076.4
_exptl_crystal_colour            yellow
_exptl_crystal_description       prism
_cell_formula_units_Z            2
loop_
_atom_site_label
_atom_site_type_symbol
_atom_site_fract_x
_atom_site_fract_y
_atom_site_fract_z
O4 O 0.3542(3) 0.5827(2) 0.8423(3)
O5 O 0.6740(3) 0.52644(19) 0.8566(4)
O6 O 0.5433(5) 0.7107(3) 1.0857(4)
C1 C 0.2124(3) 0.6044(3) 0.7474(3)
H1 H 0.1840 0.6121 0.7220
C2 C 0.2311(3) 0.5509(2) 0.7372(3)
H2 H 0.2413 0.5485 0.7001
H3 H 0.2627 0.5450 0.7583
C3 C 0.1947(3) 0.5099(3) 0.7482(3)
H4 H 0.1648 0.5128 0.7236
C4 C 0.1748(3) 0.5121(3) 0.8025(4)
H5 H 0.2035 0.5039 0.8268
H6 H 0.1477 0.4853 0.8069
C5 C 0.1504(3) 0.5692(3) 0.8177(4)
H7 H 0.1178 0.5746 0.7973
C6 C 0.1907(3) 0.6118(3) 0.8018(3)
H8 H 0.1738 0.6463 0.8039
H9 H 0.2197 0.6115 0.8271
C7 C 0.2466(3) 0.6776(3) 0.7092(3)
H10 H 0.2143 0.6807 0.6916
C8 C 0.28771(16) 0.71734(19) 0.6991(2)
C9 C 0.33461(18) 0.7158(2) 0.72578(18)
C10 C 0.37218(15) 0.7533(2) 0.71623(19)
C11 C 0.36287(19) 0.79228(19) 0.6800(2)
H11 H 0.3886 0.8179 0.6735
C12 C 0.3160(2) 0.79378(18) 0.65337(18)
C13 C 0.27840(16) 0.7563(2) 0.66293(19)
H12 H 0.2463 0.7573 0.6447
C14 C 0.3056(3) 0.8398(3) 0.6112(3)
C15 C 0.3255(3) 0.8873(3) 0.6346(4)
H13 H 0.3621 0.8826 0.6437
H14 H 0.3056 0.8953 0.6661
H15 H 0.3222 0.9159 0.6098
C16 C 0.3401(3) 0.8173(3) 0.5620(3)
H16 H 0.3250 0.7846 0.5499
H17 H 0.3758 0.8114 0.5734
H18 H 0.3398 0.8426 0.5335
C17 C 0.2494(3) 0.8382(4) 0.5966(4)
H19 H 0.2408 0.8037 0.5831
H20 H 0.2425 0.8643 0.5697
H21 H 0.2281 0.8455 0.6273
C18 C 0.4203(3) 0.7534(3) 0.7456(3)
H22 H 0.4242 0.7253 0.7692
C19 C 0.4996(3) 0.7725(4) 0.7756(3)
H23 H 0.4939 0.7428 0.7999
C20 C 0.5491(3) 0.7638(3) 0.7441(3)
H24 H 0.5440 0.7343 0.7200
H25 H 0.5567 0.7951 0.7230
C21 C 0.5944(2) 0.7526(3) 0.7801(3)
H26 H 0.5871 0.7212 0.8018
C22 C 0.6032(3) 0.8001(3) 0.8150(3)
H27 H 0.6336 0.7942 0.8378
H28 H 0.6103 0.8309 0.7932
C23 C 0.5578(3) 0.8091(3) 0.8463(3)
H29 H 0.5488 0.7772 0.8665
C24 C 0.5094(3) 0.8261(4) 0.8092(3)
H30 H 0.5189 0.8554 0.7862
H31 H 0.4785 0.8356 0.8300
C25 C 0.5642(3) 0.8470(4) 0.9329(4)
H32 H 0.5608 0.8129 0.9465
C26 C 0.5697(2) 0.8909(2) 0.9679(3)
C27 C 0.5716(2) 0.87893(19) 1.0206(3)
C28 C 0.5805(2) 0.9179(3) 1.0569(2)
C29 C 0.5873(3) 0.9688(2) 1.0405(3)
H33 H 0.5934 0.9954 1.0654
C30 C 0.5854(2) 0.98076(18) 0.9878(3)
C31 C 0.5766(2) 0.9418(3) 0.9515(2)
H34 H 0.5752 0.9500 0.9155
C32 C 0.5919(5) 1.0362(4) 0.9667(5)
C33 C 0.5809(8) 1.0547(5) 0.9146(6)
H35 H 0.5883 1.0919 0.9126
H36 H 0.5443 1.0486 0.9065
H37 H 0.6027 1.0361 0.8896
C34 C 0.6547(4) 1.0490(4) 0.9815(5)
H38 H 0.6635 1.0841 0.9700
H39 H 0.6772 1.0239 0.9638
H40 H 0.6597 1.0463 1.0192
C35 C 0.5657(4) 1.0767(3) 1.0097(5)
H41 H 0.5688 1.1124 0.9969
H42 H 0.5838 1.0735 1.0430
H43 H 0.5289 1.0681 1.0145
C36 C 0.6676(3) 0.7027(3) 0.7544(3)
H44 H 0.6561 0.6797 0.7809
C37 C 0.71222(17) 0.6876(2) 0.7231(2)
C38 C 0.7347(2) 0.63921(19) 0.7310(2)
C39 C 0.7778(2) 0.62449(16) 0.7020(2)
C40 C 0.79832(19) 0.6581(2) 0.6651(2)
H45 H 0.8277 0.6481 0.6452
C41 C 0.7758(2) 0.70648(19) 0.65718(18)
C42 C 0.7328(2) 0.72121(16) 0.6862(2)
H46 H 0.7174 0.7543 0.6808
C43 C 0.7990(4) 0.7429(3) 0.6129(4)
C44 C 0.7618(5) 0.7928(3) 0.6122(3)
H47 H 0.7261 0.7819 0.6052
H48 H 0.7733 0.8168 0.5849
H49 H 0.7634 0.8103 0.6461
C45 C 0.8559(4) 0.7519(4) 0.6209(4)
H50 H 0.8740 0.7184 0.6218
H51 H 0.8614 0.7701 0.6539
H52 H 0.8695 0.7729 0.5922
C46 C 0.7935(5) 0.7177(3) 0.5632(3)
H53 H 0.7568 0.7105 0.5566
H54 H 0.8130 0.6851 0.5634
H55 H 0.8071 0.7404 0.5358
C47 C 0.0916(4) 0.5786(3) 0.8853(4)
H56 H 0.0648 0.5843 0.8606
C48 C 0.1950(3) 0.4221(3) 0.7080(3)
H57 H 0.1643 0.4295 0.6890
N1 N 0.25317(19) 0.6415(2) 0.7391(3)
N2 N 0.1377(3) 0.5689(2) 0.8722(3)
N3 N 0.2164(2) 0.4574(2) 0.7444(3)
N4 N 0.4533(3) 0.7813(3) 0.7448(3)
N5 N 0.6434(2) 0.7447(3) 0.7482(2)
N6 N 0.5639(3) 0.8546(3) 0.8825(4)
O1 O 0.34615(16) 0.67687(19) 0.7593(2)
H58 H 0.3210 0.6561 0.7595
O2 O 0.56376(19) 0.82674(19) 1.0338(2)
H59 H 0.5472 0.8247 1.0618
O3 O 0.71379(17) 0.60955(18) 0.76917(19)
H60 H 0.7321 0.5827 0.7712
C1A C 0.7876(3) 0.3956(3) 0.7474(3)
H1A H 0.8160 0.3879 0.7220
C2A C 0.7689(3) 0.4491(2) 0.7372(3)
H2A H 0.7587 0.4515 0.7001
H3A H 0.7373 0.4550 0.7583
C3A C 0.8053(3) 0.4901(3) 0.7482(3)
H4A H 0.8352 0.4872 0.7236
C4A C 0.8252(3) 0.4879(3) 0.8025(4)
H5A H 0.7965 0.4961 0.8268
H6A H 0.8523 0.5147 0.8069
C5A C 0.8496(3) 0.4308(3) 0.8177(4)
H7A H 0.8822 0.4254 0.7973
C6A C 0.8093(3) 0.3882(3) 0.8018(3)
H8A H 0.8262 0.3537 0.8039
H9A H 0.7803 0.3885 0.8271
C7A C 0.7534(3) 0.3224(3) 0.7092(3)
H10A H 0.7857 0.3193 0.6916
C8A C 0.71229(16) 0.28266(19) 0.6991(2)
C9A C 0.66539(18) 0.2842(2) 0.72578(18)
C10A C 0.62782(15) 0.2467(2) 0.71623(19)
C11A C 0.63713(19) 0.20772(19) 0.6800(2)
H11A H 0.6114 0.1821 0.6735
C12A C 0.6840(2) 0.20622(18) 0.65337(18)
C13A C 0.72160(16) 0.2437(2) 0.66293(19)
H12A H 0.7537 0.2427 0.6447
C14A C 0.6944(3) 0.1602(3) 0.6112(3)
C15A C 0.6745(3) 0.1127(3) 0.6346(4)
H13A H 0.6379 0.1174 0.6437
H14A H 0.6944 0.1047 0.6661
H15A H 0.6778 0.0841 0.6098
C16A C 0.6599(3) 0.1827(3) 0.5620(3)
H16A H 0.6750 0.2154 0.5499
H17A H 0.6242 0.1886 0.5734
H18A H 0.6602 0.1574 0.5335
C17A C 0.7506(3) 0.1618(4) 0.5966(4)
H19A H 0.7592 0.1963 0.5831
H20A H 0.7575 0.1357 0.5697
H21A H 0.7719 0.1545 0.6273
C18A C 0.5797(3) 0.2466(3) 0.7456(3)
H22A H 0.5758 0.2747 0.7692
C19A C 0.5004(3) 0.2275(4) 0.7756(3)
H23A H 0.5061 0.2572 0.7999
C20A C 0.4509(3) 0.2362(3) 0.7441(3)
H24A H 0.4560 0.2657 0.7200
H25A H 0.4433 0.2049 0.7230
C21A C 0.4056(2) 0.2474(3) 0.7801(3)
H26A H 0.4129 0.2788 0.8018
C22A C 0.3968(3) 0.1999(3) 0.8150(3)
H27A H 0.3664 0.2058 0.8378
H28A H 0.3897 0.1691 0.7932
C23A C 0.4422(3) 0.1909(3) 0.8463(3)
H29A H 0.4512 0.2228 0.8665
C24A C 0.4906(3) 0.1739(4) 0.8092(3)
H30A H 0.4811 0.1446 0.7862
H31A H 0.5215 0.1644 0.8300
C25A C 0.4358(3) 0.1530(4) 0.9329(4)
H32A H 0.4392 0.1871 0.9465
C26A C 0.4303(2) 0.1091(2) 0.9679(3)
C27A C 0.4284(2) 0.12107(19) 1.0206(3)
C28A C 0.4195(2) 0.0821(3) 1.0569(2)
C29A C 0.4127(3) 0.0312(2) 1.0405(3)
H33A H 0.4066 0.0046 1.0654
C30A C 0.4146(2) 0.01924(18) 0.9878(3)
C31A C 0.4234(2) 0.0582(3) 0.9515(2)
H34A H 0.4248 0.0500 0.9155
C32A C 0.4081(5) -0.0362(4) 0.9667(5)
C33A C 0.4191(8) -0.0547(5) 0.9146(6)
H35A H 0.4117 -0.0919 0.9126
H36A H 0.4557 -0.0486 0.9065
H37A H 0.3973 -0.0361 0.8896
C34A C 0.3453(4) -0.0490(4) 0.9815(5)
H38A H 0.3365 -0.0841 0.9700
H39A H 0.3228 -0.0239 0.9638
H40A H 0.3403 -0.0463 1.0192
C35A C 0.4343(4) -0.0767(3) 1.0097(5)
H41A H 0.4312 -0.1124 0.9969
H42A H 0.4162 -0.0735 1.0430
H43A H 0.4711 -0.0681 1.0145
C36A C 0.3324(3) 0.2973(3) 0.7544(3)
H44A H 0.3439 0.3203 0.7809
C37A C 0.28778(17) 0.3124(2) 0.7231(2)
C38A C 0.2653(2) 0.36079(19) 0.7310(2)
C39A C 0.2222(2) 0.37551(16) 0.7020(2)
C40A C 0.20168(19) 0.3419(2) 0.6651(2)
H45A H 0.1723 0.3519 0.6452
C41A C 0.2242(2) 0.29352(19) 0.65718(18)
C42A C 0.2672(2) 0.27879(16) 0.6862(2)
H46A H 0.2826 0.2457 0.6808
C43A C 0.2010(4) 0.2571(3) 0.6129(4)
C44A C 0.2382(5) 0.2072(3) 0.6122(3)
H47A H 0.2739 0.2181 0.6052
H48A H 0.2267 0.1832 0.5849
H49A H 0.2366 0.1897 0.6461
C45A C 0.1441(4) 0.2481(4) 0.6209(4)
H50A H 0.1260 0.2816 0.6218
H51A H 0.1386 0.2299 0.6539
H52A H 0.1305 0.2271 0.5922
C46A C 0.2065(5) 0.2823(3) 0.5632(3)
H53A H 0.2432 0.2895 0.5566
H54A H 0.1870 0.3149 0.5634
H55A H 0.1929 0.2596 0.5358
C47A C 0.9084(4) 0.4214(3) 0.8853(4)
H56A H 0.9352 0.4157 0.8606
C48A C 0.8050(3) 0.5779(3) 0.7080(3)
H57A H 0.8357 0.5705 0.6890
N1A N 0.74683(19) 0.3585(2) 0.7391(3)
N2A N 0.8623(3) 0.4311(2) 0.8722(3)
N3A N 0.7836(2) 0.5426(2) 0.7444(3)
N4A N 0.5467(3) 0.2187(3) 0.7448(3)
N5A N 0.3566(2) 0.2553(3) 0.7482(2)
N6A N 0.4361(3) 0.1454(3) 0.8825(4)
O1A O 0.65385(16) 0.32313(19) 0.7593(2)
H58A H 0.6790 0.3439 0.7595
O2A O 0.43624(19) 0.17326(19) 1.0338(2)
H59A H 0.4528 0.1753 1.0618
O3A O 0.28621(17) 0.39045(18) 0.76917(19)
H60A H 0.2679 0.4173 0.7712
C1B C 0.6044(3) 0.7876(3) 1.2526(3)
H1B H 0.6121 0.8160 1.2780
C2B C 0.5509(2) 0.7689(3) 1.2628(3)
H2B H 0.5485 0.7587 1.2999
H3B H 0.5450 0.7373 1.2417
C3B C 0.5099(3) 0.8053(3) 1.2518(3)
H4B H 0.5128 0.8352 1.2764
C4B C 0.5121(3) 0.8252(3) 1.1975(4)
H5B H 0.5039 0.7965 1.1732
H6B H 0.4853 0.8523 1.1931
C5B C 0.5692(3) 0.8496(3) 1.1823(4)
H7B H 0.5746 0.8822 1.2027
C6B C 0.6118(3) 0.8093(3) 1.1982(3)
H8B H 0.6463 0.8262 1.1961
H9B H 0.6115 0.7803 1.1729
C7B C 0.6776(3) 0.7534(3) 1.2908(3)
H10B H 0.6807 0.7857 1.3084
C8B C 0.71734(19) 0.71229(16) 1.3009(2)
C9B C 0.7158(2) 0.66539(18) 1.27422(18)
C10B C 0.7533(2) 0.62782(15) 1.28377(19)
C11B C 0.79228(19) 0.63713(19) 1.3200(2)
H11B H 0.8179 0.6114 1.3265
C12B C 0.79378(18) 0.6840(2) 1.34663(18)
C13B C 0.7563(2) 0.72160(16) 1.33707(19)
H12B H 0.7573 0.7537 1.3553
C14B C 0.8398(3) 0.6944(3) 1.3888(3)
C15B C 0.8873(3) 0.6745(3) 1.3654(4)
H13B H 0.8826 0.6379 1.3563
H14B H 0.8953 0.6944 1.3339
H15B H 0.9159 0.6778 1.3902
C16B C 0.8173(3) 0.6599(3) 1.4380(3)
H16B H 0.7846 0.6750 1.4501
H17B H 0.8114 0.6242 1.4266
H18B H 0.8426 0.6602 1.4665
C17B C 0.8382(4) 0.7506(3) 1.4034(4)
H19B H 0.8037 0.7592 1.4169
H20B H 0.8643 0.7575 1.4303
H21B H 0.8455 0.7719 1.3727
C18B C 0.7534(3) 0.5797(3) 1.2544(3)
H22B H 0.7253 0.5758 1.2308
C19B C 0.7725(4) 0.5004(3) 1.2244(3)
H23B H 0.7428 0.5061 1.2001
C20B C 0.7638(3) 0.4509(3) 1.2559(3)
H24B H 0.7343 0.4560 1.2800
H25B H 0.7951 0.4433 1.2770
C21B C 0.7526(3) 0.4056(2) 1.2199(3)
H26B H 0.7212 0.4129 1.1982
C22B C 0.8001(3) 0.3968(3) 1.1850(3)
H27B H 0.7942 0.3664 1.1622
H28B H 0.8309 0.3897 1.2068
C23B C 0.8091(3) 0.4422(3) 1.1537(3)
H29B H 0.7772 0.4512 1.1335
C24B C 0.8261(4) 0.4906(3) 1.1908(3)
H30B H 0.8554 0.4811 1.2138
H31B H 0.8356 0.5215 1.1700
C25B C 0.8470(4) 0.4358(3) 1.0671(4)
H32B H 0.8129 0.4392 1.0535
C26B C 0.8909(2) 0.4303(2) 1.0321(3)
C27B C 0.87893(19) 0.4284(2) 0.9794(3)
C28B C 0.9179(3) 0.4195(2) 0.9431(2)
C29B C 0.9688(2) 0.4127(3) 0.9595(3)
H33B H 0.9954 0.4066 0.9346
C30B C 0.98076(18) 0.4146(2) 1.0122(3)
C31B C 0.9418(3) 0.4234(2) 1.0485(2)
H34B H 0.9500 0.4248 1.0845
C32B C 1.0362(4) 0.4081(5) 1.0333(5)
C33B C 1.0547(5) 0.4191(8) 1.0854(6)
H35B H 1.0919 0.4117 1.0874
H36B H 1.0486 0.4557 1.0935
H37B H 1.0361 0.3973 1.1104
C34B C 1.0490(4) 0.3453(4) 1.0185(5)
H38B H 1.0841 0.3365 1.0300
H39B H 1.0239 0.3228 1.0362
H40B H 1.0463 0.3403 0.9808
C35B C 1.0767(3) 0.4343(4) 0.9903(5)
H41B H 1.1124 0.4312 1.0031
H42B H 1.0735 0.4162 0.9570
H43B H 1.0681 0.4711 0.9855
C36B C 0.7027(3) 0.3324(3) 1.2456(3)
H44B H 0.6797 0.3439 1.2191
C37B C 0.6876(2) 0.28778(17) 1.2769(2)
C38B C 0.63921(19) 0.2653(2) 1.2690(2)
C39B C 0.62449(16) 0.2222(2) 1.2980(2)
C40B C 0.6581(2) 0.20168(19) 1.3349(2)
H45B H 0.6481 0.1723 1.3548
C41B C 0.70648(19) 0.2242(2) 1.34282(18)
C42B C 0.72121(16) 0.2672(2) 1.3138(2)
H46B H 0.7543 0.2826 1.3192
C43B C 0.7429(3) 0.2010(4) 1.3871(4)
C44B C 0.7928(3) 0.2382(5) 1.3878(3)
H47B H 0.7819 0.2739 1.3948
H48B H 0.8168 0.2267 1.4151
H49B H 0.8103 0.2366 1.3539
C45B C 0.7519(4) 0.1441(4) 1.3791(4)
H50B H 0.7184 0.1260 1.3782
H51B H 0.7701 0.1386 1.3461
H52B H 0.7729 0.1305 1.4078
C46B C 0.7177(3) 0.2065(5) 1.4368(3)
H53B H 0.7105 0.2432 1.4434
H54B H 0.6851 0.1870 1.4366
H55B H 0.7404 0.1929 1.4642
C47B C 0.5786(3) 0.9084(4) 1.1147(4)
H56B H 0.5843 0.9352 1.1394
C48B C 0.4221(3) 0.8050(3) 1.2920(3)
H57B H 0.4295 0.8357 1.3110
N1B N 0.6415(2) 0.74683(19) 1.2609(3)
N2B N 0.5689(2) 0.8623(3) 1.1278(3)
N3B N 0.4574(2) 0.7836(2) 1.2556(3)
N4B N 0.7813(3) 0.5467(3) 1.2552(3)
N5B N 0.7447(3) 0.3566(2) 1.2518(2)
N6B N 0.8546(3) 0.4361(3) 1.1175(4)
O1B O 0.67687(19) 0.65385(16) 1.2407(2)
H58B H 0.6561 0.6790 1.2405
O2B O 0.82674(19) 0.43624(19) 0.9662(2)
H59B H 0.8247 0.4528 0.9382
O3B O 0.60955(18) 0.28621(17) 1.23083(19)
H60B H 0.5827 0.2679 1.2288
C1C C 0.3956(3) 0.2124(3) 1.2526(3)
H1C H 0.3879 0.1840 1.2780
C2C C 0.4491(2) 0.2311(3) 1.2628(3)
H2C H 0.4515 0.2413 1.2999
H3C H 0.4550 0.2627 1.2417
C3C C 0.4901(3) 0.1947(3) 1.2518(3)
H4C H 0.4872 0.1648 1.2764
C4C C 0.4879(3) 0.1748(3) 1.1975(4)
H5C H 0.4961 0.2035 1.1732
H6C H 0.5147 0.1477 1.1931
C5C C 0.4308(3) 0.1504(3) 1.1823(4)
H7C H 0.4254 0.1178 1.2027
C6C C 0.3882(3) 0.1907(3) 1.1982(3)
H8C H 0.3537 0.1738 1.1961
H9C H 0.3885 0.2197 1.1729
C7C C 0.3224(3) 0.2466(3) 1.2908(3)
H10C H 0.3193 0.2143 1.3084
C8C C 0.28266(19) 0.28771(16) 1.3009(2)
C9C C 0.2842(2) 0.33461(18) 1.27422(18)
C10C C 0.2467(2) 0.37218(15) 1.28377(19)
C11C C 0.20772(19) 0.36287(19) 1.3200(2)
H11C H 0.1821 0.3886 1.3265
C12C C 0.20622(18) 0.3160(2) 1.34663(18)
C13C C 0.2437(2) 0.27840(16) 1.33707(19)
H12C H 0.2427 0.2463 1.3553
C14C C 0.1602(3) 0.3056(3) 1.3888(3)
C15C C 0.1127(3) 0.3255(3) 1.3654(4)
H13C H 0.1174 0.3621 1.3563
H14C H 0.1047 0.3056 1.3339
H15C H 0.0841 0.3222 1.3902
C16C C 0.1827(3) 0.3401(3) 1.4380(3)
H16C H 0.2154 0.3250 1.4501
H17C H 0.1886 0.3758 1.4266
H18C H 0.1574 0.3398 1.4665
C17C C 0.1618(4) 0.2494(3) 1.4034(4)
H19C H 0.1963 0.2408 1.4169
H20C H 0.1357 0.2425 1.4303
H21C H 0.1545 0.2281 1.3727
C18C C 0.2466(3) 0.4203(3) 1.2544(3)
H22C H 0.2747 0.4242 1.2308
C19C C 0.2275(4) 0.4996(3) 1.2244(3)
H23C H 0.2572 0.4939 1.2001
C20C C 0.2362(3) 0.5491(3) 1.2559(3)
H24C H 0.2657 0.5440 1.2800
H25C H 0.2049 0.5567 1.2770
C21C C 0.2474(3) 0.5944(2) 1.2199(3)
H26C H 0.2788 0.5871 1.1982
C22C C 0.1999(3) 0.6032(3) 1.1850(3)
H27C H 0.2058 0.6336 1.1622
H28C H 0.1691 0.6103 1.2068
C23C C 0.1909(3) 0.5578(3) 1.1537(3)
H29C H 0.2228 0.5488 1.1335
C24C C 0.1739(4) 0.5094(3) 1.1908(3)
H30C H 0.1446 0.5189 1.2138
H31C H 0.1644 0.4785 1.1700
C25C C 0.1530(4) 0.5642(3) 1.0671(4)
H32C H 0.1871 0.5608 1.0535
C26C C 0.1091(2) 0.5697(2) 1.0321(3)
C27C C 0.12107(19) 0.5716(2) 0.9794(3)
C28C C 0.0821(3) 0.5805(2) 0.9431(2)
C29C C 0.0312(2) 0.5873(3) 0.9595(3)
H33C H 0.0046 0.5934 0.9346
C30C C 0.01924(18) 0.5854(2) 1.0122(3)
C31C C 0.0582(3) 0.5766(2) 1.0485(2)
H34C H 0.0500 0.5752 1.0845
C32C C -0.0362(4) 0.5919(5) 1.0333(5)
C33C C -0.0547(5) 0.5809(8) 1.0854(6)
H35C H -0.0919 0.5883 1.0874
H36C H -0.0486 0.5443 1.0935
H37C H -0.0361 0.6027 1.1104
C34C C -0.0490(4) 0.6547(4) 1.0185(5)
H38C H -0.0841 0.6635 1.0300
H39C H -0.0239 0.6772 1.0362
H40C H -0.0463 0.6597 0.9808
C35C C -0.0767(3) 0.5657(4) 0.9903(5)
H41C H -0.1124 0.5688 1.0031
H42C H -0.0735 0.5838 0.9570
H43C H -0.0681 0.5289 0.9855
C36C C 0.2973(3) 0.6676(3) 1.2456(3)
H44C H 0.3203 0.6561 1.2191
C37C C 0.3124(2) 0.71222(17) 1.2769(2)
C38C C 0.36079(19) 0.7347(2) 1.2690(2)
C39C C 0.37551(16) 0.7778(2) 1.2980(2)
C40C C 0.3419(2) 0.79832(19) 1.3349(2)
H45C H 0.3519 0.8277 1.3548
C41C C 0.29352(19) 0.7758(2) 1.34282(18)
C42C C 0.27879(16) 0.7328(2) 1.3138(2)
H46C H 0.2457 0.7174 1.3192
C43C C 0.2571(3) 0.7990(4) 1.3871(4)
C44C C 0.2072(3) 0.7618(5) 1.3878(3)
H47C H 0.2181 0.7261 1.3948
H48C H 0.1832 0.7733 1.4151
H49C H 0.1897 0.7634 1.3539
C45C C 0.2481(4) 0.8559(4) 1.3791(4)
H50C H 0.2816 0.8740 1.3782
H51C H 0.2299 0.8614 1.3461
H52C H 0.2271 0.8695 1.4078
C46C C 0.2823(3) 0.7935(5) 1.4368(3)
H53C H 0.2895 0.7568 1.4434
H54C H 0.3149 0.8130 1.4366
H55C H 0.2596 0.8071 1.4642
C47C C 0.4214(3) 0.0916(4) 1.1147(4)
H56C H 0.4157 0.0648 1.1394
C48C C 0.5779(3) 0.1950(3) 1.2920(3)
H57C H 0.5705 0.1643 1.3110
N1C N 0.3585(2) 0.25317(19) 1.2609(3)
N2C N 0.4311(2) 0.1377(3) 1.1278(3)
N3C N 0.5426(2) 0.2164(2) 1.2556(3)
N4C N 0.2187(3) 0.4533(3) 1.2552(3)
N5C N 0.2553(3) 0.6434(2) 1.2518(2)
N6C N 0.1454(3) 0.5639(3) 1.1175(4)
O1C O 0.32313(19) 0.34615(16) 1.2407(2)
H58C H 0.3439 0.3210 1.2405
O2C O 0.17326(19) 0.56376(19) 0.9662(2)
H59C H 0.1753 0.5472 0.9382
O3C O 0.39045(18) 0.71379(17) 1.23083(19)
H60C H 0.4173 0.7321 1.2288
loop_
_geom_bond_atom_site_label_1
_geom_bond_atom_site_label_2
_geom_bond_site_symmetry_1
_geom_bond_site_symmetry_2
C1 H1 1_555 1_555
C2 C1 1_555 1_555
H2 C2 1_555 1_555
H3 C2 1_555 1_555
C3 C2 1_555 1_555
H4 C3 1_555 1_555
C4 C3 1_555 1_555
H5 C4 1_555 1_555
H6 C4 1_555 1_555
C5 C4 1_555 1_555
H7 C5 1_555 1_555
C6 C1 1_555 1_555
H8 C6 1_555 1_555
H9 C6 1_555 1_555
C7 H10 1_555 1_555
C8 C7 1_555 1_555
C9 C8 1_555 1_555
C10 C9 1_555 1_555
C11 C10 1_555 1_555
H11 C11 1_555 1_555
C12 C11 1_555 1_555
C13 C8 1_555 1_555
H12 C13 1_555 1_555
C14 C12 1_555 1_555
C15 C14 1_555 1_555
H13 C15 1_555 1_555
H14 C15 1_555 1_555
H15 C15 1_555 1_555
C16 C14 1_555 1_555
H16 C16 1_555 1_555
H17 C16 1_555 1_555
H18 C16 1_555 1_555
C17 C14 1_555 1_555
H19 C17 1_555 1_555
H20 C17 1_555 1_555
H21 C17 1_555 1_555
C18 C10 1_555 1_555
H22 C18 1_555 1_555
C19 H23 1_555 1_555
C20 C19 1_555 1_555
H24 C20 1_555 1_555
H25 C20 1_555 1_555
C21 C20 1_555 1_555
H26 C21 1_555 1_555
C22 C21 1_555 1_555
H27 C22 1_555 1_555
H28 C22 1_555 1_555
C23 C22 1_555 1_555
H29 C23 1_555 1_555
C24 C19 1_555 1_555
H30 C24 1_555 1_555
H31 C24 1_555 1_555
C25 H32 1_555 1_555
C26 C25 1_555 1_555
C27 C26 1_555 1_555
C28 C27 1_555 1_555
C29 C28 1_555 1_555
H33 C29 1_555 1_555
C30 C29 1_555 1_555
C31 C26 1_555 1_555
H34 C31 1_555 1_555
C32 C30 1_555 1_555
C33 C32 1_555 1_555
H35 C33 1_555 1_555
H36 C33 1_555 1_555
H37 C33 1_555 1_555
C34 C32 1_555 1_555
H38 C34 1_555 1_555
H39 C34 1_555 1_555
H40 C34 1_555 1_555
C35 C32 1_555 1_555
H41 C35 1_555 1_555
H42 C35 1_555 1_555
H43 C35 1_555 1_555
C36 H44 1_555 1_555
C37 C36 1_555 1_555
C38 C37 1_555 1_555
C39 C38 1_555 1_555
C40 C39 1_555 1_555
H45 C40 1_555 1_555
C41 C40 1_555 1_555
C42 C37 1_555 1_555
H46 C42 1_555 1_555
C43 C41 1_555 1_555
C44 C43 1_555 1_555
H47 C44 1_555 1_555
H48 C44 1_555 1_555
H49 C44 1_555 1_555
C45 C43 1_555 1_555
H50 C45 1_555 1_555
H51 C45 1_555 1_555
H52 C45 1_555 1_555
C46 C43 1_555 1_555
H53 C46 1_555 1_555
H54 C46 1_555 1_555
H55 C46 1_555 1_555
C47 H56 1_555 1_555
C48 H57 1_555 1_555
N1 C1 1_555 1_555
N2 C5 1_555 1_555
N3 C3 1_555 1_555
N4 C18 1_555 1_555
N5 C21 1_555 1_555
N6 C23 1_555 1_555
O1 C9 1_555 1_555
H58 O1 1_555 1_555
O2 C27 1_555 1_555
H59 O2 1_555 1_555
O3 C38 1_555 1_555
H60 O3 1_555 1_555
C1A H1A 1_555 1_555
C2A C1A 1_555 1_555
H2A C2A 1_555 1_555
H3A C2A 1_555 1_555
C3A C2A 1_555 1_555
H4A C3A 1_555 1_555
C4A C3A 1_555 1_555
H5A C4A 1_555 1_555
H6A C4A 1_555 1_555
C5A C4A 1_555 1_555
H7A C5A 1_555 1_555
C6A C1A 1_555 1_555
H8A C6A 1_555 1_555
H9A C6A 1_555 1_555
C7A H10A 1_555 1_555
C8A C7A 1_555 1_555
C9A C8A 1_555 1_555
C10A C9A 1_555 1_555
C11A C10A 1_555 1_555
H11A C11A 1_555 1_555
C12A C11A 1_555 1_555
C13A C8A 1_555 1_555
H12A C13A 1_555 1_555
C14A C12A 1_555 1_555
C15A C14A 1_555 1_555
H13A C15A 1_555 1_555
H14A C15A 1_555 1_555
H15A C15A 1_555 1_555
C16A C14A 1_555 1_555
H16A C16A 1_555 1_555
H17A C16A 1_555 1_555
H18A C16A 1_555 1_555
C17A C14A 1_555 1_555
H19A C17A 1_555 1_555
H20A C17A 1_555 1_555
H21A C17A 1_555 1_555
C18A C10A 1_555 1_555
H22A C18A 1_555 1_555
C19A H23A 1_555 1_555
C20A C19A 1_555 1_555
H24A C20A 1_555 1_555
H25A C20A 1_555 1_555
C21A C20A 1_555 1_555
H26A C21A 1_555 1_555
C22A C21A 1_555 1_555
H27A C22A 1_555 1_555
H28A C22A 1_555 1_555
C23A C22A 1_555 1_555
H29A C23A 1_555 1_555
C24A C19A 1_555 1_555
H30A C24A 1_555 1_555
H31A C24A 1_555 1_555
C25A H32A 1_555 1_555
C26A C25A 1_555 1_555
C27A C26A 1_555 1_555
C28A C27A 1_555 1_555
C29A C28A 1_555 1_555
H33A C29A 1_555 1_555
C30A C29A 1_555 1_555
C31A C26A 1_555 1_555
H34A C31A 1_555 1_555
C32A C30A 1_555 1_555
C33A C32A 1_555 1_555
H35A C33A 1_555 1_555
H36A C33A 1_555 1_555
H37A C33A 1_555 1_555
C34A C32A 1_555 1_555
H38A C34A 1_555 1_555
H39A C34A 1_555 1_555
H40A C34A 1_555 1_555
C35A C32A 1_555 1_555
H41A C35A 1_555 1_555
H42A C35A 1_555 1_555
H43A C35A 1_555 1_555
C36A H44A 1_555 1_555
C37A C36A 1_555 1_555
C38A C37A 1_555 1_555
C39A C48 1_555 1_555
C40A C39A 1_555 1_555
H45A C40A 1_555 1_555
C41A C40A 1_555 1_555
C42A C37A 1_555 1_555
H46A C42A 1_555 1_555
C43A C41A 1_555 1_555
C44A C43A 1_555 1_555
H47A C44A 1_555 1_555
H48A C44A 1_555 1_555
H49A C44A 1_555 1_555
C45A C43A 1_555 1_555
H50A C45A 1_555 1_555
H51A C45A 1_555 1_555
H52A C45A 1_555 1_555
C46A C43A 1_555 1_555
H53A C46A 1_555 1_555
H54A C46A 1_555 1_555
H55A C46A 1_555 1_555
C47A H56A 1_555 1_555
C48A C39 1_555 1_555
H57A C48A 1_555 1_555
N1A C1A 1_555 1_555
N2A C5A 1_555 1_555
N3A C3A 1_555 1_555
N4A C18A 1_555 1_555
N5A C21A 1_555 1_555
N6A C23A 1_555 1_555
O1A C9A 1_555 1_555
H58A O1A 1_555 1_555
O2A C27A 1_555 1_555
H59A O2A 1_555 1_555
O3A C38A 1_555 1_555
H60A O3A 1_555 1_555
C1B H1B 1_555 1_555
C2B C1B 1_555 1_555
H2B C2B 1_555 1_555
H3B C2B 1_555 1_555
C3B C2B 1_555 1_555
H4B C3B 1_555 1_555
C4B C3B 1_555 1_555
H5B C4B 1_555 1_555
H6B C4B 1_555 1_555
C5B C4B 1_555 1_555
H7B C5B 1_555 1_555
C6B C1B 1_555 1_555
H8B C6B 1_555 1_555
H9B C6B 1_555 1_555
C7B H10B 1_555 1_555
C8B C7B 1_555 1_555
C9B C8B 1_555 1_555
C10B C9B 1_555 1_555
C11B C10B 1_555 1_555
H11B C11B 1_555 1_555
C12B C11B 1_555 1_555
C13B C8B 1_555 1_555
H12B C13B 1_555 1_555
C14B C12B 1_555 1_555
C15B C14B 1_555 1_555
H13B C15B 1_555 1_555
H14B C15B 1_555 1_555
H15B C15B 1_555 1_555
C16B C14B 1_555 1_555
H16B C16B 1_555 1_555
H17B C16B 1_555 1_555
H18B C16B 1_555 1_555
C17B C14B 1_555 1_555
H19B C17B 1_555 1_555
H20B C17B 1_555 1_555
H21B C17B 1_555 1_555
C18B C10B 1_555 1_555
H22B C18B 1_555 1_555
C19B H23B 1_555 1_555
C20B C19B 1_555 1_555
H24B C20B 1_555 1_555
H25B C20B 1_555 1_555
C21B C20B 1_555 1_555
H26B C21B 1_555 1_555
C22B C21B 1_555 1_555
H27B C22B 1_555 1_555
H28B C22B 1_555 1_555
C23B C22B 1_555 1_555
H29B C23B 1_555 1_555
C24B C19B 1_555 1_555
H30B C24B 1_555 1_555
H31B C24B 1_555 1_555
C25B H32B 1_555 1_555
C26B C25B 1_555 1_555
C27B C26B 1_555 1_555
C28B C47A 1_555 1_555
C29B C28B 1_555 1_555
H33B C29B 1_555 1_555
C30B C29B 1_555 1_555
C31B C26B 1_555 1_555
H34B C31B 1_555 1_555
C32B C30B 1_555 1_555
C33B C32B 1_555 1_555
H35B C33B 1_555 1_555
H36B C33B 1_555 1_555
H37B C33B 1_555 1_555
C34B C32B 1_555 1_555
H38B C34B 1_555 1_555
H39B C34B 1_555 1_555
H40B C34B 1_555 1_555
C35B C32B 1_555 1_555
H41B C35B 1_555 1_555
H42B C35B 1_555 1_555
H43B C35B 1_555 1_555
C36B H44B 1_555 1_555
C37B C36B 1_555 1_555
C38B C37B 1_555 1_555
C39B C38B 1_555 1_555
C40B C39B 1_555 1_555
H45B C40B 1_555 1_555
C41B C40B 1_555 1_555
C42B C37B 1_555 1_555
H46B C42B 1_555 1_555
C43B C41B 1_555 1_555
C44B C43B 1_555 1_555
H47B C44B 1_555 1_555
H48B C44B 1_555 1_555
H49B C44B 1_555 1_555
C45B C43B 1_555 1_555
H50B C45B 1_555 1_555
H51B C45B 1_555 1_555
H52B C45B 1_555 1_555
C46B C43B 1_555 1_555
H53B C46B 1_555 1_555
H54B C46B 1_555 1_555
H55B C46B 1_555 1_555
C47B C28 1_555 1_555
H56B C47B 1_555 1_555
C48B H57B 1_555 1_555
N1B C1B 1_555 1_555
N2B C5B 1_555 1_555
N3B C3B 1_555 1_555
N4B C18B 1_555 1_555
N5B C21B 1_555 1_555
N6B C23B 1_555 1_555
O1B C9B 1_555 1_555
H58B O1B 1_555 1_555
O2B C27B 1_555 1_555
H59B O2B 1_555 1_555
O3B C38B 1_555 1_555
H60B O3B 1_555 1_555
C1C H1C 1_555 1_555
C2C C1C 1_555 1_555
H2C C2C 1_555 1_555
H3C C2C 1_555 1_555
C3C C2C 1_555 1_555
H4C C3C 1_555 1_555
C4C C3C 1_555 1_555
H5C C4C 1_555 1_555
H6C C4C 1_555 1_555
C5C C4C 1_555 1_555
H7C C5C 1_555 1_555
C6C C1C 1_555 1_555
H8C C6C 1_555 1_555
H9C C6C 1_555 1_555
C7C H10C 1_555 1_555
C8C C7C 1_555 1_555
C9C C8C 1_555 1_555
C10C C9C 1_555 1_555
C11C C10C 1_555 1_555
H11C C11C 1_555 1_555
C12C C11C 1_555 1_555
C13C C8C 1_555 1_555
H12C C13C 1_555 1_555
C14C C12C 1_555 1_555
C15C C14C 1_555 1_555
H13C C15C 1_555 1_555
H14C C15C 1_555 1_555
H15C C15C 1_555 1_555
C16C C14C 1_555 1_555
H16C C16C 1_555 1_555
H17C C16C 1_555 1_555
H18C C16C 1_555 1_555
C17C C14C 1_555 1_555
H19C C17C 1_555 1_555
H20C C17C 1_555 1_555
H21C C17C 1_555 1_555
C18C C10C 1_555 1_555
H22C C18C 1_555 1_555
C19C H23C 1_555 1_555
C20C C19C 1_555 1_555
H24C C20C 1_555 1_555
H25C C20C 1_555 1_555
C21C C20C 1_555 1_555
H26C C21C 1_555 1_555
C22C C21C 1_555 1_555
H27C C22C 1_555 1_555
H28C C22C 1_555 1_555
C23C C22C 1_555 1_555
H29C C23C 1_555 1_555
C24C C19C 1_555 1_555
H30C C24C 1_555 1_555
H31C C24C 1_555 1_555
C25C H32C 1_555 1_555
C26C C25C 1_555 1_555
C27C C26C 1_555 1_555
C28C C47 1_555 1_555
C29C C28C 1_555 1_555
H33C C29C 1_555 1_555
C30C C29C 1_555 1_555
C31C C26C 1_555 1_555
H34C C31C 1_555 1_555
C32C C30C 1_555 1_555
C33C C32C 1_555 1_555
H35C C33C 1_555 1_555
H36C C33C 1_555 1_555
H37C C33C 1_555 1_555
C34C C32C 1_555 1_555
H38C C34C 1_555 1_555
H39C C34C 1_555 1_555
H40C C34C 1_555 1_555
C35C C32C 1_555 1_555
H41C C35C 1_555 1_555
H42C C35C 1_555 1_555
H43C C35C 1_555 1_555
C36C H44C 1_555 1_555
C37C C36C 1_555 1_555
C38C C37C 1_555 1_555
C39C C48B 1_555 1_555
C40C C39C 1_555 1_555
H45C C40C 1_555 1_555
C41C C40C 1_555 1_555
C42C C37C 1_555 1_555
H46C C42C 1_555 1_555
C43C C41C 1_555 1_555
C44C C43C 1_555 1_555
H47C C44C 1_555 1_555
H48C C44C 1_555 1_555
H49C C44C 1_555 1_555
C45C C43C 1_555 1_555
H50C C45C 1_555 1_555
H51C C45C 1_555 1_555
H52C C45C 1_555 1_555
C46C C43C 1_555 1_555
H53C C46C 1_555 1_555
H54C C46C 1_555 1_555
H55C C46C 1_555 1_555
C47C C28A 1_555 1_555
H56C C47C 1_555 1_555
C48C C39B 1_555 1_555
H57C C48C 1_555 1_555
N1C C1C 1_555 1_555
N2C C5C 1_555 1_555
N3C C3C 1_555 1_555
N4C C18C 1_555 1_555
N5C C21C 1_555 1_555
N6C C23C 1_555 1_555
O1C C9C 1_555 1_555
H58C O1C 1_555 1_555
O2C C27C 1_555 1_555
H59C O2C 1_555 1_555
O3C C38C 1_555 1_555
H60C O3C 1_555 1_555
C5 C6 1_555 1_555
C7 N1 1_555 1_555
C12 C13 1_555 1_555
C19 N4 1_555 1_555
C23 C24 1_555 1_555
C25 N6 1_555 1_555
C30 C31 1_555 1_555
C36 N5 1_555 1_555
C41 C42 1_555 1_555
C47 N2 1_555 1_555
C48 N3 1_555 1_555
C5A C6A 1_555 1_555
C7A N1A 1_555 1_555
C12A C13A 1_555 1_555
C19A N4A 1_555 1_555
C23A C24A 1_555 1_555
C25A N6A 1_555 1_555
C30A C31A 1_555 1_555
C36A N5A 1_555 1_555
C38A C39A 1_555 1_555
C41A C42A 1_555 1_555
C47A N2A 1_555 1_555
C48A N3A 1_555 1_555
C5B C6B 1_555 1_555
C7B N1B 1_555 1_555
C12B C13B 1_555 1_555
C19B N4B 1_555 1_555
C23B C24B 1_555 1_555
C25B N6B 1_555 1_555
C27B C28B 1_555 1_555
C30B C31B 1_555 1_555
C36B N5B 1_555 1_555
C41B C42B 1_555 1_555
C47B N2B 1_555 1_555
C48B N3B 1_555 1_555
C5C C6C 1_555 1_555
C7C N1C 1_555 1_555
C12C C13C 1_555 1_555
C19C N4C 1_555 1_555
C23C C24C 1_555 1_555
C25C N6C 1_555 1_555
C27C C28C 1_555 1_555
C30C C31C 1_555 1_555
C36C N5C 1_555 1_555
C38C C39C 1_555 1_555
C41C C42C 1_555 1_555
C47C N2C 1_555 1_555
C48C N3C 1_555 1_555

#END
