
#######################################################################
#
#                 Cambridge Crystallographic Data Centre
#                                CCDC 
#
#######################################################################
#
# If this CIF has been generated from an entry in the Cambridge 
# Structural Database, then it will include bibliographic, chemical, 
# crystal, experimental, refinement or atomic coordinate data resulting 
# from the CCDC's data processing and validation procedures.
#
#######################################################################

data_REYWAV
_chemical_formula_moiety         'C52 H80 Li4 N12 O1'
_chemical_name_systematic        
(\m~4~-1,1'-Naphthalene-1,8-diylbis(2,3-di-isopropanylguanidinyl))-(\m~3~-1,1'-naphthalene-1,8-diylbis(2,3-di-isopropanylguanidinyl))-tetrahydrofuran-tetra-lithium
_symmetry_cell_setting           triclinic
_symmetry_space_group_name_H-M   'P -1'
_symmetry_Int_Tables_number      2
_space_group_name_Hall           '-P 1'
loop_
_symmetry_equiv_pos_site_id
_symmetry_equiv_pos_as_xyz
1 x,y,z
2 -x,-y,-z
_cell_length_a                   11.100(2)
_cell_length_b                   12.745(3)
_cell_length_c                   21.549(6)
_cell_angle_alpha                86.141(18)
_cell_angle_beta                 85.522(18)
_cell_angle_gamma                64.633(12)
_cell_volume                     2744.25
_exptl_crystal_colour            colorless
_cell_formula_units_Z            2
loop_
_atom_site_label
_atom_site_type_symbol
_atom_site_fract_x
_atom_site_fract_y
_atom_site_fract_z
O1 O 0.0132(3) 0.4625(3) 0.16422(13)
N1 N 0.0952(3) 0.2776(3) 0.35189(13)
N2 N 0.0376(3) 0.1233(3) 0.36846(13)
N3 N 0.0212(4) 0.2362(3) 0.45368(15)
H1 H 0.001(5) 0.184(3) 0.4741(19)
N4 N 0.2928(3) 0.3417(3) 0.29318(14)
N5 N 0.5118(3) 0.2357(3) 0.26157(13)
N6 N 0.4609(3) 0.3909(3) 0.32901(16)
H2 H 0.5453(16) 0.375(4) 0.323(2)
N7 N 0.3071(3) 0.0854(2) 0.23045(12)
N8 N 0.3877(3) 0.0358(2) 0.32763(12)
N9 N 0.4540(4) -0.1134(3) 0.25574(15)
H3 H 0.496(4) -0.160(3) 0.2862(15)
N10 N 0.3193(3) 0.2432(3) 0.13355(13)
N11 N 0.3142(3) 0.4240(3) 0.10845(14)
N12 N 0.4732(4) 0.2626(3) 0.05467(16)
H4 H 0.502(5) 0.312(3) 0.0367(19)
C1 C 0.0478(4) 0.2105(3) 0.39167(16)
C2 C 0.4251(4) 0.3231(3) 0.29301(16)
C3 C 0.0089(3) 0.3955(3) 0.34214(16)
C4 C -0.1268(4) 0.4353(4) 0.35974(18)
H5 H -0.1581 0.3820 0.3780
C5 C -0.2184(4) 0.5520(5) 0.3512(2)
H6 H -0.3086 0.5756 0.3645
C6 C -0.1769(4) 0.6307(4) 0.3238(2)
H7 H -0.2389 0.7084 0.3178
C7 C -0.0427(4) 0.5973(3) 0.30443(17)
C8 C -0.0063(5) 0.6846(4) 0.2762(2)
H8 H -0.0714 0.7616 0.2718
C9 C 0.1208(6) 0.6574(4) 0.2559(2)
H9 H 0.1448 0.7157 0.2383
C10 C 0.2178(4) 0.5423(3) 0.26085(19)
H10 H 0.3044 0.5244 0.2434
C11 C 0.1914(4) 0.4536(3) 0.29037(16)
C12 C 0.0550(3) 0.4782(3) 0.31232(15)
C13 C 0.0053(4) 0.0411(3) 0.40920(17)
H11 H 0.0519 0.0280 0.4483
C14 C -0.1442(4) 0.0867(5) 0.4253(2)
H12 H -0.1758 0.1608 0.4449
H13 H -0.1613 0.0316 0.4536
H14 H -0.1908 0.0967 0.3875
C15 C 0.0558(5) -0.0731(4) 0.3769(2)
H15 H 0.0120 -0.0611 0.3381
H16 H 0.0364 -0.1289 0.4037
H17 H 0.1515 -0.1025 0.3682
C16 C 0.0573(4) 0.3157(3) 0.48593(18)
H18 H 0.0725 0.3702 0.4549
C17 C -0.0568(5) 0.3844(4) 0.5315(2)
H19 H -0.1372 0.4272 0.5091
H20 H -0.0343 0.4384 0.5522
H21 H -0.0718 0.3315 0.5622
C18 C 0.1822(5) 0.2493(5) 0.5202(3)
H22 H 0.1694 0.1930 0.5493
H23 H 0.2021 0.3027 0.5428
H24 H 0.2559 0.2092 0.4906
C19 C 0.6548(4) 0.1916(3) 0.27140(18)
H25 H 0.6652 0.2009 0.3156
C20 C 0.7205(5) 0.2569(4) 0.2311(2)
H26 H 0.7143 0.2461 0.1875
H27 H 0.8137 0.2273 0.2404
H28 H 0.6755 0.3390 0.2395
C21 C 0.7222(4) 0.0629(4) 0.2584(2)
H29 H 0.6763 0.0231 0.2830
H30 H 0.8146 0.0310 0.2694
H31 H 0.7187 0.0526 0.2145
C22 C 0.3903(4) 0.4469(4) 0.38617(19)
H32 H 0.2949 0.4635 0.3844
C23 C 0.4004(7) 0.5617(5) 0.3899(3)
H33 H 0.4933 0.5470 0.3918
H34 H 0.3503 0.6008 0.4269
H35 H 0.3639 0.6104 0.3533
C24 C 0.4443(7) 0.3693(5) 0.4432(2)
H36 H 0.4325 0.2985 0.4409
H37 H 0.3965 0.4095 0.4803
H38 H 0.5386 0.3500 0.4450
C25 C 0.3830(4) 0.0002(3) 0.27245(16)
C26 C 0.3691(4) 0.3137(3) 0.09787(15)
C27 C 0.2273(3) 0.0614(3) 0.19126(15)
C28 C 0.1713(4) -0.0135(3) 0.21249(18)
H39 H 0.1924 -0.0500 0.2521
C29 C 0.0841(4) -0.0381(3) 0.17793(19)
H40 H 0.0480 -0.0893 0.1944
C30 C 0.0537(4) 0.0126(3) 0.12131(19)
H41 H -0.0031 -0.0042 0.0977
C31 C 0.1062(3) 0.0914(3) 0.09649(16)
C32 C 0.0712(4) 0.1407(3) 0.03609(18)
H42 H 0.0126 0.1230 0.0143
C33 C 0.1225(4) 0.2138(4) 0.00967(18)
H43 H 0.1017 0.2432 -0.0312
C34 C 0.2052(4) 0.2463(3) 0.04147(16)
H44 H 0.2366 0.2986 0.0218
C35 C 0.2429(3) 0.2028(3) 0.10235(15)
C36 C 0.1941(3) 0.1202(3) 0.13075(15)
C37 C 0.4837(4) -0.0411(3) 0.37136(16)
H45 H 0.5655 -0.0925 0.3475
C38 C 0.4302(5) -0.1165(4) 0.4115(2)
H46 H 0.3504 -0.0672 0.4354
H47 H 0.4974 -0.1663 0.4396
H48 H 0.4088 -0.1640 0.3850
C39 C 0.5190(4) 0.0340(4) 0.41148(18)
H49 H 0.5484 0.0840 0.3850
H50 H 0.5900 -0.0153 0.4380
H51 H 0.4410 0.0812 0.4371
C40 C 0.5016(4) -0.1543(3) 0.19213(19)
H52 H 0.4317 -0.1058 0.1634
C41 C 0.5165(7) -0.2773(5) 0.1911(3)
H53 H 0.5827 -0.3260 0.2200
H54 H 0.5451 -0.3058 0.1494
H55 H 0.4315 -0.2793 0.2032
C42 C 0.6273(6) -0.1425(5) 0.1715(2)
H56 H 0.6096 -0.0610 0.1691
H57 H 0.6589 -0.1753 0.1309
H58 H 0.6948 -0.1836 0.2013
C43 C 0.3668(4) 0.5017(3) 0.07553(19)
H59 H 0.3922 0.4774 0.0320
C44 C 0.2591(5) 0.6246(4) 0.0748(3)
H60 H 0.1828 0.6277 0.0543
H61 H 0.2933 0.6757 0.0523
H62 H 0.2321 0.6495 0.1172
C45 C 0.4912(5) 0.4923(5) 0.1058(2)
H63 H 0.4675 0.5178 0.1483
H64 H 0.5275 0.5408 0.0824
H65 H 0.5575 0.4121 0.1061
C46 C 0.5524(4) 0.1382(4) 0.04559(18)
H66 H 0.5074 0.0946 0.0693
C47 C 0.5642(5) 0.1119(4) -0.0223(2)
H67 H 0.4761 0.1322 -0.0368
H68 H 0.6194 0.0297 -0.0276
H69 H 0.6049 0.1567 -0.0462
C48 C 0.6907(5) 0.0995(5) 0.0695(2)
H70 H 0.7374 0.1388 0.0450
H71 H 0.7402 0.0162 0.0658
H72 H 0.6828 0.1190 0.1128
C49 C -0.0727(5) 0.4069(4) 0.1819(2)
H73 H -0.1306 0.4432 0.2183
H74 H -0.0199 0.3243 0.1922
C50 C -0.1540(5) 0.4204(5) 0.1278(2)
H75 H -0.2479 0.4432 0.1413
H76 H -0.1209 0.3478 0.1057
C51 C -0.1382(5) 0.5141(5) 0.0872(2)
H77 H -0.1018 0.4854 0.0456
H78 H -0.2249 0.5809 0.0829
C52 C -0.0478(6) 0.5477(5) 0.1164(3)
H79 H 0.0203 0.5514 0.0857
H80 H -0.0969 0.6244 0.1342
Li1 Li 0.1278(8) 0.1429(7) 0.2893(3)
Li2 Li 0.2863(7) 0.2066(6) 0.3347(3)
Li3 Li 0.3906(6) 0.1934(5) 0.2154(3)
Li4 Li 0.1962(7) 0.4115(7) 0.1783(3)
loop_
_geom_bond_atom_site_label_1
_geom_bond_atom_site_label_2
_geom_bond_site_symmetry_1
_geom_bond_site_symmetry_2
O1 C49 1_555 1_555
N1 C1 1_555 1_555
N2 C1 1_555 1_555
N3 H1 1_555 1_555
N4 C2 1_555 1_555
N5 C2 1_555 1_555
N6 H2 1_555 1_555
N7 C25 1_555 1_555
N8 C25 1_555 1_555
N9 H3 1_555 1_555
N10 C26 1_555 1_555
N11 C26 1_555 1_555
N12 H4 1_555 1_555
C1 N3 1_555 1_555
C2 N6 1_555 1_555
C3 N1 1_555 1_555
C4 C3 1_555 1_555
H5 C4 1_555 1_555
C5 C4 1_555 1_555
H6 C5 1_555 1_555
C6 C5 1_555 1_555
H7 C6 1_555 1_555
C7 C6 1_555 1_555
C8 C7 1_555 1_555
H8 C8 1_555 1_555
C9 C8 1_555 1_555
H9 C9 1_555 1_555
C10 C9 1_555 1_555
H10 C10 1_555 1_555
C11 N4 1_555 1_555
C12 C3 1_555 1_555
C13 N2 1_555 1_555
H11 C13 1_555 1_555
C14 C13 1_555 1_555
H12 C14 1_555 1_555
H13 C14 1_555 1_555
H14 C14 1_555 1_555
C15 C13 1_555 1_555
H15 C15 1_555 1_555
H16 C15 1_555 1_555
H17 C15 1_555 1_555
C16 N3 1_555 1_555
H18 C16 1_555 1_555
C17 C16 1_555 1_555
H19 C17 1_555 1_555
H20 C17 1_555 1_555
H21 C17 1_555 1_555
C18 C16 1_555 1_555
H22 C18 1_555 1_555
H23 C18 1_555 1_555
H24 C18 1_555 1_555
C19 N5 1_555 1_555
H25 C19 1_555 1_555
C20 C19 1_555 1_555
H26 C20 1_555 1_555
H27 C20 1_555 1_555
H28 C20 1_555 1_555
C21 C19 1_555 1_555
H29 C21 1_555 1_555
H30 C21 1_555 1_555
H31 C21 1_555 1_555
C22 N6 1_555 1_555
H32 C22 1_555 1_555
C23 C22 1_555 1_555
H33 C23 1_555 1_555
H34 C23 1_555 1_555
H35 C23 1_555 1_555
C24 C22 1_555 1_555
H36 C24 1_555 1_555
H37 C24 1_555 1_555
H38 C24 1_555 1_555
C25 N9 1_555 1_555
C26 N12 1_555 1_555
C27 N7 1_555 1_555
C28 C27 1_555 1_555
H39 C28 1_555 1_555
C29 C28 1_555 1_555
H40 C29 1_555 1_555
C30 C29 1_555 1_555
H41 C30 1_555 1_555
C31 C30 1_555 1_555
C32 C31 1_555 1_555
H42 C32 1_555 1_555
C33 C32 1_555 1_555
H43 C33 1_555 1_555
C34 C33 1_555 1_555
H44 C34 1_555 1_555
C35 N10 1_555 1_555
C36 C27 1_555 1_555
C37 N8 1_555 1_555
H45 C37 1_555 1_555
C38 C37 1_555 1_555
H46 C38 1_555 1_555
H47 C38 1_555 1_555
H48 C38 1_555 1_555
C39 C37 1_555 1_555
H49 C39 1_555 1_555
H50 C39 1_555 1_555
H51 C39 1_555 1_555
C40 N9 1_555 1_555
H52 C40 1_555 1_555
C41 C40 1_555 1_555
H53 C41 1_555 1_555
H54 C41 1_555 1_555
H55 C41 1_555 1_555
C42 C40 1_555 1_555
H56 C42 1_555 1_555
H57 C42 1_555 1_555
H58 C42 1_555 1_555
C43 N11 1_555 1_555
H59 C43 1_555 1_555
C44 C43 1_555 1_555
H60 C44 1_555 1_555
H61 C44 1_555 1_555
H62 C44 1_555 1_555
C45 C43 1_555 1_555
H63 C45 1_555 1_555
H64 C45 1_555 1_555
H65 C45 1_555 1_555
C46 N12 1_555 1_555
H66 C46 1_555 1_555
C47 C46 1_555 1_555
H67 C47 1_555 1_555
H68 C47 1_555 1_555
H69 C47 1_555 1_555
C48 C46 1_555 1_555
H70 C48 1_555 1_555
H71 C48 1_555 1_555
H72 C48 1_555 1_555
C49 H73 1_555 1_555
H74 C49 1_555 1_555
C50 C49 1_555 1_555
H75 C50 1_555 1_555
H76 C50 1_555 1_555
C51 C50 1_555 1_555
H77 C51 1_555 1_555
H78 C51 1_555 1_555
C52 O1 1_555 1_555
H79 C52 1_555 1_555
H80 C52 1_555 1_555
Li1 N1 1_555 1_555
Li2 N1 1_555 1_555
Li3 N5 1_555 1_555
Li4 O1 1_555 1_555
N2 Li1 1_555 1_555
N4 Li2 1_555 1_555
N7 Li1 1_555 1_555
N7 Li3 1_555 1_555
N8 Li2 1_555 1_555
N10 Li3 1_555 1_555
N10 Li4 1_555 1_555
N11 Li4 1_555 1_555
C7 C12 1_555 1_555
C10 C11 1_555 1_555
C11 C12 1_555 1_555
C31 C36 1_555 1_555
C34 C35 1_555 1_555
C35 C36 1_555 1_555
C51 C52 1_555 1_555

#END
