
#######################################################################
#
#                 Cambridge Crystallographic Data Centre
#                                CCDC 
#
#######################################################################
#
# If this CIF has been generated from an entry in the Cambridge 
# Structural Database, then it will include bibliographic, chemical, 
# crystal, experimental, refinement or atomic coordinate data resulting 
# from the CCDC's data processing and validation procedures.
#
#######################################################################

data_REYYOJ
_chemical_formula_moiety         'C30 H27 N3'
_chemical_name_systematic        
1,3,5-tris(Benzylideneamino)-2,4,6-trimethylbenzene
_symmetry_cell_setting           monoclinic
_symmetry_space_group_name_H-M   'P 21/c'
_symmetry_Int_Tables_number      14
_space_group_name_Hall           '-P 2ybc'
loop_
_symmetry_equiv_pos_site_id
_symmetry_equiv_pos_as_xyz
1 x,y,z
2 -x,1/2+y,1/2-z
3 -x,-y,-z
4 x,1/2-y,1/2+z
_cell_length_a                   11.425(3)
_cell_length_b                   20.314(3)
_cell_length_c                   10.901(4)
_cell_angle_alpha                90
_cell_angle_beta                 98.20(2)
_cell_angle_gamma                90
_cell_volume                     2504.12
_exptl_crystal_colour            yellow
_chemical_melting_point          428-429K
_cell_formula_units_Z            4
loop_
_atom_site_label
_atom_site_type_symbol
_atom_site_fract_x
_atom_site_fract_y
_atom_site_fract_z
C1 C 0.4816(3) 0.3266(2) 0.6618(4)
C2 C 0.4299(4) 0.2653(2) 0.6751(4)
C3 C 0.3350(3) 0.2619(2) 0.7446(4)
C4 C 0.2922(3) 0.3174(2) 0.7966(4)
C5 C 0.3479(4) 0.3778(2) 0.7823(4)
C6 C 0.4425(4) 0.3838(2) 0.7133(4)
C7 C 0.4714(4) 0.2040(2) 0.6157(5)
H1 H 0.4252(4) 0.1671(2) 0.6358(5)
H2 H 0.5533(4) 0.1963(2) 0.6462(5)
H3 H 0.4617(4) 0.2097(2) 0.5274(5)
C8 C 0.1878(4) 0.3130(2) 0.8686(5)
H4 H 0.1700(4) 0.3559(2) 0.8981(5)
H5 H 0.2070(4) 0.2838(2) 0.9378(5)
H6 H 0.1203(4) 0.2964(2) 0.8151(5)
C9 C 0.4953(4) 0.4495(2) 0.6870(5)
H7 H 0.4586(4) 0.4836(2) 0.7293(5)
H8 H 0.4818(4) 0.4578(2) 0.5994(5)
H9 H 0.5788(4) 0.4492(2) 0.7153(5)
N1 N 0.5704(3) 0.3321(2) 0.5828(3)
C10 C 0.6736(4) 0.3135(2) 0.6190(4)
H10 H 0.6919(4) 0.2974(2) 0.6993(4)
C11 C 0.7675(4) 0.3163(2) 0.5400(4)
C12 C 0.8826(4) 0.3010(2) 0.5904(5)
H11 H 0.8996(4) 0.2886(2) 0.6732(5)
C13 C 0.9727(4) 0.3054(2) 0.5161(7)
H12 H 1.0501(4) 0.2957(2) 0.5501(7)
C14 C 0.9459(6) 0.3242(3) 0.3947(7)
H13 H 1.0062(6) 0.3268(3) 0.3460(7)
C15 C 0.8324(6) 0.3379(3) 0.3443(5)
H14 H 0.8153(6) 0.3504(3) 0.2616(5)
C16 C 0.7431(4) 0.3342(2) 0.4170(5)
H15 H 0.6657(4) 0.3440(2) 0.3830(5)
N2 N 0.2789(3) 0.1995(2) 0.7489(4)
C17 C 0.2933(4) 0.1664(2) 0.8453(5)
H16 H 0.3397(4) 0.1840(2) 0.9147(5)
C18 C 0.2405(4) 0.1010(2) 0.8559(5)
C19 C 0.2193(5) 0.0791(3) 0.9694(5)
H17 H 0.2396(5) 0.1054(3) 1.0391(5)
C20 C 0.1663(6) 0.0180(3) 0.9804(7)
H18 H 0.1515(6) 0.0034(3) 1.0576(7)
C21 C 0.1358(6) -0.0196(3) 0.8785(8)
H19 H 0.1006(6) -0.0604(3) 0.8860(8)
C22 C 0.1601(6) 0.0012(3) 0.7669(7)
H20 H 0.1397(6) -0.0251(3) 0.6972(7)
C23 C 0.2104(4) 0.0623(2) 0.7546(5)
H21 H 0.2252(4) 0.0769(2) 0.6775(5)
N3 N 0.2793(6) 0.4317(4) 0.8131(7)
C24 C 0.3322(8) 0.4707(5) 0.8923(8)
H22 H 0.4108(8) 0.4660(5) 0.9278(8)
C25 C 0.2693(6) 0.5292(3) 0.9363(7)
C26 C 0.3359(4) 0.5785(4) 1.0013(8)
H23 H 0.4179(4) 0.5749(5) 1.0169(11)
C27 C 0.2802(6) 0.6332(3) 1.0430(8)
H24 H 0.3248(8) 0.6662(5) 1.0865(12)
C28 C 0.1577(6) 0.6387(3) 1.0197(9)
H25 H 0.1204(8) 0.6753(4) 1.0477(13)
C29 C 0.0911(4) 0.5893(4) 0.9548(8)
H26 H 0.0092(4) 0.5930(6) 0.9392(12)
C30 C 0.1468(6) 0.5346(3) 0.9130(7)
H27 H 0.1022(9) 0.5016(4) 0.8696(9)
N4? N 0.3351(8) 0.4378(5) 0.8600(8)
C31? C 0.2399(9) 0.4668(5) 0.8395(9)
H28? H 0.1744(9) 0.4544(5) 0.7836(9)
C32? C 0.2167(8) 0.5281(3) 0.9061(8)
C33? C 0.3104(6) 0.5602(5) 0.9770(9)
H29? H 0.3866(7) 0.5434(7) 0.9817(13)
C34? C 0.2901(6) 0.6174(5) 1.0407(10)
H30? H 0.3528(8) 0.6389(7) 1.0881(14)
C35? C 0.1761(8) 0.6424(4) 1.0336(11)
H31? H 0.1625(11) 0.6807(6) 1.0763(15)
C36? C 0.0824(6) 0.6103(5) 0.9628(10)
H32? H 0.0062(6) 0.6271(7) 0.9581(14)
C37? C 0.1027(7) 0.5531(4) 0.8990(8)
H33? H 0.0401(8) 0.5316(6) 0.8516(11)
loop_
_geom_bond_atom_site_label_1
_geom_bond_atom_site_label_2
_geom_bond_site_symmetry_1
_geom_bond_site_symmetry_2
C1 C2 1_555 1_555
C2 C3 1_555 1_555
C3 C4 1_555 1_555
C4 C5 1_555 1_555
C5 C6 1_555 1_555
C6 C1 1_555 1_555
C7 C2 1_555 1_555
H1 C7 1_555 1_555
H2 C7 1_555 1_555
H3 C7 1_555 1_555
C8 C4 1_555 1_555
H4 C8 1_555 1_555
H5 C8 1_555 1_555
H6 C8 1_555 1_555
C9 C6 1_555 1_555
H7 C9 1_555 1_555
H8 C9 1_555 1_555
H9 C9 1_555 1_555
N1 C1 1_555 1_555
C10 N1 1_555 1_555
H10 C10 1_555 1_555
C11 C10 1_555 1_555
C12 C11 1_555 1_555
H11 C12 1_555 1_555
C13 C12 1_555 1_555
H12 C13 1_555 1_555
C14 C13 1_555 1_555
H13 C14 1_555 1_555
C15 C14 1_555 1_555
H14 C15 1_555 1_555
C16 C11 1_555 1_555
H15 C16 1_555 1_555
N2 C3 1_555 1_555
C17 N2 1_555 1_555
H16 C17 1_555 1_555
C18 C17 1_555 1_555
C19 C18 1_555 1_555
H17 C19 1_555 1_555
C20 C19 1_555 1_555
H18 C20 1_555 1_555
C21 C20 1_555 1_555
H19 C21 1_555 1_555
C22 C21 1_555 1_555
H20 C22 1_555 1_555
C23 C18 1_555 1_555
H21 C23 1_555 1_555
N3 C5 1_555 1_555
C24 N3 1_555 1_555
H22 C24 1_555 1_555
C25 C24 1_555 1_555
C26 C25 1_555 1_555
H23 C26 1_555 1_555
C27 C26 1_555 1_555
H24 C27 1_555 1_555
C28 C27 1_555 1_555
H25 C28 1_555 1_555
C29 C28 1_555 1_555
H26 C29 1_555 1_555
C30 C25 1_555 1_555
H27 C30 1_555 1_555
C15 C16 1_555 1_555
C22 C23 1_555 1_555
C29 C30 1_555 1_555

#END
