
#######################################################################
#
#                 Cambridge Crystallographic Data Centre
#                                CCDC 
#
#######################################################################
#
# If this CIF has been generated from an entry in the Cambridge 
# Structural Database, then it will include bibliographic, chemical, 
# crystal, experimental, refinement or atomic coordinate data resulting 
# from the CCDC's data processing and validation procedures.
#
#######################################################################

data_REYZAY
_chemical_formula_moiety         'C18 H15 N1 O5 S1'
_chemical_name_systematic        
'Benzyl 3,10b-dihydropyrrolo[1,2-c][1,2,3]benzoxathiazine-1-carboxylate 5,5-dioxide'
_symmetry_cell_setting           triclinic
_symmetry_space_group_name_H-M   'P -1'
_symmetry_Int_Tables_number      2
_space_group_name_Hall           '-P 1'
loop_
_symmetry_equiv_pos_site_id
_symmetry_equiv_pos_as_xyz
1 x,y,z
2 -x,-y,-z
_cell_length_a                   7.114(2)
_cell_length_b                   10.785(4)
_cell_length_c                   11.671(4)
_cell_angle_alpha                67.771(7)
_cell_angle_beta                 80.788(7)
_cell_angle_gamma                88.690(8)
_cell_volume                     817.514
_exptl_crystal_colour            colorless
_exptl_crystal_description       block
_cell_formula_units_Z            2
loop_
_atom_site_label
_atom_site_type_symbol
_atom_site_fract_x
_atom_site_fract_y
_atom_site_fract_z
S1 S 0.14938(8) 0.35948(6) 0.12134(5)
O1 O 0.4298(2) 0.12233(17) 0.62676(14)
O2 O 0.1656(3) 0.02074(17) 0.61699(15)
O3 O 0.2730(3) 0.42278(19) 0.00677(14)
O4 O -0.0083(3) 0.27602(17) 0.13150(15)
O5 O 0.0725(2) 0.47792(14) 0.16297(13)
N1 N 0.2717(2) 0.27650(17) 0.22954(14)
C1 C 0.7342(4) 0.0436(2) 0.8217(2)
H1 H 0.7757 -0.0210 0.7896
C2 C 0.8547(4) 0.0932(4) 0.8736(3)
H2 H 0.9776 0.0622 0.8770
C3 C 0.7994(6) 0.1864(4) 0.9203(3)
H3 H 0.8846 0.2196 0.9555
C4 C 0.6221(7) 0.2327(3) 0.9172(3)
H4 H 0.5847 0.2980 0.9493
C5 C 0.4945(4) 0.1808(3) 0.8647(2)
H5 H 0.3708 0.2105 0.8633
C6 C 0.5513(3) 0.0864(2) 0.81542(18)
C7 C 0.4208(5) 0.0291(3) 0.7576(2)
H6 H 0.4612 -0.0585 0.7609
H7 H 0.2915 0.0196 0.8025
C8 C 0.2939(3) 0.1034(2) 0.5680(2)
C9 C 0.3195(3) 0.19717(19) 0.43475(18)
C10 C 0.4789(3) 0.2620(2) 0.36576(19)
H8 H 0.5921 0.2612 0.3963
C11 C 0.4548(3) 0.3369(2) 0.23234(19)
H9 H 0.4465 0.4324 0.2131
H10 H 0.5579 0.3217 0.1745
C12 C 0.1582(3) 0.22160(19) 0.35900(17)
H11 H 0.0922 0.1367 0.3742
C13 C 0.0165(3) 0.3207(2) 0.38284(18)
C14 C -0.0845(3) 0.2961(2) 0.5030(2)
H12 H -0.0661 0.2170 0.5687
C15 C -0.2099(3) 0.3857(3) 0.5264(3)
H13 H -0.2743 0.3668 0.6074
C16 C -0.2413(4) 0.5031(3) 0.4311(3)
H14 H -0.3246 0.5643 0.4476
C17 C -0.1479(3) 0.5293(2) 0.3109(3)
H15 H -0.1703 0.6072 0.2451
C18 C -0.0214(3) 0.4392(2) 0.2891(2)
loop_
_geom_bond_atom_site_label_1
_geom_bond_atom_site_label_2
_geom_bond_site_symmetry_1
_geom_bond_site_symmetry_2
S1 O3 1_555 1_555
O1 C7 1_555 1_555
O2 C8 1_555 1_555
O4 S1 1_555 1_555
O5 S1 1_555 1_555
N1 S1 1_555 1_555
C1 H1 1_555 1_555
C2 C1 1_555 1_555
H2 C2 1_555 1_555
C3 C2 1_555 1_555
H3 C3 1_555 1_555
C4 C3 1_555 1_555
H4 C4 1_555 1_555
C5 C4 1_555 1_555
H5 C5 1_555 1_555
C6 C1 1_555 1_555
C7 C6 1_555 1_555
H6 C7 1_555 1_555
H7 C7 1_555 1_555
C8 O1 1_555 1_555
C9 C8 1_555 1_555
C10 C9 1_555 1_555
H8 C10 1_555 1_555
C11 N1 1_555 1_555
H9 C11 1_555 1_555
H10 C11 1_555 1_555
C12 N1 1_555 1_555
H11 C12 1_555 1_555
C13 C12 1_555 1_555
C14 C13 1_555 1_555
H12 C14 1_555 1_555
C15 C14 1_555 1_555
H13 C15 1_555 1_555
C16 C15 1_555 1_555
H14 C16 1_555 1_555
C17 C16 1_555 1_555
H15 C17 1_555 1_555
C18 O5 1_555 1_555
C5 C6 1_555 1_555
C9 C12 1_555 1_555
C10 C11 1_555 1_555
C13 C18 1_555 1_555
C17 C18 1_555 1_555

#END
