
#######################################################################
#
#                 Cambridge Crystallographic Data Centre
#                                CCDC 
#
#######################################################################
#
# If this CIF has been generated from an entry in the Cambridge 
# Structural Database, then it will include bibliographic, chemical, 
# crystal, experimental, refinement or atomic coordinate data resulting 
# from the CCDC's data processing and validation procedures.
#
#######################################################################

data_REZGIO
_chemical_formula_moiety         'C17 H13 F1 N2 O2'
_chemical_name_systematic        
2-(1-Fluoro-2-(4-methoxyphenyl)vinyl)-5-phenyl-1,3,4-oxadiazole
_symmetry_cell_setting           monoclinic
_symmetry_space_group_name_H-M   'P 21/c'
_symmetry_Int_Tables_number      14
_space_group_name_Hall           '-P 2ybc'
loop_
_symmetry_equiv_pos_site_id
_symmetry_equiv_pos_as_xyz
1 x,y,z
2 -x,1/2+y,1/2-z
3 -x,-y,-z
4 x,1/2-y,1/2+z
_cell_length_a                   18.693(2)
_cell_length_b                   3.9755(5)
_cell_length_c                   19.668(2)
_cell_angle_alpha                90
_cell_angle_beta                 105.271(2)
_cell_angle_gamma                90
_cell_volume                     1410
_exptl_crystal_colour            colorless
_exptl_crystal_description       rodlike
_cell_formula_units_Z            4
loop_
_atom_site_label
_atom_site_type_symbol
_atom_site_fract_x
_atom_site_fract_y
_atom_site_fract_z
C1 C 0.56630(12) 0.2446(6) -0.04554(11)
H1 H 0.5591 0.1515 -0.0045
C2 C 0.50625(13) 0.3494(6) -0.09819(12)
H2 H 0.4585 0.3249 -0.0929
C3 C 0.51686(13) 0.4901(6) -0.15862(12)
H3 H 0.4763 0.5638 -0.1939
C4 C 0.58672(12) 0.5218(6) -0.16681(11)
H4 H 0.5936 0.6154 -0.208
C5 C 0.64726(11) 0.4163(6) -0.11459(10)
H5 H 0.6948 0.4389 -0.1205
C6 C 0.63717(10) 0.2768(5) -0.05337(9)
C7 C 0.70012(11) 0.1638(5) 0.00240(10)
C8 C 0.81353(10) 0.0999(5) 0.05674(9)
C9 C 0.89316(11) 0.1347(5) 0.07044(9)
C10 C 0.94275(10) 0.0002(5) 0.12409(9)
H6 H 0.923 -0.1301 0.154
C11 C 1.02337(10) 0.0228(4) 0.14406(9)
C12 C 1.06200(10) -0.1131(5) 0.20867(9)
H7 H 1.0353 -0.2197 0.2362
C13 C 1.13751(11) -0.0963(5) 0.23327(10)
H8 H 1.1613 -0.1871 0.2769
C14 C 1.17803(10) 0.0578(5) 0.19223(10)
C15 C 1.14100(11) 0.1910(5) 0.12725(10)
H9 H 1.168 0.2924 0.0993
C16 C 1.06562(11) 0.1755(5) 0.10374(10)
H10 H 1.042 0.2679 0.0602
C17 C 1.29213(12) -0.0471(7) 0.27714(12)
H11 H 1.276 0.0596 0.3143
H12 H 1.3444 -0.0108 0.2843
H13 H 1.2824 -0.2842 0.2773
F1 F 0.91281(6) 0.3279(3) 0.02190(6)
N1 N 0.70130(9) -0.0056(5) 0.05823(9)
N2 N 0.77620(9) -0.0481(5) 0.09437(9)
O1 O 0.76986(6) 0.2410(3) -0.00242(6)
O2 O 1.25320(7) 0.0919(4) 0.21138(8)
loop_
_geom_bond_atom_site_label_1
_geom_bond_atom_site_label_2
_geom_bond_site_symmetry_1
_geom_bond_site_symmetry_2
C1 H1 1_555 1_555
C2 C1 1_555 1_555
H2 C2 1_555 1_555
C3 C2 1_555 1_555
H3 C3 1_555 1_555
C4 C3 1_555 1_555
H4 C4 1_555 1_555
C5 C4 1_555 1_555
H5 C5 1_555 1_555
C6 C1 1_555 1_555
C7 C6 1_555 1_555
C8 C9 1_555 1_555
C9 C10 1_555 1_555
C10 H6 1_555 1_555
C11 C10 1_555 1_555
C12 C11 1_555 1_555
H7 C12 1_555 1_555
C13 C12 1_555 1_555
H8 C13 1_555 1_555
C14 C13 1_555 1_555
C15 C14 1_555 1_555
H9 C15 1_555 1_555
C16 C11 1_555 1_555
H10 C16 1_555 1_555
C17 H11 1_555 1_555
H12 C17 1_555 1_555
H13 C17 1_555 1_555
F1 C9 1_555 1_555
N1 C7 1_555 1_555
N2 C8 1_555 1_555
O1 C7 1_555 1_555
O2 C14 1_555 1_555
C5 C6 1_555 1_555
C8 O1 1_555 1_555
C15 C16 1_555 1_555
C17 O2 1_555 1_555
N1 N2 1_555 1_555

#END
