
#######################################################################
#
#                 Cambridge Crystallographic Data Centre
#                                CCDC 
#
#######################################################################
#
# If this CIF has been generated from an entry in the Cambridge 
# Structural Database, then it will include bibliographic, chemical, 
# crystal, experimental, refinement or atomic coordinate data resulting 
# from the CCDC's data processing and validation procedures.
#
#######################################################################

data_REZNAN
_chemical_formula_moiety         'C13 H11 N5 O3'
_chemical_name_systematic        
N-Methyl-N'-(2-nitrobenzylidene)pyrazine-2-carbohydrazide
_symmetry_cell_setting           monoclinic
_symmetry_space_group_name_H-M   'P 21/c'
_symmetry_Int_Tables_number      14
_space_group_name_Hall           '-P 2ybc'
loop_
_symmetry_equiv_pos_site_id
_symmetry_equiv_pos_as_xyz
1 x,y,z
2 -x,1/2+y,1/2-z
3 -x,-y,-z
4 x,1/2-y,1/2+z
_cell_length_a                   3.7974(2)
_cell_length_b                   33.3126(17)
_cell_length_c                   10.0959(5)
_cell_angle_alpha                90
_cell_angle_beta                 99.027(2)
_cell_angle_gamma                90
_cell_volume                     1261.33
_exptl_crystal_colour            yellow
_exptl_crystal_description       lath
_cell_formula_units_Z            4
loop_
_atom_site_label
_atom_site_type_symbol
_atom_site_fract_x
_atom_site_fract_y
_atom_site_fract_z
O1 O 0.3911(7) 0.65099(7) 0.7717(2)
O2 O 1.0540(8) 0.51292(8) 0.3594(3)
O3 O 0.7448(8) 0.49513(8) 0.1686(3)
N1 N 0.6819(7) 0.62022(8) 0.4785(3)
N2 N 0.5626(7) 0.61611(8) 0.5997(3)
N3 N 0.9002(8) 0.52058(9) 0.2455(3)
C1 C 0.7285(8) 0.58864(10) 0.4111(3)
H1 H 0.6922 0.5626 0.4452
C2 C 0.4829(9) 0.65095(10) 0.6602(3)
C3 C 0.8402(8) 0.59398(10) 0.2788(3)
C4 C 0.9069(8) 0.56205(10) 0.1962(3)
C5 C 0.9867(9) 0.56702(11) 0.0685(3)
H2 H 1.0223 0.5443 0.0152
C6 C 1.0141(9) 0.60516(11) 0.0193(3)
H3 H 1.0737 0.6092 -0.0676
C7 C 0.9528(10) 0.63778(11) 0.0990(4)
H4 H 0.9742 0.6643 0.0663
C8 C 0.8617(9) 0.63219(10) 0.2247(4)
H5 H 0.8125 0.6549 0.2755
N4 N 0.3203(8) 0.69483(10) 0.4634(3)
C9 C 0.5046(9) 0.69004(10) 0.5885(3)
C10 C 0.6829(9) 0.72100(10) 0.6577(3)
H6 H 0.8081 0.7163 0.7454
N5 N 0.6860(9) 0.75790(10) 0.6050(3)
C11 C 0.4941(11) 0.76297(12) 0.4819(4)
H7 H 0.4794 0.7890 0.4430
C12 C 0.3203(10) 0.73189(12) 0.4112(4)
H8 H 0.1969 0.7366 0.3232
C13 C 0.5144(9) 0.57723(10) 0.6605(3)
H9 H 0.4352 0.5812 0.7474
H10 H 0.7410 0.5626 0.6735
H11 H 0.3345 0.5617 0.6015
loop_
_geom_bond_atom_site_label_1
_geom_bond_atom_site_label_2
_geom_bond_site_symmetry_1
_geom_bond_site_symmetry_2
O1 C2 1_555 1_555
O2 N3 1_555 1_555
O3 N3 1_555 1_555
N1 N2 1_555 1_555
N2 C2 1_555 1_555
N3 C4 1_555 1_555
C1 N1 1_555 1_555
H1 C1 1_555 1_555
C2 C9 1_555 1_555
C3 C1 1_555 1_555
C4 C3 1_555 1_555
C5 C4 1_555 1_555
H2 C5 1_555 1_555
C6 C5 1_555 1_555
H3 C6 1_555 1_555
C7 C6 1_555 1_555
H4 C7 1_555 1_555
C8 C3 1_555 1_555
H5 C8 1_555 1_555
N4 C9 1_555 1_555
C9 C10 1_555 1_555
C10 H6 1_555 1_555
N5 C10 1_555 1_555
C11 N5 1_555 1_555
H7 C11 1_555 1_555
C12 N4 1_555 1_555
H8 C12 1_555 1_555
C13 N2 1_555 1_555
H9 C13 1_555 1_555
H10 C13 1_555 1_555
H11 C13 1_555 1_555
C7 C8 1_555 1_555
C11 C12 1_555 1_555

#END
