
#######################################################################
#
#                 Cambridge Crystallographic Data Centre
#                                CCDC 
#
#######################################################################
#
# If this CIF has been generated from an entry in the Cambridge 
# Structural Database, then it will include bibliographic, chemical, 
# crystal, experimental, refinement or atomic coordinate data resulting 
# from the CCDC's data processing and validation procedures.
#
#######################################################################

data_REZNIV
_chemical_formula_moiety         'C14 H11 N5 O1,2(H2 O1)'
_chemical_name_systematic        
"N'-(4-Cyanobenzylidene)-N-methylpyrazine-2-carbohydrazide dihydrate"
_symmetry_cell_setting           monoclinic
_symmetry_space_group_name_H-M   'P 21/c'
_symmetry_Int_Tables_number      14
_space_group_name_Hall           '-P 2ybc'
loop_
_symmetry_equiv_pos_site_id
_symmetry_equiv_pos_as_xyz
1 x,y,z
2 -x,1/2+y,1/2-z
3 -x,-y,-z
4 x,1/2-y,1/2+z
_cell_length_a                   19.395(3)
_cell_length_b                   3.9517(5)
_cell_length_c                   23.270(3)
_cell_angle_alpha                90
_cell_angle_beta                 124.890(9)
_cell_angle_gamma                90
_cell_volume                     1462.91
_exptl_crystal_colour            yellow
_exptl_crystal_description       lath
_cell_formula_units_Z            4
loop_
_atom_site_label
_atom_site_type_symbol
_atom_site_fract_x
_atom_site_fract_y
_atom_site_fract_z
O1 O 0.39035(9) 1.2988(4) 0.41661(8)
N1 N 0.30755(10) 0.9113(5) 0.49844(9)
N2 N 0.36554(10) 1.0804(5) 0.49269(9)
N3 N 0.23766(11) 0.9867(5) 0.30927(9)
N4 N 0.10404(12) 1.2139(6) 0.31377(10)
N5 N 0.04799(12) 0.0201(5) 0.60153(9)
C1 C 0.32763(13) 0.8270(6) 0.55927(11)
H1 H 0.3823 0.8754 0.5996
C2 C 0.34103(13) 1.1709(6) 0.42715(11)
C3 C 0.26632(12) 0.6565(6) 0.56652(10)
C4 C 0.29262(13) 0.5177(6) 0.63124(10)
H2 H 0.3499 0.5367 0.6695
C5 C 0.23719(13) 0.3541(6) 0.64061(11)
H3 H 0.2560 0.2609 0.6849
C6 C 0.15273(13) 0.3263(6) 0.58410(11)
C7 C 0.12524(13) 0.4653(6) 0.51940(10)
H4 H 0.0679 0.4462 0.4812
C8 C 0.18116(13) 0.6307(6) 0.51062(11)
H5 H 0.1620 0.7278 0.4665
C9 C 0.25017(12) 1.1206(6) 0.36732(11)
C10 C 0.18423(13) 1.2354(6) 0.36886(12)
H6 H 0.1962 1.3342 0.4109
C11 C 0.09194(14) 1.0692(7) 0.25688(12)
H7 H 0.0361 1.0421 0.2166
C12 C 0.15733(14) 0.9580(6) 0.25457(11)
H8 H 0.1452 0.8571 0.2127
C13 C 0.45005(13) 1.1569(6) 0.55350(11)
H9 H 0.4802 1.2881 0.5387
H10 H 0.4803 0.9453 0.5753
H11 H 0.4465 1.2886 0.5874
C14 C 0.09456(13) 0.1544(6) 0.59335(11)
O2 O 0.35816(10) 0.6041(5) 0.29459(8)
H12 H 0.3690 0.4650 0.3345
H13 H 0.3254 0.7863 0.2941
O3 O 0.49138(13) 0.6383(11) 0.28335(12)
H14 H 0.4499 0.6147 0.2904
H15 H 0.4701 0.4964 0.2503
loop_
_geom_bond_atom_site_label_1
_geom_bond_atom_site_label_2
_geom_bond_site_symmetry_1
_geom_bond_site_symmetry_2
O1 C2 1_555 1_555
N1 N2 1_555 1_555
N2 C2 1_555 1_555
N3 C9 1_555 1_555
N4 C10 1_555 1_555
N5 C14 1_555 1_555
C1 N1 1_555 1_555
H1 C1 1_555 1_555
C2 C9 1_555 1_555
C3 C1 1_555 1_555
C4 C3 1_555 1_555
H2 C4 1_555 1_555
C5 C4 1_555 1_555
H3 C5 1_555 1_555
C6 C5 1_555 1_555
C7 C6 1_555 1_555
H4 C7 1_555 1_555
C8 C3 1_555 1_555
H5 C8 1_555 1_555
C9 C10 1_555 1_555
C10 H6 1_555 1_555
C11 N4 1_555 1_555
H7 C11 1_555 1_555
C12 N3 1_555 1_555
H8 C12 1_555 1_555
C13 N2 1_555 1_555
H9 C13 1_555 1_555
H10 C13 1_555 1_555
H11 C13 1_555 1_555
C14 C6 1_555 1_555
O2 H12 1_555 1_555
H13 O2 1_555 1_555
O3 H14 1_555 1_555
H15 O3 1_555 1_555
C7 C8 1_555 1_555
C11 C12 1_555 1_555

#END
