
#######################################################################
#
#                 Cambridge Crystallographic Data Centre
#                                CCDC 
#
#######################################################################
#
# If this CIF has been generated from an entry in the Cambridge 
# Structural Database, then it will include bibliographic, chemical, 
# crystal, experimental, refinement or atomic coordinate data resulting 
# from the CCDC's data processing and validation procedures.
#
#######################################################################

data_REZNUH
_chemical_name_common            
'Benzaldehyde methyl(pyrazin-2-ylcarbonyl)hydrazone'
_chemical_formula_moiety         'C13 H12 N4 O1'
_chemical_name_systematic        
N'-Benzylidene-N-methylpyrazine-2-carbohydrazide
_symmetry_cell_setting           triclinic
_symmetry_space_group_name_H-M   'P -1'
_symmetry_Int_Tables_number      2
_space_group_name_Hall           '-P 1'
loop_
_symmetry_equiv_pos_site_id
_symmetry_equiv_pos_as_xyz
1 x,y,z
2 -x,-y,-z
_cell_length_a                   7.4961(3)
_cell_length_b                   7.6923(3)
_cell_length_c                   10.8821(7)
_cell_angle_alpha                73.421(5)
_cell_angle_beta                 84.844(6)
_cell_angle_gamma                88.530(6)
_cell_volume                     598.967
_exptl_crystal_colour            orange
_exptl_crystal_description       block
_cell_formula_units_Z            2
loop_
_atom_site_label
_atom_site_type_symbol
_atom_site_fract_x
_atom_site_fract_y
_atom_site_fract_z
O1 O 0.59462(13) 0.82450(11) 0.15785(9)
N1 N 0.71743(12) 0.48356(12) 0.42370(9)
N2 N 0.65947(12) 0.65306(12) 0.35592(9)
N3 N 0.51069(14) 0.38869(14) 0.21804(10)
N4 N 0.78603(14) 0.37332(14) 0.02828(10)
C1 C 0.75771(14) 0.46307(16) 0.53921(10)
H1 H 0.7479 0.5633 0.5740
C2 C 0.62923(15) 0.67640(15) 0.23037(11)
C3 C 0.81848(14) 0.28776(16) 0.61799(10)
C4 C 0.87332(16) 0.27812(17) 0.73924(11)
H2 H 0.8700 0.3838 0.7680
C5 C 0.93248(17) 0.11570(19) 0.81768(12)
H3 H 0.9713 0.1109 0.8993
C6 C 0.93520(16) -0.03992(18) 0.77750(12)
H4 H 0.9753 -0.1514 0.8316
C7 C 0.87901(16) -0.03243(17) 0.65759(12)
H5 H 0.8799 -0.1393 0.6303
C8 C 0.82177(15) 0.13007(16) 0.57781(11)
H6 H 0.7847 0.1345 0.4957
C9 C 0.64153(15) 0.51242(15) 0.18023(10)
C10 C 0.77724(16) 0.50456(16) 0.08704(11)
H7 H 0.8673 0.5955 0.0639
C11 C 0.65355(16) 0.25194(16) 0.06350(11)
H8 H 0.6518 0.1578 0.0230
C12 C 0.51892(16) 0.25938(17) 0.15723(12)
H9 H 0.4283 0.1690 0.1796
C13 C 0.65016(16) 0.80741(16) 0.40887(12)
H10 H 0.6018 0.9128 0.3468
H11 H 0.7705 0.8357 0.4262
H12 H 0.5719 0.7775 0.4892
loop_
_geom_bond_atom_site_label_1
_geom_bond_atom_site_label_2
_geom_bond_site_symmetry_1
_geom_bond_site_symmetry_2
O1 C2 1_555 1_555
N1 N2 1_555 1_555
N2 C2 1_555 1_555
N3 C9 1_555 1_555
N4 C10 1_555 1_555
C1 N1 1_555 1_555
H1 C1 1_555 1_555
C2 C9 1_555 1_555
C3 C1 1_555 1_555
C4 C3 1_555 1_555
H2 C4 1_555 1_555
C5 C4 1_555 1_555
H3 C5 1_555 1_555
C6 C5 1_555 1_555
H4 C6 1_555 1_555
C7 C6 1_555 1_555
H5 C7 1_555 1_555
C8 C3 1_555 1_555
H6 C8 1_555 1_555
C9 C10 1_555 1_555
C10 H7 1_555 1_555
C11 N4 1_555 1_555
H8 C11 1_555 1_555
C12 N3 1_555 1_555
H9 C12 1_555 1_555
C13 N2 1_555 1_555
H10 C13 1_555 1_555
H11 C13 1_555 1_555
H12 C13 1_555 1_555
C7 C8 1_555 1_555
C11 C12 1_555 1_555

#END
