
#######################################################################
#
#                 Cambridge Crystallographic Data Centre
#                                CCDC 
#
#######################################################################
#
# If this CIF has been generated from an entry in the Cambridge 
# Structural Database, then it will include bibliographic, chemical, 
# crystal, experimental, refinement or atomic coordinate data resulting 
# from the CCDC's data processing and validation procedures.
#
#######################################################################

data_REZQAP
_chemical_formula_moiety         'C22 H17 N3 O3'
_chemical_name_systematic        
4-(4-Methoxyphenyl)-3-methyl-1-phenyl-1,7-dihydro-5H-furo(3,4-b)pyrazolo(4,3-e)pyridin-5-one
_symmetry_cell_setting           monoclinic
_symmetry_space_group_name_H-M   'P 21/c'
_symmetry_Int_Tables_number      14
_space_group_name_Hall           '-P 2ybc'
loop_
_symmetry_equiv_pos_site_id
_symmetry_equiv_pos_as_xyz
1 x,y,z
2 -x,1/2+y,1/2-z
3 -x,-y,-z
4 x,1/2-y,1/2+z
_cell_length_a                   11.480(4)
_cell_length_b                   20.913(7)
_cell_length_c                   7.524(3)
_cell_angle_alpha                90
_cell_angle_beta                 99.862(6)
_cell_angle_gamma                90
_cell_volume                     1779.68
_exptl_crystal_colour            'light yellow'
_exptl_crystal_description       block
_chemical_melting_point          '475-477 K'
_cell_formula_units_Z            4
_exptl_crystal_recrystallization_method ethanol/water
loop_
_atom_site_label
_atom_site_type_symbol
_atom_site_fract_x
_atom_site_fract_y
_atom_site_fract_z
N1 N 0.8510(3) 0.19261(17) 1.0011(5)
N2 N 1.0168(3) 0.25294(18) 1.1581(5)
N3 N 1.0437(3) 0.31623(18) 1.1966(5)
O1 O 0.5635(3) 0.18552(15) 0.7272(4)
O2 O 0.5111(3) 0.28535(16) 0.6502(5)
O3 O 0.5779(3) 0.56237(15) 0.6724(5)
C1 C 0.9079(4) 0.2472(2) 1.0525(6)
C2 C 0.9557(4) 0.3509(2) 1.1098(7)
C3 C 0.8667(4) 0.3101(2) 1.0139(6)
C4 C 0.7559(4) 0.3195(2) 0.9035(6)
C5 C 0.6952(4) 0.2625(2) 0.8535(6)
C6 C 0.5817(4) 0.2498(2) 0.7354(7)
C7 C 0.6601(4) 0.1517(2) 0.8356(7)
H1 H 0.6953 0.1213 0.7632
H2 H 0.6335 0.1292 0.9340
C8 C 0.7457(4) 0.2032(2) 0.9051(6)
C9 C 1.0995(4) 0.2051(2) 1.2352(6)
C10 C 1.0830(4) 0.1421(2) 1.1852(7)
H3 H 1.0190 0.1300 1.0986
C11 C 1.1636(5) 0.0970(3) 1.2661(8)
H4 H 1.1537 0.0541 1.2335
C12 C 1.2577(5) 0.1152(3) 1.3939(8)
H5 H 1.3097 0.0845 1.4510
C13 C 1.2752(5) 0.1780(3) 1.4375(8)
H6 H 1.3413 0.1904 1.5198
C14 C 1.1951(4) 0.2234(3) 1.3600(7)
H7 H 1.2059 0.2662 1.3922
C15 C 0.9603(5) 0.4217(2) 1.1403(8)
H8 H 1.0199 0.4314 1.2427
H9 H 0.8848 0.4364 1.1625
H10 H 0.9791 0.4427 1.0354
C16 C 0.7089(4) 0.3838(2) 0.8422(6)
C17 C 0.5959(4) 0.4040(2) 0.8610(6)
H11 H 0.5473 0.3769 0.9137
C18 C 0.5559(4) 0.4631(2) 0.8032(6)
H12 H 0.4807 0.4762 0.8182
C19 C 0.6265(4) 0.5041(2) 0.7218(6)
C20 C 0.7377(4) 0.4848(2) 0.7004(6)
H13 H 0.7853 0.5120 0.6460
C21 C 0.7784(4) 0.4252(2) 0.7598(6)
H14 H 0.8536 0.4124 0.7446
C22 C 0.6498(5) 0.6070(2) 0.5954(7)
H15 H 0.6090 0.6471 0.5756
H16 H 0.6654 0.5907 0.4826
H17 H 0.7231 0.6131 0.6765
loop_
_geom_bond_atom_site_label_1
_geom_bond_atom_site_label_2
_geom_bond_site_symmetry_1
_geom_bond_site_symmetry_2
N1 C1 1_555 1_555
N2 N3 1_555 1_555
N3 C2 1_555 1_555
O1 C6 1_555 1_555
O2 C6 1_555 1_555
O3 C19 1_555 1_555
C1 N2 1_555 1_555
C2 C3 1_555 1_555
C3 C1 1_555 1_555
C4 C3 1_555 1_555
C5 C4 1_555 1_555
C6 C5 1_555 1_555
C7 O1 1_555 1_555
H1 C7 1_555 1_555
H2 C7 1_555 1_555
C8 N1 1_555 1_555
C9 N2 1_555 1_555
C10 C9 1_555 1_555
H3 C10 1_555 1_555
C11 C10 1_555 1_555
H4 C11 1_555 1_555
C12 C11 1_555 1_555
H5 C12 1_555 1_555
C13 C12 1_555 1_555
H6 C13 1_555 1_555
C14 C9 1_555 1_555
H7 C14 1_555 1_555
C15 C2 1_555 1_555
H8 C15 1_555 1_555
H9 C15 1_555 1_555
H10 C15 1_555 1_555
C16 C4 1_555 1_555
C17 C16 1_555 1_555
H11 C17 1_555 1_555
C18 C17 1_555 1_555
H12 C18 1_555 1_555
C19 C18 1_555 1_555
C20 C19 1_555 1_555
H13 C20 1_555 1_555
C21 C16 1_555 1_555
H14 C21 1_555 1_555
C22 O3 1_555 1_555
H15 C22 1_555 1_555
H16 C22 1_555 1_555
H17 C22 1_555 1_555
C5 C8 1_555 1_555
C7 C8 1_555 1_555
C13 C14 1_555 1_555
C20 C21 1_555 1_555

#END
