
#######################################################################
#
#                 Cambridge Crystallographic Data Centre
#                                CCDC 
#
#######################################################################
#
# If this CIF has been generated from an entry in the Cambridge 
# Structural Database, then it will include bibliographic, chemical, 
# crystal, experimental, refinement or atomic coordinate data resulting 
# from the CCDC's data processing and validation procedures.
#
#######################################################################

data_REZSUN
_chemical_formula_moiety         'C16 H17 N1 O4'
_chemical_name_systematic        
'dimethyl 2-phenyl-2-azabicyclo[3.2.0]hept-6-ene-6,7-dicarboxylate'
_symmetry_cell_setting           monoclinic
_symmetry_space_group_name_H-M   'P 21/c'
_symmetry_Int_Tables_number      14
_space_group_name_Hall           '-P 2ybc'
loop_
_symmetry_equiv_pos_site_id
_symmetry_equiv_pos_as_xyz
1 x,y,z
2 -x,1/2+y,1/2-z
3 -x,-y,-z
4 x,1/2-y,1/2+z
_cell_length_a                   11.9369(6)
_cell_length_b                   12.8573(6)
_cell_length_c                   9.3580(4)
_cell_angle_alpha                90
_cell_angle_beta                 97.283(5)
_cell_angle_gamma                90
_cell_volume                     1424.64
_exptl_crystal_colour            'dark yellow'
_exptl_crystal_description       block
_cell_formula_units_Z            4
loop_
_atom_site_label
_atom_site_type_symbol
_atom_site_fract_x
_atom_site_fract_y
_atom_site_fract_z
O1 O 0.7817(2) 0.44784(19) 0.3767(3)
O2 O 0.86191(19) 0.60287(16) 0.4126(2)
O3 O 1.04195(19) 0.6112(2) 0.1872(3)
O4 O 0.99246(17) 0.65908(18) -0.0402(2)
N1 N 0.59783(19) 0.61892(17) 0.0570(2)
C1 C 0.6347(3) 0.7110(2) -0.0162(3)
H1 H 0.6772 0.7577 0.0519
H2 H 0.5704 0.7482 -0.0656
C2 C 0.7085(2) 0.6684(2) -0.1225(3)
H3 H 0.7656 0.7186 -0.1409
H4 H 0.6636 0.6506 -0.2130
C3 C 0.7624(2) 0.5719(2) -0.0493(3)
H5 H 0.7775 0.5162 -0.1157
C4 C 0.6840(2) 0.5397(2) 0.0648(3)
H6 H 0.6558 0.4681 0.0562
C5 C 0.7891(2) 0.5556(2) 0.1769(3)
C6 C 0.8530(2) 0.5859(2) 0.0773(3)
C7 C 0.8085(2) 0.5297(2) 0.3316(3)
C8 C 0.8842(3) 0.5810(3) 0.5664(3)
H7 H 0.9264 0.5175 0.5811
H8 H 0.8140 0.5740 0.6053
H9 H 0.9270 0.6371 0.6140
C9 C 0.9721(3) 0.6190(2) 0.0843(3)
C10 C 1.1040(3) 0.7025(3) -0.0475(4)
H10 H 1.1090 0.7263 -0.1437
H11 H 1.1602 0.6501 -0.0217
H12 H 1.1163 0.7599 0.0182
C11 C 0.5189(2) 0.6250(2) 0.1530(3)
C12 C 0.4457(2) 0.7101(2) 0.1525(3)
H13 H 0.4539 0.7656 0.0910
C13 C 0.3620(3) 0.7136(3) 0.2410(3)
H14 H 0.3144 0.7711 0.2376
C14 C 0.3475(3) 0.6332(3) 0.3346(3)
H15 H 0.2901 0.6351 0.3930
C15 C 0.4205(3) 0.5500(3) 0.3390(3)
H16 H 0.4127 0.4957 0.4026
C16 C 0.5055(2) 0.5451(2) 0.2508(3)
H17 H 0.5540 0.4882 0.2568
loop_
_geom_bond_atom_site_label_1
_geom_bond_atom_site_label_2
_geom_bond_site_symmetry_1
_geom_bond_site_symmetry_2
O1 C7 1_555 1_555
O2 C7 1_555 1_555
O3 C9 1_555 1_555
O4 C9 1_555 1_555
N1 C1 1_555 1_555
C1 H1 1_555 1_555
H2 C1 1_555 1_555
C2 C1 1_555 1_555
H3 C2 1_555 1_555
H4 C2 1_555 1_555
C3 C2 1_555 1_555
H5 C3 1_555 1_555
C4 N1 1_555 1_555
H6 C4 1_555 1_555
C5 C4 1_555 1_555
C6 C3 1_555 1_555
C7 C5 1_555 1_555
C8 O2 1_555 1_555
H7 C8 1_555 1_555
H8 C8 1_555 1_555
H9 C8 1_555 1_555
C9 C6 1_555 1_555
C10 O4 1_555 1_555
H10 C10 1_555 1_555
H11 C10 1_555 1_555
H12 C10 1_555 1_555
C11 N1 1_555 1_555
C12 C11 1_555 1_555
H13 C12 1_555 1_555
C13 C12 1_555 1_555
H14 C13 1_555 1_555
C14 C13 1_555 1_555
H15 C14 1_555 1_555
C15 C14 1_555 1_555
H16 C15 1_555 1_555
C16 C11 1_555 1_555
H17 C16 1_555 1_555
C3 C4 1_555 1_555
C5 C6 1_555 1_555
C15 C16 1_555 1_555

#END
