
#######################################################################
#
#                 Cambridge Crystallographic Data Centre
#                                CCDC 
#
#######################################################################
#
# If this CIF has been generated from an entry in the Cambridge 
# Structural Database, then it will include bibliographic, chemical, 
# crystal, experimental, refinement or atomic coordinate data resulting 
# from the CCDC's data processing and validation procedures.
#
#######################################################################

data_REZVUQ
_chemical_formula_moiety         'C18 H13 N4 S2 1+,C1 H4 O1,Cl1 1-'
_chemical_name_systematic        
'1-amino-2-(1,3-benzothiazol-2-yl)-3H-pyrido[2,1-b][1,3]benzothiazol-3-iminium chloride methanol solvate'
_symmetry_cell_setting           monoclinic
_symmetry_space_group_name_H-M   'P 21/n'
_symmetry_Int_Tables_number      14
_space_group_name_Hall           '-P 2yn'
loop_
_symmetry_equiv_pos_site_id
_symmetry_equiv_pos_as_xyz
1 x,y,z
2 1/2-x,1/2+y,1/2-z
3 -x,-y,-z
4 1/2+x,1/2-y,1/2+z
_cell_length_a                   7.37210(18)
_cell_length_b                   13.9362(3)
_cell_length_c                   17.7986(4)
_cell_angle_alpha                90
_cell_angle_beta                 96.104(2)
_cell_angle_gamma                90
_cell_volume                     1818.24
_exptl_crystal_colour            yellow
_exptl_crystal_description       block
_cell_formula_units_Z            4
loop_
_atom_site_label
_atom_site_type_symbol
_atom_site_fract_x
_atom_site_fract_y
_atom_site_fract_z
S1 S 0.67663(6) 0.08586(3) 0.52412(2)
S2 S 0.81551(6) 0.56767(3) 0.41246(2)
N1 N 0.73145(19) 0.40761(10) 0.63079(7)
H1 H 0.7647 0.3772 0.6737
H2 H 0.7409 0.4712 0.6321
N2 N 0.67728(18) 0.26333(9) 0.56831(7)
N3 N 0.6643(2) 0.38074(10) 0.35622(7)
H3 H 0.6541 0.3405 0.3179
H4 H 0.6580 0.4430 0.3480
N4 N 0.72134(19) 0.56657(9) 0.54860(7)
C1 C 0.7082(2) 0.36091(11) 0.56493(9)
C2 C 0.7107(2) 0.40587(11) 0.49349(8)
C3 C 0.6894(2) 0.34723(12) 0.42706(9)
C4 C 0.6980(2) 0.24658(12) 0.43563(9)
H5 H 0.7099 0.2067 0.3932
C5 C 0.6894(2) 0.20722(12) 0.50466(9)
C6 C 0.6256(2) 0.11080(12) 0.61616(9)
C7 C 0.6272(2) 0.20925(12) 0.63134(9)
C8 C 0.5678(2) 0.24309(12) 0.69800(9)
H6 H 0.5615 0.3100 0.7078
C9 C 0.5179(2) 0.17627(13) 0.74971(9)
H7 H 0.4769 0.1982 0.7955
C10 C 0.5260(2) 0.07818(13) 0.73656(10)
H8 H 0.4960 0.0342 0.7741
C11 C 0.5778(2) 0.04429(13) 0.66874(9)
H9 H 0.5805 -0.0226 0.6585
C12 C 0.7411(2) 0.50932(12) 0.49142(8)
C13 C 0.8144(2) 0.67607(12) 0.46003(9)
C14 C 0.7613(2) 0.66053(12) 0.53219(9)
C15 C 0.7468(2) 0.73874(12) 0.58114(9)
H10 H 0.7100 0.7297 0.6302
C16 C 0.7875(2) 0.82883(12) 0.55579(10)
H11 H 0.7796 0.8823 0.5883
C17 C 0.8401(2) 0.84372(12) 0.48344(9)
H12 H 0.8669 0.9069 0.4678
C18 C 0.8538(2) 0.76753(12) 0.43415(9)
H13 H 0.8885 0.7772 0.3848
Cl1 Cl 0.04759(6) 0.31323(3) 0.75065(2)
O1 O 0.39267(19) 0.45279(9) 0.75328(7)
H14 H 0.3065 0.4133 0.7530
C19 C 0.4141(3) 0.50180(15) 0.82343(10)
H15 H 0.4146 0.4553 0.8647
H16 H 0.3129 0.5469 0.8258
H17 H 0.5297 0.5371 0.8282
loop_
_geom_bond_atom_site_label_1
_geom_bond_atom_site_label_2
_geom_bond_site_symmetry_1
_geom_bond_site_symmetry_2
S1 C5 1_555 1_555
S2 C12 1_555 1_555
N1 H1 1_555 1_555
H2 N1 1_555 1_555
N2 C1 1_555 1_555
N3 H3 1_555 1_555
H4 N3 1_555 1_555
N4 C12 1_555 1_555
C1 N1 1_555 1_555
C2 C1 1_555 1_555
C3 N3 1_555 1_555
C4 C3 1_555 1_555
H5 C4 1_555 1_555
C5 N2 1_555 1_555
C6 S1 1_555 1_555
C7 N2 1_555 1_555
C8 C7 1_555 1_555
H6 C8 1_555 1_555
C9 C8 1_555 1_555
H7 C9 1_555 1_555
C10 C9 1_555 1_555
H8 C10 1_555 1_555
C11 C6 1_555 1_555
H9 C11 1_555 1_555
C12 C2 1_555 1_555
C13 S2 1_555 1_555
C14 N4 1_555 1_555
C15 C14 1_555 1_555
H10 C15 1_555 1_555
C16 C15 1_555 1_555
H11 C16 1_555 1_555
C17 C16 1_555 1_555
H12 C17 1_555 1_555
C18 C13 1_555 1_555
H13 C18 1_555 1_555
O1 H14 1_555 1_555
C19 O1 1_555 1_555
H15 C19 1_555 1_555
H16 C19 1_555 1_555
H17 C19 1_555 1_555
C2 C3 1_555 1_555
C4 C5 1_555 1_555
C6 C7 1_555 1_555
C10 C11 1_555 1_555
C13 C14 1_555 1_555
C17 C18 1_555 1_555

#END
