
#######################################################################
#
#                 Cambridge Crystallographic Data Centre
#                                CCDC 
#
#######################################################################
#
# If this CIF has been generated from an entry in the Cambridge 
# Structural Database, then it will include bibliographic, chemical, 
# crystal, experimental, refinement or atomic coordinate data resulting 
# from the CCDC's data processing and validation procedures.
#
#######################################################################

data_REZVIE
_chemical_formula_moiety         'C32 H46 Br1 N3 O7 Si1'
_chemical_name_systematic        
'dimethyl [5-{6-bromo-1-[t-butyl(dimethyl)silyl]-1H-indol-3-yl}-1,3-bis(2,2-dimethylpropanoyl)-2-oxoimidazolidin-4-yl]propanedioate'
_symmetry_cell_setting           monoclinic
_symmetry_space_group_name_H-M   'P 21'
_symmetry_Int_Tables_number      4
_space_group_name_Hall           'P 2yb'
loop_
_symmetry_equiv_pos_site_id
_symmetry_equiv_pos_as_xyz
1 x,y,z
2 -x,1/2+y,-z
_cell_length_a                   12.2332(2)
_cell_length_b                   25.9006(3)
_cell_length_c                   12.4380(2)
_cell_angle_alpha                90
_cell_angle_beta                 113.387(2)
_cell_angle_gamma                90
_cell_volume                     3617.18
_exptl_crystal_colour            colorless
_exptl_crystal_description       prism
_cell_formula_units_Z            4
_exptl_crystal_recrystallization_method Methanol
loop_
_atom_site_label
_atom_site_type_symbol
_atom_site_fract_x
_atom_site_fract_y
_atom_site_fract_z
Br1 Br 1.17243(4) 0.42204(2) 1.24780(4)
Si1 Si 0.81471(11) 0.32178(5) 0.80351(10)
O1 O 0.4791(3) 0.48990(12) 0.8794(3)
O2 O 0.3114(4) 0.34689(13) 0.7420(3)
O3 O 0.4184(3) 0.26182(12) 1.0585(3)
O4 O 0.2166(3) 0.39513(14) 0.9775(3)
O5 O 0.3389(3) 0.45893(12) 1.0783(3)
O6 O 0.5970(3) 0.41056(14) 1.2540(3)
O7 O 0.4441(3) 0.40147(13) 1.3072(3)
N1 N 0.4290(3) 0.40702(13) 0.8777(3)
N2 N 0.4105(3) 0.32760(13) 0.9407(3)
N3 N 0.7709(3) 0.35616(14) 0.9052(3)
C1 C 0.3736(4) 0.35922(17) 0.8403(4)
C2 C 0.5293(4) 0.40139(15) 0.9930(3)
H1 H 0.539022 0.433528 1.040506
C3 C 0.4842(4) 0.35691(15) 1.0462(3)
H2 H 0.553149 0.335189 1.096309
C4 C 0.3824(4) 0.27609(16) 0.9573(4)
C5 C 0.3151(4) 0.23901(17) 0.8560(4)
C6 C 0.3804(5) 0.2330(2) 0.7744(5)
H3 H 0.380573 0.266168 0.736431
H4 H 0.339801 0.207031 0.714565
H5 H 0.462585 0.222070 0.819842
C7 C 0.1853(4) 0.2563(2) 0.7908(5)
H6 H 0.150591 0.264347 0.847621
H7 H 0.139551 0.228568 0.738887
H8 H 0.182794 0.287182 0.744226
C8 C 0.3124(6) 0.18630(19) 0.9120(5)
H9 H 0.394106 0.174198 0.955478
H10 H 0.269409 0.161342 0.850526
H11 H 0.272025 0.189803 0.965725
C9 C 0.4116(4) 0.45602(16) 0.8244(4)
C10 C 0.3134(5) 0.46678(19) 0.7032(4)
C11 C 0.3082(8) 0.5256(2) 0.6877(6)
H12 H 0.294751 0.541752 0.752654
H13 H 0.242923 0.534621 0.613487
H14 H 0.383725 0.537943 0.687188
C12 C 0.3515(6) 0.4415(2) 0.6122(5)
H15 H 0.431956 0.452984 0.624802
H16 H 0.295925 0.451485 0.533417
H17 H 0.350815 0.403880 0.620210
C13 C 0.1892(5) 0.4492(3) 0.6911(5)
H18 H 0.188146 0.411575 0.698137
H19 H 0.129993 0.459785 0.614439
H20 H 0.170163 0.465166 0.753061
C14 C 0.6428(4) 0.38870(15) 0.9800(4)
C15 C 0.6533(4) 0.36256(17) 0.8890(4)
H21 H 0.587552 0.350289 0.822553
C16 C 0.8393(4) 0.37907(15) 1.0117(4)
C17 C 0.9623(4) 0.38459(16) 1.0669(4)
H22 H 1.014248 0.370272 1.034759
C18 C 1.0050(4) 0.41197(15) 1.1707(3)
C19 C 0.9312(4) 0.43332(16) 1.2213(4)
H23 H 0.964983 0.451571 1.293326
C20 C 0.8096(4) 0.42770(16) 1.1661(4)
H24 H 0.758711 0.442389 1.199015
C21 C 0.7618(4) 0.39992(15) 1.0604(4)
C22 C 0.9473(5) 0.3532(2) 0.7936(4)
H25 H 0.935806 0.390720 0.788142
H26 H 0.957467 0.340634 0.723837
H27 H 1.018374 0.344835 0.863612
C23 C 0.6877(5) 0.3291(2) 0.6588(4)
H28 H 0.619852 0.308728 0.657996
H29 H 0.711532 0.316838 0.596732
H30 H 0.664868 0.365550 0.645526
C24 C 0.8407(5) 0.25237(18) 0.8516(5)
C25 C 0.8635(6) 0.2213(2) 0.7569(5)
H31 H 0.793061 0.223185 0.683002
H32 H 0.879635 0.185230 0.781606
H33 H 0.932238 0.235874 0.745773
C26 C 0.7301(6) 0.2302(2) 0.8640(6)
H34 H 0.660157 0.235600 0.790967
H35 H 0.718180 0.247616 0.928444
H36 H 0.741306 0.193107 0.880600
C27 C 0.9487(6) 0.2477(2) 0.9701(5)
H37 H 0.934797 0.268671 1.029027
H38 H 1.020558 0.259872 0.961388
H39 H 0.959214 0.211476 0.995158
C28 C 0.4121(4) 0.37386(16) 1.1181(3)
H40 H 0.377180 0.342155 1.137768
C29 C 0.3102(4) 0.40972(17) 1.0493(4)
C30 C 0.2460(5) 0.4966(2) 1.0237(5)
H41 H 0.235684 0.501803 0.942241
H42 H 0.268065 0.529342 1.066291
H43 H 0.171150 0.484057 1.025652
C31 C 0.4972(4) 0.39789(16) 1.2330(4)
C32 C 0.5123(5) 0.4270(2) 1.4171(4)
H44 H 0.519542 0.463799 1.402857
H45 H 0.591835 0.411531 1.452280
H46 H 0.471731 0.422922 1.470483
Br2 Br -0.10674(4) 0.57167(2) 0.26828(4)
Si2 Si 0.23979(11) 0.68034(5) 0.70451(10)
O8 O 0.5135(3) 0.73359(13) 0.4409(3)
O9 O 0.7680(4) 0.66101(13) 0.7414(3)
O10 O 0.6854(3) 0.50424(12) 0.6451(3)
O11 O 0.8631(3) 0.55831(14) 0.5529(3)
O12 O 0.7477(3) 0.49773(13) 0.4296(3)
O13 O 0.4806(3) 0.54628(14) 0.2778(3)
O14 O 0.6290(3) 0.57182(15) 0.2276(3)
N4 N 0.6127(3) 0.66938(13) 0.5575(3)
N5 N 0.6696(3) 0.58987(14) 0.6295(3)
N6 N 0.2853(4) 0.65168(15) 0.5978(3)
C33 C 0.6926(4) 0.64231(16) 0.6544(4)
C34 C 0.5203(4) 0.63394(16) 0.4803(4)
H47 H 0.497519 0.644055 0.396582
C35 C 0.5909(4) 0.58333(16) 0.5056(4)
H48 H 0.537212 0.552875 0.494120
C36 C 0.6003(4) 0.72229(16) 0.5281(4)
C37 C 0.6912(4) 0.76302(16) 0.5981(4)
C38 C 0.6546(6) 0.81362(18) 0.5291(4)
H49 H 0.573322 0.822727 0.519042
H50 H 0.657578 0.809279 0.452011
H51 H 0.709327 0.841205 0.571975
C39 C 0.6844(5) 0.77123(18) 0.7185(4)
H52 H 0.704203 0.738889 0.763010
H53 H 0.603650 0.781915 0.706799
H54 H 0.741194 0.798095 0.761984
C40 C 0.8175(4) 0.7492(2) 0.6100(5)
H55 H 0.843254 0.717312 0.655369
H56 H 0.872158 0.777307 0.650351
H57 H 0.817775 0.744329 0.532018
C41 C 0.7132(4) 0.54497(16) 0.6977(4)
C42 C 0.7877(5) 0.54721(17) 0.8297(4)
C43 C 0.7249(5) 0.5790(2) 0.8929(4)
H58 H 0.718634 0.615072 0.867187
H59 H 0.771020 0.577225 0.977677
H60 H 0.644936 0.565037 0.874090
C44 C 0.9133(5) 0.5673(2) 0.8544(5)
H61 H 0.950649 0.545354 0.814451
H62 H 0.961110 0.566600 0.938985
H63 H 0.908298 0.602825 0.825678
C45 C 0.7989(6) 0.4915(2) 0.8753(5)
H64 H 0.719410 0.477487 0.858330
H65 H 0.845618 0.491249 0.960070
H66 H 0.838957 0.470348 0.836540
C46 C 0.4120(4) 0.63369(16) 0.5089(4)
C47 C 0.4003(4) 0.65566(17) 0.6037(4)
H67 H 0.463677 0.671769 0.666301
C48 C 0.2202(4) 0.62632(15) 0.4932(4)
C49 C 0.0987(4) 0.61394(16) 0.4442(4)
H68 H 0.046811 0.623194 0.481159
C50 C 0.0586(4) 0.58751(16) 0.3391(4)
C51 C 0.1321(4) 0.5730(2) 0.2827(4)
H69 H 0.100150 0.554315 0.211250
C52 C 0.2522(4) 0.58601(17) 0.3312(4)
H70 H 0.303163 0.576403 0.293546
C53 C 0.2967(4) 0.61366(16) 0.4372(4)
C54 C 0.3666(5) 0.6701(2) 0.8481(4)
H71 H 0.384187 0.633095 0.859984
H72 H 0.345395 0.683300 0.911158
H73 H 0.436916 0.688439 0.848835
C55 C 0.1053(5) 0.6471(2) 0.7069(5)
H74 H 0.035305 0.656806 0.637038
H75 H 0.093252 0.657525 0.777202
H76 H 0.116726 0.609670 0.707785
C56 C 0.2103(4) 0.75096(18) 0.6670(4)
C57 C 0.3212(5) 0.7770(2) 0.6606(5)
H77 H 0.341949 0.759691 0.601222
H78 H 0.388145 0.774501 0.737005
H79 H 0.303847 0.813483 0.639487
C58 C 0.1808(6) 0.7780(2) 0.7625(5)
H80 H 0.247854 0.774144 0.838430
H81 H 0.109399 0.762365 0.766184
H82 H 0.166237 0.814798 0.743645
C59 C 0.1060(5) 0.7571(2) 0.5478(5)
H83 H 0.126023 0.740561 0.487080
H84 H 0.090463 0.793873 0.529764
H85 H 0.034797 0.740742 0.550321
C60 C 0.6616(4) 0.57964(16) 0.4262(4)
H86 H 0.691137 0.615096 0.420431
C61 C 0.5788(4) 0.56333(16) 0.3032(4)
C62 C 0.5610(5) 0.5536(2) 0.1090(4)
H87 H 0.612412 0.552904 0.065408
H88 H 0.493799 0.576977 0.069863
H89 H 0.531006 0.518803 0.111803
C63 C 0.7704(4) 0.54450(18) 0.4777(4)
C64 C 0.8428(5) 0.4607(2) 0.4794(5)
H90 H 0.820096 0.428028 0.436413
H91 H 0.857630 0.454876 0.561886
H92 H 0.915349 0.473991 0.473716
loop_
_geom_bond_atom_site_label_1
_geom_bond_atom_site_label_2
_geom_bond_site_symmetry_1
_geom_bond_site_symmetry_2
Br1 C18 1_555 1_555
Si1 N3 1_555 1_555
O1 C9 1_555 1_555
O2 C1 1_555 1_555
O3 C4 1_555 1_555
O4 C29 1_555 1_555
O5 C29 1_555 1_555
O6 C31 1_555 1_555
O7 C31 1_555 1_555
N1 C1 1_555 1_555
N2 C1 1_555 1_555
N3 C15 1_555 1_555
C2 N1 1_555 1_555
H1 C2 1_555 1_555
C3 N2 1_555 1_555
H2 C3 1_555 1_555
C4 N2 1_555 1_555
C5 C4 1_555 1_555
C6 C5 1_555 1_555
H3 C6 1_555 1_555
H4 C6 1_555 1_555
H5 C6 1_555 1_555
C7 C5 1_555 1_555
H6 C7 1_555 1_555
H7 C7 1_555 1_555
H8 C7 1_555 1_555
C8 C5 1_555 1_555
H9 C8 1_555 1_555
H10 C8 1_555 1_555
H11 C8 1_555 1_555
C9 N1 1_555 1_555
C10 C9 1_555 1_555
C11 C10 1_555 1_555
H12 C11 1_555 1_555
H13 C11 1_555 1_555
H14 C11 1_555 1_555
C12 C10 1_555 1_555
H15 C12 1_555 1_555
H16 C12 1_555 1_555
H17 C12 1_555 1_555
C13 C10 1_555 1_555
H18 C13 1_555 1_555
H19 C13 1_555 1_555
H20 C13 1_555 1_555
C14 C2 1_555 1_555
C15 C14 1_555 1_555
H21 C15 1_555 1_555
C16 N3 1_555 1_555
C17 C16 1_555 1_555
H22 C17 1_555 1_555
C18 C17 1_555 1_555
C19 C18 1_555 1_555
H23 C19 1_555 1_555
C20 C19 1_555 1_555
H24 C20 1_555 1_555
C21 C14 1_555 1_555
C22 Si1 1_555 1_555
H25 C22 1_555 1_555
H26 C22 1_555 1_555
H27 C22 1_555 1_555
C23 Si1 1_555 1_555
H28 C23 1_555 1_555
H29 C23 1_555 1_555
H30 C23 1_555 1_555
C24 Si1 1_555 1_555
C25 C24 1_555 1_555
H31 C25 1_555 1_555
H32 C25 1_555 1_555
H33 C25 1_555 1_555
C26 C24 1_555 1_555
H34 C26 1_555 1_555
H35 C26 1_555 1_555
H36 C26 1_555 1_555
C27 C24 1_555 1_555
H37 C27 1_555 1_555
H38 C27 1_555 1_555
H39 C27 1_555 1_555
C28 C3 1_555 1_555
H40 C28 1_555 1_555
C29 C28 1_555 1_555
C30 O5 1_555 1_555
H41 C30 1_555 1_555
H42 C30 1_555 1_555
H43 C30 1_555 1_555
C31 C28 1_555 1_555
C32 O7 1_555 1_555
H44 C32 1_555 1_555
H45 C32 1_555 1_555
H46 C32 1_555 1_555
Br2 C50 1_555 1_555
Si2 N6 1_555 1_555
O8 C36 1_555 1_555
O9 C33 1_555 1_555
O10 C41 1_555 1_555
O11 C63 1_555 1_555
O12 C63 1_555 1_555
O13 C61 1_555 1_555
O14 C61 1_555 1_555
N4 C33 1_555 1_555
N5 C33 1_555 1_555
N6 C47 1_555 1_555
C34 N4 1_555 1_555
H47 C34 1_555 1_555
C35 N5 1_555 1_555
H48 C35 1_555 1_555
C36 N4 1_555 1_555
C37 C36 1_555 1_555
C38 C37 1_555 1_555
H49 C38 1_555 1_555
H50 C38 1_555 1_555
H51 C38 1_555 1_555
C39 C37 1_555 1_555
H52 C39 1_555 1_555
H53 C39 1_555 1_555
H54 C39 1_555 1_555
C40 C37 1_555 1_555
H55 C40 1_555 1_555
H56 C40 1_555 1_555
H57 C40 1_555 1_555
C41 N5 1_555 1_555
C42 C41 1_555 1_555
C43 C42 1_555 1_555
H58 C43 1_555 1_555
H59 C43 1_555 1_555
H60 C43 1_555 1_555
C44 C42 1_555 1_555
H61 C44 1_555 1_555
H62 C44 1_555 1_555
H63 C44 1_555 1_555
C45 C42 1_555 1_555
H64 C45 1_555 1_555
H65 C45 1_555 1_555
H66 C45 1_555 1_555
C46 C34 1_555 1_555
C47 C46 1_555 1_555
H67 C47 1_555 1_555
C48 N6 1_555 1_555
C49 C48 1_555 1_555
H68 C49 1_555 1_555
C50 C49 1_555 1_555
C51 C50 1_555 1_555
H69 C51 1_555 1_555
C52 C51 1_555 1_555
H70 C52 1_555 1_555
C53 C46 1_555 1_555
C54 Si2 1_555 1_555
H71 C54 1_555 1_555
H72 C54 1_555 1_555
H73 C54 1_555 1_555
C55 Si2 1_555 1_555
H74 C55 1_555 1_555
H75 C55 1_555 1_555
H76 C55 1_555 1_555
C56 Si2 1_555 1_555
C57 C56 1_555 1_555
H77 C57 1_555 1_555
H78 C57 1_555 1_555
H79 C57 1_555 1_555
C58 C56 1_555 1_555
H80 C58 1_555 1_555
H81 C58 1_555 1_555
H82 C58 1_555 1_555
C59 C56 1_555 1_555
H83 C59 1_555 1_555
H84 C59 1_555 1_555
H85 C59 1_555 1_555
C60 C35 1_555 1_555
H86 C60 1_555 1_555
C61 C60 1_555 1_555
C62 O14 1_555 1_555
H87 C62 1_555 1_555
H88 C62 1_555 1_555
H89 C62 1_555 1_555
C63 C60 1_555 1_555
C64 O12 1_555 1_555
H90 C64 1_555 1_555
H91 C64 1_555 1_555
H92 C64 1_555 1_555
C2 C3 1_555 1_555
C16 C21 1_555 1_555
C20 C21 1_555 1_555
C34 C35 1_555 1_555
C48 C53 1_555 1_555
C52 C53 1_555 1_555

#END
