
#######################################################################
#
#                 Cambridge Crystallographic Data Centre
#                                CCDC 
#
#######################################################################
#
# If this CIF has been generated from an entry in the Cambridge 
# Structural Database, then it will include bibliographic, chemical, 
# crystal, experimental, refinement or atomic coordinate data resulting 
# from the CCDC's data processing and validation procedures.
#
#######################################################################

data_REZZIG
_chemical_formula_moiety         'C18 H17 Cl1 F1 N1 O1 S1'
_chemical_name_systematic        
(R)-3-((S)-(3-Chloro-4-fluorophenyl)(phenylamino)methyl)dihydro-2H-thiopyran-4(3H)-one
_symmetry_cell_setting           monoclinic
_symmetry_space_group_name_H-M   'P 21'
_symmetry_Int_Tables_number      4
_space_group_name_Hall           'P 2yb'
loop_
_symmetry_equiv_pos_site_id
_symmetry_equiv_pos_as_xyz
1 x,y,z
2 -x,1/2+y,-z
_cell_length_a                   10.133(2)
_cell_length_b                   8.5770(17)
_cell_length_c                   10.561(2)
_cell_angle_alpha                90
_cell_angle_beta                 110.95(3)
_cell_angle_gamma                90
_cell_volume                     857.187
_exptl_crystal_colour            colorless
_exptl_crystal_description       block
_cell_formula_units_Z            2
loop_
_atom_site_label
_atom_site_type_symbol
_atom_site_fract_x
_atom_site_fract_y
_atom_site_fract_z
Cl1 Cl 0.52690(8) 0.02834(9) 0.09532(9)
S1 S 0.20835(8) 0.81340(9) 0.11677(7)
F1 F 0.3104(2) 0.0853(3) -0.17063(19)
O1 O 0.4708(2) 0.6771(3) 0.5123(2)
N1 N 0.2513(2) 0.3793(3) 0.3644(2)
H1 H 0.3245 0.3871 0.4374
C1 C 0.1384(3) 0.2892(3) 0.3665(2)
C2 C 0.1563(3) 0.1921(4) 0.4780(3)
H2 H 0.2438 0.1879 0.5479
C3 C 0.0464(4) 0.1027(4) 0.4860(4)
H3 H 0.0604 0.0386 0.5607
C4 C -0.0840(4) 0.1082(5) 0.3835(4)
H4 H -0.1582 0.0483 0.3890
C5 C -0.1040(3) 0.2025(4) 0.2733(3)
H5 H -0.1924 0.2069 0.2047
C6 C 0.0063(3) 0.2916(4) 0.2628(3)
H6 H -0.0081 0.3529 0.1864
C7 C 0.2503(2) 0.4611(3) 0.2434(2)
H7 H 0.165(2) 0.524(3) 0.207(2)
C8 C 0.2636(2) 0.3575(3) 0.1321(2)
C9 C 0.3729(3) 0.2506(3) 0.1604(3)
H8 H 0.4363 0.2400 0.2489
C10 C 0.3892(3) 0.1598(3) 0.0590(3)
C11 C 0.2938(3) 0.1757(4) -0.0718(3)
C12 C 0.1861(3) 0.2794(4) -0.1032(3)
H9 H 0.1230 0.2889 -0.1920
C13 C 0.1714(3) 0.3713(3) -0.0008(3)
H10 H 0.0982 0.4435 -0.0219
C14 C 0.3701(3) 0.5825(3) 0.2873(2)
H11 H 0.4601 0.5261 0.3139
C15 C 0.3644(3) 0.6948(3) 0.1732(3)
H12 H 0.3692 0.6351 0.0969
H13 H 0.4467 0.7622 0.2043
C16 C 0.2303(4) 0.9020(4) 0.2775(3)
H14 H 0.3140 0.9673 0.3052
H15 H 0.1496 0.9683 0.2673
C17 C 0.2444(3) 0.7812(4) 0.3876(3)
H16 H 0.2550 0.8338 0.4719
H17 H 0.1593 0.7184 0.3620
C18 C 0.3697(3) 0.6775(3) 0.4082(3)
loop_
_geom_bond_atom_site_label_1
_geom_bond_atom_site_label_2
_geom_bond_site_symmetry_1
_geom_bond_site_symmetry_2
Cl1 C10 1_555 1_555
S1 C15 1_555 1_555
F1 C11 1_555 1_555
O1 C18 1_555 1_555
N1 H1 1_555 1_555
C1 N1 1_555 1_555
C2 C1 1_555 1_555
H2 C2 1_555 1_555
C3 C2 1_555 1_555
H3 C3 1_555 1_555
C4 C3 1_555 1_555
H4 C4 1_555 1_555
C5 C4 1_555 1_555
H5 C5 1_555 1_555
C6 C1 1_555 1_555
H6 C6 1_555 1_555
C7 N1 1_555 1_555
H7 C7 1_555 1_555
C8 C7 1_555 1_555
C9 C8 1_555 1_555
H8 C9 1_555 1_555
C10 C9 1_555 1_555
C11 C10 1_555 1_555
C12 C11 1_555 1_555
H9 C12 1_555 1_555
C13 C8 1_555 1_555
H10 C13 1_555 1_555
C14 C7 1_555 1_555
H11 C14 1_555 1_555
C15 C14 1_555 1_555
H12 C15 1_555 1_555
H13 C15 1_555 1_555
C16 S1 1_555 1_555
H14 C16 1_555 1_555
H15 C16 1_555 1_555
C17 C16 1_555 1_555
H16 C17 1_555 1_555
H17 C17 1_555 1_555
C18 C14 1_555 1_555
C5 C6 1_555 1_555
C12 C13 1_555 1_555
C17 C18 1_555 1_555

#END
