
#######################################################################
#
#                 Cambridge Crystallographic Data Centre
#                                CCDC 
#
#######################################################################
#
# If this CIF has been generated from an entry in the Cambridge 
# Structural Database, then it will include bibliographic, chemical, 
# crystal, experimental, refinement or atomic coordinate data resulting 
# from the CCDC's data processing and validation procedures.
#
#######################################################################

data_RIBFAK
_chemical_formula_moiety         'C20 H10 O4'
_chemical_name_systematic        
Chromeno(3',4':4,5)benzo(1,2-c)chromene-6,13-dione
_symmetry_cell_setting           monoclinic
_symmetry_space_group_name_H-M   'P 21/c'
_symmetry_Int_Tables_number      14
_space_group_name_Hall           '-P 2ybc'
loop_
_symmetry_equiv_pos_site_id
_symmetry_equiv_pos_as_xyz
1 x,y,z
2 -x,1/2+y,1/2-z
3 -x,-y,-z
4 x,1/2-y,1/2+z
_cell_length_a                   7.4367(13)
_cell_length_b                   4.5378(8)
_cell_length_c                   21.367(3)
_cell_angle_alpha                90
_cell_angle_beta                 107.604(6)
_cell_angle_gamma                90
_cell_volume                     687.289
_exptl_crystal_colour            colorless
_exptl_crystal_description       plate
_cell_formula_units_Z            2
loop_
_atom_site_label
_atom_site_type_symbol
_atom_site_fract_x
_atom_site_fract_y
_atom_site_fract_z
O1 O 0.64163(15) -0.6565(2) -0.13522(5)
O2 O 0.86426(16) -0.9649(3) -0.08306(6)
C1 C 0.4121(2) -0.3314(3) -0.19758(7)
H1 H 0.4918 -0.2945 -0.2235
C2 C 0.2403(2) -0.1930(4) -0.21114(7)
H2 H 0.2015 -0.0620 -0.2468
C3 C 0.1236(2) -0.2461(3) -0.17228(7)
H3 H 0.0069 -0.1489 -0.1813
C4 C 0.1793(2) -0.4418(3) -0.12034(7)
H4 H 0.0993 -0.4771 -0.0945
C5 C 0.35252(19) -0.5880(3) -0.10564(6)
C6 C 0.4663(2) -0.5260(3) -0.14525(7)
C7 C 0.42282(19) -0.7960(3) -0.05157(6)
C8 C 0.60067(19) -0.9268(3) -0.04219(6)
C9 C 0.7137(2) -0.8575(3) -0.08666(7)
C10 C 0.32298(19) -0.8746(3) -0.00828(7)
H5 H 0.2034 -0.7925 -0.0133
O1B O 0.35837(15) -1.3435(2) 0.13522(5)
O2B O 0.13574(16) -1.0351(3) 0.08306(6)
C1B C 0.5879(2) -1.6686(3) 0.19758(7)
H1B H 0.5082 -1.7055 0.2235
C2B C 0.7597(2) -1.8070(4) 0.21114(7)
H2B H 0.7985 -1.9380 0.2468
C3B C 0.8764(2) -1.7539(3) 0.17228(7)
H3B H 0.9931 -1.8511 0.1813
C4B C 0.8207(2) -1.5582(3) 0.12034(7)
H4B H 0.9007 -1.5229 0.0945
C5B C 0.64748(19) -1.4120(3) 0.10564(6)
C6B C 0.5337(2) -1.4740(3) 0.14525(7)
C7B C 0.57718(19) -1.2040(3) 0.05157(6)
C8B C 0.39933(19) -1.0732(3) 0.04219(6)
C9B C 0.2863(2) -1.1425(3) 0.08666(7)
C10B C 0.67702(19) -1.1254(3) 0.00828(7)
H5B H 0.7966 -1.2075 0.0133
loop_
_geom_bond_atom_site_label_1
_geom_bond_atom_site_label_2
_geom_bond_site_symmetry_1
_geom_bond_site_symmetry_2
O1 C6 1_555 1_555
O2 C9 1_555 1_555
C1 H1 1_555 1_555
C2 C1 1_555 1_555
H2 C2 1_555 1_555
C3 C2 1_555 1_555
H3 C3 1_555 1_555
C4 C3 1_555 1_555
H4 C4 1_555 1_555
C5 C4 1_555 1_555
C6 C1 1_555 1_555
C7 C5 1_555 1_555
C8 C7 1_555 1_555
C9 O1 1_555 1_555
C10 C7 1_555 1_555
H5 C10 1_555 1_555
O1B C6B 1_555 1_555
O2B C9B 1_555 1_555
C1B H1B 1_555 1_555
C2B C1B 1_555 1_555
H2B C2B 1_555 1_555
C3B C2B 1_555 1_555
H3B C3B 1_555 1_555
C4B C3B 1_555 1_555
H4B C4B 1_555 1_555
C5B C4B 1_555 1_555
C6B C1B 1_555 1_555
C7B C5B 1_555 1_555
C8B C10 1_555 1_555
C9B O1B 1_555 1_555
C10B C8 1_555 1_555
H5B C10B 1_555 1_555
C5 C6 1_555 1_555
C8 C9 1_555 1_555
C5B C6B 1_555 1_555
C7B C8B 1_555 1_555
C7B C10B 1_555 1_555
C8B C9B 1_555 1_555

#END
