
#######################################################################
#
#                 Cambridge Crystallographic Data Centre
#                                CCDC 
#
#######################################################################
#
# If this CIF has been generated from an entry in the Cambridge 
# Structural Database, then it will include bibliographic, chemical, 
# crystal, experimental, refinement or atomic coordinate data resulting 
# from the CCDC's data processing and validation procedures.
#
#######################################################################

data_RIBGAK
_chemical_formula_moiety         'C23 H19 N1 O2 S1'
_chemical_name_systematic        
2-(N,N'-Dimethylthiocarbamoyloxy)-2'-hydroxy-1,1'-binaphthyl
_symmetry_cell_setting           monoclinic
_symmetry_space_group_name_H-M   'P 21/n'
_symmetry_Int_Tables_number      14
_space_group_name_Hall           '-P 2yn'
loop_
_symmetry_equiv_pos_site_id
_symmetry_equiv_pos_as_xyz
1 x,y,z
2 1/2-x,1/2+y,1/2-z
3 -x,-y,-z
4 1/2+x,1/2-y,1/2+z
_cell_length_a                   10.144(3)
_cell_length_b                   25.702(6)
_cell_length_c                   15.156(2)
_cell_angle_alpha                90
_cell_angle_beta                 104.31(2)
_cell_angle_gamma                90
_cell_volume                     3828.88
_exptl_crystal_colour            colorless
_chemical_melting_point          143-144deg.C
_cell_formula_units_Z            8
loop_
_atom_site_label
_atom_site_type_symbol
_atom_site_fract_x
_atom_site_fract_y
_atom_site_fract_z
S1 S 1.7908(2) 0.06851(6) 0.8716(1)
O1 O 1.7168(3) 0.1695(1) 0.9694(2)
O2 O 1.5229(3) 0.0553(1) 0.8354(2)
N1 N 1.6427(4) -0.0096(1) 0.9103(3)
C1 C 1.4887(4) 0.1462(2) 0.8182(3)
C2 C 1.5116(4) 0.1006(2) 0.7814(3)
C3 C 1.5160(5) 0.0951(2) 0.6905(4)
C4 C 1.5007(5) 0.1362(2) 0.6351(3)
C5 C 1.4664(5) 0.2313(2) 0.6140(3)
C6 C 1.4419(5) 0.2791(2) 0.6466(4)
C7 C 1.4312(5) 0.2839(2) 0.7368(3)
C8 C 1.4461(4) 0.2411(2) 0.7908(3)
C9 C 1.4717(4) 0.1917(2) 0.7601(3)
C10 C 1.4807(4) 0.1861(2) 0.6685(3)
C11 C 1.4771(4) 0.1537(2) 0.9137(3)
C12 C 1.5887(5) 0.1677(2) 0.9818(3)
C13 C 1.5735(5) 0.1837(2) 1.0683(3)
C14 C 1.4492(5) 0.1868(2) 1.0845(3)
C15 C 1.2002(5) 0.1749(2) 1.0335(3)
C16 C 1.0882(5) 0.1607(2) 0.9672(4)
C17 C 1.1019(5) 0.1434(2) 0.8838(3)
C18 C 1.2280(5) 0.1397(2) 0.8666(3)
C19 C 1.3452(4) 0.1548(2) 0.9322(3)
C20 C 1.3303(5) 0.1717(2) 1.0185(3)
C21 C 1.6498(5) 0.0367(2) 0.8730(3)
C22 C 1.5161(6) -0.0377(2) 0.8981(4)
C23 C 1.7673(7) -0.0364(2) 0.9556(4)
H1 H 1.5211 0.0644 0.6701
H2 H 1.5079 0.1315 0.5767
H3 H 1.4655 0.2239 0.5583
H4 H 1.4289 0.3087 0.6189
H5 H 1.4083 0.3191 0.7472
H6 H 1.4424 0.2459 0.8408
H7 H 1.724 0.1438 0.9199
H8 H 1.6572 0.1967 1.1186
H9 H 1.4372 0.1978 1.1407
H10 H 1.1931 0.1788 1.1022
H11 H 1.0096 0.1618 0.9842
H12 H 1.0250 0.1330 0.8372
H13 H 1.2361 0.1270 0.8082
H26 H 1.4561 -0.0229 0.9278
H27 H 1.4534 -0.0409 0.8429
H28 H 1.5285 -0.0724 0.9253
H29 H 1.7476 -0.0655 0.9894
H30 H 1.8130 -0.0451 0.9258
H31 H 1.8106 -0.0126 1.0026
S2 S 0.8173(1) 0.16772(7) 0.6033(1)
O3 O 0.6887(4) 0.0508(1) 0.5466(3)
O4 O 0.8549(3) 0.1649(1) 0.4357(2)
N2 N 1.0426(4) 0.1724(2) 0.5450(3)
C24 C 0.6516(5) 0.1147(2) 0.3866(3)
C25 C 0.7124(4) 0.1621(2) 0.4051(3)
C26 C 0.6399(5) 0.2084(2) 0.3873(3)
C27 C 0.5031(5) 0.2083(2) 0.3534(3)
C28 C 0.2915(5) 0.1582(2) 0.3002(3)
C29 C 0.2248(5) 0.1125(3) 0.2810(4)
C30 C 0.2970(6) 0.0659(3) 0.2990(4)
C31 C 0.4352(5) 0.0659(2) 0.3329(3)
C32 C 0.5078(5) 0.1134(2) 0.3513(3)
C33 C 0.4333(5) 0.1606(2) 0.3344(3)
C34 C 0.7335(5) 0.0660(2) 0.3994(3)
C35 C 0.7421(5) 0.0360(2) 0.4762(4)
C36 C 0.8083(6) -0.0135(2) 0.4846(4)
C37 C 0.8676(6) -0.0302(2) 0.4197(5)
C38 C 0.9305(6) -0.0163(2) 0.2768(5)
C39 C 0.9281(6) 0.0128(3) 0.2024(5)
C40 C 0.8549(6) 0.0602(3) 0.1874(4)
C41 C 0.7920(5) 0.0768(2) 0.2513(4)
C42 C 0.7961(5) 0.0487(2) 0.3304(3)
C43 C 0.8657(5) -0.0006(2) 0.3427(4)
C44 C 0.9085(5) 0.1684(2) 0.5276(3)
C45 C 1.1248(6) 0.1774(2) 0.6390(4)
C46 C 1.1211(5) 0.1706(2) 0.4762(4)
H14 H 0.6851 0.2394 0.3996
H15 H 0.4472 0.2442 0.3346
H16 H 0.2463 0.1862 0.2853
H17 H 0.1220 0.1181 0.2510
H18 H 0.2512 0.0341 0.2859
H19 H 0.4801 0.0373 0.3413
H20 H 0.8137 -0.0312 0.5351
H21 H 0.9217 -0.0653 0.4194
H22 H 0.9841 -0.0450 0.2876
H23 H 0.9641 -0.0021 0.1678
H24 H 0.8466 0.0785 0.1358
H25 H 0.7422 0.1077 0.2392
H32 H 1.1049 0.1510 0.6700
H33 H 1.2112 0.1909 0.6462
H34 H 1.0916 0.2069 0.6621
H35 H 1.0888 0.1383 0.4400
H36 H 1.1107 0.1937 0.4423
H37 H 1.2159 0.1708 0.5111
loop_
_geom_bond_atom_site_label_1
_geom_bond_atom_site_label_2
_geom_bond_site_symmetry_1
_geom_bond_site_symmetry_2
S1 C21 1_555 1_555
S2 C44 1_555 1_555
O1 C12 1_555 1_555
O2 C2 1_555 1_555
O3 C35 1_555 1_555
O4 C25 1_555 1_555
N1 C21 1_555 1_555
N2 C44 1_555 1_555
C1 C2 1_555 1_555
C2 C3 1_555 1_555
C3 C4 1_555 1_555
C4 C10 1_555 1_555
C5 C6 1_555 1_555
C6 C7 1_555 1_555
C7 C8 1_555 1_555
C8 C9 1_555 1_555
C9 C1 1_555 1_555
C10 C5 1_555 1_555
C11 C1 1_555 1_555
C12 C11 1_555 1_555
C13 C12 1_555 1_555
C14 C13 1_555 1_555
C15 C16 1_555 1_555
C16 C17 1_555 1_555
C17 C18 1_555 1_555
C18 C19 1_555 1_555
C19 C11 1_555 1_555
C20 C14 1_555 1_555
C21 O2 1_555 1_555
C22 N1 1_555 1_555
C23 N1 1_555 1_555
C24 C25 1_555 1_555
C25 C26 1_555 1_555
C26 C27 1_555 1_555
C27 C33 1_555 1_555
C28 C29 1_555 1_555
C29 C30 1_555 1_555
C30 C31 1_555 1_555
C31 C32 1_555 1_555
C32 C24 1_555 1_555
C33 C28 1_555 1_555
C34 C24 1_555 1_555
C35 C34 1_555 1_555
C36 C35 1_555 1_555
C37 C36 1_555 1_555
C38 C39 1_555 1_555
C39 C40 1_555 1_555
C40 C41 1_555 1_555
C41 C42 1_555 1_555
C42 C34 1_555 1_555
C43 C37 1_555 1_555
C44 O4 1_555 1_555
C45 N2 1_555 1_555
C46 N2 1_555 1_555
H1 C3 1_555 1_555
H2 C4 1_555 1_555
H3 C5 1_555 1_555
H4 C6 1_555 1_555
H5 C7 1_555 1_555
H6 C8 1_555 1_555
H7 O1 1_555 1_555
H8 C13 1_555 1_555
H9 C14 1_555 1_555
H10 C15 1_555 1_555
H11 C16 1_555 1_555
H12 C17 1_555 1_555
H13 C18 1_555 1_555
H14 C26 1_555 1_555
H15 C27 1_555 1_555
H16 C28 1_555 1_555
H17 C29 1_555 1_555
H18 C30 1_555 1_555
H19 C31 1_555 1_555
H20 C36 1_555 1_555
H21 C37 1_555 1_555
H22 C38 1_555 1_555
H23 C39 1_555 1_555
H24 C40 1_555 1_555
H25 C41 1_555 1_555
H26 C22 1_555 1_555
H27 C22 1_555 1_555
H28 C22 1_555 1_555
H29 C23 1_555 1_555
H30 C23 1_555 1_555
H31 C23 1_555 1_555
H32 C45 1_555 1_555
H33 C45 1_555 1_555
H34 C45 1_555 1_555
H35 C46 1_555 1_555
H36 C46 1_555 1_555
H37 C46 1_555 1_555
C9 C10 1_555 1_555
C15 C20 1_555 1_555
C19 C20 1_555 1_555
C32 C33 1_555 1_555
C38 C43 1_555 1_555
C42 C43 1_555 1_555

#END
