
#######################################################################
#
#                 Cambridge Crystallographic Data Centre
#                                CCDC 
#
#######################################################################
#
# If this CIF has been generated from an entry in the Cambridge 
# Structural Database, then it will include bibliographic, chemical, 
# crystal, experimental, refinement or atomic coordinate data resulting 
# from the CCDC's data processing and validation procedures.
#
#######################################################################

data_RIBJOD
_chemical_formula_moiety         'C35 H26 B1 N3,C1 H2 Cl2'
_chemical_name_systematic        
'9c-Ethyl-3,6,9-triphenyl-9cH-8b\l^5^,9b,9d-triaza-9\L^5^-boratricyclopenta[cd,gh,kl]phenalene dichloromethane solvate'
_symmetry_cell_setting           triclinic
_symmetry_space_group_name_H-M   'P -1'
_symmetry_Int_Tables_number      2
_space_group_name_Hall           '-P 1'
loop_
_symmetry_equiv_pos_site_id
_symmetry_equiv_pos_as_xyz
1 x,y,z
2 -x,-y,-z
_cell_length_a                   9.7488(2)
_cell_length_b                   11.4142(2)
_cell_length_c                   13.9488(3)
_cell_angle_alpha                103.7224(14)
_cell_angle_beta                 103.2730(14)
_cell_angle_gamma                94.3542(14)
_cell_volume                     1453.55
_exptl_crystal_colour            red
_exptl_crystal_description       prism
_cell_formula_units_Z            2
loop_
_atom_site_label
_atom_site_type_symbol
_atom_site_fract_x
_atom_site_fract_y
_atom_site_fract_z
Cl1 Cl 1.12526(8) 0.97453(7) 0.93434(7)
Cl2 Cl 1.37997(9) 0.95504(9) 0.85808(7)
C1 C 1.2805(3) 0.9059(3) 0.9348(2)
H1 H 1.3403 0.9249 1.0058
H2 H 1.2541 0.8165 0.9102
N1 N 0.67917(19) 0.51585(16) 0.82521(14)
N2 N 0.71094(19) 0.45152(16) 0.65685(14)
N3 N 0.79043(19) 0.34051(16) 0.77926(14)
C2 C 0.7027(2) 0.6354(2) 0.98167(18)
H3 H 0.7178 0.6625 1.0536
C3 C 0.8310(2) 0.3355(2) 0.87816(18)
C4 C 0.6533(2) 0.62808(19) 0.81212(18)
C5 C 0.8697(2) 0.27833(19) 0.72004(18)
C6 C 0.9338(2) 0.2503(2) 0.87980(18)
H4 H 0.9777 0.2228 0.9371
C7 C 0.8662(2) 0.2997(2) 0.62333(17)
C8 C 0.9481(2) 0.3877(2) 1.11253(18)
H5 H 1.0237 0.3817 1.0799
C9 C 0.8103(2) 0.4716(2) 0.53107(18)
H6 H 0.8585 0.4547 0.4784
C10 C 0.6855(2) 0.5619(2) 0.64002(17)
C11 C 0.5123(2) 0.3230(2) 0.70027(18)
H7 H 0.4416 0.3730 0.6736
H8 H 0.5135 0.2533 0.6428
C12 C 0.6159(2) 0.7686(2) 0.69476(18)
C13 C 1.0905(2) 0.2179(2) 0.59509(19)
H9 H 1.1356 0.2520 0.6654
C14 C 0.7859(2) 0.4190(2) 0.95410(18)
C15 C 0.8160(2) 0.41236(19) 1.06139(17)
C16 C 0.9566(2) 0.2164(2) 0.78474(18)
H10 H 1.0193 0.1612 0.7646
C17 C 0.7316(3) 0.4133(2) 1.21172(19)
H11 H 0.6585 0.4241 1.2465
C18 C 0.7447(2) 0.5723(2) 0.55637(18)
H12 H 0.7392 0.6373 0.5245
C19 C 0.6623(2) 0.7032(2) 0.91327(18)
H13 H 0.6436 0.7850 0.9296
C20 C 0.8608(3) 0.3842(2) 1.25932(19)
H14 H 0.8753 0.3722 1.3259
C21 C 0.7092(2) 0.4267(2) 1.11368(19)
H15 H 0.6201 0.4458 1.0813
C22 C 0.8895(3) 0.1890(2) 0.45164(19)
H16 H 0.7954 0.2020 0.4233
C23 C 1.1647(3) 0.1513(2) 0.5322(2)
H17 H 1.2590 0.1384 0.5600
C24 C 0.9687(3) 0.3724(2) 1.20944(19)
H18 H 1.0577 0.3536 1.2425
C25 C 0.6449(2) 0.6500(2) 0.71554(18)
C26 C 0.7938(2) 0.39600(19) 0.59755(17)
C27 C 0.9504(2) 0.2354(2) 0.55632(18)
C28 C 0.4621(3) 0.2736(2) 0.78117(19)
H19 H 0.5332 0.2272 0.8108
H20 H 0.3712 0.2204 0.7495
H21 H 0.4497 0.3416 0.8350
C29 C 0.7180(2) 0.5162(2) 0.92537(17)
C30 C 0.6530(3) 0.9881(2) 0.7421(2)
H22 H 0.6991 1.0629 0.7893
C31 C 0.5201(2) 0.7703(2) 0.60436(19)
H23 H 0.4744 0.6958 0.5566
C32 C 0.6830(2) 0.8793(2) 0.76308(19)
H24 H 0.7500 0.8796 0.8245
C33 C 0.5557(3) 0.9889(2) 0.6526(2)
H25 H 0.5339 1.0640 0.6389
B1 B 0.6664(3) 0.4039(2) 0.7383(2)
C34 C 0.4909(3) 0.8802(2) 0.5834(2)
H26 H 0.4260 0.8804 0.5212
C35 C 1.1014(3) 0.1037(2) 0.4290(2)
H27 H 1.1518 0.0573 0.3862
C36 C 0.9644(3) 0.1241(2) 0.3883(2)
H28 H 0.9218 0.0937 0.3172
loop_
_geom_bond_atom_site_label_1
_geom_bond_atom_site_label_2
_geom_bond_site_symmetry_1
_geom_bond_site_symmetry_2
Cl1 C1 1_555 1_555
Cl2 C1 1_555 1_555
C1 H1 1_555 1_555
H2 C1 1_555 1_555
N1 C4 1_555 1_555
N2 C10 1_555 1_555
N3 C3 1_555 1_555
C2 H3 1_555 1_555
C3 C6 1_555 1_555
C4 C19 1_555 1_555
C5 N3 1_555 1_555
C6 H4 1_555 1_555
C7 C5 1_555 1_555
C8 H5 1_555 1_555
C9 H6 1_555 1_555
C10 C18 1_555 1_555
C11 H7 1_555 1_555
H8 C11 1_555 1_555
C12 C25 1_555 1_555
C13 H9 1_555 1_555
C14 C3 1_555 1_555
C15 C8 1_555 1_555
C16 C5 1_555 1_555
H10 C16 1_555 1_555
C17 H11 1_555 1_555
C18 C9 1_555 1_555
H12 C18 1_555 1_555
C19 C2 1_555 1_555
H13 C19 1_555 1_555
C20 C17 1_555 1_555
H14 C20 1_555 1_555
C21 C15 1_555 1_555
H15 C21 1_555 1_555
C22 H16 1_555 1_555
C23 C13 1_555 1_555
H17 C23 1_555 1_555
C24 C8 1_555 1_555
H18 C24 1_555 1_555
C25 C4 1_555 1_555
C26 N2 1_555 1_555
C27 C7 1_555 1_555
C28 C11 1_555 1_555
H19 C28 1_555 1_555
H20 C28 1_555 1_555
H21 C28 1_555 1_555
C29 N1 1_555 1_555
C30 H22 1_555 1_555
C31 C12 1_555 1_555
H23 C31 1_555 1_555
C32 C12 1_555 1_555
H24 C32 1_555 1_555
C33 C30 1_555 1_555
H25 C33 1_555 1_555
B1 N1 1_555 1_555
C34 C31 1_555 1_555
H26 C34 1_555 1_555
C35 C23 1_555 1_555
H27 C35 1_555 1_555
C36 C22 1_555 1_555
H28 C36 1_555 1_555
N2 B1 1_555 1_555
N3 B1 1_555 1_555
C2 C29 1_555 1_555
C6 C16 1_555 1_555
C7 C26 1_555 1_555
C9 C26 1_555 1_555
C10 C25 1_555 1_555
C11 B1 1_555 1_555
C13 C27 1_555 1_555
C14 C15 1_555 1_555
C14 C29 1_555 1_555
C17 C21 1_555 1_555
C20 C24 1_555 1_555
C22 C27 1_555 1_555
C30 C32 1_555 1_555
C33 C34 1_555 1_555
C35 C36 1_555 1_555

#END
