
#######################################################################
#
#                 Cambridge Crystallographic Data Centre
#                                CCDC 
#
#######################################################################
#
# If this CIF has been generated from an entry in the Cambridge 
# Structural Database, then it will include bibliographic, chemical, 
# crystal, experimental, refinement or atomic coordinate data resulting 
# from the CCDC's data processing and validation procedures.
#
#######################################################################

data_RIBLEW
_chemical_formula_moiety         'C4 N6 O9 2-,2(H4 N1 O1 1+)'
_chemical_name_systematic        
'bis(hydroxyammonium) bis(dinitromethyl)furazan'
_symmetry_cell_setting           monoclinic
_symmetry_space_group_name_H-M   'C 2/c'
_symmetry_Int_Tables_number      15
_space_group_name_Hall           '-C 2yn'
loop_
_symmetry_equiv_pos_site_id
_symmetry_equiv_pos_as_xyz
1 x,y,z
2 -x,y,1/2-z
3 1/2+x,1/2+y,z
4 1/2-x,1/2+y,1/2-z
5 -x,-y,-z
6 x,-y,1/2+z
7 1/2-x,1/2-y,-z
8 1/2+x,1/2-y,1/2+z
_cell_length_a                   11.531(5)
_cell_length_b                   7.706(3)
_cell_length_c                   13.625(5)
_cell_angle_alpha                90
_cell_angle_beta                 102.967(6)
_cell_angle_gamma                90
_cell_volume                     1179.82
_exptl_crystal_colour            yellow
_exptl_crystal_description       monoclinic
_cell_formula_units_Z            4
loop_
_atom_site_label
_atom_site_type_symbol
_atom_site_fract_x
_atom_site_fract_y
_atom_site_fract_z
N1 N 0.42635(15) 0.7627(2) 0.29261(12)
N2 N 0.36628(15) 0.4613(2) 0.40851(12)
N3 N 0.36758(13) 0.3090(2) 0.25611(11)
O1 O 0.5000 0.8634(2) 0.2500
O2 O 0.37351(16) 0.60507(18) 0.45291(11)
O3 O 0.33324(19) 0.33249(19) 0.44873(13)
O4 O 0.33936(14) 0.16720(18) 0.28629(11)
O5 O 0.37407(13) 0.32749(18) 0.16466(9)
C1 C 0.45268(17) 0.6016(2) 0.27719(13)
C2 C 0.39387(16) 0.4556(2) 0.31490(13)
N1A N 0.57365(15) 0.7627(2) 0.20739(12)
N2A N 0.63372(15) 0.4613(2) 0.09149(12)
N3A N 0.63242(13) 0.3090(2) 0.24389(11)
O2A O 0.62649(16) 0.60507(18) 0.04709(11)
O3A O 0.66676(19) 0.33249(19) 0.05127(13)
O4A O 0.66064(14) 0.16720(18) 0.21371(11)
O5A O 0.62593(13) 0.32749(18) 0.33534(9)
C1A C 0.54732(17) 0.6016(2) 0.22281(13)
C2A C 0.60613(16) 0.4556(2) 0.18510(13)
N4 N 0.15834(17) 0.5336(2) 0.53921(12)
O6 O 0.08805(16) 0.5353(2) 0.44097(11)
H1 H 0.2339(17) 0.552(4) 0.541(2)
H2 H 0.152(3) 0.428(3) 0.561(2)
H3 H 0.141(3) 0.621(3) 0.571(2)
H4 H 0.116(3) 0.609(3) 0.412(2)
loop_
_geom_bond_atom_site_label_1
_geom_bond_atom_site_label_2
_geom_bond_site_symmetry_1
_geom_bond_site_symmetry_2
N1 O1 1_555 1_555
N2 O2 1_555 1_555
N3 O4 1_555 1_555
O1 N1A 1_555 1_555
O3 N2 1_555 1_555
O5 N3 1_555 1_555
C1 N1 1_555 1_555
C2 N2 1_555 1_555
N4 O6 1_555 1_555
O6 H4 1_555 1_555
H1 N4 1_555 1_555
H2 N4 1_555 1_555
H3 N4 1_555 1_555
N1A C1A 1_555 1_555
N2A O2A 1_555 1_555
N3A O4A 1_555 1_555
O3A N2A 1_555 1_555
O5A N3A 1_555 1_555
C1A C1 1_555 1_555
C2A N2A 1_555 1_555
N3 C2 1_555 1_555
C1 C2 1_555 1_555
N3A C2A 1_555 1_555
C1A C2A 1_555 1_555

#END
