
#######################################################################
#
#                 Cambridge Crystallographic Data Centre
#                                CCDC 
#
#######################################################################
#
# If this CIF has been generated from an entry in the Cambridge 
# Structural Database, then it will include bibliographic, chemical, 
# crystal, experimental, refinement or atomic coordinate data resulting 
# from the CCDC's data processing and validation procedures.
#
#######################################################################

data_RIBLOG
_chemical_formula_moiety         'C4 N6 O9 2-,2(C1 H7 N4 1+)'
_chemical_name_systematic        
'bis(aninoguanidinium) bis(dinitromethyl)furazan'
_symmetry_cell_setting           monoclinic
_symmetry_space_group_name_H-M   'C 2/c'
_symmetry_Int_Tables_number      15
_space_group_name_Hall           '-C 2yn'
loop_
_symmetry_equiv_pos_site_id
_symmetry_equiv_pos_as_xyz
1 x,y,z
2 -x,y,1/2-z
3 1/2+x,1/2+y,z
4 1/2-x,1/2+y,1/2-z
5 -x,-y,-z
6 x,-y,1/2+z
7 1/2-x,1/2-y,-z
8 1/2+x,1/2-y,1/2+z
_cell_length_a                   18.691(3)
_cell_length_b                   7.9222(14)
_cell_length_c                   12.391(2)
_cell_angle_alpha                90
_cell_angle_beta                 114.862(3)
_cell_angle_gamma                90
_cell_volume                     1664.74
_exptl_crystal_colour            yellow
_exptl_crystal_description       block
_cell_formula_units_Z            4
loop_
_atom_site_label
_atom_site_type_symbol
_atom_site_fract_x
_atom_site_fract_y
_atom_site_fract_z
N1 N 1.00107(10) 1.0943(2) 0.37488(14)
N2 N 0.87602(10) 0.9597(2) 0.32386(15)
N3 N 0.97025(10) 0.6571(2) 0.31315(16)
O1 O 1.07094(8) 1.07480(17) 0.39024(13)
O2 O 0.97842(9) 1.23451(19) 0.39202(17)
O3 O 0.84889(9) 1.0844(2) 0.35411(16)
O4 O 0.83417(8) 0.8323(2) 0.28129(16)
O5 O 1.0000 0.5586(2) 0.2500
C1 C 0.95295(11) 0.9544(2) 0.33593(17)
C2 C 0.98090(10) 0.8130(2) 0.28970(16)
N1A N 0.99893(10) 1.0943(2) 0.12512(14)
N2A N 1.12398(10) 0.9597(2) 0.17614(15)
N3A N 1.02975(10) 0.6571(2) 0.18685(16)
O1A O 0.92906(8) 1.07480(17) 0.10976(13)
O2A O 1.02158(9) 1.23451(19) 0.10798(17)
O3A O 1.15111(9) 1.0844(2) 0.14589(16)
O4A O 1.16583(8) 0.8323(2) 0.21871(16)
C1A C 1.04705(11) 0.9544(2) 0.16407(17)
C2A C 1.01910(10) 0.8130(2) 0.21030(16)
N4 N 0.75561(10) 1.0422(2) 0.49922(17)
H1 H 0.7580 1.0963 0.5608
H2 H 0.7928 1.0529 0.4760
N5 N 0.69076(11) 0.8605(2) 0.34585(17)
H3 H 0.7275 0.8703 0.3217
H4 H 0.6509 0.7962 0.3081
N6 N 0.63910(10) 0.9291(2) 0.47755(16)
H5 H 0.5992 0.8648 0.4402
N7 N 0.64480(13) 1.0189(3) 0.5776(2)
C3 C 0.69551(11) 0.9440(2) 0.44082(17)
H6 H 0.6080(16) 1.086(3) 0.555(2)
H7 H 0.6387(17) 0.946(3) 0.628(3)
loop_
_geom_bond_atom_site_label_1
_geom_bond_atom_site_label_2
_geom_bond_site_symmetry_1
_geom_bond_site_symmetry_2
N1 O1 1_555 1_555
N2 O3 1_555 1_555
N3 O5 1_555 1_555
O2 N1 1_555 1_555
O4 N2 1_555 1_555
O5 N3A 1_555 1_555
C1 N1 1_555 1_555
C2 N3 1_555 1_555
N4 H1 1_555 1_555
H2 N4 1_555 1_555
N5 H3 1_555 1_555
H4 N5 1_555 1_555
N6 H5 1_555 1_555
N7 N6 1_555 1_555
C3 N4 1_555 1_555
H6 N7 1_555 1_555
H7 N7 1_555 1_555
N1A O1A 1_555 1_555
N2A O3A 1_555 1_555
N3A C2A 1_555 1_555
O2A N1A 1_555 1_555
O4A N2A 1_555 1_555
C1A N1A 1_555 1_555
C2A C2 1_555 1_555
N2 C1 1_555 1_555
C1 C2 1_555 1_555
N5 C3 1_555 1_555
N6 C3 1_555 1_555
N2A C1A 1_555 1_555
C1A C2A 1_555 1_555

#END
