
#######################################################################
#
#                 Cambridge Crystallographic Data Centre
#                                CCDC 
#
#######################################################################
#
# If this CIF has been generated from an entry in the Cambridge 
# Structural Database, then it will include bibliographic, chemical, 
# crystal, experimental, refinement or atomic coordinate data resulting 
# from the CCDC's data processing and validation procedures.
#
#######################################################################

data_RIBLAS
_chemical_formula_moiety         'C4 N6 O9 2-,2(H5 N2 1+),0.5(H2 O1)'
_chemical_name_systematic        
'bis(hydrazinium) bis(dinitromethyl)furazan hemihydrate'
_symmetry_cell_setting           monoclinic
_symmetry_space_group_name_H-M   'P 21/n'
_symmetry_Int_Tables_number      14
_space_group_name_Hall           '-P 2yn'
loop_
_symmetry_equiv_pos_site_id
_symmetry_equiv_pos_as_xyz
1 x,y,z
2 1/2-x,1/2+y,1/2-z
3 -x,-y,-z
4 1/2+x,1/2-y,1/2+z
_cell_length_a                   13.269(4)
_cell_length_b                   13.091(4)
_cell_length_c                   16.676(5)
_cell_angle_alpha                90
_cell_angle_beta                 113.127(6)
_cell_angle_gamma                90
_cell_volume                     2663.91
_exptl_crystal_colour            yellow
_exptl_crystal_description       monoclinic
_cell_formula_units_Z            8
loop_
_atom_site_label
_atom_site_type_symbol
_atom_site_fract_x
_atom_site_fract_y
_atom_site_fract_z
N1 N 0.1921(3) 0.6538(3) 0.1452(3)
N2 N 0.3252(3) 0.7007(3) 0.2878(3)
N3 N 0.0729(4) 0.6181(3) 0.2674(3)
N4 N 0.1236(4) 0.4771(3) 0.3539(3)
N5 N 0.3356(4) 0.4015(3) 0.3001(3)
N6 N 0.3698(4) 0.4372(4) 0.4502(3)
O1 O 0.2363(3) 0.7050(3) 0.1050(2)
O2 O 0.1065(3) 0.6063(3) 0.1048(3)
O3 O 0.3853(3) 0.7491(3) 0.2591(2)
O4 O 0.3492(3) 0.6969(3) 0.3685(2)
O5 O 0.0415(3) 0.5471(3) 0.3153(3)
O6 O 0.2714(3) 0.4168(3) 0.2217(3)
O7 O 0.4185(3) 0.3476(3) 0.3157(3)
O8 O 0.4505(3) 0.3787(3) 0.4788(3)
O9 O 0.3417(3) 0.4906(3) 0.5002(3)
C1 C 0.2321(4) 0.6491(4) 0.2348(3)
C2 C 0.1712(4) 0.5928(4) 0.2775(3)
C3 C 0.2036(4) 0.5043(4) 0.3319(3)
C4 C 0.3068(4) 0.4477(4) 0.3612(4)
N7 N 0.8646(4) 0.6770(4) 0.3972(3)
N8 N 0.8073(4) 0.7011(3) 0.2427(3)
N9 N 0.6164(4) 0.6265(3) 0.3214(3)
N10 N 0.5702(3) 0.4754(3) 0.2482(3)
N11 N 0.8235(3) 0.4038(3) 0.2635(3)
N12 N 0.6857(3) 0.4380(3) 0.1196(3)
O10 O 0.8855(3) 0.7575(3) 0.2485(3)
O11 O 0.7353(3) 0.6803(3) 0.1690(3)
O12 O 0.9488(3) 0.7310(3) 0.4170(3)
O13 O 0.8447(4) 0.6322(4) 0.4548(3)
O14 O 0.8502(3) 0.4138(3) 0.3440(2)
O15 O 0.8838(3) 0.3540(3) 0.2354(2)
O16 O 0.5959(3) 0.4800(3) 0.0771(2)
O17 O 0.7335(3) 0.3887(3) 0.0812(3)
O18 O 0.5385(3) 0.5506(3) 0.2925(2)
C5 C 0.7918(4) 0.6612(4) 0.3127(4)
C6 C 0.6945(4) 0.5996(4) 0.2956(3)
C7 C 0.6648(4) 0.5042(3) 0.2501(3)
C8 C 0.7262(4) 0.4469(3) 0.2093(3)
N13 N 0.3874(4) 0.3234(3) 0.1242(3)
H1 H 0.4586 0.3089 0.1458
H2 H 0.3501 0.2726 0.0899
H3 H 0.3652 0.3313 0.1678
N14 N 0.3682(5) 0.4161(5) 0.0745(5)
H4 H 0.398(6) 0.411(6) 0.039(4)
H5 H 0.420(5) 0.454(6) 0.098(6)
N15 N 0.9337(3) 0.3137(3) 0.0795(3)
H6 H 0.9800 0.2612 0.0950
H7 H 0.8917 0.3095 0.0228
H8 H 0.8916 0.3122 0.1099
N16 N 0.9949(5) 0.4082(4) 0.0969(4)
H9 H 1.025(7) 0.412(7) 0.062(5)
H10 H 1.036(4) 0.404(5) 0.1497(17)
N17 N 0.4729(5) 0.6589(4) 0.1009(4)
N18 N 0.4479(3) 0.7630(3) 0.1161(3)
H11 H 0.3905 0.7632 0.1312
H12 H 0.4322 0.7994 0.0676
H13 H 0.5055 0.7903 0.1588
H14 H 0.439(7) 0.642(6) 0.049(2)
H15 H 0.541(2) 0.658(5) 0.111(4)
N19 N 0.7482(5) 0.8157(4) 0.0256(4)
N20 N 0.8666(4) 0.7901(4) 0.0681(3)
H16 H 0.9056 0.8375 0.0550
H17 H 0.8784 0.7295 0.0493
H18 H 0.8865 0.7879 0.1257
H19 H 0.708(11) 0.825(15) 0.057(11)
H20 H 0.683(5) 0.841(11) 0.008(8)
O19 O 0.8664(4) 0.5919(4) 0.0161(4)
H21 H 0.805(4) 0.578(8) 0.016(7)
H22 H 0.899(5) 0.544(4) 0.046(4)
loop_
_geom_bond_atom_site_label_1
_geom_bond_atom_site_label_2
_geom_bond_site_symmetry_1
_geom_bond_site_symmetry_2
N1 O1 1_555 1_555
N2 O3 1_555 1_555
N3 O5 1_555 1_555
N4 O5 1_555 1_555
N5 O6 1_555 1_555
N6 O8 1_555 1_555
O2 N1 1_555 1_555
O4 N2 1_555 1_555
O7 N5 1_555 1_555
O9 N6 1_555 1_555
C1 N1 1_555 1_555
C2 N3 1_555 1_555
C3 N4 1_555 1_555
C4 N5 1_555 1_555
N7 O12 1_555 1_555
N8 O10 1_555 1_555
N9 O18 1_555 1_555
N10 O18 1_555 1_555
N11 O14 1_555 1_555
N12 O16 1_555 1_555
O11 N8 1_555 1_555
O13 N7 1_555 1_555
O15 N11 1_555 1_555
O17 N12 1_555 1_555
C5 N7 1_555 1_555
C6 N9 1_555 1_555
C7 N10 1_555 1_555
C8 N11 1_555 1_555
N13 H1 1_555 1_555
H2 N13 1_555 1_555
H3 N13 1_555 1_555
N14 N13 1_555 1_555
H4 N14 1_555 1_555
H5 N14 1_555 1_555
N15 H6 1_555 1_555
H7 N15 1_555 1_555
H8 N15 1_555 1_555
N16 N15 1_555 1_555
H9 N16 1_555 1_555
H10 N16 1_555 1_555
N17 N18 1_555 1_555
N18 H11 1_555 1_555
H12 N18 1_555 1_555
H13 N18 1_555 1_555
H14 N17 1_555 1_555
H15 N17 1_555 1_555
N19 N20 1_555 1_555
N20 H16 1_555 1_555
H17 N20 1_555 1_555
H18 N20 1_555 1_555
H19 N19 1_555 1_555
H20 N19 1_555 1_555
O19 H21 1_555 1_555
H22 O19 1_555 1_555
N2 C1 1_555 1_555
N6 C4 1_555 1_555
C1 C2 1_555 1_555
C2 C3 1_555 1_555
C3 C4 1_555 1_555
N8 C5 1_555 1_555
N12 C8 1_555 1_555
C5 C6 1_555 1_555
C6 C7 1_555 1_555
C7 C8 1_555 1_555

#END
