
#######################################################################
#
#                 Cambridge Crystallographic Data Centre
#                                CCDC 
#
#######################################################################
#
# If this CIF has been generated from an entry in the Cambridge 
# Structural Database, then it will include bibliographic, chemical, 
# crystal, experimental, refinement or atomic coordinate data resulting 
# from the CCDC's data processing and validation procedures.
#
#######################################################################

data_RIBLEV
_chemical_formula_moiety         'C16 H16 Br1 N1 O5'
_chemical_name_systematic        
'Methyl 4-(4-bromophenyl)-2-hydroxy-7-(hydroxyimino)-2,3,4,5,6,7-hexahydrocyclopenta[b]pyran-2-carboxylate'
_symmetry_cell_setting           monoclinic
_symmetry_space_group_name_H-M   'P 21'
_symmetry_Int_Tables_number      4
_space_group_name_Hall           'P 2yb'
loop_
_symmetry_equiv_pos_site_id
_symmetry_equiv_pos_as_xyz
1 x,y,z
2 -x,1/2+y,-z
_cell_length_a                   7.907(8)
_cell_length_b                   8.093(8)
_cell_length_c                   12.534(13)
_cell_angle_alpha                90
_cell_angle_beta                 101.397(9)
_cell_angle_gamma                90
_cell_volume                     786.252
_exptl_crystal_colour            yellow
_exptl_crystal_description       block
_cell_formula_units_Z            2
loop_
_atom_site_label
_atom_site_type_symbol
_atom_site_fract_x
_atom_site_fract_y
_atom_site_fract_z
Br1 Br 1.18606(8) 0.45895(13) 0.95018(5)
C1 C 0.2594(7) 0.6534(6) 0.5088(4)
C2 C 0.4260(7) 0.5831(7) 0.5722(4)
H1 H 0.5218 0.6337 0.5466
H2 H 0.4290 0.4654 0.5580
C3 C 0.4500(7) 0.6108(6) 0.6970(4)
H3 H 0.3720 0.5359 0.7254
C4 C 0.3947(7) 0.7861(6) 0.7129(4)
C5 C 0.4217(8) 0.8797(7) 0.8190(4)
H4 H 0.5429 0.8823 0.8532
H5 H 0.3571 0.8295 0.8687
C6 C 0.3545(8) 1.0547(7) 0.7867(5)
H6 H 0.2713 1.0892 0.8296
H7 H 0.4486 1.1337 0.7968
C7 C 0.2712(7) 1.0406(6) 0.6686(4)
C8 C 0.3073(7) 0.8776(6) 0.6329(4)
C9 C 0.6332(7) 0.5767(6) 0.7571(4)
C10 C 0.6578(8) 0.5013(8) 0.8573(4)
H8 H 0.5614 0.4734 0.8857
C11 C 0.8202(7) 0.4647(11) 0.9181(4)
H9 H 0.8344 0.4133 0.9856
C12 C 0.9609(8) 0.5092(7) 0.8725(5)
C13 C 0.9417(8) 0.5847(8) 0.7739(5)
H10 H 1.0374 0.6136 0.7450
C14 C 0.7772(7) 0.6174(7) 0.7178(5)
H11 H 0.7635 0.6692 0.6504
C15 C 0.2605(8) 0.6447(7) 0.3885(5)
C16 C 0.1226(9) 0.5372(10) 0.2199(4)
H12 H 0.1072 0.6476 0.1917
H13 H 0.0243 0.4712 0.1886
H14 H 0.2247 0.4901 0.2017
N1 N 0.1868(6) 1.1480(5) 0.6052(4)
O1 O 0.1189(5) 0.5756(4) 0.5399(3)
H15 H 0.1200 0.5949 0.6042
O2 O 0.2472(5) 0.8298(4) 0.5272(3)
O3 O 0.3598(7) 0.7153(6) 0.3462(4)
O4 O 0.1401(5) 0.5409(5) 0.3372(3)
O5 O 0.1673(6) 1.2944(4) 0.6666(3)
H16 H 0.1792 1.3763 0.6302
loop_
_geom_bond_atom_site_label_1
_geom_bond_atom_site_label_2
_geom_bond_site_symmetry_1
_geom_bond_site_symmetry_2
Br1 C12 1_555 1_555
C1 C2 1_555 1_555
C2 H1 1_555 1_555
H2 C2 1_555 1_555
C3 C2 1_555 1_555
H3 C3 1_555 1_555
C4 C3 1_555 1_555
C5 C4 1_555 1_555
H4 C5 1_555 1_555
H5 C5 1_555 1_555
C6 C5 1_555 1_555
H6 C6 1_555 1_555
H7 C6 1_555 1_555
C7 C6 1_555 1_555
C8 C4 1_555 1_555
C9 C3 1_555 1_555
C10 C9 1_555 1_555
H8 C10 1_555 1_555
C11 C10 1_555 1_555
H9 C11 1_555 1_555
C12 C11 1_555 1_555
C13 C12 1_555 1_555
H10 C13 1_555 1_555
C14 C9 1_555 1_555
H11 C14 1_555 1_555
C15 C1 1_555 1_555
C16 H12 1_555 1_555
H13 C16 1_555 1_555
H14 C16 1_555 1_555
N1 C7 1_555 1_555
O1 C1 1_555 1_555
H15 O1 1_555 1_555
O2 C1 1_555 1_555
O3 C15 1_555 1_555
O4 C15 1_555 1_555
O5 N1 1_555 1_555
H16 O5 1_555 1_555
C7 C8 1_555 1_555
C8 O2 1_555 1_555
C13 C14 1_555 1_555
C16 O4 1_555 1_555

#END
