
#######################################################################
#
#                 Cambridge Crystallographic Data Centre
#                                CCDC 
#
#######################################################################
#
# If this CIF has been generated from an entry in the Cambridge 
# Structural Database, then it will include bibliographic, chemical, 
# crystal, experimental, refinement or atomic coordinate data resulting 
# from the CCDC's data processing and validation procedures.
#
#######################################################################

data_RIBLET01
_chemical_formula_moiety         'C2 H10 N2 2+,2(C7 H5 O2 1-)'
_chemical_name_systematic        'ethane-1,2-diaminium bis(benzoate)'
_symmetry_cell_setting           orthorhombic
_symmetry_space_group_name_H-M   'P c a 21'
_symmetry_Int_Tables_number      29
_space_group_name_Hall           'P 2c -2ac'
loop_
_symmetry_equiv_pos_site_id
_symmetry_equiv_pos_as_xyz
1 x,y,z
2 -x,-y,1/2+z
3 1/2-x,y,1/2+z
4 1/2+x,-y,z
_cell_length_a                   8.425(3)
_cell_length_b                   9.144(3)
_cell_length_c                   21.000(5)
_cell_angle_alpha                90
_cell_angle_beta                 90
_cell_angle_gamma                90
_cell_volume                     1617.8
_exptl_crystal_colour            colorless
_chemical_melting_point          153.5deg.C
_cell_formula_units_Z            4
loop_
_atom_site_label
_atom_site_type_symbol
_atom_site_fract_x
_atom_site_fract_y
_atom_site_fract_z
C1 C 0.39103 0.76465 0.50000
C2 C 0.53861 0.77891 0.45914
O1 O 0.56532 0.90267 0.43452
O2 O 0.62599 0.67213 0.45237
C3 C 0.31224 0.88737 0.52255
C4 C 0.17517 0.87183 0.55877
C5 C 0.11970 0.73452 0.57305
C6 C 0.19547 0.61163 0.55054
C7 C 0.33268 0.62667 0.51502
H1 H 0.354(1) 0.995(1) 0.5115(8)
H2 H 0.113(2) 0.972(2) 0.5753(9)
H3 H 0.012(2) 0.711(2) 0.6021(7)
H4 H 0.148(2) 0.503(2) 0.5600(9)
H5 H 0.392(2) 0.530(1) 0.4978(8)
C8 C 0.52155 0.73542 0.24958
C9 C 0.37440 0.72111 0.29029
O3 O 0.28676 0.82924 0.29656
O4 O 0.34913 0.59771 0.31551
C10 C 0.57615 0.87263 0.23207
C11 C 0.7107(3) 0.88765 0.19382
C12 C 0.78913 0.76525 0.17366
C13 C 0.73533 0.62795 0.19061
C14 C 0.60227 0.61209 0.22905
H6 H 0.509(2) 0.966(1) 0.2483(8)
H7 H 0.750(2) 0.995(2) 0.1834(8)
H8 H 0.897(2) 0.760(2) 0.1444(8)
H9 H 0.802(2) 0.531(2) 0.1745(8)
H10 H 0.559(2) 0.504(1) 0.2409(7)
N1 N -0.15397 0.92804 0.37086
C15 C -0.08033 0.79204 0.34751
C16 C -0.00628 0.71067 0.40258
N2 N 0.06804 0.57322 0.37908
H11 H -0.076(1) 0.987(1) 0.3983(6)
H12 H -0.262(1) 0.906(1) 0.3976(6)
H13 H -0.184(1) 0.998(1) 0.3340(7)
H14 H 0.008(1) 0.815(2) 0.3134(6)
H15 H -0.175(1) 0.724(1) 0.3253(7)
H16 H 0.084(1) 0.772(1) 0.4244(8)
H17 H -0.099(2) 0.683(1) 0.4373(6)
H18 H 0.169(1) 0.592(1) 0.3537(6)
H19 H -0.014(2) 0.513(1) 0.3498(6)
H20 H 0.097(1) 0.501(1) 0.4164(7)
loop_
_geom_bond_atom_site_label_1
_geom_bond_atom_site_label_2
_geom_bond_site_symmetry_1
_geom_bond_site_symmetry_2
C1 C2 1_555 1_555
C2 O1 1_555 1_555
O2 C2 1_555 1_555
C3 C1 1_555 1_555
C4 C3 1_555 1_555
C5 C4 1_555 1_555
C6 C5 1_555 1_555
C7 C1 1_555 1_555
H1 C3 1_555 1_555
H2 C4 1_555 1_555
H3 C5 1_555 1_555
H4 C6 1_555 1_555
H5 C7 1_555 1_555
C8 C9 1_555 1_555
C9 O3 1_555 1_555
O4 C9 1_555 1_555
C10 C8 1_555 1_555
C11 C10 1_555 1_555
C12 C11 1_555 1_555
C13 C12 1_555 1_555
C14 C8 1_555 1_555
H6 C10 1_555 1_555
H7 C11 1_555 1_555
H8 C12 1_555 1_555
H9 C13 1_555 1_555
H10 C14 1_555 1_555
N1 C15 1_555 1_555
C15 C16 1_555 1_555
C16 N2 1_555 1_555
N2 H18 1_555 1_555
H11 N1 1_555 1_555
H12 N1 1_555 1_555
H13 N1 1_555 1_555
H14 C15 1_555 1_555
H15 C15 1_555 1_555
H16 C16 1_555 1_555
H17 C16 1_555 1_555
H19 N2 1_555 1_555
H20 N2 1_555 1_555
C6 C7 1_555 1_555
C13 C14 1_555 1_555

#END
