
#######################################################################
#
#                 Cambridge Crystallographic Data Centre
#                                CCDC 
#
#######################################################################
#
# If this CIF has been generated from an entry in the Cambridge 
# Structural Database, then it will include bibliographic, chemical, 
# crystal, experimental, refinement or atomic coordinate data resulting 
# from the CCDC's data processing and validation procedures.
#
#######################################################################

data_RIBMUM
_chemical_formula_moiety         'C37 H24 B1 N3 S1'
_chemical_name_systematic        
3,6,9-Triphenyl-9c-(2-thienyl)-9cH-8b\l^5^,9b,9d-triaza-9\L^5^-boratricyclopenta[cd,gh,kl]phenalene
_symmetry_cell_setting           triclinic
_symmetry_space_group_name_H-M   'P -1'
_symmetry_Int_Tables_number      2
_space_group_name_Hall           '-P 1'
loop_
_symmetry_equiv_pos_site_id
_symmetry_equiv_pos_as_xyz
1 x,y,z
2 -x,-y,-z
_cell_length_a                   8.08600(10)
_cell_length_b                   13.4361(3)
_cell_length_c                   14.1566(4)
_cell_angle_alpha                117.9438(8)
_cell_angle_beta                 91.6645(10)
_cell_angle_gamma                92.5536(14)
_cell_volume                     1355.19
_exptl_crystal_colour            orange
_exptl_crystal_description       prism
_cell_formula_units_Z            2
loop_
_atom_site_label
_atom_site_type_symbol
_atom_site_fract_x
_atom_site_fract_y
_atom_site_fract_z
C1 C 0.1514(4) 0.1443(3) 0.0527(3)
C2 C 0.1875(4) 0.0497(3) 0.0713(3)
H1 H 0.2010 -0.0253 0.0174
C3 C 0.1989(4) 0.0864(2) 0.1787(3)
H2 H 0.2218 0.0415 0.2126
C4 C 0.1701(4) 0.2052(3) 0.2326(3)
C5 C 0.1903(4) 0.2930(3) 0.3392(3)
C6 C 0.1947(4) 0.4071(3) 0.3566(3)
C7 C 0.2795(4) 0.5093(3) 0.4368(3)
H3 H 0.3217 0.5222 0.5052
C8 C 0.2890(4) 0.5849(3) 0.3975(2)
H4 H 0.3399 0.6593 0.4336
C9 C 0.2083(4) 0.5321(3) 0.2919(3)
C10 C 0.2114(4) 0.5583(3) 0.2051(2)
C11 C 0.1800(4) 0.4683(3) 0.0988(3)
C12 C 0.2107(4) 0.4518(3) -0.0067(3)
H5 H 0.2386 0.5097 -0.0252
C13 C 0.1930(4) 0.3388(3) -0.0761(3)
H6 H 0.2076 0.3047 -0.1509
C14 C 0.1485(4) 0.2800(3) -0.0166(3)
C15 C 0.1501(4) 0.1648(3) -0.0372(3)
C16 C 0.2297(4) 0.2726(3) 0.4312(3)
C17 C 0.3457(4) 0.1957(3) 0.4249(3)
H7 H 0.4017 0.1565 0.3608
C18 C 0.3798(4) 0.1762(3) 0.5107(3)
H8 H 0.4573 0.1227 0.5048
C19 C 0.3012(4) 0.2343(3) 0.6055(3)
H9 H 0.3236 0.2204 0.6643
C20 C 0.1898(4) 0.3129(3) 0.6135(3)
H10 H 0.1376 0.3543 0.6788
C21 C 0.1539(4) 0.3315(3) 0.5271(3)
H11 H 0.0765 0.3852 0.5335
C22 C 0.2744(4) 0.6731(3) 0.2282(2)
C23 C 0.3903(4) 0.6915(3) 0.1656(3)
H12 H 0.4277 0.6289 0.1045
C24 C 0.4512(4) 0.7994(3) 0.1911(3)
H13 H 0.5274 0.8105 0.1466
C25 C 0.4016(4) 0.8911(3) 0.2812(3)
H14 H 0.4457 0.9651 0.2995
C26 C 0.2880(4) 0.8753(3) 0.3448(3)
H15 H 0.2545 0.9384 0.4070
C27 C 0.2225(4) 0.7672(3) 0.3178(3)
H16 H 0.1419 0.7571 0.3607
C28 C 0.1667(4) 0.0736(3) -0.1471(3)
C29 C 0.2673(4) -0.0159(3) -0.1679(3)
H17 H 0.3334 -0.0156 -0.1112
C30 C 0.2711(5) -0.1050(3) -0.2708(3)
H18 H 0.3357 -0.1669 -0.2833
C31 C 0.1817(5) -0.1045(3) -0.3555(3)
H19 H 0.1855 -0.1655 -0.4258
C32 C 0.0867(5) -0.0143(3) -0.3372(3)
H20 H 0.0269 -0.0127 -0.3952
C33 C 0.0794(4) 0.0741(3) -0.2332(3)
H21 H 0.0137 0.1354 -0.2211
C34 C -0.1358(4) 0.3376(3) 0.1720(3)
C35 C -0.2392(4) 0.3798(3) 0.2602(3)
H22 H -0.1985 0.4179 0.3329
C36 C -0.4105(5) 0.3587(3) 0.2272(3)
H23 H -0.4963 0.3830 0.2761
C37 C -0.4393(5) 0.3016(3) 0.1216(3)
H24 H -0.5469 0.2802 0.0867
N1 N 0.1339(3) 0.2325(2) 0.1526(2)
N2 N 0.1468(3) 0.4284(2) 0.2747(2)
N3 N 0.1327(3) 0.3630(2) 0.0854(2)
S1 S -0.26027(12) 0.27151(8) 0.05641(8)
B1 B 0.0620(5) 0.3405(3) 0.1717(3)
loop_
_geom_bond_atom_site_label_1
_geom_bond_atom_site_label_2
_geom_bond_site_symmetry_1
_geom_bond_site_symmetry_2
C1 C2 1_555 1_555
C2 H1 1_555 1_555
C3 C2 1_555 1_555
H2 C3 1_555 1_555
C4 C3 1_555 1_555
C5 C4 1_555 1_555
C6 C5 1_555 1_555
C7 C6 1_555 1_555
H3 C7 1_555 1_555
C8 C7 1_555 1_555
H4 C8 1_555 1_555
C9 C8 1_555 1_555
C10 C9 1_555 1_555
C11 C10 1_555 1_555
C12 C11 1_555 1_555
H5 C12 1_555 1_555
C13 C12 1_555 1_555
H6 C13 1_555 1_555
C14 C13 1_555 1_555
C15 C1 1_555 1_555
C16 C5 1_555 1_555
C17 C16 1_555 1_555
H7 C17 1_555 1_555
C18 C17 1_555 1_555
H8 C18 1_555 1_555
C19 C18 1_555 1_555
H9 C19 1_555 1_555
C20 C19 1_555 1_555
H10 C20 1_555 1_555
C21 C16 1_555 1_555
H11 C21 1_555 1_555
C22 C10 1_555 1_555
C23 C22 1_555 1_555
H12 C23 1_555 1_555
C24 C23 1_555 1_555
H13 C24 1_555 1_555
C25 C24 1_555 1_555
H14 C25 1_555 1_555
C26 C25 1_555 1_555
H15 C26 1_555 1_555
C27 C22 1_555 1_555
H16 C27 1_555 1_555
C28 C15 1_555 1_555
C29 C28 1_555 1_555
H17 C29 1_555 1_555
C30 C29 1_555 1_555
H18 C30 1_555 1_555
C31 C30 1_555 1_555
H19 C31 1_555 1_555
C32 C31 1_555 1_555
H20 C32 1_555 1_555
C33 C28 1_555 1_555
H21 C33 1_555 1_555
C34 C35 1_555 1_555
C35 H22 1_555 1_555
C36 C35 1_555 1_555
H23 C36 1_555 1_555
C37 C36 1_555 1_555
H24 C37 1_555 1_555
N1 C1 1_555 1_555
N2 C6 1_555 1_555
N3 C11 1_555 1_555
S1 C34 1_555 1_555
B1 C34 1_555 1_555
C4 N1 1_555 1_555
C9 N2 1_555 1_555
C14 C15 1_555 1_555
C14 N3 1_555 1_555
C20 C21 1_555 1_555
C26 C27 1_555 1_555
C32 C33 1_555 1_555
C37 S1 1_555 1_555
N1 B1 1_555 1_555
N2 B1 1_555 1_555
N3 B1 1_555 1_555

#END
