
#######################################################################
#
#                 Cambridge Crystallographic Data Centre
#                                CCDC 
#
#######################################################################
#
# If this CIF has been generated from an entry in the Cambridge 
# Structural Database, then it will include bibliographic, chemical, 
# crystal, experimental, refinement or atomic coordinate data resulting 
# from the CCDC's data processing and validation procedures.
#
#######################################################################

data_RIBQID
_chemical_formula_moiety         'C14 H14 N4 O5 S1'
_chemical_name_systematic        
syn,anti-4-(3-Methyl-3-phenylureido)-3-nitrobenzenesulfonamide
_symmetry_cell_setting           monoclinic
_symmetry_space_group_name_H-M   'P 21/c'
_symmetry_Int_Tables_number      14
_space_group_name_Hall           '-P 2ybc'
loop_
_symmetry_equiv_pos_site_id
_symmetry_equiv_pos_as_xyz
1 x,y,z
2 -x,1/2+y,1/2-z
3 -x,-y,-z
4 x,1/2-y,1/2+z
_cell_length_a                   15.677(5)
_cell_length_b                   13.127(4)
_cell_length_c                   8.019(2)
_cell_angle_alpha                90
_cell_angle_beta                 95.390(6)
_cell_angle_gamma                90
_cell_volume                     1642.95
_exptl_crystal_colour            colorless
_exptl_crystal_description       needle
_cell_formula_units_Z            4
loop_
_atom_site_label
_atom_site_type_symbol
_atom_site_fract_x
_atom_site_fract_y
_atom_site_fract_z
S1 S 0.63025(11) -0.01784(10) 0.1441(2)
O1 O 0.5980(3) 0.5005(3) 0.0857(5)
O2 O 0.6046(3) -0.0363(3) -0.0279(5)
N1 N 0.7214(3) 0.4216(3) 0.1932(7)
N2 N 0.7164(4) 0.5939(4) 0.1584(7)
O3 O 0.7027(3) -0.0702(3) 0.2238(5)
C1 C 0.6963(4) 0.3207(4) 0.1863(7)
C2 C 0.7510(4) 0.2457(4) 0.2644(7)
C3 C 0.7300(4) 0.1436(4) 0.2506(7)
H1 H 0.7675 0.0950 0.3000
N3 N 0.5507(5) -0.0428(4) 0.2427(9)
O4 O 0.8637(3) 0.2017(4) 0.4528(7)
C4 C 0.6550(3) 0.1135(4) 0.1654(7)
C5 C 0.6001(4) 0.1865(4) 0.0899(7)
H2 H 0.5490 0.1663 0.0309
C6 C 0.6203(4) 0.2875(4) 0.1010(7)
H3 H 0.5823 0.3351 0.0504
C7 C 0.6741(4) 0.5057(4) 0.1406(7)
C8 C 0.8066(5) 0.6027(5) 0.2092(10)
O5 O 0.8601(3) 0.3544(4) 0.3636(8)
N4 N 0.8302(3) 0.2684(4) 0.3664(7)
C9 C 0.8345(6) 0.6127(6) 0.3737(11)
H4 H 0.7961 0.6135 0.4552
C10 C 0.6690(5) 0.6879(4) 0.1178(9)
H5 H 0.6574 0.6937 -0.0015
H6 H 0.7026 0.7452 0.1597
H7 H 0.6160 0.6866 0.1686
C11 C 0.9769(7) 0.6223(8) 0.2978(16)
H8 H 1.0353 0.6314 0.3269
C12 C 0.8617(6) 0.6012(6) 0.0875(11)
H9 H 0.8417 0.5944 -0.0249
C13 C 0.9224(7) 0.6216(7) 0.4174(13)
H10 H 0.9433 0.6272 0.5295
C14 C 0.9474(6) 0.6098(8) 0.1361(14)
H11 H 0.9862 0.6071 0.0553
H12 H 0.774(3) 0.429(3) 0.254(5)
H13 H 0.555(4) -0.024(5) 0.347(8)
H14 H 0.511(3) -0.022(4) 0.201(7)
loop_
_geom_bond_atom_site_label_1
_geom_bond_atom_site_label_2
_geom_bond_site_symmetry_1
_geom_bond_site_symmetry_2
S1 O2 1_555 1_555
O1 C7 1_555 1_555
N1 C1 1_555 1_555
N2 C7 1_555 1_555
O3 S1 1_555 1_555
C1 C2 1_555 1_555
C2 C3 1_555 1_555
C3 H1 1_555 1_555
N3 S1 1_555 1_555
O4 N4 1_555 1_555
C4 S1 1_555 1_555
C5 C4 1_555 1_555
H2 C5 1_555 1_555
C6 C1 1_555 1_555
H3 C6 1_555 1_555
C7 N1 1_555 1_555
C8 N2 1_555 1_555
O5 N4 1_555 1_555
N4 C2 1_555 1_555
C9 C8 1_555 1_555
H4 C9 1_555 1_555
C10 N2 1_555 1_555
H5 C10 1_555 1_555
H6 C10 1_555 1_555
H7 C10 1_555 1_555
C11 H8 1_555 1_555
C12 C8 1_555 1_555
H9 C12 1_555 1_555
C13 C9 1_555 1_555
H10 C13 1_555 1_555
C14 C11 1_555 1_555
H11 C14 1_555 1_555
H12 N1 1_555 1_555
H13 N3 1_555 1_555
H14 N3 1_555 1_555
C3 C4 1_555 1_555
C5 C6 1_555 1_555
C11 C13 1_555 1_555
C12 C14 1_555 1_555

#END
