
#######################################################################
#
#                 Cambridge Crystallographic Data Centre
#                                CCDC 
#
#######################################################################
#
# If this CIF has been generated from an entry in the Cambridge 
# Structural Database, then it will include bibliographic, chemical, 
# crystal, experimental, refinement or atomic coordinate data resulting 
# from the CCDC's data processing and validation procedures.
#
#######################################################################

data_RIBTOL
_chemical_formula_moiety         'C5 H12 O5'
_chemical_name_systematic        Ribitol
_symmetry_cell_setting           monoclinic
_symmetry_space_group_name_H-M   'P 21/c'
_symmetry_Int_Tables_number      14
_space_group_name_Hall           '-P 2ybc'
loop_
_symmetry_equiv_pos_site_id
_symmetry_equiv_pos_as_xyz
1 x,y,z
2 -x,1/2+y,1/2-z
3 -x,-y,-z
4 x,1/2-y,1/2+z
_cell_length_a                   8.990(1)
_cell_length_b                   4.946(2)
_cell_length_c                   15.730(5)
_cell_angle_alpha                90
_cell_angle_beta                 97.07(2)
_cell_angle_gamma                90
_cell_volume                     694.109
_chemical_melting_point          101deg.C
_cell_formula_units_Z            4
loop_
_atom_site_label
_atom_site_type_symbol
_atom_site_fract_x
_atom_site_fract_y
_atom_site_fract_z
C1 C 0.26130 -0.43990 0.47220
C2 C 0.30200 -0.41860 0.56810
C3 C 0.17080 -0.49080 0.61760
C4 C 0.20080 -0.43310 0.71350
C5 C 0.33020 -0.59550 0.75890
H1 H 0.34800 -0.43000 0.43700
H2 H 0.03100 -0.79000 0.59100
H3 H -0.00900 -0.34000 0.75100
H4 H 0.46100 -0.58900 0.86900
H5 H 0.21000 -0.60000 0.45500
H6 H 0.38600 -0.57000 0.58000
H7 H 0.07000 -0.39000 0.59000
H8 H 0.23000 -0.26000 0.72500
H9 H 0.30600 -0.81000 0.74800
H10 H 0.42000 -0.58000 0.73300
H11 H 0.21100 -0.12800 0.39900
H12 H 0.27900 -0.04400 0.58800
O1 O 0.16250 -0.22580 0.44150
O2 O 0.36010 -0.15740 0.59060
O3 O 0.13800 -0.76890 0.60280
O4 O 0.07040 -0.49560 0.75340
O5 O 0.36210 -0.49710 0.84400
loop_
_geom_bond_atom_site_label_1
_geom_bond_atom_site_label_2
_geom_bond_site_symmetry_1
_geom_bond_site_symmetry_2
C1 C2 1_555 1_555
C2 C3 1_555 1_555
C3 C4 1_555 1_555
C4 C5 1_555 1_555
C5 H9 1_555 1_555
H1 C1 1_555 1_555
H2 O3 1_555 1_555
H3 O4 1_555 1_555
H4 O5 1_555 1_555
H5 C1 1_555 1_555
H6 C2 1_555 1_555
H7 C3 1_555 1_555
H8 C4 1_555 1_555
H10 C5 1_555 1_555
H11 O1 1_555 1_555
H12 O2 1_555 1_555
O1 C1 1_555 1_555
O2 C2 1_555 1_555
O3 C3 1_555 1_555
O4 C4 1_555 1_555
O5 C5 1_555 1_555

#END
