
#######################################################################
#
#                 Cambridge Crystallographic Data Centre
#                                CCDC 
#
#######################################################################
#
# If this CIF has been generated from an entry in the Cambridge 
# Structural Database, then it will include bibliographic, chemical, 
# crystal, experimental, refinement or atomic coordinate data resulting 
# from the CCDC's data processing and validation procedures.
#
#######################################################################

data_RIBVOP
_chemical_formula_moiety         'C15 H14 O7'
_chemical_name_systematic        
'Dimethyl 3,5-dioxo-4-oxatetracyclo[5.4.1.0^2,6^.0^8,11^]dodec-9-ene-9,10-dicarboxylate'
_symmetry_cell_setting           monoclinic
_symmetry_space_group_name_H-M   'P 21'
_symmetry_Int_Tables_number      4
_space_group_name_Hall           'P 2yb'
loop_
_symmetry_equiv_pos_site_id
_symmetry_equiv_pos_as_xyz
1 x,y,z
2 -x,1/2+y,-z
_cell_length_a                   9.1386(7)
_cell_length_b                   6.5567(5)
_cell_length_c                   11.6157(8)
_cell_angle_alpha                90
_cell_angle_beta                 94.023(6)
_cell_angle_gamma                90
_cell_volume                     694.287
_exptl_crystal_colour            colorless
_exptl_crystal_description       plate
_cell_formula_units_Z            2
loop_
_atom_site_label
_atom_site_type_symbol
_atom_site_fract_x
_atom_site_fract_y
_atom_site_fract_z
O1 O 0.2773(2) 0.6836(3) 0.26087(15)
O2 O 0.31275(19) 0.4574(3) 0.40332(13)
O3 O 0.3592(2) 0.1788(4) 0.51030(14)
O4 O 1.0450(2) 0.1957(4) 0.28829(19)
O5 O 0.88302(19) -0.0042(3) 0.36751(14)
O6 O 0.7667(2) 0.7039(4) 0.07162(18)
O7 O 0.97442(19) 0.5389(3) 0.12591(13)
C1 C 0.5420(3) 0.1030(4) 0.28268(19)
H1 H 0.5734 -0.0358 0.3102
C2 C 0.6405(3) 0.2791(4) 0.32773(18)
H2 H 0.6338 0.3135 0.4111
C3 C 0.7931(3) 0.2907(4) 0.28487(19)
C4 C 0.7601(3) 0.4483(4) 0.21296(18)
C5 C 0.6012(2) 0.4589(4) 0.24033(18)
H3 H 0.5700 0.5894 0.2758
C6 C 0.4888(3) 0.3614(4) 0.15329(19)
H4 H 0.4774 0.4295 0.0762
C7 C 0.3456(3) 0.3356(4) 0.21539(19)
H5 H 0.2617 0.2985 0.1593
C8 C 0.3069(3) 0.5128(4) 0.2883(2)
C9 C 0.3522(3) 0.2529(4) 0.4170(2)
C10 C 0.3802(2) 0.1608(4) 0.30238(18)
H6 H 0.3135 0.0421 0.2851
C11 C 0.5368(3) 0.1346(4) 0.15148(19)
H7 H 0.4631 0.0464 0.1094
H8 H 0.6339 0.1162 0.1201
C12 C 0.9221(3) 0.1619(5) 0.31172(19)
C13 C 0.9970(3) -0.1507(5) 0.3989(2)
H9 H 0.9551 -0.2658 0.4392
H10 H 1.0734 -0.0857 0.4497
H11 H 1.0398 -0.2001 0.3290
C14 C 0.8329(3) 0.5772(4) 0.1299(2)
C15 C 1.0515(3) 0.6614(5) 0.0450(2)
H12 H 1.1551 0.6216 0.0489
H13 H 1.0436 0.8059 0.0651
H14 H 1.0077 0.6391 -0.0334
loop_
_geom_bond_atom_site_label_1
_geom_bond_atom_site_label_2
_geom_bond_site_symmetry_1
_geom_bond_site_symmetry_2
O1 C8 1_555 1_555
O2 C8 1_555 1_555
O3 C9 1_555 1_555
O4 C12 1_555 1_555
O5 C12 1_555 1_555
O6 C14 1_555 1_555
O7 C14 1_555 1_555
C1 H1 1_555 1_555
C2 C1 1_555 1_555
H2 C2 1_555 1_555
C3 C2 1_555 1_555
C4 C3 1_555 1_555
C5 C2 1_555 1_555
H3 C5 1_555 1_555
C6 C5 1_555 1_555
H4 C6 1_555 1_555
C7 C6 1_555 1_555
H5 C7 1_555 1_555
C8 C7 1_555 1_555
C9 O2 1_555 1_555
C10 C1 1_555 1_555
H6 C10 1_555 1_555
C11 C1 1_555 1_555
H7 C11 1_555 1_555
H8 C11 1_555 1_555
C12 C3 1_555 1_555
C13 O5 1_555 1_555
H9 C13 1_555 1_555
H10 C13 1_555 1_555
H11 C13 1_555 1_555
C14 C4 1_555 1_555
C15 O7 1_555 1_555
H12 C15 1_555 1_555
H13 C15 1_555 1_555
H14 C15 1_555 1_555
C4 C5 1_555 1_555
C6 C11 1_555 1_555
C7 C10 1_555 1_555
C9 C10 1_555 1_555

#END
