
#######################################################################
#
#                 Cambridge Crystallographic Data Centre
#                                CCDC 
#
#######################################################################
#
# If this CIF has been generated from an entry in the Cambridge 
# Structural Database, then it will include bibliographic, chemical, 
# crystal, experimental, refinement or atomic coordinate data resulting 
# from the CCDC's data processing and validation procedures.
#
#######################################################################

data_RIBXAC
_chemical_formula_moiety         'C5 H6 N1 O1 1+,C8 H5 O4 1-'
_chemical_name_systematic        
'3-Hydroxypyridinium 1-carboxybenzene-3-carboxylate'
_symmetry_cell_setting           monoclinic
_symmetry_space_group_name_H-M   'P 21/n'
_symmetry_Int_Tables_number      14
_space_group_name_Hall           '-P 2yn'
loop_
_symmetry_equiv_pos_site_id
_symmetry_equiv_pos_as_xyz
1 x,y,z
2 1/2-x,1/2+y,1/2-z
3 -x,-y,-z
4 1/2+x,1/2-y,1/2+z
_cell_length_a                   10.2943(17)
_cell_length_b                   10.9947(18)
_cell_length_c                   10.4059(17)
_cell_angle_alpha                90
_cell_angle_beta                 99.963(2)
_cell_angle_gamma                90
_cell_volume                     1160.01
_exptl_crystal_colour            brown
_exptl_crystal_description       block
_cell_formula_units_Z            4
loop_
_atom_site_label
_atom_site_type_symbol
_atom_site_fract_x
_atom_site_fract_y
_atom_site_fract_z
O1 O -0.10544(18) 0.29756(15) 0.34000(15)
O2 O -0.11457(18) 0.10446(14) 0.40551(14)
H1 H -0.1275 0.0909 0.3268
O3 O 0.11938(16) -0.01611(13) 0.83424(13)
O4 O 0.13211(16) 0.11308(14) 0.99867(14)
C1 C -0.0432(2) 0.25140(19) 0.56609(19)
C2 C 0.0010(2) 0.16068(19) 0.65583(19)
H4 H -0.0053 0.0797 0.6295
C3 C 0.0545(2) 0.18873(18) 0.78412(19)
C4 C 0.0617(2) 0.31029(19) 0.8213(2)
H5 H 0.0966 0.3308 0.9071
C5 C 0.0178(2) 0.4008(2) 0.7328(2)
H6 H 0.0238 0.4818 0.7590
C6 C -0.0349(2) 0.37192(19) 0.6055(2)
H7 H -0.0650 0.4333 0.5462
C7 C -0.0913(2) 0.2222(2) 0.4263(2)
C8 C 0.1053(2) 0.0902(2) 0.8795(2)
O5 O 0.35553(19) 0.80183(15) 0.34618(14)
H2 H 0.3696 0.7428 0.3948
N1 N 0.20698(18) 0.81675(17) 0.01150(17)
H3 H 0.1771 0.8722 -0.0442
C9 C 0.2006(2) 0.7012(2) -0.0271(2)
H8 H 0.1632 0.6809 -0.1122
C10 C 0.2497(3) 0.6127(2) 0.0602(2)
H9 H 0.2463 0.5315 0.0347
C11 C 0.3042(2) 0.6443(2) 0.1856(2)
H10 H 0.3398 0.5845 0.2445
C12 C 0.3066(2) 0.7640(2) 0.2247(2)
C13 C 0.2577(2) 0.8499(2) 0.1327(2)
H11 H 0.2602 0.9318 0.1555
loop_
_geom_bond_atom_site_label_1
_geom_bond_atom_site_label_2
_geom_bond_site_symmetry_1
_geom_bond_site_symmetry_2
O1 C7 1_555 1_555
O2 H1 1_555 1_555
O3 C8 1_555 1_555
O4 C8 1_555 1_555
O5 H2 1_555 1_555
N1 H3 1_555 1_555
C1 C2 1_555 1_555
C2 H4 1_555 1_555
C3 C2 1_555 1_555
C4 C3 1_555 1_555
H5 C4 1_555 1_555
C5 C4 1_555 1_555
H6 C5 1_555 1_555
C6 C1 1_555 1_555
H7 C6 1_555 1_555
C7 O2 1_555 1_555
C8 C3 1_555 1_555
C9 N1 1_555 1_555
H8 C9 1_555 1_555
C10 C9 1_555 1_555
H9 C10 1_555 1_555
C11 C10 1_555 1_555
H10 C11 1_555 1_555
C12 O5 1_555 1_555
C13 N1 1_555 1_555
H11 C13 1_555 1_555
C1 C7 1_555 1_555
C5 C6 1_555 1_555
C11 C12 1_555 1_555
C12 C13 1_555 1_555

#END
