
#######################################################################
#
#                 Cambridge Crystallographic Data Centre
#                                CCDC 
#
#######################################################################
#
# If this CIF has been generated from an entry in the Cambridge 
# Structural Database, then it will include bibliographic, chemical, 
# crystal, experimental, refinement or atomic coordinate data resulting 
# from the CCDC's data processing and validation procedures.
#
#######################################################################

data_RIBZAE
_chemical_formula_moiety         'C19 H19 N3 O1 S1'
_chemical_name_systematic        
1,5-Dimethyl-4-(2-(methylsulfanyl)benzylideneamino)-2-phenyl-1H-pyrazol-3(2H)-one
_symmetry_cell_setting           orthorhombic
_symmetry_space_group_name_H-M   'P 21 21 21'
_symmetry_Int_Tables_number      19
_space_group_name_Hall           'P 2ac 2ab'
loop_
_symmetry_equiv_pos_site_id
_symmetry_equiv_pos_as_xyz
1 x,y,z
2 1/2-x,-y,1/2+z
3 -x,1/2+y,1/2-z
4 1/2+x,1/2-y,-z
_cell_length_a                   6.9535(9)
_cell_length_b                   12.9078(17)
_cell_length_c                   19.800(3)
_cell_angle_alpha                90
_cell_angle_beta                 90
_cell_angle_gamma                90
_cell_volume                     1777.14
_exptl_crystal_colour            yellow
_exptl_crystal_description       block
_cell_formula_units_Z            4
_exptl_crystal_recrystallization_method 'dichloromethane-absolute ethanol'
loop_
_atom_site_label
_atom_site_type_symbol
_atom_site_fract_x
_atom_site_fract_y
_atom_site_fract_z
C1 C 0.881(4) 0.4068(13) 0.6920(11)
C2 C 1.000(4) 0.4895(18) 0.6756(12)
H1 H 1.1063 0.4792 0.6477
C3 C 0.961(4) 0.5877(15) 0.7009(16)
H2 H 1.0410 0.6431 0.6900
C4 C 0.803(5) 0.6032(14) 0.7426(15)
H3 H 0.7768 0.6689 0.7595
C5 C 0.684(4) 0.5205(19) 0.7590(12)
H4 H 0.5780 0.5308 0.7869
C6 C 0.723(3) 0.4223(16) 0.7337(12)
C7 C 0.840(7) -0.195(3) 0.438(2)
H5 H 0.7795 -0.2448 0.4117
C8 C 0.825(6) -0.198(3) 0.507(2)
H6 H 0.7522 -0.2495 0.5271
C9 C 0.918(5) -0.125(3) 0.5461(19)
H7 H 0.9111 -0.1286 0.5929
C10 C 1.020(4) -0.046(2) 0.5155(16)
C11 C 1.035(5) -0.043(2) 0.4460(17)
H8 H 1.1051 0.0100 0.4254
C12 C 0.946(6) -0.117(3) 0.408(2)
H9 H 0.9564 -0.1146 0.3608
C13 C 1.443(6) 0.015(3) 0.522(2)
H10 H 1.5580 0.0546 0.5299
H11 H 1.4385 -0.0073 0.4762
H12 H 1.4416 -0.0439 0.5517
C14 C 1.454(7) 0.242(3) 0.562(2)
H13 H 1.4337 0.3039 0.5880
H14 H 1.4753 0.2600 0.5157
H15 H 1.5648 0.2060 0.5792
C15 C 1.281(5) 0.174(2) 0.5675(16)
C16 C 1.116(5) 0.192(2) 0.6020(15)
C17 C 0.995(5) 0.100(2) 0.5961(16)
C18 C 0.924(5) 0.301(2) 0.6644(17)
H16 H 0.8398 0.2466 0.6720
C19 C 0.380(10) 0.367(5) 0.797(3)
H17 H 0.4238 0.4110 0.8333
H18 H 0.3020 0.3125 0.8155
H19 H 0.3051 0.4073 0.7660
N1 N 1.076(4) 0.287(2) 0.6311(14)
N2 N 1.105(4) 0.031(2) 0.5579(14)
N3 N 1.274(4) 0.081(2) 0.5367(14)
O1 O 0.829(4) 0.081(2) 0.6151(14)
S1 S 0.576(2) 0.3143(9) 0.7558(7)
loop_
_geom_bond_atom_site_label_1
_geom_bond_atom_site_label_2
_geom_bond_site_symmetry_1
_geom_bond_site_symmetry_2
C1 C2 1_555 1_555
C2 H1 1_555 1_555
C3 C2 1_555 1_555
H2 C3 1_555 1_555
C4 C3 1_555 1_555
H3 C4 1_555 1_555
C5 C4 1_555 1_555
H4 C5 1_555 1_555
C6 C1 1_555 1_555
C7 H5 1_555 1_555
C8 C7 1_555 1_555
H6 C8 1_555 1_555
C9 C8 1_555 1_555
H7 C9 1_555 1_555
C10 C9 1_555 1_555
C11 C10 1_555 1_555
H8 C11 1_555 1_555
C12 C7 1_555 1_555
H9 C12 1_555 1_555
C13 H10 1_555 1_555
H11 C13 1_555 1_555
H12 C13 1_555 1_555
C14 H13 1_555 1_555
H14 C14 1_555 1_555
H15 C14 1_555 1_555
C15 C14 1_555 1_555
C16 C15 1_555 1_555
C17 C16 1_555 1_555
C18 C1 1_555 1_555
H16 C18 1_555 1_555
C19 H17 1_555 1_555
H18 C19 1_555 1_555
H19 C19 1_555 1_555
N1 C16 1_555 1_555
N2 C10 1_555 1_555
N3 C13 1_555 1_555
O1 C17 1_555 1_555
S1 C6 1_555 1_555
C5 C6 1_555 1_555
C11 C12 1_555 1_555
C15 N3 1_555 1_555
C17 N2 1_555 1_555
C18 N1 1_555 1_555
C19 S1 1_555 1_555
N2 N3 1_555 1_555

#END
