
#######################################################################
#
#                 Cambridge Crystallographic Data Centre
#                                CCDC 
#
#######################################################################
#
# If this CIF has been generated from an entry in the Cambridge 
# Structural Database, then it will include bibliographic, chemical, 
# crystal, experimental, refinement or atomic coordinate data resulting 
# from the CCDC's data processing and validation procedures.
#
#######################################################################

data_RICHUG
_chemical_compound_source        
"Parent compound from jack o'lantern mushroom, Omphalotus illudens"
_chemical_name_common            (Hydroxymethyl)acylfulvene
_chemical_formula_moiety         'C15 H18 O3'
_chemical_name_systematic        
"Spiro((3,5,8-trimethyl-3-hydroxy-7-hydroxymethylbicyclo(4.3.0) nona-5,7,9-trien-2-one)-4,1'-cyclopropane)"
_chemical_properties_biological  
'potent antitumour activity and outstanding activity against breast, colon and skin cancers'
_symmetry_cell_setting           triclinic
_symmetry_space_group_name_H-M   'P 1'
_symmetry_Int_Tables_number      1
_space_group_name_Hall           'P 1'
loop_
_symmetry_equiv_pos_site_id
_symmetry_equiv_pos_as_xyz
1 x,y,z
_cell_length_a                   9.511(3)
_cell_length_b                   9.556(2)
_cell_length_c                   12.447(4)
_cell_angle_alpha                98.03(2)
_cell_angle_beta                 103.09(2)
_cell_angle_gamma                113.99(2)
_cell_volume                     971.947
_exptl_crystal_colour            orange-yellow
_chemical_melting_point          127-129deg.C
_cell_formula_units_Z            3
loop_
_atom_site_label
_atom_site_type_symbol
_atom_site_fract_x
_atom_site_fract_y
_atom_site_fract_z
O2 O 0.8024 0.5726 0.5115
O5 O 0.7179(2) 0.4197(2) 0.2881(2)
O8 O 0.0077(2) 0.1943(3) 0.4987(2)
C1 C 0.6675(2) 0.4586(3) 0.4704(2)
C4 C 0.6166(2) 0.3471(3) 0.3522(2)
C7 C 0.4363(3) 0.2926(3) 0.2883(2)
C10 C 0.3205(2) 0.2398(3) 0.3546(2)
C13 C 0.3783(2) 0.2924(3) 0.4702(2)
C16 C 0.5465(2) 0.4126(3) 0.5288(2)
C19 C 0.1433(3) 0.1380(3) 0.2891(2)
C22 C 0.6432(3) 0.2029(3) 0.3701(2)
C25 C 0.3967(3) 0.3776(3) 0.1996(2)
C28 C 0.3814(3) 0.2153(3) 0.1613(2)
C31 C 0.2973(3) 0.2725(3) 0.5590(2)
C34 C 0.4074(3) 0.3789(3) 0.6593(2)
C37 C 0.5611(3) 0.4663(3) 0.6405(2)
C40 C 0.3784(3) 0.4083(4) 0.7723(2)
C43 C 0.1278(3) 0.1534(3) 0.5458(2)
H1 H 0.7269 0.5123 0.2902
H4 H -0.0195 0.2544 0.5650
H7 H 0.1161 0.0289 0.2863
H8 H 0.1212 0.1496 0.2126
H9 H 0.0796 0.1691 0.3275
H16 H 0.7553 0.2370 0.4099
H17 H 0.5777 0.1495 0.4140
H18 H 0.6128 0.1315 0.2971
H25 H 0.4860 0.4649 0.1908
H26 H 0.2990 0.3887 0.1891
H31 H 0.2740 0.1291 0.1278
H32 H 0.4610 0.2053 0.1296
H37 H 0.6579 0.5481 0.6971
H40 H 0.3453 0.3128 0.7976
H41 H 0.2966 0.4440 0.7640
H42 H 0.4762 0.4915 0.8270
H49 H 0.1044 0.0528 0.4992
H50 H 0.1223 0.1399 0.6200
O3 O 0.0443 0.7578 0.2894
O6 O 0.1198(2) 0.7563(2) 0.5139(2)
O9 O 0.7510(2) 0.7292(2) 0.2956(2)
C2 C 0.1692(2) 0.7484(3) 0.3312(2)
C5 C 0.2065(3) 0.7143(3) 0.4478(2)
C8 C 0.3897(3) 0.8105(3) 0.5136(2)
C11 C 0.5047(2) 0.8153(2) 0.4478(2)
C14 C 0.4529(2) 0.7916(2) 0.3325(2)
C17 C 0.2882(2) 0.7625(2) 0.2731(2)
C20 C 0.6746(3) 0.8552(3) 0.5147(2)
C23 C 0.1575(3) 0.5358(3) 0.4258(3)
C26 C 0.4437(3) 0.9643(3) 0.6043(2)
C29 C 0.4354(3) 0.8186(3) 0.6393(2)
C32 C 0.5342(2) 0.8017(3) 0.2440(2)
C35 C 0.4246(3) 0.7778(3) 0.1422(2)
C38 C 0.2724(3) 0.7549(3) 0.1608(2)
C41 C 0.4461(3) 0.7758(4) 0.0258(2)
C44 C 0.7099(3) 0.8474(3) 0.2605(2)
H2 H 0.0255 0.6793 0.4962
H5 H 0.8444 0.7479 0.2908
H10 H 0.7368 0.8548 0.4638
H11 H 0.7236 0.9585 0.5667
H12 H 0.6721 0.7780 0.5570
H19 H 0.0438 0.4763 0.3851
H20 H 0.2180 0.5104 0.3809
H21 H 0.1804 0.5093 0.4972
H27 H 0.3624 0.9964 0.6125
H28 H 0.5491 1.0497 0.6172
H33 H 0.5356 0.8167 0.6734
H34 H 0.3493 0.7635 0.6688
H38 H 0.1757 0.7364 0.1035
H43 H 0.5549 0.7944 0.0314
H44 H 0.3712 0.6732 -0.0248
H45 H 0.4257 0.8558 -0.0035
H51 H 0.7323 0.8608 0.1902
H52 H 0.7756 0.9468 0.3172
O4 O 0.9161(3) 0.2441(2) 0.6960(2)
O7 O 0.8232(2) 0.0796(2) 0.8385(2)
O10 O 0.7832(3) 0.8361(3) 0.9509(2)
C3 C 0.9168(3) 0.3236(3) 0.7839(2)
C6 C 0.8912(3) 0.2474(3) 0.8824(2)
C9 C 0.7823(3) 0.2920(3) 0.9392(2)
C12 C 0.8151(2) 0.4620(3) 0.9582(2)
C15 C 0.9004(2) 0.5532(2) 0.8980(2)
C18 C 0.9463(2) 0.4863(3) 0.8063(2)
C21 C 0.7495(3) 0.5238(3) 1.0423(2)
C24 C 1.0583(3) 0.3059(3) 0.9696(2)
C27 C 0.6074(3) 0.1684(3) 0.9144(2)
C30 C 0.7294(3) 0.2022(3) 1.0265(2)
C33 C 0.9526(2) 0.7206(2) 0.8978(2)
C36 C 1.0213(3) 0.7470(3) 0.8114(2)
C39 C 1.0141(3) 0.6004(3) 0.7539(2)
C42 C 1.0903(4) 0.8984(3) 0.7758(3)
H3 H 0.8128 0.0666 0.7655
H6 H 0.7825 0.9066 0.9162
H13 H 0.8371 0.5892 1.1111
H14 H 0.6699 0.4380 1.0605
H15 H 0.7010 0.5864 1.0121
H22 H 1.1257 0.2777 0.9336
H23 H 1.1068 0.4191 0.9978
H24 H 1.0473 0.2580 1.0321
H29 H 0.5718 0.0699 0.8597
H30 H 0.5260 0.2037 0.9134
H35 H 0.7203 0.2580 1.0929
H36 H 0.7662 0.1242 1.0392
H39 H 1.0512 0.5860 0.6896
H46 H 1.0829 0.9806 0.8247
H47 H 1.2019 0.9291 0.7819
H48 H 1.0302 0.8823 0.6982
H53 H 0.9678 0.8310 1.0543
H54 H 1.0175 0.9473 0.9789
C45 C 0.9402(3) 0.8441(3) 0.9785(2)
O1? O 0.0521(12) 0.0070(12) 0.4737(8)
loop_
_geom_bond_atom_site_label_1
_geom_bond_atom_site_label_2
_geom_bond_site_symmetry_1
_geom_bond_site_symmetry_2
O2 C1 1_555 1_555
O3 C2 1_555 1_555
O4 C3 1_555 1_555
O5 C4 1_555 1_555
O6 C5 1_555 1_555
O7 C6 1_555 1_555
O8 C43 1_555 1_555
O9 C44 1_555 1_555
O10 H6 1_555 1_555
C1 C4 1_555 1_555
C2 C5 1_555 1_555
C3 C6 1_555 1_555
C4 C7 1_555 1_555
C5 C8 1_555 1_555
C6 C9 1_555 1_555
C7 C10 1_555 1_555
C8 C11 1_555 1_555
C9 C12 1_555 1_555
C10 C13 1_555 1_555
C11 C14 1_555 1_555
C12 C15 1_555 1_555
C13 C16 1_555 1_555
C14 C17 1_555 1_555
C15 C18 1_555 1_555
C16 C1 1_555 1_555
C17 C2 1_555 1_555
C18 C3 1_555 1_555
C19 C10 1_555 1_555
C20 C11 1_555 1_555
C21 C12 1_555 1_555
C22 C4 1_555 1_555
C23 C5 1_555 1_555
C24 C6 1_555 1_555
C25 C7 1_555 1_555
C26 C8 1_555 1_555
C27 C9 1_555 1_555
C28 C7 1_555 1_555
C29 C8 1_555 1_555
C30 C9 1_555 1_555
C31 C13 1_555 1_555
C32 C14 1_555 1_555
C33 C15 1_555 1_555
C34 C31 1_555 1_555
C35 C32 1_555 1_555
C36 C33 1_555 1_555
C37 C16 1_555 1_555
C38 C17 1_555 1_555
C39 C18 1_555 1_555
C40 C34 1_555 1_555
C41 C35 1_555 1_555
C42 C36 1_555 1_555
C43 C31 1_555 1_555
C44 C32 1_555 1_555
H1 O5 1_555 1_555
H2 O6 1_555 1_555
H3 O7 1_555 1_555
H4 O8 1_555 1_555
H5 O9 1_555 1_555
H7 C19 1_555 1_555
H8 C19 1_555 1_555
H9 C19 1_555 1_555
H10 C20 1_555 1_555
H11 C20 1_555 1_555
H12 C20 1_555 1_555
H13 C21 1_555 1_555
H14 C21 1_555 1_555
H15 C21 1_555 1_555
H16 C22 1_555 1_555
H17 C22 1_555 1_555
H18 C22 1_555 1_555
H19 C23 1_555 1_555
H20 C23 1_555 1_555
H21 C23 1_555 1_555
H22 C24 1_555 1_555
H23 C24 1_555 1_555
H24 C24 1_555 1_555
H25 C25 1_555 1_555
H26 C25 1_555 1_555
H27 C26 1_555 1_555
H28 C26 1_555 1_555
H29 C27 1_555 1_555
H30 C27 1_555 1_555
H31 C28 1_555 1_555
H32 C28 1_555 1_555
H33 C29 1_555 1_555
H34 C29 1_555 1_555
H35 C30 1_555 1_555
H36 C30 1_555 1_555
H37 C37 1_555 1_555
H38 C38 1_555 1_555
H39 C39 1_555 1_555
H40 C40 1_555 1_555
H41 C40 1_555 1_555
H42 C40 1_555 1_555
H43 C41 1_555 1_555
H44 C41 1_555 1_555
H45 C41 1_555 1_555
H46 C42 1_555 1_555
H47 C42 1_555 1_555
H48 C42 1_555 1_555
H49 C43 1_555 1_555
H50 C43 1_555 1_555
H51 C44 1_555 1_555
H52 C44 1_555 1_555
H53 C45 1_555 1_555
H54 C45 1_555 1_555
C45 O10 1_555 1_555
C25 C28 1_555 1_555
C26 C29 1_555 1_555
C27 C30 1_555 1_555
C33 C45 1_555 1_555
C34 C37 1_555 1_555
C35 C38 1_555 1_555
C36 C39 1_555 1_555

#END
