
#######################################################################
#
#                 Cambridge Crystallographic Data Centre
#                                CCDC 
#
#######################################################################
#
# If this CIF has been generated from an entry in the Cambridge 
# Structural Database, then it will include bibliographic, chemical, 
# crystal, experimental, refinement or atomic coordinate data resulting 
# from the CCDC's data processing and validation procedures.
#
#######################################################################

data_RICHOA
_chemical_compound_source        'Stems of Neolitsea parvigemma'
_chemical_formula_moiety         'C23 H30 O8,C1 H4 O1'
_chemical_name_systematic        'Neolitrane methanol solvate'
_symmetry_cell_setting           orthorhombic
_symmetry_space_group_name_H-M   'P 21 21 21'
_symmetry_Int_Tables_number      19
_space_group_name_Hall           'P 2ac 2ab'
loop_
_symmetry_equiv_pos_site_id
_symmetry_equiv_pos_as_xyz
1 x,y,z
2 1/2-x,-y,1/2+z
3 1/2+x,1/2-y,-z
4 -x,1/2+y,1/2-z
_cell_length_a                   10.328(2)
_cell_length_b                   15.197(3)
_cell_length_c                   15.362(3)
_cell_angle_alpha                90
_cell_angle_beta                 90
_cell_angle_gamma                90
_cell_volume                     2411.14
_exptl_crystal_colour            colorless
_chemical_melting_point          142-143deg.C
_cell_formula_units_Z            4
loop_
_atom_site_label
_atom_site_type_symbol
_atom_site_fract_x
_atom_site_fract_y
_atom_site_fract_z
O1 O 0.1542(4) 0.9584(3) -0.1090(2)
O2 O -0.0146(4) 1.0840(2) 0.2017(2)
O3 O 0.2910(4) 1.0262(3) 0.1918(3)
O4 O 0.2045(4) 1.1947(3) 0.0544(2)
O5 O 0.1595(5) 1.2143(3) 0.1987(3)
O6 O 0.4015(4) 0.8227(3) -0.1093(3)
O7 O 0.3487(3) 0.9110(2) 0.0024(2)
O8 O 0.2188(4) 0.7511(2) 0.1201(3)
C1 C 0.1180(6) 0.9177(4) -0.0277(3)
C2 C 0.1272(6) 1.0134(3) -0.0343(3)
C3 C 0.0174(6) 1.0758(4) -0.0447(3)
C4 C -0.0468(5) 1.1075(4) 0.0422(3)
C5 C 0.0457(5) 1.1023(3) 0.1188(3)
C6 C 0.0587(5) 1.0159(4) 0.1590(3)
C7 C 0.1755(5) 0.9777(3) 0.2066(3)
C8 C 0.1913(5) 0.8814(3) 0.1845(3)
C9 C 0.2094(5) 0.8407(3) 0.1069(3)
C10 C 0.2260(6) 0.8643(3) 0.0128(3)
C11 C 0.1883(5) 0.8136(3) 0.2495(3)
C12 C 0.2037(6) 0.7375(4) 0.2070(4)
C13 C 0.1690(6) 0.8233(4) 0.3453(3)
C14 C -0.0102(6) 0.8710(4) -0.0288(4)
C15 C 0.4229(5) 0.8858(4) -0.0652(3)
C16 C 0.5400(6) 0.9441(4) -0.0739(4)
C17 C 0.1472(5) 1.1731(3) 0.1216(3)
C18 C 0.2566(5) 1.2846(3) 0.2135(3)
C19 C 0.1860(6) 1.3640(4) 0.2508(5)
C20 C 0.2847(7) 1.4387(4) 0.2708(5)
C21 C 0.3882(8) 1.4051(6) 0.3322(5)
C22 C 0.4559(6) 1.3266(5) 0.2933(5)
C23 C 0.3627(6) 1.2541(4) 0.2739(4)
H1 H 0.2936 1.0294 0.1385
H2 H 0.2033 1.0429 -0.0034
H3 H 0.0521 1.1258 -0.0983
H4 H -0.0692 1.0414 -0.0770
H5 H -0.0932 1.1685 0.0291
H6 H -0.1307 1.0670 0.0534
H7 H 0.0160 0.9581 0.1382
H8 H 0.1427 0.9765 0.2736
H9 H 0.2355 0.7996 -0.0188
H10 H 0.2055 0.6749 0.2437
H11 H 0.0935 0.8637 0.3601
H12 H 0.2259 0.8680 0.3760
H13 H 0.1538 0.7714 0.3848
H14 H -0.0096 0.8111 -0.0608
H15 H -0.0967 0.9039 -0.0389
H16 H -0.0256 0.8301 0.0163
H17 H 0.6231 0.9051 -0.0565
H18 H 0.5623 0.9970 -0.0322
H19 H 0.5663 0.9459 -0.1325
H20 H 0.2823 1.3005 0.1522
H21 H 0.1013 1.3940 0.2094
H22 H 0.1071 1.3686 0.2993
H23 H 0.3503 1.4599 0.2131
H24 H 0.2127 1.4810 0.3152
H25 H 0.3415 1.3725 0.4011
H26 H 0.4601 1.4569 0.3474
H27 H 0.5105 1.3477 0.2313
H28 H 0.5258 1.3183 0.3531
H29 H 0.3582 1.2068 0.3186
H30 H 0.4051 1.1994 0.2397
O9 O 0.6335(6) 0.1377(4) 0.0106(5)
C24 C 0.5415(10) 0.1533(5) 0.0733(6)
H31 H 0.5996 0.1387 0.1396
H32 H 0.4791 0.1004 0.0815
H33 H 0.5256 0.2039 0.0959
H34 H 0.6559 0.2094 -0.0060
loop_
_geom_bond_atom_site_label_1
_geom_bond_atom_site_label_2
_geom_bond_site_symmetry_1
_geom_bond_site_symmetry_2
O1 C1 1_555 1_555
O2 C5 1_555 1_555
O3 C7 1_555 1_555
O4 C17 1_555 1_555
O5 C17 1_555 1_555
O6 C15 1_555 1_555
O7 C10 1_555 1_555
O8 C9 1_555 1_555
C1 C2 1_555 1_555
C2 O1 1_555 1_555
C3 C2 1_555 1_555
C4 C3 1_555 1_555
C5 C4 1_555 1_555
C6 O2 1_555 1_555
C7 C6 1_555 1_555
C8 C7 1_555 1_555
C9 C8 1_555 1_555
C10 C1 1_555 1_555
C11 C8 1_555 1_555
C12 O8 1_555 1_555
C13 C11 1_555 1_555
C14 C1 1_555 1_555
C15 O7 1_555 1_555
C16 C15 1_555 1_555
C17 C5 1_555 1_555
C18 O5 1_555 1_555
C19 C18 1_555 1_555
C20 C19 1_555 1_555
C21 C20 1_555 1_555
C22 C21 1_555 1_555
C23 C18 1_555 1_555
O9 C24 1_555 1_555
C24 H31 1_555 1_555
H1 O3 1_555 1_555
H2 C2 1_555 1_555
H3 C3 1_555 1_555
H4 C3 1_555 1_555
H5 C4 1_555 1_555
H6 C4 1_555 1_555
H7 C6 1_555 1_555
H8 C7 1_555 1_555
H9 C10 1_555 1_555
H10 C12 1_555 1_555
H11 C13 1_555 1_555
H12 C13 1_555 1_555
H13 C13 1_555 1_555
H14 C14 1_555 1_555
H15 C14 1_555 1_555
H16 C14 1_555 1_555
H17 C16 1_555 1_555
H18 C16 1_555 1_555
H19 C16 1_555 1_555
H20 C18 1_555 1_555
H21 C19 1_555 1_555
H22 C19 1_555 1_555
H23 C20 1_555 1_555
H24 C20 1_555 1_555
H25 C21 1_555 1_555
H26 C21 1_555 1_555
H27 C22 1_555 1_555
H28 C22 1_555 1_555
H29 C23 1_555 1_555
H30 C23 1_555 1_555
H32 C24 1_555 1_555
H33 C24 1_555 1_555
H34 O9 1_555 1_555
C5 C6 1_555 1_555
C9 C10 1_555 1_555
C11 C12 1_555 1_555
C22 C23 1_555 1_555

#END
