
#######################################################################
#
#                 Cambridge Crystallographic Data Centre
#                                CCDC 
#
#######################################################################
#
# If this CIF has been generated from an entry in the Cambridge 
# Structural Database, then it will include bibliographic, chemical, 
# crystal, experimental, refinement or atomic coordinate data resulting 
# from the CCDC's data processing and validation procedures.
#
#######################################################################

data_RICJAO
_chemical_name_common            (p-Hydroxybenzyl)acylfulvene
_chemical_formula_moiety         'C21 H22 O3'
_chemical_name_systematic        
Spiro((3,5,8-Trimethyl-3-hydroxy-7-p-hydroxybenzylbicyclo(4.3.0)nona-5,7,9-trien-2-one)-4,1'-cyclopropane)
_chemical_properties_biological  'potential antitumor activity'
_symmetry_cell_setting           orthorhombic
_symmetry_space_group_name_H-M   'P 21 21 21'
_symmetry_Int_Tables_number      19
_space_group_name_Hall           'P 2ac 2ab'
loop_
_symmetry_equiv_pos_site_id
_symmetry_equiv_pos_as_xyz
1 x,y,z
2 1/2-x,-y,1/2+z
3 1/2+x,1/2-y,-z
4 -x,1/2+y,1/2-z
_cell_length_a                   6.607(3)
_cell_length_b                   10.435(3)
_cell_length_c                   25.705(9)
_cell_angle_alpha                90
_cell_angle_beta                 90
_cell_angle_gamma                90
_cell_volume                     1772.21
_exptl_crystal_colour            red
_chemical_melting_point          143-144deg.C
_cell_formula_units_Z            4
loop_
_atom_site_label
_atom_site_type_symbol
_atom_site_fract_x
_atom_site_fract_y
_atom_site_fract_z
O1 O 0.0068(4) 0.2540(2) 1.0130(1)
O2 O 0.2428(4) 0.4567(2) 0.9867(1)
O3 O 0.3131(6) 0.3790(3) 1.4033(1)
C1 C 0.0153(5) 0.3423(3) 1.0446(1)
C2 C 0.1143(5) 0.4701(3) 1.0308(1)
C3 C 0.2304(5) 0.5245(3) 1.0778(1)
C4 C 0.1227(5) 0.5222(3) 1.1286(1)
C5 C -0.0277(5) 0.4349(3) 1.1359(1)
C6 C -0.0748(5) 0.3390(3) 1.0959(1)
C7 C 0.1929(7) 0.6140(4) 1.1698(1)
C8 C -0.0539(6) 0.5629(4) 1.0145(1)
C9 C 0.4580(6) 0.5027(4) 1.0798(2)
C10 C 0.3769(7) 0.6309(4) 1.0651(2)
C11 C -0.1592(6) 0.4044(3) 1.1798(1)
C12 C -0.2654(6) 0.2966(3) 1.1680(1)
C13 C -0.2112(6) 0.2571(3) 1.1158(1)
C14 C -0.4200(7) 0.2276(4) 1.2002(2)
C15 C -0.1925(6) 0.4794(3) 1.2293(1)
C16 C -0.0599(6) 0.4463(3) 1.2758(1)
C17 C 0.1173(6) 0.3780(4) 1.2715(1)
C18 C 0.2397(7) 0.3548(4) 1.3144(1)
C19 C 0.1847(7) 0.4011(4) 1.3629(1)
C20 C 0.0066(7) 0.4651(4) 1.3677(1)
C21 C -0.1155(7) 0.4875(3) 1.3253(1)
H1 H 0.2925 0.3822 0.9827
H2 H 0.2775 0.4448 1.4206
H3 H 0.1296 0.5923 1.2022
H4 H 0.1578 0.7005 1.1608
H5 H 0.3371 0.6086 1.1738
H6 H -0.1285 0.5278 0.9858
H7 H 0.0040 0.6429 1.0036
H8 H -0.1432 0.5770 1.0434
H9 H 0.5209 0.4515 1.0533
H10 H 0.5165 0.4942 1.1138
H11 H 0.3880 0.6992 1.0899
H12 H 0.3924 0.6566 1.0294
H13 H -0.2639 0.1831 1.0982
H14 H -0.5455 0.2231 1.1814
H15 H -0.4436 0.2738 1.2319
H16 H -0.3738 0.1426 1.2081
H17 H -0.3308 0.4677 1.2397
H18 H -0.1747 0.5686 1.2215
H19 H 0.1574 0.3459 1.2381
H20 H 0.3620 0.3061 1.3104
H21 H -0.0338 0.4952 1.4015
H22 H -0.2411 0.5321 1.3303
loop_
_geom_bond_atom_site_label_1
_geom_bond_atom_site_label_2
_geom_bond_site_symmetry_1
_geom_bond_site_symmetry_2
O1 C1 1_555 1_555
O2 C2 1_555 1_555
O3 C19 1_555 1_555
C1 C2 1_555 1_555
C2 C3 1_555 1_555
C3 C4 1_555 1_555
C4 C5 1_555 1_555
C5 C6 1_555 1_555
C6 C1 1_555 1_555
C7 C4 1_555 1_555
C8 C2 1_555 1_555
C9 C3 1_555 1_555
C10 C3 1_555 1_555
C11 C5 1_555 1_555
C12 C11 1_555 1_555
C13 C6 1_555 1_555
C14 C12 1_555 1_555
C15 C11 1_555 1_555
C16 C15 1_555 1_555
C17 C16 1_555 1_555
C18 C17 1_555 1_555
C19 C18 1_555 1_555
C20 C19 1_555 1_555
C21 C16 1_555 1_555
H1 O2 1_555 1_555
H2 O3 1_555 1_555
H3 C7 1_555 1_555
H4 C7 1_555 1_555
H5 C7 1_555 1_555
H6 C8 1_555 1_555
H7 C8 1_555 1_555
H8 C8 1_555 1_555
H9 C9 1_555 1_555
H10 C9 1_555 1_555
H11 C10 1_555 1_555
H12 C10 1_555 1_555
H13 C13 1_555 1_555
H14 C14 1_555 1_555
H15 C14 1_555 1_555
H16 C14 1_555 1_555
H17 C15 1_555 1_555
H18 C15 1_555 1_555
H19 C17 1_555 1_555
H20 C18 1_555 1_555
H21 C20 1_555 1_555
H22 C21 1_555 1_555
C9 C10 1_555 1_555
C12 C13 1_555 1_555
C20 C21 1_555 1_555

#END
