
#######################################################################
#
#                 Cambridge Crystallographic Data Centre
#                                CCDC 
#
#######################################################################
#
# If this CIF has been generated from an entry in the Cambridge 
# Structural Database, then it will include bibliographic, chemical, 
# crystal, experimental, refinement or atomic coordinate data resulting 
# from the CCDC's data processing and validation procedures.
#
#######################################################################

data_RICJES
_chemical_compound_source        
'Soldiers of endemic Madagascan termite Nasutitermes canaliculatus'
_chemical_formula_moiety         'C24 H36 O4'
_chemical_name_systematic        
3\a,10\a-Diacetoxy-7,16-secotrinervita-7,11,15(17)-triene
_symmetry_cell_setting           orthorhombic
_symmetry_space_group_name_H-M   'P 21 21 21'
_symmetry_Int_Tables_number      19
_space_group_name_Hall           'P 2ac 2ab'
loop_
_symmetry_equiv_pos_site_id
_symmetry_equiv_pos_as_xyz
1 x,y,z
2 1/2-x,-y,1/2+z
3 1/2+x,1/2-y,-z
4 -x,1/2+y,1/2-z
_cell_length_a                   13.165(1)
_cell_length_b                   14.151(2)
_cell_length_c                   24.803(2)
_cell_angle_alpha                90
_cell_angle_beta                 90
_cell_angle_gamma                90
_cell_volume                     4620.75
_exptl_crystal_colour            colorless
_chemical_melting_point          109.5deg.C
_cell_formula_units_Z            8
loop_
_atom_site_label
_atom_site_type_symbol
_atom_site_fract_x
_atom_site_fract_y
_atom_site_fract_z
O1 O 0.5774(2) -0.2811(2) 0.3822(1)
O2 O 0.6906(3) 0.2924(2) 0.3920(1)
O3 O 0.5569(4) 0.3650(3) 0.3568(2)
O4 O 0.4455(3) -0.2110(3) 0.4229(2)
C1 C 0.6346(3) -0.0722(3) 0.2944(2)
C2 C 0.5875(3) -0.1677(3) 0.3090(2)
C3 C 0.6191(3) -0.1906(3) 0.3659(2)
C4 C 0.7353(3) -0.1948(3) 0.3755(2)
C5 C 0.7587(3) -0.1935(3) 0.4362(2)
C6 C 0.7013(4) -0.1214(3) 0.4716(2)
C7 C 0.7173(3) -0.0192(3) 0.4578(2)
C8 C 0.6499(3) 0.0483(3) 0.4488(1)
C9 C 0.6863(3) 0.1481(3) 0.4379(2)
C10 C 0.6393(3) 0.2002(3) 0.3902(2)
C11 C 0.6561(3) 0.1558(3) 0.3367(2)
C12 C 0.5894(3) 0.1348(3) 0.3004(2)
C13 C 0.6192(4) 0.0853(4) 0.2483(2)
C14 C 0.5890(4) -0.0199(3) 0.2470(2)
C15 C 0.7470(4) -0.0880(3) 0.2925(2)
C16 C 0.7875(3) -0.1100(3) 0.3473(2)
C17 C 0.5375(3) 0.0341(3) 0.4504(2)
C18 C 0.4755(4) 0.1477(4) 0.3075(2)
C19 C 0.8043(4) -0.0868(4) 0.2487(2)
C20 C 0.7812(4) -0.2852(3) 0.3518(2)
C21 C 0.6413(5) 0.3674(4) 0.3738(2)
C22 C 0.7002(5) 0.4559(3) 0.3792(2)
C23 C 0.4892(4) -0.2806(4) 0.4091(2)
C24 C 0.4500(4) -0.3791(3) 0.4182(2)
H1 H 0.4976(4) -0.4225(3) 0.4035(2)
H2 H 0.4433(4) -0.3900(3) 0.4559(2)
H3 H 0.3859(4) -0.3875(3) 0.4012(2)
H7 H 0.7678(4) -0.2859(3) 0.3142(2)
H8 H 0.8525(4) -0.2875(3) 0.3577(2)
H9 H 0.7501(4) -0.3385(3) 0.3683(2)
H13 H 0.5216(3) -0.0302(3) 0.4575(2)
H14 H 0.5104(3) 0.0728(3) 0.4782(2)
H15 H 0.5088(3) 0.0521(3) 0.4167(2)
H19 H 0.4648(4) 0.1779(4) 0.3412(2)
H20 H 0.4508(4) 0.1870(4) 0.2793(2)
H21 H 0.4403(4) 0.0891(4) 0.3069(2)
H25 H 0.6662(5) 0.5103(3) 0.3660(2)
H26 H 0.7152(5) 0.4640(3) 0.4164(2)
H27 H 0.7617(5) 0.4471(3) 0.3597(2)
H31 H 0.8748(4) -0.1000(4) 0.2518(2)
H32 H 0.7762(4) -0.0709(4) 0.2146(2)
H35 H 0.7860(3) 0.0003(3) 0.4540(2)
H37 H 0.7249(3) 0.1448(3) 0.3271(2)
H39 H 0.5941(3) -0.1403(3) 0.3875(2)
H41 H 0.6130(3) -0.2145(3) 0.2851(2)
H42 H 0.5156(3) -0.1653(3) 0.3064(2)
H45 H 0.8292(3) -0.1810(3) 0.4405(2)
H46 H 0.7438(3) -0.2548(3) 0.4496(2)
H49 H 0.7232(4) -0.1307(3) 0.5077(2)
H50 H 0.6306(4) -0.1342(3) 0.4691(2)
H53 H 0.7569(3) 0.1427(3) 0.4305(2)
H54 H 0.6768(3) 0.1850(3) 0.4695(2)
H57 H 0.5675(3) 0.1991(3) 0.3944(2)
H59 H 0.6908(4) 0.0876(4) 0.2433(2)
H60 H 0.5867(4) 0.1177(4) 0.2195(2)
H63 H 0.5173(4) -0.0221(3) 0.2511(2)
H64 H 0.6075(4) -0.0478(3) 0.2136(2)
H67 H 0.6189(3) -0.0251(3) 0.3204(2)
H69 H 0.8580(3) -0.1229(3) 0.3441(2)
H70 H 0.7778(3) -0.0555(3) 0.3690(2)
O5 O 0.2975(2) -0.2849(2) 0.8898(1)
O6 O 0.4162(2) 0.2883(2) 0.9007(1)
O7 O 0.2850(3) 0.3662(3) 0.8657(2)
O8 O 0.1630(3) -0.2155(3) 0.9281(1)
C25 C 0.3652(3) -0.0768(3) 0.8030(1)
C26 C 0.3127(3) -0.1707(3) 0.8172(1)
C27 C 0.3424(3) -0.1947(3) 0.8749(1)
C28 C 0.4561(3) -0.2006(3) 0.8867(1)
C29 C 0.4750(3) -0.1968(3) 0.9480(1)
C30 C 0.4162(3) -0.1238(3) 0.9816(1)
C31 C 0.4332(3) -0.0218(3) 0.9674(1)
C32 C 0.3668(3) 0.0461(3) 0.9567(2)
C33 C 0.4023(3) 0.1447(3) 0.9472(2)
C34 C 0.3623(3) 0.1978(3) 0.8981(2)
C35 C 0.3847(3) 0.1515(3) 0.8455(2)
C36 C 0.3222(3) 0.1332(3) 0.8052(2)
C37 C 0.3581(4) 0.0814(3) 0.7562(2)
C38 C 0.3233(4) -0.0225(3) 0.7552(2)
C39 C 0.4760(3) -0.0974(3) 0.8032(2)
C40 C 0.5131(3) -0.1174(3) 0.8590(1)
C41 C 0.2553(3) 0.0316(3) 0.9560(2)
C42 C 0.2099(4) 0.1557(4) 0.8067(2)
C43 C 0.5354(4) -0.1054(4) 0.7603(2)
C44 C 0.5029(3) -0.2923(3) 0.8643(2)
C45 C 0.3691(5) 0.3665(4) 0.8842(2)
C46 C 0.4320(5) 0.4521(3) 0.8910(2)
C47 C 0.2064(3) -0.2851(3) 0.9148(2)
C48 C 0.1693(3) -0.3841(3) 0.9231(2)
H4 H 0.2159(3) -0.4284(3) 0.9084(2)
H5 H 0.1615(3) -0.3956(3) 0.9607(2)
H6 H 0.1054(3) -0.3906(3) 0.9057(2)
H10 H 0.4926(3) -0.2950(3) 0.8264(2)
H11 H 0.5735(3) -0.2956(3) 0.8719(2)
H12 H 0.4691(3) -0.3440(3) 0.8810(2)
H16 H 0.2368(3) -0.0324(3) 0.9622(2)
H17 H 0.2277(3) 0.0702(3) 0.9837(2)
H18 H 0.2294(3) 0.0515(3) 0.9221(2)
H22 H 0.1937(4) 0.1880(4) 0.8391(2)
H23 H 0.1918(4) 0.1939(4) 0.7767(2)
H24 H 0.1733(4) 0.0979(4) 0.8052(2)
H28 H 0.3989(5) 0.5078(3) 0.8789(2)
H29 H 0.4494(5) 0.4587(3) 0.9280(2)
H30 H 0.4919(5) 0.4421(3) 0.8704(2)
H33 H 0.6060(4) -0.1187(4) 0.7622(2)
H34 H 0.5043(4) -0.0934(4) 0.7264(2)
H36 H 0.5025(3) -0.0030(3) 0.9663(1)
H38 H 0.4536(3) 0.1345(3) 0.8396(2)
H40 H 0.3177(3) -0.1423(3) 0.8949(1)
H43 H 0.3385(3) -0.2185(3) 0.7941(1)
H44 H 0.2409(3) -0.1673(3) 0.8135(1)
H47 H 0.5450(3) -0.1841(3) 0.9540(1)
H48 H 0.4589(3) -0.2576(3) 0.9617(1)
H51 H 0.4296(3) -0.1331(3) 1.0189(1)
H52 H 0.3462(3) -0.1347(3) 0.9747(1)
H55 H 0.4737(3) 0.1422(3) 0.9415(2)
H56 H 0.3883(3) 0.1809(3) 0.9786(2)
H58 H 0.2903(3) 0.1998(3) 0.9001(2)
H61 H 0.4302(4) 0.0832(3) 0.7550(2)
H62 H 0.3312(4) 0.1127(3) 0.7254(2)
H65 H 0.2512(4) -0.0258(3) 0.7562(2)
H66 H 0.3474(4) -0.0520(3) 0.7233(2)
H68 H 0.3505(3) -0.0289(3) 0.8287(1)
H71 H 0.5837(3) -0.1315(3) 0.8585(1)
H72 H 0.5017(3) -0.0629(3) 0.8805(1)
loop_
_geom_bond_atom_site_label_1
_geom_bond_atom_site_label_2
_geom_bond_site_symmetry_1
_geom_bond_site_symmetry_2
O1 C3 1_555 1_555
O2 C10 1_555 1_555
O3 C21 1_555 1_555
O4 C23 1_555 1_555
O5 C27 1_555 1_555
O6 C34 1_555 1_555
O7 C45 1_555 1_555
O8 C47 1_555 1_555
C1 C2 1_555 1_555
C2 C3 1_555 1_555
C3 C4 1_555 1_555
C4 C5 1_555 1_555
C5 C6 1_555 1_555
C6 C7 1_555 1_555
C7 C8 1_555 1_555
C8 C9 1_555 1_555
C9 C10 1_555 1_555
C10 C11 1_555 1_555
C11 C12 1_555 1_555
C12 C13 1_555 1_555
C13 C14 1_555 1_555
C14 C1 1_555 1_555
C15 C1 1_555 1_555
C16 C4 1_555 1_555
C17 C8 1_555 1_555
C18 C12 1_555 1_555
C19 C15 1_555 1_555
C20 C4 1_555 1_555
C21 O2 1_555 1_555
C22 C21 1_555 1_555
C23 O1 1_555 1_555
C24 C23 1_555 1_555
C25 C26 1_555 1_555
C26 C27 1_555 1_555
C27 C28 1_555 1_555
C28 C29 1_555 1_555
C29 C30 1_555 1_555
C30 C31 1_555 1_555
C31 C32 1_555 1_555
C32 C33 1_555 1_555
C33 C34 1_555 1_555
C34 C35 1_555 1_555
C35 C36 1_555 1_555
C36 C37 1_555 1_555
C37 C38 1_555 1_555
C38 C25 1_555 1_555
C39 C25 1_555 1_555
C40 C28 1_555 1_555
C41 C32 1_555 1_555
C42 C36 1_555 1_555
C43 C39 1_555 1_555
C44 C28 1_555 1_555
C45 O6 1_555 1_555
C46 C45 1_555 1_555
C47 O5 1_555 1_555
C48 C47 1_555 1_555
H1 C24 1_555 1_555
H2 C24 1_555 1_555
H3 C24 1_555 1_555
H4 C48 1_555 1_555
H5 C48 1_555 1_555
H6 C48 1_555 1_555
H7 C20 1_555 1_555
H8 C20 1_555 1_555
H9 C20 1_555 1_555
H10 C44 1_555 1_555
H11 C44 1_555 1_555
H12 C44 1_555 1_555
H13 C17 1_555 1_555
H14 C17 1_555 1_555
H15 C17 1_555 1_555
H16 C41 1_555 1_555
H17 C41 1_555 1_555
H18 C41 1_555 1_555
H19 C18 1_555 1_555
H20 C18 1_555 1_555
H21 C18 1_555 1_555
H22 C42 1_555 1_555
H23 C42 1_555 1_555
H24 C42 1_555 1_555
H25 C22 1_555 1_555
H26 C22 1_555 1_555
H27 C22 1_555 1_555
H28 C46 1_555 1_555
H29 C46 1_555 1_555
H30 C46 1_555 1_555
H31 C19 1_555 1_555
H32 C19 1_555 1_555
H33 C43 1_555 1_555
H34 C43 1_555 1_555
H35 C7 1_555 1_555
H36 C31 1_555 1_555
H37 C11 1_555 1_555
H38 C35 1_555 1_555
H39 C3 1_555 1_555
H40 C27 1_555 1_555
H41 C2 1_555 1_555
H42 C2 1_555 1_555
H43 C26 1_555 1_555
H44 C26 1_555 1_555
H45 C5 1_555 1_555
H46 C5 1_555 1_555
H47 C29 1_555 1_555
H48 C29 1_555 1_555
H49 C6 1_555 1_555
H50 C6 1_555 1_555
H51 C30 1_555 1_555
H52 C30 1_555 1_555
H53 C9 1_555 1_555
H54 C9 1_555 1_555
H55 C33 1_555 1_555
H56 C33 1_555 1_555
H57 C10 1_555 1_555
H58 C34 1_555 1_555
H59 C13 1_555 1_555
H60 C13 1_555 1_555
H61 C37 1_555 1_555
H62 C37 1_555 1_555
H63 C14 1_555 1_555
H64 C14 1_555 1_555
H65 C38 1_555 1_555
H66 C38 1_555 1_555
H67 C1 1_555 1_555
H68 C25 1_555 1_555
H69 C16 1_555 1_555
H70 C16 1_555 1_555
H71 C40 1_555 1_555
H72 C40 1_555 1_555
C15 C16 1_555 1_555
C39 C40 1_555 1_555

#END
