
#######################################################################
#
#                 Cambridge Crystallographic Data Centre
#                                CCDC 
#
#######################################################################
#
# If this CIF has been generated from an entry in the Cambridge 
# Structural Database, then it will include bibliographic, chemical, 
# crystal, experimental, refinement or atomic coordinate data resulting 
# from the CCDC's data processing and validation procedures.
#
#######################################################################

data_RICPAV
_chemical_formula_moiety         'C42 H68 N8 2+,2(Cl1 O4 1-),2(C2 H3 N1)'
_chemical_name_systematic        
'4,8,14,18,23,27-Hexamethyl-1,11-diazonia-4,8,14,18,23,27-hexa-aza-6,16,25(1,4)-tribenzenabicyclo(9.9.9)nonacosaphane diperchlorate acetonitrile solvate'
_symmetry_cell_setting           monoclinic
_symmetry_space_group_name_H-M   'C c'
_symmetry_Int_Tables_number      9
_space_group_name_Hall           'C -2yc'
loop_
_symmetry_equiv_pos_site_id
_symmetry_equiv_pos_as_xyz
1 x,y,z
2 x,-y,1/2+z
3 1/2+x,1/2+y,z
4 1/2+x,1/2-y,1/2+z
_cell_length_a                   31.429(3)
_cell_length_b                   9.9882(8)
_cell_length_c                   16.6318(14)
_cell_angle_alpha                90
_cell_angle_beta                 103.333(2)
_cell_angle_gamma                90
_cell_volume                     5080.31
_exptl_crystal_colour            colorless
_exptl_crystal_description       plate
_cell_formula_units_Z            4
loop_
_atom_site_label
_atom_site_type_symbol
_atom_site_fract_x
_atom_site_fract_y
_atom_site_fract_z
N1 N 0.45907(16) -0.3952(6) 0.7634(3)
H1 H 0.4304 -0.3950 0.7324
C1 C 0.4871(2) -0.3427(8) 0.7082(4)
H2 H 0.5166 -0.3224 0.7423
H3 H 0.4903 -0.4133 0.6682
C2 C 0.4692(2) -0.2212(8) 0.6623(4)
H4 H 0.4692 -0.1470 0.7017
H5 H 0.4881 -0.1948 0.6249
N2 N 0.42521(17) -0.2425(7) 0.6144(4)
C3 C 0.4224(4) -0.2858(12) 0.5436(8)
H6 H 0.4367 -0.3747 0.5478
H7 H 0.4391 -0.2254 0.5150
C4 C 0.3768(3) -0.2996(10) 0.4909(6)
C5 C 0.3617(3) -0.2152(12) 0.4223(6)
H8 H 0.3805 -0.1476 0.4101
C6 C 0.3204(3) -0.2281(12) 0.3726(7)
H9 H 0.3120 -0.1741 0.3246
C7 C 0.2908(3) -0.3197(12) 0.3920(6)
C8 C 0.3042(3) -0.3900(12) 0.4647(6)
H10 H 0.2840 -0.4486 0.4812
C9 C 0.3457(3) -0.3789(11) 0.5147(7)
H11 H 0.3529 -0.4258 0.5657
C10 C 0.2480(4) -0.3420(19) 0.3305(10)
H12 H 0.2469 -0.2850 0.2814
H13 H 0.2461 -0.4367 0.3123
C11 C 0.4077(5) -0.0838(12) 0.6096(10)
H14 H 0.4090 -0.0507 0.6656
H15 H 0.3774 -0.0796 0.5771
H16 H 0.4263 -0.0282 0.5834
C12 C 0.2164(5) -0.1546(15) 0.3948(10)
H17 H 0.1919 -0.1296 0.4191
H18 H 0.2164 -0.0975 0.3469
H19 H 0.2440 -0.1426 0.4360
N3 N 0.21139(17) -0.3108(8) 0.3658(3)
C23 C 0.16935(19) -0.3264(9) 0.3080(4)
H34 H 0.1672 -0.4175 0.2840
H35 H 0.1670 -0.2612 0.2624
C24 C 0.1311(2) -0.3040(8) 0.3512(4)
H36 H 0.1317 -0.2104 0.3710
H37 H 0.1030 -0.3181 0.3106
N4 N 0.13378(16) -0.3983(6) 0.4233(3)
H38 H 0.1624 -0.3977 0.4549
C25 C 0.4702(2) -0.5394(7) 0.7899(4)
H39 H 0.4561 -0.5623 0.8355
H40 H 0.5022 -0.5475 0.8111
C26 C 0.4553(2) -0.6390(8) 0.7195(5)
H41 H 0.4720 -0.6228 0.6766
H42 H 0.4621 -0.7310 0.7409
N5 N 0.40877(18) -0.6293(6) 0.6820(4)
C27 C 0.3869(3) -0.7116(13) 0.7198(8)
H43 H 0.3919 -0.6874 0.7789
H44 H 0.3972 -0.8046 0.7160
C28 C 0.3388(3) -0.7021(9) 0.6795(7)
C29 C 0.3148(3) -0.5849(11) 0.6706(7)
H45 H 0.3287 -0.5033 0.6912
C30 C 0.2707(3) -0.5849(10) 0.6321(8)
H46 H 0.2554 -0.5022 0.6227
C31 C 0.2484(3) -0.7032(10) 0.6069(8)
C32 C 0.2722(3) -0.8211(10) 0.6196(8)
H47 H 0.2577 -0.9043 0.6056
C33 C 0.3168(3) -0.8193(11) 0.6527(9)
H48 H 0.3327 -0.9008 0.6570
C34 C 0.1997(4) -0.7052(15) 0.5705(10)
H49 H 0.1917 -0.7988 0.5542
H50 H 0.1852 -0.6830 0.6158
C35 C 0.4096(4) -0.6958(18) 0.5942(7)
H51 H 0.4248 -0.6360 0.5635
H52 H 0.3795 -0.7100 0.5625
H53 H 0.4249 -0.7819 0.6033
C36 C 0.2077(5) -0.6783(19) 0.4278(9)
H54 H 0.1955 -0.6284 0.3769
H55 H 0.2030 -0.7744 0.4174
H56 H 0.2391 -0.6602 0.4457
N6 N 0.18129(19) -0.6276(6) 0.5060(4)
C47 C 0.1344(2) -0.6326(8) 0.4664(5)
H71 H 0.1266 -0.7245 0.4460
H72 H 0.1174 -0.6117 0.5081
C48 C 0.1221(2) -0.5381(7) 0.3971(4)
H73 H 0.0902 -0.5439 0.3738
H74 H 0.1371 -0.5636 0.3532
C49 C 0.4604(2) -0.3070(8) 0.8365(4)
H75 H 0.4883 -0.3219 0.8776
H76 H 0.4596 -0.2122 0.8187
C50 C 0.4240(2) -0.3322(7) 0.8751(4)
H77 H 0.4262 -0.2705 0.9225
H78 H 0.4262 -0.4249 0.8968
N7 N 0.38102(19) -0.3140(8) 0.8173(4)
C51 C 0.3666(4) -0.1931(15) 0.8100(9)
H79 H 0.3860 -0.1387 0.7839
H80 H 0.3684 -0.1563 0.8659
C52 C 0.3203(3) -0.1767(16) 0.7603(7)
C53 C 0.3099(3) -0.2102(12) 0.6763(6)
H81 H 0.3320 -0.2448 0.6515
C54 C 0.2686(3) -0.1938(13) 0.6297(7)
H82 H 0.2628 -0.2109 0.5720
C55 C 0.2342(3) -0.1523(13) 0.6647(6)
C56 C 0.2435(4) -0.1183(17) 0.7466(7)
H83 H 0.2212 -0.0856 0.7713
C57 C 0.2865(4) -0.1324(18) 0.7936(8)
H84 H 0.2925 -0.1104 0.8507
C58 C 0.1885(4) -0.1326(14) 0.6109(9)
H85 H 0.1700 -0.0981 0.6470
H86 H 0.1903 -0.0608 0.5708
C59 C 0.3488(5) -0.4069(14) 0.8576(10)
H87 H 0.3597 -0.4992 0.8625
H88 H 0.3193 -0.4050 0.8220
H89 H 0.3481 -0.3726 0.9124
C60 C 0.1640(5) -0.3539(17) 0.6448(11)
H90 H 0.1934 -0.3720 0.6786
H91 H 0.1514 -0.4369 0.6181
H92 H 0.1455 -0.3193 0.6800
N8 N 0.16737(19) -0.2342(7) 0.5685(4)
C71 C 0.1219(2) -0.2219(8) 0.5238(5)
H107 H 0.1192 -0.1462 0.4845
H108 H 0.1038 -0.2007 0.5636
C72 C 0.10407(19) -0.3482(8) 0.4763(4)
H109 H 0.1006 -0.4191 0.5160
H110 H 0.0748 -0.3292 0.4407
Cl1 Cl 0.10182(4) 0.05812(18) 0.29169(8)
O1 O 0.08160(13) 0.0017(6) 0.3507(3)
O2 O 0.1258(4) 0.1749(11) 0.2982(6)
O3 O 0.0641(3) 0.0806(11) 0.2240(5)
O4 O 0.1289(3) -0.0230(11) 0.2524(5)
Cl3 Cl 0.49049(4) 0.05949(18) 0.89509(8)
O9 O 0.5009(2) 0.0070(6) 0.8260(3)
O10 O 0.5269(3) 0.0422(12) 0.9617(6)
O11 O 0.4542(3) -0.0009(11) 0.9143(9)
O12 O 0.4845(3) 0.2041(7) 0.8948(6)
C73 C 0.5655(2) -0.3827(7) 0.5406(5)
H111 H 0.5772 -0.3822 0.4909
H112 H 0.5892 -0.3998 0.5892
H113 H 0.5521 -0.2957 0.5465
C74 C 0.5331(2) -0.4857(9) 0.5335(4)
N9 N 0.5080(2) -0.5676(8) 0.5241(4)
C75 C 0.0261(3) -0.3777(8) 0.6460(5)
H114 H 0.0390 -0.2983 0.6769
H115 H 0.0017 -0.4100 0.6680
H116 H 0.0156 -0.3545 0.5875
C76 C 0.0594(2) -0.4830(8) 0.6542(4)
N10 N 0.0853(2) -0.5634(8) 0.6563(5)
C13? C 0.4041(4) -0.1339(14) 0.5714(8)
H20? H 0.4218 -0.1039 0.5325
H21? H 0.4046 -0.0604 0.6115
C14? C 0.3578(3) -0.1495(14) 0.5229(6)
C15? C 0.3481(3) -0.1249(16) 0.4370(7)
H22? H 0.3710 -0.0991 0.4115
C16? C 0.3062(3) -0.1376(17) 0.3894(8)
H23? H 0.3005 -0.1204 0.3317
C17? C 0.2725(3) -0.1752(14) 0.4254(6)
C18? C 0.2815(3) -0.2053(12) 0.5079(6)
H24? H 0.2585 -0.2325 0.5327
C19? C 0.3242(3) -0.1962(11) 0.5558(6)
H25? H 0.3302 -0.2228 0.6121
C20? C 0.2274(4) -0.187(2) 0.3687(10)
H26? H 0.2072 -0.1255 0.3880
H27? H 0.2289 -0.1596 0.3123
C21? C 0.4235(4) -0.3513(13) 0.5409(8)
H28? H 0.4373 -0.4349 0.5646
H29? H 0.4393 -0.3160 0.5011
H30? H 0.3930 -0.3687 0.5130
C22? C 0.2416(5) -0.4105(19) 0.3257(10)
H31? H 0.2302 -0.5020 0.3247
H32? H 0.2717 -0.4081 0.3589
H33? H 0.2411 -0.3817 0.2692
C37? C 0.3922(4) -0.7052(16) 0.6107(10)
H57? H 0.4021 -0.7990 0.6216
H58? H 0.4050 -0.6710 0.5656
C38? C 0.3430(3) -0.7047(10) 0.5814(9)
C39? C 0.3225(3) -0.5825(10) 0.5565(8)
H59? H 0.3386 -0.5012 0.5642
C40? C 0.2787(3) -0.5829(10) 0.5209(7)
H60? H 0.2645 -0.5001 0.5042
C41? C 0.2539(3) -0.7007(10) 0.5083(8)
C42? C 0.2749(3) -0.8183(11) 0.5339(9)
H61? H 0.2591 -0.9001 0.5246
C43? C 0.3190(3) -0.8205(12) 0.5732(11)
H62? H 0.3325 -0.9022 0.5944
C44? C 0.2062(4) -0.6910(17) 0.4665(7)
H63? H 0.2037 -0.6464 0.4124
H64? H 0.1947 -0.7830 0.4552
C45? C 0.3833(5) -0.6768(16) 0.7461(9)
H65? H 0.3924 -0.6240 0.7968
H66? H 0.3895 -0.7717 0.7586
H67? H 0.3519 -0.6648 0.7234
C46? C 0.1824(5) -0.6841(14) 0.5959(8)
H68? H 0.2125 -0.6833 0.6290
H69? H 0.1712 -0.7760 0.5916
H70? H 0.1641 -0.6277 0.6225
C61? C 0.3452(4) -0.3305(14) 0.8478(7)
H93? H 0.3473 -0.2655 0.8935
H94? H 0.3470 -0.4209 0.8726
C62? C 0.3003(3) -0.3164(13) 0.7919(6)
C63? C 0.2887(3) -0.3947(12) 0.7194(6)
H95? H 0.3094 -0.4521 0.7034
C64? C 0.2463(3) -0.3855(11) 0.6726(6)
H96? H 0.2376 -0.4417 0.6255
C65? C 0.2158(3) -0.2969(12) 0.6919(6)
C66? C 0.2266(4) -0.2272(13) 0.7650(7)
H97? H 0.2053 -0.1741 0.7825
C67? C 0.2695(4) -0.2356(15) 0.8136(8)
H98? H 0.2774 -0.1839 0.8627
C68? C 0.1695(4) -0.2931(15) 0.6398(9)
H99? H 0.1582 -0.3857 0.6302
H100? H 0.1507 -0.2445 0.6703
C69? C 0.3798(5) -0.1518(15) 0.7953(10)
H101? H 0.4048 -0.1292 0.7718
H102? H 0.3814 -0.0999 0.8460
H103? H 0.3525 -0.1306 0.7553
C70? C 0.1829(5) -0.0793(12) 0.5812(8)
H104? H 0.2136 -0.0756 0.6114
H105? H 0.1647 -0.0322 0.6128
H106? H 0.1797 -0.0364 0.5272
Cl2? Cl 0.10182(4) 0.05812(18) 0.29169(8)
O5? O 0.08160(13) 0.0017(6) 0.3507(3)
O6? O 0.0901(5) 0.1906(9) 0.2849(8)
O7? O 0.0936(4) -0.0327(12) 0.2300(6)
O8? O 0.1449(2) 0.0463(9) 0.3453(8)
Cl4? Cl 0.49049(4) 0.05949(18) 0.89509(8)
O13? O 0.5009(2) 0.0070(6) 0.8260(3)
O14? O 0.4901(4) -0.0377(10) 0.9554(5)
O15? O 0.4493(3) 0.0928(14) 0.8581(10)
O16? O 0.5189(4) 0.1647(12) 0.9249(10)
loop_
_geom_bond_atom_site_label_1
_geom_bond_atom_site_label_2
_geom_bond_site_symmetry_1
_geom_bond_site_symmetry_2
N1 H1 1_555 1_555
C1 N1 1_555 1_555
H2 C1 1_555 1_555
H3 C1 1_555 1_555
C2 C1 1_555 1_555
H4 C2 1_555 1_555
H5 C2 1_555 1_555
N2 C2 1_555 1_555
C3 N2 1_555 1_555
H6 C3 1_555 1_555
H7 C3 1_555 1_555
C4 C3 1_555 1_555
C5 C4 1_555 1_555
H8 C5 1_555 1_555
C6 C5 1_555 1_555
H9 C6 1_555 1_555
C7 C6 1_555 1_555
C8 C7 1_555 1_555
H10 C8 1_555 1_555
C9 C4 1_555 1_555
H11 C9 1_555 1_555
C10 C7 1_555 1_555
H12 C10 1_555 1_555
H13 C10 1_555 1_555
C11 N2 1_555 1_555
H14 C11 1_555 1_555
H15 C11 1_555 1_555
H16 C11 1_555 1_555
C12 H17 1_555 1_555
H18 C12 1_555 1_555
H19 C12 1_555 1_555
N3 C10 1_555 1_555
C23 N3 1_555 1_555
H34 C23 1_555 1_555
H35 C23 1_555 1_555
C24 C23 1_555 1_555
H36 C24 1_555 1_555
H37 C24 1_555 1_555
N4 C24 1_555 1_555
H38 N4 1_555 1_555
C25 N1 1_555 1_555
H39 C25 1_555 1_555
H40 C25 1_555 1_555
C26 C25 1_555 1_555
H41 C26 1_555 1_555
H42 C26 1_555 1_555
N5 C26 1_555 1_555
C27 N5 1_555 1_555
H43 C27 1_555 1_555
H44 C27 1_555 1_555
C28 C27 1_555 1_555
C29 C28 1_555 1_555
H45 C29 1_555 1_555
C30 C29 1_555 1_555
H46 C30 1_555 1_555
C31 C30 1_555 1_555
C32 C31 1_555 1_555
H47 C32 1_555 1_555
C33 C28 1_555 1_555
H48 C33 1_555 1_555
C34 C31 1_555 1_555
H49 C34 1_555 1_555
H50 C34 1_555 1_555
C35 N5 1_555 1_555
H51 C35 1_555 1_555
H52 C35 1_555 1_555
H53 C35 1_555 1_555
C36 H54 1_555 1_555
H55 C36 1_555 1_555
H56 C36 1_555 1_555
N6 C34 1_555 1_555
C47 N6 1_555 1_555
H71 C47 1_555 1_555
H72 C47 1_555 1_555
C48 N4 1_555 1_555
H73 C48 1_555 1_555
H74 C48 1_555 1_555
C49 N1 1_555 1_555
H75 C49 1_555 1_555
H76 C49 1_555 1_555
C50 C49 1_555 1_555
H77 C50 1_555 1_555
H78 C50 1_555 1_555
N7 C50 1_555 1_555
C51 N7 1_555 1_555
H79 C51 1_555 1_555
H80 C51 1_555 1_555
C52 C51 1_555 1_555
C53 C52 1_555 1_555
H81 C53 1_555 1_555
C54 C53 1_555 1_555
H82 C54 1_555 1_555
C55 C54 1_555 1_555
C56 C55 1_555 1_555
H83 C56 1_555 1_555
C57 C52 1_555 1_555
H84 C57 1_555 1_555
C58 C55 1_555 1_555
H85 C58 1_555 1_555
H86 C58 1_555 1_555
C59 N7 1_555 1_555
H87 C59 1_555 1_555
H88 C59 1_555 1_555
H89 C59 1_555 1_555
C60 H90 1_555 1_555
H91 C60 1_555 1_555
H92 C60 1_555 1_555
N8 C58 1_555 1_555
C71 N8 1_555 1_555
H107 C71 1_555 1_555
H108 C71 1_555 1_555
C72 N4 1_555 1_555
H109 C72 1_555 1_555
H110 C72 1_555 1_555
Cl1 O1 1_555 1_555
O2 Cl1 1_555 1_555
O3 Cl1 1_555 1_555
O4 Cl1 1_555 1_555
Cl3 O9 1_555 1_555
O10 Cl3 1_555 1_555
O11 Cl3 1_555 1_555
O12 Cl3 1_555 1_555
C73 H111 1_555 1_555
H112 C73 1_555 1_555
H113 C73 1_555 1_555
C74 C73 1_555 1_555
N9 C74 1_555 1_555
C75 H114 1_555 1_555
H115 C75 1_555 1_555
H116 C75 1_555 1_555
C76 C75 1_555 1_555
N10 C76 1_555 1_555
C8 C9 1_555 1_555
C12 N3 1_555 1_555
C32 C33 1_555 1_555
C36 N6 1_555 1_555
C47 C48 1_555 1_555
C56 C57 1_555 1_555
C60 N8 1_555 1_555
C71 C72 1_555 1_555

#END
