
#######################################################################
#
#                 Cambridge Crystallographic Data Centre
#                                CCDC 
#
#######################################################################
#
# If this CIF has been generated from an entry in the Cambridge 
# Structural Database, then it will include bibliographic, chemical, 
# crystal, experimental, refinement or atomic coordinate data resulting 
# from the CCDC's data processing and validation procedures.
#
#######################################################################

data_RICQUR
_chemical_formula_moiety         'C102 F54'
_chemical_name_systematic        octadecakis(trifluoromethyl)C84fullerene
_symmetry_cell_setting           orthorhombic
_symmetry_space_group_name_H-M   'P n m a'
_symmetry_Int_Tables_number      62
_space_group_name_Hall           '-P 2ac 2n'
loop_
_symmetry_equiv_pos_site_id
_symmetry_equiv_pos_as_xyz
1 x,y,z
2 1/2-x,-y,1/2+z
3 -x,1/2+y,-z
4 1/2+x,1/2-y,1/2-z
5 -x,-y,-z
6 1/2+x,y,1/2-z
7 x,1/2-y,z
8 1/2-x,1/2+y,1/2+z
_cell_length_a                   22.1091(5)
_cell_length_b                   23.1180(10)
_cell_length_c                   14.0709(7)
_cell_angle_alpha                90
_cell_angle_beta                 90
_cell_angle_gamma                90
_cell_volume                     7191.89
_exptl_crystal_colour            yellow
_exptl_crystal_description       block
_cell_formula_units_Z            4
loop_
_atom_site_label
_atom_site_type_symbol
_atom_site_fract_x
_atom_site_fract_y
_atom_site_fract_z
F1 F 0.33814(6) 0.47121(6) 0.54352(10)
F2 F 0.27988(7) 0.47441(5) 0.66639(9)
F3 F 0.24516(6) 0.49513(6) 0.52810(9)
F4 F 0.44097(9) 0.49224(6) 0.83646(10)
F5 F 0.49205(8) 0.48899(7) 0.70730(13)
F6 F 0.39821(8) 0.46618(6) 0.70793(13)
F7 F 0.16633(6) 0.53069(5) 0.66683(10)
F8 F 0.10230(6) 0.59825(6) 0.63577(10)
F9 F 0.13390(6) 0.58596(6) 0.77887(9)
F10 F 0.3140(2) 0.5351(3) 0.3640(5)
F11 F 0.3016(3) 0.61128(19) 0.2798(4)
F12 F 0.22838(15) 0.5761(3) 0.3607(4)
F13 F 0.39416(6) 0.54033(6) 1.00239(10)
F14 F 0.44086(7) 0.60875(6) 1.07627(9)
F15 F 0.48792(6) 0.55784(6) 0.97370(10)
F16 F 0.09172(7) 0.69278(8) 0.47796(13)
F17 F 0.13180(7) 0.61220(6) 0.44794(12)
F18 F 0.15229(8) 0.68506(10) 0.36084(11)
F19 F 0.48109(8) 0.68625(13) 0.25204(14)
F20 F 0.38889(7) 0.69205(6) 0.21299(9)
F21 F 0.42285(11) 0.61462(7) 0.27548(10)
F22 F 0.59589(10) 0.62380(10) 0.51454(18)
F23 F 0.56402(13) 0.6446(2) 0.37556(19)
F24 F 0.62322(11) 0.70083(11) 0.4471(3)
F25 F 0.32037(6) 0.61750(5) 1.08714(9)
F26 F 0.22732(6) 0.62758(6) 1.04595(9)
F27 F 0.27161(7) 0.69494(5) 1.12542(9)
C1 C 0.31123(9) 0.56534(8) 0.59933(14)
C2 C 0.37327(10) 0.58001(9) 0.56063(14)
C3 C 0.42378(10) 0.57943(9) 0.61695(14)
C4 C 0.42239(9) 0.56571(9) 0.72296(14)
C5 C 0.36086(9) 0.58435(8) 0.76415(14)
C6 C 0.30866(9) 0.58478(8) 0.70486(14)
C7 C 0.25592(9) 0.61262(8) 0.73564(14)
C8 C 0.20293(9) 0.62744(8) 0.66982(14)
C9 C 0.22369(10) 0.63185(9) 0.56675(14)
C10 C 0.27290(10) 0.60533(8) 0.53692(14)
C11 C 0.30632(9) 0.62429(9) 0.44731(14)
C12 C 0.37153(10) 0.61454(9) 0.47921(14)
C13 C 0.42052(10) 0.64947(9) 0.45432(14)
C14 C 0.47163(9) 0.64994(9) 0.51228(14)
C15 C 0.47214(9) 0.61560(9) 0.59393(14)
C16 C 0.50236(9) 0.63286(9) 0.68152(14)
C17 C 0.47179(9) 0.60676(8) 0.75781(14)
C18 C 0.46900(9) 0.63474(8) 0.84328(14)
C19 C 0.41639(9) 0.62658(8) 0.91266(13)
C20 C 0.35934(9) 0.61114(8) 0.85581(14)
C21 C 0.30606(9) 0.63733(8) 0.88494(13)
C22 C 0.25564(9) 0.63883(8) 0.82474(14)
C23 C 0.21962(9) 0.69021(8) 0.84747(13)
C24 C 0.18831(9) 0.71899(8) 0.77368(13)
C25 C 0.18245(9) 0.68961(9) 0.68567(14)
C26 C 0.17760(9) 0.71976(8) 0.60170(14)
C27 C 0.19682(9) 0.68487(9) 0.51606(14)
C28 C 0.24697(9) 0.71919(9) 0.46339(13)
C29 C 0.29740(10) 0.68894(9) 0.42850(13)
C30 C 0.34645(9) 0.71997(9) 0.39212(13)
C31 C 0.41096(10) 0.69583(9) 0.37946(14)
C32 C 0.44787(13) 0.7500 0.40133(19)
C33 C 0.49816(13) 0.7500 0.45350(19)
C34 C 0.52108(9) 0.69552(9) 0.50369(14)
C35 C 0.53535(9) 0.72060(9) 0.60223(14)
C36 C 0.52880(9) 0.68803(9) 0.68868(14)
C37 C 0.52448(9) 0.71851(8) 0.77710(14)
C38 C 0.49606(9) 0.68924(9) 0.85350(14)
C39 C 0.46273(9) 0.72015(8) 0.92522(13)
C40 C 0.41032(9) 0.68911(8) 0.95127(13)
C41 C 0.35726(9) 0.71861(8) 0.97069(13)
C42 C 0.29927(9) 0.68381(8) 0.96283(13)
C43 C 0.24800(9) 0.71997(8) 0.92115(13)
C44 C 0.29341(10) 0.50034(9) 0.58472(14)
C45 C 0.43842(10) 0.50213(9) 0.74394(16)
C46 C 0.15068(10) 0.58463(9) 0.68741(15)
C47 C 0.28783(10) 0.58689(10) 0.36008(14)
C48 C 0.43442(10) 0.58226(9) 0.99264(14)
C49 C 0.14267(10) 0.66830(10) 0.44877(14)
C50 C 0.42596(10) 0.67159(10) 0.27799(15)
C51 C 0.57714(10) 0.66568(11) 0.45871(16)
C52 C 0.27943(9) 0.65559(8) 1.05712(14)
F1F F 0.33814(6) 1.02879(6) 0.54352(10)
F2F F 0.27988(7) 1.02559(5) 0.66639(9)
F3F F 0.24516(6) 1.00487(6) 0.52810(9)
F4F F 0.44097(9) 1.00776(6) 0.83646(10)
F5F F 0.49205(8) 1.01101(7) 0.70730(13)
F6F F 0.39821(8) 1.03382(6) 0.70793(13)
F7F F 0.16633(6) 0.96931(5) 0.66683(10)
F8F F 0.10230(6) 0.90175(6) 0.63577(10)
F9F F 0.13390(6) 0.91404(6) 0.77887(9)
F10F F 0.3140(2) 0.9649(3) 0.3640(5)
F11F F 0.3016(3) 0.88872(19) 0.2798(4)
F12F F 0.22838(15) 0.9239(3) 0.3607(4)
F13F F 0.39416(6) 0.95967(6) 1.00239(10)
F14F F 0.44086(7) 0.89125(6) 1.07627(9)
F15F F 0.48792(6) 0.94216(6) 0.97370(10)
F16F F 0.09172(7) 0.80722(8) 0.47796(13)
F17F F 0.13180(7) 0.88780(6) 0.44794(12)
F18F F 0.15229(8) 0.81494(10) 0.36084(11)
F19F F 0.48109(8) 0.81375(13) 0.25204(14)
F20F F 0.38889(7) 0.80795(6) 0.21299(9)
F21F F 0.42285(11) 0.88538(7) 0.27548(10)
F22F F 0.59589(10) 0.87620(10) 0.51454(18)
F23F F 0.56402(13) 0.8554(2) 0.37556(19)
F24F F 0.62322(11) 0.79917(11) 0.4471(3)
F25F F 0.32037(6) 0.88250(5) 1.08714(9)
F26F F 0.22732(6) 0.87242(6) 1.04595(9)
F27F F 0.27161(7) 0.80506(5) 1.12542(9)
C1F C 0.31123(9) 0.93466(8) 0.59933(14)
C2F C 0.37327(10) 0.91999(9) 0.56063(14)
C3F C 0.42378(10) 0.92057(9) 0.61695(14)
C4F C 0.42239(9) 0.93429(9) 0.72296(14)
C5F C 0.36086(9) 0.91565(8) 0.76415(14)
C6F C 0.30866(9) 0.91522(8) 0.70486(14)
C7F C 0.25592(9) 0.88738(8) 0.73564(14)
C8F C 0.20293(9) 0.87256(8) 0.66982(14)
C9F C 0.22369(10) 0.86815(9) 0.56675(14)
C10F C 0.27290(10) 0.89467(8) 0.53692(14)
C11F C 0.30632(9) 0.87571(9) 0.44731(14)
C12F C 0.37153(10) 0.88546(9) 0.47921(14)
C13F C 0.42052(10) 0.85053(9) 0.45432(14)
C14F C 0.47163(9) 0.85006(9) 0.51228(14)
C15F C 0.47214(9) 0.88440(9) 0.59393(14)
C16F C 0.50236(9) 0.86714(9) 0.68152(14)
C17F C 0.47179(9) 0.89324(8) 0.75781(14)
C18F C 0.46900(9) 0.86526(8) 0.84328(14)
C19F C 0.41639(9) 0.87342(8) 0.91266(13)
C20F C 0.35934(9) 0.88886(8) 0.85581(14)
C21F C 0.30606(9) 0.86267(8) 0.88494(13)
C22F C 0.25564(9) 0.86117(8) 0.82474(14)
C23F C 0.21962(9) 0.80979(8) 0.84747(13)
C24F C 0.18831(9) 0.78101(8) 0.77368(13)
C25F C 0.18245(9) 0.81039(9) 0.68567(14)
C26F C 0.17760(9) 0.78024(8) 0.60170(14)
C27F C 0.19682(9) 0.81513(9) 0.51606(14)
C28F C 0.24697(9) 0.78081(9) 0.46339(13)
C29F C 0.29740(10) 0.81106(9) 0.42850(13)
C30F C 0.34645(9) 0.78003(9) 0.39212(13)
C31F C 0.41096(10) 0.80417(9) 0.37946(14)
C34F C 0.52108(9) 0.80448(9) 0.50369(14)
C35F C 0.53535(9) 0.77940(9) 0.60223(14)
C36F C 0.52880(9) 0.81197(9) 0.68868(14)
C37F C 0.52448(9) 0.78149(8) 0.77710(14)
C38F C 0.49606(9) 0.81076(9) 0.85350(14)
C39F C 0.46273(9) 0.77985(8) 0.92522(13)
C40F C 0.41032(9) 0.81089(8) 0.95127(13)
C41F C 0.35726(9) 0.78139(8) 0.97069(13)
C42F C 0.29927(9) 0.81619(8) 0.96283(13)
C43F C 0.24800(9) 0.78003(8) 0.92115(13)
C44F C 0.29341(10) 0.99966(9) 0.58472(14)
C45F C 0.43842(10) 0.99787(9) 0.74394(16)
C46F C 0.15068(10) 0.91537(9) 0.68741(15)
C47F C 0.28783(10) 0.91311(10) 0.36008(14)
C48F C 0.43442(10) 0.91774(9) 0.99264(14)
C49F C 0.14267(10) 0.83170(10) 0.44877(14)
C50F C 0.42596(10) 0.82841(10) 0.27799(15)
C51F C 0.57714(10) 0.83432(11) 0.45871(16)
C52F C 0.27943(9) 0.84441(8) 1.05712(14)
F28? F 0.2332(11) 0.5989(18) 0.330(3)
F29? F 0.300(2) 0.5351(13) 0.368(2)
F30? F 0.323(2) 0.6048(15) 0.2834(18)
F31? F 0.5887(8) 0.6813(10) 0.3758(11)
F32? F 0.6247(6) 0.6757(9) 0.5025(12)
F33? F 0.5720(8) 0.6081(6) 0.4484(16)
loop_
_geom_bond_atom_site_label_1
_geom_bond_atom_site_label_2
_geom_bond_site_symmetry_1
_geom_bond_site_symmetry_2
F1 C44 1_555 1_555
F2 C44 1_555 1_555
F3 C44 1_555 1_555
F4 C45 1_555 1_555
F5 C45 1_555 1_555
F6 C45 1_555 1_555
F7 C46 1_555 1_555
F8 C46 1_555 1_555
F9 C46 1_555 1_555
F10 C47 1_555 1_555
F11 C47 1_555 1_555
F12 C47 1_555 1_555
F13 C48 1_555 1_555
F14 C48 1_555 1_555
F15 C48 1_555 1_555
F16 C49 1_555 1_555
F17 C49 1_555 1_555
F18 C49 1_555 1_555
F19 C50 1_555 1_555
F20 C50 1_555 1_555
F21 C50 1_555 1_555
F22 C51 1_555 1_555
F23 C51 1_555 1_555
F24 C51 1_555 1_555
F25 C52 1_555 1_555
F26 C52 1_555 1_555
F27 C52 1_555 1_555
C1 C2 1_555 1_555
C2 C3 1_555 1_555
C3 C4 1_555 1_555
C4 C5 1_555 1_555
C5 C6 1_555 1_555
C6 C1 1_555 1_555
C7 C6 1_555 1_555
C8 C7 1_555 1_555
C9 C8 1_555 1_555
C10 C1 1_555 1_555
C11 C10 1_555 1_555
C12 C2 1_555 1_555
C13 C12 1_555 1_555
C14 C13 1_555 1_555
C15 C3 1_555 1_555
C16 C15 1_555 1_555
C17 C4 1_555 1_555
C18 C17 1_555 1_555
C19 C18 1_555 1_555
C20 C5 1_555 1_555
C21 C20 1_555 1_555
C22 C7 1_555 1_555
C23 C22 1_555 1_555
C24 C23 1_555 1_555
C25 C8 1_555 1_555
C26 C25 1_555 1_555
C27 C9 1_555 1_555
C28 C27 1_555 1_555
C29 C11 1_555 1_555
C30 C29 1_555 1_555
C31 C13 1_555 1_555
C32 C31 1_555 1_555
C33 C32 1_555 1_555
C34 C14 1_555 1_555
C35 C34 1_555 1_555
C36 C16 1_555 1_555
C37 C36 1_555 1_555
C38 C18 1_555 1_555
C39 C38 1_555 1_555
C40 C19 1_555 1_555
C41 C40 1_555 1_555
C42 C21 1_555 1_555
C43 C23 1_555 1_555
C44 C1 1_555 1_555
C45 C4 1_555 1_555
C46 C8 1_555 1_555
C47 C11 1_555 1_555
C48 C19 1_555 1_555
C49 C27 1_555 1_555
C50 C31 1_555 1_555
C51 C34 1_555 1_555
C52 C42 1_555 1_555
F1F C44F 1_555 1_555
F2F C44F 1_555 1_555
F3F C44F 1_555 1_555
F4F C45F 1_555 1_555
F5F C45F 1_555 1_555
F6F C45F 1_555 1_555
F7F C46F 1_555 1_555
F8F C46F 1_555 1_555
F9F C46F 1_555 1_555
F10F C47F 1_555 1_555
F11F C47F 1_555 1_555
F12F C47F 1_555 1_555
F13F C48F 1_555 1_555
F14F C48F 1_555 1_555
F15F C48F 1_555 1_555
F16F C49F 1_555 1_555
F17F C49F 1_555 1_555
F18F C49F 1_555 1_555
F19F C50F 1_555 1_555
F20F C50F 1_555 1_555
F21F C50F 1_555 1_555
F22F C51F 1_555 1_555
F23F C51F 1_555 1_555
F24F C51F 1_555 1_555
F25F C52F 1_555 1_555
F26F C52F 1_555 1_555
F27F C52F 1_555 1_555
C1F C2F 1_555 1_555
C2F C3F 1_555 1_555
C3F C4F 1_555 1_555
C4F C5F 1_555 1_555
C5F C6F 1_555 1_555
C6F C1F 1_555 1_555
C7F C6F 1_555 1_555
C8F C7F 1_555 1_555
C9F C8F 1_555 1_555
C10F C1F 1_555 1_555
C11F C10F 1_555 1_555
C12F C2F 1_555 1_555
C13F C12F 1_555 1_555
C14F C13F 1_555 1_555
C15F C3F 1_555 1_555
C16F C15F 1_555 1_555
C17F C4F 1_555 1_555
C18F C17F 1_555 1_555
C19F C18F 1_555 1_555
C20F C5F 1_555 1_555
C21F C20F 1_555 1_555
C22F C7F 1_555 1_555
C23F C22F 1_555 1_555
C24F C24 1_555 1_555
C25F C8F 1_555 1_555
C26F C26 1_555 1_555
C27F C9F 1_555 1_555
C28F C28 1_555 1_555
C29F C11F 1_555 1_555
C30F C30 1_555 1_555
C31F C32 1_555 1_555
C34F C33 1_555 1_555
C35F C35 1_555 1_555
C36F C16F 1_555 1_555
C37F C37 1_555 1_555
C38F C18F 1_555 1_555
C39F C39 1_555 1_555
C40F C19F 1_555 1_555
C41F C41 1_555 1_555
C42F C21F 1_555 1_555
C43F C43 1_555 1_555
C44F C1F 1_555 1_555
C45F C4F 1_555 1_555
C46F C8F 1_555 1_555
C47F C11F 1_555 1_555
C48F C19F 1_555 1_555
C49F C27F 1_555 1_555
C50F C31F 1_555 1_555
C51F C34F 1_555 1_555
C52F C42F 1_555 1_555
C9 C10 1_555 1_555
C11 C12 1_555 1_555
C14 C15 1_555 1_555
C16 C17 1_555 1_555
C19 C20 1_555 1_555
C21 C22 1_555 1_555
C24 C25 1_555 1_555
C26 C27 1_555 1_555
C28 C29 1_555 1_555
C30 C31 1_555 1_555
C33 C34 1_555 1_555
C35 C36 1_555 1_555
C37 C38 1_555 1_555
C39 C40 1_555 1_555
C41 C42 1_555 1_555
C42 C43 1_555 1_555
C9F C10F 1_555 1_555
C11F C12F 1_555 1_555
C13F C31F 1_555 1_555
C14F C15F 1_555 1_555
C14F C34F 1_555 1_555
C16F C17F 1_555 1_555
C19F C20F 1_555 1_555
C21F C22F 1_555 1_555
C23F C24F 1_555 1_555
C23F C43F 1_555 1_555
C24F C25F 1_555 1_555
C25F C26F 1_555 1_555
C26F C27F 1_555 1_555
C27F C28F 1_555 1_555
C28F C29F 1_555 1_555
C29F C30F 1_555 1_555
C30F C31F 1_555 1_555
C34F C35F 1_555 1_555
C35F C36F 1_555 1_555
C36F C37F 1_555 1_555
C37F C38F 1_555 1_555
C38F C39F 1_555 1_555
C39F C40F 1_555 1_555
C40F C41F 1_555 1_555
C41F C42F 1_555 1_555
C42F C43F 1_555 1_555

#END
