
#######################################################################
#
#                 Cambridge Crystallographic Data Centre
#                                CCDC 
#
#######################################################################
#
# If this CIF has been generated from an entry in the Cambridge 
# Structural Database, then it will include bibliographic, chemical, 
# crystal, experimental, refinement or atomic coordinate data resulting 
# from the CCDC's data processing and validation procedures.
#
#######################################################################

data_RICQAX
_chemical_formula_moiety         'C24 H20 Br1 F2 N1 O4'
_chemical_name_systematic        
'Methyl 2-(bromo(difluoro)methyl)-4-(6-methoxy-2-naphthyl)-2-((2-methoxyphenyl)amino)but-3-ynoate'
_symmetry_cell_setting           orthorhombic
_symmetry_space_group_name_H-M   'P 21 21 2'
_symmetry_Int_Tables_number      18
_space_group_name_Hall           'P 2 2ab'
loop_
_symmetry_equiv_pos_site_id
_symmetry_equiv_pos_as_xyz
1 x,y,z
2 -x,-y,z
3 1/2-x,1/2+y,-z
4 1/2+x,1/2-y,-z
_cell_length_a                   14.5996(13)
_cell_length_b                   19.2406(17)
_cell_length_c                   8.0459(7)
_cell_angle_alpha                90
_cell_angle_beta                 90
_cell_angle_gamma                90
_cell_volume                     2260.13
_exptl_crystal_colour            colorless
_exptl_crystal_description       prismatic
_cell_formula_units_Z            4
loop_
_atom_site_label
_atom_site_type_symbol
_atom_site_fract_x
_atom_site_fract_y
_atom_site_fract_z
Br1 Br 0.52147(3) 0.10304(2) 0.48852(6)
F1 F 0.68210(17) 0.15228(12) 0.3952(3)
F2 F 0.64648(18) 0.18197(11) 0.6415(3)
N1 N 0.7019(2) 0.01156(15) 0.4750(4)
O1 O 1.35154(16) 0.26953(14) 0.8511(3)
O2 O 0.6304(2) -0.02423(13) 0.7616(3)
O3 O 0.64782(19) 0.08078(12) 0.8729(3)
O4 O 0.68548(18) -0.10472(13) 0.3218(3)
C1 C 0.7028(2) 0.06550(16) 0.5997(4)
C2 C 0.6457(2) 0.12815(16) 0.5372(4)
C3 C 0.7943(3) 0.08977(17) 0.6456(4)
C4 C 0.8702(3) 0.10898(19) 0.6765(5)
C5 C 0.9634(2) 0.13009(17) 0.6969(5)
C6 C 1.0300(3) 0.1020(2) 0.5861(5)
H1 H 1.0124 0.0702 0.5051
C7 C 1.1186(3) 0.1216(2) 0.5989(5)
H2 H 1.1615 0.1017 0.5279
C8 C 1.1481(2) 0.17081(17) 0.7150(4)
C9 C 1.0827(2) 0.19895(16) 0.8251(4)
C10 C 0.9902(2) 0.17731(16) 0.8134(4)
H3 H 0.9471 0.1956 0.8864
C11 C 1.2401(2) 0.19308(18) 0.7227(5)
H4 H 1.2833 0.1743 0.6505
C12 C 1.2657(2) 0.24213(16) 0.8360(5)
C13 C 1.2013(3) 0.26994(17) 0.9466(4)
H5 H 1.2194 0.3032 1.0238
C14 C 1.1132(3) 0.24887(16) 0.9418(4)
H6 H 1.0716 0.2676 1.0169
C15 C 1.4156(3) 0.2528(3) 0.7288(7)
H7 H 1.4271 0.2037 0.7306
H8 H 1.4717 0.2774 0.7499
H9 H 1.3922 0.2659 0.6218
C16 C 0.6556(2) 0.03378(16) 0.7554(4)
C17 C 0.6013(3) 0.0593(2) 1.0222(5)
H10 H 0.5368 0.0674 1.0104
H11 H 0.6242 0.0854 1.1149
H12 H 0.6120 0.0106 1.0408
C18 C 0.7584(2) 0.00286(18) 0.3374(4)
C19 C 0.8199(3) 0.0513(2) 0.2742(5)
H13 H 0.8277 0.0937 0.3279
C20 C 0.8691(3) 0.0371(2) 0.1340(5)
H14 H 0.9100 0.0699 0.0930
C21 C 0.8589(3) -0.0252(3) 0.0530(6)
H15 H 0.8931 -0.0343 -0.0421
C22 C 0.7986(3) -0.0740(2) 0.1115(5)
H16 H 0.7916 -0.1161 0.0561
C23 C 0.7485(3) -0.06044(19) 0.2527(5)
C24 C 0.6752(5) -0.1707(2) 0.2482(8)
H17 H 0.6521 -0.1654 0.1372
H18 H 0.6329 -0.1979 0.3125
H19 H 0.7335 -0.1937 0.2448
H20 H 0.675(3) -0.0233(15) 0.508(6)
loop_
_geom_bond_atom_site_label_1
_geom_bond_atom_site_label_2
_geom_bond_site_symmetry_1
_geom_bond_site_symmetry_2
Br1 C2 1_555 1_555
F1 C2 1_555 1_555
F2 C2 1_555 1_555
N1 C1 1_555 1_555
O1 C12 1_555 1_555
O2 C16 1_555 1_555
O3 C16 1_555 1_555
O4 C23 1_555 1_555
C1 C2 1_555 1_555
C3 C1 1_555 1_555
C4 C3 1_555 1_555
C5 C4 1_555 1_555
C6 C5 1_555 1_555
H1 C6 1_555 1_555
C7 C6 1_555 1_555
H2 C7 1_555 1_555
C8 C7 1_555 1_555
C9 C8 1_555 1_555
C10 C5 1_555 1_555
H3 C10 1_555 1_555
C11 C8 1_555 1_555
H4 C11 1_555 1_555
C12 C11 1_555 1_555
C13 C12 1_555 1_555
H5 C13 1_555 1_555
C14 C9 1_555 1_555
H6 C14 1_555 1_555
C15 O1 1_555 1_555
H7 C15 1_555 1_555
H8 C15 1_555 1_555
H9 C15 1_555 1_555
C16 C1 1_555 1_555
C17 O3 1_555 1_555
H10 C17 1_555 1_555
H11 C17 1_555 1_555
H12 C17 1_555 1_555
C18 N1 1_555 1_555
C19 C18 1_555 1_555
H13 C19 1_555 1_555
C20 C19 1_555 1_555
H14 C20 1_555 1_555
C21 C20 1_555 1_555
H15 C21 1_555 1_555
C22 C21 1_555 1_555
H16 C22 1_555 1_555
C23 C18 1_555 1_555
C24 O4 1_555 1_555
H17 C24 1_555 1_555
H18 C24 1_555 1_555
H19 C24 1_555 1_555
H20 N1 1_555 1_555
C9 C10 1_555 1_555
C13 C14 1_555 1_555
C22 C23 1_555 1_555

#END
