
#######################################################################
#
#                 Cambridge Crystallographic Data Centre
#                                CCDC 
#
#######################################################################
#
# If this CIF has been generated from an entry in the Cambridge 
# Structural Database, then it will include bibliographic, chemical, 
# crystal, experimental, refinement or atomic coordinate data resulting 
# from the CCDC's data processing and validation procedures.
#
#######################################################################

data_RICVOO
_chemical_formula_moiety         'C18 H22 O2'
_chemical_name_systematic        
3-Benzyl-4-hydroxytricyclo(5.3.1.0^2,6^)undecan-11-one
_symmetry_cell_setting           orthorhombic
_symmetry_space_group_name_H-M   'P n a 21'
_symmetry_Int_Tables_number      33
_space_group_name_Hall           'P 2c -2n'
loop_
_symmetry_equiv_pos_site_id
_symmetry_equiv_pos_as_xyz
1 x,y,z
2 -x,-y,1/2+z
3 1/2-x,1/2+y,1/2+z
4 1/2+x,1/2-y,z
_cell_length_a                   13.490(4)
_cell_length_b                   16.513(5)
_cell_length_c                   6.565(1)
_cell_angle_alpha                90
_cell_angle_beta                 90
_cell_angle_gamma                90
_cell_volume                     1462.42
_exptl_crystal_colour            colorless
_chemical_melting_point          149-150deg.C
_cell_formula_units_Z            4
loop_
_atom_site_label
_atom_site_type_symbol
_atom_site_fract_x
_atom_site_fract_y
_atom_site_fract_z
O1 O 0.0390(2) 0.3788(2) 0.232
O2 O 0.3941(3) 0.2422(2) 0.3400(6)
C1 C 0.1244(3) 0.3335(3) -0.0759(8)
C2 C 0.2380(3) 0.3264(3) -0.0719(8)
C3 C 0.2773(3) 0.2544(3) 0.0526(7)
C4 C 0.3672(3) 0.2880(3) 0.1666(8)
C5 C 0.3314(3) 0.3721(3) 0.229(1)
C6 C 0.2748(3) 0.4047(3) 0.0459(8)
C7 C 0.1805(3) 0.4519(3) 0.0973(8)
C8 C 0.1475(4) 0.5080(3) -0.077(1)
C9 C 0.1418(4) 0.4621(3) -0.280(1)
C10 C 0.0864(4) 0.3825(3) -0.2603(9)
C11 C 0.1043(3) 0.3866(3) 0.1074(7)
C12 C 0.3005(3) 0.1795(3) -0.076(1)
C13 C 0.2067(4) 0.1460(3) -0.1707(8)
C14 C 0.1406(4) 0.1006(3) -0.0543(9)
C15 C 0.0492(4) 0.0784(3) -0.130(1)
C16 C 0.0208(4) 0.1011(4) -0.320(1)
C17 C 0.0866(5) 0.1453(4) -0.4397(9)
C18 C 0.1794(4) 0.1663(3) -0.3663(9)
H1 H 0.0896 0.2760 -0.0835
H2 H 0.2625 0.3283 -0.2274
H3 H 0.2058 0.2352 0.1473
H4 H 0.4331 0.3082 0.0629
H5 H 0.3819 0.4213 0.2705
H6 H 0.2894 0.3731 0.3533
H7 H 0.3295 0.4412 -0.0417
H8 H 0.1822 0.4833 0.2301
H9 H 0.0737 0.5257 -0.0624
H10 H 0.2024 0.5482 -0.1037
H11 H 0.2231 0.4564 -0.3546
H12 H 0.0966 0.4985 -0.3964
H13 H 0.1007 0.3374 -0.3772
H14 H 0.0070 0.3779 -0.3150
H15 H 0.3572 0.1964 -0.1669
H16 H 0.3240 0.1322 0.0397
H17 H 0.1640 0.0868 0.0861
H18 H 0.0000 0.0242 -0.0812
H19 H -0.0595 0.0808 -0.3956
H20 H 0.0652 0.1617 -0.6012
H21 H 0.2140 0.2029 -0.4795
H22 H 0.4516 0.2063 0.2719
loop_
_geom_bond_atom_site_label_1
_geom_bond_atom_site_label_2
_geom_bond_site_symmetry_1
_geom_bond_site_symmetry_2
O1 C11 1_555 1_555
O2 C4 1_555 1_555
C1 C2 1_555 1_555
C2 C3 1_555 1_555
C3 C4 1_555 1_555
C4 C5 1_555 1_555
C5 C6 1_555 1_555
C6 C2 1_555 1_555
C7 C6 1_555 1_555
C8 C7 1_555 1_555
C9 C8 1_555 1_555
C10 C1 1_555 1_555
C11 C1 1_555 1_555
C12 C3 1_555 1_555
C13 C12 1_555 1_555
C14 C13 1_555 1_555
C15 C14 1_555 1_555
C16 C15 1_555 1_555
C17 C16 1_555 1_555
C18 C13 1_555 1_555
H1 C1 1_555 1_555
H2 C2 1_555 1_555
H3 C3 1_555 1_555
H4 C4 1_555 1_555
H5 C5 1_555 1_555
H6 C5 1_555 1_555
H7 C6 1_555 1_555
H8 C7 1_555 1_555
H9 C8 1_555 1_555
H10 C8 1_555 1_555
H11 C9 1_555 1_555
H12 C9 1_555 1_555
H13 C10 1_555 1_555
H14 C10 1_555 1_555
H15 C12 1_555 1_555
H16 C12 1_555 1_555
H17 C14 1_555 1_555
H18 C15 1_555 1_555
H19 C16 1_555 1_555
H20 C17 1_555 1_555
H21 C18 1_555 1_555
H22 O2 1_555 1_555
C7 C11 1_555 1_555
C9 C10 1_555 1_555
C17 C18 1_555 1_555

#END
