
#######################################################################
#
#                 Cambridge Crystallographic Data Centre
#                                CCDC 
#
#######################################################################
#
# If this CIF has been generated from an entry in the Cambridge 
# Structural Database, then it will include bibliographic, chemical, 
# crystal, experimental, refinement or atomic coordinate data resulting 
# from the CCDC's data processing and validation procedures.
#
#######################################################################

data_RICWIK
_chemical_formula_moiety         'C18 H25 N3 O4'
_chemical_name_systematic        
1-(2,2-Dimethylpropanoyl)-N'-((2-methoxyphenyl)carbonyl)pyrrolidine-2-carbohydrazide
_symmetry_cell_setting           tetragonal
_symmetry_space_group_name_H-M   'P 43 21 2'
_symmetry_Int_Tables_number      96
_space_group_name_Hall           'P 4nw 2abw'
loop_
_symmetry_equiv_pos_site_id
_symmetry_equiv_pos_as_xyz
1 x,y,z
2 -x,-y,1/2+z
3 1/2-y,1/2+x,3/4+z
4 1/2+y,1/2-x,1/4+z
5 1/2-x,1/2+y,3/4-z
6 1/2+x,1/2-y,1/4-z
7 y,x,-z
8 -y,-x,1/2-z
_cell_length_a                   12.1524(4)
_cell_length_b                   12.1524(4)
_cell_length_c                   51.090(2)
_cell_angle_alpha                90
_cell_angle_beta                 90
_cell_angle_gamma                90
_cell_volume                     7545.01
_exptl_crystal_colour            colorless
_cell_formula_units_Z            16
_exptl_crystal_recrystallization_method chloroform
loop_
_atom_site_label
_atom_site_type_symbol
_atom_site_fract_x
_atom_site_fract_y
_atom_site_fract_z
N1 N 1.0127(3) 0.2959(3) 0.08298(5)
N2 N 0.7581(3) 0.3045(3) 0.04752(7)
H1 H 0.7762 0.3568 0.0370
N3 N 0.6656(3) 0.2426(3) 0.04318(6)
H2 H 0.6455 0.1950 0.0547
O1 O 0.7934(2) 0.2083(3) 0.08390(5)
O2 O 0.6269(2) 0.3301(2) 0.00623(5)
O3 O 0.5540(2) 0.0692(2) 0.05436(6)
O4 O 1.0038(2) 0.1825(2) 0.04937(5)
C1 C 1.0503(4) 0.3512(4) 0.10694(8)
H5 H 1.1300 0.3527 0.1079
H6 H 1.0214 0.3154 0.1224
C2 C 1.0039(4) 0.4653(4) 0.10389(9)
H7 H 0.9960 0.5011 0.1208
H8 H 1.0508 0.5101 0.0928
C3 C 0.8944(4) 0.4474(4) 0.09141(8)
H9 H 0.8688 0.5135 0.0827
H10 H 0.8400 0.4247 0.1042
C4 C 0.9176(3) 0.3555(3) 0.07175(7)
H11 H 0.9380 0.3873 0.0548
C5 C 0.8193(3) 0.2813(4) 0.06851(8)
C6 C 0.6068(3) 0.2549(4) 0.02164(8)
C7 C 0.5153(3) 0.1747(3) 0.01735(7)
C8 C 0.4913(3) 0.0830(4) 0.03274(8)
C9 C 0.4080(4) 0.0128(4) 0.02542(9)
H12 H 0.3938 -0.0496 0.0354
C10 C 0.3460(4) 0.0331(5) 0.00374(10)
H13 H 0.2904 -0.0156 -0.0010
C11 C 0.3648(5) 0.1239(5) -0.01097(11)
H14 H 0.3212 0.1385 -0.0255
C12 C 0.4495(4) 0.1948(5) -0.00423(9)
H15 H 0.4623 0.2569 -0.0144
C13 C 1.0491(3) 0.2073(3) 0.06984(8)
C14 C 1.1472(3) 0.1411(4) 0.08052(8)
C15 C 1.2539(4) 0.2035(5) 0.07607(11)
H16 H 1.3147 0.1597 0.0820
H17 H 1.2520 0.2714 0.0856
H18 H 1.2623 0.2186 0.0577
C16 C 1.1320(4) 0.1120(5) 0.10933(9)
H19 H 1.1694 0.0441 0.1130
H20 H 1.0551 0.1039 0.1131
H21 H 1.1622 0.1695 0.1200
C17 C 1.1501(4) 0.0334(4) 0.06525(10)
H22 H 1.1535 0.0490 0.0468
H23 H 1.0850 -0.0084 0.0690
H24 H 1.2139 -0.0082 0.0703
C18 C 0.5360(4) -0.0229(4) 0.07074(8)
H25 H 0.4627 -0.0201 0.0777
H26 H 0.5881 -0.0220 0.0849
H27 H 0.5451 -0.0893 0.0608
N4 N -0.0948(3) 0.8950(3) 0.17007(6)
N5 N 0.0191(3) 0.7863(3) 0.22951(6)
H3 H -0.0305 0.8096 0.2402
N6 N 0.0973(3) 0.7105(3) 0.23736(7)
H4 H 0.1546 0.7002 0.2278
O5 O 0.0954(3) 0.7925(3) 0.18999(5)
O6 O 0.0107(2) 0.6753(2) 0.27477(5)
O7 O 0.2618(2) 0.5859(3) 0.22466(6)
O8 O -0.1575(2) 0.7272(2) 0.17702(5)
C19 C -0.0548(5) 0.9907(4) 0.15583(9)
H28 H -0.1158 1.0340 0.1492
H29 H -0.0092 0.9683 0.1412
C20 C 0.0097(5) 1.0543(5) 0.17481(10)
H30 H 0.0875 1.0389 0.1727
H31 H -0.0021 1.1325 0.1722
C21 C -0.0267(5) 1.0220(4) 0.20088(9)
H32 H -0.0866 1.0686 0.2068
H33 H 0.0333 1.0268 0.2133
C22 C -0.0654(4) 0.9026(4) 0.19781(8)
C23 C 0.0234(4) 0.8220(4) 0.20473(9)
C24 C 0.0857(4) 0.6536(4) 0.25930(9)
C25 C 0.1640(3) 0.5616(4) 0.26380(8)
C26 C 0.2464(4) 0.5249(4) 0.24677(9)
C27 C 0.3057(4) 0.4302(4) 0.25226(11)
H34 H 0.3585 0.4056 0.2405
C28 C 0.2873(4) 0.3729(4) 0.27479(11)
H35 H 0.3279 0.3097 0.2783
C29 C 0.2091(5) 0.4080(4) 0.29230(11)
H36 H 0.1975 0.3700 0.3079
C30 C 0.1479(4) 0.5008(4) 0.28648(9)
H37 H 0.0938 0.5233 0.2982
C31 C -0.1404(3) 0.7999(4) 0.16144(8)
C32 C -0.1697(3) 0.7865(4) 0.13228(7)
C33 C -0.2420(4) 0.8799(4) 0.12203(8)
H38 H -0.1967 0.9420 0.1177
H39 H -0.2940 0.9007 0.1353
H40 H -0.2807 0.8557 0.1067
C34 C -0.0646(4) 0.7753(4) 0.11608(8)
H41 H -0.0153 0.7250 0.1246
H42 H -0.0299 0.8460 0.1145
H43 H -0.0826 0.7480 0.0990
C35 C -0.2335(4) 0.6788(4) 0.13000(8)
H44 H -0.2553 0.6676 0.1121
H45 H -0.2978 0.6821 0.1409
H46 H -0.1876 0.6188 0.1355
C36 C 0.3439(4) 0.5529(4) 0.20647(8)
H47 H 0.4129 0.5443 0.2154
H48 H 0.3512 0.6079 0.1931
H49 H 0.3231 0.4842 0.1986
H50 H -0.131(2) 0.893(2) 0.2078(5)
loop_
_geom_bond_atom_site_label_1
_geom_bond_atom_site_label_2
_geom_bond_site_symmetry_1
_geom_bond_site_symmetry_2
N1 C1 1_555 1_555
N2 H1 1_555 1_555
N3 N2 1_555 1_555
H2 N3 1_555 1_555
N4 C19 1_555 1_555
N5 H3 1_555 1_555
N6 N5 1_555 1_555
H4 N6 1_555 1_555
O1 C5 1_555 1_555
O2 C6 1_555 1_555
O3 C8 1_555 1_555
O4 C13 1_555 1_555
O5 C23 1_555 1_555
O6 C24 1_555 1_555
O7 C26 1_555 1_555
O8 C31 1_555 1_555
C1 H5 1_555 1_555
H6 C1 1_555 1_555
C2 C1 1_555 1_555
H7 C2 1_555 1_555
H8 C2 1_555 1_555
C3 C2 1_555 1_555
H9 C3 1_555 1_555
H10 C3 1_555 1_555
C4 N1 1_555 1_555
H11 C4 1_555 1_555
C5 N2 1_555 1_555
C6 N3 1_555 1_555
C7 C6 1_555 1_555
C8 C7 1_555 1_555
C9 C8 1_555 1_555
H12 C9 1_555 1_555
C10 C9 1_555 1_555
H13 C10 1_555 1_555
C11 C10 1_555 1_555
H14 C11 1_555 1_555
C12 C7 1_555 1_555
H15 C12 1_555 1_555
C13 N1 1_555 1_555
C14 C13 1_555 1_555
C15 C14 1_555 1_555
H16 C15 1_555 1_555
H17 C15 1_555 1_555
H18 C15 1_555 1_555
C16 C14 1_555 1_555
H19 C16 1_555 1_555
H20 C16 1_555 1_555
H21 C16 1_555 1_555
C17 C14 1_555 1_555
H22 C17 1_555 1_555
H23 C17 1_555 1_555
H24 C17 1_555 1_555
C18 O3 1_555 1_555
H25 C18 1_555 1_555
H26 C18 1_555 1_555
H27 C18 1_555 1_555
C19 H28 1_555 1_555
H29 C19 1_555 1_555
C20 C19 1_555 1_555
H30 C20 1_555 1_555
H31 C20 1_555 1_555
C21 C20 1_555 1_555
H32 C21 1_555 1_555
H33 C21 1_555 1_555
C22 N4 1_555 1_555
C23 N5 1_555 1_555
C24 N6 1_555 1_555
C25 C24 1_555 1_555
C26 C25 1_555 1_555
C27 C26 1_555 1_555
H34 C27 1_555 1_555
C28 C27 1_555 1_555
H35 C28 1_555 1_555
C29 C28 1_555 1_555
H36 C29 1_555 1_555
C30 C25 1_555 1_555
H37 C30 1_555 1_555
C31 N4 1_555 1_555
C32 C31 1_555 1_555
C33 C32 1_555 1_555
H38 C33 1_555 1_555
H39 C33 1_555 1_555
H40 C33 1_555 1_555
C34 C32 1_555 1_555
H41 C34 1_555 1_555
H42 C34 1_555 1_555
H43 C34 1_555 1_555
C35 C32 1_555 1_555
H44 C35 1_555 1_555
H45 C35 1_555 1_555
H46 C35 1_555 1_555
C36 O7 1_555 1_555
H47 C36 1_555 1_555
H48 C36 1_555 1_555
H49 C36 1_555 1_555
H50 C22 1_555 1_555
C3 C4 1_555 1_555
C4 C5 1_555 1_555
C11 C12 1_555 1_555
C21 C22 1_555 1_555
C22 C23 1_555 1_555
C29 C30 1_555 1_555

#END
