
#######################################################################
#
#                 Cambridge Crystallographic Data Centre
#                                CCDC 
#
#######################################################################
#
# If this CIF has been generated from an entry in the Cambridge 
# Structural Database, then it will include bibliographic, chemical, 
# crystal, experimental, refinement or atomic coordinate data resulting 
# from the CCDC's data processing and validation procedures.
#
#######################################################################

data_RICWUW
_chemical_name_common            
12-Hydroxy-6-methoxy-15,18-bis(t-butylperoxy)-6,12,15,18-tetrahydro-1-oxa-9-oxo-8a-oxa-open-cage-C60fullerene
_chemical_formula_moiety         'C68 H22 O9'
_chemical_name_systematic        
12-Hydroxy-6-methoxy-15,18-bis(t-butylperoxy)-6,12,15,18-tetrahydro-1-oxa-9-oxo-8a-oxa-8(9)a-oxahomo-C60fullerene
_symmetry_cell_setting           monoclinic
_symmetry_space_group_name_H-M   'C 2/c'
_symmetry_Int_Tables_number      15
_space_group_name_Hall           '-C 2yn'
loop_
_symmetry_equiv_pos_site_id
_symmetry_equiv_pos_as_xyz
1 x,y,z
2 1/2+x,1/2+y,z
3 -x,y,1/2-z
4 1/2-x,1/2+y,1/2-z
5 -x,-y,-z
6 1/2-x,1/2-y,-z
7 x,-y,1/2+z
8 1/2+x,1/2-y,1/2+z
_cell_length_a                   35.284(7)
_cell_length_b                   14.200(3)
_cell_length_c                   18.567(4)
_cell_angle_alpha                90
_cell_angle_beta                 116.70(3)
_cell_angle_gamma                90
_cell_volume                     8310.74
_exptl_crystal_colour            colorless
_exptl_crystal_description       block
_cell_formula_units_Z            8
loop_
_atom_site_label
_atom_site_type_symbol
_atom_site_fract_x
_atom_site_fract_y
_atom_site_fract_z
O1 O 0.05021(7) 0.25135(18) 0.09194(13)
O2 O 0.02568(8) 0.1103(2) -0.06967(15)
O3 O 0.05101(12) 0.4369(2) 0.2071(2)
O4 O 0.14951(10) 0.4839(2) 0.13423(18)
O5 O 0.11712(12) 0.5390(2) 0.14338(18)
O6 O 0.12760(9) 0.2926(3) -0.04074(15)
O7 O 0.16201(12) 0.2742(3) -0.0547(2)
O9 O -0.02643(17) 0.2621(5) 0.1118(3)
C1 C 0.22135(12) 0.0601(3) 0.4208(2)
C2 C 0.23842(12) 0.0262(3) 0.3667(2)
C3 C 0.21345(13) -0.0539(3) 0.3228(3)
C4 C 0.18106(13) -0.0701(3) 0.3492(2)
C5 C 0.18582(13) 0.0004(3) 0.4088(2)
C6 C 0.15059(13) 0.0378(3) 0.4116(2)
C7 C 0.14887(12) 0.1386(3) 0.4250(2)
C8 C 0.18250(13) 0.1964(3) 0.4357(2)
C9 C 0.22003(11) 0.1559(3) 0.4340(2)
C10 C 0.23536(12) 0.2225(3) 0.3948(2)
C11 C 0.25184(11) 0.1907(3) 0.3432(2)
C12 C 0.25327(11) 0.0900(3) 0.3288(2)
C13 C 0.24359(12) 0.0792(4) 0.2450(3)
C14 C 0.21922(13) 0.0022(3) 0.2026(3)
C15 C 0.20400(14) -0.0654(3) 0.2414(3)
C16 C 0.16199(15) -0.0947(3) 0.1847(3)
C17 C 0.13071(14) -0.1097(3) 0.2085(3)
C18 C 0.14051(14) -0.0979(3) 0.2931(2)
C19 C 0.10355(12) -0.0576(3) 0.2960(2)
C20 C 0.10859(12) 0.0095(3) 0.3537(2)
C21 C 0.08086(12) 0.0902(3) 0.3306(2)
C22 C 0.10586(12) 0.1704(3) 0.3741(2)
C23 C 0.09946(12) 0.2562(3) 0.3351(2)
C24 C 0.13386(13) 0.3164(3) 0.3471(2)
C25 C 0.17551(13) 0.2873(3) 0.3972(2)
C26 C 0.20742(12) 0.3045(3) 0.3721(2)
C27 C 0.19714(12) 0.3511(3) 0.2992(2)
C28 C 0.21386(12) 0.3190(3) 0.2461(2)
C29 C 0.24097(11) 0.2416(3) 0.2676(2)
C30 C 0.23601(12) 0.1717(3) 0.2080(3)
C31 C 0.20395(12) 0.1836(3) 0.1281(2)
C32 C 0.17893(12) 0.1046(3) 0.0841(2)
C33 C 0.18664(14) 0.0147(4) 0.1195(2)
C34 C 0.15105(15) -0.0448(3) 0.1094(2)
C35 C 0.11053(13) -0.0097(3) 0.0638(2)
C36 C 0.07809(13) -0.0247(3) 0.0906(2)
C37 C 0.08803(13) -0.0759(3) 0.1613(2)
C38 C 0.07152(12) -0.0448(3) 0.2137(2)
C39 C 0.04299(12) 0.0322(3) 0.1914(2)
C40 C 0.04839(11) 0.1026(3) 0.2528(2)
C41 C 0.03728(12) 0.1979(3) 0.2222(2)
C42 C 0.06419(12) 0.2708(3) 0.2574(2)
C43 C 0.07548(12) 0.3532(3) 0.2153(2)
C44 C 0.12312(13) 0.3677(3) 0.2744(2)
C45 C 0.15537(13) 0.3857(3) 0.2515(2)
C46 C 0.14654(12) 0.3917(3) 0.1636(2)
C47 C 0.18256(12) 0.3329(3) 0.1640(2)
C48 C 0.17770(11) 0.2667(3) 0.1056(2)
C49 C 0.13530(11) 0.2433(3) 0.0349(2)
C50 C 0.13592(12) 0.1350(3) 0.0332(2)
C51 C 0.10230(12) 0.0801(3) 0.02403(19)
C52 C 0.05770(11) 0.1176(3) 0.01038(19)
C53 C 0.04828(12) 0.0490(3) 0.0663(2)
C54 C 0.02693(12) 0.0691(3) 0.1114(2)
O10 O -0.00476(10) 0.1378(3) 0.0864(2)
C56 C 0.00121(11) 0.2088(3) 0.1489(2)
C57 C 0.07568(11) 0.3228(3) 0.1371(2)
C58 C 0.10636(11) 0.3401(3) 0.1147(2)
C59 C 0.10136(11) 0.2714(3) 0.05481(19)
C60 C 0.06796(10) 0.2157(3) 0.04480(19)
C61 C 0.09626(19) 0.5978(4) 0.0710(3)
C62 C 0.12862(16) 0.6663(3) 0.0658(3)
H1 H 0.1419 0.7018 0.1149
H2 H 0.1144 0.7084 0.0212
H3 H 0.1498 0.6313 0.0580
C63 C 0.06417(19) 0.6508(4) 0.0928(3)
H4 H 0.0794 0.6890 0.1397
H5 H 0.0471 0.6058 0.1036
H6 H 0.0463 0.6901 0.0484
C64 C 0.0737(2) 0.5382(4) -0.0021(3)
H7 H 0.0541 0.4975 0.0054
H8 H 0.0940 0.5009 -0.0108
H9 H 0.0586 0.5778 -0.0482
C65 C 0.16798(13) 0.3625(3) -0.0924(3)
C66 C 0.1326(2) 0.3653(4) -0.1746(3)
H10 H 0.1297 0.3047 -0.1996
H11 H 0.1383 0.4120 -0.2058
H12 H 0.1068 0.3808 -0.1719
C67 C 0.2058(3) 0.3323(5) -0.0998(7)
H13 H 0.2002 0.2736 -0.1283
H14 H 0.2290 0.3246 -0.0470
H15 H 0.2130 0.3792 -0.1289
C68 C 0.17574(16) 0.4505(4) -0.0486(3)
H16 H 0.1993 0.4431 0.0038
H17 H 0.1509 0.4680 -0.0429
H18 H 0.1821 0.4988 -0.0777
C69 C 0.0307(2) 0.1745(4) -0.1287(3)
H19 H 0.0076 0.1649 -0.1814
H20 H 0.0570 0.1611 -0.1301
H21 H 0.0306 0.2388 -0.1126
O8? O -0.03497(17) 0.1649(4) 0.0299(3)
C55? C -0.00476(10) 0.1378(3) 0.0864(2)
O11? O 0.00121(11) 0.2088(3) 0.1489(2)
C70? C 0.00590(17) 0.4605(12) 0.1636(8)
H22? H 0.0017 0.5248 0.1743
H23? H -0.0101 0.4199 0.1812
H24? H -0.0036 0.4523 0.1068
loop_
_geom_bond_atom_site_label_1
_geom_bond_atom_site_label_2
_geom_bond_site_symmetry_1
_geom_bond_site_symmetry_2
O1 C57 1_555 1_555
O2 C52 1_555 1_555
O3 C43 1_555 1_555
O4 O5 1_555 1_555
O5 C61 1_555 1_555
O6 O7 1_555 1_555
O7 C65 1_555 1_555
O9 C56 1_555 1_555
C1 C2 1_555 1_555
C2 C3 1_555 1_555
C3 C4 1_555 1_555
C4 C5 1_555 1_555
C5 C1 1_555 1_555
C6 C5 1_555 1_555
C7 C6 1_555 1_555
C8 C7 1_555 1_555
C9 C1 1_555 1_555
C10 C9 1_555 1_555
C11 C10 1_555 1_555
C12 C2 1_555 1_555
C13 C12 1_555 1_555
C14 C13 1_555 1_555
C15 C3 1_555 1_555
C16 C15 1_555 1_555
C17 C16 1_555 1_555
C18 C4 1_555 1_555
C19 C18 1_555 1_555
C20 C6 1_555 1_555
C21 C20 1_555 1_555
C22 C7 1_555 1_555
C23 C22 1_555 1_555
C24 C23 1_555 1_555
C25 C8 1_555 1_555
C26 C10 1_555 1_555
C27 C26 1_555 1_555
C28 C27 1_555 1_555
C29 C11 1_555 1_555
C30 C13 1_555 1_555
C31 C30 1_555 1_555
C32 C31 1_555 1_555
C33 C14 1_555 1_555
C34 C16 1_555 1_555
C35 C34 1_555 1_555
C36 C35 1_555 1_555
C37 C17 1_555 1_555
C38 C19 1_555 1_555
C39 C38 1_555 1_555
C40 C21 1_555 1_555
C41 C40 1_555 1_555
C42 C23 1_555 1_555
C43 C42 1_555 1_555
C44 C24 1_555 1_555
C45 C27 1_555 1_555
C46 O4 1_555 1_555
C47 C28 1_555 1_555
C48 C31 1_555 1_555
C49 O6 1_555 1_555
C50 C32 1_555 1_555
C51 C35 1_555 1_555
C52 C51 1_555 1_555
C53 C36 1_555 1_555
C54 C39 1_555 1_555
O10 C54 1_555 1_555
C56 C41 1_555 1_555
C57 C43 1_555 1_555
C58 C46 1_555 1_555
C59 C49 1_555 1_555
C60 O1 1_555 1_555
C61 C62 1_555 1_555
C62 H1 1_555 1_555
H2 C62 1_555 1_555
H3 C62 1_555 1_555
C63 C61 1_555 1_555
H4 C63 1_555 1_555
H5 C63 1_555 1_555
H6 C63 1_555 1_555
C64 C61 1_555 1_555
H7 C64 1_555 1_555
H8 C64 1_555 1_555
H9 C64 1_555 1_555
C65 C66 1_555 1_555
C66 H10 1_555 1_555
H11 C66 1_555 1_555
H12 C66 1_555 1_555
C67 C65 1_555 1_555
H13 C67 1_555 1_555
H14 C67 1_555 1_555
H15 C67 1_555 1_555
C68 C65 1_555 1_555
H16 C68 1_555 1_555
H17 C68 1_555 1_555
H18 C68 1_555 1_555
C69 O2 1_555 1_555
H19 C69 1_555 1_555
H20 C69 1_555 1_555
H21 C69 1_555 1_555
C8 C9 1_555 1_555
C11 C12 1_555 1_555
C14 C15 1_555 1_555
C17 C18 1_555 1_555
C19 C20 1_555 1_555
C21 C22 1_555 1_555
C24 C25 1_555 1_555
C25 C26 1_555 1_555
C28 C29 1_555 1_555
C29 C30 1_555 1_555
C32 C33 1_555 1_555
C33 C34 1_555 1_555
C36 C37 1_555 1_555
C37 C38 1_555 1_555
C39 C40 1_555 1_555
C41 C42 1_555 1_555
C43 C44 1_555 1_555
C44 C45 1_555 1_555
C45 C46 1_555 1_555
C46 C47 1_555 1_555
C47 C48 1_555 1_555
C48 C49 1_555 1_555
C49 C50 1_555 1_555
C50 C51 1_555 1_555
C52 C53 1_555 1_555
C52 C60 1_555 1_555
C53 C54 1_555 1_555
O10 C56 1_555 1_555
C57 C58 1_555 1_555
C58 C59 1_555 1_555
C59 C60 1_555 1_555

#END
