
#######################################################################
#
#                 Cambridge Crystallographic Data Centre
#                                CCDC 
#
#######################################################################
#
# If this CIF has been generated from an entry in the Cambridge 
# Structural Database, then it will include bibliographic, chemical, 
# crystal, experimental, refinement or atomic coordinate data resulting 
# from the CCDC's data processing and validation procedures.
#
#######################################################################

data_RIDCOY
_chemical_formula_moiety         'C12 H21 F2 N1 O3 S1'
_chemical_name_systematic        
'Ethyl 2-(1-((t-butylsulfinyl)amino)-2,2-difluoroethyl)but-3-enoate'
_symmetry_cell_setting           monoclinic
_symmetry_space_group_name_H-M   'P 21'
_symmetry_Int_Tables_number      4
_space_group_name_Hall           'P 2yb'
loop_
_symmetry_equiv_pos_site_id
_symmetry_equiv_pos_as_xyz
1 x,y,z
2 -x,1/2+y,-z
_cell_length_a                   9.2446(14)
_cell_length_b                   9.5342(14)
_cell_length_c                   9.3529(14)
_cell_angle_alpha                90
_cell_angle_beta                 113.440(2)
_cell_angle_gamma                90
_cell_volume                     756.335
_exptl_crystal_colour            colorless
_exptl_crystal_description       block
_cell_formula_units_Z            2
loop_
_atom_site_label
_atom_site_type_symbol
_atom_site_fract_x
_atom_site_fract_y
_atom_site_fract_z
S1 S 0.17523(4) 0.73904(3) 0.63643(4)
N1 N 0.07297(14) 0.87422(13) 0.65792(14)
H1 H 0.0666 0.9535 0.6076
O1 O 0.18926(13) 1.16530(13) 0.86967(14)
O2 O 0.25835(14) 0.97566(15) 1.02661(16)
O3 O 0.07063(14) 0.63286(12) 0.52564(15)
F1 F -0.22916(12) 0.74464(14) 0.78062(12)
F2 F -0.27045(11) 0.88451(11) 0.58298(13)
C1 C 0.3639(3) 1.3264(3) 0.8248(3)
H2 H 0.3494 1.2820 0.7255
H3 H 0.4683 1.3702 0.8701
H4 H 0.2826 1.3981 0.8069
C2 C 0.3505(2) 1.2171(2) 0.9350(2)
H5 H 0.4253 1.1395 0.9463
H6 H 0.3752 1.2588 1.0391
C3 C 0.16161(17) 1.04322(17) 0.92415(18)
C4 C -0.01041(15) 0.99912(15) 0.83873(16)
H7 H -0.0654 1.0686 0.7544
C5 C -0.09003(17) 0.99652(18) 0.95195(18)
H8 H -0.0558 0.9296 1.0339
C6 C -0.2056(2) 1.0836(2) 0.9419(2)
H9 H -0.2417 1.1514 0.8609
H10 H -0.2522 1.0781 1.0158
C7 C -0.00616(16) 0.85557(15) 0.76423(16)
H11 H 0.0586 0.7900 0.8490
C8 C -0.16704(18) 0.78947(16) 0.67851(19)
H12 H -0.1572 0.7082 0.6154
C9 C 0.27668(16) 0.83155(16) 0.52906(18)
C10 C 0.15743(19) 0.88284(17) 0.37220(19)
H13 H 0.0985 0.9624 0.3884
H14 H 0.0842 0.8067 0.3201
H15 H 0.2129 0.9124 0.3072
C11 C 0.3737(2) 0.95149(19) 0.6316(2)
H16 H 0.4414 0.9923 0.5842
H17 H 0.4393 0.9152 0.7353
H18 H 0.3025 1.0237 0.6409
C12 C 0.38502(18) 0.71911(18) 0.5078(2)
H19 H 0.3215 0.6391 0.4511
H20 H 0.4605 0.6880 0.6101
H21 H 0.4422 0.7584 0.4485
loop_
_geom_bond_atom_site_label_1
_geom_bond_atom_site_label_2
_geom_bond_site_symmetry_1
_geom_bond_site_symmetry_2
S1 N1 1_555 1_555
N1 H1 1_555 1_555
O1 C2 1_555 1_555
O2 C3 1_555 1_555
O3 S1 1_555 1_555
F1 C8 1_555 1_555
F2 C8 1_555 1_555
C1 H2 1_555 1_555
H3 C1 1_555 1_555
H4 C1 1_555 1_555
C2 C1 1_555 1_555
H5 C2 1_555 1_555
H6 C2 1_555 1_555
C3 O1 1_555 1_555
C4 C3 1_555 1_555
H7 C4 1_555 1_555
C5 C4 1_555 1_555
H8 C5 1_555 1_555
C6 C5 1_555 1_555
H9 C6 1_555 1_555
H10 C6 1_555 1_555
C7 N1 1_555 1_555
H11 C7 1_555 1_555
C8 C7 1_555 1_555
H12 C8 1_555 1_555
C9 S1 1_555 1_555
C10 C9 1_555 1_555
H13 C10 1_555 1_555
H14 C10 1_555 1_555
H15 C10 1_555 1_555
C11 C9 1_555 1_555
H16 C11 1_555 1_555
H17 C11 1_555 1_555
H18 C11 1_555 1_555
C12 C9 1_555 1_555
H19 C12 1_555 1_555
H20 C12 1_555 1_555
H21 C12 1_555 1_555
C4 C7 1_555 1_555

#END
