
#######################################################################
#
#                 Cambridge Crystallographic Data Centre
#                                CCDC 
#
#######################################################################
#
# If this CIF has been generated from an entry in the Cambridge 
# Structural Database, then it will include bibliographic, chemical, 
# crystal, experimental, refinement or atomic coordinate data resulting 
# from the CCDC's data processing and validation procedures.
#
#######################################################################

data_RIDCEO
_chemical_formula_moiety         'C32 H29 Br1 O5'
_chemical_name_systematic        
'Diphenyl ((3-bromo-5-t-butyl-4-hydroxyphenyl)(phenyl)methyl)malonate'
_symmetry_cell_setting           triclinic
_symmetry_space_group_name_H-M   'P 1'
_symmetry_Int_Tables_number      1
_space_group_name_Hall           'P 1'
loop_
_symmetry_equiv_pos_site_id
_symmetry_equiv_pos_as_xyz
1 x,y,z
_cell_length_a                   10.549(4)
_cell_length_b                   11.441(4)
_cell_length_c                   13.221(4)
_cell_angle_alpha                72.27(3)
_cell_angle_beta                 68.01(4)
_cell_angle_gamma                87.72(3)
_cell_volume                     1404.31
_exptl_crystal_colour            'light yellow'
_exptl_crystal_description       block
_cell_formula_units_Z            2
loop_
_atom_site_label
_atom_site_type_symbol
_atom_site_fract_x
_atom_site_fract_y
_atom_site_fract_z
Br1 Br 0.58998(12) 0.58409(10) 0.38655(11)
O1 O 0.8332(9) 0.7214(9) 0.1680(8)
H1 H 0.8241 0.6536 0.2158
O2 O 0.7131(9) 1.0656(8) 0.4426(8)
O3 O 0.5854(8) 0.8993(9) 0.5856(8)
O4 O 0.4525(9) 1.2508(8) 0.4707(8)
O5 O 0.3425(10) 1.1077(8) 0.6390(7)
C1 C 0.5411(12) 0.8352(12) 0.3589(11)
H2 H 0.4603 0.8025 0.4219
C2 C 0.6307(13) 0.7568(12) 0.3133(11)
C3 C 0.7455(12) 0.7982(11) 0.2185(11)
C4 C 0.7811(12) 0.9264(12) 0.1655(11)
C5 C 0.6904(13) 1.0029(11) 0.2145(11)
H3 H 0.7105 1.0876 0.1805
C6 C 0.5684(12) 0.9592(13) 0.3138(10)
C7 C 0.9144(14) 0.9790(13) 0.0591(12)
C8 C 0.9109(13) 0.9405(14) -0.0432(11)
H4 H 0.9151 0.8530 -0.0265
H5 H 0.9880 0.9816 -0.1116
H6 H 0.8275 0.9630 -0.0546
C9 C 1.0433(15) 0.9369(18) 0.0844(15)
H7 H 1.0419 0.9590 0.1493
H8 H 1.1240 0.9762 0.0186
H9 H 1.0440 0.8491 0.1012
C10 C 0.9268(16) 1.1203(15) 0.0167(13)
H10 H 0.8464 1.1489 0.0025
H11 H 1.0064 1.1495 -0.0531
H12 H 0.9355 1.1509 0.0740
C11 C 0.4845(13) 1.0561(13) 0.3609(11)
H13 H 0.5383 1.1355 0.3160
C12 C 0.3462(11) 1.0673(11) 0.3440(9)
C13 C 0.3443(14) 1.1472(13) 0.2440(11)
H14 H 0.4240 1.1949 0.1899
C14 C 0.2284(18) 1.1577(14) 0.2227(13)
H15 H 0.2307 1.2094 0.1524
C15 C 0.1049(14) 1.0926(16) 0.3038(14)
H16 H 0.0248 1.1014 0.2893
C16 C 0.1059(13) 1.0157(14) 0.4050(12)
H17 H 0.0244 0.9732 0.4615
C17 C 0.2239(12) 0.9999(14) 0.4248(11)
H18 H 0.2230 0.9436 0.4929
C18 C 0.4690(11) 1.0335(10) 0.4852(10)
H19 H 0.4015 0.9627 0.5335
C19 C 0.6024(12) 1.0020(11) 0.5022(10)
C20 C 0.7024(12) 0.8532(14) 0.6070(11)
C21 C 0.7425(14) 0.8891(15) 0.6797(13)
H20 H 0.7004 0.9514 0.7086
C22 C 0.8453(14) 0.8332(14) 0.7104(12)
H21 H 0.8744 0.8575 0.7598
C23 C 0.9067(16) 0.7382(17) 0.6665(14)
H22 H 0.9782 0.7017 0.6860
C24 C 0.8650(14) 0.6989(15) 0.5974(16)
H23 H 0.9054 0.6350 0.5704
C25 C 0.7599(13) 0.7559(13) 0.5672(13)
H24 H 0.7279 0.7293 0.5206
C26 C 0.4183(14) 1.1411(13) 0.5290(12)
C27 C 0.3016(13) 1.1955(12) 0.6979(10)
C28 C 0.2142(17) 1.2814(14) 0.6739(13)
H25 H 0.1858 1.2903 0.6135
C29 C 0.169(2) 1.3569(16) 0.7481(16)
H26 H 0.1058 1.4141 0.7394
C30 C 0.3042(18) 1.261(2) 0.8538(16)
H27 H 0.3337 1.2530 0.9134
C31 C 0.2209(18) 1.3434(16) 0.8321(19)
H28 H 0.1949 1.3965 0.8761
C32 C 0.3476(16) 1.1839(17) 0.7851(13)
H29 H 0.4078 1.1248 0.7981
Br2 Br 0.50821(13) 0.99136(11) 0.01424(12)
O6 O 0.2731(10) 0.8323(10) 0.2299(10)
H30 H 0.3123 0.8998 0.2137
O7 O 0.3610(8) 0.4458(8) -0.0046(7)
O8 O 0.5174(7) 0.5900(8) -0.1518(7)
O9 O 0.8259(8) 0.4482(8) -0.1780(7)
O10 O 0.6476(9) 0.3326(9) -0.1580(8)
C33 C 0.5797(11) 0.7466(11) 0.0224(10)
H31 H 0.6565 0.7844 -0.0428
C34 C 0.4837(12) 0.8169(12) 0.0778(11)
C35 C 0.3658(14) 0.7579(14) 0.1771(12)
C36 C 0.3434(12) 0.6323(12) 0.2181(11)
C37 C 0.4432(12) 0.5644(12) 0.1616(9)
H32 H 0.4305 0.4789 0.1900
C38 C 0.5581(10) 0.6178(10) 0.0671(10)
C39 C 0.2109(14) 0.5682(15) 0.3240(12)
C40 C 0.2037(16) 0.6002(19) 0.4300(14)
H33 H 0.2937 0.6014 0.4320
H34 H 0.1433 0.5395 0.4979
H35 H 0.1697 0.6797 0.4268
C41 C 0.0828(13) 0.6090(15) 0.2958(13)
H36 H 0.0814 0.6968 0.2780
H37 H 0.0013 0.5699 0.3610
H38 H 0.0862 0.5856 0.2311
C42 C 0.2069(16) 0.4260(15) 0.3485(16)
H39 H 0.2154 0.4073 0.2803
H40 H 0.1213 0.3882 0.4091
H41 H 0.2813 0.3949 0.3711
C43 C 0.6674(12) 0.5460(11) 0.0019(10)
H42 H 0.7236 0.6059 -0.0716
C44 C 0.7642(12) 0.4909(12) 0.0596(11)
C45 C 0.7172(14) 0.3991(13) 0.1669(12)
H43 H 0.6249 0.3705 0.2015
C46 C 0.8039(15) 0.3498(13) 0.2227(14)
H44 H 0.7704 0.2872 0.2927
C47 C 0.9364(16) 0.3925(15) 0.1759(13)
H45 H 0.9922 0.3602 0.2163
C48 C 0.9946(15) 0.4831(17) 0.0696(17)
H46 H 1.0872 0.5102 0.0383
C49 C 0.9040(13) 0.5334(12) 0.0097(12)
H47 H 0.9385 0.5937 -0.0616
C50 C 0.6033(11) 0.4452(11) -0.0284(9)
H48 H 0.5742 0.3711 0.0389
C51 C 0.4780(10) 0.4875(11) -0.0548(9)
C52 C 0.4083(11) 0.6503(11) -0.1809(10)
C53 C 0.3496(13) 0.7390(14) -0.1354(13)
H49 H 0.3768 0.7589 -0.0830
C54 C 0.2491(15) 0.7992(16) -0.1675(15)
H50 H 0.2005 0.8536 -0.1303
C55 C 0.2187(14) 0.7792(14) -0.2565(14)
H51 H 0.1565 0.8246 -0.2836
C56 C 0.2833(15) 0.6915(13) -0.3006(12)
H52 H 0.2571 0.6699 -0.3526
C57 C 0.3868(13) 0.6329(13) -0.2713(10)
H53 H 0.4405 0.5830 -0.3117
C58 C 0.7043(12) 0.4110(11) -0.1263(11)
C59 C 0.7254(14) 0.3038(12) -0.2606(11)
C60 C 0.6820(16) 0.3482(18) -0.3485(13)
H54 H 0.6110 0.3996 -0.3447
C61 C 0.7497(18) 0.3122(19) -0.4430(14)
H55 H 0.7262 0.3432 -0.5068
C62 C 0.8503(18) 0.2326(17) -0.4480(14)
H56 H 0.8893 0.2046 -0.5113
C63 C 0.8907(18) 0.1964(15) -0.3612(17)
H57 H 0.9660 0.1498 -0.3678
C64 C 0.8259(17) 0.2248(14) -0.2608(12)
H58 H 0.8492 0.1920 -0.1972
loop_
_geom_bond_atom_site_label_1
_geom_bond_atom_site_label_2
_geom_bond_site_symmetry_1
_geom_bond_site_symmetry_2
Br1 C2 1_555 1_555
O1 H1 1_555 1_555
O2 C19 1_555 1_555
O3 C19 1_555 1_555
O4 C26 1_555 1_555
O5 C26 1_555 1_555
C1 H2 1_555 1_555
C2 C1 1_555 1_555
C3 O1 1_555 1_555
C4 C3 1_555 1_555
C5 C4 1_555 1_555
H3 C5 1_555 1_555
C6 C1 1_555 1_555
C7 C4 1_555 1_555
C8 C7 1_555 1_555
H4 C8 1_555 1_555
H5 C8 1_555 1_555
H6 C8 1_555 1_555
C9 C7 1_555 1_555
H7 C9 1_555 1_555
H8 C9 1_555 1_555
H9 C9 1_555 1_555
C10 C7 1_555 1_555
H10 C10 1_555 1_555
H11 C10 1_555 1_555
H12 C10 1_555 1_555
C11 C6 1_555 1_555
H13 C11 1_555 1_555
C12 C11 1_555 1_555
C13 C12 1_555 1_555
H14 C13 1_555 1_555
C14 C13 1_555 1_555
H15 C14 1_555 1_555
C15 C14 1_555 1_555
H16 C15 1_555 1_555
C16 C15 1_555 1_555
H17 C16 1_555 1_555
C17 C12 1_555 1_555
H18 C17 1_555 1_555
C18 C11 1_555 1_555
H19 C18 1_555 1_555
C19 C18 1_555 1_555
C20 O3 1_555 1_555
C21 C20 1_555 1_555
H20 C21 1_555 1_555
C22 C21 1_555 1_555
H21 C22 1_555 1_555
C23 C22 1_555 1_555
H22 C23 1_555 1_555
C24 C23 1_555 1_555
H23 C24 1_555 1_555
C25 C20 1_555 1_555
H24 C25 1_555 1_555
C26 C18 1_555 1_555
C27 O5 1_555 1_555
C28 C27 1_555 1_555
H25 C28 1_555 1_555
C29 C28 1_555 1_555
H26 C29 1_555 1_555
C30 H27 1_555 1_555
C31 C29 1_555 1_555
H28 C31 1_555 1_555
C32 C27 1_555 1_555
H29 C32 1_555 1_555
Br2 C34 1_555 1_555
O6 H30 1_555 1_555
O7 C51 1_555 1_555
O8 C51 1_555 1_555
O9 C58 1_555 1_555
O10 C58 1_555 1_555
C33 H31 1_555 1_555
C34 C33 1_555 1_555
C35 O6 1_555 1_555
C36 C35 1_555 1_555
C37 C36 1_555 1_555
H32 C37 1_555 1_555
C38 C33 1_555 1_555
C39 C36 1_555 1_555
C40 C39 1_555 1_555
H33 C40 1_555 1_555
H34 C40 1_555 1_555
H35 C40 1_555 1_555
C41 C39 1_555 1_555
H36 C41 1_555 1_555
H37 C41 1_555 1_555
H38 C41 1_555 1_555
C42 C39 1_555 1_555
H39 C42 1_555 1_555
H40 C42 1_555 1_555
H41 C42 1_555 1_555
C43 C38 1_555 1_555
H42 C43 1_555 1_555
C44 C43 1_555 1_555
C45 C44 1_555 1_555
H43 C45 1_555 1_555
C46 C45 1_555 1_555
H44 C46 1_555 1_555
C47 C46 1_555 1_555
H45 C47 1_555 1_555
C48 C47 1_555 1_555
H46 C48 1_555 1_555
C49 C44 1_555 1_555
H47 C49 1_555 1_555
C50 C43 1_555 1_555
H48 C50 1_555 1_555
C51 C50 1_555 1_555
C52 O8 1_555 1_555
C53 C52 1_555 1_555
H49 C53 1_555 1_555
C54 C53 1_555 1_555
H50 C54 1_555 1_555
C55 C54 1_555 1_555
H51 C55 1_555 1_555
C56 C55 1_555 1_555
H52 C56 1_555 1_555
C57 C52 1_555 1_555
H53 C57 1_555 1_555
C58 C50 1_555 1_555
C59 O10 1_555 1_555
C60 C59 1_555 1_555
H54 C60 1_555 1_555
C61 C60 1_555 1_555
H55 C61 1_555 1_555
C62 C61 1_555 1_555
H56 C62 1_555 1_555
C63 C62 1_555 1_555
H57 C63 1_555 1_555
C64 C59 1_555 1_555
H58 C64 1_555 1_555
C2 C3 1_555 1_555
C5 C6 1_555 1_555
C16 C17 1_555 1_555
C24 C25 1_555 1_555
C30 C31 1_555 1_555
C30 C32 1_555 1_555
C34 C35 1_555 1_555
C37 C38 1_555 1_555
C48 C49 1_555 1_555
C56 C57 1_555 1_555
C63 C64 1_555 1_555

#END
