
#######################################################################
#
#                 Cambridge Crystallographic Data Centre
#                                CCDC 
#
#######################################################################
#
# If this CIF has been generated from an entry in the Cambridge 
# Structural Database, then it will include bibliographic, chemical, 
# crystal, experimental, refinement or atomic coordinate data resulting 
# from the CCDC's data processing and validation procedures.
#
#######################################################################

data_RIDNUQ01
_chemical_formula_moiety         'C12 H28 N1 1+,C2 H1 O4 1-'
_chemical_name_systematic        'tributylammonium hydrogen ethanedioate'
_symmetry_cell_setting           monoclinic
_symmetry_space_group_name_H-M   'P 21/n'
_symmetry_Int_Tables_number      14
_space_group_name_Hall           '-P 2yn'
loop_
_symmetry_equiv_pos_site_id
_symmetry_equiv_pos_as_xyz
1 x,y,z
2 1/2-x,1/2+y,1/2-z
3 -x,-y,-z
4 1/2+x,1/2-y,1/2+z
_cell_length_a                   5.6202(4)
_cell_length_b                   15.2740(10)
_cell_length_c                   20.173(3)
_cell_angle_alpha                90
_cell_angle_beta                 93.895(8)
_cell_angle_gamma                90
_cell_volume                     1727.71
_exptl_crystal_colour            colorless
_exptl_crystal_description       plate
_cell_formula_units_Z            4
loop_
_atom_site_label
_atom_site_type_symbol
_atom_site_fract_x
_atom_site_fract_y
_atom_site_fract_z
O1 O 0.0138(3) 0.04518(13) 0.21165(16)
O2 O 0.1655(3) -0.08281(12) 0.18383(14)
O3 O 0.4651(4) 0.10683(16) 0.23421(18)
O4 O 0.6001(3) -0.01551(14) 0.19461(14)
H1 H 0.748(8) 0.009(2) 0.1920(18)
C1 C 0.1822(5) -0.00531(17) 0.20110(17)
C2 C 0.4330(5) 0.03538(17) 0.21214(17)
N1 N -0.4929(4) -0.20982(14) 0.16970(14)
H2 H -0.5740 -0.1541 0.1768
C3 C -0.3210(6) -0.1937(2) 0.1190(2)
H3 H -0.2404 -0.2481 0.1100
H4 H -0.2016 -0.1525 0.1367
C4 C -0.4355(10) -0.1580(3) 0.0547(3)
H5 H -0.5281 -0.1060 0.0631
H6 H -0.5404 -0.2014 0.0332
C5 C -0.2302(18) -0.1356(6) 0.0108(5)
H7 H -0.1188 -0.0983 0.0364
H8 H -0.1470 -0.1896 0.0021
C6 C -0.279(3) -0.1000(7) -0.0421(6)
H9 H -0.2601 -0.1410 -0.0775
H10 H -0.1734 -0.0513 -0.0469
H11 H -0.4404 -0.0797 -0.0439
C7 C -0.3585(8) -0.2328(3) 0.2338(3)
H12 H -0.3072 -0.2933 0.2318
H13 H -0.2167 -0.1965 0.2389
C8 C -0.4943(12) -0.2215(4) 0.2912(3)
H14 H -0.6207 -0.2648 0.2902
H15 H -0.5677 -0.1640 0.2896
C9 C -0.332(2) -0.2312(5) 0.3590(4)
H16 H -0.4399 -0.2423 0.3936
H17 H -0.2387 -0.2841 0.3549
C10 C -0.181(3) -0.1696(10) 0.3823(7)
H18 H -0.1869 -0.1655 0.4297
H19 H -0.2252 -0.1143 0.3625
H20 H -0.0221 -0.1845 0.3717
C11 C -0.6815(6) -0.2746(2) 0.14859(19)
H21 H -0.7794 -0.2498 0.1118
H22 H -0.7831 -0.2830 0.1851
C12 C -0.5943(8) -0.3633(2) 0.1276(3)
H23 H -0.5130 -0.3922 0.1655
H24 H -0.4807 -0.3557 0.0940
C13 C -0.8011(14) -0.4211(3) 0.0999(4)
H25 H -0.9142 -0.4272 0.1338
H26 H -0.8820 -0.3909 0.0625
C14 C -0.737(2) -0.5063(5) 0.0786(6)
H27 H -0.6186 -0.5017 0.0468
H28 H -0.8760 -0.5352 0.0585
H29 H -0.6749 -0.5397 0.1162
loop_
_geom_bond_atom_site_label_1
_geom_bond_atom_site_label_2
_geom_bond_site_symmetry_1
_geom_bond_site_symmetry_2
O1 C1 1_555 1_555
O2 C1 1_555 1_555
O3 C2 1_555 1_555
O4 H1 1_555 1_555
C1 C2 1_555 1_555
C2 O4 1_555 1_555
N1 H2 1_555 1_555
C3 N1 1_555 1_555
H3 C3 1_555 1_555
H4 C3 1_555 1_555
C4 C3 1_555 1_555
H5 C4 1_555 1_555
H6 C4 1_555 1_555
C5 C4 1_555 1_555
H7 C5 1_555 1_555
H8 C5 1_555 1_555
C6 C5 1_555 1_555
H9 C6 1_555 1_555
H10 C6 1_555 1_555
H11 C6 1_555 1_555
C7 N1 1_555 1_555
H12 C7 1_555 1_555
H13 C7 1_555 1_555
C8 C7 1_555 1_555
H14 C8 1_555 1_555
H15 C8 1_555 1_555
C9 C8 1_555 1_555
H16 C9 1_555 1_555
H17 C9 1_555 1_555
C10 C9 1_555 1_555
H18 C10 1_555 1_555
H19 C10 1_555 1_555
H20 C10 1_555 1_555
C11 N1 1_555 1_555
H21 C11 1_555 1_555
H22 C11 1_555 1_555
C12 C11 1_555 1_555
H23 C12 1_555 1_555
H24 C12 1_555 1_555
C13 C12 1_555 1_555
H25 C13 1_555 1_555
H26 C13 1_555 1_555
C14 C13 1_555 1_555
H27 C14 1_555 1_555
H28 C14 1_555 1_555
H29 C14 1_555 1_555

#END
