
#######################################################################
#
#                 Cambridge Crystallographic Data Centre
#                                CCDC 
#
#######################################################################
#
# If this CIF has been generated from an entry in the Cambridge 
# Structural Database, then it will include bibliographic, chemical, 
# crystal, experimental, refinement or atomic coordinate data resulting 
# from the CCDC's data processing and validation procedures.
#
#######################################################################

data_RIDNUQ03
_chemical_formula_moiety         'C12 H28 N1 1+,C2 H1 O4 1-'
_chemical_name_systematic        'tributylammonium hydrogen ethanedioate'
_symmetry_cell_setting           monoclinic
_symmetry_space_group_name_H-M   'P 21/n'
_symmetry_Int_Tables_number      14
_space_group_name_Hall           '-P 2yn'
loop_
_symmetry_equiv_pos_site_id
_symmetry_equiv_pos_as_xyz
1 x,y,z
2 1/2-x,1/2+y,1/2-z
3 -x,-y,-z
4 1/2+x,1/2-y,1/2+z
_cell_length_a                   5.62250(10)
_cell_length_b                   15.2523(3)
_cell_length_c                   20.1681(4)
_cell_angle_alpha                90
_cell_angle_beta                 93.965(2)
_cell_angle_gamma                90
_cell_volume                     1725.4
_exptl_crystal_colour            colorless
_exptl_crystal_description       plate
_cell_formula_units_Z            4
loop_
_atom_site_label
_atom_site_type_symbol
_atom_site_fract_x
_atom_site_fract_y
_atom_site_fract_z
O1 O 0.8335(2) 0.41726(10) 0.31610(10)
O2 O 0.9853(2) 0.54503(11) 0.28915(12)
O3 O 0.4000(2) 0.48433(11) 0.30585(11)
H1 H 0.2735 0.5112 0.3043
O4 O 0.5341(3) 0.60652(13) 0.26516(15)
C1 C 0.8190(3) 0.49447(13) 0.29893(12)
C2 C 0.5655(3) 0.53493(14) 0.28765(13)
N1 N 0.4914(3) 0.29009(12) 0.33026(10)
H2 H 0.5733 0.3457 0.3234
C3 C 0.6818(4) 0.22499(16) 0.35230(14)
H3 H 0.7775 0.2498 0.3895
H4 H 0.7853 0.2167 0.3163
C4 C 0.5924(7) 0.13635(19) 0.3727(2)
H5 H 0.5100 0.1080 0.3347
H6 H 0.4797 0.1438 0.4066
C5 C 0.7975(12) 0.0785(3) 0.3996(3)
H7 H 0.9127 0.0741 0.3661
H8 H 0.8759 0.1070 0.4382
C6 C 0.731(2) -0.0084(5) 0.4182(6)
H9 H 0.8699 -0.0402 0.4345
H10 H 0.6201 -0.0051 0.4523
H11 H 0.6569 -0.0381 0.3801
C7 C 0.3197(4) 0.30707(19) 0.38039(16)
H12 H 0.2363 0.2530 0.3890
H13 H 0.2026 0.3490 0.3625
C8 C 0.4294(8) 0.3412(3) 0.44398(18)
H14 H 0.5178 0.3947 0.4374
H15 H 0.5345 0.2982 0.4661
C9 C 0.2028(17) 0.3590(6) 0.4845(4)
H16 H 0.0955 0.3998 0.4608
H17 H 0.1174 0.3048 0.4913
C10 C 0.2909(19) 0.3952(7) 0.5468(5)
H18 H 0.1597 0.4073 0.5735
H19 H 0.3969 0.3541 0.5696
H20 H 0.3751 0.4486 0.5392
C11 C 0.3552(6) 0.2689(2) 0.26597(18)
H21 H 0.2968 0.2092 0.2679
H22 H 0.2178 0.3074 0.2606
C12 C 0.4955(9) 0.2779(3) 0.20774(19)
H23 H 0.6122 0.2312 0.2066
H24 H 0.5780 0.3338 0.2085
C13 C 0.3039(18) 0.2719(7) 0.1443(4)
H25 H 0.3914 0.2521 0.1073
H26 H 0.1948 0.2250 0.1537
C14 C 0.184(3) 0.3320(8) 0.1241(6)
H27 H 0.0835 0.3134 0.0862
H28 H 0.0861 0.3517 0.1584
H29 H 0.2844 0.3790 0.1115
H30? H 0.5031 0.2901 0.4654
H31? H 0.5604 0.3772 0.4309
C15? C 0.336(4) 0.3886(14) 0.4970(9)
H32? H 0.3339 0.3453 0.5321
H33? H 0.4650 0.4282 0.5109
C16? C 0.143(4) 0.4358(16) 0.5053(12)
H34? H 0.1482 0.4572 0.5501
H35? H 0.1375 0.4845 0.4750
H36? H 0.0040 0.4001 0.4967
H37? H 0.4145 0.2119 0.2536
H38? H 0.1932 0.2590 0.2779
C17? C 0.332(3) 0.3108(9) 0.2123(6)
H39? H 0.4278 0.3635 0.2178
H40? H 0.1671 0.3292 0.2060
C18? C 0.406(6) 0.260(2) 0.1387(12)
H41? H 0.5717 0.2428 0.1468
H42? H 0.3149 0.2062 0.1363
C19? C 0.392(8) 0.288(3) 0.0844(16)
H43? H 0.4460 0.2449 0.0544
H44? H 0.2288 0.3029 0.0719
H45? H 0.4887 0.3399 0.0825
loop_
_geom_bond_atom_site_label_1
_geom_bond_atom_site_label_2
_geom_bond_site_symmetry_1
_geom_bond_site_symmetry_2
O1 C1 1_555 1_555
O2 C1 1_555 1_555
O3 H1 1_555 1_555
O4 C2 1_555 1_555
C1 C2 1_555 1_555
C2 O3 1_555 1_555
N1 H2 1_555 1_555
C3 N1 1_555 1_555
H3 C3 1_555 1_555
H4 C3 1_555 1_555
C4 C3 1_555 1_555
H5 C4 1_555 1_555
H6 C4 1_555 1_555
C5 C4 1_555 1_555
H7 C5 1_555 1_555
H8 C5 1_555 1_555
C6 C5 1_555 1_555
H9 C6 1_555 1_555
H10 C6 1_555 1_555
H11 C6 1_555 1_555
C7 N1 1_555 1_555
H12 C7 1_555 1_555
H13 C7 1_555 1_555
C8 C7 1_555 1_555
H14 C8 1_555 1_555
H15 C8 1_555 1_555
C9 C8 1_555 1_555
H16 C9 1_555 1_555
H17 C9 1_555 1_555
C10 C9 1_555 1_555
H18 C10 1_555 1_555
H19 C10 1_555 1_555
H20 C10 1_555 1_555
C11 N1 1_555 1_555
H21 C11 1_555 1_555
H22 C11 1_555 1_555
C12 C11 1_555 1_555
H23 C12 1_555 1_555
H24 C12 1_555 1_555
C13 C12 1_555 1_555
H25 C13 1_555 1_555
H26 C13 1_555 1_555
C14 C13 1_555 1_555
H27 C14 1_555 1_555
H28 C14 1_555 1_555
H29 C14 1_555 1_555

#END
