
#######################################################################
#
#                 Cambridge Crystallographic Data Centre
#                                CCDC 
#
#######################################################################
#
# If this CIF has been generated from an entry in the Cambridge 
# Structural Database, then it will include bibliographic, chemical, 
# crystal, experimental, refinement or atomic coordinate data resulting 
# from the CCDC's data processing and validation procedures.
#
#######################################################################

data_RIDVEH
_chemical_formula_moiety         'C24 H31 B1 N1 P1'
_chemical_name_systematic        
N-((Borane)(diphenyl)phosphoranyl)-2,6-diisopropylaniline
_symmetry_cell_setting           monoclinic
_symmetry_space_group_name_H-M   'P 21/c'
_symmetry_Int_Tables_number      14
_space_group_name_Hall           '-P 2ybc'
loop_
_symmetry_equiv_pos_site_id
_symmetry_equiv_pos_as_xyz
1 x,y,z
2 -x,1/2+y,1/2-z
3 -x,-y,-z
4 x,1/2-y,1/2+z
_cell_length_a                   10.4117(3)
_cell_length_b                   19.3087(6)
_cell_length_c                   24.6944(8)
_cell_angle_alpha                90
_cell_angle_beta                 108.864(3)
_cell_angle_gamma                90
_cell_volume                     4697.82
_exptl_crystal_colour            colorless
_exptl_crystal_description       block
_cell_formula_units_Z            8
loop_
_atom_site_label
_atom_site_type_symbol
_atom_site_fract_x
_atom_site_fract_y
_atom_site_fract_z
P1 P -0.05375(6) -0.26880(4) -0.40469(2)
N1 N -0.19009(18) -0.26530(11) -0.46241(8)
H1 H -0.1794 -0.2696 -0.4954
B1 B -0.0968(3) -0.2597(2) -0.33558(13)
H2 H -0.1311 -0.2139 -0.3334
H3 H -0.0166 -0.2672 -0.3034
H4 H -0.1645 -0.2932 -0.3351
C1 C -0.3258(2) -0.25549(13) -0.46035(10)
C2 C -0.3999(2) -0.31326(14) -0.45335(11)
C3 C -0.5309(3) -0.30204(17) -0.45179(14)
H5 H -0.5835 -0.3397 -0.4484
C4 C -0.5833(3) -0.23668(18) -0.45523(14)
H6 H -0.6700 -0.2301 -0.4530
C5 C -0.5094(3) -0.18114(16) -0.46184(13)
H7 H -0.5470 -0.1371 -0.4643
C6 C -0.3797(3) -0.18850(14) -0.46503(11)
C7 C -0.3031(3) -0.12607(16) -0.47463(17)
H8 H -0.2116 -0.1418 -0.4716
C8 C -0.2872(8) -0.0708(3) -0.4314(2)
H9 H -0.2070 -0.0444 -0.4282
H10 H -0.2793 -0.0913 -0.3950
H11 H -0.3650 -0.0409 -0.4429
C9 C -0.3645(5) -0.0974(2) -0.53325(18)
H12 H -0.3796 -0.1342 -0.5608
H13 H -0.3042 -0.0638 -0.5406
H14 H -0.4495 -0.0756 -0.5362
C10 C -0.3445(3) -0.38611(15) -0.44781(16)
H15 H -0.2454 -0.3826 -0.4359
C11 C -0.3910(4) -0.42170(17) -0.50616(17)
H16 H -0.4878 -0.4271 -0.5187
H17 H -0.3488 -0.4664 -0.5031
H18 H -0.3654 -0.3940 -0.5333
C12 C -0.3798(4) -0.42984(18) -0.40311(16)
H19 H -0.3560 -0.4050 -0.3676
H20 H -0.3302 -0.4726 -0.3976
H21 H -0.4754 -0.4394 -0.4160
C13 C 0.0613(2) -0.20174(13) -0.41131(10)
C14 C 0.0499(3) -0.16854(16) -0.46234(12)
H22 H -0.0159 -0.1828 -0.4959
C15 C 0.1360(4) -0.11402(18) -0.46386(17)
H23 H 0.1263 -0.0913 -0.4982
C16 C 0.2351(4) -0.09378(17) -0.4148(2)
H24 H 0.2924 -0.0572 -0.4158
C17 C 0.2496(4) -0.12698(19) -0.36490(17)
H25 H 0.3181 -0.1136 -0.3319
C18 C 0.1633(3) -0.18062(15) -0.36259(13)
H26 H 0.1739 -0.2027 -0.3279
C19 C 0.0306(2) -0.34928(13) -0.40895(10)
C20 C 0.0893(3) -0.36165(16) -0.45056(13)
H27 H 0.0910 -0.3266 -0.4762
C21 C 0.1462(4) -0.42562(19) -0.45484(16)
H28 H 0.1850 -0.4333 -0.4834
C22 C 0.1452(4) -0.47751(18) -0.41717(16)
H29 H 0.1831 -0.5204 -0.4201
C23 C 0.0891(4) -0.46610(18) -0.37579(16)
H30 H 0.0889 -0.5012 -0.3501
C24 C 0.0317(3) -0.40251(17) -0.37124(13)
H31 H -0.0066 -0.3955 -0.3425
P2 P -0.25253(7) -0.21089(4) -0.18402(3)
N2 N -0.1297(2) -0.24067(10) -0.20630(8)
H32 H -0.1370 -0.2342 -0.2416
B2 B -0.2032(4) -0.2079(2) -0.10227(13)
H33 H -0.1818 -0.2538 -0.0871
H34 H -0.2776 -0.1899 -0.0917
H35 H -0.1254 -0.1785 -0.0871
C25 C -0.0110(3) -0.27669(13) -0.17080(10)
C26 C -0.0137(3) -0.34854(14) -0.16566(11)
C27 C 0.1020(3) -0.38131(18) -0.13124(13)
H36 H 0.1023 -0.4293 -0.1276
C28 C 0.2153(3) -0.3449(2) -0.10261(14)
H37 H 0.2915 -0.3679 -0.0791
C29 C 0.2177(3) -0.2743(2) -0.10824(14)
H38 H 0.2960 -0.2501 -0.0884
C30 C 0.1063(3) -0.23826(15) -0.14282(11)
C31 C 0.1125(3) -0.16122(17) -0.15063(14)
H39 H 0.0190 -0.1439 -0.1643
C32 C 0.1771(6) -0.1447(2) -0.19603(18)
H40 H 0.2690 -0.1613 -0.1838
H41 H 0.1765 -0.0956 -0.2018
H42 H 0.1267 -0.1670 -0.2313
C33 C 0.1864(5) -0.1229(2) -0.09563(18)
H43 H 0.1514 -0.1374 -0.0659
H44 H 0.1729 -0.0740 -0.1017
H45 H 0.2816 -0.1332 -0.0845
C34 C -0.1379(3) -0.39169(15) -0.19543(14)
H46 H -0.2054 -0.3602 -0.2203
C35 C -0.1104(5) -0.4473(2) -0.23374(18)
H47 H -0.0560 -0.4833 -0.2105
H48 H -0.0630 -0.4274 -0.2574
H49 H -0.1950 -0.4665 -0.2575
C36 C -0.1997(5) -0.4217(2) -0.15357(19)
H50 H -0.1387 -0.4550 -0.1298
H51 H -0.2840 -0.4439 -0.1740
H52 H -0.2161 -0.3853 -0.1301
C37 C -0.4065(3) -0.25922(13) -0.21887(11)
C38 C -0.4935(4) -0.27818(16) -0.18940(15)
H53 H -0.4708 -0.2681 -0.1506
C39 C -0.6142(4) -0.3120(2) -0.2171(2)
H54 H -0.6727 -0.3239 -0.1970
C40 C -0.6470(4) -0.32777(19) -0.2733(2)
H55 H -0.7275 -0.3510 -0.2917
C41 C -0.5633(4) -0.3099(2) -0.30265(16)
H56 H -0.5869 -0.3208 -0.3413
C42 C -0.4432(3) -0.27550(17) -0.27627(13)
H57 H -0.3867 -0.2633 -0.2972
C43 C -0.3001(3) -0.12685(14) -0.21685(12)
C44 C -0.2446(5) -0.09880(17) -0.25520(14)
H58 H -0.1750 -0.1221 -0.2635
C45 C -0.3929(7) -0.0012(3) -0.2696(3)
H59 H -0.4259 0.0402 -0.2881
C46 C -0.4463(5) -0.0273(2) -0.2303(3)
H60 H -0.5133 -0.0027 -0.2211
C47 C -0.4011(4) -0.09052(19) -0.20374(18)
H61 H -0.4387 -0.1083 -0.1772
C48 C -0.2910(7) -0.0356(2) -0.28211(18)
H62 H -0.2530 -0.0171 -0.3082
loop_
_geom_bond_atom_site_label_1
_geom_bond_atom_site_label_2
_geom_bond_site_symmetry_1
_geom_bond_site_symmetry_2
P1 N1 1_555 1_555
N1 H1 1_555 1_555
B1 P1 1_555 1_555
H2 B1 1_555 1_555
H3 B1 1_555 1_555
H4 B1 1_555 1_555
C1 N1 1_555 1_555
C2 C1 1_555 1_555
C3 C2 1_555 1_555
H5 C3 1_555 1_555
C4 C3 1_555 1_555
H6 C4 1_555 1_555
C5 C4 1_555 1_555
H7 C5 1_555 1_555
C6 C1 1_555 1_555
C7 C6 1_555 1_555
H8 C7 1_555 1_555
C8 C7 1_555 1_555
H9 C8 1_555 1_555
H10 C8 1_555 1_555
H11 C8 1_555 1_555
C9 C7 1_555 1_555
H12 C9 1_555 1_555
H13 C9 1_555 1_555
H14 C9 1_555 1_555
C10 C2 1_555 1_555
H15 C10 1_555 1_555
C11 C10 1_555 1_555
H16 C11 1_555 1_555
H17 C11 1_555 1_555
H18 C11 1_555 1_555
C12 C10 1_555 1_555
H19 C12 1_555 1_555
H20 C12 1_555 1_555
H21 C12 1_555 1_555
C13 P1 1_555 1_555
C14 C13 1_555 1_555
H22 C14 1_555 1_555
C15 C14 1_555 1_555
H23 C15 1_555 1_555
C16 C15 1_555 1_555
H24 C16 1_555 1_555
C17 C16 1_555 1_555
H25 C17 1_555 1_555
C18 C13 1_555 1_555
H26 C18 1_555 1_555
C19 P1 1_555 1_555
C20 C19 1_555 1_555
H27 C20 1_555 1_555
C21 C20 1_555 1_555
H28 C21 1_555 1_555
C22 C21 1_555 1_555
H29 C22 1_555 1_555
C23 C22 1_555 1_555
H30 C23 1_555 1_555
C24 C19 1_555 1_555
H31 C24 1_555 1_555
P2 N2 1_555 1_555
N2 H32 1_555 1_555
B2 P2 1_555 1_555
H33 B2 1_555 1_555
H34 B2 1_555 1_555
H35 B2 1_555 1_555
C25 N2 1_555 1_555
C26 C25 1_555 1_555
C27 C26 1_555 1_555
H36 C27 1_555 1_555
C28 C27 1_555 1_555
H37 C28 1_555 1_555
C29 C28 1_555 1_555
H38 C29 1_555 1_555
C30 C25 1_555 1_555
C31 C30 1_555 1_555
H39 C31 1_555 1_555
C32 C31 1_555 1_555
H40 C32 1_555 1_555
H41 C32 1_555 1_555
H42 C32 1_555 1_555
C33 C31 1_555 1_555
H43 C33 1_555 1_555
H44 C33 1_555 1_555
H45 C33 1_555 1_555
C34 C26 1_555 1_555
H46 C34 1_555 1_555
C35 C34 1_555 1_555
H47 C35 1_555 1_555
H48 C35 1_555 1_555
H49 C35 1_555 1_555
C36 C34 1_555 1_555
H50 C36 1_555 1_555
H51 C36 1_555 1_555
H52 C36 1_555 1_555
C37 P2 1_555 1_555
C38 C37 1_555 1_555
H53 C38 1_555 1_555
C39 C38 1_555 1_555
H54 C39 1_555 1_555
C40 C39 1_555 1_555
H55 C40 1_555 1_555
C41 C40 1_555 1_555
H56 C41 1_555 1_555
C42 C37 1_555 1_555
H57 C42 1_555 1_555
C43 P2 1_555 1_555
C44 C43 1_555 1_555
H58 C44 1_555 1_555
C45 H59 1_555 1_555
C46 C45 1_555 1_555
H60 C46 1_555 1_555
C47 C43 1_555 1_555
H61 C47 1_555 1_555
C48 C44 1_555 1_555
H62 C48 1_555 1_555
C5 C6 1_555 1_555
C17 C18 1_555 1_555
C23 C24 1_555 1_555
C29 C30 1_555 1_555
C41 C42 1_555 1_555
C45 C48 1_555 1_555
C46 C47 1_555 1_555

#END
