
#######################################################################
#
#                 Cambridge Crystallographic Data Centre
#                                CCDC 
#
#######################################################################
#
# If this CIF has been generated from an entry in the Cambridge 
# Structural Database, then it will include bibliographic, chemical, 
# crystal, experimental, refinement or atomic coordinate data resulting 
# from the CCDC's data processing and validation procedures.
#
#######################################################################

data_RIDVUX
_chemical_formula_moiety         'C31 H29 B1 N1 P1'
_chemical_name_systematic        
N-((Borane)(diphenyl)phosphoranyl)-1,1,1-triphenylmethanamine
_symmetry_cell_setting           monoclinic
_symmetry_space_group_name_H-M   'P 21/c'
_symmetry_Int_Tables_number      14
_space_group_name_Hall           '-P 2ybc'
loop_
_symmetry_equiv_pos_site_id
_symmetry_equiv_pos_as_xyz
1 x,y,z
2 -x,1/2+y,1/2-z
3 -x,-y,-z
4 x,1/2-y,1/2+z
_cell_length_a                   14.0654(9)
_cell_length_b                   14.3444(7)
_cell_length_c                   13.8285(8)
_cell_angle_alpha                90
_cell_angle_beta                 114.495(7)
_cell_angle_gamma                90
_cell_volume                     2538.92
_exptl_crystal_colour            colorless
_exptl_crystal_description       needle
_cell_formula_units_Z            4
loop_
_atom_site_label
_atom_site_type_symbol
_atom_site_fract_x
_atom_site_fract_y
_atom_site_fract_z
P1 P 0.66675(19) 0.24075(16) 0.49958(19)
N1 N 0.6754(4) 0.1538(4) 0.5850(5)
H1 H 0.6252 0.1492 0.6049
B1 B 0.6812(12) 0.2118(10) 0.3684(10)
C1 C 0.7620(6) 0.0835(6) 0.6297(6)
C2 C 0.7606(6) 0.0176(5) 0.5402(6)
C3 C 0.8522(7) -0.0269(6) 0.5467(7)
H2 H 0.9154 -0.0131 0.6032
C4 C 0.8504(8) -0.0900(6) 0.4718(8)
H3 H 0.9121 -0.1181 0.4775
C5 C 0.7569(9) -0.1120(7) 0.3874(8)
H4 H 0.7555 -0.1535 0.3352
C6 C 0.6653(8) -0.0713(7) 0.3819(7)
H5 H 0.6016 -0.0874 0.3273
C7 C 0.6688(7) -0.0071(5) 0.4569(7)
H6 H 0.6069 0.0206 0.4510
C8 C 0.7346(6) 0.0175(5) 0.7042(6)
C9 C 0.6348(7) 0.0116(6) 0.7001(7)
H7 H 0.5827 0.0506 0.6545
C10 C 0.6115(8) -0.0511(7) 0.7625(8)
H8 H 0.5443 -0.0532 0.7597
C11 C 0.6860(9) -0.1098(7) 0.8281(8)
H9 H 0.6695 -0.1530 0.8689
C12 C 0.7843(8) -0.1054(6) 0.8339(7)
H10 H 0.8357 -0.1446 0.8801
C13 C 0.8091(7) -0.0421(6) 0.7707(7)
H11 H 0.8765 -0.0404 0.7740
C14 C 0.8651(6) 0.1343(6) 0.6869(6)
C15 C 0.9001(7) 0.1562(6) 0.7968(8)
H12 H 0.8639 0.1328 0.8345
C16 C 0.9860(8) 0.2110(7) 0.8479(9)
H13 H 1.0082 0.2249 0.9196
C17 C 1.0400(9) 0.2459(6) 0.7900(13)
H14 H 1.0990 0.2825 0.8247
C18 C 1.0100(7) 0.2285(7) 0.6897(10)
H15 H 1.0468 0.2530 0.6530
C19 C 0.9204(7) 0.1716(6) 0.6358(8)
H16 H 0.8992 0.1597 0.5638
C20 C 0.7466(7) 0.3416(6) 0.5668(7)
C21 C 0.7997(9) 0.3949(8) 0.5267(9)
H17 H 0.7923 0.3842 0.4576
C22 C 0.8632(9) 0.4629(8) 0.5837(11)
H18 H 0.9004 0.4966 0.5533
C23 C 0.8753(8) 0.4841(7) 0.6789(12)
H19 H 0.9184 0.5333 0.7150
C24 C 0.8241(9) 0.4333(8) 0.7259(8)
H20 H 0.8333 0.4466 0.7950
C25 C 0.7564(9) 0.3595(7) 0.6681(9)
C26 C 0.5331(8) 0.2791(7) 0.4678(8)
C27 C 0.4544(7) 0.2168(7) 0.4626(8)
H21 H 0.4723 0.1549 0.4817
C28 C 0.3557(8) 0.2422(8) 0.4317(10)
H22 H 0.3059 0.1987 0.4300
C29 C 0.3264(8) 0.3344(8) 0.4017(8)
H23 H 0.2566 0.3524 0.3739
C30 C 0.4025(9) 0.3963(8) 0.4144(9)
H24 H 0.3854 0.4593 0.4042
C31 C 0.5030(8) 0.3709(7) 0.4414(10)
H25 H 0.5518 0.4150 0.4422
H26 H 0.642(15) 0.136(13) 0.342(15)
H27 H 0.725(6) 0.334(5) 0.692(6)
H28 H 0.748(9) 0.189(8) 0.370(8)
H29 H 0.676(6) 0.287(6) 0.335(6)
loop_
_geom_bond_atom_site_label_1
_geom_bond_atom_site_label_2
_geom_bond_site_symmetry_1
_geom_bond_site_symmetry_2
P1 N1 1_555 1_555
N1 H1 1_555 1_555
B1 P1 1_555 1_555
C1 N1 1_555 1_555
C2 C1 1_555 1_555
C3 C2 1_555 1_555
H2 C3 1_555 1_555
C4 C3 1_555 1_555
H3 C4 1_555 1_555
C5 C4 1_555 1_555
H4 C5 1_555 1_555
C6 C5 1_555 1_555
H5 C6 1_555 1_555
C7 C2 1_555 1_555
H6 C7 1_555 1_555
C8 C1 1_555 1_555
C9 C8 1_555 1_555
H7 C9 1_555 1_555
C10 C9 1_555 1_555
H8 C10 1_555 1_555
C11 C10 1_555 1_555
H9 C11 1_555 1_555
C12 C11 1_555 1_555
H10 C12 1_555 1_555
C13 C8 1_555 1_555
H11 C13 1_555 1_555
C14 C1 1_555 1_555
C15 C14 1_555 1_555
H12 C15 1_555 1_555
C16 C15 1_555 1_555
H13 C16 1_555 1_555
C17 C16 1_555 1_555
H14 C17 1_555 1_555
C18 C17 1_555 1_555
H15 C18 1_555 1_555
C19 C14 1_555 1_555
H16 C19 1_555 1_555
C20 P1 1_555 1_555
C21 C20 1_555 1_555
H17 C21 1_555 1_555
C22 C21 1_555 1_555
H18 C22 1_555 1_555
C23 C22 1_555 1_555
H19 C23 1_555 1_555
C24 C23 1_555 1_555
H20 C24 1_555 1_555
C25 C20 1_555 1_555
C26 P1 1_555 1_555
C27 C26 1_555 1_555
H21 C27 1_555 1_555
C28 C27 1_555 1_555
H22 C28 1_555 1_555
C29 C28 1_555 1_555
H23 C29 1_555 1_555
C30 C29 1_555 1_555
H24 C30 1_555 1_555
C31 C26 1_555 1_555
H25 C31 1_555 1_555
H26 B1 1_555 1_555
H27 C25 1_555 1_555
H28 B1 1_555 1_555
H29 B1 1_555 1_555
C6 C7 1_555 1_555
C12 C13 1_555 1_555
C18 C19 1_555 1_555
C24 C25 1_555 1_555
C30 C31 1_555 1_555

#END
