
#######################################################################
#
#                 Cambridge Crystallographic Data Centre
#                                CCDC 
#
#######################################################################
#
# If this CIF has been generated from an entry in the Cambridge 
# Structural Database, then it will include bibliographic, chemical, 
# crystal, experimental, refinement or atomic coordinate data resulting 
# from the CCDC's data processing and validation procedures.
#
#######################################################################

data_RIDWOS
_chemical_formula_moiety         'C29 H25 N1'
_chemical_name_systematic        
5-Benzyl-11-phenyl-7,8,9,10-tetrahydro-5H-benzo[b]carbazole
_symmetry_cell_setting           monoclinic
_symmetry_space_group_name_H-M   'P 21/c'
_symmetry_Int_Tables_number      14
_space_group_name_Hall           '-P 2ybc'
loop_
_symmetry_equiv_pos_site_id
_symmetry_equiv_pos_as_xyz
1 x,y,z
2 -x,1/2+y,1/2-z
3 -x,-y,-z
4 x,1/2-y,1/2+z
_cell_length_a                   11.0967(10)
_cell_length_b                   14.3156(14)
_cell_length_c                   13.7237(12)
_cell_angle_alpha                90
_cell_angle_beta                 104.172(2)
_cell_angle_gamma                90
_cell_volume                     2113.74
_exptl_crystal_colour            colorless
_exptl_crystal_description       prismatic
_cell_formula_units_Z            4
loop_
_atom_site_label
_atom_site_type_symbol
_atom_site_fract_x
_atom_site_fract_y
_atom_site_fract_z
N1 N 0.47417(17) 0.01189(14) 0.86639(14)
C1 C 0.5593(2) -0.03585(15) 0.82592(16)
C2 C 0.5460(3) -0.12106(18) 0.77629(19)
H1 H 0.4721 -0.1546 0.7653
C3 C 0.6447(3) -0.15384(19) 0.7442(2)
H2 H 0.6379 -0.2110 0.7112
C4 C 0.7559(3) -0.10409(19) 0.7595(2)
H3 H 0.8217 -0.1286 0.7368
C5 C 0.7691(2) -0.01954(16) 0.80764(17)
H4 H 0.8432 0.0136 0.8175
C6 C 0.6701(2) 0.01612(14) 0.84149(14)
C7 C 0.64825(19) 0.10126(14) 0.89238(14)
C8 C 0.5266(2) 0.09490(16) 0.90558(15)
C9 C 0.4772(2) 0.16530(17) 0.95345(16)
H5 H 0.3972 0.1600 0.9627
C10 C 0.5476(2) 0.24249(17) 0.98672(16)
C11 C 0.6684(2) 0.25207(15) 0.97345(16)
C12 C 0.7195(2) 0.17984(15) 0.92613(15)
C13 C 0.7453(3) 0.33790(18) 1.0082(2)
H6 H 0.7843 0.3577 0.9557
H7 H 0.8107 0.3222 1.0669
C14 C 0.6700(3) 0.4183(2) 1.0342(3)
H8 H 0.7260 0.4647 1.0723
H9 H 0.6236 0.4476 0.9727
C15 C 0.5829(3) 0.3875(2) 1.0933(3)
H10 H 0.5402 0.4415 1.1113
H11 H 0.6294 0.3584 1.1549
C16 C 0.4901(3) 0.32034(19) 1.0372(2)
H12 H 0.4297 0.3539 0.9861
H13 H 0.4464 0.2925 1.0830
C17 C 0.8479(2) 0.18732(15) 0.91021(17)
C18 C 0.9508(2) 0.1564(2) 0.9804(2)
H14 H 0.9411 0.1314 1.0406
C19 C 1.0677(3) 0.1616(2) 0.9635(2)
H15 H 1.1360 0.1407 1.0124
C20 C 1.0842(3) 0.1974(2) 0.8748(3)
H16 H 1.1634 0.2012 0.8634
C21 C 0.9835(3) 0.2273(2) 0.8039(2)
H17 H 0.9936 0.2504 0.7430
C22 C 0.8665(2) 0.22345(19) 0.8215(2)
H18 H 0.7988 0.2456 0.7728
C23 C 0.3471(2) -0.01672(19) 0.85995(19)
H19 H 0.3220 0.0076 0.9179
H20 H 0.3444 -0.0844 0.8631
C24 C 0.2551(2) 0.01524(16) 0.76632(16)
C25 C 0.2839(2) 0.0813(2) 0.70274(19)
H21 H 0.3641 0.1054 0.7157
C26 C 0.1955(3) 0.1121(2) 0.6203(2)
H22 H 0.2162 0.1570 0.5781
C27 C 0.0792(3) 0.0775(3) 0.6004(2)
H23 H 0.0198 0.0984 0.5446
C28 C 0.0484(3) 0.0122(3) 0.6615(3)
H24 H -0.0321 -0.0114 0.6476
C29 C 0.1369(2) -0.0195(2) 0.7450(2)
H25 H 0.1155 -0.0646 0.7866
loop_
_geom_bond_atom_site_label_1
_geom_bond_atom_site_label_2
_geom_bond_site_symmetry_1
_geom_bond_site_symmetry_2
N1 C1 1_555 1_555
C1 C2 1_555 1_555
C2 H1 1_555 1_555
C3 C2 1_555 1_555
H2 C3 1_555 1_555
C4 C3 1_555 1_555
H3 C4 1_555 1_555
C5 C4 1_555 1_555
H4 C5 1_555 1_555
C6 C1 1_555 1_555
C7 C6 1_555 1_555
C8 N1 1_555 1_555
C9 C8 1_555 1_555
H5 C9 1_555 1_555
C10 C9 1_555 1_555
C11 C10 1_555 1_555
C12 C7 1_555 1_555
C13 C11 1_555 1_555
H6 C13 1_555 1_555
H7 C13 1_555 1_555
C14 C13 1_555 1_555
H8 C14 1_555 1_555
H9 C14 1_555 1_555
C15 C14 1_555 1_555
H10 C15 1_555 1_555
H11 C15 1_555 1_555
C16 C10 1_555 1_555
H12 C16 1_555 1_555
H13 C16 1_555 1_555
C17 C12 1_555 1_555
C18 C17 1_555 1_555
H14 C18 1_555 1_555
C19 C18 1_555 1_555
H15 C19 1_555 1_555
C20 C19 1_555 1_555
H16 C20 1_555 1_555
C21 C20 1_555 1_555
H17 C21 1_555 1_555
C22 C17 1_555 1_555
H18 C22 1_555 1_555
C23 N1 1_555 1_555
H19 C23 1_555 1_555
H20 C23 1_555 1_555
C24 C23 1_555 1_555
C25 C24 1_555 1_555
H21 C25 1_555 1_555
C26 C25 1_555 1_555
H22 C26 1_555 1_555
C27 C26 1_555 1_555
H23 C27 1_555 1_555
C28 C27 1_555 1_555
H24 C28 1_555 1_555
C29 C24 1_555 1_555
H25 C29 1_555 1_555
C5 C6 1_555 1_555
C7 C8 1_555 1_555
C11 C12 1_555 1_555
C15 C16 1_555 1_555
C21 C22 1_555 1_555
C28 C29 1_555 1_555

#END
