
#######################################################################
#
#                 Cambridge Crystallographic Data Centre
#                                CCDC 
#
#######################################################################
#
# If this CIF has been generated from an entry in the Cambridge 
# Structural Database, then it will include bibliographic, chemical, 
# crystal, experimental, refinement or atomic coordinate data resulting 
# from the CCDC's data processing and validation procedures.
#
#######################################################################

data_RIDWOT
_chemical_formula_moiety         'C22 H16 O4'
_chemical_name_systematic        
6-(1-(2-hydroxyphenyl)-3-phenylprop-2-yn-1-yl)-2H-1,3-benzodioxol-5-ol
_symmetry_cell_setting           monoclinic
_symmetry_space_group_name_H-M   'P 21/n'
_symmetry_Int_Tables_number      14
_space_group_name_Hall           '-P 2yn'
loop_
_symmetry_equiv_pos_site_id
_symmetry_equiv_pos_as_xyz
1 x,y,z
2 1/2-x,1/2+y,1/2-z
3 -x,-y,-z
4 1/2+x,1/2-y,1/2+z
_cell_length_a                   9.3517(7)
_cell_length_b                   11.7452(9)
_cell_length_c                   14.7698(11)
_cell_angle_alpha                90
_cell_angle_beta                 102.157(3)
_cell_angle_gamma                90
_cell_volume                     1585.9
_exptl_crystal_colour            pink
_exptl_crystal_description       block
_chemical_melting_point          '175.2 deg.C'
_cell_formula_units_Z            4
_exptl_crystal_recrystallization_method 'ethyl acetate/petroleum ether'
loop_
_atom_site_label
_atom_site_type_symbol
_atom_site_fract_x
_atom_site_fract_y
_atom_site_fract_z
O1 O 0.5367(4) -0.0001(2) 0.1719(2)
H1 H 0.5038 0.0206 0.2164
O2 O 0.8342(4) 0.1335(3) -0.0234(2)
O3 O 0.8803(4) 0.3016(2) 0.05103(19)
O4 O 0.5545(4) 0.0101(2) 0.36245(19)
H2 H 0.5561 -0.0482 0.3932
C1 C 0.7292(5) 0.2643(3) 0.1616(3)
H3 H 0.7455 0.3350 0.1904
C2 C 0.6411(5) 0.1847(3) 0.1914(3)
C3 C 0.6185(5) 0.0836(3) 0.1472(3)
C4 C 0.6781(6) 0.0586(3) 0.0725(3)
H4 H 0.6601 -0.0103 0.0413
C5 C 0.7639(5) 0.1386(3) 0.0466(3)
C6 C 0.7902(5) 0.2380(3) 0.0910(3)
C7 C 0.9122(6) 0.2344(4) -0.0203(3)
H5 H 0.8846 0.2741 -0.0790
H6 H 1.0162 0.2185 -0.0089
C8 C 0.5736(5) 0.2121(3) 0.2719(2)
H7 H 0.4856 0.1651 0.2663
C9 C 0.5291(5) 0.3293(4) 0.2721(3)
C10 C 0.4911(5) 0.4246(3) 0.2710(3)
C11 C 0.4391(4) 0.5358(3) 0.2673(3)
C12 C 0.4722(5) 0.6112(3) 0.2041(3)
H8 H 0.5303 0.5884 0.1635
C13 C 0.4206(6) 0.7183(4) 0.2010(3)
H9 H 0.4423 0.7685 0.1572
C14 C 0.3379(6) 0.7544(3) 0.2599(3)
H10 H 0.3044 0.8291 0.2576
C15 C 0.3044(6) 0.6802(4) 0.3225(3)
H11 H 0.2463 0.7037 0.3630
C16 C 0.3553(6) 0.5721(3) 0.3264(3)
H12 H 0.3326 0.5220 0.3701
C17 C 0.6747(5) 0.1811(3) 0.3615(2)
C18 C 0.6636(6) 0.0800(3) 0.4038(3)
C19 C 0.7569(7) 0.0526(4) 0.4836(3)
H13 H 0.7472 -0.0167 0.5122
C20 C 0.8641(7) 0.1252(4) 0.5220(3)
H14 H 0.9286 0.1056 0.5767
C21 C 0.8783(6) 0.2251(4) 0.4817(3)
H15 H 0.9523 0.2754 0.5077
C22 C 0.7825(5) 0.2518(4) 0.4020(3)
H16 H 0.7917 0.3218 0.3742
loop_
_geom_bond_atom_site_label_1
_geom_bond_atom_site_label_2
_geom_bond_site_symmetry_1
_geom_bond_site_symmetry_2
O1 H1 1_555 1_555
O2 C5 1_555 1_555
O3 C6 1_555 1_555
O4 H2 1_555 1_555
C1 H3 1_555 1_555
C2 C1 1_555 1_555
C3 O1 1_555 1_555
C4 C3 1_555 1_555
H4 C4 1_555 1_555
C5 C4 1_555 1_555
C6 C1 1_555 1_555
C7 O2 1_555 1_555
H5 C7 1_555 1_555
H6 C7 1_555 1_555
C8 C2 1_555 1_555
H7 C8 1_555 1_555
C9 C8 1_555 1_555
C10 C9 1_555 1_555
C11 C10 1_555 1_555
C12 C11 1_555 1_555
H8 C12 1_555 1_555
C13 C12 1_555 1_555
H9 C13 1_555 1_555
C14 C13 1_555 1_555
H10 C14 1_555 1_555
C15 C14 1_555 1_555
H11 C15 1_555 1_555
C16 C11 1_555 1_555
H12 C16 1_555 1_555
C17 C8 1_555 1_555
C18 O4 1_555 1_555
C19 C18 1_555 1_555
H13 C19 1_555 1_555
C20 C19 1_555 1_555
H14 C20 1_555 1_555
C21 C20 1_555 1_555
H15 C21 1_555 1_555
C22 C17 1_555 1_555
H16 C22 1_555 1_555
O3 C7 1_555 1_555
C2 C3 1_555 1_555
C5 C6 1_555 1_555
C15 C16 1_555 1_555
C17 C18 1_555 1_555
C21 C22 1_555 1_555

#END
