
#######################################################################
#
#                 Cambridge Crystallographic Data Centre
#                                CCDC 
#
#######################################################################
#
# If this CIF has been generated from an entry in the Cambridge 
# Structural Database, then it will include bibliographic, chemical, 
# crystal, experimental, refinement or atomic coordinate data resulting 
# from the CCDC's data processing and validation procedures.
#
#######################################################################

data_RIDWIN
_chemical_formula_moiety         'C22 H15 Cl1 O4'
_chemical_name_systematic        
2-chloro-6-phenyl-6H,10H,13H-6,13-methano-5,7,9,11-tetraoxabenzo[4,5]cycloocta[1,2-f]indene
_symmetry_cell_setting           orthorhombic
_symmetry_space_group_name_H-M   'P b c a'
_symmetry_Int_Tables_number      61
_space_group_name_Hall           '-P 2ac 2ab'
loop_
_symmetry_equiv_pos_site_id
_symmetry_equiv_pos_as_xyz
1 x,y,z
2 1/2-x,-y,1/2+z
3 -x,1/2+y,1/2-z
4 1/2+x,1/2-y,-z
5 -x,-y,-z
6 1/2+x,y,1/2-z
7 x,1/2-y,1/2+z
8 1/2-x,1/2+y,z
_cell_length_a                   17.7130(15)
_cell_length_b                   10.1572(9)
_cell_length_c                   19.1408(18)
_cell_angle_alpha                90
_cell_angle_beta                 90
_cell_angle_gamma                90
_cell_volume                     3443.71
_exptl_crystal_colour            colorless
_exptl_crystal_description       block
_cell_formula_units_Z            8
_exptl_crystal_recrystallization_method 'ethyl acetate/petroleum ether'
loop_
_atom_site_label
_atom_site_type_symbol
_atom_site_fract_x
_atom_site_fract_y
_atom_site_fract_z
Cl1 Cl 1.10076(6) 0.67286(12) 0.00315(5)
O1 O 0.89399(12) 0.7088(2) 0.23959(12)
O2 O 0.93874(12) 0.6607(2) 0.34949(12)
O3 O 1.13974(16) 0.4145(3) 0.45268(13)
O4 O 1.23296(15) 0.5116(4) 0.38754(14)
C1 C 0.91488(18) 0.7657(4) 0.30513(18)
C2 C 0.97599(19) 0.8668(3) 0.29568(17)
H1 H 0.9892 0.9053 0.3404
H2 H 0.9586 0.9366 0.2651
C3 C 1.04417(19) 0.7994(4) 0.26407(17)
H3 H 1.0850 0.8631 0.2566
C4 C 1.0196(2) 0.7400(3) 0.19498(17)
C5 C 0.9466(2) 0.6988(3) 0.18738(18)
C6 C 0.9212(2) 0.6461(4) 0.12494(19)
H4 H 0.8716 0.6169 0.1210
C7 C 0.9694(2) 0.6371(4) 0.0687(2)
H5 H 0.9526 0.6028 0.0264
C8 C 1.0406(2) 0.6782(4) 0.07551(18)
C9 C 1.0689(2) 0.7273(4) 0.1376(2)
H6 H 1.1193 0.7514 0.1414
C10 C 1.0319(2) 0.5332(4) 0.40285(17)
H7 H 0.9949 0.4919 0.4295
C11 C 1.01444(19) 0.6304(3) 0.35522(17)
C12 C 1.06882(18) 0.6940(4) 0.31522(17)
C13 C 1.1442(2) 0.6599(4) 0.32234(18)
H8 H 1.1815 0.7013 0.2962
C14 C 1.1614(2) 0.5639(4) 0.3690(2)
C15 C 1.1062(2) 0.5012(4) 0.40877(18)
C16 C 1.2183(2) 0.4027(5) 0.4242(2)
H9 H 1.2542 0.3936 0.4621
H10 H 1.2222 0.3258 0.3944
C17 C 0.84476(18) 0.8243(3) 0.33667(17)
C18 C 0.7966(2) 0.8984(4) 0.29592(19)
H11 H 0.8047 0.9035 0.2480
C19 C 0.7367(2) 0.9648(4) 0.3250(2)
H12 H 0.7057 1.0163 0.2969
C20 C 0.7225(2) 0.9560(4) 0.3944(2)
H13 H 0.6821 1.0014 0.4140
C21 C 0.7682(2) 0.8792(4) 0.4356(2)
H14 H 0.7577 0.8705 0.4829
C22 C 0.8299(2) 0.8147(3) 0.40725(18)
H15 H 0.8614 0.7650 0.4358
loop_
_geom_bond_atom_site_label_1
_geom_bond_atom_site_label_2
_geom_bond_site_symmetry_1
_geom_bond_site_symmetry_2
Cl1 C8 1_555 1_555
O1 C1 1_555 1_555
O2 C1 1_555 1_555
O3 C15 1_555 1_555
O4 C14 1_555 1_555
C1 C2 1_555 1_555
C2 H1 1_555 1_555
H2 C2 1_555 1_555
C3 C2 1_555 1_555
H3 C3 1_555 1_555
C4 C3 1_555 1_555
C5 O1 1_555 1_555
C6 C5 1_555 1_555
H4 C6 1_555 1_555
C7 C6 1_555 1_555
H5 C7 1_555 1_555
C8 C7 1_555 1_555
C9 C4 1_555 1_555
H6 C9 1_555 1_555
C10 H7 1_555 1_555
C11 O2 1_555 1_555
C12 C3 1_555 1_555
C13 C12 1_555 1_555
H8 C13 1_555 1_555
C14 C13 1_555 1_555
C15 C10 1_555 1_555
C16 O3 1_555 1_555
H9 C16 1_555 1_555
H10 C16 1_555 1_555
C17 C1 1_555 1_555
C18 C17 1_555 1_555
H11 C18 1_555 1_555
C19 C18 1_555 1_555
H12 C19 1_555 1_555
C20 C19 1_555 1_555
H13 C20 1_555 1_555
C21 C20 1_555 1_555
H14 C21 1_555 1_555
C22 C17 1_555 1_555
H15 C22 1_555 1_555
O4 C16 1_555 1_555
C4 C5 1_555 1_555
C8 C9 1_555 1_555
C10 C11 1_555 1_555
C11 C12 1_555 1_555
C14 C15 1_555 1_555
C21 C22 1_555 1_555

#END
