
#######################################################################
#
#                 Cambridge Crystallographic Data Centre
#                                CCDC 
#
#######################################################################
#
# If this CIF has been generated from an entry in the Cambridge 
# Structural Database, then it will include bibliographic, chemical, 
# crystal, experimental, refinement or atomic coordinate data resulting 
# from the CCDC's data processing and validation procedures.
#
#######################################################################

data_RIDWUZ
_chemical_formula_moiety         'C22 H16 O4'
_chemical_name_systematic        
12-phenyl-2H,6H,12H-6,12-methano-1,3,5,11-tetraoxabenzo[5,6]cycloocta[1,2-f]indene
_symmetry_cell_setting           monoclinic
_symmetry_space_group_name_H-M   'P 21/n'
_symmetry_Int_Tables_number      14
_space_group_name_Hall           '-P 2yn'
loop_
_symmetry_equiv_pos_site_id
_symmetry_equiv_pos_as_xyz
1 x,y,z
2 1/2-x,1/2+y,1/2-z
3 -x,-y,-z
4 1/2+x,1/2-y,1/2+z
_cell_length_a                   10.7855(18)
_cell_length_b                   18.5508(16)
_cell_length_c                   24.959(2)
_cell_angle_alpha                90
_cell_angle_beta                 92.3510(10)
_cell_angle_gamma                90
_cell_volume                     4989.58
_exptl_crystal_colour            colorless
_exptl_crystal_description       block
_chemical_melting_point          '142.5 deg.C'
_cell_formula_units_Z            12
_exptl_crystal_recrystallization_method 'ethyl acetate/petroleum ether'
loop_
_atom_site_label
_atom_site_type_symbol
_atom_site_fract_x
_atom_site_fract_y
_atom_site_fract_z
O1 O 0.54069(17) 0.53365(10) 0.40626(7)
O2 O 0.63949(18) 0.39859(10) 0.30943(8)
O3 O 0.23314(18) 0.30196(11) 0.41642(8)
O4 O 0.24066(18) 0.38354(13) 0.48637(8)
C1 C 0.4636(2) 0.47454(16) 0.40309(12)
C2 C 0.4566(2) 0.42891(16) 0.35926(11)
C3 C 0.5306(3) 0.44443(16) 0.30944(12)
C4 C 0.5739(2) 0.52241(16) 0.31175(11)
H1 H 0.6323 0.5316 0.2840
H2 H 0.5038 0.5548 0.3064
C5 C 0.6351(3) 0.53370(16) 0.36636(12)
H3 H 0.6756 0.5810 0.3669
C6 C 0.7323(3) 0.47698(18) 0.37753(13)
C7 C 0.7306(3) 0.41412(19) 0.34738(13)
C8 C 0.8245(3) 0.36467(17) 0.35357(12)
H4 H 0.8239 0.3233 0.3325
C9 C 0.9202(3) 0.3765(2) 0.39121(14)
H5 H 0.9841 0.3430 0.3951
C10 C 0.9215(3) 0.4378(2) 0.42314(13)
H6 H 0.9846 0.4450 0.4491
C11 C 0.8284(3) 0.48741(18) 0.41577(13)
H7 H 0.8294 0.5289 0.4367
C12 C 0.3921(2) 0.46447(16) 0.44803(11)
H8 H 0.3938 0.4970 0.4764
C13 C 0.3202(3) 0.40461(18) 0.44779(12)
C14 C 0.3155(3) 0.35657(17) 0.40584(12)
C15 C 0.3814(2) 0.36748(15) 0.36141(11)
H9 H 0.3767 0.3350 0.3330
C16 C 0.2078(3) 0.31202(19) 0.47147(13)
H10 H 0.1203 0.3040 0.4769
H11 H 0.2553 0.2779 0.4934
C17 C 0.4564(3) 0.42727(16) 0.25840(11)
C18 C 0.3547(3) 0.46874(17) 0.24297(12)
H12 H 0.3328 0.5075 0.2642
C19 C 0.2852(3) 0.45396(19) 0.19693(13)
H13 H 0.2176 0.4830 0.1874
C20 C 0.3147(3) 0.3966(2) 0.16465(13)
H14 H 0.2679 0.3866 0.1334
C21 C 0.4145(3) 0.35485(17) 0.17991(13)
H15 H 0.4349 0.3156 0.1588
C22 C 0.4859(3) 0.36942(17) 0.22585(12)
H16 H 0.5539 0.3405 0.2350
O5 O 0.34863(16) 0.18787(10) 0.32225(8)
O6 O 0.57408(17) 0.06234(10) 0.27119(8)
O7 O 0.21391(18) 0.02909(13) 0.45922(9)
O8 O 0.39131(19) -0.04062(12) 0.45792(9)
C23 C 0.3719(3) 0.13010(16) 0.35546(12)
C24 C 0.4799(2) 0.09033(16) 0.35525(11)
C25 C 0.5816(3) 0.10994(17) 0.31722(11)
C26 C 0.5627(2) 0.18657(15) 0.29753(11)
H17 H 0.5788 0.2205 0.3265
H18 H 0.6183 0.1972 0.2690
C27 C 0.4290(3) 0.19174(16) 0.27710(12)
H19 H 0.4166 0.2385 0.2594
C28 C 0.4000(3) 0.13366(17) 0.23717(12)
C29 C 0.4750(3) 0.07346(18) 0.23525(12)
C30 C 0.4547(3) 0.02133(18) 0.19638(13)
H20 H 0.5048 -0.0194 0.1959
C31 C 0.3599(3) 0.0302(2) 0.15849(13)
H21 H 0.3470 -0.0044 0.1319
C32 C 0.2839(3) 0.0897(2) 0.15949(13)
H22 H 0.2193 0.0953 0.1340
C33 C 0.3048(3) 0.14054(18) 0.19860(13)
H23 H 0.2536 0.1808 0.1992
C34 C 0.2761(3) 0.11466(17) 0.39015(12)
H24 H 0.2043 0.1423 0.3907
C35 C 0.2950(3) 0.05667(18) 0.42292(13)
C36 C 0.4001(3) 0.01562(17) 0.42197(12)
C37 C 0.4940(3) 0.03116(15) 0.38959(11)
H25 H 0.5658 0.0033 0.3902
C38 C 0.2797(3) -0.02939(19) 0.48444(12)
H26 H 0.2979 -0.0183 0.5219
H27 H 0.2293 -0.0727 0.4825
C39 C 0.7094(3) 0.09777(17) 0.34341(12)
C40 C 0.7510(3) 0.14243(18) 0.38437(13)
H28 H 0.7012 0.1807 0.3944
C41 C 0.8633(3) 0.1322(2) 0.41078(13)
H29 H 0.8891 0.1632 0.4383
C42 C 0.9376(3) 0.0759(2) 0.39634(14)
H30 H 1.0136 0.0679 0.4144
C43 C 0.8989(3) 0.03202(18) 0.35538(15)
H31 H 0.9495 -0.0057 0.3451
C44 C 0.7851(3) 0.04258(17) 0.32871(12)
H32 H 0.7600 0.0121 0.3007
O9 O 0.32301(18) 0.12659(11) 0.55174(8)
O10 O 0.24883(18) 0.26816(10) 0.64703(8)
O11 O 0.62604(19) 0.26772(13) 0.46443(8)
O12 O 0.65143(18) 0.34743(11) 0.53454(9)
C45 C 0.4065(3) 0.18358(17) 0.55303(13)
C46 C 0.4231(2) 0.22850(16) 0.59670(11)
C47 C 0.3506(3) 0.21653(16) 0.64727(12)
C48 C 0.2982(2) 0.14123(15) 0.64738(11)
H33 H 0.2403 0.1358 0.6759
H34 H 0.3642 0.1061 0.6527
C49 C 0.2319(3) 0.13052(16) 0.59273(12)
H35 H 0.1868 0.0847 0.5932
C50 C 0.1390(3) 0.19069(17) 0.58216(12)
C51 C 0.1518(3) 0.25411(19) 0.61072(12)
C52 C 0.0629(3) 0.30774(17) 0.60566(12)
H36 H 0.0724 0.3505 0.6248
C53 C -0.0388(3) 0.2973(2) 0.57240(13)
H37 H -0.0991 0.3330 0.5692
C54 C -0.0535(3) 0.2340(2) 0.54334(13)
H38 H -0.1232 0.2272 0.5207
C55 C 0.0355(3) 0.18161(18) 0.54835(12)
H39 H 0.0262 0.1392 0.5287
C56 C 0.4723(3) 0.19076(17) 0.50599(12)
H40 H 0.4636 0.1585 0.4776
C57 C 0.5500(3) 0.24876(19) 0.50521(13)
C58 C 0.5653(3) 0.29536(17) 0.54697(13)
C59 C 0.5046(3) 0.28617(16) 0.59312(12)
H41 H 0.5174 0.3178 0.6217
C60 C 0.6665(3) 0.33870(18) 0.47865(13)
H42 H 0.7530 0.3450 0.4704
H43 H 0.6176 0.3743 0.4587
C61 C 0.4290(3) 0.23075(17) 0.69826(12)
C62 C 0.5261(3) 0.18544(17) 0.71093(14)
H44 H 0.5446 0.1481 0.6877
C63 C 0.5971(3) 0.19460(19) 0.75791(14)
H45 H 0.6617 0.1629 0.7664
C64 C 0.5725(3) 0.2505(2) 0.79220(13)
H46 H 0.6199 0.2571 0.8238
C65 C 0.4771(3) 0.29582(19) 0.77881(14)
H47 H 0.4604 0.3343 0.8012
C66 C 0.4048(3) 0.28580(17) 0.73272(13)
H48 H 0.3387 0.3168 0.7249
loop_
_geom_bond_atom_site_label_1
_geom_bond_atom_site_label_2
_geom_bond_site_symmetry_1
_geom_bond_site_symmetry_2
O1 C1 1_555 1_555
O2 C3 1_555 1_555
O3 C14 1_555 1_555
O4 C13 1_555 1_555
C1 C2 1_555 1_555
C2 C3 1_555 1_555
C3 C4 1_555 1_555
C4 H1 1_555 1_555
H2 C4 1_555 1_555
C5 O1 1_555 1_555
H3 C5 1_555 1_555
C6 C5 1_555 1_555
C7 O2 1_555 1_555
C8 C7 1_555 1_555
H4 C8 1_555 1_555
C9 C8 1_555 1_555
H5 C9 1_555 1_555
C10 C9 1_555 1_555
H6 C10 1_555 1_555
C11 C6 1_555 1_555
H7 C11 1_555 1_555
C12 C1 1_555 1_555
H8 C12 1_555 1_555
C13 C12 1_555 1_555
C14 C13 1_555 1_555
C15 C2 1_555 1_555
H9 C15 1_555 1_555
C16 O3 1_555 1_555
H10 C16 1_555 1_555
H11 C16 1_555 1_555
C17 C3 1_555 1_555
C18 C17 1_555 1_555
H12 C18 1_555 1_555
C19 C18 1_555 1_555
H13 C19 1_555 1_555
C20 C19 1_555 1_555
H14 C20 1_555 1_555
C21 C20 1_555 1_555
H15 C21 1_555 1_555
C22 C17 1_555 1_555
H16 C22 1_555 1_555
O5 C23 1_555 1_555
O6 C25 1_555 1_555
O7 C35 1_555 1_555
O8 C36 1_555 1_555
C23 C24 1_555 1_555
C24 C25 1_555 1_555
C25 C26 1_555 1_555
C26 H17 1_555 1_555
H18 C26 1_555 1_555
C27 O5 1_555 1_555
H19 C27 1_555 1_555
C28 C27 1_555 1_555
C29 O6 1_555 1_555
C30 C29 1_555 1_555
H20 C30 1_555 1_555
C31 C30 1_555 1_555
H21 C31 1_555 1_555
C32 C31 1_555 1_555
H22 C32 1_555 1_555
C33 C28 1_555 1_555
H23 C33 1_555 1_555
C34 C23 1_555 1_555
H24 C34 1_555 1_555
C35 C34 1_555 1_555
C36 C35 1_555 1_555
C37 C24 1_555 1_555
H25 C37 1_555 1_555
C38 O7 1_555 1_555
H26 C38 1_555 1_555
H27 C38 1_555 1_555
C39 C25 1_555 1_555
C40 C39 1_555 1_555
H28 C40 1_555 1_555
C41 C40 1_555 1_555
H29 C41 1_555 1_555
C42 C41 1_555 1_555
H30 C42 1_555 1_555
C43 C42 1_555 1_555
H31 C43 1_555 1_555
C44 C39 1_555 1_555
H32 C44 1_555 1_555
O9 C45 1_555 1_555
O10 C47 1_555 1_555
O11 C57 1_555 1_555
O12 C58 1_555 1_555
C45 C46 1_555 1_555
C46 C47 1_555 1_555
C47 C48 1_555 1_555
C48 H33 1_555 1_555
H34 C48 1_555 1_555
C49 O9 1_555 1_555
H35 C49 1_555 1_555
C50 C49 1_555 1_555
C51 O10 1_555 1_555
C52 C51 1_555 1_555
H36 C52 1_555 1_555
C53 C52 1_555 1_555
H37 C53 1_555 1_555
C54 C53 1_555 1_555
H38 C54 1_555 1_555
C55 C50 1_555 1_555
H39 C55 1_555 1_555
C56 C45 1_555 1_555
H40 C56 1_555 1_555
C57 C56 1_555 1_555
C58 C57 1_555 1_555
C59 C46 1_555 1_555
H41 C59 1_555 1_555
C60 O11 1_555 1_555
H42 C60 1_555 1_555
H43 C60 1_555 1_555
C61 C47 1_555 1_555
C62 C61 1_555 1_555
H44 C62 1_555 1_555
C63 C62 1_555 1_555
H45 C63 1_555 1_555
C64 C63 1_555 1_555
H46 C64 1_555 1_555
C65 C64 1_555 1_555
H47 C65 1_555 1_555
C66 C61 1_555 1_555
H48 C66 1_555 1_555
O4 C16 1_555 1_555
C4 C5 1_555 1_555
C6 C7 1_555 1_555
C10 C11 1_555 1_555
C14 C15 1_555 1_555
C21 C22 1_555 1_555
O8 C38 1_555 1_555
C26 C27 1_555 1_555
C28 C29 1_555 1_555
C32 C33 1_555 1_555
C36 C37 1_555 1_555
C43 C44 1_555 1_555
O12 C60 1_555 1_555
C48 C49 1_555 1_555
C50 C51 1_555 1_555
C54 C55 1_555 1_555
C58 C59 1_555 1_555
C65 C66 1_555 1_555

#END
