
#######################################################################
#
#                 Cambridge Crystallographic Data Centre
#                                CCDC 
#
#######################################################################
#
# If this CIF has been generated from an entry in the Cambridge 
# Structural Database, then it will include bibliographic, chemical, 
# crystal, experimental, refinement or atomic coordinate data resulting 
# from the CCDC's data processing and validation procedures.
#
#######################################################################

data_RIDZUA
_chemical_formula_moiety         'C38 H40 N2 O4 S2'
_chemical_name_systematic        
3,3'-bis((4-methylphenyl)sulfonyl)-6,6'-diphenyl-4,5'-bi(3-azabicyclo[4.1.0]heptane)
_symmetry_cell_setting           orthorhombic
_symmetry_space_group_name_H-M   'F d d 2'
_symmetry_Int_Tables_number      43
_space_group_name_Hall           'F 2 -2d'
loop_
_symmetry_equiv_pos_site_id
_symmetry_equiv_pos_as_xyz
1 x,y,z
2 -x,-y,z
3 1/4-x,1/4+y,1/4+z
4 3/4+x,3/4-y,1/4+z
5 x,1/2+y,1/2+z
6 -x,1/2-y,1/2+z
7 1/4-x,3/4+y,3/4+z
8 3/4+x,1/4-y,3/4+z
9 1/2+x,y,1/2+z
10 1/2-x,-y,1/2+z
11 3/4-x,1/4+y,3/4+z
12 1/4+x,3/4-y,3/4+z
13 1/2+x,1/2+y,z
14 1/2-x,1/2-y,z
15 3/4-x,3/4+y,1/4+z
16 1/4+x,1/4-y,1/4+z
_cell_length_a                   28.4738(17)
_cell_length_b                   49.755(3)
_cell_length_c                   9.3187(6)
_cell_angle_alpha                90
_cell_angle_beta                 90
_cell_angle_gamma                90
_cell_volume                     13201.9
_cell_formula_units_Z            16
loop_
_atom_site_label
_atom_site_type_symbol
_atom_site_fract_x
_atom_site_fract_y
_atom_site_fract_z
S1 S 0.31777(3) 0.037562(16) 0.52831(8)
S2 S 0.39671(3) -0.039793(16) 0.15510(10)
O1 O 0.36597(7) 0.04147(5) 0.4897(3)
O2 O 0.30537(9) 0.01765(5) 0.6323(2)
O3 O 0.35296(8) -0.05145(4) 0.1958(3)
O4 O 0.42375(9) -0.05097(5) 0.0407(3)
N1 N 0.38534(9) -0.00848(5) 0.1083(3)
N2 N 0.28992(8) 0.02945(5) 0.3816(3)
C1 C 0.35029(10) 0.00555(6) 0.1871(3)
H1 H 0.3210 -0.0040 0.1720
H2 H 0.3581 0.0035 0.2878
C2 C 0.30213(10) 0.04524(6) 0.2507(3)
H3 H 0.3134 0.0630 0.2812
C3 C 0.43279(11) -0.03842(6) 0.3088(4)
C4 C 0.34119(10) 0.03154(6) 0.1664(3)
H4 H 0.3642 0.0365 0.2398
C5 C 0.21482(11) 0.09091(6) 0.2656(4)
C6 C 0.29654(11) 0.06881(6) 0.5902(3)
C7 C 0.20685(10) 0.04349(6) 0.3743(4)
H5 H 0.1973 0.0529 0.4619
C8 C 0.24056(10) 0.02030(6) 0.3941(4)
H6 H 0.2357 0.0123 0.4878
H7 H 0.2344 0.0067 0.3221
C9 C 0.36909(11) 0.07767(7) 0.0751(3)
C10 C 0.31659(12) 0.09210(6) 0.5415(4)
H8 H 0.3417 0.0915 0.4778
C11 C 0.50905(12) -0.03841(7) 0.4172(4)
H9 H 0.5415 -0.0393 0.4076
C12 C 0.21797(10) 0.06098(6) 0.2457(4)
C13 C 0.41050(12) 0.03382(7) -0.0033(3)
H10 H 0.4363 0.0459 -0.0294
C14 C 0.25831(11) 0.04924(6) 0.1586(3)
H11 H 0.2656 0.0612 0.0796
H12 H 0.2488 0.0321 0.1185
C15 C 0.48076(12) -0.04038(6) 0.2958(4)
H13 H 0.4943 -0.0430 0.2061
C16 C 0.36690(11) 0.04787(6) 0.0561(3)
C17 C 0.25899(12) 0.06992(7) 0.6847(4)
H14 H 0.2451 0.0542 0.7176
C18 C 0.37272(14) 0.13325(8) 0.1140(5)
H15 H 0.3738 0.1518 0.1273
C19 C 0.29905(13) 0.11677(7) 0.5883(4)
H16 H 0.3128 0.1326 0.5555
C20 C 0.18106(12) 0.10198(7) 0.3574(4)
H17 H 0.1604 0.0907 0.4057
C21 C 0.38803(12) 0.08884(7) 0.1996(4)
H18 H 0.3998 0.0776 0.2706
C22 C 0.41279(13) -0.03488(8) 0.4427(5)
H19 H 0.3804 -0.0335 0.4520
C23 C 0.24244(13) 0.09454(8) 0.7293(5)
H20 H 0.2174 0.0952 0.7933
C24 C 0.35202(12) 0.09528(7) -0.0293(4)
H21 H 0.3389 0.0884 -0.1131
C25 C 0.36798(13) 0.03625(7) -0.0949(4)
H22 H 0.3499 0.0201 -0.1128
H23 H 0.3691 0.0488 -0.1745
C26 C 0.26191(13) 0.11815(7) 0.6815(5)
C27 C 0.38957(14) 0.11630(7) 0.2191(5)
H24 H 0.4020 0.1234 0.3033
C28 C 0.42585(11) 0.00747(7) 0.0603(4)
H25 H 0.4434 -0.0026 -0.0109
H26 H 0.4465 0.0108 0.1411
C29 C 0.48938(13) -0.03518(7) 0.5520(4)
C30 C 0.17331(11) 0.04461(7) 0.2525(4)
H27 H 0.1440 0.0542 0.2671
H28 H 0.1710 0.0289 0.1910
C31 C 0.17818(14) 0.12942(8) 0.3770(5)
H29 H 0.1557 0.1363 0.4394
C32 C 0.44112(15) -0.03346(9) 0.5625(5)
H30 H 0.4274 -0.0313 0.6523
C33 C 0.51995(16) -0.03437(9) 0.6846(5)
H31 H 0.5358 -0.0513 0.6955
H32 H 0.5007 -0.0310 0.7674
H33 H 0.5427 -0.0203 0.6751
C34 C 0.24495(13) 0.10853(7) 0.1960(5)
H34 H 0.2679 0.1018 0.1346
C35 C 0.35451(15) 0.12291(8) -0.0091(5)
H35 H 0.3436 0.1344 -0.0804
C36 C 0.20776(16) 0.14678(8) 0.3062(5)
C37 C 0.24344(16) 0.14525(8) 0.7301(6)
H36 H 0.2134 0.1485 0.6865
H37 H 0.2651 0.1591 0.7019
H38 H 0.2401 0.1453 0.8326
C38 C 0.24140(15) 0.13614(8) 0.2168(5)
H39 H 0.2621 0.1476 0.1696
loop_
_geom_bond_atom_site_label_1
_geom_bond_atom_site_label_2
_geom_bond_site_symmetry_1
_geom_bond_site_symmetry_2
S1 O1 1_555 1_555
S2 O3 1_555 1_555
O2 S1 1_555 1_555
O4 S2 1_555 1_555
N1 S2 1_555 1_555
N2 S1 1_555 1_555
C1 N1 1_555 1_555
H1 C1 1_555 1_555
H2 C1 1_555 1_555
C2 N2 1_555 1_555
H3 C2 1_555 1_555
C3 S2 1_555 1_555
C4 C1 1_555 1_555
H4 C4 1_555 1_555
C5 C12 1_555 1_555
C6 S1 1_555 1_555
C7 H5 1_555 1_555
C8 N2 1_555 1_555
H6 C8 1_555 1_555
H7 C8 1_555 1_555
C9 C16 1_555 1_555
C10 C6 1_555 1_555
H8 C10 1_555 1_555
C11 H9 1_555 1_555
C12 C7 1_555 1_555
C13 H10 1_555 1_555
C14 C2 1_555 1_555
H11 C14 1_555 1_555
H12 C14 1_555 1_555
C15 C3 1_555 1_555
H13 C15 1_555 1_555
C16 C4 1_555 1_555
C17 C6 1_555 1_555
H14 C17 1_555 1_555
C18 H15 1_555 1_555
C19 C10 1_555 1_555
H16 C19 1_555 1_555
C20 C5 1_555 1_555
H17 C20 1_555 1_555
C21 C9 1_555 1_555
H18 C21 1_555 1_555
C22 C3 1_555 1_555
H19 C22 1_555 1_555
C23 C17 1_555 1_555
H20 C23 1_555 1_555
C24 C9 1_555 1_555
H21 C24 1_555 1_555
C25 C13 1_555 1_555
H22 C25 1_555 1_555
H23 C25 1_555 1_555
C26 C19 1_555 1_555
C27 C18 1_555 1_555
H24 C27 1_555 1_555
C28 N1 1_555 1_555
H25 C28 1_555 1_555
H26 C28 1_555 1_555
C29 C11 1_555 1_555
C30 C7 1_555 1_555
H27 C30 1_555 1_555
H28 C30 1_555 1_555
C31 C20 1_555 1_555
H29 C31 1_555 1_555
C32 C22 1_555 1_555
H30 C32 1_555 1_555
C33 C29 1_555 1_555
H31 C33 1_555 1_555
H32 C33 1_555 1_555
H33 C33 1_555 1_555
C34 C5 1_555 1_555
H34 C34 1_555 1_555
C35 C18 1_555 1_555
H35 C35 1_555 1_555
C36 C31 1_555 1_555
C37 C26 1_555 1_555
H36 C37 1_555 1_555
H37 C37 1_555 1_555
H38 C37 1_555 1_555
C38 C34 1_555 1_555
H39 C38 1_555 1_555
C2 C4 1_555 1_555
C7 C8 1_555 1_555
C11 C15 1_555 1_555
C12 C14 1_555 1_555
C12 C30 1_555 1_555
C13 C16 1_555 1_555
C13 C28 1_555 1_555
C16 C25 1_555 1_555
C21 C27 1_555 1_555
C23 C26 1_555 1_555
C24 C35 1_555 1_555
C29 C32 1_555 1_555
C36 C38 1_555 1_555

#END
