
#######################################################################
#
#                 Cambridge Crystallographic Data Centre
#                                CCDC 
#
#######################################################################
#
# If this CIF has been generated from an entry in the Cambridge 
# Structural Database, then it will include bibliographic, chemical, 
# crystal, experimental, refinement or atomic coordinate data resulting 
# from the CCDC's data processing and validation procedures.
#
#######################################################################

data_RIFBEO
_chemical_formula_moiety         'C26 H29 N1 O3 S1'
_chemical_name_systematic        
4a-(4-methoxyphenyl)-6,7-dimethyl-2-((4-methylphenyl)sulfonyl)-1,2,4a,4b,5,8-hexahydrobenzo[1,3]cyclopropa[1,2-c]pyridine
_symmetry_cell_setting           monoclinic
_symmetry_space_group_name_H-M   'C 2/c'
_symmetry_Int_Tables_number      15
_space_group_name_Hall           '-C 2yn'
loop_
_symmetry_equiv_pos_site_id
_symmetry_equiv_pos_as_xyz
1 x,y,z
2 1/2+x,1/2+y,z
3 -x,y,1/2-z
4 1/2-x,1/2+y,1/2-z
5 -x,-y,-z
6 1/2-x,1/2-y,-z
7 x,-y,1/2+z
8 1/2+x,1/2-y,1/2+z
_cell_length_a                   20.135(6)
_cell_length_b                   22.438(6)
_cell_length_c                   14.131(4)
_cell_angle_alpha                90.00
_cell_angle_beta                 133.873(4)
_cell_angle_gamma                90.00
_cell_volume                     4602.25
_cell_formula_units_Z            8
loop_
_atom_site_label
_atom_site_type_symbol
_atom_site_fract_x
_atom_site_fract_y
_atom_site_fract_z
S1 S 0.34396(6) 0.11325(5) 0.33922(9)
O1 O 0.35782(18) 0.11299(15) 0.4530(2)
O2 O 0.39067(17) 0.15506(12) 0.3266(3)
O3 O -0.32560(15) 0.13436(12) -0.5013(2)
N1 N 0.23338(17) 0.12436(13) 0.2135(3)
C1 C -0.05562(19) 0.14648(14) -0.1359(3)
C2 C 0.0424(2) 0.14941(14) -0.0043(3)
C3 C -0.23678(19) 0.14156(15) -0.3811(3)
C4 C 0.0740(2) 0.11811(16) 0.1165(3)
C5 C -0.1079(2) 0.19690(15) -0.1976(3)
H1 H -0.0820 0.2336 -0.1568
C6 C 0.36825(19) 0.04231(16) 0.3214(3)
C7 C 0.1131(2) 0.15197(15) -0.0101(3)
H2 H 0.0942 0.1620 -0.0896
C8 C -0.1846(2) 0.09009(15) -0.3244(3)
H3 H -0.2098 0.0538 -0.3678
C9 C -0.1984(2) 0.19510(15) -0.3190(3)
H4 H -0.2326 0.2300 -0.3577
C10 C -0.0952(2) 0.09272(15) -0.2033(3)
H5 H -0.0606 0.0579 -0.1658
C11 C 0.2012(2) 0.14095(15) 0.0907(3)
H6 H 0.2424 0.1441 0.0814
C12 C 0.0659(2) 0.18361(17) 0.1108(3)
H7 H 0.1249 0.2049 0.1675
C13 C -0.0794(2) 0.1139(2) 0.0568(3)
C14 C 0.1674(2) 0.08916(17) 0.2060(3)
H8 H 0.1910 0.0853 0.2932
H9 H 0.1618 0.0495 0.1739
C15 C 0.0046(2) 0.08121(19) 0.1048(3)
H10 H -0.0156 0.0482 0.0456
H11 H 0.0363 0.0644 0.1903
C16 C -0.0839(2) 0.1727(2) 0.0556(3)
C17 C 0.3788(2) 0.03228(18) 0.2362(3)
H12 H 0.3755 0.0639 0.1905
C18 C 0.3999(2) -0.07281(19) 0.2846(4)
C19 C 0.3745(2) -0.0063(2) 0.3894(4)
H13 H 0.3677 -0.0009 0.4476
C20 C -0.1566(3) 0.0718(2) 0.0089(4)
H14 H -0.1976 0.0918 0.0114
H15 H -0.1310 0.0373 0.0647
H16 H -0.1901 0.0597 -0.0795
C21 C 0.3943(3) -0.02530(19) 0.2188(4)
H17 H 0.4011 -0.0316 0.1609
C22 C -0.3843(2) 0.1850(2) -0.5577(4)
H18 H -0.3855 0.2015 -0.4962
H19 H -0.4455 0.1734 -0.6362
H20 H -0.3616 0.2144 -0.5788
C23 C -0.0063(3) 0.2120(2) 0.1007(4)
H21 H 0.0237 0.2279 0.1862
H22 H -0.0323 0.2455 0.0407
C24 C 0.3908(3) -0.0619(2) 0.3693(4)
H23 H 0.3959 -0.0938 0.4161
C25 C 0.4148(3) -0.1356(2) 0.2641(5)
H24 H 0.4795 -0.1444 0.3276
H25 H 0.3907 -0.1393 0.1773
H26 H 0.3835 -0.1631 0.2743
C26 C -0.1672(3) 0.2073(3) 0.0076(5)
H27 H -0.2060 0.2168 -0.0837
H28 H -0.1472 0.2434 0.0573
H29 H -0.2011 0.1836 0.0187
loop_
_geom_bond_atom_site_label_1
_geom_bond_atom_site_label_2
_geom_bond_site_symmetry_1
_geom_bond_site_symmetry_2
S1 O1 1_555 1_555
O2 S1 1_555 1_555
O3 C3 1_555 1_555
N1 S1 1_555 1_555
C1 C2 1_555 1_555
C2 C4 1_555 1_555
C3 C8 1_555 1_555
C4 C12 1_555 1_555
C5 C1 1_555 1_555
H1 C5 1_555 1_555
C6 S1 1_555 1_555
C7 C2 1_555 1_555
H2 C7 1_555 1_555
C8 H3 1_555 1_555
C9 C3 1_555 1_555
H4 C9 1_555 1_555
C10 C1 1_555 1_555
H5 C10 1_555 1_555
C11 N1 1_555 1_555
H6 C11 1_555 1_555
C12 C2 1_555 1_555
H7 C12 1_555 1_555
C13 C15 1_555 1_555
C14 N1 1_555 1_555
H8 C14 1_555 1_555
H9 C14 1_555 1_555
C15 C4 1_555 1_555
H10 C15 1_555 1_555
H11 C15 1_555 1_555
C16 C13 1_555 1_555
C17 C6 1_555 1_555
H12 C17 1_555 1_555
C18 C21 1_555 1_555
C19 C6 1_555 1_555
H13 C19 1_555 1_555
C20 C13 1_555 1_555
H14 C20 1_555 1_555
H15 C20 1_555 1_555
H16 C20 1_555 1_555
C21 C17 1_555 1_555
H17 C21 1_555 1_555
C22 O3 1_555 1_555
H18 C22 1_555 1_555
H19 C22 1_555 1_555
H20 C22 1_555 1_555
C23 C12 1_555 1_555
H21 C23 1_555 1_555
H22 C23 1_555 1_555
C24 C18 1_555 1_555
H23 C24 1_555 1_555
C25 C18 1_555 1_555
H24 C25 1_555 1_555
H25 C25 1_555 1_555
H26 C25 1_555 1_555
C26 C16 1_555 1_555
H27 C26 1_555 1_555
H28 C26 1_555 1_555
H29 C26 1_555 1_555
C4 C14 1_555 1_555
C5 C9 1_555 1_555
C7 C11 1_555 1_555
C8 C10 1_555 1_555
C16 C23 1_555 1_555
C19 C24 1_555 1_555

#END
