
#######################################################################
#
#                 Cambridge Crystallographic Data Centre
#                                CCDC 
#
#######################################################################
#
# If this CIF has been generated from an entry in the Cambridge 
# Structural Database, then it will include bibliographic, chemical, 
# crystal, experimental, refinement or atomic coordinate data resulting 
# from the CCDC's data processing and validation procedures.
#
#######################################################################

data_RIFNUR
_chemical_formula_moiety         'C36 H52 N2 O7'
_chemical_name_systematic        
'1,8-Di-t-butyl 2-methyl 3a-((5,5,8a-trimethyl-2-oxodecahydronaphthalen-1-yl)methyl)-2,3,3a,8a-tetrahydropyrrolo[2,3-b]indole-1,2,8-tricarboxylate'
_symmetry_cell_setting           monoclinic
_symmetry_space_group_name_H-M   'P 21'
_symmetry_Int_Tables_number      4
_space_group_name_Hall           'P 2yb'
loop_
_symmetry_equiv_pos_site_id
_symmetry_equiv_pos_as_xyz
1 x,y,z
2 -x,1/2+y,-z
_cell_length_a                   11.1880(10)
_cell_length_b                   12.1315(11)
_cell_length_c                   14.1830(13)
_cell_angle_alpha                90
_cell_angle_beta                 111.687(2)
_cell_angle_gamma                90
_cell_volume                     1788.76
_exptl_crystal_colour            colorless
_exptl_crystal_description       prismatic
_cell_formula_units_Z            2
loop_
_atom_site_label
_atom_site_type_symbol
_atom_site_fract_x
_atom_site_fract_y
_atom_site_fract_z
N1 N 0.52300(14) 0.71507(15) 0.73108(12)
N2 N 0.29776(14) 0.73605(15) 0.70806(12)
O1 O 0.38798(16) 0.55016(13) 0.94872(11)
O2 O 0.80585(15) 0.71430(17) 0.80745(14)
O3 O 0.78487(15) 0.88150(17) 0.73869(15)
O4 O 0.44880(15) 0.56621(16) 0.63111(12)
O5 O 0.58874(15) 0.68452(15) 0.60406(11)
O6 O 0.10021(15) 0.69076(17) 0.59545(14)
O7 O 0.23143(13) 0.56239(13) 0.69631(10)
C1 C 0.16558(19) 0.73986(19) 1.04585(15)
H1 H 0.1128 0.7741 0.9813
C2 C 0.1106(2) 0.7868(2) 1.12405(17)
C3 C 0.1353(3) 0.9106(2) 1.1336(2)
H2 H 0.0804 0.9457 1.0711
H3 H 0.1107 0.9385 1.1879
C4 C 0.2726(3) 0.9433(2) 1.1545(2)
H4 H 0.3276 0.9144 1.2200
H5 H 0.2797 1.0231 1.1572
C5 C 0.3174(2) 0.8994(2) 1.0724(2)
H6 H 0.4064 0.9206 1.0885
H7 H 0.2664 0.9331 1.0081
C6 C 0.30620(18) 0.77390(17) 1.06157(13)
C7 C 0.33165(17) 0.73823(17) 0.96394(14)
H8 H 0.2669 0.7757 0.9064
C8 C 0.3062(2) 0.61628(19) 0.94762(14)
C9 C 0.1735(2) 0.5807(2) 0.9355(2)
H9 H 0.1669 0.5011 0.9290
H10 H 0.1116 0.6129 0.8743
C10 C 0.1437(3) 0.6171(2) 1.0270(2)
H11 H 0.0549 0.5997 1.0158
H12 H 0.1982 0.5770 1.0865
C11 C 0.1665(3) 0.7325(3) 1.22887(19)
H13 H 0.1180 0.7553 1.2689
H14 H 0.2547 0.7544 1.2620
H15 H 0.1618 0.6538 1.2213
C12 C -0.0363(2) 0.7681(3) 1.0823(2)
H16 H -0.0735 0.7991 1.0155
H17 H -0.0727 0.8030 1.1262
H18 H -0.0538 0.6904 1.0793
C13 C 0.4086(2) 0.7189(2) 1.15360(15)
H19 H 0.4019 0.7466 1.2148
H20 H 0.4926 0.7351 1.1535
H21 H 0.3954 0.6406 1.1500
C14 C 0.46311(17) 0.77155(18) 0.96294(14)
H22 H 0.4941 0.8345 1.0075
H23 H 0.5228 0.7113 0.9910
C15 C 0.46592(16) 0.80085(17) 0.85930(14)
C16 C 0.60253(18) 0.8331(2) 0.86812(15)
H24 H 0.6195 0.9101 0.8869
H25 H 0.6663 0.7881 0.9184
C17 C 0.60438(18) 0.81242(18) 0.76246(15)
H26 H 0.5664 0.8747 0.7173
C18 C 0.42794(15) 0.70720(17) 0.77901(13)
H27 H 0.4297 0.6348 0.8101
C19 C 0.27545(17) 0.84954(18) 0.71836(14)
C20 C 0.36932(18) 0.88987(17) 0.80570(15)
C21 C 0.3629(2) 0.99782(19) 0.83510(18)
H28 H 0.4247 1.0253 0.8943
C22 C 0.2637(2) 1.0640(2) 0.7756(2)
H29 H 0.2577 1.1363 0.7951
C23 C 0.1736(2) 1.0236(2) 0.6874(2)
H30 H 0.1084 1.0699 0.6472
C24 C 0.1775(2) 0.9157(2) 0.65689(18)
H31 H 0.1163 0.8888 0.5971
C25 C 0.7423(2) 0.7926(2) 0.77073(16)
C26 C 0.9180(2) 0.8790(4) 0.7488(3)
H32 H 0.9344 0.8128 0.7185
H33 H 0.9722 0.8806 0.8194
H34 H 0.9362 0.9419 0.7153
C27 C 0.51428(19) 0.6475(2) 0.65229(15)
C28 C 0.6033(3) 0.6201(3) 0.52093(18)
C29 C 0.4761(4) 0.6149(5) 0.4349(2)
H35 H 0.4362 0.6862 0.4248
H36 H 0.4218 0.5623 0.4504
H37 H 0.4886 0.5927 0.3742
C30 C 0.7006(5) 0.6892(4) 0.4963(3)
H38 H 0.7804 0.6901 0.5536
H39 H 0.6688 0.7631 0.4807
H40 H 0.7143 0.6582 0.4388
C31 C 0.6573(3) 0.5090(3) 0.5574(3)
H41 H 0.5911 0.4627 0.5638
H42 H 0.7261 0.5158 0.6222
H43 H 0.6895 0.4768 0.5096
C32 C 0.20003(19) 0.6628(2) 0.65951(16)
C33 C 0.1595(2) 0.4649(2) 0.64148(16)
C34 C 0.0251(2) 0.4659(3) 0.6437(2)
H44 H -0.0217 0.5279 0.6056
H45 H 0.0304 0.4716 0.7126
H46 H -0.0186 0.3990 0.6142
C35 C 0.1573(2) 0.4630(3) 0.53508(18)
H47 H 0.2437 0.4668 0.5367
H48 H 0.1091 0.5249 0.4982
H49 H 0.1177 0.3959 0.5023
C36 C 0.2406(3) 0.3723(3) 0.7036(2)
H50 H 0.2450 0.3780 0.7723
H51 H 0.3257 0.3769 0.7024
H52 H 0.2027 0.3029 0.6755
loop_
_geom_bond_atom_site_label_1
_geom_bond_atom_site_label_2
_geom_bond_site_symmetry_1
_geom_bond_site_symmetry_2
N1 C17 1_555 1_555
N2 C18 1_555 1_555
O1 C8 1_555 1_555
O2 C25 1_555 1_555
O3 C25 1_555 1_555
O4 C27 1_555 1_555
O5 C27 1_555 1_555
O6 C32 1_555 1_555
O7 C32 1_555 1_555
C1 H1 1_555 1_555
C2 C1 1_555 1_555
C3 C2 1_555 1_555
H2 C3 1_555 1_555
H3 C3 1_555 1_555
C4 C3 1_555 1_555
H4 C4 1_555 1_555
H5 C4 1_555 1_555
C5 C4 1_555 1_555
H6 C5 1_555 1_555
H7 C5 1_555 1_555
C6 C1 1_555 1_555
C7 C6 1_555 1_555
H8 C7 1_555 1_555
C8 C7 1_555 1_555
C9 C8 1_555 1_555
H9 C9 1_555 1_555
H10 C9 1_555 1_555
C10 C1 1_555 1_555
H11 C10 1_555 1_555
H12 C10 1_555 1_555
C11 C2 1_555 1_555
H13 C11 1_555 1_555
H14 C11 1_555 1_555
H15 C11 1_555 1_555
C12 C2 1_555 1_555
H16 C12 1_555 1_555
H17 C12 1_555 1_555
H18 C12 1_555 1_555
C13 C6 1_555 1_555
H19 C13 1_555 1_555
H20 C13 1_555 1_555
H21 C13 1_555 1_555
C14 C7 1_555 1_555
H22 C14 1_555 1_555
H23 C14 1_555 1_555
C15 C14 1_555 1_555
C16 C15 1_555 1_555
H24 C16 1_555 1_555
H25 C16 1_555 1_555
C17 C16 1_555 1_555
H26 C17 1_555 1_555
C18 N1 1_555 1_555
H27 C18 1_555 1_555
C19 N2 1_555 1_555
C20 C15 1_555 1_555
C21 C20 1_555 1_555
H28 C21 1_555 1_555
C22 C21 1_555 1_555
H29 C22 1_555 1_555
C23 C22 1_555 1_555
H30 C23 1_555 1_555
C24 C19 1_555 1_555
H31 C24 1_555 1_555
C25 C17 1_555 1_555
C26 O3 1_555 1_555
H32 C26 1_555 1_555
H33 C26 1_555 1_555
H34 C26 1_555 1_555
C27 N1 1_555 1_555
C28 O5 1_555 1_555
C29 C28 1_555 1_555
H35 C29 1_555 1_555
H36 C29 1_555 1_555
H37 C29 1_555 1_555
C30 C28 1_555 1_555
H38 C30 1_555 1_555
H39 C30 1_555 1_555
H40 C30 1_555 1_555
C31 C28 1_555 1_555
H41 C31 1_555 1_555
H42 C31 1_555 1_555
H43 C31 1_555 1_555
C32 N2 1_555 1_555
C33 O7 1_555 1_555
C34 C33 1_555 1_555
H44 C34 1_555 1_555
H45 C34 1_555 1_555
H46 C34 1_555 1_555
C35 C33 1_555 1_555
H47 C35 1_555 1_555
H48 C35 1_555 1_555
H49 C35 1_555 1_555
C36 C33 1_555 1_555
H50 C36 1_555 1_555
H51 C36 1_555 1_555
H52 C36 1_555 1_555
C5 C6 1_555 1_555
C9 C10 1_555 1_555
C15 C18 1_555 1_555
C19 C20 1_555 1_555
C23 C24 1_555 1_555

#END
