
#######################################################################
#
#                 Cambridge Crystallographic Data Centre
#                                CCDC 
#
#######################################################################
#
# If this CIF has been generated from an entry in the Cambridge 
# Structural Database, then it will include bibliographic, chemical, 
# crystal, experimental, refinement or atomic coordinate data resulting 
# from the CCDC's data processing and validation procedures.
#
#######################################################################

data_RIFPUU
_chemical_formula_moiety         'C23 H28 F1 N1 O3'
_chemical_name_systematic        
't-butyl 4-[4-(benzyloxy)phenyl]-3-fluoropiperidine-1-carboxylate'
_symmetry_cell_setting           monoclinic
_symmetry_space_group_name_H-M   'P 21/c'
_symmetry_Int_Tables_number      14
_space_group_name_Hall           '-P 2ybc'
loop_
_symmetry_equiv_pos_site_id
_symmetry_equiv_pos_as_xyz
1 x,y,z
2 -x,1/2+y,1/2-z
3 -x,-y,-z
4 x,1/2-y,1/2+z
_cell_length_a                   22.097(4)
_cell_length_b                   8.3711(18)
_cell_length_c                   11.718(2)
_cell_angle_alpha                90
_cell_angle_beta                 104.274(8)
_cell_angle_gamma                90
_cell_volume                     2100.63
_exptl_crystal_description       plate
_cell_formula_units_Z            4
_exptl_crystal_recrystallization_method 'ethyl acetate and hexanes'
loop_
_atom_site_label
_atom_site_type_symbol
_atom_site_fract_x
_atom_site_fract_y
_atom_site_fract_z
F1 F 0.23995(9) 0.3427(2) 0.79956(15)
N1 N 0.14835(11) 0.1945(3) 0.90072(19)
O1 O 0.09314(10) 0.3958(3) 0.80170(18)
O2 O 0.12326(12) 0.4072(3) 1.0004(2)
O3 O 0.52876(11) 0.2461(3) 0.8983(2)
C1 C 0.27750(13) 0.1106(4) 0.9110(3)
H1 H 0.2728 -0.0059 0.9082
C2 C 0.25623(14) 0.1672(4) 1.0191(2)
H2 H 0.2819 0.1176 1.0893
H3 H 0.2615 0.2821 1.0272
C3 C 0.18791(14) 0.1242(4) 1.0075(3)
H4 H 0.1832 0.0090 1.0048
H5 H 0.1749 0.1632 1.0758
C4 C 0.16474(13) 0.1399(4) 0.7936(2)
H6 H 0.1384 0.1932 0.7258
H7 H 0.1574 0.0259 0.7843
C5 C 0.23273(13) 0.1755(3) 0.7996(2)
H8 H 0.2437 0.1304 0.7302
C6 C 0.34510(13) 0.1447(4) 0.9115(3)
C7 C 0.46815(15) 0.2059(4) 0.8989(3)
C8 C 0.37406(15) 0.0546(4) 0.8425(3)
H9 H 0.3520 -0.0290 0.7990
C9 C 0.44048(16) 0.2962(5) 0.9708(3)
H10 H 0.4629 0.3784 1.0154
C10 C 0.43461(16) 0.0827(5) 0.8347(3)
H11 H 0.4525 0.0191 0.7868
C11 C 0.38006(15) 0.2658(4) 0.9772(3)
H12 H 0.3624 0.3278 1.0265
C12 C 0.62774(14) 0.1981(4) 0.8563(3)
C13 C 0.66183(15) 0.1435(4) 0.7792(3)
H13 H 0.6435 0.0733 0.7191
C14 C 0.56179(15) 0.1381(4) 0.8419(3)
H14 H 0.5410 0.1302 0.7588
H15 H 0.5625 0.0328 0.8766
C15 C 0.65633(15) 0.3018(4) 0.9449(3)
H16 H 0.6343 0.3387 0.9978
C16 C 0.72277(16) 0.1925(4) 0.7910(3)
H17 H 0.7453 0.1541 0.7394
C17 C 0.71709(15) 0.3515(4) 0.9560(3)
H18 H 0.7356 0.4215 1.0160
C18 C 0.75027(15) 0.2977(4) 0.8785(3)
H19 H 0.7910 0.3323 0.8852
C19 C 0.12214(14) 0.3400(4) 0.9088(3)
C20 C 0.06457(15) 0.5552(4) 0.7854(3)
C21 C 0.01125(18) 0.5666(5) 0.8434(4)
H20 H -0.0183 0.4832 0.8141
H21 H -0.0088 0.6686 0.8260
H22 H 0.0268 0.5553 0.9270
C22 C 0.0393(2) 0.5651(6) 0.6529(4)
H23 H 0.0735 0.5633 0.6157
H24 H 0.0162 0.6625 0.6331
H25 H 0.0124 0.4756 0.6262
C23 C 0.11300(19) 0.6805(5) 0.8303(5)
H26 H 0.1269 0.6726 0.9145
H27 H 0.0953 0.7843 0.8093
H28 H 0.1478 0.6648 0.7961
loop_
_geom_bond_atom_site_label_1
_geom_bond_atom_site_label_2
_geom_bond_site_symmetry_1
_geom_bond_site_symmetry_2
F1 C5 1_555 1_555
N1 C3 1_555 1_555
O1 C19 1_555 1_555
O2 C19 1_555 1_555
O3 C7 1_555 1_555
C1 H1 1_555 1_555
C2 C1 1_555 1_555
H2 C2 1_555 1_555
H3 C2 1_555 1_555
C3 C2 1_555 1_555
H4 C3 1_555 1_555
H5 C3 1_555 1_555
C4 N1 1_555 1_555
H6 C4 1_555 1_555
H7 C4 1_555 1_555
C5 C1 1_555 1_555
H8 C5 1_555 1_555
C6 C1 1_555 1_555
C7 C9 1_555 1_555
C8 C6 1_555 1_555
H9 C8 1_555 1_555
C9 H10 1_555 1_555
C10 C7 1_555 1_555
H11 C10 1_555 1_555
C11 C6 1_555 1_555
H12 C11 1_555 1_555
C12 C13 1_555 1_555
C13 H13 1_555 1_555
C14 O3 1_555 1_555
H14 C14 1_555 1_555
H15 C14 1_555 1_555
C15 C12 1_555 1_555
H16 C15 1_555 1_555
C16 C13 1_555 1_555
H17 C16 1_555 1_555
C17 C15 1_555 1_555
H18 C17 1_555 1_555
C18 C16 1_555 1_555
H19 C18 1_555 1_555
C19 N1 1_555 1_555
C20 O1 1_555 1_555
C21 C20 1_555 1_555
H20 C21 1_555 1_555
H21 C21 1_555 1_555
H22 C21 1_555 1_555
C22 C20 1_555 1_555
H23 C22 1_555 1_555
H24 C22 1_555 1_555
H25 C22 1_555 1_555
C23 C20 1_555 1_555
H26 C23 1_555 1_555
H27 C23 1_555 1_555
H28 C23 1_555 1_555
C4 C5 1_555 1_555
C8 C10 1_555 1_555
C9 C11 1_555 1_555
C12 C14 1_555 1_555
C17 C18 1_555 1_555

#END
