
#######################################################################
#
#                 Cambridge Crystallographic Data Centre
#                                CCDC 
#
#######################################################################
#
# If this CIF has been generated from an entry in the Cambridge 
# Structural Database, then it will include bibliographic, chemical, 
# crystal, experimental, refinement or atomic coordinate data resulting 
# from the CCDC's data processing and validation procedures.
#
#######################################################################

data_RIFPEE
_chemical_formula_moiety         'C21 H17 N1 O3 S1'
_chemical_name_systematic        
8-(methylsulfonyl)-1a,2,7,7a-tetrahydro-1'H-spiro[2,7-epiminocyclopropa[b]naphthalene-1,2'-naphthalen]-1'-one
_symmetry_cell_setting           triclinic
_symmetry_space_group_name_H-M   'P -1'
_symmetry_Int_Tables_number      2
_space_group_name_Hall           '-P 1'
loop_
_symmetry_equiv_pos_site_id
_symmetry_equiv_pos_as_xyz
1 x,y,z
2 -x,-y,-z
_cell_length_a                   8.7745(3)
_cell_length_b                   9.7612(3)
_cell_length_c                   10.9046(4)
_cell_angle_alpha                64.2700(10)
_cell_angle_beta                 87.4410(10)
_cell_angle_gamma                79.6520(10)
_cell_volume                     827.101
_exptl_crystal_colour            colorless
_exptl_crystal_description       needle
_cell_formula_units_Z            2
loop_
_atom_site_label
_atom_site_type_symbol
_atom_site_fract_x
_atom_site_fract_y
_atom_site_fract_z
C1 C 0.3075(2) 0.23118(19) 0.73514(17)
C2 C 0.1677(2) 0.2626(2) 0.66256(18)
C3 C 0.0303(2) 0.2420(2) 0.7345(2)
H1 H -0.0661 0.2677 0.6864
C4 C 0.0347(2) 0.1844(2) 0.8749(2)
H2 H -0.0587 0.1705 0.9227
C5 C 0.1752(2) 0.1467(2) 0.94697(19)
H3 H 0.178 0.1038 1.0436
C6 C 0.3103(2) 0.1721(2) 0.87689(18)
H4 H 0.4057 0.1491 0.9256
C7 C 0.45322(19) 0.26220(18) 0.66187(17)
C8 C 0.45378(18) 0.28132(19) 0.51685(17)
C9 C 0.30013(19) 0.3137(2) 0.44925(17)
H5 H 0.2948 0.3371 0.3552
C10 C 0.1688(2) 0.3109(2) 0.51664(18)
H6 H 0.0726 0.3418 0.4671
C11 C 0.59018(18) 0.35148(18) 0.43667(16)
H7 H 0.6508 0.4037 0.4736
C12 C 0.61064(18) 0.17986(18) 0.50415(16)
H8 H 0.6818 0.1239 0.5868
C13 C 0.64089(18) 0.13056(18) 0.38839(16)
H9 H 0.6285 0.0229 0.4091
C14 C 0.79783(18) 0.17591(19) 0.33471(16)
C15 C 0.94252(19) 0.0916(2) 0.33717(16)
H10 H 0.9624 -0.0179 0.3846
C16 C 1.05934(19) 0.1735(2) 0.26713(18)
H11 H 1.16 0.1182 0.2664
C17 C 1.03099(19) 0.3337(2) 0.19879(17)
H12 H 1.1118 0.3861 0.151
C18 C 0.88493(19) 0.4189(2) 0.19942(17)
H13 H 0.8656 0.5286 0.1547
C19 C 0.77018(18) 0.33810(19) 0.26707(16)
C20 C 0.59887(18) 0.38953(18) 0.28322(16)
H14 H 0.5502 0.4961 0.2174
C21 C 0.65774(18) 0.2443(2) 0.04597(17)
H15 H 0.6298 0.2387 -0.0376
H16 H 0.7361 0.1541 0.0995
H17 H 0.6997 0.3389 0.0222
N1 N 0.53280(15) 0.25814(15) 0.28259(13)
S1 S 0.49104(4) 0.24660(4) 0.14286(4)
O1 O 0.56863(14) 0.26819(14) 0.71742(12)
O2 O 0.44359(13) 0.09925(13) 0.18862(12)
O3 O 0.38303(13) 0.38490(13) 0.06515(12)
loop_
_geom_bond_atom_site_label_1
_geom_bond_atom_site_label_2
_geom_bond_site_symmetry_1
_geom_bond_site_symmetry_2
C1 C2 1_555 1_555
C2 C3 1_555 1_555
C3 H1 1_555 1_555
C4 C3 1_555 1_555
H2 C4 1_555 1_555
C5 C4 1_555 1_555
H3 C5 1_555 1_555
C6 C1 1_555 1_555
H4 C6 1_555 1_555
C7 C1 1_555 1_555
C8 C7 1_555 1_555
C9 C8 1_555 1_555
H5 C9 1_555 1_555
C10 C2 1_555 1_555
H6 C10 1_555 1_555
C11 C8 1_555 1_555
H7 C11 1_555 1_555
C12 C8 1_555 1_555
H8 C12 1_555 1_555
C13 C12 1_555 1_555
H9 C13 1_555 1_555
C14 C13 1_555 1_555
C15 C14 1_555 1_555
H10 C15 1_555 1_555
C16 C15 1_555 1_555
H11 C16 1_555 1_555
C17 C16 1_555 1_555
H12 C17 1_555 1_555
C18 C17 1_555 1_555
H13 C18 1_555 1_555
C19 C14 1_555 1_555
C20 C11 1_555 1_555
H14 C20 1_555 1_555
C21 H15 1_555 1_555
H16 C21 1_555 1_555
H17 C21 1_555 1_555
N1 C13 1_555 1_555
S1 C21 1_555 1_555
O1 C7 1_555 1_555
O2 S1 1_555 1_555
O3 S1 1_555 1_555
C5 C6 1_555 1_555
C9 C10 1_555 1_555
C11 C12 1_555 1_555
C18 C19 1_555 1_555
C19 C20 1_555 1_555
C20 N1 1_555 1_555
N1 S1 1_555 1_555

#END
