
#######################################################################
#
#                 Cambridge Crystallographic Data Centre
#                                CCDC 
#
#######################################################################
#
# If this CIF has been generated from an entry in the Cambridge 
# Structural Database, then it will include bibliographic, chemical, 
# crystal, experimental, refinement or atomic coordinate data resulting 
# from the CCDC's data processing and validation procedures.
#
#######################################################################

data_RIFQUV
_chemical_formula_moiety         'C33 H51 N3 Si1'
_chemical_name_systematic        
1-(1,3-di-t-butyl-4-phenyl-1,2-dihydro-1,3,2-diazasilet-2-yl)-N-[2,6-bis(propan-2-yl)phenyl]-3,3-dimethylbutan-2-imine
_symmetry_cell_setting           monoclinic
_symmetry_space_group_name_H-M   'P 21'
_symmetry_Int_Tables_number      4
_space_group_name_Hall           'P 2yb'
loop_
_symmetry_equiv_pos_site_id
_symmetry_equiv_pos_as_xyz
1 x,y,z
2 -x,1/2+y,-z
_cell_length_a                   12.0057(17)
_cell_length_b                   8.9498(11)
_cell_length_c                   15.480(2)
_cell_angle_alpha                90
_cell_angle_beta                 106.694(3)
_cell_angle_gamma                90
_cell_volume                     1593.2
_exptl_crystal_colour            colorless
_exptl_crystal_description       Prism
_cell_formula_units_Z            2
_chemical_properties_physical    Air-sensitive,Moisture-sensitive
_exptl_crystal_preparation       Fiber
loop_
_atom_site_label
_atom_site_type_symbol
_atom_site_fract_x
_atom_site_fract_y
_atom_site_fract_z
Si1 Si -0.87624(3) -0.63510(4) -0.22141(2)
N1 N -0.67807(10) -0.71079(14) -0.35669(7)
N2 N -0.89792(10) -0.44196(14) -0.18308(7)
C1 C -1.14524(14) -0.2904(2) -0.02690(11)
H1 H -1.1419 -0.3004 0.0336
N3 N -1.03682(10) -0.59512(13) -0.23978(8)
C2 C -0.55435(11) -0.68701(17) -0.20260(9)
C3 C -0.47148(12) -0.6058(2) -0.13871(10)
H2 H -0.4401 -0.6454 -0.0813
C4 C -1.08667(11) -0.37190(16) -0.15576(9)
C5 C -0.60117(10) -0.62391(18) -0.28863(8)
C6 C -0.85684(13) -0.79046(19) -0.45755(10)
C7 C -1.08176(13) -0.3864(2) -0.06506(10)
H3 H -1.0359 -0.4605 -0.0301
C8 C -0.84965(11) -0.58145(16) -0.33683(8)
H4 H -0.9247 -0.5606 -0.3796
H5 H -0.8055 -0.4891 -0.3280
C9 C -1.01104(12) -0.46572(16) -0.19445(8)
C10 C -0.78798(11) -0.69218(16) -0.37952(8)
C11 C -0.43499(13) -0.4672(2) -0.15905(11)
H6 H -0.3798 -0.4141 -0.1154
C12 C -1.14028(13) -0.69041(17) -0.24831(9)
C13 C -0.82646(12) -0.30724(19) -0.15353(9)
C14 C -0.58849(13) -0.84345(18) -0.18293(10)
H7 H -0.6682 -0.8605 -0.2209
C15 C -0.56398(12) -0.48405(18) -0.31074(10)
C16 C -1.15666(13) -0.26270(18) -0.20746(11)
H8 H -1.1614 -0.2531 -0.2682
C17 C -0.48063(13) -0.4076(2) -0.24438(11)
H9 H -0.4551 -0.3146 -0.2576
C18 C -0.69999(14) -0.3595(2) -0.13089(12)
H10 H -0.6846 -0.4295 -0.0819
H11 H -0.6491 -0.2751 -0.1138
H12 H -0.6869 -0.4068 -0.1828
C19 C -1.21286(15) -0.1808(2) -0.07824(14)
H13 H -1.2540 -0.1155 -0.0521
C20 C -0.85203(17) -0.1978(2) -0.23086(13)
H14 H -0.8402 -0.2456 -0.2831
H15 H -0.8009 -0.1134 -0.2146
H16 H -0.9312 -0.1648 -0.2442
C21 C -0.84214(16) -0.2361(3) -0.06881(13)
H17 H -0.9176 -0.1906 -0.0823
H18 H -0.7834 -0.1613 -0.0471
H19 H -0.8353 -0.3113 -0.0234
C22 C -0.60992(14) -0.4225(2) -0.40558(10)
H20 H -0.6907 -0.4561 -0.4291
C23 C -1.22006(15) -0.16706(19) -0.16840(14)
H21 H -1.2673 -0.0939 -0.2032
C24 C -0.6112(3) -0.2532(3) -0.41029(16)
H22 H -0.6485 -0.2139 -0.3680
H23 H -0.6530 -0.2219 -0.4701
H24 H -0.5328 -0.2166 -0.3957
C25 C -0.5430(2) -0.4885(3) -0.46612(14)
H25 H -0.4648 -0.4511 -0.4482
H26 H -0.5802 -0.4607 -0.5276
H27 H -0.5418 -0.5954 -0.4609
C26 C -0.58792(17) -0.8674(2) -0.08533(11)
H28 H -0.5093 -0.8644 -0.0470
H29 H -0.6216 -0.9629 -0.0797
H30 H -0.6324 -0.7900 -0.0679
C27 C -0.5112(2) -0.9558(2) -0.21105(19)
H31 H -0.5139 -0.9388 -0.2728
H32 H -0.5381 -1.0551 -0.2047
H33 H -0.4327 -0.9448 -0.1734
C28 C -1.1250(2) -0.8308(2) -0.29876(18)
H34 H -1.1182 -0.8041 -0.3571
H35 H -1.1912 -0.8948 -0.3058
H36 H -1.0559 -0.8823 -0.2653
C29 C -1.15568(15) -0.7316(2) -0.15707(11)
H37 H -1.0864 -0.7794 -0.1209
H38 H -1.2204 -0.7986 -0.1656
H39 H -1.1700 -0.6427 -0.1272
C30 C -1.25053(15) -0.6119(2) -0.30467(12)
H40 H -1.2645 -0.5246 -0.2733
H41 H -1.3155 -0.6787 -0.3143
H42 H -1.2407 -0.5831 -0.3618
C31 C -0.8604(3) -0.6889(6) -0.54453(18)
H43 H -0.8916 -0.5923 -0.5377
H44 H -0.9087 -0.7363 -0.5978
H45 H -0.7831 -0.6779 -0.5497
C32 C -0.9767(3) -0.8198(4) -0.4574(2)
H46 H -0.9765 -0.8809 -0.4064
H47 H -1.0172 -0.8708 -0.5119
H48 H -1.0151 -0.7269 -0.4537
C33 C -0.7931(3) -0.9308(5) -0.4667(3)
H49 H -0.7181 -0.9057 -0.4731
H50 H -0.8368 -0.9851 -0.5189
H51 H -0.7834 -0.9914 -0.4139
C34? C -0.9828(4) -0.7450(6) -0.4975(3)
H52? H -1.0207 -0.7418 -0.4508
H53? H -1.0212 -0.8164 -0.5425
H54? H -0.9862 -0.6480 -0.5247
C35? C -0.8635(4) -0.9474(4) -0.4058(3)
H55? H -0.7862 -0.9836 -0.3780
H56? H -0.9058 -1.0197 -0.4486
H57? H -0.9024 -0.9314 -0.3604
C36? C -0.7951(6) -0.8182(10) -0.5237(4)
H58? H -0.7815 -0.7252 -0.5499
H59? H -0.8409 -0.8824 -0.5702
H60? H -0.7221 -0.8655 -0.4950
loop_
_geom_bond_atom_site_label_1
_geom_bond_atom_site_label_2
_geom_bond_site_symmetry_1
_geom_bond_site_symmetry_2
Si1 N2 1_555 1_555
N1 C5 1_555 1_555
N2 C9 1_555 1_555
C1 H1 1_555 1_555
N3 Si1 1_555 1_555
C2 C3 1_555 1_555
C3 H2 1_555 1_555
C4 C7 1_555 1_555
C5 C2 1_555 1_555
C6 C10 1_555 1_555
C7 C1 1_555 1_555
H3 C7 1_555 1_555
C8 Si1 1_555 1_555
H4 C8 1_555 1_555
H5 C8 1_555 1_555
C9 N3 1_555 1_555
C10 N1 1_555 1_555
C11 C3 1_555 1_555
H6 C11 1_555 1_555
C12 N3 1_555 1_555
C13 N2 1_555 1_555
C14 C2 1_555 1_555
H7 C14 1_555 1_555
C15 C5 1_555 1_555
C16 C4 1_555 1_555
H8 C16 1_555 1_555
C17 C11 1_555 1_555
H9 C17 1_555 1_555
C18 C13 1_555 1_555
H10 C18 1_555 1_555
H11 C18 1_555 1_555
H12 C18 1_555 1_555
C19 C1 1_555 1_555
H13 C19 1_555 1_555
C20 C13 1_555 1_555
H14 C20 1_555 1_555
H15 C20 1_555 1_555
H16 C20 1_555 1_555
C21 C13 1_555 1_555
H17 C21 1_555 1_555
H18 C21 1_555 1_555
H19 C21 1_555 1_555
C22 C15 1_555 1_555
H20 C22 1_555 1_555
C23 C16 1_555 1_555
H21 C23 1_555 1_555
C24 C22 1_555 1_555
H22 C24 1_555 1_555
H23 C24 1_555 1_555
H24 C24 1_555 1_555
C25 C22 1_555 1_555
H25 C25 1_555 1_555
H26 C25 1_555 1_555
H27 C25 1_555 1_555
C26 C14 1_555 1_555
H28 C26 1_555 1_555
H29 C26 1_555 1_555
H30 C26 1_555 1_555
C27 C14 1_555 1_555
H31 C27 1_555 1_555
H32 C27 1_555 1_555
H33 C27 1_555 1_555
C28 C12 1_555 1_555
H34 C28 1_555 1_555
H35 C28 1_555 1_555
H36 C28 1_555 1_555
C29 C12 1_555 1_555
H37 C29 1_555 1_555
H38 C29 1_555 1_555
H39 C29 1_555 1_555
C30 C12 1_555 1_555
H40 C30 1_555 1_555
H41 C30 1_555 1_555
H42 C30 1_555 1_555
C31 C6 1_555 1_555
H43 C31 1_555 1_555
H44 C31 1_555 1_555
H45 C31 1_555 1_555
C32 C6 1_555 1_555
H46 C32 1_555 1_555
H47 C32 1_555 1_555
H48 C32 1_555 1_555
C33 C6 1_555 1_555
H49 C33 1_555 1_555
H50 C33 1_555 1_555
H51 C33 1_555 1_555
C4 C9 1_555 1_555
C8 C10 1_555 1_555
C15 C17 1_555 1_555
C19 C23 1_555 1_555

#END
