
#######################################################################
#
#                 Cambridge Crystallographic Data Centre
#                                CCDC 
#
#######################################################################
#
# If this CIF has been generated from an entry in the Cambridge 
# Structural Database, then it will include bibliographic, chemical, 
# crystal, experimental, refinement or atomic coordinate data resulting 
# from the CCDC's data processing and validation procedures.
#
#######################################################################

data_RIFQAB
_chemical_formula_moiety         'C23 H27 F1 N2 O2,C1 H4 O1'
_chemical_name_systematic        
'(R)-3-((3S,4R)-3-fluoro-4-(4-hydroxyphenyl)piperidin-1-yl)-1-(4-methylbenzyl)pyrrolidin-2-one methanol solvate'
_symmetry_cell_setting           monoclinic
_symmetry_space_group_name_H-M   'P 21'
_symmetry_Int_Tables_number      4
_space_group_name_Hall           'P 2yb'
loop_
_symmetry_equiv_pos_site_id
_symmetry_equiv_pos_as_xyz
1 x,y,z
2 -x,1/2+y,-z
_cell_length_a                   12.636(2)
_cell_length_b                   9.4893(18)
_cell_length_c                   19.122(4)
_cell_angle_alpha                90
_cell_angle_beta                 95.128(7)
_cell_angle_gamma                90
_cell_volume                     2283.68
_exptl_crystal_description       prism
_cell_formula_units_Z            4
_exptl_crystal_recrystallization_method methanol
loop_
_atom_site_label
_atom_site_type_symbol
_atom_site_fract_x
_atom_site_fract_y
_atom_site_fract_z
F1 F 0.2150(2) 0.4847(4) -0.01063(12)
O1 O 0.5108(3) 0.5741(4) 0.21062(19)
N1 N 0.3883(3) 0.4075(4) 0.09466(18)
N2 N 0.6041(3) 0.3690(4) 0.2190(2)
O2 O -0.2808(2) 0.4962(4) 0.03272(17)
H1 H -0.3028 0.5774 0.0285
C1 C 0.1646(3) 0.4823(5) 0.1069(2)
H2 H 0.1738 0.5383 0.1501
C2 C 0.3287(3) 0.3479(5) 0.1505(2)
H3 H 0.3373 0.4080 0.1917
H4 H 0.3567 0.2555 0.1636
C3 C 0.2317(3) 0.5525(5) 0.0547(2)
H5 H 0.2087 0.6507 0.0488
C4 C 0.3490(3) 0.5512(5) 0.0778(2)
H6 H 0.3877 0.5901 0.0407
H7 H 0.3624 0.6107 0.1189
C5 C 0.2109(3) 0.3357(5) 0.1253(2)
H8 H 0.1729 0.2934 0.1619
H9 H 0.2023 0.2754 0.0843
C6 C 0.0460(3) 0.4841(5) 0.08325(19)
C7 C -0.0146(3) 0.3622(5) 0.0741(2)
H10 H 0.0184 0.2748 0.0794
C8 C -0.1731(3) 0.4977(5) 0.0490(2)
C9 C -0.1232(3) 0.3691(5) 0.0572(2)
H11 H -0.1626 0.2865 0.0514
C10 C -0.1148(3) 0.6204(5) 0.0565(2)
H12 H -0.1480 0.7075 0.0499
C11 C -0.0058(3) 0.6121(5) 0.0741(2)
H13 H 0.0333 0.6949 0.0799
C12 C 0.5051(3) 0.4065(5) 0.1124(2)
H14 H 0.5377 0.4657 0.0782
C13 C 0.5393(3) 0.4627(5) 0.1860(2)
C14 C 0.5553(4) 0.2597(6) 0.1112(3)
H15 H 0.5011 0.1873 0.1114
H16 H 0.5931 0.2480 0.0696
C15 C 0.6310(4) 0.2497(6) 0.1765(3)
H17 H 0.6214 0.1617 0.2009
H18 H 0.7041 0.2559 0.1650
C16 C 0.8188(4) 0.4819(6) 0.2427(2)
H19 H 0.7794 0.5048 0.2008
C17 C 0.7672(4) 0.4201(5) 0.2963(2)
C18 C 0.8292(5) 0.3881(6) 0.3578(2)
H20 H 0.7978 0.3465 0.3949
C19 C 0.9383(5) 0.4176(6) 0.3651(3)
H21 H 0.9773 0.3989 0.4076
C20 C 0.6497(4) 0.3875(6) 0.2901(2)
H22 H 0.6382 0.3023 0.3164
H23 H 0.6128 0.4637 0.3115
C21 C 0.9894(4) 0.4738(6) 0.3103(3)
C22 C 0.9260(4) 0.5103(7) 0.2494(2)
H24 H 0.9567 0.5545 0.2128
C23 C 1.1085(4) 0.5010(9) 0.3152(4)
H25 H 1.1411 0.4383 0.2841
H26 H 1.1382 0.4851 0.3626
H27 H 1.1213 0.5968 0.3022
F2 F 0.7924(2) 0.9135(4) 0.50716(12)
O3 O 0.5078(3) 1.0687(4) 0.28985(19)
O4 O 1.2903(2) 0.9338(4) 0.47080(18)
H28 H 1.3121 1.0125 0.4824
N3 N 0.6201(3) 0.8720(4) 0.39642(17)
N4 N 0.3972(3) 0.8788(4) 0.27224(19)
C24 C 0.8458(3) 0.9425(5) 0.3920(2)
H29 H 0.8386 1.0104 0.3532
C25 C 0.7787(3) 0.9997(5) 0.4478(2)
H30 H 0.8040 1.0946 0.4609
C26 C 0.7971(3) 0.8060(5) 0.3629(2)
H31 H 0.8040 0.7340 0.3990
H32 H 0.8354 0.7743 0.3240
C27 C 0.6804(3) 0.8255(5) 0.3379(2)
H33 H 0.6735 0.8952 0.3006
H34 H 0.6513 0.7373 0.3191
C28 C 0.6624(3) 1.0083(5) 0.4237(2)
H35 H 0.6234 1.0374 0.4628
H36 H 0.6516 1.0791 0.3872
C29 C 1.1833(3) 0.9391(6) 0.4539(2)
C30 C 1.1244(4) 1.0623(6) 0.4554(2)
H37 H 1.1576 1.1467 0.4690
C31 C 1.0235(3) 0.8141(5) 0.4160(2)
H38 H 0.9898 0.7298 0.4030
C32 C 1.0169(3) 1.0594(5) 0.4370(2)
H39 H 0.9785 1.1428 0.4384
C33 C 0.9636(3) 0.9371(5) 0.4163(2)
C34 C 1.1322(3) 0.8138(6) 0.4348(2)
H40 H 1.1705 0.7301 0.4345
C35 C 0.5035(3) 0.8794(5) 0.3774(2)
H41 H 0.4717 0.9300 0.4150
C36 C 0.3634(3) 0.7534(5) 0.3085(3)
H42 H 0.3602 0.6720 0.2777
H43 H 0.2943 0.7675 0.3257
C37 C 0.4720(3) 0.9558(5) 0.3088(2)
C38 C 0.4481(4) 0.7355(5) 0.3682(3)
H44 H 0.4983 0.6633 0.3572
H45 H 0.4168 0.7089 0.4108
C39 C 0.2339(3) 0.9602(5) 0.2015(2)
C40 C 0.1893(4) 1.0158(6) 0.2585(2)
H46 H 0.2314 1.0297 0.3003
C41 C 0.0627(4) 0.9787(5) 0.1361(2)
H47 H 0.0213 0.9678 0.0937
C42 C 0.3499(4) 0.9216(6) 0.2042(2)
H48 H 0.3580 0.8455 0.1712
H49 H 0.3889 1.0021 0.1887
C43 C 0.1692(4) 0.9427(5) 0.1401(2)
H50 H 0.1977 0.9061 0.1007
C44 C 0.0835(4) 1.0512(7) 0.2546(2)
H51 H 0.0555 1.0900 0.2936
C45 C 0.0171(4) 1.0297(6) 0.1929(3)
C46 C -0.1004(4) 1.0644(8) 0.1902(3)
H52 H -0.1319 1.0550 0.1428
H53 H -0.1092 1.1594 0.2059
H54 H -0.1346 1.0008 0.2201
O5 O 0.3902(3) 0.1854(5) 0.4866(2)
H55 H 0.3601 0.2320 0.5149
C47 C 0.4095(7) 0.2752(10) 0.4247(4)
H56 H 0.4633 0.3437 0.4383
H57 H 0.3449 0.3225 0.4082
H58 H 0.4325 0.2170 0.3879
O6 O 0.6164(3) 0.7429(4) 0.0300(2)
H59 H 0.6606 0.7795 0.0069
C48 C 0.6040(7) 0.8245(9) 0.0891(4)
H60 H 0.6666 0.8805 0.1000
H61 H 0.5933 0.7642 0.1282
H62 H 0.5436 0.8853 0.0801
loop_
_geom_bond_atom_site_label_1
_geom_bond_atom_site_label_2
_geom_bond_site_symmetry_1
_geom_bond_site_symmetry_2
F1 C3 1_555 1_555
O1 C13 1_555 1_555
N1 C2 1_555 1_555
N2 C13 1_555 1_555
O2 H1 1_555 1_555
C1 H2 1_555 1_555
C2 H3 1_555 1_555
H4 C2 1_555 1_555
C3 C1 1_555 1_555
H5 C3 1_555 1_555
C4 N1 1_555 1_555
H6 C4 1_555 1_555
H7 C4 1_555 1_555
C5 C1 1_555 1_555
H8 C5 1_555 1_555
H9 C5 1_555 1_555
C6 C1 1_555 1_555
C7 C6 1_555 1_555
H10 C7 1_555 1_555
C8 O2 1_555 1_555
C9 C7 1_555 1_555
H11 C9 1_555 1_555
C10 C8 1_555 1_555
H12 C10 1_555 1_555
C11 C6 1_555 1_555
H13 C11 1_555 1_555
C12 N1 1_555 1_555
H14 C12 1_555 1_555
C13 C12 1_555 1_555
C14 C12 1_555 1_555
H15 C14 1_555 1_555
H16 C14 1_555 1_555
C15 N2 1_555 1_555
H17 C15 1_555 1_555
H18 C15 1_555 1_555
C16 H19 1_555 1_555
C17 C16 1_555 1_555
C18 C17 1_555 1_555
H20 C18 1_555 1_555
C19 C18 1_555 1_555
H21 C19 1_555 1_555
C20 N2 1_555 1_555
H22 C20 1_555 1_555
H23 C20 1_555 1_555
C21 C19 1_555 1_555
C22 C16 1_555 1_555
H24 C22 1_555 1_555
C23 C21 1_555 1_555
H25 C23 1_555 1_555
H26 C23 1_555 1_555
H27 C23 1_555 1_555
F2 C25 1_555 1_555
O3 C37 1_555 1_555
O4 H28 1_555 1_555
N3 C27 1_555 1_555
N4 C36 1_555 1_555
C24 H29 1_555 1_555
C25 C24 1_555 1_555
H30 C25 1_555 1_555
C26 C24 1_555 1_555
H31 C26 1_555 1_555
H32 C26 1_555 1_555
C27 C26 1_555 1_555
H33 C27 1_555 1_555
H34 C27 1_555 1_555
C28 N3 1_555 1_555
H35 C28 1_555 1_555
H36 C28 1_555 1_555
C29 O4 1_555 1_555
C30 C29 1_555 1_555
H37 C30 1_555 1_555
C31 H38 1_555 1_555
C32 C30 1_555 1_555
H39 C32 1_555 1_555
C33 C24 1_555 1_555
C34 C29 1_555 1_555
H40 C34 1_555 1_555
C35 N3 1_555 1_555
H41 C35 1_555 1_555
C36 H42 1_555 1_555
H43 C36 1_555 1_555
C37 N4 1_555 1_555
C38 C35 1_555 1_555
H44 C38 1_555 1_555
H45 C38 1_555 1_555
C39 C40 1_555 1_555
C40 H46 1_555 1_555
C41 H47 1_555 1_555
C42 N4 1_555 1_555
H48 C42 1_555 1_555
H49 C42 1_555 1_555
C43 C39 1_555 1_555
H50 C43 1_555 1_555
C44 C40 1_555 1_555
H51 C44 1_555 1_555
C45 C41 1_555 1_555
C46 C45 1_555 1_555
H52 C46 1_555 1_555
H53 C46 1_555 1_555
H54 C46 1_555 1_555
O5 H55 1_555 1_555
C47 O5 1_555 1_555
H56 C47 1_555 1_555
H57 C47 1_555 1_555
H58 C47 1_555 1_555
O6 H59 1_555 1_555
C48 O6 1_555 1_555
H60 C48 1_555 1_555
H61 C48 1_555 1_555
H62 C48 1_555 1_555
C2 C5 1_555 1_555
C3 C4 1_555 1_555
C8 C9 1_555 1_555
C10 C11 1_555 1_555
C14 C15 1_555 1_555
C17 C20 1_555 1_555
C21 C22 1_555 1_555
C25 C28 1_555 1_555
C31 C33 1_555 1_555
C31 C34 1_555 1_555
C32 C33 1_555 1_555
C35 C37 1_555 1_555
C36 C38 1_555 1_555
C39 C42 1_555 1_555
C41 C43 1_555 1_555
C44 C45 1_555 1_555

#END
