
#######################################################################
#
#                 Cambridge Crystallographic Data Centre
#                                CCDC 
#
#######################################################################
#
# If this CIF has been generated from an entry in the Cambridge 
# Structural Database, then it will include bibliographic, chemical, 
# crystal, experimental, refinement or atomic coordinate data resulting 
# from the CCDC's data processing and validation procedures.
#
#######################################################################

data_RIFROP
_chemical_formula_moiety         'C20 H28 O6,H2 O1'
_chemical_name_systematic        
"7-Hydroxy-4-(hydroxymethyl)-4,4',7a-trimethyl-3-oxo-4'-vinyl-3a,4,5,6,7,7a-hexahydro-3H-spiro[2-benzofuran-1,1'-cyclohex[2]ene]-2'-carboxylic acid monohydrate"
_symmetry_cell_setting           monoclinic
_symmetry_space_group_name_H-M   'P 21'
_symmetry_Int_Tables_number      4
_space_group_name_Hall           'P 2yb'
loop_
_symmetry_equiv_pos_site_id
_symmetry_equiv_pos_as_xyz
1 x,y,z
2 -x,1/2+y,-z
_cell_length_a                   7.31149(14)
_cell_length_b                   12.5358(3)
_cell_length_c                   10.7405(3)
_cell_angle_alpha                90
_cell_angle_beta                 99.9699(13)
_cell_angle_gamma                90
_cell_volume                     969.559
_exptl_crystal_colour            colorless
_exptl_crystal_description       block
_cell_formula_units_Z            2
loop_
_atom_site_label
_atom_site_type_symbol
_atom_site_fract_x
_atom_site_fract_y
_atom_site_fract_z
O1 O -0.0332(3) 0.62233(14) 0.48081(16)
O2 O 0.3329(3) 0.29006(15) 0.84623(16)
O3 O 0.4250(3) 0.65164(17) 0.20103(18)
O4 O 0.6073(3) 0.59621(18) 0.37671(19)
O5 O 0.6655(3) 0.39435(17) 0.67936(17)
O6 O 0.4827(3) 0.41891(15) 0.49229(16)
C1 C 0.0401(4) 0.5861(2) 0.7071(3)
C2 C 0.3046(4) 0.5176(2) 0.3182(3)
C3 C 0.0515(3) 0.5460(2) 0.5738(3)
C4 C 0.3433(3) 0.4557(2) 0.6653(2)
C5 C 0.3526(4) 0.6402(2) 0.5602(3)
C6 C 0.1795(4) 0.4999(2) 0.2128(3)
C7 C 0.2934(4) 0.4610(2) 0.4426(3)
C8 C 0.4607(4) 0.5918(3) 0.3040(3)
C9 C 0.5173(4) 0.4212(3) 0.6195(3)
C10 C -0.0189(4) 0.3898(2) 0.3277(3)
C11 C 0.1383(4) 0.5127(2) 0.8125(3)
C12 C 0.1647(4) 0.3639(2) 0.4144(3)
C13 C 0.4069(4) 0.3913(3) 0.8909(3)
C14 C 0.2553(3) 0.5315(2) 0.5578(3)
C15 C 0.3434(4) 0.4875(2) 0.8046(3)
C16 C -0.1560(4) 0.4856(3) 0.1277(3)
C17 C 0.4717(4) 0.5804(3) 0.8552(3)
C18 C 0.0158(4) 0.4251(3) 0.1961(3)
C19 C 0.0630(4) 0.3283(3) 0.1209(3)
C20 C -0.0316(5) 0.2893(3) 0.0162(3)
H1 H -0.1450 0.6310 0.4876
H2 H 0.2166 0.2915 0.8380
H3 H 0.5164 0.6913 0.1972
H4 H 0.0965 0.6580 0.7184
H5 H -0.0921 0.5928 0.7154
H6 H -0.0149 0.4762 0.5591
H7 H 0.2622 0.3910 0.6529
H8 H 0.4820 0.6298 0.5499
H9 H 0.3492 0.6756 0.6411
H10 H 0.2887 0.6846 0.4910
H11 H 0.1964 0.5393 0.1401
H12 H -0.0834 0.4475 0.3658
H13 H -0.1000 0.3260 0.3188
H14 H 0.0688 0.4447 0.8094
H15 H 0.1338 0.5465 0.8951
H16 H 0.2300 0.3077 0.3743
H17 H 0.1379 0.3350 0.4952
H18 H 0.5441 0.3871 0.9033
H19 H 0.3723 0.4047 0.9746
H20 H -0.2641 0.4381 0.1167
H21 H -0.1336 0.5094 0.0447
H22 H -0.1795 0.5476 0.1781
H23 H 0.4369 0.6439 0.8033
H24 H 0.6006 0.5612 0.8516
H25 H 0.4594 0.5953 0.9429
H26 H 0.1747 0.2920 0.1544
H27 H -0.1446 0.3221 -0.0220
H28 H 0.0128 0.2283 -0.0216
O7 O -0.0113(3) 0.26278(17) 0.71033(19)
H29 H -0.0199 0.2061 0.6422
H30 H -0.1303 0.2840 0.7214
loop_
_geom_bond_atom_site_label_1
_geom_bond_atom_site_label_2
_geom_bond_site_symmetry_1
_geom_bond_site_symmetry_2
O1 C3 1_555 1_555
O2 C13 1_555 1_555
O3 C8 1_555 1_555
O4 C8 1_555 1_555
O5 C9 1_555 1_555
O6 C7 1_555 1_555
C1 C3 1_555 1_555
C2 C6 1_555 1_555
C3 C14 1_555 1_555
C4 C9 1_555 1_555
C5 C14 1_555 1_555
C6 C18 1_555 1_555
C7 C2 1_555 1_555
C8 C2 1_555 1_555
C9 O6 1_555 1_555
C10 C12 1_555 1_555
C11 C1 1_555 1_555
C12 C7 1_555 1_555
C13 C15 1_555 1_555
C14 C4 1_555 1_555
C15 C4 1_555 1_555
C16 C18 1_555 1_555
C17 C15 1_555 1_555
C18 C10 1_555 1_555
C19 C18 1_555 1_555
C20 C19 1_555 1_555
H1 O1 1_555 1_555
H2 O2 1_555 1_555
H3 O3 1_555 1_555
H4 C1 1_555 1_555
H5 C1 1_555 1_555
H6 C3 1_555 1_555
H7 C4 1_555 1_555
H8 C5 1_555 1_555
H9 C5 1_555 1_555
H10 C5 1_555 1_555
H11 C6 1_555 1_555
H12 C10 1_555 1_555
H13 C10 1_555 1_555
H14 C11 1_555 1_555
H15 C11 1_555 1_555
H16 C12 1_555 1_555
H17 C12 1_555 1_555
H18 C13 1_555 1_555
H19 C13 1_555 1_555
H20 C16 1_555 1_555
H21 C16 1_555 1_555
H22 C16 1_555 1_555
H23 C17 1_555 1_555
H24 C17 1_555 1_555
H25 C17 1_555 1_555
H26 C19 1_555 1_555
H27 C20 1_555 1_555
H28 C20 1_555 1_555
O7 H29 1_555 1_555
H30 O7 1_555 1_555
C7 C14 1_555 1_555
C11 C15 1_555 1_555

#END
