
#######################################################################
#
#                 Cambridge Crystallographic Data Centre
#                                CCDC 
#
#######################################################################
#
# If this CIF has been generated from an entry in the Cambridge 
# Structural Database, then it will include bibliographic, chemical, 
# crystal, experimental, refinement or atomic coordinate data resulting 
# from the CCDC's data processing and validation procedures.
#
#######################################################################

data_RIFTIM
_chemical_formula_moiety         'C43 H38 O3 P2'
_chemical_name_systematic        
"((1S,3S,3'S)-7'-(diphenylphosphino)-3,3'-diethyl-3H,3'H-1,1'-spirobi[isobenzofuran]-7-yl)diphenylphosphine oxide"
_symmetry_cell_setting           hexagonal
_symmetry_space_group_name_H-M   'P 64'
_symmetry_Int_Tables_number      172
_space_group_name_Hall           'P 64'
loop_
_symmetry_equiv_pos_site_id
_symmetry_equiv_pos_as_xyz
1 x,y,z
2 -y,x-y,1/3+z
3 -x+y,-x,2/3+z
4 -x,-y,z
5 y,-x+y,1/3+z
6 x-y,x,2/3+z
_cell_length_a                   15.22339(13)
_cell_length_b                   15.22339(13)
_cell_length_c                   12.75692(12)
_cell_angle_alpha                90
_cell_angle_beta                 90
_cell_angle_gamma                120
_cell_volume                     2560.35
_exptl_crystal_colour            colorless
_exptl_crystal_description       plate
_cell_formula_units_Z            3
_exptl_crystal_recrystallization_method 'hexanes/ethyl acetate'
loop_
_atom_site_label
_atom_site_type_symbol
_atom_site_fract_x
_atom_site_fract_y
_atom_site_fract_z
P1 P 0.34919(5) -0.03046(5) 0.57107(5)
O1 O 0.58948(15) 0.05046(15) 0.30078(16)
O2 O 0.3759(3) -0.1081(3) 0.5773(3)
C1 C 0.500000 0.000000 0.3642(3)
C2 C 0.49415(19) 0.0859(2) 0.4172(2)
C3 C 0.4308(2) 0.0845(2) 0.4976(2)
C4 C 0.4359(2) 0.1765(2) 0.5224(2)
H1 H 0.395262 0.178436 0.577897
C5 C 0.4991(2) 0.2654(2) 0.4676(2)
H2 H 0.499257 0.326232 0.484524
C6 C 0.5618(2) 0.2657(2) 0.3884(2)
H3 H 0.605472 0.326162 0.351234
C7 C 0.5589(2) 0.1752(2) 0.3649(2)
C8 C 0.6164(2) 0.1546(2) 0.2820(2)
H4 H 0.690850 0.199526 0.293979
C9 C 0.5906(2) 0.1692(2) 0.1701(2)
H5 H 0.516309 0.127949 0.159714
H6 H 0.610669 0.241279 0.159634
C10 C 0.6437(3) 0.1388(3) 0.0887(3)
H7 H 0.717001 0.176367 0.101340
H8 H 0.629584 0.154779 0.018402
H9 H 0.618678 0.065878 0.093859
C11 C 0.2214(2) -0.0747(2) 0.5223(2)
C12 C 0.1957(2) -0.0177(2) 0.4568(3)
H10 H 0.246555 0.047927 0.434893
C13 C 0.0967(2) -0.0561(3) 0.4235(3)
H11 H 0.079882 -0.016973 0.378499
C14 C 0.0219(2) -0.1515(3) 0.4556(3)
H12 H -0.046195 -0.177261 0.433503
C15 C 0.0466(2) -0.2093(2) 0.5201(3)
H13 H -0.004622 -0.274792 0.542008
C16 C 0.1458(2) -0.1718(2) 0.5524(2)
H14 H 0.162632 -0.212264 0.595364
C17 C 0.3482(2) 0.0187(2) 0.7016(2)
C18 C 0.4409(2) 0.0715(2) 0.7546(2)
H15 H 0.502177 0.087738 0.719424
C19 C 0.4437(3) 0.1002(3) 0.8581(3)
H16 H 0.507100 0.136328 0.893120
C20 C 0.3548(2) 0.0767(2) 0.9114(3)
H17 H 0.357205 0.096328 0.982514
C21 C 0.2626(2) 0.0243(2) 0.8592(2)
H18 H 0.201400 0.007549 0.894853
C22 C 0.2598(2) -0.0038(2) 0.7547(2)
H19 H 0.196477 -0.038802 0.719335
P1C P 0.65081(5) 0.03046(5) 0.57107(5)
O1C O 0.41052(15) -0.05046(15) 0.30078(16)
O2C O 0.6241(3) 0.1081(3) 0.5773(3)
C2C C 0.50585(19) -0.0859(2) 0.4172(2)
C3C C 0.5692(2) -0.0845(2) 0.4976(2)
C4C C 0.5641(2) -0.1765(2) 0.5224(2)
H1C H 0.604738 -0.178436 0.577897
C5C C 0.5009(2) -0.2654(2) 0.4676(2)
H2C H 0.500743 -0.326232 0.484524
C6C C 0.4382(2) -0.2657(2) 0.3884(2)
H3C H 0.394528 -0.326162 0.351234
C7C C 0.4411(2) -0.1752(2) 0.3649(2)
C8C C 0.3836(2) -0.1546(2) 0.2820(2)
H4C H 0.309150 -0.199526 0.293979
C9C C 0.4094(2) -0.1692(2) 0.1701(2)
H5C H 0.483691 -0.127949 0.159714
H6C H 0.389331 -0.241279 0.159634
C10C C 0.3563(3) -0.1388(3) 0.0887(3)
H7C H 0.282999 -0.176367 0.101340
H8C H 0.370416 -0.154779 0.018402
H9C H 0.381322 -0.065878 0.093859
C11C C 0.7786(2) 0.0747(2) 0.5223(2)
C12C C 0.8043(2) 0.0177(2) 0.4568(3)
H10C H 0.753445 -0.047927 0.434893
C13C C 0.9033(2) 0.0561(3) 0.4235(3)
H11C H 0.920118 0.016973 0.378499
C14C C 0.9781(2) 0.1515(3) 0.4556(3)
H12C H 1.046195 0.177261 0.433503
C15C C 0.9534(2) 0.2093(2) 0.5201(3)
H13C H 1.004622 0.274792 0.542008
C16C C 0.8542(2) 0.1718(2) 0.5524(2)
H14C H 0.837368 0.212264 0.595364
C17C C 0.6518(2) -0.0187(2) 0.7016(2)
C18C C 0.5591(2) -0.0715(2) 0.7546(2)
H15C H 0.497823 -0.087738 0.719424
C19C C 0.5563(3) -0.1002(3) 0.8581(3)
H16C H 0.492900 -0.136328 0.893120
C20C C 0.6452(2) -0.0767(2) 0.9114(3)
H17C H 0.642795 -0.096328 0.982514
C21C C 0.7374(2) -0.0243(2) 0.8592(2)
H18C H 0.798600 -0.007549 0.894853
C22C C 0.7402(2) 0.0038(2) 0.7547(2)
H19C H 0.803523 0.038802 0.719335
loop_
_geom_bond_atom_site_label_1
_geom_bond_atom_site_label_2
_geom_bond_site_symmetry_1
_geom_bond_site_symmetry_2
P1 O2 1_555 1_555
O1 C1 1_555 1_555
C1 C2 1_555 1_555
C2 C3 1_555 1_555
C3 P1 1_555 1_555
C4 C3 1_555 1_555
H1 C4 1_555 1_555
C5 C4 1_555 1_555
H2 C5 1_555 1_555
C6 C5 1_555 1_555
H3 C6 1_555 1_555
C7 C2 1_555 1_555
C8 O1 1_555 1_555
H4 C8 1_555 1_555
C9 C8 1_555 1_555
H5 C9 1_555 1_555
H6 C9 1_555 1_555
C10 C9 1_555 1_555
H7 C10 1_555 1_555
H8 C10 1_555 1_555
H9 C10 1_555 1_555
C11 P1 1_555 1_555
C12 C11 1_555 1_555
H10 C12 1_555 1_555
C13 C12 1_555 1_555
H11 C13 1_555 1_555
C14 C13 1_555 1_555
H12 C14 1_555 1_555
C15 C14 1_555 1_555
H13 C15 1_555 1_555
C16 C11 1_555 1_555
H14 C16 1_555 1_555
C17 P1 1_555 1_555
C18 C17 1_555 1_555
H15 C18 1_555 1_555
C19 C18 1_555 1_555
H16 C19 1_555 1_555
C20 C19 1_555 1_555
H17 C20 1_555 1_555
C21 C20 1_555 1_555
H18 C21 1_555 1_555
C22 C17 1_555 1_555
H19 C22 1_555 1_555
P1C O2C 1_555 1_555
O1C C1 1_555 1_555
C2C C1 1_555 1_555
C3C P1C 1_555 1_555
C4C C3C 1_555 1_555
H1C C4C 1_555 1_555
C5C C4C 1_555 1_555
H2C C5C 1_555 1_555
C6C C5C 1_555 1_555
H3C C6C 1_555 1_555
C7C C2C 1_555 1_555
C8C O1C 1_555 1_555
H4C C8C 1_555 1_555
C9C C8C 1_555 1_555
H5C C9C 1_555 1_555
H6C C9C 1_555 1_555
C10C C9C 1_555 1_555
H7C C10C 1_555 1_555
H8C C10C 1_555 1_555
H9C C10C 1_555 1_555
C11C P1C 1_555 1_555
C12C C11C 1_555 1_555
H10C C12C 1_555 1_555
C13C C12C 1_555 1_555
H11C C13C 1_555 1_555
C14C C13C 1_555 1_555
H12C C14C 1_555 1_555
C15C C14C 1_555 1_555
H13C C15C 1_555 1_555
C16C C11C 1_555 1_555
H14C C16C 1_555 1_555
C17C P1C 1_555 1_555
C18C C17C 1_555 1_555
H15C C18C 1_555 1_555
C19C C18C 1_555 1_555
H16C C19C 1_555 1_555
C20C C19C 1_555 1_555
H17C C20C 1_555 1_555
C21C C20C 1_555 1_555
H18C C21C 1_555 1_555
C22C C17C 1_555 1_555
H19C C22C 1_555 1_555
C6 C7 1_555 1_555
C7 C8 1_555 1_555
C15 C16 1_555 1_555
C21 C22 1_555 1_555
C2C C3C 1_555 1_555
C6C C7C 1_555 1_555
C7C C8C 1_555 1_555
C15C C16C 1_555 1_555
C21C C22C 1_555 1_555

#END
