
#######################################################################
#
#                 Cambridge Crystallographic Data Centre
#                                CCDC 
#
#######################################################################
#
# If this CIF has been generated from an entry in the Cambridge 
# Structural Database, then it will include bibliographic, chemical, 
# crystal, experimental, refinement or atomic coordinate data resulting 
# from the CCDC's data processing and validation procedures.
#
#######################################################################

data_RIGDIW01
_chemical_name_common            'Hydrogen acyclovir hydogen maleate'
_chemical_formula_moiety         'C8 H12 N5 O3 1+,C4 H3 O4 1-'
_chemical_name_systematic        
'2-amino-9-((2-hydroxyethoxy)methyl)-6-oxo-6,9-dihydro-1H-purin-7-ium 3-carboxyacrylate'
_chemical_properties_biological  'acyclovir is an antiviral drug'
_symmetry_cell_setting           triclinic
_symmetry_space_group_name_H-M   'P -1'
_symmetry_Int_Tables_number      2
_space_group_name_Hall           '-P 1'
loop_
_symmetry_equiv_pos_site_id
_symmetry_equiv_pos_as_xyz
1 x,y,z
2 -x,-y,-z
_cell_length_a                   8.7710(7)
_cell_length_b                   12.9117(13)
_cell_length_c                   14.1186(15)
_cell_angle_alpha                67.308(10)
_cell_angle_beta                 86.957(8)
_cell_angle_gamma                74.375(8)
_cell_volume                     1418.3
_exptl_crystal_colour            colorless
_exptl_crystal_description       block
_cell_formula_units_Z            4
loop_
_atom_site_label
_atom_site_type_symbol
_atom_site_fract_x
_atom_site_fract_y
_atom_site_fract_z
O1 O 0.25056(15) 0.10416(11) 0.30550(12)
O2 O 0.92019(13) 0.14305(11) 0.48453(10)
O3 O 0.9833(2) 0.13480(14) 0.68262(11)
H1 H 1.013(4) 0.198(3) 0.669(2)
N1 N 0.32937(18) 0.46961(13) 0.19621(13)
H2 H 0.236(3) 0.493(2) 0.171(2)
H3 H 0.384(3) 0.521(2) 0.1963(19)
N2 N 0.54338(16) 0.31676(11) 0.28359(10)
N3 N 0.29888(16) 0.28389(12) 0.25195(11)
N4 N 0.60085(16) 0.00990(12) 0.38711(11)
N5 N 0.74225(15) 0.13103(12) 0.37158(10)
C1 C 0.39355(18) 0.35521(14) 0.24514(12)
C2 C 0.59160(17) 0.19860(14) 0.32771(11)
C3 C 0.50483(18) 0.12124(13) 0.33738(12)
C4 C 0.34237(18) 0.16176(14) 0.29958(13)
C5 C 0.74134(19) 0.01792(14) 0.40641(13)
H4 H 0.8285 -0.0458 0.4396
C6 C 0.88333(18) 0.16870(15) 0.38196(13)
H5 H 0.9738 0.1291 0.3534
H6 H 0.8628 0.2528 0.3428
C7 C 0.81964(19) 0.22261(15) 0.52465(13)
H7 H 0.7100 0.2437 0.4978
H8 H 0.8544 0.2940 0.5035
C8 C 0.8288(2) 0.16476(16) 0.63970(14)
H9 H 0.7574 0.2175 0.6675
H10 H 0.7925 0.0941 0.6598
H11 H 0.204(3) 0.314(2) 0.2290(18)
H12 H 0.575(3) -0.053(2) 0.3983(18)
O4 O 0.72603(16) 0.88027(12) 0.22188(12)
O5 O 0.22497(16) 0.71634(11) 0.01632(11)
O6 O 0.05008(19) 0.97985(13) -0.11147(12)
H13 H 0.048(4) 1.035(3) -0.166(3)
N6 N 0.69547(19) 0.50453(13) 0.30830(12)
H14 H 0.792(3) 0.484(2) 0.329(2)
H15 H 0.651(3) 0.452(2) 0.302(2)
N7 N 0.48228(16) 0.65005(11) 0.21135(10)
N8 N 0.70206(16) 0.69569(13) 0.26242(11)
N9 N 0.39919(17) 0.95900(12) 0.10403(12)
N10 N 0.28765(16) 0.82584(12) 0.10422(11)
C9 C 0.62319(19) 0.61846(14) 0.25927(12)
C10 C 0.42682(17) 0.76762(13) 0.16384(12)
C11 C 0.49588(19) 0.85128(14) 0.16420(12)
C12 C 0.64773(19) 0.81777(15) 0.21599(13)
C13 C 0.27666(19) 0.94123(14) 0.06876(14)
H16 H 0.1932 1.0004 0.0250
C14 C 0.17137(19) 0.77202(15) 0.08351(14)
H17 H 0.1486 0.7153 0.1485
H18 H 0.0723 0.8325 0.0541
C15 C 0.2286(2) 0.79171(17) -0.08974(16)
H19 H 0.2617 0.7434 -0.1302
H20 H 0.3089 0.8334 -0.0949
C16 C 0.0735(3) 0.87952(19) -0.13636(15)
H21 H 0.0717 0.9036 -0.2113
H22 H -0.0134 0.8435 -0.1111
H23 H 0.801(3) 0.667(2) 0.2896(18)
H24 H 0.412(3) 1.030(2) 0.0909(18)
O7 O 0.53956(15) 0.80174(11) 0.43967(11)
O8 O 0.78279(15) 0.74377(11) 0.50787(12)
O9 O 0.98740(16) 0.37186(12) 0.66033(12)
O10 O 0.97453(15) 0.55952(11) 0.60271(11)
H25 H 0.853(3) 0.6757(18) 0.542(2)
C17 C 0.65563(19) 0.72268(14) 0.48812(13)
C18 C 0.64272(19) 0.60061(15) 0.52482(14)
H26 H 0.5450 0.5937 0.5074
C19 C 0.7470(2) 0.49960(15) 0.57831(14)
H27 H 0.7099 0.4332 0.5947
C20 C 0.91471(19) 0.47548(15) 0.61646(13)
O11 O 0.01141(15) 0.43799(12) 0.88065(12)
H28 H 0.118(3) 0.3165(19) 0.935(2)
O12 O 0.01344(16) 0.62208(12) 0.83546(12)
O13 O 0.18824(15) 0.24616(11) 0.97211(11)
O14 O 0.41754(15) 0.17309(11) 1.06266(11)
C21 C 0.07506(19) 0.51699(15) 0.88138(13)
C22 C 0.2304(2) 0.48172(15) 0.93961(15)
H29 H 0.2666 0.5439 0.9396
C23 C 0.3259(2) 0.37582(15) 0.99163(14)
H30 H 0.4193 0.3756 1.0216
C24 C 0.30869(19) 0.25760(14) 1.01002(13)
loop_
_geom_bond_atom_site_label_1
_geom_bond_atom_site_label_2
_geom_bond_site_symmetry_1
_geom_bond_site_symmetry_2
O1 C4 1_555 1_555
O2 C6 1_555 1_555
O3 H1 1_555 1_555
N1 H2 1_555 1_555
H3 N1 1_555 1_555
N2 C1 1_555 1_555
N3 C1 1_555 1_555
N4 C3 1_555 1_555
N5 C2 1_555 1_555
C1 N1 1_555 1_555
C2 N2 1_555 1_555
C3 C2 1_555 1_555
C4 N3 1_555 1_555
C5 N4 1_555 1_555
H4 C5 1_555 1_555
C6 N5 1_555 1_555
H5 C6 1_555 1_555
H6 C6 1_555 1_555
C7 O2 1_555 1_555
H7 C7 1_555 1_555
H8 C7 1_555 1_555
C8 O3 1_555 1_555
H9 C8 1_555 1_555
H10 C8 1_555 1_555
H11 N3 1_555 1_555
H12 N4 1_555 1_555
O4 C12 1_555 1_555
O5 C14 1_555 1_555
O6 H13 1_555 1_555
N6 H14 1_555 1_555
H15 N6 1_555 1_555
N7 C9 1_555 1_555
N8 C9 1_555 1_555
N9 C11 1_555 1_555
N10 C10 1_555 1_555
C9 N6 1_555 1_555
C10 N7 1_555 1_555
C11 C10 1_555 1_555
C12 N8 1_555 1_555
C13 N9 1_555 1_555
H16 C13 1_555 1_555
C14 N10 1_555 1_555
H17 C14 1_555 1_555
H18 C14 1_555 1_555
C15 O5 1_555 1_555
H19 C15 1_555 1_555
H20 C15 1_555 1_555
C16 O6 1_555 1_555
H21 C16 1_555 1_555
H22 C16 1_555 1_555
H23 N8 1_555 1_555
H24 N9 1_555 1_555
O7 C17 1_555 1_555
O8 H25 1_555 1_555
O9 C20 1_555 1_555
O10 C20 1_555 1_555
C17 O8 1_555 1_555
C18 C17 1_555 1_555
H26 C18 1_555 1_555
C19 C18 1_555 1_555
H27 C19 1_555 1_555
C20 C19 1_555 1_555
O11 C21 1_555 1_555
H28 O13 1_555 1_555
O12 C21 1_555 1_555
O13 C24 1_555 1_555
O14 C24 1_555 1_555
C21 C22 1_555 1_555
C22 H29 1_555 1_555
C23 C22 1_555 1_555
H30 C23 1_555 1_555
C24 C23 1_555 1_555
N5 C5 1_555 1_555
C3 C4 1_555 1_555
C7 C8 1_555 1_555
N10 C13 1_555 1_555
C11 C12 1_555 1_555
C15 C16 1_555 1_555

#END
