
#######################################################################
#
#                 Cambridge Crystallographic Data Centre
#                                CCDC 
#
#######################################################################
#
# If this CIF has been generated from an entry in the Cambridge 
# Structural Database, then it will include bibliographic, chemical, 
# crystal, experimental, refinement or atomic coordinate data resulting 
# from the CCDC's data processing and validation procedures.
#
#######################################################################

data_RIGFAP
_chemical_formula_moiety         'C44 H26 I4 N4,0.85(C1 H1 Cl3)'
_chemical_name_systematic        
'5,10,15,20-tetrakis(4-iodophenyl)porphyrin chloroform solvate'
_symmetry_cell_setting           triclinic
_symmetry_space_group_name_H-M   'P -1'
_symmetry_Int_Tables_number      2
_space_group_name_Hall           '-P 1'
loop_
_symmetry_equiv_pos_site_id
_symmetry_equiv_pos_as_xyz
1 x,y,z
2 -x,-y,-z
_cell_length_a                   6.5360(2)
_cell_length_b                   13.4507(3)
_cell_length_c                   13.8558(4)
_cell_angle_alpha                117.135(1)
_cell_angle_beta                 100.6121(10)
_cell_angle_gamma                92.7217(19)
_cell_volume                     1053.4
_exptl_crystal_colour            red
_exptl_crystal_description       plate
_cell_formula_units_Z            1
loop_
_atom_site_label
_atom_site_type_symbol
_atom_site_fract_x
_atom_site_fract_y
_atom_site_fract_z
C1 C 0.1833(8) 0.1556(5) 1.0933(5)
C2 C 0.0763(9) 0.2459(5) 1.0855(5)
H1 H -0.0278 0.2811 1.1238
C3 C 0.1544(9) 0.2692(5) 1.0134(5)
H2 H 0.1163 0.3246 0.9917
C4 C 0.3076(8) 0.1939(5) 0.9750(5)
C5 C 0.4319(8) 0.1964(5) 0.9036(5)
C6 C 0.5798(8) 0.1245(5) 0.8664(5)
C7 C 0.6835(9) 0.1118(5) 0.7788(5)
H3 H 0.6740 0.1562 0.7415
C8 C 0.7969(9) 0.0254(5) 0.7590(5)
H4 H 0.8793 -0.0022 0.7049
C9 C 0.7694(8) -0.0167(5) 0.8347(5)
C10 C 0.1488(8) 0.1105(5) 1.1624(5)
N1 N 0.3196(7) 0.1257(4) 1.0243(4)
N2 N 0.6385(7) 0.0454(4) 0.8988(4)
H6 H 0.5988 0.0361 0.9518
C11 C 0.4083(8) 0.2831(5) 0.8647(5)
C12 C 0.2174(9) 0.2884(6) 0.8046(6)
H7 H 0.0981 0.2346 0.7861
C13 C 0.1978(10) 0.3719(6) 0.7708(6)
H8 H 0.0656 0.3761 0.7318
C14 C 0.3727(9) 0.4477(5) 0.7950(5)
C15 C 0.5656(9) 0.4438(5) 0.8528(5)
H9 H 0.6855 0.4961 0.8682
C16 C 0.5819(9) 0.3625(5) 0.8882(5)
H10 H 0.7138 0.3606 0.9293
I1 I 0.34452(6) 0.57354(3) 0.74490(3)
C17 C 0.0270(8) 0.1723(5) 1.2497(5)
C18 C 0.1202(8) 0.2768(5) 1.3377(5)
H11 H 0.2541 0.3091 1.3393
C19 C 0.0214(8) 0.3355(5) 1.4239(5)
H12 H 0.0880 0.4063 1.4849
C20 C -0.1765(8) 0.2883(5) 1.4187(5)
C21 C -0.2754(9) 0.1843(5) 1.3297(5)
H13 H -0.4113 0.1530 1.3267
C22 C -0.1726(9) 0.1271(5) 1.2456(5)
H14 H -0.2390 0.0563 1.1845
I2 I -0.32858(6) 0.37844(3) 1.54767(3)
C1A C 0.8167(8) -0.1556(5) 0.9067(5)
C2A C 0.9237(9) -0.2459(5) 0.9145(5)
H1A H 1.0278 -0.2811 0.8762
C3A C 0.8456(9) -0.2692(5) 0.9866(5)
H2A H 0.8837 -0.3246 1.0083
C4A C 0.6924(8) -0.1939(5) 1.0250(5)
C5A C 0.5681(8) -0.1964(5) 1.0964(5)
C6A C 0.4202(8) -0.1245(5) 1.1336(5)
C7A C 0.3165(9) -0.1118(5) 1.2212(5)
H3A H 0.3260 -0.1562 1.2585
C8A C 0.2031(9) -0.0254(5) 1.2410(5)
H4A H 0.1207 0.0022 1.2951
C9A C 0.2306(8) 0.0167(5) 1.1653(5)
C10A C 0.8512(8) -0.1105(5) 0.8376(5)
N1A N 0.6804(7) -0.1257(4) 0.9757(4)
N2A N 0.3615(7) -0.0454(4) 1.1012(4)
H6A H 0.4012 -0.0361 1.0482
C11A C 0.5917(8) -0.2831(5) 1.1353(5)
C12A C 0.7826(9) -0.2884(6) 1.1954(6)
H7A H 0.9019 -0.2346 1.2139
C13A C 0.8022(10) -0.3719(6) 1.2292(6)
H8A H 0.9344 -0.3761 1.2682
C14A C 0.6273(9) -0.4477(5) 1.2050(5)
C15A C 0.4344(9) -0.4438(5) 1.1472(5)
H9A H 0.3145 -0.4961 1.1318
C16A C 0.4181(9) -0.3625(5) 1.1118(5)
H10A H 0.2862 -0.3606 1.0707
I1A I 0.65548(6) -0.57354(3) 1.25510(3)
C17A C 0.9730(8) -0.1723(5) 0.7503(5)
C18A C 0.8798(8) -0.2768(5) 0.6623(5)
H11A H 0.7459 -0.3091 0.6607
C19A C 0.9786(8) -0.3355(5) 0.5761(5)
H12A H 0.9120 -0.4063 0.5151
C20A C 1.1765(8) -0.2883(5) 0.5813(5)
C21A C 1.2754(9) -0.1843(5) 0.6703(5)
H13A H 1.4113 -0.1530 0.6733
C22A C 1.1726(9) -0.1271(5) 0.7544(5)
H14A H 1.2390 -0.0563 0.8155
I2A I 1.32858(6) -0.37844(3) 0.45233(3)
H5? H 0.3999 0.0727 1.0136
C23? C 0.831(3) -0.049(2) 0.449(2)
H15? H 0.7957 -0.0677 0.3691
Cl1? Cl 0.6598(8) -0.1488(4) 0.4580(4)
Cl2? Cl 0.7716(11) 0.0848(6) 0.5204(6)
Cl3? Cl 1.0911(11) -0.0657(6) 0.4783(6)
loop_
_geom_bond_atom_site_label_1
_geom_bond_atom_site_label_2
_geom_bond_site_symmetry_1
_geom_bond_site_symmetry_2
C1 C2 1_555 1_555
C2 H1 1_555 1_555
C3 C2 1_555 1_555
H2 C3 1_555 1_555
C4 C3 1_555 1_555
C5 C4 1_555 1_555
C6 C5 1_555 1_555
C7 C6 1_555 1_555
H3 C7 1_555 1_555
C8 C7 1_555 1_555
H4 C8 1_555 1_555
C9 C8 1_555 1_555
C10 C1 1_555 1_555
N1 C1 1_555 1_555
N2 C6 1_555 1_555
H6 N2 1_555 1_555
C11 C5 1_555 1_555
C12 C11 1_555 1_555
H7 C12 1_555 1_555
C13 C12 1_555 1_555
H8 C13 1_555 1_555
C14 C13 1_555 1_555
C15 C14 1_555 1_555
H9 C15 1_555 1_555
C16 C11 1_555 1_555
H10 C16 1_555 1_555
I1 C14 1_555 1_555
C17 C10 1_555 1_555
C18 C17 1_555 1_555
H11 C18 1_555 1_555
C19 C18 1_555 1_555
H12 C19 1_555 1_555
C20 C19 1_555 1_555
C21 C20 1_555 1_555
H13 C21 1_555 1_555
C22 C17 1_555 1_555
H14 C22 1_555 1_555
I2 C20 1_555 1_555
C1A C2A 1_555 1_555
C2A H1A 1_555 1_555
C3A C2A 1_555 1_555
H2A C3A 1_555 1_555
C4A C3A 1_555 1_555
C5A C4A 1_555 1_555
C6A C5A 1_555 1_555
C7A C6A 1_555 1_555
H3A C7A 1_555 1_555
C8A C7A 1_555 1_555
H4A C8A 1_555 1_555
C9A C10 1_555 1_555
C10A C9 1_555 1_555
N1A C1A 1_555 1_555
N2A C6A 1_555 1_555
H6A N2A 1_555 1_555
C11A C5A 1_555 1_555
C12A C11A 1_555 1_555
H7A C12A 1_555 1_555
C13A C12A 1_555 1_555
H8A C13A 1_555 1_555
C14A C13A 1_555 1_555
C15A C14A 1_555 1_555
H9A C15A 1_555 1_555
C16A C11A 1_555 1_555
H10A C16A 1_555 1_555
I1A C14A 1_555 1_555
C17A C10A 1_555 1_555
C18A C17A 1_555 1_555
H11A C18A 1_555 1_555
C19A C18A 1_555 1_555
H12A C19A 1_555 1_555
C20A C19A 1_555 1_555
C21A C20A 1_555 1_555
H13A C21A 1_555 1_555
C22A C17A 1_555 1_555
H14A C22A 1_555 1_555
I2A C20A 1_555 1_555
C4 N1 1_555 1_555
C9 N2 1_555 1_555
C15 C16 1_555 1_555
C21 C22 1_555 1_555
C1A C10A 1_555 1_555
C4A N1A 1_555 1_555
C8A C9A 1_555 1_555
C9A N2A 1_555 1_555
C15A C16A 1_555 1_555
C21A C22A 1_555 1_555

#END
