
#######################################################################
#
#                 Cambridge Crystallographic Data Centre
#                                CCDC 
#
#######################################################################
#
# If this CIF has been generated from an entry in the Cambridge 
# Structural Database, then it will include bibliographic, chemical, 
# crystal, experimental, refinement or atomic coordinate data resulting 
# from the CCDC's data processing and validation procedures.
#
#######################################################################

data_RIGKUO
_chemical_formula_moiety         'C46 H29 N5 O6,2.5(C2 H6 O1 S1)'
_chemical_name_systematic        
'20-(4-pyridyl)porphyrin-5^4^,10^4^,15^4^-tribenzoic acid dimethylsulfoxide solvate'
_symmetry_cell_setting           monoclinic
_symmetry_space_group_name_H-M   'C c'
_symmetry_Int_Tables_number      9
_space_group_name_Hall           'C -2yc'
loop_
_symmetry_equiv_pos_site_id
_symmetry_equiv_pos_as_xyz
1 x,y,z
2 x,-y,1/2+z
3 1/2+x,1/2+y,z
4 1/2+x,1/2-y,1/2+z
_cell_length_a                   6.5978(3)
_cell_length_b                   29.2458(15)
_cell_length_c                   28.6630(13)
_cell_angle_alpha                90
_cell_angle_beta                 90.521(2)
_cell_angle_gamma                90
_cell_volume                     5530.52
_exptl_crystal_colour            red
_exptl_crystal_description       plate
_cell_formula_units_Z            4
loop_
_atom_site_label
_atom_site_type_symbol
_atom_site_fract_x
_atom_site_fract_y
_atom_site_fract_z
C1 C 0.9735(8) 0.75532(18) 0.53134(18)
C2 C 1.0592(8) 0.77624(18) 0.49060(17)
H1 H 1.1778 0.7946 0.4895
C3 C 0.9370(8) 0.76457(18) 0.45372(19)
H2 H 0.9548 0.7734 0.4221
C4 C 0.7784(7) 0.73678(16) 0.47146(17)
C5 C 0.6218(7) 0.71900(16) 0.44393(16)
C6 C 0.4575(8) 0.69214(18) 0.46062(18)
C7 C 0.3114(8) 0.6688(2) 0.43233(19)
H3 H 0.2982 0.6709 0.3994
C8 C 0.1979(9) 0.6437(2) 0.46015(19)
H4 H 0.0914 0.6240 0.4503
C9 C 0.2613(7) 0.65105(17) 0.50791(18)
C10 C 0.1910(7) 0.62917(18) 0.54724(18)
C11 C 0.2715(7) 0.63460(17) 0.59217(17)
C12 C 0.1785(8) 0.61323(18) 0.63464(18)
H5 H 0.0585 0.5953 0.6359
C13 C 0.3009(8) 0.62484(19) 0.67034(18)
H6 H 0.2834 0.6165 0.7021
C14 C 0.4642(8) 0.65225(17) 0.65190(17)
C15 C 0.6312(8) 0.66854(19) 0.67856(18)
C16 C 0.7873(8) 0.69571(19) 0.66418(16)
C17 C 0.9356(8) 0.71811(18) 0.69097(18)
H7 H 0.9496 0.7161 0.7239
C18 C 1.0561(7) 0.74306(18) 0.66265(17)
H8 H 1.1689 0.7610 0.6724
C19 C 0.9858(7) 0.73788(17) 0.61621(17)
C20 C 1.0554(7) 0.76013(16) 0.57531(19)
N1 N 0.8034(6) 0.73098(14) 0.51951(13)
N2 N 0.4246(6) 0.68098(13) 0.50577(13)
H10 H 0.4952 0.6910 0.5299
N3 N 0.4450(6) 0.65841(14) 0.60522(13)
N4 N 0.8267(6) 0.70782(14) 0.61780(13)
H12 H 0.7593 0.6976 0.5933
C21 C 0.6215(8) 0.72942(19) 0.39332(17)
C22 C 0.4565(9) 0.7553(2) 0.37418(19)
H13 H 0.3487 0.7660 0.3930
C23 C 0.4626(9) 0.7642(2) 0.3257(2)
H14 H 0.3575 0.7824 0.3124
N5 N 0.6039(8) 0.74902(17) 0.29782(14)
C24 C 0.7603(9) 0.7265(2) 0.31617(18)
H15 H 0.8689 0.7177 0.2966
C25 C 0.7693(9) 0.71522(19) 0.36370(19)
H16 H 0.8794 0.6975 0.3754
C26 C 0.0263(7) 0.59407(19) 0.53981(18)
C27 C -0.1661(8) 0.6076(2) 0.52249(18)
H17 H -0.1984 0.6388 0.5171
C28 C -0.3075(8) 0.5724(2) 0.51358(18)
H18 H -0.4393 0.5803 0.5027
C29 C -0.2618(7) 0.52780(18) 0.52006(17)
C30 C -0.0735(7) 0.51503(18) 0.53823(16)
H19 H -0.0423 0.4837 0.5434
C31 C 0.0683(7) 0.54888(18) 0.54863(18)
H20 H 0.1954 0.5406 0.5620
C32 C -0.4136(9) 0.4912(2) 0.5067(2)
O1 O -0.5799(6) 0.50111(14) 0.49172(17)
O2 O -0.3460(6) 0.44941(12) 0.51125(13)
H21 H -0.4269 0.4312 0.4982
C33 C 0.6221(7) 0.65808(17) 0.73043(17)
C34 C 0.7675(9) 0.6304(2) 0.75036(18)
H22 H 0.8761 0.6193 0.7320
C35 C 0.7565(10) 0.6186(2) 0.7969(2)
H23 H 0.8575 0.5994 0.8104
C36 C 0.5980(9) 0.63466(19) 0.82441(18)
C37 C 0.4605(8) 0.6637(2) 0.80424(19)
H24 H 0.3561 0.6759 0.8231
C38 C 0.4657(7) 0.67569(18) 0.75958(17)
H25 H 0.3662 0.6958 0.7471
C39 C 0.5868(9) 0.6189(2) 0.87347(19)
O3 O 0.6918(8) 0.5904(2) 0.89125(17)
O4 O 0.4421(7) 0.63973(14) 0.89736(13)
H26 H 0.4064 0.6230 0.9197
C40 C 1.2184(7) 0.79360(18) 0.58330(16)
C41 C 1.1776(8) 0.84015(19) 0.57746(18)
H27 H 1.0493 0.8493 0.5654
C42 C 1.3197(9) 0.8734(2) 0.58884(19)
H28 H 1.2880 0.9049 0.5848
C43 C 1.5101(8) 0.86040(19) 0.60628(17)
C44 C 1.5528(8) 0.81516(19) 0.6125(2)
H29 H 1.6797 0.8062 0.6255
C45 C 1.4113(8) 0.78219(18) 0.60005(18)
H30 H 1.4468 0.7508 0.6030
C46 C 1.6565(9) 0.89627(19) 0.62124(18)
O5 O 1.5896(6) 0.93832(13) 0.61762(15)
H31 H 1.6871 0.9566 0.6203
O6 O 1.8275(5) 0.88628(13) 0.63697(14)
S1 S 0.0706(3) 0.98598(6) 0.63830(7)
O7 O -0.1534(7) 0.99532(16) 0.6517(2)
C47 C 0.2050(14) 1.0371(3) 0.6482(3)
H32 H 0.1990 1.0450 0.6813
H33 H 0.1441 1.0617 0.6296
H34 H 0.3466 1.0330 0.6391
C48 C 0.1660(11) 0.9553(3) 0.6862(4)
H35 H 0.1170 0.9236 0.6847
H36 H 0.1198 0.9695 0.7152
H37 H 0.3145 0.9554 0.6855
S2 S 0.1583(2) 0.59419(5) 0.98836(5)
O8 O 0.3795(5) 0.60862(12) 0.98094(11)
C49 C 0.0899(10) 0.5602(2) 0.9383(2)
H38 H 0.1658 0.5314 0.9390
H39 H 0.1224 0.5770 0.9097
H40 H -0.0558 0.5536 0.9388
C50 C 0.0242(10) 0.6456(2) 0.9742(2)
H41 H 0.0427 0.6528 0.9411
H42 H 0.0770 0.6708 0.9932
H43 H -0.1204 0.6414 0.9804
H9? H 0.7259 0.7150 0.5383
H11? H 0.5256 0.6742 0.5870
loop_
_geom_bond_atom_site_label_1
_geom_bond_atom_site_label_2
_geom_bond_site_symmetry_1
_geom_bond_site_symmetry_2
C1 C2 1_555 1_555
C2 H1 1_555 1_555
C3 C2 1_555 1_555
H2 C3 1_555 1_555
C4 C3 1_555 1_555
C5 C4 1_555 1_555
C6 C5 1_555 1_555
C7 C6 1_555 1_555
H3 C7 1_555 1_555
C8 C7 1_555 1_555
H4 C8 1_555 1_555
C9 C8 1_555 1_555
C10 C9 1_555 1_555
C11 C10 1_555 1_555
C12 C11 1_555 1_555
H5 C12 1_555 1_555
C13 C12 1_555 1_555
H6 C13 1_555 1_555
C14 C13 1_555 1_555
C15 C14 1_555 1_555
C16 C15 1_555 1_555
C17 C16 1_555 1_555
H7 C17 1_555 1_555
C18 C17 1_555 1_555
H8 C18 1_555 1_555
C19 C18 1_555 1_555
C20 C1 1_555 1_555
N1 C1 1_555 1_555
N2 C6 1_555 1_555
H10 N2 1_555 1_555
N3 C11 1_555 1_555
N4 C16 1_555 1_555
H12 N4 1_555 1_555
C21 C5 1_555 1_555
C22 C21 1_555 1_555
H13 C22 1_555 1_555
C23 C22 1_555 1_555
H14 C23 1_555 1_555
N5 C23 1_555 1_555
C24 N5 1_555 1_555
H15 C24 1_555 1_555
C25 C21 1_555 1_555
H16 C25 1_555 1_555
C26 C10 1_555 1_555
C27 C26 1_555 1_555
H17 C27 1_555 1_555
C28 C27 1_555 1_555
H18 C28 1_555 1_555
C29 C28 1_555 1_555
C30 C29 1_555 1_555
H19 C30 1_555 1_555
C31 C26 1_555 1_555
H20 C31 1_555 1_555
C32 C29 1_555 1_555
O1 C32 1_555 1_555
O2 C32 1_555 1_555
H21 O2 1_555 1_555
C33 C15 1_555 1_555
C34 C33 1_555 1_555
H22 C34 1_555 1_555
C35 C34 1_555 1_555
H23 C35 1_555 1_555
C36 C35 1_555 1_555
C37 C36 1_555 1_555
H24 C37 1_555 1_555
C38 C33 1_555 1_555
H25 C38 1_555 1_555
C39 C36 1_555 1_555
O3 C39 1_555 1_555
O4 C39 1_555 1_555
H26 O4 1_555 1_555
C40 C20 1_555 1_555
C41 C40 1_555 1_555
H27 C41 1_555 1_555
C42 C41 1_555 1_555
H28 C42 1_555 1_555
C43 C42 1_555 1_555
C44 C43 1_555 1_555
H29 C44 1_555 1_555
C45 C40 1_555 1_555
H30 C45 1_555 1_555
C46 C43 1_555 1_555
O5 C46 1_555 1_555
H31 O5 1_555 1_555
O6 C46 1_555 1_555
S1 O7 1_555 1_555
C47 S1 1_555 1_555
H32 C47 1_555 1_555
H33 C47 1_555 1_555
H34 C47 1_555 1_555
C48 S1 1_555 1_555
H35 C48 1_555 1_555
H36 C48 1_555 1_555
H37 C48 1_555 1_555
S2 O8 1_555 1_555
C49 S2 1_555 1_555
H38 C49 1_555 1_555
H39 C49 1_555 1_555
H40 C49 1_555 1_555
C50 S2 1_555 1_555
H41 C50 1_555 1_555
H42 C50 1_555 1_555
H43 C50 1_555 1_555
C4 N1 1_555 1_555
C9 N2 1_555 1_555
C14 N3 1_555 1_555
C19 C20 1_555 1_555
C19 N4 1_555 1_555
C24 C25 1_555 1_555
C30 C31 1_555 1_555
C37 C38 1_555 1_555
C44 C45 1_555 1_555

#END
