
#######################################################################
#
#                 Cambridge Crystallographic Data Centre
#                                CCDC 
#
#######################################################################
#
# If this CIF has been generated from an entry in the Cambridge 
# Structural Database, then it will include bibliographic, chemical, 
# crystal, experimental, refinement or atomic coordinate data resulting 
# from the CCDC's data processing and validation procedures.
#
#######################################################################

data_RIGLAV
_chemical_formula_moiety         'C46 H29 N5 O6,2(C7 H7 N1 O1),10(C4 H8 O1)'
_chemical_name_systematic        
'20-(4-pyridyl)porphyrin-5^4^,10^4^,15^4^-tribenzoic acid 4-acetylpyridine tetrahydrofuran solvate'
_symmetry_cell_setting           triclinic
_symmetry_space_group_name_H-M   'P 1'
_symmetry_Int_Tables_number      1
_space_group_name_Hall           'P 1'
loop_
_symmetry_equiv_pos_site_id
_symmetry_equiv_pos_as_xyz
1 x,y,z
_cell_length_a                   7.6005(3)
_cell_length_b                   15.6609(10)
_cell_length_c                   18.6149(12)
_cell_angle_alpha                77.718(3)
_cell_angle_beta                 89.630(4)
_cell_angle_gamma                78.805(4)
_cell_volume                     2122.43
_exptl_crystal_colour            red
_exptl_crystal_description       prism
_cell_formula_units_Z            1
loop_
_atom_site_label
_atom_site_type_symbol
_atom_site_fract_x
_atom_site_fract_y
_atom_site_fract_z
C47 C -0.4261(5) -0.6417(3) 0.6232(3)
H32 H -0.3760 -0.6978 0.6124
C48 C -0.3117(6) -0.5920(3) 0.6401(2)
H33 H -0.1860 -0.6108 0.6367
N6 N -0.3771(5) -0.5158(3) 0.6616(3)
C49 C -0.5561(6) -0.4914(4) 0.6609(4)
H34 H -0.6037 -0.4361 0.6738
C50 C -0.6739(6) -0.5379(3) 0.6437(3)
H35 H -0.7993 -0.5179 0.6470
C51 C -0.6062(5) -0.6168(3) 0.6207(3)
C52 C -0.7277(7) -0.6679(4) 0.5991(3)
O7 O -0.8967(4) -0.6356(2) 0.5947(2)
C53 C -0.6626(7) -0.7517(4) 0.5710(4)
H36 H -0.7659 -0.7751 0.5581
H37 H -0.5877 -0.7964 0.6093
H38 H -0.5919 -0.7381 0.5273
C54 C 1.4501(4) 0.7286(3) 0.9038(3)
H39 H 1.4006 0.7817 0.9198
C55 C 1.3432(6) 0.6753(4) 0.8810(3)
H40 H 1.2168 0.6957 0.8791
N7 N 1.4050(4) 0.5984(3) 0.8619(2)
C56 C 1.5831(4) 0.5709(3) 0.8584(3)
H41 H 1.6285 0.5181 0.8413
C57 C 1.7027(5) 0.6198(3) 0.8800(3)
H42 H 1.8286 0.5987 0.8797
C58 C 1.6374(5) 0.6978(3) 0.9013(3)
C59 C 1.7685(6) 0.7522(3) 0.9251(3)
O8 O 1.9232(4) 0.7263(2) 0.9260(2)
C60 C 1.6874(6) 0.8395(3) 0.9400(3)
H43 H 1.7821 0.8684 0.9533
H44 H 1.6056 0.8314 0.9807
H45 H 1.6204 0.8769 0.8959
C1 C 0.3180(6) -0.0668(3) 0.6753(3)
C2 C 0.3226(6) -0.0884(4) 0.6042(3)
H1 H 0.2471 -0.1223 0.5871
C3 C 0.4493(7) -0.0534(4) 0.5660(3)
H2 H 0.4796 -0.0593 0.5174
C4 C 0.5337(5) -0.0057(3) 0.6086(2)
C5 C 0.6771(6) 0.0389(3) 0.5913(2)
C6 C 0.7563(5) 0.0846(3) 0.6315(3)
C7 C 0.8970(6) 0.1295(3) 0.6083(2)
H3 H 0.9553 0.1303 0.5630
C8 C 0.9358(6) 0.1711(3) 0.6604(2)
H4 H 1.0218 0.2081 0.6589
C9 C 0.8194(5) 0.1475(3) 0.7185(3)
C10 C 0.8193(5) 0.1760(3) 0.7860(2)
C11 C 0.7107(6) 0.1487(3) 0.8464(2)
C12 C 0.7136(6) 0.1697(3) 0.9160(2)
H5 H 0.7911 0.2034 0.9320
C13 C 0.5833(6) 0.1326(3) 0.9577(3)
H6 H 0.5563 0.1358 1.0071
C14 C 0.4989(6) 0.0893(3) 0.9125(2)
C15 C 0.3533(5) 0.0467(3) 0.9335(3)
C16 C 0.2739(6) 0.0003(3) 0.8876(2)
C17 C 0.1206(6) -0.0468(3) 0.9126(3)
H7 H 0.0612 -0.0489 0.9579
C18 C 0.0865(5) -0.0844(3) 0.8582(3)
H8 H -0.0023 -0.1194 0.8574
C19 C 0.2121(5) -0.0622(3) 0.7986(2)
C20 C 0.2099(5) -0.0866(3) 0.7323(3)
N1 N 0.4514(4) -0.0151(2) 0.67491(18)
N2 N 0.7111(4) 0.0947(2) 0.70131(19)
H10 H 0.6299 0.0719 0.7288
N3 N 0.5828(4) 0.0971(2) 0.8457(2)
N4 N 0.3243(4) -0.0114(2) 0.81933(18)
H12 H 0.4107 0.0092 0.7937
C21 C 0.7530(6) 0.0305(3) 0.5172(2)
C22 C 0.8549(6) -0.0486(3) 0.5058(3)
H13 H 0.8724 -0.0997 0.5449
C23 C 0.9309(6) -0.0555(3) 0.4402(3)
H14 H 0.9995 -0.1113 0.4349
N5 N 0.9116(6) 0.0130(4) 0.3842(2)
C24 C 0.8052(11) 0.0867(5) 0.3918(3)
H15 H 0.7798 0.1346 0.3501
C25 C 0.7267(9) 0.0987(3) 0.4580(3)
H16 H 0.6553 0.1547 0.4611
C26 C 0.9417(6) 0.2368(3) 0.7977(2)
C27 C 1.1252(5) 0.2165(3) 0.7929(2)
H17 H 1.1784 0.1610 0.7818
C28 C 1.2353(6) 0.2738(3) 0.8036(3)
H18 H 1.3622 0.2576 0.8020
C29 C 1.1498(6) 0.3588(3) 0.8174(2)
C30 C 0.9683(6) 0.3788(3) 0.8204(3)
H19 H 0.9135 0.4353 0.8295
C31 C 0.8597(5) 0.3203(3) 0.8109(3)
H20 H 0.7330 0.3361 0.8132
C32 C 1.2709(7) 0.4202(4) 0.8286(3)
O1 O 1.4358(4) 0.3999(2) 0.8325(2)
O2 O 1.1830(4) 0.4959(2) 0.8365(3)
H21 H 1.2541 0.5255 0.8490
C33 C 0.2706(4) 0.0544(2) 1.00409(13)
C34 C 0.1719(4) 0.1355(2) 1.01351(15)
H22 H 0.1556 0.1862 0.9739
C35 C 0.0970(4) 0.1425(2) 1.08084(19)
H23 H 0.0295 0.1980 1.0873
C36 C 0.1208(4) 0.0684(3) 1.13876(14)
C37 C 0.2195(4) -0.0128(2) 1.12933(15)
H24 H 0.2358 -0.0635 1.1689
C38 C 0.2944(4) -0.01979(18) 1.06200(18)
H25 H 0.3619 -0.0753 1.0556
C39 C 0.0493(6) 0.0673(4) 1.2136(2)
O3 O -0.0269(6) 0.1360(4) 1.2294(3)
O4 O 0.0651(6) -0.0114(3) 1.2632(2)
H26 H 0.0303 -0.0017 1.3041
C40 C 0.0948(5) -0.1540(3) 0.7238(2)
C41 C -0.0953(5) -0.1306(3) 0.7284(2)
H27 H -0.1507 -0.0744 0.7377
C42 C -0.1975(5) -0.1924(3) 0.7189(2)
H28 H -0.3240 -0.1776 0.7227
C43 C -0.1253(5) -0.2721(3) 0.7044(2)
C44 C 0.0650(5) -0.2973(3) 0.7015(2)
H29 H 0.1192 -0.3544 0.6938
C45 C 0.1664(6) -0.2376(3) 0.7102(2)
H30 H 0.2928 -0.2537 0.7068
C46 C -0.2409(6) -0.3346(3) 0.6927(3)
O5 O -0.4000(4) -0.3139(2) 0.6908(2)
O6 O -0.1533(3) -0.4160(2) 0.68678(19)
H31 H -0.2273 -0.4456 0.6768
H9? H 0.4777 0.0078 0.7118
H11? H 0.5587 0.0732 0.8091
loop_
_geom_bond_atom_site_label_1
_geom_bond_atom_site_label_2
_geom_bond_site_symmetry_1
_geom_bond_site_symmetry_2
C1 C2 1_555 1_555
C2 H1 1_555 1_555
C3 C2 1_555 1_555
H2 C3 1_555 1_555
C4 C3 1_555 1_555
C5 C4 1_555 1_555
C6 C5 1_555 1_555
C7 C6 1_555 1_555
H3 C7 1_555 1_555
C8 C7 1_555 1_555
H4 C8 1_555 1_555
C9 C8 1_555 1_555
C10 C9 1_555 1_555
C11 C10 1_555 1_555
C12 C11 1_555 1_555
H5 C12 1_555 1_555
C13 C12 1_555 1_555
H6 C13 1_555 1_555
C14 C13 1_555 1_555
C15 C14 1_555 1_555
C16 C15 1_555 1_555
C17 C16 1_555 1_555
H7 C17 1_555 1_555
C18 C17 1_555 1_555
H8 C18 1_555 1_555
C19 C18 1_555 1_555
C20 C1 1_555 1_555
N1 C1 1_555 1_555
N2 C6 1_555 1_555
H10 N2 1_555 1_555
N3 C11 1_555 1_555
N4 C16 1_555 1_555
H12 N4 1_555 1_555
C21 C5 1_555 1_555
C22 C21 1_555 1_555
H13 C22 1_555 1_555
C23 C22 1_555 1_555
H14 C23 1_555 1_555
N5 C23 1_555 1_555
C24 N5 1_555 1_555
H15 C24 1_555 1_555
C25 C21 1_555 1_555
H16 C25 1_555 1_555
C26 C10 1_555 1_555
C27 C26 1_555 1_555
H17 C27 1_555 1_555
C28 C27 1_555 1_555
H18 C28 1_555 1_555
C29 C28 1_555 1_555
C30 C29 1_555 1_555
H19 C30 1_555 1_555
C31 C26 1_555 1_555
H20 C31 1_555 1_555
C32 C29 1_555 1_555
O1 C32 1_555 1_555
O2 C32 1_555 1_555
H21 O2 1_555 1_555
C33 C15 1_555 1_555
C34 C33 1_555 1_555
H22 C34 1_555 1_555
C35 C34 1_555 1_555
H23 C35 1_555 1_555
C36 C35 1_555 1_555
C37 C36 1_555 1_555
H24 C37 1_555 1_555
C38 C33 1_555 1_555
H25 C38 1_555 1_555
C39 C36 1_555 1_555
O3 C39 1_555 1_555
O4 C39 1_555 1_555
H26 O4 1_555 1_555
C40 C20 1_555 1_555
C41 C40 1_555 1_555
H27 C41 1_555 1_555
C42 C41 1_555 1_555
H28 C42 1_555 1_555
C43 C42 1_555 1_555
C44 C43 1_555 1_555
H29 C44 1_555 1_555
C45 C40 1_555 1_555
H30 C45 1_555 1_555
C46 C43 1_555 1_555
O5 C46 1_555 1_555
O6 C46 1_555 1_555
H31 O6 1_555 1_555
C47 H32 1_555 1_555
C48 C47 1_555 1_555
H33 C48 1_555 1_555
N6 C48 1_555 1_555
C49 N6 1_555 1_555
H34 C49 1_555 1_555
C50 C49 1_555 1_555
H35 C50 1_555 1_555
C51 C47 1_555 1_555
C52 C51 1_555 1_555
O7 C52 1_555 1_555
C53 C52 1_555 1_555
H36 C53 1_555 1_555
H37 C53 1_555 1_555
H38 C53 1_555 1_555
C54 H39 1_555 1_555
C55 C54 1_555 1_555
H40 C55 1_555 1_555
N7 C55 1_555 1_555
C56 N7 1_555 1_555
H41 C56 1_555 1_555
C57 C56 1_555 1_555
H42 C57 1_555 1_555
C58 C54 1_555 1_555
C59 C58 1_555 1_555
O8 C59 1_555 1_555
C60 C59 1_555 1_555
H43 C60 1_555 1_555
H44 C60 1_555 1_555
H45 C60 1_555 1_555
C4 N1 1_555 1_555
C9 N2 1_555 1_555
C14 N3 1_555 1_555
C19 C20 1_555 1_555
C19 N4 1_555 1_555
C24 C25 1_555 1_555
C30 C31 1_555 1_555
C37 C38 1_555 1_555
C44 C45 1_555 1_555
C50 C51 1_555 1_555
C57 C58 1_555 1_555

#END
