
#######################################################################
#
#                 Cambridge Crystallographic Data Centre
#                                CCDC 
#
#######################################################################
#
# If this CIF has been generated from an entry in the Cambridge 
# Structural Database, then it will include bibliographic, chemical, 
# crystal, experimental, refinement or atomic coordinate data resulting 
# from the CCDC's data processing and validation procedures.
#
#######################################################################

data_RIGMAX
_chemical_formula_moiety         'C20 H23 N1 O4 S1'
_chemical_name_systematic        
'(8-Methyl-1-((4-methylphenyl)sulfonyl)-1,2,3,4-tetrahydroquinolin-2-yl)methyl acetate'
_symmetry_cell_setting           monoclinic
_symmetry_space_group_name_H-M   'C 2/c'
_symmetry_Int_Tables_number      15
_space_group_name_Hall           '-C 2yn'
loop_
_symmetry_equiv_pos_site_id
_symmetry_equiv_pos_as_xyz
1 x,y,z
2 -x,y,1/2-z
3 1/2+x,1/2+y,z
4 1/2-x,1/2+y,1/2-z
5 -x,-y,-z
6 x,-y,1/2+z
7 1/2-x,1/2-y,-z
8 1/2+x,1/2-y,1/2+z
_cell_length_a                   33.114(13)
_cell_length_b                   8.206(3)
_cell_length_c                   16.092(7)
_cell_angle_alpha                90
_cell_angle_beta                 116.929(8)
_cell_angle_gamma                90
_cell_volume                     3898.59
_cell_formula_units_Z            8
loop_
_atom_site_label
_atom_site_type_symbol
_atom_site_fract_x
_atom_site_fract_y
_atom_site_fract_z
S1 S 0.113280(16) 0.01273(6) 0.27880(3)
O1 O 0.23928(5) 0.0684(2) 0.40145(9)
O2 O 0.24557(8) 0.0086(3) 0.27175(13)
O3 O 0.09094(6) -0.0397(2) 0.33165(12)
O4 O 0.14041(6) -0.10011(19) 0.25736(12)
N1 N 0.14695(5) 0.16374(18) 0.33644(10)
C1 C 0.13595(6) 0.2664(2) 0.39587(12)
C2 C 0.14498(6) 0.2158(3) 0.48590(13)
C3 C 0.13388(9) 0.3245(3) 0.53918(17)
H1 H 0.1386 0.2931 0.5997
C4 C 0.11625(12) 0.4759(4) 0.5057(2)
H2 H 0.1081 0.5461 0.5426
C5 C 0.11017(10) 0.5277(3) 0.4187(2)
H3 H 0.0993 0.6345 0.3976
C6 C 0.12001(7) 0.4233(3) 0.36283(15)
C7 C 0.16683(7) 0.0540(3) 0.52429(15)
H4 H 0.1721 -0.0043 0.4769
H5 H 0.1468 -0.0107 0.5413
H6 H 0.1958 0.0717 0.5796
C8 C 0.11852(8) 0.4705(3) 0.27117(16)
H7 H 0.1139 0.5896 0.2616
H8 H 0.0930 0.4146 0.2195
C9 C 0.16309(9) 0.4219(3) 0.2718(2)
H9 H 0.1877 0.4908 0.3173
H10 H 0.1610 0.4430 0.2094
C10 C 0.17522(6) 0.2411(2) 0.29703(13)
H11 H 0.1707 0.1806 0.2395
C11 C 0.22473(7) 0.2314(3) 0.36712(14)
H12 H 0.2433 0.2722 0.3377
H13 H 0.2301 0.3035 0.4205
C12 C 0.24861(8) -0.0319(3) 0.34607(16)
C13 C 0.26171(13) -0.1978(4) 0.3878(2)
H14 H 0.2685 -0.2672 0.3462
H15 H 0.2367 -0.2453 0.3962
H16 H 0.2886 -0.1896 0.4484
C14 C 0.07189(6) 0.0912(2) 0.17164(13)
C15 C 0.03275(7) 0.1599(3) 0.16624(18)
H17 H 0.0270 0.1605 0.2190
C16 C 0.00176(9) 0.2282(4) 0.0823(2)
H18 H -0.0253 0.2747 0.0783
C17 C 0.00928(9) 0.2303(3) 0.0057(2)
C18 C 0.04830(9) 0.1576(3) 0.01121(16)
H19 H 0.0535 0.1558 -0.0422
C19 C 0.08009(8) 0.0870(3) 0.09429(15)
H20 H 0.1067 0.0373 0.0977
C20 C -0.02417(13) 0.3070(4) -0.0844(2)
H21 H -0.0496 0.3521 -0.0764
H22 H -0.0354 0.2243 -0.1336
H23 H -0.0093 0.3944 -0.1016
loop_
_geom_bond_atom_site_label_1
_geom_bond_atom_site_label_2
_geom_bond_site_symmetry_1
_geom_bond_site_symmetry_2
S1 O3 1_555 1_555
O1 C11 1_555 1_555
O2 C12 1_555 1_555
O4 S1 1_555 1_555
N1 S1 1_555 1_555
C1 N1 1_555 1_555
C2 C1 1_555 1_555
C3 C2 1_555 1_555
H1 C3 1_555 1_555
C4 C3 1_555 1_555
H2 C4 1_555 1_555
C5 C4 1_555 1_555
H3 C5 1_555 1_555
C6 C1 1_555 1_555
C7 C2 1_555 1_555
H4 C7 1_555 1_555
H5 C7 1_555 1_555
H6 C7 1_555 1_555
C8 C6 1_555 1_555
H7 C8 1_555 1_555
H8 C8 1_555 1_555
C9 C8 1_555 1_555
H9 C9 1_555 1_555
H10 C9 1_555 1_555
C10 N1 1_555 1_555
H11 C10 1_555 1_555
C11 C10 1_555 1_555
H12 C11 1_555 1_555
H13 C11 1_555 1_555
C12 O1 1_555 1_555
C13 C12 1_555 1_555
H14 C13 1_555 1_555
H15 C13 1_555 1_555
H16 C13 1_555 1_555
C14 S1 1_555 1_555
C15 C14 1_555 1_555
H17 C15 1_555 1_555
C16 C15 1_555 1_555
H18 C16 1_555 1_555
C17 C16 1_555 1_555
C18 C17 1_555 1_555
H19 C18 1_555 1_555
C19 C14 1_555 1_555
H20 C19 1_555 1_555
C20 C17 1_555 1_555
H21 C20 1_555 1_555
H22 C20 1_555 1_555
H23 C20 1_555 1_555
C5 C6 1_555 1_555
C9 C10 1_555 1_555
C18 C19 1_555 1_555

#END
