
#######################################################################
#
#                 Cambridge Crystallographic Data Centre
#                                CCDC 
#
#######################################################################
#
# If this CIF has been generated from an entry in the Cambridge 
# Structural Database, then it will include bibliographic, chemical, 
# crystal, experimental, refinement or atomic coordinate data resulting 
# from the CCDC's data processing and validation procedures.
#
#######################################################################

data_RIGROQ
_chemical_formula_moiety         'C22 H21 N1 O6'
_chemical_name_systematic        
'Dimethyl 4-benzyl-3,5-dioxo-4-azatetracyclo[5.4.1.0^2,6^.0^8,11^]dodec-9-ene-9,10-dicarboxylate'
_symmetry_cell_setting           monoclinic
_symmetry_space_group_name_H-M   'P 21/c'
_symmetry_Int_Tables_number      14
_space_group_name_Hall           '-P 2ybc'
loop_
_symmetry_equiv_pos_site_id
_symmetry_equiv_pos_as_xyz
1 x,y,z
2 -x,1/2+y,1/2-z
3 -x,-y,-z
4 x,1/2-y,1/2+z
_cell_length_a                   8.8506(3)
_cell_length_b                   9.5121(3)
_cell_length_c                   22.9522(8)
_cell_angle_alpha                90
_cell_angle_beta                 96.001(3)
_cell_angle_gamma                90
_cell_volume                     1921.71
_exptl_crystal_colour            colorless
_exptl_crystal_description       plate
_cell_formula_units_Z            4
loop_
_atom_site_label
_atom_site_type_symbol
_atom_site_fract_x
_atom_site_fract_y
_atom_site_fract_z
O1 O 0.35861(12) 0.18248(13) 0.17990(6)
O2 O 0.46266(13) 0.64933(12) 0.19341(5)
O3 O 0.78036(14) 0.67037(13) 0.01123(5)
O4 O 0.83493(16) 0.49954(15) -0.05055(6)
O5 O 0.61052(17) 0.20901(15) -0.06844(6)
O6 O 0.7632(4) 0.1018(3) -0.00048(11)
N1 N 0.38016(13) 0.42152(15) 0.19123(6)
C1 C 0.67695(16) 0.24833(17) 0.13332(7)
H1 H 0.6968 0.1452 0.1306
C2 C 0.57880(17) 0.31168(17) 0.08083(7)
H2 H 0.4679 0.2892 0.0783
C3 C 0.64710(18) 0.31342(19) 0.02341(7)
C4 C 0.68650(17) 0.44907(18) 0.02719(7)
C5 C 0.62059(16) 0.47335(17) 0.08463(7)
H3 H 0.5325 0.5396 0.0830
C6 C 0.73312(16) 0.48203(17) 0.14001(7)
H4 H 0.7986 0.5680 0.1430
C7 C 0.64360(16) 0.45456(17) 0.19335(7)
H5 H 0.7083 0.4758 0.2307
C8 C 0.49095(17) 0.52504(17) 0.19285(6)
C9 C 0.43691(17) 0.28629(18) 0.18636(7)
C10 C 0.60714(16) 0.29582(17) 0.18903(7)
H6 H 0.6560 0.2450 0.2242
C11 C 0.81950(16) 0.34217(17) 0.13869(7)
H7 H 0.8866 0.3247 0.1752
H8 H 0.8780 0.3342 0.1044
C12 C 0.6703(2) 0.1943(2) -0.01591(8)
C13 C 0.6214(3) 0.0914(2) -0.10808(9)
H9 H 0.5718 0.1159 -0.1469
H10 H 0.5712 0.0091 -0.0931
H11 H 0.7286 0.0697 -0.1110
C14 C 0.77523(18) 0.53868(19) -0.00898(7)
C15 C 0.8701(2) 0.7672(2) -0.01940(10)
H12 H 0.8673 0.8605 -0.0015
H13 H 0.8286 0.7727 -0.0606
H14 H 0.9754 0.7339 -0.0169
C16 C 0.21874(16) 0.4528(2) 0.19083(8)
H15 H 0.1598 0.3813 0.1667
H16 H 0.1978 0.5454 0.1720
C17 C 0.16439(16) 0.45535(18) 0.25104(8)
C18 C 0.04167(17) 0.53991(19) 0.26075(8)
H17 H -0.0023 0.5995 0.2304
C19 C -0.01725(18) 0.5382(2) 0.31437(9)
H18 H -0.1030 0.5946 0.3202
C20 C 0.0484(2) 0.4547(2) 0.35935(9)
H19 H 0.0084 0.4539 0.3962
C21 C 0.1719(2) 0.37290(19) 0.35053(9)
H20 H 0.2185 0.3168 0.3816
C22 C 0.22890(18) 0.37188(18) 0.29637(8)
H21 H 0.3129 0.3134 0.2904
O7? O 0.6512(10) 0.0695(8) 0.0036(3)
loop_
_geom_bond_atom_site_label_1
_geom_bond_atom_site_label_2
_geom_bond_site_symmetry_1
_geom_bond_site_symmetry_2
O1 C9 1_555 1_555
O2 C8 1_555 1_555
O3 C14 1_555 1_555
O4 C14 1_555 1_555
O5 C12 1_555 1_555
O6 C12 1_555 1_555
N1 C8 1_555 1_555
C1 H1 1_555 1_555
C2 C1 1_555 1_555
H2 C2 1_555 1_555
C3 C2 1_555 1_555
C4 C3 1_555 1_555
C5 C2 1_555 1_555
H3 C5 1_555 1_555
C6 C5 1_555 1_555
H4 C6 1_555 1_555
C7 C6 1_555 1_555
H5 C7 1_555 1_555
C8 C7 1_555 1_555
C9 N1 1_555 1_555
C10 C1 1_555 1_555
H6 C10 1_555 1_555
C11 C1 1_555 1_555
H7 C11 1_555 1_555
H8 C11 1_555 1_555
C12 C3 1_555 1_555
C13 O5 1_555 1_555
H9 C13 1_555 1_555
H10 C13 1_555 1_555
H11 C13 1_555 1_555
C14 C4 1_555 1_555
C15 O3 1_555 1_555
H12 C15 1_555 1_555
H13 C15 1_555 1_555
H14 C15 1_555 1_555
C16 N1 1_555 1_555
H15 C16 1_555 1_555
H16 C16 1_555 1_555
C17 C16 1_555 1_555
C18 C17 1_555 1_555
H17 C18 1_555 1_555
C19 C18 1_555 1_555
H18 C19 1_555 1_555
C20 C19 1_555 1_555
H19 C20 1_555 1_555
C21 C20 1_555 1_555
H20 C21 1_555 1_555
C22 C17 1_555 1_555
H21 C22 1_555 1_555
C4 C5 1_555 1_555
C6 C11 1_555 1_555
C7 C10 1_555 1_555
C9 C10 1_555 1_555
C21 C22 1_555 1_555

#END
