
#######################################################################
#
#                 Cambridge Crystallographic Data Centre
#                                CCDC 
#
#######################################################################
#
# If this CIF has been generated from an entry in the Cambridge 
# Structural Database, then it will include bibliographic, chemical, 
# crystal, experimental, refinement or atomic coordinate data resulting 
# from the CCDC's data processing and validation procedures.
#
#######################################################################

data_RIGSIM
_chemical_formula_moiety         'C39 H29 N3 O4'
_chemical_name_systematic        
17-(4-methylphenyl)-20,22-dioxo-N,21-diphenyl-16-oxa-17,21-diazahexacyclo[6.6.5.3^15,19^.0^2,7^.0^9,14^.0^15,19^]docosa-2,4,6,9,11,13-hexaene-18-carboxamide
_symmetry_cell_setting           monoclinic
_symmetry_space_group_name_H-M   'P 21/c'
_symmetry_Int_Tables_number      14
_space_group_name_Hall           '-P 2ybc'
loop_
_symmetry_equiv_pos_site_id
_symmetry_equiv_pos_as_xyz
1 x,y,z
2 -x,1/2+y,1/2-z
3 -x,-y,-z
4 x,1/2-y,1/2+z
_cell_length_a                   10.5707(17)
_cell_length_b                   13.5442(19)
_cell_length_c                   21.389(3)
_cell_angle_alpha                90
_cell_angle_beta                 98.438(4)
_cell_angle_gamma                90
_cell_volume                     3029.15
_exptl_crystal_colour            colorless
_exptl_crystal_description       plate
_cell_formula_units_Z            4
loop_
_atom_site_label
_atom_site_type_symbol
_atom_site_fract_x
_atom_site_fract_y
_atom_site_fract_z
C1 C 0.51246(16) 0.23998(11) 0.17826(7)
C2 C 0.62130(16) 0.34138(12) 0.33567(8)
C3 C 0.58553(15) 0.32622(11) 0.21413(7)
C4 C 0.45782(17) 0.27158(12) 0.11017(8)
H1 H 0.4144 0.2172 0.0855
C5 C 0.61104(16) 0.15780(12) 0.17954(8)
C6 C 0.52519(16) 0.33151(11) 0.27510(7)
H2 H 0.4607 0.3839 0.2724
C7 C 0.42940(17) 0.43730(12) 0.15019(8)
C8 C 0.36901(17) 0.35705(13) 0.11704(8)
C9 C 0.72408(16) 0.29335(12) 0.22290(8)
C10 C 0.57042(17) 0.42079(12) 0.17167(8)
H3 H 0.6119 0.4786 0.1934
C11 C 0.84893(17) 0.14696(13) 0.19638(8)
C12 C 0.62868(18) 0.39326(13) 0.11346(8)
C13 C 0.56911(18) 0.31184(13) 0.08090(8)
C14 C 0.68454(18) 0.45294(13) 0.42603(8)
C15 C 0.36151(19) 0.52215(13) 0.15843(8)
H4 H 0.4016 0.5757 0.1802
C16 C 0.6302(2) 0.51848(14) 0.46304(9)
H5 H 0.5501 0.5450 0.4487
C17 C 0.6129(2) 0.27602(15) 0.02759(9)
H6 H 0.5752 0.2209 0.0066
C18 C 0.24077(19) 0.36092(16) 0.09434(9)
H7 H 0.1998 0.3070 0.0734
C19 C 0.7320(2) 0.43796(15) 0.09252(10)
H8 H 0.7734 0.4907 0.1147
C20 C 0.9366(2) 0.19050(16) 0.16404(10)
H9 H 0.9198 0.2514 0.1445
C21 C 0.8719(2) 0.05657(15) 0.22431(10)
H10 H 0.8107 0.0271 0.2453
C22 C 0.7735(2) 0.40344(17) 0.03802(11)
H11 H 0.8418 0.4342 0.0231
C23 C 0.2336(2) 0.52639(17) 0.13397(10)
H12 H 0.1876 0.5839 0.1384
C24 C 0.7144(2) 0.32383(18) 0.00580(10)
H13 H 0.7428 0.3018 -0.0309
C25 C 0.8037(2) 0.41463(16) 0.44747(10)
H14 H 0.8427 0.3717 0.4222
C26 C 0.1731(2) 0.44650(18) 0.10314(10)
H15 H 0.0861 0.4498 0.0881
C27 C 0.9860(2) 0.00960(18) 0.22120(12)
H16 H 1.0023 -0.0516 0.2404
C28 C 1.0756(2) 0.05267(19) 0.18988(12)
H17 H 1.1533 0.0211 0.1883
C29 C 1.0511(2) 0.14189(19) 0.16095(12)
H18 H 1.1116 0.1703 0.1390
C30 C 0.8098(3) 0.50530(19) 0.54377(10)
H19 H 0.8515 0.5218 0.5838
C31 C 0.8645(2) 0.44050(19) 0.50666(11)
H20 H 0.9441 0.4134 0.5216
C32 C 0.6944(3) 0.54529(18) 0.52175(10)
H21 H 0.6581 0.5911 0.5462
N1 N 0.46466(13) 0.23237(10) 0.27726(6)
N2 N 0.61398(14) 0.42721(10) 0.36657(6)
H22 H 0.5615 0.4707 0.3486
N3 N 0.73033(13) 0.19711(10) 0.20000(7)
O1 O 0.41053(11) 0.21443(8) 0.21077(5)
O2 O 0.59061(12) 0.07265(8) 0.16408(6)
O3 O 0.69518(13) 0.27464(9) 0.35286(6)
O4 O 0.81526(12) 0.34220(10) 0.24375(7)
C33 C 0.35993(17) 0.23092(12) 0.31330(8)
C34 C 0.38627(18) 0.19998(14) 0.37526(8)
H23 H 0.4689 0.1813 0.3921
C35 C 0.16542(19) 0.22156(15) 0.38818(10)
C36 C 0.2899(2) 0.19682(15) 0.41213(9)
H24 H 0.3091 0.1775 0.4542
C37 C 0.23735(19) 0.25829(17) 0.28922(10)
H25 H 0.2191 0.2809 0.2478
C38 C 0.1412(2) 0.25231(19) 0.32631(11)
H26 H 0.0582 0.2694 0.3091
C39 C 0.0600(2) 0.2149(2) 0.42807(12)
H27 H 0.0733 0.2638 0.4609
H28 H 0.0601 0.1504 0.4467
H29 H -0.0208 0.2264 0.4021
loop_
_geom_bond_atom_site_label_1
_geom_bond_atom_site_label_2
_geom_bond_site_symmetry_1
_geom_bond_site_symmetry_2
C1 C3 1_555 1_555
C2 C6 1_555 1_555
C3 C6 1_555 1_555
C4 C1 1_555 1_555
H1 C4 1_555 1_555
C5 C1 1_555 1_555
C6 H2 1_555 1_555
C7 C8 1_555 1_555
C8 C4 1_555 1_555
C9 C3 1_555 1_555
C10 C3 1_555 1_555
H3 C10 1_555 1_555
C11 C20 1_555 1_555
C12 C10 1_555 1_555
C13 C4 1_555 1_555
C14 C16 1_555 1_555
C15 C7 1_555 1_555
H4 C15 1_555 1_555
C16 H5 1_555 1_555
C17 C13 1_555 1_555
H6 C17 1_555 1_555
C18 C8 1_555 1_555
H7 C18 1_555 1_555
C19 C12 1_555 1_555
H8 C19 1_555 1_555
C20 H9 1_555 1_555
C21 C11 1_555 1_555
H10 C21 1_555 1_555
C22 C19 1_555 1_555
H11 C22 1_555 1_555
C23 C15 1_555 1_555
H12 C23 1_555 1_555
C24 C17 1_555 1_555
H13 C24 1_555 1_555
C25 C14 1_555 1_555
H14 C25 1_555 1_555
C26 C18 1_555 1_555
H15 C26 1_555 1_555
C27 C21 1_555 1_555
H16 C27 1_555 1_555
C28 C27 1_555 1_555
H17 C28 1_555 1_555
C29 C20 1_555 1_555
H18 C29 1_555 1_555
C30 H19 1_555 1_555
C31 C25 1_555 1_555
H20 C31 1_555 1_555
C32 C16 1_555 1_555
H21 C32 1_555 1_555
N1 C6 1_555 1_555
N2 C2 1_555 1_555
H22 N2 1_555 1_555
N3 C5 1_555 1_555
O1 C1 1_555 1_555
O2 C5 1_555 1_555
O3 C2 1_555 1_555
O4 C9 1_555 1_555
C33 N1 1_555 1_555
C34 C33 1_555 1_555
H23 C34 1_555 1_555
C35 C36 1_555 1_555
C36 C34 1_555 1_555
H24 C36 1_555 1_555
C37 C33 1_555 1_555
H25 C37 1_555 1_555
C38 C35 1_555 1_555
H26 C38 1_555 1_555
C39 C35 1_555 1_555
H27 C39 1_555 1_555
H28 C39 1_555 1_555
H29 C39 1_555 1_555
C7 C10 1_555 1_555
C9 N3 1_555 1_555
C11 N3 1_555 1_555
C12 C13 1_555 1_555
C14 N2 1_555 1_555
C22 C24 1_555 1_555
C23 C26 1_555 1_555
C28 C29 1_555 1_555
C30 C31 1_555 1_555
C30 C32 1_555 1_555
N1 O1 1_555 1_555
C37 C38 1_555 1_555

#END
