
#######################################################################
#
#                 Cambridge Crystallographic Data Centre
#                                CCDC 
#
#######################################################################
#
# If this CIF has been generated from an entry in the Cambridge 
# Structural Database, then it will include bibliographic, chemical, 
# crystal, experimental, refinement or atomic coordinate data resulting 
# from the CCDC's data processing and validation procedures.
#
#######################################################################

data_RIGSOS
_chemical_formula_moiety         'C39 H29 N3 O4'
_chemical_name_systematic        
'17-(4-methylphenyl)-20,22-dioxo-N,21-diphenyl-16-oxa-17,21-diazahexacyclo[6.6.5.3^15,19^.0^2,7^.0^9,14^.0^15,19^]docosa-2,4,6,9,11,13-hexaene-18-carboxamide unknown solvate'
_symmetry_cell_setting           monoclinic
_symmetry_space_group_name_H-M   'I 2/c'
_symmetry_Int_Tables_number      15
_space_group_name_Hall           '-I 2yc'
loop_
_symmetry_equiv_pos_site_id
_symmetry_equiv_pos_as_xyz
1 x,y,z
2 -x,y,1/2-z
3 1/2+x,1/2+y,1/2+z
4 1/2-x,1/2+y,-z
5 -x,-y,-z
6 x,-y,1/2+z
7 1/2-x,1/2-y,1/2-z
8 1/2+x,1/2-y,z
_cell_length_a                   17.4442(3)
_cell_length_b                   9.18387(14)
_cell_length_c                   38.2002(7)
_cell_angle_alpha                90
_cell_angle_beta                 93.4542(18)
_cell_angle_gamma                90
_cell_volume                     6108.76
_exptl_crystal_colour            colorless
_exptl_crystal_description       prism
_cell_formula_units_Z            8
loop_
_atom_site_label
_atom_site_type_symbol
_atom_site_fract_x
_atom_site_fract_y
_atom_site_fract_z
O1 O 0.21705(5) 0.59713(10) 0.41549(2)
O2 O 0.14685(5) 0.27754(10) 0.32906(2)
O3 O 0.07476(5) 0.21471(10) 0.42742(2)
O4 O 0.30885(6) 0.66324(11) 0.35136(3)
N1 N 0.22717(6) 0.47729(12) 0.33203(3)
N2 N 0.13514(6) 0.58353(11) 0.40793(3)
N3 N 0.09106(6) 0.41660(12) 0.46255(3)
H1 H 0.1022 0.5077 0.4618
C1 C 0.19684(7) 0.37026(14) 0.38608(3)
C2 C 0.10828(7) 0.68315(14) 0.38076(3)
C3 C 0.25645(7) 0.24953(14) 0.43931(3)
C4 C 0.25393(7) 0.49561(13) 0.39342(3)
C5 C 0.12144(7) 0.42729(13) 0.40101(3)
H2 H 0.0810 0.4205 0.3821
C6 C 0.30679(7) 0.20911(15) 0.38176(3)
C7 C 0.18580(7) 0.36420(14) 0.34610(3)
C8 C 0.09382(7) 0.34166(14) 0.43228(3)
C9 C 0.23311(7) 0.22527(13) 0.40071(3)
H3 H 0.1986 0.1417 0.3969
C10 C 0.30889(7) 0.36370(14) 0.44529(3)
C11 C 0.26838(7) 0.56096(14) 0.35732(3)
C12 C 0.07166(7) 0.36010(14) 0.49545(3)
C13 C 0.23173(7) 0.16929(14) 0.46713(3)
H4 H 0.1963 0.0945 0.4632
C14 C 0.35842(7) 0.32444(15) 0.38757(3)
C15 C 0.32987(7) 0.44025(14) 0.41209(3)
H5 H 0.3673 0.5185 0.4167
C16 C 0.33803(7) 0.39484(14) 0.47906(3)
H6 H 0.3733 0.4698 0.4830
C17 C 0.03672(8) 0.66019(15) 0.36307(3)
H7 H 0.0079 0.5786 0.3682
C18 C 0.14870(8) 0.80983(14) 0.37406(3)
H8 H 0.1949 0.8297 0.3866
C19 C 0.11970(8) 0.90670(14) 0.34853(4)
H9 H 0.1476 0.9902 0.3440
C20 C 0.05010(8) 0.88212(15) 0.32957(3)
C21 C 0.26025(8) 0.20146(15) 0.50111(3)
H10 H 0.2434 0.1486 0.5199
C22 C 0.31371(8) 0.31221(15) 0.50693(3)
H11 H 0.3335 0.3314 0.5296
C23 C 0.22562(8) 0.50735(15) 0.29500(3)
C24 C 0.32371(8) 0.09648(16) 0.35931(4)
H12 H 0.2897 0.0193 0.3555
C25 C 0.00868(8) 0.75887(16) 0.33792(4)
H13 H -0.0390 0.7421 0.3264
C26 C 0.02738(8) 0.23487(15) 0.49827(4)
H14 H 0.0079 0.1866 0.4783
C27 C 0.42731(8) 0.32748(16) 0.37125(4)
H15 H 0.4619 0.4035 0.3754
C28 C 0.01272(8) 0.18289(16) 0.53145(4)
H16 H -0.0165 0.0990 0.5335
C29 C 0.39245(8) 0.10073(17) 0.34251(4)
H17 H 0.4040 0.0264 0.3271
C30 C 0.04095(8) 0.25395(17) 0.56145(4)
H18 H 0.0319 0.2168 0.5835
C31 C 0.09822(8) 0.43465(16) 0.52552(4)
H19 H 0.1262 0.5202 0.5236
C32 C 0.44388(8) 0.21457(18) 0.34847(4)
H20 H 0.4897 0.2156 0.3372
C33 C 0.08302(9) 0.38139(19) 0.55837(4)
H21 H 0.1010 0.4311 0.5784
C34 C 0.02178(10) 0.98327(17) 0.30047(4)
H22 H 0.0444 1.0777 0.3042
H23 H -0.0331 0.9912 0.3003
H24 H 0.0361 0.9453 0.2784
C35 C 0.27506(10) 0.43401(19) 0.27426(4)
H25 H 0.3091 0.3646 0.2838
C36 C 0.27243(13) 0.4674(2) 0.23826(5)
H26 H 0.3047 0.4190 0.2236
C37 C 0.17375(10) 0.60947(19) 0.28113(4)
H27 H 0.1402 0.6560 0.2955
C38 C 0.22214(13) 0.5718(2) 0.22452(4)
H28 H 0.2219 0.5950 0.2008
C39 C 0.17252(13) 0.6416(2) 0.24550(4)
H29 H 0.1381 0.7103 0.2359
loop_
_geom_bond_atom_site_label_1
_geom_bond_atom_site_label_2
_geom_bond_site_symmetry_1
_geom_bond_site_symmetry_2
O1 N2 1_555 1_555
O2 C7 1_555 1_555
O3 C8 1_555 1_555
O4 C11 1_555 1_555
N1 C7 1_555 1_555
N2 C2 1_555 1_555
N3 H1 1_555 1_555
C1 C4 1_555 1_555
C2 C17 1_555 1_555
C3 C9 1_555 1_555
C4 O1 1_555 1_555
C5 N2 1_555 1_555
H2 C5 1_555 1_555
C6 C9 1_555 1_555
C7 C1 1_555 1_555
C8 N3 1_555 1_555
C9 C1 1_555 1_555
H3 C9 1_555 1_555
C10 C3 1_555 1_555
C11 N1 1_555 1_555
C12 N3 1_555 1_555
C13 C3 1_555 1_555
H4 C13 1_555 1_555
C14 C6 1_555 1_555
C15 C4 1_555 1_555
H5 C15 1_555 1_555
C16 C10 1_555 1_555
H6 C16 1_555 1_555
C17 H7 1_555 1_555
C18 C2 1_555 1_555
H8 C18 1_555 1_555
C19 C18 1_555 1_555
H9 C19 1_555 1_555
C20 C19 1_555 1_555
C21 C13 1_555 1_555
H10 C21 1_555 1_555
C22 C16 1_555 1_555
H11 C22 1_555 1_555
C23 N1 1_555 1_555
C24 C6 1_555 1_555
H12 C24 1_555 1_555
C25 C17 1_555 1_555
H13 C25 1_555 1_555
C26 C12 1_555 1_555
H14 C26 1_555 1_555
C27 C14 1_555 1_555
H15 C27 1_555 1_555
C28 C26 1_555 1_555
H16 C28 1_555 1_555
C29 C24 1_555 1_555
H17 C29 1_555 1_555
C30 C28 1_555 1_555
H18 C30 1_555 1_555
C31 C12 1_555 1_555
H19 C31 1_555 1_555
C32 C27 1_555 1_555
H20 C32 1_555 1_555
C33 C30 1_555 1_555
H21 C33 1_555 1_555
C34 C20 1_555 1_555
H22 C34 1_555 1_555
H23 C34 1_555 1_555
H24 C34 1_555 1_555
C35 C23 1_555 1_555
H25 C35 1_555 1_555
C36 C35 1_555 1_555
H26 C36 1_555 1_555
C37 C23 1_555 1_555
H27 C37 1_555 1_555
C38 C36 1_555 1_555
H28 C38 1_555 1_555
C39 C37 1_555 1_555
H29 C39 1_555 1_555
C1 C5 1_555 1_555
C4 C11 1_555 1_555
C5 C8 1_555 1_555
C10 C15 1_555 1_555
C14 C15 1_555 1_555
C20 C25 1_555 1_555
C21 C22 1_555 1_555
C29 C32 1_555 1_555
C31 C33 1_555 1_555
C38 C39 1_555 1_555

#END
