
#######################################################################
#
#                 Cambridge Crystallographic Data Centre
#                                CCDC 
#
#######################################################################
#
# If this CIF has been generated from an entry in the Cambridge 
# Structural Database, then it will include bibliographic, chemical, 
# crystal, experimental, refinement or atomic coordinate data resulting 
# from the CCDC's data processing and validation procedures.
#
#######################################################################

data_RIGSUX
_chemical_formula_moiety         'C44 H40 N2 O1'
_chemical_name_systematic        
2,2'-(Oxydiethane-2,1-diyl)bis(8,9-dimethyl-4-phenyl-9H-carbazole)
_symmetry_cell_setting           orthorhombic
_symmetry_space_group_name_H-M   'P 21 21 21'
_symmetry_Int_Tables_number      19
_space_group_name_Hall           'P 2ac 2ab'
loop_
_symmetry_equiv_pos_site_id
_symmetry_equiv_pos_as_xyz
1 x,y,z
2 1/2-x,-y,1/2+z
3 -x,1/2+y,1/2-z
4 1/2+x,1/2-y,-z
_cell_length_a                   11.0959(12)
_cell_length_b                   11.8064(12)
_cell_length_c                   26.069(3)
_cell_angle_alpha                90
_cell_angle_beta                 90
_cell_angle_gamma                90
_cell_volume                     3415.11
_exptl_crystal_colour            colorless
_exptl_crystal_description       prismatic
_cell_formula_units_Z            4
loop_
_atom_site_label
_atom_site_type_symbol
_atom_site_fract_x
_atom_site_fract_y
_atom_site_fract_z
N1 N 0.5309(3) 0.0484(3) 0.33831(13)
N2 N -0.4319(3) 0.2414(3) 0.12453(14)
O1 O 0.1268(3) 0.0266(3) 0.20046(11)
C1 C 0.6560(4) 0.0469(3) 0.33882(16)
C2 C 0.7391(5) 0.0919(4) 0.37401(17)
C3 C 0.8594(5) 0.0739(4) 0.3638(2)
H1 H 0.9163 0.1004 0.3871
C4 C 0.8992(4) 0.0176(4) 0.3201(2)
H2 H 0.9813 0.0072 0.3148
C5 C 0.8186(4) -0.0225(3) 0.28500(17)
H3 H 0.8453 -0.0579 0.2552
C6 C 0.6955(3) -0.0097(3) 0.29432(15)
C7 C 0.5899(3) -0.0464(3) 0.26743(15)
C8 C 0.4899(4) -0.0105(3) 0.29629(16)
C9 C 0.3715(3) -0.0381(3) 0.28289(16)
H4 H 0.3068 -0.0140 0.3028
C10 C 0.3536(4) -0.1019(3) 0.23948(17)
C11 C 0.4512(4) -0.1349(3) 0.20976(16)
H5 H 0.4367 -0.1760 0.1800
C12 C 0.5689(3) -0.1097(3) 0.22242(15)
C13 C 0.6717(3) -0.1516(3) 0.19094(16)
C14 C 0.6937(4) -0.1052(4) 0.14315(17)
H6 H 0.6437 -0.0482 0.1308
C15 C 0.7890(5) -0.1423(5) 0.1135(2)
H7 H 0.8035 -0.1096 0.0817
C16 C 0.8610(4) -0.2259(5) 0.1307(3)
H8 H 0.9245 -0.2515 0.1105
C17 C 0.8411(4) -0.2735(4) 0.1779(2)
H9 H 0.8919 -0.3305 0.1897
C18 C 0.7461(4) -0.2376(4) 0.20818(18)
H10 H 0.7323 -0.2710 0.2399
C19 C 0.2272(3) -0.1415(4) 0.22480(18)
H11 H 0.2312 -0.2211 0.2157
H12 H 0.1756 -0.1351 0.2547
C20 C 0.1701(4) -0.0786(4) 0.18166(19)
H13 H 0.2286 -0.0658 0.1546
H14 H 0.1040 -0.1225 0.1676
C21 C 0.7064(5) 0.1566(4) 0.42276(17)
H15 H 0.7786 0.1745 0.4414
H16 H 0.6549 0.1106 0.4438
H17 H 0.6652 0.2253 0.4138
C22 C 0.4508(4) 0.0960(4) 0.37762(16)
H18 H 0.4724 0.0661 0.4106
H19 H 0.3689 0.0760 0.3699
H20 H 0.4587 0.1769 0.3780
C23 C -0.4762(4) 0.3016(4) 0.08255(18)
C24 C -0.5960(4) 0.3147(4) 0.0651(2)
C25 C -0.6094(5) 0.3745(5) 0.0203(2)
H21 H -0.6870 0.3838 0.0076
C26 C -0.5157(5) 0.4220(4) -0.00711(19)
H22 H -0.5312 0.4618 -0.0372
C27 C -0.3985(4) 0.4099(3) 0.01035(16)
H23 H -0.3343 0.4407 -0.0079
C28 C -0.3788(4) 0.3504(3) 0.05600(16)
C29 C -0.2708(3) 0.3236(3) 0.08467(15)
C30 C -0.3078(3) 0.2531(3) 0.12552(17)
C31 C -0.2270(4) 0.2062(3) 0.15979(16)
H24 H -0.2532 0.1597 0.1863
C32 C -0.1057(4) 0.2305(3) 0.15355(15)
C33 C -0.0686(3) 0.3018(3) 0.11471(15)
H25 H 0.0131 0.3180 0.1117
C34 C -0.1477(4) 0.3504(3) 0.08000(14)
C35 C -0.0994(3) 0.4326(4) 0.04220(15)
C36 C -0.0026(4) 0.4053(4) 0.01136(15)
H26 H 0.0302 0.3329 0.0131
C37 C 0.0467(4) 0.4834(5) -0.02202(17)
H27 H 0.1105 0.4627 -0.0431
C38 C 0.0014(5) 0.5915(5) -0.02412(17)
H28 H 0.0353 0.6448 -0.0461
C39 C -0.0942(5) 0.6201(4) 0.00652(18)
H29 H -0.1254 0.6931 0.0052
C40 C -0.1444(4) 0.5417(4) 0.03909(16)
H30 H -0.2097 0.5623 0.0594
C41 C -0.0126(4) 0.1789(4) 0.18932(16)
H31 H 0.0492 0.2346 0.1969
H32 H -0.0510 0.1577 0.2213
C42 C 0.0442(4) 0.0768(4) 0.16564(17)
H33 H -0.0178 0.0224 0.1566
H34 H 0.0861 0.0984 0.1345
C43 C -0.7061(4) 0.2644(5) 0.0909(2)
H35 H -0.7757 0.2771 0.0698
H36 H -0.7178 0.2998 0.1237
H37 H -0.6945 0.1845 0.0956
C44 C -0.4984(4) 0.1850(4) 0.16489(18)
H38 H -0.4445 0.1654 0.1923
H39 H -0.5349 0.1174 0.1515
H40 H -0.5600 0.2346 0.1776
loop_
_geom_bond_atom_site_label_1
_geom_bond_atom_site_label_2
_geom_bond_site_symmetry_1
_geom_bond_site_symmetry_2
N1 C1 1_555 1_555
N2 C23 1_555 1_555
O1 C20 1_555 1_555
C1 C2 1_555 1_555
C2 C3 1_555 1_555
C3 H1 1_555 1_555
C4 C3 1_555 1_555
H2 C4 1_555 1_555
C5 C4 1_555 1_555
H3 C5 1_555 1_555
C6 C1 1_555 1_555
C7 C6 1_555 1_555
C8 N1 1_555 1_555
C9 C8 1_555 1_555
H4 C9 1_555 1_555
C10 C9 1_555 1_555
C11 C10 1_555 1_555
H5 C11 1_555 1_555
C12 C7 1_555 1_555
C13 C12 1_555 1_555
C14 C13 1_555 1_555
H6 C14 1_555 1_555
C15 C14 1_555 1_555
H7 C15 1_555 1_555
C16 C15 1_555 1_555
H8 C16 1_555 1_555
C17 C16 1_555 1_555
H9 C17 1_555 1_555
C18 C13 1_555 1_555
H10 C18 1_555 1_555
C19 C10 1_555 1_555
H11 C19 1_555 1_555
H12 C19 1_555 1_555
C20 C19 1_555 1_555
H13 C20 1_555 1_555
H14 C20 1_555 1_555
C21 C2 1_555 1_555
H15 C21 1_555 1_555
H16 C21 1_555 1_555
H17 C21 1_555 1_555
C22 N1 1_555 1_555
H18 C22 1_555 1_555
H19 C22 1_555 1_555
H20 C22 1_555 1_555
C23 C24 1_555 1_555
C24 C25 1_555 1_555
C25 H21 1_555 1_555
C26 C25 1_555 1_555
H22 C26 1_555 1_555
C27 C26 1_555 1_555
H23 C27 1_555 1_555
C28 C23 1_555 1_555
C29 C28 1_555 1_555
C30 N2 1_555 1_555
C31 C30 1_555 1_555
H24 C31 1_555 1_555
C32 C31 1_555 1_555
C33 C32 1_555 1_555
H25 C33 1_555 1_555
C34 C29 1_555 1_555
C35 C34 1_555 1_555
C36 C35 1_555 1_555
H26 C36 1_555 1_555
C37 C36 1_555 1_555
H27 C37 1_555 1_555
C38 C37 1_555 1_555
H28 C38 1_555 1_555
C39 C38 1_555 1_555
H29 C39 1_555 1_555
C40 C35 1_555 1_555
H30 C40 1_555 1_555
C41 C32 1_555 1_555
H31 C41 1_555 1_555
H32 C41 1_555 1_555
C42 O1 1_555 1_555
H33 C42 1_555 1_555
H34 C42 1_555 1_555
C43 C24 1_555 1_555
H35 C43 1_555 1_555
H36 C43 1_555 1_555
H37 C43 1_555 1_555
C44 N2 1_555 1_555
H38 C44 1_555 1_555
H39 C44 1_555 1_555
H40 C44 1_555 1_555
C5 C6 1_555 1_555
C7 C8 1_555 1_555
C11 C12 1_555 1_555
C17 C18 1_555 1_555
C27 C28 1_555 1_555
C29 C30 1_555 1_555
C33 C34 1_555 1_555
C39 C40 1_555 1_555
C41 C42 1_555 1_555

#END
