
#######################################################################
#
#                 Cambridge Crystallographic Data Centre
#                                CCDC 
#
#######################################################################
#
# If this CIF has been generated from an entry in the Cambridge 
# Structural Database, then it will include bibliographic, chemical, 
# crystal, experimental, refinement or atomic coordinate data resulting 
# from the CCDC's data processing and validation procedures.
#
#######################################################################

data_RIGVAF
_chemical_formula_moiety         'C21 H15 Cl1 F3 O1 P1'
_chemical_name_systematic        
3-Chloro-1,1,1-trifluoro-3-(triphenylphosphoranylidene)propan-2-one
_symmetry_cell_setting           monoclinic
_symmetry_space_group_name_H-M   'P 21/c'
_symmetry_Int_Tables_number      14
_space_group_name_Hall           '-P 2ybc'
loop_
_symmetry_equiv_pos_site_id
_symmetry_equiv_pos_as_xyz
1 x,y,z
2 -x,1/2+y,1/2-z
3 -x,-y,-z
4 x,1/2-y,1/2+z
_cell_length_a                   10.6377(9)
_cell_length_b                   9.8603(9)
_cell_length_c                   18.3754(16)
_cell_angle_alpha                90
_cell_angle_beta                 96.0590(10)
_cell_angle_gamma                90
_cell_volume                     1916.65
_exptl_crystal_colour            colorless
_exptl_crystal_description       block
_cell_formula_units_Z            4
loop_
_atom_site_label
_atom_site_type_symbol
_atom_site_fract_x
_atom_site_fract_y
_atom_site_fract_z
Cl1 Cl 0.78417(7) 0.43490(6) -0.06671(3)
P1 P 0.78933(4) 0.37901(4) 0.09492(2)
F1 F 0.84707(18) -0.00956(15) -0.07485(9)
F2 F 0.90527(15) 0.17805(19) -0.11684(8)
F3 F 0.71153(13) 0.13165(16) -0.11872(8)
O1 O 0.83346(15) 0.10340(14) 0.05088(8)
C1 C 0.93696(16) 0.37741(17) 0.15278(9)
C2 C 1.03455(18) 0.2950(2) 0.13624(11)
H1 H 1.0245 0.2395 0.0951
C3 C 1.1475(2) 0.2951(3) 0.18098(14)
H2 H 1.2134 0.2395 0.1698
C4 C 1.1630(2) 0.3765(3) 0.24157(13)
H3 H 1.2394 0.3760 0.2713
C5 C 1.0667(2) 0.4587(3) 0.25870(12)
H4 H 1.0775 0.5133 0.3002
C6 C 0.95318(19) 0.4606(2) 0.21433(11)
H5 H 0.8880 0.5172 0.2256
C7 C 0.67461(16) 0.27865(18) 0.13649(10)
C8 C 0.69440(19) 0.2353(2) 0.20828(11)
H6 H 0.7684 0.2585 0.2371
C9 C 0.6036(2) 0.1573(3) 0.23702(12)
H7 H 0.6169 0.1283 0.2854
C10 C 0.4946(2) 0.1222(3) 0.19517(14)
H8 H 0.4340 0.0699 0.2151
C11 C 0.4747(2) 0.1643(3) 0.12389(14)
H9 H 0.4007 0.1401 0.0953
C12 C 0.56394(19) 0.2424(2) 0.09450(12)
H10 H 0.5498 0.2710 0.0461
C13 C 0.73744(17) 0.55267(18) 0.09040(10)
C14 C 0.6163(2) 0.5899(2) 0.10284(11)
H11 H 0.5590 0.5247 0.1152
C15 C 0.5808(2) 0.7252(3) 0.09677(13)
H12 H 0.4994 0.7507 0.1053
C16 C 0.6647(2) 0.8214(2) 0.07825(12)
H13 H 0.6398 0.9117 0.0739
C17 C 0.7850(2) 0.7855(2) 0.06608(13)
H14 H 0.8416 0.8512 0.0536
C18 C 0.8220(2) 0.65176(19) 0.07231(12)
H15 H 0.9040 0.6275 0.0644
C19 C 0.80126(16) 0.32140(18) 0.00578(9)
C20 C 0.81954(17) 0.18333(19) -0.00175(10)
C21 C 0.82192(19) 0.1214(2) -0.07811(12)
loop_
_geom_bond_atom_site_label_1
_geom_bond_atom_site_label_2
_geom_bond_site_symmetry_1
_geom_bond_site_symmetry_2
Cl1 C19 1_555 1_555
P1 C1 1_555 1_555
F1 C21 1_555 1_555
F2 C21 1_555 1_555
F3 C21 1_555 1_555
O1 C20 1_555 1_555
C1 C2 1_555 1_555
C2 H1 1_555 1_555
C3 C2 1_555 1_555
H2 C3 1_555 1_555
C4 C3 1_555 1_555
H3 C4 1_555 1_555
C5 C4 1_555 1_555
H4 C5 1_555 1_555
C6 C1 1_555 1_555
H5 C6 1_555 1_555
C7 P1 1_555 1_555
C8 C7 1_555 1_555
H6 C8 1_555 1_555
C9 C8 1_555 1_555
H7 C9 1_555 1_555
C10 C9 1_555 1_555
H8 C10 1_555 1_555
C11 C10 1_555 1_555
H9 C11 1_555 1_555
C12 C7 1_555 1_555
H10 C12 1_555 1_555
C13 P1 1_555 1_555
C14 C13 1_555 1_555
H11 C14 1_555 1_555
C15 C14 1_555 1_555
H12 C15 1_555 1_555
C16 C15 1_555 1_555
H13 C16 1_555 1_555
C17 C16 1_555 1_555
H14 C17 1_555 1_555
C18 C13 1_555 1_555
H15 C18 1_555 1_555
C19 P1 1_555 1_555
C20 C19 1_555 1_555
C21 C20 1_555 1_555
C5 C6 1_555 1_555
C11 C12 1_555 1_555
C17 C18 1_555 1_555

#END
