
#######################################################################
#
#                 Cambridge Crystallographic Data Centre
#                                CCDC 
#
#######################################################################
#
# If this CIF has been generated from an entry in the Cambridge 
# Structural Database, then it will include bibliographic, chemical, 
# crystal, experimental, refinement or atomic coordinate data resulting 
# from the CCDC's data processing and validation procedures.
#
#######################################################################

data_RIGWAH
_chemical_formula_moiety         'C46 H48 N2 O4 S2'
_chemical_name_systematic        
(R,R)-3,6-bis(5-(1-benzofuran-2-yl)-2-thienyl)-2,5-bis(2-ethylhexyl)-2,5-dihydropyrrolo[3,4-c]pyrrole-1,4-dione
_symmetry_cell_setting           monoclinic
_symmetry_space_group_name_H-M   'P 21'
_symmetry_Int_Tables_number      4
_space_group_name_Hall           'P 2yb'
loop_
_symmetry_equiv_pos_site_id
_symmetry_equiv_pos_as_xyz
1 x,y,z
2 -x,1/2+y,-z
_cell_length_a                   10.3992(10)
_cell_length_b                   28.305(3)
_cell_length_c                   13.4957(13)
_cell_angle_alpha                90
_cell_angle_beta                 103.675(7)
_cell_angle_gamma                90
_cell_volume                     3859.84
_exptl_crystal_colour            'dark red'
_exptl_crystal_description       needle
_cell_formula_units_Z            4
loop_
_atom_site_label
_atom_site_type_symbol
_atom_site_fract_x
_atom_site_fract_y
_atom_site_fract_z
C1 C 0.2884(9) 0.9303(4) 0.9069(6)
C2 C 0.4779(9) 0.8239(4) 0.9215(6)
C3 C 0.2769(9) 0.8457(4) 0.8130(7)
C4 C 0.3243(9) 0.8835(3) 0.8814(6)
C5 C 0.4906(9) 0.9075(4) 1.0105(6)
C6 C 0.4455(9) 0.8707(3) 0.9454(6)
C7 C 0.6125(9) 0.9089(3) 1.0870(6)
C8 C 0.7161(8) 0.8784(3) 1.0945(6)
H1 H 0.7148 0.8532 1.0477
C9 C 0.8253(9) 0.8871(3) 1.1771(6)
H2 H 0.9055 0.8695 1.1898
C10 C 0.8017(8) 0.9247(3) 1.2384(6)
C11 C 0.8904(8) 0.9425(4) 1.3285(6)
C12 C 0.8737(10) 0.9755(3) 1.3982(7)
H3 H 0.7958 0.9931 1.3977
C13 C 0.9969(9) 0.9782(4) 1.4722(7)
C14 C 1.0428(10) 1.0044(4) 1.5622(7)
H4 H 0.9874 1.0263 1.5856
C15 C 1.1723(11) 0.9968(4) 1.6151(8)
H5 H 1.2064 1.0139 1.6763
C16 C 1.2537(11) 0.9649(4) 1.5808(7)
H6 H 1.3421 0.9605 1.6192
C17 C 1.2089(9) 0.9393(4) 1.4922(6)
H7 H 1.2640 0.9178 1.4674
C18 C 1.0813(9) 0.9469(4) 1.4429(6)
C19 C 0.1577(9) 0.8467(3) 0.7327(6)
C20 C 0.0765(9) 0.8854(3) 0.7052(7)
H8 H 0.0915 0.9147 0.7401
C21 C -0.0283(9) 0.8778(4) 0.6228(7)
H9 H -0.0925 0.9011 0.5954
C22 C -0.0301(9) 0.8322(4) 0.5842(7)
C23 C -0.1215(11) 0.8134(5) 0.4963(8)
C24 C -0.2761(9) 0.8010(4) 0.3543(7)
C25 C -0.3738(9) 0.8031(4) 0.2605(7)
H10 H -0.4142 0.8320 0.2343
C26 C -0.4069(10) 0.7606(5) 0.2093(8)
H11 H -0.4690 0.7601 0.1452
C27 C -0.3498(11) 0.7196(4) 0.2515(8)
H12 H -0.3768 0.6908 0.2163
C28 C -0.2560(12) 0.7174(4) 0.3416(10)
H13 H -0.2164 0.6886 0.3691
C29 C -0.2247(9) 0.7587(4) 0.3874(7)
C30 C 0.3975(8) 0.9902(3) 1.0369(7)
H14 H 0.4240 0.9857 1.1118
H15 H 0.3056 1.0023 1.0202
C31 C 0.4864(10) 1.0278(3) 1.0081(7)
H16 H 0.5809 1.0177 1.0316
C32 C 0.4512(9) 1.0337(3) 0.8890(6)
H17 H 0.4723 1.0039 0.8579
H18 H 0.3547 1.0391 0.8653
C33 C 0.5240(9) 1.0743(4) 0.8510(6)
H19 H 0.6200 1.0715 0.8820
H20 H 0.4931 1.1047 0.8733
C34 C 0.5012(10) 1.0744(4) 0.7334(7)
H21 H 0.5342 1.0444 0.7108
H22 H 0.4052 1.0766 0.7020
C35 C 0.5729(9) 1.1160(3) 0.6984(7)
H23 H 0.5379 1.1456 0.7187
H24 H 0.5590 1.1151 0.6240
H25 H 0.6678 1.1138 0.7300
C36 C 0.4661(10) 1.0736(4) 1.0605(6)
H26 H 0.5207 1.0986 1.0393
H27 H 0.3722 1.0832 1.0372
C37 C 0.5011(12) 1.0707(4) 1.1759(7)
H28 H 0.5892 1.0567 1.1994
H29 H 0.4357 1.0511 1.1985
H30 H 0.5011 1.1026 1.2046
C38 C 0.3713(8) 0.7645(3) 0.7880(7)
H31 H 0.4647 0.7541 0.8009
H32 H 0.3396 0.7697 0.7137
C39 C 0.2907(9) 0.7250(3) 0.8190(6)
H33 H 0.1954 0.7345 0.8031
C40 C 0.3060(10) 0.6808(3) 0.7548(7)
H34 H 0.4007 0.6768 0.7551
H35 H 0.2778 0.6525 0.7873
C41 C 0.2253(10) 0.6836(4) 0.6435(7)
H36 H 0.1308 0.6879 0.6433
H37 H 0.2541 0.7118 0.6110
C42 C 0.2386(12) 0.6400(4) 0.5793(8)
H38 H 0.3331 0.6355 0.5795
H39 H 0.2094 0.6118 0.6114
C43 C 0.1587(13) 0.6433(5) 0.4695(8)
H40 H 0.0663 0.6505 0.4686
H41 H 0.1633 0.6132 0.4348
H42 H 0.1952 0.6685 0.4342
C44 C 0.3370(9) 0.7143(4) 0.9346(6)
H43 H 0.4283 0.7017 0.9494
H44 H 0.3385 0.7441 0.9734
C45 C 0.2464(10) 0.6786(4) 0.9701(7)
H45 H 0.1549 0.6900 0.9515
H46 H 0.2744 0.6749 1.0443
H47 H 0.2520 0.6480 0.9373
C46 C -0.2107(8) 0.8363(4) 0.4244(6)
N1 N 0.3980(7) 0.9439(3) 0.9884(5)
N2 N 0.3663(7) 0.8094(3) 0.8402(5)
O1 O 0.5716(6) 0.7981(2) 0.9512(4)
O2 O 0.1951(6) 0.9573(2) 0.8764(4)
O3 O 1.0156(5) 0.9235(2) 1.3538(4)
O4 O -0.1250(7) 0.7670(3) 0.4809(5)
S1 S 0.6488(2) 0.94819(9) 1.19099(16)
S2 S 0.1027(2) 0.80021(10) 0.65072(17)
C48 C 0.7809(9) 0.9151(3) 0.8784(6)
C49 C 0.8153(8) 0.8681(3) 0.8516(6)
C50 C 0.7712(9) 0.8307(3) 0.7825(6)
C51 C 0.9786(9) 0.8113(3) 0.8861(6)
C52 C 0.9415(8) 0.8574(3) 0.9145(6)
C53 C 0.9848(9) 0.8944(3) 0.9808(6)
C54 C 1.0996(9) 0.8944(3) 1.0626(7)
C55 C 1.1800(8) 0.8551(4) 1.0897(6)
H48 H 1.1661 0.8257 1.0550
C56 C 1.2850(9) 0.8642(4) 1.1751(7)
H49 H 1.3490 0.8411 1.2042
C57 C 1.2870(9) 0.9091(4) 1.2121(6)
C58 C 1.3812(10) 0.9266(5) 1.3010(7)
C59 C 1.4961(10) 0.9800(4) 1.4073(7)
C60 C 1.5447(12) 1.0212(4) 1.4529(12)
H50 H 1.5147 1.0514 1.4260
C61 C 1.6444(13) 1.0152(6) 1.5443(12)
H51 H 1.6833 1.0423 1.5812
C62 C 1.6858(11) 0.9705(5) 1.5807(8)
H52 H 1.7513 0.9674 1.6427
C63 C 1.6348(12) 0.9312(5) 1.5294(9)
H53 H 1.6660 0.9009 1.5543
C64 C 1.5373(9) 0.9354(4) 1.4410(6)
C65 C 0.6485(8) 0.8284(3) 0.7094(6)
C66 C 0.5434(8) 0.8583(3) 0.7025(6)
H54 H 0.5437 0.8832 0.7496
C67 C 0.4365(9) 0.8494(4) 0.6213(7)
H55 H 0.3560 0.8667 0.6081
C68 C 0.4617(9) 0.8116(4) 0.5608(6)
C69 C 0.3792(8) 0.7927(4) 0.4727(6)
C70 C 0.3933(9) 0.7604(4) 0.4010(7)
H56 H 0.4718 0.7433 0.4007
C71 C 0.2710(9) 0.7564(3) 0.3267(7)
C72 C 0.2202(11) 0.7305(4) 0.2354(7)
H57 H 0.2749 0.7085 0.2112
C73 C 0.0914(10) 0.7375(4) 0.1825(7)
H58 H 0.0571 0.7207 0.1210
C74 C 0.0108(10) 0.7693(4) 0.2192(7)
H59 H -0.0786 0.7726 0.1824
C75 C 0.0547(10) 0.7963(4) 0.3068(6)
H60 H -0.0008 0.8182 0.3303
C76 C 0.1849(9) 0.7889(4) 0.3569(6)
C77 C 0.8785(9) 0.9735(3) 1.0114(7)
H61 H 0.9178 0.9678 1.0847
H62 H 0.7835 0.9806 1.0040
C78 C 0.9448(9) 1.0171(3) 0.9782(7)
H63 H 1.0428 1.0122 0.9955
C79 C 0.8959(10) 1.0242(4) 0.8607(7)
H64 H 0.9238 0.9963 0.8269
H65 H 0.7979 1.0243 0.8438
C80 C 0.9409(10) 1.0682(3) 0.8131(8)
H66 H 0.9053 1.0670 0.7383
H67 H 0.9033 1.0964 0.8391
C81 C 1.0848(10) 1.0731(4) 0.8346(7)
H68 H 1.1240 1.0428 0.8199
H69 H 1.1192 1.0802 0.9079
C82 C 1.1286(10) 1.1131(3) 0.7698(7)
H70 H 1.1006 1.1051 0.6972
H71 H 1.2252 1.1163 0.7892
H72 H 1.0877 1.1430 0.7822
C83 C 0.9125(10) 1.0603(3) 1.0375(7)
H73 H 0.9518 1.0887 1.0138
H74 H 0.8153 1.0647 1.0209
C84 C 0.9616(11) 1.0568(4) 1.1522(7)
H75 H 0.9226 1.0289 1.1769
H76 H 0.9358 1.0852 1.1841
H77 H 1.0583 1.0539 1.1699
C85 C 0.8656(10) 0.7497(3) 0.7690(7)
H78 H 0.9574 0.7375 0.7837
H79 H 0.8324 0.7502 0.6939
C86 C 0.7814(9) 0.7149(3) 0.8126(6)
H80 H 0.6867 0.7249 0.7914
C87 C 0.7944(11) 0.6652(3) 0.7728(7)
H81 H 0.8895 0.6570 0.7859
H82 H 0.7522 0.6427 0.8114
C88 C 0.7329(16) 0.6594(4) 0.6606(8)
H83 H 0.7742 0.6823 0.6221
H84 H 0.6375 0.6672 0.6477
C89 C 0.7478(18) 0.6101(5) 0.6206(10)
H85 H 0.8151 0.5936 0.6735
H86 H 0.6628 0.5935 0.6164
C90 C 0.778(4) 0.6037(7) 0.5381(18)
H87 H 0.7331 0.6272 0.4886
H88 H 0.7508 0.5719 0.5128
H89 H 0.8740 0.6069 0.5478
C91 C 0.8263(9) 0.7163(4) 0.9309(6)
H90 H 0.9184 0.7045 0.9518
H91 H 0.8265 0.7495 0.9536
C92 C 0.7413(10) 0.6876(4) 0.9851(7)
H92 H 0.6484 0.6967 0.9599
H93 H 0.7687 0.6936 1.0586
H94 H 0.7516 0.6540 0.9720
C93 C 1.4660(9) 0.9023(3) 1.3711(6)
N3 N 0.8893(7) 0.9305(2) 0.9558(5)
N4 N 0.8694(6) 0.7969(3) 0.8052(5)
O6 O 0.6811(6) 0.9398(2) 0.8478(4)
O7 O 1.0754(6) 0.7863(2) 0.9177(4)
O8 O 0.2507(6) 0.8107(2) 0.4463(4)
O9 O 1.3935(7) 0.9733(3) 1.3149(5)
S3 S 1.1577(2) 0.94117(10) 1.14643(17)
S4 S 0.6165(2) 0.78808(9) 0.60846(16)
C47? C -0.1250(7) 0.7670(3) 0.4809(5)
O5? O -0.2107(8) 0.8363(4) 0.4244(6)
C94? C 1.3935(7) 0.9733(3) 1.3149(5)
O10? O 1.4660(9) 0.9023(3) 1.3711(6)
loop_
_geom_bond_atom_site_label_1
_geom_bond_atom_site_label_2
_geom_bond_site_symmetry_1
_geom_bond_site_symmetry_2
C1 C4 1_555 1_555
C2 C6 1_555 1_555
C3 C4 1_555 1_555
C4 C6 1_555 1_555
C5 C6 1_555 1_555
C7 C5 1_555 1_555
C8 C7 1_555 1_555
H1 C8 1_555 1_555
C9 C8 1_555 1_555
H2 C9 1_555 1_555
C10 C9 1_555 1_555
C11 C10 1_555 1_555
C12 C11 1_555 1_555
H3 C12 1_555 1_555
C13 C12 1_555 1_555
C14 C13 1_555 1_555
H4 C14 1_555 1_555
C15 C14 1_555 1_555
H5 C15 1_555 1_555
C16 C15 1_555 1_555
H6 C16 1_555 1_555
C17 C16 1_555 1_555
H7 C17 1_555 1_555
C18 C13 1_555 1_555
C19 C3 1_555 1_555
C20 C19 1_555 1_555
H8 C20 1_555 1_555
C21 C20 1_555 1_555
H9 C21 1_555 1_555
C22 C21 1_555 1_555
C23 C22 1_555 1_555
C24 C25 1_555 1_555
C25 H10 1_555 1_555
C26 C25 1_555 1_555
H11 C26 1_555 1_555
C27 C26 1_555 1_555
H12 C27 1_555 1_555
C28 C27 1_555 1_555
H13 C28 1_555 1_555
C29 C24 1_555 1_555
C30 H14 1_555 1_555
H15 C30 1_555 1_555
C31 C30 1_555 1_555
H16 C31 1_555 1_555
C32 C31 1_555 1_555
H17 C32 1_555 1_555
H18 C32 1_555 1_555
C33 C32 1_555 1_555
H19 C33 1_555 1_555
H20 C33 1_555 1_555
C34 C33 1_555 1_555
H21 C34 1_555 1_555
H22 C34 1_555 1_555
C35 C34 1_555 1_555
H23 C35 1_555 1_555
H24 C35 1_555 1_555
H25 C35 1_555 1_555
C36 C31 1_555 1_555
H26 C36 1_555 1_555
H27 C36 1_555 1_555
C37 C36 1_555 1_555
H28 C37 1_555 1_555
H29 C37 1_555 1_555
H30 C37 1_555 1_555
C38 H31 1_555 1_555
H32 C38 1_555 1_555
C39 C38 1_555 1_555
H33 C39 1_555 1_555
C40 C39 1_555 1_555
H34 C40 1_555 1_555
H35 C40 1_555 1_555
C41 C40 1_555 1_555
H36 C41 1_555 1_555
H37 C41 1_555 1_555
C42 C41 1_555 1_555
H38 C42 1_555 1_555
H39 C42 1_555 1_555
C43 C42 1_555 1_555
H40 C43 1_555 1_555
H41 C43 1_555 1_555
H42 C43 1_555 1_555
C44 C39 1_555 1_555
H43 C44 1_555 1_555
H44 C44 1_555 1_555
C45 C44 1_555 1_555
H45 C45 1_555 1_555
H46 C45 1_555 1_555
H47 C45 1_555 1_555
C46 C23 1_555 1_555
N1 C1 1_555 1_555
N2 C2 1_555 1_555
O1 C2 1_555 1_555
O2 C1 1_555 1_555
O3 C11 1_555 1_555
O4 C23 1_555 1_555
S1 C7 1_555 1_555
S2 C19 1_555 1_555
C48 C49 1_555 1_555
C49 C50 1_555 1_555
C50 C65 1_555 1_555
C51 C52 1_555 1_555
C52 C49 1_555 1_555
C53 C52 1_555 1_555
C54 C53 1_555 1_555
C55 C54 1_555 1_555
H48 C55 1_555 1_555
C56 C55 1_555 1_555
H49 C56 1_555 1_555
C57 C56 1_555 1_555
C58 C57 1_555 1_555
C59 C60 1_555 1_555
C60 H50 1_555 1_555
C61 C60 1_555 1_555
H51 C61 1_555 1_555
C62 C61 1_555 1_555
H52 C62 1_555 1_555
C63 C62 1_555 1_555
H53 C63 1_555 1_555
C64 C59 1_555 1_555
C65 C66 1_555 1_555
C66 H54 1_555 1_555
C67 C66 1_555 1_555
H55 C67 1_555 1_555
C68 C67 1_555 1_555
C69 C68 1_555 1_555
C70 C69 1_555 1_555
H56 C70 1_555 1_555
C71 C70 1_555 1_555
C72 C71 1_555 1_555
H57 C72 1_555 1_555
C73 C72 1_555 1_555
H58 C73 1_555 1_555
C74 C73 1_555 1_555
H59 C74 1_555 1_555
C75 C74 1_555 1_555
H60 C75 1_555 1_555
C76 C71 1_555 1_555
C77 H61 1_555 1_555
H62 C77 1_555 1_555
C78 C77 1_555 1_555
H63 C78 1_555 1_555
C79 C78 1_555 1_555
H64 C79 1_555 1_555
H65 C79 1_555 1_555
C80 C79 1_555 1_555
H66 C80 1_555 1_555
H67 C80 1_555 1_555
C81 C80 1_555 1_555
H68 C81 1_555 1_555
H69 C81 1_555 1_555
C82 C81 1_555 1_555
H70 C82 1_555 1_555
H71 C82 1_555 1_555
H72 C82 1_555 1_555
C83 C78 1_555 1_555
H73 C83 1_555 1_555
H74 C83 1_555 1_555
C84 C83 1_555 1_555
H75 C84 1_555 1_555
H76 C84 1_555 1_555
H77 C84 1_555 1_555
C85 H78 1_555 1_555
H79 C85 1_555 1_555
C86 C85 1_555 1_555
H80 C86 1_555 1_555
C87 C86 1_555 1_555
H81 C87 1_555 1_555
H82 C87 1_555 1_555
C88 C87 1_555 1_555
H83 C88 1_555 1_555
H84 C88 1_555 1_555
C89 C88 1_555 1_555
H85 C89 1_555 1_555
H86 C89 1_555 1_555
C90 C89 1_555 1_555
H87 C90 1_555 1_555
H88 C90 1_555 1_555
H89 C90 1_555 1_555
C91 C86 1_555 1_555
H90 C91 1_555 1_555
H91 C91 1_555 1_555
C92 C91 1_555 1_555
H92 C92 1_555 1_555
H93 C92 1_555 1_555
H94 C92 1_555 1_555
C93 C58 1_555 1_555
N3 C48 1_555 1_555
N4 C50 1_555 1_555
O6 C48 1_555 1_555
O7 C51 1_555 1_555
O8 C69 1_555 1_555
O9 C58 1_555 1_555
S3 C54 1_555 1_555
S4 C65 1_555 1_555
C3 N2 1_555 1_555
C5 N1 1_555 1_555
C10 S1 1_555 1_555
C17 C18 1_555 1_555
C18 O3 1_555 1_555
C22 S2 1_555 1_555
C24 C46 1_555 1_555
C28 C29 1_555 1_555
C29 O4 1_555 1_555
C30 N1 1_555 1_555
C38 N2 1_555 1_555
C51 N4 1_555 1_555
C53 N3 1_555 1_555
C57 S3 1_555 1_555
C59 O9 1_555 1_555
C63 C64 1_555 1_555
C64 C93 1_555 1_555
C68 S4 1_555 1_555
C75 C76 1_555 1_555
C76 O8 1_555 1_555
C77 N3 1_555 1_555
C85 N4 1_555 1_555

#END
