
#######################################################################
#
#                 Cambridge Crystallographic Data Centre
#                                CCDC 
#
#######################################################################
#
# If this CIF has been generated from an entry in the Cambridge 
# Structural Database, then it will include bibliographic, chemical, 
# crystal, experimental, refinement or atomic coordinate data resulting 
# from the CCDC's data processing and validation procedures.
#
#######################################################################

data_RIGWUZ
_chemical_formula_moiety         'C32 H44 N6 O2 6+,H3 O1 1+,7(Br1 1-)'
_chemical_name_systematic        
"bis((N,N'-(2,6-Dimethylene-p-cresol)-2,6-bis(aminomethyl)pyridinium)) oxonium heptabromide"
_symmetry_cell_setting           monoclinic
_symmetry_space_group_name_H-M   'C 2/m'
_symmetry_Int_Tables_number      12
_space_group_name_Hall           '-C 2y'
loop_
_symmetry_equiv_pos_site_id
_symmetry_equiv_pos_as_xyz
1 x,y,z
2 -x,y,-z
3 1/2+x,1/2+y,z
4 1/2-x,1/2+y,-z
5 -x,-y,-z
6 x,-y,z
7 1/2-x,1/2-y,-z
8 1/2+x,1/2-y,z
_cell_length_a                   26.737(11)
_cell_length_b                   16.885(7)
_cell_length_c                   10.325(4)
_cell_angle_alpha                90
_cell_angle_beta                 101.94(3)
_cell_angle_gamma                90
_cell_volume                     4560.42
_exptl_crystal_colour            'pale brown'
_cell_formula_units_Z            4
loop_
_atom_site_label
_atom_site_type_symbol
_atom_site_fract_x
_atom_site_fract_y
_atom_site_fract_z
Br1 Br 0.0571(1) 0.5000 0.8482(2)
Br2 Br 0.2594(1) 0.3488(1) 1.1512(2)
Br3 Br 0.1069(1) 0.5000 0.5083(2)
Br4 Br -0.1585(1) 0.7441(1) 0.5738(2)
Br5 Br -0.0207(2) 1.0000 0.7548(8)
O1 O 0.0552(3) 0.6461(5) 0.6236(8)
N1 N -0.0597(6) 0.5000 0.8193(14)
N2 N -0.0476(4) 0.6666(6) 0.6841(10)
N3 N 0.1966(3) 0.6818(6) 0.7264(11)
N4 N 0.2466(5) 0.5000 0.7165(15)
C1 C -0.1595(7) 0.5000 0.8297(19)
C2 C -0.1357(5) 0.5702(9) 0.8231(13)
C3 C -0.0841(5) 0.5701(8) 0.8206(12)
C4 C -0.0541(5) 0.6414(9) 0.8204(12)
C5 C -0.0219(5) 0.7440(7) 0.6775(14)
C6 C 0.0331(4) 0.7460(8) 0.7673(13)
C7 C 0.0439(5) 0.7970(8) 0.8730(13)
C8 C 0.0913(5) 0.7957(9) 0.9483(13)
C9 C 0.1271(5) 0.7419(8) 0.9236(11)
C10 C 0.1175(5) 0.6898(8) 0.8172(15)
C11 C 0.0695(5) 0.6940(8) 0.7351(13)
C12 C 0.1048(6) 0.8558(11) 1.0571(15)
C13 C 0.1604(5) 0.6377(8) 0.7927(14)
C14 C 0.2472(4) 0.6448(8) 0.7337(15)
C15 C 0.2456(4) 0.5711(7) 0.6523(13)
C16 C 0.2476(5) 0.5709(9) 0.5162(14)
C17 C 0.2490(7) 0.5000 0.4544(22)
H1 H 0.0246(3) 0.6567(5) 0.5855(8)
H2 H -0.0784(4) 0.6673(6) 0.6290(10)
H3 H -0.0288(4) 0.6287(6) 0.6557(10)
H4 H 0.2012(3) 0.7296(6) 0.7655(11)
H5 H 0.1819(3) 0.6896(6) 0.6407(11)
H6 H -0.1945(7) 0.5000 0.8389(19)
H7 H -0.1546(5) 0.6188(9) 0.8210(13)
H8 H -0.0710(5) 0.6843(9) 0.8550(12)
H9 H -0.0212(5) 0.6344(9) 0.8774(12)
H10 H -0.0421(5) 0.7853(7) 0.7047(14)
H11 H -0.0191(5) 0.7544(7) 0.5878(14)
H12 H 0.0186(5) 0.8338(8) 0.8899(13)
H13 H 0.1604(5) 0.7412(8) 0.9807(11)
H14 H 0.1394(6) 0.8464(11) 1.1026(15)
H15 H 0.1021(6) 0.9081(11) 1.0198(15)
H16 H 0.0824(6) 0.8512(11) 1.1183(15)
H17 H 0.1785(5) 0.6149(8) 0.8742(14)
H18 H 0.1455(5) 0.5955(8) 0.7351(14)
H19 H 0.2616(4) 0.6315(8) 0.8242(15)
H20 H 0.2697(4) 0.6822(8) 0.7049(15)
H21 H 0.2483(5) 0.6202(9) 0.4702(14)
H22 H 0.2509(7) 0.5000 0.3625(22)
C3E C -0.0841(5) 0.4299(8) 0.8206(12)
C2E C -0.1357(5) 0.4298(9) 0.8231(13)
H7E H -0.1546(5) 0.3812(9) 0.8210(13)
C4E C -0.0541(5) 0.3586(9) 0.8204(12)
N2E N -0.0476(4) 0.3334(6) 0.6841(10)
C5E C -0.0219(5) 0.2560(7) 0.6775(14)
C6E C 0.0331(4) 0.2540(8) 0.7673(13)
C7E C 0.0439(5) 0.2030(8) 0.8730(13)
C8E C 0.0913(5) 0.2043(9) 0.9483(13)
C9E C 0.1271(5) 0.2581(8) 0.9236(11)
C10E C 0.1175(5) 0.3102(8) 0.8172(15)
C11E C 0.0695(5) 0.3060(8) 0.7351(13)
O1E O 0.0552(3) 0.3539(5) 0.6236(8)
H1E H 0.0246(3) 0.3433(5) 0.5855(8)
C13E C 0.1604(5) 0.3623(8) 0.7927(14)
N3E N 0.1966(3) 0.3182(6) 0.7264(11)
C14E C 0.2472(4) 0.3552(8) 0.7337(15)
C15E C 0.2456(4) 0.4289(7) 0.6523(13)
C16E C 0.2476(5) 0.4291(9) 0.5162(14)
H21E H 0.2483(5) 0.3798(9) 0.4702(14)
H19E H 0.2616(4) 0.3685(8) 0.8242(15)
H20E H 0.2697(4) 0.3178(8) 0.7049(15)
H4E H 0.2012(3) 0.2704(6) 0.7655(11)
H5E H 0.1819(3) 0.3104(6) 0.6407(11)
H17E H 0.1785(5) 0.3851(8) 0.8742(14)
H18E H 0.1455(5) 0.4045(8) 0.7351(14)
H13E H 0.1604(5) 0.2588(8) 0.9807(11)
C12E C 0.1048(6) 0.1442(11) 1.0571(15)
H14E H 0.1394(6) 0.1536(11) 1.1026(15)
H15E H 0.1021(6) 0.0919(11) 1.0198(15)
H16E H 0.0824(6) 0.1488(11) 1.1183(15)
H12E H 0.0186(5) 0.1662(8) 0.8899(13)
H10E H -0.0421(5) 0.2147(7) 0.7047(14)
H11E H -0.0191(5) 0.2456(7) 0.5878(14)
H2E H -0.0784(4) 0.3327(6) 0.6290(10)
H3E H -0.0288(4) 0.3713(6) 0.6557(10)
H8E H -0.0710(5) 0.3157(9) 0.8550(12)
H9E H -0.0212(5) 0.3656(9) 0.8774(12)
O2 O 0.2700(8) 0.5000 0.9733(17)
loop_
_geom_bond_atom_site_label_1
_geom_bond_atom_site_label_2
_geom_bond_site_symmetry_1
_geom_bond_site_symmetry_2
O1 C11 1_555 1_555
N1 C3 1_555 1_555
N2 C4 1_555 1_555
N3 C13 1_555 1_555
N4 C15 1_555 1_555
C1 C2 1_555 1_555
C2 C3 1_555 1_555
C3 C4 1_555 1_555
C4 H8 1_555 1_555
C5 N2 1_555 1_555
C6 C5 1_555 1_555
C7 C6 1_555 1_555
C8 C7 1_555 1_555
C9 C8 1_555 1_555
C10 C9 1_555 1_555
C11 C6 1_555 1_555
C12 C8 1_555 1_555
C13 C10 1_555 1_555
C14 N3 1_555 1_555
C15 C14 1_555 1_555
C16 C15 1_555 1_555
C17 C16 1_555 1_555
H1 O1 1_555 1_555
H2 N2 1_555 1_555
H3 N2 1_555 1_555
H4 N3 1_555 1_555
H5 N3 1_555 1_555
H6 C1 1_555 1_555
H7 C2 1_555 1_555
H9 C4 1_555 1_555
H10 C5 1_555 1_555
H11 C5 1_555 1_555
H12 C7 1_555 1_555
H13 C9 1_555 1_555
H14 C12 1_555 1_555
H15 C12 1_555 1_555
H16 C12 1_555 1_555
H17 C13 1_555 1_555
H18 C13 1_555 1_555
H19 C14 1_555 1_555
H20 C14 1_555 1_555
H21 C16 1_555 1_555
H22 C17 1_555 1_555
C3E N1 1_555 1_555
C2E C1 1_555 1_555
H7E C2E 1_555 1_555
C4E C3E 1_555 1_555
N2E C4E 1_555 1_555
C5E N2E 1_555 1_555
C6E C5E 1_555 1_555
C7E C6E 1_555 1_555
C8E C7E 1_555 1_555
C9E C8E 1_555 1_555
C10E C9E 1_555 1_555
C11E C6E 1_555 1_555
O1E C11E 1_555 1_555
H1E O1E 1_555 1_555
C13E C10E 1_555 1_555
N3E C13E 1_555 1_555
C14E N3E 1_555 1_555
C15E N4 1_555 1_555
C16E C17 1_555 1_555
H21E C16E 1_555 1_555
H19E C14E 1_555 1_555
H20E C14E 1_555 1_555
H4E N3E 1_555 1_555
H5E N3E 1_555 1_555
H17E C13E 1_555 1_555
H18E C13E 1_555 1_555
H13E C9E 1_555 1_555
C12E C8E 1_555 1_555
H14E C12E 1_555 1_555
H15E C12E 1_555 1_555
H16E C12E 1_555 1_555
H12E C7E 1_555 1_555
H10E C5E 1_555 1_555
H11E C5E 1_555 1_555
H2E N2E 1_555 1_555
H3E N2E 1_555 1_555
H8E C4E 1_555 1_555
H9E C4E 1_555 1_555
C10 C11 1_555 1_555
C3E C2E 1_555 1_555
C10E C11E 1_555 1_555
C14E C15E 1_555 1_555
C15E C16E 1_555 1_555

#END
