
#######################################################################
#
#                 Cambridge Crystallographic Data Centre
#                                CCDC 
#
#######################################################################
#
# If this CIF has been generated from an entry in the Cambridge 
# Structural Database, then it will include bibliographic, chemical, 
# crystal, experimental, refinement or atomic coordinate data resulting 
# from the CCDC's data processing and validation procedures.
#
#######################################################################

data_RIGYOW
_chemical_formula_moiety         'C17 H17 N3 O1 S1'
_chemical_name_systematic        
(Z)-1,5-Dimethyl-4-((5-methylthien-2-yl)methyleneamino)-2-phenyl-1H-pyrazol-3(2H)-one
_symmetry_cell_setting           triclinic
_symmetry_space_group_name_H-M   'P -1'
_symmetry_Int_Tables_number      2
_space_group_name_Hall           '-P 1'
loop_
_symmetry_equiv_pos_site_id
_symmetry_equiv_pos_as_xyz
1 x,y,z
2 -x,-y,-z
_cell_length_a                   7.042(4)
_cell_length_b                   8.664(5)
_cell_length_c                   13.988(8)
_cell_angle_alpha                106.729(7)
_cell_angle_beta                 95.394(7)
_cell_angle_gamma                99.568(8)
_cell_volume                     796.801
_exptl_crystal_colour            yellow
_exptl_crystal_description       block
_cell_formula_units_Z            2
_exptl_crystal_recrystallization_method dichloromethane/ethanol
loop_
_atom_site_label
_atom_site_type_symbol
_atom_site_fract_x
_atom_site_fract_y
_atom_site_fract_z
C1 C 0.2382(3) 0.5530(2) 0.26628(15)
C2 C 0.3531(3) 0.5054(3) 0.33425(16)
H1 H 0.3351 0.3956 0.3321
C3 C 0.4955(3) 0.6234(3) 0.40559(18)
H2 H 0.5758 0.5922 0.4502
C4 C 0.5182(4) 0.7880(3) 0.4104(2)
H3 H 0.6127 0.8670 0.4587
C5 C 0.4005(4) 0.8342(3) 0.34351(19)
H4 H 0.4154 0.9446 0.3474
C6 C 0.2586(3) 0.7164(3) 0.26973(17)
H5 H 0.1799 0.7472 0.2242
C7 C 0.1688(3) 0.3090(2) 0.11286(15)
C8 C 0.0216(3) 0.2627(2) 0.02558(14)
C9 C -0.1188(3) 0.3556(2) 0.05033(15)
C10 C -0.1957(3) 0.5374(3) 0.21270(17)
H6 H -0.2793 0.5868 0.1776
H7 H -0.1199 0.6201 0.2712
H8 H -0.2733 0.4539 0.2332
C11 C -0.3114(3) 0.3438(3) -0.01048(18)
H9 H -0.4147 0.3204 0.0266
H10 H -0.3280 0.2573 -0.0734
H11 H -0.3145 0.4464 -0.0235
C12 C 0.1536(3) 0.0752(3) -0.08877(16)
H12 H 0.2465 0.0823 -0.0350
C13 C 0.1674(3) -0.0296(3) -0.18876(16)
C14 C 0.3103(3) -0.1160(3) -0.21765(18)
H13 H 0.4160 -0.1185 -0.1733
C15 C 0.2785(3) -0.2008(3) -0.32260(18)
H14 H 0.3629 -0.2643 -0.3538
C16 C 0.1167(3) -0.1822(3) -0.37344(17)
C17 C 0.0376(4) -0.2539(4) -0.48488(19)
H15 H 0.1350 -0.3005 -0.5205
H16 H 0.0040 -0.1686 -0.5102
H17 H -0.0762 -0.3381 -0.4946
N1 N 0.1036(2) 0.4266(2) 0.18842(13)
N2 N -0.0651(2) 0.4632(2) 0.14565(13)
N3 N 0.0206(2) 0.1574(2) -0.07154(13)
O1 O 0.3281(2) 0.26705(19) 0.12588(11)
S1 S -0.00437(8) -0.05443(8) -0.29243(4)
loop_
_geom_bond_atom_site_label_1
_geom_bond_atom_site_label_2
_geom_bond_site_symmetry_1
_geom_bond_site_symmetry_2
C1 C2 1_555 1_555
C2 H1 1_555 1_555
C3 C2 1_555 1_555
H2 C3 1_555 1_555
C4 C3 1_555 1_555
H3 C4 1_555 1_555
C5 C4 1_555 1_555
H4 C5 1_555 1_555
C6 C1 1_555 1_555
H5 C6 1_555 1_555
C7 C8 1_555 1_555
C8 C9 1_555 1_555
C9 C11 1_555 1_555
C10 H6 1_555 1_555
H7 C10 1_555 1_555
H8 C10 1_555 1_555
C11 H9 1_555 1_555
H10 C11 1_555 1_555
H11 C11 1_555 1_555
C12 H12 1_555 1_555
C13 C12 1_555 1_555
C14 C13 1_555 1_555
H13 C14 1_555 1_555
C15 C14 1_555 1_555
H14 C15 1_555 1_555
C16 C15 1_555 1_555
C17 C16 1_555 1_555
H15 C17 1_555 1_555
H16 C17 1_555 1_555
H17 C17 1_555 1_555
N1 C1 1_555 1_555
N2 C9 1_555 1_555
N3 C8 1_555 1_555
O1 C7 1_555 1_555
S1 C13 1_555 1_555
C5 C6 1_555 1_555
C7 N1 1_555 1_555
C10 N2 1_555 1_555
C12 N3 1_555 1_555
C16 S1 1_555 1_555
N1 N2 1_555 1_555

#END
