
#######################################################################
#
#                 Cambridge Crystallographic Data Centre
#                                CCDC 
#
#######################################################################
#
# If this CIF has been generated from an entry in the Cambridge 
# Structural Database, then it will include bibliographic, chemical, 
# crystal, experimental, refinement or atomic coordinate data resulting 
# from the CCDC's data processing and validation procedures.
#
#######################################################################

data_RIGYAI
_chemical_formula_moiety         'C18 H27 Cl1 O11'
_chemical_name_systematic        
'2-(2-Chloroethoxy)ethyl 2,3,4,6-tetra-O-acetyl-\b-D-glucopyranoside'
_symmetry_cell_setting           orthorhombic
_symmetry_space_group_name_H-M   'P 21 21 21'
_symmetry_Int_Tables_number      19
_space_group_name_Hall           'P 2ac 2ab'
loop_
_symmetry_equiv_pos_site_id
_symmetry_equiv_pos_as_xyz
1 x,y,z
2 1/2-x,-y,1/2+z
3 -x,1/2+y,1/2-z
4 1/2+x,1/2-y,-z
_cell_length_a                   7.5382(13)
_cell_length_b                   14.195(3)
_cell_length_c                   21.204(4)
_cell_angle_alpha                90
_cell_angle_beta                 90
_cell_angle_gamma                90
_cell_volume                     2268.93
_exptl_crystal_colour            colorless
_exptl_crystal_description       column
_cell_formula_units_Z            4
_exptl_crystal_recrystallization_method ethanol/water
loop_
_atom_site_label
_atom_site_type_symbol
_atom_site_fract_x
_atom_site_fract_y
_atom_site_fract_z
C1 C 0.1755(4) 0.9731(2) 0.01052(13)
H1 H 0.2538 1.0274 0.0167
C2 C 0.0221(4) 0.99883(18) -0.03236(13)
H2 H -0.0508 0.9431 -0.0409
C3 C -0.0896(4) 1.07522(18) -0.00178(13)
H3 H -0.0239 1.1348 -0.0008
C4 C -0.1426(4) 1.04628(18) 0.06463(13)
H4 H -0.2280 0.9943 0.0626
C5 C 0.0189(4) 1.01584(19) 0.10235(13)
H5 H 0.1002 1.0693 0.1064
C6 C -0.0264(5) 0.9797(2) 0.16670(14)
H6 H 0.0792 0.9560 0.1874
H7 H -0.0755 1.0301 0.1923
C7 C -0.2576(6) 0.8854(3) 0.20918(16)
C8 C -0.3918(7) 0.8146(3) 0.1925(2)
H8 H -0.4642 0.8014 0.2287
H9 H -0.3340 0.7578 0.1790
H10 H -0.4648 0.8383 0.1590
C9 C -0.3865(5) 1.1182(3) 0.11907(16)
C10 C -0.4441(6) 1.2082(3) 0.14768(19)
H11 H -0.5614 1.2011 0.1647
H12 H -0.4447 1.2566 0.1161
H13 H -0.3636 1.2253 0.1808
C11 C -0.3081(4) 1.1719(2) -0.05358(14)
C12 C -0.4690(5) 1.1648(3) -0.09423(18)
H14 H -0.5117 1.2269 -0.1038
H15 H -0.5595 1.1303 -0.0724
H16 H -0.4394 1.1328 -0.1327
C13 C 0.0893(4) 0.9785(2) -0.14137(14)
C14 C 0.1764(6) 1.0232(3) -0.19647(15)
H17 H 0.1723 0.9810 -0.2318
H18 H 0.2977 1.0371 -0.1863
H19 H 0.1155 1.0805 -0.2069
C15 C 0.4186(5) 0.8690(3) 0.02034(18)
H20 H 0.3777 0.8406 0.0593
H21 H 0.4904 0.9234 0.0311
C16 C 0.5271(5) 0.8010(3) -0.0143(2)
H22 H 0.6003 0.7662 0.0153
H23 H 0.4502 0.7564 -0.0356
C17 C 0.5595(11) 0.8630(5) -0.1191(2)
H24 H 0.5916 0.9248 -0.1349
H25 H 0.4313 0.8569 -0.1185
C18 C 0.6461(7) 0.7849(4) -0.1571(2)
H26 H 0.6190 0.7244 -0.1381
H27 H 0.7739 0.7930 -0.1566
Cl1 Cl 0.5667(5) 0.7865(3) -0.23801(13)
O1 O 0.1055(3) 0.94203(13) 0.06919(9)
O2 O -0.1540(3) 0.90570(15) 0.15955(9)
O3 O -0.2416(5) 0.9234(2) 0.25869(13)
O4 O -0.2231(3) 1.12583(13) 0.09468(9)
O5 O -0.4716(4) 1.0471(2) 0.11726(17)
O6 O -0.2470(3) 1.08482(13) -0.03989(9)
O7 O -0.2418(4) 1.24259(16) -0.03553(13)
O8 O 0.0921(3) 1.03612(13) -0.09056(9)
O9 O 0.0267(4) 0.90214(19) -0.14093(12)
O10 O 0.2679(3) 0.89899(14) -0.01624(10)
O11 O 0.6350(4) 0.8454(3) -0.05836(16)
C19? C 0.556(3) 0.8083(14) -0.1155(5)
H28? H 0.4302 0.8229 -0.1149
H29? H 0.5673 0.7403 -0.1149
C20? C 0.634(2) 0.8447(14) -0.1780(5)
H30? H 0.7555 0.8237 -0.1822
H31? H 0.6327 0.9130 -0.1782
Cl2? Cl 0.5049(10) 0.8012(7) -0.2426(4)
loop_
_geom_bond_atom_site_label_1
_geom_bond_atom_site_label_2
_geom_bond_site_symmetry_1
_geom_bond_site_symmetry_2
C1 H1 1_555 1_555
C2 C1 1_555 1_555
H2 C2 1_555 1_555
C3 C2 1_555 1_555
H3 C3 1_555 1_555
C4 C3 1_555 1_555
H4 C4 1_555 1_555
C5 C4 1_555 1_555
H5 C5 1_555 1_555
C6 C5 1_555 1_555
H6 C6 1_555 1_555
H7 C6 1_555 1_555
C7 C8 1_555 1_555
C8 H8 1_555 1_555
H9 C8 1_555 1_555
H10 C8 1_555 1_555
C9 C10 1_555 1_555
C10 H11 1_555 1_555
H12 C10 1_555 1_555
H13 C10 1_555 1_555
C11 C12 1_555 1_555
C12 H14 1_555 1_555
H15 C12 1_555 1_555
H16 C12 1_555 1_555
C13 C14 1_555 1_555
C14 H17 1_555 1_555
H18 C14 1_555 1_555
H19 C14 1_555 1_555
C15 H20 1_555 1_555
H21 C15 1_555 1_555
C16 C15 1_555 1_555
H22 C16 1_555 1_555
H23 C16 1_555 1_555
C17 H24 1_555 1_555
H25 C17 1_555 1_555
C18 C17 1_555 1_555
H26 C18 1_555 1_555
H27 C18 1_555 1_555
Cl1 C18 1_555 1_555
O1 C1 1_555 1_555
O2 C6 1_555 1_555
O3 C7 1_555 1_555
O4 C4 1_555 1_555
O5 C9 1_555 1_555
O6 C3 1_555 1_555
O7 C11 1_555 1_555
O8 C2 1_555 1_555
O9 C13 1_555 1_555
O10 C1 1_555 1_555
O11 C16 1_555 1_555
C5 O1 1_555 1_555
C7 O2 1_555 1_555
C9 O4 1_555 1_555
C11 O6 1_555 1_555
C13 O8 1_555 1_555
C15 O10 1_555 1_555
C17 O11 1_555 1_555

#END
