
#######################################################################
#
#                 Cambridge Crystallographic Data Centre
#                                CCDC 
#
#######################################################################
#
# If this CIF has been generated from an entry in the Cambridge 
# Structural Database, then it will include bibliographic, chemical, 
# crystal, experimental, refinement or atomic coordinate data resulting 
# from the CCDC's data processing and validation procedures.
#
#######################################################################

data_RIGZIR
_chemical_formula_moiety         'C27 H28 Cl1 N5 O1'
_chemical_name_systematic        
3-(4-Chlorophenyl)-2-(diisobutylamino)-4-oxo-5-phenyl-4,5-dihydro-3H-pyrrolo(3,2-d)pyrimidine-7-carbonitrile
_symmetry_cell_setting           triclinic
_symmetry_space_group_name_H-M   'P -1'
_symmetry_Int_Tables_number      2
_space_group_name_Hall           '-P 1'
loop_
_symmetry_equiv_pos_site_id
_symmetry_equiv_pos_as_xyz
1 x,y,z
2 -x,-y,-z
_cell_length_a                   8.7272(6)
_cell_length_b                   12.7635(9)
_cell_length_c                   13.3411(9)
_cell_angle_alpha                103.8210(10)
_cell_angle_beta                 107.8280(10)
_cell_angle_gamma                106.6840(10)
_cell_volume                     1265.14
_exptl_crystal_colour            colorless
_exptl_crystal_description       block
_cell_formula_units_Z            2
_exptl_crystal_recrystallization_method ethanol/dichloromethane
loop_
_atom_site_label
_atom_site_type_symbol
_atom_site_fract_x
_atom_site_fract_y
_atom_site_fract_z
C1 C 0.6572(4) 0.2077(2) -0.3739(2)
C2 C 0.8171(4) 0.1998(3) -0.3345(3)
H1 H 0.8463 0.1702 -0.2773
C3 C 0.9347(5) 0.2372(3) -0.3822(4)
H2 H 1.0439 0.2332 -0.3560
C4 C 0.8914(7) 0.2792(4) -0.4661(4)
H3 H 0.9708 0.3037 -0.4972
C5 C 0.7319(8) 0.2857(4) -0.5054(3)
H4 H 0.7033 0.3143 -0.5635
C6 C 0.6124(5) 0.2502(3) -0.4597(2)
H5 H 0.5038 0.2550 -0.4864
C7 C 0.3635(3) 0.0923(2) -0.3943(2)
H6 H 0.3168 0.0582 -0.4725
C8 C 0.2730(3) 0.0730(2) -0.3284(2)
C9 C 0.3922(3) 0.1419(2) -0.2150(2)
C10 C 0.5506(3) 0.1993(2) -0.2167(2)
C11 C 0.0965(4) -0.0033(3) -0.3641(2)
C12 C 0.6998(3) 0.2731(2) -0.1157(2)
C13 C 0.4921(3) 0.2192(2) -0.0253(2)
C14 C 0.8127(3) 0.3093(2) 0.08604(19)
C15 C 0.8359(3) 0.2254(2) 0.1313(2)
H7 H 0.7576 0.1477 0.0944
C16 C 0.9774(4) 0.2580(3) 0.2325(2)
H8 H 0.9936 0.2029 0.2647
C17 C 1.0926(3) 0.3731(3) 0.2840(2)
C18 C 1.0724(3) 0.4560(3) 0.2376(2)
H9 H 1.1532 0.5332 0.2733
C19 C 0.9316(3) 0.4243(2) 0.1376(2)
H10 H 0.9169 0.4796 0.1052
C20 C 0.5447(3) 0.3511(2) 0.1614(2)
H11 H 0.6423 0.3999 0.1510
H12 H 0.5915 0.3435 0.2340
C21 C 0.4228(6) 0.4153(4) 0.1662(4)
H13 H 0.3360 0.3718 0.1893
C22 C 0.5259(10) 0.5372(6) 0.2575(6)
H14 H 0.6041 0.5850 0.2338
H15 H 0.5921 0.5309 0.3263
H16 H 0.4465 0.5724 0.2696
C23 C 0.3231(13) 0.4174(11) 0.0508(7)
H17 H 0.2257 0.4376 0.0522
H18 H 0.2815 0.3415 -0.0058
H19 H 0.3996 0.4745 0.0338
C24 C 0.3096(3) 0.1501(2) 0.0690(2)
H20 H 0.2697 0.0782 0.0058
H21 H 0.2192 0.1813 0.0549
C25 C 0.3327(5) 0.1218(3) 0.1749(3)
H22 H 0.3541 0.1921 0.2356
C26 C 0.4823(5) 0.0853(4) 0.2111(3)
H23 H 0.4693 0.0211 0.1499
H24 H 0.4842 0.0614 0.2743
H25 H 0.5898 0.1500 0.2325
C27 C 0.1616(5) 0.0258(4) 0.1541(4)
H26 H 0.1414 -0.0451 0.0974
H27 H 0.0667 0.0501 0.1290
H28 H 0.1693 0.0121 0.2228
Cl1 Cl 1.27079(11) 0.41284(9) 0.41014(7)
N1 N 0.5307(3) 0.16805(19) -0.32917(17)
N2 N -0.0439(3) -0.0646(3) -0.3894(2)
N3 N 0.3580(2) 0.15372(19) -0.12032(17)
N4 N 0.6615(2) 0.27220(18) -0.01855(16)
N5 N 0.4693(3) 0.23473(18) 0.07389(16)
O1 O 0.8471(2) 0.32784(18) -0.10456(16)
H29? H 0.5014 0.3445 0.2194
H30? H 0.6700 0.3725 0.1957
C28? C 0.5166(11) 0.4456(6) 0.1302(7)
H31? H 0.5812 0.4620 0.0834
C29? C 0.601(2) 0.5543(10) 0.2397(11)
H32? H 0.5362 0.5428 0.2856
H33? H 0.5994 0.6223 0.2211
H34? H 0.7195 0.5654 0.2804
C30? C 0.3252(13) 0.4234(14) 0.0624(12)
H35? H 0.2529 0.3879 0.0966
H36? H 0.2873 0.3721 -0.0137
H37? H 0.3159 0.4965 0.0621
loop_
_geom_bond_atom_site_label_1
_geom_bond_atom_site_label_2
_geom_bond_site_symmetry_1
_geom_bond_site_symmetry_2
C1 C2 1_555 1_555
C2 H1 1_555 1_555
C3 C2 1_555 1_555
H2 C3 1_555 1_555
C4 C3 1_555 1_555
H3 C4 1_555 1_555
C5 C4 1_555 1_555
H4 C5 1_555 1_555
C6 C1 1_555 1_555
H5 C6 1_555 1_555
C7 H6 1_555 1_555
C8 C7 1_555 1_555
C9 C8 1_555 1_555
C10 C9 1_555 1_555
C11 C8 1_555 1_555
C12 C10 1_555 1_555
C13 N3 1_555 1_555
C14 C15 1_555 1_555
C15 H7 1_555 1_555
C16 C15 1_555 1_555
H8 C16 1_555 1_555
C17 C16 1_555 1_555
C18 C17 1_555 1_555
H9 C18 1_555 1_555
C19 C14 1_555 1_555
H10 C19 1_555 1_555
C20 H11 1_555 1_555
H12 C20 1_555 1_555
C21 C20 1_555 1_555
H13 C21 1_555 1_555
C22 C21 1_555 1_555
H14 C22 1_555 1_555
H15 C22 1_555 1_555
H16 C22 1_555 1_555
C23 C21 1_555 1_555
H17 C23 1_555 1_555
H18 C23 1_555 1_555
H19 C23 1_555 1_555
C24 H20 1_555 1_555
H21 C24 1_555 1_555
C25 C24 1_555 1_555
H22 C25 1_555 1_555
C26 C25 1_555 1_555
H23 C26 1_555 1_555
H24 C26 1_555 1_555
H25 C26 1_555 1_555
C27 C25 1_555 1_555
H26 C27 1_555 1_555
H27 C27 1_555 1_555
H28 C27 1_555 1_555
Cl1 C17 1_555 1_555
N1 C1 1_555 1_555
N2 C11 1_555 1_555
N3 C9 1_555 1_555
N4 C12 1_555 1_555
N5 C13 1_555 1_555
O1 C12 1_555 1_555
C5 C6 1_555 1_555
C7 N1 1_555 1_555
C10 N1 1_555 1_555
C13 N4 1_555 1_555
C14 N4 1_555 1_555
C18 C19 1_555 1_555
C20 N5 1_555 1_555
C24 N5 1_555 1_555

#END
