
#######################################################################
#
#                 Cambridge Crystallographic Data Centre
#                                CCDC 
#
#######################################################################
#
# If this CIF has been generated from an entry in the Cambridge 
# Structural Database, then it will include bibliographic, chemical, 
# crystal, experimental, refinement or atomic coordinate data resulting 
# from the CCDC's data processing and validation procedures.
#
#######################################################################

data_RIGZOZ
_chemical_formula_moiety         'C14 H17 N3 O2'
_chemical_name_systematic        
1-(morpholin-4-yl)-3-oxo-2,3,5,6,7,8-hexahydroisoquinoline-4-carbonitrile
_symmetry_cell_setting           monoclinic
_symmetry_space_group_name_H-M   'C 2/c'
_symmetry_Int_Tables_number      15
_space_group_name_Hall           '-C 2yn'
loop_
_symmetry_equiv_pos_site_id
_symmetry_equiv_pos_as_xyz
1 x,y,z
2 -x,y,1/2-z
3 1/2+x,1/2+y,z
4 1/2-x,1/2+y,1/2-z
5 -x,-y,-z
6 x,-y,1/2+z
7 1/2-x,1/2-y,-z
8 1/2+x,1/2-y,1/2+z
_cell_length_a                   25.9051(13)
_cell_length_b                   7.2866(3)
_cell_length_c                   15.1249(8)
_cell_angle_alpha                90
_cell_angle_beta                 117.324(4)
_cell_angle_gamma                90
_cell_volume                     2536.43
_exptl_crystal_colour            colorless
_exptl_crystal_description       prism
_cell_formula_units_Z            8
_exptl_crystal_preparation       CH~3~CN
loop_
_atom_site_label
_atom_site_type_symbol
_atom_site_fract_x
_atom_site_fract_y
_atom_site_fract_z
N1 N 0.54865(5) 0.79305(19) 0.18717(9)
H1 H 0.5506(7) 0.811(2) 0.2432(15)
C1 C 0.49265(5) 0.8079(2) 0.10970(10)
C2 C 0.48687(5) 0.7669(2) 0.01442(10)
C3 C 0.53494(6) 0.7147(2) 0.00049(10)
C4 C 0.59036(5) 0.7020(2) 0.08179(9)
C5 C 0.59633(5) 0.7423(2) 0.17596(10)
O1 O 0.45237(4) 0.85368(18) 0.12922(7)
C6 C 0.43079(6) 0.7856(2) -0.06932(11)
N2 N 0.38706(6) 0.8020(3) -0.13831(11)
C7 C 0.52541(6) 0.6843(2) -0.10469(10)
H2 H 0.5108 0.7971 -0.1419
H3 H 0.4957 0.5912 -0.1355
C8 C 0.57953(7) 0.6251(3) -0.11331(11)
H4 H 0.5857 0.4943 -0.1011
H5 H 0.5742 0.6498 -0.1800
C9 C 0.63194(7) 0.7292(3) -0.03832(11)
H6 H 0.6247 0.8602 -0.0470
H7 H 0.6655 0.7016 -0.0483
C10 C 0.64365(6) 0.6730(2) 0.06607(10)
H8 H 0.6548 0.5447 0.0766
H9 H 0.6757 0.7448 0.1145
N3 N 0.64841(5) 0.7445(2) 0.26037(9)
C11 C 0.68990(6) 0.5937(3) 0.28878(11)
H10 H 0.6820 0.5186 0.2310
H11 H 0.6860 0.5173 0.3379
C12 C 0.75091(6) 0.6692(3) 0.33146(12)
H12 H 0.7785 0.5686 0.3536
H13 H 0.7557 0.7357 0.2801
O2 O 0.76264(4) 0.7887(2) 0.41283(8)
C13 C 0.72165(6) 0.9339(3) 0.38495(12)
H14 H 0.7252 1.0088 0.3350
H15 H 0.7307 1.0109 0.4425
C14 C 0.65955(6) 0.8671(3) 0.34405(10)
H16 H 0.6542 0.8019 0.3951
H17 H 0.6329 0.9702 0.3218
loop_
_geom_bond_atom_site_label_1
_geom_bond_atom_site_label_2
_geom_bond_site_symmetry_1
_geom_bond_site_symmetry_2
N1 H1 1_555 1_555
C1 N1 1_555 1_555
C2 C1 1_555 1_555
C3 C2 1_555 1_555
C4 C3 1_555 1_555
C5 N1 1_555 1_555
O1 C1 1_555 1_555
C6 C2 1_555 1_555
N2 C6 1_555 1_555
C7 C3 1_555 1_555
H2 C7 1_555 1_555
H3 C7 1_555 1_555
C8 C7 1_555 1_555
H4 C8 1_555 1_555
H5 C8 1_555 1_555
C9 C8 1_555 1_555
H6 C9 1_555 1_555
H7 C9 1_555 1_555
C10 C4 1_555 1_555
H8 C10 1_555 1_555
H9 C10 1_555 1_555
N3 C5 1_555 1_555
C11 N3 1_555 1_555
H10 C11 1_555 1_555
H11 C11 1_555 1_555
C12 C11 1_555 1_555
H12 C12 1_555 1_555
H13 C12 1_555 1_555
O2 C12 1_555 1_555
C13 O2 1_555 1_555
H14 C13 1_555 1_555
H15 C13 1_555 1_555
C14 N3 1_555 1_555
H16 C14 1_555 1_555
H17 C14 1_555 1_555
C4 C5 1_555 1_555
C9 C10 1_555 1_555
C13 C14 1_555 1_555

#END
