
#######################################################################
#
#                 Cambridge Crystallographic Data Centre
#                                CCDC 
#
#######################################################################
#
# If this CIF has been generated from an entry in the Cambridge 
# Structural Database, then it will include bibliographic, chemical, 
# crystal, experimental, refinement or atomic coordinate data resulting 
# from the CCDC's data processing and validation procedures.
#
#######################################################################

data_RIGZOX
_chemical_formula_moiety         'C22 H14 Cl3 N3 O3'
_chemical_name_systematic        
'2-(1H-Benzotriazol-1-yl)-1-(3-chlorobenzoyl)ethyl 2,4-dichlorobenzoate'
_symmetry_cell_setting           monoclinic
_symmetry_space_group_name_H-M   'P 21/c'
_symmetry_Int_Tables_number      14
_space_group_name_Hall           '-P 2ybc'
loop_
_symmetry_equiv_pos_site_id
_symmetry_equiv_pos_as_xyz
1 x,y,z
2 -x,1/2+y,1/2-z
3 -x,-y,-z
4 x,1/2-y,1/2+z
_cell_length_a                   10.9182(2)
_cell_length_b                   19.6123(3)
_cell_length_c                   10.0124(2)
_cell_angle_alpha                90
_cell_angle_beta                 92.096(1)
_cell_angle_gamma                90
_cell_volume                     2142.53
_exptl_crystal_colour            colorless
_exptl_crystal_description       prism
_cell_formula_units_Z            4
_exptl_crystal_recrystallization_method ethanol
loop_
_atom_site_label
_atom_site_type_symbol
_atom_site_fract_x
_atom_site_fract_y
_atom_site_fract_z
Cl1 Cl 0.08295(7) 0.21406(6) 0.75068(11)
Cl2 Cl 0.70830(11) -0.05478(5) 1.02091(11)
Cl3 Cl 1.09105(14) 0.01904(8) 1.32415(11)
O1 O 0.75829(15) 0.14993(8) 0.83033(16)
O2 O 0.6409(2) 0.05810(10) 0.8437(2)
O3 O 0.54692(17) 0.20882(10) 0.89673(17)
N1 N 0.75249(17) 0.29201(10) 0.75969(18)
N2 N 0.84951(19) 0.29393(12) 0.8493(2)
N3 N 0.8438(2) 0.35025(12) 0.9182(2)
C1 C 0.7421(3) 0.38627(13) 0.8729(2)
C2 C 0.6831(2) 0.34902(11) 0.7716(2)
C3 C 0.5776(3) 0.37220(14) 0.7044(3)
C4 C 0.5353(3) 0.43447(16) 0.7439(3)
C5 C 0.5931(4) 0.47225(16) 0.8448(4)
C6 C 0.6956(3) 0.44969(15) 0.9115(3)
C7 C 0.7376(2) 0.23588(12) 0.6664(2)
C8 C 0.6763(2) 0.17327(12) 0.7247(2)
C9 C 0.5515(2) 0.18976(11) 0.7819(2)
C10 C 0.4383(2) 0.18335(11) 0.6947(2)
C11 C 0.4378(2) 0.16088(14) 0.5633(2)
C12 C 0.3277(3) 0.15362(17) 0.4908(3)
C13 C 0.2185(3) 0.16959(17) 0.5473(3)
C14 C 0.2202(2) 0.19297(15) 0.6776(3)
C15 C 0.3280(2) 0.19972(13) 0.7513(3)
C16 C 0.7286(2) 0.08918(12) 0.8832(3)
C17 C 0.8177(2) 0.07003(13) 0.9928(2)
C18 C 0.9089(2) 0.11622(15) 1.0323(3)
C19 C 0.9930(3) 0.10150(19) 1.1342(3)
C20 C 0.9870(3) 0.0400(2) 1.1963(3)
C21 C 0.8994(4) -0.00732(18) 1.1621(3)
C22 C 0.8140(3) 0.00766(14) 1.0588(3)
H1 H 0.53820 0.34700 0.63690
H2 H 0.46510 0.45210 0.70140
H3 H 0.56050 0.51430 0.86750
H4 H 0.73340 0.47510 0.97970
H5 H 0.81760 0.22290 0.63590
H6 H 0.68910 0.25130 0.58910
H7 H 0.51130 0.15070 0.52370
H8 H 0.32780 0.13780 0.40330
H9 H 0.14480 0.16480 0.49870
H10 H 0.32710 0.21520 0.83900
H11 H 0.91310 0.15800 0.98890
H12 H 1.05280 0.13310 1.16010
H13 H 0.89670 -0.04880 1.20690
loop_
_geom_bond_atom_site_label_1
_geom_bond_atom_site_label_2
_geom_bond_site_symmetry_1
_geom_bond_site_symmetry_2
Cl1 C14 1_555 1_555
Cl2 C22 1_555 1_555
Cl3 C20 1_555 1_555
O1 C8 1_555 1_555
O2 C16 1_555 1_555
O3 C9 1_555 1_555
N1 N2 1_555 1_555
N2 N3 1_555 1_555
N3 C1 1_555 1_555
C1 C2 1_555 1_555
C2 N1 1_555 1_555
C3 C2 1_555 1_555
C4 C3 1_555 1_555
C5 C4 1_555 1_555
C6 C1 1_555 1_555
C7 N1 1_555 1_555
C8 C7 1_555 1_555
C9 C8 1_555 1_555
C10 C9 1_555 1_555
C11 C10 1_555 1_555
C12 C11 1_555 1_555
C13 C12 1_555 1_555
C14 C13 1_555 1_555
C15 C10 1_555 1_555
C16 O1 1_555 1_555
C17 C16 1_555 1_555
C18 C17 1_555 1_555
C19 C18 1_555 1_555
C20 C19 1_555 1_555
C21 C20 1_555 1_555
C22 C17 1_555 1_555
H1 C3 1_555 1_555
H2 C4 1_555 1_555
H3 C5 1_555 1_555
H4 C6 1_555 1_555
H5 C7 1_555 1_555
H6 C7 1_555 1_555
H7 C11 1_555 1_555
H8 C12 1_555 1_555
H9 C13 1_555 1_555
H10 C15 1_555 1_555
H11 C18 1_555 1_555
H12 C19 1_555 1_555
H13 C21 1_555 1_555
C5 C6 1_555 1_555
C14 C15 1_555 1_555
C21 C22 1_555 1_555

#END
