
#######################################################################
#
#                 Cambridge Crystallographic Data Centre
#                                CCDC 
#
#######################################################################
#
# If this CIF has been generated from an entry in the Cambridge 
# Structural Database, then it will include bibliographic, chemical, 
# crystal, experimental, refinement or atomic coordinate data resulting 
# from the CCDC's data processing and validation procedures.
#
#######################################################################

data_RIHBAM
_chemical_formula_moiety         'C22 H23 N1 O3'
_chemical_name_systematic        
(3S,4S)-1-Benzhydryl-4-(cyclopropylcarbonyl)-3-((1R)-1-hydroxyethyl)azetidin-2-one
_symmetry_cell_setting           monoclinic
_symmetry_space_group_name_H-M   'C 2'
_symmetry_Int_Tables_number      5
_space_group_name_Hall           'C 2y'
loop_
_symmetry_equiv_pos_site_id
_symmetry_equiv_pos_as_xyz
1 x,y,z
2 -x,y,-z
3 1/2+x,1/2+y,z
4 1/2-x,1/2+y,-z
_cell_length_a                   18.8279(13)
_cell_length_b                   6.1645(4)
_cell_length_c                   16.3539(10)
_cell_angle_alpha                90
_cell_angle_beta                 99.529(6)
_cell_angle_gamma                90
_cell_volume                     1871.92
_exptl_crystal_colour            colorless
_exptl_crystal_description       chunk
_cell_formula_units_Z            4
_exptl_crystal_recrystallization_method 'ethyl acetate'
loop_
_atom_site_label
_atom_site_type_symbol
_atom_site_fract_x
_atom_site_fract_y
_atom_site_fract_z
C1 C 0.7696(2) 0.1736(7) 0.1309(2)
C2 C 0.6968(2) 0.1326(7) 0.0804(2)
H1 H 0.6929 -0.0194 0.0626
C3 C 0.6685(2) 0.1585(7) 0.1658(2)
H2 H 0.6373 0.2849 0.1676
C4 C 0.6360(2) -0.0499(8) 0.1902(3)
C5 C 0.5585(2) -0.0728(8) 0.1700(3)
H3 H 0.5304 0.0612 0.1600
C6 C 0.5307(2) -0.2690(9) 0.1179(3)
H4 H 0.4877 -0.2505 0.0767
H5 H 0.5659 -0.3690 0.1024
C7 C 0.5227(3) -0.2602(10) 0.2050(4)
H6 H 0.5527 -0.3558 0.2432
H7 H 0.4746 -0.2374 0.2175
C8 C 0.6701(2) 0.2772(7) 0.0089(3)
H8 H 0.7022 0.2608 -0.0322
C9 C 0.5949(2) 0.2184(11) -0.0319(3)
H9 H 0.5633 0.2224 0.0085
H10 H 0.5949 0.0750 -0.0549
H11 H 0.5786 0.3202 -0.0754
C10 C 0.7803(2) 0.1968(8) 0.2885(2)
H12 H 0.8022 0.0532 0.2991
C11 C 0.8416(2) 0.3641(8) 0.3034(2)
C12 C 0.9019(2) 0.3201(12) 0.3639(3)
H13 H 0.9053 0.1918 0.3943
C13 C 0.9561(3) 0.4749(16) 0.3768(3)
H14 H 0.9957 0.4504 0.4180
C14 C 0.9539(3) 0.6563(14) 0.3328(4)
H15 H 0.9922 0.7533 0.3423
C15 C 0.8956(3) 0.7012(10) 0.2738(4)
H16 H 0.8941 0.8296 0.2437
C16 C 0.8382(3) 0.5553(8) 0.2583(3)
H17 H 0.7983 0.5859 0.2184
C17 C 0.7270(2) 0.2264(8) 0.3487(2)
C18 C 0.6888(3) 0.4147(8) 0.3508(3)
H18 H 0.6943 0.5261 0.3140
C19 C 0.6418(3) 0.4411(11) 0.4073(3)
H19 H 0.6155 0.5685 0.4080
C20 C 0.6348(3) 0.2774(13) 0.4620(3)
H20 H 0.6033 0.2938 0.4998
C21 C 0.6738(3) 0.0894(11) 0.4616(3)
H21 H 0.6694 -0.0199 0.4996
C22 C 0.7194(3) 0.0628(9) 0.4050(3)
H22 H 0.7453 -0.0654 0.4044
N1 N 0.74373(17) 0.1984(6) 0.20291(19)
O1 O 0.83222(16) 0.1818(6) 0.11784(18)
O2 O 0.67671(18) -0.1934(6) 0.2210(2)
O3 O 0.67549(19) 0.4940(5) 0.03812(18)
H23 H 0.6622 0.5771 -0.0006
loop_
_geom_bond_atom_site_label_1
_geom_bond_atom_site_label_2
_geom_bond_site_symmetry_1
_geom_bond_site_symmetry_2
C1 C2 1_555 1_555
C2 H1 1_555 1_555
C3 C2 1_555 1_555
H2 C3 1_555 1_555
C4 C3 1_555 1_555
C5 C4 1_555 1_555
H3 C5 1_555 1_555
C6 C5 1_555 1_555
H4 C6 1_555 1_555
H5 C6 1_555 1_555
C7 C5 1_555 1_555
H6 C7 1_555 1_555
H7 C7 1_555 1_555
C8 C2 1_555 1_555
H8 C8 1_555 1_555
C9 C8 1_555 1_555
H9 C9 1_555 1_555
H10 C9 1_555 1_555
H11 C9 1_555 1_555
C10 H12 1_555 1_555
C11 C10 1_555 1_555
C12 C11 1_555 1_555
H13 C12 1_555 1_555
C13 C12 1_555 1_555
H14 C13 1_555 1_555
C14 C13 1_555 1_555
H15 C14 1_555 1_555
C15 C14 1_555 1_555
H16 C15 1_555 1_555
C16 C11 1_555 1_555
H17 C16 1_555 1_555
C17 C10 1_555 1_555
C18 C17 1_555 1_555
H18 C18 1_555 1_555
C19 C18 1_555 1_555
H19 C19 1_555 1_555
C20 C19 1_555 1_555
H20 C20 1_555 1_555
C21 C20 1_555 1_555
H21 C21 1_555 1_555
C22 C17 1_555 1_555
H22 C22 1_555 1_555
N1 C1 1_555 1_555
O1 C1 1_555 1_555
O2 C4 1_555 1_555
O3 C8 1_555 1_555
H23 O3 1_555 1_555
C3 N1 1_555 1_555
C6 C7 1_555 1_555
C10 N1 1_555 1_555
C15 C16 1_555 1_555
C21 C22 1_555 1_555

#END
