
#######################################################################
#
#                 Cambridge Crystallographic Data Centre
#                                CCDC 
#
#######################################################################
#
# If this CIF has been generated from an entry in the Cambridge 
# Structural Database, then it will include bibliographic, chemical, 
# crystal, experimental, refinement or atomic coordinate data resulting 
# from the CCDC's data processing and validation procedures.
#
#######################################################################

data_RIHBAO
_chemical_formula_moiety         'C16 H21 N3 O2'
_chemical_name_systematic        
3,3-dimethyl-6-oxo-8-(piperidin-1-yl)-3,4,6,7-tetrahydro-1H-pyrano[3,4-c]pyridine-5-carbonitrile
_symmetry_cell_setting           monoclinic
_symmetry_space_group_name_H-M   'P 21/n'
_symmetry_Int_Tables_number      14
_space_group_name_Hall           '-P 2yn'
loop_
_symmetry_equiv_pos_site_id
_symmetry_equiv_pos_as_xyz
1 x,y,z
2 1/2-x,1/2+y,1/2-z
3 -x,-y,-z
4 1/2+x,1/2-y,1/2+z
_cell_length_a                   6.6919(3)
_cell_length_b                   12.7834(6)
_cell_length_c                   18.3828(7)
_cell_angle_alpha                90
_cell_angle_beta                 98.744(3)
_cell_angle_gamma                90
_cell_volume                     1554.28
_exptl_crystal_colour            colorless
_exptl_crystal_description       prism
_cell_formula_units_Z            4
_exptl_crystal_preparation       CH~3~CN
loop_
_atom_site_label
_atom_site_type_symbol
_atom_site_fract_x
_atom_site_fract_y
_atom_site_fract_z
N1 N 0.7577(3) 0.56893(14) 0.94773(9)
H1 H 0.865(4) 0.535(2) 0.9379(13)
C1 C 0.7556(3) 0.58031(17) 1.02309(11)
C2 C 0.5985(3) 0.64245(17) 1.04183(11)
C3 C 0.4508(3) 0.68512(16) 0.98840(11)
C4 C 0.4588(3) 0.66999(17) 0.91364(10)
C5 C 0.6219(3) 0.61285(16) 0.89426(10)
C6 C 0.2776(4) 0.74559(19) 1.01111(12)
H2 H 0.3300 0.7934 1.0504
H3 H 0.1872 0.6972 1.0304
C7 C 0.1584(3) 0.80741(18) 0.94867(12)
O1 O 0.1128(2) 0.73571(14) 0.88804(8)
C8 C 0.2851(4) 0.7055(2) 0.85669(12)
H4 H 0.3291 0.7642 0.8297
H5 H 0.2479 0.6491 0.8220
O2 O 0.8912(3) 0.53876(16) 1.06738(8)
C9 C 0.5996(4) 0.6623(2) 1.11849(12)
N2 N 0.6006(4) 0.6812(2) 1.17956(12)
N3 N 0.6485(3) 0.59612(14) 0.82242(8)
C10 C 0.6619(4) 0.68915(19) 0.77478(12)
H6 H 0.7993 0.7157 0.7826
H7 H 0.5738 0.7438 0.7882
C11 C 0.6019(5) 0.6620(2) 0.69477(14)
H8 H 0.6158 0.7230 0.6646
H9 H 0.4617 0.6398 0.6859
C12 C 0.7373(6) 0.5744(2) 0.67458(14)
H10 H 0.6928 0.5528 0.6241
H11 H 0.8752 0.5996 0.6782
C13 C 0.7305(5) 0.4826(2) 0.72514(13)
H12 H 0.8252 0.4299 0.7137
H13 H 0.5962 0.4523 0.7165
C14 C 0.7816(4) 0.51190(19) 0.80527(12)
H14 H 0.7654 0.4514 0.8357
H15 H 0.9213 0.5346 0.8158
C15 C 0.2740(4) 0.9029(2) 0.92963(17)
H16 H 0.4080 0.8826 0.9227
H17 H 0.2819 0.9528 0.9690
H18 H 0.2054 0.9338 0.8851
C16 C -0.0471(4) 0.8398(2) 0.96688(14)
H19 H -0.1216 0.8756 0.9255
H20 H -0.0289 0.8855 1.0088
H21 H -0.1205 0.7787 0.9778
loop_
_geom_bond_atom_site_label_1
_geom_bond_atom_site_label_2
_geom_bond_site_symmetry_1
_geom_bond_site_symmetry_2
N1 H1 1_555 1_555
C1 N1 1_555 1_555
C2 C1 1_555 1_555
C3 C2 1_555 1_555
C4 C3 1_555 1_555
C5 N1 1_555 1_555
C6 C3 1_555 1_555
H2 C6 1_555 1_555
H3 C6 1_555 1_555
C7 C6 1_555 1_555
O1 C7 1_555 1_555
C8 C4 1_555 1_555
H4 C8 1_555 1_555
H5 C8 1_555 1_555
O2 C1 1_555 1_555
C9 C2 1_555 1_555
N2 C9 1_555 1_555
N3 C5 1_555 1_555
C10 N3 1_555 1_555
H6 C10 1_555 1_555
H7 C10 1_555 1_555
C11 C10 1_555 1_555
H8 C11 1_555 1_555
H9 C11 1_555 1_555
C12 C11 1_555 1_555
H10 C12 1_555 1_555
H11 C12 1_555 1_555
C13 C12 1_555 1_555
H12 C13 1_555 1_555
H13 C13 1_555 1_555
C14 N3 1_555 1_555
H14 C14 1_555 1_555
H15 C14 1_555 1_555
C15 C7 1_555 1_555
H16 C15 1_555 1_555
H17 C15 1_555 1_555
H18 C15 1_555 1_555
C16 C7 1_555 1_555
H19 C16 1_555 1_555
H20 C16 1_555 1_555
H21 C16 1_555 1_555
C4 C5 1_555 1_555
O1 C8 1_555 1_555
C13 C14 1_555 1_555

#END
