
#######################################################################
#
#                 Cambridge Crystallographic Data Centre
#                                CCDC 
#
#######################################################################
#
# If this CIF has been generated from an entry in the Cambridge 
# Structural Database, then it will include bibliographic, chemical, 
# crystal, experimental, refinement or atomic coordinate data resulting 
# from the CCDC's data processing and validation procedures.
#
#######################################################################

data_RIHJEA
_chemical_name_common            
'2-bromomethyl-7-methyl-1,2-dihydro[1,3]oxazolo[3,2-a]quinolinium tribromide'
_chemical_formula_moiety         'C13 H11 Br1 N1 O1 1+,Br3 1-'
_chemical_name_systematic        
'2-(bromomethyl)-7-methyl[1,3]oxazolo[3,2-a]quinolin-10-ium tribromide'
_symmetry_cell_setting           triclinic
_symmetry_space_group_name_H-M   'P -1'
_symmetry_Int_Tables_number      2
_space_group_name_Hall           '-P 1'
loop_
_symmetry_equiv_pos_site_id
_symmetry_equiv_pos_as_xyz
1 x,y,z
2 -x,-y,-z
_cell_length_a                   8.748(2)
_cell_length_b                   9.285(2)
_cell_length_c                   10.566(2)
_cell_angle_alpha                109.525(12)
_cell_angle_beta                 91.409(13)
_cell_angle_gamma                94.471(12)
_cell_volume                     805.24
_cell_formula_units_Z            2
loop_
_atom_site_label
_atom_site_type_symbol
_atom_site_fract_x
_atom_site_fract_y
_atom_site_fract_z
Br1 Br 0.35720(11) 0.20452(12) 0.86388(14)
Br2 Br 0.58932(12) 0.04527(13) 0.83170(15)
Br3 Br 0.13290(13) 0.36424(16) 0.90242(19)
Br4 Br 1.05198(14) 0.11679(16) 1.18330(18)
C1 C 0.5089(9) 0.5505(10) 1.3246(12)
N1 N 0.6282(8) 0.4596(9) 1.2949(10)
C2 C 0.6656(11) 0.7040(11) 1.5241(13)
H1 H 0.6782 0.7890 1.6023
C3 C 0.5271(10) 0.6775(11) 1.4430(14)
C4 C 0.2626(11) 0.6197(13) 1.2790(15)
H2 H 0.1736 0.6020 1.2240
C5 C 0.7779(11) 0.6112(11) 1.4918(14)
H3 H 0.8671 0.6291 1.5467
C6 C 0.4093(10) 0.7735(13) 1.4746(14)
H4 H 0.4213 0.8595 1.5521
C7 C 0.7570(10) 0.4892(11) 1.3753(15)
C8 C 0.3737(10) 0.5194(12) 1.2403(14)
H5 H 0.3606 0.4346 1.1619
C9 C 0.2769(11) 0.7464(13) 1.3963(15)
O1 O 0.8573(8) 0.3877(8) 1.3262(10)
C10 C 0.6375(11) 0.3260(11) 1.1723(14)
H6 H 0.5686 0.2851 1.0981
C11 C 0.1492(12) 0.8526(13) 1.4310(17)
H7 H 0.1410 0.9030 1.3656
H8 H 0.1719 0.9280 1.5185
H9 H 0.0538 0.7939 1.4309
C12 C 0.7923(18) 0.2729(15) 1.201(2)
C13 C 0.8566(19) 0.175(2) 1.136(2)
H10 H 0.8702 0.1940 1.0518
H11 H 0.7856 0.0833 1.1147
loop_
_geom_bond_atom_site_label_1
_geom_bond_atom_site_label_2
_geom_bond_site_symmetry_1
_geom_bond_site_symmetry_2
Br1 Br2 1_555 1_555
Br3 Br1 1_555 1_555
Br4 C13 1_555 1_555
C1 N1 1_555 1_555
N1 C7 1_555 1_555
C2 H1 1_555 1_555
C3 C1 1_555 1_555
C4 H2 1_555 1_555
C5 C2 1_555 1_555
H3 C5 1_555 1_555
C6 C3 1_555 1_555
H4 C6 1_555 1_555
C7 C5 1_555 1_555
C8 C1 1_555 1_555
H5 C8 1_555 1_555
C9 C4 1_555 1_555
O1 C7 1_555 1_555
C10 N1 1_555 1_555
H6 C10 1_555 1_555
C11 C9 1_555 1_555
H7 C11 1_555 1_555
H8 C11 1_555 1_555
H9 C11 1_555 1_555
C12 O1 1_555 1_555
C13 C12 1_555 1_555
H10 C13 1_555 1_555
H11 C13 1_555 1_555
C2 C3 1_555 1_555
C4 C8 1_555 1_555
C6 C9 1_555 1_555
C10 C12 1_555 1_555

#END
