
#######################################################################
#
#                 Cambridge Crystallographic Data Centre
#                                CCDC 
#
#######################################################################
#
# If this CIF has been generated from an entry in the Cambridge 
# Structural Database, then it will include bibliographic, chemical, 
# crystal, experimental, refinement or atomic coordinate data resulting 
# from the CCDC's data processing and validation procedures.
#
#######################################################################

data_RIHLIF
_chemical_formula_moiety         'C18 H11 B1 F5 N1 O1'
_chemical_name_systematic        
1,1-Difluoro-3-(4-(trifluoromethyl)phenyl)-1H-11\l^5^,1\l^5^-[1,3,2]oxazaborinino[3,4-a]quinoline
_symmetry_cell_setting           triclinic
_symmetry_space_group_name_H-M   'P -1'
_symmetry_Int_Tables_number      2
_space_group_name_Hall           '-P 1'
loop_
_symmetry_equiv_pos_site_id
_symmetry_equiv_pos_as_xyz
1 x,y,z
2 -x,-y,-z
_cell_length_a                   7.7839(5)
_cell_length_b                   8.1720(4)
_cell_length_c                   12.7350(7)
_cell_angle_alpha                77.081(4)
_cell_angle_beta                 80.031(5)
_cell_angle_gamma                76.880(5)
_cell_volume                     762.542
_exptl_crystal_colour            yellow
_exptl_crystal_description       plate
_cell_formula_units_Z            2
loop_
_atom_site_label
_atom_site_type_symbol
_atom_site_fract_x
_atom_site_fract_y
_atom_site_fract_z
F1 F 0.02599(10) 0.26644(10) -0.13789(6)
F2 F 0.32303(10) 0.25275(9) -0.18264(6)
F3 F 0.43232(12) 0.27682(12) 0.51353(7)
F4 F 0.15756(13) 0.39299(14) 0.51825(8)
F5 F 0.35308(19) 0.52948(14) 0.42137(9)
O1 O 0.19947(15) 0.21884(12) -0.00142(8)
N1 N 0.22364(13) -0.01364(13) -0.10729(9)
B1 B 0.19153(19) 0.18647(18) -0.10808(12)
C1 C 0.28088(16) -0.12610(16) -0.01944(10)
C2 C 0.32033(18) -0.30482(17) -0.01858(11)
H1 H 0.3614 -0.3825 0.0436
C3 C 0.30019(17) -0.36579(17) -0.10522(11)
H2 H 0.3257 -0.4856 -0.1034
C4 C 0.22160(18) -0.30891(18) -0.29159(12)
H3 H 0.2468 -0.4283 -0.2913
C5 C 0.16721(19) -0.1957(2) -0.38159(12)
H4 H 0.1540 -0.2357 -0.4437
C6 C 0.13087(19) -0.01892(19) -0.38125(11)
H5 H 0.0932 0.0597 -0.4439
C7 C 0.14860(18) 0.04267(17) -0.29254(11)
H6 H 0.1238 0.1625 -0.2945
C8 C 0.20365(16) -0.07235(17) -0.19870(10)
C9 C 0.24081(17) -0.25008(17) -0.19884(11)
C10 C 0.29975(17) -0.06690(17) 0.07464(11)
H7 H 0.3432 -0.1482 0.1348
C11 C 0.25808(16) 0.10013(17) 0.08110(10)
C12 C 0.27043(16) 0.16797(16) 0.17734(10)
C13 C 0.19928(17) 0.33959(17) 0.18178(11)
H8 H 0.1408 0.4114 0.1236
C14 C 0.21314(18) 0.40643(17) 0.27039(11)
H9 H 0.1645 0.5234 0.2726
C15 C 0.29846(17) 0.30166(18) 0.35588(11)
C16 C 0.36819(18) 0.13047(18) 0.35300(11)
H10 H 0.4255 0.0588 0.4118
C17 C 0.35438(17) 0.06373(17) 0.26448(11)
H11 H 0.4022 -0.0536 0.2630
C18 C 0.3113(2) 0.37484(19) 0.45130(12)
loop_
_geom_bond_atom_site_label_1
_geom_bond_atom_site_label_2
_geom_bond_site_symmetry_1
_geom_bond_site_symmetry_2
F1 B1 1_555 1_555
F2 B1 1_555 1_555
F3 C18 1_555 1_555
F4 C18 1_555 1_555
F5 C18 1_555 1_555
O1 B1 1_555 1_555
N1 B1 1_555 1_555
C1 N1 1_555 1_555
C2 C1 1_555 1_555
H1 C2 1_555 1_555
C3 C2 1_555 1_555
H2 C3 1_555 1_555
C4 H3 1_555 1_555
C5 C4 1_555 1_555
H4 C5 1_555 1_555
C6 C5 1_555 1_555
H5 C6 1_555 1_555
C7 C6 1_555 1_555
H6 C7 1_555 1_555
C8 N1 1_555 1_555
C9 C3 1_555 1_555
C10 C1 1_555 1_555
H7 C10 1_555 1_555
C11 O1 1_555 1_555
C12 C11 1_555 1_555
C13 C12 1_555 1_555
H8 C13 1_555 1_555
C14 C13 1_555 1_555
H9 C14 1_555 1_555
C15 C14 1_555 1_555
C16 C15 1_555 1_555
H10 C16 1_555 1_555
C17 C12 1_555 1_555
H11 C17 1_555 1_555
C18 C15 1_555 1_555
C4 C9 1_555 1_555
C7 C8 1_555 1_555
C8 C9 1_555 1_555
C10 C11 1_555 1_555
C16 C17 1_555 1_555

#END
