
#######################################################################
#
#                 Cambridge Crystallographic Data Centre
#                                CCDC 
#
#######################################################################
#
# If this CIF has been generated from an entry in the Cambridge 
# Structural Database, then it will include bibliographic, chemical, 
# crystal, experimental, refinement or atomic coordinate data resulting 
# from the CCDC's data processing and validation procedures.
#
#######################################################################

data_RIHROS
_chemical_formula_moiety         'C34 H32 N6 O12'
_chemical_name_systematic        
"tetramethyl 2,2'-(1,4-phenylenebis(imino(1,3-dioxobut-1-yl-2-ylidene)hydrazin-1-yl-2-ylidene))diterephthalate"
_symmetry_cell_setting           triclinic
_symmetry_space_group_name_H-M   'P -1'
_symmetry_Int_Tables_number      2
_space_group_name_Hall           '-P 1'
loop_
_symmetry_equiv_pos_site_id
_symmetry_equiv_pos_as_xyz
1 x,y,z
2 -x,-y,-z
_cell_length_a                   5.6624(9)
_cell_length_b                   9.2446(11)
_cell_length_c                   16.125(2)
_cell_angle_alpha                74.967(6)
_cell_angle_beta                 87.598(9)
_cell_angle_gamma                83.430(9)
_cell_volume                     809.782
_exptl_crystal_colour            colorless
_exptl_crystal_description       Prism
_cell_formula_units_Z            1
loop_
_atom_site_label
_atom_site_type_symbol
_atom_site_fract_x
_atom_site_fract_y
_atom_site_fract_z
O1 O -0.27095(16) 0.63306(10) 0.45760(6)
O2 O -0.03928(17) 0.81596(10) 0.45344(6)
O3 O 0.39898(16) 0.40469(11) 0.13713(6)
O4 O 0.67949(14) 0.55029(10) 0.14675(5)
O5 O 0.94420(14) 0.80828(9) 0.12657(5)
O6 O 0.97106(17) 1.17526(10) 0.23235(6)
N1 N 0.58453(16) 0.76245(10) 0.22796(6)
N2 N 0.61995(16) 0.88365(10) 0.25212(6)
N3 N 1.13930(16) 1.01200(11) 0.12426(6)
C1 C -0.4329(3) 0.6873(2) 0.51512(12)
H1 H -0.3470 0.6934 0.5654
H2 H -0.5553 0.6184 0.5334
H3 H -0.5079 0.7876 0.4862
C2 C -0.0890(2) 0.70540(14) 0.42962(7)
C3 C 0.0613(2) 0.65014(12) 0.36381(7)
C4 C 0.0086(2) 0.52535(13) 0.33723(7)
H4 H -0.1224 0.4727 0.3618
C5 C 0.1490(2) 0.47939(12) 0.27481(7)
H5 H 0.1127 0.3948 0.2565
C6 C 0.3435(2) 0.55450(12) 0.23781(7)
C7 C 0.39608(18) 0.68067(12) 0.26490(7)
C8 C 0.25332(19) 0.72673(12) 0.32807(7)
H6 H 0.2879 0.8113 0.3468
C9 C 0.4729(2) 0.49460(12) 0.16901(7)
C10 C 0.8131(2) 0.50414(15) 0.07796(8)
H7 H 0.8586 0.3951 0.0953
H8 H 0.9564 0.5566 0.0654
H9 H 0.7148 0.5293 0.0265
C11 C 0.79644(19) 0.96195(12) 0.21871(7)
C12 C 0.8103(2) 1.09348(13) 0.25372(7)
C13 C 0.6230(2) 1.12703(14) 0.31699(8)
H10 H 0.6516 1.2192 0.3325
H11 H 0.6296 1.0429 0.3687
H12 H 0.4659 1.1408 0.2911
C14 C 0.96611(19) 0.92059(12) 0.15238(7)
C15 C 1.31765(18) 1.00075(12) 0.06140(7)
C16 C 1.47039(19) 1.11368(12) 0.04176(7)
H13 H 1.4502 1.1918 0.0706
C17 C 1.34946(19) 0.88597(12) 0.01892(7)
H14 H 1.2478 0.8079 0.0317
H15 H 1.134(2) 1.0882(13) 0.1508(8)
H16 H 0.682(3) 0.7370(18) 0.1869(9)
O1A O 3.27095(16) 1.36694(10) -0.45760(6)
O2A O 3.03928(17) 1.18404(10) -0.45344(6)
O3A O 2.60102(16) 1.59531(11) -0.13713(6)
O4A O 2.32051(14) 1.44971(10) -0.14675(5)
O5A O 2.05580(14) 1.19172(9) -0.12657(5)
O6A O 2.02894(17) 0.82474(10) -0.23235(6)
N1A N 2.41547(16) 1.23755(10) -0.22796(6)
N2A N 2.38005(16) 1.11635(10) -0.25212(6)
N3A N 1.86070(16) 0.98800(11) -0.12426(6)
C1A C 3.4329(3) 1.3127(2) -0.51512(12)
H1A H 3.3470 1.3066 -0.5654
H2A H 3.5553 1.3816 -0.5334
H3A H 3.5079 1.2124 -0.4862
C2A C 3.0890(2) 1.29460(14) -0.42962(7)
C3A C 2.9387(2) 1.34986(12) -0.36381(7)
C4A C 2.9914(2) 1.47465(13) -0.33723(7)
H4A H 3.1224 1.5273 -0.3618
C5A C 2.8510(2) 1.52061(12) -0.27481(7)
H5A H 2.8873 1.6052 -0.2565
C6A C 2.6565(2) 1.44550(12) -0.23781(7)
C7A C 2.60392(18) 1.31933(12) -0.26490(7)
C8A C 2.74668(19) 1.27327(12) -0.32807(7)
H6A H 2.7121 1.1887 -0.3468
C9A C 2.5271(2) 1.50540(12) -0.16901(7)
C10A C 2.1869(2) 1.49586(15) -0.07796(8)
H7A H 2.1414 1.6049 -0.0953
H8A H 2.0436 1.4434 -0.0654
H9A H 2.2852 1.4707 -0.0265
C11A C 2.20356(19) 1.03805(12) -0.21871(7)
C12A C 2.1897(2) 0.90652(13) -0.25372(7)
C13A C 2.3770(2) 0.87297(14) -0.31699(8)
H10A H 2.3484 0.7808 -0.3325
H11A H 2.3704 0.9571 -0.3687
H12A H 2.5341 0.8592 -0.2911
C14A C 2.03389(19) 1.07941(12) -0.15238(7)
C15A C 1.68235(18) 0.99925(12) -0.06140(7)
C16A C 1.52961(19) 0.88632(12) -0.04176(7)
H13A H 1.5498 0.8082 -0.0706
C17A C 1.65054(19) 1.11403(12) -0.01892(7)
H14A H 1.7522 1.1921 -0.0317
H15A H 1.866(2) 0.9118(13) -0.1508(8)
H16A H 2.318(3) 1.2630(18) -0.1869(9)
C18? C -0.1682(8) 0.8640(5) 0.5200(3)
H17? H -0.3385 0.8770 0.5077
H18? H -0.1183 0.9600 0.5239
H19? H -0.1374 0.7882 0.5745
loop_
_geom_bond_atom_site_label_1
_geom_bond_atom_site_label_2
_geom_bond_site_symmetry_1
_geom_bond_site_symmetry_2
O1 C1 1_555 1_555
O2 C2 1_555 1_555
O3 C9 1_555 1_555
O4 C9 1_555 1_555
O5 C14 1_555 1_555
O6 C12 1_555 1_555
N1 N2 1_555 1_555
N2 C11 1_555 1_555
N3 C14 1_555 1_555
C1 H1 1_555 1_555
H2 C1 1_555 1_555
H3 C1 1_555 1_555
C2 O1 1_555 1_555
C3 C2 1_555 1_555
C4 C3 1_555 1_555
H4 C4 1_555 1_555
C5 C4 1_555 1_555
H5 C5 1_555 1_555
C6 C5 1_555 1_555
C7 N1 1_555 1_555
C8 C3 1_555 1_555
H6 C8 1_555 1_555
C9 C6 1_555 1_555
C10 O4 1_555 1_555
H7 C10 1_555 1_555
H8 C10 1_555 1_555
H9 C10 1_555 1_555
C11 C12 1_555 1_555
C12 C13 1_555 1_555
C13 H10 1_555 1_555
H11 C13 1_555 1_555
H12 C13 1_555 1_555
C14 C11 1_555 1_555
C15 N3 1_555 1_555
C16 C15 1_555 1_555
H13 C16 1_555 1_555
C17 C15 1_555 1_555
H14 C17 1_555 1_555
H15 N3 1_555 1_555
H16 N1 1_555 1_555
O1A C1A 1_555 1_555
O2A C2A 1_555 1_555
O3A C9A 1_555 1_555
O4A C9A 1_555 1_555
O5A C14A 1_555 1_555
O6A C12A 1_555 1_555
N1A N2A 1_555 1_555
N2A C11A 1_555 1_555
N3A C14A 1_555 1_555
C1A H1A 1_555 1_555
H2A C1A 1_555 1_555
H3A C1A 1_555 1_555
C2A O1A 1_555 1_555
C3A C2A 1_555 1_555
C4A C3A 1_555 1_555
H4A C4A 1_555 1_555
C5A C4A 1_555 1_555
H5A C5A 1_555 1_555
C6A C5A 1_555 1_555
C7A N1A 1_555 1_555
C8A C3A 1_555 1_555
H6A C8A 1_555 1_555
C9A C6A 1_555 1_555
C10A O4A 1_555 1_555
H7A C10A 1_555 1_555
H8A C10A 1_555 1_555
H9A C10A 1_555 1_555
C11A C12A 1_555 1_555
C12A C13A 1_555 1_555
C13A H10A 1_555 1_555
H11A C13A 1_555 1_555
H12A C13A 1_555 1_555
C14A C11A 1_555 1_555
C15A N3A 1_555 1_555
C16A C17 1_555 1_555
H13A C16A 1_555 1_555
C17A C16 1_555 1_555
H14A C17A 1_555 1_555
H15A N3A 1_555 1_555
H16A N1A 1_555 1_555
C6 C7 1_555 1_555
C7 C8 1_555 1_555
C6A C7A 1_555 1_555
C7A C8A 1_555 1_555
C15A C16A 1_555 1_555
C15A C17A 1_555 1_555

#END
