
#######################################################################
#
#                 Cambridge Crystallographic Data Centre
#                                CCDC 
#
#######################################################################
#
# If this CIF has been generated from an entry in the Cambridge 
# Structural Database, then it will include bibliographic, chemical, 
# crystal, experimental, refinement or atomic coordinate data resulting 
# from the CCDC's data processing and validation procedures.
#
#######################################################################

data_RIHSAE
_chemical_formula_moiety         'C21 H17 N1'
_chemical_name_systematic        
4-Methyl-9-phenyl-2,4-dihydro-1H-cyclobuta[b]carbazole
_symmetry_cell_setting           monoclinic
_symmetry_space_group_name_H-M   'P 21/c'
_symmetry_Int_Tables_number      14
_space_group_name_Hall           '-P 2ybc'
loop_
_symmetry_equiv_pos_site_id
_symmetry_equiv_pos_as_xyz
1 x,y,z
2 -x,1/2+y,1/2-z
3 -x,-y,-z
4 x,1/2-y,1/2+z
_cell_length_a                   14.3324(14)
_cell_length_b                   20.651(2)
_cell_length_c                   10.9578(11)
_cell_angle_alpha                90
_cell_angle_beta                 106.057(2)
_cell_angle_gamma                90
_cell_volume                     3116.74
_exptl_crystal_colour            colorless
_exptl_crystal_description       prismatic
_cell_formula_units_Z            8
loop_
_atom_site_label
_atom_site_type_symbol
_atom_site_fract_x
_atom_site_fract_y
_atom_site_fract_z
N1 N 0.32442(18) 0.71365(12) 0.1875(3)
C1 C 0.4497(2) 0.83902(15) 0.0586(3)
C2 C 0.4956(3) 0.89948(17) 0.0216(4)
H1 H 0.5297 0.9260 0.0930
H2 H 0.4517 0.9253 -0.0437
C3 C 0.5628(3) 0.85342(16) -0.0294(4)
H3 H 0.5524 0.8553 -0.1206
H4 H 0.6311 0.8569 0.0155
C4 C 0.5109(2) 0.79784(16) 0.0148(3)
C5 C 0.5134(2) 0.73160(14) 0.0285(3)
C6 C 0.4436(2) 0.70696(14) 0.0872(3)
C7 C 0.3826(2) 0.74983(15) 0.1315(3)
C8 C 0.3843(2) 0.81699(16) 0.1187(3)
H5 H 0.3442 0.8445 0.1486
C9 C 0.3441(2) 0.64902(15) 0.1787(3)
C10 C 0.4168(2) 0.64219(14) 0.1154(3)
C11 C 0.4437(2) 0.57982(15) 0.0903(3)
H6 H 0.4909 0.5737 0.0478
C12 C 0.4001(2) 0.52746(16) 0.1289(4)
H7 H 0.4184 0.4859 0.1125
C13 C 0.3292(3) 0.53556(18) 0.1918(4)
H8 H 0.3005 0.4992 0.2161
C14 C 0.3007(2) 0.59574(17) 0.2190(3)
H9 H 0.2541 0.6010 0.2628
C15 C 0.5888(2) 0.69205(15) -0.0054(3)
C16 C 0.6502(2) 0.65280(15) 0.0828(4)
H10 H 0.6411 0.6486 0.1632
C17 C 0.7248(2) 0.61971(17) 0.0541(4)
H11 H 0.7652 0.5931 0.1147
C18 C 0.7395(3) 0.6259(2) -0.0639(6)
H12 H 0.7903 0.6040 -0.0831
C19 C 0.6791(3) 0.6645(2) -0.1534(5)
H13 H 0.6884 0.6684 -0.2338
C20 C 0.6049(3) 0.69758(18) -0.1246(4)
H14 H 0.5647 0.7241 -0.1856
C21 C 0.2588(3) 0.74061(17) 0.2549(4)
H15 H 0.2280 0.7060 0.2878
H16 H 0.2102 0.7664 0.1975
H17 H 0.2949 0.7672 0.3238
N2 N 0.0884(3) 0.85104(18) 0.3066(3)
C22 C 0.2545(3) 0.9590(3) 0.2046(7)
C23 C 0.3337(3) 1.0016(2) 0.1870(6)
H18 H 0.3963 0.9803 0.2038
H19 H 0.3390 1.0426 0.2315
C24 C 0.2784(3) 1.0059(2) 0.0440(6)
H20 H 0.2532 1.0485 0.0160
H21 H 0.3128 0.9873 -0.0124
C25 C 0.2049(3) 0.9602(2) 0.0771(6)
C26 C 0.1215(2) 0.92654(14) 0.0229(4)
C27 C 0.0865(2) 0.89040(14) 0.1112(3)
C28 C 0.1385(3) 0.8889(2) 0.2423(4)
C29 C 0.2252(3) 0.9237(3) 0.2907(5)
H22 H 0.2599 0.9224 0.3760
C30 C 0.0035(3) 0.82972(17) 0.2225(4)
C31 C -0.0002(2) 0.85277(14) 0.1014(3)
C32 C -0.0833(2) 0.83920(15) 0.0029(4)
H23 H -0.0893 0.8545 -0.0788
C33 C -0.1561(3) 0.8029(2) 0.0283(6)
H24 H -0.2111 0.7934 -0.0375
C34 C -0.1499(5) 0.7806(2) 0.1473(8)
H25 H -0.2008 0.7563 0.1608
C35 C -0.0704(5) 0.7931(2) 0.2477(6)
H26 H -0.0661 0.7777 0.3289
C36 C 0.0754(2) 0.92712(15) -0.1149(4)
C37 C 0.0592(4) 0.98546(19) -0.1791(6)
H27 H 0.0770 1.0239 -0.1347
C38 C 0.0172(5) 0.9871(4) -0.3072(8)
H28 H 0.0064 1.0267 -0.3491
C39 C -0.0091(4) 0.9314(4) -0.3737(6)
H29 H -0.0383 0.9331 -0.4608
C40 C 0.0076(3) 0.8725(3) -0.3127(5)
H30 H -0.0103 0.8342 -0.3579
C41 C 0.0513(2) 0.87095(17) -0.1836(4)
H31 H 0.0646 0.8312 -0.1424
C42 C 0.1236(4) 0.8344(3) 0.4409(4)
H32 H 0.0783 0.8056 0.4632
H33 H 0.1298 0.8732 0.4911
H34 H 0.1857 0.8137 0.4570
loop_
_geom_bond_atom_site_label_1
_geom_bond_atom_site_label_2
_geom_bond_site_symmetry_1
_geom_bond_site_symmetry_2
N1 C7 1_555 1_555
C1 C2 1_555 1_555
C2 H1 1_555 1_555
H2 C2 1_555 1_555
C3 C2 1_555 1_555
H3 C3 1_555 1_555
H4 C3 1_555 1_555
C4 C1 1_555 1_555
C5 C4 1_555 1_555
C6 C5 1_555 1_555
C7 C6 1_555 1_555
C8 C1 1_555 1_555
H5 C8 1_555 1_555
C9 N1 1_555 1_555
C10 C6 1_555 1_555
C11 C10 1_555 1_555
H6 C11 1_555 1_555
C12 C11 1_555 1_555
H7 C12 1_555 1_555
C13 C12 1_555 1_555
H8 C13 1_555 1_555
C14 C9 1_555 1_555
H9 C14 1_555 1_555
C15 C5 1_555 1_555
C16 C15 1_555 1_555
H10 C16 1_555 1_555
C17 C16 1_555 1_555
H11 C17 1_555 1_555
C18 C17 1_555 1_555
H12 C18 1_555 1_555
C19 C18 1_555 1_555
H13 C19 1_555 1_555
C20 C15 1_555 1_555
H14 C20 1_555 1_555
C21 N1 1_555 1_555
H15 C21 1_555 1_555
H16 C21 1_555 1_555
H17 C21 1_555 1_555
N2 C28 1_555 1_555
C22 C23 1_555 1_555
C23 H18 1_555 1_555
H19 C23 1_555 1_555
C24 C23 1_555 1_555
H20 C24 1_555 1_555
H21 C24 1_555 1_555
C25 C22 1_555 1_555
C26 C25 1_555 1_555
C27 C26 1_555 1_555
C28 C27 1_555 1_555
C29 C22 1_555 1_555
H22 C29 1_555 1_555
C30 N2 1_555 1_555
C31 C27 1_555 1_555
C32 C31 1_555 1_555
H23 C32 1_555 1_555
C33 C32 1_555 1_555
H24 C33 1_555 1_555
C34 C33 1_555 1_555
H25 C34 1_555 1_555
C35 C30 1_555 1_555
H26 C35 1_555 1_555
C36 C26 1_555 1_555
C37 C36 1_555 1_555
H27 C37 1_555 1_555
C38 C37 1_555 1_555
H28 C38 1_555 1_555
C39 C38 1_555 1_555
H29 C39 1_555 1_555
C40 C39 1_555 1_555
H30 C40 1_555 1_555
C41 C36 1_555 1_555
H31 C41 1_555 1_555
C42 N2 1_555 1_555
H32 C42 1_555 1_555
H33 C42 1_555 1_555
H34 C42 1_555 1_555
C3 C4 1_555 1_555
C7 C8 1_555 1_555
C9 C10 1_555 1_555
C13 C14 1_555 1_555
C19 C20 1_555 1_555
C24 C25 1_555 1_555
C28 C29 1_555 1_555
C30 C31 1_555 1_555
C34 C35 1_555 1_555
C40 C41 1_555 1_555

#END
