
#######################################################################
#
#                 Cambridge Crystallographic Data Centre
#                                CCDC 
#
#######################################################################
#
# If this CIF has been generated from an entry in the Cambridge 
# Structural Database, then it will include bibliographic, chemical, 
# crystal, experimental, refinement or atomic coordinate data resulting 
# from the CCDC's data processing and validation procedures.
#
#######################################################################

data_RIHVOW
_chemical_formula_moiety         'C14 H21 B10 N1'
_chemical_name_systematic        
1-methyl-2,7-(4-methylquinolin-2-yl-3-ylmethylene)-1,2-dicarba-closo-dodecaborane
_symmetry_cell_setting           monoclinic
_symmetry_space_group_name_H-M   'P 21/c'
_symmetry_Int_Tables_number      14
_space_group_name_Hall           '-P 2ybc'
loop_
_symmetry_equiv_pos_site_id
_symmetry_equiv_pos_as_xyz
1 x,y,z
2 -x,1/2+y,1/2-z
3 -x,-y,-z
4 x,1/2-y,1/2+z
_cell_length_a                   7.8295(7)
_cell_length_b                   25.776(2)
_cell_length_c                   11.1821(11)
_cell_angle_alpha                90
_cell_angle_beta                 128.014(3)
_cell_angle_gamma                90
_cell_volume                     1777.96
_exptl_crystal_colour            colorless
_exptl_crystal_description       block
_cell_formula_units_Z            4
loop_
_atom_site_label
_atom_site_type_symbol
_atom_site_fract_x
_atom_site_fract_y
_atom_site_fract_z
N1 N 0.4425(4) 0.13775(10) 0.4699(3)
C1 C 0.0549(5) 0.14416(12) 0.2563(4)
C2 C -0.0556(6) 0.17119(15) 0.3291(4)
C3 C 0.0872(8) 0.18056(19) 0.4984(5)
H1 H 0.0031 0.1962 0.5247
H2 H 0.1451 0.1481 0.5509
H3 H 0.2041 0.2033 0.5271
C4 C 0.2712(5) 0.11859(12) 0.3429(4)
C5 C 0.2602(5) 0.07254(12) 0.2687(3)
C6 C 0.0385(6) 0.06019(14) 0.1224(4)
H4 H -0.0104 0.0264 0.1281
H5 H 0.0418 0.0605 0.0371
C7 C 0.4464(5) 0.04391(12) 0.3359(4)
C8 C 0.4462(7) -0.00505(15) 0.2623(5)
H6 H 0.5888 -0.0200 0.3242
H7 H 0.3449 -0.0293 0.2521
H8 H 0.4050 0.0029 0.1638
C9 C 0.6373(5) 0.06234(13) 0.4765(4)
C10 C 0.8375(6) 0.03593(15) 0.5586(4)
H9 H 0.8483 0.0052 0.5202
C11 C 1.0157(6) 0.05482(17) 0.6935(5)
H10 H 1.1456 0.0366 0.7457
C12 C 1.0059(6) 0.10088(18) 0.7541(5)
H11 H 1.1281 0.1133 0.8463
C13 C 0.8149(6) 0.12773(15) 0.6770(4)
H12 H 0.8084 0.1587 0.7167
C14 C 0.6279(5) 0.10906(13) 0.5382(4)
B1 B -0.1218(7) 0.10788(16) 0.2625(5)
H13 H -0.0769 0.0743 0.3373
B2 B -0.1160(6) 0.10468(17) 0.1051(4)
B3 B -0.0500(7) 0.16814(17) 0.0822(4)
H14 H 0.0414 0.1738 0.0382
B4 B -0.0048(8) 0.20878(17) 0.2264(5)
H15 H 0.1157 0.2402 0.2769
B5 B -0.3241(8) 0.15151(19) 0.2214(6)
H16 H -0.4134 0.1465 0.2672
B6 B -0.3662(8) 0.10970(19) 0.0768(6)
H17 H -0.4827 0.0774 0.0286
B7 B -0.3240(7) 0.14730(18) -0.0367(5)
H18 H -0.4140 0.1395 -0.1585
B8 B -0.2525(7) 0.21165(18) 0.0395(5)
H19 H -0.2969 0.2457 -0.0338
B9 B -0.2506(7) 0.21375(18) 0.1992(6)
H20 H -0.2924 0.2492 0.2309
B10 B -0.4477(8) 0.17576(19) 0.0372(6)
H21 H -0.6202 0.1866 -0.0381
loop_
_geom_bond_atom_site_label_1
_geom_bond_atom_site_label_2
_geom_bond_site_symmetry_1
_geom_bond_site_symmetry_2
N1 C4 1_555 1_555
C1 C2 1_555 1_555
C2 C3 1_555 1_555
C3 H1 1_555 1_555
H2 C3 1_555 1_555
H3 C3 1_555 1_555
C4 C1 1_555 1_555
C5 C4 1_555 1_555
C6 C5 1_555 1_555
H4 C6 1_555 1_555
H5 C6 1_555 1_555
C7 C5 1_555 1_555
C8 C7 1_555 1_555
H6 C8 1_555 1_555
H7 C8 1_555 1_555
H8 C8 1_555 1_555
C9 C7 1_555 1_555
C10 C9 1_555 1_555
H9 C10 1_555 1_555
C11 C10 1_555 1_555
H10 C11 1_555 1_555
C12 C11 1_555 1_555
H11 C12 1_555 1_555
C13 C12 1_555 1_555
H12 C13 1_555 1_555
C14 N1 1_555 1_555
B1 C1 1_555 1_555
H13 B1 1_555 1_555
B2 C1 1_555 1_555
B3 C1 1_555 1_555
H14 B3 1_555 1_555
B4 C1 1_555 1_555
H15 B4 1_555 1_555
B5 C2 1_555 1_555
H16 B5 1_555 1_555
B6 B1 1_555 1_555
H17 B6 1_555 1_555
B7 B2 1_555 1_555
H18 B7 1_555 1_555
B8 B3 1_555 1_555
H19 B8 1_555 1_555
B9 C2 1_555 1_555
H20 B9 1_555 1_555
B10 B5 1_555 1_555
H21 B10 1_555 1_555
C2 B1 1_555 1_555
C2 B4 1_555 1_555
C6 B2 1_555 1_555
C9 C14 1_555 1_555
C13 C14 1_555 1_555
B1 B2 1_555 1_555
B1 B5 1_555 1_555
B2 B3 1_555 1_555
B2 B6 1_555 1_555
B3 B4 1_555 1_555
B3 B7 1_555 1_555
B4 B8 1_555 1_555
B4 B9 1_555 1_555
B5 B6 1_555 1_555
B5 B9 1_555 1_555
B6 B7 1_555 1_555
B6 B10 1_555 1_555
B7 B8 1_555 1_555
B7 B10 1_555 1_555
B8 B9 1_555 1_555
B8 B10 1_555 1_555
B9 B10 1_555 1_555

#END
