
#######################################################################
#
#                 Cambridge Crystallographic Data Centre
#                                CCDC 
#
#######################################################################
#
# If this CIF has been generated from an entry in the Cambridge 
# Structural Database, then it will include bibliographic, chemical, 
# crystal, experimental, refinement or atomic coordinate data resulting 
# from the CCDC's data processing and validation procedures.
#
#######################################################################

data_RIJBIX
_chemical_formula_moiety         'C21 H15 Cl1 N4 S1'
_chemical_name_systematic        
2-(5-(4-Chlorophenyl)-3-(pyridin-2-yl)-4,5-dihydro-1H-pyrazol-1-yl)-1,3-benzothiazole
_symmetry_cell_setting           orthorhombic
_symmetry_space_group_name_H-M   'P b c n'
_symmetry_Int_Tables_number      60
_space_group_name_Hall           '-P 2n 2ab'
loop_
_symmetry_equiv_pos_site_id
_symmetry_equiv_pos_as_xyz
1 x,y,z
2 1/2+x,1/2-y,-z
3 -x,y,1/2-z
4 1/2-x,1/2-y,1/2+z
5 -x,-y,-z
6 1/2-x,1/2+y,z
7 x,-y,1/2+z
8 1/2+x,1/2+y,1/2-z
_cell_length_a                   22.723(2)
_cell_length_b                   11.0052(10)
_cell_length_c                   14.6753(13)
_cell_angle_alpha                90
_cell_angle_beta                 90
_cell_angle_gamma                90
_cell_volume                     3669.87
_exptl_crystal_colour            colorless
_exptl_crystal_description       block
_cell_formula_units_Z            8
loop_
_atom_site_label
_atom_site_type_symbol
_atom_site_fract_x
_atom_site_fract_y
_atom_site_fract_z
C1 C -0.12944(7) 0.59744(15) 0.12527(10)
C2 C -0.12010(6) 0.70733(15) 0.07991(10)
C3 C -0.16811(8) 0.78137(18) 0.05883(12)
H1 H -0.1626 0.8555 0.0296
C4 C -0.22375(8) 0.7425(2) 0.08217(14)
H2 H -0.2560 0.7911 0.0684
C5 C -0.23243(8) 0.6332(2) 0.12542(14)
H3 H -0.2705 0.6089 0.1398
C6 C -0.18576(8) 0.55875(19) 0.14800(12)
H4 H -0.1918 0.4850 0.1775
C7 C -0.02858(6) 0.64619(13) 0.08638(9)
N1 N 0.03047(5) 0.64575(11) 0.07334(9)
C8 C 0.06512(6) 0.74938(13) 0.03873(10)
H5 H 0.0501 0.7757 -0.0207
C9 C 0.11817(6) 0.57337(13) 0.08222(10)
C10 C 0.16627(7) 0.49239(14) 0.10993(10)
N2 N 0.22054(6) 0.53692(13) 0.09914(10)
C11 C 0.26482(8) 0.46690(19) 0.12951(14)
H6 H 0.3030 0.4963 0.1232
C12 C 0.25774(8) 0.35600(18) 0.16889(13)
H7 H 0.2900 0.3122 0.1898
C13 C 0.20159(8) 0.31020(17) 0.17707(13)
H8 H 0.1953 0.2336 0.2020
C14 C 0.06601(6) 0.85495(13) 0.10486(10)
C15 C 0.06359(6) 0.97291(13) 0.07239(11)
H9 H 0.0591 0.9864 0.0102
C16 C 0.06773(7) 1.07131(15) 0.13105(11)
H10 H 0.0661 1.1504 0.1088
C17 C 0.07435(7) 1.04945(15) 0.22293(11)
C18 C 0.07648(8) 0.93355(16) 0.25692(11)
H11 H 0.0806 0.9205 0.3192
C19 C 0.07238(7) 0.83647(15) 0.19786(11)
H12 H 0.0739 0.7577 0.2206
Cl1 Cl 0.07922(3) 1.17189(5) 0.29810(4)
N3 N -0.06194(5) 0.73400(12) 0.05824(9)
C20 C 0.12568(6) 0.68834(14) 0.02802(11)
H13 H 0.1342 0.6709 -0.0354
H14 H 0.1568 0.7387 0.0530
N4 N 0.06451(5) 0.55054(11) 0.10422(9)
C21 C 0.15513(7) 0.37973(15) 0.14767(12)
H15 H 0.1167 0.3514 0.1531
S1 S -0.062132(17) 0.52444(4) 0.14316(3)
loop_
_geom_bond_atom_site_label_1
_geom_bond_atom_site_label_2
_geom_bond_site_symmetry_1
_geom_bond_site_symmetry_2
C1 C2 1_555 1_555
C2 C3 1_555 1_555
C3 H1 1_555 1_555
C4 C3 1_555 1_555
H2 C4 1_555 1_555
C5 C4 1_555 1_555
H3 C5 1_555 1_555
C6 C1 1_555 1_555
H4 C6 1_555 1_555
C7 N1 1_555 1_555
N1 C8 1_555 1_555
C8 H5 1_555 1_555
C9 C10 1_555 1_555
C10 N2 1_555 1_555
N2 C11 1_555 1_555
C11 H6 1_555 1_555
C12 C11 1_555 1_555
H7 C12 1_555 1_555
C13 C12 1_555 1_555
H8 C13 1_555 1_555
C14 C8 1_555 1_555
C15 C14 1_555 1_555
H9 C15 1_555 1_555
C16 C15 1_555 1_555
H10 C16 1_555 1_555
C17 C16 1_555 1_555
C18 C17 1_555 1_555
H11 C18 1_555 1_555
C19 C14 1_555 1_555
H12 C19 1_555 1_555
Cl1 C17 1_555 1_555
N3 C2 1_555 1_555
C20 C8 1_555 1_555
H13 C20 1_555 1_555
H14 C20 1_555 1_555
N4 N1 1_555 1_555
C21 C10 1_555 1_555
H15 C21 1_555 1_555
S1 C1 1_555 1_555
C5 C6 1_555 1_555
C7 N3 1_555 1_555
C7 S1 1_555 1_555
C9 C20 1_555 1_555
C9 N4 1_555 1_555
C13 C21 1_555 1_555
C18 C19 1_555 1_555

#END
