
#######################################################################
#
#                 Cambridge Crystallographic Data Centre
#                                CCDC 
#
#######################################################################
#
# If this CIF has been generated from an entry in the Cambridge 
# Structural Database, then it will include bibliographic, chemical, 
# crystal, experimental, refinement or atomic coordinate data resulting 
# from the CCDC's data processing and validation procedures.
#
#######################################################################

data_RIJJOM
_chemical_formula_moiety         'C16 H27 N2 O6 1-,C12 H24 N1 1+'
_chemical_name_systematic        
'N,N-dicyclohexylaminium [(t-butoxycarbonyl)amino][1-(t-butoxycarbonyl)pyrrolidin-2-yl]acetate'
_symmetry_cell_setting           monoclinic
_symmetry_space_group_name_H-M   'P 21'
_symmetry_Int_Tables_number      4
_space_group_name_Hall           'P 2yb'
loop_
_symmetry_equiv_pos_site_id
_symmetry_equiv_pos_as_xyz
1 x,y,z
2 -x,1/2+y,-z
_cell_length_a                   9.3844(3)
_cell_length_b                   9.7733(3)
_cell_length_c                   17.1264(5)
_cell_angle_alpha                90
_cell_angle_beta                 101.7970(10)
_cell_angle_gamma                90
_cell_volume                     1537.6
_exptl_crystal_colour            colorless
_exptl_crystal_description       Block
_cell_formula_units_Z            2
loop_
_atom_site_label
_atom_site_type_symbol
_atom_site_fract_x
_atom_site_fract_y
_atom_site_fract_z
O1 O 0.33617(12) 0.28126(12) 0.44086(6)
O2 O 0.41819(13) 0.49111(12) 0.42761(7)
O3 O -0.00053(12) 0.56201(12) 0.23534(7)
O4 O 0.17294(12) 0.68427(11) 0.18979(6)
N1 N 0.24119(14) 0.52928(13) 0.28385(7)
H1 H 0.328(2) 0.544(2) 0.2720(12)
C1 C 0.33465(16) 0.39335(17) 0.40517(8)
C2 C 0.22173(16) 0.40545(15) 0.32663(8)
H2 H 0.123326 0.410001 0.340443
C3 C 0.12563(17) 0.58838(15) 0.23531(9)
C4 C 0.07015(19) 0.74513(17) 0.12145(9)
C5 C 0.1686(2) 0.8359(2) 0.08383(14)
H3 H 0.213547 0.905222 0.122433
H4 H 0.111155 0.881004 0.036638
H5 H 0.244799 0.780015 0.068096
C6 C -0.0437(2) 0.83032(19) 0.15010(10)
H6 H -0.108538 0.770111 0.172602
H7 H -0.100623 0.881503 0.105130
H8 H 0.004227 0.894497 0.191130
C7 C 0.0035(3) 0.6321(2) 0.06488(11)
H9 H 0.081094 0.575511 0.051273
H10 H -0.054152 0.672623 0.016174
H11 H -0.059567 0.575266 0.090643
O5 O 0.22382(14) 0.33047(14) 0.06662(7)
O6 O 0.40028(15) 0.3604(2) 0.17899(8)
N2 N 0.17730(17) 0.29478(16) 0.18977(8)
C8 C 0.2265(4) 0.2732(3) 0.27588(13)
H12 H 0.327243 0.234434 0.287160
C9 C 0.1184(3) 0.1652(4) 0.29240(16)
H13 H 0.106446 0.169235 0.348472
H14 H 0.149724 0.071947 0.280828
C10 C -0.0225(2) 0.20597(19) 0.23461(12)
H15 H -0.091854 0.128524 0.224951
H16 H -0.069726 0.284657 0.255448
C11 C 0.0293(2) 0.24445(18) 0.15882(11)
H17 H 0.029994 0.163926 0.123828
H18 H -0.032840 0.316657 0.128775
C12 C 0.26411(18) 0.32836(18) 0.13863(10)
C13 C 0.51637(19) 0.3922(2) 0.13580(11)
C14 C 0.6449(2) 0.4195(2) 0.20352(12)
H19 H 0.621073 0.494735 0.236457
H20 H 0.729933 0.444388 0.181594
H21 H 0.666601 0.336949 0.236294
C15 C 0.5450(3) 0.2689(3) 0.08728(17)
H22 H 0.559916 0.187725 0.121617
H23 H 0.632247 0.285286 0.065481
H24 H 0.461339 0.253961 0.043439
C16 C 0.4776(3) 0.5195(2) 0.08488(14)
H25 H 0.399249 0.497852 0.039276
H26 H 0.563368 0.550977 0.065617
H27 H 0.445116 0.591674 0.116938
N4 N 0.57378(14) 0.27084(13) 0.56313(7)
H45 H 0.4882(19) 0.280(2) 0.5212(11)
H46 H 0.586(2) 0.1780(18) 0.5670(11)
C26 C 0.53613(16) 0.32123(16) 0.63920(9)
H47 H 0.618254 0.298774 0.684523
C27 C 0.51098(18) 0.47473(16) 0.63793(9)
H48 H 0.431305 0.498839 0.592594
H49 H 0.600286 0.522699 0.630680
C28 C 0.47107(18) 0.52043(17) 0.71622(10)
H50 H 0.554601 0.503651 0.760826
H51 H 0.450909 0.619943 0.713910
C29 C 0.33794(19) 0.44413(18) 0.73195(11)
H52 H 0.320270 0.470371 0.784994
H53 H 0.251346 0.470645 0.691347
C30 C 0.3594(2) 0.2896(2) 0.72924(11)
H54 H 0.268373 0.242991 0.734852
H55 H 0.437163 0.261575 0.774635
C31 C 0.40046(18) 0.24516(17) 0.65120(10)
H56 H 0.419004 0.145387 0.652470
H57 H 0.318774 0.264650 0.606020
C32 C 0.70376(16) 0.33376(17) 0.53862(9)
H58 H 0.687786 0.434610 0.531918
C33 C 0.84135(17) 0.30884(17) 0.60121(9)
H59 H 0.854813 0.209286 0.610596
H60 H 0.831593 0.352270 0.652079
C34 C 0.97380(18) 0.3675(2) 0.57419(11)
H61 H 0.964615 0.468250 0.570053
H62 H 1.062621 0.346058 0.614512
C35 C 0.9887(2) 0.3090(3) 0.49379(12)
H63 H 1.071626 0.353298 0.476209
H64 H 1.008974 0.209636 0.499273
C36 C 0.8500(2) 0.3323(3) 0.43142(11)
H65 H 0.859944 0.289065 0.380523
H66 H 0.835209 0.431678 0.421949
C37 C 0.71817(18) 0.2721(2) 0.45866(10)
H67 H 0.729143 0.171585 0.464016
H68 H 0.628915 0.291395 0.418196
H28? H 0.122607 0.407809 0.339628
O7? O 0.4731(17) 0.3852(19) 0.2306(9)
O8? O 0.3529(14) 0.3545(15) 0.0998(8)
N3? N 0.238(2) 0.304(2) 0.1991(12)
C17? C 0.238(5) 0.268(3) 0.2829(16)
H29? H 0.328843 0.218236 0.308320
C18? C 0.102(5) 0.178(6) 0.279(2)
H30? H 0.126381 0.079440 0.279253
H31? H 0.053468 0.197629 0.324074
C19? C 0.008(2) 0.221(3) 0.2005(18)
H32? H -0.060198 0.146710 0.178335
H33? H -0.048430 0.303842 0.207120
C20? C 0.113(2) 0.249(2) 0.1464(13)
H34? H 0.137563 0.164028 0.120708
H35? H 0.071694 0.316131 0.104517
C21? C 0.367(3) 0.347(5) 0.1791(13)
C22? C 0.482(2) 0.381(2) 0.0667(11)
C23? C 0.416(2) 0.382(3) -0.0214(12)
H36? H 0.389656 0.288485 -0.039324
H37? H 0.487011 0.418441 -0.050889
H38? H 0.328976 0.439731 -0.031195
C24? C 0.593(4) 0.268(4) 0.085(3)
H39? H 0.562902 0.202765 0.121914
H40? H 0.688032 0.307235 0.109995
H41? H 0.601412 0.221335 0.035716
C25? C 0.544(3) 0.523(3) 0.0898(19)
H42? H 0.601382 0.553666 0.051106
H43? H 0.606851 0.519728 0.143085
H44? H 0.464148 0.587460 0.089966
loop_
_geom_bond_atom_site_label_1
_geom_bond_atom_site_label_2
_geom_bond_site_symmetry_1
_geom_bond_site_symmetry_2
O1 C1 1_555 1_555
O2 C1 1_555 1_555
O3 C3 1_555 1_555
O4 C3 1_555 1_555
N1 H1 1_555 1_555
C1 C2 1_555 1_555
C2 N1 1_555 1_555
H2 C2 1_555 1_555
C3 N1 1_555 1_555
C4 O4 1_555 1_555
C5 C4 1_555 1_555
H3 C5 1_555 1_555
H4 C5 1_555 1_555
H5 C5 1_555 1_555
C6 C4 1_555 1_555
H6 C6 1_555 1_555
H7 C6 1_555 1_555
H8 C6 1_555 1_555
C7 C4 1_555 1_555
H9 C7 1_555 1_555
H10 C7 1_555 1_555
H11 C7 1_555 1_555
O5 C12 1_555 1_555
O6 C12 1_555 1_555
N2 C8 1_555 1_555
C8 C2 1_555 1_555
H12 C8 1_555 1_555
C9 C8 1_555 1_555
H13 C9 1_555 1_555
H14 C9 1_555 1_555
C10 C9 1_555 1_555
H15 C10 1_555 1_555
H16 C10 1_555 1_555
C11 N2 1_555 1_555
H17 C11 1_555 1_555
H18 C11 1_555 1_555
C12 N2 1_555 1_555
C13 O6 1_555 1_555
C14 C13 1_555 1_555
H19 C14 1_555 1_555
H20 C14 1_555 1_555
H21 C14 1_555 1_555
C15 C13 1_555 1_555
H22 C15 1_555 1_555
H23 C15 1_555 1_555
H24 C15 1_555 1_555
C16 C13 1_555 1_555
H25 C16 1_555 1_555
H26 C16 1_555 1_555
H27 C16 1_555 1_555
N4 H45 1_555 1_555
H46 N4 1_555 1_555
C26 N4 1_555 1_555
H47 C26 1_555 1_555
C27 C26 1_555 1_555
H48 C27 1_555 1_555
H49 C27 1_555 1_555
C28 C27 1_555 1_555
H50 C28 1_555 1_555
H51 C28 1_555 1_555
C29 C28 1_555 1_555
H52 C29 1_555 1_555
H53 C29 1_555 1_555
C30 C29 1_555 1_555
H54 C30 1_555 1_555
H55 C30 1_555 1_555
C31 C26 1_555 1_555
H56 C31 1_555 1_555
H57 C31 1_555 1_555
C32 N4 1_555 1_555
H58 C32 1_555 1_555
C33 C32 1_555 1_555
H59 C33 1_555 1_555
H60 C33 1_555 1_555
C34 C33 1_555 1_555
H61 C34 1_555 1_555
H62 C34 1_555 1_555
C35 C34 1_555 1_555
H63 C35 1_555 1_555
H64 C35 1_555 1_555
C36 C35 1_555 1_555
H65 C36 1_555 1_555
H66 C36 1_555 1_555
C37 C32 1_555 1_555
H67 C37 1_555 1_555
H68 C37 1_555 1_555
C10 C11 1_555 1_555
C30 C31 1_555 1_555
C36 C37 1_555 1_555

#END
