
#######################################################################
#
#                 Cambridge Crystallographic Data Centre
#                                CCDC 
#
#######################################################################
#
# If this CIF has been generated from an entry in the Cambridge 
# Structural Database, then it will include bibliographic, chemical, 
# crystal, experimental, refinement or atomic coordinate data resulting 
# from the CCDC's data processing and validation procedures.
#
#######################################################################

data_RIKHOL
_chemical_name_common            
'octamesityl-[16,(6,5)]-coronene octaradicaloid unknown solvate'
_chemical_formula_moiety         'C128 H104'
_chemical_name_systematic        
'cycloocta[1,2-f](3-mesitylindene) octaradicaloid unknown solvate'
_symmetry_cell_setting           tetragonal
_symmetry_space_group_name_H-M   'P 4/n c c'
_symmetry_Int_Tables_number      130
_space_group_name_Hall           '-P 4a 2ac'
loop_
_symmetry_equiv_pos_site_id
_symmetry_equiv_pos_as_xyz
1 x,y,z
2 1/2-x,1/2-y,z
3 1/2-y,x,z
4 y,1/2-x,z
5 -x,1/2+y,1/2-z
6 1/2+x,-y,1/2-z
7 1/2+y,1/2+x,1/2-z
8 -y,-x,1/2-z
9 -x,-y,-z
10 1/2+x,1/2+y,-z
11 1/2+y,-x,-z
12 -y,1/2+x,-z
13 x,1/2-y,1/2+z
14 1/2-x,y,1/2+z
15 1/2-y,1/2-x,1/2+z
16 y,x,1/2+z
_cell_length_a                   30.4484(16)
_cell_length_b                   30.4484(16)
_cell_length_c                   13.7537(8)
_cell_angle_alpha                90
_cell_angle_beta                 90
_cell_angle_gamma                90
_cell_volume                     12751.1
_exptl_crystal_colour            'dark green'
_exptl_crystal_description       'fine Needle'
_cell_formula_units_Z            4
_exptl_crystal_recrystallization_method acetonitrile/chlorobenzene
loop_
_atom_site_label
_atom_site_type_symbol
_atom_site_fract_x
_atom_site_fract_y
_atom_site_fract_z
C1 C 0.4634(4) 0.2909(4) 0.6238(7)
H1 H 0.4904 0.2960 0.5911
C2 C 0.3672(4) 0.3566(4) 0.7028(6)
C3 C 0.3956(4) 0.3170(5) 0.7064(6)
C4 C 0.4335(4) 0.3255(4) 0.6508(8)
C5 C 0.4339(4) 0.3689(5) 0.6213(7)
C6 C 0.3932(4) 0.3881(4) 0.6498(8)
C7 C 0.3715(5) 0.4283(4) 0.6276(7)
H2 H 0.3872 0.4512 0.5959
C8 C 0.3277(4) 0.4345(4) 0.6517(7)
C9 C 0.2943(6) 0.4658(3) 0.6214(7)
C10 C 0.2521(5) 0.4483(4) 0.6512(8)
C11 C 0.2597(4) 0.4084(4) 0.7024(7)
C12 C 0.3043(5) 0.3992(4) 0.7072(6)
C13 C 0.3269(4) 0.3608(4) 0.7316(6)
H3 H 0.3130 0.3384 0.7683
C14 C 0.2273(4) 0.3844(3) 0.7315(7)
H4 H 0.2328 0.3590 0.7698
C15 C 0.4685(3) 0.3940(3) 0.5662(8)
C16 C 0.5029(5) 0.4134(5) 0.6103(9)
C17 C 0.5306(5) 0.4386(5) 0.5675(13)
H5 H 0.5518 0.4547 0.6032
C18 C 0.5282(5) 0.4414(4) 0.4650(13)
C19 C 0.4954(5) 0.4237(4) 0.4083(9)
H6 H 0.4937 0.4275 0.3398
C20 C 0.4634(4) 0.3986(4) 0.4647(10)
C21 C 0.5105(6) 0.4027(8) 0.7193(10)
H7 H 0.4870 0.3833 0.7426
H8 H 0.5389 0.3881 0.7272
H9 H 0.5102 0.4300 0.7571
C22 C 0.5613(4) 0.4738(4) 0.4110(9)
H10 H 0.5832 0.4845 0.4574
H11 H 0.5761 0.4581 0.3582
H12 H 0.5449 0.4988 0.3843
C23 C 0.4269(4) 0.3754(5) 0.4102(6)
H13 H 0.4288 0.3827 0.3409
H14 H 0.4299 0.3436 0.4188
H15 H 0.3984 0.3851 0.4357
C24 C 0.3039(4) 0.5054(4) 0.5633(12)
C25 C 0.3164(4) 0.5430(5) 0.6161(12)
C26 C 0.3229(7) 0.5838(5) 0.5637(13)
H16 H 0.3258 0.6112 0.5964
C27 C 0.3246(7) 0.5807(6) 0.4664(17)
C28 C 0.3105(4) 0.5412(7) 0.4098(9)
H17 H 0.3074 0.5413 0.3411
C29 C 0.3028(4) 0.5071(4) 0.4619(10)
C30 C 0.3199(6) 0.5445(4) 0.7238(11)
H18 H 0.3291 0.5739 0.7443
H19 H 0.2913 0.5376 0.7526
H20 H 0.3416 0.5229 0.7456
C31 C 0.3373(8) 0.6280(5) 0.4067(17)
H21 H 0.3377 0.6225 0.3365
H22 H 0.3152 0.6504 0.4215
H23 H 0.3662 0.6383 0.4277
C32 C 0.2978(6) 0.4641(5) 0.4130(7)
H24 H 0.2922 0.4413 0.4618
H25 H 0.2732 0.4654 0.3673
H26 H 0.3249 0.4570 0.3776
C1B C 0.2091(4) 0.4634(4) 0.6238(7)
H1B H 0.2040 0.4904 0.5911
C2B C 0.1434(4) 0.3672(4) 0.7028(6)
C3B C 0.1830(5) 0.3956(4) 0.7064(6)
C4B C 0.1745(4) 0.4335(4) 0.6508(8)
C5B C 0.1311(5) 0.4339(4) 0.6213(7)
C6B C 0.1119(4) 0.3932(4) 0.6498(8)
C7B C 0.0717(4) 0.3715(5) 0.6276(7)
H2B H 0.0488 0.3872 0.5959
C8B C 0.0655(4) 0.3277(4) 0.6517(7)
C9B C 0.0342(3) 0.2943(6) 0.6214(7)
C10B C 0.0517(4) 0.2521(5) 0.6512(8)
C11B C 0.0916(4) 0.2597(4) 0.7024(7)
C12B C 0.1008(4) 0.3043(5) 0.7072(6)
C13B C 0.1392(4) 0.3269(4) 0.7316(6)
H3B H 0.1616 0.3130 0.7683
C14B C 0.1156(3) 0.2273(4) 0.7315(7)
H4B H 0.1410 0.2328 0.7698
C15B C 0.1060(3) 0.4685(3) 0.5662(8)
C16B C 0.0866(5) 0.5029(5) 0.6103(9)
C17B C 0.0614(5) 0.5306(5) 0.5675(13)
H5B H 0.0453 0.5518 0.6032
C18B C 0.0586(4) 0.5282(5) 0.4650(13)
C19B C 0.0763(4) 0.4954(5) 0.4083(9)
H6B H 0.0725 0.4937 0.3398
C20B C 0.1014(4) 0.4634(4) 0.4647(10)
C21B C 0.0973(8) 0.5105(6) 0.7193(10)
H7B H 0.1167 0.4870 0.7426
H8B H 0.1119 0.5389 0.7272
H9B H 0.0700 0.5102 0.7571
C22B C 0.0262(4) 0.5613(4) 0.4110(9)
H10B H 0.0155 0.5832 0.4574
H11B H 0.0419 0.5761 0.3582
H12B H 0.0012 0.5449 0.3843
C23B C 0.1246(5) 0.4269(4) 0.4102(6)
H13B H 0.1173 0.4288 0.3409
H14B H 0.1564 0.4299 0.4188
H15B H 0.1149 0.3984 0.4357
C24B C -0.0054(4) 0.3039(4) 0.5633(12)
C25B C -0.0430(5) 0.3164(4) 0.6161(12)
C26B C -0.0838(5) 0.3229(7) 0.5637(13)
H16B H -0.1112 0.3258 0.5964
C27B C -0.0807(6) 0.3246(7) 0.4664(17)
C28B C -0.0412(7) 0.3105(4) 0.4098(9)
H17B H -0.0413 0.3074 0.3411
C29B C -0.0071(4) 0.3028(4) 0.4619(10)
C30B C -0.0445(4) 0.3199(6) 0.7238(11)
H18B H -0.0739 0.3291 0.7443
H19B H -0.0376 0.2913 0.7526
H20B H -0.0229 0.3416 0.7456
C31B C -0.1280(5) 0.3373(8) 0.4067(17)
H21B H -0.1225 0.3377 0.3365
H22B H -0.1504 0.3152 0.4215
H23B H -0.1383 0.3662 0.4277
C32B C 0.0359(5) 0.2978(6) 0.4130(7)
H24B H 0.0587 0.2922 0.4618
H25B H 0.0346 0.2732 0.3673
H26B H 0.0430 0.3249 0.3776
C1C C 0.2909(4) 0.0366(4) 0.6238(7)
H1C H 0.2960 0.0096 0.5911
C2C C 0.3566(4) 0.1328(4) 0.7028(6)
C3C C 0.3170(5) 0.1044(4) 0.7064(6)
C4C C 0.3255(4) 0.0665(4) 0.6508(8)
C5C C 0.3689(5) 0.0661(4) 0.6213(7)
C6C C 0.3881(4) 0.1068(4) 0.6498(8)
C7C C 0.4283(4) 0.1285(5) 0.6276(7)
H2C H 0.4512 0.1128 0.5959
C8C C 0.4345(4) 0.1723(4) 0.6517(7)
C9C C 0.4658(3) 0.2057(6) 0.6214(7)
C10C C 0.4483(4) 0.2479(5) 0.6512(8)
C11C C 0.4084(4) 0.2403(4) 0.7024(7)
C12C C 0.3992(4) 0.1957(5) 0.7072(6)
C13C C 0.3608(4) 0.1731(4) 0.7316(6)
H3C H 0.3384 0.1870 0.7683
C14C C 0.3844(3) 0.2727(4) 0.7315(7)
H4C H 0.3590 0.2672 0.7698
C15C C 0.3940(3) 0.0315(3) 0.5662(8)
C16C C 0.4134(5) -0.0029(5) 0.6103(9)
C17C C 0.4386(5) -0.0306(5) 0.5675(13)
H5C H 0.4547 -0.0518 0.6032
C18C C 0.4414(4) -0.0282(5) 0.4650(13)
C19C C 0.4237(4) 0.0046(5) 0.4083(9)
H6C H 0.4275 0.0063 0.3398
C20C C 0.3986(4) 0.0366(4) 0.4647(10)
C21C C 0.4027(8) -0.0105(6) 0.7193(10)
H7C H 0.3833 0.0130 0.7426
H8C H 0.3881 -0.0389 0.7272
H9C H 0.4300 -0.0102 0.7571
C22C C 0.4738(4) -0.0613(4) 0.4110(9)
H10C H 0.4845 -0.0832 0.4574
H11C H 0.4581 -0.0761 0.3582
H12C H 0.4988 -0.0449 0.3843
C23C C 0.3754(5) 0.0731(4) 0.4102(6)
H13C H 0.3827 0.0712 0.3409
H14C H 0.3436 0.0701 0.4188
H15C H 0.3851 0.1016 0.4357
C24C C 0.5054(4) 0.1961(4) 0.5633(12)
C25C C 0.5430(5) 0.1836(4) 0.6161(12)
C26C C 0.5838(5) 0.1771(7) 0.5637(13)
H16C H 0.6112 0.1742 0.5964
C27C C 0.5807(6) 0.1754(7) 0.4664(17)
C28C C 0.5412(7) 0.1895(4) 0.4098(9)
H17C H 0.5413 0.1926 0.3411
C29C C 0.5071(4) 0.1972(4) 0.4619(10)
C30C C 0.5445(4) 0.1801(6) 0.7238(11)
H18C H 0.5739 0.1709 0.7443
H19C H 0.5376 0.2087 0.7526
H20C H 0.5229 0.1584 0.7456
C31C C 0.6280(5) 0.1627(8) 0.4067(17)
H21C H 0.6225 0.1623 0.3365
H22C H 0.6504 0.1848 0.4215
H23C H 0.6383 0.1338 0.4277
C32C C 0.4641(5) 0.2022(6) 0.4130(7)
H24C H 0.4413 0.2078 0.4618
H25C H 0.4654 0.2268 0.3673
H26C H 0.4570 0.1751 0.3776
C1A C 0.0366(4) 0.2091(4) 0.6238(7)
H1A H 0.0096 0.2040 0.5911
C2A C 0.1328(4) 0.1434(4) 0.7028(6)
C3A C 0.1044(4) 0.1830(5) 0.7064(6)
C4A C 0.0665(4) 0.1745(4) 0.6508(8)
C5A C 0.0661(4) 0.1311(5) 0.6213(7)
C6A C 0.1068(4) 0.1119(4) 0.6498(8)
C7A C 0.1285(5) 0.0717(4) 0.6276(7)
H2A H 0.1128 0.0488 0.5959
C8A C 0.1723(4) 0.0655(4) 0.6517(7)
C9A C 0.2057(6) 0.0342(3) 0.6214(7)
C10A C 0.2479(5) 0.0517(4) 0.6512(8)
C11A C 0.2403(4) 0.0916(4) 0.7024(7)
C12A C 0.1957(5) 0.1008(4) 0.7072(6)
C13A C 0.1731(4) 0.1392(4) 0.7316(6)
H3A H 0.1870 0.1616 0.7683
C14A C 0.2727(4) 0.1156(3) 0.7315(7)
H4A H 0.2672 0.1410 0.7698
C15A C 0.0315(3) 0.1060(3) 0.5662(8)
C16A C -0.0029(5) 0.0866(5) 0.6103(9)
C17A C -0.0306(5) 0.0614(5) 0.5675(13)
H5A H -0.0518 0.0453 0.6032
C18A C -0.0282(5) 0.0586(4) 0.4650(13)
C19A C 0.0046(5) 0.0763(4) 0.4083(9)
H6A H 0.0063 0.0725 0.3398
C20A C 0.0366(4) 0.1014(4) 0.4647(10)
C21A C -0.0105(6) 0.0973(8) 0.7193(10)
H7A H 0.0130 0.1167 0.7426
H8A H -0.0389 0.1119 0.7272
H9A H -0.0102 0.0700 0.7571
C22A C -0.0613(4) 0.0262(4) 0.4110(9)
H10A H -0.0832 0.0155 0.4574
H11A H -0.0761 0.0419 0.3582
H12A H -0.0449 0.0012 0.3843
C23A C 0.0731(4) 0.1246(5) 0.4102(6)
H13A H 0.0712 0.1173 0.3409
H14A H 0.0701 0.1564 0.4188
H15A H 0.1016 0.1149 0.4357
C24A C 0.1961(4) -0.0054(4) 0.5633(12)
C25A C 0.1836(4) -0.0430(5) 0.6161(12)
C26A C 0.1771(7) -0.0838(5) 0.5637(13)
H16A H 0.1742 -0.1112 0.5964
C27A C 0.1754(7) -0.0807(6) 0.4664(17)
C28A C 0.1895(4) -0.0412(7) 0.4098(9)
H17A H 0.1926 -0.0413 0.3411
C29A C 0.1972(4) -0.0071(4) 0.4619(10)
C30A C 0.1801(6) -0.0445(4) 0.7238(11)
H18A H 0.1709 -0.0739 0.7443
H19A H 0.2087 -0.0376 0.7526
H20A H 0.1584 -0.0229 0.7456
C31A C 0.1627(8) -0.1280(5) 0.4067(17)
H21A H 0.1623 -0.1225 0.3365
H22A H 0.1848 -0.1504 0.4215
H23A H 0.1338 -0.1383 0.4277
C32A C 0.2022(6) 0.0359(5) 0.4130(7)
H24A H 0.2078 0.0587 0.4618
H25A H 0.2268 0.0346 0.3673
H26A H 0.1751 0.0430 0.3776
loop_
_geom_bond_atom_site_label_1
_geom_bond_atom_site_label_2
_geom_bond_site_symmetry_1
_geom_bond_site_symmetry_2
C1 H1 1_555 1_555
C2 C3 1_555 1_555
C3 C4 1_555 1_555
C4 C1 1_555 1_555
C5 C4 1_555 1_555
C6 C2 1_555 1_555
C7 C6 1_555 1_555
H2 C7 1_555 1_555
C8 C7 1_555 1_555
C9 C8 1_555 1_555
C10 C9 1_555 1_555
C11 C10 1_555 1_555
C12 C8 1_555 1_555
C13 C2 1_555 1_555
H3 C13 1_555 1_555
C14 C11 1_555 1_555
H4 C14 1_555 1_555
C15 C5 1_555 1_555
C16 C15 1_555 1_555
C17 C16 1_555 1_555
H5 C17 1_555 1_555
C18 C17 1_555 1_555
C19 C18 1_555 1_555
H6 C19 1_555 1_555
C20 C15 1_555 1_555
C21 C16 1_555 1_555
H7 C21 1_555 1_555
H8 C21 1_555 1_555
H9 C21 1_555 1_555
C22 C18 1_555 1_555
H10 C22 1_555 1_555
H11 C22 1_555 1_555
H12 C22 1_555 1_555
C23 C20 1_555 1_555
H13 C23 1_555 1_555
H14 C23 1_555 1_555
H15 C23 1_555 1_555
C24 C9 1_555 1_555
C25 C24 1_555 1_555
C26 C25 1_555 1_555
H16 C26 1_555 1_555
C27 C26 1_555 1_555
C28 C27 1_555 1_555
H17 C28 1_555 1_555
C29 C24 1_555 1_555
C30 C25 1_555 1_555
H18 C30 1_555 1_555
H19 C30 1_555 1_555
H20 C30 1_555 1_555
C31 C27 1_555 1_555
H21 C31 1_555 1_555
H22 C31 1_555 1_555
H23 C31 1_555 1_555
C32 C29 1_555 1_555
H24 C32 1_555 1_555
H25 C32 1_555 1_555
H26 C32 1_555 1_555
C1B C10 1_555 1_555
H1B C1B 1_555 1_555
C2B C3B 1_555 1_555
C3B C14 1_555 1_555
C4B C1B 1_555 1_555
C5B C4B 1_555 1_555
C6B C2B 1_555 1_555
C7B C6B 1_555 1_555
H2B C7B 1_555 1_555
C8B C7B 1_555 1_555
C9B C8B 1_555 1_555
C10B C9B 1_555 1_555
C11B C10B 1_555 1_555
C12B C8B 1_555 1_555
C13B C2B 1_555 1_555
H3B C13B 1_555 1_555
C14B C11B 1_555 1_555
H4B C14B 1_555 1_555
C15B C5B 1_555 1_555
C16B C15B 1_555 1_555
C17B C16B 1_555 1_555
H5B C17B 1_555 1_555
C18B C17B 1_555 1_555
C19B C18B 1_555 1_555
H6B C19B 1_555 1_555
C20B C15B 1_555 1_555
C21B C16B 1_555 1_555
H7B C21B 1_555 1_555
H8B C21B 1_555 1_555
H9B C21B 1_555 1_555
C22B C18B 1_555 1_555
H10B C22B 1_555 1_555
H11B C22B 1_555 1_555
H12B C22B 1_555 1_555
C23B C20B 1_555 1_555
H13B C23B 1_555 1_555
H14B C23B 1_555 1_555
H15B C23B 1_555 1_555
C24B C9B 1_555 1_555
C25B C24B 1_555 1_555
C26B C25B 1_555 1_555
H16B C26B 1_555 1_555
C27B C26B 1_555 1_555
C28B C27B 1_555 1_555
H17B C28B 1_555 1_555
C29B C24B 1_555 1_555
C30B C25B 1_555 1_555
H18B C30B 1_555 1_555
H19B C30B 1_555 1_555
H20B C30B 1_555 1_555
C31B C27B 1_555 1_555
H21B C31B 1_555 1_555
H22B C31B 1_555 1_555
H23B C31B 1_555 1_555
C32B C29B 1_555 1_555
H24B C32B 1_555 1_555
H25B C32B 1_555 1_555
H26B C32B 1_555 1_555
C1C H1C 1_555 1_555
C2C C3C 1_555 1_555
C3C C4C 1_555 1_555
C4C C1C 1_555 1_555
C5C C4C 1_555 1_555
C6C C2C 1_555 1_555
C7C C6C 1_555 1_555
H2C C7C 1_555 1_555
C8C C7C 1_555 1_555
C9C C8C 1_555 1_555
C10C C1 1_555 1_555
C11C C10C 1_555 1_555
C12C C8C 1_555 1_555
C13C C2C 1_555 1_555
H3C C13C 1_555 1_555
C14C C3 1_555 1_555
H4C C14C 1_555 1_555
C15C C5C 1_555 1_555
C16C C15C 1_555 1_555
C17C C16C 1_555 1_555
H5C C17C 1_555 1_555
C18C C17C 1_555 1_555
C19C C18C 1_555 1_555
H6C C19C 1_555 1_555
C20C C15C 1_555 1_555
C21C C16C 1_555 1_555
H7C C21C 1_555 1_555
H8C C21C 1_555 1_555
H9C C21C 1_555 1_555
C22C C18C 1_555 1_555
H10C C22C 1_555 1_555
H11C C22C 1_555 1_555
H12C C22C 1_555 1_555
C23C C20C 1_555 1_555
H13C C23C 1_555 1_555
H14C C23C 1_555 1_555
H15C C23C 1_555 1_555
C24C C9C 1_555 1_555
C25C C24C 1_555 1_555
C26C C25C 1_555 1_555
H16C C26C 1_555 1_555
C27C C26C 1_555 1_555
C28C C27C 1_555 1_555
H17C C28C 1_555 1_555
C29C C24C 1_555 1_555
C30C C25C 1_555 1_555
H18C C30C 1_555 1_555
H19C C30C 1_555 1_555
H20C C30C 1_555 1_555
C31C C27C 1_555 1_555
H21C C31C 1_555 1_555
H22C C31C 1_555 1_555
H23C C31C 1_555 1_555
C32C C29C 1_555 1_555
H24C C32C 1_555 1_555
H25C C32C 1_555 1_555
H26C C32C 1_555 1_555
C1A C10B 1_555 1_555
H1A C1A 1_555 1_555
C2A C3A 1_555 1_555
C3A C14B 1_555 1_555
C4A C1A 1_555 1_555
C5A C4A 1_555 1_555
C6A C2A 1_555 1_555
C7A C6A 1_555 1_555
H2A C7A 1_555 1_555
C8A C7A 1_555 1_555
C9A C8A 1_555 1_555
C10A C1C 1_555 1_555
C11A C10A 1_555 1_555
C12A C8A 1_555 1_555
C13A C2A 1_555 1_555
H3A C13A 1_555 1_555
C14A C3C 1_555 1_555
H4A C14A 1_555 1_555
C15A C5A 1_555 1_555
C16A C15A 1_555 1_555
C17A C16A 1_555 1_555
H5A C17A 1_555 1_555
C18A C17A 1_555 1_555
C19A C18A 1_555 1_555
H6A C19A 1_555 1_555
C20A C15A 1_555 1_555
C21A C16A 1_555 1_555
H7A C21A 1_555 1_555
H8A C21A 1_555 1_555
H9A C21A 1_555 1_555
C22A C18A 1_555 1_555
H10A C22A 1_555 1_555
H11A C22A 1_555 1_555
H12A C22A 1_555 1_555
C23A C20A 1_555 1_555
H13A C23A 1_555 1_555
H14A C23A 1_555 1_555
H15A C23A 1_555 1_555
C24A C9A 1_555 1_555
C25A C24A 1_555 1_555
C26A C25A 1_555 1_555
H16A C26A 1_555 1_555
C27A C26A 1_555 1_555
C28A C27A 1_555 1_555
H17A C28A 1_555 1_555
C29A C24A 1_555 1_555
C30A C25A 1_555 1_555
H18A C30A 1_555 1_555
H19A C30A 1_555 1_555
H20A C30A 1_555 1_555
C31A C27A 1_555 1_555
H21A C31A 1_555 1_555
H22A C31A 1_555 1_555
H23A C31A 1_555 1_555
C32A C29A 1_555 1_555
H24A C32A 1_555 1_555
H25A C32A 1_555 1_555
H26A C32A 1_555 1_555
C5 C6 1_555 1_555
C11 C12 1_555 1_555
C12 C13 1_555 1_555
C19 C20 1_555 1_555
C28 C29 1_555 1_555
C3B C4B 1_555 1_555
C5B C6B 1_555 1_555
C11B C12B 1_555 1_555
C12B C13B 1_555 1_555
C19B C20B 1_555 1_555
C28B C29B 1_555 1_555
C5C C6C 1_555 1_555
C9C C10C 1_555 1_555
C11C C12C 1_555 1_555
C11C C14C 1_555 1_555
C12C C13C 1_555 1_555
C19C C20C 1_555 1_555
C28C C29C 1_555 1_555
C3A C4A 1_555 1_555
C5A C6A 1_555 1_555
C9A C10A 1_555 1_555
C11A C12A 1_555 1_555
C11A C14A 1_555 1_555
C12A C13A 1_555 1_555
C19A C20A 1_555 1_555
C28A C29A 1_555 1_555

#END
