
#######################################################################
#
#                 Cambridge Crystallographic Data Centre
#                                CCDC 
#
#######################################################################
#
# If this CIF has been generated from an entry in the Cambridge 
# Structural Database, then it will include bibliographic, chemical, 
# crystal, experimental, refinement or atomic coordinate data resulting 
# from the CCDC's data processing and validation procedures.
#
#######################################################################

data_RIKRAH
_chemical_formula_moiety         'C4 H2 N4 O4,2(C2 H4 N4)'
_chemical_name_systematic        
"[3,3'-bi-1,2,4-oxadiazole]-5,5'(4H,4'H)-dione 4H-1,2,4-triazol-4-amine"
_symmetry_cell_setting           triclinic
_symmetry_space_group_name_H-M   'P -1'
_symmetry_Int_Tables_number      2
_space_group_name_Hall           '-P 1'
loop_
_symmetry_equiv_pos_site_id
_symmetry_equiv_pos_as_xyz
1 x,y,z
2 -x,-y,-z
_cell_length_a                   5.4679(7)
_cell_length_b                   6.8240(9)
_cell_length_c                   9.7559(13)
_cell_angle_alpha                70.777(5)
_cell_angle_beta                 88.173(5)
_cell_angle_gamma                75.646(4)
_cell_volume                     332.502
_exptl_crystal_description       column
_cell_formula_units_Z            1
loop_
_atom_site_label
_atom_site_type_symbol
_atom_site_fract_x
_atom_site_fract_y
_atom_site_fract_z
C1 C 0.3761(6) 0.5759(5) -0.0181(4)
C2 C -0.0041(6) 0.7470(5) 0.0069(4)
N1 N 0.3093(5) 0.7048(5) -0.1476(3)
N2 N 0.1979(5) 0.5908(4) 0.0812(3)
H1 H 0.205(6) 0.504(5) 0.187(4)
O1 O 0.0589(4) 0.8208(4) -0.1360(2)
O2 O -0.2102(4) 0.8195(4) 0.0446(3)
C1A C 0.6239(6) 0.4241(5) 0.0181(4)
C2A C 1.0041(6) 0.2530(5) -0.0069(4)
N1A N 0.6907(5) 0.2952(5) 0.1476(3)
N2A N 0.8021(5) 0.4092(4) -0.0812(3)
H1A H 0.795(6) 0.496(5) -0.187(4)
O1A O 0.9411(4) 0.1792(4) 0.1360(2)
O2A O 1.2102(4) 0.1805(4) -0.0446(3)
C3 C 0.1242(6) 0.2036(5) 0.5806(4)
H2 H 0.0288 0.1484 0.6608
C4 C 0.4338(6) 0.2958(5) 0.4532(3)
H3 H 0.5953 0.3189 0.4256
N3 N 0.2356(5) 0.3485(4) 0.3649(3)
N4 N 0.0355(5) 0.2914(5) 0.4449(3)
N5 N 0.3709(5) 0.2029(4) 0.5903(3)
N6 N 0.5418(6) 0.1302(5) 0.7137(3)
H4 H 0.587(7) -0.009(7) 0.739(4)
H5 H 0.449(7) 0.167(6) 0.777(4)
loop_
_geom_bond_atom_site_label_1
_geom_bond_atom_site_label_2
_geom_bond_site_symmetry_1
_geom_bond_site_symmetry_2
C1 N1 1_555 1_555
C2 N2 1_555 1_555
N1 O1 1_555 1_555
N2 C1 1_555 1_555
H1 N2 1_555 1_555
O1 C2 1_555 1_555
O2 C2 1_555 1_555
C3 H2 1_555 1_555
C4 H3 1_555 1_555
N3 C4 1_555 1_555
N4 C3 1_555 1_555
N5 C3 1_555 1_555
N6 N5 1_555 1_555
H4 N6 1_555 1_555
H5 N6 1_555 1_555
C1A C1 1_555 1_555
C2A N2A 1_555 1_555
N1A C1A 1_555 1_555
N2A C1A 1_555 1_555
H1A N2A 1_555 1_555
O1A C2A 1_555 1_555
O2A C2A 1_555 1_555
C4 N5 1_555 1_555
N3 N4 1_555 1_555
N1A O1A 1_555 1_555

#END
