
#######################################################################
#
#                 Cambridge Crystallographic Data Centre
#                                CCDC 
#
#######################################################################
#
# If this CIF has been generated from an entry in the Cambridge 
# Structural Database, then it will include bibliographic, chemical, 
# crystal, experimental, refinement or atomic coordinate data resulting 
# from the CCDC's data processing and validation procedures.
#
#######################################################################

data_RIKVEP
_chemical_formula_moiety         'C2 H7 N8 1+,C4 H2 N11 1-,2(H2 O1)'
_chemical_name_systematic        
'2-(6-hydrazinyl-1,2,4,5-tetrazin-3-yl)hydrazinium 5-(5-(1H-tetrazol-5-yl)-2H-1,2,3-triazol-4-yl)tetrazol-1-ide dihydrate'
_symmetry_cell_setting           monoclinic
_symmetry_space_group_name_H-M   'P 21/c'
_symmetry_Int_Tables_number      14
_space_group_name_Hall           '-P 2ybc'
loop_
_symmetry_equiv_pos_site_id
_symmetry_equiv_pos_as_xyz
1 x,y,z
2 -x,1/2+y,1/2-z
3 -x,-y,-z
4 x,1/2-y,1/2+z
_cell_length_a                   14.4559(12)
_cell_length_b                   6.7390(6)
_cell_length_c                   16.0941(13)
_cell_angle_alpha                90
_cell_angle_beta                 99.105(2)
_cell_angle_gamma                90
_cell_volume                     1548.1
_cell_formula_units_Z            4
_chemical_properties_physical    explosive
loop_
_atom_site_label
_atom_site_type_symbol
_atom_site_fract_x
_atom_site_fract_y
_atom_site_fract_z
N1 N 0.40587(19) 0.4474(4) 0.15011(16)
N2 N 0.32002(19) 0.4681(4) 0.10719(17)
H1 H 0.3092 0.4644 0.0531
N3 N 0.25214(18) 0.4946(4) 0.15244(17)
N4 N 0.56172(18) 0.4463(5) 0.28863(17)
N5 N 0.6112(2) 0.4392(5) 0.36779(19)
N6 N 0.5558(2) 0.4420(5) 0.42454(18)
N7 N 0.46851(18) 0.4482(4) 0.38053(16)
H2 H 0.4177 0.4495 0.4020
N8 N 0.15453(18) 0.5741(4) 0.29406(18)
N9 N 0.1368(2) 0.5881(5) 0.3729(2)
N10 N 0.2137(2) 0.5458(5) 0.42718(18)
N11 N 0.28313(19) 0.5043(4) 0.38354(17)
C1 C 0.4730(2) 0.4518(5) 0.2989(2)
C2 C 0.3922(2) 0.4616(5) 0.2304(2)
C3 C 0.2964(2) 0.4937(5) 0.23220(19)
C4 C 0.2453(2) 0.5230(5) 0.3024(2)
N12 N 0.22354(17) 0.0307(4) 0.43447(16)
N13 N 0.13104(18) 0.0773(4) 0.42818(17)
N14 N 0.1185(2) 0.0875(5) 0.27767(18)
N15 N 0.2069(2) 0.0399(4) 0.28275(17)
N16 N 0.34879(19) -0.0189(5) 0.36336(17)
H3 H 0.3717 -0.0201 0.3172
N17 N 0.40695(19) -0.0578(5) 0.44058(17)
H4 H 0.3938 0.0291 0.4786
H5 H 0.4665 -0.0440 0.4337
N18 N -0.0069(2) 0.1737(5) 0.34232(19)
H6 H -0.0343 0.2258 0.2961
N19 N -0.05262(18) 0.1503(5) 0.41340(18)
H7 H -0.0634 0.0221 0.4210
H8 H -0.1068 0.2157 0.4050
H9 H -0.0164 0.1985 0.4588
C5 C 0.2581(2) 0.0198(5) 0.3621(2)
C6 C 0.0848(2) 0.1074(5) 0.3521(2)
O1 O 0.17775(15) 0.9627(4) 0.09388(15)
H10 H 0.2350 0.9564 0.1162
H11 H 0.1753 0.9613 0.0408
O2 O 0.03011(16) 0.2297(4) 0.07314(15)
H12 H 0.0735 0.1434 0.0804
H13 H -0.0180 0.1813 0.0899
loop_
_geom_bond_atom_site_label_1
_geom_bond_atom_site_label_2
_geom_bond_site_symmetry_1
_geom_bond_site_symmetry_2
N1 N2 1_555 1_555
N2 H1 1_555 1_555
N3 N2 1_555 1_555
N4 N5 1_555 1_555
N5 N6 1_555 1_555
N6 N7 1_555 1_555
N7 H2 1_555 1_555
N8 N9 1_555 1_555
N9 N10 1_555 1_555
N10 N11 1_555 1_555
N11 C4 1_555 1_555
C1 N4 1_555 1_555
C2 N1 1_555 1_555
C3 N3 1_555 1_555
C4 N8 1_555 1_555
N12 N13 1_555 1_555
N13 C6 1_555 1_555
N14 N15 1_555 1_555
N15 C5 1_555 1_555
N16 H3 1_555 1_555
N17 N16 1_555 1_555
H4 N17 1_555 1_555
H5 N17 1_555 1_555
N18 H6 1_555 1_555
N19 N18 1_555 1_555
H7 N19 1_555 1_555
H8 N19 1_555 1_555
H9 N19 1_555 1_555
C5 N12 1_555 1_555
C6 N14 1_555 1_555
O1 H10 1_555 1_555
H11 O1 1_555 1_555
O2 H12 1_555 1_555
H13 O2 1_555 1_555
N7 C1 1_555 1_555
C1 C2 1_555 1_555
C2 C3 1_555 1_555
C3 C4 1_555 1_555
N16 C5 1_555 1_555
N18 C6 1_555 1_555

#END
