
#######################################################################
#
#                 Cambridge Crystallographic Data Centre
#                                CCDC 
#
#######################################################################
#
# If this CIF has been generated from an entry in the Cambridge 
# Structural Database, then it will include bibliographic, chemical, 
# crystal, experimental, refinement or atomic coordinate data resulting 
# from the CCDC's data processing and validation procedures.
#
#######################################################################

data_RILCEX
_chemical_formula_moiety         'C31 H27 Br1 O2 Si1'
_chemical_name_systematic        
3-((4-bromophenyl)methyl)-4-(methyl(diphenyl)silyl)-6-phenyl-3,4-dihydro-2H-pyran-2-one
_symmetry_cell_setting           orthorhombic
_symmetry_space_group_name_H-M   'P 21 21 21'
_symmetry_Int_Tables_number      19
_space_group_name_Hall           'P 2ac 2ab'
loop_
_symmetry_equiv_pos_site_id
_symmetry_equiv_pos_as_xyz
1 x,y,z
2 1/2-x,-y,1/2+z
3 -x,1/2+y,1/2-z
4 1/2+x,1/2-y,-z
_cell_length_a                   9.9877(7)
_cell_length_b                   10.4232(7)
_cell_length_c                   24.8089(16)
_cell_angle_alpha                90
_cell_angle_beta                 90
_cell_angle_gamma                90
_cell_volume                     2582.7
_exptl_crystal_description       block
_cell_formula_units_Z            4
loop_
_atom_site_label
_atom_site_type_symbol
_atom_site_fract_x
_atom_site_fract_y
_atom_site_fract_z
Br1 Br 0.40847(5) -0.02033(4) 0.75678(2)
Si1 Si 0.73573(7) 0.58206(6) 0.50036(3)
O1 O 0.6197(2) 0.25253(18) 0.45077(8)
O2 O 0.7058(3) 0.1914(2) 0.52762(9)
C1 C 0.6336(3) 0.2651(2) 0.50526(12)
C2 C 0.7309(3) 0.8385(3) 0.45898(13)
H1 H 0.7133 0.8624 0.4944
C3 C 0.5116(3) 0.2958(3) 0.36771(11)
C4 C 0.7441(3) 0.7079(2) 0.44629(11)
C5 C 0.4886(3) 0.3767(3) 0.32433(12)
H2 H 0.5023 0.4645 0.3282
C6 C 0.5874(3) 0.3865(2) 0.59102(10)
H3 H 0.6838 0.3941 0.5943
H4 H 0.5486 0.4664 0.6036
C7 C 0.6332(3) 0.2044(3) 0.65456(14)
H5 H 0.7238 0.2140 0.6469
C8 C 0.8773(4) 0.6746(3) 0.59171(13)
H6 H 0.9515 0.6381 0.5751
C9 C 0.4922(3) 0.1644(3) 0.36052(12)
H7 H 0.5096 0.1081 0.3888
C10 C 0.3664(4) 0.1719(4) 0.67728(15)
H8 H 0.2759 0.1603 0.6846
C11 C 0.4605(4) 0.1007(3) 0.70394(12)
C12 C 0.7524(3) 0.6654(2) 0.56704(11)
C13 C 0.4473(4) 0.1172(3) 0.31152(14)
H9 H 0.4321 0.0297 0.3075
C14 C 0.7434(4) 0.9324(3) 0.42007(14)
H10 H 0.7330 1.0183 0.4293
C15 C 0.4067(4) 0.2617(3) 0.63916(13)
H11 H 0.3426 0.3101 0.6210
C16 C 0.4455(4) 0.3286(4) 0.27541(13)
H12 H 0.4301 0.3841 0.2467
C17 C 0.6454(4) 0.7222(3) 0.59307(15)
H13 H 0.5611 0.7188 0.5772
C18 C 0.5938(4) 0.1148(3) 0.69242(13)
H14 H 0.6573 0.0645 0.7099
C19 C 0.4252(4) 0.1980(4) 0.26894(13)
H15 H 0.3968 0.1655 0.2360
C20 C 0.8754(3) 0.4678(3) 0.48889(14)
H16 H 0.8768 0.4053 0.5173
H17 H 0.9588 0.5137 0.4885
H18 H 0.8630 0.4253 0.4549
C21 C 0.8931(5) 0.7372(4) 0.64061(15)
H19 H 0.9775 0.7430 0.6563
C22 C 0.7713(4) 0.8990(4) 0.36738(15)
H20 H 0.7791 0.9624 0.3412
C23 C 0.7731(4) 0.6781(3) 0.39287(13)
H21 H 0.7832 0.5924 0.3832
C24 C 0.7850(5) 0.7901(4) 0.66570(16)
H22 H 0.7955 0.8305 0.6989
C25 C 0.7877(4) 0.7718(4) 0.35357(14)
H23 H 0.8082 0.7491 0.3183
C26 C 0.6602(4) 0.7841(4) 0.64207(18)
H24 H 0.5866 0.8213 0.6589
C27 C 0.5527(3) 0.3707(2) 0.53106(10)
H25 H 0.4584 0.3452 0.5291
C28 C 0.5521(3) 0.3461(3) 0.42070(11)
C29 C 0.5307(3) 0.4624(3) 0.44044(11)
H26 H 0.4920 0.5248 0.4186
C30 C 0.5679(3) 0.4955(2) 0.49738(11)
H27 H 0.5001 0.5559 0.5106
C31 C 0.5411(3) 0.2800(3) 0.62786(11)
loop_
_geom_bond_atom_site_label_1
_geom_bond_atom_site_label_2
_geom_bond_site_symmetry_1
_geom_bond_site_symmetry_2
Br1 C11 1_555 1_555
Si1 C4 1_555 1_555
O1 C1 1_555 1_555
O2 C1 1_555 1_555
C1 C27 1_555 1_555
C2 H1 1_555 1_555
C3 C5 1_555 1_555
C4 C2 1_555 1_555
C5 H2 1_555 1_555
C6 H3 1_555 1_555
H4 C6 1_555 1_555
C7 H5 1_555 1_555
C8 H6 1_555 1_555
C9 C3 1_555 1_555
H7 C9 1_555 1_555
C10 H8 1_555 1_555
C11 C10 1_555 1_555
C12 Si1 1_555 1_555
C13 C9 1_555 1_555
H9 C13 1_555 1_555
C14 C2 1_555 1_555
H10 C14 1_555 1_555
C15 C10 1_555 1_555
H11 C15 1_555 1_555
C16 C5 1_555 1_555
H12 C16 1_555 1_555
C17 C12 1_555 1_555
H13 C17 1_555 1_555
C18 C7 1_555 1_555
H14 C18 1_555 1_555
C19 C13 1_555 1_555
H15 C19 1_555 1_555
C20 Si1 1_555 1_555
H16 C20 1_555 1_555
H17 C20 1_555 1_555
H18 C20 1_555 1_555
C21 C8 1_555 1_555
H19 C21 1_555 1_555
C22 C14 1_555 1_555
H20 C22 1_555 1_555
C23 C4 1_555 1_555
H21 C23 1_555 1_555
C24 C21 1_555 1_555
H22 C24 1_555 1_555
C25 C22 1_555 1_555
H23 C25 1_555 1_555
C26 C17 1_555 1_555
H24 C26 1_555 1_555
C27 C6 1_555 1_555
H25 C27 1_555 1_555
C28 O1 1_555 1_555
C29 C28 1_555 1_555
H26 C29 1_555 1_555
C30 Si1 1_555 1_555
H27 C30 1_555 1_555
C31 C6 1_555 1_555
C3 C28 1_555 1_555
C7 C31 1_555 1_555
C8 C12 1_555 1_555
C11 C18 1_555 1_555
C15 C31 1_555 1_555
C16 C19 1_555 1_555
C23 C25 1_555 1_555
C24 C26 1_555 1_555
C27 C30 1_555 1_555
C29 C30 1_555 1_555

#END
