
#######################################################################
#
#                 Cambridge Crystallographic Data Centre
#                                CCDC 
#
#######################################################################
#
# If this CIF has been generated from an entry in the Cambridge 
# Structural Database, then it will include bibliographic, chemical, 
# crystal, experimental, refinement or atomic coordinate data resulting 
# from the CCDC's data processing and validation procedures.
#
#######################################################################

data_RILCOH
_chemical_formula_moiety         '2(C16 H36 N1 1+),C48 H28 N8 2-,2.5(C1 H2 Cl2)'
_chemical_name_systematic        
"bis(tetra-n-butylammonium) (5,5',8,8'-tetra(4-pyridyl)-2,2'-(1,4-phenylene)bis-1H-perimidinyl dianion) dichloromethane solvate"
_symmetry_cell_setting           monoclinic
_symmetry_space_group_name_H-M   'C 2/c'
_symmetry_Int_Tables_number      15
_space_group_name_Hall           '-C 2yn'
loop_
_symmetry_equiv_pos_site_id
_symmetry_equiv_pos_as_xyz
1 x,y,z
2 -x,y,1/2-z
3 1/2+x,1/2+y,z
4 1/2-x,1/2+y,1/2-z
5 -x,-y,-z
6 x,-y,1/2+z
7 1/2-x,1/2-y,-z
8 1/2+x,1/2-y,1/2+z
_cell_length_a                   51.2969(11)
_cell_length_b                   8.7402(2)
_cell_length_c                   38.7726(9)
_cell_angle_alpha                90
_cell_angle_beta                 117.9330(10)
_cell_angle_gamma                90
_cell_volume                     15358.3
_exptl_crystal_colour            brown
_exptl_crystal_description       Needle
_cell_formula_units_Z            8
_chemical_properties_physical    Air-sensitive
_exptl_crystal_recrystallization_method dichloromethane/pentane
loop_
_atom_site_label
_atom_site_type_symbol
_atom_site_fract_x
_atom_site_fract_y
_atom_site_fract_z
N1 N 0.15539(11) -0.3216(5) 0.06258(19)
C1 C 0.16991(14) -0.4105(6) 0.0494(2)
H1 H 0.159727 -0.446676 0.023251
C2 C 0.19897(14) -0.4525(6) 0.0718(2)
H2 H 0.207945 -0.517837 0.060840
C3 C 0.21555(13) -0.4019(6) 0.11005(18)
C4 C 0.20028(14) -0.3085(6) 0.1238(2)
H3 H 0.209891 -0.270261 0.149786
C5 C 0.17098(15) -0.2723(7) 0.0993(2)
H4 H 0.161270 -0.207598 0.109376
C6 C 0.24673(12) -0.4474(5) 0.13471(19)
C7 C 0.26379(12) -0.5029(5) 0.11745(17)
H5 H 0.254949 -0.513165 0.089881
C8 C 0.29290(12) -0.5421(5) 0.13978(18)
N2 N 0.30976(10) -0.5969(4) 0.12261(14)
C9 C 0.33761(12) -0.6323(5) 0.14697(18)
N3 N 0.35204(10) -0.6214(5) 0.18638(15)
C10 C 0.33601(12) -0.5706(5) 0.20406(17)
C11 C 0.34873(12) -0.5598(5) 0.24418(18)
H6 H 0.368971 -0.585104 0.259495
C12 C 0.33233(13) -0.5119(5) 0.26286(18)
C13 C 0.30325(14) -0.4720(6) 0.24123(19)
H7 H 0.292258 -0.441098 0.254083
C14 C 0.28920(13) -0.4765(5) 0.19934(18)
C15 C 0.25932(13) -0.4360(6) 0.17525(19)
H8 H 0.247710 -0.400590 0.186835
C16 C 0.30607(12) -0.5293(5) 0.18152(17)
C17 C 0.34721(14) -0.5049(6) 0.30646(18)
C18 C 0.37079(14) -0.5967(6) 0.3296(2)
H9 H 0.377721 -0.671473 0.318048
C19 C 0.38436(16) -0.5794(8) 0.3697(2)
H10 H 0.400427 -0.645547 0.384696
N4 N 0.37709(13) -0.4809(6) 0.38876(17)
C20 C 0.35395(18) -0.3930(8) 0.3670(2)
H11 H 0.347707 -0.321354 0.380045
C21 C 0.33835(16) -0.3989(7) 0.3266(2)
H12 H 0.321997 -0.333028 0.312655
C22 C 0.35571(12) -0.7019(5) 0.13025(16)
C23 C 0.34309(12) -0.7549(5) 0.09180(17)
H13 H 0.322694 -0.738852 0.074821
C24 C 0.36042(12) -0.8315(5) 0.07835(17)
H14 H 0.351564 -0.866168 0.052076
C25 C 0.39009(12) -0.8583(5) 0.10215(16)
C26 C 0.40255(13) -0.8041(6) 0.14003(18)
H15 H 0.422935 -0.820546 0.157021
C27 C 0.38550(12) -0.7259(5) 0.15348(17)
H16 H 0.394654 -0.687796 0.179449
C28 C 0.40953(12) -0.9408(5) 0.08872(17)
N5 N 0.40018(9) -0.9403(4) 0.05002(14)
C29 C 0.42007(12) -0.9953(5) 0.03859(17)
C30 C 0.41419(12) -0.9905(5) 0.00003(18)
H17 H 0.395726 -0.951948 -0.019090
C31 C 0.43512(12) -1.0417(5) -0.01173(17)
C32 C 0.46221(13) -1.0988(5) 0.01650(17)
H18 H 0.476380 -1.131538 0.008796
C33 C 0.46897(11) -1.1088(5) 0.05575(17)
C34 C 0.49542(12) -1.1751(6) 0.08530(18)
H19 H 0.509805 -1.212861 0.078572
C35 C 0.50052(11) -1.1854(5) 0.12335(18)
C36 C 0.48020(12) -1.1251(5) 0.13443(17)
H20 H 0.484214 -1.129053 0.160953
C37 C 0.45409(12) -1.0594(5) 0.10636(17)
N6 N 0.43403(10) -0.9956(4) 0.11729(14)
C38 C 0.44811(11) -1.0554(5) 0.06704(16)
C39 C 0.42772(13) -1.0396(5) -0.05320(18)
C40 C 0.39872(16) -1.0218(8) -0.0826(2)
H21 H 0.383363 -1.010459 -0.075598
C41 C 0.39177(18) -1.0203(9) -0.1221(2)
H22 H 0.371886 -1.002540 -0.141109
N7 N 0.41195(15) -1.0429(7) -0.13422(18)
C42 C 0.43946(19) -1.0633(8) -0.1058(2)
H23 H 0.454120 -1.082727 -0.113683
C43 C 0.44884(14) -1.0591(7) -0.06606(19)
H24 H 0.469166 -1.069206 -0.047908
C44 C 0.52770(13) -1.2647(6) 0.1532(2)
C45 C 0.55300(14) -1.2755(7) 0.1503(2)
H25 H 0.554236 -1.230407 0.128804
C46 C 0.57728(16) -1.3535(9) 0.1791(3)
H26 H 0.594607 -1.358992 0.176145
N8 N 0.57802(15) -1.4200(11) 0.2101(3)
C47 C 0.55276(18) -1.4093(11) 0.2127(3)
H27 H 0.552164 -1.456566 0.234372
C48 C 0.52816(15) -1.3356(8) 0.1865(2)
H28 H 0.511205 -1.331423 0.190312
N9 N 0.39974(10) -1.4955(4) 0.02509(13)
C49 C 0.38768(14) -1.3591(5) 0.03682(18)
H29 H 0.375751 -1.297394 0.013188
H30 H 0.404490 -1.294978 0.054781
C50 C 0.36894(17) -1.3950(7) 0.0563(2)
H31 H 0.381054 -1.448971 0.081274
H32 H 0.352591 -1.463759 0.039355
C51 C 0.3563(2) -1.2495(7) 0.0643(3)
H33 H 0.372890 -1.189244 0.084061
H34 H 0.347419 -1.188389 0.039939
C52 C 0.3345(3) -1.2662(11) 0.0775(4)
H35 H 0.314964 -1.240101 0.056223
H36 H 0.339247 -1.197486 0.099657
H37 H 0.334353 -1.372177 0.085662
C53 C 0.37601(12) -1.6096(5) 0.00190(16)
H38 H 0.368099 -1.650945 0.018900
H39 H 0.385148 -1.695748 -0.005098
C54 C 0.35006(12) -1.5490(6) -0.03566(18)
H40 H 0.340406 -1.462771 -0.029508
H41 H 0.357206 -1.511774 -0.053853
C55 C 0.32821(14) -1.6791(7) -0.05431(19)
H42 H 0.337755 -1.761123 -0.062014
H43 H 0.322923 -1.722282 -0.034797
C56 C 0.30055(17) -1.6290(9) -0.0896(2)
H44 H 0.290149 -1.553719 -0.081748
H45 H 0.287766 -1.717808 -0.101327
H46 H 0.305680 -1.582735 -0.108610
C57 C 0.41418(13) -1.4353(6) 0.00163(16)
H47 H 0.429447 -1.359876 0.017769
H48 H 0.399108 -1.380453 -0.021446
C58 C 0.42848(13) -1.5561(5) -0.01235(17)
H49 H 0.440775 -1.625172 0.009521
H50 H 0.413010 -1.618240 -0.033293
C59 C 0.44753(14) -1.4789(6) -0.02770(18)
H51 H 0.435541 -1.403087 -0.047931
H52 H 0.463910 -1.423644 -0.006132
C60 C 0.46006(17) -1.5952(7) -0.0450(2)
H53 H 0.467123 -1.684737 -0.027847
H54 H 0.476502 -1.549330 -0.047563
H55 H 0.444643 -1.626753 -0.070802
C61 C 0.42223(12) -1.5815(5) 0.06112(16)
H56 H 0.412207 -1.614532 0.076340
H57 H 0.428066 -1.675172 0.052120
C62 C 0.45009(15) -1.4970(6) 0.08847(19)
H58 H 0.445391 -1.416011 0.102539
H59 H 0.458974 -1.448241 0.073416
C63 C 0.47185(15) -1.6118(8) 0.1177(2)
H60 H 0.485749 -1.555922 0.141479
H61 H 0.460746 -1.684911 0.125414
C64 C 0.48938(16) -1.7009(8) 0.1021(2)
H62 H 0.475805 -1.752052 0.077714
H63 H 0.501568 -1.777645 0.121312
H64 H 0.502108 -1.630633 0.097051
N10 N 0.36204(17) -0.0838(6) 0.2100(2)
C65 C 0.3496(2) -0.1249(7) 0.2371(2)
H65 H 0.365773 -0.165089 0.261704
H66 H 0.334971 -0.207878 0.225037
C66 C 0.3349(2) 0.0075(8) 0.2468(3)
H67 H 0.318004 0.046025 0.222698
H68 H 0.349164 0.092213 0.258753
C67 C 0.3243(2) -0.0502(9) 0.2753(3)
H69 H 0.307990 -0.123796 0.261558
H70 H 0.340659 -0.105756 0.296823
C68 C 0.3140(2) 0.0725(11) 0.2920(3)
H71 H 0.326250 0.163780 0.296279
H72 H 0.315527 0.038357 0.316968
H73 H 0.293408 0.097093 0.273936
C69 C 0.3391(2) -0.0206(8) 0.1710(3)
H74 H 0.348769 -0.005808 0.154310
H75 H 0.333145 0.081682 0.175729
C70 C 0.3112(2) -0.1153(8) 0.1480(3)
H76 H 0.302476 -0.143714 0.165158
H77 H 0.316095 -0.210563 0.138513
C71 C 0.2882(3) -0.0195(10) 0.1123(3)
H78 H 0.281160 0.068227 0.121863
H79 H 0.297765 0.021144 0.097194
C72 C 0.2635(3) -0.1156(12) 0.0876(4)
H80 H 0.270650 -0.218793 0.086658
H81 H 0.253656 -0.072618 0.061185
H82 H 0.249543 -0.120616 0.098176
C73 C 0.3757(2) -0.2294(7) 0.2037(2)
H83 H 0.385710 -0.284652 0.228917
H84 H 0.359593 -0.295891 0.185210
C74 C 0.3975(2) -0.2054(8) 0.1885(3)
H85 H 0.415335 -0.153095 0.208451
H86 H 0.388671 -0.140019 0.164866
C75 C 0.4060(2) -0.3588(8) 0.1785(3)
H87 H 0.410961 -0.430245 0.200559
H88 H 0.388904 -0.401538 0.155307
C76 C 0.4316(2) -0.3472(9) 0.1705(3)
H89 H 0.427842 -0.266861 0.151104
H90 H 0.434431 -0.445232 0.160436
H91 H 0.449417 -0.321908 0.194702
C77 C 0.3846(3) 0.0445(8) 0.2281(4)
H92 H 0.374259 0.137177 0.230055
H93 H 0.392986 0.068638 0.210351
C78 C 0.4106(3) 0.0065(11) 0.2697(4)
H94 H 0.404339 -0.002061 0.290185
H95 H 0.422445 -0.083336 0.269997
C79 C 0.4252(4) 0.1622(14) 0.2698(6)
H96 H 0.411010 0.225665 0.247824
H97 H 0.430008 0.217085 0.294354
C80 C 0.4526(5) 0.142(4) 0.2660(11)
H98 H 0.457343 0.033224 0.267153
H99 H 0.468963 0.196103 0.287433
H100 H 0.449609 0.184710 0.241011
C81 C 0.2569(2) 0.1960(9) 0.1917(3)
H101 H 0.278001 0.225770 0.204167
H102 H 0.247104 0.243264 0.165430
Cl1 Cl 0.24077(6) 0.2672(3) 0.21972(10)
Cl2 Cl 0.25418(6) -0.0064(2) 0.18671(8)
C82 C 0.2753(4) -0.484(4) 0.0288(6)
H103 H 0.282648 -0.378735 0.036828
H104 H 0.282566 -0.547451 0.052679
Cl3 Cl 0.28980(19) -0.5538(19) 0.0003(3)
Cl4 Cl 0.2367(2) -0.482(2) 0.0057(3)
C83? C 0.4413(4) 0.084(2) 0.2887(6)
H105? H 0.454444 0.026892 0.312684
H106? H 0.449763 0.077161 0.270500
C84? C 0.4404(5) 0.242(3) 0.2986(7)
H107? H 0.421300 0.286688 0.280274
H108? H 0.456283 0.298458 0.297005
H109? H 0.442861 0.249016 0.325201
C85? C 0.2670(6) -0.642(5) 0.0266(6)
H110? H 0.281095 -0.572267 0.046801
H111? H 0.265077 -0.734414 0.040034
Cl5? Cl 0.2813(2) -0.6951(12) -0.0035(2)
Cl6? Cl 0.2327(4) -0.552(3) 0.0033(5)
C86? C 0.5104(5) 0.1321(18) 0.2860(6)
H112? H 0.491077 0.121058 0.285728
H113? H 0.526050 0.115188 0.313143
Cl7? Cl 0.5134(3) -0.0043(10) 0.2559(4)
Cl8? Cl 0.5135(3) 0.3153(9) 0.2715(2)
loop_
_geom_bond_atom_site_label_1
_geom_bond_atom_site_label_2
_geom_bond_site_symmetry_1
_geom_bond_site_symmetry_2
N1 C1 1_555 1_555
C1 H1 1_555 1_555
C2 C1 1_555 1_555
H2 C2 1_555 1_555
C3 C2 1_555 1_555
C4 C3 1_555 1_555
H3 C4 1_555 1_555
C5 N1 1_555 1_555
H4 C5 1_555 1_555
C6 C3 1_555 1_555
C7 C6 1_555 1_555
H5 C7 1_555 1_555
C8 C7 1_555 1_555
N2 C8 1_555 1_555
C9 N2 1_555 1_555
N3 C9 1_555 1_555
C10 N3 1_555 1_555
C11 C10 1_555 1_555
H6 C11 1_555 1_555
C12 C11 1_555 1_555
C13 C12 1_555 1_555
H7 C13 1_555 1_555
C14 C13 1_555 1_555
C15 C6 1_555 1_555
H8 C15 1_555 1_555
C16 C8 1_555 1_555
C17 C12 1_555 1_555
C18 C17 1_555 1_555
H9 C18 1_555 1_555
C19 C18 1_555 1_555
H10 C19 1_555 1_555
N4 C19 1_555 1_555
C20 N4 1_555 1_555
H11 C20 1_555 1_555
C21 C17 1_555 1_555
H12 C21 1_555 1_555
C22 C9 1_555 1_555
C23 C22 1_555 1_555
H13 C23 1_555 1_555
C24 C23 1_555 1_555
H14 C24 1_555 1_555
C25 C24 1_555 1_555
C26 C25 1_555 1_555
H15 C26 1_555 1_555
C27 C22 1_555 1_555
H16 C27 1_555 1_555
C28 C25 1_555 1_555
N5 C28 1_555 1_555
C29 N5 1_555 1_555
C30 C29 1_555 1_555
H17 C30 1_555 1_555
C31 C30 1_555 1_555
C32 C31 1_555 1_555
H18 C32 1_555 1_555
C33 C32 1_555 1_555
C34 C33 1_555 1_555
H19 C34 1_555 1_555
C35 C34 1_555 1_555
C36 C35 1_555 1_555
H20 C36 1_555 1_555
C37 C36 1_555 1_555
N6 C28 1_555 1_555
C38 C29 1_555 1_555
C39 C31 1_555 1_555
C40 C39 1_555 1_555
H21 C40 1_555 1_555
C41 C40 1_555 1_555
H22 C41 1_555 1_555
N7 C41 1_555 1_555
C42 N7 1_555 1_555
H23 C42 1_555 1_555
C43 C39 1_555 1_555
H24 C43 1_555 1_555
C44 C35 1_555 1_555
C45 C44 1_555 1_555
H25 C45 1_555 1_555
C46 C45 1_555 1_555
H26 C46 1_555 1_555
N8 C46 1_555 1_555
C47 N8 1_555 1_555
H27 C47 1_555 1_555
C48 C44 1_555 1_555
H28 C48 1_555 1_555
N9 C49 1_555 1_555
C49 H29 1_555 1_555
H30 C49 1_555 1_555
C50 C49 1_555 1_555
H31 C50 1_555 1_555
H32 C50 1_555 1_555
C51 C50 1_555 1_555
H33 C51 1_555 1_555
H34 C51 1_555 1_555
C52 C51 1_555 1_555
H35 C52 1_555 1_555
H36 C52 1_555 1_555
H37 C52 1_555 1_555
C53 N9 1_555 1_555
H38 C53 1_555 1_555
H39 C53 1_555 1_555
C54 C53 1_555 1_555
H40 C54 1_555 1_555
H41 C54 1_555 1_555
C55 C54 1_555 1_555
H42 C55 1_555 1_555
H43 C55 1_555 1_555
C56 C55 1_555 1_555
H44 C56 1_555 1_555
H45 C56 1_555 1_555
H46 C56 1_555 1_555
C57 N9 1_555 1_555
H47 C57 1_555 1_555
H48 C57 1_555 1_555
C58 C57 1_555 1_555
H49 C58 1_555 1_555
H50 C58 1_555 1_555
C59 C58 1_555 1_555
H51 C59 1_555 1_555
H52 C59 1_555 1_555
C60 C59 1_555 1_555
H53 C60 1_555 1_555
H54 C60 1_555 1_555
H55 C60 1_555 1_555
C61 N9 1_555 1_555
H56 C61 1_555 1_555
H57 C61 1_555 1_555
C62 C61 1_555 1_555
H58 C62 1_555 1_555
H59 C62 1_555 1_555
C63 C62 1_555 1_555
H60 C63 1_555 1_555
H61 C63 1_555 1_555
C64 C63 1_555 1_555
H62 C64 1_555 1_555
H63 C64 1_555 1_555
H64 C64 1_555 1_555
N10 C65 1_555 1_555
C65 H65 1_555 1_555
H66 C65 1_555 1_555
C66 C65 1_555 1_555
H67 C66 1_555 1_555
H68 C66 1_555 1_555
C67 C66 1_555 1_555
H69 C67 1_555 1_555
H70 C67 1_555 1_555
C68 C67 1_555 1_555
H71 C68 1_555 1_555
H72 C68 1_555 1_555
H73 C68 1_555 1_555
C69 N10 1_555 1_555
H74 C69 1_555 1_555
H75 C69 1_555 1_555
C70 C69 1_555 1_555
H76 C70 1_555 1_555
H77 C70 1_555 1_555
C71 C70 1_555 1_555
H78 C71 1_555 1_555
H79 C71 1_555 1_555
C72 C71 1_555 1_555
H80 C72 1_555 1_555
H81 C72 1_555 1_555
H82 C72 1_555 1_555
C73 N10 1_555 1_555
H83 C73 1_555 1_555
H84 C73 1_555 1_555
C74 C73 1_555 1_555
H85 C74 1_555 1_555
H86 C74 1_555 1_555
C75 C74 1_555 1_555
H87 C75 1_555 1_555
H88 C75 1_555 1_555
C76 C75 1_555 1_555
H89 C76 1_555 1_555
H90 C76 1_555 1_555
H91 C76 1_555 1_555
C77 N10 1_555 1_555
H92 C77 1_555 1_555
H93 C77 1_555 1_555
C78 C77 1_555 1_555
H94 C78 1_555 1_555
H95 C78 1_555 1_555
C79 C78 1_555 1_555
H96 C79 1_555 1_555
H97 C79 1_555 1_555
C80 C79 1_555 1_555
H98 C80 1_555 1_555
H99 C80 1_555 1_555
H100 C80 1_555 1_555
C81 H101 1_555 1_555
H102 C81 1_555 1_555
Cl1 C81 1_555 1_555
Cl2 C81 1_555 1_555
C82 H103 1_555 1_555
H104 C82 1_555 1_555
Cl3 C82 1_555 1_555
Cl4 C82 1_555 1_555
C4 C5 1_555 1_555
C10 C16 1_555 1_555
C14 C15 1_555 1_555
C14 C16 1_555 1_555
C20 C21 1_555 1_555
C26 C27 1_555 1_555
C33 C38 1_555 1_555
C37 N6 1_555 1_555
C37 C38 1_555 1_555
C42 C43 1_555 1_555
C47 C48 1_555 1_555

#END
