
#######################################################################
#
#                 Cambridge Crystallographic Data Centre
#                                CCDC 
#
#######################################################################
#
# If this CIF has been generated from an entry in the Cambridge 
# Structural Database, then it will include bibliographic, chemical, 
# crystal, experimental, refinement or atomic coordinate data resulting 
# from the CCDC's data processing and validation procedures.
#
#######################################################################

data_RILDIC
_chemical_formula_moiety         'C19 H18 N2 O5 S1'
_chemical_name_systematic        
'ethyl 5-(4-{[(4-methylphenyl)sulfonyl]oxy}phenyl)-1H-pyrazole-1-carboxylate'
_symmetry_cell_setting           monoclinic
_symmetry_space_group_name_H-M   'P 21/n'
_symmetry_Int_Tables_number      14
_space_group_name_Hall           '-P 2yn'
loop_
_symmetry_equiv_pos_site_id
_symmetry_equiv_pos_as_xyz
1 x,y,z
2 1/2-x,1/2+y,1/2-z
3 -x,-y,-z
4 1/2+x,1/2-y,1/2+z
_cell_length_a                   11.23(2)
_cell_length_b                   14.69(3)
_cell_length_c                   11.35(2)
_cell_angle_alpha                90
_cell_angle_beta                 103.32(2)
_cell_angle_gamma                90
_cell_volume                     1822.02
_exptl_crystal_colour            colorless
_exptl_crystal_description       block
_cell_formula_units_Z            4
loop_
_atom_site_label
_atom_site_type_symbol
_atom_site_fract_x
_atom_site_fract_y
_atom_site_fract_z
C1 C 0.9507(2) 0.43418(18) 0.6285(2)
C2 C 0.8268(2) 0.42967(17) 0.6142(2)
H1 H 0.7889 0.4700 0.6571
C3 C 0.75657(19) 0.36754(15) 0.5386(2)
H2 H 0.6724 0.3658 0.5309
C4 C 0.81128(16) 0.30802(13) 0.47450(17)
C5 C 0.93598(19) 0.31178(18) 0.4859(2)
H3 H 0.9741 0.2720 0.4425
C6 C 1.0037(2) 0.3754(2) 0.5629(2)
H4 H 1.0878 0.3782 0.5701
C7 C 1.0276(3) 0.4997(2) 0.7148(3)
H5 H 0.9832 0.5554 0.7159
H6 H 1.1018 0.5120 0.6892
H7 H 1.0472 0.4737 0.7945
C8 C 0.58279(15) 0.33620(11) 0.23423(15)
C9 C 0.61305(16) 0.41737(12) 0.18981(16)
H8 H 0.6925 0.4281 0.1820
C10 C 0.52469(15) 0.48256(11) 0.15701(16)
H9 H 0.5444 0.5378 0.1263
C11 C 0.40641(15) 0.46749(11) 0.16879(15)
C12 C 0.37831(15) 0.38457(11) 0.21315(16)
H10 H 0.2990 0.3734 0.2209
C13 C 0.46617(16) 0.31850(11) 0.24590(17)
H11 H 0.4469 0.2627 0.2755
C14 C 0.30685(15) 0.53274(11) 0.12545(16)
C15 C 0.19556(17) 0.51682(13) 0.05051(19)
H12 H 0.1647 0.4608 0.0194
C16 C 0.13728(19) 0.60014(15) 0.0296(2)
H13 H 0.0592 0.6079 -0.0191
C17 C 0.39288(17) 0.68053(12) 0.22705(19)
C18 C 0.56598(18) 0.67851(15) 0.3908(2)
H14 H 0.5310 0.7182 0.4423
H15 H 0.6137 0.7152 0.3475
C19 C 0.6439(2) 0.60885(19) 0.4642(2)
H16 H 0.5954 0.5726 0.5058
H17 H 0.7083 0.6380 0.5222
H18 H 0.6787 0.5705 0.4124
N1 N 0.30995(14) 0.62539(10) 0.14554(15)
N2 N 0.20337(16) 0.66639(11) 0.08539(18)
O1 O 0.80151(15) 0.15510(10) 0.36217(16)
O2 O 0.62307(13) 0.20290(9) 0.43601(14)
O3 O 0.67551(12) 0.26909(9) 0.25613(12)
O4 O 0.39036(15) 0.76061(9) 0.22255(16)
O5 O 0.46912(11) 0.63026(8) 0.30558(12)
S1 S 0.72413(5) 0.22446(3) 0.38607(5)
loop_
_geom_bond_atom_site_label_1
_geom_bond_atom_site_label_2
_geom_bond_site_symmetry_1
_geom_bond_site_symmetry_2
C1 C2 1_555 1_555
C2 H1 1_555 1_555
C3 C2 1_555 1_555
H2 C3 1_555 1_555
C4 C3 1_555 1_555
C5 C4 1_555 1_555
H3 C5 1_555 1_555
C6 C1 1_555 1_555
H4 C6 1_555 1_555
C7 C1 1_555 1_555
H5 C7 1_555 1_555
H6 C7 1_555 1_555
H7 C7 1_555 1_555
C8 C9 1_555 1_555
C9 H8 1_555 1_555
C10 C9 1_555 1_555
H9 C10 1_555 1_555
C11 C10 1_555 1_555
C12 C11 1_555 1_555
H10 C12 1_555 1_555
C13 C8 1_555 1_555
H11 C13 1_555 1_555
C14 C11 1_555 1_555
C15 C14 1_555 1_555
H12 C15 1_555 1_555
C16 C15 1_555 1_555
H13 C16 1_555 1_555
C17 N1 1_555 1_555
C18 H14 1_555 1_555
H15 C18 1_555 1_555
C19 C18 1_555 1_555
H16 C19 1_555 1_555
H17 C19 1_555 1_555
H18 C19 1_555 1_555
N1 C14 1_555 1_555
N2 C16 1_555 1_555
O1 S1 1_555 1_555
O2 S1 1_555 1_555
O3 C8 1_555 1_555
O4 C17 1_555 1_555
O5 C17 1_555 1_555
S1 C4 1_555 1_555
C5 C6 1_555 1_555
C12 C13 1_555 1_555
C18 O5 1_555 1_555
N1 N2 1_555 1_555
O3 S1 1_555 1_555

#END
