
#######################################################################
#
#                 Cambridge Crystallographic Data Centre
#                                CCDC 
#
#######################################################################
#
# If this CIF has been generated from an entry in the Cambridge 
# Structural Database, then it will include bibliographic, chemical, 
# crystal, experimental, refinement or atomic coordinate data resulting 
# from the CCDC's data processing and validation procedures.
#
#######################################################################

data_RILNUV
_chemical_formula_moiety         'C112 H176 Li8 N12 O12 P4,4(C6 H6)'
_chemical_name_systematic        
'bis(Tetra-t-butyl-calix-4-arene)-tetrakis(hexamethylphosphoramide)-octa-lithium benzene solvate'
_symmetry_cell_setting           triclinic
_symmetry_space_group_name_H-M   'P -1'
_symmetry_Int_Tables_number      2
_space_group_name_Hall           '-P 1'
loop_
_symmetry_equiv_pos_site_id
_symmetry_equiv_pos_as_xyz
1 x,y,z
2 -x,-y,-z
_cell_length_a                   15.435(2)
_cell_length_b                   16.891(2)
_cell_length_c                   30.674(3)
_cell_angle_alpha                95.661(4)
_cell_angle_beta                 90.684(2)
_cell_angle_gamma                116.713(4)
_cell_volume                     7094.46
_exptl_crystal_colour            colorless
_cell_formula_units_Z            2
loop_
_atom_site_label
_atom_site_type_symbol
_atom_site_fract_x
_atom_site_fract_y
_atom_site_fract_z
Li1 Li 0.2128(8) 0.0856(7) 0.5362(4)
Li2 Li 0.1448(8) -0.0787(8) 0.5010(4)
Li3 Li -0.0327(9) -0.0813(8) 0.4831(5)
Li4 Li 0.1513(8) 0.0444(7) 0.4542(4)
O1 O 0.0687(3) -0.0165(3) 0.53447(15)
O2 O 0.2566(3) 0.0294(3) 0.4902(2)
O3 O 0.0700(3) -0.0821(3) 0.4468(2)
O4 O 0.1618(3) 0.1422(3) 0.4952(2)
O5 O 0.2936(4) 0.1222(3) 0.5869(2)
O6 O 0.1709(4) -0.1616(3) 0.5248(2)
P1 P 0.35877(15) 0.15134(13) 0.62692(7)
P2 P 0.18994(15) -0.23976(14) 0.52706(8)
N1 N 0.3369(5) 0.0802(4) 0.6627(2)
N2 N 0.3544(6) 0.2358(5) 0.6559(2)
N3 N 0.4718(5) 0.1809(7) 0.6126(3)
N4 N 0.1455(6) -0.2855(5) 0.5719(3)
N5 N 0.3053(6) -0.2089(6) 0.5230(3)
N6 N 0.1365(6) -0.3257(5) 0.4894(3)
C1 C 0.3759(8) 0.0125(7) 0.6529(4)
H1 H 0.3698(51) -0.0197(35) 0.6785(10)
H2 H 0.4444(17) 0.0436(8) 0.6465(24)
H3 H 0.3385(37) -0.0299(31) 0.6275(16)
C2 C 0.2434(7) 0.0394(7) 0.6800(3)
H4 H 0.2469(14) 0.0104(42) 0.7056(15)
H5 H 0.1967(13) -0.0052(35) 0.6575(8)
H6 H 0.2222(24) 0.0851(10) 0.6887(22)
C3 C 0.3760(13) 0.2613(8) 0.7037(4)
H7 H 0.3319(56) 0.2843(74) 0.7155(7)
H8 H 0.4433(27) 0.3076(57) 0.7094(4)
H9 H 0.3671(85) 0.2089(19) 0.7179(6)
C4 C 0.3433(7) 0.3031(6) 0.6344(3)
H10 H 0.4021(20) 0.3600(12) 0.6406(18)
H11 H 0.2873(30) 0.3099(32) 0.6453(16)
H12 H 0.3329(49) 0.2852(22) 0.6026(4)
C5 C 0.5532(9) 0.2312(10) 0.6450(5)
H13 H 0.6091(28) 0.2728(57) 0.6306(8)
H14 H 0.5707(56) 0.1898(12) 0.6586(28)
H15 H 0.5344(30) 0.2647(62) 0.6677(21)
C6 C 0.4929(8) 0.1463(8) 0.5723(3)
H16 H 0.5398(42) 0.1956(9) 0.5575(12)
H17 H 0.4330(12) 0.1135(43) 0.5534(10)
H18 H 0.5206(51) 0.1060(40) 0.5780(4)
C7 C 0.1457(10) -0.3679(8) 0.5838(5)
H19 H 0.0932(46) -0.3965(35) 0.6032(26)
H20 H 0.2083(28) -0.3532(10) 0.5989(28)
H21 H 0.1358(71) -0.4088(27) 0.5571(6)
C8 C 0.1434(7) -0.2298(7) 0.6099(3)
H22 H 0.0879(29) -0.2641(14) 0.6267(12)
H23 H 0.1370(50) -0.1786(24) 0.6006(3)
H24 H 0.2037(22) -0.2085(37) 0.6282(12)
C9 C 0.3783(7) -0.1162(7) 0.5293(3)
H25 H 0.4308(26) -0.1078(12) 0.5097(17)
H26 H 0.4047(37) -0.1003(15) 0.5598(7)
H27 H 0.3487(13) -0.0779(8) 0.5225(23)
C10 C 0.3462(8) -0.2713(9) 0.5251(4)
H28 H 0.4010(43) -0.2551(38) 0.5062(24)
H29 H 0.2963(21) -0.3319(12) 0.5150(28)
H30 H 0.3687(60) -0.2687(45) 0.5554(7)
C11 C 0.0306(9) -0.3769(9) 0.4876(6)
H31 H 0.0095(13) -0.4281(53) 0.4650(32)
H32 H 0.0010(9) -0.3388(29) 0.4805(44)
H33 H 0.0104(12) -0.3980(77) 0.5162(15)
C12 C 0.1735(12) -0.3196(8) 0.4453(4)
H34 H 0.1557(63) -0.3796(8) 0.4309(13)
H35 H 0.2444(13) -0.2846(56) 0.4477(4)
H36 H 0.1451(56) -0.2903(60) 0.4280(11)
C13 C 0.0909(5) 0.1195(5) 0.6090(3)
H37 H 0.1121(5) 0.1338(5) 0.5792(3)
H38 H 0.1488(5) 0.1491(5) 0.6299(3)
C14 C 0.2389(5) -0.1038(4) 0.4181(3)
H39 H 0.2765(5) -0.1343(4) 0.4059(3)
H40 H 0.2267(5) -0.1172(4) 0.4488(3)
C15 C -0.0446(5) -0.2106(5) 0.5408(2)
H41 H -0.0181(5) -0.1846(5) 0.5135(2)
H42 H -0.0154(5) -0.2498(5) 0.5476(2)
C16 C 0.3725(5) 0.2224(5) 0.4889(2)
H43 H 0.3515(5) 0.1943(5) 0.5163(2)
H44 H 0.4413(5) 0.2678(5) 0.4942(2)
C17 C 0.0330(5) -0.0438(4) 0.5734(2)
C18 C -0.0197(5) -0.1369(4) 0.5782(2)
C19 C -0.0562(6) -0.1626(5) 0.6184(3)
H45 H -0.0894(6) -0.2246(5) 0.6211(3)
C20 C -0.0470(6) -0.1031(6) 0.6548(3)
C21 C 0.0043(5) -0.0125(5) 0.6493(2)
H46 H 0.0123(5) 0.0304(5) 0.6735(2)
C22 C 0.0441(5) 0.0177(5) 0.6102(2)
C23 C -0.0918(7) -0.1335(6) 0.6986(3)
C24 C -0.1728(11) -0.2285(8) 0.6924(4)
H47 H -0.2023(57) -0.2442(28) 0.7204(9)
H48 H -0.2224(41) -0.2333(19) 0.6706(28)
H49 H -0.1462(17) -0.2695(11) 0.6822(36)
C25 C -0.0115(11) -0.1293(16) 0.7298(5)
H50 H -0.0405(14) -0.162(12) 0.7547(34)
H51 H 0.0254(93) -0.156(12) 0.7142(19)
H52 H 0.0322(83) -0.0669(18) 0.7404(51)
C26 C -0.1313(11) -0.0747(9) 0.7194(5)
H53 H -0.1627(80) -0.0983(46) 0.7461(22)
H54 H -0.0782(17) -0.0144(22) 0.7272(37)
H55 H -0.1790(66) -0.0724(65) 0.6989(15)
C27 C 0.3073(5) 0.0585(4) 0.4551(2)
C28 C 0.3644(5) 0.1508(4) 0.4517(2)
C29 C 0.4127(5) 0.1790(5) 0.4137(2)
H56 H 0.4507(5) 0.2411(5) 0.4124(2)
C30 C 0.4073(5) 0.1195(5) 0.3776(2)
C31 C 0.3506(5) 0.0289(5) 0.3810(2)
H57 H 0.3456(5) -0.0131(5) 0.3569(2)
C32 C 0.3007(5) -0.0028(5) 0.4184(2)
C33 C 0.4658(6) 0.1543(5) 0.3369(3)
C34 C 0.5744(7) 0.1925(8) 0.3497(4)
C35 C 0.4392(9) 0.0803(8) 0.2989(3)
C36 C 0.4481(10) 0.2318(8) 0.3220(4)
C37 C 0.0654(5) -0.1253(4) 0.4066(2)
C38 C 0.1423(5) -0.1417(4) 0.3919(2)
C39 C 0.1302(6) -0.1894(5) 0.3499(3)
H58 H 0.1818(6) -0.2011(5) 0.3399(3)
C40 C 0.0476(6) -0.2196(5) 0.3229(3)
C41 C -0.0246(6) -0.1995(5) 0.3374(3)
H59 H -0.0813(6) -0.2175(5) 0.3186(3)
C42 C 0.0184(5) 0.1534(5) 0.6212(3)
C43 C 0.0397(8) -0.2689(9) 0.2763(4)
C44 C 0.1028(14) -0.2039(17) 0.2470(5)
H60 H 0.084(15) -0.156(11) 0.2462(80)
H61 H 0.096(17) -0.2344(48) 0.2173(25)
H62 H 0.1708(25) -0.179(15) 0.2583(57)
C45 C 0.0733(16) -0.3406(16) 0.2796(6)
H63 H 0.076(22) -0.367(14) 0.2500(7)
H64 H 0.027(12) -0.387(10) 0.2960(87)
H65 H 0.1380(94) -0.3137(41) 0.2948(89)
C46 C -0.0631(8) -0.3173(8) 0.2562(3)
H66 H -0.0869(23) -0.2738(8) 0.2511(25)
H67 H -0.1049(14) -0.3581(41) 0.2762(13)
H68 H -0.0645(12) -0.3513(46) 0.2282(14)
C47 C 0.2090(5) 0.2249(4) 0.4805(2)
C48 C -0.1548(5) -0.2649(5) 0.5343(2)
C49 C -0.2011(5) -0.3490(4) 0.5493(3)
H69 H -0.1631(5) -0.3764(4) 0.5583(3)
C50 C -0.3012(6) -0.3930(5) 0.5513(3)
C51 C -0.3551(5) -0.3512(5) 0.5379(3)
H70 H -0.4237(5) -0.3799(5) 0.5397(3)
C52 C 0.3110(5) 0.2677(4) 0.4781(2)
C53 C -0.3511(6) -0.4841(5) 0.5710(3)
C54 C -0.4371(10) -0.5489(7) 0.5423(5)
C55 C -0.3820(11) -0.4637(9) 0.6177(4)
C56 C -0.2770(11) -0.5220(10) 0.5794(6)
Li3A Li 0.0327(9) 0.0813(8) 0.5169(5)
O1A O -0.0687(3) 0.0165(3) 0.46553(15)
Li1A Li -0.2128(8) -0.0856(7) 0.4638(4)
O2A O -0.2566(3) -0.0294(3) 0.5098(2)
Li2A Li -0.1448(8) 0.0787(8) 0.4990(4)
O3A O -0.0700(3) 0.0821(3) 0.5532(2)
O6A O -0.1709(4) 0.1616(3) 0.4752(2)
P2A P -0.18994(15) 0.23976(14) 0.47294(8)
N4A N -0.1455(6) 0.2855(5) 0.4281(3)
C7A C -0.1457(10) 0.3679(8) 0.4162(5)
H19A H -0.0932(46) 0.3965(35) 0.3968(26)
H20A H -0.2083(28) 0.3532(10) 0.4011(28)
H21A H -0.1358(71) 0.4088(27) 0.4429(6)
C8A C -0.1434(7) 0.2298(7) 0.3901(3)
H22A H -0.0879(29) 0.2641(14) 0.3733(12)
H23A H -0.1370(50) 0.1786(24) 0.3994(3)
H24A H -0.2037(22) 0.2085(37) 0.3718(12)
N5A N -0.3053(6) 0.2089(6) 0.4770(3)
C9A C -0.3783(7) 0.1162(7) 0.4707(3)
H25A H -0.4308(26) 0.1078(12) 0.4903(17)
H26A H -0.4047(37) 0.1003(15) 0.4402(7)
H27A H -0.3487(13) 0.0779(8) 0.4775(23)
C10A C -0.3462(8) 0.2713(9) 0.4749(4)
H28A H -0.4010(43) 0.2551(38) 0.4938(24)
H29A H -0.2963(21) 0.3319(12) 0.4850(28)
H30A H -0.3687(60) 0.2687(45) 0.4446(7)
N6A N -0.1365(6) 0.3257(5) 0.5106(3)
C11A C -0.0306(9) 0.3769(9) 0.5124(6)
H31A H -0.0095(13) 0.4281(53) 0.5350(32)
H32A H -0.0010(9) 0.3388(29) 0.5195(44)
H33A H -0.0104(12) 0.3980(77) 0.4838(15)
C12A C -0.1735(12) 0.3196(8) 0.5547(4)
H34A H -0.1557(63) 0.3796(8) 0.5691(13)
H35A H -0.2444(13) 0.2846(56) 0.5523(4)
H36A H -0.1451(56) 0.2903(60) 0.5720(11)
Li4A Li -0.1513(8) -0.0444(7) 0.5458(4)
C27A C -0.3073(5) -0.0585(4) 0.5449(2)
C28A C -0.3644(5) -0.1508(4) 0.5483(2)
C16A C -0.3725(5) -0.2224(5) 0.5111(2)
H43A H -0.3515(5) -0.1943(5) 0.4837(2)
H44A H -0.4413(5) -0.2678(5) 0.5058(2)
C52A C -0.3110(5) -0.2677(4) 0.5219(2)
C47A C -0.2090(5) -0.2249(4) 0.5195(2)
O4A O -0.1618(3) -0.1422(3) 0.5048(2)
O5A O -0.2936(4) -0.1222(3) 0.4131(2)
P1A P -0.35877(15) -0.15134(13) 0.37308(7)
N1A N -0.3369(5) -0.0802(4) 0.3373(2)
C1A C -0.3759(8) -0.0125(7) 0.3471(4)
H1A H -0.3698(51) 0.0197(35) 0.3215(10)
H2A H -0.4444(17) -0.0436(8) 0.3535(24)
H3A H -0.3385(37) 0.0299(31) 0.3725(16)
C2A C -0.2434(7) -0.0394(7) 0.3200(3)
H4A H -0.2469(14) -0.0104(42) 0.2944(15)
H5A H -0.1967(13) 0.0052(35) 0.3425(8)
H6A H -0.2222(24) -0.0851(10) 0.3113(22)
N2A N -0.3544(6) -0.2358(5) 0.3441(2)
C3A C -0.3760(13) -0.2613(8) 0.2963(4)
H7A H -0.3319(56) -0.2843(74) 0.2845(7)
H8A H -0.4433(27) -0.3076(57) 0.2906(4)
H9A H -0.3671(85) -0.2089(19) 0.2821(6)
C4A C -0.3433(7) -0.3031(6) 0.3656(3)
H10A H -0.4021(20) -0.3600(12) 0.3594(18)
H11A H -0.2873(30) -0.3099(32) 0.3547(16)
H12A H -0.3329(49) -0.2852(22) 0.3974(4)
N3A N -0.4718(5) -0.1809(7) 0.3874(3)
C5A C -0.5532(9) -0.2312(10) 0.3550(5)
H13A H -0.6091(28) -0.2728(57) 0.3694(8)
H14A H -0.5707(56) -0.1898(12) 0.3414(28)
H15A H -0.5344(30) -0.2647(62) 0.3323(21)
C6A C -0.4929(8) -0.1463(8) 0.4277(3)
H16A H -0.5398(42) -0.1956(9) 0.4425(12)
H17A H -0.4330(12) -0.1135(43) 0.4466(10)
H18A H -0.5206(51) -0.1060(40) 0.4220(4)
C48A C 0.1548(5) 0.2649(5) 0.4657(2)
C15A C 0.0446(5) 0.2106(5) 0.4592(2)
H41A H 0.0181(5) 0.1846(5) 0.4865(2)
H42A H 0.0154(5) 0.2498(5) 0.4524(2)
C18A C 0.0197(5) 0.1369(4) 0.4218(2)
C17A C -0.0330(5) 0.0438(4) 0.4266(2)
C22A C -0.0441(5) -0.0177(5) 0.3898(2)
C13A C -0.0909(5) -0.1195(5) 0.3910(3)
H37A H -0.1121(5) -0.1338(5) 0.4208(3)
H38A H -0.1488(5) -0.1491(5) 0.3701(3)
C42A C -0.0184(5) -0.1534(5) 0.3788(3)
C21A C -0.0043(5) 0.0125(5) 0.3507(2)
C20A C 0.0470(6) 0.1031(6) 0.3452(3)
C19A C 0.0562(6) 0.1626(5) 0.3816(3)
H45A H 0.0894(6) 0.2246(5) 0.3789(3)
C23A C 0.0918(7) 0.1335(6) 0.3014(3)
C24A C 0.1728(11) 0.2285(8) 0.3076(4)
H47A H 0.2023(57) 0.2442(28) 0.2796(9)
H48A H 0.2224(41) 0.2333(19) 0.3294(28)
H49A H 0.1462(17) 0.2695(11) 0.3178(36)
C25A C 0.0115(11) 0.1293(16) 0.2702(5)
H50A H 0.0405(14) 0.162(12) 0.2453(34)
H51A H -0.0254(93) 0.156(12) 0.2858(19)
H52A H -0.0322(83) 0.0669(18) 0.2596(51)
C26A C 0.1313(11) 0.0747(9) 0.2806(5)
H53A H 0.1627(80) 0.0983(46) 0.2539(22)
H54A H 0.0782(17) 0.0144(22) 0.2728(37)
H55A H 0.1790(66) 0.0724(65) 0.3011(15)
H46A H -0.0123(5) -0.0304(5) 0.3265(2)
C49A C 0.2011(5) 0.3490(4) 0.4507(3)
H69A H 0.1631(5) 0.3764(4) 0.4417(3)
C50A C 0.3012(6) 0.3930(5) 0.4487(3)
C51A C 0.3551(5) 0.3512(5) 0.4621(3)
H70A H 0.4237(5) 0.3799(5) 0.4603(3)
C53A C 0.3511(6) 0.4841(5) 0.4290(3)
C54A C 0.4371(10) 0.5489(7) 0.4577(5)
C55A C 0.3820(11) 0.4637(9) 0.3823(4)
C56A C 0.2770(11) 0.5220(10) 0.4206(6)
C37A C -0.0654(5) 0.1253(4) 0.5934(2)
C38A C -0.1423(5) 0.1417(4) 0.6081(2)
C14A C -0.2389(5) 0.1038(4) 0.5819(3)
H39A H -0.2765(5) 0.1343(4) 0.5941(3)
H40A H -0.2267(5) 0.1172(4) 0.5512(3)
C32A C -0.3007(5) 0.0028(5) 0.5816(2)
C31A C -0.3506(5) -0.0289(5) 0.6190(2)
C30A C -0.4073(5) -0.1195(5) 0.6224(2)
C29A C -0.4127(5) -0.1790(5) 0.5863(2)
H56A H -0.4507(5) -0.2411(5) 0.5876(2)
C33A C -0.4658(6) -0.1543(5) 0.6631(3)
C34A C -0.5744(7) -0.1925(8) 0.6503(4)
C35A C -0.4392(9) -0.0803(8) 0.7011(3)
C36A C -0.4481(10) -0.2318(8) 0.6780(4)
H57A H -0.3456(5) 0.0131(5) 0.6431(2)
C39A C -0.1302(6) 0.1894(5) 0.6501(3)
H58A H -0.1818(6) 0.2011(5) 0.6601(3)
C40A C -0.0476(6) 0.2196(5) 0.6771(3)
C41A C 0.0246(6) 0.1995(5) 0.6626(3)
H59A H 0.0813(6) 0.2175(5) 0.6814(3)
C43A C -0.0397(8) 0.2689(9) 0.7237(4)
C44A C -0.1028(14) 0.2039(17) 0.7530(5)
H60A H -0.084(15) 0.156(11) 0.7538(80)
H61A H -0.096(17) 0.2344(48) 0.7827(25)
H62A H -0.1708(25) 0.179(15) 0.7417(57)
C45A C -0.0733(16) 0.3406(16) 0.7204(6)
H63A H -0.076(22) 0.367(14) 0.7500(7)
H64A H -0.027(12) 0.387(10) 0.7040(87)
H65A H -0.1380(94) 0.3137(41) 0.7052(89)
C46A C 0.0631(8) 0.3173(8) 0.7438(3)
H66A H 0.0869(23) 0.2738(8) 0.7489(25)
H67A H 0.1049(14) 0.3581(41) 0.7238(13)
H68A H 0.0645(12) 0.3513(46) 0.7718(14)
Li5 Li 0.3734(9) 0.0848(8) 0.0352(4)
Li6 Li 0.2798(9) -0.0766(8) -0.0013(4)
Li7 Li 0.3922(9) 0.0459(8) -0.0460(4)
Li8 Li 0.4541(8) -0.0787(7) -0.0171(4)
O7 O 0.4154(3) -0.0174(3) 0.0337(2)
O8 O 0.3483(3) -0.0806(3) -0.0542(2)
O9 O 0.4794(3) 0.1432(3) -0.0039(2)
O10 O 0.2728(3) 0.0304(3) -0.0105(2)
O11 O 0.3284(4) 0.1211(4) 0.0870(2)
O12 O 0.1692(4) -0.1618(3) 0.0241(2)
P3 P 0.2931(2) 0.14903(14) 0.12689(7)
P4 P 0.07203(15) -0.23614(14) 0.02610(8)
N7 N 0.2481(6) 0.0793(5) 0.1640(2)
N8 N 0.3825(7) 0.2339(5) 0.1560(3)
N9 N 0.2110(8) 0.1772(9) 0.1134(3)
N10 N -0.0088(6) -0.2011(6) 0.0247(3)
N11 N 0.0703(6) -0.2839(5) 0.0702(3)
N12 N 0.0334(6) -0.3211(6) -0.0132(3)
C57 C 0.3008(10) 0.0417(10) 0.1826(5)
H71 H 0.2715(51) 0.0175(70) 0.2095(21)
H72 H 0.3680(24) 0.0875(19) 0.1897(34)
H73 H 0.3003(70) -0.0064(51) 0.1618(15)
C58 C 0.1398(8) 0.0135(8) 0.1538(5)
H74 H 0.1125(19) -0.0149(46) 0.1801(10)
H75 H 0.1335(9) -0.0323(37) 0.1300(21)
H76 H 0.1047(15) 0.0458(13) 0.1449(30)
C59 C 0.4617(8) 0.2993(6) 0.1344(4)
H77 H 0.5239(8) 0.3086(38) 0.1480(17)
H78 H 0.4577(33) 0.3559(16) 0.1374(22)
H79 H 0.4572(33) 0.2778(23) 0.1032(6)
C60 C 0.3874(14) 0.2569(11) 0.2043(4)
H80 H 0.4554(16) 0.2857(92) 0.2157(8)
H81 H 0.3512(95) 0.2024(15) 0.2181(6)
H82 H 0.3589(99) 0.2978(80) 0.2108(5)
C61 C 0.1820(14) 0.2340(13) 0.1467(6)
H83 H 0.158(11) 0.2689(83) 0.1311(7)
H84 H 0.2387(31) 0.2744(77) 0.1663(35)
H85 H 0.1306(83) 0.1947(14) 0.1641(36)
C62 C 0.1559(8) 0.1500(9) 0.0721(4)
H86 H 0.0866(9) 0.1172(48) 0.0769(4)
H87 H 0.1759(43) 0.1113(45) 0.0535(11)
H88 H 0.1674(47) 0.2027(9) 0.0576(13)
C63 C -0.1126(9) -0.2577(12) 0.0283(6)
H89 H -0.1503(9) -0.2333(54) 0.0136(40)
H90 H -0.1267(20) -0.2595(75) 0.0594(6)
H91 H -0.1302(22) -0.3183(27) 0.0145(40)
C64 C 0.0154(9) -0.1067(8) 0.0288(4)
H92 H -0.0244(47) -0.0967(12) 0.0071(20)
H93 H 0.0843(18) -0.0717(9) 0.0238(29)
H94 H 0.0027(61) -0.0883(16) 0.0584(10)
C65 C -0.0120(11) -0.3661(11) 0.0818(7)
H95 H 0.0099(33) -0.3894(64) 0.1054(39)
H96 H -0.0359(79) -0.4110(40) 0.0560(16)
H97 H -0.0643(51) -0.3524(24) 0.0917(52)
C66 C 0.1310(8) -0.2297(8) 0.1093(4)
H98 H 0.1567(47) -0.2644(20) 0.1240(15)
H99 H 0.0919(16) -0.2125(45) 0.1294(12)
H100 H 0.1851(33) -0.1759(27) 0.1008(4)
C67 C 0.0868(12) -0.3752(10) -0.0148(7)
H101 H 0.0403(13) -0.4386(12) -0.0170(63)
H102 H 0.129(10) -0.3589(89) 0.0120(28)
H103 H 0.126(10) -0.3639(93) -0.0404(34)
C68 C -0.0051(10) -0.3139(7) -0.0550(4)
H104 H -0.0587(51) -0.3717(19) -0.0665(17)
H105 H 0.0462(23) -0.2960(67) -0.0758(11)
H106 H -0.0291(68) -0.2690(50) -0.0511(7)
C69 C 0.3481(5) 0.2219(4) -0.0109(2)
H107 H 0.3240(5) 0.2671(4) -0.0059(2)
H108 H 0.3412(5) 0.1928(4) 0.0162(2)
C70 C 0.5260(5) 0.1142(5) 0.1104(2)
H109 H 0.4974(5) 0.1428(5) 0.1314(2)
H110 H 0.5192(5) 0.1301(5) 0.0808(2)
C71 C 0.3356(5) -0.2120(4) 0.0381(3)
H111 H 0.3361(5) -0.1847(4) 0.0109(3)
H112 H 0.2672(5) -0.2511(4) 0.0437(3)
C72 C 0.1589(5) -0.1015(5) -0.0840(3)
H113 H 0.0909(5) -0.1318(5) -0.0964(3)
H114 H 0.1590(5) -0.1156(5) -0.0534(3)
C73 C 0.4221(5) -0.0472(5) 0.0727(2)
C74 C 0.3835(5) -0.1392(4) 0.0766(2)
C75 C 0.3931(5) -0.1671(5) 0.1166(3)
H115 H 0.3642(5) -0.2294(5) 0.1188(3)
C76 C 0.4430(6) -0.1084(5) 0.1540(3)
C77 C 0.4801(5) -0.0197(5) 0.1494(2)
H116 H 0.5125(5) 0.0218(5) 0.1745(2)
C78 C 0.4739(5) 0.0144(5) 0.1103(2)
C79 C 0.4550(7) -0.1420(6) 0.1975(3)
C80 C 0.3677(13) -0.1491(13) 0.2242(4)
H117 H 0.3730(60) -0.0894(15) 0.2322(44)
H118 H 0.3069(13) -0.1861(85) 0.2065(20)
H119 H 0.3678(68) -0.1763(99) 0.2510(26)
C81 C 0.4539(11) -0.2314(8) 0.1898(4)
H120 H 0.3882(18) -0.2770(12) 0.1798(31)
H121 H 0.4992(53) -0.2300(20) 0.1674(24)
H122 H 0.4737(71) -0.2458(31) 0.2173(9)
C82 C 0.5480(11) -0.0781(8) 0.2233(4)
H123 H 0.5468(35) -0.0210(25) 0.2314(31)
H124 H 0.5545(41) -0.1030(34) 0.2500(18)
H125 H 0.6032(12) -0.0687(56) 0.2054(14)
C83 C 0.3106(5) -0.1223(4) -0.0952(2)
C84 C 0.6311(5) 0.1465(5) 0.1236(2)
C85 C 0.6707(6) 0.1923(5) 0.1655(3)
H126 H 0.6326(6) 0.2112(5) 0.1838(3)
C86 C 0.7630(6) 0.2105(6) 0.1810(3)
C87 C 0.8155(6) 0.1824(5) 0.1530(3)
H127 H 0.8789(6) 0.1936(5) 0.1631(3)
C88 C 0.2189(5) -0.1383(4) -0.1107(2)
C89 C 0.8013(7) 0.2551(8) 0.2289(3)
C90 C 0.7742(17) 0.1823(13) 0.2569(4)
H128 H 0.797(11) 0.2077(13) 0.2874(10)
H129 H 0.7034(18) 0.1467(71) 0.2550(44)
H130 H 0.804(10) 0.1442(68) 0.2470(36)
C91 C 0.9076(10) 0.3110(18) 0.2321(6)
H131 H 0.9264(28) 0.354(14) 0.2586(53)
H132 H 0.9401(10) 0.2731(30) 0.234(10)
H133 H 0.9268(28) 0.343(15) 0.2062(49)
C92 C 0.7538(9) 0.3122(8) 0.2457(3)
H134 H 0.7806(48) 0.3401(48) 0.2755(12)
H135 H 0.7665(53) 0.3587(36) 0.2264(17)
H136 H 0.6836(13) 0.2750(12) 0.2461(27)
C93 C 0.5135(5) 0.2245(4) -0.0180(2)
C94 C 0.4547(5) 0.2675(4) -0.0207(2)
C95 C 0.4930(5) 0.3522(5) -0.0360(3)
H137 H 0.4528(5) 0.3811(5) -0.0377(3)
C96 C 0.5880(6) 0.3946(5) -0.0486(3)
C97 C 0.6444(5) 0.3501(5) -0.0466(3)
H138 H 0.7095(5) 0.3781(5) -0.0550(3)
C98 C 0.3912(5) -0.2659(5) 0.0327(3)
C99 C 0.6289(7) 0.4860(5) -0.0664(3)
C100 C 0.7078(11) 0.5587(10) -0.0283(5)
C101 C 0.5472(10) 0.5234(9) -0.0659(5)
C102 C 0.6681(11) 0.4872(10) -0.1082(5)
C103 C 0.2517(5) 0.0598(4) -0.0462(2)
C104 C 0.1971(5) -0.0010(4) -0.0834(2)
C105 C 0.1792(5) 0.0312(5) -0.1207(2)
H139 H 0.1427(5) -0.0103(5) -0.1451(2)
C106 C 0.2123(5) 0.1215(5) -0.1237(3)
C107 C 0.2681(5) 0.1810(5) -0.0869(2)
H140 H 0.2939(5) 0.2434(5) -0.0883(2)
C108 C 0.2866(5) 0.1517(4) -0.0489(2)
C109 C 0.1896(6) 0.1563(5) -0.1649(3)
C110 C 0.1054(11) 0.1718(16) -0.1578(6)
H141 H 0.1099(88) 0.220(11) -0.1742(65)
H142 H 0.1034(98) 0.188(16) -0.1264(12)
H143 H 0.0462(15) 0.1173(51) -0.1679(72)
C111 C 0.2717(13) 0.2429(11) -0.1735(5)
H144 H 0.2480(30) 0.2724(58) -0.1931(49)
H145 H 0.3226(58) 0.2317(14) -0.1875(53)
H146 H 0.2984(86) 0.2813(47) -0.1457(9)
C112 C 0.1647(20) 0.0934(11) -0.2040(5)
H147 H 0.149(18) 0.1184(71) -0.2286(19)
H148 H 0.108(11) 0.0376(60) -0.1992(29)
H149 H 0.2200(62) 0.082(13) -0.2107(46)
O7A O 0.5846(3) 0.0174(3) -0.0337(2)
Li5A Li 0.6266(9) -0.0848(8) -0.0352(4)
O9A O 0.5206(3) -0.1432(3) 0.0039(2)
Li7A Li 0.6078(9) -0.0459(8) 0.0460(4)
O8A O 0.6517(3) 0.0806(3) 0.0542(2)
Li6A Li 0.7202(9) 0.0766(8) 0.0013(4)
Li8A Li 0.5459(8) 0.0787(7) 0.0171(4)
C93A C 0.4865(5) -0.2245(4) 0.0180(2)
C94A C 0.5453(5) -0.2675(4) 0.0207(2)
C69A C 0.6519(5) -0.2219(4) 0.0109(2)
H107A H 0.6760(5) -0.2671(4) 0.0059(2)
H108A H 0.6588(5) -0.1928(4) -0.0162(2)
C108A C 0.7134(5) -0.1517(4) 0.0489(2)
C103A C 0.7483(5) -0.0598(4) 0.0462(2)
O10A O 0.7272(3) -0.0304(3) 0.0105(2)
O11A O 0.6716(4) -0.1211(4) -0.0870(2)
P3A P 0.7069(2) -0.14903(14) -0.12689(7)
N7A N 0.7519(6) -0.0793(5) -0.1640(2)
C57A C 0.6992(10) -0.0417(10) -0.1826(5)
H71A H 0.7285(51) -0.0175(70) -0.2095(21)
H72A H 0.6320(24) -0.0875(19) -0.1897(34)
H73A H 0.6997(70) 0.0064(51) -0.1618(15)
C58A C 0.8602(8) -0.0135(8) -0.1538(5)
H74A H 0.8875(19) 0.0149(46) -0.1801(10)
H75A H 0.8665(9) 0.0323(37) -0.1300(21)
H76A H 0.8953(15) -0.0458(13) -0.1449(30)
N8A N 0.6175(7) -0.2339(5) -0.1560(3)
C59A C 0.5383(8) -0.2993(6) -0.1344(4)
H77A H 0.4761(8) -0.3086(38) -0.1480(17)
H78A H 0.5423(33) -0.3559(16) -0.1374(22)
H79A H 0.5428(33) -0.2778(23) -0.1032(6)
C60A C 0.6126(14) -0.2569(11) -0.2043(4)
H80A H 0.5446(16) -0.2857(92) -0.2157(8)
H81A H 0.6488(95) -0.2024(15) -0.2181(6)
H82A H 0.6411(99) -0.2978(80) -0.2108(5)
N9A N 0.7890(8) -0.1772(9) -0.1134(3)
C61A C 0.8180(14) -0.2340(13) -0.1467(6)
H83A H 0.842(11) -0.2689(83) -0.1311(7)
H84A H 0.7613(31) -0.2744(77) -0.1663(35)
H85A H 0.8694(83) -0.1947(14) -0.1641(36)
C62A C 0.8441(8) -0.1500(9) -0.0721(4)
H86A H 0.9134(9) -0.1172(48) -0.0769(4)
H87A H 0.8241(43) -0.1113(45) -0.0535(11)
H88A H 0.8326(47) -0.2027(9) -0.0576(13)
O12A O 0.8308(4) 0.1618(3) -0.0241(2)
P4A P 0.92797(15) 0.23614(14) -0.02610(8)
N10A N 1.0088(6) 0.2011(6) -0.0247(3)
C63A C 1.1126(9) 0.2577(12) -0.0283(6)
H89A H 1.1503(9) 0.2333(54) -0.0136(40)
H90A H 1.1267(20) 0.2595(75) -0.0594(6)
H91A H 1.1302(22) 0.3183(27) -0.0145(40)
C64A C 0.9846(9) 0.1067(8) -0.0288(4)
H92A H 1.0244(47) 0.0967(12) -0.0071(20)
H93A H 0.9157(18) 0.0717(9) -0.0238(29)
H94A H 0.9973(61) 0.0883(16) -0.0584(10)
N11A N 0.9297(6) 0.2839(5) -0.0702(3)
C65A C 1.0120(11) 0.3661(11) -0.0818(7)
H95A H 0.9901(33) 0.3894(64) -0.1054(39)
H96A H 1.0359(79) 0.4110(40) -0.0560(16)
H97A H 1.0643(51) 0.3524(24) -0.0917(52)
C66A C 0.8690(8) 0.2297(8) -0.1093(4)
H98A H 0.8433(47) 0.2644(20) -0.1240(15)
H99A H 0.9081(16) 0.2125(45) -0.1294(12)
H100A H 0.8149(33) 0.1759(27) -0.1008(4)
N12A N 0.9666(6) 0.3211(6) 0.0132(3)
C67A C 0.9132(12) 0.3752(10) 0.0148(7)
H101A H 0.9597(13) 0.4386(12) 0.0170(63)
H102A H 0.871(10) 0.3589(89) -0.0120(28)
H103A H 0.874(10) 0.3639(93) 0.0404(34)
C68A C 1.0051(10) 0.3139(7) 0.0550(4)
H104A H 1.0587(51) 0.3717(19) 0.0665(17)
H105A H 0.9538(23) 0.2960(67) 0.0758(11)
H106A H 1.0291(68) 0.2690(50) 0.0511(7)
C104A C 0.8029(5) 0.0010(4) 0.0834(2)
C72A C 0.8411(5) 0.1015(5) 0.0840(3)
H113A H 0.9091(5) 0.1318(5) 0.0964(3)
H114A H 0.8410(5) 0.1156(5) 0.0534(3)
C88A C 0.7811(5) 0.1383(4) 0.1107(2)
C83A C 0.6894(5) 0.1223(4) 0.0952(2)
C98A C 0.6088(5) 0.2659(5) -0.0327(3)
C71A C 0.6644(5) 0.2120(4) -0.0381(3)
H111A H 0.6639(5) 0.1847(4) -0.0109(3)
H112A H 0.7328(5) 0.2511(4) -0.0437(3)
C74A C 0.6165(5) 0.1392(4) -0.0766(2)
C73A C 0.5779(5) 0.0472(5) -0.0727(2)
C78A C 0.5261(5) -0.0144(5) -0.1103(2)
C70A C 0.4740(5) -0.1142(5) -0.1104(2)
H109A H 0.5026(5) -0.1428(5) -0.1314(2)
H110A H 0.4808(5) -0.1301(5) -0.0808(2)
C84A C 0.3689(5) -0.1465(5) -0.1236(2)
C85A C 0.3293(6) -0.1923(5) -0.1655(3)
H126A H 0.3674(6) -0.2112(5) -0.1838(3)
C86A C 0.2370(6) -0.2105(6) -0.1810(3)
C87A C 0.1845(6) -0.1824(5) -0.1530(3)
H127A H 0.1211(6) -0.1936(5) -0.1631(3)
C89A C 0.1987(7) -0.2551(8) -0.2289(3)
C90A C 0.2258(17) -0.1823(13) -0.2569(4)
H128A H 0.203(11) -0.2077(13) -0.2874(10)
H129A H 0.2966(18) -0.1467(71) -0.2550(44)
H130A H 0.196(10) -0.1442(68) -0.2470(36)
C91A C 0.0924(10) -0.3110(18) -0.2321(6)
H131A H 0.0736(28) -0.354(14) -0.2586(53)
H132A H 0.0599(10) -0.2731(30) -0.234(10)
H133A H 0.0732(28) -0.343(15) -0.2062(49)
C92A C 0.2462(9) -0.3122(8) -0.2457(3)
H134A H 0.2194(48) -0.3401(48) -0.2755(12)
H135A H 0.2335(53) -0.3587(36) -0.2264(17)
H136A H 0.3164(13) -0.2750(12) -0.2461(27)
C77A C 0.5199(5) 0.0197(5) -0.1494(2)
C76A C 0.5570(6) 0.1084(5) -0.1540(3)
C75A C 0.6069(5) 0.1671(5) -0.1166(3)
H115A H 0.6358(5) 0.2294(5) -0.1188(3)
C79A C 0.5450(7) 0.1420(6) -0.1975(3)
C80A C 0.6323(13) 0.1491(13) -0.2242(4)
H117A H 0.6270(60) 0.0894(15) -0.2322(44)
H118A H 0.6931(13) 0.1861(85) -0.2065(20)
H119A H 0.6322(68) 0.1763(99) -0.2510(26)
C81A C 0.5461(11) 0.2314(8) -0.1898(4)
H120A H 0.6118(18) 0.2770(12) -0.1798(31)
H121A H 0.5008(53) 0.2300(20) -0.1674(24)
H122A H 0.5263(71) 0.2458(31) -0.2173(9)
C82A C 0.4520(11) 0.0781(8) -0.2233(4)
H123A H 0.4532(35) 0.0210(25) -0.2314(31)
H124A H 0.4455(41) 0.1030(34) -0.2500(18)
H125A H 0.3968(12) 0.0687(56) -0.2054(14)
H116A H 0.4875(5) -0.0218(5) -0.1745(2)
C97A C 0.3556(5) -0.3501(5) 0.0466(3)
C96A C 0.4120(6) -0.3946(5) 0.0486(3)
C95A C 0.5070(5) -0.3522(5) 0.0360(3)
H137A H 0.5472(5) -0.3811(5) 0.0377(3)
C99A C 0.3711(7) -0.4860(5) 0.0664(3)
C100A C 0.2922(11) -0.5587(10) 0.0283(5)
C101A C 0.4528(10) -0.5234(9) 0.0659(5)
C102A C 0.3319(11) -0.4872(10) 0.1082(5)
H138A H 0.2905(5) -0.3781(5) 0.0550(3)
C105A C 0.8208(5) -0.0312(5) 0.1207(2)
H139A H 0.8573(5) 0.0103(5) 0.1451(2)
C106A C 0.7877(5) -0.1215(5) 0.1237(3)
C107A C 0.7319(5) -0.1810(5) 0.0869(2)
H140A H 0.7061(5) -0.2434(5) 0.0883(2)
C109A C 0.8104(6) -0.1563(5) 0.1649(3)
C110A C 0.8946(11) -0.1718(16) 0.1578(6)
H141A H 0.8901(88) -0.220(11) 0.1742(65)
H142A H 0.8966(98) -0.188(16) 0.1264(12)
H143A H 0.9538(15) -0.1173(51) 0.1679(72)
C111A C 0.7283(13) -0.2429(11) 0.1735(5)
H144A H 0.7520(30) -0.2724(58) 0.1931(49)
H145A H 0.6774(58) -0.2317(14) 0.1875(53)
H146A H 0.7016(86) -0.2813(47) 0.1457(9)
C112A C 0.8353(20) -0.0934(11) 0.2040(5)
H147A H 0.851(18) -0.1184(71) 0.2286(19)
H148A H 0.892(11) -0.0376(60) 0.1992(29)
H149A H 0.7800(62) -0.082(13) 0.2107(46)
C113 C 0.6761(11) 0.4839(9) 0.4064(4)
H150 H 0.6125(11) 0.4450(9) 0.4138(4)
C114 C 0.7142(15) 0.4602(9) 0.3699(5)
H151 H 0.6786(15) 0.4036(9) 0.3532(5)
C115 C 0.8023(14) 0.5175(9) 0.3579(4)
H152 H 0.8265(14) 0.5031(9) 0.3315(4)
C116 C 0.8594(11) 0.6002(8) 0.3847(4)
H153 H 0.9229(11) 0.6396(8) 0.3774(4)
C117 C 0.8197(10) 0.6208(9) 0.4213(4)
H154 H 0.8560(10) 0.6759(9) 0.4390(4)
C118 C 0.7306(10) 0.5649(9) 0.4326(4)
H155 H 0.7048(10) 0.5803(9) 0.4582(4)
C119 C 0.7708(12) 0.5286(10) 0.1324(4)
H156 H 0.7945(12) 0.5841(10) 0.1505(4)
C120 C 0.8045(12) 0.4702(10) 0.1424(5)
H157 H 0.8511(12) 0.4845(10) 0.1662(5)
C121 C 0.7682(10) 0.3905(9) 0.1169(4)
H158 H 0.7886(10) 0.3475(9) 0.1235(4)
C122 C 0.7024(8) 0.3703(8) 0.0817(4)
H159 H 0.6798(8) 0.3143(8) 0.0641(4)
C123 C 0.6692(9) 0.4295(8) 0.0715(4)
H160 H 0.6237(9) 0.4151(8) 0.0473(4)
C124 C 0.7047(10) 0.5128(9) 0.0980(4)
H161 H 0.6838(10) 0.5560(9) 0.0922(4)
C125 C 0.6165(14) 0.5179(14) 0.2244(8)
H162 H 0.6733(14) 0.5280(14) 0.2093(8)
C126 C 0.5483(15) 0.5338(9) 0.2083(5)
H163 H 0.5579(15) 0.5583(9) 0.1812(5)
C127 C 0.4636(13) 0.5173(8) 0.2279(5)
H164 H 0.4159(13) 0.5296(8) 0.2145(5)
C128 C 0.4489(11) 0.4826(8) 0.2674(4)
H165 H 0.3909(11) 0.4698(8) 0.2820(4)
C129 C 0.5236(14) 0.4666(8) 0.2855(5)
H166 H 0.5170(14) 0.4422(8) 0.3126(5)
C130 C 0.6014(13) 0.4861(14) 0.2642(7)
H167 H 0.6520(13) 0.4774(14) 0.2774(7)
C131 C -0.1592(14) -0.4084(12) -0.2399(12)
C132 C -0.1901(18) -0.4574(23) -0.2811(9)
C133 C -0.2325(18) -0.5500(23) -0.2851(9)
C134 C -0.2440(17) -0.5937(12) -0.2479(14)
C135 C -0.2130(21) -0.5448(25) -0.2067(10)
C136 C -0.1707(18) -0.4521(24) -0.2027(8)
C137? C 0.3835(36) 0.1111(33) 0.2952(17)
C138? C 0.5440(35) 0.1316(34) 0.3270(17)
C139? C 0.5217(48) 0.2630(42) 0.3363(21)
C140? C 0.3496(23) 0.5598(21) 0.4677(11)
C141? C 0.3148(28) 0.4847(25) 0.3895(13)
C142? C 0.4811(24) 0.5246(23) 0.4332(12)
C143? C 0.5842(18) 0.4660(17) -0.1169(9)
C144? C 0.7443(18) 0.5223(17) -0.0785(9)
C145? C 0.6144(21) 0.5494(19) -0.0411(10)
loop_
_geom_bond_atom_site_label_1
_geom_bond_atom_site_label_2
_geom_bond_site_symmetry_1
_geom_bond_site_symmetry_2
Li1 O1 1_555 1_555
Li2 O1 1_555 1_555
Li3 O1 1_555 1_555
Li4 O2 1_555 1_555
O1 C17 1_555 1_555
O2 Li1 1_555 1_555
O3 Li2 1_555 1_555
O4 Li1 1_555 1_555
O5 Li1 1_555 1_555
O6 Li2 1_555 1_555
P1 O5 1_555 1_555
P2 O6 1_555 1_555
N1 P1 1_555 1_555
N2 P1 1_555 1_555
N3 P1 1_555 1_555
N4 P2 1_555 1_555
N5 P2 1_555 1_555
N6 P2 1_555 1_555
C1 N1 1_555 1_555
H1 C1 1_555 1_555
H2 C1 1_555 1_555
H3 C1 1_555 1_555
C2 N1 1_555 1_555
H4 C2 1_555 1_555
H5 C2 1_555 1_555
H6 C2 1_555 1_555
C3 N2 1_555 1_555
H7 C3 1_555 1_555
H8 C3 1_555 1_555
H9 C3 1_555 1_555
C4 N2 1_555 1_555
H10 C4 1_555 1_555
H11 C4 1_555 1_555
H12 C4 1_555 1_555
C5 N3 1_555 1_555
H13 C5 1_555 1_555
H14 C5 1_555 1_555
H15 C5 1_555 1_555
C6 N3 1_555 1_555
H16 C6 1_555 1_555
H17 C6 1_555 1_555
H18 C6 1_555 1_555
C7 N4 1_555 1_555
H19 C7 1_555 1_555
H20 C7 1_555 1_555
H21 C7 1_555 1_555
C8 N4 1_555 1_555
H22 C8 1_555 1_555
H23 C8 1_555 1_555
H24 C8 1_555 1_555
C9 N5 1_555 1_555
H25 C9 1_555 1_555
H26 C9 1_555 1_555
H27 C9 1_555 1_555
C10 N5 1_555 1_555
H28 C10 1_555 1_555
H29 C10 1_555 1_555
H30 C10 1_555 1_555
C11 N6 1_555 1_555
H31 C11 1_555 1_555
H32 C11 1_555 1_555
H33 C11 1_555 1_555
C12 N6 1_555 1_555
H34 C12 1_555 1_555
H35 C12 1_555 1_555
H36 C12 1_555 1_555
C13 H37 1_555 1_555
H38 C13 1_555 1_555
C14 H39 1_555 1_555
H40 C14 1_555 1_555
C15 H41 1_555 1_555
H42 C15 1_555 1_555
C16 H43 1_555 1_555
H44 C16 1_555 1_555
C17 C18 1_555 1_555
C18 C15 1_555 1_555
C19 C18 1_555 1_555
H45 C19 1_555 1_555
C20 C19 1_555 1_555
C21 C20 1_555 1_555
H46 C21 1_555 1_555
C22 C13 1_555 1_555
C23 C20 1_555 1_555
C24 C23 1_555 1_555
H47 C24 1_555 1_555
H48 C24 1_555 1_555
H49 C24 1_555 1_555
C25 C23 1_555 1_555
H50 C25 1_555 1_555
H51 C25 1_555 1_555
H52 C25 1_555 1_555
C26 C23 1_555 1_555
H53 C26 1_555 1_555
H54 C26 1_555 1_555
H55 C26 1_555 1_555
C27 O2 1_555 1_555
C28 C16 1_555 1_555
C29 C28 1_555 1_555
H56 C29 1_555 1_555
C30 C29 1_555 1_555
C31 C30 1_555 1_555
H57 C31 1_555 1_555
C32 C14 1_555 1_555
C33 C30 1_555 1_555
C34 C33 1_555 1_555
C35 C33 1_555 1_555
C36 C33 1_555 1_555
C37 O3 1_555 1_555
C38 C14 1_555 1_555
C39 C38 1_555 1_555
H58 C39 1_555 1_555
C40 C39 1_555 1_555
C41 C40 1_555 1_555
H59 C41 1_555 1_555
C42 C13 1_555 1_555
C43 C40 1_555 1_555
C44 C43 1_555 1_555
H60 C44 1_555 1_555
H61 C44 1_555 1_555
H62 C44 1_555 1_555
C45 C43 1_555 1_555
H63 C45 1_555 1_555
H64 C45 1_555 1_555
H65 C45 1_555 1_555
C46 C43 1_555 1_555
H66 C46 1_555 1_555
H67 C46 1_555 1_555
H68 C46 1_555 1_555
C47 O4 1_555 1_555
C48 C15 1_555 1_555
C49 C48 1_555 1_555
H69 C49 1_555 1_555
C50 C49 1_555 1_555
C51 C50 1_555 1_555
H70 C51 1_555 1_555
C52 C16 1_555 1_555
C53 C50 1_555 1_555
C54 C53 1_555 1_555
C55 C53 1_555 1_555
C56 C53 1_555 1_555
Li5 O7 1_555 1_555
Li6 O7 1_555 1_555
Li7 O8 1_555 1_555
Li8 O7 1_555 1_555
O7 C73 1_555 1_555
O8 Li6 1_555 1_555
O9 Li5 1_555 1_555
O10 Li5 1_555 1_555
O11 Li5 1_555 1_555
O12 Li6 1_555 1_555
P3 O11 1_555 1_555
P4 O12 1_555 1_555
N7 P3 1_555 1_555
N8 P3 1_555 1_555
N9 P3 1_555 1_555
N10 P4 1_555 1_555
N11 P4 1_555 1_555
N12 P4 1_555 1_555
C57 N7 1_555 1_555
H71 C57 1_555 1_555
H72 C57 1_555 1_555
H73 C57 1_555 1_555
C58 N7 1_555 1_555
H74 C58 1_555 1_555
H75 C58 1_555 1_555
H76 C58 1_555 1_555
C59 N8 1_555 1_555
H77 C59 1_555 1_555
H78 C59 1_555 1_555
H79 C59 1_555 1_555
C60 N8 1_555 1_555
H80 C60 1_555 1_555
H81 C60 1_555 1_555
H82 C60 1_555 1_555
C61 N9 1_555 1_555
H83 C61 1_555 1_555
H84 C61 1_555 1_555
H85 C61 1_555 1_555
C62 N9 1_555 1_555
H86 C62 1_555 1_555
H87 C62 1_555 1_555
H88 C62 1_555 1_555
C63 N10 1_555 1_555
H89 C63 1_555 1_555
H90 C63 1_555 1_555
H91 C63 1_555 1_555
C64 N10 1_555 1_555
H92 C64 1_555 1_555
H93 C64 1_555 1_555
H94 C64 1_555 1_555
C65 N11 1_555 1_555
H95 C65 1_555 1_555
H96 C65 1_555 1_555
H97 C65 1_555 1_555
C66 N11 1_555 1_555
H98 C66 1_555 1_555
H99 C66 1_555 1_555
H100 C66 1_555 1_555
C67 N12 1_555 1_555
H101 C67 1_555 1_555
H102 C67 1_555 1_555
H103 C67 1_555 1_555
C68 N12 1_555 1_555
H104 C68 1_555 1_555
H105 C68 1_555 1_555
H106 C68 1_555 1_555
C69 H107 1_555 1_555
H108 C69 1_555 1_555
C70 H109 1_555 1_555
H110 C70 1_555 1_555
C71 H111 1_555 1_555
H112 C71 1_555 1_555
C72 H113 1_555 1_555
H114 C72 1_555 1_555
C73 C74 1_555 1_555
C74 C71 1_555 1_555
C75 C74 1_555 1_555
H115 C75 1_555 1_555
C76 C75 1_555 1_555
C77 C76 1_555 1_555
H116 C77 1_555 1_555
C78 C70 1_555 1_555
C79 C76 1_555 1_555
C80 C79 1_555 1_555
H117 C80 1_555 1_555
H118 C80 1_555 1_555
H119 C80 1_555 1_555
C81 C79 1_555 1_555
H120 C81 1_555 1_555
H121 C81 1_555 1_555
H122 C81 1_555 1_555
C82 C79 1_555 1_555
H123 C82 1_555 1_555
H124 C82 1_555 1_555
H125 C82 1_555 1_555
C83 O8 1_555 1_555
C84 C70 1_555 1_555
C85 C84 1_555 1_555
H126 C85 1_555 1_555
C86 C85 1_555 1_555
C87 C86 1_555 1_555
H127 C87 1_555 1_555
C88 C72 1_555 1_555
C89 C86 1_555 1_555
C90 C89 1_555 1_555
H128 C90 1_555 1_555
H129 C90 1_555 1_555
H130 C90 1_555 1_555
C91 C89 1_555 1_555
H131 C91 1_555 1_555
H132 C91 1_555 1_555
H133 C91 1_555 1_555
C92 C89 1_555 1_555
H134 C92 1_555 1_555
H135 C92 1_555 1_555
H136 C92 1_555 1_555
C93 O9 1_555 1_555
C94 C69 1_555 1_555
C95 C94 1_555 1_555
H137 C95 1_555 1_555
C96 C95 1_555 1_555
C97 C96 1_555 1_555
H138 C97 1_555 1_555
C98 C71 1_555 1_555
C99 C96 1_555 1_555
C100 C99 1_555 1_555
C101 C99 1_555 1_555
C102 C99 1_555 1_555
C103 O10 1_555 1_555
C104 C72 1_555 1_555
C105 C104 1_555 1_555
H139 C105 1_555 1_555
C106 C105 1_555 1_555
C107 C106 1_555 1_555
H140 C107 1_555 1_555
C108 C69 1_555 1_555
C109 C106 1_555 1_555
C110 C109 1_555 1_555
H141 C110 1_555 1_555
H142 C110 1_555 1_555
H143 C110 1_555 1_555
C111 C109 1_555 1_555
H144 C111 1_555 1_555
H145 C111 1_555 1_555
H146 C111 1_555 1_555
C112 C109 1_555 1_555
H147 C112 1_555 1_555
H148 C112 1_555 1_555
H149 C112 1_555 1_555
C113 H150 1_555 1_555
C114 C113 1_555 1_555
H151 C114 1_555 1_555
C115 C114 1_555 1_555
H152 C115 1_555 1_555
C116 C115 1_555 1_555
H153 C116 1_555 1_555
C117 C116 1_555 1_555
H154 C117 1_555 1_555
C118 C113 1_555 1_555
H155 C118 1_555 1_555
C119 H156 1_555 1_555
C120 C119 1_555 1_555
H157 C120 1_555 1_555
C121 C120 1_555 1_555
H158 C121 1_555 1_555
C122 C121 1_555 1_555
H159 C122 1_555 1_555
C123 C122 1_555 1_555
H160 C123 1_555 1_555
C124 C119 1_555 1_555
H161 C124 1_555 1_555
C125 H162 1_555 1_555
C126 C125 1_555 1_555
H163 C126 1_555 1_555
C127 C126 1_555 1_555
H164 C127 1_555 1_555
C128 C127 1_555 1_555
H165 C128 1_555 1_555
C129 C128 1_555 1_555
H166 C129 1_555 1_555
C130 C125 1_555 1_555
H167 C130 1_555 1_555
C131 C132 1_555 1_555
C132 C133 1_555 1_555
C133 C134 1_555 1_555
C134 C135 1_555 1_555
C135 C136 1_555 1_555
C136 C131 1_555 1_555
Li3A O1 1_555 1_555
O1A Li3 1_555 1_555
Li1A O1A 1_555 1_555
O2A Li1A 1_555 1_555
Li2A O1A 1_555 1_555
O3A Li3A 1_555 1_555
O6A Li2A 1_555 1_555
P2A O6A 1_555 1_555
N4A P2A 1_555 1_555
C7A N4A 1_555 1_555
H19A C7A 1_555 1_555
H20A C7A 1_555 1_555
H21A C7A 1_555 1_555
C8A N4A 1_555 1_555
H22A C8A 1_555 1_555
H23A C8A 1_555 1_555
H24A C8A 1_555 1_555
N5A P2A 1_555 1_555
C9A N5A 1_555 1_555
H25A C9A 1_555 1_555
H26A C9A 1_555 1_555
H27A C9A 1_555 1_555
C10A N5A 1_555 1_555
H28A C10A 1_555 1_555
H29A C10A 1_555 1_555
H30A C10A 1_555 1_555
N6A P2A 1_555 1_555
C11A N6A 1_555 1_555
H31A C11A 1_555 1_555
H32A C11A 1_555 1_555
H33A C11A 1_555 1_555
C12A N6A 1_555 1_555
H34A C12A 1_555 1_555
H35A C12A 1_555 1_555
H36A C12A 1_555 1_555
Li4A O2A 1_555 1_555
C27A O2A 1_555 1_555
C28A C27A 1_555 1_555
C16A C28A 1_555 1_555
H43A C16A 1_555 1_555
H44A C16A 1_555 1_555
C52A C51 1_555 1_555
C47A C48 1_555 1_555
O4A Li3 1_555 1_555
O5A Li1A 1_555 1_555
P1A O5A 1_555 1_555
N1A P1A 1_555 1_555
C1A N1A 1_555 1_555
H1A C1A 1_555 1_555
H2A C1A 1_555 1_555
H3A C1A 1_555 1_555
C2A N1A 1_555 1_555
H4A C2A 1_555 1_555
H5A C2A 1_555 1_555
H6A C2A 1_555 1_555
N2A P1A 1_555 1_555
C3A N2A 1_555 1_555
H7A C3A 1_555 1_555
H8A C3A 1_555 1_555
H9A C3A 1_555 1_555
C4A N2A 1_555 1_555
H10A C4A 1_555 1_555
H11A C4A 1_555 1_555
H12A C4A 1_555 1_555
N3A P1A 1_555 1_555
C5A N3A 1_555 1_555
H13A C5A 1_555 1_555
H14A C5A 1_555 1_555
H15A C5A 1_555 1_555
C6A N3A 1_555 1_555
H16A C6A 1_555 1_555
H17A C6A 1_555 1_555
H18A C6A 1_555 1_555
C48A C47 1_555 1_555
C15A C48A 1_555 1_555
H41A C15A 1_555 1_555
H42A C15A 1_555 1_555
C18A C15A 1_555 1_555
C17A O1A 1_555 1_555
C22A C17A 1_555 1_555
C13A C22A 1_555 1_555
H37A C13A 1_555 1_555
H38A C13A 1_555 1_555
C42A C37 1_555 1_555
C21A C22A 1_555 1_555
C20A C21A 1_555 1_555
C19A C18A 1_555 1_555
H45A C19A 1_555 1_555
C23A C20A 1_555 1_555
C24A C23A 1_555 1_555
H47A C24A 1_555 1_555
H48A C24A 1_555 1_555
H49A C24A 1_555 1_555
C25A C23A 1_555 1_555
H50A C25A 1_555 1_555
H51A C25A 1_555 1_555
H52A C25A 1_555 1_555
C26A C23A 1_555 1_555
H53A C26A 1_555 1_555
H54A C26A 1_555 1_555
H55A C26A 1_555 1_555
H46A C21A 1_555 1_555
C49A C48A 1_555 1_555
H69A C49A 1_555 1_555
C50A C49A 1_555 1_555
C51A C52 1_555 1_555
H70A C51A 1_555 1_555
C53A C50A 1_555 1_555
C54A C53A 1_555 1_555
C55A C53A 1_555 1_555
C56A C53A 1_555 1_555
C37A C42 1_555 1_555
C38A C37A 1_555 1_555
C14A C38A 1_555 1_555
H39A C14A 1_555 1_555
H40A C14A 1_555 1_555
C32A C27A 1_555 1_555
C31A C32A 1_555 1_555
C30A C31A 1_555 1_555
C29A C28A 1_555 1_555
H56A C29A 1_555 1_555
C33A C30A 1_555 1_555
C34A C33A 1_555 1_555
C35A C33A 1_555 1_555
C36A C33A 1_555 1_555
H57A C31A 1_555 1_555
C39A C38A 1_555 1_555
H58A C39A 1_555 1_555
C40A C39A 1_555 1_555
C41A C42 1_555 1_555
H59A C41A 1_555 1_555
C43A C40A 1_555 1_555
C44A C43A 1_555 1_555
H60A C44A 1_555 1_555
H61A C44A 1_555 1_555
H62A C44A 1_555 1_555
C45A C43A 1_555 1_555
H63A C45A 1_555 1_555
H64A C45A 1_555 1_555
H65A C45A 1_555 1_555
C46A C43A 1_555 1_555
H66A C46A 1_555 1_555
H67A C46A 1_555 1_555
H68A C46A 1_555 1_555
O7A Li8 1_555 1_555
Li5A O7A 1_555 1_555
O9A Li8 1_555 1_555
Li7A O9A 1_555 1_555
O8A Li7A 1_555 1_555
Li6A O7A 1_555 1_555
Li8A O7 1_555 1_555
C93A C98 1_555 1_555
C94A C93A 1_555 1_555
C69A C94A 1_555 1_555
H107A C69A 1_555 1_555
H108A C69A 1_555 1_555
C108A C69A 1_555 1_555
C103A C108A 1_555 1_555
O10A Li5A 1_555 1_555
O11A Li5A 1_555 1_555
P3A O11A 1_555 1_555
N7A P3A 1_555 1_555
C57A N7A 1_555 1_555
H71A C57A 1_555 1_555
H72A C57A 1_555 1_555
H73A C57A 1_555 1_555
C58A N7A 1_555 1_555
H74A C58A 1_555 1_555
H75A C58A 1_555 1_555
H76A C58A 1_555 1_555
N8A P3A 1_555 1_555
C59A N8A 1_555 1_555
H77A C59A 1_555 1_555
H78A C59A 1_555 1_555
H79A C59A 1_555 1_555
C60A N8A 1_555 1_555
H80A C60A 1_555 1_555
H81A C60A 1_555 1_555
H82A C60A 1_555 1_555
N9A P3A 1_555 1_555
C61A N9A 1_555 1_555
H83A C61A 1_555 1_555
H84A C61A 1_555 1_555
H85A C61A 1_555 1_555
C62A N9A 1_555 1_555
H86A C62A 1_555 1_555
H87A C62A 1_555 1_555
H88A C62A 1_555 1_555
O12A Li6A 1_555 1_555
P4A O12A 1_555 1_555
N10A P4A 1_555 1_555
C63A N10A 1_555 1_555
H89A C63A 1_555 1_555
H90A C63A 1_555 1_555
H91A C63A 1_555 1_555
C64A N10A 1_555 1_555
H92A C64A 1_555 1_555
H93A C64A 1_555 1_555
H94A C64A 1_555 1_555
N11A P4A 1_555 1_555
C65A N11A 1_555 1_555
H95A C65A 1_555 1_555
H96A C65A 1_555 1_555
H97A C65A 1_555 1_555
C66A N11A 1_555 1_555
H98A C66A 1_555 1_555
H99A C66A 1_555 1_555
H100A C66A 1_555 1_555
N12A P4A 1_555 1_555
C67A N12A 1_555 1_555
H101A C67A 1_555 1_555
H102A C67A 1_555 1_555
H103A C67A 1_555 1_555
C68A N12A 1_555 1_555
H104A C68A 1_555 1_555
H105A C68A 1_555 1_555
H106A C68A 1_555 1_555
C104A C103A 1_555 1_555
C72A C104A 1_555 1_555
H113A C72A 1_555 1_555
H114A C72A 1_555 1_555
C88A C87 1_555 1_555
C83A C84 1_555 1_555
C98A C93 1_555 1_555
C71A C98A 1_555 1_555
H111A C71A 1_555 1_555
H112A C71A 1_555 1_555
C74A C71A 1_555 1_555
C73A O7A 1_555 1_555
C78A C73A 1_555 1_555
C70A C78A 1_555 1_555
H109A C70A 1_555 1_555
H110A C70A 1_555 1_555
C84A C83 1_555 1_555
C85A C84A 1_555 1_555
H126A C85A 1_555 1_555
C86A C85A 1_555 1_555
C87A C88 1_555 1_555
H127A C87A 1_555 1_555
C89A C86A 1_555 1_555
C90A C89A 1_555 1_555
H128A C90A 1_555 1_555
H129A C90A 1_555 1_555
H130A C90A 1_555 1_555
C91A C89A 1_555 1_555
H131A C91A 1_555 1_555
H132A C91A 1_555 1_555
H133A C91A 1_555 1_555
C92A C89A 1_555 1_555
H134A C92A 1_555 1_555
H135A C92A 1_555 1_555
H136A C92A 1_555 1_555
C77A C78A 1_555 1_555
C76A C77A 1_555 1_555
C75A C74A 1_555 1_555
H115A C75A 1_555 1_555
C79A C76A 1_555 1_555
C80A C79A 1_555 1_555
H117A C80A 1_555 1_555
H118A C80A 1_555 1_555
H119A C80A 1_555 1_555
C81A C79A 1_555 1_555
H120A C81A 1_555 1_555
H121A C81A 1_555 1_555
H122A C81A 1_555 1_555
C82A C79A 1_555 1_555
H123A C82A 1_555 1_555
H124A C82A 1_555 1_555
H125A C82A 1_555 1_555
H116A C77A 1_555 1_555
C97A C98 1_555 1_555
C96A C97A 1_555 1_555
C95A C94A 1_555 1_555
H137A C95A 1_555 1_555
C99A C96A 1_555 1_555
C100A C99A 1_555 1_555
C101A C99A 1_555 1_555
C102A C99A 1_555 1_555
H138A C97A 1_555 1_555
C105A C104A 1_555 1_555
H139A C105A 1_555 1_555
C106A C105A 1_555 1_555
C107A C108A 1_555 1_555
H140A C107A 1_555 1_555
C109A C106A 1_555 1_555
C110A C109A 1_555 1_555
H141A C110A 1_555 1_555
H142A C110A 1_555 1_555
H143A C110A 1_555 1_555
C111A C109A 1_555 1_555
H144A C111A 1_555 1_555
H145A C111A 1_555 1_555
H146A C111A 1_555 1_555
C112A C109A 1_555 1_555
H147A C112A 1_555 1_555
H148A C112A 1_555 1_555
H149A C112A 1_555 1_555
Li2 O2 1_555 1_555
Li3 O3 1_555 1_555
Li4 O3 1_555 1_555
Li4 O4 1_555 1_555
O4 Li3A 1_555 1_555
C17 C22 1_555 1_555
C21 C22 1_555 1_555
C27 C28 1_555 1_555
C27 C32 1_555 1_555
C31 C32 1_555 1_555
C37 C38 1_555 1_555
C41 C42A 1_555 1_555
C47 C52 1_555 1_555
Li6 O10 1_555 1_555
Li7 O9 1_555 1_555
Li7 O10 1_555 1_555
Li8 O8 1_555 1_555
O9 Li8A 1_555 1_555
C73 C78 1_555 1_555
C77 C78 1_555 1_555
C83 C88 1_555 1_555
C93 C94 1_555 1_555
C97 C98A 1_555 1_555
C103 C104 1_555 1_555
C103 C108 1_555 1_555
C107 C108 1_555 1_555
C117 C118 1_555 1_555
C123 C124 1_555 1_555
C129 C130 1_555 1_555
Li3A O1A 1_555 1_555
Li1A O4A 1_555 1_555
O2A Li2A 1_555 1_555
Li2A O3A 1_555 1_555
O3A Li4A 1_555 1_555
O3A C37A 1_555 1_555
Li4A O4A 1_555 1_555
C16A C52A 1_555 1_555
C52A C47A 1_555 1_555
C47A O4A 1_555 1_555
C18A C17A 1_555 1_555
C13A C42A 1_555 1_555
C20A C19A 1_555 1_555
C50A C51A 1_555 1_555
C14A C32A 1_555 1_555
C30A C29A 1_555 1_555
C40A C41A 1_555 1_555
O7A Li8A 1_555 1_555
Li5A O9A 1_555 1_555
O9A C93A 1_555 1_555
Li7A O10A 1_555 1_555
O8A Li6A 1_555 1_555
O8A Li8A 1_555 1_555
O8A C83A 1_555 1_555
Li6A O10A 1_555 1_555
C103A O10A 1_555 1_555
C72A C88A 1_555 1_555
C88A C83A 1_555 1_555
C74A C73A 1_555 1_555
C70A C84A 1_555 1_555
C86A C87A 1_555 1_555
C76A C75A 1_555 1_555
C96A C95A 1_555 1_555
C106A C107A 1_555 1_555

#END
