
#######################################################################
#
#                 Cambridge Crystallographic Data Centre
#                                CCDC 
#
#######################################################################
#
# If this CIF has been generated from an entry in the Cambridge 
# Structural Database, then it will include bibliographic, chemical, 
# crystal, experimental, refinement or atomic coordinate data resulting 
# from the CCDC's data processing and validation procedures.
#
#######################################################################

data_RILPIO
_chemical_formula_moiety         'C20 H20 O7'
_chemical_name_systematic        
'dimethyl 5-ethenyl-2-[2-(3-methoxy-3-oxoprop-1-yn-1-yl)phenyl]oxolane-3,3-dicarboxylate'
_symmetry_cell_setting           monoclinic
_symmetry_space_group_name_H-M   'P 21/c'
_symmetry_Int_Tables_number      14
_space_group_name_Hall           '-P 2ybc'
loop_
_symmetry_equiv_pos_site_id
_symmetry_equiv_pos_as_xyz
1 x,y,z
2 -x,1/2+y,1/2-z
3 -x,-y,-z
4 x,1/2-y,1/2+z
_cell_length_a                   8.69263(12)
_cell_length_b                   13.63341(20)
_cell_length_c                   15.7418(2)
_cell_angle_alpha                90
_cell_angle_beta                 97.9416(13)
_cell_angle_gamma                90
_cell_volume                     1847.67
_exptl_crystal_colour            colorless
_exptl_crystal_description       block
_chemical_melting_point          '83-85 deg.C'
_cell_formula_units_Z            4
loop_
_atom_site_label
_atom_site_type_symbol
_atom_site_fract_x
_atom_site_fract_y
_atom_site_fract_z
O1 O 0.33286(10) 0.21141(7) 0.73912(5)
O2 O 0.45413(10) 0.47289(7) 0.60418(6)
O3 O 0.96938(11) 0.08140(7) 0.73797(6)
O4 O 0.15075(11) 0.21364(7) 0.55408(6)
O5 O 0.39595(11) 0.23242(8) 0.52666(6)
O6 O 0.16167(11) 0.33055(7) 0.75819(6)
O7 O 0.84422(12) 0.10512(8) 0.60434(6)
C1 C 0.29242(14) 0.25421(9) 0.56611(8)
C2 C 0.25239(14) 0.29326(9) 0.71691(8)
C3 C 0.29889(14) 0.33472(9) 0.63428(8)
C4 C 0.46578(14) 0.38161(9) 0.64984(8)
H1 H 0.539098 0.338541 0.625828
C5 C 0.63363(14) 0.33949(9) 0.79038(8)
C6 C 0.30636(15) 0.48036(9) 0.55041(8)
H2 H 0.312451 0.450221 0.494450
C7 C 0.86463(14) 0.12411(10) 0.67995(8)
C8 C 0.52508(14) 0.40198(9) 0.74297(8)
C9 C 0.19697(14) 0.42156(9) 0.59888(8)
H3 H 0.106419 0.399391 0.560734
H4 H 0.163421 0.459911 0.644875
C10 C 0.47101(15) 0.48285(10) 0.78427(8)
H5 H 0.401809 0.526009 0.753278
C11 C 0.70642(14) 0.26083(9) 0.75031(8)
C12 C 0.67828(15) 0.35603(10) 0.87830(8)
H6 H 0.747380 0.313303 0.909891
C13 C 0.51863(16) 0.50011(11) 0.87084(9)
H7 H 0.482461 0.555011 0.897033
C14 C 0.62000(16) 0.43573(11) 0.91839(8)
H8 H 0.648715 0.445951 0.976837
C15 C 0.77719(14) 0.19748(10) 0.71960(8)
C16 C 0.26382(16) 0.58633(10) 0.53939(9)
H9 H 0.270735 0.625275 0.588275
C17 C 0.21717(16) 0.62796(11) 0.46473(9)
C18 C 0.12332(17) 0.14311(11) 0.48477(9)
H10 H 0.118778 0.176559 0.430816
H11 H 0.026692 0.109950 0.487456
H12 H 0.206330 0.096109 0.490128
C19 C 0.32091(16) 0.17518(10) 0.82480(8)
H13 H 0.213841 0.163157 0.830119
H14 H 0.362294 0.223181 0.866412
H15 H 0.378702 0.115264 0.834473
C20 C 1.06702(16) 0.00850(10) 0.70431(10)
H16 H 1.127255 0.039308 0.665068
H17 H 1.002874 -0.041657 0.674899
H18 H 1.135412 -0.020283 0.750743
H19 H 0.187(2) 0.6961(15) 0.4604(12)
H20 H 0.210(2) 0.5885(14) 0.4121(12)
loop_
_geom_bond_atom_site_label_1
_geom_bond_atom_site_label_2
_geom_bond_site_symmetry_1
_geom_bond_site_symmetry_2
O1 C2 1_555 1_555
O2 C4 1_555 1_555
O3 C7 1_555 1_555
O4 C1 1_555 1_555
O5 C1 1_555 1_555
O6 C2 1_555 1_555
O7 C7 1_555 1_555
C1 C3 1_555 1_555
C2 C3 1_555 1_555
C3 C4 1_555 1_555
C4 H1 1_555 1_555
C5 C8 1_555 1_555
C6 O2 1_555 1_555
H2 C6 1_555 1_555
C7 C15 1_555 1_555
C8 C4 1_555 1_555
C9 C3 1_555 1_555
H3 C9 1_555 1_555
H4 C9 1_555 1_555
C10 C8 1_555 1_555
H5 C10 1_555 1_555
C11 C5 1_555 1_555
C12 C5 1_555 1_555
H6 C12 1_555 1_555
C13 C10 1_555 1_555
H7 C13 1_555 1_555
C14 C12 1_555 1_555
H8 C14 1_555 1_555
C15 C11 1_555 1_555
C16 C6 1_555 1_555
H9 C16 1_555 1_555
C17 C16 1_555 1_555
C18 O4 1_555 1_555
H10 C18 1_555 1_555
H11 C18 1_555 1_555
H12 C18 1_555 1_555
C19 O1 1_555 1_555
H13 C19 1_555 1_555
H14 C19 1_555 1_555
H15 C19 1_555 1_555
C20 O3 1_555 1_555
H16 C20 1_555 1_555
H17 C20 1_555 1_555
H18 C20 1_555 1_555
H19 C17 1_555 1_555
H20 C17 1_555 1_555
C6 C9 1_555 1_555
C13 C14 1_555 1_555

#END
