
#######################################################################
#
#                 Cambridge Crystallographic Data Centre
#                                CCDC 
#
#######################################################################
#
# If this CIF has been generated from an entry in the Cambridge 
# Structural Database, then it will include bibliographic, chemical, 
# crystal, experimental, refinement or atomic coordinate data resulting 
# from the CCDC's data processing and validation procedures.
#
#######################################################################

data_RILQEL
_chemical_formula_moiety         'C22 H15 N1 O1 S1,C4 H10 O1'
_chemical_name_systematic        
'4-(10H-phenothiazin-10-yl)naphthalen-1-ol diethyl ether solvate'
_symmetry_cell_setting           triclinic
_symmetry_space_group_name_H-M   'P -1'
_symmetry_Int_Tables_number      2
_space_group_name_Hall           '-P 1'
loop_
_symmetry_equiv_pos_site_id
_symmetry_equiv_pos_as_xyz
1 x,y,z
2 -x,-y,-z
_cell_length_a                   10.5705(12)
_cell_length_b                   11.5317(11)
_cell_length_c                   12.0615(13)
_cell_angle_alpha                62.206(6)
_cell_angle_beta                 64.052(8)
_cell_angle_gamma                66.046(7)
_cell_volume                     1131.18
_exptl_crystal_colour            colorless
_exptl_crystal_description       plate
_cell_formula_units_Z            2
loop_
_atom_site_label
_atom_site_type_symbol
_atom_site_fract_x
_atom_site_fract_y
_atom_site_fract_z
S1 S 0.5874(3) 0.17152(14) 0.4006(3)
H1 H 0.149(5) 1.057(5) 0.242(5)
N1 N 0.4383(5) 0.4708(4) 0.3462(5)
O1 O 0.1358(5) 1.0189(3) 0.2076(5)
C1 C 0.5876(7) 0.4407(5) 0.2940(6)
C2 C 0.6627(8) 0.5415(7) 0.2158(7)
H2 H 0.610655 0.631925 0.198678
C3 C 0.8095(10) 0.5115(12) 0.1642(9)
H3 H 0.856745 0.580832 0.113484
C4 C 0.8918(10) 0.3737(12) 0.1875(10)
H4 H 0.992272 0.351498 0.150120
C5 C 0.8159(11) 0.2736(10) 0.2682(10)
H5 H 0.866894 0.182770 0.290449
C6 C 0.6724(9) 0.3063(6) 0.3135(7)
C7 C 0.4318(10) 0.2397(5) 0.5019(8)
C8 C 0.3532(13) 0.1550(7) 0.6263(9)
H6 H 0.397880 0.063074 0.657425
C9 C 0.2199(16) 0.2019(11) 0.6987(11)
H7 H 0.172581 0.143015 0.776846
C10 C 0.1542(13) 0.3362(9) 0.6571(8)
H8 H 0.060293 0.368725 0.705824
C11 C 0.2253(9) 0.4262(7) 0.5425(7)
H9 H 0.179841 0.518360 0.518624
C12 C 0.3624(8) 0.3812(5) 0.4633(6)
C13 C 0.3592(5) 0.6129(4) 0.3113(5)
C14 C 0.3518(6) 0.6898(5) 0.3722(5)
H10 H 0.396214 0.650706 0.437505
C15 C 0.2773(6) 0.8290(5) 0.3379(6)
H11 H 0.273567 0.881397 0.379528
C16 C 0.2112(5) 0.8851(4) 0.2429(5)
C17 C 0.2168(5) 0.8090(4) 0.1772(5)
C18 C 0.1536(7) 0.8662(5) 0.0755(6)
H12 H 0.104162 0.957408 0.051906
C19 C 0.1632(9) 0.7925(7) 0.0128(7)
H13 H 0.117195 0.832232 -0.051479
C20 C 0.2421(9) 0.6545(6) 0.0420(7)
H14 H 0.252395 0.604938 -0.005386
C21 C 0.3031(7) 0.5956(5) 0.1417(6)
H15 H 0.351976 0.504208 0.163460
C22 C 0.2939(5) 0.6687(4) 0.2117(5)
O2 O 0.2399(6) 1.1664(4) 0.2591(5)
C23 C 0.3667(13) 1.2137(11) 0.1480(12)
H16 H 0.333289 1.305699 0.092290
H17 H 0.433893 1.213753 0.182728
C24 C 0.4362(16) 1.1318(13) 0.0755(14)
H18 H 0.521528 1.159413 0.008881
H19 H 0.372338 1.138212 0.034567
H20 H 0.463775 1.039816 0.131804
C25 C 0.1924(12) 1.2318(10) 0.3453(11)
H21 H 0.147228 1.326864 0.306613
H22 H 0.273153 1.225077 0.368131
C26 C 0.0924(12) 1.1685(10) 0.4560(10)
H23 H 0.021263 1.163747 0.430069
H24 H 0.045102 1.219267 0.514020
H25 H 0.141595 1.078538 0.500512
loop_
_geom_bond_atom_site_label_1
_geom_bond_atom_site_label_2
_geom_bond_site_symmetry_1
_geom_bond_site_symmetry_2
S1 C6 1_555 1_555
H1 O1 1_555 1_555
N1 C1 1_555 1_555
O1 C16 1_555 1_555
C1 C2 1_555 1_555
C2 H2 1_555 1_555
C3 C2 1_555 1_555
H3 C3 1_555 1_555
C4 C3 1_555 1_555
H4 C4 1_555 1_555
C5 C4 1_555 1_555
H5 C5 1_555 1_555
C6 C1 1_555 1_555
C7 S1 1_555 1_555
C8 C7 1_555 1_555
H6 C8 1_555 1_555
C9 C8 1_555 1_555
H7 C9 1_555 1_555
C10 C9 1_555 1_555
H8 C10 1_555 1_555
C11 C10 1_555 1_555
H9 C11 1_555 1_555
C12 N1 1_555 1_555
C13 N1 1_555 1_555
C14 C13 1_555 1_555
H10 C14 1_555 1_555
C15 C14 1_555 1_555
H11 C15 1_555 1_555
C16 C15 1_555 1_555
C17 C16 1_555 1_555
C18 C17 1_555 1_555
H12 C18 1_555 1_555
C19 C18 1_555 1_555
H13 C19 1_555 1_555
C20 C19 1_555 1_555
H14 C20 1_555 1_555
C21 C20 1_555 1_555
H15 C21 1_555 1_555
C22 C13 1_555 1_555
O2 C23 1_555 1_555
C23 H16 1_555 1_555
H17 C23 1_555 1_555
C24 C23 1_555 1_555
H18 C24 1_555 1_555
H19 C24 1_555 1_555
H20 C24 1_555 1_555
C25 O2 1_555 1_555
H21 C25 1_555 1_555
H22 C25 1_555 1_555
C26 C25 1_555 1_555
H23 C26 1_555 1_555
H24 C26 1_555 1_555
H25 C26 1_555 1_555
C5 C6 1_555 1_555
C7 C12 1_555 1_555
C11 C12 1_555 1_555
C17 C22 1_555 1_555
C21 C22 1_555 1_555

#END
