
#######################################################################
#
#                 Cambridge Crystallographic Data Centre
#                                CCDC 
#
#######################################################################
#
# If this CIF has been generated from an entry in the Cambridge 
# Structural Database, then it will include bibliographic, chemical, 
# crystal, experimental, refinement or atomic coordinate data resulting 
# from the CCDC's data processing and validation procedures.
#
#######################################################################

data_RILREL01
_chemical_formula_moiety         'C7 H5 O6 S1 1-,H4 N1 1+,H2 O1'
_chemical_name_systematic        
'Ammonium 3-carboxy-4-hydroxybenzenesulfonate monohydrate'
_symmetry_cell_setting           monoclinic
_symmetry_space_group_name_H-M   'P 21/c'
_symmetry_Int_Tables_number      14
_space_group_name_Hall           '-P 2ybc'
loop_
_symmetry_equiv_pos_site_id
_symmetry_equiv_pos_as_xyz
1 x,y,z
2 -x,1/2+y,1/2-z
3 -x,-y,-z
4 x,1/2-y,1/2+z
_cell_length_a                   11.884(9)
_cell_length_b                   7.306(5)
_cell_length_c                   12.152(9)
_cell_angle_alpha                90
_cell_angle_beta                 104.851(13)
_cell_angle_gamma                90
_cell_volume                     1019.85
_cell_formula_units_Z            4
loop_
_atom_site_label
_atom_site_type_symbol
_atom_site_fract_x
_atom_site_fract_y
_atom_site_fract_z
S1 S 0.37796(3) 0.25216(4) 0.47015(3)
C1 C 0.06081(11) 0.62284(18) 0.38692(10)
C2 C 0.04545(11) 0.43286(18) 0.38493(10)
C3 C 0.14326(11) 0.31877(18) 0.41420(11)
H1 H 0.1347(14) 0.190(2) 0.4140(14)
C4 C 0.25378(11) 0.39364(18) 0.44409(10)
C5 C 0.26874(11) 0.58421(19) 0.44768(11)
H2 H 0.3448(15) 0.632(2) 0.4658(14)
C6 C 0.17300(12) 0.69690(19) 0.41981(12)
H3 H 0.1798(15) 0.829(3) 0.4206(15)
C7 C -0.07318(11) 0.35472(19) 0.35037(11)
O1 O -0.02871(10) 0.74138(14) 0.35884(10)
H4 H -0.0900 0.6844 0.3390
O2 O -0.16033(8) 0.45017(15) 0.31569(9)
O3 O -0.07738(9) 0.17645(15) 0.36000(9)
H5 H -0.1477(17) 0.134(3) 0.3445(16)
O4 O 0.33927(9) 0.06552(13) 0.47925(9)
O5 O 0.45699(8) 0.31818(15) 0.57468(9)
O6 O 0.42505(9) 0.27542(14) 0.37084(9)
N1 N 0.41024(10) 0.57356(18) 0.75420(11)
H6 H 0.3298(13) 0.593(2) 0.7229(14)
H7 H 0.4443(15) 0.571(2) 0.6943(14)
H8 H 0.4454(15) 0.663(2) 0.8079(14)
H9 H 0.4163(15) 0.455(2) 0.7869(15)
O7 O 0.70351(10) 0.45348(17) 0.81515(10)
H10 H 0.6890(18) 0.496(3) 0.8809(15)
H11 H 0.6781(18) 0.543(3) 0.7618(16)
loop_
_geom_bond_atom_site_label_1
_geom_bond_atom_site_label_2
_geom_bond_site_symmetry_1
_geom_bond_site_symmetry_2
S1 C4 1_555 1_555
C1 C2 1_555 1_555
C2 C3 1_555 1_555
C3 H1 1_555 1_555
C4 C3 1_555 1_555
C5 C4 1_555 1_555
H2 C5 1_555 1_555
C6 C1 1_555 1_555
H3 C6 1_555 1_555
C7 C2 1_555 1_555
O1 C1 1_555 1_555
H4 O1 1_555 1_555
O2 C7 1_555 1_555
O3 C7 1_555 1_555
H5 O3 1_555 1_555
O4 S1 1_555 1_555
O5 S1 1_555 1_555
O6 S1 1_555 1_555
N1 H6 1_555 1_555
H7 N1 1_555 1_555
H8 N1 1_555 1_555
H9 N1 1_555 1_555
O7 H10 1_555 1_555
H11 O7 1_555 1_555
C5 C6 1_555 1_555

#END
