
#######################################################################
#
#                 Cambridge Crystallographic Data Centre
#                                CCDC 
#
#######################################################################
#
# If this CIF has been generated from an entry in the Cambridge 
# Structural Database, then it will include bibliographic, chemical, 
# crystal, experimental, refinement or atomic coordinate data resulting 
# from the CCDC's data processing and validation procedures.
#
#######################################################################

data_RILXOC
_chemical_formula_moiety         
'3(Na1 1+),C14 H20 Mg1 N4 O11 2-,N1 O3 1-,7(H2 O1)'
_chemical_name_systematic        
'tris(sodium) (5,8-bis(carboxylatomethyl)-3,10-dioxo-2,5,8,11-tetraaza-dodecane-1,12-dicarboxylato)-aqua-magnesium(ii) nitrate heptahydrate'
_symmetry_cell_setting           monoclinic
_symmetry_space_group_name_H-M   'C 2/c'
_symmetry_Int_Tables_number      15
_space_group_name_Hall           '-C 2yn'
loop_
_symmetry_equiv_pos_site_id
_symmetry_equiv_pos_as_xyz
1 x,y,z
2 -x,y,1/2-z
3 1/2+x,1/2+y,z
4 1/2-x,1/2+y,1/2-z
5 -x,-y,-z
6 x,-y,1/2+z
7 1/2-x,1/2-y,-z
8 1/2+x,1/2-y,1/2+z
_cell_length_a                   12.1907(5)
_cell_length_b                   9.6223(5)
_cell_length_c                   23.9144(9)
_cell_angle_alpha                90
_cell_angle_beta                 90.473(4)
_cell_angle_gamma                90
_cell_volume                     2805.13
_exptl_crystal_colour            colorless
_exptl_crystal_description       block
_cell_formula_units_Z            4
loop_
_atom_site_label
_atom_site_type_symbol
_atom_site_fract_x
_atom_site_fract_y
_atom_site_fract_z
Na1 Na 0.01988(10) 0.18073(12) 0.38928(5)
O7 O -0.0611(2) 0.0484(3) 0.47325(10)
O8 O -0.1241(4) -0.0560(5) 0.5468(2)
N3 N -0.0490(4) -0.0118(5) 0.51648(19)
O7D O 0.0611(2) -0.0484(3) 0.52675(10)
O8D O 0.1241(4) 0.0560(5) 0.4532(2)
N3D N 0.0490(4) 0.0118(5) 0.48352(19)
Na2 Na -0.2650(2) -0.1019(3) 0.47124(9)
O9 O -0.1465(2) -0.2929(3) 0.45511(13)
H11 H -0.203622 -0.275946 0.435570
H12 H -0.089833 -0.279699 0.435385
O10 O -0.00217(19) 0.3745(2) 0.44224(9)
H13 H 0.0287(17) 0.4649(12) 0.4422(7)
H14 H -0.0412(17) 0.3763(10) 0.4650(8)
O11 O -0.03000(18) -0.0360(2) 0.34669(9)
H15 H -0.102794 -0.060887 0.353000
H16 H 0.011728 -0.110723 0.359545
Mg1 Mg 0.500000 0.81403(14) 0.250000
O1 O 0.05502(17) 0.7386(3) 0.39950(9)
O2 O 0.12894(18) 0.5970(2) 0.46285(8)
O3 O 0.37980(16) 0.7787(2) 0.31855(8)
O4 O 0.24550(19) 0.8898(3) 0.13535(9)
O5 O 0.39535(17) 0.8155(2) 0.18052(8)
O6 O 0.500000 0.6013(3) 0.250000
H1 H 0.489372 0.559849 0.282709
N1 N 0.2599(2) 0.8651(3) 0.38168(10)
H2 H 0.218707 0.934551 0.390056
N2 N 0.38243(18) 1.0152(2) 0.25993(9)
C1 C 0.1347(2) 0.6896(3) 0.42603(12)
C2 C 0.2502(3) 0.7375(4) 0.41380(13)
H3 H 0.288652 0.750192 0.449112
H4 H 0.287449 0.664059 0.393679
C3 C 0.3300(2) 0.8782(3) 0.33990(11)
C4 C 0.3511(2) 1.0245(3) 0.31887(11)
H5 H 0.285500 1.080609 0.322606
H6 H 0.409559 1.067384 0.340552
C5 C 0.2853(2) 0.9870(3) 0.22449(12)
H7 H 0.257191 1.074139 0.209903
H8 H 0.228545 0.945331 0.247191
C6 C 0.3109(2) 0.8906(3) 0.17597(12)
C7 C 0.4403(2) 1.1411(3) 0.24053(11)
H9 H 0.403953 1.222870 0.255162
H10 H 0.436777 1.145383 0.200033
O1A O 0.94498(17) 0.7386(3) 0.10050(9)
O2A O 0.87106(18) 0.5970(2) 0.03715(8)
O3A O 0.62020(16) 0.7787(2) 0.18145(8)
O4A O 0.75450(19) 0.8898(3) 0.36465(9)
O5A O 0.60465(17) 0.8155(2) 0.31948(8)
N1A N 0.7401(2) 0.8651(3) 0.11832(10)
H2A H 0.781293 0.934551 0.109944
N2A N 0.61757(18) 1.0152(2) 0.24007(9)
C1A C 0.8653(2) 0.6896(3) 0.07397(12)
C2A C 0.7498(3) 0.7375(4) 0.08620(13)
H3A H 0.711348 0.750192 0.050888
H4A H 0.712551 0.664059 0.106321
C3A C 0.6700(2) 0.8782(3) 0.16010(11)
C4A C 0.6489(2) 1.0245(3) 0.18113(11)
H5A H 0.714500 1.080609 0.177394
H6A H 0.590441 1.067384 0.159448
C5A C 0.7147(2) 0.9870(3) 0.27551(12)
H7A H 0.742809 1.074139 0.290097
H8A H 0.771455 0.945331 0.252809
C6A C 0.6891(2) 0.8906(3) 0.32403(12)
C7A C 0.5597(2) 1.1411(3) 0.25947(11)
H9A H 0.596047 1.222870 0.244838
H10A H 0.563223 1.145383 0.299967
H1A H 0.510628 0.559849 0.217291
H17? H 0.510618 0.559829 0.221791
O12? O -0.1731(5) -0.0817(6) 0.5605(2)
loop_
_geom_bond_atom_site_label_1
_geom_bond_atom_site_label_2
_geom_bond_site_symmetry_1
_geom_bond_site_symmetry_2
Mg1 O3 1_555 1_555
O1 C1 1_555 1_555
O2 C1 1_555 1_555
O3 C3 1_555 1_555
O4 C6 1_555 1_555
O5 Mg1 1_555 1_555
O6 Mg1 1_555 1_555
H1 O6 1_555 1_555
N1 H2 1_555 1_555
N2 C4 1_555 1_555
C1 C2 1_555 1_555
C2 N1 1_555 1_555
H3 C2 1_555 1_555
H4 C2 1_555 1_555
C3 N1 1_555 1_555
C4 C3 1_555 1_555
H5 C4 1_555 1_555
H6 C4 1_555 1_555
C5 N2 1_555 1_555
H7 C5 1_555 1_555
H8 C5 1_555 1_555
C6 O5 1_555 1_555
C7 N2 1_555 1_555
H9 C7 1_555 1_555
H10 C7 1_555 1_555
O7 N3 1_555 1_555
O8 N3 1_555 1_555
N3 O7D 1_555 1_555
O9 H11 1_555 1_555
H12 O9 1_555 1_555
O10 H13 1_555 1_555
H14 O10 1_555 1_555
O11 H15 1_555 1_555
H16 O11 1_555 1_555
O1A C1A 1_555 1_555
O2A C1A 1_555 1_555
O3A Mg1 1_555 1_555
O4A C6A 1_555 1_555
O5A Mg1 1_555 1_555
N1A H2A 1_555 1_555
N2A C4A 1_555 1_555
C1A C2A 1_555 1_555
C2A N1A 1_555 1_555
H3A C2A 1_555 1_555
H4A C2A 1_555 1_555
C3A O3A 1_555 1_555
C4A C3A 1_555 1_555
H5A C4A 1_555 1_555
H6A C4A 1_555 1_555
C5A N2A 1_555 1_555
H7A C5A 1_555 1_555
H8A C5A 1_555 1_555
C6A O5A 1_555 1_555
C7A C7 1_555 1_555
H9A C7A 1_555 1_555
H10A C7A 1_555 1_555
H1A O6 1_555 1_555
O7D N3D 1_555 1_555
O8D N3D 1_555 1_555
N3D O7 1_555 1_555
C5 C6 1_555 1_555
N3 N3D 1_555 1_555
N1A C3A 1_555 1_555
N2A C7A 1_555 1_555
C5A C6A 1_555 1_555

#END
