
#######################################################################
#
#                 Cambridge Crystallographic Data Centre
#                                CCDC 
#
#######################################################################
#
# If this CIF has been generated from an entry in the Cambridge 
# Structural Database, then it will include bibliographic, chemical, 
# crystal, experimental, refinement or atomic coordinate data resulting 
# from the CCDC's data processing and validation procedures.
#
#######################################################################

data_RILXES
_chemical_formula_moiety         'C28 H40 N2 O4'
_chemical_name_systematic        
"di-t-butyl 2,2'-(ethane-1,2-diylbis(benzylimino))diacetate"
_symmetry_cell_setting           tetragonal
_symmetry_space_group_name_H-M   'P -4'
_symmetry_Int_Tables_number      81
_space_group_name_Hall           'P -4'
loop_
_symmetry_equiv_pos_site_id
_symmetry_equiv_pos_as_xyz
1 x,y,z
2 -x,-y,z
3 y,-x,-z
4 -y,x,-z
_cell_length_a                   22.2406(6)
_cell_length_b                   22.2406(6)
_cell_length_c                   5.4929(2)
_cell_angle_alpha                90
_cell_angle_beta                 90
_cell_angle_gamma                90
_cell_volume                     2717.03
_exptl_crystal_colour            colorless
_exptl_crystal_description       prism
_cell_formula_units_Z            4
loop_
_atom_site_label
_atom_site_type_symbol
_atom_site_fract_x
_atom_site_fract_y
_atom_site_fract_z
O1 O 0.32388(6) 0.59929(6) 0.1779(3)
O2 O 0.39728(7) 0.65750(6) 0.3346(4)
O3 O 0.18791(7) 0.91769(6) 0.2147(3)
O4 O 0.16093(7) 0.84689(6) 0.4902(3)
N1 N 0.32993(7) 0.75914(7) 0.1296(3)
N2 N 0.19787(7) 0.75432(7) 0.1560(4)
C1 C 0.32972(9) 0.69826(9) 0.0320(4)
C2 C 0.35512(9) 0.65021(8) 0.2006(4)
C3 C 0.33950(10) 0.54518(9) 0.3212(4)
C4 C 0.33498(13) 0.55807(11) 0.5910(4)
C5 C 0.40162(12) 0.52294(11) 0.2481(5)
C6 C 0.29125(13) 0.50080(11) 0.2436(6)
C7 C 0.38993(9) 0.78633(9) 0.1434(5)
C8 C 0.38761(8) 0.85415(8) 0.1629(4)
C9 C 0.36069(9) 0.88831(9) -0.0179(4)
C10 C 0.36286(10) 0.95070(10) -0.0094(5)
C11 C 0.39135(9) 0.97940(9) 0.1818(5)
C12 C 0.41729(10) 0.94604(10) 0.3655(5)
C13 C 0.41530(9) 0.88350(9) 0.3548(4)
C14 C 0.29805(9) 0.76536(9) 0.3608(4)
C15 C 0.23539(9) 0.73709(9) 0.3637(4)
C16 C 0.19917(9) 0.81775(8) 0.0939(4)
C17 C 0.17975(8) 0.86119(9) 0.2925(4)
C18 C 0.18455(10) 0.96899(9) 0.3859(4)
C19 C 0.23321(12) 0.96157(12) 0.5766(5)
C20 C 0.12229(12) 0.97456(12) 0.4967(6)
C21 C 0.19864(14) 1.02215(10) 0.2222(5)
C22 C 0.13696(9) 0.73053(9) 0.1811(5)
C23 C 0.13384(8) 0.66290(9) 0.1564(4)
C24 C 0.15879(9) 0.63370(9) -0.0421(4)
C25 C 0.15358(10) 0.57150(10) -0.0678(4)
C26 C 0.12264(10) 0.53843(10) 0.1055(5)
C27 C 0.09828(9) 0.56711(10) 0.3055(5)
C28 C 0.10375(9) 0.62911(9) 0.3306(4)
H1 H 0.2893(9) 0.6870(8) -0.014(4)
H2 H 0.3530(10) 0.6977(10) -0.119(5)
H3 H 0.3658(12) 0.5852(12) 0.646(6)
H4 H 0.2939(13) 0.5780(12) 0.628(6)
H5 H 0.3365(11) 0.5193(12) 0.679(6)
H6 H 0.4020(12) 0.5161(12) 0.066(6)
H7 H 0.4085(11) 0.4840(12) 0.324(6)
H8 H 0.4351(12) 0.5509(12) 0.299(6)
H9 H 0.2990(12) 0.4613(12) 0.330(6)
H10 H 0.2939(14) 0.4921(13) 0.063(7)
H11 H 0.2515(11) 0.5173(11) 0.294(5)
H12 H 0.4104(10) 0.7761(10) -0.004(5)
H13 H 0.4154(10) 0.7707(10) 0.283(5)
H14 H 0.3417(10) 0.8686(10) -0.158(5)
H15 H 0.3447(10) 0.9746(10) -0.145(5)
H16 H 0.3933(9) 1.0232(10) 0.187(5)
H17 H 0.4359(11) 0.9646(11) 0.513(6)
H18 H 0.4326(11) 0.8599(11) 0.491(6)
H19 H 0.3209(9) 0.7466(9) 0.495(5)
H20 H 0.2951(9) 0.8093(10) 0.396(5)
H21 H 0.2148(10) 0.7473(10) 0.523(5)
H22 H 0.2399(8) 0.6928(9) 0.360(4)
H23 H 0.1741(9) 0.8232(9) -0.048(4)
H24 H 0.2390(10) 0.8281(9) 0.045(5)
H25 H 0.2737(12) 0.9526(12) 0.502(6)
H26 H 0.2240(12) 0.9284(12) 0.698(6)
H27 H 0.2324(13) 0.9997(13) 0.674(7)
H28 H 0.1196(12) 1.0147(13) 0.583(6)
H29 H 0.0920(13) 0.9739(12) 0.359(7)
H30 H 0.1132(12) 0.9425(13) 0.611(6)
H31 H 0.2436(13) 1.0161(12) 0.148(6)
H32 H 0.1672(12) 1.0236(11) 0.099(6)
H33 H 0.1961(11) 1.0596(11) 0.315(5)
H34 H 0.1163(10) 0.7438(10) 0.339(5)
H35 H 0.1138(11) 0.7490(11) 0.044(5)
H36 H 0.1804(11) 0.6570(11) -0.167(6)
H37 H 0.1712(10) 0.5503(10) -0.207(5)
H38 H 0.1186(10) 0.4946(11) 0.097(5)
H39 H 0.0781(10) 0.5456(11) 0.436(5)
H40 H 0.0869(10) 0.6485(10) 0.471(5)
loop_
_geom_bond_atom_site_label_1
_geom_bond_atom_site_label_2
_geom_bond_site_symmetry_1
_geom_bond_site_symmetry_2
O1 C2 1_555 1_555
O2 C2 1_555 1_555
O3 C17 1_555 1_555
O4 C17 1_555 1_555
N1 C1 1_555 1_555
N2 C15 1_555 1_555
C1 C2 1_555 1_555
C3 O1 1_555 1_555
C4 C3 1_555 1_555
C5 C3 1_555 1_555
C6 C3 1_555 1_555
C7 N1 1_555 1_555
C8 C7 1_555 1_555
C9 C8 1_555 1_555
C10 C9 1_555 1_555
C11 C10 1_555 1_555
C12 C11 1_555 1_555
C13 C8 1_555 1_555
C14 N1 1_555 1_555
C15 C14 1_555 1_555
C16 N2 1_555 1_555
C17 C16 1_555 1_555
C18 O3 1_555 1_555
C19 C18 1_555 1_555
C20 C18 1_555 1_555
C21 C18 1_555 1_555
C22 N2 1_555 1_555
C23 C22 1_555 1_555
C24 C23 1_555 1_555
C25 C24 1_555 1_555
C26 C25 1_555 1_555
C27 C26 1_555 1_555
C28 C23 1_555 1_555
H1 C1 1_555 1_555
H2 C1 1_555 1_555
H3 C4 1_555 1_555
H4 C4 1_555 1_555
H5 C4 1_555 1_555
H6 C5 1_555 1_555
H7 C5 1_555 1_555
H8 C5 1_555 1_555
H9 C6 1_555 1_555
H10 C6 1_555 1_555
H11 C6 1_555 1_555
H12 C7 1_555 1_555
H13 C7 1_555 1_555
H14 C9 1_555 1_555
H15 C10 1_555 1_555
H16 C11 1_555 1_555
H17 C12 1_555 1_555
H18 C13 1_555 1_555
H19 C14 1_555 1_555
H20 C14 1_555 1_555
H21 C15 1_555 1_555
H22 C15 1_555 1_555
H23 C16 1_555 1_555
H24 C16 1_555 1_555
H25 C19 1_555 1_555
H26 C19 1_555 1_555
H27 C19 1_555 1_555
H28 C20 1_555 1_555
H29 C20 1_555 1_555
H30 C20 1_555 1_555
H31 C21 1_555 1_555
H32 C21 1_555 1_555
H33 C21 1_555 1_555
H34 C22 1_555 1_555
H35 C22 1_555 1_555
H36 C24 1_555 1_555
H37 C25 1_555 1_555
H38 C26 1_555 1_555
H39 C27 1_555 1_555
H40 C28 1_555 1_555
C12 C13 1_555 1_555
C27 C28 1_555 1_555

#END
