
#######################################################################
#
#                 Cambridge Crystallographic Data Centre
#                                CCDC 
#
#######################################################################
#
# If this CIF has been generated from an entry in the Cambridge 
# Structural Database, then it will include bibliographic, chemical, 
# crystal, experimental, refinement or atomic coordinate data resulting 
# from the CCDC's data processing and validation procedures.
#
#######################################################################

data_RIMJII
_chemical_compound_source        'Pedinophyllum interruptum'
_chemical_name_common            'Pedinophyllol A'
_chemical_formula_moiety         'C20 H30 O3'
_chemical_name_systematic        1,9-Dihydroxypimara-7,15-dien-14-one
_symmetry_cell_setting           orthorhombic
_symmetry_space_group_name_H-M   'P 21 21 21'
_symmetry_Int_Tables_number      19
_space_group_name_Hall           'P 2ac 2ab'
loop_
_symmetry_equiv_pos_site_id
_symmetry_equiv_pos_as_xyz
1 x,y,z
2 1/2-x,-y,1/2+z
3 1/2+x,1/2-y,-z
4 -x,1/2+y,1/2-z
_cell_length_a                   7.9551(2)
_cell_length_b                   11.0331(3)
_cell_length_c                   21.0769(8)
_cell_angle_alpha                90
_cell_angle_beta                 90
_cell_angle_gamma                90
_cell_volume                     1849.91
_exptl_crystal_colour            colorless
_exptl_crystal_description       prism
_cell_formula_units_Z            4
loop_
_atom_site_label
_atom_site_type_symbol
_atom_site_fract_x
_atom_site_fract_y
_atom_site_fract_z
C1 C 0.6419(8) 0.3212(5) 0.1987(3)
H1 H 0.5419 0.2951 0.2170
H2 H 0.6725 0.2937 0.1586
C2 C 0.7299(8) 0.3891(5) 0.2263(2)
H3 H 0.8273 0.4105 0.2047
C3 C 0.6574(7) 0.5797(4) 0.2803(2)
H4 H 0.6421 0.6184 0.3207
H5 H 0.5536 0.5817 0.2571
H6 H 0.7426 0.6218 0.2567
C4 C 0.7117(5) 0.4469(3) 0.29051(15)
C5 C 0.8800(4) 0.4405(3) 0.32438(16)
H7 H 0.9652 0.4775 0.2978
H8 H 0.8732 0.4871 0.3633
C6 C 0.9330(3) 0.3130(3) 0.34007(13)
H9 H 1.0445 0.3146 0.3587
H10 H 0.9388 0.2659 0.3013
C7 C 0.8108(3) 0.2516(2) 0.38638(11)
C8 C 0.6286(3) 0.2696(2) 0.36614(12)
C9 C 0.5788(4) 0.3792(3) 0.32844(15)
C10 C 0.5119(3) 0.1916(3) 0.38423(13)
H11 H 0.4012 0.2091 0.3733
C11 C 0.5423(3) 0.0789(3) 0.42041(15)
H12 H 0.5199 0.0102 0.3930
H13 H 0.4633 0.0754 0.4554
C12 C 0.7212(3) 0.0667(2) 0.44702(12)
H14 H 0.7269 0.1245 0.4823
C13 C 0.8339(3) 0.0479(3) 0.33352(12)
H15 H 0.8478 -0.0377 0.3398
H16 H 0.9192 0.0770 0.3051
H17 H 0.7250 0.0634 0.3157
C14 C 0.8495(3) 0.1136(2) 0.39760(11)
C15 C 1.0321(3) 0.0959(2) 0.42188(13)
H18 H 1.1087 0.1096 0.3862
C16 C 1.0628(3) -0.0302(2) 0.44696(16)
H19 H 1.0508 -0.0883 0.4127
H20 H 1.1768 -0.0358 0.4630
C17 C 0.9410(4) -0.0611(3) 0.49920(16)
H21 H 0.9548 -0.0035 0.5336
H22 H 0.9677 -0.1410 0.5156
C18 C 0.7566(4) -0.0596(2) 0.47737(15)
C19 C 0.6454(4) -0.0717(3) 0.53656(18)
H23 H 0.5296 -0.0768 0.5240
H24 H 0.6610 -0.0023 0.5633
H25 H 0.6760 -0.1437 0.5594
C20 C 0.7221(5) -0.1698(3) 0.43509(19)
H26 H 0.7964 -0.1682 0.3992
H27 H 0.6077 -0.1676 0.4207
H28 H 0.7408 -0.2428 0.4589
O1 O 0.4316(3) 0.4098(3) 0.32765(15)
O2 O 0.83250(18) 0.32176(15) 0.44395(7)
H29 H 0.7462 0.3185 0.4652
O3 O 1.0770(2) 0.17785(17) 0.47156(9)
H30 H 1.0069 0.2322 0.4737
loop_
_geom_bond_atom_site_label_1
_geom_bond_atom_site_label_2
_geom_bond_site_symmetry_1
_geom_bond_site_symmetry_2
C1 H1 1_555 1_555
H2 C1 1_555 1_555
C2 C1 1_555 1_555
H3 C2 1_555 1_555
C3 H4 1_555 1_555
H5 C3 1_555 1_555
H6 C3 1_555 1_555
C4 C2 1_555 1_555
C5 C4 1_555 1_555
H7 C5 1_555 1_555
H8 C5 1_555 1_555
C6 C5 1_555 1_555
H9 C6 1_555 1_555
H10 C6 1_555 1_555
C7 C6 1_555 1_555
C8 C7 1_555 1_555
C9 C4 1_555 1_555
C10 C8 1_555 1_555
H11 C10 1_555 1_555
C11 C10 1_555 1_555
H12 C11 1_555 1_555
H13 C11 1_555 1_555
C12 C11 1_555 1_555
H14 C12 1_555 1_555
C13 H15 1_555 1_555
H16 C13 1_555 1_555
H17 C13 1_555 1_555
C14 C7 1_555 1_555
C15 C14 1_555 1_555
H18 C15 1_555 1_555
C16 C15 1_555 1_555
H19 C16 1_555 1_555
H20 C16 1_555 1_555
C17 C16 1_555 1_555
H21 C17 1_555 1_555
H22 C17 1_555 1_555
C18 C12 1_555 1_555
C19 C18 1_555 1_555
H23 C19 1_555 1_555
H24 C19 1_555 1_555
H25 C19 1_555 1_555
C20 C18 1_555 1_555
H26 C20 1_555 1_555
H27 C20 1_555 1_555
H28 C20 1_555 1_555
O1 C9 1_555 1_555
O2 C7 1_555 1_555
H29 O2 1_555 1_555
O3 C15 1_555 1_555
H30 O3 1_555 1_555
C3 C4 1_555 1_555
C8 C9 1_555 1_555
C12 C14 1_555 1_555
C13 C14 1_555 1_555
C17 C18 1_555 1_555

#END
