
#######################################################################
#
#                 Cambridge Crystallographic Data Centre
#                                CCDC 
#
#######################################################################
#
# If this CIF has been generated from an entry in the Cambridge 
# Structural Database, then it will include bibliographic, chemical, 
# crystal, experimental, refinement or atomic coordinate data resulting 
# from the CCDC's data processing and validation procedures.
#
#######################################################################

data_RIMKAB01
_chemical_compound_source        'Cephaloziella kiaeri'
_chemical_name_common            'Cephaloziellin I'
_chemical_formula_moiety         'C20 H22 O7'
_chemical_name_systematic        
8a-Hydroxy-2,8b-dimethyl-2-(5-oxo-2,3,4,5-tetrahydro-2,3'-bifuran-4-yl)-3,3a,7,8,8a,8b-hexahydrofuro[2,3,4-de]chromen-5(2H)-one
_symmetry_cell_setting           orthorhombic
_symmetry_space_group_name_H-M   'P 21 21 21'
_symmetry_Int_Tables_number      19
_space_group_name_Hall           'P 2ac 2ab'
loop_
_symmetry_equiv_pos_site_id
_symmetry_equiv_pos_as_xyz
1 x,y,z
2 1/2-x,-y,1/2+z
3 1/2+x,1/2-y,-z
4 -x,1/2+y,1/2-z
_cell_length_a                   8.237(7)
_cell_length_b                   23.983(19)
_cell_length_c                   9.258(7)
_cell_angle_alpha                90
_cell_angle_beta                 90
_cell_angle_gamma                90
_cell_volume                     1828.9
_exptl_crystal_colour            colorless
_exptl_crystal_description       plate
_cell_formula_units_Z            4
loop_
_atom_site_label
_atom_site_type_symbol
_atom_site_fract_x
_atom_site_fract_y
_atom_site_fract_z
C1 C 0.6427(8) 0.0571(3) 0.5870(9)
H1 H 0.7497 0.0720 0.5665
H2 H 0.6419 0.0186 0.5550
C2 C 0.5197(9) 0.0892(4) 0.4985(10)
H3 H 0.5263 0.0775 0.3984
H4 H 0.5446 0.1287 0.5029
C3 C 0.3486(9) 0.0793(4) 0.5547(9)
H5 H 0.2600 0.0914 0.5009
C4 C 0.3249(8) 0.0536(3) 0.6792(9)
C5 C 0.4476(8) 0.0321(3) 0.7820(8)
C6 C 0.3711(8) 0.0539(4) 0.9234(9)
H6 H 0.4059 0.0318 1.0070
C7 C 0.3956(9) 0.1136(4) 0.9476(10)
H7 H 0.3598 0.1231 1.0443
H8 H 0.3295 0.1345 0.8797
C8 C 0.5722(9) 0.1306(3) 0.9297(8)
C9 C 0.5860(10) 0.1935(4) 0.9278(9)
H9 H 0.5552 0.2087 1.0223
C10 C 0.6168(8) 0.0579(3) 0.7521(8)
C11 C 0.4899(10) 0.2226(4) 0.8092(9)
H10 H 0.4849 0.1995 0.7232
H11 H 0.3801 0.2304 0.8412
C12 C 0.5816(12) 0.2764(4) 0.7790(10)
H12 H 0.5465 0.3058 0.8454
C13 C 0.5663(13) 0.2953(4) 0.6280(12)
C14 C 0.4499(13) 0.3294(4) 0.5594(16)
H13 H 0.3657 0.3471 0.6082
C15 C 0.4716(15) 0.3333(5) 0.4283(15)
H14 H 0.4062 0.3533 0.3650
C16 C 0.6575(17) 0.2818(5) 0.5168(12)
H15 H 0.7489 0.2592 0.5246
C17 C 0.6719(12) 0.1061(4) 1.0512(10)
H16 H 0.7852 0.1118 1.0316
H17 H 0.6502 0.0669 1.0589
H18 H 0.6438 0.1242 1.1403
C18 C 0.1668(10) 0.0484(4) 0.7502(10)
C19 C 0.4520(10) -0.0304(3) 0.7791(11)
H19 H 0.4868 -0.0428 0.6855
H20 H 0.3454 -0.0448 0.7988
H21 H 0.5264 -0.0437 0.8511
C20 C 0.7587(12) 0.2153(4) 0.8845(10)
O1 O 0.6067(15) 0.3036(4) 0.3898(9)
O2 O 0.7494(7) 0.2608(3) 0.8082(8)
O3 O 0.8866(8) 0.1968(3) 0.9256(8)
O4 O 0.6260(5) 0.1143(2) 0.7874(5)
O5 O 0.7296(6) 0.0252(3) 0.8166(7)
H22 H 0.8184 0.0306 0.7789
O6 O 0.1920(6) 0.0448(2) 0.8899(6)
O7 O 0.0323(6) 0.0457(3) 0.6981(9)
loop_
_geom_bond_atom_site_label_1
_geom_bond_atom_site_label_2
_geom_bond_site_symmetry_1
_geom_bond_site_symmetry_2
C1 H1 1_555 1_555
H2 C1 1_555 1_555
C2 C1 1_555 1_555
H3 C2 1_555 1_555
H4 C2 1_555 1_555
C3 C2 1_555 1_555
H5 C3 1_555 1_555
C4 C3 1_555 1_555
C5 C4 1_555 1_555
C6 C5 1_555 1_555
H6 C6 1_555 1_555
C7 C6 1_555 1_555
H7 C7 1_555 1_555
H8 C7 1_555 1_555
C8 C7 1_555 1_555
C9 C8 1_555 1_555
H9 C9 1_555 1_555
C10 C1 1_555 1_555
C11 C9 1_555 1_555
H10 C11 1_555 1_555
H11 C11 1_555 1_555
C12 C11 1_555 1_555
H12 C12 1_555 1_555
C13 C12 1_555 1_555
C14 C13 1_555 1_555
H13 C14 1_555 1_555
C15 C14 1_555 1_555
H14 C15 1_555 1_555
C16 C13 1_555 1_555
H15 C16 1_555 1_555
C17 C8 1_555 1_555
H16 C17 1_555 1_555
H17 C17 1_555 1_555
H18 C17 1_555 1_555
C18 C4 1_555 1_555
C19 C5 1_555 1_555
H19 C19 1_555 1_555
H20 C19 1_555 1_555
H21 C19 1_555 1_555
C20 C9 1_555 1_555
O1 C15 1_555 1_555
O2 C12 1_555 1_555
O3 C20 1_555 1_555
O4 C8 1_555 1_555
O5 C10 1_555 1_555
H22 O5 1_555 1_555
O6 C6 1_555 1_555
O7 C18 1_555 1_555
C5 C10 1_555 1_555
C10 O4 1_555 1_555
C16 O1 1_555 1_555
C18 O6 1_555 1_555
C20 O2 1_555 1_555

#END
