
#######################################################################
#
#                 Cambridge Crystallographic Data Centre
#                                CCDC 
#
#######################################################################
#
# If this CIF has been generated from an entry in the Cambridge 
# Structural Database, then it will include bibliographic, chemical, 
# crystal, experimental, refinement or atomic coordinate data resulting 
# from the CCDC's data processing and validation procedures.
#
#######################################################################

data_RIMKUV
_chemical_compound_source        'whole plants of Salvia cavaleriei'
_chemical_formula_moiety         'C23 H34 O7'
_chemical_name_systematic        
7\a,14\b-Dihydroxy-17\b-methoxymethyl-3\b-acetoxy-ent-kaur-11,15-dione
_chemical_properties_biological  'cytotoxic activity'
_symmetry_cell_setting           orthorhombic
_symmetry_space_group_name_H-M   'P 21 21 21'
_symmetry_Int_Tables_number      19
_space_group_name_Hall           'P 2ac 2ab'
loop_
_symmetry_equiv_pos_site_id
_symmetry_equiv_pos_as_xyz
1 x,y,z
2 1/2+x,1/2-y,-z
3 -x,1/2+y,1/2-z
4 1/2-x,-y,1/2+z
_cell_length_a                   6.71180(10)
_cell_length_b                   13.4388(2)
_cell_length_c                   23.6639(4)
_cell_angle_alpha                90
_cell_angle_beta                 90
_cell_angle_gamma                90
_cell_volume                     2134.45
_chemical_melting_point          '165-167 deg.C'
_cell_formula_units_Z            4
loop_
_atom_site_label
_atom_site_type_symbol
_atom_site_fract_x
_atom_site_fract_y
_atom_site_fract_z
C1 C 0.2547(6) 0.8243(2) 0.12083(16)
H1 H 0.1208 0.8252 0.1363
H2 H 0.2606 0.7721 0.0926
C2 C 0.4000(6) 0.8010(3) 0.16735(18)
H3 H 0.5331 0.7966 0.1516
H4 H 0.3672 0.7368 0.1836
C3 C 0.3978(6) 0.8798(3) 0.21377(17)
H5 H 0.4977 0.8630 0.2424
C4 C 0.4366(6) 0.9863(3) 0.19178(18)
C5 C 0.3002(5) 1.0067(2) 0.13933(15)
H6 H 0.1643 1.0066 0.1545
C6 C 0.3269(5) 1.1105(2) 0.11432(15)
H7 H 0.3410 1.1590 0.1444
H8 H 0.4464 1.1125 0.0913
C7 C 0.1480(5) 1.1354(2) 0.07874(15)
H9 H 0.0291 1.1309 0.1027
C8 C 0.1216(5) 1.0633(2) 0.02858(15)
C9 C 0.1179(5) 0.9540(2) 0.05310(16)
H10 H 0.0002 0.9512 0.0775
C10 C 0.2980(5) 0.9258(2) 0.09226(14)
C11 C 0.0782(6) 0.8785(3) 0.00607(17)
C12 C 0.1527(6) 0.9006(3) -0.05261(16)
H11 H 0.0719 0.8645 -0.0797
H12 H 0.2887 0.8768 -0.0561
C13 C 0.1470(5) 1.0116(3) -0.06700(15)
H13 H 0.2030 1.0235 -0.1047
C14 C 0.2625(5) 1.0704(2) -0.02217(14)
H14 H 0.3909 1.0389 -0.0139
C15 C -0.0789(5) 1.0790(2) 0.00033(12)
C16 C -0.0622(5) 1.0560(3) -0.06255(17)
H15 H -0.0604 1.1198 -0.0826
C17 C -0.2386(6) 0.9981(3) -0.08430(15)
H16 H -0.2522 0.9370 -0.0629
H17 H -0.3590 1.0370 -0.0790
C18 C 0.3849(6) 1.0598(3) 0.23999(15)
H18 H 0.4431 1.0368 0.2747
H19 H 0.2429 1.0637 0.2442
H20 H 0.4367 1.1245 0.2310
C19 C 0.6598(6) 0.9960(3) 0.17884(19)
H21 H 0.7338 0.9952 0.2136
H22 H 0.6839 1.0575 0.1594
H23 H 0.7013 0.9413 0.1555
C20 C 0.4933(6) 0.9149(2) 0.05977(17)
H24 H 0.5448 0.9796 0.0508
H25 H 0.4698 0.8785 0.0255
H26 H 0.5881 0.8796 0.0826
C21 C -0.0450(9) 0.8085(4) 0.2968(2)
H27 H -0.1131 0.7621 0.2728
H28 H -0.1039 0.8732 0.2926
H29 H -0.0562 0.7873 0.3354
C22 C 0.1679(9) 0.8131(3) 0.2806(2)
C23 C -0.3882(6) 0.9302(3) -0.16458(18)
H30 H -0.4193 0.8713 -0.1433
H31 H -0.3646 0.9126 -0.2033
H32 H -0.4979 0.9759 -0.1625
O1 O 0.2958(8) 0.7624(3) 0.30026(18)
O2 O 0.1999(4) 0.87771(19) 0.23934(10)
O3 O 0.1650(4) 1.23658(16) 0.05845(10)
H33 H 0.054(3) 1.260(3) 0.0510(17)
O4 O -0.0170(4) 0.80396(18) 0.01593(12)
O5 O 0.2893(4) 1.17055(16) -0.04152(10)
H34 H 0.255(6) 1.207(3) -0.0154(12)
O6 O -0.2309(4) 1.10443(16) 0.02359(10)
O7 O -0.2156(4) 0.9755(2) -0.14187(11)
loop_
_geom_bond_atom_site_label_1
_geom_bond_atom_site_label_2
_geom_bond_site_symmetry_1
_geom_bond_site_symmetry_2
C1 H1 1_555 1_555
H2 C1 1_555 1_555
C2 C1 1_555 1_555
H3 C2 1_555 1_555
H4 C2 1_555 1_555
C3 C2 1_555 1_555
H5 C3 1_555 1_555
C4 C3 1_555 1_555
C5 C4 1_555 1_555
H6 C5 1_555 1_555
C6 C5 1_555 1_555
H7 C6 1_555 1_555
H8 C6 1_555 1_555
C7 C6 1_555 1_555
H9 C7 1_555 1_555
C8 C7 1_555 1_555
C9 C8 1_555 1_555
H10 C9 1_555 1_555
C10 C1 1_555 1_555
C11 C9 1_555 1_555
C12 C11 1_555 1_555
H11 C12 1_555 1_555
H12 C12 1_555 1_555
C13 C12 1_555 1_555
H13 C13 1_555 1_555
C14 C8 1_555 1_555
H14 C14 1_555 1_555
C15 C8 1_555 1_555
C16 C13 1_555 1_555
H15 C16 1_555 1_555
C17 C16 1_555 1_555
H16 C17 1_555 1_555
H17 C17 1_555 1_555
C18 C4 1_555 1_555
H18 C18 1_555 1_555
H19 C18 1_555 1_555
H20 C18 1_555 1_555
C19 C4 1_555 1_555
H21 C19 1_555 1_555
H22 C19 1_555 1_555
H23 C19 1_555 1_555
C20 C10 1_555 1_555
H24 C20 1_555 1_555
H25 C20 1_555 1_555
H26 C20 1_555 1_555
C21 H27 1_555 1_555
H28 C21 1_555 1_555
H29 C21 1_555 1_555
C22 C21 1_555 1_555
C23 H30 1_555 1_555
H31 C23 1_555 1_555
H32 C23 1_555 1_555
O1 C22 1_555 1_555
O2 C3 1_555 1_555
O3 C7 1_555 1_555
H33 O3 1_555 1_555
O4 C11 1_555 1_555
O5 C14 1_555 1_555
H34 O5 1_555 1_555
O6 C15 1_555 1_555
O7 C17 1_555 1_555
C5 C10 1_555 1_555
C9 C10 1_555 1_555
C13 C14 1_555 1_555
C15 C16 1_555 1_555
C22 O2 1_555 1_555
C23 O7 1_555 1_555

#END
