
#######################################################################
#
#                 Cambridge Crystallographic Data Centre
#                                CCDC 
#
#######################################################################
#
# If this CIF has been generated from an entry in the Cambridge 
# Structural Database, then it will include bibliographic, chemical, 
# crystal, experimental, refinement or atomic coordinate data resulting 
# from the CCDC's data processing and validation procedures.
#
#######################################################################

data_RIMLAC
_chemical_compound_source        'whole plants of Salvia cavaleriei'
_chemical_name_common            '11alpha,12alpha-Epoxyleukamenin monohydrate'
_chemical_formula_moiety         'C22 H30 O6,H2 O1'
_chemical_name_systematic        
'7,14-Dihydroxy-15-oxo-11,12-epoxykaur-16-en-3-yl acetate monohydrate'
_chemical_properties_biological  'cytotoxic activity'
_symmetry_cell_setting           orthorhombic
_symmetry_space_group_name_H-M   'P 21 21 21'
_symmetry_Int_Tables_number      19
_space_group_name_Hall           'P 2ac 2ab'
loop_
_symmetry_equiv_pos_site_id
_symmetry_equiv_pos_as_xyz
1 x,y,z
2 1/2+x,1/2-y,-z
3 -x,1/2+y,1/2-z
4 1/2-x,-y,1/2+z
_cell_length_a                   7.5766(2)
_cell_length_b                   10.6290(2)
_cell_length_c                   26.1402(5)
_cell_angle_alpha                90
_cell_angle_beta                 90
_cell_angle_gamma                90
_cell_volume                     2105.11
_chemical_melting_point          '197-198 deg.C'
_cell_formula_units_Z            4
loop_
_atom_site_label
_atom_site_type_symbol
_atom_site_fract_x
_atom_site_fract_y
_atom_site_fract_z
C1 C 0.9549(3) 0.34597(18) 0.94100(7)
H1 H 0.8509 0.3743 0.9593
H2 H 0.9253 0.2679 0.9238
C2 C 1.1027(3) 0.3213(2) 0.97922(8)
H3 H 1.0631 0.2601 1.0042
H4 H 1.2035 0.2861 0.9614
C3 C 1.1586(3) 0.4404(2) 1.00658(8)
H5 H 1.2547 0.4209 1.0304
C4 C 1.2167(3) 0.5461(2) 0.97066(8)
C5 C 1.0761(3) 0.56458(16) 0.92787(7)
H6 H 0.9732 0.5998 0.9455
C6 C 1.1244(3) 0.66287(18) 0.88773(8)
H7 H 1.1770 0.7352 0.9045
H8 H 1.2112 0.6278 0.8645
C7 C 0.9642(3) 0.70477(17) 0.85766(7)
H9 H 0.8900 0.7531 0.8812
C8 C 0.8466(2) 0.60038(16) 0.83490(7)
C9 C 0.8312(2) 0.48695(15) 0.87350(6)
H10 H 0.7572 0.5196 0.9013
C10 C 1.0055(3) 0.44525(15) 0.90071(6)
C11 C 0.7256(3) 0.37842(17) 0.85171(7)
H11 H 0.6506 0.3340 0.8764
C12 C 0.6610(3) 0.37850(19) 0.79895(8)
H12 H 0.5476 0.3369 0.7927
C13 C 0.7024(3) 0.4912(2) 0.76644(7)
H13 H 0.6931 0.4726 0.7298
C14 C 0.8809(3) 0.54820(18) 0.78037(7)
H14 H 0.9743 0.4844 0.7805
C15 C 0.6588(3) 0.65415(18) 0.82771(7)
C16 C 0.5732(3) 0.5909(2) 0.78307(7)
C17 C 0.4136(3) 0.6173(3) 0.76618(10)
H15 H 0.3465 0.6789 0.7823
H16 H 0.3681 0.5743 0.7381
C18 C 1.4029(3) 0.5150(3) 0.95068(9)
H17 H 1.4391 0.5784 0.9267
H18 H 1.4013 0.4345 0.9341
H19 H 1.4842 0.5129 0.9788
C19 C 1.2343(3) 0.6692(2) 1.00172(9)
H20 H 1.3035 0.6538 1.0318
H21 H 1.1192 0.6983 1.0115
H22 H 1.2913 0.7321 0.9811
C20 C 1.1396(3) 0.38595(19) 0.86328(8)
H23 H 1.2378 0.3528 0.8822
H24 H 1.1808 0.4490 0.8398
H25 H 1.0837 0.3193 0.8446
C21 C 0.8269(4) 0.4993(3) 1.10790(10)
H26 H 0.7813 0.4364 1.1307
H27 H 0.7418 0.5163 1.0816
H28 H 0.8504 0.5751 1.1267
C22 C 0.9922(3) 0.45333(18) 1.08439(8)
O1 O 1.1018(3) 0.3934(2) 1.10619(7)
O2 O 1.00599(19) 0.48512(15) 1.03528(5)
O3 O 1.0201(2) 0.79019(12) 0.81829(5)
H29 H 0.9774 0.8599 0.8236
O4 O 0.8058(2) 0.29937(12) 0.81253(5)
O5 O 0.9155(2) 0.64435(13) 0.74359(5)
H30 H 0.9683 0.7025 0.7574
O6 O 0.5908(2) 0.73352(15) 0.85442(6)
O7 O 0.9213(3) 0.02724(18) 0.83974(9)
H31 H 0.950(5) 0.079(3) 0.8167(11)
H32 H 0.818(3) 0.045(4) 0.8502(15)
loop_
_geom_bond_atom_site_label_1
_geom_bond_atom_site_label_2
_geom_bond_site_symmetry_1
_geom_bond_site_symmetry_2
C1 H1 1_555 1_555
H2 C1 1_555 1_555
C2 C1 1_555 1_555
H3 C2 1_555 1_555
H4 C2 1_555 1_555
C3 C2 1_555 1_555
H5 C3 1_555 1_555
C4 C3 1_555 1_555
C5 C4 1_555 1_555
H6 C5 1_555 1_555
C6 C5 1_555 1_555
H7 C6 1_555 1_555
H8 C6 1_555 1_555
C7 C6 1_555 1_555
H9 C7 1_555 1_555
C8 C7 1_555 1_555
C9 C8 1_555 1_555
H10 C9 1_555 1_555
C10 C1 1_555 1_555
C11 C9 1_555 1_555
H11 C11 1_555 1_555
C12 C11 1_555 1_555
H12 C12 1_555 1_555
C13 C12 1_555 1_555
H13 C13 1_555 1_555
C14 C8 1_555 1_555
H14 C14 1_555 1_555
C15 C8 1_555 1_555
C16 C13 1_555 1_555
C17 C16 1_555 1_555
H15 C17 1_555 1_555
H16 C17 1_555 1_555
C18 C4 1_555 1_555
H17 C18 1_555 1_555
H18 C18 1_555 1_555
H19 C18 1_555 1_555
C19 C4 1_555 1_555
H20 C19 1_555 1_555
H21 C19 1_555 1_555
H22 C19 1_555 1_555
C20 C10 1_555 1_555
H23 C20 1_555 1_555
H24 C20 1_555 1_555
H25 C20 1_555 1_555
C21 H26 1_555 1_555
H27 C21 1_555 1_555
H28 C21 1_555 1_555
C22 C21 1_555 1_555
O1 C22 1_555 1_555
O2 C3 1_555 1_555
O3 C7 1_555 1_555
H29 O3 1_555 1_555
O4 C11 1_555 1_555
O5 C14 1_555 1_555
H30 O5 1_555 1_555
O6 C15 1_555 1_555
O7 H31 1_555 1_555
H32 O7 1_555 1_555
C5 C10 1_555 1_555
C9 C10 1_555 1_555
C12 O4 1_555 1_555
C13 C14 1_555 1_555
C15 C16 1_555 1_555
C22 O2 1_555 1_555

#END
