
#######################################################################
#
#                 Cambridge Crystallographic Data Centre
#                                CCDC 
#
#######################################################################
#
# If this CIF has been generated from an entry in the Cambridge 
# Structural Database, then it will include bibliographic, chemical, 
# crystal, experimental, refinement or atomic coordinate data resulting 
# from the CCDC's data processing and validation procedures.
#
#######################################################################

data_RIMLOR
_chemical_formula_moiety         'C23 H21 N1 O3 S1'
_chemical_name_systematic        
N-benzyl-N-[1-phenyl-2-(phenylsulfonyl)ethenyl]acetamide
_symmetry_cell_setting           monoclinic
_symmetry_space_group_name_H-M   'I a'
_symmetry_Int_Tables_number      9
_space_group_name_Hall           'I -2ya'
loop_
_symmetry_equiv_pos_site_id
_symmetry_equiv_pos_as_xyz
1 x,y,z
2 1/2+x,-y,z
3 1/2+x,1/2+y,1/2+z
4 x,1/2-y,1/2+z
_cell_length_a                   8.3257(7)
_cell_length_b                   15.1988(12)
_cell_length_c                   16.3404(13)
_cell_angle_alpha                90
_cell_angle_beta                 95.005(4)
_cell_angle_gamma                90
_cell_volume                     2059.84
_exptl_crystal_colour            colorless
_exptl_crystal_description       block
_cell_formula_units_Z            4
loop_
_atom_site_label
_atom_site_type_symbol
_atom_site_fract_x
_atom_site_fract_y
_atom_site_fract_z
S1 S 1.23320(9) 0.25175(5) 0.52901(6)
O1 O 0.6824(4) 0.47750(17) 0.5567(2)
O2 O 1.3543(4) 0.2852(3) 0.47883(17)
O3 O 1.1923(4) 0.15987(18) 0.5269(2)
N1 N 0.7897(3) 0.36180(15) 0.49485(16)
C1 C 1.2952(3) 0.27913(19) 0.63219(18)
C2 C 1.3970(5) 0.3497(2) 0.6488(2)
H1 H 1.4336 0.3829 0.6064
C3 C 1.4440(6) 0.3700(3) 0.7305(3)
H2 H 1.5142 0.4167 0.7430
C4 C 1.3866(7) 0.3211(3) 0.7931(2)
H3 H 1.4168 0.3356 0.8475
C5 C 1.2875(9) 0.2527(4) 0.7757(3)
H4 H 1.2505 0.2201 0.8184
C6 C 1.2394(6) 0.2299(3) 0.6953(3)
H5 H 1.1709 0.1823 0.6837
C7 C 1.0637(3) 0.31907(17) 0.50847(17)
H6 H 1.0835 0.3793 0.5090
C8 C 0.9099(3) 0.29527(15) 0.49216(16)
C9 C 0.8481(3) 0.20648(16) 0.46740(19)
C10 C 0.7168(5) 0.1717(3) 0.5038(3)
H7 H 0.6640 0.2045 0.5414
C11 C 0.6659(7) 0.0856(4) 0.4825(4)
H8 H 0.5812 0.0608 0.5079
C12 C 0.7372(7) 0.0386(3) 0.4260(4)
H9 H 0.7032 -0.0186 0.4139
C13 C 0.8592(6) 0.0746(2) 0.3866(3)
H10 H 0.9047 0.0427 0.3459
C14 C 0.9164(4) 0.1591(2) 0.4070(2)
H11 H 0.9999 0.1832 0.3801
C15 C 0.7776(4) 0.41647(18) 0.5612(2)
C16 C 0.8779(6) 0.3973(3) 0.6404(2)
H12 H 0.9834 0.4221 0.6383
H13 H 0.8868 0.3348 0.6480
H14 H 0.8273 0.4227 0.6855
C17 C 0.6769(4) 0.3726(2) 0.4203(2)
H15 H 0.5949 0.4152 0.4315
H16 H 0.6234 0.3169 0.4076
C18 C 0.7589(3) 0.4025(2) 0.3470(2)
C19 C 0.7703(6) 0.3460(3) 0.2817(3)
H17 H 0.7295 0.2892 0.2840
C20 C 0.8428(10) 0.3736(5) 0.2126(4)
H18 H 0.8522 0.3348 0.1693
C21 C 0.8988(8) 0.4555(6) 0.2082(4)
H19 H 0.9440 0.4741 0.1610
C22 C 0.8903(7) 0.5132(4) 0.2736(4)
H20 H 0.9314 0.5699 0.2707
C23 C 0.8203(5) 0.4860(3) 0.3429(3)
H21 H 0.8148 0.5244 0.3869
loop_
_geom_bond_atom_site_label_1
_geom_bond_atom_site_label_2
_geom_bond_site_symmetry_1
_geom_bond_site_symmetry_2
S1 O2 1_555 1_555
O1 C15 1_555 1_555
O3 S1 1_555 1_555
N1 C8 1_555 1_555
C1 S1 1_555 1_555
C2 C1 1_555 1_555
H1 C2 1_555 1_555
C3 C2 1_555 1_555
H2 C3 1_555 1_555
C4 C3 1_555 1_555
H3 C4 1_555 1_555
C5 C4 1_555 1_555
H4 C5 1_555 1_555
C6 C1 1_555 1_555
H5 C6 1_555 1_555
C7 S1 1_555 1_555
H6 C7 1_555 1_555
C8 C7 1_555 1_555
C9 C8 1_555 1_555
C10 C9 1_555 1_555
H7 C10 1_555 1_555
C11 C10 1_555 1_555
H8 C11 1_555 1_555
C12 C11 1_555 1_555
H9 C12 1_555 1_555
C13 C12 1_555 1_555
H10 C13 1_555 1_555
C14 C9 1_555 1_555
H11 C14 1_555 1_555
C15 N1 1_555 1_555
C16 C15 1_555 1_555
H12 C16 1_555 1_555
H13 C16 1_555 1_555
H14 C16 1_555 1_555
C17 N1 1_555 1_555
H15 C17 1_555 1_555
H16 C17 1_555 1_555
C18 C17 1_555 1_555
C19 C18 1_555 1_555
H17 C19 1_555 1_555
C20 C19 1_555 1_555
H18 C20 1_555 1_555
C21 C20 1_555 1_555
H19 C21 1_555 1_555
C22 C21 1_555 1_555
H20 C22 1_555 1_555
C23 C18 1_555 1_555
H21 C23 1_555 1_555
C5 C6 1_555 1_555
C13 C14 1_555 1_555
C22 C23 1_555 1_555

#END
