
#######################################################################
#
#                 Cambridge Crystallographic Data Centre
#                                CCDC 
#
#######################################################################
#
# If this CIF has been generated from an entry in the Cambridge 
# Structural Database, then it will include bibliographic, chemical, 
# crystal, experimental, refinement or atomic coordinate data resulting 
# from the CCDC's data processing and validation procedures.
#
#######################################################################

data_RIMLOQ
_chemical_compound_source        'whole plants of Salvia cavaleriei'
_chemical_name_common            
'11beta-Hydroxyleukamenin E methanol solvate monohydrate'
_chemical_formula_moiety         'C22 H32 O6,C1 H4 O1,H2 O1'
_chemical_name_systematic        
'7,11,14-Trihydroxy-15-oxokaur-16-en-3-yl acetate methanol solvate monohydrate'
_chemical_properties_biological  'cytotoxic activity'
_symmetry_cell_setting           orthorhombic
_symmetry_space_group_name_H-M   'P 21 21 21'
_symmetry_Int_Tables_number      19
_space_group_name_Hall           'P 2ac 2ab'
loop_
_symmetry_equiv_pos_site_id
_symmetry_equiv_pos_as_xyz
1 x,y,z
2 1/2+x,1/2-y,-z
3 -x,1/2+y,1/2-z
4 1/2-x,-y,1/2+z
_cell_length_a                   8.4307(2)
_cell_length_b                   11.7779(3)
_cell_length_c                   23.1333(5)
_cell_angle_alpha                90
_cell_angle_beta                 90
_cell_angle_gamma                90
_cell_volume                     2297.04
_chemical_melting_point          '201-202 deg.C'
_cell_formula_units_Z            4
loop_
_atom_site_label
_atom_site_type_symbol
_atom_site_fract_x
_atom_site_fract_y
_atom_site_fract_z
C1 C 0.54756(19) 1.07910(14) 0.76319(7)
H1 H 0.6096 1.1446 0.7748
H2 H 0.4921 1.0985 0.7278
C2 C 0.4258(2) 1.05267(14) 0.81040(7)
H3 H 0.3602 1.1192 0.8168
H4 H 0.3573 0.9917 0.7973
C3 C 0.5022(2) 1.01863(14) 0.86653(7)
H5 H 0.4197 0.9982 0.8945
C4 C 0.62130(19) 0.92007(14) 0.86114(7)
C5 C 0.73652(19) 0.94405(13) 0.80997(7)
H6 H 0.7964 1.0113 0.8221
C6 C 0.66066(19) 0.97866(12) 0.75116(6)
C7 C 0.8629(2) 0.85237(14) 0.80110(7)
H7 H 0.9018 0.8265 0.8383
H8 H 0.8169 0.7879 0.7811
C8 C 0.99933(19) 0.90034(13) 0.76581(7)
H9 H 1.0378 0.9675 0.7865
C9 C 0.94684(19) 0.94063(13) 0.70597(7)
C10 C 0.80101(19) 1.02303(13) 0.71283(7)
H10 H 0.8435 1.0877 0.7345
C11 C 0.75029(19) 1.07475(13) 0.65378(7)
H11 H 0.6387 1.0974 0.6565
C12 C 0.7689(2) 0.99641(16) 0.60154(8)
H12 H 0.7715 1.0423 0.5667
H13 H 0.6768 0.9473 0.5992
C13 C 0.9184(2) 0.92265(15) 0.60354(7)
H14 H 0.9275 0.8750 0.5690
C14 C 0.9130(2) 0.85050(13) 0.65880(7)
H15 H 0.8091 0.8146 0.6642
C15 C 1.0808(2) 1.00919(13) 0.67638(7)
C16 C 1.0650(2) 0.99276(14) 0.61263(7)
C17 C 1.1684(3) 1.03281(18) 0.57490(9)
H16 H 1.2562 1.0735 0.5876
H17 H 1.1533 1.0203 0.5356
C18 C 0.7157(2) 0.91201(18) 0.91773(8)
H18 H 0.6446 0.9195 0.9500
H19 H 0.7931 0.9717 0.9190
H20 H 0.7683 0.8398 0.9196
C19 C 0.5269(2) 0.80938(14) 0.85514(9)
H21 H 0.5978 0.7485 0.8454
H22 H 0.4490 0.8177 0.8252
H23 H 0.4749 0.7926 0.8911
C20 C 0.5634(2) 0.88426(15) 0.72160(7)
H24 H 0.4612 0.8786 0.7397
H25 H 0.6182 0.8132 0.7253
H26 H 0.5501 0.9022 0.6814
C21 C 0.6318(3) 1.2792(2) 0.94295(11)
H27 H 0.5738 1.3358 0.9641
H28 H 0.6817 1.3136 0.9100
H29 H 0.7114 1.2465 0.9675
C22 C 0.5216(2) 1.18928(17) 0.92330(8)
O1 O 0.3844(2) 1.18478(17) 0.93633(9)
O2 O 0.59233(14) 1.11638(10) 0.88848(5)
O3 O 1.12961(15) 0.82131(10) 0.76336(5)
H30 H 1.1259 0.7859 0.7329
O4 O 0.84327(15) 1.17422(9) 0.64230(5)
H31 H 0.8470 1.2138 0.6714
O5 O 1.03893(16) 0.76866(10) 0.65909(6)
H32 H 1.0100 0.7111 0.6422
O6 O 1.17937(15) 1.06561(11) 0.70103(6)
C23 C 0.0774(4) 0.8180(2) 0.98084(12)
H33 H 0.1619 0.7850 1.0030
H34 H 0.0002 0.7607 0.9718
H35 H 0.0280 0.8773 1.0029
O7 O 0.1373(3) 0.86239(13) 0.93051(7)
H36 H 0.1559 0.8108 0.9077
O8 O 0.4151(2) 0.90332(13) 0.40787(9)
H37 H 0.412(4) 0.9727(8) 0.4091(14)
H38 H 0.329(2) 0.878(2) 0.4182(13)
loop_
_geom_bond_atom_site_label_1
_geom_bond_atom_site_label_2
_geom_bond_site_symmetry_1
_geom_bond_site_symmetry_2
C1 H1 1_555 1_555
H2 C1 1_555 1_555
C2 C1 1_555 1_555
H3 C2 1_555 1_555
H4 C2 1_555 1_555
C3 C2 1_555 1_555
H5 C3 1_555 1_555
C4 C3 1_555 1_555
C5 C4 1_555 1_555
H6 C5 1_555 1_555
C6 C1 1_555 1_555
C7 C5 1_555 1_555
H7 C7 1_555 1_555
H8 C7 1_555 1_555
C8 C7 1_555 1_555
H9 C8 1_555 1_555
C9 C8 1_555 1_555
C10 C6 1_555 1_555
H10 C10 1_555 1_555
C11 C10 1_555 1_555
H11 C11 1_555 1_555
C12 C11 1_555 1_555
H12 C12 1_555 1_555
H13 C12 1_555 1_555
C13 C12 1_555 1_555
H14 C13 1_555 1_555
C14 C9 1_555 1_555
H15 C14 1_555 1_555
C15 C9 1_555 1_555
C16 C13 1_555 1_555
C17 C16 1_555 1_555
H16 C17 1_555 1_555
H17 C17 1_555 1_555
C18 C4 1_555 1_555
H18 C18 1_555 1_555
H19 C18 1_555 1_555
H20 C18 1_555 1_555
C19 C4 1_555 1_555
H21 C19 1_555 1_555
H22 C19 1_555 1_555
H23 C19 1_555 1_555
C20 C6 1_555 1_555
H24 C20 1_555 1_555
H25 C20 1_555 1_555
H26 C20 1_555 1_555
C21 H27 1_555 1_555
H28 C21 1_555 1_555
H29 C21 1_555 1_555
C22 C21 1_555 1_555
O1 C22 1_555 1_555
O2 C3 1_555 1_555
O3 C8 1_555 1_555
H30 O3 1_555 1_555
O4 C11 1_555 1_555
H31 O4 1_555 1_555
O5 C14 1_555 1_555
H32 O5 1_555 1_555
O6 C15 1_555 1_555
C23 H33 1_555 1_555
H34 C23 1_555 1_555
H35 C23 1_555 1_555
O7 C23 1_555 1_555
H36 O7 1_555 1_555
O8 H37 1_555 1_555
H38 O8 1_555 1_555
C5 C6 1_555 1_555
C9 C10 1_555 1_555
C13 C14 1_555 1_555
C15 C16 1_555 1_555
C22 O2 1_555 1_555

#END
