
#######################################################################
#
#                 Cambridge Crystallographic Data Centre
#                                CCDC 
#
#######################################################################
#
# If this CIF has been generated from an entry in the Cambridge 
# Structural Database, then it will include bibliographic, chemical, 
# crystal, experimental, refinement or atomic coordinate data resulting 
# from the CCDC's data processing and validation procedures.
#
#######################################################################

data_RIMNEI
_chemical_compound_source        'aerial parts of Isodon rosthornii'
_chemical_name_common            'isorosthin C'
_chemical_formula_moiety         'C23 H32 O7,C5 H5 N1'
_chemical_name_systematic        
'9-Hydroxy-11-methoxy-7,7-dimethyl-17-methylene-2-oxo-3,10-dioxapentacyclo[14.2.1.0^1,13^.0^4,12^.0^8,12^]nonadec-18-yl acetate pyridine solvate'
_symmetry_cell_setting           monoclinic
_symmetry_space_group_name_H-M   'P 21'
_symmetry_Int_Tables_number      4
_space_group_name_Hall           'P 2yb'
loop_
_symmetry_equiv_pos_site_id
_symmetry_equiv_pos_as_xyz
1 x,y,z
2 -x,1/2+y,-z
_cell_length_a                   10.84840(10)
_cell_length_b                   10.33650(10)
_cell_length_c                   11.66760(10)
_cell_angle_alpha                90
_cell_angle_beta                 93.35
_cell_angle_gamma                90
_cell_volume                     1306.1
_exptl_crystal_colour            colorless
_exptl_crystal_description       needle
_cell_formula_units_Z            2
loop_
_atom_site_label
_atom_site_type_symbol
_atom_site_fract_x
_atom_site_fract_y
_atom_site_fract_z
O1 O -0.10521(9) 0.26159(11) 0.16502(9)
O2 O -0.29590(12) 0.17802(17) 0.15420(14)
O3 O 0.28214(9) 0.39570(12) 0.10455(8)
H1 H 0.3177 0.3723 0.0459
O4 O 0.25492(9) 0.20874(11) 0.21000(9)
O5 O 0.19890(9) 0.12786(11) 0.38430(9)
O6 O 0.04876(9) 0.31758(11) 0.49801(8)
O7 O -0.13629(9) 0.24908(12) 0.44193(9)
C1 C 0.37905(14) 0.42252(18) 0.51866(13)
H2 H 0.4464 0.4077 0.5782
H3 H 0.3619 0.5166 0.5157
C2 C 0.26327(14) 0.35131(18) 0.55286(12)
H4 H 0.2771 0.2567 0.5517
H5 H 0.2429 0.3768 0.6313
C3 C 0.15889(12) 0.38765(16) 0.46732(12)
H6 H 0.1425 0.4822 0.4760
C4 C 0.18168(12) 0.36199(14) 0.34117(11)
C5 C 0.07834(12) 0.43769(15) 0.26956(12)
H7 H 0.0737 0.4006 0.1903
C6 C -0.05053(12) 0.41150(15) 0.32249(12)
C7 C -0.14739(13) 0.37102(17) 0.22792(13)
H8 H -0.2260 0.3479 0.2637
C8 C -0.18745(15) 0.16623(19) 0.14057(14)
C9 C -0.12586(19) 0.0502(2) 0.09459(17)
H9 H -0.1446 -0.0256 0.1409
H10 H -0.0364 0.0640 0.0978
H11 H -0.1560 0.0357 0.0148
C10 C -0.16674(13) 0.49207(18) 0.15836(14)
C11 C -0.20234(16) 0.4975(2) 0.04796(16)
H12 H -0.2180 0.4199 0.0059
H13 H -0.2122 0.5789 0.0108
C12 C -0.13039(13) 0.60500(17) 0.23729(14)
H14 H -0.1966 0.6723 0.2365
C13 C -0.00588(13) 0.66303(17) 0.20639(13)
H15 H 0.0005 0.7530 0.2353
H16 H -0.0022 0.6656 0.1218
C14 C 0.10389(12) 0.58305(15) 0.25848(12)
H17 H 0.1750 0.5948 0.2101
H18 H 0.1279 0.6179 0.3356
C15 C 0.42213(13) 0.37845(17) 0.40187(13)
C16 C 0.47161(14) 0.23930(18) 0.41101(14)
H19 H 0.5070 0.2150 0.3387
H20 H 0.4039 0.1802 0.4264
H21 H 0.5355 0.2340 0.4738
C17 C 0.31404(12) 0.40045(16) 0.30942(12)
H22 H 0.3128 0.4944 0.2890
C18 C 0.32710(12) 0.32366(15) 0.19891(12)
H23 H 0.4156 0.3005 0.1905
C19 C 0.17125(12) 0.22021(15) 0.29929(12)
H24 H 0.0854 0.2048 0.2662
C20 C 0.15307(15) 0.00338(17) 0.35058(14)
H25 H 0.0626 0.0039 0.3488
H26 H 0.1851 -0.0617 0.4057
H27 H 0.1800 -0.0176 0.2740
C21 C 0.52945(13) 0.46507(18) 0.36953(14)
H28 H 0.5025 0.5556 0.3674
H29 H 0.5559 0.4399 0.2938
H30 H 0.5986 0.4551 0.4267
C22 C -0.04983(12) 0.31800(16) 0.42321(12)
C23 C -0.11112(13) 0.54121(16) 0.35593(13)
H31 H -0.1904 0.5270 0.3919
H32 H -0.0555 0.5930 0.4082
N1 N 0.42202(13) 0.32591(17) 0.92694(12)
C24 C 0.56929(14) 0.40907(18) 0.80182(14)
H33 H 0.5983 0.4793 0.7583
C25 C 0.46669(15) 0.42244(18) 0.86464(14)
H34 H 0.4256 0.5036 0.8639
C26 C 0.48151(16) 0.21341(19) 0.92773(15)
H35 H 0.4507 0.1444 0.9716
C27 C 0.62911(14) 0.29116(18) 0.80341(15)
H36 H 0.6997 0.2787 0.7602
C28 C 0.58530(15) 0.19185(17) 0.86833(15)
H37 H 0.6258 0.1104 0.8720
loop_
_geom_bond_atom_site_label_1
_geom_bond_atom_site_label_2
_geom_bond_site_symmetry_1
_geom_bond_site_symmetry_2
O1 C7 1_555 1_555
O2 C8 1_555 1_555
O3 H1 1_555 1_555
O4 C18 1_555 1_555
O5 C19 1_555 1_555
O6 C3 1_555 1_555
O7 C22 1_555 1_555
C1 H2 1_555 1_555
H3 C1 1_555 1_555
C2 C1 1_555 1_555
H4 C2 1_555 1_555
H5 C2 1_555 1_555
C3 C2 1_555 1_555
H6 C3 1_555 1_555
C4 C3 1_555 1_555
C5 C4 1_555 1_555
H7 C5 1_555 1_555
C6 C5 1_555 1_555
C7 C6 1_555 1_555
H8 C7 1_555 1_555
C8 O1 1_555 1_555
C9 C8 1_555 1_555
H9 C9 1_555 1_555
H10 C9 1_555 1_555
H11 C9 1_555 1_555
C10 C7 1_555 1_555
C11 C10 1_555 1_555
H12 C11 1_555 1_555
H13 C11 1_555 1_555
C12 C10 1_555 1_555
H14 C12 1_555 1_555
C13 C12 1_555 1_555
H15 C13 1_555 1_555
H16 C13 1_555 1_555
C14 C5 1_555 1_555
H17 C14 1_555 1_555
H18 C14 1_555 1_555
C15 C1 1_555 1_555
C16 C15 1_555 1_555
H19 C16 1_555 1_555
H20 C16 1_555 1_555
H21 C16 1_555 1_555
C17 C4 1_555 1_555
H22 C17 1_555 1_555
C18 O3 1_555 1_555
H23 C18 1_555 1_555
C19 O4 1_555 1_555
H24 C19 1_555 1_555
C20 O5 1_555 1_555
H25 C20 1_555 1_555
H26 C20 1_555 1_555
H27 C20 1_555 1_555
C21 C15 1_555 1_555
H28 C21 1_555 1_555
H29 C21 1_555 1_555
H30 C21 1_555 1_555
C22 O6 1_555 1_555
C23 C6 1_555 1_555
H31 C23 1_555 1_555
H32 C23 1_555 1_555
N1 C25 1_555 1_555
C24 H33 1_555 1_555
C25 C24 1_555 1_555
H34 C25 1_555 1_555
C26 N1 1_555 1_555
H35 C26 1_555 1_555
C27 C24 1_555 1_555
H36 C27 1_555 1_555
C28 C26 1_555 1_555
H37 C28 1_555 1_555
C4 C19 1_555 1_555
C6 C22 1_555 1_555
C12 C23 1_555 1_555
C13 C14 1_555 1_555
C15 C17 1_555 1_555
C17 C18 1_555 1_555
C27 C28 1_555 1_555

#END
