
#######################################################################
#
#                 Cambridge Crystallographic Data Centre
#                                CCDC 
#
#######################################################################
#
# If this CIF has been generated from an entry in the Cambridge 
# Structural Database, then it will include bibliographic, chemical, 
# crystal, experimental, refinement or atomic coordinate data resulting 
# from the CCDC's data processing and validation procedures.
#
#######################################################################

data_RIMQIQ
_chemical_formula_moiety         'C20 H25 N3'
_chemical_name_systematic        2-(3,5-di-t-butyl-1H-pyrazol-1-yl)quinoline
_symmetry_cell_setting           monoclinic
_symmetry_space_group_name_H-M   'P 21/c'
_symmetry_Int_Tables_number      14
_space_group_name_Hall           '-P 2ybc'
loop_
_symmetry_equiv_pos_site_id
_symmetry_equiv_pos_as_xyz
1 x,y,z
2 -x,1/2+y,1/2-z
3 -x,-y,-z
4 x,1/2-y,1/2+z
_cell_length_a                   16.8273(18)
_cell_length_b                   10.3917(11)
_cell_length_c                   10.2445(11)
_cell_angle_alpha                90
_cell_angle_beta                 93.783(2)
_cell_angle_gamma                90
_cell_volume                     1787.49
_exptl_crystal_colour            colorless
_exptl_crystal_description       plate
_cell_formula_units_Z            4
loop_
_atom_site_label
_atom_site_type_symbol
_atom_site_fract_x
_atom_site_fract_y
_atom_site_fract_z
C1 C 0.16356(9) 0.15333(14) 0.30323(15)
C2 C 0.15705(10) 0.22713(14) 0.41870(15)
H1 H 0.2014 0.2730 0.4574
C3 C 0.08518(10) 0.22994(14) 0.47202(15)
H2 H 0.0785 0.2799 0.5482
C4 C 0.02006(9) 0.15859(14) 0.41447(15)
C5 C 0.03354(9) 0.08628(14) 0.30014(15)
C6 C -0.02953(10) 0.01185(14) 0.24081(16)
H3 H -0.0214 -0.0362 0.1639
C7 C -0.10208(10) 0.00886(15) 0.29372(16)
H4 H -0.1439 -0.0418 0.2537
C8 C -0.11523(10) 0.08050(15) 0.40739(17)
H5 H -0.1658 0.0778 0.4433
C9 C -0.05546(10) 0.15386(15) 0.46623(16)
H6 H -0.0650 0.2019 0.5425
C10 C 0.33976(10) 0.26013(15) 0.18402(16)
C11 C 0.34626(10) 0.13240(16) 0.13999(16)
H7 H 0.3882 0.0978 0.0931
C12 C 0.28028(9) 0.06724(15) 0.17779(15)
C13 C 0.39322(11) 0.37431(16) 0.16017(17)
C14 C 0.35590(14) 0.4496(2) 0.0445(3)
H8 H 0.3509 0.3937 -0.0327
H9 H 0.3897 0.5234 0.0266
H10 H 0.3031 0.4801 0.0650
C15 C 0.47438(13) 0.3282(2) 0.1234(4)
H11 H 0.4681 0.2745 0.0448
H12 H 0.4996 0.2776 0.1956
H13 H 0.5079 0.4026 0.1062
C16 C 0.4014(3) 0.4587(3) 0.2795(3)
H14 H 0.4348 0.5331 0.2619
H15 H 0.4260 0.4096 0.3531
H16 H 0.3486 0.4885 0.3012
C17 C 0.25972(10) -0.07371(15) 0.15121(16)
C18 C 0.33553(11) -0.14311(17) 0.11325(19)
H17 H 0.3537 -0.1051 0.0329
H18 H 0.3239 -0.2346 0.0987
H19 H 0.3773 -0.1339 0.1840
C19 C 0.19802(10) -0.08218(15) 0.03374(16)
H20 H 0.1474 -0.0456 0.0579
H21 H 0.1901 -0.1725 0.0085
H22 H 0.2173 -0.0338 -0.0400
C20 C 0.23022(11) -0.14283(15) 0.27142(16)
H23 H 0.2698 -0.1333 0.3454
H24 H 0.2224 -0.2344 0.2516
H25 H 0.1796 -0.1049 0.2941
N1 N 0.23737(8) 0.15731(12) 0.24324(13)
N2 N 0.27426(8) 0.27564(12) 0.24758(13)
N3 N 0.10535(8) 0.08651(12) 0.24472(12)
loop_
_geom_bond_atom_site_label_1
_geom_bond_atom_site_label_2
_geom_bond_site_symmetry_1
_geom_bond_site_symmetry_2
C1 C2 1_555 1_555
C2 H1 1_555 1_555
C3 C2 1_555 1_555
H2 C3 1_555 1_555
C4 C3 1_555 1_555
C5 C4 1_555 1_555
C6 C5 1_555 1_555
H3 C6 1_555 1_555
C7 C6 1_555 1_555
H4 C7 1_555 1_555
C8 C7 1_555 1_555
H5 C8 1_555 1_555
C9 C4 1_555 1_555
H6 C9 1_555 1_555
C10 C11 1_555 1_555
C11 H7 1_555 1_555
C12 C11 1_555 1_555
C13 C10 1_555 1_555
C14 C13 1_555 1_555
H8 C14 1_555 1_555
H9 C14 1_555 1_555
H10 C14 1_555 1_555
C15 C13 1_555 1_555
H11 C15 1_555 1_555
H12 C15 1_555 1_555
H13 C15 1_555 1_555
C16 C13 1_555 1_555
H14 C16 1_555 1_555
H15 C16 1_555 1_555
H16 C16 1_555 1_555
C17 C12 1_555 1_555
C18 C17 1_555 1_555
H17 C18 1_555 1_555
H18 C18 1_555 1_555
H19 C18 1_555 1_555
C19 C17 1_555 1_555
H20 C19 1_555 1_555
H21 C19 1_555 1_555
H22 C19 1_555 1_555
C20 C17 1_555 1_555
H23 C20 1_555 1_555
H24 C20 1_555 1_555
H25 C20 1_555 1_555
N1 C1 1_555 1_555
N2 C10 1_555 1_555
N3 C1 1_555 1_555
C5 N3 1_555 1_555
C8 C9 1_555 1_555
C12 N1 1_555 1_555
N1 N2 1_555 1_555

#END
