
#######################################################################
#
#                 Cambridge Crystallographic Data Centre
#                                CCDC 
#
#######################################################################
#
# If this CIF has been generated from an entry in the Cambridge 
# Structural Database, then it will include bibliographic, chemical, 
# crystal, experimental, refinement or atomic coordinate data resulting 
# from the CCDC's data processing and validation procedures.
#
#######################################################################

data_RIMQEL
_chemical_compound_source        'Cinnamomum wilsonii leaves'
_chemical_name_common            'lasianthionoside A'
_chemical_formula_moiety         'C19 H32 O9,2(H2 O1)'
_chemical_name_systematic        
'4-(1,4-Dihydroxy-2,2,6-trimethyl-5-((3,4,5-trihydroxy-6-(hydroxymethyl)tetrahydro-2H-pyran-2-yl)oxy)cyclohexyl)but-3-en-2-one dihydrate'
_symmetry_cell_setting           monoclinic
_symmetry_space_group_name_H-M   'P 21'
_symmetry_Int_Tables_number      4
_space_group_name_Hall           'P 2yb'
loop_
_symmetry_equiv_pos_site_id
_symmetry_equiv_pos_as_xyz
1 x,y,z
2 -x,1/2+y,-z
_cell_length_a                   11.2174(2)
_cell_length_b                   5.98460(10)
_cell_length_c                   16.7692(4)
_cell_angle_alpha                90
_cell_angle_beta                 98.3540(10)
_cell_angle_gamma                90
_cell_volume                     1113.8
_cell_formula_units_Z            2
_exptl_crystal_recrystallization_method 'methanol/ chloroform'
loop_
_atom_site_label
_atom_site_type_symbol
_atom_site_fract_x
_atom_site_fract_y
_atom_site_fract_z
C1 C 0.33927(15) 0.4885(3) 0.83679(10)
C2 C 0.31263(15) 0.4784(3) 0.74434(11)
H1 H 0.3832 0.5322 0.7230
H2 H 0.3016 0.3229 0.7286
C3 C 0.20370(16) 0.6092(3) 0.70387(11)
H3 H 0.1880 0.5635 0.6472
C4 C 0.09193(15) 0.5554(3) 0.74235(11)
H4 H 0.0285 0.6626 0.7225
C5 C 0.11418(15) 0.5661(3) 0.83412(11)
H5 H 0.1353 0.7212 0.8486
C6 C 0.22201(15) 0.4197(3) 0.87152(10)
C7 C 0.23874(16) 0.4487(3) 0.96104(11)
H6 H 0.2403 0.5943 0.9806
C8 C 0.25156(17) 0.2849(4) 1.01504(11)
H7 H 0.2500 0.1392 0.9956
C9 C 0.26780(15) 0.3140(4) 1.10218(11)
C10 C 0.2573(3) 0.5383(5) 1.13853(15)
H8 H 0.1737 0.5735 1.1384
H9 H 0.2931 0.6481 1.1077
H10 H 0.2982 0.5381 1.1929
C11 C 0.38368(17) 0.7205(4) 0.86682(12)
H11 H 0.4148 0.7128 0.9232
H12 H 0.3179 0.8245 0.8587
H13 H 0.4462 0.7694 0.8374
C12 C 0.44158(16) 0.3225(4) 0.86415(13)
H14 H 0.5144 0.3735 0.8462
H15 H 0.4205 0.1781 0.8414
H16 H 0.4538 0.3123 0.9219
C13 C -0.00097(18) 0.5135(5) 0.86906(13)
H17 H -0.0683 0.5841 0.8369
H18 H 0.0063 0.5685 0.9233
H19 H -0.0133 0.3547 0.8690
C14 C -0.04308(14) 0.3306(3) 0.65311(10)
H20 H -0.0303 0.4448 0.6133
C15 C -0.05019(15) 0.1009(3) 0.61448(10)
H21 H -0.0616 -0.0120 0.6550
C16 C -0.15658(15) 0.0946(3) 0.54665(10)
H22 H -0.1389 0.1918 0.5028
C17 C -0.27107(15) 0.1745(3) 0.57519(10)
H23 H -0.2993 0.0610 0.6102
C18 C -0.25130(14) 0.3952(3) 0.62094(10)
H24 H -0.2338 0.5129 0.5837
C19 C -0.35953(16) 0.4623(4) 0.65971(11)
H25 H -0.4313 0.4528 0.6199
H26 H -0.3687 0.3581 0.7027
O1 O 0.21841(11) 0.8460(2) 0.70628(8)
H27 H 0.2887 0.8772 0.7029
O2 O 0.05128(10) 0.3333(2) 0.71696(7)
O3 O 0.19711(11) 0.1872(2) 0.85628(7)
H28 H 0.1697 0.1697 0.8086
O4 O 0.29025(13) 0.1502(3) 1.14518(9)
O5 O 0.05572(11) 0.0504(2) 0.58036(8)
H29 H 0.1095 0.0116 0.6162
O6 O -0.17858(12) -0.1263(2) 0.51600(8)
H30 H -0.1185 -0.1727 0.4987
O7 O -0.35933(11) 0.2059(3) 0.50560(8)
H31 H -0.4269 0.1934 0.5183
O8 O -0.15112(10) 0.3737(2) 0.68462(6)
O9 O -0.34939(13) 0.6819(3) 0.69159(8)
H32 H -0.3239 0.6764 0.7399
O10 O 0.40884(15) 0.1748(4) 0.54198(12)
H33 H 0.351(2) 0.264(5) 0.538(2)
H34 H 0.382(3) 0.054(3) 0.521(2)
O12 O 0.45578(19) 0.9700(5) 0.69564(13)
H37 H 0.519(2) 0.904(6) 0.692(2)
H38 H 0.443(3) 1.061(6) 0.6582(19)
O11? O 0.4263(5) 0.8974(11) 0.6384(4)
H35? H 0.415(9) 0.798(12) 0.604(4)
H36? H 0.483(8) 0.864(17) 0.674(5)
loop_
_geom_bond_atom_site_label_1
_geom_bond_atom_site_label_2
_geom_bond_site_symmetry_1
_geom_bond_site_symmetry_2
C1 C2 1_555 1_555
C2 H1 1_555 1_555
H2 C2 1_555 1_555
C3 C2 1_555 1_555
H3 C3 1_555 1_555
C4 C3 1_555 1_555
H4 C4 1_555 1_555
C5 C4 1_555 1_555
H5 C5 1_555 1_555
C6 C1 1_555 1_555
C7 C6 1_555 1_555
H6 C7 1_555 1_555
C8 C7 1_555 1_555
H7 C8 1_555 1_555
C9 C8 1_555 1_555
C10 C9 1_555 1_555
H8 C10 1_555 1_555
H9 C10 1_555 1_555
H10 C10 1_555 1_555
C11 C1 1_555 1_555
H11 C11 1_555 1_555
H12 C11 1_555 1_555
H13 C11 1_555 1_555
C12 C1 1_555 1_555
H14 C12 1_555 1_555
H15 C12 1_555 1_555
H16 C12 1_555 1_555
C13 C5 1_555 1_555
H17 C13 1_555 1_555
H18 C13 1_555 1_555
H19 C13 1_555 1_555
C14 H20 1_555 1_555
C15 C14 1_555 1_555
H21 C15 1_555 1_555
C16 C15 1_555 1_555
H22 C16 1_555 1_555
C17 C16 1_555 1_555
H23 C17 1_555 1_555
C18 C17 1_555 1_555
H24 C18 1_555 1_555
C19 C18 1_555 1_555
H25 C19 1_555 1_555
H26 C19 1_555 1_555
O1 C3 1_555 1_555
H27 O1 1_555 1_555
O2 C4 1_555 1_555
O3 C6 1_555 1_555
H28 O3 1_555 1_555
O4 C9 1_555 1_555
O5 C15 1_555 1_555
H29 O5 1_555 1_555
O6 C16 1_555 1_555
H30 O6 1_555 1_555
O7 C17 1_555 1_555
H31 O7 1_555 1_555
O8 C14 1_555 1_555
O9 C19 1_555 1_555
H32 O9 1_555 1_555
O10 H33 1_555 1_555
H34 O10 1_555 1_555
O12 H37 1_555 1_555
H38 O12 1_555 1_555
C5 C6 1_555 1_555
C14 O2 1_555 1_555
C18 O8 1_555 1_555

#END
