
#######################################################################
#
#                 Cambridge Crystallographic Data Centre
#                                CCDC 
#
#######################################################################
#
# If this CIF has been generated from an entry in the Cambridge 
# Structural Database, then it will include bibliographic, chemical, 
# crystal, experimental, refinement or atomic coordinate data resulting 
# from the CCDC's data processing and validation procedures.
#
#######################################################################

data_RIMRAI
_chemical_name_common            'Wilsonol B hemihydrate'
_chemical_formula_moiety         'C13 H24 O4,0.5(H2 O1)'
_chemical_name_systematic        
'4-(3-Hydroxybut-1-en-1-yl)-3,5,5-trimethylcyclohexane-1,2,4-triol hemihydrate'
_symmetry_cell_setting           orthorhombic
_symmetry_space_group_name_H-M   'P 21 21 2'
_symmetry_Int_Tables_number      18
_space_group_name_Hall           'P 2 2ab'
loop_
_symmetry_equiv_pos_site_id
_symmetry_equiv_pos_as_xyz
1 x,y,z
2 -x,-y,z
3 1/2-x,1/2+y,-z
4 1/2+x,1/2-y,-z
_cell_length_a                   13.0378(15)
_cell_length_b                   17.163(3)
_cell_length_c                   6.2782(9)
_cell_angle_alpha                90
_cell_angle_beta                 90
_cell_angle_gamma                90
_cell_volume                     1404.86
_cell_formula_units_Z            4
loop_
_atom_site_label
_atom_site_type_symbol
_atom_site_fract_x
_atom_site_fract_y
_atom_site_fract_z
C1 C -0.0270(2) 0.1904(2) 0.4526(6)
C2 C -0.0712(3) 0.2629(3) 0.5638(6)
H1 H -0.1384 0.2498 0.6195
H2 H -0.0277 0.2754 0.6844
C3 C -0.0815(3) 0.3346(3) 0.4285(6)
H3 H -0.0992 0.3785 0.5213
C4 C 0.0185(2) 0.3540(3) 0.3141(6)
H4 H 0.0062 0.3961 0.2119
C5 C 0.0630(3) 0.2841(2) 0.1971(6)
H5 H 0.0129 0.2695 0.0878
C6 C 0.0766(3) 0.2116(2) 0.3438(5)
C7 C 0.1175(3) 0.1444(2) 0.2134(6)
H6 H 0.0809 0.1319 0.0909
C8 C 0.1980(3) 0.1020(3) 0.2526(7)
H7 H 0.2323 0.1131 0.3788
C9 C 0.2426(3) 0.0375(3) 0.1204(6)
H8 H 0.2480 -0.0086 0.2119
C10 C 0.1818(3) 0.0145(3) -0.0730(7)
H9 H 0.1721 0.0592 -0.1627
H10 H 0.1163 -0.0054 -0.0295
H11 H 0.2183 -0.0251 -0.1502
C11 C -0.1035(3) 0.1562(3) 0.2947(7)
H12 H -0.0795 0.1063 0.2471
H13 H -0.1101 0.1905 0.1748
H14 H -0.1690 0.1503 0.3627
C12 C -0.0089(4) 0.1282(3) 0.6258(7)
H15 H -0.0727 0.1165 0.6955
H16 H 0.0393 0.1476 0.7285
H17 H 0.0178 0.0817 0.5614
C13 C 0.1620(3) 0.3070(3) 0.0787(7)
H18 H 0.1484 0.3506 -0.0131
H19 H 0.1855 0.2637 -0.0049
H20 H 0.2139 0.3211 0.1803
O1 O -0.15893(18) 0.32794(16) 0.2680(4)
H21 H -0.2105 0.3124 0.3295
O2 O 0.09322(19) 0.37941(19) 0.4693(5)
H22 H 0.0663 0.4142 0.5390
O3 O 0.15259(19) 0.22898(18) 0.5067(4)
H23 H 0.1555 0.2766 0.4977
O4 O 0.34488(19) 0.05936(18) 0.0599(5)
H24 H 0.3437 0.0923 -0.0347
O5 O 0.0000 0.5000 0.7070(6)
H25 H 0.0472 0.5181 0.7778
H25A H -0.0472 0.4819 0.7778
loop_
_geom_bond_atom_site_label_1
_geom_bond_atom_site_label_2
_geom_bond_site_symmetry_1
_geom_bond_site_symmetry_2
C1 C2 1_555 1_555
C2 H1 1_555 1_555
H2 C2 1_555 1_555
C3 C2 1_555 1_555
H3 C3 1_555 1_555
C4 C3 1_555 1_555
H4 C4 1_555 1_555
C5 C4 1_555 1_555
H5 C5 1_555 1_555
C6 C1 1_555 1_555
C7 C6 1_555 1_555
H6 C7 1_555 1_555
C8 C7 1_555 1_555
H7 C8 1_555 1_555
C9 C8 1_555 1_555
H8 C9 1_555 1_555
C10 C9 1_555 1_555
H9 C10 1_555 1_555
H10 C10 1_555 1_555
H11 C10 1_555 1_555
C11 C1 1_555 1_555
H12 C11 1_555 1_555
H13 C11 1_555 1_555
H14 C11 1_555 1_555
C12 C1 1_555 1_555
H15 C12 1_555 1_555
H16 C12 1_555 1_555
H17 C12 1_555 1_555
C13 C5 1_555 1_555
H18 C13 1_555 1_555
H19 C13 1_555 1_555
H20 C13 1_555 1_555
O1 C3 1_555 1_555
H21 O1 1_555 1_555
O2 C4 1_555 1_555
H22 O2 1_555 1_555
O3 C6 1_555 1_555
H23 O3 1_555 1_555
O4 C9 1_555 1_555
H24 O4 1_555 1_555
O5 H25 1_555 1_555
H25A O5 1_555 1_555
C5 C6 1_555 1_555

#END
