
#######################################################################
#
#                 Cambridge Crystallographic Data Centre
#                                CCDC 
#
#######################################################################
#
# If this CIF has been generated from an entry in the Cambridge 
# Structural Database, then it will include bibliographic, chemical, 
# crystal, experimental, refinement or atomic coordinate data resulting 
# from the CCDC's data processing and validation procedures.
#
#######################################################################

data_RIMRIQ
_chemical_compound_source        
'Latex of Antiaris toxicaria (Pers.) Lesch. (Moraceae)'
_chemical_name_common            'Antiaroside J'
_chemical_formula_moiety         'C29 H42 O10,2(H2 O1)'
_chemical_name_systematic        
'3-((3,4-Dihydroxy-6-methyltetrahydro-2H-pyran-2-yl)oxy)-5,12,14-trihydroxy-19-oxocard-20(22)-enolide hydrate'
_chemical_properties_biological  'cytotoxic activity'
_symmetry_cell_setting           orthorhombic
_symmetry_space_group_name_H-M   'P 21 21 21'
_symmetry_Int_Tables_number      19
_space_group_name_Hall           'P 2ac 2ab'
loop_
_symmetry_equiv_pos_site_id
_symmetry_equiv_pos_as_xyz
1 x,y,z
2 1/2-x,-y,1/2+z
3 1/2+x,1/2-y,-z
4 -x,1/2+y,1/2-z
_cell_length_a                   8.99910(10)
_cell_length_b                   10.3062(2)
_cell_length_c                   30.5548(5)
_cell_angle_alpha                90
_cell_angle_beta                 90
_cell_angle_gamma                90
_cell_volume                     2833.85
_exptl_crystal_colour            colorless
_exptl_crystal_description       block
_cell_formula_units_Z            4
loop_
_atom_site_label
_atom_site_type_symbol
_atom_site_fract_x
_atom_site_fract_y
_atom_site_fract_z
O1 O 0.10464(18) 0.33825(17) 0.60519(5)
O2 O 0.82548(18) 0.50077(16) 0.82677(5)
H1 H 0.8764 0.4832 0.8053
O3 O 0.03534(18) 0.46256(17) 0.76211(5)
H2 H 0.0212 0.4576 0.7357
O4 O 0.4537(2) 0.32358(16) 0.92237(5)
H3 H 0.4198 0.2524 0.9291
O5 O 0.11911(19) 0.39766(16) 0.67653(5)
O6 O -0.1850(2) 0.44342(17) 0.68175(6)
H4 H -0.2150 0.3710 0.6885
O7 O 0.2927(2) 0.70194(17) 0.78359(6)
O8 O -0.2860(2) 0.28382(19) 0.61281(6)
H5 H -0.2935 0.2756 0.6394
O9 O 1.0760(2) 0.5000(2) 1.00974(7)
O10 O 0.8548(2) 0.4019(2) 1.01255(6)
C1 C 0.4310(2) 0.4025(2) 0.80065(7)
H6 H 0.4529 0.3206 0.7857
C2 C 0.3823(3) 0.3683(2) 0.84760(7)
H7 H 0.3427 0.4479 0.8607
C3 C 0.1609(3) 0.3818(2) 0.77402(7)
C4 C 0.6959(3) 0.4209(2) 0.82704(7)
H8 H 0.7208 0.3367 0.8141
C5 C 0.5740(3) 0.4831(2) 0.80020(8)
H9 H 0.6078 0.4930 0.7702
H10 H 0.5532 0.5689 0.8117
C6 C 0.6391(3) 0.5313(2) 0.89805(8)
H11 H 0.7321 0.5764 0.8960
H12 H 0.6142 0.5185 0.9283
H13 H 0.5627 0.5817 0.8842
C7 C 0.6520(3) 0.4000(2) 0.87536(7)
C8 C 0.2531(3) 0.2712(2) 0.84481(7)
H14 H 0.2863 0.1931 0.8301
H15 H 0.2216 0.2477 0.8741
C9 C 0.2606(3) 0.5966(2) 0.79718(8)
H16 H 0.2068 0.5919 0.8231
C10 C 0.3718(3) 0.3857(2) 0.69875(7)
H17 H 0.4020 0.4129 0.6697
H18 H 0.4496 0.3311 0.7108
C11 C 0.3497(3) 0.5042(2) 0.72781(7)
H19 H 0.2745 0.5595 0.7148
H20 H 0.4418 0.5530 0.7289
C12 C 0.0139(3) 0.2904(3) 0.56967(8)
H21 H -0.0257 0.2049 0.5775
C13 C -0.1075(3) 0.4364(2) 0.64168(8)
H22 H -0.0673 0.5231 0.6358
C14 C 0.0241(3) 0.3447(2) 0.64549(7)
H23 H -0.0088 0.2581 0.6545
C15 C 0.5069(3) 0.3197(2) 0.87774(7)
C16 C 0.2281(3) 0.3098(2) 0.69600(7)
H24 H 0.2413 0.2332 0.6774
C17 C 0.7726(3) 0.3062(2) 0.89557(8)
H25 H 0.8563 0.3037 0.8750
C18 C 0.3024(3) 0.4695(2) 0.77471(7)
C19 C -0.2072(3) 0.4011(3) 0.60309(8)
H26 H -0.2790 0.4712 0.5983
C20 C 0.8333(3) 0.3484(2) 0.93902(8)
C21 C 0.5581(3) 0.1807(2) 0.86975(8)
H27 H 0.5758 0.1655 0.8389
H28 H 0.4846 0.1190 0.8801
C22 C 0.1231(3) 0.3294(2) 0.82002(7)
H29 H 0.0820 0.3997 0.8373
H30 H 0.0466 0.2636 0.8171
C23 C 0.1751(3) 0.2695(2) 0.74135(8)
H31 H 0.2442 0.2062 0.7531
H32 H 0.0792 0.2274 0.7386
C24 C 0.7022(3) 0.1693(2) 0.89589(9)
H33 H 0.7685 0.1068 0.8824
H34 H 0.6817 0.1418 0.9256
C25 C 0.9617(3) 0.4077(3) 0.94553(8)
H35 H 1.0322 0.4248 0.9240
C26 C -0.1146(3) 0.3840(3) 0.56211(8)
H36 H -0.0757 0.4676 0.5531
H37 H -0.1771 0.3513 0.5387
C27 C 0.7584(3) 0.3354(3) 0.98192(8)
H38 H 0.6609 0.3754 0.9812
H39 H 0.7476 0.2448 0.9899
C28 C 0.9756(3) 0.4419(3) 0.99111(9)
C29 C 0.1142(4) 0.2773(3) 0.53025(8)
H40 H 0.1549 0.3606 0.5229
H41 H 0.0579 0.2447 0.5059
H42 H 0.1935 0.2181 0.5369
O11 O 0.4330(2) 0.3507(2) 0.58752(6)
H43 H 0.4277 0.4005 0.5654
H44 H 0.3464 0.3378 0.5977
O12 O 0.2816(4) 0.5477(3) 0.93756(9)
H45 H 0.2943 0.6182 0.9237
H46 H 0.2417 0.5635 0.9622
loop_
_geom_bond_atom_site_label_1
_geom_bond_atom_site_label_2
_geom_bond_site_symmetry_1
_geom_bond_site_symmetry_2
O1 C12 1_555 1_555
O2 H1 1_555 1_555
O3 H2 1_555 1_555
O4 H3 1_555 1_555
O5 C14 1_555 1_555
O6 H4 1_555 1_555
O7 C9 1_555 1_555
O8 H5 1_555 1_555
O9 C28 1_555 1_555
O10 C27 1_555 1_555
C1 H6 1_555 1_555
C2 C1 1_555 1_555
H7 C2 1_555 1_555
C3 O3 1_555 1_555
C4 O2 1_555 1_555
H8 C4 1_555 1_555
C5 C1 1_555 1_555
H9 C5 1_555 1_555
H10 C5 1_555 1_555
C6 H11 1_555 1_555
H12 C6 1_555 1_555
H13 C6 1_555 1_555
C7 C4 1_555 1_555
C8 C2 1_555 1_555
H14 C8 1_555 1_555
H15 C8 1_555 1_555
C9 H16 1_555 1_555
C10 H17 1_555 1_555
H18 C10 1_555 1_555
C11 C10 1_555 1_555
H19 C11 1_555 1_555
H20 C11 1_555 1_555
C12 H21 1_555 1_555
C13 O6 1_555 1_555
H22 C13 1_555 1_555
C14 O1 1_555 1_555
H23 C14 1_555 1_555
C15 O4 1_555 1_555
C16 O5 1_555 1_555
H24 C16 1_555 1_555
C17 C7 1_555 1_555
H25 C17 1_555 1_555
C18 C1 1_555 1_555
C19 O8 1_555 1_555
H26 C19 1_555 1_555
C20 C17 1_555 1_555
C21 C15 1_555 1_555
H27 C21 1_555 1_555
H28 C21 1_555 1_555
C22 C3 1_555 1_555
H29 C22 1_555 1_555
H30 C22 1_555 1_555
C23 C3 1_555 1_555
H31 C23 1_555 1_555
H32 C23 1_555 1_555
C24 C17 1_555 1_555
H33 C24 1_555 1_555
H34 C24 1_555 1_555
C25 C20 1_555 1_555
H35 C25 1_555 1_555
C26 C12 1_555 1_555
H36 C26 1_555 1_555
H37 C26 1_555 1_555
C27 C20 1_555 1_555
H38 C27 1_555 1_555
H39 C27 1_555 1_555
C28 O10 1_555 1_555
C29 C12 1_555 1_555
H40 C29 1_555 1_555
H41 C29 1_555 1_555
H42 C29 1_555 1_555
O11 H43 1_555 1_555
H44 O11 1_555 1_555
O12 H45 1_555 1_555
H46 O12 1_555 1_555
C2 C15 1_555 1_555
C3 C18 1_555 1_555
C4 C5 1_555 1_555
C6 C7 1_555 1_555
C7 C15 1_555 1_555
C8 C22 1_555 1_555
C9 C18 1_555 1_555
C10 C16 1_555 1_555
C11 C18 1_555 1_555
C13 C14 1_555 1_555
C13 C19 1_555 1_555
C16 C23 1_555 1_555
C19 C26 1_555 1_555
C21 C24 1_555 1_555
C25 C28 1_555 1_555

#END
