
#######################################################################
#
#                 Cambridge Crystallographic Data Centre
#                                CCDC 
#
#######################################################################
#
# If this CIF has been generated from an entry in the Cambridge 
# Structural Database, then it will include bibliographic, chemical, 
# crystal, experimental, refinement or atomic coordinate data resulting 
# from the CCDC's data processing and validation procedures.
#
#######################################################################

data_RIMSEN
_chemical_compound_source        
'culture of the mangrove-derived fungus Cladosporium sp. PJX-41'
_chemical_name_common            'Quinadoline A'
_chemical_formula_moiety         'C27 H27 N5 O4,C1 H4 O1'
_chemical_name_systematic        
'4-((9-Hydroxy-2,2-dimethyl-3-oxo-2,3,9,9a-tetrahydro-1H-imidazo[1,2-a]indol-9-yl)methyl)-1-isopropylidene-2H-pyrazino[2,1-b]quinazoline-3,6(1H,4H)-dione methanol solvate'
_symmetry_cell_setting           orthorhombic
_symmetry_space_group_name_H-M   'P 21 21 21'
_symmetry_Int_Tables_number      19
_space_group_name_Hall           'P 2ac 2ab'
loop_
_symmetry_equiv_pos_site_id
_symmetry_equiv_pos_as_xyz
1 x,y,z
2 1/2-x,-y,1/2+z
3 -x,1/2+y,1/2-z
4 1/2+x,1/2-y,-z
_cell_length_a                   12.4363(2)
_cell_length_b                   13.6529(2)
_cell_length_c                   15.6264(2)
_cell_angle_alpha                90
_cell_angle_beta                 90
_cell_angle_gamma                90
_cell_volume                     2653.23
_cell_formula_units_Z            4
loop_
_atom_site_label
_atom_site_type_symbol
_atom_site_fract_x
_atom_site_fract_y
_atom_site_fract_z
O1 O 0.92203(10) 0.42692(10) 0.05966(8)
H1 H 0.9012 0.4379 0.0108
O2 O 0.92848(13) 0.37905(10) -0.11706(10)
N1 N 0.83059(12) 0.24102(10) -0.09368(9)
O3 O 0.57577(13) 0.31700(12) -0.01816(13)
N2 N 0.86327(13) 0.09246(11) -0.16634(11)
N3 N 0.71881(16) 0.51572(12) 0.05398(11)
C1 C 0.84014(14) 0.37588(13) 0.10579(11)
C2 C 0.94804(15) 0.13754(13) -0.20878(11)
C3 C 0.97800(15) 0.23413(13) -0.19224(11)
C4 C 0.72470(15) 0.09969(13) -0.05811(13)
C5 C 0.64908(16) 0.25931(14) -0.03201(12)
N4 N 0.77024(13) 0.50086(12) 0.19510(10)
C6 C 1.00658(17) 0.08278(15) -0.26946(12)
H2 H 0.9866 0.0187 -0.2820
C7 C 1.06869(16) 0.27367(15) -0.23208(12)
H3 H 1.0905 0.3371 -0.2193
N5 N 0.63557(13) 0.16354(12) -0.04634(12)
H4 H 0.5715 0.1400 -0.0485
C8 C 0.84356(16) 0.44603(16) 0.24450(12)
C9 C 0.81176(14) 0.14311(13) -0.10992(11)
C10 C 0.91375(15) 0.29260(13) -0.13315(11)
C11 C 0.74117(14) 0.44370(13) 0.11949(11)
H5 H 0.6768 0.4044 0.1310
C12 C 0.81316(16) 0.27898(13) 0.06244(12)
H6 H 0.7618 0.2437 0.0976
H7 H 0.8779 0.2396 0.0587
C13 C 1.12549(18) 0.21897(18) -0.29005(13)
H8 H 1.1861 0.2453 -0.3162
C14 C 0.72827(18) 0.01134(15) -0.02274(15)
C15 C 0.88182(15) 0.36777(16) 0.19691(12)
C16 C 1.09300(17) 0.12437(17) -0.30987(13)
H9 H 1.1303 0.0888 -0.3510
C17 C 0.76552(15) 0.29209(12) -0.02873(11)
H10 H 0.7672 0.3622 -0.0422
C18 C 0.8207(2) -0.05763(19) -0.0325(2)
H11 H 0.8841 -0.0215 -0.0477
H12 H 0.8048 -0.1043 -0.0767
H13 H 0.8326 -0.0915 0.0205
O4 O 0.79276(19) 0.66232(13) 0.23139(13)
C19 C 0.76542(18) 0.59878(15) 0.18181(13)
C20 C 0.71736(19) 0.61458(15) 0.09251(14)
C21 C 0.9487(3) 0.3980(3) 0.36217(17)
H14 H 0.9725 0.4071 0.4180
C22 C 0.6374(2) -0.0271(2) 0.0316(2)
H15 H 0.5968 -0.0742 -0.0006
H16 H 0.5914 0.0261 0.0480
H17 H 0.6662 -0.0578 0.0819
C23 C 0.9544(2) 0.3032(2) 0.23198(16)
H18 H 0.9811 0.2508 0.2004
C24 C 0.7891(4) 0.6823(2) 0.0416(2)
H19 H 0.8604 0.6554 0.0390
H20 H 0.7915 0.7453 0.0688
H21 H 0.7611 0.6892 -0.0153
C25 C 0.8769(2) 0.4637(2) 0.32789(14)
H22 H 0.8520 0.5172 0.3589
C26 C 0.6033(3) 0.6544(3) 0.1021(2)
H23 H 0.6050 0.7137 0.1351
H24 H 0.5594 0.6068 0.1308
H25 H 0.5738 0.6677 0.0466
C27 C 0.9866(3) 0.3187(3) 0.3161(2)
H26 H 1.0343 0.2752 0.3417
H27 H 0.6542(19) 0.503(3) 0.033(2)
O5 O 0.7449(2) -0.0626(2) -0.2518(3)
C28 C 0.6442(5) -0.0397(5) -0.2563(5)
H28 H 0.6133 -0.0411 -0.2000
H29 H 0.6076 -0.0859 -0.2923
H30 H 0.6370 0.0248 -0.2799
H31 H 0.779(3) -0.010(2) -0.225(2)
loop_
_geom_bond_atom_site_label_1
_geom_bond_atom_site_label_2
_geom_bond_site_symmetry_1
_geom_bond_site_symmetry_2
O1 H1 1_555 1_555
O2 C10 1_555 1_555
N1 C9 1_555 1_555
O3 C5 1_555 1_555
N2 C2 1_555 1_555
N3 C11 1_555 1_555
C1 O1 1_555 1_555
C2 C3 1_555 1_555
C3 C7 1_555 1_555
C4 N5 1_555 1_555
C5 N5 1_555 1_555
N4 C8 1_555 1_555
C6 C2 1_555 1_555
H2 C6 1_555 1_555
C7 H3 1_555 1_555
N5 H4 1_555 1_555
C8 C15 1_555 1_555
C9 N2 1_555 1_555
C10 N1 1_555 1_555
C11 C1 1_555 1_555
H5 C11 1_555 1_555
C12 C1 1_555 1_555
H6 C12 1_555 1_555
H7 C12 1_555 1_555
C13 C7 1_555 1_555
H8 C13 1_555 1_555
C14 C4 1_555 1_555
C15 C1 1_555 1_555
C16 C6 1_555 1_555
H9 C16 1_555 1_555
C17 N1 1_555 1_555
H10 C17 1_555 1_555
C18 C14 1_555 1_555
H11 C18 1_555 1_555
H12 C18 1_555 1_555
H13 C18 1_555 1_555
O4 C19 1_555 1_555
C19 N4 1_555 1_555
C20 N3 1_555 1_555
C21 H14 1_555 1_555
C22 C14 1_555 1_555
H15 C22 1_555 1_555
H16 C22 1_555 1_555
H17 C22 1_555 1_555
C23 C15 1_555 1_555
H18 C23 1_555 1_555
C24 C20 1_555 1_555
H19 C24 1_555 1_555
H20 C24 1_555 1_555
H21 C24 1_555 1_555
C25 C8 1_555 1_555
H22 C25 1_555 1_555
C26 C20 1_555 1_555
H23 C26 1_555 1_555
H24 C26 1_555 1_555
H25 C26 1_555 1_555
C27 C21 1_555 1_555
H26 C27 1_555 1_555
H27 N3 1_555 1_555
O5 C28 1_555 1_555
C28 H28 1_555 1_555
H29 C28 1_555 1_555
H30 C28 1_555 1_555
H31 O5 1_555 1_555
C3 C10 1_555 1_555
C4 C9 1_555 1_555
C5 C17 1_555 1_555
N4 C11 1_555 1_555
C12 C17 1_555 1_555
C13 C16 1_555 1_555
C19 C20 1_555 1_555
C21 C25 1_555 1_555
C23 C27 1_555 1_555

#END
