
#######################################################################
#
#                 Cambridge Crystallographic Data Centre
#                                CCDC 
#
#######################################################################
#
# If this CIF has been generated from an entry in the Cambridge 
# Structural Database, then it will include bibliographic, chemical, 
# crystal, experimental, refinement or atomic coordinate data resulting 
# from the CCDC's data processing and validation procedures.
#
#######################################################################

data_RIMSAJ
_chemical_compound_source        
'culture of the mangrove-derived fungus Cladosporium sp. PJX-41'
_chemical_name_common            Tryptoquivaline
_chemical_formula_moiety         'C29 H30 N4 O7'
_chemical_name_systematic        
"1-(3-(1'-Hydroxy-2',2'-dimethyl-3',5-dioxo-1',2',3',4,5,9a'-hexahydro-3H-spiro[furan-2,9'-imidazo[1,2-a]indol]-4-yl)-4-oxo-3,4-dihydroquinazolin-2-yl)-2-methylpropyl acetate"
_symmetry_cell_setting           orthorhombic
_symmetry_space_group_name_H-M   'P 21 21 21'
_symmetry_Int_Tables_number      19
_space_group_name_Hall           'P 2ac 2ab'
loop_
_symmetry_equiv_pos_site_id
_symmetry_equiv_pos_as_xyz
1 x,y,z
2 1/2-x,-y,1/2+z
3 1/2+x,1/2-y,-z
4 -x,1/2+y,1/2-z
_cell_length_a                   9.58100(10)
_cell_length_b                   10.93600(10)
_cell_length_c                   26.3804(2)
_cell_angle_alpha                90
_cell_angle_beta                 90
_cell_angle_gamma                90
_cell_volume                     2764.08
_cell_formula_units_Z            4
loop_
_atom_site_label
_atom_site_type_symbol
_atom_site_fract_x
_atom_site_fract_y
_atom_site_fract_z
O1 O 0.64631(8) 0.01742(8) 0.61319(3)
O2 O -0.02728(10) 0.30646(12) 0.77465(4)
H1 H 0.0299 0.3351 0.7548
O3 O 0.31779(9) 0.27282(8) 0.80423(3)
O4 O 0.46040(11) 0.37441(9) 0.75203(4)
N1 N 0.37093(10) 0.19422(10) 0.67715(3)
N2 N 0.03804(11) 0.28629(11) 0.82297(4)
O5 O 0.18707(10) 0.31239(10) 0.70077(3)
O6 O 0.46352(13) -0.10911(11) 0.61555(5)
N3 N 0.43953(11) 0.17136(10) 0.59160(4)
N4 N 0.09496(11) 0.13505(11) 0.87806(4)
O7 O -0.00565(13) 0.21930(15) 0.94886(4)
C1 C 0.70524(13) 0.16257(12) 0.67695(5)
H2 H 0.6633 0.2164 0.7024
C2 C 0.09805(13) 0.16358(12) 0.82416(5)
H3 H 0.0397 0.1062 0.8051
C3 C 0.23340(12) 0.29182(11) 0.61257(4)
C4 C 0.39437(13) 0.28452(11) 0.76182(4)
C5 C 0.32362(13) 0.23904(11) 0.57733(4)
C6 C 0.46017(12) 0.15171(11) 0.63900(4)
C7 C 0.57155(15) -0.07982(12) 0.59678(5)
C8 C 0.38969(13) 0.16657(11) 0.73127(4)
H4 H 0.4786 0.1236 0.7356
C9 C 0.27479(13) 0.09104(11) 0.75578(4)
H5 H 0.3031 0.0063 0.7594
H6 H 0.1896 0.0945 0.7359
C10 C -0.07184(14) 0.28646(15) 0.86302(6)
C11 C 0.3973(2) 0.00828(15) 0.94865(6)
H7 H 0.4255 -0.0193 0.9804
C12 C 0.58874(12) 0.08121(11) 0.65566(4)
H8 H 0.5615 0.0216 0.6816
C13 C 0.25748(13) 0.26996(11) 0.66610(5)
C14 C 0.45379(15) 0.05063(14) 0.86118(6)
H9 H 0.5174 0.0510 0.8346
C15 C 0.31823(14) 0.08948(11) 0.85385(5)
C16 C 0.00626(15) 0.21339(15) 0.90347(6)
C17 C 0.29866(16) 0.25878(15) 0.52542(5)
H10 H 0.3565 0.2229 0.5013
C18 C 0.81274(17) 0.08280(16) 0.70386(7)
H11 H 0.7691 0.0412 0.7317
H12 H 0.8872 0.1332 0.7163
H13 H 0.8495 0.0238 0.6805
C19 C 0.49352(18) 0.01085(15) 0.90915(6)
H14 H 0.5849 -0.0142 0.9149
C20 C 0.22392(14) 0.08692(12) 0.89384(5)
C21 C 0.77175(18) 0.24305(16) 0.63702(7)
H15 H 0.8221 0.1931 0.6133
H16 H 0.8349 0.2993 0.6530
H17 H 0.7004 0.2878 0.6194
C22 C 0.12258(14) 0.36644(13) 0.59666(5)
H18 H 0.0636 0.4022 0.6204
C23 C 0.25407(13) 0.15151(11) 0.80816(4)
C24 C 0.18911(18) 0.33083(17) 0.51033(6)
H19 H 0.1726 0.3431 0.4760
C25 C 0.26102(17) 0.04578(15) 0.94173(5)
H20 H 0.1967 0.0435 0.9681
C26 C 0.10190(16) 0.38615(15) 0.54621(6)
H21 H 0.0295 0.4366 0.5356
C27 C -0.20588(15) 0.21813(19) 0.84854(7)
H22 H -0.2508 0.2597 0.8210
H23 H -0.2676 0.2157 0.8772
H24 H -0.1831 0.1362 0.8384
C28 C 0.6443(2) -0.14029(17) 0.55343(6)
H25 H 0.6061 -0.2205 0.5484
H26 H 0.7421 -0.1468 0.5608
H27 H 0.6315 -0.0924 0.5233
C29 C -0.1018(2) 0.41615(18) 0.88020(7)
H28 H -0.0166 0.4543 0.8910
H29 H -0.1668 0.4145 0.9079
H30 H -0.1412 0.4618 0.8526
loop_
_geom_bond_atom_site_label_1
_geom_bond_atom_site_label_2
_geom_bond_site_symmetry_1
_geom_bond_site_symmetry_2
O1 C7 1_555 1_555
O2 H1 1_555 1_555
O3 C4 1_555 1_555
O4 C4 1_555 1_555
N1 C6 1_555 1_555
N2 O2 1_555 1_555
O5 C13 1_555 1_555
O6 C7 1_555 1_555
N3 C5 1_555 1_555
N4 C2 1_555 1_555
O7 C16 1_555 1_555
C1 H2 1_555 1_555
C2 N2 1_555 1_555
H3 C2 1_555 1_555
C3 C5 1_555 1_555
C4 C8 1_555 1_555
C5 C17 1_555 1_555
C6 N3 1_555 1_555
C7 C28 1_555 1_555
C8 N1 1_555 1_555
H4 C8 1_555 1_555
C9 C8 1_555 1_555
H5 C9 1_555 1_555
H6 C9 1_555 1_555
C10 N2 1_555 1_555
C11 H7 1_555 1_555
C12 O1 1_555 1_555
H8 C12 1_555 1_555
C13 N1 1_555 1_555
C14 H9 1_555 1_555
C15 C14 1_555 1_555
C16 N4 1_555 1_555
C17 H10 1_555 1_555
C18 C1 1_555 1_555
H11 C18 1_555 1_555
H12 C18 1_555 1_555
H13 C18 1_555 1_555
C19 C11 1_555 1_555
H14 C19 1_555 1_555
C20 N4 1_555 1_555
C21 C1 1_555 1_555
H15 C21 1_555 1_555
H16 C21 1_555 1_555
H17 C21 1_555 1_555
C22 C3 1_555 1_555
H18 C22 1_555 1_555
C23 O3 1_555 1_555
C24 C17 1_555 1_555
H19 C24 1_555 1_555
C25 C11 1_555 1_555
H20 C25 1_555 1_555
C26 C22 1_555 1_555
H21 C26 1_555 1_555
C27 C10 1_555 1_555
H22 C27 1_555 1_555
H23 C27 1_555 1_555
H24 C27 1_555 1_555
C28 H25 1_555 1_555
H26 C28 1_555 1_555
H27 C28 1_555 1_555
C29 C10 1_555 1_555
H28 C29 1_555 1_555
H29 C29 1_555 1_555
H30 C29 1_555 1_555
C1 C12 1_555 1_555
C2 C23 1_555 1_555
C3 C13 1_555 1_555
C6 C12 1_555 1_555
C9 C23 1_555 1_555
C10 C16 1_555 1_555
C14 C19 1_555 1_555
C15 C20 1_555 1_555
C15 C23 1_555 1_555
C20 C25 1_555 1_555
C24 C26 1_555 1_555

#END
