
#######################################################################
#
#                 Cambridge Crystallographic Data Centre
#                                CCDC 
#
#######################################################################
#
# If this CIF has been generated from an entry in the Cambridge 
# Structural Database, then it will include bibliographic, chemical, 
# crystal, experimental, refinement or atomic coordinate data resulting 
# from the CCDC's data processing and validation procedures.
#
#######################################################################

data_RIMSUD
_chemical_compound_source        'fermentation broth of Penicillium camemberti'
_chemical_name_common            'Emindole SB'
_chemical_formula_moiety         'C28 H39 N1 O1,C2 H6 O1 S1'
_chemical_name_systematic        
'4,12b,12c-trimethyl-4-(4-methylpent-3-en-1-yl)-1,2,3,4,4a,5,6,6a,7,12,12b,12c-dodecahydrobenzo[6,7]indeno[1,2-b]indol-3-ol dimethyl sulfoxide solvate'
_symmetry_cell_setting           orthorhombic
_symmetry_space_group_name_H-M   'P 21 21 21'
_symmetry_Int_Tables_number      19
_space_group_name_Hall           'P 2ac 2ab'
loop_
_symmetry_equiv_pos_site_id
_symmetry_equiv_pos_as_xyz
1 x,y,z
2 1/2-x,-y,1/2+z
3 -x,1/2+y,1/2-z
4 1/2+x,1/2-y,-z
_cell_length_a                   8.1634(5)
_cell_length_b                   12.7824(8)
_cell_length_c                   26.7737(17)
_cell_angle_alpha                90
_cell_angle_beta                 90
_cell_angle_gamma                90
_cell_volume                     2793.78
_cell_formula_units_Z            4
loop_
_atom_site_label
_atom_site_type_symbol
_atom_site_fract_x
_atom_site_fract_y
_atom_site_fract_z
N1 N 0.3474(3) 0.6412(2) 0.89165(10)
H1 H 0.2785 0.6503 0.8677
O1 O -0.1140(3) 0.20614(19) 0.78782(9)
H2 H -0.1144 0.2076 0.7572
C1 C 0.3288(6) -0.0281(3) 0.79187(14)
H3 H 0.2420 -0.0723 0.7840
C2 C 0.2853(6) 0.0809(3) 0.80406(17)
H4 H 0.2595 0.1177 0.7734
H5 H 0.3798 0.1149 0.8189
C3 C 0.1418(5) 0.0909(2) 0.83940(14)
H6 H 0.1685 0.0531 0.8697
H7 H 0.0486 0.0560 0.8243
C4 C 0.3096(5) 0.2161(3) 0.92324(13)
H8 H 0.2308 0.2199 0.9503
H9 H 0.3308 0.1427 0.9166
C5 C 0.4680(5) 0.2677(3) 0.93993(13)
H10 H 0.5032 0.2382 0.9715
H11 H 0.5532 0.2552 0.9154
C6 C 0.5731(5) 0.4575(3) 0.96683(13)
H12 H 0.5786 0.4544 1.0030
H13 H 0.6803 0.4428 0.9529
C7 C 0.6259(5) 0.7346(3) 0.98469(13)
H14 H 0.6953 0.7049 1.0083
C8 C 0.6168(5) 0.8421(3) 0.97978(15)
H15 H 0.6805 0.8847 1.0001
C9 C 0.5127(6) 0.8871(3) 0.94446(15)
H16 H 0.5065 0.9596 0.9421
C10 C 0.4197(5) 0.8269(3) 0.91320(13)
H17 H 0.3526 0.8576 0.8892
C11 C 0.1510(4) 0.4298(2) 0.83143(13)
H18 H 0.1278 0.5039 0.8349
H19 H 0.2380 0.4222 0.8070
C12 C -0.0018(5) 0.3744(3) 0.81231(13)
H20 H -0.0910 0.3849 0.8357
H21 H -0.0338 0.4042 0.7805
C13 C -0.0570(5) 0.1904(3) 0.89069(14)
H22 H -0.0187 0.1586 0.9210
H23 H -0.1386 0.1465 0.8756
H24 H -0.1039 0.2575 0.8981
C14 C 0.0853(4) 0.4182(3) 0.92208(13)
H25 H 0.1016 0.4902 0.9310
H26 H 0.1003 0.3749 0.9510
H27 H -0.0238 0.4091 0.9094
C15 C 0.5110(4) 0.4196(3) 0.85422(12)
H28 H 0.4878 0.4669 0.8273
H29 H 0.5086 0.3490 0.8420
H30 H 0.6175 0.4346 0.8676
C16 C 0.4742(5) -0.0701(3) 0.79072(13)
C17 C 0.4986(6) -0.1842(3) 0.77836(13)
H31 H 0.5340 -0.2210 0.8077
H32 H 0.5802 -0.1909 0.7527
H33 H 0.3972 -0.2135 0.7668
C18 C 0.6288(6) -0.0135(4) 0.8042(2)
H34 H 0.6076 0.0603 0.8058
H35 H 0.7108 -0.0269 0.7792
H36 H 0.6672 -0.0375 0.8360
C19 C 0.0870(4) 0.2042(3) 0.85448(12)
C20 C 0.4403(5) 0.3835(3) 0.94566(12)
H37 H 0.3472 0.3899 0.9686
C21 C 0.5061(5) 0.5609(3) 0.94875(12)
C22 C 0.4279(4) 0.7188(3) 0.91820(11)
C23 C 0.3984(4) 0.5472(3) 0.91081(12)
C24 C 0.0292(4) 0.2585(3) 0.80606(12)
H38 H 0.1158 0.2501 0.7810
C25 C 0.2335(4) 0.2664(2) 0.87597(12)
H39 H 0.3190 0.2595 0.8505
C26 C 0.5301(4) 0.6709(3) 0.95401(12)
C27 C 0.3807(4) 0.4329(2) 0.89557(12)
C28 C 0.2099(4) 0.3869(2) 0.88166(12)
O2 O 1.0995(3) 0.71305(19) 0.81993(9)
S1 S 0.93124(13) 0.75166(8) 0.83319(4)
C29 C 0.8184(6) 0.6422(3) 0.85226(19)
H40 H 0.8105 0.5934 0.8251
H41 H 0.7105 0.6638 0.8621
H42 H 0.8723 0.6094 0.8800
C30 C 0.9503(7) 0.8138(4) 0.89210(17)
H43 H 0.9976 0.7659 0.9156
H44 H 0.8440 0.8351 0.9036
H45 H 1.0195 0.8742 0.8889
H46? H 0.3049 0.5432 0.9337
loop_
_geom_bond_atom_site_label_1
_geom_bond_atom_site_label_2
_geom_bond_site_symmetry_1
_geom_bond_site_symmetry_2
N1 H1 1_555 1_555
O1 H2 1_555 1_555
C1 H3 1_555 1_555
C2 C1 1_555 1_555
H4 C2 1_555 1_555
H5 C2 1_555 1_555
C3 C2 1_555 1_555
H6 C3 1_555 1_555
H7 C3 1_555 1_555
C4 H8 1_555 1_555
H9 C4 1_555 1_555
C5 C4 1_555 1_555
H10 C5 1_555 1_555
H11 C5 1_555 1_555
C6 H12 1_555 1_555
H13 C6 1_555 1_555
C7 H14 1_555 1_555
C8 C7 1_555 1_555
H15 C8 1_555 1_555
C9 C8 1_555 1_555
H16 C9 1_555 1_555
C10 C9 1_555 1_555
H17 C10 1_555 1_555
C11 H18 1_555 1_555
H19 C11 1_555 1_555
C12 C11 1_555 1_555
H20 C12 1_555 1_555
H21 C12 1_555 1_555
C13 H22 1_555 1_555
H23 C13 1_555 1_555
H24 C13 1_555 1_555
C14 H25 1_555 1_555
H26 C14 1_555 1_555
H27 C14 1_555 1_555
C15 H28 1_555 1_555
H29 C15 1_555 1_555
H30 C15 1_555 1_555
C16 C1 1_555 1_555
C17 C16 1_555 1_555
H31 C17 1_555 1_555
H32 C17 1_555 1_555
H33 C17 1_555 1_555
C18 C16 1_555 1_555
H34 C18 1_555 1_555
H35 C18 1_555 1_555
H36 C18 1_555 1_555
C19 C3 1_555 1_555
C20 C5 1_555 1_555
H37 C20 1_555 1_555
C21 C6 1_555 1_555
C22 N1 1_555 1_555
C23 N1 1_555 1_555
C24 O1 1_555 1_555
H38 C24 1_555 1_555
C25 C4 1_555 1_555
H39 C25 1_555 1_555
C26 C7 1_555 1_555
C27 C15 1_555 1_555
C28 C11 1_555 1_555
O2 S1 1_555 1_555
S1 C29 1_555 1_555
C29 H40 1_555 1_555
H41 C29 1_555 1_555
H42 C29 1_555 1_555
C30 S1 1_555 1_555
H43 C30 1_555 1_555
H44 C30 1_555 1_555
H45 C30 1_555 1_555
C6 C20 1_555 1_555
C10 C22 1_555 1_555
C12 C24 1_555 1_555
C13 C19 1_555 1_555
C14 C28 1_555 1_555
C19 C24 1_555 1_555
C19 C25 1_555 1_555
C20 C27 1_555 1_555
C21 C23 1_555 1_555
C21 C26 1_555 1_555
C22 C26 1_555 1_555
C23 C27 1_555 1_555
C25 C28 1_555 1_555
C27 C28 1_555 1_555

#END
