
#######################################################################
#
#                 Cambridge Crystallographic Data Centre
#                                CCDC 
#
#######################################################################
#
# If this CIF has been generated from an entry in the Cambridge 
# Structural Database, then it will include bibliographic, chemical, 
# crystal, experimental, refinement or atomic coordinate data resulting 
# from the CCDC's data processing and validation procedures.
#
#######################################################################

data_RIMTOY
_chemical_compound_source        'Scopulariopsis sp.'
_chemical_name_common            'fumiquinazoline L'
_chemical_formula_moiety         'C26 H25 N5 O4,C1 H4 O1'
_chemical_name_systematic        
"2-Isopropyl-12'-methyl-1,9a-dihydro-3'H,16'H-spiro[imidazo[1,2-a]indole-9,14'-[13]oxa[2,10,17]triazatetracyclo[10.3.2.0^2,11^.0^4,9^]heptadeca[4,6,8,10]tetraene]-3,3',16'(2H)-trione methanol solvate"
_symmetry_cell_setting           monoclinic
_symmetry_space_group_name_H-M   'P 21'
_symmetry_Int_Tables_number      4
_space_group_name_Hall           'P 2yb'
loop_
_symmetry_equiv_pos_site_id
_symmetry_equiv_pos_as_xyz
1 x,y,z
2 -x,1/2+y,-z
_cell_length_a                   11.3275(2)
_cell_length_b                   7.81270(10)
_cell_length_c                   13.6034(2)
_cell_angle_alpha                90
_cell_angle_beta                 90.9540(10)
_cell_angle_gamma                90
_cell_volume                     1203.71
_exptl_crystal_colour            colorless
_exptl_crystal_description       block
_cell_formula_units_Z            2
loop_
_atom_site_label
_atom_site_type_symbol
_atom_site_fract_x
_atom_site_fract_y
_atom_site_fract_z
O1 O 0.50502(9) 0.62691(15) 1.08874(7)
N1 N 0.09181(10) 0.67964(16) 0.63837(8)
O2 O 0.01117(9) 0.41854(14) 0.60261(8)
C1 C -0.21322(13) 0.5772(2) 0.55946(10)
H1 H -0.2104 0.4591 0.5509
C2 C -0.11515(13) 0.8439(2) 0.60344(10)
C3 C -0.11153(12) 0.6666(2) 0.58912(10)
O3 O 0.39754(9) 0.65885(15) 0.60362(7)
C4 C 0.47573(11) 0.66599(19) 1.00486(10)
N2 N 0.45250(10) 0.65132(19) 0.83475(9)
H2 H 0.4524 0.6022 0.7782
N3 N 0.37237(10) 0.74087(16) 0.97794(8)
C5 C -0.31756(13) 0.6646(2) 0.54296(11)
H3 H -0.3853 0.6057 0.5233
C6 C -0.32117(14) 0.8418(2) 0.55586(11)
H4 H -0.3915 0.9004 0.5445
C7 C -0.00184(13) 0.57311(19) 0.60869(10)
O4 O 0.17075(8) 0.88136(12) 0.81124(7)
N4 N 0.29066(10) 0.87888(16) 0.66579(8)
H5 H 0.3458 0.9522 0.6560
C8 C 0.18128(12) 0.93430(18) 0.70946(10)
C9 C -0.22180(14) 0.9308(2) 0.58523(11)
H6 H -0.2253 1.0490 0.5930
C10 C 0.03300(13) 0.6399(2) 1.07014(12)
H7 H -0.0441 0.6147 1.0875
C11 C 0.23571(13) 0.6941(2) 1.11949(11)
H8 H 0.2940 0.7060 1.1680
C12 C 0.17564(13) 1.12770(18) 0.70965(11)
H9 H 0.2436 1.1727 0.7439
H10 H 0.1053 1.1643 0.7420
H11 H 0.1744 1.1689 0.6432
C13 C 0.30716(12) 0.71320(19) 0.64026(10)
C14 C 0.11953(14) 0.6550(2) 1.14282(11)
H12 H 0.0997 0.6387 1.2082
C15 C 0.36102(12) 0.76554(19) 0.87116(10)
H13 H 0.3794 0.8843 0.8541
C16 C 0.05997(13) 0.6622(2) 0.97149(11)
H14 H 0.0017 0.6518 0.9229
C17 C 0.07674(13) 0.85154(18) 0.65661(10)
C18 C 0.20659(13) 0.56768(18) 0.78063(10)
H15 H 0.1319 0.5163 0.7981
H16 H 0.2681 0.4849 0.7958
C19 C 0.20502(12) 0.59915(18) 0.66873(10)
H17 H 0.2125 0.4890 0.6349
C20 C 0.26049(12) 0.71448(18) 1.02093(10)
C21 C 0.54533(12) 0.63459(19) 0.91171(10)
H18 H 0.5727 0.5156 0.9124
C22 C 0.22685(12) 0.72556(18) 0.84619(10)
C23 C 0.17513(12) 0.69989(18) 0.94720(10)
N5 N -0.01870(11) 0.93658(16) 0.63941(9)
C24 C 0.65388(12) 0.7519(2) 0.90060(10)
H19 H 0.6262 0.8685 0.8871
C25 C 0.73034(14) 0.7550(3) 0.99375(12)
H20 H 0.7966 0.8294 0.9843
H21 H 0.7580 0.6414 1.0080
H22 H 0.6845 0.7961 1.0476
C26 C 0.72698(14) 0.6922(3) 0.81426(12)
H23 H 0.7942 0.7658 0.8075
H24 H 0.6796 0.6962 0.7551
H25 H 0.7532 0.5769 0.8257
O5 O 0.49019(11) 0.10930(16) 0.70451(8)
H26 H 0.4966 0.1166 0.7645
C27 C 0.52969(18) 0.2635(3) 0.66099(14)
H27 H 0.4718 0.3515 0.6702
H28 H 0.5409 0.2456 0.5919
H29 H 0.6031 0.2976 0.6914
loop_
_geom_bond_atom_site_label_1
_geom_bond_atom_site_label_2
_geom_bond_site_symmetry_1
_geom_bond_site_symmetry_2
O1 C4 1_555 1_555
N1 C7 1_555 1_555
O2 C7 1_555 1_555
C1 H1 1_555 1_555
C2 C3 1_555 1_555
C3 C1 1_555 1_555
O3 C13 1_555 1_555
C4 N3 1_555 1_555
N2 H2 1_555 1_555
N3 C15 1_555 1_555
C5 C1 1_555 1_555
H3 C5 1_555 1_555
C6 C5 1_555 1_555
H4 C6 1_555 1_555
C7 C3 1_555 1_555
O4 C8 1_555 1_555
N4 H5 1_555 1_555
C8 N4 1_555 1_555
C9 C2 1_555 1_555
H6 C9 1_555 1_555
C10 H7 1_555 1_555
C11 H8 1_555 1_555
C12 C8 1_555 1_555
H9 C12 1_555 1_555
H10 C12 1_555 1_555
H11 C12 1_555 1_555
C13 N4 1_555 1_555
C14 C10 1_555 1_555
H12 C14 1_555 1_555
C15 N2 1_555 1_555
H13 C15 1_555 1_555
C16 C10 1_555 1_555
H14 C16 1_555 1_555
C17 N1 1_555 1_555
C18 H15 1_555 1_555
H16 C18 1_555 1_555
C19 N1 1_555 1_555
H17 C19 1_555 1_555
C20 N3 1_555 1_555
C21 C4 1_555 1_555
H18 C21 1_555 1_555
C22 O4 1_555 1_555
C23 C16 1_555 1_555
N5 C2 1_555 1_555
C24 C21 1_555 1_555
H19 C24 1_555 1_555
C25 C24 1_555 1_555
H20 C25 1_555 1_555
H21 C25 1_555 1_555
H22 C25 1_555 1_555
C26 C24 1_555 1_555
H23 C26 1_555 1_555
H24 C26 1_555 1_555
H25 C26 1_555 1_555
O5 H26 1_555 1_555
C27 O5 1_555 1_555
H27 C27 1_555 1_555
H28 C27 1_555 1_555
H29 C27 1_555 1_555
N2 C21 1_555 1_555
C6 C9 1_555 1_555
C8 C17 1_555 1_555
C11 C14 1_555 1_555
C11 C20 1_555 1_555
C13 C19 1_555 1_555
C15 C22 1_555 1_555
C17 N5 1_555 1_555
C18 C19 1_555 1_555
C18 C22 1_555 1_555
C20 C23 1_555 1_555
C22 C23 1_555 1_555

#END
