
#######################################################################
#
#                 Cambridge Crystallographic Data Centre
#                                CCDC 
#
#######################################################################
#
# If this CIF has been generated from an entry in the Cambridge 
# Structural Database, then it will include bibliographic, chemical, 
# crystal, experimental, refinement or atomic coordinate data resulting 
# from the CCDC's data processing and validation procedures.
#
#######################################################################

data_RIMTUE
_chemical_name_common            'notoamide C'
_chemical_formula_moiety         'C26 H31 N3 O4'
_chemical_name_systematic        
3-((7,7-Dimethyl-3-(2-methylbut-3-en-2-yl)-2-oxo-1,2,3,7-tetrahydropyrano[2,3-g]indol-3-yl)methyl)hexahydropyrrolo[1,2-a]pyrazine-1,4-dione
_symmetry_cell_setting           monoclinic
_symmetry_space_group_name_H-M   'P 21'
_symmetry_Int_Tables_number      4
_space_group_name_Hall           'P 2yb'
loop_
_symmetry_equiv_pos_site_id
_symmetry_equiv_pos_as_xyz
1 x,y,z
2 -x,1/2+y,-z
_cell_length_a                   14.9294(2)
_cell_length_b                   10.36530(10)
_cell_length_c                   15.2344(2)
_cell_angle_alpha                90
_cell_angle_beta                 92.6220(10)
_cell_angle_gamma                90
_cell_volume                     2355.02
_exptl_crystal_colour            colorless
_exptl_crystal_description       block
_cell_formula_units_Z            4
loop_
_atom_site_label
_atom_site_type_symbol
_atom_site_fract_x
_atom_site_fract_y
_atom_site_fract_z
N1 N 0.29522(9) 0.23673(15) 0.48261(9)
H1 H 0.3145(14) 0.171(2) 0.5169(14)
C1 C 0.25339(12) 0.34188(18) 0.51374(11)
C2 C 0.21307(11) 0.42162(17) 0.43624(10)
C3 C 0.22379(11) 0.34975(16) 0.26850(11)
H2 H 0.1923 0.4222 0.2447
C4 C 0.25566(12) 0.25559(17) 0.21321(11)
H3 H 0.2469 0.2648 0.1514
C5 C 0.30034(12) 0.14772(17) 0.24770(11)
C6 C 0.31607(11) 0.13137(16) 0.33827(10)
C7 C 0.28511(10) 0.23001(16) 0.39087(10)
C8 C 0.23821(11) 0.33752(16) 0.35882(10)
C9 C 0.11149(12) 0.43729(18) 0.44940(12)
H4 H 0.1042 0.4692 0.5099
H5 H 0.0886 0.5054 0.4087
C10 C 0.05165(12) 0.31826(19) 0.43573(12)
H6 H -0.0084 0.3416 0.4574
C11 C 0.03744(11) 0.2864(2) 0.33845(12)
N2 N 0.03515(11) 0.16279(18) 0.31554(10)
C12 C 0.03076(15) 0.1212(3) 0.22314(13)
H7 H 0.0756 0.1674 0.1891
H8 H -0.0297 0.1365 0.1956
C13 C 0.0514(2) -0.0208(3) 0.22809(16)
H9 H 0.0919 -0.0459 0.1814
H10 H -0.0044 -0.0721 0.2210
C14 C 0.09675(17) -0.0435(2) 0.31914(15)
H11 H 0.0878 -0.1331 0.3395
H12 H 0.1618 -0.0246 0.3194
C15 C 0.04786(13) 0.0521(2) 0.37429(12)
H13 H -0.0128 0.0153 0.3840
C16 C 0.08990(12) 0.08615(19) 0.46344(12)
N3 N 0.08443(10) 0.20890(16) 0.48899(10)
H14 H 0.0949(15) 0.219(2) 0.5449(16)
C17 C 0.4216(2) 0.5921(5) 0.4889(3)
H15 H 0.4062 0.6552 0.5308
H16 H 0.4826 0.5687 0.4832
C18 C 0.36053(15) 0.5389(2) 0.44028(15)
H17 H 0.3811 0.4768 0.4000
C19 C 0.26029(14) 0.55974(18) 0.43710(12)
C20 C 0.23546(17) 0.6322(2) 0.35104(14)
H18 H 0.2547 0.7223 0.3565
H19 H 0.1704 0.6289 0.3395
H20 H 0.2655 0.5914 0.3023
C21 C 0.23152(18) 0.6432(2) 0.51420(14)
H21 H 0.2400 0.5945 0.5691
H22 H 0.1682 0.6666 0.5051
H23 H 0.2681 0.7217 0.5176
C22 C 0.35948(13) 0.01367(19) 0.36978(12)
H24 H 0.3683 -0.0010 0.4311
C23 C 0.38702(15) -0.0739(2) 0.31280(13)
H25 H 0.4139 -0.1511 0.3350
C24 C 0.37729(14) -0.05566(17) 0.21502(12)
C25 C 0.46756(19) -0.0388(4) 0.1764(2)
H26 H 0.4595 -0.0202 0.1135
H27 H 0.5025 -0.1183 0.1848
H28 H 0.4994 0.0329 0.2059
C26 C 0.3272(2) -0.1669(2) 0.17233(17)
H29 H 0.2666 -0.1708 0.1941
H30 H 0.3589 -0.2476 0.1866
H31 H 0.3237 -0.1548 0.1085
O1 O 0.24797(10) 0.36823(13) 0.59195(8)
O2 O 0.32470(14) 0.05639(16) 0.18991(9)
O3 O 0.02581(9) 0.37411(16) 0.28483(9)
O4 O 0.12227(9) 0.00007(13) 0.51135(9)
N4 N 0.32618(10) 0.18487(14) 0.70724(9)
H32 H 0.3064(14) 0.250(2) 0.6727(14)
C27 C 0.34274(11) 0.06527(17) 0.67670(10)
C28 C 0.34821(11) -0.03113(16) 0.75423(10)
C29 C 0.32827(10) 0.03968(16) 0.92058(10)
H33 H 0.3394 -0.0436 0.9448
C30 C 0.30963(11) 0.14316(16) 0.97535(10)
H34 H 0.3093 0.1305 1.0371
C31 C 0.29157(11) 0.26454(16) 0.94033(10)
C32 C 0.29378(11) 0.28802(17) 0.84959(11)
C33 C 0.31608(10) 0.18299(16) 0.79814(10)
C34 C 0.33041(10) 0.05907(16) 0.83057(10)
C35 C 0.27619(11) -0.13595(16) 0.73330(11)
H35 H 0.2804 -0.1611 0.6709
H36 H 0.2917 -0.2130 0.7693
C36 C 0.17797(11) -0.10101(16) 0.74840(11)
H37 H 0.1405 -0.1710 0.7204
C37 C 0.15954(11) -0.10286(16) 0.84614(11)
N5 N 0.10854(9) -0.00910(15) 0.87596(9)
C38 C 0.09166(13) 0.00675(19) 0.96896(12)
H38 H 0.1461 -0.0131 1.0060
H39 H 0.0423 -0.0503 0.9864
C39 C 0.06549(13) 0.14943(19) 0.97753(12)
H40 H 0.1113 0.1964 1.0140
H41 H 0.0070 0.1574 1.0052
C40 C 0.05939(14) 0.20452(19) 0.88372(13)
H42 H 0.0040 0.2561 0.8739
H43 H 0.1118 0.2600 0.8731
C41 C 0.05817(11) 0.08666(17) 0.82351(11)
H44 H -0.0052 0.0560 0.8159
C42 C 0.09395(11) 0.10651(18) 0.73281(11)
N6 N 0.15145(9) 0.01857(15) 0.70398(9)
H45 H 0.1583(14) 0.021(2) 0.6441(15)
C43 C 0.51406(16) -0.1904(2) 0.90526(16)
H46 H 0.5666 -0.1393 0.9018
H47 H 0.5084 -0.2487 0.9528
C44 C 0.44975(12) -0.18070(19) 0.84467(12)
H48 H 0.3991 -0.2345 0.8521
C45 C 0.44512(11) -0.09418(18) 0.76351(11)
C46 C 0.51569(12) 0.0127(2) 0.77049(13)
H49 H 0.5053 0.0664 0.8220
H50 H 0.5115 0.0661 0.7174
H51 H 0.5756 -0.0259 0.7766
C47 C 0.46400(12) -0.1806(2) 0.68415(13)
H52 H 0.5259 -0.2120 0.6895
H53 H 0.4554 -0.1306 0.6298
H54 H 0.4227 -0.2541 0.6826
C48 C 0.26658(15) 0.41443(18) 0.81614(12)
H55 H 0.2637 0.4304 0.7547
C49 C 0.24596(15) 0.50676(18) 0.87137(12)
H56 H 0.2239 0.5862 0.8480
C50 C 0.25563(12) 0.49222(16) 0.96927(11)
C51 C 0.17281(18) 0.5380(3) 1.01282(18)
H57 H 0.1208 0.4883 0.9903
H58 H 0.1632 0.6297 1.0000
H59 H 0.1805 0.5257 1.0765
C52 C 0.33781(18) 0.5655(2) 1.00287(16)
H60 H 0.3422 0.5615 1.0672
H61 H 0.3330 0.6558 0.9840
H62 H 0.3915 0.5267 0.9791
O5 O 0.34966(9) 0.03820(12) 0.59860(7)
O6 O 0.26590(10) 0.35790(12) 0.99694(8)
O7 O 0.19135(9) -0.18917(12) 0.89311(8)
O8 O 0.06828(10) 0.19952(15) 0.68791(9)
loop_
_geom_bond_atom_site_label_1
_geom_bond_atom_site_label_2
_geom_bond_site_symmetry_1
_geom_bond_site_symmetry_2
N1 H1 1_555 1_555
C1 N1 1_555 1_555
C2 C1 1_555 1_555
C3 H2 1_555 1_555
C4 C3 1_555 1_555
H3 C4 1_555 1_555
C5 C4 1_555 1_555
C6 C5 1_555 1_555
C7 N1 1_555 1_555
C8 C2 1_555 1_555
C9 C2 1_555 1_555
H4 C9 1_555 1_555
H5 C9 1_555 1_555
C10 C9 1_555 1_555
H6 C10 1_555 1_555
C11 C10 1_555 1_555
N2 C11 1_555 1_555
C12 N2 1_555 1_555
H7 C12 1_555 1_555
H8 C12 1_555 1_555
C13 C12 1_555 1_555
H9 C13 1_555 1_555
H10 C13 1_555 1_555
C14 C13 1_555 1_555
H11 C14 1_555 1_555
H12 C14 1_555 1_555
C15 N2 1_555 1_555
H13 C15 1_555 1_555
C16 C15 1_555 1_555
N3 C10 1_555 1_555
H14 N3 1_555 1_555
C17 H15 1_555 1_555
H16 C17 1_555 1_555
C18 C17 1_555 1_555
H17 C18 1_555 1_555
C19 C2 1_555 1_555
C20 C19 1_555 1_555
H18 C20 1_555 1_555
H19 C20 1_555 1_555
H20 C20 1_555 1_555
C21 C19 1_555 1_555
H21 C21 1_555 1_555
H22 C21 1_555 1_555
H23 C21 1_555 1_555
C22 C6 1_555 1_555
H24 C22 1_555 1_555
C23 C22 1_555 1_555
H25 C23 1_555 1_555
C24 C23 1_555 1_555
C25 C24 1_555 1_555
H26 C25 1_555 1_555
H27 C25 1_555 1_555
H28 C25 1_555 1_555
C26 C24 1_555 1_555
H29 C26 1_555 1_555
H30 C26 1_555 1_555
H31 C26 1_555 1_555
O1 C1 1_555 1_555
O2 C5 1_555 1_555
O3 C11 1_555 1_555
O4 C16 1_555 1_555
N4 H32 1_555 1_555
C27 N4 1_555 1_555
C28 C27 1_555 1_555
C29 H33 1_555 1_555
C30 C29 1_555 1_555
H34 C30 1_555 1_555
C31 C30 1_555 1_555
C32 C31 1_555 1_555
C33 N4 1_555 1_555
C34 C28 1_555 1_555
C35 C28 1_555 1_555
H35 C35 1_555 1_555
H36 C35 1_555 1_555
C36 C35 1_555 1_555
H37 C36 1_555 1_555
C37 C36 1_555 1_555
N5 C37 1_555 1_555
C38 N5 1_555 1_555
H38 C38 1_555 1_555
H39 C38 1_555 1_555
C39 C38 1_555 1_555
H40 C39 1_555 1_555
H41 C39 1_555 1_555
C40 C39 1_555 1_555
H42 C40 1_555 1_555
H43 C40 1_555 1_555
C41 N5 1_555 1_555
H44 C41 1_555 1_555
C42 C41 1_555 1_555
N6 C36 1_555 1_555
H45 N6 1_555 1_555
C43 H46 1_555 1_555
H47 C43 1_555 1_555
C44 C43 1_555 1_555
H48 C44 1_555 1_555
C45 C28 1_555 1_555
C46 C45 1_555 1_555
H49 C46 1_555 1_555
H50 C46 1_555 1_555
H51 C46 1_555 1_555
C47 C45 1_555 1_555
H52 C47 1_555 1_555
H53 C47 1_555 1_555
H54 C47 1_555 1_555
C48 C32 1_555 1_555
H55 C48 1_555 1_555
C49 C48 1_555 1_555
H56 C49 1_555 1_555
C50 C49 1_555 1_555
C51 C50 1_555 1_555
H57 C51 1_555 1_555
H58 C51 1_555 1_555
H59 C51 1_555 1_555
C52 C50 1_555 1_555
H60 C52 1_555 1_555
H61 C52 1_555 1_555
H62 C52 1_555 1_555
O5 C27 1_555 1_555
O6 C31 1_555 1_555
O7 C37 1_555 1_555
O8 C42 1_555 1_555
C3 C8 1_555 1_555
C6 C7 1_555 1_555
C7 C8 1_555 1_555
C14 C15 1_555 1_555
C16 N3 1_555 1_555
C18 C19 1_555 1_555
C24 O2 1_555 1_555
C29 C34 1_555 1_555
C32 C33 1_555 1_555
C33 C34 1_555 1_555
C40 C41 1_555 1_555
C42 N6 1_555 1_555
C44 C45 1_555 1_555
C50 O6 1_555 1_555

#END
