
#######################################################################
#
#                 Cambridge Crystallographic Data Centre
#                                CCDC 
#
#######################################################################
#
# If this CIF has been generated from an entry in the Cambridge 
# Structural Database, then it will include bibliographic, chemical, 
# crystal, experimental, refinement or atomic coordinate data resulting 
# from the CCDC's data processing and validation procedures.
#
#######################################################################

data_RIMWER
_chemical_compound_source        'Illicium majus'
_chemical_name_common            'Majusanic acid E'
_chemical_formula_moiety         'C20 H28 O3'
_chemical_name_systematic        
'(15S)-16-Hydroxyabieta -8,11,13-trien-18-oic acid'
_symmetry_cell_setting           monoclinic
_symmetry_space_group_name_H-M   'C 2'
_symmetry_Int_Tables_number      5
_space_group_name_Hall           'C 2y'
loop_
_symmetry_equiv_pos_site_id
_symmetry_equiv_pos_as_xyz
1 x,y,z
2 -x,y,-z
3 1/2+x,1/2+y,z
4 1/2-x,1/2+y,-z
_cell_length_a                   21.2772(9)
_cell_length_b                   10.1711(5)
_cell_length_c                   8.2882(3)
_cell_angle_alpha                90
_cell_angle_beta                 93.399(4)
_cell_angle_gamma                90
_cell_volume                     1790.52
_cell_formula_units_Z            4
_chemical_properties_physical    heat-sensitive
_exptl_crystal_recrystallization_method methanol/water
loop_
_atom_site_label
_atom_site_type_symbol
_atom_site_fract_x
_atom_site_fract_y
_atom_site_fract_z
O1 O -0.46158(5) -0.90135(13) -0.17278(15)
H1 H -0.4988 -0.8751 -0.1665
O2 O -0.36494(5) -1.80024(12) -1.00753(13)
H2 H -0.3973 -1.8327 -1.0548
C1 C -0.38501(7) -1.43686(15) -0.42616(19)
O3 O -0.41511(6) -1.85247(12) -0.78736(14)
C2 C -0.37250(7) -1.40158(16) -0.58352(18)
C3 C -0.31572(7) -1.74308(15) -0.74710(19)
C4 C -0.30229(8) -1.45415(16) -0.81022(19)
H3 H -0.3148 -1.3724 -0.8683
H4 H -0.2664 -1.4328 -0.7331
C5 C -0.26414(7) -1.68565(16) -0.84955(19)
H5 H -0.2254 -1.6733 -0.7790
H6 H -0.2546 -1.7505 -0.9337
C6 C -0.39601(8) -1.33899(16) -0.31196(19)
H7 H -0.4044 -1.3646 -0.2051
C7 C -0.38491(9) -1.57964(15) -0.3713(2)
H8 H -0.4218 -1.5949 -0.3064
H9 H -0.3465 -1.5962 -0.3007
C8 C -0.28098(8) -1.55504(16) -0.93184(19)
H10 H -0.2438 -1.5208 -0.9848
H11 H -0.3151 -1.5693 -1.0165
C9 C -0.33803(7) -1.63505(15) -0.63026(17)
H12 H -0.2996 -1.6123 -0.5604
C10 C -0.38691(8) -1.67678(16) -0.51141(19)
H13 H -0.4295 -1.6775 -0.5667
H14 H -0.3774 -1.7665 -0.4706
C11 C -0.37062(7) -1.80282(16) -0.84947(19)
C12 C -0.37370(8) -1.26769(16) -0.62230(19)
H15 H -0.3668 -1.2418 -0.7300
C13 C -0.39507(7) -1.20591(16) -0.34973(19)
C14 C -0.35828(7) -1.50321(15) -0.71446(17)
C15 C -0.46111(8) -1.01579(18) -0.2731(2)
H16 H -0.4605 -0.9894 -0.3880
H17 H -0.4996 -1.0684 -0.2596
C16 C -0.38457(7) -1.17174(16) -0.50913(19)
H18 H -0.3849 -1.0818 -0.5400
C17 C -0.28577(8) -1.85834(16) -0.6488(2)
H19 H -0.2522 -1.8248 -0.5738
H20 H -0.2681 -1.9219 -0.7226
H21 H -0.3180 -1.9015 -0.5876
C18 C -0.41806(8) -1.51461(17) -0.82963(18)
H22 H -0.4295 -1.4275 -0.8727
H23 H -0.4528 -1.5496 -0.7701
H24 H -0.4097 -1.5739 -0.9190
C19 C -0.40306(7) -1.09760(15) -0.22564(19)
H25 H -0.3658 -1.0381 -0.2300
C20 C -0.40459(9) -1.14659(16) -0.05195(19)
H26 H -0.3653 -1.1931 -0.0217
H27 H -0.4403 -1.2066 -0.0432
H28 H -0.4092 -1.0716 0.0206
loop_
_geom_bond_atom_site_label_1
_geom_bond_atom_site_label_2
_geom_bond_site_symmetry_1
_geom_bond_site_symmetry_2
O1 H1 1_555 1_555
O2 H2 1_555 1_555
C1 C2 1_555 1_555
O3 C11 1_555 1_555
C2 C12 1_555 1_555
C3 C5 1_555 1_555
C4 H3 1_555 1_555
H4 C4 1_555 1_555
C5 H5 1_555 1_555
H6 C5 1_555 1_555
C6 C1 1_555 1_555
H7 C6 1_555 1_555
C7 C1 1_555 1_555
H8 C7 1_555 1_555
H9 C7 1_555 1_555
C8 C4 1_555 1_555
H10 C8 1_555 1_555
H11 C8 1_555 1_555
C9 C3 1_555 1_555
H12 C9 1_555 1_555
C10 C7 1_555 1_555
H13 C10 1_555 1_555
H14 C10 1_555 1_555
C11 O2 1_555 1_555
C12 H15 1_555 1_555
C13 C6 1_555 1_555
C14 C2 1_555 1_555
C15 O1 1_555 1_555
H16 C15 1_555 1_555
H17 C15 1_555 1_555
C16 C12 1_555 1_555
H18 C16 1_555 1_555
C17 C3 1_555 1_555
H19 C17 1_555 1_555
H20 C17 1_555 1_555
H21 C17 1_555 1_555
C18 C14 1_555 1_555
H22 C18 1_555 1_555
H23 C18 1_555 1_555
H24 C18 1_555 1_555
C19 C13 1_555 1_555
H25 C19 1_555 1_555
C20 C19 1_555 1_555
H26 C20 1_555 1_555
H27 C20 1_555 1_555
H28 C20 1_555 1_555
C3 C11 1_555 1_555
C4 C14 1_555 1_555
C5 C8 1_555 1_555
C9 C10 1_555 1_555
C9 C14 1_555 1_555
C13 C16 1_555 1_555
C15 C19 1_555 1_555

#END
