
#######################################################################
#
#                 Cambridge Crystallographic Data Centre
#                                CCDC 
#
#######################################################################
#
# If this CIF has been generated from an entry in the Cambridge 
# Structural Database, then it will include bibliographic, chemical, 
# crystal, experimental, refinement or atomic coordinate data resulting 
# from the CCDC's data processing and validation procedures.
#
#######################################################################

data_RIMXES
_chemical_formula_moiety         'C24 H34 O4,H2 O1'
_chemical_name_systematic        
'(3\b,5\b)-Methyl (3-hydroxy-20-oxo-21-norcholan-14,16-dien-24-oate) monohydrate'
_symmetry_cell_setting           triclinic
_symmetry_space_group_name_H-M   'P 1'
_symmetry_Int_Tables_number      1
_space_group_name_Hall           'P 1'
loop_
_symmetry_equiv_pos_site_id
_symmetry_equiv_pos_as_xyz
1 x,y,z
_cell_length_a                   7.2695(5)
_cell_length_b                   10.9062(9)
_cell_length_c                   14.3200(12)
_cell_angle_alpha                82.644(2)
_cell_angle_beta                 79.719(2)
_cell_angle_gamma                82.683(2)
_cell_volume                     1101.53
_exptl_crystal_colour            colorless
_cell_formula_units_Z            2
loop_
_atom_site_label
_atom_site_type_symbol
_atom_site_fract_x
_atom_site_fract_y
_atom_site_fract_z
C1 C 1.0278(5) 0.1047(3) 0.2124(3)
H1 H 1.0391 0.1412 0.1465
H2 H 1.1522 0.0942 0.2298
C2 C 0.9585(5) -0.0235(3) 0.2197(3)
H3 H 1.0448 -0.0747 0.1769
H4 H 0.9563 -0.0638 0.2842
C3 C 0.7635(5) -0.0126(3) 0.1939(3)
H5 H 0.7180 -0.0948 0.2055
C4 C 0.6285(5) 0.0762(3) 0.2554(3)
H6 H 0.5074 0.0872 0.2341
H7 H 0.6105 0.0386 0.3210
C5 C 0.6971(4) 0.2034(3) 0.2516(3)
H8 H 0.7022 0.2424 0.1857
C6 C 0.5545(5) 0.2868(3) 0.3151(3)
H9 H 0.5863 0.3717 0.3016
H10 H 0.4300 0.2856 0.2999
C7 C 0.5521(4) 0.2443(3) 0.4209(3)
H11 H 0.5107 0.1618 0.4357
H12 H 0.4638 0.3005 0.4587
C8 C 0.7482(4) 0.2418(3) 0.4464(2)
H13 H 0.7854 0.3263 0.4313
C9 C 0.8942(4) 0.1549(3) 0.3839(2)
H14 H 0.8509 0.0719 0.3963
C10 C 0.8989(4) 0.1967(3) 0.2762(2)
C11 C 1.0889(4) 0.1431(3) 0.4161(2)
H15 H 1.1748 0.0840 0.3798
H16 H 1.1387 0.2230 0.4021
C12 C 1.0783(4) 0.1001(3) 0.5229(2)
H17 H 1.2029 0.0938 0.5398
H18 H 1.0347 0.0182 0.5366
C13 C 0.9435(4) 0.1916(3) 0.5842(2)
C14 C 0.7561(4) 0.2036(3) 0.5487(3)
C15 C 0.6208(5) 0.1664(3) 0.6218(3)
H19 H 0.4945 0.1659 0.6180
C16 C 0.7058(5) 0.1278(3) 0.7063(2)
H20 H 0.6409 0.0993 0.7655
C17 C 0.8926(5) 0.1390(3) 0.6875(2)
C18 C 1.0201(5) 0.3184(3) 0.5763(3)
H21 H 0.9306 0.3739 0.6127
H22 H 1.0411 0.3527 0.5106
H23 H 1.1366 0.3078 0.6007
C19 C 0.9757(5) 0.3241(3) 0.2460(3)
H24 H 0.9164 0.3814 0.2908
H25 H 0.9492 0.3556 0.1835
H26 H 1.1091 0.3146 0.2449
C20 C 1.0268(5) 0.1074(3) 0.7535(3)
C21 C 0.9599(5) 0.0505(3) 0.8536(3)
H27 H 0.9079 -0.0262 0.8505
H28 H 0.8603 0.1069 0.8846
C22 C 1.1167(5) 0.0231(3) 0.9132(3)
H29 H 1.0681 -0.0200 0.9745
H30 H 1.2164 -0.0324 0.8814
C23 C 1.1982(5) 0.1356(3) 0.9302(3)
C24 C 1.1360(6) 0.3451(3) 0.9613(3)
H31 H 1.2295 0.3757 0.9105
H32 H 1.1889 0.3256 1.0190
H33 H 1.0308 0.4076 0.9709
O1 O 0.7730(4) 0.0314(2) 0.09410(18)
H34 H 0.7134 -0.0108 0.0694
O2 O 1.1944(3) 0.1258(3) 0.7293(2)
O3 O 1.3604(3) 0.1352(2) 0.9414(2)
O4 O 1.0739(3) 0.2345(2) 0.93677(19)
C25 C 0.4376(5) 0.5533(3) 0.7837(3)
H35 H 0.4115 0.5745 0.8488
H36 H 0.3209 0.5343 0.7676
C26 C 0.5794(5) 0.4379(3) 0.7782(3)
H37 H 0.5280 0.3694 0.8207
H38 H 0.6037 0.4143 0.7137
C27 C 0.7625(5) 0.4626(3) 0.8061(3)
H39 H 0.8550 0.3898 0.7966
C28 C 0.8395(5) 0.5755(3) 0.7455(3)
H40 H 0.8845 0.5541 0.6810
H41 H 0.9466 0.5949 0.7705
C29 C 0.6974(5) 0.6925(3) 0.7411(3)
H42 H 0.6716 0.7216 0.8045
C30 C 0.7853(6) 0.7957(3) 0.6710(3)
H43 H 0.7068 0.8737 0.6792
H44 H 0.9077 0.8048 0.6857
C31 C 0.8078(5) 0.7694(3) 0.5672(3)
H45 H 0.8958 0.6958 0.5572
H46 H 0.8591 0.8388 0.5258
C32 C 0.6198(5) 0.7496(3) 0.5407(3)
H47 H 0.5359 0.8269 0.5474
C33 C 0.5262(5) 0.6443(3) 0.6101(3)
H48 H 0.6121 0.5681 0.6021
C34 C 0.5053(5) 0.6669(3) 0.7164(3)
C35 C 0.3430(5) 0.6216(3) 0.5790(3)
H49 H 0.2905 0.5527 0.6206
H50 H 0.2532 0.6948 0.5870
C36 C 0.3688(5) 0.5926(3) 0.4756(3)
H51 H 0.2476 0.5821 0.4601
H52 H 0.4490 0.5150 0.4686
C37 C 0.4574(4) 0.6970(3) 0.4054(3)
C38 C 0.6349(5) 0.7188(3) 0.4399(3)
C39 C 0.7861(5) 0.6914(3) 0.3733(3)
H53 H 0.9103 0.6969 0.3788
C40 C 0.7248(5) 0.6521(3) 0.2919(3)
H54 H 0.8043 0.6287 0.2372
C41 C 0.5350(5) 0.6543(3) 0.3072(3)
C42 C 0.3207(5) 0.8158(3) 0.3973(3)
H55 H 0.3801 0.8774 0.3519
H56 H 0.2865 0.8469 0.4584
H57 H 0.2099 0.7974 0.3763
C43 C 0.3589(6) 0.7785(4) 0.7406(3)
H58 H 0.2352 0.7569 0.7399
H59 H 0.3843 0.8484 0.6940
H60 H 0.3660 0.7997 0.8028
C44 C 0.4161(5) 0.6205(3) 0.2430(3)
C45 C 0.5101(5) 0.5827(4) 0.1469(3)
H61 H 0.6070 0.5144 0.1557
H62 H 0.5703 0.6520 0.1100
C46 C 0.3717(5) 0.5430(3) 0.0914(3)
H63 H 0.4415 0.5035 0.0369
H64 H 0.2991 0.4819 0.1320
C47 C 0.2400(5) 0.6485(3) 0.0570(3)
C48 C -0.0391(6) 0.7034(4) -0.0074(3)
H65 H 0.0297 0.7435 -0.0642
H66 H -0.0907 0.7640 0.0359
H67 H -0.1392 0.6652 -0.0238
O5 O 0.7344(4) 0.4852(2) 0.90455(19)
H68 H 0.7009 0.4229 0.9385
O6 O 0.2458(4) 0.6220(3) 0.2676(2)
O7 O 0.2707(4) 0.7564(2) 0.0426(2)
O8 O 0.0854(4) 0.6099(2) 0.0373(2)
O9 O 0.5705(4) 0.9091(2) 0.99576(18)
H69 H 0.4849 0.8605 1.0106
H70 H 0.5037 0.9759 0.9801
O10 O 0.6168(4) 0.2658(2) 0.00956(18)
H71 H 0.4974 0.2726 0.0186
H72 H 0.6684 0.1974 0.0334
loop_
_geom_bond_atom_site_label_1
_geom_bond_atom_site_label_2
_geom_bond_site_symmetry_1
_geom_bond_site_symmetry_2
C1 H1 1_555 1_555
H2 C1 1_555 1_555
C2 C1 1_555 1_555
H3 C2 1_555 1_555
H4 C2 1_555 1_555
C3 C2 1_555 1_555
H5 C3 1_555 1_555
C4 C3 1_555 1_555
H6 C4 1_555 1_555
H7 C4 1_555 1_555
C5 C4 1_555 1_555
H8 C5 1_555 1_555
C6 C5 1_555 1_555
H9 C6 1_555 1_555
H10 C6 1_555 1_555
C7 C6 1_555 1_555
H11 C7 1_555 1_555
H12 C7 1_555 1_555
C8 C7 1_555 1_555
H13 C8 1_555 1_555
C9 C8 1_555 1_555
H14 C9 1_555 1_555
C10 C1 1_555 1_555
C11 C9 1_555 1_555
H15 C11 1_555 1_555
H16 C11 1_555 1_555
C12 C11 1_555 1_555
H17 C12 1_555 1_555
H18 C12 1_555 1_555
C13 C12 1_555 1_555
C14 C8 1_555 1_555
C15 C14 1_555 1_555
H19 C15 1_555 1_555
C16 C15 1_555 1_555
H20 C16 1_555 1_555
C17 C13 1_555 1_555
C18 C13 1_555 1_555
H21 C18 1_555 1_555
H22 C18 1_555 1_555
H23 C18 1_555 1_555
C19 C10 1_555 1_555
H24 C19 1_555 1_555
H25 C19 1_555 1_555
H26 C19 1_555 1_555
C20 C17 1_555 1_555
C21 C20 1_555 1_555
H27 C21 1_555 1_555
H28 C21 1_555 1_555
C22 C21 1_555 1_555
H29 C22 1_555 1_555
H30 C22 1_555 1_555
C23 C22 1_555 1_555
C24 H31 1_555 1_555
H32 C24 1_555 1_555
H33 C24 1_555 1_555
O1 C3 1_555 1_555
H34 O1 1_555 1_555
O2 C20 1_555 1_555
O3 C23 1_555 1_555
O4 C23 1_555 1_555
C25 H35 1_555 1_555
H36 C25 1_555 1_555
C26 C25 1_555 1_555
H37 C26 1_555 1_555
H38 C26 1_555 1_555
C27 C26 1_555 1_555
H39 C27 1_555 1_555
C28 C27 1_555 1_555
H40 C28 1_555 1_555
H41 C28 1_555 1_555
C29 C28 1_555 1_555
H42 C29 1_555 1_555
C30 C29 1_555 1_555
H43 C30 1_555 1_555
H44 C30 1_555 1_555
C31 C30 1_555 1_555
H45 C31 1_555 1_555
H46 C31 1_555 1_555
C32 C31 1_555 1_555
H47 C32 1_555 1_555
C33 C32 1_555 1_555
H48 C33 1_555 1_555
C34 C25 1_555 1_555
C35 C33 1_555 1_555
H49 C35 1_555 1_555
H50 C35 1_555 1_555
C36 C35 1_555 1_555
H51 C36 1_555 1_555
H52 C36 1_555 1_555
C37 C36 1_555 1_555
C38 C32 1_555 1_555
C39 C38 1_555 1_555
H53 C39 1_555 1_555
C40 C39 1_555 1_555
H54 C40 1_555 1_555
C41 C37 1_555 1_555
C42 C37 1_555 1_555
H55 C42 1_555 1_555
H56 C42 1_555 1_555
H57 C42 1_555 1_555
C43 C34 1_555 1_555
H58 C43 1_555 1_555
H59 C43 1_555 1_555
H60 C43 1_555 1_555
C44 C41 1_555 1_555
C45 C44 1_555 1_555
H61 C45 1_555 1_555
H62 C45 1_555 1_555
C46 C45 1_555 1_555
H63 C46 1_555 1_555
H64 C46 1_555 1_555
C47 C46 1_555 1_555
C48 H65 1_555 1_555
H66 C48 1_555 1_555
H67 C48 1_555 1_555
O5 C27 1_555 1_555
H68 O5 1_555 1_555
O6 C44 1_555 1_555
O7 C47 1_555 1_555
O8 C47 1_555 1_555
O9 H69 1_555 1_555
H70 O9 1_555 1_555
O10 H71 1_555 1_555
H72 O10 1_555 1_555
C5 C10 1_555 1_555
C9 C10 1_555 1_555
C13 C14 1_555 1_555
C16 C17 1_555 1_555
C24 O4 1_555 1_555
C29 C34 1_555 1_555
C33 C34 1_555 1_555
C37 C38 1_555 1_555
C40 C41 1_555 1_555
C48 O8 1_555 1_555

#END
