
#######################################################################
#
#                 Cambridge Crystallographic Data Centre
#                                CCDC 
#
#######################################################################
#
# If this CIF has been generated from an entry in the Cambridge 
# Structural Database, then it will include bibliographic, chemical, 
# crystal, experimental, refinement or atomic coordinate data resulting 
# from the CCDC's data processing and validation procedures.
#
#######################################################################

data_RIMXIW
_chemical_formula_moiety         'C23 H34 O4'
_chemical_name_systematic        
(3\b,5\b,14\b,15\b,20R,21R,22S)-14,21:15,21:20,22-Triepoxy-24-norcholan-3-ol
_symmetry_cell_setting           orthorhombic
_symmetry_space_group_name_H-M   'P 21 21 21'
_symmetry_Int_Tables_number      19
_space_group_name_Hall           'P 2ac 2ab'
loop_
_symmetry_equiv_pos_site_id
_symmetry_equiv_pos_as_xyz
1 x,y,z
2 1/2-x,-y,1/2+z
3 -x,1/2+y,1/2-z
4 1/2+x,1/2-y,-z
_cell_length_a                   7.51000(10)
_cell_length_b                   9.91760(10)
_cell_length_c                   26.4060(3)
_cell_angle_alpha                90
_cell_angle_beta                 90
_cell_angle_gamma                90
_cell_volume                     1966.75
_exptl_crystal_colour            colorless
_cell_formula_units_Z            4
loop_
_atom_site_label
_atom_site_type_symbol
_atom_site_fract_x
_atom_site_fract_y
_atom_site_fract_z
O1 O 0.80621(17) 0.57959(15) 0.32433(5)
H1 H 0.7172 0.5845 0.3422
O2 O 0.48313(13) 0.91974(12) 0.06552(4)
O3 O 0.49401(15) 1.11217(12) 0.10841(4)
O4 O 0.62467(17) 1.23965(13) 0.00736(5)
C1 C 0.9349(2) 0.57418(18) 0.21931(6)
H2 H 0.9183 0.4881 0.2361
H3 H 1.0364 0.5655 0.1969
C2 C 0.9776(2) 0.6790(2) 0.25893(6)
H4 H 1.0063 0.7636 0.2424
H5 H 1.0811 0.6505 0.2781
C3 C 0.8223(2) 0.70026(18) 0.29473(6)
H6 H 0.8486 0.7764 0.3172
C4 C 0.6530(2) 0.72978(18) 0.26536(7)
H7 H 0.6639 0.8177 0.2495
H8 H 0.5540 0.7339 0.2889
C5 C 0.6105(2) 0.62525(17) 0.22441(6)
H9 H 0.5904 0.5391 0.2417
C6 C 0.4390(2) 0.6601(2) 0.19627(8)
H10 H 0.4050 0.5846 0.1750
H11 H 0.3444 0.6747 0.2207
C7 C 0.4592(2) 0.7855(2) 0.16358(7)
H12 H 0.4764 0.8634 0.1852
H13 H 0.3507 0.7994 0.1443
C8 C 0.61765(19) 0.77348(16) 0.12681(6)
H14 H 0.5886 0.7016 0.1027
C9 C 0.7923(2) 0.73216(14) 0.15364(6)
H15 H 0.8249 0.8063 0.1764
C10 C 0.7685(2) 0.60402(15) 0.18710(6)
C11 C 0.9414(2) 0.72004(16) 0.11414(6)
H16 H 1.0505 0.6921 0.1307
H17 H 0.9098 0.6515 0.0895
C12 C 0.9724(2) 0.85415(16) 0.08695(6)
H18 H 1.0676 0.8432 0.0625
H19 H 1.0099 0.9213 0.1114
C13 C 0.8044(2) 0.90455(15) 0.05962(6)
C14 C 0.64301(18) 0.90218(15) 0.09623(5)
C15 C 0.6537(2) 1.04213(16) 0.12497(6)
H20 H 0.6614 1.0325 0.1618
C16 C 0.8100(2) 1.11860(15) 0.10230(6)
H21 H 0.9200 1.1000 0.1202
H22 H 0.7888 1.2151 0.1018
C17 C 0.8115(2) 1.05884(15) 0.04874(6)
H23 H 0.9151 1.0861 0.0286
C18 C 0.7747(3) 0.82104(18) 0.01164(6)
H24 H 0.8787 0.8258 -0.0094
H25 H 0.6741 0.8561 -0.0065
H26 H 0.7525 0.7289 0.0208
C19 C 0.7356(3) 0.47890(18) 0.15418(8)
H27 H 0.6333 0.4938 0.1331
H28 H 0.7148 0.4022 0.1756
H29 H 0.8379 0.4625 0.1333
C20 C 0.6344(2) 1.10219(16) 0.02565(6)
C21 C 0.4763(2) 1.06002(18) 0.05814(6)
H30 H 0.3633 1.0876 0.0427
C22 C 0.6012(3) 1.12910(19) -0.02818(7)
H31 H 0.4781 1.1142 -0.0391
C23 C 0.7376(3) 1.1143(2) -0.06895(7)
H32 H 0.6855 1.1373 -0.1010
H33 H 0.7788 1.0227 -0.0699
H34 H 0.8360 1.1733 -0.0622
loop_
_geom_bond_atom_site_label_1
_geom_bond_atom_site_label_2
_geom_bond_site_symmetry_1
_geom_bond_site_symmetry_2
O1 H1 1_555 1_555
O2 C14 1_555 1_555
O3 C15 1_555 1_555
O4 C20 1_555 1_555
C1 H2 1_555 1_555
H3 C1 1_555 1_555
C2 C1 1_555 1_555
H4 C2 1_555 1_555
H5 C2 1_555 1_555
C3 O1 1_555 1_555
H6 C3 1_555 1_555
C4 C3 1_555 1_555
H7 C4 1_555 1_555
H8 C4 1_555 1_555
C5 C4 1_555 1_555
H9 C5 1_555 1_555
C6 C5 1_555 1_555
H10 C6 1_555 1_555
H11 C6 1_555 1_555
C7 C6 1_555 1_555
H12 C7 1_555 1_555
H13 C7 1_555 1_555
C8 C7 1_555 1_555
H14 C8 1_555 1_555
C9 C8 1_555 1_555
H15 C9 1_555 1_555
C10 C1 1_555 1_555
C11 C9 1_555 1_555
H16 C11 1_555 1_555
H17 C11 1_555 1_555
C12 C11 1_555 1_555
H18 C12 1_555 1_555
H19 C12 1_555 1_555
C13 C12 1_555 1_555
C14 C8 1_555 1_555
C15 C14 1_555 1_555
H20 C15 1_555 1_555
C16 C15 1_555 1_555
H21 C16 1_555 1_555
H22 C16 1_555 1_555
C17 C13 1_555 1_555
H23 C17 1_555 1_555
C18 C13 1_555 1_555
H24 C18 1_555 1_555
H25 C18 1_555 1_555
H26 C18 1_555 1_555
C19 C10 1_555 1_555
H27 C19 1_555 1_555
H28 C19 1_555 1_555
H29 C19 1_555 1_555
C20 C17 1_555 1_555
C21 O2 1_555 1_555
H30 C21 1_555 1_555
C22 O4 1_555 1_555
H31 C22 1_555 1_555
C23 C22 1_555 1_555
H32 C23 1_555 1_555
H33 C23 1_555 1_555
H34 C23 1_555 1_555
O3 C21 1_555 1_555
C2 C3 1_555 1_555
C5 C10 1_555 1_555
C9 C10 1_555 1_555
C13 C14 1_555 1_555
C16 C17 1_555 1_555
C20 C21 1_555 1_555
C20 C22 1_555 1_555

#END
