
#######################################################################
#
#                 Cambridge Crystallographic Data Centre
#                                CCDC 
#
#######################################################################
#
# If this CIF has been generated from an entry in the Cambridge 
# Structural Database, then it will include bibliographic, chemical, 
# crystal, experimental, refinement or atomic coordinate data resulting 
# from the CCDC's data processing and validation procedures.
#
#######################################################################

data_RINBIZ
_chemical_formula_moiety         'C21 H19 N1 O6'
_chemical_name_systematic        
'Dimethyl exo,endo-5-azatetracyclo(7.2.1.0^2,8^.0^3,7^)dodec-10-ene-4,6-dione-10,11-dicarboxylate'
_symmetry_cell_setting           monoclinic
_symmetry_space_group_name_H-M   'P 21/n'
_symmetry_Int_Tables_number      14
_space_group_name_Hall           '-P 2yn'
loop_
_symmetry_equiv_pos_site_id
_symmetry_equiv_pos_as_xyz
1 x,y,z
2 1/2-x,1/2+y,1/2-z
3 -x,-y,-z
4 1/2+x,1/2-y,1/2+z
_cell_length_a                   13.092(2)
_cell_length_b                   10.150(2)
_cell_length_c                   15.415(2)
_cell_angle_alpha                90
_cell_angle_beta                 113.34(2)
_cell_angle_gamma                90
_cell_volume                     1880.78
_cell_formula_units_Z            4
loop_
_atom_site_label
_atom_site_type_symbol
_atom_site_fract_x
_atom_site_fract_y
_atom_site_fract_z
O1 O 0.9473(2) 0.0820(2) 0.6389(1)
O2 O 1.2624(2) -0.1388(2) 0.8212(1)
O3 O 1.2556(2) 0.0568(2) 1.1748(1)
O4 O 1.0908(2) 0.1232(2) 1.1686(2)
O5 O 0.8788(2) 0.2537(2) 0.9503(2)
O6 O 0.9641(2) 0.3824(2) 1.0740(1)
C1 C 1.0850(2) 0.3066(2) 0.9096(2)
C2 C 1.0669(2) 0.1718(2) 0.8585(2)
C3 C 1.1055(2) 0.1615(3) 0.7754(2)
C4 C 1.0375(2) 0.0647(3) 0.7020(2)
N1 N 1.0946(2) -0.0550(2) 0.7194(1)
C5 C 1.1978(2) -0.0482(3) 0.7958(2)
C6 C 1.2096(2) 0.0858(3) 0.8385(2)
C7 C 1.1707(2) 0.0915(3) 0.9218(2)
C8 C 1.2332(2) 0.1886(3) 1.0028(2)
C9 C 1.1558(2) 0.2020(3) 1.0544(2)
C10 C 1.0690(2) 0.2746(2) 1.0000(2)
C11 C 1.2120(2) 0.3206(3) 0.9506(2)
C12 C 1.1625(2) 0.1266(3) 1.1384(2)
C13 C 1.2684(3) -0.0268(4) 1.2548(2)
C14 C 0.9674(2) 0.3087(3) 1.0145(2)
C15 C 0.7727(3) 0.2840(4) 0.9554(3)
C16 C 1.0510(2) -0.1738(3) 0.6686(2)
C17 C 1.0376(2) -0.2829(3) 0.7160(2)
C18 C 0.9936(3) -0.396(3) 0.6656(3)
C19 C 0.9620(2) -0.3992(3) 0.5696(3)
C20 C 0.9756(2) -0.2911(3) 0.5231(2)
C21 C 1.0208(2) -0.1781(3) 0.5720(2)
H1 H 1.0415 0.3775 0.8715
H2 H 0.9903 0.1506 0.8435
H3 H 1.1072 0.2406 0.7419
H4 H 1.2843 0.1128 0.8505
H5 H 1.1718 0.0093 0.9528
H6 H 1.3090 0.1654 1.0407
H7 H 1.2384 0.3947 0.9923
H8 H 1.2420 0.3243 0.9030
H9 H 1.3383 -0.0723 1.2752
H10 H 1.2089 -0.0897 1.2366
H11 H 1.2665 0.0265 1.3056
H12 H 0.7140 0.2389 0.9055
H13 H 0.7598 0.3772 0.9487
H14 H 0.7741 0.2558 1.0153
H15 H 1.0586 -0.2803 0.7831
H16 H 0.9850 -0.4735 0.6980
H17 H 0.9302 -0.4780 0.5350
H18 H 0.9535 -0.2939 0.4559
H19 H 1.0313 -0.1023 0.5392
loop_
_geom_bond_atom_site_label_1
_geom_bond_atom_site_label_2
_geom_bond_site_symmetry_1
_geom_bond_site_symmetry_2
O1 C4 1_555 1_555
O2 C5 1_555 1_555
O3 C12 1_555 1_555
O4 C12 1_555 1_555
O5 C14 1_555 1_555
O6 C14 1_555 1_555
C1 C2 1_555 1_555
C2 C3 1_555 1_555
C3 C4 1_555 1_555
C4 N1 1_555 1_555
N1 C5 1_555 1_555
C5 C6 1_555 1_555
C6 C3 1_555 1_555
C7 C2 1_555 1_555
C8 C7 1_555 1_555
C9 C8 1_555 1_555
C10 C1 1_555 1_555
C11 C1 1_555 1_555
C12 C9 1_555 1_555
C13 O3 1_555 1_555
C14 C10 1_555 1_555
C15 O5 1_555 1_555
C16 N1 1_555 1_555
C17 C16 1_555 1_555
C18 C17 1_555 1_555
C19 C18 1_555 1_555
C20 C19 1_555 1_555
C21 C16 1_555 1_555
H1 C1 1_555 1_555
H2 C2 1_555 1_555
H3 C3 1_555 1_555
H4 C6 1_555 1_555
H5 C7 1_555 1_555
H6 C8 1_555 1_555
H7 C11 1_555 1_555
H8 C11 1_555 1_555
H9 C13 1_555 1_555
H10 C13 1_555 1_555
H11 C13 1_555 1_555
H12 C15 1_555 1_555
H13 C15 1_555 1_555
H14 C15 1_555 1_555
H15 C17 1_555 1_555
H16 C18 1_555 1_555
H17 C19 1_555 1_555
H18 C20 1_555 1_555
H19 C21 1_555 1_555
C6 C7 1_555 1_555
C8 C11 1_555 1_555
C9 C10 1_555 1_555
C20 C21 1_555 1_555

#END
