
#######################################################################
#
#                 Cambridge Crystallographic Data Centre
#                                CCDC 
#
#######################################################################
#
# If this CIF has been generated from an entry in the Cambridge 
# Structural Database, then it will include bibliographic, chemical, 
# crystal, experimental, refinement or atomic coordinate data resulting 
# from the CCDC's data processing and validation procedures.
#
#######################################################################

data_RINCIC
_chemical_compound_source        'annual herb Physalis angulata L.'
_chemical_name_common            
'Physalin B 5beta,6beta-epoxyphysalin B acetone solvate'
_chemical_formula_moiety         '1.33(C28 H30 O9),0.67(C28 H30 O10),C3 H6 O1'
_chemical_name_systematic        
'5-Hydroxy-2,9,26-trimethyl-3,19,23,28-tetraoxaoctacyclo[16.9.1.1^18,27^.0^1,5^.0^2,24^.0^8,17^.0^9,14^.0^21,26^]nonacosa-11,14-diene-4,10,22,29-tetrone 15-hydroxy-11,18,21-trimethyl-5,17,24,28,29-pentaoxanonacyclo[17.9.1.1^1,20^.0^2,12^.0^4,6^.0^6,11^.0^15,19^.0^18,23^.0^21,26^]triacont-8-ene-10,16,25,30-tetrone acetone solvate'
_symmetry_cell_setting           monoclinic
_symmetry_space_group_name_H-M   'P 21'
_symmetry_Int_Tables_number      4
_space_group_name_Hall           'P 2yb'
loop_
_symmetry_equiv_pos_site_id
_symmetry_equiv_pos_as_xyz
1 x,y,z
2 -x,1/2+y,-z
_cell_length_a                   12.4859(4)
_cell_length_b                   14.1716(4)
_cell_length_c                   14.6559(7)
_cell_angle_alpha                90
_cell_angle_beta                 96.829(3)
_cell_angle_gamma                90
_cell_volume                     2574.89
_exptl_crystal_colour            colorless
_exptl_crystal_description       plate
_cell_formula_units_Z            2
loop_
_atom_site_label
_atom_site_type_symbol
_atom_site_fract_x
_atom_site_fract_y
_atom_site_fract_z
C1 C 0.6702(3) 0.5285(3) 0.5734(3)
C2 C 0.5662(3) 0.5716(3) 0.5401(3)
H1 H 0.5339 0.6148 0.5782
C3 C 0.5161(3) 0.5507(3) 0.4570(3)
H2 H 0.4501 0.5820 0.4373
C4 C 0.5570(3) 0.4822(3) 0.3940(3)
H3 H 0.5538 0.5109 0.3322
H4 H 0.5093 0.4262 0.3891
C5 C 0.669(3) 0.447(6) 0.4243(12)
C6 C 0.745(2) 0.439(6) 0.356(2)
H5 H 0.7306 0.4728 0.2959
O1 O 0.6768(11) 0.3549(11) 0.3743(9)
C7 C 0.8588(3) 0.4111(3) 0.3903(3)
H6 H 0.9051 0.4679 0.3927
H7 H 0.8862 0.3693 0.3442
C8 C 0.8745(3) 0.3611(3) 0.4833(3)
H8 H 0.8347 0.2998 0.4773
C9 C 0.8252(3) 0.4222(3) 0.5552(3)
H9 H 0.8596 0.4859 0.5539
C10 C 0.7021(3) 0.4369(3) 0.5271(3)
C11 C 0.6323(3) 0.3548(3) 0.5584(3)
H10 H 0.6549 0.2952 0.5325
H11 H 0.5562 0.3665 0.5367
H12 H 0.6419 0.3508 0.6256
C12 C 0.8456(3) 0.3869(3) 0.6555(3)
H13 H 0.8515 0.3173 0.6532
H14 H 0.7800 0.4014 0.6848
C13 C 0.9440(3) 0.4232(3) 0.7216(3)
H15 H 0.9154 0.4637 0.7681
H16 H 0.9776 0.3677 0.7545
C14 C 1.0340(3) 0.4783(2) 0.6834(3)
C15 C 1.1242(3) 0.5061(2) 0.7597(3)
C16 C 1.2058(3) 0.4926(3) 0.6262(3)
C17 C 1.3100(3) 0.4407(3) 0.6098(3)
H17 H 1.3725 0.4795 0.6374
C18 C 1.2641(4) 0.3678(3) 0.4594(3)
C19 C 1.2268(3) 0.2794(3) 0.5064(3)
H18 H 1.2850 0.2327 0.4981
C20 C 1.1271(4) 0.2369(3) 0.4477(3)
H19 H 1.1490 0.2190 0.3873
H20 H 1.1072 0.1781 0.4780
C21 C 0.9947(3) 0.3398(3) 0.5072(3)
C22 C 1.0264(3) 0.2804(3) 0.5932(3)
C23 C 1.1239(3) 0.3262(3) 0.6451(3)
H21 H 1.1237 0.3184 0.7129
C24 C 1.1033(3) 0.4304(3) 0.6164(3)
C25 C 1.2271(4) 0.2821(3) 0.6129(3)
C26 C 1.3211(3) 0.3437(3) 0.6522(3)
H22 H 1.3222 0.3486 0.7197
H23 H 1.3899 0.3147 0.6392
C27 C 1.1981(3) 0.5840(3) 0.5709(3)
H24 H 1.2695 0.6135 0.5747
H25 H 1.1476 0.6271 0.5959
H26 H 1.1723 0.5700 0.5065
C28 C 1.2407(4) 0.1824(3) 0.6514(4)
H27 H 1.1793 0.1436 0.6262
H28 H 1.2441 0.1845 0.7185
H29 H 1.3076 0.1550 0.6343
O2 O 0.7296(2) 0.5666(2) 0.63429(19)
O3 O 1.2186(2) 0.51482(19) 0.72403(18)
O4 O 1.3144(2) 0.4364(2) 0.51127(19)
O5 O 1.0316(2) 0.2947(2) 0.4313(2)
O6 O 1.0554(2) 0.42618(18) 0.52361(18)
O7 O 0.9943(2) 0.56394(17) 0.64189(17)
H30 H 0.9698 0.5980 0.6815
O8 O 1.1169(2) 0.52281(19) 0.83868(17)
O9 O 0.9844(2) 0.2071(2) 0.6105(2)
O10 O 1.2584(3) 0.3742(3) 0.3777(2)
C29 C 0.9755(3) 0.7097(2) 0.8370(3)
C30 C 1.0703(4) 0.7565(3) 0.8097(3)
H31 H 1.1001 0.7352 0.7566
C31 C 1.1166(4) 0.8294(3) 0.8580(3)
H32 H 1.1776 0.8586 0.8370
C32 C 1.0771(4) 0.8664(3) 0.9423(3)
H33 H 1.0716 0.9359 0.9375
H34 H 1.1309 0.8514 0.9955
C33 C 0.969(3) 0.8271(17) 0.960(4)
C34 C 0.893(2) 0.877(2) 0.993(4)
H35 H 0.9094 0.9417 1.0047
C35 C 0.7857(3) 0.8445(3) 1.0133(3)
H36 H 0.7300 0.8646 0.9634
H37 H 0.7688 0.8738 1.0712
C36 C 0.7836(3) 0.7366(3) 1.0226(3)
H38 H 0.8306 0.7187 1.0800
C37 C 0.8314(3) 0.6921(2) 0.9399(3)
H39 H 0.7885 0.7168 0.8829
C38 C 0.9498(3) 0.7229(3) 0.9365(3)
C39 C 1.0324(3) 0.6635(3) 1.0002(3)
H40 H 1.0104 0.6616 1.0622
H41 H 1.1040 0.6924 1.0026
H42 H 1.0348 0.5992 0.9761
C40 C 0.8225(3) 0.5833(3) 0.9364(3)
H43 H 0.8182 0.5610 0.9999
H44 H 0.8910 0.5587 0.9179
C41 C 0.7285(3) 0.5356(3) 0.8734(3)
H45 H 0.7588 0.5114 0.8185
H46 H 0.7049 0.4801 0.9067
C42 C 0.6282(3) 0.5926(3) 0.8397(2)
C43 C 0.5420(3) 0.5302(3) 0.7855(3)
C44 C 0.4490(3) 0.6507(3) 0.8497(3)
C45 C 0.3507(3) 0.6438(3) 0.9029(3)
H47 H 0.2860 0.6319 0.8573
C46 C 0.3932(3) 0.7578(3) 1.0243(3)
C47 C 0.4440(3) 0.6794(3) 1.0870(3)
H48 H 0.3897 0.6689 1.1310
C48 C 0.5420(4) 0.7192(3) 1.1483(3)
H49 H 0.5158 0.7694 1.1870
H50 H 0.5716 0.6682 1.1900
C49 C 0.6685(3) 0.7057(3) 1.0323(3)
C50 C 0.6517(3) 0.6005(3) 1.0543(3)
C51 C 0.5558(3) 0.5684(3) 0.9913(3)
H51 H 0.5643 0.5013 0.9720
C52 C 0.5592(3) 0.6362(3) 0.9094(3)
C53 C 0.4551(3) 0.5800(3) 1.0433(3)
C54 C 0.3563(3) 0.5663(3) 0.9728(3)
H52 H 0.3607 0.5045 0.9420
H53 H 0.2902 0.5668 1.0041
C55 C 0.4398(3) 0.7395(3) 0.7900(3)
H54 H 0.3662 0.7447 0.7586
H55 H 0.4909 0.7355 0.7443
H56 H 0.4564 0.7951 0.8289
C56 C 0.4577(4) 0.5033(3) 1.1166(3)
H57 H 0.5254 0.5075 1.1576
H58 H 0.4525 0.4412 1.0870
H59 H 0.3968 0.5120 1.1522
O11 O 0.9184(2) 0.66049(18) 0.78285(18)
O12 O 0.4432(2) 0.5673(2) 0.79051(19)
O13 O 0.3366(2) 0.73502(19) 0.9444(2)
O14 O 0.6302(2) 0.7580(2) 1.1036(2)
O15 O 0.5991(2) 0.72288(18) 0.94852(18)
O16 O 0.6522(2) 0.66562(19) 0.77836(17)
H60 H 0.6896 0.6435 0.7394
O17 O 0.5540(2) 0.4608(2) 0.74089(19)
O18 O 0.7018(2) 0.5576(2) 1.1169(2)
O19 O 0.3956(3) 0.8386(2) 1.0486(2)
C57 C 0.9182(5) 0.0191(5) 0.7537(4)
H61 H 0.9584 0.0026 0.8131
H62 H 0.9637 0.0581 0.7186
H63 H 0.8976 -0.0386 0.7192
C58 C 0.8188(4) 0.0732(4) 0.7691(3)
C59 C 0.7520(5) 0.1084(4) 0.6872(4)
H64 H 0.6954 0.1496 0.7058
H65 H 0.7187 0.0550 0.6519
H66 H 0.7971 0.1441 0.6490
O20 O 0.7939(4) 0.0864(5) 0.8446(3)
H67? H 1.0659 0.9352 0.9346
H68? H 1.1346 0.8571 0.9941
C60? C 0.975(4) 0.824(2) 0.969(6)
C61? C 0.894(3) 0.885(3) 1.004(5)
H69? H 0.9004 0.9549 0.9956
O21? O 0.9766(6) 0.8360(5) 1.0709(5)
H70? H 0.7353 0.8630 0.9590
H71? H 0.7589 0.8727 1.0681
C62? C 0.6716(10) 0.451(2) 0.4243(5)
C63? C 0.7433(8) 0.4393(17) 0.3655(7)
H72? H 0.7196 0.4500 0.3023
H73? H 0.8810 0.3685 0.3424
loop_
_geom_bond_atom_site_label_1
_geom_bond_atom_site_label_2
_geom_bond_site_symmetry_1
_geom_bond_site_symmetry_2
C1 C2 1_555 1_555
C2 H1 1_555 1_555
C3 C2 1_555 1_555
H2 C3 1_555 1_555
C4 C3 1_555 1_555
H3 C4 1_555 1_555
H4 C4 1_555 1_555
C5 C4 1_555 1_555
C6 C5 1_555 1_555
H5 C6 1_555 1_555
O1 C5 1_555 1_555
C7 C6 1_555 1_555
H6 C7 1_555 1_555
H7 C7 1_555 1_555
C8 C7 1_555 1_555
H8 C8 1_555 1_555
C9 C8 1_555 1_555
H9 C9 1_555 1_555
C10 C1 1_555 1_555
C11 C10 1_555 1_555
H10 C11 1_555 1_555
H11 C11 1_555 1_555
H12 C11 1_555 1_555
C12 C9 1_555 1_555
H13 C12 1_555 1_555
H14 C12 1_555 1_555
C13 C12 1_555 1_555
H15 C13 1_555 1_555
H16 C13 1_555 1_555
C14 C13 1_555 1_555
C15 C14 1_555 1_555
C16 C17 1_555 1_555
C17 H17 1_555 1_555
C18 C19 1_555 1_555
C19 H18 1_555 1_555
C20 C19 1_555 1_555
H19 C20 1_555 1_555
H20 C20 1_555 1_555
C21 C8 1_555 1_555
C22 C21 1_555 1_555
C23 C22 1_555 1_555
H21 C23 1_555 1_555
C24 C14 1_555 1_555
C25 C19 1_555 1_555
C26 C17 1_555 1_555
H22 C26 1_555 1_555
H23 C26 1_555 1_555
C27 C16 1_555 1_555
H24 C27 1_555 1_555
H25 C27 1_555 1_555
H26 C27 1_555 1_555
C28 C25 1_555 1_555
H27 C28 1_555 1_555
H28 C28 1_555 1_555
H29 C28 1_555 1_555
O2 C1 1_555 1_555
O3 C15 1_555 1_555
O4 C17 1_555 1_555
O5 C20 1_555 1_555
O6 C21 1_555 1_555
O7 C14 1_555 1_555
H30 O7 1_555 1_555
O8 C15 1_555 1_555
O9 C22 1_555 1_555
O10 C18 1_555 1_555
C29 C30 1_555 1_555
C30 H31 1_555 1_555
C31 C30 1_555 1_555
H32 C31 1_555 1_555
C32 C31 1_555 1_555
H33 C32 1_555 1_555
H34 C32 1_555 1_555
C33 C32 1_555 1_555
C34 C33 1_555 1_555
H35 C34 1_555 1_555
C35 C34 1_555 1_555
H36 C35 1_555 1_555
H37 C35 1_555 1_555
C36 C35 1_555 1_555
H38 C36 1_555 1_555
C37 C36 1_555 1_555
H39 C37 1_555 1_555
C38 C29 1_555 1_555
C39 C38 1_555 1_555
H40 C39 1_555 1_555
H41 C39 1_555 1_555
H42 C39 1_555 1_555
C40 C37 1_555 1_555
H43 C40 1_555 1_555
H44 C40 1_555 1_555
C41 C40 1_555 1_555
H45 C41 1_555 1_555
H46 C41 1_555 1_555
C42 C41 1_555 1_555
C43 C42 1_555 1_555
C44 C45 1_555 1_555
C45 H47 1_555 1_555
C46 C47 1_555 1_555
C47 H48 1_555 1_555
C48 C47 1_555 1_555
H49 C48 1_555 1_555
H50 C48 1_555 1_555
C49 C36 1_555 1_555
C50 C49 1_555 1_555
C51 C50 1_555 1_555
H51 C51 1_555 1_555
C52 C42 1_555 1_555
C53 C47 1_555 1_555
C54 C45 1_555 1_555
H52 C54 1_555 1_555
H53 C54 1_555 1_555
C55 C44 1_555 1_555
H54 C55 1_555 1_555
H55 C55 1_555 1_555
H56 C55 1_555 1_555
C56 C53 1_555 1_555
H57 C56 1_555 1_555
H58 C56 1_555 1_555
H59 C56 1_555 1_555
O11 C29 1_555 1_555
O12 C43 1_555 1_555
O13 C45 1_555 1_555
O14 C48 1_555 1_555
O15 C49 1_555 1_555
O16 C42 1_555 1_555
H60 O16 1_555 1_555
O17 C43 1_555 1_555
O18 C50 1_555 1_555
O19 C46 1_555 1_555
C57 H61 1_555 1_555
H62 C57 1_555 1_555
H63 C57 1_555 1_555
C58 C57 1_555 1_555
C59 C58 1_555 1_555
H64 C59 1_555 1_555
H65 C59 1_555 1_555
H66 C59 1_555 1_555
O20 C58 1_555 1_555
C5 C10 1_555 1_555
C6 O1 1_555 1_555
C9 C10 1_555 1_555
C16 C24 1_555 1_555
C16 O3 1_555 1_555
C18 O4 1_555 1_555
C21 O5 1_555 1_555
C23 C24 1_555 1_555
C23 C25 1_555 1_555
C24 O6 1_555 1_555
C25 C26 1_555 1_555
C33 C38 1_555 1_555
C37 C38 1_555 1_555
C44 C52 1_555 1_555
C44 O12 1_555 1_555
C46 O13 1_555 1_555
C49 O14 1_555 1_555
C51 C52 1_555 1_555
C51 C53 1_555 1_555
C52 O15 1_555 1_555
C53 C54 1_555 1_555

#END
