
#######################################################################
#
#                 Cambridge Crystallographic Data Centre
#                                CCDC 
#
#######################################################################
#
# If this CIF has been generated from an entry in the Cambridge 
# Structural Database, then it will include bibliographic, chemical, 
# crystal, experimental, refinement or atomic coordinate data resulting 
# from the CCDC's data processing and validation procedures.
#
#######################################################################

data_RINCEY
_chemical_compound_source        'annual herb Physalis angulata L.'
_chemical_name_common            'Physalin B acetone solvate hydrate'
_chemical_formula_moiety         'C28 H30 O9,0.5(C3 H6 O1),0.11(H2 O1)'
_chemical_name_systematic        
'5-Hydroxy-2,9,26-trimethyl-3,19,23,28-tetraoxaoctacyclo[16.9.1.1^18,27^.0^1,5^.0^2,24^.0^8,17^.0^9,14^.0^21,26^]nonacosa-11,14-diene-4,10,22,29-tetrone acetone solvate hydrate'
_symmetry_cell_setting           monoclinic
_symmetry_space_group_name_H-M   'P 21'
_symmetry_Int_Tables_number      4
_space_group_name_Hall           'P 2yb'
loop_
_symmetry_equiv_pos_site_id
_symmetry_equiv_pos_as_xyz
1 x,y,z
2 -x,1/2+y,-z
_cell_length_a                   12.5153(9)
_cell_length_b                   14.1333(11)
_cell_length_c                   14.6716(10)
_cell_angle_alpha                90
_cell_angle_beta                 96.863(4)
_cell_angle_gamma                90
_cell_volume                     2576.55
_exptl_crystal_colour            colorless
_exptl_crystal_description       plate
_cell_formula_units_Z            4
loop_
_atom_site_label
_atom_site_type_symbol
_atom_site_fract_x
_atom_site_fract_y
_atom_site_fract_z
C1 C 0.6692(3) 0.5254(3) 0.5749(2)
C2 C 0.5643(3) 0.5674(3) 0.5419(3)
H1 H 0.5316 0.6102 0.5801
C3 C 0.5144(3) 0.5460(3) 0.4591(3)
H2 H 0.4481 0.5765 0.4393
C4 C 0.8726(3) 0.3562(3) 0.4878(2)
H3 H 0.8330 0.2946 0.4831
C5 C 0.8247(3) 0.4184(3) 0.5581(2)
H4 H 0.8594 0.4819 0.5559
C6 C 0.7016(3) 0.4334(3) 0.5298(2)
C7 C 0.6321(3) 0.3512(3) 0.5604(3)
H5 H 0.6536 0.2919 0.5333
H6 H 0.5560 0.3637 0.5397
H7 H 0.6426 0.3461 0.6274
C8 C 0.8444(3) 0.3843(3) 0.6597(2)
H8 H 0.8492 0.3144 0.6586
H9 H 0.7792 0.4004 0.6886
C9 C 0.9433(3) 0.4210(3) 0.7246(2)
H10 H 0.9155 0.4618 0.7713
H11 H 0.9772 0.3654 0.7575
C10 C 1.0317(3) 0.4754(2) 0.6857(2)
C11 C 1.1233(3) 0.5051(2) 0.7611(2)
C12 C 1.2040(3) 0.4891(3) 0.6277(2)
C13 C 1.3079(3) 0.4373(3) 0.6126(2)
H12 H 1.3701 0.4766 0.6397
C14 C 1.2608(3) 0.3619(3) 0.4639(3)
C15 C 1.2247(3) 0.2743(3) 0.5100(3)
H13 H 1.2830 0.2278 0.5019
C16 C 1.1251(3) 0.2308(3) 0.4525(3)
H14 H 1.1465 0.2121 0.3922
H15 H 1.1058 0.1721 0.4836
C17 C 0.9936(3) 0.3354(3) 0.5114(2)
C18 C 1.0246(3) 0.2764(3) 0.5983(3)
C19 C 1.1229(3) 0.3229(3) 0.6489(2)
H16 H 1.1233 0.3154 0.7167
C20 C 1.1019(3) 0.4268(3) 0.6203(2)
C21 C 1.2253(3) 0.2780(3) 0.6170(3)
C22 C 1.3194(3) 0.3406(3) 0.6551(2)
H17 H 1.3213 0.3460 0.7226
H18 H 1.3878 0.3116 0.6417
C23 C 1.1953(3) 0.5798(3) 0.5718(2)
H19 H 1.2664 0.6096 0.5746
H20 H 1.1452 0.6233 0.5969
H21 H 1.1688 0.5652 0.5078
C24 C 1.2386(3) 0.1792(3) 0.6572(3)
H22 H 1.1776 0.1398 0.6322
H23 H 1.2412 0.1826 0.7241
H24 H 1.3056 0.1514 0.6411
O1 O 0.7297(2) 0.56541(18) 0.63524(16)
O2 O 1.21664(19) 0.51225(18) 0.72622(14)
O3 O 1.3116(2) 0.4317(2) 0.51370(15)
O4 O 1.0298(2) 0.2884(2) 0.43611(17)
O5 O 1.0536(2) 0.42148(18) 0.52667(14)
O6 O 0.99274(19) 0.56079(16) 0.64335(14)
H25 H 0.9638 0.5936 0.6813
O7 O 1.1145(2) 0.52265(19) 0.84060(14)
O8 O 0.9827(2) 0.20308(19) 0.6166(2)
O9 O 1.2549(3) 0.3688(2) 0.38115(18)
C25 C 0.5572(3) 0.4767(3) 0.3957(3)
H26 H 0.5533 0.5051 0.3337
H27 H 0.5109 0.4197 0.3912
C26 C 0.6730(3) 0.4471(3) 0.4265(2)
C27 C 0.7433(3) 0.4354(3) 0.3678(2)
H28 H 0.7202 0.4475 0.3049
C28 C 0.8568(3) 0.4045(3) 0.3932(2)
H29 H 0.9049 0.4602 0.3940
H30 H 0.8771 0.3599 0.3462
C29 C 0.9749(3) 0.7110(2) 0.8356(2)
C30 C 1.0719(3) 0.7573(3) 0.8106(3)
H31 H 1.1043 0.7344 0.7595
C31 C 1.1158(3) 0.8310(3) 0.8581(3)
H32 H 1.1777 0.8597 0.8384
C32 C 1.0734(3) 0.8702(3) 0.9392(3)
H33 H 1.0679 0.9398 0.9324
H34 H 1.1254 0.8568 0.9940
C33 C 0.9643(3) 0.8318(3) 0.9558(2)
C34 C 0.8889(3) 0.8843(3) 0.9887(3)
H35 H 0.9035 0.9498 0.9980
C35 C 0.7844(3) 0.8486(3) 1.0117(3)
H36 H 0.7269 0.8683 0.9632
H37 H 0.7690 0.8776 1.0702
C36 C 0.7822(3) 0.7408(3) 1.0211(2)
H38 H 0.8294 0.7229 1.0784
C37 C 0.8292(3) 0.6956(2) 0.9381(2)
H39 H 0.7860 0.7203 0.8813
C38 C 0.9462(3) 0.7267(2) 0.9343(2)
C39 C 1.0294(3) 0.6707(3) 1.0016(2)
H40 H 1.0076 0.6726 1.0635
H41 H 1.1007 0.6995 1.0023
H42 H 1.0321 0.6048 0.9812
C40 C 0.8203(3) 0.5864(3) 0.9348(2)
H43 H 0.8174 0.5643 0.9984
H44 H 0.8883 0.5620 0.9155
C41 C 0.7262(3) 0.5374(3) 0.8733(2)
H45 H 0.7559 0.5118 0.8187
H46 H 0.7028 0.4826 0.9080
C42 C 0.6265(3) 0.5944(2) 0.8393(2)
C43 C 0.5400(3) 0.5307(3) 0.7861(2)
C44 C 0.4475(3) 0.6536(3) 0.8486(2)
C45 C 0.3489(3) 0.6469(3) 0.9018(2)
H47 H 0.2844 0.6346 0.8563
C46 C 0.3932(3) 0.7622(3) 1.0228(2)
C47 C 0.4431(3) 0.6849(3) 1.0851(2)
H48 H 0.3890 0.6752 1.1291
C48 C 0.5396(3) 0.7254(3) 1.1455(3)
H49 H 0.5131 0.7763 1.1833
H50 H 0.5689 0.6749 1.1881
C49 C 0.6670(3) 0.7098(3) 1.0315(2)
C50 C 0.6505(3) 0.6057(3) 1.0538(2)
C51 C 0.5532(3) 0.5721(3) 0.9917(2)
H51 H 0.5616 0.5046 0.9736
C52 C 0.5582(3) 0.6392(3) 0.9085(2)
C53 C 0.4538(3) 0.5846(3) 1.0430(2)
C54 C 0.3544(3) 0.5705(3) 0.9727(2)
H52 H 0.3581 0.5080 0.9429
H53 H 0.2886 0.5720 1.0042
C55 C 0.4379(3) 0.7405(3) 0.7883(2)
H54 H 0.3660 0.7425 0.7534
H55 H 0.4924 0.7381 0.7456
H56 H 0.4489 0.7972 0.8266
C56 C 0.4563(3) 0.5089(3) 1.1173(2)
H57 H 0.5212 0.5168 1.1610
H58 H 0.4568 0.4461 1.0890
H59 H 0.3925 0.5152 1.1495
O10 O 0.91786(19) 0.66204(18) 0.78141(14)
O11 O 0.44170(19) 0.56874(19) 0.79062(15)
O12 O 0.3349(2) 0.73799(18) 0.94263(16)
O13 O 0.6284(2) 0.7637(2) 1.10110(17)
O14 O 0.59737(19) 0.72647(18) 0.94705(14)
O15 O 0.64956(19) 0.66668(17) 0.77693(15)
H60 H 0.6903 0.6450 0.7404
O16 O 0.5523(2) 0.46110(19) 0.74246(17)
O17 O 0.7004(2) 0.5622(2) 1.11665(16)
O18 O 0.3952(2) 0.8439(2) 1.04495(19)
C57 C 0.9135(4) 0.0213(4) 0.7558(3)
H61 H 0.9558 0.0125 0.8158
H62 H 0.9574 0.0538 0.7144
H63 H 0.8911 -0.0405 0.7299
C58 C 0.8163(4) 0.0794(4) 0.7667(3)
C59 C 0.7456(4) 0.1055(4) 0.6834(3)
H64 H 0.6879 0.1467 0.6998
H65 H 0.7142 0.0482 0.6536
H66 H 0.7874 0.1391 0.6412
O19 O 0.7941(3) 0.1042(4) 0.8426(2)
O20 O 1.3355(14) 0.3725(10) 0.2326(9)
H67 H 1.3174 0.3818 0.2852
H68 H 1.36(2) 0.316(6) 0.228(8)
loop_
_geom_bond_atom_site_label_1
_geom_bond_atom_site_label_2
_geom_bond_site_symmetry_1
_geom_bond_site_symmetry_2
C1 C2 1_555 1_555
C2 H1 1_555 1_555
C3 C2 1_555 1_555
H2 C3 1_555 1_555
C4 H3 1_555 1_555
C5 C4 1_555 1_555
H4 C5 1_555 1_555
C6 C1 1_555 1_555
C7 C6 1_555 1_555
H5 C7 1_555 1_555
H6 C7 1_555 1_555
H7 C7 1_555 1_555
C8 C5 1_555 1_555
H8 C8 1_555 1_555
H9 C8 1_555 1_555
C9 C8 1_555 1_555
H10 C9 1_555 1_555
H11 C9 1_555 1_555
C10 C9 1_555 1_555
C11 C10 1_555 1_555
C12 C13 1_555 1_555
C13 H12 1_555 1_555
C14 C15 1_555 1_555
C15 H13 1_555 1_555
C16 C15 1_555 1_555
H14 C16 1_555 1_555
H15 C16 1_555 1_555
C17 C4 1_555 1_555
C18 C17 1_555 1_555
C19 C18 1_555 1_555
H16 C19 1_555 1_555
C20 C10 1_555 1_555
C21 C15 1_555 1_555
C22 C13 1_555 1_555
H17 C22 1_555 1_555
H18 C22 1_555 1_555
C23 C12 1_555 1_555
H19 C23 1_555 1_555
H20 C23 1_555 1_555
H21 C23 1_555 1_555
C24 C21 1_555 1_555
H22 C24 1_555 1_555
H23 C24 1_555 1_555
H24 C24 1_555 1_555
O1 C1 1_555 1_555
O2 C11 1_555 1_555
O3 C13 1_555 1_555
O4 C16 1_555 1_555
O5 C17 1_555 1_555
O6 C10 1_555 1_555
H25 O6 1_555 1_555
O7 C11 1_555 1_555
O8 C18 1_555 1_555
O9 C14 1_555 1_555
C25 C3 1_555 1_555
H26 C25 1_555 1_555
H27 C25 1_555 1_555
C26 C6 1_555 1_555
C27 C26 1_555 1_555
H28 C27 1_555 1_555
C28 C4 1_555 1_555
H29 C28 1_555 1_555
H30 C28 1_555 1_555
C29 C30 1_555 1_555
C30 H31 1_555 1_555
C31 C30 1_555 1_555
H32 C31 1_555 1_555
C32 C31 1_555 1_555
H33 C32 1_555 1_555
H34 C32 1_555 1_555
C33 C32 1_555 1_555
C34 C33 1_555 1_555
H35 C34 1_555 1_555
C35 C34 1_555 1_555
H36 C35 1_555 1_555
H37 C35 1_555 1_555
C36 C35 1_555 1_555
H38 C36 1_555 1_555
C37 C36 1_555 1_555
H39 C37 1_555 1_555
C38 C29 1_555 1_555
C39 C38 1_555 1_555
H40 C39 1_555 1_555
H41 C39 1_555 1_555
H42 C39 1_555 1_555
C40 C37 1_555 1_555
H43 C40 1_555 1_555
H44 C40 1_555 1_555
C41 C40 1_555 1_555
H45 C41 1_555 1_555
H46 C41 1_555 1_555
C42 C41 1_555 1_555
C43 C42 1_555 1_555
C44 C45 1_555 1_555
C45 H47 1_555 1_555
C46 C47 1_555 1_555
C47 H48 1_555 1_555
C48 C47 1_555 1_555
H49 C48 1_555 1_555
H50 C48 1_555 1_555
C49 C36 1_555 1_555
C50 C49 1_555 1_555
C51 C50 1_555 1_555
H51 C51 1_555 1_555
C52 C42 1_555 1_555
C53 C47 1_555 1_555
C54 C45 1_555 1_555
H52 C54 1_555 1_555
H53 C54 1_555 1_555
C55 C44 1_555 1_555
H54 C55 1_555 1_555
H55 C55 1_555 1_555
H56 C55 1_555 1_555
C56 C53 1_555 1_555
H57 C56 1_555 1_555
H58 C56 1_555 1_555
H59 C56 1_555 1_555
O10 C29 1_555 1_555
O11 C43 1_555 1_555
O12 C45 1_555 1_555
O13 C48 1_555 1_555
O14 C49 1_555 1_555
O15 C42 1_555 1_555
H60 O15 1_555 1_555
O16 C43 1_555 1_555
O17 C50 1_555 1_555
O18 C46 1_555 1_555
C57 H61 1_555 1_555
H62 C57 1_555 1_555
H63 C57 1_555 1_555
C58 C57 1_555 1_555
C59 C58 1_555 1_555
H64 C59 1_555 1_555
H65 C59 1_555 1_555
H66 C59 1_555 1_555
O19 C58 1_555 1_555
O20 H67 1_555 1_555
H68 O20 1_555 1_555
C5 C6 1_555 1_555
C12 C20 1_555 1_555
C12 O2 1_555 1_555
C14 O3 1_555 1_555
C17 O4 1_555 1_555
C19 C20 1_555 1_555
C19 C21 1_555 1_555
C20 O5 1_555 1_555
C21 C22 1_555 1_555
C25 C26 1_555 1_555
C27 C28 1_555 1_555
C33 C38 1_555 1_555
C37 C38 1_555 1_555
C44 C52 1_555 1_555
C44 O11 1_555 1_555
C46 O12 1_555 1_555
C49 O13 1_555 1_555
C51 C52 1_555 1_555
C51 C53 1_555 1_555
C52 O14 1_555 1_555
C53 C54 1_555 1_555

#END
