
#######################################################################
#
#                 Cambridge Crystallographic Data Centre
#                                CCDC 
#
#######################################################################
#
# If this CIF has been generated from an entry in the Cambridge 
# Structural Database, then it will include bibliographic, chemical, 
# crystal, experimental, refinement or atomic coordinate data resulting 
# from the CCDC's data processing and validation procedures.
#
#######################################################################

data_RINGOM
_chemical_formula_moiety         'C21 H16 Br2 O3'
_chemical_name_systematic        
'Methyl 2,5-bis(4-bromophenyl)-4,6a-dihydro-3aH-cyclopenta[b]furan-3a-carboxylate'
_symmetry_cell_setting           monoclinic
_symmetry_space_group_name_H-M   'P 21/n'
_symmetry_Int_Tables_number      14
_space_group_name_Hall           '-P 2yn'
loop_
_symmetry_equiv_pos_site_id
_symmetry_equiv_pos_as_xyz
1 x,y,z
2 1/2-x,1/2+y,1/2-z
3 -x,-y,-z
4 1/2+x,1/2-y,1/2+z
_cell_length_a                   7.8079(6)
_cell_length_b                   14.4168(11)
_cell_length_c                   16.8239(12)
_cell_angle_alpha                90
_cell_angle_beta                 99.632(2)
_cell_angle_gamma                90
_cell_volume                     1867.08
_exptl_crystal_colour            colorless
_exptl_crystal_description       prismatic
_cell_formula_units_Z            4
loop_
_atom_site_label
_atom_site_type_symbol
_atom_site_fract_x
_atom_site_fract_y
_atom_site_fract_z
Br1 Br -0.53659(6) 0.39554(4) 0.41513(3)
Br2 Br 0.16808(5) 0.63312(3) 1.14532(2)
O1 O 0.2601(3) 0.38482(14) 0.64938(12)
O2 O 0.5581(4) 0.2054(2) 0.70538(19)
O3 O 0.4408(3) 0.13380(16) 0.79729(15)
C1 C 0.3863(4) 0.3758(2) 0.72358(18)
H1 H 0.5057 0.3754 0.7127
C2 C 0.3609(4) 0.4488(2) 0.78252(17)
H2 H 0.3647 0.5119 0.7714
C3 C 0.3321(4) 0.4155(2) 0.85274(17)
C4 C 0.3417(4) 0.3110(2) 0.85406(16)
H3 H 0.2418 0.2844 0.8731
H4 H 0.4468 0.2898 0.8883
C5 C 0.3427(4) 0.2851(2) 0.76437(17)
C6 C 0.1630(4) 0.2666(2) 0.71837(16)
H5 H 0.0879 0.2213 0.7318
C7 C 0.1273(4) 0.3237(2) 0.65637(17)
C8 C -0.0306(4) 0.3359(2) 0.59626(16)
C9 C -0.1888(4) 0.3047(2) 0.61178(18)
H6 H -0.1937 0.2720 0.6590
C10 C -0.3396(4) 0.3212(3) 0.55817(19)
H7 H -0.4459 0.3002 0.5691
C11 C -0.3308(4) 0.3691(2) 0.48851(19)
C12 C -0.1749(5) 0.3995(3) 0.47110(19)
H8 H -0.1706 0.4313 0.4234
C13 C -0.0253(5) 0.3828(2) 0.52464(18)
H9 H 0.0807 0.4030 0.5128
C14 C 0.2958(4) 0.4682(2) 0.92346(16)
C15 C 0.2849(4) 0.5641(2) 0.92272(19)
H10 H 0.3035 0.5963 0.8770
C16 C 0.2471(5) 0.6132(2) 0.9878(2)
H11 H 0.2405 0.6776 0.9863
C17 C 0.2196(4) 0.5653(2) 1.05491(19)
C18 C 0.2283(4) 0.4717(3) 1.05833(19)
H12 H 0.2085 0.4403 1.1042
C19 C 0.2671(4) 0.4232(2) 0.99268(19)
H13 H 0.2740 0.3588 0.9951
C20 C 0.4617(4) 0.2060(2) 0.75278(18)
C21 C 0.5451(5) 0.0528(3) 0.7878(2)
H14 H 0.5035 0.0242 0.7367
H15 H 0.5368 0.0095 0.8304
H16 H 0.6641 0.0710 0.7901
loop_
_geom_bond_atom_site_label_1
_geom_bond_atom_site_label_2
_geom_bond_site_symmetry_1
_geom_bond_site_symmetry_2
Br1 C11 1_555 1_555
Br2 C17 1_555 1_555
O1 C1 1_555 1_555
O2 C20 1_555 1_555
O3 C20 1_555 1_555
C1 H1 1_555 1_555
C2 C1 1_555 1_555
H2 C2 1_555 1_555
C3 C2 1_555 1_555
C4 C3 1_555 1_555
H3 C4 1_555 1_555
H4 C4 1_555 1_555
C5 C1 1_555 1_555
C6 C5 1_555 1_555
H5 C6 1_555 1_555
C7 O1 1_555 1_555
C8 C7 1_555 1_555
C9 C8 1_555 1_555
H6 C9 1_555 1_555
C10 C9 1_555 1_555
H7 C10 1_555 1_555
C11 C10 1_555 1_555
C12 C11 1_555 1_555
H8 C12 1_555 1_555
C13 C8 1_555 1_555
H9 C13 1_555 1_555
C14 C3 1_555 1_555
C15 C14 1_555 1_555
H10 C15 1_555 1_555
C16 C15 1_555 1_555
H11 C16 1_555 1_555
C17 C16 1_555 1_555
C18 C17 1_555 1_555
H12 C18 1_555 1_555
C19 C14 1_555 1_555
H13 C19 1_555 1_555
C20 C5 1_555 1_555
C21 O3 1_555 1_555
H14 C21 1_555 1_555
H15 C21 1_555 1_555
H16 C21 1_555 1_555
C4 C5 1_555 1_555
C6 C7 1_555 1_555
C12 C13 1_555 1_555
C18 C19 1_555 1_555

#END
