
#######################################################################
#
#                 Cambridge Crystallographic Data Centre
#                                CCDC 
#
#######################################################################
#
# If this CIF has been generated from an entry in the Cambridge 
# Structural Database, then it will include bibliographic, chemical, 
# crystal, experimental, refinement or atomic coordinate data resulting 
# from the CCDC's data processing and validation procedures.
#
#######################################################################

data_RINHEB
_chemical_formula_moiety         'C22 H34 O8 Si1'
_chemical_name_systematic        
(1\a,2\b,4a\b,5\a,8a\a)-1,2,3,5,8,8a-Hexahydro-5-(t-butyl-dimethylsilyl)oxy-1,8a-dihydroxy-8-methyl-2-(1,2-epoxypropan-2-yl)-4-oxo-(3,4a,8-(methoxy)methanediolato)naphthalene
_symmetry_cell_setting           monoclinic
_symmetry_space_group_name_H-M   'P 21/c'
_symmetry_Int_Tables_number      14
_space_group_name_Hall           '-P 2ybc'
loop_
_symmetry_equiv_pos_site_id
_symmetry_equiv_pos_as_xyz
1 x,y,z
2 -x,1/2+y,1/2-z
3 -x,-y,-z
4 x,1/2-y,1/2+z
_cell_length_a                   11.696(3)
_cell_length_b                   14.867
_cell_length_c                   14.541
_cell_angle_alpha                90
_cell_angle_beta                 93.77(2)
_cell_angle_gamma                90
_cell_volume                     2522.98
_exptl_crystal_colour            colorless
_chemical_melting_point          141-141.5deg.C
_cell_formula_units_Z            4
loop_
_atom_site_label
_atom_site_type_symbol
_atom_site_fract_x
_atom_site_fract_y
_atom_site_fract_z
H1 H -0.0845 0.1808 0.5726
H2 H -0.0196 0.0303 0.6198
H3 H -0.1866 0.0432 0.7456
H4 H -0.0414 0.1401 1.0279
H5 H 0.1096 0.2229 0.9975
H6 H 0.1166 0.2682 0.8386
H7 H -0.2245 0.0615 0.9720
H8 H -0.2245 0.0074 0.8808
H9 H -0.1324 -0.0119 0.9600
H10 H -0.3089 0.1106 0.5492
H11 H -0.3534 0.0128 0.5358
H12 H -0.3227 0.0494 0.6342
H13 H -0.2236 -0.1049 0.5016
H14 H -0.0971 -0.1020 0.5410
H15 H -0.1919 0.4146 0.8086
H16 H -0.2452 0.3451 0.7387
H17 H -0.2485 0.3279 0.8437
H18 H 0.5953 0.0757 0.7868
H19 H 0.5632 0.1761 0.7721
H20 H 0.5759 0.1366 0.8710
H21 H 0.3051 0.0627 0.6999
H22 H 0.3918 0.1328 0.6670
H23 H 0.4281 0.0330 0.6796
H24 H 0.3308 -0.0042 0.8583
H25 H 0.4532 -0.0348 0.8374
H26 H 0.4351 0.0244 0.9230
H27 H 0.4263 0.3189 0.7857
H28 H 0.3258 0.2875 0.7184
H29 H 0.3011 0.3422 0.8057
H30 H 0.3821 0.1598 1.0074
H31 H 0.4635 0.2351 0.9774
H32 H 0.3382 0.2580 0.9976
H33 H 0.1487 0.0525 0.8368
H34 H -0.0203 -0.0897 0.7529
Si1 Si 0.3394(2) 0.1918(2) 0.8476(2)
O1 O 0.2060(4) 0.1554(3) 0.8418(3)
O2 O -0.1441(8) 0.0188(6) 0.4733(5)
O3 O 0.0617(4) 0.0136(3) 0.8327(3)
O4 O -0.1052(4) -0.0688(3) 0.7450(3)
O5 O 0.1242(4) 0.1943(4) 0.6491(3)
O6 O -0.1727(4) 0.1722(3) 0.8449(3)
O7 O -0.1602(4) 0.2002(3) 0.6899(3)
O8 O -0.0974(4) 0.3072(3) 0.7969(3)
C1 C 0.0360(6) 0.1772(5) 0.6815(5)
C2 C -0.0791(6) 0.1574(5) 0.6332(4)
C3 C -0.0909(6) 0.0548(5) 0.6347(5)
C4 C -0.1104(6) 0.0257(5) 0.7343(5)
C5 C -0.0999(6) 0.1021(5) 0.8909(5)
C6 C -0.0240(7) 0.1469(5) 0.9650(4)
C7 C 0.0662(6) 0.1950(5) 0.9475(5)
C8 C 0.1027(6) 0.2063(5) 0.8507(4)
C9 C 0.0109(5) 0.1690(5) 0.7827(4)
C10 C -0.0291(6) 0.0731(4) 0.8094(4)
C11 C -0.1768(7) 0.0332(6) 0.9303(5)
C12 C -0.1824(6) 0.0182(6) 0.5663(5)
C13 C -0.3014(8) 0.0501(7) 0.5718(6)
C14 C -0.1602(8) -0.0645(6) 0.5197(5)
C15 C -0.1060(6) 0.2155(5) 0.7808(5)
C16 C -0.2048(8) 0.3528(6) 0.7973(6)
C17 C 0.4238(8) 0.0985(8) 0.8020(7)
C18 C 0.551(1) 0.121(1) 0.807(1)
C19 C 0.3824(9) 0.0798(9) 0.7034(7)
C20 C 0.410(1) 0.013(1) 0.862(1)
C21 C 0.3480(9) 0.2985(7) 0.7799(9)
C22 C 0.387(1) 0.213(1) 0.9731(8)
loop_
_geom_bond_atom_site_label_1
_geom_bond_atom_site_label_2
_geom_bond_site_symmetry_1
_geom_bond_site_symmetry_2
H1 C2 1_555 1_555
H2 C3 1_555 1_555
H3 C4 1_555 1_555
H4 C6 1_555 1_555
H5 C7 1_555 1_555
H6 C8 1_555 1_555
H7 C11 1_555 1_555
H8 C11 1_555 1_555
H9 C11 1_555 1_555
H10 C13 1_555 1_555
H11 C13 1_555 1_555
H12 C13 1_555 1_555
H13 C14 1_555 1_555
H14 C14 1_555 1_555
H15 C16 1_555 1_555
H16 C16 1_555 1_555
H17 C16 1_555 1_555
H18 C18 1_555 1_555
H19 C18 1_555 1_555
H20 C18 1_555 1_555
H21 C19 1_555 1_555
H22 C19 1_555 1_555
H23 C19 1_555 1_555
H24 C20 1_555 1_555
H25 C20 1_555 1_555
H26 C20 1_555 1_555
H27 C21 1_555 1_555
H28 C21 1_555 1_555
H29 C21 1_555 1_555
H30 C22 1_555 1_555
H31 C22 1_555 1_555
H32 C22 1_555 1_555
H33 O3 1_555 1_555
H34 O4 1_555 1_555
Si1 O1 1_555 1_555
O1 C8 1_555 1_555
O2 C12 1_555 1_555
O3 C10 1_555 1_555
O4 C4 1_555 1_555
O5 C1 1_555 1_555
O6 C5 1_555 1_555
O7 C2 1_555 1_555
O8 C15 1_555 1_555
C1 C2 1_555 1_555
C2 C3 1_555 1_555
C3 C4 1_555 1_555
C4 C10 1_555 1_555
C5 C6 1_555 1_555
C6 C7 1_555 1_555
C7 C8 1_555 1_555
C8 C9 1_555 1_555
C9 C1 1_555 1_555
C10 C5 1_555 1_555
C11 C5 1_555 1_555
C12 C3 1_555 1_555
C13 C12 1_555 1_555
C14 O2 1_555 1_555
C15 O6 1_555 1_555
C16 O8 1_555 1_555
C17 Si1 1_555 1_555
C18 C17 1_555 1_555
C19 C17 1_555 1_555
C20 C17 1_555 1_555
C21 Si1 1_555 1_555
C22 Si1 1_555 1_555
O7 C15 1_555 1_555
C9 C10 1_555 1_555
C9 C15 1_555 1_555
C12 C14 1_555 1_555

#END
