
#######################################################################
#
#                 Cambridge Crystallographic Data Centre
#                                CCDC 
#
#######################################################################
#
# If this CIF has been generated from an entry in the Cambridge 
# Structural Database, then it will include bibliographic, chemical, 
# crystal, experimental, refinement or atomic coordinate data resulting 
# from the CCDC's data processing and validation procedures.
#
#######################################################################

data_RINLOS
_chemical_formula_moiety         'C34 H54 B2 Li2 N2 O2'
_chemical_name_systematic        
'(\m-N^1^,N^8^-bis(9-borabicyclo[3.3.1]nonan-9-yl)naphthalene-1,8-diamine)-bis(diethyl ether)-di-lithium'
_symmetry_cell_setting           monoclinic
_symmetry_space_group_name_H-M   'P 21/n'
_symmetry_Int_Tables_number      14
_space_group_name_Hall           '-P 2yn'
loop_
_symmetry_equiv_pos_site_id
_symmetry_equiv_pos_as_xyz
1 x,y,z
2 1/2-x,1/2+y,1/2-z
3 -x,-y,-z
4 1/2+x,1/2-y,1/2+z
_cell_length_a                   10.3375(6)
_cell_length_b                   18.4651(11)
_cell_length_c                   17.4756(10)
_cell_angle_alpha                90
_cell_angle_beta                 93.2870(10)
_cell_angle_gamma                90
_cell_volume                     3330.31
_exptl_crystal_colour            colorless
_exptl_crystal_description       prism
_cell_formula_units_Z            4
loop_
_atom_site_label
_atom_site_type_symbol
_atom_site_fract_x
_atom_site_fract_y
_atom_site_fract_z
O1 O 0.25270(8) 0.59932(4) 0.70226(5)
O2 O 0.5381(11) 0.8558(4) 0.5398(5)
N1 N 0.29424(9) 0.77987(5) 0.65456(5)
N2 N 0.53845(9) 0.70867(5) 0.66736(5)
C1 C 0.32742(11) 0.80098(6) 0.73061(6)
C2 C 0.23330(12) 0.82375(6) 0.77927(7)
H1 H 0.144504 0.819095 0.762798
C3 C 0.26550(13) 0.85336(7) 0.85185(7)
H2 H 0.198830 0.866781 0.884284
C4 C 0.39225(13) 0.86293(6) 0.87600(7)
H3 H 0.413313 0.887148 0.923032
C5 C 0.49287(12) 0.83691(6) 0.83125(6)
C6 C 0.62429(13) 0.84855(6) 0.85581(7)
H4 H 0.644930 0.874936 0.901558
C7 C 0.72142(13) 0.82199(7) 0.81400(7)
H5 H 0.809028 0.833873 0.827943
C8 C 0.69200(12) 0.77716(7) 0.75043(7)
H6 H 0.761089 0.757671 0.723341
C9 C 0.56531(11) 0.76030(6) 0.72576(6)
C10 C 0.46115(11) 0.79860(6) 0.76109(6)
C11 C 0.1152(5) 0.8886(3) 0.6219(4)
H7 H 0.148296 0.909042 0.672254
C12 C 0.1583(4) 0.9447(2) 0.5565(2)
H8 H 0.111384 0.990964 0.562211
H9 H 0.252146 0.954841 0.564808
C13 C 0.1321(4) 0.91703(14) 0.47610(15)
H10 H 0.172313 0.950723 0.440357
H11 H 0.037337 0.918052 0.464036
C14 C 0.1810(4) 0.8409(2) 0.4611(2)
H12 H 0.276302 0.842642 0.457949
H13 H 0.143268 0.824253 0.410824
C15 C 0.1468(6) 0.7835(4) 0.5248(3)
H14 H 0.199143 0.739191 0.515411
C16 C 0.0051(3) 0.75622(17) 0.54358(19)
H15 H -0.033847 0.728364 0.499659
H16 H 0.010591 0.724188 0.589082
C17 C -0.0809(2) 0.82371(15) 0.55940(15)
H17 H -0.080899 0.857458 0.515380
H18 H -0.171264 0.808184 0.565894
C18 C -0.0266(4) 0.8622(2) 0.6327(2)
H19 H -0.027135 0.828444 0.676673
H20 H -0.082116 0.904183 0.643801
C19 C 0.70786(11) 0.60606(7) 0.72425(6)
H21 H 0.715063 0.635314 0.772462
C20 C 0.83895(11) 0.60726(7) 0.68492(7)
H22 H 0.865813 0.658185 0.677930
H23 H 0.905957 0.583377 0.718920
C21 C 0.83180(11) 0.56914(7) 0.60687(7)
H24 H 0.821623 0.516425 0.614902
H25 H 0.914360 0.576881 0.582008
C22 C 0.71958(11) 0.59631(7) 0.55323(7)
H26 H 0.716082 0.567243 0.505553
H27 H 0.736088 0.647299 0.539240
C23 C 0.58672(11) 0.59141(6) 0.59009(6)
H28 H 0.517301 0.611543 0.553954
C24 C 0.55381(11) 0.51157(6) 0.61017(7)
H29 H 0.469200 0.498443 0.584490
H30 H 0.620394 0.479141 0.590318
C25 C 0.54787(12) 0.49986(7) 0.69652(7)
H31 H 0.471069 0.525430 0.714453
H32 H 0.536463 0.447530 0.706467
C26 C 0.66844(12) 0.52652(7) 0.74284(7)
H33 H 0.741791 0.494033 0.732900
H34 H 0.652702 0.523130 0.798075
C27 C 0.24842(12) 0.57844(7) 0.78124(7)
H35 H 0.277538 0.527622 0.787780
H36 H 0.158461 0.581959 0.797505
C28 C 0.33537(13) 0.62763(7) 0.82970(7)
H37 H 0.424007 0.624420 0.812881
H38 H 0.334297 0.612891 0.883532
H39 H 0.304447 0.677642 0.824258
C29 C 0.19293(11) 0.54622(6) 0.65162(7)
H40 H 0.102717 0.537361 0.665389
H41 H 0.241182 0.499975 0.656298
C30 C 0.19379(12) 0.57397(7) 0.57067(7)
H42 H 0.151118 0.538726 0.535708
H43 H 0.283472 0.581036 0.556868
H44 H 0.147333 0.620200 0.566726
C31 C 0.5771(4) 0.8370(3) 0.4645(2)
H45 H 0.672690 0.833314 0.465075
H46 H 0.548877 0.875192 0.427405
C32 C 0.5183(4) 0.7672(3) 0.4407(2)
H47 H 0.544598 0.754601 0.389361
H48 H 0.423740 0.771111 0.439919
H49 H 0.547655 0.729358 0.477051
C33 C 0.5955(4) 0.9228(2) 0.5676(3)
H50 H 0.587030 0.959973 0.526761
H51 H 0.688952 0.915226 0.580687
C34 C 0.5323(4) 0.9487(2) 0.6356(2)
H52 H 0.439429 0.955107 0.623006
H53 H 0.570455 0.995161 0.652093
H54 H 0.544974 0.913227 0.677010
B1 B 0.19973(13) 0.81545(7) 0.60772(7)
B2 B 0.60410(12) 0.64227(7) 0.66430(7)
Li1 Li 0.35019(19) 0.67890(10) 0.66603(12)
Li2 Li 0.4583(2) 0.78197(12) 0.59781(12)
O3? O 0.5434(13) 0.8426(5) 0.5253(5)
C35? C 0.1329(8) 0.8887(5) 0.6219(6)
H55? H 0.167206 0.913535 0.669730
C36? C 0.1211(5) 0.9387(3) 0.5529(3)
H56? H 0.153685 0.987512 0.567386
H57? H 0.029054 0.943171 0.534576
C37? C 0.2023(4) 0.90691(15) 0.48730(16)
H58? H 0.200007 0.940893 0.443422
H59? H 0.293666 0.900685 0.506275
C38? C 0.1448(5) 0.8326(2) 0.4609(3)
H60? H 0.052575 0.838252 0.443386
H61? H 0.192615 0.813326 0.417870
C39? C 0.1574(9) 0.7806(6) 0.5295(5)
H62? H 0.208066 0.736013 0.518515
C40? C 0.0120(5) 0.7679(3) 0.5234(3)
H63? H -0.021598 0.783413 0.471756
H64? H -0.003859 0.715172 0.527396
C41? C -0.0646(6) 0.8058(3) 0.5819(3)
H65? H -0.077594 0.770728 0.623605
H66? H -0.151292 0.816269 0.557350
C42? C -0.0151(6) 0.8760(3) 0.6196(3)
H67? H -0.042715 0.876918 0.672884
H68? H -0.057996 0.917149 0.592105
C43? C 0.5652(5) 0.8158(4) 0.4509(3)
H69? H 0.659612 0.812026 0.444767
H70? H 0.528741 0.850130 0.411882
C44? C 0.5051(5) 0.7442(3) 0.4384(3)
H71? H 0.517213 0.728317 0.385778
H72? H 0.412269 0.747452 0.446531
H73? H 0.545745 0.709320 0.474490
C45? C 0.5914(4) 0.9143(2) 0.5410(3)
H74? H 0.548930 0.948796 0.504239
H75? H 0.685813 0.915670 0.534430
C46? C 0.5654(6) 0.9361(3) 0.6202(3)
H76? H 0.472140 0.933138 0.627184
H77? H 0.595121 0.985889 0.629239
H78? H 0.611728 0.903563 0.656694
loop_
_geom_bond_atom_site_label_1
_geom_bond_atom_site_label_2
_geom_bond_site_symmetry_1
_geom_bond_site_symmetry_2
O1 C27 1_555 1_555
O2 C31 1_555 1_555
N1 C1 1_555 1_555
N2 C9 1_555 1_555
C1 C2 1_555 1_555
C2 H1 1_555 1_555
C3 C2 1_555 1_555
H2 C3 1_555 1_555
C4 C3 1_555 1_555
H3 C4 1_555 1_555
C5 C4 1_555 1_555
C6 C5 1_555 1_555
H4 C6 1_555 1_555
C7 C6 1_555 1_555
H5 C7 1_555 1_555
C8 C7 1_555 1_555
H6 C8 1_555 1_555
C9 C8 1_555 1_555
C10 C1 1_555 1_555
C11 H7 1_555 1_555
C12 C11 1_555 1_555
H8 C12 1_555 1_555
H9 C12 1_555 1_555
C13 C12 1_555 1_555
H10 C13 1_555 1_555
H11 C13 1_555 1_555
C14 C13 1_555 1_555
H12 C14 1_555 1_555
H13 C14 1_555 1_555
C15 C14 1_555 1_555
H14 C15 1_555 1_555
C16 C15 1_555 1_555
H15 C16 1_555 1_555
H16 C16 1_555 1_555
C17 C16 1_555 1_555
H17 C17 1_555 1_555
H18 C17 1_555 1_555
C18 C11 1_555 1_555
H19 C18 1_555 1_555
H20 C18 1_555 1_555
C19 H21 1_555 1_555
C20 C19 1_555 1_555
H22 C20 1_555 1_555
H23 C20 1_555 1_555
C21 C20 1_555 1_555
H24 C21 1_555 1_555
H25 C21 1_555 1_555
C22 C21 1_555 1_555
H26 C22 1_555 1_555
H27 C22 1_555 1_555
C23 C22 1_555 1_555
H28 C23 1_555 1_555
C24 C23 1_555 1_555
H29 C24 1_555 1_555
H30 C24 1_555 1_555
C25 C24 1_555 1_555
H31 C25 1_555 1_555
H32 C25 1_555 1_555
C26 C19 1_555 1_555
H33 C26 1_555 1_555
H34 C26 1_555 1_555
C27 H35 1_555 1_555
H36 C27 1_555 1_555
C28 C27 1_555 1_555
H37 C28 1_555 1_555
H38 C28 1_555 1_555
H39 C28 1_555 1_555
C29 O1 1_555 1_555
H40 C29 1_555 1_555
H41 C29 1_555 1_555
C30 C29 1_555 1_555
H42 C30 1_555 1_555
H43 C30 1_555 1_555
H44 C30 1_555 1_555
C31 H45 1_555 1_555
H46 C31 1_555 1_555
C32 C31 1_555 1_555
H47 C32 1_555 1_555
H48 C32 1_555 1_555
H49 C32 1_555 1_555
C33 O2 1_555 1_555
H50 C33 1_555 1_555
H51 C33 1_555 1_555
C34 C33 1_555 1_555
H52 C34 1_555 1_555
H53 C34 1_555 1_555
H54 C34 1_555 1_555
B1 N1 1_555 1_555
B2 N2 1_555 1_555
Li1 O1 1_555 1_555
Li2 O2 1_555 1_555
N1 Li1 1_555 1_555
N1 Li2 1_555 1_555
N2 Li1 1_555 1_555
N2 Li2 1_555 1_555
C5 C10 1_555 1_555
C9 C10 1_555 1_555
C11 B1 1_555 1_555
C15 B1 1_555 1_555
C17 C18 1_555 1_555
C19 B2 1_555 1_555
C23 B2 1_555 1_555
C25 C26 1_555 1_555

#END
