
#######################################################################
#
#                 Cambridge Crystallographic Data Centre
#                                CCDC 
#
#######################################################################
#
# If this CIF has been generated from an entry in the Cambridge 
# Structural Database, then it will include bibliographic, chemical, 
# crystal, experimental, refinement or atomic coordinate data resulting 
# from the CCDC's data processing and validation procedures.
#
#######################################################################

data_RINLIM
_chemical_formula_moiety         'C26 H36 B2 N2'
_chemical_name_systematic        
N^1^,N^8^-bis(9-borabicyclo[3.3.1]nonan-9-yl)naphthalene-1,8-diamine
_symmetry_cell_setting           triclinic
_symmetry_space_group_name_H-M   'P -1'
_symmetry_Int_Tables_number      2
_space_group_name_Hall           '-P 1'
loop_
_symmetry_equiv_pos_site_id
_symmetry_equiv_pos_as_xyz
1 x,y,z
2 -x,-y,-z
_cell_length_a                   8.5609(4)
_cell_length_b                   11.6470(6)
_cell_length_c                   12.7282(6)
_cell_angle_alpha                70.3480(10)
_cell_angle_beta                 77.2670(10)
_cell_angle_gamma                70.0760(10)
_cell_volume                     1115.6
_exptl_crystal_colour            colorless
_exptl_crystal_description       prism
_cell_formula_units_Z            2
loop_
_atom_site_label
_atom_site_type_symbol
_atom_site_fract_x
_atom_site_fract_y
_atom_site_fract_z
N1 N 0.50784(12) 0.47501(9) 0.34904(8)
H1 H 0.602(2) 0.4962(15) 0.3477(13)
N2 N 0.52741(12) 0.71850(10) 0.21484(8)
H2 H 0.517(2) 0.6543(16) 0.1968(14)
C1 C 0.36303(14) 0.54350(11) 0.40718(9)
C2 C 0.27203(14) 0.47357(11) 0.49180(10)
H3 H 0.307033 0.383391 0.508031
C3 C 0.12836(15) 0.53260(12) 0.55483(10)
H4 H 0.065590 0.482672 0.611047
C4 C 0.07987(14) 0.66173(12) 0.53473(10)
H5 H -0.015066 0.701017 0.578775
C5 C 0.16943(14) 0.73813(11) 0.44886(10)
C6 C 0.11306(15) 0.87215(12) 0.42900(10)
H6 H 0.017716 0.909195 0.474139
C7 C 0.19439(15) 0.94858(12) 0.34563(11)
H7 H 0.157411 1.038152 0.334117
C8 C 0.33313(15) 0.89427(11) 0.27684(10)
H8 H 0.387370 0.948501 0.218126
C9 C 0.39256(14) 0.76455(11) 0.29226(10)
C10 C 0.31291(14) 0.68028(11) 0.38136(9)
C11 C 0.37314(14) 0.33423(11) 0.29023(10)
H9 H 0.265442 0.380248 0.327168
C12 C 0.36801(15) 0.37160(12) 0.16134(10)
H10 H 0.277862 0.344986 0.147709
H11 H 0.340243 0.465451 0.130903
C13 C 0.53347(16) 0.31119(13) 0.09814(11)
H12 H 0.552841 0.217858 0.120326
H13 H 0.524691 0.344105 0.016465
C14 C 0.68290(15) 0.33839(12) 0.12124(10)
H14 H 0.673674 0.429943 0.086373
H15 H 0.786846 0.289014 0.085343
C15 C 0.69611(14) 0.30428(11) 0.24829(10)
H16 H 0.787910 0.332621 0.259053
C16 C 0.72784(16) 0.15860(12) 0.30567(11)
H17 H 0.749321 0.115052 0.246970
H18 H 0.829601 0.125886 0.344129
C17 C 0.58346(19) 0.12530(14) 0.39028(13)
H19 H 0.578535 0.152239 0.457174
H20 H 0.605751 0.031594 0.414681
C18 C 0.41095(17) 0.18736(12) 0.34530(12)
H21 H 0.322464 0.170626 0.408130
H22 H 0.407280 0.147051 0.289053
C19 C 0.73432(15) 0.85784(11) 0.18918(10)
H23 H 0.651262 0.895889 0.246045
C20 C 0.74526(15) 0.96305(11) 0.07656(11)
H24 H 0.630926 1.008299 0.055060
H25 H 0.789340 1.025647 0.088142
C21 C 0.85600(16) 0.91378(12) -0.02082(10)
H26 H 0.974658 0.887277 -0.007888
H27 H 0.841359 0.984226 -0.091423
C22 C 0.81664(15) 0.80087(11) -0.03506(10)
H28 H 0.906499 0.763557 -0.088287
H29 H 0.710805 0.833306 -0.069026
C23 C 0.79982(14) 0.69387(11) 0.07565(10)
H30 H 0.754432 0.632864 0.060997
C24 C 0.96536(15) 0.61901(12) 0.12815(10)
H31 H 0.946677 0.544925 0.190714
H32 H 1.050602 0.585645 0.070741
C25 C 1.03615(15) 0.69639(12) 0.17314(11)
H33 H 1.096097 0.747432 0.109009
H34 H 1.119285 0.636013 0.224291
C26 C 0.90537(16) 0.78704(12) 0.23652(10)
H35 H 0.955344 0.851759 0.237538
H36 H 0.883759 0.737024 0.315419
B1 B 0.52232(16) 0.37697(12) 0.30338(10)
B2 B 0.67223(17) 0.75711(13) 0.16492(11)
loop_
_geom_bond_atom_site_label_1
_geom_bond_atom_site_label_2
_geom_bond_site_symmetry_1
_geom_bond_site_symmetry_2
N1 H1 1_555 1_555
N2 H2 1_555 1_555
C1 N1 1_555 1_555
C2 C1 1_555 1_555
H3 C2 1_555 1_555
C3 C2 1_555 1_555
H4 C3 1_555 1_555
C4 C3 1_555 1_555
H5 C4 1_555 1_555
C5 C4 1_555 1_555
C6 C5 1_555 1_555
H6 C6 1_555 1_555
C7 C6 1_555 1_555
H7 C7 1_555 1_555
C8 C7 1_555 1_555
H8 C8 1_555 1_555
C9 N2 1_555 1_555
C10 C1 1_555 1_555
C11 H9 1_555 1_555
C12 C11 1_555 1_555
H10 C12 1_555 1_555
H11 C12 1_555 1_555
C13 C12 1_555 1_555
H12 C13 1_555 1_555
H13 C13 1_555 1_555
C14 C13 1_555 1_555
H14 C14 1_555 1_555
H15 C14 1_555 1_555
C15 C14 1_555 1_555
H16 C15 1_555 1_555
C16 C15 1_555 1_555
H17 C16 1_555 1_555
H18 C16 1_555 1_555
C17 C16 1_555 1_555
H19 C17 1_555 1_555
H20 C17 1_555 1_555
C18 C11 1_555 1_555
H21 C18 1_555 1_555
H22 C18 1_555 1_555
C19 H23 1_555 1_555
C20 C19 1_555 1_555
H24 C20 1_555 1_555
H25 C20 1_555 1_555
C21 C20 1_555 1_555
H26 C21 1_555 1_555
H27 C21 1_555 1_555
C22 C21 1_555 1_555
H28 C22 1_555 1_555
H29 C22 1_555 1_555
C23 C22 1_555 1_555
H30 C23 1_555 1_555
C24 C23 1_555 1_555
H31 C24 1_555 1_555
H32 C24 1_555 1_555
C25 C24 1_555 1_555
H33 C25 1_555 1_555
H34 C25 1_555 1_555
C26 C19 1_555 1_555
H35 C26 1_555 1_555
H36 C26 1_555 1_555
B1 N1 1_555 1_555
B2 N2 1_555 1_555
C5 C10 1_555 1_555
C8 C9 1_555 1_555
C9 C10 1_555 1_555
C11 B1 1_555 1_555
C15 B1 1_555 1_555
C17 C18 1_555 1_555
C19 B2 1_555 1_555
C23 B2 1_555 1_555
C25 C26 1_555 1_555

#END
