
#######################################################################
#
#                 Cambridge Crystallographic Data Centre
#                                CCDC 
#
#######################################################################
#
# If this CIF has been generated from an entry in the Cambridge 
# Structural Database, then it will include bibliographic, chemical, 
# crystal, experimental, refinement or atomic coordinate data resulting 
# from the CCDC's data processing and validation procedures.
#
#######################################################################

data_RINNEJ
_chemical_formula_moiety         'C14 H14 B1 F5 N2'
_chemical_name_systematic        
4,4-Difluoro-1,3,5,7-tetramethyl-8-trifluoromethyl-3a,4a-diaza-4-bora-s-indacene
_symmetry_cell_setting           orthorhombic
_symmetry_space_group_name_H-M   'P 21 21 21'
_symmetry_Int_Tables_number      19
_space_group_name_Hall           'P 2ac 2ab'
loop_
_symmetry_equiv_pos_site_id
_symmetry_equiv_pos_as_xyz
1 x,y,z
2 1/2-x,-y,1/2+z
3 -x,1/2+y,1/2-z
4 1/2+x,1/2-y,-z
_cell_length_a                   6.4922(13)
_cell_length_b                   12.393(2)
_cell_length_c                   17.163(3)
_cell_angle_alpha                90
_cell_angle_beta                 90
_cell_angle_gamma                90
_cell_volume                     1380.9
_exptl_crystal_colour            red
_exptl_crystal_description       plate
_cell_formula_units_Z            4
_exptl_crystal_recrystallization_method ethanol/water
loop_
_atom_site_label
_atom_site_type_symbol
_atom_site_fract_x
_atom_site_fract_y
_atom_site_fract_z
B1 B 0.2934(16) 0.6513(8) 0.6520(6)
F1 F 0.2207(8) 0.5768(4) 0.5980(3)
F2 F 0.4170(7) 0.7261(4) 0.6128(3)
N1 N 0.4220(10) 0.5928(5) 0.7140(3)
N2 N 0.1150(8) 0.7061(5) 0.6926(3)
C1 C 0.5887(13) 0.5335(6) 0.7003(5)
C2 C 0.6777(15) 0.5131(8) 0.6215(6)
H1 H 0.5727 0.4804 0.5879
H2 H 0.7953 0.4639 0.6262
H3 H 0.7237 0.5814 0.5987
C3 C 0.6594(15) 0.4930(7) 0.7718(7)
H4 H 0.7739 0.4461 0.7779
C4 C 0.5389(14) 0.5312(7) 0.8321(5)
C5 C 0.5729(19) 0.4997(8) 0.9164(6)
H5 H 0.5639 0.4211 0.9215
H6 H 0.4672 0.5336 0.9490
H7 H 0.7095 0.5240 0.9332
C6 C 0.3805(12) 0.5965(7) 0.7941(5)
C7 C 0.2202(12) 0.6567(7) 0.8219(4)
C8 C 0.1961(16) 0.6749(12) 0.9108(8)
F3 F 0.0675(16) 0.6141(7) 0.9407(5)
F4 F 0.3600(16) 0.6874(6) 0.9466(3)
F5 F 0.1191(15) 0.7866(7) 0.9276(4)
C9 C 0.0788(13) 0.7115(6) 0.7730(4)
C10 C -0.1033(12) 0.7731(6) 0.7865(4)
C11 C -0.2216(17) 0.8071(9) 0.8573(5)
H8 H -0.1640 0.8746 0.8776
H9 H -0.2117 0.7509 0.8972
H10 H -0.3664 0.8182 0.8433
C12 C -0.1683(13) 0.8043(7) 0.7139(5)
H11 H -0.2863 0.8475 0.7038
C13 C -0.0343(12) 0.7628(6) 0.6561(4)
C14 C -0.0455(15) 0.7775(7) 0.5713(4)
H12 H 0.0682 0.8238 0.5542
H13 H -0.1770 0.8114 0.5576
H14 H -0.0350 0.7072 0.5455
loop_
_geom_bond_atom_site_label_1
_geom_bond_atom_site_label_2
_geom_bond_site_symmetry_1
_geom_bond_site_symmetry_2
B1 F1 1_555 1_555
F2 B1 1_555 1_555
N1 B1 1_555 1_555
N2 B1 1_555 1_555
C1 N1 1_555 1_555
C2 C1 1_555 1_555
H1 C2 1_555 1_555
H2 C2 1_555 1_555
H3 C2 1_555 1_555
C3 C1 1_555 1_555
H4 C3 1_555 1_555
C4 C3 1_555 1_555
C5 C4 1_555 1_555
H5 C5 1_555 1_555
H6 C5 1_555 1_555
H7 C5 1_555 1_555
C6 N1 1_555 1_555
C7 C6 1_555 1_555
C8 C7 1_555 1_555
F3 C8 1_555 1_555
F4 C8 1_555 1_555
F5 C8 1_555 1_555
C9 N2 1_555 1_555
C10 C9 1_555 1_555
C11 C10 1_555 1_555
H8 C11 1_555 1_555
H9 C11 1_555 1_555
H10 C11 1_555 1_555
C12 C10 1_555 1_555
H11 C12 1_555 1_555
C13 N2 1_555 1_555
C14 C13 1_555 1_555
H12 C14 1_555 1_555
H13 C14 1_555 1_555
H14 C14 1_555 1_555
C4 C6 1_555 1_555
C7 C9 1_555 1_555
C12 C13 1_555 1_555

#END
