
#######################################################################
#
#                 Cambridge Crystallographic Data Centre
#                                CCDC 
#
#######################################################################
#
# If this CIF has been generated from an entry in the Cambridge 
# Structural Database, then it will include bibliographic, chemical, 
# crystal, experimental, refinement or atomic coordinate data resulting 
# from the CCDC's data processing and validation procedures.
#
#######################################################################

data_RINPIP
_chemical_formula_moiety         'C27 H39 N3 O6,C6 H6'
_chemical_name_systematic        
'Benzene-1,3,5-triyl tris(cyclohexylcarbamate) benzene clathrate'
_symmetry_cell_setting           triclinic
_symmetry_space_group_name_H-M   'P -1'
_symmetry_Int_Tables_number      2
_space_group_name_Hall           '-P 1'
loop_
_symmetry_equiv_pos_site_id
_symmetry_equiv_pos_as_xyz
1 x,y,z
2 -x,-y,-z
_cell_length_a                   8.9512(4)
_cell_length_b                   13.4411(6)
_cell_length_c                   14.6433(6)
_cell_angle_alpha                75.921(2)
_cell_angle_beta                 73.652(2)
_cell_angle_gamma                71.945(2)
_cell_volume                     1583.64
_exptl_crystal_colour            colorless
_exptl_crystal_description       prism
_cell_formula_units_Z            2
loop_
_atom_site_label
_atom_site_type_symbol
_atom_site_fract_x
_atom_site_fract_y
_atom_site_fract_z
C1 C 0.01959(12) 0.72451(8) 0.47197(7)
C2 C -0.11933(12) 0.69500(8) 0.52527(7)
H1 H -0.1512 0.6426 0.5100
C3 C -0.20898(12) 0.74679(8) 0.60238(7)
C4 C -0.16084(12) 0.82303(8) 0.62705(7)
H2 H -0.2216 0.8562 0.6795
C5 C -0.02057(12) 0.84919(8) 0.57229(7)
C6 C 0.07172(12) 0.80133(8) 0.49350(7)
H3 H 0.1651 0.8200 0.4565
C7 C 0.12540(12) 0.72981(8) 0.30353(7)
C8 C 0.24622(13) 0.70655(9) 0.13568(7)
H4 H 0.1515 0.7619 0.1200
C9 C 0.38936(14) 0.75524(9) 0.10551(8)
H5 H 0.4831 0.7025 0.1235
H6 H 0.3653 0.8141 0.1392
C10 C 0.42672(16) 0.79468(10) -0.00338(8)
H7 H 0.3362 0.8515 -0.0206
H8 H 0.5203 0.8230 -0.0212
C11 C 0.45930(16) 0.70503(11) -0.05880(8)
H9 H 0.4769 0.7327 -0.1275
H10 H 0.5563 0.6515 -0.0466
C12 C 0.31857(16) 0.65441(11) -0.02870(9)
H11 H 0.3458 0.5944 -0.0615
H12 H 0.2250 0.7056 -0.0484
C13 C 0.27674(15) 0.61667(10) 0.08070(8)
H13 H 0.1813 0.5904 0.0977
H14 H 0.3648 0.5586 0.0993
C14 C -0.38570(13) 0.63461(8) 0.68010(7)
C15 C -0.60429(13) 0.54835(8) 0.71291(8)
H15 H -0.5588 0.4974 0.7648
C16 C -0.55851(16) 0.49531(10) 0.62456(9)
H16 H -0.4421 0.4710 0.6054
H17 H -0.5966 0.5466 0.5714
C17 C -0.6315(2) 0.40101(11) 0.64565(12)
H18 H -0.6048 0.3708 0.5875
H19 H -0.5856 0.3467 0.6946
C18 C -0.8138(2) 0.43473(13) 0.68055(12)
H20 H -0.8561 0.3728 0.6975
H21 H -0.8608 0.4829 0.6289
C19 C -0.86096(19) 0.48922(13) 0.76796(11)
H22 H -0.8252 0.4383 0.8220
H23 H -0.9774 0.5143 0.7859
C20 C -0.78710(14) 0.58282(10) 0.74762(9)
H24 H -0.8324 0.6376 0.6987
H25 H -0.8138 0.6126 0.8060
C21 C 0.16743(12) 0.91228(8) 0.61300(7)
C22 C 0.33125(12) 0.99889(8) 0.65865(7)
H26 H 0.4148 0.9349 0.6419
C23 C 0.30650(13) 0.99854(9) 0.76596(7)
H27 H 0.2743 0.9352 0.8030
H28 H 0.2207 1.0599 0.7843
C24 C 0.46054(14) 1.00122(9) 0.78948(8)
H29 H 0.5423 0.9356 0.7787
H30 H 0.4393 1.0062 0.8572
C25 C 0.52369(15) 1.09503(10) 0.72756(9)
H31 H 0.4498 1.1605 0.7462
H32 H 0.6273 1.0897 0.7395
C26 C 0.54239(14) 1.09918(9) 0.62020(8)
H33 H 0.6290 1.0395 0.5991
H34 H 0.5713 1.1639 0.5843
C27 C 0.38752(13) 1.09576(9) 0.59836(7)
H35 H 0.4058 1.0934 0.5303
H36 H 0.3040 1.1598 0.6122
N1 N 0.21040(11) 0.66615(7) 0.23969(6)
H37 H 0.2453 0.5994 0.2600
N2 N -0.54081(11) 0.64151(7) 0.69110(7)
H38 H -0.6068 0.7035 0.6851
N3 N 0.18283(11) 0.99742(7) 0.63637(7)
H39 H 0.1033 1.0533 0.6385
O1 O 0.11024(9) 0.67059(6) 0.39571(5)
O2 O 0.06712(10) 0.82503(6) 0.28650(6)
O3 O -0.36152(9) 0.73537(6) 0.65186(6)
O4 O -0.27734(10) 0.55612(6) 0.69434(6)
O5 O 0.01554(9) 0.93139(6) 0.59710(5)
O6 O 0.26766(10) 0.82818(6) 0.60520(6)
C28 C 0.12555(16) 0.22564(13) 0.11686(10)
H40 H 0.1257 0.2674 0.1590
C29 C 0.14134(17) 0.26610(13) 0.01869(11)
H41 H 0.1524 0.3348 -0.0051
C30 C 0.14048(17) 0.20334(13) -0.04339(9)
H42 H 0.1515 0.2299 -0.1091
C31 C 0.12339(16) 0.10177(12) -0.00811(9)
H43 H 0.1223 0.0603 -0.0502
C32 C 0.10782(16) 0.06090(12) 0.08970(9)
H44 H 0.0963 -0.0077 0.1133
C33 C 0.10960(16) 0.12309(13) 0.15179(9)
H45 H 0.1000 0.0959 0.2174
loop_
_geom_bond_atom_site_label_1
_geom_bond_atom_site_label_2
_geom_bond_site_symmetry_1
_geom_bond_site_symmetry_2
C1 C2 1_555 1_555
C2 H1 1_555 1_555
C3 C2 1_555 1_555
C4 C3 1_555 1_555
H2 C4 1_555 1_555
C5 C4 1_555 1_555
C6 C1 1_555 1_555
H3 C6 1_555 1_555
C7 N1 1_555 1_555
C8 H4 1_555 1_555
C9 C8 1_555 1_555
H5 C9 1_555 1_555
H6 C9 1_555 1_555
C10 C9 1_555 1_555
H7 C10 1_555 1_555
H8 C10 1_555 1_555
C11 C10 1_555 1_555
H9 C11 1_555 1_555
H10 C11 1_555 1_555
C12 C11 1_555 1_555
H11 C12 1_555 1_555
H12 C12 1_555 1_555
C13 C8 1_555 1_555
H13 C13 1_555 1_555
H14 C13 1_555 1_555
C14 N2 1_555 1_555
C15 H15 1_555 1_555
C16 C15 1_555 1_555
H16 C16 1_555 1_555
H17 C16 1_555 1_555
C17 C16 1_555 1_555
H18 C17 1_555 1_555
H19 C17 1_555 1_555
C18 C17 1_555 1_555
H20 C18 1_555 1_555
H21 C18 1_555 1_555
C19 C18 1_555 1_555
H22 C19 1_555 1_555
H23 C19 1_555 1_555
C20 C15 1_555 1_555
H24 C20 1_555 1_555
H25 C20 1_555 1_555
C21 N3 1_555 1_555
C22 H26 1_555 1_555
C23 C22 1_555 1_555
H27 C23 1_555 1_555
H28 C23 1_555 1_555
C24 C23 1_555 1_555
H29 C24 1_555 1_555
H30 C24 1_555 1_555
C25 C24 1_555 1_555
H31 C25 1_555 1_555
H32 C25 1_555 1_555
C26 C25 1_555 1_555
H33 C26 1_555 1_555
H34 C26 1_555 1_555
C27 C22 1_555 1_555
H35 C27 1_555 1_555
H36 C27 1_555 1_555
N1 C8 1_555 1_555
H37 N1 1_555 1_555
N2 C15 1_555 1_555
H38 N2 1_555 1_555
N3 C22 1_555 1_555
H39 N3 1_555 1_555
O1 C1 1_555 1_555
O2 C7 1_555 1_555
O3 C3 1_555 1_555
O4 C14 1_555 1_555
O5 C5 1_555 1_555
O6 C21 1_555 1_555
C28 H40 1_555 1_555
C29 C28 1_555 1_555
H41 C29 1_555 1_555
C30 C29 1_555 1_555
H42 C30 1_555 1_555
C31 C30 1_555 1_555
H43 C31 1_555 1_555
C32 C31 1_555 1_555
H44 C32 1_555 1_555
C33 C28 1_555 1_555
H45 C33 1_555 1_555
C5 C6 1_555 1_555
C7 O1 1_555 1_555
C12 C13 1_555 1_555
C14 O3 1_555 1_555
C19 C20 1_555 1_555
C21 O5 1_555 1_555
C26 C27 1_555 1_555
C32 C33 1_555 1_555

#END
