
#######################################################################
#
#                 Cambridge Crystallographic Data Centre
#                                CCDC 
#
#######################################################################
#
# If this CIF has been generated from an entry in the Cambridge 
# Structural Database, then it will include bibliographic, chemical, 
# crystal, experimental, refinement or atomic coordinate data resulting 
# from the CCDC's data processing and validation procedures.
#
#######################################################################

data_RINQAI
_chemical_formula_moiety         'C27 H39 N3 O6,0.24(C6 H6),0.76(C4 H8 O1)'
_chemical_name_systematic        
'Benzene-1,3,5-triyl tris(cyclohexylcarbamate) benzene tetrahydrofuran clathrate'
_symmetry_cell_setting           triclinic
_symmetry_space_group_name_H-M   'P -1'
_symmetry_Int_Tables_number      2
_space_group_name_Hall           '-P 1'
loop_
_symmetry_equiv_pos_site_id
_symmetry_equiv_pos_as_xyz
1 x,y,z
2 -x,-y,-z
_cell_length_a                   9.0114(3)
_cell_length_b                   13.5216(5)
_cell_length_c                   14.3876(5)
_cell_angle_alpha                75.211(2)
_cell_angle_beta                 72.344(2)
_cell_angle_gamma                72.914(2)
_cell_volume                     1570.01
_exptl_crystal_colour            colorless
_exptl_crystal_description       plate
_cell_formula_units_Z            2
loop_
_atom_site_label
_atom_site_type_symbol
_atom_site_fract_x
_atom_site_fract_y
_atom_site_fract_z
O7 O 0.3634(10) 0.2999(6) 1.0391(5)
C28 C 0.4105(7) 0.3956(5) 0.9943(6)
H40 H 0.5278 0.3855 0.9818
H41 H 0.3554 0.4499 1.0363
C29 C 0.3852(9) 0.2466(6) 0.9621(7)
H42 H 0.2896 0.2203 0.9701
H43 H 0.4799 0.1864 0.9605
C30 C 0.3604(10) 0.4249(6) 0.9006(6)
H44 H 0.2434 0.4541 0.9108
H45 H 0.4183 0.4752 0.8508
C31 C 0.4084(12) 0.3238(6) 0.8747(5)
H46 H 0.5228 0.3099 0.8385
H47 H 0.3446 0.3208 0.8308
O1 O 0.50286(16) 0.43107(10) 0.60730(10)
O2 O 0.74681(17) 0.32881(11) 0.62309(12)
O3 O 0.61607(16) 0.17019(11) 0.40344(10)
O4 O 0.57656(18) 0.32154(11) 0.28942(11)
O5 O 0.12675(16) 0.23411(11) 0.65720(11)
O6 O 0.20479(17) 0.05587(11) 0.69485(12)
N1 N 0.6702(2) 0.49938(13) 0.64317(13)
H1 H 0.5911 0.5561 0.6437
N2 N 0.7240(2) 0.16572(14) 0.24375(12)
H2 H 0.7602 0.0985 0.2657
N3 N -0.05538(19) 0.14125(13) 0.69622(13)
H3 H -0.1209 0.2040 0.6918
C1 C 0.4692(2) 0.34885(15) 0.58170(15)
C2 C 0.5667(2) 0.30124(15) 0.50310(15)
H4 H 0.6638 0.3209 0.4658
C3 C 0.5188(2) 0.22412(15) 0.48028(15)
C4 C 0.3770(2) 0.19480(15) 0.53194(15)
H5 H 0.3463 0.1414 0.5152
C5 C 0.2812(2) 0.24648(15) 0.60928(15)
C6 C 0.3264(2) 0.32233(15) 0.63557(15)
H6 H 0.2607 0.3557 0.6896
C7 C 0.6512(2) 0.41347(16) 0.62508(15)
C8 C 0.8183(2) 0.50305(16) 0.66229(15)
H7 H 0.9003 0.4371 0.6477
C9 C 0.7947(2) 0.50874(17) 0.77006(16)
H8 H 0.7587 0.4461 0.8134
H9 H 0.7104 0.5720 0.7868
C10 C 0.9501(3) 0.51345(18) 0.78915(16)
H10 H 0.9293 0.5225 0.8585
H11 H 1.0301 0.4462 0.7807
C11 C 1.0178(3) 0.60381(19) 0.71874(18)
H12 H 0.9457 0.6715 0.7348
H13 H 1.1236 0.5998 0.7286
C12 C 1.0363(3) 0.60116(18) 0.61061(17)
H14 H 1.0700 0.6648 0.5681
H15 H 1.1209 0.5389 0.5914
C13 C 0.8803(3) 0.59643(17) 0.59356(16)
H16 H 0.8979 0.5903 0.5237
H17 H 0.7990 0.6624 0.6054
C14 C 0.6353(2) 0.22802(16) 0.30813(15)
C15 C 0.7630(2) 0.20671(17) 0.13666(15)
H18 H 0.6678 0.2615 0.1204
C16 C 0.9043(3) 0.25719(18) 0.10479(16)
H19 H 0.9985 0.2050 0.1234
H20 H 0.8787 0.3166 0.1399
C17 C 0.9446(3) 0.2972(2) -0.00657(17)
H21 H 1.0397 0.3272 -0.0257
H22 H 0.8538 0.3538 -0.0244
C18 C 0.9785(3) 0.2088(2) -0.06334(17)
H23 H 0.9979 0.2377 -0.1354
H24 H 1.0764 0.1558 -0.0512
C19 C 0.8387(3) 0.1565(2) -0.03128(17)
H25 H 0.8669 0.0961 -0.0655
H26 H 0.7446 0.2073 -0.0514
C20 C 0.7949(3) 0.11789(18) 0.08081(17)
H27 H 0.6982 0.0896 0.0995
H28 H 0.8836 0.0603 0.0999
C21 C 0.0990(2) 0.13412(15) 0.68349(14)
C22 C -0.1212(3) 0.04852(16) 0.71746(16)
H29 H -0.0741 -0.0052 0.7694
C23 C -0.0793(3) 0.00084(19) 0.62562(19)
H30 H 0.0386 -0.0217 0.6024
H31 H -0.1194 0.0547 0.5722
C24 C -0.1520(4) -0.0934(2) 0.6463(3)
H32 H -0.1265 -0.1208 0.5844
H33 H -0.1044 -0.1499 0.6953
C25 C -0.3323(4) -0.0631(2) 0.6862(3)
H34 H -0.3812 -0.0126 0.6343
H35 H -0.3758 -0.1265 0.7035
C26 C -0.3756(4) -0.0139(3) 0.7769(3)
H36 H -0.3387 -0.0677 0.8315
H37 H -0.4936 0.0098 0.7984
C27 C -0.3013(3) 0.0792(2) 0.7575(2)
H38 H -0.3485 0.1368 0.7091
H39 H -0.3261 0.1055 0.8200
C32? C 0.3929(14) 0.2423(6) 0.9854(7)
H48? H 0.4046 0.1694 1.0125
C33? C 0.3744(10) 0.2799(6) 0.8892(6)
H49? H 0.3734 0.2328 0.8506
C34? C 0.3573(11) 0.3866(7) 0.8496(5)
H50? H 0.3446 0.4123 0.7838
C35? C 0.3587(14) 0.4556(5) 0.9061(8)
H51? H 0.3470 0.5285 0.8790
C36? C 0.3772(15) 0.4180(9) 1.0022(8)
H52? H 0.3782 0.4651 1.0408
C37? C 0.3943(15) 0.3113(10) 1.0419(6)
H53? H 0.4070 0.2856 1.1076
loop_
_geom_bond_atom_site_label_1
_geom_bond_atom_site_label_2
_geom_bond_site_symmetry_1
_geom_bond_site_symmetry_2
O1 C1 1_555 1_555
O2 C7 1_555 1_555
O3 C3 1_555 1_555
O4 C14 1_555 1_555
O5 C5 1_555 1_555
O6 C21 1_555 1_555
N1 H1 1_555 1_555
N2 H2 1_555 1_555
N3 H3 1_555 1_555
C1 C2 1_555 1_555
C2 H4 1_555 1_555
C3 C2 1_555 1_555
C4 C3 1_555 1_555
H5 C4 1_555 1_555
C5 C4 1_555 1_555
C6 C1 1_555 1_555
H6 C6 1_555 1_555
C7 O1 1_555 1_555
C8 N1 1_555 1_555
H7 C8 1_555 1_555
C9 C8 1_555 1_555
H8 C9 1_555 1_555
H9 C9 1_555 1_555
C10 C9 1_555 1_555
H10 C10 1_555 1_555
H11 C10 1_555 1_555
C11 C10 1_555 1_555
H12 C11 1_555 1_555
H13 C11 1_555 1_555
C12 C11 1_555 1_555
H14 C12 1_555 1_555
H15 C12 1_555 1_555
C13 C8 1_555 1_555
H16 C13 1_555 1_555
H17 C13 1_555 1_555
C14 O3 1_555 1_555
C15 N2 1_555 1_555
H18 C15 1_555 1_555
C16 C15 1_555 1_555
H19 C16 1_555 1_555
H20 C16 1_555 1_555
C17 C16 1_555 1_555
H21 C17 1_555 1_555
H22 C17 1_555 1_555
C18 C17 1_555 1_555
H23 C18 1_555 1_555
H24 C18 1_555 1_555
C19 C18 1_555 1_555
H25 C19 1_555 1_555
H26 C19 1_555 1_555
C20 C15 1_555 1_555
H27 C20 1_555 1_555
H28 C20 1_555 1_555
C21 O5 1_555 1_555
C22 N3 1_555 1_555
H29 C22 1_555 1_555
C23 C22 1_555 1_555
H30 C23 1_555 1_555
H31 C23 1_555 1_555
C24 C23 1_555 1_555
H32 C24 1_555 1_555
H33 C24 1_555 1_555
C25 C24 1_555 1_555
H34 C25 1_555 1_555
H35 C25 1_555 1_555
C26 C25 1_555 1_555
H36 C26 1_555 1_555
H37 C26 1_555 1_555
C27 C22 1_555 1_555
H38 C27 1_555 1_555
H39 C27 1_555 1_555
O7 C28 1_555 1_555
C28 H40 1_555 1_555
H41 C28 1_555 1_555
C29 O7 1_555 1_555
H42 C29 1_555 1_555
H43 C29 1_555 1_555
C30 C28 1_555 1_555
H44 C30 1_555 1_555
H45 C30 1_555 1_555
C31 C29 1_555 1_555
H46 C31 1_555 1_555
H47 C31 1_555 1_555
N1 C7 1_555 1_555
N2 C14 1_555 1_555
N3 C21 1_555 1_555
C5 C6 1_555 1_555
C12 C13 1_555 1_555
C19 C20 1_555 1_555
C26 C27 1_555 1_555
C30 C31 1_555 1_555

#END
