
#######################################################################
#
#                 Cambridge Crystallographic Data Centre
#                                CCDC 
#
#######################################################################
#
# If this CIF has been generated from an entry in the Cambridge 
# Structural Database, then it will include bibliographic, chemical, 
# crystal, experimental, refinement or atomic coordinate data resulting 
# from the CCDC's data processing and validation procedures.
#
#######################################################################

data_RINTOZ
_chemical_name_common            'Vitamin D!3$ cholestanol'
_chemical_formula_moiety         'C27 H44 O1,C27 H48 O1'
_chemical_name_systematic        
'9,10-Secocholesta-5,7,10-trien-3-ol cholestan-3-ol'
_symmetry_cell_setting           monoclinic
_symmetry_space_group_name_H-M   'C 2'
_symmetry_Int_Tables_number      5
_space_group_name_Hall           'C 2y'
loop_
_symmetry_equiv_pos_site_id
_symmetry_equiv_pos_as_xyz
1 x,y,z
2 -x,y,-z
3 1/2+x,1/2+y,z
4 1/2-x,1/2+y,-z
_cell_length_a                   33.2196(10)
_cell_length_b                   6.8885(3)
_cell_length_c                   21.6120(7)
_cell_angle_alpha                90
_cell_angle_beta                 98.464(2)
_cell_angle_gamma                90
_cell_volume                     4891.68
_exptl_crystal_colour            colorless
_exptl_crystal_description       needle
_cell_formula_units_Z            4
loop_
_atom_site_label
_atom_site_type_symbol
_atom_site_fract_x
_atom_site_fract_y
_atom_site_fract_z
O1 O 0.51643(5) 0.5029(3) 0.41113(10)
C1 C 0.11835(7) -0.3299(4) 0.04233(13)
H1 H 0.1215 -0.3741 0.0849
H2 H 0.1446 -0.3212 0.0290
H3 H 0.1017 -0.4200 0.0161
C2 C 0.09829(6) -0.1316(4) 0.03765(12)
H4 H 0.0964 -0.0877 -0.0058
C3 C 0.12245(7) 0.0213(4) 0.07948(12)
H5 H 0.1064 0.1395 0.0777
H6 H 0.1259 -0.0248 0.1223
C4 C 0.16427(7) 0.0710(5) 0.06278(12)
H7 H 0.1797 -0.0480 0.0609
H8 H 0.1609 0.1296 0.0215
C5 C 0.18844(6) 0.2090(4) 0.10929(12)
H9 H 0.1926 0.1478 0.1502
H10 H 0.1724 0.3254 0.1124
C6 C 0.23023(7) 0.2679(4) 0.09199(11)
H11 H 0.2425 0.1517 0.0764
C7 C 0.25882(6) 0.3388(4) 0.14960(11)
H12 H 0.2454 0.4484 0.1669
C8 C 0.30266(6) 0.4072(4) 0.14182(11)
C9 C 0.32318(6) 0.4025(4) 0.21120(11)
H13 H 0.3090 0.5007 0.2328
C10 C 0.36722(7) 0.4623(4) 0.22063(12)
C11 C 0.39684(7) 0.3529(4) 0.25340(11)
H14 H 0.3891 0.2351 0.2691
C12 C 0.44000(7) 0.4041(4) 0.26622(11)
H15 H 0.4474 0.5215 0.2499
C13 C 0.47006(7) 0.3003(4) 0.29897(11)
C14 C 0.51334(6) 0.3762(4) 0.30827(11)
H16 H 0.5131 0.5114 0.2957
H17 H 0.5289 0.3045 0.2813
C15 C 0.53440(7) 0.3597(5) 0.37547(12)
H18 H 0.5633 0.3911 0.3766
C16 C 0.53106(7) 0.1554(4) 0.40126(13)
H19 H 0.5425 0.1539 0.4452
H20 H 0.5468 0.0669 0.3794
C17 C 0.05489(7) -0.1476(5) 0.05354(13)
H21 H 0.0400 -0.2428 0.0269
H22 H 0.0415 -0.0240 0.0472
H23 H 0.0560 -0.1859 0.0965
C18 C 0.22433(7) 0.4165(4) 0.03882(12)
H24 H 0.2195 0.5422 0.0554
H25 H 0.2014 0.3795 0.0087
H26 H 0.2484 0.4209 0.0190
C19 C 0.26650(6) 0.1830(4) 0.20147(11)
H27 H 0.2474 0.1990 0.2310
H28 H 0.2629 0.0543 0.1833
C20 C 0.31054(7) 0.2077(4) 0.23520(12)
H29 H 0.3114 0.2098 0.2803
H30 H 0.3280 0.1041 0.2242
C21 C 0.32272(7) 0.2588(4) 0.10255(12)
H31 H 0.3130 0.2790 0.0590
H32 H 0.3160 0.1297 0.1142
H33 H 0.3517 0.2754 0.1100
C22 C 0.30695(7) 0.6138(4) 0.11737(12)
H34 H 0.2952 0.6196 0.0736
H35 H 0.2919 0.7028 0.1402
C23 C 0.35146(7) 0.6770(4) 0.12455(12)
H36 H 0.3528 0.8108 0.1110
H37 H 0.3657 0.5977 0.0976
C24 C 0.37294(7) 0.6592(4) 0.19218(12)
H38 H 0.4018 0.6828 0.1931
H39 H 0.3625 0.7583 0.2175
C25 C 0.46562(7) 0.1061(4) 0.32786(12)
C26 C 0.48665(7) 0.0852(4) 0.39389(11)
H40 H 0.4861 -0.0500 0.4063
H41 H 0.4720 0.1597 0.4215
C27 C 0.44668(7) -0.0408(4) 0.29633(13)
H42 H 0.4355 -0.0250 0.2546
H43 H 0.4445 -0.1597 0.3160
H44 H 0.5304(7) 0.515(4) 0.4450(13)
O2 O 0.44808(5) 0.5033(3) 0.46797(8)
H45 H 0.4654(8) 0.511(5) 0.4456(14)
C28 C 0.40752(7) 0.4855(4) 0.43354(12)
H46 H 0.4093 0.4254 0.3929
C29 C 0.38805(7) 0.6829(4) 0.42279(12)
H47 H 0.4039 0.7617 0.3980
H48 H 0.3878 0.7472 0.4627
C30 C 0.34413(6) 0.6641(4) 0.38855(12)
H49 H 0.3459 0.5961 0.3492
C31 C 0.32486(7) 0.8589(4) 0.37077(13)
H50 H 0.3428 0.9341 0.3485
H51 H 0.3213 0.9294 0.4084
C32 C 0.28384(7) 0.8353(4) 0.32971(13)
H52 H 0.2881 0.7845 0.2893
H53 H 0.2711 0.9618 0.3229
C33 C 0.25504(7) 0.7000(4) 0.35808(12)
H54 H 0.2458 0.7661 0.3936
C34 C 0.21781(7) 0.6477(4) 0.31061(12)
H55 H 0.2282 0.5671 0.2791
C35 C 0.18542(7) 0.5229(4) 0.33609(11)
C36 C 0.15416(7) 0.5001(4) 0.27587(12)
H56 H 0.1660 0.4085 0.2489
C37 C 0.11054(7) 0.4307(4) 0.27860(12)
H57 H 0.0966 0.5331 0.2988
C38 C 0.08766(7) 0.4035(5) 0.21267(12)
H58 H 0.0959 0.5064 0.1866
H59 H 0.0965 0.2818 0.1965
C39 C 0.04166(7) 0.4020(5) 0.20488(12)
H60 H 0.0332 0.3102 0.2344
H61 H 0.0324 0.5296 0.2155
C40 C 0.02117(7) 0.3502(5) 0.14057(12)
H62 H 0.0292 0.2192 0.1314
H63 H 0.0315 0.4360 0.1110
C41 C -0.02519(7) 0.3601(5) 0.12872(13)
H64 H -0.0358 0.2951 0.1633
C42 C -0.04235(8) 0.2609(6) 0.06825(15)
H65 H -0.0314 0.3202 0.0342
H66 H -0.0714 0.2736 0.0615
H67 H -0.0352 0.1258 0.0706
C43 C 0.38295(7) 0.3564(4) 0.46962(12)
H68 H 0.3833 0.4085 0.5114
H69 H 0.3952 0.2282 0.4735
C44 C 0.33881(7) 0.3400(4) 0.43707(12)
H70 H 0.3386 0.2736 0.3974
H71 H 0.3236 0.2611 0.4627
C45 C 0.31730(7) 0.5359(4) 0.42498(11)
C46 C 0.27592(6) 0.5086(4) 0.38157(12)
H72 H 0.2823 0.4417 0.3442
C47 C -0.03933(9) 0.5732(5) 0.12622(15)
H73 H -0.0278 0.6404 0.0940
H74 H -0.0305 0.6341 0.1658
H75 H -0.0685 0.5780 0.1172
C48 C 0.10851(8) 0.2452(5) 0.31648(14)
H76 H 0.0807 0.2044 0.3140
H77 H 0.1196 0.2691 0.3594
H78 H 0.1240 0.1451 0.2999
C49 C 0.15426(7) 0.7042(4) 0.24365(14)
H79 H 0.1543 0.6896 0.1990
H80 H 0.1303 0.7778 0.2502
C50 C 0.19328(7) 0.8088(4) 0.27409(14)
H81 H 0.2080 0.8634 0.2426
H82 H 0.1870 0.9116 0.3018
C51 C 0.16601(7) 0.6302(5) 0.38701(12)
H83 H 0.1464 0.5471 0.4022
H84 H 0.1527 0.7458 0.3696
H85 H 0.1868 0.6645 0.4209
C52 C 0.20671(7) 0.3373(4) 0.36229(12)
H86 H 0.2137 0.2599 0.3279
H87 H 0.1880 0.2621 0.3832
C53 C 0.24544(6) 0.3778(5) 0.40863(12)
H88 H 0.2379 0.4390 0.4457
H89 H 0.2585 0.2553 0.4213
C54 C 0.31076(7) 0.6272(5) 0.48749(11)
H90 H 0.2960 0.5383 0.5100
H91 H 0.2955 0.7454 0.4797
H92 H 0.3367 0.6551 0.5119
loop_
_geom_bond_atom_site_label_1
_geom_bond_atom_site_label_2
_geom_bond_site_symmetry_1
_geom_bond_site_symmetry_2
O1 C15 1_555 1_555
C1 H1 1_555 1_555
H2 C1 1_555 1_555
H3 C1 1_555 1_555
C2 C1 1_555 1_555
H4 C2 1_555 1_555
C3 C2 1_555 1_555
H5 C3 1_555 1_555
H6 C3 1_555 1_555
C4 C3 1_555 1_555
H7 C4 1_555 1_555
H8 C4 1_555 1_555
C5 C4 1_555 1_555
H9 C5 1_555 1_555
H10 C5 1_555 1_555
C6 C5 1_555 1_555
H11 C6 1_555 1_555
C7 C6 1_555 1_555
H12 C7 1_555 1_555
C8 C7 1_555 1_555
C9 C8 1_555 1_555
H13 C9 1_555 1_555
C10 C9 1_555 1_555
C11 C10 1_555 1_555
H14 C11 1_555 1_555
C12 C11 1_555 1_555
H15 C12 1_555 1_555
C13 C12 1_555 1_555
C14 C13 1_555 1_555
H16 C14 1_555 1_555
H17 C14 1_555 1_555
C15 C14 1_555 1_555
H18 C15 1_555 1_555
C16 C15 1_555 1_555
H19 C16 1_555 1_555
H20 C16 1_555 1_555
C17 C2 1_555 1_555
H21 C17 1_555 1_555
H22 C17 1_555 1_555
H23 C17 1_555 1_555
C18 C6 1_555 1_555
H24 C18 1_555 1_555
H25 C18 1_555 1_555
H26 C18 1_555 1_555
C19 C7 1_555 1_555
H27 C19 1_555 1_555
H28 C19 1_555 1_555
C20 C9 1_555 1_555
H29 C20 1_555 1_555
H30 C20 1_555 1_555
C21 C8 1_555 1_555
H31 C21 1_555 1_555
H32 C21 1_555 1_555
H33 C21 1_555 1_555
C22 C8 1_555 1_555
H34 C22 1_555 1_555
H35 C22 1_555 1_555
C23 C22 1_555 1_555
H36 C23 1_555 1_555
H37 C23 1_555 1_555
C24 C10 1_555 1_555
H38 C24 1_555 1_555
H39 C24 1_555 1_555
C25 C13 1_555 1_555
C26 C16 1_555 1_555
H40 C26 1_555 1_555
H41 C26 1_555 1_555
C27 C25 1_555 1_555
H42 C27 1_555 1_555
H43 C27 1_555 1_555
H44 O1 1_555 1_555
O2 H45 1_555 1_555
C28 O2 1_555 1_555
H46 C28 1_555 1_555
C29 C28 1_555 1_555
H47 C29 1_555 1_555
H48 C29 1_555 1_555
C30 C29 1_555 1_555
H49 C30 1_555 1_555
C31 C30 1_555 1_555
H50 C31 1_555 1_555
H51 C31 1_555 1_555
C32 C31 1_555 1_555
H52 C32 1_555 1_555
H53 C32 1_555 1_555
C33 C32 1_555 1_555
H54 C33 1_555 1_555
C34 C33 1_555 1_555
H55 C34 1_555 1_555
C35 C34 1_555 1_555
C36 C35 1_555 1_555
H56 C36 1_555 1_555
C37 C36 1_555 1_555
H57 C37 1_555 1_555
C38 C37 1_555 1_555
H58 C38 1_555 1_555
H59 C38 1_555 1_555
C39 C38 1_555 1_555
H60 C39 1_555 1_555
H61 C39 1_555 1_555
C40 C39 1_555 1_555
H62 C40 1_555 1_555
H63 C40 1_555 1_555
C41 C40 1_555 1_555
H64 C41 1_555 1_555
C42 C41 1_555 1_555
H65 C42 1_555 1_555
H66 C42 1_555 1_555
H67 C42 1_555 1_555
C43 C28 1_555 1_555
H68 C43 1_555 1_555
H69 C43 1_555 1_555
C44 C43 1_555 1_555
H70 C44 1_555 1_555
H71 C44 1_555 1_555
C45 C30 1_555 1_555
C46 C33 1_555 1_555
H72 C46 1_555 1_555
C47 C41 1_555 1_555
H73 C47 1_555 1_555
H74 C47 1_555 1_555
H75 C47 1_555 1_555
C48 C37 1_555 1_555
H76 C48 1_555 1_555
H77 C48 1_555 1_555
H78 C48 1_555 1_555
C49 C36 1_555 1_555
H79 C49 1_555 1_555
H80 C49 1_555 1_555
C50 C34 1_555 1_555
H81 C50 1_555 1_555
H82 C50 1_555 1_555
C51 C35 1_555 1_555
H83 C51 1_555 1_555
H84 C51 1_555 1_555
H85 C51 1_555 1_555
C52 C35 1_555 1_555
H86 C52 1_555 1_555
H87 C52 1_555 1_555
C53 C46 1_555 1_555
H88 C53 1_555 1_555
H89 C53 1_555 1_555
C54 C45 1_555 1_555
H90 C54 1_555 1_555
H91 C54 1_555 1_555
H92 C54 1_555 1_555
C19 C20 1_555 1_555
C23 C24 1_555 1_555
C25 C26 1_555 1_555
C44 C45 1_555 1_555
C45 C46 1_555 1_555
C49 C50 1_555 1_555
C52 C53 1_555 1_555

#END
