
#######################################################################
#
#                 Cambridge Crystallographic Data Centre
#                                CCDC 
#
#######################################################################
#
# If this CIF has been generated from an entry in the Cambridge 
# Structural Database, then it will include bibliographic, chemical, 
# crystal, experimental, refinement or atomic coordinate data resulting 
# from the CCDC's data processing and validation procedures.
#
#######################################################################

data_RIPCIE
_chemical_formula_moiety         'C26 H18 I1 N1 O1'
_chemical_name_systematic        
6-Iodo-5-phenyl-9,13b-dihydro-7H-benzo[c]pyrrolo[2,1-e]phenanthridin-7-one
_symmetry_cell_setting           triclinic
_symmetry_space_group_name_H-M   'P -1'
_symmetry_Int_Tables_number      2
_space_group_name_Hall           '-P 1'
loop_
_symmetry_equiv_pos_site_id
_symmetry_equiv_pos_as_xyz
1 x,y,z
2 -x,-y,-z
_cell_length_a                   9.6284(4)
_cell_length_b                   11.7266(6)
_cell_length_c                   19.1651(9)
_cell_angle_alpha                75.073(5)
_cell_angle_beta                 77.631(4)
_cell_angle_gamma                87.141(4)
_cell_volume                     2042.31
_exptl_crystal_colour            'light orange'
_exptl_crystal_description       block
_cell_formula_units_Z            4
loop_
_atom_site_label
_atom_site_type_symbol
_atom_site_fract_x
_atom_site_fract_y
_atom_site_fract_z
I1 I 1.19609(3) 0.72403(3) 0.432003(17)
O1 O 1.0570(3) 0.5140(3) 0.58749(16)
N1 N 0.8417(3) 0.6085(3) 0.60556(17)
C1 C 0.7135(4) 0.7933(3) 0.6131(2)
C2 C 0.7870(5) 0.8128(4) 0.6636(2)
H1 H 0.8653 0.7664 0.6732
C3 C 0.7449(6) 0.9009(5) 0.6998(3)
H2 H 0.7946 0.9133 0.7338
C4 C 0.6298(6) 0.9699(5) 0.6856(3)
H3 H 0.6025 1.0299 0.7093
C5 C 0.5546(5) 0.9500(4) 0.6359(3)
H4 H 0.4757 0.9961 0.6272
C6 C 0.5946(4) 0.8625(4) 0.5988(2)
C7 C 0.5204(4) 0.8431(4) 0.5443(3)
H5 H 0.4519 0.8973 0.5293
C8 C 0.5461(4) 0.7517(4) 0.5150(2)
H6 H 0.4999 0.7461 0.4780
C9 C 0.6480(4) 0.6568(3) 0.5399(2)
H7 H 0.6929 0.6270 0.4972
C10 C 0.7673(4) 0.7069(3) 0.56667(19)
C11 C 0.5688(4) 0.5542(3) 0.59854(19)
C12 C 0.4381(4) 0.5175(3) 0.5903(2)
H8 H 0.4000 0.5582 0.5503
C13 C 0.3654(5) 0.4225(4) 0.6402(2)
H9 H 0.2795 0.3987 0.6336
C14 C 0.4204(5) 0.3626(4) 0.7002(3)
H10 H 0.3711 0.2987 0.7344
C15 C 0.5485(5) 0.3974(4) 0.7096(2)
H11 H 0.5849 0.3569 0.7503
C16 C 0.6236(4) 0.4925(3) 0.6587(2)
C17 C 0.7665(4) 0.5249(4) 0.6700(2)
H12 H 0.7518 0.5586 0.7122
H13 H 0.8232 0.4542 0.6804
C18 C 0.9769(4) 0.5945(4) 0.5691(2)
C19 C 1.0016(4) 0.6977(3) 0.5039(2)
C20 C 0.8862(4) 0.7636(3) 0.5004(2)
C21 C 0.8669(4) 0.8701(3) 0.44219(19)
C22 C 0.8570(4) 0.9823(4) 0.4542(2)
H14 H 0.8576 0.9916 0.5008
C23 C 0.8462(4) 1.0802(4) 0.3972(3)
H15 H 0.8406 1.1550 0.4058
C24 C 0.8436(5) 1.0679(5) 0.3283(3)
H16 H 0.8359 1.1341 0.2903
C25 C 0.8527(5) 0.9568(5) 0.3155(2)
H17 H 0.8502 0.9480 0.2689
C26 C 0.8654(4) 0.8588(4) 0.3719(2)
H18 H 0.8730 0.7844 0.3628
I2 I 0.63268(3) 0.64883(3) 1.071436(18)
O2 O 0.6556(3) 0.6086(3) 0.89912(17)
N2 N 0.4368(3) 0.6912(3) 0.88920(16)
C27 C 0.2814(4) 0.8641(3) 0.90334(19)
C28 C 0.3887(4) 0.9432(4) 0.8632(2)
H19 H 0.4809 0.9163 0.8508
C29 C 0.3598(5) 1.0623(4) 0.8413(2)
H20 H 0.4326 1.1154 0.8147
C30 C 0.2224(5) 1.1022(4) 0.8590(2)
H21 H 0.2023 1.1821 0.8440
C31 C 0.1156(5) 1.0233(4) 0.8990(2)
H22 H 0.0235 1.0508 0.9105
C32 C 0.1420(4) 0.9038(4) 0.9224(2)
C33 C 0.0319(4) 0.8207(4) 0.9680(2)
H23 H -0.0555 0.8495 0.9876
C34 C 0.0519(4) 0.7060(4) 0.9826(2)
H24 H -0.0178 0.6559 1.0159
C35 C 0.1862(4) 0.6542(4) 0.9463(2)
H25 H 0.2027 0.5772 0.9784
C36 C 0.3143(4) 0.7351(3) 0.93513(19)
C37 C 0.1684(4) 0.6365(3) 0.8721(2)
C38 C 0.0353(5) 0.6099(4) 0.8625(2)
H26 H -0.0431 0.6047 0.9011
C39 C 0.0177(5) 0.5912(4) 0.7972(3)
H27 H -0.0719 0.5739 0.7917
C40 C 0.1338(6) 0.5982(4) 0.7394(3)
H28 H 0.1227 0.5839 0.6953
C41 C 0.2646(5) 0.6261(4) 0.7471(2)
H29 H 0.3419 0.6325 0.7077
C42 C 0.2835(4) 0.6451(3) 0.8127(2)
C43 C 0.4299(4) 0.6771(4) 0.8175(2)
H30 H 0.4958 0.6160 0.8060
H31 H 0.4599 0.7502 0.7807
C44 C 0.5454(4) 0.6539(4) 0.9240(2)
C45 C 0.5005(4) 0.6801(3) 0.9970(2)
C46 C 0.3704(4) 0.7244(3) 1.0057(2)
C47 C 0.2021(5) 0.6921(5) 1.1273(2)
H32 H 0.1860 0.6159 1.1247
C48 C 0.1348(6) 0.7302(6) 1.1886(3)
H33 H 0.0716 0.6806 1.2265
C49 C 0.1621(6) 0.8422(7) 1.1933(3)
H34 H 0.1186 0.8674 1.2349
C50 C 0.2515(6) 0.9149(6) 1.1379(4)
H35 H 0.2694 0.9902 1.1414
C51 C 0.3174(5) 0.8783(5) 1.0750(3)
H36 H 0.3778 0.9294 1.0366
C52 C 0.2927(4) 0.7665(4) 1.0702(2)
loop_
_geom_bond_atom_site_label_1
_geom_bond_atom_site_label_2
_geom_bond_site_symmetry_1
_geom_bond_site_symmetry_2
I1 C19 1_555 1_555
O1 C18 1_555 1_555
N1 C10 1_555 1_555
C1 C2 1_555 1_555
C2 H1 1_555 1_555
C3 C2 1_555 1_555
H2 C3 1_555 1_555
C4 C3 1_555 1_555
H3 C4 1_555 1_555
C5 C4 1_555 1_555
H4 C5 1_555 1_555
C6 C1 1_555 1_555
C7 C6 1_555 1_555
H5 C7 1_555 1_555
C8 C7 1_555 1_555
H6 C8 1_555 1_555
C9 C8 1_555 1_555
H7 C9 1_555 1_555
C10 C1 1_555 1_555
C11 C9 1_555 1_555
C12 C11 1_555 1_555
H8 C12 1_555 1_555
C13 C12 1_555 1_555
H9 C13 1_555 1_555
C14 C13 1_555 1_555
H10 C14 1_555 1_555
C15 C14 1_555 1_555
H11 C15 1_555 1_555
C16 C11 1_555 1_555
C17 N1 1_555 1_555
H12 C17 1_555 1_555
H13 C17 1_555 1_555
C18 N1 1_555 1_555
C19 C18 1_555 1_555
C20 C10 1_555 1_555
C21 C20 1_555 1_555
C22 C21 1_555 1_555
H14 C22 1_555 1_555
C23 C22 1_555 1_555
H15 C23 1_555 1_555
C24 C23 1_555 1_555
H16 C24 1_555 1_555
C25 C24 1_555 1_555
H17 C25 1_555 1_555
C26 C21 1_555 1_555
H18 C26 1_555 1_555
I2 C45 1_555 1_555
O2 C44 1_555 1_555
N2 C36 1_555 1_555
C27 C28 1_555 1_555
C28 H19 1_555 1_555
C29 C28 1_555 1_555
H20 C29 1_555 1_555
C30 C29 1_555 1_555
H21 C30 1_555 1_555
C31 C30 1_555 1_555
H22 C31 1_555 1_555
C32 C27 1_555 1_555
C33 C32 1_555 1_555
H23 C33 1_555 1_555
C34 C33 1_555 1_555
H24 C34 1_555 1_555
C35 C34 1_555 1_555
H25 C35 1_555 1_555
C36 C27 1_555 1_555
C37 C35 1_555 1_555
C38 C37 1_555 1_555
H26 C38 1_555 1_555
C39 C38 1_555 1_555
H27 C39 1_555 1_555
C40 C39 1_555 1_555
H28 C40 1_555 1_555
C41 C40 1_555 1_555
H29 C41 1_555 1_555
C42 C37 1_555 1_555
C43 N2 1_555 1_555
H30 C43 1_555 1_555
H31 C43 1_555 1_555
C44 N2 1_555 1_555
C45 C44 1_555 1_555
C46 C36 1_555 1_555
C47 H32 1_555 1_555
C48 C47 1_555 1_555
H33 C48 1_555 1_555
C49 C48 1_555 1_555
H34 C49 1_555 1_555
C50 C49 1_555 1_555
H35 C50 1_555 1_555
C51 C50 1_555 1_555
H36 C51 1_555 1_555
C52 C46 1_555 1_555
C5 C6 1_555 1_555
C9 C10 1_555 1_555
C15 C16 1_555 1_555
C16 C17 1_555 1_555
C19 C20 1_555 1_555
C25 C26 1_555 1_555
C31 C32 1_555 1_555
C35 C36 1_555 1_555
C41 C42 1_555 1_555
C42 C43 1_555 1_555
C45 C46 1_555 1_555
C47 C52 1_555 1_555
C51 C52 1_555 1_555

#END
