
#######################################################################
#
#                 Cambridge Crystallographic Data Centre
#                                CCDC 
#
#######################################################################
#
# If this CIF has been generated from an entry in the Cambridge 
# Structural Database, then it will include bibliographic, chemical, 
# crystal, experimental, refinement or atomic coordinate data resulting 
# from the CCDC's data processing and validation procedures.
#
#######################################################################

data_RIPKAF
_chemical_formula_moiety         'C11 H18 Br2 N1 O2 1+,Br1 1-'
_chemical_name_systematic        
'1-(2,3-dibromoprop-2-en-1-yl)-1-(2-methoxy-2-oxoethyl)piperidin-1-ium bromide'
_symmetry_cell_setting           triclinic
_symmetry_space_group_name_H-M   'P 1'
_symmetry_Int_Tables_number      1
_space_group_name_Hall           'P 1'
loop_
_symmetry_equiv_pos_site_id
_symmetry_equiv_pos_as_xyz
1 x,y,z
_cell_length_a                   6.6215(13)
_cell_length_b                   6.8751(14)
_cell_length_c                   8.4233(17)
_cell_angle_alpha                80.75(3)
_cell_angle_beta                 88.89(3)
_cell_angle_gamma                79.34(3)
_cell_volume                     371.919
_exptl_crystal_colour            colorless
_exptl_crystal_description       prism
_cell_formula_units_Z            1
loop_
_atom_site_label
_atom_site_type_symbol
_atom_site_fract_x
_atom_site_fract_y
_atom_site_fract_z
Br1 Br 0.83958(10) 0.07077(10) 0.52310(9)
N1 N 0.4101(8) 0.7256(8) 0.4543(7)
Br2 Br 0.20548(11) 0.93688(12) 0.04649(10)
C1 C 0.3957(13) 0.7558(12) 0.6299(10)
H1 H 0.269153 0.847593 0.644633
H2 H 0.509283 0.817077 0.655259
Br3 Br 0.67669(12) 1.02532(12) -0.08805(10)
C2 C 0.4003(17) 0.5600(14) 0.7470(11)
H3 H 0.532226 0.472544 0.740961
H4 H 0.383637 0.588616 0.856081
C3 C 0.2301(19) 0.4555(16) 0.7067(15)
H5 H 0.097748 0.536660 0.723893
H6 H 0.240544 0.327573 0.777045
C4 C 0.2456(14) 0.4218(12) 0.5317(14)
H7 H 0.373187 0.331628 0.516725
H8 H 0.132730 0.359951 0.505905
C5 C 0.2389(10) 0.6190(11) 0.4200(10)
H9 H 0.107622 0.705427 0.431072
H10 H 0.249187 0.594061 0.309754
C6 C 0.3775(10) 0.9372(9) 0.3587(9)
H11 H 0.235791 1.000257 0.371326
H12 H 0.463585 1.012920 0.406098
C7 C 0.4214(11) 0.9544(10) 0.1846(9)
C8 C 0.5982(11) 0.9982(11) 0.1284(10)
H13 H 0.691863 1.017214 0.202671
C9 C 0.6228(10) 0.6155(10) 0.4266(9)
H14 H 0.653530 0.499247 0.510217
H15 H 0.719298 0.702309 0.439490
C10 C 0.6618(11) 0.5449(11) 0.2649(10)
O1 O 0.5460(10) 0.4861(11) 0.1867(9)
O2 O 0.8589(9) 0.5492(9) 0.2301(8)
C11 C 0.934(2) 0.459(2) 0.0914(18)
H16 H 0.904572 0.325943 0.102754
H17 H 1.080069 0.452670 0.083553
H18 H 0.868057 0.538414 -0.004111
loop_
_geom_bond_atom_site_label_1
_geom_bond_atom_site_label_2
_geom_bond_site_symmetry_1
_geom_bond_site_symmetry_2
N1 C1 1_555 1_555
Br2 C7 1_555 1_555
C1 H1 1_555 1_555
H2 C1 1_555 1_555
Br3 C8 1_555 1_555
C2 C1 1_555 1_555
H3 C2 1_555 1_555
H4 C2 1_555 1_555
C3 C2 1_555 1_555
H5 C3 1_555 1_555
H6 C3 1_555 1_555
C4 C3 1_555 1_555
H7 C4 1_555 1_555
H8 C4 1_555 1_555
C5 N1 1_555 1_555
H9 C5 1_555 1_555
H10 C5 1_555 1_555
C6 N1 1_555 1_555
H11 C6 1_555 1_555
H12 C6 1_555 1_555
C7 C6 1_555 1_555
C8 C7 1_555 1_555
H13 C8 1_555 1_555
C9 N1 1_555 1_555
H14 C9 1_555 1_555
H15 C9 1_555 1_555
C10 C9 1_555 1_555
O1 C10 1_555 1_555
O2 C10 1_555 1_555
C11 O2 1_555 1_555
H16 C11 1_555 1_555
H17 C11 1_555 1_555
H18 C11 1_555 1_555
C4 C5 1_555 1_555

#END
