
#######################################################################
#
#                 Cambridge Crystallographic Data Centre
#                                CCDC 
#
#######################################################################
#
# If this CIF has been generated from an entry in the Cambridge 
# Structural Database, then it will include bibliographic, chemical, 
# crystal, experimental, refinement or atomic coordinate data resulting 
# from the CCDC's data processing and validation procedures.
#
#######################################################################

data_RIPLOU
_chemical_formula_moiety         'C24 H24 P1 1+,Br1 1-,C6 H6'
_chemical_name_systematic        
'(cyclohex-2-en-1-yl)(triphenyl)phosphonium bromide benzene solvate'
_symmetry_cell_setting           monoclinic
_symmetry_space_group_name_H-M   'C c'
_symmetry_Int_Tables_number      9
_space_group_name_Hall           'C -2yc'
loop_
_symmetry_equiv_pos_site_id
_symmetry_equiv_pos_as_xyz
1 x,y,z
2 x,-y,1/2+z
3 1/2+x,1/2+y,z
4 1/2+x,1/2-y,1/2+z
_cell_length_a                   16.662(3)
_cell_length_b                   9.870(2)
_cell_length_c                   16.475(3)
_cell_angle_alpha                90
_cell_angle_beta                 109.67(3)
_cell_angle_gamma                90
_cell_volume                     2551.28
_exptl_crystal_colour            colorless
_exptl_crystal_description       prism
_cell_formula_units_Z            4
loop_
_atom_site_label
_atom_site_type_symbol
_atom_site_fract_x
_atom_site_fract_y
_atom_site_fract_z
Br1 Br 0.42099(3) 0.05899(4) 0.53819(3)
P1 P 0.21858(6) 0.06431(12) 0.77384(6)
C1 C 0.1552(3) 0.1302(5) 0.8341(3)
C2 C 0.1925(4) 0.1885(6) 0.9146(3)
H1 H 0.251503 0.192033 0.939302
C3 C 0.1415(4) 0.2415(7) 0.9579(4)
H2 H 0.166247 0.281112 1.011803
C4 C 0.0544(4) 0.2354(6) 0.9213(4)
H3 H 0.020425 0.272606 0.950307
C5 C 0.0169(4) 0.1755(6) 0.8427(4)
H4 H -0.042222 0.170974 0.818837
C6 C 0.0672(3) 0.1217(6) 0.7990(3)
H5 H 0.041991 0.079724 0.745920
C7 C 0.2065(2) -0.1169(5) 0.7674(3)
C8 C 0.2576(3) -0.1963(5) 0.8354(3)
H6 H 0.299637 -0.156188 0.881464
C9 C 0.2454(4) -0.3347(5) 0.8337(4)
H7 H 0.279235 -0.388336 0.878578
C10 C 0.1828(4) -0.3935(6) 0.7652(4)
H8 H 0.174715 -0.486809 0.764309
C11 C 0.1329(3) -0.3164(6) 0.6992(4)
H9 H 0.090799 -0.357389 0.653639
C12 C 0.1441(3) -0.1773(5) 0.6989(3)
H10 H 0.110074 -0.125017 0.653300
C13 C 0.1828(3) 0.1373(5) 0.6682(3)
C14 C 0.1378(3) 0.2588(5) 0.6529(3)
H11 H 0.120149 0.296894 0.695730
C15 C 0.1193(3) 0.3231(6) 0.5741(4)
H12 H 0.088868 0.403942 0.563731
C16 C 0.1458(4) 0.2676(7) 0.5117(4)
H13 H 0.134287 0.312163 0.459218
C17 C 0.1891(4) 0.1473(7) 0.5252(4)
H14 H 0.206390 0.110098 0.481875
C18 C 0.2070(4) 0.0812(5) 0.6031(3)
H15 H 0.235548 -0.001425 0.611877
C19 C 0.3302(3) 0.1070(5) 0.8264(3)
H16 H 0.347099 0.077098 0.886599
C20 C 0.3863(3) 0.0337(6) 0.7836(4)
H17 H 0.388659 -0.062074 0.797533
H18 H 0.361584 0.042909 0.721496
C21 C 0.4743(4) 0.0912(7) 0.8137(5)
H19 H 0.498861 0.081010 0.875715
H20 H 0.509431 0.040534 0.787818
C22 C 0.4755(4) 0.2374(8) 0.7910(5)
H21 H 0.467364 0.245749 0.730050
H22 H 0.530523 0.276042 0.823184
C23 C 0.4070(5) 0.3139(7) 0.8108(4)
H23 H 0.410928 0.407949 0.812745
C24 C 0.3416(4) 0.2587(6) 0.8257(3)
H24 H 0.301164 0.314618 0.836121
C25 C 0.4404(5) 0.5689(9) 0.5402(6)
H25 H 0.478781 0.576284 0.510458
C26 C 0.4121(5) 0.6847(7) 0.5695(6)
H26 H 0.431906 0.768997 0.559428
C27 C 0.3546(6) 0.6769(10) 0.6137(6)
H27 H 0.336159 0.754863 0.633778
C28 C 0.3253(6) 0.5503(11) 0.6275(6)
H28 H 0.286944 0.542525 0.657176
C29 C 0.3534(5) 0.4358(9) 0.5967(6)
H29 H 0.332075 0.351624 0.604676
C30 C 0.4122(6) 0.4428(8) 0.5545(6)
H30 H 0.432272 0.364621 0.536328
loop_
_geom_bond_atom_site_label_1
_geom_bond_atom_site_label_2
_geom_bond_site_symmetry_1
_geom_bond_site_symmetry_2
P1 C1 1_555 1_555
C1 C2 1_555 1_555
C2 H1 1_555 1_555
C3 C2 1_555 1_555
H2 C3 1_555 1_555
C4 C3 1_555 1_555
H3 C4 1_555 1_555
C5 C4 1_555 1_555
H4 C5 1_555 1_555
C6 C1 1_555 1_555
H5 C6 1_555 1_555
C7 P1 1_555 1_555
C8 C7 1_555 1_555
H6 C8 1_555 1_555
C9 C8 1_555 1_555
H7 C9 1_555 1_555
C10 C9 1_555 1_555
H8 C10 1_555 1_555
C11 C10 1_555 1_555
H9 C11 1_555 1_555
C12 C7 1_555 1_555
H10 C12 1_555 1_555
C13 P1 1_555 1_555
C14 C13 1_555 1_555
H11 C14 1_555 1_555
C15 C14 1_555 1_555
H12 C15 1_555 1_555
C16 C15 1_555 1_555
H13 C16 1_555 1_555
C17 C16 1_555 1_555
H14 C17 1_555 1_555
C18 C13 1_555 1_555
H15 C18 1_555 1_555
C19 P1 1_555 1_555
H16 C19 1_555 1_555
C20 C19 1_555 1_555
H17 C20 1_555 1_555
H18 C20 1_555 1_555
C21 C20 1_555 1_555
H19 C21 1_555 1_555
H20 C21 1_555 1_555
C22 C21 1_555 1_555
H21 C22 1_555 1_555
H22 C22 1_555 1_555
C23 C22 1_555 1_555
H23 C23 1_555 1_555
C24 C19 1_555 1_555
H24 C24 1_555 1_555
C25 H25 1_555 1_555
C26 C25 1_555 1_555
H26 C26 1_555 1_555
C27 C26 1_555 1_555
H27 C27 1_555 1_555
C28 C27 1_555 1_555
H28 C28 1_555 1_555
C29 C28 1_555 1_555
H29 C29 1_555 1_555
C30 C25 1_555 1_555
H30 C30 1_555 1_555
C5 C6 1_555 1_555
C11 C12 1_555 1_555
C17 C18 1_555 1_555
C23 C24 1_555 1_555
C29 C30 1_555 1_555

#END
