
#######################################################################
#
#                 Cambridge Crystallographic Data Centre
#                                CCDC 
#
#######################################################################
#
# If this CIF has been generated from an entry in the Cambridge 
# Structural Database, then it will include bibliographic, chemical, 
# crystal, experimental, refinement or atomic coordinate data resulting 
# from the CCDC's data processing and validation procedures.
#
#######################################################################

data_RIPPEM
_chemical_name_common            
"1,1'-(1,2-Ethanediyl-bis(oxy-1,2-ethanediyl))-bis(3-ethylbenzimidazolium) bis(iodide)"
_chemical_formula_moiety         'C24 H32 N4 O2 2+,2(I1 1-)'
_chemical_name_systematic        
'1,2-bis(2-(3-Ethylbenzimidazolium-1-yl)ethoxy)ethane bis(iodide)'
_symmetry_cell_setting           monoclinic
_symmetry_space_group_name_H-M   'P 21/c'
_symmetry_Int_Tables_number      14
_space_group_name_Hall           '-P 2ybc'
loop_
_symmetry_equiv_pos_site_id
_symmetry_equiv_pos_as_xyz
1 x,y,z
2 -x,1/2+y,1/2-z
3 -x,-y,-z
4 x,1/2-y,1/2+z
_cell_length_a                   6.8232(17)
_cell_length_b                   12.545(3)
_cell_length_c                   15.976(4)
_cell_angle_alpha                90
_cell_angle_beta                 100.181(4)
_cell_angle_gamma                90
_cell_volume                     1345.97
_exptl_crystal_colour            colorless
_exptl_crystal_description       block
_cell_formula_units_Z            2
_exptl_crystal_recrystallization_method dichloromethane/acetonitrile
loop_
_atom_site_label
_atom_site_type_symbol
_atom_site_fract_x
_atom_site_fract_y
_atom_site_fract_z
I1 I 1.01629(7) 0.11619(3) 0.19803(2)
O1 O 0.3779(5) 0.3750(3) 0.4737(3)
N1 N 0.2343(5) 0.1593(3) 0.5008(2)
N2 N 0.3128(6) 0.1053(3) 0.6318(2)
C1 C 0.3927(8) 0.4864(4) 0.4932(4)
H1 H 0.3382 0.5013 0.5441
H2 H 0.3197 0.5278 0.4466
C2 C 0.1784(7) 0.3434(4) 0.4452(3)
H3 H 0.1209 0.3835 0.3949
H4 H 0.0994 0.3563 0.4890
C3 C 0.1814(7) 0.2269(4) 0.4252(3)
H5 H 0.0509 0.2060 0.3951
H6 H 0.2763 0.2146 0.3876
C4 C 0.2448(6) 0.0487(3) 0.4982(3)
C5 C 0.2113(6) -0.0216(4) 0.4303(3)
H7 H 0.1749 0.0017 0.3745
C6 C 0.2352(7) -0.1281(4) 0.4507(4)
H8 H 0.2150 -0.1784 0.4073
C7 C 0.2888(7) -0.1622(4) 0.5344(4)
H9 H 0.3041 -0.2349 0.5453
C8 C 0.3201(7) -0.0922(4) 0.6017(4)
H10 H 0.3553 -0.1155 0.6576
C9 C 0.2963(6) 0.0145(3) 0.5816(3)
C10 C 0.3544(11) 0.1114(5) 0.7258(3)
H11 H 0.2669 0.1642 0.7440
H12 H 0.3231 0.0430 0.7487
C11 C 0.5552(13) 0.1381(9) 0.7608(4)
H13 H 0.6425 0.0837 0.7465
H14 H 0.5697 0.1436 0.8215
H15 H 0.5885 0.2051 0.7379
C12 C 0.2763(7) 0.1891(4) 0.5813(3)
H16 H 0.2796 0.2594 0.5999
O1B O 0.6221(5) 0.6250(3) 0.5263(3)
N1B N 0.7657(5) 0.8407(3) 0.4992(2)
N2B N 0.6872(6) 0.8947(3) 0.3682(2)
C1B C 0.6073(8) 0.5136(4) 0.5068(4)
H1B H 0.6618 0.4987 0.4559
H2B H 0.6803 0.4722 0.5534
C2B C 0.8216(7) 0.6566(4) 0.5548(3)
H3B H 0.8791 0.6165 0.6051
H4B H 0.9006 0.6437 0.5110
C3B C 0.8186(7) 0.7731(4) 0.5748(3)
H5B H 0.9491 0.7940 0.6049
H6B H 0.7237 0.7854 0.6124
C4B C 0.7552(6) 0.9513(3) 0.5018(3)
C5B C 0.7887(6) 1.0216(4) 0.5697(3)
H7B H 0.8251 0.9983 0.6255
C6B C 0.7648(7) 1.1281(4) 0.5493(4)
H8B H 0.7850 1.1784 0.5927
C7B C 0.7112(7) 1.1622(4) 0.4656(4)
H9B H 0.6959 1.2349 0.4547
C8B C 0.6799(7) 1.0922(4) 0.3983(4)
H10B H 0.6447 1.1155 0.3424
C9B C 0.7037(6) 0.9855(3) 0.4184(3)
C10B C 0.6456(11) 0.8886(5) 0.2742(3)
H11B H 0.7331 0.8358 0.2560
H12B H 0.6769 0.9570 0.2513
C11B C 0.4448(13) 0.8619(9) 0.2392(4)
H13B H 0.3575 0.9163 0.2535
H14B H 0.4303 0.8564 0.1785
H15B H 0.4115 0.7949 0.2621
C12B C 0.7237(7) 0.8109(4) 0.4187(3)
H16B H 0.7204 0.7406 0.4001
loop_
_geom_bond_atom_site_label_1
_geom_bond_atom_site_label_2
_geom_bond_site_symmetry_1
_geom_bond_site_symmetry_2
O1 C1 1_555 1_555
N1 C3 1_555 1_555
N2 C9 1_555 1_555
C1 H1 1_555 1_555
H2 C1 1_555 1_555
C2 O1 1_555 1_555
H3 C2 1_555 1_555
H4 C2 1_555 1_555
C3 C2 1_555 1_555
H5 C3 1_555 1_555
H6 C3 1_555 1_555
C4 N1 1_555 1_555
C5 C4 1_555 1_555
H7 C5 1_555 1_555
C6 C5 1_555 1_555
H8 C6 1_555 1_555
C7 C6 1_555 1_555
H9 C7 1_555 1_555
C8 C7 1_555 1_555
H10 C8 1_555 1_555
C9 C4 1_555 1_555
C10 N2 1_555 1_555
H11 C10 1_555 1_555
H12 C10 1_555 1_555
C11 C10 1_555 1_555
H13 C11 1_555 1_555
H14 C11 1_555 1_555
H15 C11 1_555 1_555
C12 N1 1_555 1_555
H16 C12 1_555 1_555
O1B C1B 1_555 1_555
N1B C3B 1_555 1_555
N2B C9B 1_555 1_555
C1B C1 1_555 1_555
H1B C1B 1_555 1_555
H2B C1B 1_555 1_555
C2B O1B 1_555 1_555
H3B C2B 1_555 1_555
H4B C2B 1_555 1_555
C3B C2B 1_555 1_555
H5B C3B 1_555 1_555
H6B C3B 1_555 1_555
C4B N1B 1_555 1_555
C5B C4B 1_555 1_555
H7B C5B 1_555 1_555
C6B C5B 1_555 1_555
H8B C6B 1_555 1_555
C7B C6B 1_555 1_555
H9B C7B 1_555 1_555
C8B C7B 1_555 1_555
H10B C8B 1_555 1_555
C9B C4B 1_555 1_555
C10B N2B 1_555 1_555
H11B C10B 1_555 1_555
H12B C10B 1_555 1_555
C11B C10B 1_555 1_555
H13B C11B 1_555 1_555
H14B C11B 1_555 1_555
H15B C11B 1_555 1_555
C12B N1B 1_555 1_555
H16B C12B 1_555 1_555
N2 C12 1_555 1_555
C8 C9 1_555 1_555
N2B C12B 1_555 1_555
C8B C9B 1_555 1_555

#END
