
#######################################################################
#
#                 Cambridge Crystallographic Data Centre
#                                CCDC 
#
#######################################################################
#
# If this CIF has been generated from an entry in the Cambridge 
# Structural Database, then it will include bibliographic, chemical, 
# crystal, experimental, refinement or atomic coordinate data resulting 
# from the CCDC's data processing and validation procedures.
#
#######################################################################

data_RIPPUB
_chemical_formula_moiety         'C22 H16 N2 S2'
_chemical_name_systematic        'bis(2-(2-Pyridyl)phenyl) disulfide'
_symmetry_cell_setting           monoclinic
_symmetry_space_group_name_H-M   'P 21/n'
_symmetry_Int_Tables_number      14
_space_group_name_Hall           '-P 2yn'
loop_
_symmetry_equiv_pos_site_id
_symmetry_equiv_pos_as_xyz
1 x,y,z
2 1/2-x,1/2+y,1/2-z
3 -x,-y,-z
4 1/2+x,1/2-y,1/2+z
_cell_length_a                   10.6477(12)
_cell_length_b                   11.184(2)
_cell_length_c                   15.463(3)
_cell_angle_alpha                90
_cell_angle_beta                 90.026(10)
_cell_angle_gamma                90
_cell_volume                     1841.39
_exptl_crystal_colour            'pale yellow'
_cell_formula_units_Z            4
loop_
_atom_site_label
_atom_site_type_symbol
_atom_site_fract_x
_atom_site_fract_y
_atom_site_fract_z
N1 N 0.1317(1) 0.1584(2) 0.5288(1)
C1 C 0.1621(2) 0.0892(2) 0.4617(1)
C2 C 0.2840(2) 0.0689(2) 0.4347(1)
C3 C 0.3795(2) 0.1232(2) 0.4798(1)
C4 C 0.3510(2) 0.1949(2) 0.5492(1)
C5 C 0.2253(1) 0.2111(1) 0.5724(1)
C6 C 0.1875(1) 0.2871(1) 0.6459(1)
C7 C 0.2530(2) 0.3930(2) 0.6629(1)
C8 C 0.2190(2) 0.4682(2) 0.7295(1)
C9 C 0.1184(2) 0.4389(2) 0.7819(1)
C10 C 0.0518(2) 0.3344(1) 0.7669(1)
C11 C 0.0849(1) 0.2583(1) 0.6999(1)
S1 S 0.0001(1) 0.1223(1) 0.6816(1)
S2 S -0.0661(1) 0.0790(1) 0.8028(1)
C12 C -0.2258(1) 0.1303(1) 0.8016(1)
C13 C -0.2644(2) 0.2195(1) 0.7443(1)
C14 C -0.3879(2) 0.2575(2) 0.7417(1)
C15 C -0.4756(2) 0.2074(2) 0.7969(1)
C16 C -0.4389(2) 0.1186(2) 0.8534(1)
C17 C -0.3146(1) 0.0777(1) 0.8576(1)
C18 C -0.2815(1) -0.0197(1) 0.9186(1)
C19 C -0.3675(1) -0.1089(1) 0.9413(1)
C20 C -0.3303(2) -0.1993(2) 0.9958(1)
C21 C -0.2089(2) -0.1995(2) 1.0279(1)
C22 C -0.1291(2) -0.1084(1) 1.0025(1)
N2 N -0.1634(1) -0.0197(1) 0.9493(1)
H1 H 0.0952(17) 0.0513(10) 0.4302(8)
H2 H 0.3009(5) 0.0200(13) 0.3876(12)
H3 H 0.4661(20) 0.1111(3) 0.4627(4)
H4 H 0.4165(14) 0.2332(8) 0.5814(7)
H5 H 0.3225(15) 0.4136(5) 0.6276(8)
H6 H 0.2648(11) 0.5403(18) 0.7395(3)
H7 H 0.0949(6) 0.4905(12) 0.8284(10)
H8 H -0.0171(14) 0.3148(4) 0.8028(7)
H9 H -0.2053(13) 0.2544(7) 0.7068(8)
H10 H -0.4114(6) 0.3151(13) 0.7039(9)
H11 H -0.5590(19) 0.2336(6) 0.7959(1)
H12 H -0.4995(13) 0.0843(7) 0.8905(8)
H13 H -0.4502(16) -0.1070(2) 0.9194(4)
H14 H -0.3856(12) -0.2591(13) 1.0109(3)
H15 H -0.1810(6) -0.2609(13) 1.0666(8)
H16 H -0.0437(17) -0.1088(1) 1.0243(4)
loop_
_geom_bond_atom_site_label_1
_geom_bond_atom_site_label_2
_geom_bond_site_symmetry_1
_geom_bond_site_symmetry_2
N1 C1 1_555 1_555
C1 C2 1_555 1_555
C2 C3 1_555 1_555
C3 C4 1_555 1_555
C4 C5 1_555 1_555
C5 N1 1_555 1_555
C6 C5 1_555 1_555
C7 C6 1_555 1_555
C8 C7 1_555 1_555
C9 C8 1_555 1_555
C10 C9 1_555 1_555
C11 C6 1_555 1_555
S1 C11 1_555 1_555
S2 S1 1_555 1_555
C12 S2 1_555 1_555
C13 C12 1_555 1_555
C14 C13 1_555 1_555
C15 C14 1_555 1_555
C16 C15 1_555 1_555
C17 C12 1_555 1_555
C18 C17 1_555 1_555
C19 C18 1_555 1_555
C20 C19 1_555 1_555
C21 C20 1_555 1_555
C22 C21 1_555 1_555
N2 C18 1_555 1_555
H1 C1 1_555 1_555
H2 C2 1_555 1_555
H3 C3 1_555 1_555
H4 C4 1_555 1_555
H5 C7 1_555 1_555
H6 C8 1_555 1_555
H7 C9 1_555 1_555
H8 C10 1_555 1_555
H9 C13 1_555 1_555
H10 C14 1_555 1_555
H11 C15 1_555 1_555
H12 C16 1_555 1_555
H13 C19 1_555 1_555
H14 C20 1_555 1_555
H15 C21 1_555 1_555
H16 C22 1_555 1_555
C10 C11 1_555 1_555
C16 C17 1_555 1_555
C22 N2 1_555 1_555

#END
