
#######################################################################
#
#                 Cambridge Crystallographic Data Centre
#                                CCDC 
#
#######################################################################
#
# If this CIF has been generated from an entry in the Cambridge 
# Structural Database, then it will include bibliographic, chemical, 
# crystal, experimental, refinement or atomic coordinate data resulting 
# from the CCDC's data processing and validation procedures.
#
#######################################################################

data_RIPQUC
_chemical_formula_moiety         'C16 H12 N2 O1'
_chemical_name_systematic        4-(3-Hydroxyphenyl)-2,2'-bipyridine
_symmetry_cell_setting           monoclinic
_symmetry_space_group_name_H-M   'C 2/c'
_symmetry_Int_Tables_number      15
_space_group_name_Hall           '-C 2yn'
loop_
_symmetry_equiv_pos_site_id
_symmetry_equiv_pos_as_xyz
1 x,y,z
2 -x,y,1/2-z
3 1/2+x,1/2+y,z
4 1/2-x,1/2+y,1/2-z
5 -x,-y,-z
6 x,-y,1/2+z
7 1/2-x,1/2-y,-z
8 1/2+x,1/2-y,1/2+z
_cell_length_a                   17.142(4)
_cell_length_b                   7.9310(13)
_cell_length_c                   19.923(3)
_cell_angle_alpha                90
_cell_angle_beta                 113.712(12)
_cell_angle_gamma                90
_cell_volume                     2479.93
_exptl_crystal_colour            white
_cell_formula_units_Z            8
loop_
_atom_site_label
_atom_site_type_symbol
_atom_site_fract_x
_atom_site_fract_y
_atom_site_fract_z
N1 N 0.1949(1) 0.0569(1) 0.0018(1)
O1 O 0.1880(1) -0.1289(1) -0.3643(1)
N2 N 0.4020(1) -0.0722(2) 0.0144(1)
C1 C 0.2454(1) 0.0309(2) -0.0939(1)
C2 C 0.3356(1) -0.0637(2) 0.0340(1)
C3 C 0.1563(1) 0.1177(2) -0.2238(1)
C4 C 0.1804(1) -0.0113(2) -0.2587(1)
C5 C 0.2560(1) 0.0113(2) -0.0211(1)
C6 C 0.1082(1) 0.1480(2) -0.1209(1)
C7 C 0.1705(1) 0.0997(2) -0.1452(1)
C8 C 0.1077(1) 0.2798(2) -0.3353(1)
C9 C 0.1193(1) 0.2640(2) -0.2624(1)
C10 C 0.1666(1) 0.0044(2) -0.3325(1)
C11 C 0.4842(1) -0.2058(2) 0.1294(1)
C12 C 0.1307(1) 0.1506(2) -0.3704(1)
C13 C 0.4742(1) -0.1421(2) 0.0619(1)
C14 C 0.3406(1) -0.1241(2) 0.1012(1)
C15 C 0.1233(1) 0.1240(2) -0.0479(1)
C16 C 0.4156(1) -0.1961(2) 0.1491(1)
H1 H 0.1886(1) -0.0988(1) -0.4045(1)
H2 H 0.2895(1) -0.0029(2) -0.1085(1)
H3 H 0.2062(1) -0.1104(2) -0.2323(1)
H4 H 0.0563(1) 0.1966(2) -0.1538(1)
H5 H 0.0837(1) 0.3803(2) -0.3613(1)
H6 H 0.1022(1) 0.3523(2) -0.2390(1)
H7 H 0.5366(1) -0.2548(2) 0.1614(1)
H8 H 0.1219(1) 0.1622(2) -0.4204(1)
H9 H 0.5213(1) -0.1482(2) 0.0484(1)
H10 H 0.2929(1) -0.1160(2) 0.1139(1)
H11 H 0.0801(1) 0.1573(2) -0.0322(1)
H12 H 0.4201(1) -0.2386(2) 0.1951(1)
loop_
_geom_bond_atom_site_label_1
_geom_bond_atom_site_label_2
_geom_bond_site_symmetry_1
_geom_bond_site_symmetry_2
N1 C5 1_555 1_555
O1 C10 1_555 1_555
N2 C2 1_555 1_555
C1 C5 1_555 1_555
C2 C5 1_555 1_555
C3 C4 1_555 1_555
C4 C10 1_555 1_555
C6 C7 1_555 1_555
C7 C1 1_555 1_555
C8 C9 1_555 1_555
C9 C3 1_555 1_555
C10 C12 1_555 1_555
C11 C13 1_555 1_555
C12 C8 1_555 1_555
C13 N2 1_555 1_555
C14 C2 1_555 1_555
C15 N1 1_555 1_555
C16 C11 1_555 1_555
H1 O1 1_555 1_555
H2 C1 1_555 1_555
H3 C4 1_555 1_555
H4 C6 1_555 1_555
H5 C8 1_555 1_555
H6 C9 1_555 1_555
H7 C11 1_555 1_555
H8 C12 1_555 1_555
H9 C13 1_555 1_555
H10 C14 1_555 1_555
H11 C15 1_555 1_555
H12 C16 1_555 1_555
C3 C7 1_555 1_555
C6 C15 1_555 1_555
C14 C16 1_555 1_555

#END
