
#######################################################################
#
#                 Cambridge Crystallographic Data Centre
#                                CCDC 
#
#######################################################################
#
# If this CIF has been generated from an entry in the Cambridge 
# Structural Database, then it will include bibliographic, chemical, 
# crystal, experimental, refinement or atomic coordinate data resulting 
# from the CCDC's data processing and validation procedures.
#
#######################################################################

data_RIPWIX
_chemical_name_common            
2,3,6,7,14a-pentamethoxy-12,13-dihydrodibenzo[e,g]pyrido[2,1-a]isoindole-9,14(11H,14aH)-dione
_chemical_formula_moiety         'C25 H25 N1 O7'
_chemical_name_systematic        
2,3,6,7,14a-pentamethoxyphenanthro[9,10,3',4']-9,14-indolizidinedione
_symmetry_cell_setting           monoclinic
_symmetry_space_group_name_H-M   'P 21/c'
_symmetry_Int_Tables_number      14
_space_group_name_Hall           '-P 2ybc'
loop_
_symmetry_equiv_pos_site_id
_symmetry_equiv_pos_as_xyz
1 x,y,z
2 -x,1/2+y,1/2-z
3 -x,-y,-z
4 x,1/2-y,1/2+z
_cell_length_a                   8.037(2)
_cell_length_b                   9.317(2)
_cell_length_c                   31.679(7)
_cell_angle_alpha                90
_cell_angle_beta                 96.341(4)
_cell_angle_gamma                90
_cell_volume                     2357.63
_chemical_melting_point          '265 deg.C'
_cell_formula_units_Z            4
_exptl_crystal_recrystallization_method 'dichloromethane/diethyl ether'
loop_
_atom_site_label
_atom_site_type_symbol
_atom_site_fract_x
_atom_site_fract_y
_atom_site_fract_z
O1 O 0.2326(2) 0.5235(2) 0.16557(6)
O2 O 0.41659(19) 0.74460(15) 0.10604(5)
O3 O 0.3952(2) 0.35050(19) 0.01912(5)
O4 O 0.8850(2) -0.00836(18) 0.04029(6)
O5 O 1.1174(2) 0.03336(19) 0.10335(6)
O6 O 0.9470(2) 0.5281(2) 0.27567(5)
O7 O 0.6916(2) 0.69784(18) 0.26482(5)
N1 N 0.3279(2) 0.5383(2) 0.06290(6)
C1 C 0.1753(3) 0.5931(3) 0.03818(8)
H1 H 0.1537 0.5387 0.0120
H2 H 0.1915 0.6928 0.0308
C2 C 0.0251(4) 0.5808(3) 0.06365(9)
H3 H -0.0048 0.4805 0.0661
H4 H -0.0700 0.6302 0.0487
C3 C 0.0637(3) 0.6457(3) 0.10840(8)
H5 H 0.0752 0.7490 0.1061
H6 H -0.0286 0.6263 0.1249
C4 C 0.2242(3) 0.5831(3) 0.13115(8)
C5 C 0.3798(3) 0.5942(2) 0.10592(7)
C6 C 0.5294(3) 0.4978(2) 0.12090(7)
C7 C 0.5533(3) 0.3980(2) 0.08979(7)
C8 C 0.4211(3) 0.4204(3) 0.05247(7)
C9 C 0.5588(3) 0.7841(3) 0.08423(9)
H7 H 0.6601 0.7525 0.1005
H8 H 0.5617 0.8865 0.0810
H9 H 0.5491 0.7396 0.0567
C10 C 0.6383(3) 0.5072(2) 0.15998(6)
C11 C 0.6096(3) 0.6070(2) 0.19283(7)
H10 H 0.5210 0.6714 0.1885
C12 C 0.7111(3) 0.6089(2) 0.23055(7)
C13 C 0.8520(3) 0.5136(3) 0.23684(7)
C14 C 0.8832(3) 0.4173(2) 0.20523(7)
H11 H 0.9745 0.3557 0.2097
C15 C 0.7772(3) 0.4111(2) 0.16593(6)
C16 C 0.8077(3) 0.3081(2) 0.13199(7)
C17 C 0.9532(3) 0.2188(2) 0.13484(7)
H12 H 1.0332 0.2272 0.1583
C18 C 0.9774(3) 0.1198(2) 0.10331(7)
C19 C 0.8527(3) 0.1020(2) 0.06742(7)
C20 C 0.7154(3) 0.1917(2) 0.06274(7)
H13 H 0.6378 0.1834 0.0388
C21 C 0.6910(3) 0.2976(2) 0.09435(7)
C22 C 0.7696(4) -0.0290(3) 0.00259(8)
H14 H 0.6589 -0.0435 0.0105
H15 H 0.8027 -0.1116 -0.0126
H16 H 0.7705 0.0542 -0.0152
C23 C 1.2621(4) 0.0693(3) 0.13210(10)
H17 H 1.2910 0.1681 0.1283
H18 H 1.3542 0.0093 0.1265
H19 H 1.2380 0.0546 0.1608
C24 C 1.0867(6) 0.4334(5) 0.28464(12)
H20 H 1.0477 0.3360 0.2846
H21 H 1.1443 0.4560 0.3120
H22 H 1.1618 0.4447 0.2633
C25 C 0.5396(4) 0.7808(4) 0.26246(10)
H23 H 0.5363 0.8465 0.2390
H24 H 0.5364 0.8336 0.2884
H25 H 0.4449 0.7176 0.2584
loop_
_geom_bond_atom_site_label_1
_geom_bond_atom_site_label_2
_geom_bond_site_symmetry_1
_geom_bond_site_symmetry_2
O1 C4 1_555 1_555
O2 C5 1_555 1_555
O3 C8 1_555 1_555
O4 C19 1_555 1_555
O5 C18 1_555 1_555
O6 C13 1_555 1_555
O7 C12 1_555 1_555
N1 C1 1_555 1_555
C1 H1 1_555 1_555
H2 C1 1_555 1_555
C2 C1 1_555 1_555
H3 C2 1_555 1_555
H4 C2 1_555 1_555
C3 C2 1_555 1_555
H5 C3 1_555 1_555
H6 C3 1_555 1_555
C4 C3 1_555 1_555
C5 N1 1_555 1_555
C6 C5 1_555 1_555
C7 C6 1_555 1_555
C8 N1 1_555 1_555
C9 O2 1_555 1_555
H7 C9 1_555 1_555
H8 C9 1_555 1_555
H9 C9 1_555 1_555
C10 C6 1_555 1_555
C11 C10 1_555 1_555
H10 C11 1_555 1_555
C12 C11 1_555 1_555
C13 C12 1_555 1_555
C14 C13 1_555 1_555
H11 C14 1_555 1_555
C15 C10 1_555 1_555
C16 C15 1_555 1_555
C17 C16 1_555 1_555
H12 C17 1_555 1_555
C18 C17 1_555 1_555
C19 C18 1_555 1_555
C20 C19 1_555 1_555
H13 C20 1_555 1_555
C21 C7 1_555 1_555
C22 O4 1_555 1_555
H14 C22 1_555 1_555
H15 C22 1_555 1_555
H16 C22 1_555 1_555
C23 O5 1_555 1_555
H17 C23 1_555 1_555
H18 C23 1_555 1_555
H19 C23 1_555 1_555
C24 O6 1_555 1_555
H20 C24 1_555 1_555
H21 C24 1_555 1_555
H22 C24 1_555 1_555
C25 O7 1_555 1_555
H23 C25 1_555 1_555
H24 C25 1_555 1_555
H25 C25 1_555 1_555
C4 C5 1_555 1_555
C7 C8 1_555 1_555
C14 C15 1_555 1_555
C16 C21 1_555 1_555
C20 C21 1_555 1_555

#END
