
#######################################################################
#
#                 Cambridge Crystallographic Data Centre
#                                CCDC 
#
#######################################################################
#
# If this CIF has been generated from an entry in the Cambridge 
# Structural Database, then it will include bibliographic, chemical, 
# crystal, experimental, refinement or atomic coordinate data resulting 
# from the CCDC's data processing and validation procedures.
#
#######################################################################

data_RIPWOD
_chemical_formula_moiety         'C14 H13 N1 O3'
_chemical_name_systematic        
4-methyl-6-(2-nitrophenyl)cyclohexa-1,3-dienecarbaldehyde
_symmetry_cell_setting           orthorhombic
_symmetry_space_group_name_H-M   'P b c a'
_symmetry_Int_Tables_number      61
_space_group_name_Hall           '-P 2ac 2ab'
loop_
_symmetry_equiv_pos_site_id
_symmetry_equiv_pos_as_xyz
1 x,y,z
2 1/2-x,-y,1/2+z
3 -x,1/2+y,1/2-z
4 1/2+x,1/2-y,-z
5 -x,-y,-z
6 1/2+x,y,1/2-z
7 x,1/2-y,1/2+z
8 1/2-x,1/2+y,z
_cell_length_a                   8.4574(13)
_cell_length_b                   15.167(2)
_cell_length_c                   19.340(3)
_cell_angle_alpha                90
_cell_angle_beta                 90
_cell_angle_gamma                90
_cell_volume                     2480.81
_exptl_crystal_colour            brown
_exptl_crystal_description       rod
_cell_formula_units_Z            8
loop_
_atom_site_label
_atom_site_type_symbol
_atom_site_fract_x
_atom_site_fract_y
_atom_site_fract_z
O1 O 1.1609(4) 0.5279(3) 0.73293(17)
O2 O 0.9738(4) 0.4756(2) 0.67070(18)
O3 O 1.1107(4) 0.6375(2) 0.48324(16)
N1 N 1.0441(5) 0.5377(3) 0.69585(18)
C1 C 0.8931(4) 0.6494(2) 0.62702(19)
C2 C 0.8403(5) 0.7356(2) 0.6251(2)
H1 H 0.7765 0.7531 0.5884
C3 C 0.8779(6) 0.7968(3) 0.6752(2)
H2 H 0.8367 0.8535 0.6727
C4 C 0.9759(6) 0.7742(3) 0.7287(2)
H3 H 1.0049 0.8159 0.7616
C5 C 1.0303(6) 0.6898(3) 0.7331(2)
H4 H 1.0966 0.6736 0.7694
C6 C 0.9873(5) 0.6283(3) 0.68397(19)
C7 C 0.8474(4) 0.5853(2) 0.56941(19)
H5 H 0.9315 0.5411 0.5659
C8 C 0.6928(5) 0.5363(2) 0.5866(2)
H6 H 0.6953 0.4790 0.5644
H7 H 0.6883 0.5267 0.6361
C9 C 0.5449(5) 0.5831(3) 0.5646(2)
C10 C 0.5492(5) 0.6365(3) 0.5103(2)
H8 H 0.4563 0.6629 0.4951
C11 C 0.6939(6) 0.6539(3) 0.4748(2)
H9 H 0.6902 0.6827 0.4324
C12 C 0.8347(5) 0.6303(2) 0.50036(18)
C13 C 0.3975(5) 0.5614(3) 0.6036(2)
H10 H 0.3071 0.5805 0.5776
H11 H 0.3989 0.5909 0.6475
H12 H 0.3917 0.4989 0.6108
C14 C 0.9775(6) 0.6524(3) 0.4627(2)
H13 H 0.9665 0.6798 0.4200
loop_
_geom_bond_atom_site_label_1
_geom_bond_atom_site_label_2
_geom_bond_site_symmetry_1
_geom_bond_site_symmetry_2
O1 N1 1_555 1_555
O2 N1 1_555 1_555
O3 C14 1_555 1_555
N1 C6 1_555 1_555
C1 C2 1_555 1_555
C2 H1 1_555 1_555
C3 C2 1_555 1_555
H2 C3 1_555 1_555
C4 C3 1_555 1_555
H3 C4 1_555 1_555
C5 C4 1_555 1_555
H4 C5 1_555 1_555
C6 C1 1_555 1_555
C7 C1 1_555 1_555
H5 C7 1_555 1_555
C8 C7 1_555 1_555
H6 C8 1_555 1_555
H7 C8 1_555 1_555
C9 C8 1_555 1_555
C10 C9 1_555 1_555
H8 C10 1_555 1_555
C11 C10 1_555 1_555
H9 C11 1_555 1_555
C12 C7 1_555 1_555
C13 C9 1_555 1_555
H10 C13 1_555 1_555
H11 C13 1_555 1_555
H12 C13 1_555 1_555
C14 C12 1_555 1_555
H13 C14 1_555 1_555
C5 C6 1_555 1_555
C11 C12 1_555 1_555

#END
