
#######################################################################
#
#                 Cambridge Crystallographic Data Centre
#                                CCDC 
#
#######################################################################
#
# If this CIF has been generated from an entry in the Cambridge 
# Structural Database, then it will include bibliographic, chemical, 
# crystal, experimental, refinement or atomic coordinate data resulting 
# from the CCDC's data processing and validation procedures.
#
#######################################################################

data_RIPYUK
_chemical_formula_moiety         'C27 H36 F1 N3 O1'
_chemical_name_systematic        
(+)-4-((\aR)-\a-((2R,5S)-4-Allyl-2,5-dimethyl-1-piperazinyl)-3-fluorobenzyl)-N,N-diethylbenzamide
_chemical_properties_biological  'potent delta receptor agonistic activity'
_symmetry_cell_setting           monoclinic
_symmetry_space_group_name_H-M   'C 2'
_symmetry_Int_Tables_number      5
_space_group_name_Hall           'C 2y'
loop_
_symmetry_equiv_pos_site_id
_symmetry_equiv_pos_as_xyz
1 x,y,z
2 -x,y,-z
3 1/2+x,1/2+y,z
4 1/2-x,1/2+y,-z
_cell_length_a                   26.259(23)
_cell_length_b                   6.489(6)
_cell_length_c                   17.320(15)
_cell_angle_alpha                90
_cell_angle_beta                 120.94(6)
_cell_angle_gamma                90
_cell_volume                     2531.29
_exptl_crystal_colour            colorless
_chemical_melting_point          102-103deg.C
_cell_formula_units_Z            4
loop_
_atom_site_label
_atom_site_type_symbol
_atom_site_fract_x
_atom_site_fract_y
_atom_site_fract_z
N1 N 0.6868(3) 0.9439(13) 0.1623(5)
C1 C 0.6238(4) 0.9327(19) 0.1258(6)
C2 C 0.5931(5) 0.8912(23) 0.0229(7)
N2 N 0.6146(3) 0.7051(17) 0.0023(5)
C3 C 0.6776(4) 0.7317(19) 0.0370(6)
C4 C 0.7084(4) 0.7568(17) 0.1392(6)
C5 C 0.5794(5) 0.6687(37) -0.0948(7)
C6 C 0.5191(6) 0.5790(28) -0.1202(9)
C7 C 0.4745(7) 0.5845(32) -0.1910(12)
C8 C 0.5984(5) 1.1332(25) 0.1371(7)
C9 C 0.7230(4) 0.9923(18) 0.2602(6)
C10 C 0.7041(5) 0.5439(24) 0.0177(7)
C11 C 0.7215(4) 0.8191(16) 0.3200(6)
C12 C 0.6804(4) 0.8237(20) 0.3471(7)
C13 C 0.6764(4) 0.6658(24) 0.3952(7)
F1 F 0.6354(3) 0.6741(18) 0.4186(4)
C14 C 0.7132(5) 0.5004(22) 0.4212(6)
C15 C 0.7552(5) 0.4884(21) 0.3979(8)
C16 C 0.7588(4) 0.6480(19) 0.3462(6)
C17 C 0.7842(4) 1.0683(15) 0.2854(6)
C18 C 0.8333(4) 1.0527(16) 0.3716(6)
C19 C 0.8878(4) 1.1323(16) 0.3945(6)
C20 C 0.8958(4) 1.2341(15) 0.3319(6)
C21 C 0.8455(4) 1.2524(17) 0.2433(6)
C22 C 0.7923(4) 1.1721(17) 0.2227(6)
C23 C 0.9564(4) 1.2991(15) 0.3537(6)
O1 O 0.9963(3) 1.1663(13) 0.3849(5)
N3 N 0.9662(3) 1.4953(14) 0.3401(6)
C24 C 0.9242(5) 1.6663(19) 0.3166(8)
C25 C 0.8995(6) 1.7432(22) 0.2221(9)
C26 C 1.0245(5) 1.5514(21) 0.3560(9)
C27 C 1.0635(5) 1.6389(29) 0.4485(10)
H1 H 0.6149(4) 0.8201(19) 0.1547(6)
H2 H 0.5506(5) 0.8790(23) -0.0021(7)
H3 H 0.5998(5) 1.0079(23) -0.0057(7)
H4 H 0.6842(4) 0.8549(19) 0.0105(6)
H5 H 0.7006(4) 0.6367(17) 0.1648(6)
H6 H 0.7510(4) 0.7667(17) 0.1647(6)
H7 H 0.6002(5) 0.5737(37) -0.1122(7)
H8 H 0.5739(5) 0.7973(37) -0.1266(7)
H9 H 0.5171(6) 0.5117(28) -0.0744(9)
H10 H 0.4737(7) 0.6497(32) -0.2395(12)
H11 H 0.4402(7) 0.5236(32) -0.1983(12)
H12 H 0.6164(5) 1.1642(25) 0.2000(7)
H13 H 0.5563(5) 1.1192(25) 0.1108(7)
H14 H 0.6065(5) 1.2427(25) 0.1077(7)
H15 H 0.7034(4) 1.1105(18) 0.2692(6)
H16 H 0.6854(5) 0.5252(24) -0.0462(7)
H17 H 0.6976(5) 0.4239(24) 0.0440(7)
H18 H 0.7459(5) 0.5641(24) 0.0431(7)
H19 H 0.6552(4) 0.9363(20) 0.3322(7)
H20 H 0.7096(5) 0.3956(22) 0.4547(6)
H21 H 0.7811(5) 0.3769(21) 0.4159(8)
H22 H 0.7869(4) 0.6392(19) 0.3288(6)
H23 H 0.8292(4) 0.9859(16) 0.4156(6)
H24 H 0.9197(4) 1.1170(16) 0.4530(6)
H25 H 0.8493(4) 1.3199(17) 0.1991(6)
H26 H 0.7601(4) 1.1875(17) 0.1644(6)
H27 H 0.9441(5) 1.7792(19) 0.3582(8)
H28 H 0.8916(5) 1.6214(19) 0.3237(8)
H29 H 0.8724(6) 1.8545(22) 0.2106(9)
H30 H 0.8790(6) 1.6332(22) 0.1804(9)
H31 H 0.9314(6) 1.7910(22) 0.2148(9)
H32 H 1.0199(5) 1.6523(21) 0.3115(9)
H33 H 1.0433(5) 1.4303(21) 0.3488(9)
H34 H 1.1014(5) 1.6741(29) 0.4565(10)
H35 H 1.0687(5) 1.5385(29) 0.4927(10)
H36 H 1.0453(5) 1.7603(29) 0.4554(10)
loop_
_geom_bond_atom_site_label_1
_geom_bond_atom_site_label_2
_geom_bond_site_symmetry_1
_geom_bond_site_symmetry_2
N1 C1 1_555 1_555
C1 C2 1_555 1_555
C2 N2 1_555 1_555
N2 C3 1_555 1_555
C3 C4 1_555 1_555
C4 N1 1_555 1_555
C5 N2 1_555 1_555
C6 C5 1_555 1_555
C7 C6 1_555 1_555
C8 C1 1_555 1_555
C9 N1 1_555 1_555
C10 C3 1_555 1_555
C11 C9 1_555 1_555
C12 C11 1_555 1_555
C13 C12 1_555 1_555
F1 C13 1_555 1_555
C14 C13 1_555 1_555
C15 C14 1_555 1_555
C16 C11 1_555 1_555
C17 C9 1_555 1_555
C18 C17 1_555 1_555
C19 C18 1_555 1_555
C20 C19 1_555 1_555
C21 C20 1_555 1_555
C22 C17 1_555 1_555
C23 C20 1_555 1_555
O1 C23 1_555 1_555
N3 C23 1_555 1_555
C24 N3 1_555 1_555
C25 C24 1_555 1_555
C26 N3 1_555 1_555
C27 C26 1_555 1_555
H1 C1 1_555 1_555
H2 C2 1_555 1_555
H3 C2 1_555 1_555
H4 C3 1_555 1_555
H5 C4 1_555 1_555
H6 C4 1_555 1_555
H7 C5 1_555 1_555
H8 C5 1_555 1_555
H9 C6 1_555 1_555
H10 C7 1_555 1_555
H11 C7 1_555 1_555
H12 C8 1_555 1_555
H13 C8 1_555 1_555
H14 C8 1_555 1_555
H15 C9 1_555 1_555
H16 C10 1_555 1_555
H17 C10 1_555 1_555
H18 C10 1_555 1_555
H19 C12 1_555 1_555
H20 C14 1_555 1_555
H21 C15 1_555 1_555
H22 C16 1_555 1_555
H23 C18 1_555 1_555
H24 C19 1_555 1_555
H25 C21 1_555 1_555
H26 C22 1_555 1_555
H27 C24 1_555 1_555
H28 C24 1_555 1_555
H29 C25 1_555 1_555
H30 C25 1_555 1_555
H31 C25 1_555 1_555
H32 C26 1_555 1_555
H33 C26 1_555 1_555
H34 C27 1_555 1_555
H35 C27 1_555 1_555
H36 C27 1_555 1_555
C15 C16 1_555 1_555
C21 C22 1_555 1_555

#END
