
#######################################################################
#
#                 Cambridge Crystallographic Data Centre
#                                CCDC 
#
#######################################################################
#
# If this CIF has been generated from an entry in the Cambridge 
# Structural Database, then it will include bibliographic, chemical, 
# crystal, experimental, refinement or atomic coordinate data resulting 
# from the CCDC's data processing and validation procedures.
#
#######################################################################

data_RIPYOE
_chemical_formula_moiety         'C27 H37 N3 O1'
_chemical_name_systematic        
(-)-4-((\aR)-\a-((2R,5S)-4-Allyl-2,5-dimethyl-1-piperazinyl)benzyl)-N,N-diethylbenzamide
_chemical_properties_biological  
'micromolar agonistic activity against rat mu opiate receptors'
_symmetry_cell_setting           monoclinic
_symmetry_space_group_name_H-M   'C 2'
_symmetry_Int_Tables_number      5
_space_group_name_Hall           'C 2y'
loop_
_symmetry_equiv_pos_site_id
_symmetry_equiv_pos_as_xyz
1 x,y,z
2 -x,y,-z
3 1/2+x,1/2+y,z
4 1/2-x,1/2+y,-z
_cell_length_a                   25.277(4)
_cell_length_b                   6.442(1)
_cell_length_c                   17.307(3)
_cell_angle_alpha                90
_cell_angle_beta                 118.36(1)
_cell_angle_gamma                90
_cell_volume                     2479.94
_exptl_crystal_colour            colorless
_chemical_melting_point          146-147deg.C
_cell_formula_units_Z            4
loop_
_atom_site_label
_atom_site_type_symbol
_atom_site_fract_x
_atom_site_fract_y
_atom_site_fract_z
N1 N 0.8097(2) 0.3775 0.8292(4)
C1 C 0.8753(3) 0.3872(20) 0.8664(5)
C2 C 0.9027(4) 0.4294(23) 0.9648(5)
N2 N 0.8798(3) 0.6193(18) 0.9850(4)
C3 C 0.8153(3) 0.5953(20) 0.9508(5)
C4 C 0.7877(3) 0.5648(19) 0.8518(5)
C5 C 0.9128(4) 0.6648(32) 1.0792(6)
C6 C 0.9740(4) 0.7387(26) 1.1079(7)
C7 C 1.0181(5) 0.7171(30) 1.1800(8)
C8 C 0.9006(4) 0.1790(24) 0.8544(6)
C9 C 0.7769(3) 0.3330(20) 0.7338(5)
C10 C 0.7871(4) 0.7828(25) 0.9699(6)
C11 C 0.7797(3) 0.5044(19) 0.6762(5)
C12 C 0.8238(3) 0.4930(21) 0.6489(5)
C13 C 0.8313(4) 0.6518(24) 0.6020(6)
C14 C 0.7937(4) 0.8210(23) 0.5762(6)
C15 C 0.7494(4) 0.8319(19) 0.6011(5)
C16 C 0.7428(4) 0.6760(20) 0.6505(6)
C17 C 0.7133(3) 0.2544(18) 0.7098(5)
C18 C 0.6658(3) 0.2674(18) 0.6251(5)
C19 C 0.6097(3) 0.1878(19) 0.6043(5)
C20 C 0.5991(3) 0.0833(17) 0.6659(5)
C21 C 0.6479(4) 0.0667(19) 0.7504(5)
C22 C 0.7029(3) 0.1496(20) 0.7714(5)
C23 C 0.5370(4) 0.0148(20) 0.6440(5)
O1 O 0.4965(3) 0.1460(17) 0.6126(4)
N3 N 0.5280(3) -0.1803(16) 0.6605(5)
C24 C 0.5714(4) -0.3449(20) 0.6833(7)
C25 C 0.5935(5) -0.4277(23) 0.7750(7)
C26 C 0.4667(4) -0.2374(22) 0.6409(6)
C27 C 0.4298(5) -0.3188(27) 0.5493(7)
H1 H 0.8862(3) 0.4990(20) 0.8382(5)
H2 H 0.8943(4) 0.3126(23) 0.9927(5)
H3 H 0.9460(4) 0.4403(23) 0.9897(5)
H4 H 0.8076(3) 0.4717(20) 0.9769(5)
H5 H 0.7444(3) 0.5566(19) 0.8266(5)
H6 H 0.7971(3) 0.6841(19) 0.8264(5)
H7 H 0.8909(4) 0.7693(32) 1.0931(6)
H8 H 0.9145(4) 0.5400(32) 1.1117(6)
H9 H 0.9802(4) 0.8108(26) 1.0663(7)
H10 H 1.0147(5) 0.6463(30) 1.2242(8)
H11 H 1.0550(5) 0.7715(30) 1.1905(8)
H12 H 0.8840(4) 0.1489(24) 0.7930(6)
H13 H 0.8900(4) 0.0703(24) 0.8825(6)
H14 H 0.9436(4) 0.1882(24) 0.8804(6)
H15 H 0.7977(3) 0.2143(20) 0.7248(5)
H16 H 0.8046(4) 0.8017(25) 1.0322(6)
H17 H 0.7446(4) 0.7614(25) 0.9454(6)
H18 H 0.7944(4) 0.9041(25) 0.9440(6)
H19 H 0.8483(3) 0.3762(21) 0.6628(5)
H20 H 0.8623(4) 0.6447(24) 0.5874(6)
H21 H 0.7980(4) 0.9259(23) 0.5427(6)
H22 H 0.7238(4) 0.9457(19) 0.5845(5)
H23 H 0.7128(4) 0.6870(20) 0.6668(6)
H24 H 0.6717(3) 0.3309(18) 0.5815(5)
H25 H 0.5784(3) 0.2044(19) 0.5475(5)
H26 H 0.6428(4) -0.0030(19) 0.7935(5)
H27 H 0.7341(3) 0.1356(20) 0.8285(5)
H28 H 0.6055(4) -0.2943(20) 0.6777(7)
H29 H 0.5534(4) -0.4579(20) 0.6419(7)
H30 H 0.6222(5) -0.5364(23) 0.7860(7)
H31 H 0.5601(5) -0.4817(23) 0.7808(7)
H32 H 0.6122(5) -0.3177(23) 0.8167(7)
H33 H 0.4469(4) -0.1166(22) 0.6488(6)
H34 H 0.4687(4) -0.3425(22) 0.6824(6)
H35 H 0.3901(5) -0.3523(27) 0.5398(7)
H36 H 0.4484(5) -0.4412(27) 0.5415(7)
H37 H 0.4271(5) -0.2149(27) 0.5078(7)
loop_
_geom_bond_atom_site_label_1
_geom_bond_atom_site_label_2
_geom_bond_site_symmetry_1
_geom_bond_site_symmetry_2
N1 C1 1_555 1_555
C1 C2 1_555 1_555
C2 N2 1_555 1_555
N2 C3 1_555 1_555
C3 C4 1_555 1_555
C4 N1 1_555 1_555
C5 N2 1_555 1_555
C6 C5 1_555 1_555
C7 C6 1_555 1_555
C8 C1 1_555 1_555
C9 N1 1_555 1_555
C10 C3 1_555 1_555
C11 C9 1_555 1_555
C12 C11 1_555 1_555
C13 C12 1_555 1_555
C14 C13 1_555 1_555
C15 C14 1_555 1_555
C16 C11 1_555 1_555
C17 C9 1_555 1_555
C18 C17 1_555 1_555
C19 C18 1_555 1_555
C20 C19 1_555 1_555
C21 C20 1_555 1_555
C22 C17 1_555 1_555
C23 C20 1_555 1_555
O1 C23 1_555 1_555
N3 C23 1_555 1_555
C24 N3 1_555 1_555
C25 C24 1_555 1_555
C26 N3 1_555 1_555
C27 C26 1_555 1_555
H1 C1 1_555 1_555
H2 C2 1_555 1_555
H3 C2 1_555 1_555
H4 C3 1_555 1_555
H5 C4 1_555 1_555
H6 C4 1_555 1_555
H7 C5 1_555 1_555
H8 C5 1_555 1_555
H9 C6 1_555 1_555
H10 C7 1_555 1_555
H11 C7 1_555 1_555
H12 C8 1_555 1_555
H13 C8 1_555 1_555
H14 C8 1_555 1_555
H15 C9 1_555 1_555
H16 C10 1_555 1_555
H17 C10 1_555 1_555
H18 C10 1_555 1_555
H19 C12 1_555 1_555
H20 C13 1_555 1_555
H21 C14 1_555 1_555
H22 C15 1_555 1_555
H23 C16 1_555 1_555
H24 C18 1_555 1_555
H25 C19 1_555 1_555
H26 C21 1_555 1_555
H27 C22 1_555 1_555
H28 C24 1_555 1_555
H29 C24 1_555 1_555
H30 C25 1_555 1_555
H31 C25 1_555 1_555
H32 C25 1_555 1_555
H33 C26 1_555 1_555
H34 C26 1_555 1_555
H35 C27 1_555 1_555
H36 C27 1_555 1_555
H37 C27 1_555 1_555
C15 C16 1_555 1_555
C21 C22 1_555 1_555

#END
