
#######################################################################
#
#                 Cambridge Crystallographic Data Centre
#                                CCDC 
#
#######################################################################
#
# If this CIF has been generated from an entry in the Cambridge 
# Structural Database, then it will include bibliographic, chemical, 
# crystal, experimental, refinement or atomic coordinate data resulting 
# from the CCDC's data processing and validation procedures.
#
#######################################################################

data_RIPZAR
_chemical_formula_moiety         'C27 H39 N3 O1'
_chemical_name_systematic        
(+)-4-((\aR)-\a-((2S,5R)-4-Propyl-2,5-dimethyl-1-piperazinyl)benzyl)-N,N-diethylbenzamide
_symmetry_cell_setting           monoclinic
_symmetry_space_group_name_H-M   'C 2'
_symmetry_Int_Tables_number      5
_space_group_name_Hall           'C 2y'
loop_
_symmetry_equiv_pos_site_id
_symmetry_equiv_pos_as_xyz
1 x,y,z
2 -x,y,-z
3 1/2+x,1/2+y,z
4 1/2-x,1/2+y,-z
_cell_length_a                   25.364(3)
_cell_length_b                   6.455(1)
_cell_length_c                   17.509(2)
_cell_angle_alpha                90
_cell_angle_beta                 118.49(1)
_cell_angle_gamma                90
_cell_volume                     2519.5
_exptl_crystal_colour            colorless
_chemical_melting_point          146-147deg.C
_cell_formula_units_Z            4
loop_
_atom_site_label
_atom_site_type_symbol
_atom_site_fract_x
_atom_site_fract_y
_atom_site_fract_z
N1 N 0.1895(2) 0.5723(10) 0.1740(2)
C1 C 0.1241(2) 0.5770(12) 0.1360(3)
C2 C 0.1015(2) 0.7812(13) 0.1531(4)
C3 C 0.0973(2) 0.5466(12) 0.0385(3)
N2 N 0.1168(2) 0.3603(10) 0.0138(2)
C4 C 0.0792(6) 0.3320(40) -0.0810(3)
C5 C 0.0203(5) 0.2215(28) -0.1058(4)
C6 C -0.0206(4) 0.2179(24) -0.2034(4)
C10 C 0.1816(2) 0.3603(11) 0.0506(3)
C11 C 0.2062(3) 0.1655(14) 0.0306(4)
C12 C 0.2082(2) 0.3823(11) 0.1491(3)
C13 C 0.2235(2) 0.6168(11) 0.2686(3)
C14 C 0.2866(2) 0.6910(10) 0.2922(3)
C15 C 0.2966(2) 0.7929(11) 0.2311(3)
C16 C 0.3523(2) 0.8759(11) 0.2520(3)
C17 C 0.4002(2) 0.8592(10) 0.3359(3)
C18 C 0.4619(2) 0.9253(11) 0.3584(3)
O1 O 0.5035(1) 0.8003(10) 0.3902(2)
N3 N 0.4718(2) 1.1252(9) 0.3414(3)
C19 C 0.4276(2) 1.2911(11) 0.3182(4)
C20 C 0.4030(3) 1.3638(13) 0.2261(5)
C21 C 0.5319(2) 1.1845(12) 0.3607(4)
C22 C 0.5689(3) 1.2642(14) 0.4509(4)
C23 C 0.3904(2) 0.7555(10) 0.3973(3)
C24 C 0.3342(2) 0.6747(10) 0.3763(3)
C25 C 0.2198(2) 0.4428(11) 0.3250(3)
C26 C 0.2572(2) 0.2674(11) 0.3497(3)
C27 C 0.2502(2) 0.1125(12) 0.3986(3)
C28 C 0.2067(3) 0.1234(13) 0.4228(4)
C29 C 0.1691(2) 0.2942(14) 0.3993(4)
C30 C 0.1763(2) 0.4502(12) 0.3517(3)
H1 H 0.1112(2) 0.4632(12) 0.1604(3)
H2 H 0.1182(2) 0.8018(13) 0.2146(4)
H3 H 0.0585(2) 0.7775(13) 0.1269(4)
H4 H 0.1134(2) 0.8930(13) 0.1285(4)
H5 H 0.0539(2) 0.5435(12) 0.0131(3)
H6 H 0.1078(2) 0.6649(12) 0.0143(3)
H7 H 0.1017(6) 0.2531(40) -0.1029(3)
H8 H 0.0706(6) 0.4668(40) -0.1089(3)
H9 H 0.0287(5) 0.0803(28) -0.0843(4)
H10 H -0.0001(5) 0.2905(28) -0.0781(4)
H11 H -0.0572(4) 0.1470(24) -0.2160(4)
H12 H -0.0010(4) 0.1472(24) -0.2310(4)
H13 H -0.0297(4) 0.3574(24) -0.2248(4)
H21 H 0.1935(2) 0.4804(11) 0.0281(3)
H22 H 0.1896(3) 0.1510(14) -0.0312(4)
H23 H 0.1954(3) 0.0472(14) 0.0535(4)
H24 H 0.2491(3) 0.1750(14) 0.0569(4)
H25 H 0.1960(2) 0.2647(11) 0.1714(3)
H26 H 0.2516(2) 0.3804(11) 0.1755(3)
H27 H 0.2034(2) 0.7360(11) 0.2781(3)
H28 H 0.2653(2) 0.8062(11) 0.1747(3)
H29 H 0.3577(2) 0.9437(11) 0.2094(3)
H30 H 0.4461(2) 1.4076(11) 0.3570(4)
H31 H 0.3947(2) 1.2427(11) 0.3270(4)
H32 H 0.3744(3) 1.4723(13) 0.2150(5)
H33 H 0.3838(3) 1.2503(13) 0.1873(5)
H34 H 0.4352(3) 1.4154(13) 0.2172(5)
H35 H 0.5294(2) 1.2907(12) 0.3199(4)
H36 H 0.5519(2) 1.0654(12) 0.3523(4)
H37 H 0.6081(3) 1.3006(14) 0.4597(4)
H38 H 0.5724(3) 1.1589(14) 0.4918(4)
H39 H 0.5499(3) 1.3844(14) 0.4593(4)
H40 H 0.4218(2) 0.7397(10) 0.4535(3)
H41 H 0.3283(2) 0.6089(10) 0.4189(3)
H42 H 0.2868(2) 0.2556(11) 0.3330(3)
H43 H 0.2758(2) -0.0013(12) 0.4154(3)
H44 H 0.2021(3) 0.0166(13) 0.4548(4)
H45 H 0.1392(2) 0.3031(14) 0.4157(4)
H46 H 0.1511(2) 0.5649(12) 0.3367(3)
C7? C 0.0949(8) 0.3476(65) -0.0809(4)
C8? C 0.0270(8) 0.3481(27) -0.1361(12)
C9? C -0.0011(12) 0.1550(43) -0.1213(21)
H14? H 0.1105(8) 0.2219(65) -0.0931(4)
H15? H 0.1110(8) 0.4639(65) -0.0982(4)
H16? H 0.0108(8) 0.4696(27) -0.1222(12)
H17? H 0.0167(8) 0.3563(27) -0.1970(12)
H18? H -0.0439(12) 0.1607(43) -0.1571(21)
H19? H 0.0084(12) 0.1477(43) -0.0613(21)
H20? H 0.0143(12) 0.0345(43) -0.1361(21)
loop_
_geom_bond_atom_site_label_1
_geom_bond_atom_site_label_2
_geom_bond_site_symmetry_1
_geom_bond_site_symmetry_2
N1 C1 1_555 1_555
C1 C2 1_555 1_555
C2 H2 1_555 1_555
C3 C1 1_555 1_555
N2 C3 1_555 1_555
C4 N2 1_555 1_555
C5 C4 1_555 1_555
C6 C5 1_555 1_555
C10 N2 1_555 1_555
C11 C10 1_555 1_555
C12 N1 1_555 1_555
C13 N1 1_555 1_555
C14 C13 1_555 1_555
C15 C14 1_555 1_555
C16 C15 1_555 1_555
C17 C16 1_555 1_555
C18 C17 1_555 1_555
O1 C18 1_555 1_555
N3 C18 1_555 1_555
C19 N3 1_555 1_555
C20 C19 1_555 1_555
C21 N3 1_555 1_555
C22 C21 1_555 1_555
C23 C17 1_555 1_555
C24 C14 1_555 1_555
C25 C13 1_555 1_555
C26 C25 1_555 1_555
C27 C26 1_555 1_555
C28 C27 1_555 1_555
C29 C28 1_555 1_555
C30 C25 1_555 1_555
H1 C1 1_555 1_555
H3 C2 1_555 1_555
H4 C2 1_555 1_555
H5 C3 1_555 1_555
H6 C3 1_555 1_555
H7 C4 1_555 1_555
H8 C4 1_555 1_555
H9 C5 1_555 1_555
H10 C5 1_555 1_555
H11 C6 1_555 1_555
H12 C6 1_555 1_555
H13 C6 1_555 1_555
H21 C10 1_555 1_555
H22 C11 1_555 1_555
H23 C11 1_555 1_555
H24 C11 1_555 1_555
H25 C12 1_555 1_555
H26 C12 1_555 1_555
H27 C13 1_555 1_555
H28 C15 1_555 1_555
H29 C16 1_555 1_555
H30 C19 1_555 1_555
H31 C19 1_555 1_555
H32 C20 1_555 1_555
H33 C20 1_555 1_555
H34 C20 1_555 1_555
H35 C21 1_555 1_555
H36 C21 1_555 1_555
H37 C22 1_555 1_555
H38 C22 1_555 1_555
H39 C22 1_555 1_555
H40 C23 1_555 1_555
H41 C24 1_555 1_555
H42 C26 1_555 1_555
H43 C27 1_555 1_555
H44 C28 1_555 1_555
H45 C29 1_555 1_555
H46 C30 1_555 1_555
C10 C12 1_555 1_555
C23 C24 1_555 1_555
C29 C30 1_555 1_555

#END
