
#######################################################################
#
#                 Cambridge Crystallographic Data Centre
#                                CCDC 
#
#######################################################################
#
# If this CIF has been generated from an entry in the Cambridge 
# Structural Database, then it will include bibliographic, chemical, 
# crystal, experimental, refinement or atomic coordinate data resulting 
# from the CCDC's data processing and validation procedures.
#
#######################################################################

data_RIQFOP
_chemical_formula_moiety         'C16 H22 O6'
_chemical_name_systematic        
8a-hydroxy-5-methoxy-3a,6,10-trimethyl-3,3a,8a,8b-tetrahydro-2H-2,5-propanodifuro[3,2-b:2',3'-d]pyran-7(5H)-one
_symmetry_cell_setting           orthorhombic
_symmetry_space_group_name_H-M   'P 21 21 21'
_symmetry_Int_Tables_number      19
_space_group_name_Hall           'P 2ac 2ab'
loop_
_symmetry_equiv_pos_site_id
_symmetry_equiv_pos_as_xyz
1 x,y,z
2 1/2+x,1/2-y,-z
3 -x,1/2+y,1/2-z
4 1/2-x,-y,1/2+z
_cell_length_a                   7.2328(2)
_cell_length_b                   13.3909(4)
_cell_length_c                   14.9935(5)
_cell_angle_alpha                90
_cell_angle_beta                 90
_cell_angle_gamma                90
_cell_volume                     1452.18
_exptl_crystal_colour            colorless
_exptl_crystal_description       prism
_cell_formula_units_Z            4
loop_
_atom_site_label
_atom_site_type_symbol
_atom_site_fract_x
_atom_site_fract_y
_atom_site_fract_z
O1 O 0.70219(17) 0.47065(9) 0.30147(9)
O2 O 0.41023(17) 0.50396(9) 0.34400(8)
O3 O 0.95111(18) 0.66034(9) 0.24779(9)
O4 O 0.84322(19) 0.57179(10) 0.47034(9)
H1 H 0.944(4) 0.5812(19) 0.4921(16)
O5 O 0.86706(17) 0.73419(9) 0.42026(8)
O6 O 0.6915(2) 0.87005(10) 0.44500(9)
C1 C 0.3786(3) 0.76689(14) 0.34739(13)
H2 H 0.3024 0.7151 0.3195
H3 H 0.3967 0.8220 0.3053
H4 H 0.3164 0.7918 0.4010
C2 C 0.5615(3) 0.72400(13) 0.37230(11)
C3 C 0.6370(2) 0.63479(13) 0.35762(11)
C4 C 0.5667(3) 0.54758(13) 0.30343(12)
C5 C 0.8975(2) 0.48933(13) 0.28833(13)
C6 C 0.9458(3) 0.49544(14) 0.18934(13)
H5 H 1.0708 0.4679 0.1785
H6 H 0.8556 0.4570 0.1535
C7 C 0.4401(3) 0.47176(14) 0.43426(12)
H7 H 0.5446 0.4252 0.4361
H8 H 0.3287 0.4383 0.4564
H9 H 0.4674 0.5298 0.4718
C8 C 0.9393(3) 0.60579(14) 0.16428(12)
H10 H 1.0530 0.6212 0.1289
C9 C 0.9601(3) 0.59394(13) 0.32194(12)
H11 H 1.0895 0.5905 0.3453
C10 C 0.8304(3) 0.63142(13) 0.39409(12)
C11 C 0.7046(3) 0.78586(13) 0.41667(12)
C12 C 0.7724(3) 0.64065(15) 0.11010(13)
H12 H 0.7472 0.5891 0.0644
H13 H 0.8092 0.7021 0.0779
C13 C 0.5896(3) 0.66269(13) 0.15790(12)
H14 H 0.6112 0.7188 0.2006
C14 C 0.4502(3) 0.69825(15) 0.08754(13)
H15 H 0.5083 0.7487 0.0494
H16 H 0.3423 0.7273 0.1173
H17 H 0.4110 0.6414 0.0510
C15 C 0.4981(3) 0.57633(13) 0.20952(12)
H18 H 0.5078 0.5159 0.1717
H19 H 0.3649 0.5923 0.2147
C16 C 0.9899(3) 0.40173(14) 0.33439(14)
H20 H 0.9578 0.4022 0.3979
H21 H 1.1243 0.4072 0.3277
H22 H 0.9474 0.3392 0.3073
loop_
_geom_bond_atom_site_label_1
_geom_bond_atom_site_label_2
_geom_bond_site_symmetry_1
_geom_bond_site_symmetry_2
O1 C4 1_555 1_555
O2 C4 1_555 1_555
O3 C8 1_555 1_555
O4 H1 1_555 1_555
O5 C10 1_555 1_555
O6 C11 1_555 1_555
C1 H2 1_555 1_555
H3 C1 1_555 1_555
H4 C1 1_555 1_555
C2 C1 1_555 1_555
C3 C2 1_555 1_555
C4 C3 1_555 1_555
C5 O1 1_555 1_555
C6 C5 1_555 1_555
H5 C6 1_555 1_555
H6 C6 1_555 1_555
C7 O2 1_555 1_555
H7 C7 1_555 1_555
H8 C7 1_555 1_555
H9 C7 1_555 1_555
C8 C6 1_555 1_555
H10 C8 1_555 1_555
C9 O3 1_555 1_555
H11 C9 1_555 1_555
C10 O4 1_555 1_555
C11 O5 1_555 1_555
C12 C8 1_555 1_555
H12 C12 1_555 1_555
H13 C12 1_555 1_555
C13 C12 1_555 1_555
H14 C13 1_555 1_555
C14 C13 1_555 1_555
H15 C14 1_555 1_555
H16 C14 1_555 1_555
H17 C14 1_555 1_555
C15 C4 1_555 1_555
H18 C15 1_555 1_555
H19 C15 1_555 1_555
C16 C5 1_555 1_555
H20 C16 1_555 1_555
H21 C16 1_555 1_555
H22 C16 1_555 1_555
C2 C11 1_555 1_555
C3 C10 1_555 1_555
C5 C9 1_555 1_555
C9 C10 1_555 1_555
C13 C15 1_555 1_555

#END
