
#######################################################################
#
#                 Cambridge Crystallographic Data Centre
#                                CCDC 
#
#######################################################################
#
# If this CIF has been generated from an entry in the Cambridge 
# Structural Database, then it will include bibliographic, chemical, 
# crystal, experimental, refinement or atomic coordinate data resulting 
# from the CCDC's data processing and validation procedures.
#
#######################################################################

data_RIQJOS
_chemical_formula_moiety         'C25 H25 N1 O3'
_chemical_name_systematic        
'Methyl 1-benzyl-3-hydroxy-3-methyl-2-(4-methylphenyl)indoline-2-carboxylate'
_symmetry_cell_setting           monoclinic
_symmetry_space_group_name_H-M   'P 21/c'
_symmetry_Int_Tables_number      14
_space_group_name_Hall           '-P 2ybc'
loop_
_symmetry_equiv_pos_site_id
_symmetry_equiv_pos_as_xyz
1 x,y,z
2 -x,1/2+y,1/2-z
3 -x,-y,-z
4 x,1/2-y,1/2+z
_cell_length_a                   10.0938(5)
_cell_length_b                   19.9876(10)
_cell_length_c                   11.2239(6)
_cell_angle_alpha                90
_cell_angle_beta                 115.150(2)
_cell_angle_gamma                90
_cell_volume                     2049.76
_exptl_crystal_colour            colorless
_exptl_crystal_description       block
_cell_formula_units_Z            4
loop_
_atom_site_label
_atom_site_type_symbol
_atom_site_fract_x
_atom_site_fract_y
_atom_site_fract_z
O1 O 0.3831(2) 0.53552(10) 0.8917(2)
H1 H 0.4581 0.5201 0.9495
O2 O 0.4809(3) 0.56441(13) 0.6428(3)
O3 O 0.6360(3) 0.56945(12) 0.8529(3)
N1 N 0.2746(2) 0.63987(11) 0.6756(2)
C1 C 0.2295(3) 0.62972(13) 0.8581(3)
C2 C 0.1446(4) 0.63184(18) 0.9266(3)
H2 H 0.1842 0.6214 1.0158
C3 C -0.0018(4) 0.64997(19) 0.8598(4)
H3 H -0.0610 0.6515 0.9045
C4 C -0.0593(3) 0.66547(17) 0.7289(4)
H4 H -0.1576 0.6770 0.6857
C5 C 0.0255(3) 0.66434(14) 0.6595(3)
H5 H -0.0139 0.6759 0.5708
C6 C 0.1703(3) 0.64566(12) 0.7252(3)
C7 C 0.1443(3) 0.63182(14) 0.4331(3)
C8 C 0.1239(4) 0.56425(16) 0.4358(3)
H6 H 0.1757 0.5404 0.5129
C9 C 0.0260(4) 0.53075(19) 0.3239(4)
H7 H 0.0127 0.4849 0.3271
C10 C -0.0495(4) 0.5645(3) 0.2108(4)
H8 H -0.1137 0.5421 0.1359
C11 C -0.0303(4) 0.6328(2) 0.2079(4)
H9 H -0.0832 0.6564 0.1308
C12 C 0.0650(4) 0.66602(19) 0.3163(3)
H10 H 0.0772 0.7120 0.3123
C13 C 0.4938(3) 0.70583(13) 0.8145(3)
C14 C 0.4211(4) 0.75986(15) 0.8347(4)
H11 H 0.3278 0.7540 0.8305
C15 C 0.4846(4) 0.82299(15) 0.8612(3)
H12 H 0.4333 0.8583 0.8756
C16 C 0.6214(3) 0.83455(15) 0.8666(3)
C17 C 0.6912(3) 0.78076(17) 0.8426(4)
H13 H 0.7828 0.7870 0.8432
C18 C 0.6295(3) 0.71803(16) 0.8175(4)
H14 H 0.6808 0.6829 0.8023
C19 C 0.4209(3) 0.63632(13) 0.7855(3)
C20 C 0.3859(3) 0.60759(14) 0.9013(3)
C21 C 0.2502(3) 0.67061(14) 0.5510(3)
H15 H 0.3431 0.6744 0.5452
H16 H 0.2125 0.7155 0.5484
C22 C 0.4913(4) 0.62835(19) 1.0372(3)
H17 H 0.4625 0.6087 1.1006
H18 H 0.4910 0.6762 1.0442
H19 H 0.5880 0.6134 1.0537
C23 C 0.6891(4) 0.90312(17) 0.8930(4)
H20 H 0.7842 0.9011 0.8930
H21 H 0.6984 0.9186 0.9772
H22 H 0.6281 0.9334 0.8257
C24 C 0.5141(4) 0.58599(16) 0.7516(5)
C25 C 0.7222(5) 0.5208(3) 0.8142(6)
H23 H 0.8102 0.5094 0.8900
H24 H 0.7471 0.5405 0.7484
H25 H 0.6651 0.4812 0.7794
loop_
_geom_bond_atom_site_label_1
_geom_bond_atom_site_label_2
_geom_bond_site_symmetry_1
_geom_bond_site_symmetry_2
O1 H1 1_555 1_555
O2 C24 1_555 1_555
O3 C24 1_555 1_555
N1 C6 1_555 1_555
C1 C2 1_555 1_555
C2 H2 1_555 1_555
C3 C2 1_555 1_555
H3 C3 1_555 1_555
C4 C3 1_555 1_555
H4 C4 1_555 1_555
C5 C4 1_555 1_555
H5 C5 1_555 1_555
C6 C1 1_555 1_555
C7 C8 1_555 1_555
C8 H6 1_555 1_555
C9 C8 1_555 1_555
H7 C9 1_555 1_555
C10 C9 1_555 1_555
H8 C10 1_555 1_555
C11 C10 1_555 1_555
H9 C11 1_555 1_555
C12 C7 1_555 1_555
H10 C12 1_555 1_555
C13 C14 1_555 1_555
C14 H11 1_555 1_555
C15 C14 1_555 1_555
H12 C15 1_555 1_555
C16 C15 1_555 1_555
C17 C16 1_555 1_555
H13 C17 1_555 1_555
C18 C13 1_555 1_555
H14 C18 1_555 1_555
C19 N1 1_555 1_555
C20 O1 1_555 1_555
C21 N1 1_555 1_555
H15 C21 1_555 1_555
H16 C21 1_555 1_555
C22 C20 1_555 1_555
H17 C22 1_555 1_555
H18 C22 1_555 1_555
H19 C22 1_555 1_555
C23 C16 1_555 1_555
H20 C23 1_555 1_555
H21 C23 1_555 1_555
H22 C23 1_555 1_555
C24 C19 1_555 1_555
C25 O3 1_555 1_555
H23 C25 1_555 1_555
H24 C25 1_555 1_555
H25 C25 1_555 1_555
C1 C20 1_555 1_555
C5 C6 1_555 1_555
C7 C21 1_555 1_555
C11 C12 1_555 1_555
C13 C19 1_555 1_555
C17 C18 1_555 1_555
C19 C20 1_555 1_555

#END
