
#######################################################################
#
#                 Cambridge Crystallographic Data Centre
#                                CCDC 
#
#######################################################################
#
# If this CIF has been generated from an entry in the Cambridge 
# Structural Database, then it will include bibliographic, chemical, 
# crystal, experimental, refinement or atomic coordinate data resulting 
# from the CCDC's data processing and validation procedures.
#
#######################################################################

data_RIQMIO
_chemical_formula_moiety         'C8 H10 O3'
_chemical_name_systematic        
2,2-Dimethyl-3a,6a-dihydro-4H-cyclopenta(d)(1,3)dioxol-4-one
_symmetry_cell_setting           monoclinic
_symmetry_space_group_name_H-M   'P 21'
_symmetry_Int_Tables_number      4
_space_group_name_Hall           'P 2yb'
loop_
_symmetry_equiv_pos_site_id
_symmetry_equiv_pos_as_xyz
1 x,y,z
2 -x,1/2+y,-z
_cell_length_a                   6.0712(9)
_cell_length_b                   7.5084(13)
_cell_length_c                   8.624(2)
_cell_angle_alpha                90
_cell_angle_beta                 101.599(7)
_cell_angle_gamma                90
_cell_volume                     385.097
_exptl_crystal_colour            colorless
_exptl_crystal_description       needle
_cell_formula_units_Z            2
loop_
_atom_site_label
_atom_site_type_symbol
_atom_site_fract_x
_atom_site_fract_y
_atom_site_fract_z
O1 O -0.7033(4) -0.3473(3) -0.1569(2)
O2 O -0.8822(3) -0.1736(3) -0.3572(2)
O3 O -0.8253(3) -0.3043(3) -0.6749(2)
C1 C -0.6123(5) -0.5600(4) -0.3433(3)
C2 C -0.7973(5) -0.4699(4) -0.2785(3)
C3 C -0.9176(4) -0.3517(4) -0.4146(3)
C4 C -0.7881(4) -0.3810(4) -0.5490(3)
C5 C -0.6089(5) -0.5117(4) -0.4907(4)
C6 C -0.8292(4) -0.1861(4) -0.1871(3)
C7 C -0.6830(5) -0.0307(5) -0.1238(4)
C8 C -1.0445(5) -0.1978(5) -0.1211(4)
H1 H -1.153(7) -0.289(7) -0.175(5)
H2 H -0.515(6) -0.644(6) -0.279(5)
H3 H -1.072(6) -0.380(5) -0.448(4)
H4 H -1.120(7) -0.078(7) -0.138(5)
H5 H -1.004(7) -0.225(7) -0.015(6)
H6 H -0.506(6) -0.560(6) -0.551(4)
H7 H -0.900(7) -0.555(7) -0.235(5)
H8 H -0.531(6) -0.038(6) -0.164(4)
H9 H -0.758(7) 0.088(6) -0.146(5)
H10 H -0.641(6) -0.039(6) -0.009(5)
loop_
_geom_bond_atom_site_label_1
_geom_bond_atom_site_label_2
_geom_bond_site_symmetry_1
_geom_bond_site_symmetry_2
O1 C2 1_555 1_555
O2 C3 1_555 1_555
O3 C4 1_555 1_555
C1 C2 1_555 1_555
C2 C3 1_555 1_555
C3 C4 1_555 1_555
C4 C5 1_555 1_555
C5 C1 1_555 1_555
C6 O1 1_555 1_555
C7 C6 1_555 1_555
C8 C6 1_555 1_555
H1 C8 1_555 1_555
H2 C1 1_555 1_555
H3 C3 1_555 1_555
H4 C8 1_555 1_555
H5 C8 1_555 1_555
H6 C5 1_555 1_555
H7 C2 1_555 1_555
H8 C7 1_555 1_555
H9 C7 1_555 1_555
H10 C7 1_555 1_555
O2 C6 1_555 1_555

#END
