
#######################################################################
#
#                 Cambridge Crystallographic Data Centre
#                                CCDC 
#
#######################################################################
#
# If this CIF has been generated from an entry in the Cambridge 
# Structural Database, then it will include bibliographic, chemical, 
# crystal, experimental, refinement or atomic coordinate data resulting 
# from the CCDC's data processing and validation procedures.
#
#######################################################################

data_RIQMEK
_chemical_formula_moiety         'C19 H33 N5 O3 Si1'
_chemical_name_systematic        
(-)-9-(2-Deoxy-3-O-(tri-isopropylsilyl)-\b-D-threo-pentofuranosyl)-9H-purin-6-amine
_symmetry_cell_setting           orthorhombic
_symmetry_space_group_name_H-M   'P 21 2 21'
_symmetry_Int_Tables_number      18
_space_group_name_Hall           'P 2ac 2ac'
loop_
_symmetry_equiv_pos_site_id
_symmetry_equiv_pos_as_xyz
1 x,y,z
2 1/2-x,-y,1/2+z
3 1/2+x,-y,1/2-z
4 -x,y,-z
_cell_length_a                   8.0636(2)
_cell_length_b                   9.4909(2)
_cell_length_c                   30.1692(5)
_cell_angle_alpha                90
_cell_angle_beta                 90
_cell_angle_gamma                90
_cell_volume                     2308.87
_exptl_crystal_colour            colorless
_exptl_crystal_description       needle
_chemical_melting_point          224deg.C
_cell_formula_units_Z            4
loop_
_atom_site_label
_atom_site_type_symbol
_atom_site_fract_x
_atom_site_fract_y
_atom_site_fract_z
Si1 Si 0.1104(2) -0.05198(12) -0.12818(4)
O1 O 0.1746(3) -0.4930(2) -0.18867(6)
O2 O 0.5192(3) -0.4447(4) -0.21296(7)
O3 O 0.1453(4) -0.2047(2) -0.15286(7)
N1 N -0.2758(4) -0.5835(4) -0.00051(8)
N2 N -0.0321(3) -0.5053(3) -0.13552(7)
N3 N -0.3274(4) -0.5619(4) -0.13734(8)
N4 N -0.4370(3) -0.6025(4) -0.06398(8)
N5 N 0.0111(3) -0.5203(4) -0.06238(7)
C1 C 0.2377(4) -0.3648(4) -0.20880(9)
C2 C 0.1123(5) -0.2523(4) -0.19650(9)
C3 C -0.0469(4) -0.3342(4) -0.19897(10)
C4 C 0.0021(4) -0.4826(4) -0.18305(8)
C5 C 0.4140(5) -0.3422(5) -0.19456(10)
C6 C -0.1812(4) -0.5382(3) -0.11683(9)
C7 C -0.4452(4) -0.5945(5) -0.10807(10)
C8 C -0.2881(4) -0.5777(4) -0.04433(9)
C9 C -0.1528(4) -0.5461(4) -0.07186(9)
C10 C 0.0769(4) -0.4946(4) -0.10100(9)
C11 C -0.1099(12) -0.0486(9) -0.1102(4)
C12 C -0.1654(18) 0.0939(10) -0.0893(6)
C13 C -0.1651(13) -0.1644(10) -0.0822(4)
C14 C 0.2638(13) -0.0546(7) -0.0812(2)
C15 C 0.3185(14) -0.1720(10) -0.0611(3)
C16 C 0.2602(18) 0.0827(9) -0.0542(3)
C17 C 0.1582(15) 0.1019(6) -0.16482(19)
C18 C 0.028(2) 0.1236(9) -0.2019(2)
C19 C 0.3436(18) 0.0978(10) -0.1824(3)
H1 H 0.6149 -0.4297 -0.2051
H2 H -0.1713 -0.5664 0.0138
H3 H -0.3725 -0.6036 0.0170
H4 H 0.2430 -0.3746 -0.2404
H5 H 0.1211 -0.1762 -0.2173
H6 H -0.1266 -0.2909 -0.1797
H7 H -0.0887 -0.3341 -0.2288
H8 H -0.0569 -0.5515 -0.2002
H9 H 0.4498 -0.2509 -0.2044
H10 H 0.4205 -0.3468 -0.1628
H11 H -0.5558 -0.6138 -0.1181
H12 H 0.1901 -0.4700 -0.1072
H13 H -0.1703 -0.0624 -0.1373
H14 H -0.1249 0.0851 -0.0595
H15 H -0.1252 0.1873 -0.1064
H16 H -0.2958 0.1147 -0.0965
H17 H -0.2756 -0.1627 -0.0704
H18 H -0.0874 -0.1414 -0.0592
H19 H -0.1411 -0.2567 -0.0935
H20 H 0.3512 -0.0234 -0.1005
H21 H 0.3998 -0.1507 -0.0389
H22 H 0.3652 -0.2357 -0.0825
H23 H 0.2236 -0.2149 -0.0475
H24 H 0.3416 0.0798 -0.0310
H25 H 0.1520 0.0945 -0.0415
H26 H 0.2835 0.1602 -0.0737
H27 H 0.1489 0.1797 -0.1447
H28 H 0.0677 0.2053 -0.2175
H29 H -0.0842 0.1387 -0.1927
H30 H 0.0335 0.0431 -0.2211
H31 H 0.3648 0.1777 -0.2011
H32 H 0.3653 0.0127 -0.1986
H33 H 0.4146 0.1018 -0.1569
loop_
_geom_bond_atom_site_label_1
_geom_bond_atom_site_label_2
_geom_bond_site_symmetry_1
_geom_bond_site_symmetry_2
Si1 O3 1_555 1_555
O1 C1 1_555 1_555
O2 C5 1_555 1_555
O3 C2 1_555 1_555
N1 C8 1_555 1_555
N2 C4 1_555 1_555
N3 C6 1_555 1_555
N4 C7 1_555 1_555
N5 C9 1_555 1_555
C1 C2 1_555 1_555
C2 C3 1_555 1_555
C3 C4 1_555 1_555
C4 O1 1_555 1_555
C5 C1 1_555 1_555
C6 N2 1_555 1_555
C7 N3 1_555 1_555
C8 N4 1_555 1_555
C9 C6 1_555 1_555
C10 N2 1_555 1_555
C11 Si1 1_555 1_555
C12 C11 1_555 1_555
C13 C11 1_555 1_555
C14 Si1 1_555 1_555
C15 C14 1_555 1_555
C16 C14 1_555 1_555
C17 Si1 1_555 1_555
C18 C17 1_555 1_555
C19 C17 1_555 1_555
H1 O2 1_555 1_555
H2 N1 1_555 1_555
H3 N1 1_555 1_555
H4 C1 1_555 1_555
H5 C2 1_555 1_555
H6 C3 1_555 1_555
H7 C3 1_555 1_555
H8 C4 1_555 1_555
H9 C5 1_555 1_555
H10 C5 1_555 1_555
H11 C7 1_555 1_555
H12 C10 1_555 1_555
H13 C11 1_555 1_555
H14 C12 1_555 1_555
H15 C12 1_555 1_555
H16 C12 1_555 1_555
H17 C13 1_555 1_555
H18 C13 1_555 1_555
H19 C13 1_555 1_555
H20 C14 1_555 1_555
H21 C15 1_555 1_555
H22 C15 1_555 1_555
H23 C15 1_555 1_555
H24 C16 1_555 1_555
H25 C16 1_555 1_555
H26 C16 1_555 1_555
H27 C17 1_555 1_555
H28 C18 1_555 1_555
H29 C18 1_555 1_555
H30 C18 1_555 1_555
H31 C19 1_555 1_555
H32 C19 1_555 1_555
H33 C19 1_555 1_555
N5 C10 1_555 1_555
C8 C9 1_555 1_555

#END
