
#######################################################################
#
#                 Cambridge Crystallographic Data Centre
#                                CCDC 
#
#######################################################################
#
# If this CIF has been generated from an entry in the Cambridge 
# Structural Database, then it will include bibliographic, chemical, 
# crystal, experimental, refinement or atomic coordinate data resulting 
# from the CCDC's data processing and validation procedures.
#
#######################################################################

data_RIQTIW
_chemical_formula_moiety         'C19 H14 F1 N1 O3'
_chemical_name_systematic        
1-Benzyl-7-fluorospiro[indole-3,2'-pyran]-2,4'(1H,3'H)-dione
_symmetry_cell_setting           hexagonal
_symmetry_space_group_name_H-M   'P 65'
_symmetry_Int_Tables_number      170
_space_group_name_Hall           'P 65'
loop_
_symmetry_equiv_pos_site_id
_symmetry_equiv_pos_as_xyz
1 x,y,z
2 x-y,x,5/6+z
3 y,-x+y,1/6+z
4 -y,x-y,2/3+z
5 -x+y,-x,1/3+z
6 -x,-y,1/2+z
_cell_length_a                   9.17470(10)
_cell_length_b                   9.17470(10)
_cell_length_c                   63.0061(8)
_cell_angle_alpha                90
_cell_angle_beta                 90
_cell_angle_gamma                120
_cell_volume                     4593.01
_exptl_crystal_colour            colorless
_exptl_crystal_description       block
_cell_formula_units_Z            12
loop_
_atom_site_label
_atom_site_type_symbol
_atom_site_fract_x
_atom_site_fract_y
_atom_site_fract_z
F1 F 0.7870(3) 0.7451(3) 0.08940(4)
N1 N 0.6239(4) 0.3842(4) 0.07755(4)
O1 O 0.4676(4) 0.1009(4) 0.06997(5)
O2 O 0.7668(4) 0.1948(4) 0.04580(4)
O3 O 1.0730(4) 0.1490(4) 0.08862(4)
C1 C 0.6013(5) 0.2315(5) 0.07184(5)
C2 C 0.7753(4) 0.2491(4) 0.06765(5)
C3 C 0.8931(4) 0.4362(4) 0.07050(4)
C4 C 1.0674(4) 0.5335(4) 0.06925(5)
H1 H 1.1325 0.4850 0.0647
C5 C 1.1447(5) 0.7017(5) 0.07473(5)
H2 H 1.2639 0.7688 0.0742
C6 C 1.0489(5) 0.7736(4) 0.08105(5)
H3 H 1.1020 0.8901 0.0844
C7 C 0.8770(5) 0.6744(4) 0.08235(5)
C8 C 0.7972(4) 0.5065(4) 0.07689(4)
C9 C 0.4836(5) 0.4177(5) 0.07906(5)
H4 H 0.5039 0.4956 0.0910
H5 H 0.3781 0.3111 0.0820
C10 C 0.4645(4) 0.4947(5) 0.05862(5)
C11 C 0.5009(5) 0.6599(5) 0.05790(6)
H6 H 0.5364 0.7271 0.0704
C12 C 0.4855(6) 0.7276(7) 0.03897(9)
H7 H 0.5111 0.8415 0.0386
C13 C 0.4340(6) 0.6332(8) 0.02079(7)
H8 H 0.4257 0.6819 0.0079
C14 C 0.3939(6) 0.4658(7) 0.02137(7)
H9 H 0.3555 0.3986 0.0089
C15 C 0.4103(5) 0.3973(6) 0.04020(6)
H10 H 0.3844 0.2833 0.0406
C16 C 0.8110(4) 0.1423(4) 0.08300(5)
H11 H 0.8263 0.1891 0.0975
H12 H 0.7143 0.0259 0.0832
C17 C 0.9692(5) 0.1404(4) 0.07618(5)
C18 C 0.9798(5) 0.1277(6) 0.05336(6)
H13 H 1.0608 0.1028 0.0477
C19 C 0.8803(6) 0.1497(6) 0.04027(6)
H14 H 0.8896 0.1322 0.0256
F2 F 0.2546(3) -0.0556(3) 0.12299(3)
N2 N 0.0926(4) 0.1444(4) 0.13527(4)
O4 O -0.0642(4) 0.2738(4) 0.14080(5)
O5 O 0.2504(4) 0.5033(4) 0.16163(4)
O6 O 0.5137(4) 0.8148(4) 0.11266(5)
C20 C 0.0695(5) 0.2775(5) 0.13915(5)
C21 C 0.2430(4) 0.4362(4) 0.14060(5)
C22 C 0.3626(5) 0.3699(5) 0.13805(5)
C23 C 0.5370(4) 0.4501(4) 0.13799(5)
H15 H 0.6023 0.5667 0.1412
C24 C 0.6148(5) 0.3574(5) 0.13318(6)
H16 H 0.7341 0.4102 0.1334
C25 C 0.5183(5) 0.1867(5) 0.12800(5)
H17 H 0.5722 0.1248 0.1243
C26 C 0.3469(5) 0.1090(4) 0.12827(5)
C27 C 0.2651(4) 0.1974(4) 0.13376(4)
C28 C -0.0489(4) -0.0285(5) 0.13300(5)
H18 H -0.0273 -0.0837 0.1209
H19 H -0.1532 -0.0254 0.1300
C29 C -0.0729(4) -0.1298(4) 0.15295(6)
C30 C -0.1409(5) -0.0982(5) 0.17093(6)
H20 H -0.1697 -0.0121 0.1708
C31 C -0.1665(6) -0.1955(6) 0.18932(6)
H21 H -0.2146 -0.1758 0.2016
C32 C -0.1227(7) -0.3182(6) 0.18979(7)
H22 H -0.1385 -0.3817 0.2024
C33 C -0.0561(6) -0.3483(6) 0.17201(8)
H23 H -0.0257 -0.4332 0.1722
C34 C -0.0327(5) -0.2556(5) 0.15362(7)
H24 H 0.0116 -0.2793 0.1413
C35 C 0.2646(5) 0.5631(4) 0.12339(5)
H25 H 0.2701 0.5183 0.1093
H26 H 0.1660 0.5798 0.1235
C36 C 0.4243(5) 0.7311(5) 0.12708(5)
C37 C 0.4546(5) 0.7788(5) 0.14936(6)
H27 H 0.5381 0.8899 0.1532
C38 C 0.3652(5) 0.6668(5) 0.16461(6)
H28 H 0.3849 0.7068 0.1788
loop_
_geom_bond_atom_site_label_1
_geom_bond_atom_site_label_2
_geom_bond_site_symmetry_1
_geom_bond_site_symmetry_2
F1 C7 1_555 1_555
N1 C1 1_555 1_555
O1 C1 1_555 1_555
O2 C2 1_555 1_555
O3 C17 1_555 1_555
C1 C2 1_555 1_555
C2 C3 1_555 1_555
C3 C4 1_555 1_555
C4 H1 1_555 1_555
C5 C4 1_555 1_555
H2 C5 1_555 1_555
C6 C5 1_555 1_555
H3 C6 1_555 1_555
C7 C6 1_555 1_555
C8 N1 1_555 1_555
C9 N1 1_555 1_555
H4 C9 1_555 1_555
H5 C9 1_555 1_555
C10 C9 1_555 1_555
C11 C10 1_555 1_555
H6 C11 1_555 1_555
C12 C11 1_555 1_555
H7 C12 1_555 1_555
C13 C12 1_555 1_555
H8 C13 1_555 1_555
C14 C13 1_555 1_555
H9 C14 1_555 1_555
C15 C10 1_555 1_555
H10 C15 1_555 1_555
C16 C2 1_555 1_555
H11 C16 1_555 1_555
H12 C16 1_555 1_555
C17 C16 1_555 1_555
C18 C17 1_555 1_555
H13 C18 1_555 1_555
C19 O2 1_555 1_555
H14 C19 1_555 1_555
F2 C26 1_555 1_555
N2 C20 1_555 1_555
O4 C20 1_555 1_555
O5 C21 1_555 1_555
O6 C36 1_555 1_555
C20 C21 1_555 1_555
C21 C22 1_555 1_555
C22 C23 1_555 1_555
C23 H15 1_555 1_555
C24 C23 1_555 1_555
H16 C24 1_555 1_555
C25 C24 1_555 1_555
H17 C25 1_555 1_555
C26 C25 1_555 1_555
C27 N2 1_555 1_555
C28 N2 1_555 1_555
H18 C28 1_555 1_555
H19 C28 1_555 1_555
C29 C28 1_555 1_555
C30 C29 1_555 1_555
H20 C30 1_555 1_555
C31 C30 1_555 1_555
H21 C31 1_555 1_555
C32 C31 1_555 1_555
H22 C32 1_555 1_555
C33 C32 1_555 1_555
H23 C33 1_555 1_555
C34 C29 1_555 1_555
H24 C34 1_555 1_555
C35 C21 1_555 1_555
H25 C35 1_555 1_555
H26 C35 1_555 1_555
C36 C35 1_555 1_555
C37 C36 1_555 1_555
H27 C37 1_555 1_555
C38 O5 1_555 1_555
H28 C38 1_555 1_555
C3 C8 1_555 1_555
C7 C8 1_555 1_555
C14 C15 1_555 1_555
C18 C19 1_555 1_555
C22 C27 1_555 1_555
C26 C27 1_555 1_555
C33 C34 1_555 1_555
C37 C38 1_555 1_555

#END
