
#######################################################################
#
#                 Cambridge Crystallographic Data Centre
#                                CCDC 
#
#######################################################################
#
# If this CIF has been generated from an entry in the Cambridge 
# Structural Database, then it will include bibliographic, chemical, 
# crystal, experimental, refinement or atomic coordinate data resulting 
# from the CCDC's data processing and validation procedures.
#
#######################################################################

data_RIQTAP
_chemical_formula_moiety         'C30 H30 N2 O3'
_chemical_name_systematic        
'ethyl 2-[2-(5-benzyl-4-methyl-6-oxo-1,6-dihydropyrimidin-2-yl)-3-methylphenyl]-3-phenylpropanoate'
_symmetry_cell_setting           triclinic
_symmetry_space_group_name_H-M   'P -1'
_symmetry_Int_Tables_number      2
_space_group_name_Hall           '-P 1'
loop_
_symmetry_equiv_pos_site_id
_symmetry_equiv_pos_as_xyz
1 x,y,z
2 -x,-y,-z
_cell_length_a                   8.186(6)
_cell_length_b                   11.746(9)
_cell_length_c                   14.341(11)
_cell_angle_alpha                105.730(9)
_cell_angle_beta                 96.421(9)
_cell_angle_gamma                101.473(9)
_cell_volume                     1280.53
_exptl_crystal_colour            yellow
_exptl_crystal_description       block
_cell_formula_units_Z            2
loop_
_atom_site_label
_atom_site_type_symbol
_atom_site_fract_x
_atom_site_fract_y
_atom_site_fract_z
C1 C 0.5142(2) 0.37606(16) 0.17371(13)
C2 C 0.5841(2) 0.34044(15) 0.25121(12)
C3 C 0.7592(2) 0.35893(18) 0.27590(15)
C4 C 0.8615(3) 0.41295(19) 0.22149(16)
H1 H 0.9783 0.4257 0.2371
C5 C 0.7940(3) 0.4479(2) 0.14523(16)
H2 H 0.8649 0.4838 0.1094
C6 C 0.6220(3) 0.4301(2) 0.12144(15)
H3 H 0.5770 0.4546 0.0697
C7 C 0.8373(3) 0.3209(3) 0.3587(2)
H4 H 0.9545 0.3239 0.3553
H5 H 0.7791 0.2393 0.3534
H6 H 0.8284 0.3752 0.4204
C8 C 0.3243(2) 0.35702(17) 0.14581(13)
H7 H 0.2713 0.3225 0.1932
C9 C 0.2515(3) 0.2677(2) 0.04317(16)
H8 H 0.2777 0.3084 -0.0057
H9 H 0.3056 0.2000 0.0332
C10 C 0.0623(3) 0.21898(19) 0.02786(15)
C11 C -0.0480(3) 0.2517(2) -0.03372(17)
H10 H -0.0054 0.3043 -0.0681
C12 C -0.2201(4) 0.2081(3) -0.0455(2)
H11 H -0.2924 0.2315 -0.0876
C13 C -0.2850(4) 0.1317(3) 0.0035(2)
H12 H -0.4015 0.1022 -0.0050
C14 C -0.1791(4) 0.0977(2) 0.0655(2)
H13 H -0.2232 0.0456 0.1000
C15 C -0.0059(3) 0.1409(2) 0.0769(2)
H14 H 0.0658 0.1165 0.1186
C16 C 0.2845(2) 0.47898(19) 0.15753(14)
C17 C 0.2611(3) 0.6570(2) 0.27716(19)
H15 H 0.1545 0.6569 0.2401
H16 H 0.3513 0.7121 0.2615
C18 C 0.2577(4) 0.6966(3) 0.3827(2)
H17 H 0.1698 0.6405 0.3978
H18 H 0.2362 0.7764 0.4008
H19 H 0.3650 0.6988 0.4189
C19 C 0.4690(2) 0.28692(15) 0.30967(12)
C20 C 0.2700(2) 0.13530(16) 0.33347(14)
C21 C 0.2505(2) 0.20714(15) 0.42106(13)
C22 C 0.3480(2) 0.33027(16) 0.45603(13)
C23 C 0.1721(4) 0.00507(19) 0.28741(18)
H20 H 0.2231 -0.0467 0.3168
H21 H 0.1736 -0.0186 0.2180
H22 H 0.0572 -0.0026 0.2980
C24 C 0.1309(2) 0.17031(18) 0.48631(15)
H23 H 0.0726 0.2343 0.5082
H24 H 0.0464 0.0973 0.4479
C25 C 0.2166(2) 0.14652(18) 0.57513(15)
C26 C 0.2908(3) 0.0500(2) 0.5651(2)
H25 H 0.2916 0.0007 0.5023
C27 C 0.3630(4) 0.0247(4) 0.6447(4)
H26 H 0.4123 -0.0415 0.6357
C28 C 0.3641(5) 0.0952(6) 0.7374(4)
H27 H 0.4120 0.0771 0.7920
C29 C 0.2929(5) 0.1936(6) 0.7489(3)
H28 H 0.2942 0.2432 0.8119
C30 C 0.2194(4) 0.2199(3) 0.66813(19)
H29 H 0.1721 0.2870 0.6767
N1 N 0.3812(2) 0.17484(13) 0.27682(11)
N2 N 0.45636(18) 0.36328(12) 0.39610(10)
H30 H 0.5191 0.4362 0.4147
O1 O 0.2551(3) 0.52208(17) 0.09296(12)
O2 O 0.28890(17) 0.53553(12) 0.25197(10)
O3 O 0.3391(2) 0.40518(12) 0.53327(10)
loop_
_geom_bond_atom_site_label_1
_geom_bond_atom_site_label_2
_geom_bond_site_symmetry_1
_geom_bond_site_symmetry_2
C1 C2 1_555 1_555
C2 C3 1_555 1_555
C3 C4 1_555 1_555
C4 H1 1_555 1_555
C5 C4 1_555 1_555
H2 C5 1_555 1_555
C6 C1 1_555 1_555
H3 C6 1_555 1_555
C7 C3 1_555 1_555
H4 C7 1_555 1_555
H5 C7 1_555 1_555
H6 C7 1_555 1_555
C8 C1 1_555 1_555
H7 C8 1_555 1_555
C9 C8 1_555 1_555
H8 C9 1_555 1_555
H9 C9 1_555 1_555
C10 C9 1_555 1_555
C11 C10 1_555 1_555
H10 C11 1_555 1_555
C12 C11 1_555 1_555
H11 C12 1_555 1_555
C13 C12 1_555 1_555
H12 C13 1_555 1_555
C14 C13 1_555 1_555
H13 C14 1_555 1_555
C15 C10 1_555 1_555
H14 C15 1_555 1_555
C16 C8 1_555 1_555
C17 H15 1_555 1_555
H16 C17 1_555 1_555
C18 C17 1_555 1_555
H17 C18 1_555 1_555
H18 C18 1_555 1_555
H19 C18 1_555 1_555
C19 C2 1_555 1_555
C20 C21 1_555 1_555
C21 C22 1_555 1_555
C22 N2 1_555 1_555
C23 C20 1_555 1_555
H20 C23 1_555 1_555
H21 C23 1_555 1_555
H22 C23 1_555 1_555
C24 C21 1_555 1_555
H23 C24 1_555 1_555
H24 C24 1_555 1_555
C25 C24 1_555 1_555
C26 C25 1_555 1_555
H25 C26 1_555 1_555
C27 C26 1_555 1_555
H26 C27 1_555 1_555
C28 C27 1_555 1_555
H27 C28 1_555 1_555
C29 C28 1_555 1_555
H28 C29 1_555 1_555
C30 C25 1_555 1_555
H29 C30 1_555 1_555
N1 C19 1_555 1_555
N2 C19 1_555 1_555
H30 N2 1_555 1_555
O1 C16 1_555 1_555
O2 C16 1_555 1_555
O3 C22 1_555 1_555
C5 C6 1_555 1_555
C14 C15 1_555 1_555
C17 O2 1_555 1_555
C20 N1 1_555 1_555
C29 C30 1_555 1_555

#END
