
#######################################################################
#
#                 Cambridge Crystallographic Data Centre
#                                CCDC 
#
#######################################################################
#
# If this CIF has been generated from an entry in the Cambridge 
# Structural Database, then it will include bibliographic, chemical, 
# crystal, experimental, refinement or atomic coordinate data resulting 
# from the CCDC's data processing and validation procedures.
#
#######################################################################

data_RIQVAQ
_chemical_formula_moiety         'C25 H19 Br1 F3 N3 O2'
_chemical_name_systematic        
6-Bromo-4-(2H-indolium-3-yl)-1-(4-methoxybenzyl)-4-(trifluoromethyl)-1,2,3,4-tetrahydroquinazolin-2-olate
_symmetry_cell_setting           orthorhombic
_symmetry_space_group_name_H-M   'P 21 21 2'
_symmetry_Int_Tables_number      18
_space_group_name_Hall           'P 2 2ab'
loop_
_symmetry_equiv_pos_site_id
_symmetry_equiv_pos_as_xyz
1 x,y,z
2 -x,-y,z
3 1/2-x,1/2+y,-z
4 1/2+x,1/2-y,-z
_cell_length_a                   23.855(5)
_cell_length_b                   9.6035(18)
_cell_length_c                   12.200(2)
_cell_angle_alpha                90
_cell_angle_beta                 90
_cell_angle_gamma                90
_cell_volume                     2794.92
_exptl_crystal_colour            colorless
_exptl_crystal_description       needle
_cell_formula_units_Z            4
loop_
_atom_site_label
_atom_site_type_symbol
_atom_site_fract_x
_atom_site_fract_y
_atom_site_fract_z
C1 C 0.4142(2) 0.5390(6) 0.9023(6)
C2 C 0.3969(2) 0.2885(6) 0.8550(6)
C3 C 0.3348(2) 0.3237(6) 0.8606(5)
C4 C 0.2942(2) 0.2199(6) 0.8499(6)
H1 H 0.3049 0.1273 0.8420
C5 C 0.2381(2) 0.2551(6) 0.8511(6)
C6 C 0.2213(2) 0.3897(7) 0.8639(6)
H2 H 0.1833 0.4113 0.8641
C7 C 0.2606(3) 0.4943(6) 0.8766(6)
H3 H 0.2489 0.5856 0.8875
C8 C 0.3184(2) 0.4635(6) 0.8732(5)
C9 C 0.4133(4) 0.2808(13) 0.7307(11)
C10 C 0.4110(2) 0.1542(5) 0.9203(9)
C11 C 0.4319(3) 0.0317(8) 0.8767(11)
H4 H 0.4389 0.0132 0.8031
C12 C 0.4241(3) 0.0070(9) 1.0600(14)
C13 C 0.4258(4) -0.0462(15) 1.161(2)
H5 H 0.4409 -0.1340 1.1737
C14 C 0.4060(7) 0.028(2) 1.2387(16)
H6 H 0.4053 -0.0091 1.3092
C15 C 0.3854(6) 0.1625(18) 1.2216(12)
H7 H 0.3721 0.2139 1.2807
C16 C 0.3846(4) 0.2206(10) 1.1166(10)
H8 H 0.3708 0.3094 1.1024
C17 C 0.4053(3) 0.1385(8) 1.0386(10)
C18 C 0.3410(3) 0.7155(6) 0.8815(7)
H9 H 0.3704 0.7727 0.9128
H10 H 0.3078 0.7268 0.9263
C19 C 0.3285(3) 0.7660(6) 0.7658(6)
C20 C 0.3655(4) 0.7503(9) 0.6807(10)
H11 H 0.3983 0.6999 0.6918
C21 C 0.3554(7) 0.8068(12) 0.5800(10)
H12 H 0.3817 0.7967 0.5243
C22 C 0.3061(6) 0.8791(11) 0.5603(9)
C23 C 0.2689(5) 0.8946(8) 0.6412(8)
H13 H 0.2356 0.9422 0.6288
C24 C 0.2803(3) 0.8399(7) 0.7425(7)
H14 H 0.2543 0.8531 0.7983
C25 C 0.2537(11) 1.011(2) 0.4325(13)
H15 H 0.2264 0.9570 0.3935
H16 H 0.2646 1.0897 0.3886
H17 H 0.2379 1.0434 0.5002
Br1 Br 0.18230(3) 0.11697(7) 0.83128(8)
F1 F 0.4023(2) 0.3998(6) 0.6788(5)
F2 F 0.4687(2) 0.2530(6) 0.7215(6)
F3 F 0.3870(2) 0.1735(6) 0.6806(5)
N1 N 0.35872(19) 0.5678(4) 0.8845(5)
N2 N 0.42896(19) 0.4030(5) 0.9024(5)
H18 H 0.4532 0.4606 0.8701
N3 N 0.4402(3) -0.0574(7) 0.9635(12)
H19 H 0.4638 -0.0503 0.9047
O1 O 0.44929(16) 0.6303(4) 0.9221(4)
O2 O 0.3014(6) 0.9278(10) 0.4547(7)
loop_
_geom_bond_atom_site_label_1
_geom_bond_atom_site_label_2
_geom_bond_site_symmetry_1
_geom_bond_site_symmetry_2
C1 N1 1_555 1_555
C2 C3 1_555 1_555
C3 C4 1_555 1_555
C4 H1 1_555 1_555
C5 C4 1_555 1_555
C6 C5 1_555 1_555
H2 C6 1_555 1_555
C7 C6 1_555 1_555
H3 C7 1_555 1_555
C8 C3 1_555 1_555
C9 C2 1_555 1_555
C10 C2 1_555 1_555
C11 C10 1_555 1_555
H4 C11 1_555 1_555
C12 C13 1_555 1_555
C13 H5 1_555 1_555
C14 C13 1_555 1_555
H6 C14 1_555 1_555
C15 C14 1_555 1_555
H7 C15 1_555 1_555
C16 C15 1_555 1_555
H8 C16 1_555 1_555
C17 C10 1_555 1_555
C18 H9 1_555 1_555
H10 C18 1_555 1_555
C19 C18 1_555 1_555
C20 C19 1_555 1_555
H11 C20 1_555 1_555
C21 C20 1_555 1_555
H12 C21 1_555 1_555
C22 C21 1_555 1_555
C23 C22 1_555 1_555
H13 C23 1_555 1_555
C24 C19 1_555 1_555
H14 C24 1_555 1_555
C25 H15 1_555 1_555
H16 C25 1_555 1_555
H17 C25 1_555 1_555
Br1 C5 1_555 1_555
F1 C9 1_555 1_555
F2 C9 1_555 1_555
F3 C9 1_555 1_555
N1 C8 1_555 1_555
N2 C1 1_555 1_555
H18 N2 1_555 1_555
N3 C11 1_555 1_555
H19 N3 1_555 1_555
O1 C1 1_555 1_555
O2 C22 1_555 1_555
C2 N2 1_555 1_555
C7 C8 1_555 1_555
C12 C17 1_555 1_555
C12 N3 1_555 1_555
C16 C17 1_555 1_555
C18 N1 1_555 1_555
C23 C24 1_555 1_555
C25 O2 1_555 1_555

#END
