
#######################################################################
#
#                 Cambridge Crystallographic Data Centre
#                                CCDC 
#
#######################################################################
#
# If this CIF has been generated from an entry in the Cambridge 
# Structural Database, then it will include bibliographic, chemical, 
# crystal, experimental, refinement or atomic coordinate data resulting 
# from the CCDC's data processing and validation procedures.
#
#######################################################################

data_RIRRIW
_chemical_formula_moiety         'C27 H42 O3,C3 H7 N1 O1'
_chemical_name_systematic        
'spirost-5-en-3-ol N,N-dimethylformamide solvate'
_symmetry_cell_setting           orthorhombic
_symmetry_space_group_name_H-M   'P 21 21 21'
_symmetry_Int_Tables_number      19
_space_group_name_Hall           'P 2ac 2ab'
loop_
_symmetry_equiv_pos_site_id
_symmetry_equiv_pos_as_xyz
1 x,y,z
2 1/2-x,-y,1/2+z
3 1/2+x,1/2-y,-z
4 -x,1/2+y,1/2-z
_cell_length_a                   7.535(3)
_cell_length_b                   9.643(3)
_cell_length_c                   39.660(7)
_cell_angle_alpha                90
_cell_angle_beta                 90
_cell_angle_gamma                90
_cell_volume                     2881.7
_exptl_crystal_colour            colorless
_exptl_crystal_description       needle
_cell_formula_units_Z            4
loop_
_atom_site_label
_atom_site_type_symbol
_atom_site_fract_x
_atom_site_fract_y
_atom_site_fract_z
O1 O 0.5662(3) 0.3195(3) 0.91976(5)
H1 H 0.4627 0.3254 0.9260
O2 O 0.5585(2) 0.23633(18) 0.63048(4)
O3 O 0.6788(3) 0.40661(19) 0.59556(4)
C1 C 0.7917(4) 0.3873(3) 0.83757(6)
H2 H 0.9171 0.3873 0.8320
H3 H 0.7462 0.4797 0.8332
C2 C 0.7708(4) 0.3554(3) 0.87526(7)
H4 H 0.8234 0.2659 0.8803
H5 H 0.8321 0.4253 0.8884
C3 C 0.5773(4) 0.3538(3) 0.88460(6)
H6 H 0.5276 0.4466 0.8811
C4 C 0.4759(4) 0.2510(3) 0.86324(6)
H7 H 0.3504 0.2593 0.8682
H8 H 0.5127 0.1579 0.8693
C5 C 0.5037(3) 0.2715(3) 0.82584(6)
C6 C 0.3680(4) 0.2780(3) 0.80475(7)
H9 H 0.2547 0.2746 0.8140
C7 C 0.3814(3) 0.2905(3) 0.76725(6)
H10 H 0.3430 0.3825 0.7605
H11 H 0.3020 0.2238 0.7569
C8 C 0.5697(3) 0.2658(2) 0.75426(6)
H12 H 0.5935 0.1660 0.7547
C9 C 0.7036(3) 0.3385(2) 0.77741(6)
H13 H 0.6667 0.4358 0.7784
C10 C 0.6961(3) 0.2844(2) 0.81428(6)
C11 C 0.8930(3) 0.3392(3) 0.76296(6)
H14 H 0.9661 0.4000 0.7766
H15 H 0.9418 0.2463 0.7647
C12 C 0.9035(3) 0.3866(3) 0.72611(6)
H16 H 0.8711 0.4838 0.7246
H17 H 1.0245 0.3770 0.7181
C13 C 0.7800(3) 0.3015(2) 0.70385(6)
C14 C 0.5913(3) 0.3170(2) 0.71829(6)
H18 H 0.5682 0.4169 0.7191
C15 C 0.4729(3) 0.2605(3) 0.69019(6)
H19 H 0.4783 0.1601 0.6890
H20 H 0.3505 0.2892 0.6931
C16 C 0.5553(3) 0.3269(3) 0.65928(6)
H21 H 0.4927 0.4130 0.6537
C17 C 0.7523(3) 0.3583(2) 0.66759(6)
H22 H 0.7694 0.4590 0.6679
C18 C 0.7824(4) 0.1402(3) 0.81708(7)
H23 H 0.9039 0.1456 0.8099
H24 H 0.7776 0.1093 0.8401
H25 H 0.7195 0.0759 0.8030
C19 C 0.8401(4) 0.1503(3) 0.70329(7)
H26 H 0.7616 0.0974 0.6892
H27 H 0.9586 0.1448 0.6945
H28 H 0.8378 0.1135 0.7258
C20 C 0.8545(4) 0.2974(3) 0.63774(6)
H29 H 0.8969 0.2055 0.6445
C21 C 1.0157(5) 0.3804(4) 0.62596(8)
H30 H 1.0991 0.3886 0.6442
H31 H 1.0709 0.3336 0.6073
H32 H 0.9785 0.4712 0.6190
C22 C 0.7098(4) 0.2759(3) 0.61129(6)
C23 C 0.5340(4) 0.4045(3) 0.57246(7)
H33 H 0.5174 0.4967 0.5632
H34 H 0.4264 0.3793 0.5844
C24 C 0.5646(5) 0.3028(3) 0.54394(7)
H35 H 0.6706 0.3317 0.5315
C25 C 0.5984(5) 0.1608(3) 0.55883(7)
H36 H 0.6323 0.0973 0.5410
H37 H 0.4900 0.1263 0.5690
C26 C 0.7436(4) 0.1653(3) 0.58517(7)
H38 H 0.7513 0.0757 0.5962
H39 H 0.8564 0.1832 0.5742
C27 C 0.4085(7) 0.3013(5) 0.51982(10)
H40 H 0.3907 0.3927 0.5109
H41 H 0.4323 0.2379 0.5017
H42 H 0.3036 0.2723 0.5316
N1 N 0.0192(4) 0.7263(4) 0.53955(7)
O4 O -0.2220(4) 0.8353(4) 0.55830(9)
C28 C -0.1312(6) 0.7348(5) 0.55590(10)
H43 H -0.1709 0.6548 0.5666
C29 C 0.0935(8) 0.8472(7) 0.52388(14)
H44 H 0.2032 0.8231 0.5130
H45 H 0.0118 0.8825 0.5074
H46 H 0.1152 0.9167 0.5407
C30 C 0.1223(10) 0.6036(7) 0.53803(17)
H47 H 0.2269 0.6203 0.5248
H48 H 0.1561 0.5765 0.5604
H49 H 0.0538 0.5309 0.5278
loop_
_geom_bond_atom_site_label_1
_geom_bond_atom_site_label_2
_geom_bond_site_symmetry_1
_geom_bond_site_symmetry_2
O1 H1 1_555 1_555
O2 C16 1_555 1_555
O3 C22 1_555 1_555
C1 H2 1_555 1_555
H3 C1 1_555 1_555
C2 C1 1_555 1_555
H4 C2 1_555 1_555
H5 C2 1_555 1_555
C3 O1 1_555 1_555
H6 C3 1_555 1_555
C4 C3 1_555 1_555
H7 C4 1_555 1_555
H8 C4 1_555 1_555
C5 C4 1_555 1_555
C6 C5 1_555 1_555
H9 C6 1_555 1_555
C7 C6 1_555 1_555
H10 C7 1_555 1_555
H11 C7 1_555 1_555
C8 C7 1_555 1_555
H12 C8 1_555 1_555
C9 C8 1_555 1_555
H13 C9 1_555 1_555
C10 C1 1_555 1_555
C11 C9 1_555 1_555
H14 C11 1_555 1_555
H15 C11 1_555 1_555
C12 C11 1_555 1_555
H16 C12 1_555 1_555
H17 C12 1_555 1_555
C13 C12 1_555 1_555
C14 C8 1_555 1_555
H18 C14 1_555 1_555
C15 C14 1_555 1_555
H19 C15 1_555 1_555
H20 C15 1_555 1_555
C16 C15 1_555 1_555
H21 C16 1_555 1_555
C17 C13 1_555 1_555
H22 C17 1_555 1_555
C18 C10 1_555 1_555
H23 C18 1_555 1_555
H24 C18 1_555 1_555
H25 C18 1_555 1_555
C19 C13 1_555 1_555
H26 C19 1_555 1_555
H27 C19 1_555 1_555
H28 C19 1_555 1_555
C20 C17 1_555 1_555
H29 C20 1_555 1_555
C21 C20 1_555 1_555
H30 C21 1_555 1_555
H31 C21 1_555 1_555
H32 C21 1_555 1_555
C22 O2 1_555 1_555
C23 O3 1_555 1_555
H33 C23 1_555 1_555
H34 C23 1_555 1_555
C24 C23 1_555 1_555
H35 C24 1_555 1_555
C25 C24 1_555 1_555
H36 C25 1_555 1_555
H37 C25 1_555 1_555
C26 C22 1_555 1_555
H38 C26 1_555 1_555
H39 C26 1_555 1_555
C27 C24 1_555 1_555
H40 C27 1_555 1_555
H41 C27 1_555 1_555
H42 C27 1_555 1_555
N1 C28 1_555 1_555
O4 C28 1_555 1_555
C28 H43 1_555 1_555
C29 N1 1_555 1_555
H44 C29 1_555 1_555
H45 C29 1_555 1_555
H46 C29 1_555 1_555
C30 N1 1_555 1_555
H47 C30 1_555 1_555
H48 C30 1_555 1_555
H49 C30 1_555 1_555
C2 C3 1_555 1_555
C5 C10 1_555 1_555
C9 C10 1_555 1_555
C13 C14 1_555 1_555
C16 C17 1_555 1_555
C20 C22 1_555 1_555
C25 C26 1_555 1_555

#END
