
#######################################################################
#
#                 Cambridge Crystallographic Data Centre
#                                CCDC 
#
#######################################################################
#
# If this CIF has been generated from an entry in the Cambridge 
# Structural Database, then it will include bibliographic, chemical, 
# crystal, experimental, refinement or atomic coordinate data resulting 
# from the CCDC's data processing and validation procedures.
#
#######################################################################

data_RIRVOF
_chemical_name_common            
"tetramethyl 2,2',2'',2'''-((9,19,28,32-tetramethoxy-25,27-dioxopillar[5]arene-4,14,30,34-tetrayl)tetrakis(oxy))tetraacetate dichloromethane solvate"
_chemical_formula_moiety         'C51 H52 O18,C1 H2 Cl2'
_chemical_name_systematic        
"tetramethyl 2,2',2'',2'''-((9,19,28,32-tetramethoxy-25,27-dioxohexacyclo[21.2.2.2^3,6^.2^8,11^.2^13,16^.2^18,21^]pentatriaconta-1(26),3,5,8,10,13,15,18,20,23,28,30,32,34-tetradecaene-4,14,30,34-tetrayl)tetrakis(oxy))tetraacetate dichloromethane solvate"
_symmetry_cell_setting           orthorhombic
_symmetry_space_group_name_H-M   'P b c a'
_symmetry_Int_Tables_number      61
_space_group_name_Hall           '-P 2ac 2ab'
loop_
_symmetry_equiv_pos_site_id
_symmetry_equiv_pos_as_xyz
1 x,y,z
2 1/2-x,-y,1/2+z
3 1/2+x,1/2-y,-z
4 -x,1/2+y,1/2-z
5 -x,-y,-z
6 1/2+x,y,1/2-z
7 1/2-x,1/2+y,z
8 x,1/2-y,1/2+z
_cell_length_a                   21.1413(7)
_cell_length_b                   19.5241(7)
_cell_length_c                   24.0141(12)
_cell_angle_alpha                90
_cell_angle_beta                 90
_cell_angle_gamma                90
_cell_volume                     9912.18
_exptl_crystal_colour            yellow
_exptl_crystal_description       block
_cell_formula_units_Z            8
loop_
_atom_site_label
_atom_site_type_symbol
_atom_site_fract_x
_atom_site_fract_y
_atom_site_fract_z
Cl1 Cl 0.21893(7) 0.90535(7) 0.03685(6)
Cl2 Cl 0.27949(6) 0.80906(8) 0.11108(6)
C1 C 0.2158(2) 0.8234(2) 0.0673(2)
H1 H 0.1760 0.8187 0.0887
H2 H 0.2156 0.7883 0.0375
O1 O 0.30972(12) 0.93639(12) 0.23561(11)
O2 O 0.25077(14) 1.05736(15) 0.23559(14)
O3 O 0.29657(16) 1.08478(16) 0.15486(16)
O4 O 0.41009(15) 0.67589(15) 0.23388(14)
O5 O 0.49507(16) 0.57668(19) 0.25305(19)
O6 O 0.42021(18) 0.51522(16) 0.29551(18)
O7 O 0.45084(14) 0.86535(14) 0.08068(13)
O8 O 0.40083(13) 0.60838(14) 0.02648(12)
O9 O 0.31844(10) 0.82540(13) -0.09180(11)
O10 O 0.16771(11) 0.60623(12) -0.03202(12)
O11 O 0.07794(11) 0.86610(11) -0.04062(10)
O12 O 0.04160(19) 1.0234(2) -0.09413(17)
O13 O 0.13206(17) 0.96764(15) -0.10056(14)
O14 O 0.04550(13) 0.68060(12) 0.13118(11)
O15 O -0.05271(13) 0.60554(17) 0.09088(14)
O16 O 0.0101(2) 0.51783(18) 0.0779(3)
O17 O 0.09332(13) 0.93252(12) 0.15709(12)
O18 O 0.17109(12) 0.72043(12) 0.29266(11)
C2 C 0.24413(15) 0.83964(18) 0.29671(15)
H3 H 0.2470 0.8872 0.3109
H4 H 0.2396 0.8088 0.3292
C3 C 0.33575(15) 0.87129(17) 0.23433(15)
C4 C 0.30474(15) 0.82220(17) 0.26616(14)
C5 C 0.32989(16) 0.75666(18) 0.26709(16)
H5 H 0.3103 0.7224 0.2892
C6 C 0.38334(17) 0.74020(19) 0.23620(16)
C7 C 0.41338(15) 0.78932(19) 0.20362(15)
C8 C 0.38929(16) 0.85500(19) 0.20346(16)
H6 H 0.4095 0.8895 0.1820
C9 C 0.3274(2) 0.9824(2) 0.1941(2)
H7 H 0.3220 0.9611 0.1570
H8 H 0.3724 0.9952 0.1986
C10 C 0.28650(19) 1.0447(2) 0.1987(2)
C11 C 0.2628(3) 1.1493(3) 0.1531(3)
H9 H 0.2764 1.1756 0.1205
H10 H 0.2719 1.1755 0.1870
H11 H 0.2172 1.1405 0.1507
C12 C 0.39466(18) 0.62815(19) 0.27507(19)
H12 H 0.3518 0.6094 0.2685
H13 H 0.3955 0.6499 0.3123
C13 C 0.4434(2) 0.5718(2) 0.2718(2)
C14 C 0.4613(3) 0.4567(3) 0.2980(4)
H14 H 0.4829 0.4511 0.2622
H15 H 0.4363 0.4156 0.3060
H16 H 0.4927 0.4634 0.3275
C15 C 0.46952(16) 0.7701(2) 0.16748(16)
H17 H 0.4989 0.8095 0.1650
H18 H 0.4925 0.7314 0.1847
C16 C 0.43903(15) 0.80580(19) 0.06824(17)
C17 C 0.44810(14) 0.75012(19) 0.10978(16)
C18 C 0.43606(16) 0.68575(19) 0.09394(16)
H19 H 0.4428 0.6499 0.1200
C19 C 0.41287(15) 0.66801(19) 0.03805(17)
C20 C 0.40468(14) 0.72390(18) -0.00302(16)
C21 C 0.41684(15) 0.78793(19) 0.01229(16)
H20 H 0.4109 0.8236 -0.0141
C22 C 0.38099(15) 0.7060(2) -0.06055(16)
H21 H 0.3940 0.6587 -0.0701
H22 H 0.3998 0.7375 -0.0882
C23 C 0.27950(15) 0.77182(17) -0.07749(15)
C24 C 0.30898(15) 0.71159(18) -0.06234(15)
C25 C 0.27203(16) 0.65574(18) -0.04678(15)
H23 H 0.2918 0.6142 -0.0357
C26 C 0.20639(15) 0.66014(17) -0.04728(15)
C27 C 0.17663(14) 0.72043(17) -0.06365(14)
C28 C 0.21384(15) 0.77598(17) -0.07845(14)
H24 H 0.1942 0.8176 -0.0894
C29 C 0.28979(18) 0.88714(19) -0.1100(2)
H25 H 0.2653 0.8784 -0.1439
H26 H 0.3226 0.9212 -0.1178
H27 H 0.2616 0.9045 -0.0808
C30 C 0.1976(2) 0.5480(2) -0.0085(2)
H28 H 0.2261 0.5274 -0.0361
H29 H 0.1654 0.5144 0.0024
H30 H 0.2219 0.5618 0.0243
C31 C 0.10507(14) 0.72753(17) -0.06454(15)
H31 H 0.0927 0.7608 -0.0937
H32 H 0.0858 0.6828 -0.0739
C32 C 0.06753(13) 0.82030(16) 0.00262(14)
C33 C 0.08014(13) 0.75156(17) -0.00874(14)
C34 C 0.07130(14) 0.70434(16) 0.03398(15)
H33 H 0.0786 0.6571 0.0269
C35 C 0.05221(15) 0.72457(17) 0.08625(15)
C36 C 0.03906(14) 0.79313(16) 0.09747(14)
C37 C 0.04638(14) 0.84018(17) 0.05468(14)
H34 H 0.0367 0.8870 0.0613
C38 C 0.06289(18) 0.93568(17) -0.02928(16)
H35 H 0.0881 0.9519 0.0029
H36 H 0.0175 0.9396 -0.0195
C39 C 0.0767(2) 0.9792(2) -0.0790(2)
C40 C 0.1453(3) 1.0107(3) -0.1494(2)
H37 H 0.1075 1.0133 -0.1728
H38 H 0.1802 0.9906 -0.1708
H39 H 0.1572 1.0568 -0.1371
C41 C 0.05476(17) 0.61048(18) 0.12184(17)
H40 H 0.0630 0.5871 0.1577
H41 H 0.0922 0.6038 0.0976
C42 C -0.0030(2) 0.5793(2) 0.0944(2)
C43 C -0.0454(4) 0.4821(3) 0.0551(5)
H42 H -0.0318 0.4500 0.0260
H43 H -0.0747 0.5156 0.0391
H44 H -0.0666 0.4567 0.0849
C44 C 0.01955(14) 0.81582(18) 0.15540(14)
H45 H -0.0101 0.7819 0.1715
H46 H -0.0026 0.8604 0.1531
C45 C 0.11393(16) 0.88155(17) 0.19220(15)
C46 C 0.07702(14) 0.82261(17) 0.19288(14)
C47 C 0.09547(15) 0.76914(17) 0.22731(14)
H47 H 0.0706 0.7287 0.2286
C48 C 0.14962(15) 0.77353(17) 0.25992(14)
C49 C 0.18567(15) 0.83314(17) 0.26019(14)
C50 C 0.16687(16) 0.88678(18) 0.22604(15)
H48 H 0.1908 0.9280 0.2259
C51 C 0.1312(2) 0.99176(19) 0.15045(19)
H49 H 0.1115 1.0225 0.1233
H50 H 0.1733 0.9784 0.1372
H51 H 0.1351 1.0154 0.1863
C52 C 0.13284(19) 0.66089(18) 0.29525(18)
H52 H 0.1286 0.6412 0.2579
H53 H 0.0909 0.6730 0.3096
H54 H 0.1526 0.6273 0.3201
loop_
_geom_bond_atom_site_label_1
_geom_bond_atom_site_label_2
_geom_bond_site_symmetry_1
_geom_bond_site_symmetry_2
Cl1 C1 1_555 1_555
Cl2 C1 1_555 1_555
C1 H1 1_555 1_555
H2 C1 1_555 1_555
O1 C3 1_555 1_555
O2 C10 1_555 1_555
O3 C10 1_555 1_555
O4 C6 1_555 1_555
O5 C13 1_555 1_555
O6 C13 1_555 1_555
O7 C16 1_555 1_555
O8 C19 1_555 1_555
O9 C23 1_555 1_555
O10 C26 1_555 1_555
O11 C32 1_555 1_555
O12 C39 1_555 1_555
O13 C39 1_555 1_555
O14 C35 1_555 1_555
O15 C42 1_555 1_555
O16 C42 1_555 1_555
O17 C45 1_555 1_555
O18 C48 1_555 1_555
C2 H3 1_555 1_555
H4 C2 1_555 1_555
C3 C4 1_555 1_555
C4 C2 1_555 1_555
C5 C4 1_555 1_555
H5 C5 1_555 1_555
C6 C5 1_555 1_555
C7 C6 1_555 1_555
C8 C3 1_555 1_555
H6 C8 1_555 1_555
C9 O1 1_555 1_555
H7 C9 1_555 1_555
H8 C9 1_555 1_555
C10 C9 1_555 1_555
C11 O3 1_555 1_555
H9 C11 1_555 1_555
H10 C11 1_555 1_555
H11 C11 1_555 1_555
C12 O4 1_555 1_555
H12 C12 1_555 1_555
H13 C12 1_555 1_555
C13 C12 1_555 1_555
C14 O6 1_555 1_555
H14 C14 1_555 1_555
H15 C14 1_555 1_555
H16 C14 1_555 1_555
C15 C7 1_555 1_555
H17 C15 1_555 1_555
H18 C15 1_555 1_555
C16 C17 1_555 1_555
C17 C15 1_555 1_555
C18 C17 1_555 1_555
H19 C18 1_555 1_555
C19 C18 1_555 1_555
C20 C19 1_555 1_555
C21 C16 1_555 1_555
H20 C21 1_555 1_555
C22 C20 1_555 1_555
H21 C22 1_555 1_555
H22 C22 1_555 1_555
C23 C24 1_555 1_555
C24 C22 1_555 1_555
C25 C24 1_555 1_555
H23 C25 1_555 1_555
C26 C25 1_555 1_555
C27 C26 1_555 1_555
C28 C23 1_555 1_555
H24 C28 1_555 1_555
C29 O9 1_555 1_555
H25 C29 1_555 1_555
H26 C29 1_555 1_555
H27 C29 1_555 1_555
C30 O10 1_555 1_555
H28 C30 1_555 1_555
H29 C30 1_555 1_555
H30 C30 1_555 1_555
C31 C27 1_555 1_555
H31 C31 1_555 1_555
H32 C31 1_555 1_555
C32 C33 1_555 1_555
C33 C31 1_555 1_555
C34 C33 1_555 1_555
H33 C34 1_555 1_555
C35 C34 1_555 1_555
C36 C35 1_555 1_555
C37 C32 1_555 1_555
H34 C37 1_555 1_555
C38 O11 1_555 1_555
H35 C38 1_555 1_555
H36 C38 1_555 1_555
C39 C38 1_555 1_555
C40 O13 1_555 1_555
H37 C40 1_555 1_555
H38 C40 1_555 1_555
H39 C40 1_555 1_555
C41 O14 1_555 1_555
H40 C41 1_555 1_555
H41 C41 1_555 1_555
C42 C41 1_555 1_555
C43 O16 1_555 1_555
H42 C43 1_555 1_555
H43 C43 1_555 1_555
H44 C43 1_555 1_555
C44 C36 1_555 1_555
H45 C44 1_555 1_555
H46 C44 1_555 1_555
C45 C46 1_555 1_555
C46 C44 1_555 1_555
C47 C46 1_555 1_555
H47 C47 1_555 1_555
C48 C47 1_555 1_555
C49 C2 1_555 1_555
C50 C45 1_555 1_555
H48 C50 1_555 1_555
C51 O17 1_555 1_555
H49 C51 1_555 1_555
H50 C51 1_555 1_555
H51 C51 1_555 1_555
C52 O18 1_555 1_555
H52 C52 1_555 1_555
H53 C52 1_555 1_555
H54 C52 1_555 1_555
C7 C8 1_555 1_555
C20 C21 1_555 1_555
C27 C28 1_555 1_555
C36 C37 1_555 1_555
C48 C49 1_555 1_555
C49 C50 1_555 1_555

#END
