
#######################################################################
#
#                 Cambridge Crystallographic Data Centre
#                                CCDC 
#
#######################################################################
#
# If this CIF has been generated from an entry in the Cambridge 
# Structural Database, then it will include bibliographic, chemical, 
# crystal, experimental, refinement or atomic coordinate data resulting 
# from the CCDC's data processing and validation procedures.
#
#######################################################################

data_RIRWOG
_chemical_formula_moiety         'C14 H15 N1 O7'
_chemical_name_systematic        
N-(1,3-Dihydroxy-2-(hydroxymethyl)propan-2-yl)-7-hydroxy-2-oxo-2H-chromene-3-carboxamide
_symmetry_cell_setting           monoclinic
_symmetry_space_group_name_H-M   'P 21/c'
_symmetry_Int_Tables_number      14
_space_group_name_Hall           '-P 2ybc'
loop_
_symmetry_equiv_pos_site_id
_symmetry_equiv_pos_as_xyz
1 x,y,z
2 -x,1/2+y,1/2-z
3 -x,-y,-z
4 x,1/2-y,1/2+z
_cell_length_a                   15.0672(17)
_cell_length_b                   6.7903(8)
_cell_length_c                   13.0874(15)
_cell_angle_alpha                90
_cell_angle_beta                 107.667(2)
_cell_angle_gamma                90
_cell_volume                     1275.83
_exptl_crystal_colour            yellow
_exptl_crystal_description       block
_cell_formula_units_Z            4
loop_
_atom_site_label
_atom_site_type_symbol
_atom_site_fract_x
_atom_site_fract_y
_atom_site_fract_z
N1 N 0.77623(12) 0.2638(3) 0.80306(14)
H1 H 0.7430 0.3002 0.8428
O1 O 0.19429(10) 0.3504(3) 0.42613(12)
H2 H 0.1758 0.3744 0.4777
O2 O 0.48669(10) 0.3810(2) 0.69670(11)
O3 O 0.61561(11) 0.3999(3) 0.82918(12)
O4 O 0.76940(11) 0.1690(3) 0.63505(12)
O5 O 0.86363(12) -0.1047(2) 0.89853(13)
H3 H 0.8719 -0.2170 0.8803
O6 O 0.85395(12) 0.4809(2) 0.98500(13)
H4 H 0.8285 0.4736 1.0321
O7 O 0.90360(12) 0.5718(2) 0.78882(12)
H5 H 0.8772 0.5919 0.7250
C1 C 0.28866(15) 0.3272(3) 0.46030(17)
C2 C 0.33066(15) 0.2609(3) 0.38497(17)
H6 H 0.2947 0.2373 0.3146
C3 C 0.42495(16) 0.2307(3) 0.41511(17)
H7 H 0.4526 0.1860 0.3648
C4 C 0.48073(15) 0.2666(3) 0.52149(17)
C5 C 0.43568(15) 0.3368(3) 0.59254(16)
C6 C 0.34128(15) 0.3687(3) 0.56441(16)
H8 H 0.3136 0.4168 0.6140
C7 C 0.57866(15) 0.2345(3) 0.56033(17)
H9 H 0.6094 0.1866 0.5137
C8 C 0.62818(14) 0.2721(3) 0.66364(16)
C9 C 0.58096(15) 0.3522(3) 0.73621(17)
C10 C 0.73133(14) 0.2318(3) 0.69940(17)
C11 C 0.87657(14) 0.2427(3) 0.85555(16)
C12 C 0.90980(15) 0.0314(3) 0.84927(18)
H10 H 0.8983 -0.0047 0.7747
H11 H 0.9764 0.0242 0.8845
C13 C 0.89335(16) 0.2966(3) 0.97355(17)
H12 H 0.8664 0.1957 1.0075
H13 H 0.9598 0.3003 1.0098
C14 C 0.93423(15) 0.3730(3) 0.80364(17)
H14 H 0.9987 0.3707 0.8483
H15 H 0.9317 0.3176 0.7345
loop_
_geom_bond_atom_site_label_1
_geom_bond_atom_site_label_2
_geom_bond_site_symmetry_1
_geom_bond_site_symmetry_2
N1 H1 1_555 1_555
O1 H2 1_555 1_555
O2 C5 1_555 1_555
O3 C9 1_555 1_555
O4 C10 1_555 1_555
O5 H3 1_555 1_555
O6 H4 1_555 1_555
O7 H5 1_555 1_555
C1 O1 1_555 1_555
C2 C1 1_555 1_555
H6 C2 1_555 1_555
C3 C2 1_555 1_555
H7 C3 1_555 1_555
C4 C3 1_555 1_555
C5 C4 1_555 1_555
C6 C1 1_555 1_555
H8 C6 1_555 1_555
C7 C4 1_555 1_555
H9 C7 1_555 1_555
C8 C7 1_555 1_555
C9 O2 1_555 1_555
C10 N1 1_555 1_555
C11 N1 1_555 1_555
C12 O5 1_555 1_555
H10 C12 1_555 1_555
H11 C12 1_555 1_555
C13 O6 1_555 1_555
H12 C13 1_555 1_555
H13 C13 1_555 1_555
C14 O7 1_555 1_555
H14 C14 1_555 1_555
H15 C14 1_555 1_555
C5 C6 1_555 1_555
C8 C9 1_555 1_555
C8 C10 1_555 1_555
C11 C12 1_555 1_555
C11 C13 1_555 1_555
C11 C14 1_555 1_555

#END
