
#######################################################################
#
#                 Cambridge Crystallographic Data Centre
#                                CCDC 
#
#######################################################################
#
# If this CIF has been generated from an entry in the Cambridge 
# Structural Database, then it will include bibliographic, chemical, 
# crystal, experimental, refinement or atomic coordinate data resulting 
# from the CCDC's data processing and validation procedures.
#
#######################################################################

data_RIRWAS
_chemical_formula_moiety         'C47 H40 O18,2(C1 H2 Cl2)'
_chemical_name_systematic        
"Tetramethyl 2,2',2'',2'''-((9,19,25,27,28,32-hexaoxohexacyclo[21.2.2.2^3,6^.2^8,11^.2^13,16^.2^18,21^]pentatriaconta-1(26),3,5,8(33),10,13,15,18(29),20,23,30,34-dodecaene-4,14,30,34-tetrayl)tetrakis(oxy))tetra-acetate dichloromethane solvate"
_symmetry_cell_setting           triclinic
_symmetry_space_group_name_H-M   'P -1'
_symmetry_Int_Tables_number      2
_space_group_name_Hall           '-P 1'
loop_
_symmetry_equiv_pos_site_id
_symmetry_equiv_pos_as_xyz
1 x,y,z
2 -x,-y,-z
_cell_length_a                   12.579(3)
_cell_length_b                   14.929(3)
_cell_length_c                   15.012(3)
_cell_angle_alpha                64.15(3)
_cell_angle_beta                 77.01(3)
_cell_angle_gamma                73.74(3)
_cell_volume                     2418.3
_exptl_crystal_colour            red
_exptl_crystal_description       block
_cell_formula_units_Z            2
loop_
_atom_site_label
_atom_site_type_symbol
_atom_site_fract_x
_atom_site_fract_y
_atom_site_fract_z
Cl1 Cl 0.0987(2) 0.32460(18) 0.3543(2)
Cl2 Cl -0.05224(18) 0.49041(16) 0.39916(17)
C1 C 0.0762(7) 0.4066(5) 0.4166(6)
H1 H 0.0797 0.3662 0.4873
H2 H 0.1350 0.4450 0.3918
Cl3 Cl 0.4932(2) 0.3919(3) 1.1098(3)
Cl4 Cl 0.2699(3) 0.3926(3) 1.1033(3)
C2 C 0.3845(9) 0.3296(6) 1.1705(7)
H3 H 0.3646 0.3285 1.2372
H4 H 0.4069 0.2599 1.1760
O1 O 0.4492(4) 0.2373(4) 0.3996(4)
O2 O 0.5595(4) -0.0874(3) 0.7281(4)
O3 O 0.3520(4) 0.5210(3) 0.5737(3)
O4 O 0.3910(5) 0.7108(4) 0.4819(4)
O5 O 0.3796(5) 0.7139(4) 0.3334(4)
O6 O 0.2099(4) 0.1560(3) 0.7686(3)
O7 O 0.3895(4) 0.0671(4) 0.8818(4)
O8 O 0.2708(4) 0.0759(4) 1.0154(4)
O9 O 0.6810(4) 0.5069(4) 0.7033(4)
O10 O 0.3892(5) 0.2829(4) 0.9403(4)
O11 O 1.0028(4) 0.2392(3) 0.6244(4)
O12 O 0.7976(5) 0.1335(4) 0.9941(4)
O13 O 0.8323(4) 0.0977(3) 0.4583(3)
O14 O 0.8779(5) 0.3076(4) 0.2326(4)
O15 O 0.7873(4) 0.1812(4) 0.2793(4)
O16 O 0.9337(4) -0.1418(3) 0.8435(3)
O17 O 1.0126(4) -0.2667(4) 1.0179(4)
O18 O 0.9344(4) -0.3908(3) 1.0283(3)
C3 C 0.7256(5) -0.0603(5) 0.5631(5)
H5 H 0.7569 -0.0530 0.4956
H6 H 0.7152 -0.1296 0.6005
C4 C 0.4755(6) 0.1629(5) 0.4771(5)
C5 C 0.5854(5) 0.0949(5) 0.4788(5)
H7 H 0.6365 0.1104 0.4217
C6 C 0.6152(5) 0.0107(5) 0.5602(5)
C7 C 0.5351(5) -0.0125(5) 0.6531(5)
C8 C 0.4250(5) 0.0565(4) 0.6498(5)
H8 H 0.3738 0.0410 0.7069
C9 C 0.3944(5) 0.1396(5) 0.5697(5)
C10 C 0.2822(5) 0.2130(4) 0.5657(5)
H9 H 0.2231 0.1751 0.5968
H10 H 0.2699 0.2554 0.4967
C11 C 0.3199(5) 0.4275(4) 0.6201(5)
C12 C 0.3138(5) 0.3701(5) 0.5712(5)
H11 H 0.3338 0.3937 0.5026
C13 C 0.2796(5) 0.2796(4) 0.6196(5)
C14 C 0.2471(5) 0.2474(4) 0.7229(5)
C15 C 0.2535(5) 0.3038(5) 0.7724(5)
H12 H 0.2326 0.2803 0.8409
C16 C 0.2905(6) 0.3958(5) 0.7234(5)
C17 C 0.3568(7) 0.5660(5) 0.4692(5)
H13 H 0.2871 0.5690 0.4494
H14 H 0.4166 0.5258 0.4403
C18 C 0.3774(6) 0.6726(5) 0.4322(5)
C19 C 0.4107(11) 0.8125(7) 0.2856(7)
H15 H 0.4329 0.8282 0.2158
H16 H 0.4716 0.8108 0.3154
H17 H 0.3481 0.8636 0.2940
C20 C 0.1909(6) 0.1141(5) 0.8739(5)
H18 H 0.1591 0.0547 0.8961
H19 H 0.1369 0.1636 0.8955
C21 C 0.2962(6) 0.0838(5) 0.9230(5)
C22 C 0.3644(7) 0.0449(6) 1.0714(6)
H20 H 0.4117 0.0934 1.0389
H21 H 0.4060 -0.0209 1.0747
H22 H 0.3372 0.0416 1.1376
C23 C 0.3013(6) 0.4562(5) 0.7771(5)
H23 H 0.2517 0.4403 0.8391
H24 H 0.2794 0.5282 0.7366
C24 C 0.6105(6) 0.4599(5) 0.7628(5)
C25 C 0.4937(6) 0.4889(5) 0.7442(5)
H25 H 0.4707 0.5497 0.6914
C26 C 0.4199(6) 0.4327(5) 0.7990(5)
C27 C 0.4562(6) 0.3374(5) 0.8871(5)
C28 C 0.5684(6) 0.3126(5) 0.9114(5)
H26 H 0.5888 0.2552 0.9682
C29 C 0.6459(6) 0.3697(5) 0.8544(5)
C30 C 0.7632(6) 0.3456(5) 0.8770(5)
H27 H 0.7636 0.3194 0.9486
H28 H 0.7921 0.4076 0.8467
C31 C 0.9571(5) 0.2154(5) 0.7108(5)
C32 C 0.8895(5) 0.2914(5) 0.7480(5)
H29 H 0.8827 0.3597 0.7049
C33 C 0.8376(5) 0.2689(5) 0.8389(5)
C34 C 0.8470(6) 0.1587(5) 0.9076(5)
C35 C 0.9165(6) 0.0825(5) 0.8731(5)
H30 H 0.9258 0.0146 0.9175
C36 C 0.9681(5) 0.1052(5) 0.7802(5)
C37 C 1.0340(5) 0.0257(5) 0.7402(5)
H31 H 1.0948 0.0513 0.6909
H32 H 1.0655 -0.0354 0.7940
C38 C 0.8591(5) 0.0429(5) 0.5547(5)
C39 C 0.9326(5) 0.0627(5) 0.5955(5)
H33 H 0.9666 0.1179 0.5576
C40 C 0.9572(5) 0.0011(5) 0.6932(5)
C41 C 0.9045(5) -0.0827(5) 0.7485(5)
C42 C 0.8311(5) -0.1017(4) 0.7058(5)
H34 H 0.7972 -0.1570 0.7435
C43 C 0.8064(5) -0.0418(5) 0.6095(5)
C44 C 0.8801(6) 0.1852(5) 0.4000(5)
H35 H 0.9607 0.1659 0.3979
H36 H 0.8532 0.2348 0.4297
C45 C 0.8475(6) 0.2310(5) 0.2950(5)
C46 C 0.7581(8) 0.2238(7) 0.1790(6)
H37 H 0.8247 0.2202 0.1334
H38 H 0.7201 0.2935 0.1618
H39 H 0.7101 0.1859 0.1752
C47 C 0.8986(6) -0.2370(5) 0.8930(5)
H40 H 0.9184 -0.2738 0.8501
H41 H 0.8185 -0.2263 0.9116
C48 C 0.9585(6) -0.2948(5) 0.9839(5)
C49 C 0.9870(7) -0.4604(5) 1.1187(6)
H42 H 1.0666 -0.4712 1.1029
H43 H 0.9641 -0.5243 1.1449
H44 H 0.9646 -0.4314 1.1676
loop_
_geom_bond_atom_site_label_1
_geom_bond_atom_site_label_2
_geom_bond_site_symmetry_1
_geom_bond_site_symmetry_2
Cl1 C1 1_555 1_555
Cl2 C1 1_555 1_555
C1 H1 1_555 1_555
H2 C1 1_555 1_555
Cl3 C2 1_555 1_555
Cl4 C2 1_555 1_555
C2 H3 1_555 1_555
H4 C2 1_555 1_555
O1 C4 1_555 1_555
O2 C7 1_555 1_555
O3 C11 1_555 1_555
O4 C18 1_555 1_555
O5 C18 1_555 1_555
O6 C14 1_555 1_555
O7 C21 1_555 1_555
O8 C21 1_555 1_555
O9 C24 1_555 1_555
O10 C27 1_555 1_555
O11 C31 1_555 1_555
O12 C34 1_555 1_555
O13 C38 1_555 1_555
O14 C45 1_555 1_555
O15 C45 1_555 1_555
O16 C41 1_555 1_555
O17 C48 1_555 1_555
O18 C48 1_555 1_555
C3 H5 1_555 1_555
H6 C3 1_555 1_555
C4 C5 1_555 1_555
C5 H7 1_555 1_555
C6 C3 1_555 1_555
C7 C6 1_555 1_555
C8 C7 1_555 1_555
H8 C8 1_555 1_555
C9 C4 1_555 1_555
C10 C9 1_555 1_555
H9 C10 1_555 1_555
H10 C10 1_555 1_555
C11 C12 1_555 1_555
C12 H11 1_555 1_555
C13 C10 1_555 1_555
C14 C13 1_555 1_555
C15 C14 1_555 1_555
H12 C15 1_555 1_555
C16 C11 1_555 1_555
C17 O3 1_555 1_555
H13 C17 1_555 1_555
H14 C17 1_555 1_555
C18 C17 1_555 1_555
C19 O5 1_555 1_555
H15 C19 1_555 1_555
H16 C19 1_555 1_555
H17 C19 1_555 1_555
C20 O6 1_555 1_555
H18 C20 1_555 1_555
H19 C20 1_555 1_555
C21 C20 1_555 1_555
C22 O8 1_555 1_555
H20 C22 1_555 1_555
H21 C22 1_555 1_555
H22 C22 1_555 1_555
C23 C16 1_555 1_555
H23 C23 1_555 1_555
H24 C23 1_555 1_555
C24 C25 1_555 1_555
C25 H25 1_555 1_555
C26 C23 1_555 1_555
C27 C26 1_555 1_555
C28 C27 1_555 1_555
H26 C28 1_555 1_555
C29 C24 1_555 1_555
C30 C29 1_555 1_555
H27 C30 1_555 1_555
H28 C30 1_555 1_555
C31 C32 1_555 1_555
C32 H29 1_555 1_555
C33 C30 1_555 1_555
C34 C33 1_555 1_555
C35 C34 1_555 1_555
H30 C35 1_555 1_555
C36 C31 1_555 1_555
C37 C36 1_555 1_555
H31 C37 1_555 1_555
H32 C37 1_555 1_555
C38 C39 1_555 1_555
C39 H33 1_555 1_555
C40 C37 1_555 1_555
C41 C40 1_555 1_555
C42 C41 1_555 1_555
H34 C42 1_555 1_555
C43 C3 1_555 1_555
C44 O13 1_555 1_555
H35 C44 1_555 1_555
H36 C44 1_555 1_555
C45 C44 1_555 1_555
C46 O15 1_555 1_555
H37 C46 1_555 1_555
H38 C46 1_555 1_555
H39 C46 1_555 1_555
C47 O16 1_555 1_555
H40 C47 1_555 1_555
H41 C47 1_555 1_555
C48 C47 1_555 1_555
C49 O18 1_555 1_555
H42 C49 1_555 1_555
H43 C49 1_555 1_555
H44 C49 1_555 1_555
C5 C6 1_555 1_555
C8 C9 1_555 1_555
C12 C13 1_555 1_555
C15 C16 1_555 1_555
C25 C26 1_555 1_555
C28 C29 1_555 1_555
C32 C33 1_555 1_555
C35 C36 1_555 1_555
C38 C43 1_555 1_555
C39 C40 1_555 1_555
C42 C43 1_555 1_555

#END
