
#######################################################################
#
#                 Cambridge Crystallographic Data Centre
#                                CCDC 
#
#######################################################################
#
# If this CIF has been generated from an entry in the Cambridge 
# Structural Database, then it will include bibliographic, chemical, 
# crystal, experimental, refinement or atomic coordinate data resulting 
# from the CCDC's data processing and validation procedures.
#
#######################################################################

data_RIRWUL
_chemical_formula_moiety         'C28 H32 N6 O6'
_chemical_name_systematic        
'Diethyl 2,6-bis(3-methylphenyl)-4,8-dioxo-2,6,3a,4a,7a,8a-hexa-azaperhydrocyclopenta(def)fluorene-8b,8c-dicarboxylate'
_symmetry_cell_setting           orthorhombic
_symmetry_space_group_name_H-M   'P b c a'
_symmetry_Int_Tables_number      61
_space_group_name_Hall           '-P 2ac 2ab'
loop_
_symmetry_equiv_pos_site_id
_symmetry_equiv_pos_as_xyz
1 x,y,z
2 1/2-x,-y,1/2+z
3 -x,1/2+y,1/2-z
4 1/2+x,1/2-y,-z
5 -x,-y,-z
6 1/2+x,y,1/2-z
7 x,1/2-y,1/2+z
8 1/2-x,1/2+y,z
_cell_length_a                   17.8591(13)
_cell_length_b                   15.4533(11)
_cell_length_c                   19.5649(14)
_cell_angle_alpha                90
_cell_angle_beta                 90
_cell_angle_gamma                90
_cell_volume                     5399.56
_exptl_crystal_colour            colorless
_exptl_crystal_description       block
_cell_formula_units_Z            8
_exptl_crystal_recrystallization_method dichloromethane/methanol
loop_
_atom_site_label
_atom_site_type_symbol
_atom_site_fract_x
_atom_site_fract_y
_atom_site_fract_z
C1 C 0.13577(17) 0.19168(16) 0.46245(14)
H1 H 0.1142 0.1880 0.5073
H2 H 0.1873 0.1741 0.4643
H3 H 0.1089 0.1544 0.4318
C2 C 0.13103(13) 0.28371(14) 0.43719(11)
C3 C 0.07028(14) 0.33474(17) 0.45309(14)
H4 H 0.0317 0.3121 0.4796
C4 C 0.06592(14) 0.41882(17) 0.43031(14)
H5 H 0.0245 0.4524 0.4415
C5 C 0.12232(12) 0.45357(15) 0.39119(12)
H6 H 0.1188 0.5104 0.3758
C6 C 0.18480(11) 0.40391(13) 0.37455(10)
C7 C 0.18868(12) 0.31908(14) 0.39802(11)
H7 H 0.2303 0.2855 0.3874
C8 C 0.29814(12) 0.38598(13) 0.30343(11)
H8 H 0.3318 0.3658 0.3389
H9 H 0.2745 0.3360 0.2826
C9 C 0.27758(12) 0.51778(13) 0.36519(10)
H10 H 0.2400 0.5548 0.3857
H11 H 0.3110 0.4982 0.4010
C10 C 0.31559(11) 0.43743(13) 0.18532(11)
C11 C 0.28227(11) 0.62743(12) 0.27600(10)
C12 C 0.37140(11) 0.51700(12) 0.27303(10)
C13 C 0.44683(11) 0.50352(14) 0.30994(11)
C14 C 0.57290(13) 0.45747(18) 0.29232(14)
H12 H 0.5853 0.5060 0.3217
H13 H 0.6069 0.4583 0.2537
C15 C 0.5831(5) 0.3757(6) 0.3308(8)
H16 H 0.5519 0.3763 0.3707
H17 H 0.6346 0.3702 0.3443
H18 H 0.5695 0.3277 0.3023
C17 C 0.37500(11) 0.56958(12) 0.20477(10)
C18 C 0.45154(11) 0.60894(14) 0.18663(11)
C19 C 0.54944(13) 0.69342(17) 0.23643(15)
H22 H 0.5502 0.7369 0.2006
H23 H 0.5875 0.6505 0.2265
C20 C 0.56359(17) 0.7339(2) 0.30383(16)
H24 H 0.5264 0.7774 0.3124
H25 H 0.6124 0.7600 0.3039
H26 H 0.5611 0.6905 0.3389
C21 C 0.31026(12) 0.54585(14) 0.09478(10)
H27 H 0.2874 0.5001 0.0681
H28 H 0.3463 0.5756 0.0661
C22 C 0.28691(12) 0.67668(12) 0.15651(10)
H29 H 0.3239 0.7061 0.1286
H30 H 0.2491 0.7184 0.1700
C23 C 0.19878(11) 0.63132(14) 0.06778(10)
C24 C 0.15080(13) 0.56850(16) 0.04217(11)
H31 H 0.1561 0.5111 0.0555
C25 C 0.09497(14) 0.59180(19) -0.00343(13)
H32 H 0.0621 0.5500 -0.0199
C26 C 0.08790(13) 0.67635(19) -0.02449(12)
H33 H 0.0507 0.6909 -0.0557
C27 C 0.13505(12) 0.73984(17) -0.00012(12)
C28 C 0.19051(12) 0.71622(14) 0.04632(11)
H34 H 0.2227 0.7584 0.0633
C29 C 0.12859(16) 0.8322(2) -0.02293(17)
H35 H 0.1743 0.8496 -0.0448
H36 H 0.1195 0.8685 0.0160
H37 H 0.0878 0.8376 -0.0546
N1 N 0.24122(9) 0.44287(10) 0.33290(9)
N2 N 0.33984(9) 0.43436(10) 0.25214(8)
N3 N 0.31940(9) 0.56596(10) 0.31470(8)
N4 N 0.34792(9) 0.50907(10) 0.15396(8)
N5 N 0.32233(9) 0.63989(10) 0.21670(8)
N6 N 0.25262(10) 0.60692(10) 0.11782(8)
O1 O 0.27578(9) 0.38472(9) 0.15775(8)
O2 O 0.22632(8) 0.66624(9) 0.29289(8)
O3 O 0.45827(9) 0.52344(12) 0.36771(8)
O4 O 0.49553(8) 0.46721(11) 0.26752(8)
O5 O 0.48131(9) 0.60350(13) 0.13262(9)
O6 O 0.47578(8) 0.65276(10) 0.24036(8)
H14? H 0.6071 0.4865 0.2614
H15? H 0.5781 0.4834 0.3372
C16? C 0.5909(11) 0.3650(8) 0.2959(12)
H19? H 0.5555 0.3364 0.3252
H20? H 0.6404 0.3577 0.3140
H21? H 0.5884 0.3403 0.2510
loop_
_geom_bond_atom_site_label_1
_geom_bond_atom_site_label_2
_geom_bond_site_symmetry_1
_geom_bond_site_symmetry_2
C1 H1 1_555 1_555
H2 C1 1_555 1_555
H3 C1 1_555 1_555
C2 C1 1_555 1_555
C3 C2 1_555 1_555
H4 C3 1_555 1_555
C4 C3 1_555 1_555
H5 C4 1_555 1_555
C5 C4 1_555 1_555
H6 C5 1_555 1_555
C6 C5 1_555 1_555
C7 C2 1_555 1_555
H7 C7 1_555 1_555
C8 H8 1_555 1_555
H9 C8 1_555 1_555
C9 H10 1_555 1_555
H11 C9 1_555 1_555
C10 N2 1_555 1_555
C11 N3 1_555 1_555
C12 C13 1_555 1_555
C13 O3 1_555 1_555
C14 H12 1_555 1_555
H13 C14 1_555 1_555
C15 C14 1_555 1_555
H16 C15 1_555 1_555
H17 C15 1_555 1_555
H18 C15 1_555 1_555
C17 C12 1_555 1_555
C18 C17 1_555 1_555
C19 H22 1_555 1_555
H23 C19 1_555 1_555
C20 C19 1_555 1_555
H24 C20 1_555 1_555
H25 C20 1_555 1_555
H26 C20 1_555 1_555
C21 H27 1_555 1_555
H28 C21 1_555 1_555
C22 H29 1_555 1_555
H30 C22 1_555 1_555
C23 C24 1_555 1_555
C24 H31 1_555 1_555
C25 C24 1_555 1_555
H32 C25 1_555 1_555
C26 C25 1_555 1_555
H33 C26 1_555 1_555
C27 C26 1_555 1_555
C28 C23 1_555 1_555
H34 C28 1_555 1_555
C29 C27 1_555 1_555
H35 C29 1_555 1_555
H36 C29 1_555 1_555
H37 C29 1_555 1_555
N1 C6 1_555 1_555
N2 C8 1_555 1_555
N3 C9 1_555 1_555
N4 C10 1_555 1_555
N5 C11 1_555 1_555
N6 C21 1_555 1_555
O1 C10 1_555 1_555
O2 C11 1_555 1_555
O4 C13 1_555 1_555
O5 C18 1_555 1_555
O6 C18 1_555 1_555
C6 C7 1_555 1_555
C8 N1 1_555 1_555
C9 N1 1_555 1_555
C12 N2 1_555 1_555
C12 N3 1_555 1_555
C14 O4 1_555 1_555
C17 N4 1_555 1_555
C17 N5 1_555 1_555
C19 O6 1_555 1_555
C21 N4 1_555 1_555
C22 N5 1_555 1_555
C22 N6 1_555 1_555
C23 N6 1_555 1_555
C27 C28 1_555 1_555

#END
