
#######################################################################
#
#                 Cambridge Crystallographic Data Centre
#                                CCDC 
#
#######################################################################
#
# If this CIF has been generated from an entry in the Cambridge 
# Structural Database, then it will include bibliographic, chemical, 
# crystal, experimental, refinement or atomic coordinate data resulting 
# from the CCDC's data processing and validation procedures.
#
#######################################################################

data_RIRWUM
_chemical_formula_moiety         'C25 H20 N4 O1 S1'
_chemical_name_systematic        
2-(1,3-benzothiazol-2-yl)-4-(bis(pyridin-2-ylmethyl)amino)phenol
_symmetry_cell_setting           triclinic
_symmetry_space_group_name_H-M   'P -1'
_symmetry_Int_Tables_number      2
_space_group_name_Hall           '-P 1'
loop_
_symmetry_equiv_pos_site_id
_symmetry_equiv_pos_as_xyz
1 x,y,z
2 -x,-y,-z
_cell_length_a                   6.2396(12)
_cell_length_b                   10.686(2)
_cell_length_c                   16.230(3)
_cell_angle_alpha                93.23(3)
_cell_angle_beta                 93.54(3)
_cell_angle_gamma                101.83(3)
_cell_volume                     1054.51
_exptl_crystal_colour            green
_exptl_crystal_description       rod
_cell_formula_units_Z            2
loop_
_atom_site_label
_atom_site_type_symbol
_atom_site_fract_x
_atom_site_fract_y
_atom_site_fract_z
C1 C 0.0910(8) 0.9095(5) 0.6118(3)
H1 H 0.0948 0.9675 0.6570
C2 C 0.2770(9) 0.8804(7) 0.5863(3)
H2 H 0.4123 0.9210 0.6123
C3 C 0.2656(7) 0.7891(6) 0.5205(3)
H3 H 0.3919 0.7648 0.5037
C4 C 0.0663(6) 0.7362(4) 0.48143(19)
C5 C -0.1000(8) 0.8526(5) 0.5705(3)
H4 H -0.2274 0.8755 0.5873
C6 C 0.0322(6) 0.6362(4) 0.4075(2)
H5 H -0.0329 0.5531 0.4261
H6 H -0.0713 0.6579 0.3664
C7 C 0.3332(6) 0.5161(4) 0.3826(2)
H7 H 0.2737 0.4749 0.4303
H8 H 0.4898 0.5469 0.3953
C8 C 0.2973(6) 0.4172(3) 0.3091(2)
C9 C 0.0951(6) 0.3775(4) 0.2651(3)
H9 H -0.0248 0.4105 0.2801
C10 C 0.0738(8) 0.2876(5) 0.1983(3)
H10 H -0.0602 0.2593 0.1677
C11 C 0.2519(9) 0.2423(5) 0.1789(3)
H11 H 0.2427 0.1834 0.1337
C12 C 0.4431(8) 0.2823(5) 0.2249(4)
H12 H 0.5619 0.2471 0.2112
C13 C 0.3263(5) 0.7167(3) 0.31547(19)
C14 C 0.2483(5) 0.8316(3) 0.3057(2)
H13 H 0.1291 0.8453 0.3340
C15 C 0.3448(6) 0.9229(4) 0.2556(2)
H14 H 0.2911 0.9975 0.2515
C16 C 0.5218(5) 0.9063(3) 0.21040(19)
C17 C 0.5987(5) 0.7922(3) 0.21686(18)
C18 C 0.5004(5) 0.7001(3) 0.26911(19)
H15 H 0.5536 0.6253 0.2729
C19 C 0.7736(5) 0.7650(3) 0.16474(18)
C20 C 1.0389(6) 0.7995(4) 0.07734(18)
C21 C 1.0479(5) 0.6725(4) 0.0950(2)
C22 C 1.1985(6) 0.6098(4) 0.0596(2)
H16 H 1.2007 0.5254 0.0701
C23 C 1.3449(6) 0.6761(4) 0.0084(2)
H17 H 1.4491 0.6366 -0.0146
C24 C 1.3375(6) 0.8027(4) -0.0092(2)
H18 H 1.4351 0.8449 -0.0446
C25 C 1.1873(6) 0.8659(4) 0.0252(2)
H19 H 1.1851 0.9501 0.0141
N1 N -0.1193(5) 0.7638(4) 0.5058(2)
N2 N 0.2319(5) 0.6261(3) 0.36861(17)
N3 N 0.4731(5) 0.3710(4) 0.2900(2)
N4 N 0.8810(4) 0.8506(3) 0.11902(16)
O1 O 0.6140(4) 1.0027(2) 0.16310(16)
H20 H 0.7350 0.9922 0.1509
S1 S 0.84677(16) 0.61605(10) 0.16173(6)
loop_
_geom_bond_atom_site_label_1
_geom_bond_atom_site_label_2
_geom_bond_site_symmetry_1
_geom_bond_site_symmetry_2
C1 H1 1_555 1_555
C2 C1 1_555 1_555
H2 C2 1_555 1_555
C3 C2 1_555 1_555
H3 C3 1_555 1_555
C4 C3 1_555 1_555
C5 C1 1_555 1_555
H4 C5 1_555 1_555
C6 C4 1_555 1_555
H5 C6 1_555 1_555
H6 C6 1_555 1_555
C7 H7 1_555 1_555
H8 C7 1_555 1_555
C8 C7 1_555 1_555
C9 C8 1_555 1_555
H9 C9 1_555 1_555
C10 C9 1_555 1_555
H10 C10 1_555 1_555
C11 C10 1_555 1_555
H11 C11 1_555 1_555
C12 C11 1_555 1_555
H12 C12 1_555 1_555
C13 C14 1_555 1_555
C14 H13 1_555 1_555
C15 C14 1_555 1_555
H14 C15 1_555 1_555
C16 C15 1_555 1_555
C17 C16 1_555 1_555
C18 C13 1_555 1_555
H15 C18 1_555 1_555
C19 C17 1_555 1_555
C20 C21 1_555 1_555
C21 C22 1_555 1_555
C22 H16 1_555 1_555
C23 C22 1_555 1_555
H17 C23 1_555 1_555
C24 C23 1_555 1_555
H18 C24 1_555 1_555
C25 C20 1_555 1_555
H19 C25 1_555 1_555
N1 C4 1_555 1_555
N2 C6 1_555 1_555
N3 C8 1_555 1_555
N4 C19 1_555 1_555
O1 C16 1_555 1_555
H20 O1 1_555 1_555
S1 C19 1_555 1_555
C5 N1 1_555 1_555
C7 N2 1_555 1_555
C12 N3 1_555 1_555
C13 N2 1_555 1_555
C17 C18 1_555 1_555
C20 N4 1_555 1_555
C21 S1 1_555 1_555
C24 C25 1_555 1_555

#END
