
#######################################################################
#
#                 Cambridge Crystallographic Data Centre
#                                CCDC 
#
#######################################################################
#
# If this CIF has been generated from an entry in the Cambridge 
# Structural Database, then it will include bibliographic, chemical, 
# crystal, experimental, refinement or atomic coordinate data resulting 
# from the CCDC's data processing and validation procedures.
#
#######################################################################

data_RIRXEX
_chemical_formula_moiety         'C27 H30 N2 O7 S1'
_chemical_name_systematic        
'1-t-Butyl 6-methyl 4-((4-methylphenyl)sulfonyl)-2-oxo-5-phenyl-2,3,3a,4,7,7a-hexahydro-1H-pyrrolo[3,2-b]pyridine-1,6-dicarboxylate'
_symmetry_cell_setting           monoclinic
_symmetry_space_group_name_H-M   'P 21/a'
_symmetry_Int_Tables_number      14
_space_group_name_Hall           '-P 2yab'
loop_
_symmetry_equiv_pos_site_id
_symmetry_equiv_pos_as_xyz
1 x,y,z
2 1/2-x,1/2+y,-z
3 -x,-y,-z
4 1/2+x,1/2-y,z
_cell_length_a                   10.5924(6)
_cell_length_b                   21.1122(10)
_cell_length_c                   12.3763(5)
_cell_angle_alpha                90
_cell_angle_beta                 106.888(5)
_cell_angle_gamma                90
_cell_volume                     2648.34
_exptl_crystal_colour            'light colorless'
_exptl_crystal_description       block
_cell_formula_units_Z            4
loop_
_atom_site_label
_atom_site_type_symbol
_atom_site_fract_x
_atom_site_fract_y
_atom_site_fract_z
S1 S 0.34137(12) 0.38258(6) 0.39953(8)
O1 O 0.4904(3) 0.19048(16) 0.1284(3)
O2 O 0.5045(4) 0.25435(19) -0.0600(3)
O3 O 0.3319(3) 0.32213(14) -0.1160(2)
O4 O 0.6035(6) 0.4895(2) 0.1156(4)
O5 O 0.6255(3) 0.39138(17) 0.0695(3)
O6 O 0.2562(3) 0.33528(15) 0.4238(2)
O7 O 0.4512(3) 0.40556(17) 0.4859(2)
N1 N 0.3872(3) 0.28517(15) 0.0607(2)
N2 N 0.3993(3) 0.35183(15) 0.2994(2)
C1 C 0.4210(4) 0.2347(2) 0.1345(3)
C2 C 0.3498(5) 0.2436(2) 0.2214(4)
H1 H 0.4079 0.2347 0.2962
H2 H 0.2744 0.2154 0.2068
C3 C 0.3054(4) 0.31182(19) 0.2130(3)
H3 H 0.2176 0.3143 0.2240
C4 C 0.2963(4) 0.33090(18) 0.0910(3)
H4 H 0.2062 0.3246 0.0421
C5 C 0.3373(4) 0.39945(19) 0.0853(3)
H5 H 0.3367 0.4097 0.0088
H6 H 0.2752 0.4272 0.1062
C6 C 0.4731(4) 0.40954(18) 0.1643(3)
C7 C 0.5016(4) 0.38626(18) 0.2698(3)
C8 C 0.6337(4) 0.3892(2) 0.3535(3)
C9 C 0.7010(5) 0.4466(2) 0.3739(4)
H7 H 0.6597 0.4834 0.3403
C10 C 0.8282(5) 0.4490(3) 0.4434(5)
H8 H 0.8726 0.4876 0.4563
C11 C 0.8900(5) 0.3952(4) 0.4937(5)
H9 H 0.9765 0.3970 0.5400
C12 C 0.8236(5) 0.3385(3) 0.4754(4)
H10 H 0.8655 0.3018 0.5094
C13 C 0.6946(4) 0.3357(2) 0.4067(3)
H11 H 0.6493 0.2974 0.3966
C14 C 0.4157(5) 0.2844(2) -0.0429(4)
C15 C 0.3351(5) 0.3276(3) -0.2346(3)
C16 C 0.2327(6) 0.3767(3) -0.2829(4)
H12 H 0.1476 0.3611 -0.2827
H13 H 0.2319 0.3862 -0.3589
H14 H 0.2526 0.4145 -0.2380
C17 C 0.4663(6) 0.3525(4) -0.2371(5)
H15 H 0.4869 0.3901 -0.1918
H16 H 0.4635 0.3623 -0.3135
H17 H 0.5328 0.3210 -0.2076
C18 C 0.2980(11) 0.2655(3) -0.2911(5)
H18 H 0.3430 0.2322 -0.2419
H19 H 0.3226 0.2645 -0.3599
H20 H 0.2044 0.2595 -0.3080
C19 C 0.5747(5) 0.4353(3) 0.1174(3)
C20 C 0.7219(6) 0.4103(4) 0.0119(6)
H21 H 0.6829 0.4409 -0.0455
H22 H 0.7486 0.3738 -0.0223
H23 H 0.7974 0.4286 0.0655
C21 C 0.1123(5) 0.4399(3) 0.2811(4)
H24 H 0.0707 0.4017 0.2866
C22 C 0.0416(6) 0.4892(3) 0.2197(5)
H25 H -0.0481 0.4840 0.1847
C23 C 0.0994(6) 0.5457(3) 0.2086(5)
C24 C 0.2305(6) 0.5536(3) 0.2665(5)
H26 H 0.2706 0.5925 0.2632
C25 C 0.3044(5) 0.5048(2) 0.3296(4)
H27 H 0.3929 0.5110 0.3683
C26 C 0.2456(4) 0.4472(2) 0.3346(3)
C27 C 0.0216(7) 0.5978(3) 0.1342(6)
H28 H 0.0114 0.5878 0.0565
H29 H 0.0679 0.6372 0.1530
H30 H -0.0637 0.6013 0.1461
loop_
_geom_bond_atom_site_label_1
_geom_bond_atom_site_label_2
_geom_bond_site_symmetry_1
_geom_bond_site_symmetry_2
S1 O6 1_555 1_555
O1 C1 1_555 1_555
O2 C14 1_555 1_555
O3 C14 1_555 1_555
O4 C19 1_555 1_555
O5 C19 1_555 1_555
O7 S1 1_555 1_555
N1 C1 1_555 1_555
N2 S1 1_555 1_555
C1 C2 1_555 1_555
C2 H1 1_555 1_555
H2 C2 1_555 1_555
C3 N2 1_555 1_555
H3 C3 1_555 1_555
C4 N1 1_555 1_555
H4 C4 1_555 1_555
C5 C4 1_555 1_555
H5 C5 1_555 1_555
H6 C5 1_555 1_555
C6 C5 1_555 1_555
C7 N2 1_555 1_555
C8 C7 1_555 1_555
C9 C8 1_555 1_555
H7 C9 1_555 1_555
C10 C9 1_555 1_555
H8 C10 1_555 1_555
C11 C10 1_555 1_555
H9 C11 1_555 1_555
C12 C11 1_555 1_555
H10 C12 1_555 1_555
C13 C8 1_555 1_555
H11 C13 1_555 1_555
C14 N1 1_555 1_555
C15 O3 1_555 1_555
C16 C15 1_555 1_555
H12 C16 1_555 1_555
H13 C16 1_555 1_555
H14 C16 1_555 1_555
C17 C15 1_555 1_555
H15 C17 1_555 1_555
H16 C17 1_555 1_555
H17 C17 1_555 1_555
C18 C15 1_555 1_555
H18 C18 1_555 1_555
H19 C18 1_555 1_555
H20 C18 1_555 1_555
C19 C6 1_555 1_555
C20 O5 1_555 1_555
H21 C20 1_555 1_555
H22 C20 1_555 1_555
H23 C20 1_555 1_555
C21 H24 1_555 1_555
C22 C21 1_555 1_555
H25 C22 1_555 1_555
C23 C22 1_555 1_555
C24 C23 1_555 1_555
H26 C24 1_555 1_555
C25 C24 1_555 1_555
H27 C25 1_555 1_555
C26 S1 1_555 1_555
C27 C23 1_555 1_555
H28 C27 1_555 1_555
H29 C27 1_555 1_555
H30 C27 1_555 1_555
C2 C3 1_555 1_555
C3 C4 1_555 1_555
C6 C7 1_555 1_555
C12 C13 1_555 1_555
C21 C26 1_555 1_555
C25 C26 1_555 1_555

#END
