
#######################################################################
#
#                 Cambridge Crystallographic Data Centre
#                                CCDC 
#
#######################################################################
#
# If this CIF has been generated from an entry in the Cambridge 
# Structural Database, then it will include bibliographic, chemical, 
# crystal, experimental, refinement or atomic coordinate data resulting 
# from the CCDC's data processing and validation procedures.
#
#######################################################################

data_RIRZIC
_chemical_formula_moiety         'C13 H10 N2 O2'
_chemical_name_systematic        '3-(2-Pyridylmethyleneamino)benzoic acid'
_symmetry_cell_setting           monoclinic
_symmetry_space_group_name_H-M   'C 2/c'
_symmetry_Int_Tables_number      15
_space_group_name_Hall           '-C 2yn'
loop_
_symmetry_equiv_pos_site_id
_symmetry_equiv_pos_as_xyz
1 x,y,z
2 1/2+x,1/2+y,z
3 -x,y,1/2-z
4 1/2-x,1/2+y,1/2-z
5 -x,-y,-z
6 1/2-x,1/2-y,-z
7 x,-y,1/2+z
8 1/2+x,1/2-y,1/2+z
_cell_length_a                   27.217(2)
_cell_length_b                   4.0536(17)
_cell_length_c                   23.767(2)
_cell_angle_alpha                90
_cell_angle_beta                 123.553(15)
_cell_angle_gamma                90
_cell_volume                     2185.22
_exptl_crystal_colour            yellow
_exptl_crystal_description       block
_cell_formula_units_Z            8
loop_
_atom_site_label
_atom_site_type_symbol
_atom_site_fract_x
_atom_site_fract_y
_atom_site_fract_z
N1 N 0.10556(9) 0.7481(7) 0.34401(12)
N2 N 0.07264(9) 1.2019(7) 0.44507(12)
O1 O 0.35449(8) 0.8343(7) 0.41129(11)
O2 O 0.32303(8) 1.0085(7) 0.47445(10)
H1 H 0.3564 1.0856 0.4974
C1 C 0.31601(12) 0.8605(9) 0.42142(16)
C2 C 0.25549(12) 0.7286(8) 0.37490(14)
C3 C 0.21148(11) 0.7944(8) 0.38571(14)
H2 H 0.2201 0.9108 0.4239
C4 C 0.15450(11) 0.6866(8) 0.33956(14)
C5 C 0.14323(12) 0.5086(8) 0.28483(14)
H3 H 0.1053 0.4293 0.2545
C6 C 0.18674(13) 0.4448(10) 0.27381(15)
H4 H 0.1782 0.3248 0.2361
C7 C 0.24288(13) 0.5586(8) 0.31864(15)
H5 H 0.2723 0.5203 0.3108
C8 C 0.10902(11) 0.9531(9) 0.38494(14)
H6 H 0.1443 1.0656 0.4125
C9 C 0.05954(11) 1.0241(9) 0.39133(14)
C10 C 0.00358(11) 0.9087(9) 0.34624(14)
H7 H -0.0049 0.7873 0.3087
C11 C -0.03951(12) 0.9758(9) 0.35763(15)
H8 H -0.0778 0.9017 0.3273
C12 C -0.02658(13) 1.1499(9) 0.41295(16)
H9 H -0.0552 1.1918 0.4219
C13 C 0.03026(13) 1.2628(9) 0.45537(15)
H10 H 0.0394 1.3871 0.4929
loop_
_geom_bond_atom_site_label_1
_geom_bond_atom_site_label_2
_geom_bond_site_symmetry_1
_geom_bond_site_symmetry_2
N1 C4 1_555 1_555
N2 C9 1_555 1_555
O1 C1 1_555 1_555
O2 H1 1_555 1_555
C1 O2 1_555 1_555
C2 C1 1_555 1_555
C3 C2 1_555 1_555
H2 C3 1_555 1_555
C4 C3 1_555 1_555
C5 C4 1_555 1_555
H3 C5 1_555 1_555
C6 C5 1_555 1_555
H4 C6 1_555 1_555
C7 C2 1_555 1_555
H5 C7 1_555 1_555
C8 N1 1_555 1_555
H6 C8 1_555 1_555
C9 C8 1_555 1_555
C10 C9 1_555 1_555
H7 C10 1_555 1_555
C11 C10 1_555 1_555
H8 C11 1_555 1_555
C12 C11 1_555 1_555
H9 C12 1_555 1_555
C13 N2 1_555 1_555
H10 C13 1_555 1_555
C6 C7 1_555 1_555
C12 C13 1_555 1_555

#END
