
#######################################################################
#
#                 Cambridge Crystallographic Data Centre
#                                CCDC 
#
#######################################################################
#
# If this CIF has been generated from an entry in the Cambridge 
# Structural Database, then it will include bibliographic, chemical, 
# crystal, experimental, refinement or atomic coordinate data resulting 
# from the CCDC's data processing and validation procedures.
#
#######################################################################

data_RIRZUO
_chemical_compound_source        
'stem bark of African mahogany Khaya senegalensis (Meliaceae)'
_chemical_name_common            1,3,7-Trideacetylkhivorin
_chemical_formula_moiety         'C26 H36 O7'
_chemical_name_systematic        
14,15\b:21,23-Diepoxy-1\a,3\a,7\a-trihydroxy-4,4,8-trimethyl-D-homo-24-nor-17-oxochola-20,22-diene-16-one
_chemical_properties_biological  'anticancer activity'
_symmetry_cell_setting           orthorhombic
_symmetry_space_group_name_H-M   'P 21 21 21'
_symmetry_Int_Tables_number      19
_space_group_name_Hall           'P 2ac 2ab'
loop_
_symmetry_equiv_pos_site_id
_symmetry_equiv_pos_as_xyz
1 x,y,z
2 1/2-x,-y,1/2+z
3 -x,1/2+y,1/2-z
4 1/2+x,1/2-y,-z
_cell_length_a                   9.856(2)
_cell_length_b                   14.492(3)
_cell_length_c                   15.714(3)
_cell_angle_alpha                90
_cell_angle_beta                 90
_cell_angle_gamma                90
_cell_volume                     2244.48
_exptl_crystal_colour            colorless
_exptl_crystal_description       block
_cell_formula_units_Z            4
_exptl_crystal_recrystallization_method chloroform/methanol
loop_
_atom_site_label
_atom_site_type_symbol
_atom_site_fract_x
_atom_site_fract_y
_atom_site_fract_z
O1 O 0.54360(19) 0.79446(11) 0.30374(11)
H1 H 0.6098 0.8242 0.2860
O2 O 0.5683(2) 0.75585(12) 0.47596(10)
H2 H 0.5492 0.7884 0.4342
O3 O 0.10161(19) 0.74230(12) 0.34713(10)
H3 H 0.0843 0.7394 0.3987
O4 O -0.01398(18) 0.68425(11) 0.12115(11)
O5 O -0.06666(17) 0.87686(12) 0.09534(11)
O6 O -0.22403(19) 0.85936(13) 0.19420(13)
O7 O 0.2139(2) 0.99496(16) -0.10650(13)
C2 C 0.5671(3) 0.69684(16) 0.29037(15)
H5 H 0.6137 0.6891 0.2372
C3 C 0.6585(3) 0.66042(19) 0.36194(15)
H6 H 0.6850 0.5983 0.3489
H7 H 0.7393 0.6973 0.3645
C4 C 0.5893(3) 0.66186(17) 0.44869(15)
H8 H 0.6498 0.6333 0.4887
C5 C 0.4551(3) 0.60729(16) 0.45018(15)
C6 C 0.3648(2) 0.64328(15) 0.37633(14)
H9 H 0.3485 0.7070 0.3896
C7 C 0.2239(3) 0.59939(16) 0.37310(15)
H10 H 0.2321 0.5369 0.3535
H11 H 0.1867 0.5978 0.4295
C8 C 0.1268(2) 0.65128(16) 0.31494(15)
H12 H 0.0423 0.6183 0.3130
C9 C 0.1815(2) 0.66078(15) 0.22338(14)
C10 C 0.3285(2) 0.69989(16) 0.22822(14)
H13 H 0.3191 0.7586 0.2560
C11 C 0.4298(2) 0.64452(16) 0.28547(14)
C12 C 0.3866(3) 0.72283(18) 0.13991(15)
H14 H 0.4206 0.6670 0.1148
H15 H 0.4621 0.7640 0.1470
C13 C 0.2846(3) 0.76720(17) 0.07785(14)
H16 H 0.3297 0.8149 0.0462
H17 H 0.2543 0.7213 0.0381
C14 C 0.1609(2) 0.80870(15) 0.12310(14)
C15 C 0.0922(2) 0.72936(16) 0.17152(14)
C16 C -0.0535(2) 0.74388(17) 0.19000(15)
H18 H -0.0891 0.7148 0.2402
C17 C -0.1213(3) 0.83018(17) 0.16126(16)
C18 C 0.0590(2) 0.84230(16) 0.05511(15)
H19 H 0.0360 0.7910 0.0193
C19 C 0.1966(3) 0.88937(16) 0.18393(15)
H20 H 0.1428 0.8847 0.2347
H21 H 0.1782 0.9470 0.1562
H22 H 0.2911 0.8863 0.1986
C20 C 0.4635(3) 0.54764(16) 0.24976(15)
H23 H 0.5558 0.5324 0.2631
H24 H 0.4515 0.5476 0.1891
H25 H 0.4040 0.5028 0.2749
C21 C 0.1080(3) 0.92041(16) -0.00073(15)
C22 C 0.1952(3) 0.91246(18) -0.06903(16)
H26 H 0.2367 0.8559 -0.0873
C23 C 0.0718(3) 1.01360(18) 0.00268(17)
H27 H 0.0115 1.0408 0.0436
C24 C 0.1346(3) 1.05895(17) -0.06020(17)
H28 H 0.1271 1.1238 -0.0719
C25 C 0.4863(3) 0.50310(17) 0.44778(17)
H29 H 0.5465 0.4902 0.4013
H30 H 0.4034 0.4693 0.4403
H31 H 0.5283 0.4850 0.5003
C26 C 0.3843(3) 0.62676(18) 0.53597(14)
H32 H 0.3106 0.5843 0.5436
H33 H 0.3501 0.6888 0.5362
H34 H 0.4484 0.6193 0.5815
C27 C 0.1717(3) 0.56622(16) 0.17897(16)
H35 H 0.2167 0.5205 0.2129
H36 H 0.2143 0.5696 0.1241
H37 H 0.0780 0.5496 0.1722
C1? C 0.2139(2) 0.99496(16) -0.10650(13)
H4? H 0.2700 1.0078 -0.1550
O8? O 0.1346(3) 1.05895(17) -0.06020(17)
loop_
_geom_bond_atom_site_label_1
_geom_bond_atom_site_label_2
_geom_bond_site_symmetry_1
_geom_bond_site_symmetry_2
O1 H1 1_555 1_555
O2 H2 1_555 1_555
O3 H3 1_555 1_555
O4 C15 1_555 1_555
O5 C17 1_555 1_555
O6 C17 1_555 1_555
O7 C22 1_555 1_555
C2 O1 1_555 1_555
H5 C2 1_555 1_555
C3 C2 1_555 1_555
H6 C3 1_555 1_555
H7 C3 1_555 1_555
C4 O2 1_555 1_555
H8 C4 1_555 1_555
C5 C4 1_555 1_555
C6 C5 1_555 1_555
H9 C6 1_555 1_555
C7 C6 1_555 1_555
H10 C7 1_555 1_555
H11 C7 1_555 1_555
C8 O3 1_555 1_555
H12 C8 1_555 1_555
C9 C8 1_555 1_555
C10 C9 1_555 1_555
H13 C10 1_555 1_555
C11 C2 1_555 1_555
C12 C10 1_555 1_555
H14 C12 1_555 1_555
H15 C12 1_555 1_555
C13 C12 1_555 1_555
H16 C13 1_555 1_555
H17 C13 1_555 1_555
C14 C13 1_555 1_555
C15 C9 1_555 1_555
C16 O4 1_555 1_555
H18 C16 1_555 1_555
C17 C16 1_555 1_555
C18 O5 1_555 1_555
H19 C18 1_555 1_555
C19 C14 1_555 1_555
H20 C19 1_555 1_555
H21 C19 1_555 1_555
H22 C19 1_555 1_555
C20 C11 1_555 1_555
H23 C20 1_555 1_555
H24 C20 1_555 1_555
H25 C20 1_555 1_555
C21 C18 1_555 1_555
C22 C21 1_555 1_555
H26 C22 1_555 1_555
C23 C21 1_555 1_555
H27 C23 1_555 1_555
C24 O7 1_555 1_555
H28 C24 1_555 1_555
C25 C5 1_555 1_555
H29 C25 1_555 1_555
H30 C25 1_555 1_555
H31 C25 1_555 1_555
C26 C5 1_555 1_555
H32 C26 1_555 1_555
H33 C26 1_555 1_555
H34 C26 1_555 1_555
C27 C9 1_555 1_555
H35 C27 1_555 1_555
H36 C27 1_555 1_555
H37 C27 1_555 1_555
C3 C4 1_555 1_555
C6 C11 1_555 1_555
C7 C8 1_555 1_555
C10 C11 1_555 1_555
C14 C15 1_555 1_555
C14 C18 1_555 1_555
C15 C16 1_555 1_555
C23 C24 1_555 1_555

#END
