
#######################################################################
#
#                 Cambridge Crystallographic Data Centre
#                                CCDC 
#
#######################################################################
#
# If this CIF has been generated from an entry in the Cambridge 
# Structural Database, then it will include bibliographic, chemical, 
# crystal, experimental, refinement or atomic coordinate data resulting 
# from the CCDC's data processing and validation procedures.
#
#######################################################################

data_RISCAA
_chemical_formula_moiety         'C28 H37 N1 O7,H2 O1'
_chemical_name_systematic        
'10-acetyl-3-benzyl-6,7,10,11,12-pentahydroxy-4,9-dimethyl-5-methylidenetetradecahydronaphtho[2,3-d]isoindol-1(2H)-one monohydrate'
_symmetry_cell_setting           orthorhombic
_symmetry_space_group_name_H-M   'P 21 21 21'
_symmetry_Int_Tables_number      19
_space_group_name_Hall           'P 2ac 2ab'
loop_
_symmetry_equiv_pos_site_id
_symmetry_equiv_pos_as_xyz
1 x,y,z
2 1/2+x,1/2-y,-z
3 -x,1/2+y,1/2-z
4 1/2-x,-y,1/2+z
_cell_length_a                   26.9885(8)
_cell_length_b                   7.4068(2)
_cell_length_c                   13.3305(4)
_cell_angle_alpha                90
_cell_angle_beta                 90
_cell_angle_gamma                90
_cell_volume                     2664.75
_exptl_crystal_colour            colorless
_exptl_crystal_description       Block
_cell_formula_units_Z            4
loop_
_atom_site_label
_atom_site_type_symbol
_atom_site_fract_x
_atom_site_fract_y
_atom_site_fract_z
O1 O 0.49724(11) 0.6826(4) 0.3726(2)
H1 H 0.504(2) 0.636(5) 0.330(4)
C1 C 0.58460(15) 0.9414(5) 0.6055(3)
H2 H 0.586661 0.885184 0.673602
O2 O 0.54848(11) 0.5256(4) 0.6789(2)
H3 H 0.549(2) 1.155(9) 0.629(5)
C2 C 0.57129(15) 0.5504(5) 0.6005(3)
N1 N 0.61513(14) 0.4751(5) 0.5788(3)
O3 O 0.57913(13) 1.1326(4) 0.6158(3)
C3 C 0.63473(15) 0.5150(5) 0.4792(3)
H4 H 0.66935 0.561446 0.486127
H5 H 0.3723(18) 0.297(7) 0.653(4)
O4 O 0.47964(11) 1.0525(4) 0.6247(2)
H6 H 0.465(2) 1.0600(12) 0.666(4)
O5 O 0.38990(13) 0.3809(4) 0.6442(2)
H7 H 0.626(2) 0.381(8) 0.606(4)
C4 C 0.60099(14) 0.6695(5) 0.4404(3)
H8 H 0.590175 0.642003 0.370304
C5 C 0.62725(15) 0.8552(5) 0.4426(3)
H9 H 0.604227 0.944128 0.410786
O6 O 0.43758(11) 0.2788(4) 0.4649(2)
H10 H 0.4466(19) 0.225(4) 0.524(4)
C6 C 0.63329(16) 0.9103(5) 0.5498(4)
O7 O 0.31818(14) 0.2284(5) 0.5488(3)
C7 C 0.54048(14) 0.8606(5) 0.5485(3)
H11 H 0.535057 0.936853 0.487603
C8 C 0.63536(17) 0.3439(5) 0.4131(3)
H12 H 0.650086 0.242822 0.45149
H13 H 0.600921 0.310294 0.395671
C9 C 0.55478(14) 0.6686(5) 0.5116(3)
C10 C 0.67477(18) 0.8530(6) 0.3794(5)
H14 H 0.667134 0.809696 0.311657
H15 H 0.699124 0.772609 0.410615
H16 H 0.6884 0.975481 0.375479
C11 C 0.67621(19) 0.9265(7) 0.5973(5)
H17 H 0.706316 0.902369 0.562899
H18 H 0.676868 0.962316 0.66572
C12 C 0.49236(14) 0.8637(5) 0.6090(3)
H19 H 0.498264 0.805191 0.675542
C13 C 0.44933(15) 0.7668(5) 0.5560(3)
H20 H 0.441947 0.832856 0.492321
C14 C 0.40262(15) 0.7667(6) 0.6203(3)
H21 H 0.391962 0.892798 0.632254
H22 H 0.41006 0.711131 0.686103
C15 C 0.36045(16) 0.6626(6) 0.5699(3)
H23 H 0.354137 0.719531 0.503066
C16 C 0.37676(15) 0.4646(6) 0.5513(3)
C17 C 0.33482(16) 0.3576(7) 0.5037(4)
C18 C 0.42294(14) 0.4627(5) 0.4836(3)
H24 H 0.413787 0.51879 0.417969
C19 C 0.50991(14) 0.5791(5) 0.4590(3)
H25 H 0.518916 0.453599 0.438179
C20 C 0.46508(14) 0.5728(5) 0.5290(3)
H26 H 0.475617 0.511487 0.592368
C21 C 0.7440(2) 0.3961(7) 0.2355(4)
H27 H 0.77907 0.388686 0.238023
C22 C 0.71615(17) 0.3626(6) 0.3202(4)
H28 H 0.732376 0.332349 0.381176
C23 C 0.66473(16) 0.3726(5) 0.3178(4)
C24 C 0.31286(18) 0.6765(7) 0.6312(5)
H29 H 0.300855 0.801341 0.63
H30 H 0.319517 0.64041 0.700633
H31 H 0.287651 0.596665 0.602351
C25 C 0.3153(2) 0.4133(7) 0.4036(5)
H32 H 0.339402 0.381813 0.351503
H33 H 0.30965 0.543956 0.403151
H34 H 0.283977 0.350535 0.390476
C26 C 0.6689(2) 0.4512(7) 0.1436(4)
H35 H 0.652606 0.483405 0.083063
C27 C 0.6414(2) 0.4154(6) 0.2284(4)
H36 H 0.60628 0.420124 0.225471
C28 C 0.7202(3) 0.4408(7) 0.1460(4)
H37 H 0.738953 0.463858 0.087163
H38 H 0.530(2) 0.611(8) 0.141(4)
H39 H 0.513(2) 0.437(9) 0.165(4)
O8 O 0.51662(15) 0.5490(5) 0.1873(2)
loop_
_geom_bond_atom_site_label_1
_geom_bond_atom_site_label_2
_geom_bond_site_symmetry_1
_geom_bond_site_symmetry_2
O1 H1 1_555 1_555
C1 H2 1_555 1_555
O2 C2 1_555 1_555
H3 O3 1_555 1_555
C2 N1 1_555 1_555
N1 C3 1_555 1_555
O3 C1 1_555 1_555
C3 H4 1_555 1_555
H5 O5 1_555 1_555
O4 H6 1_555 1_555
O5 C16 1_555 1_555
H7 N1 1_555 1_555
C4 C3 1_555 1_555
H8 C4 1_555 1_555
C5 C4 1_555 1_555
H9 C5 1_555 1_555
O6 H10 1_555 1_555
C6 C1 1_555 1_555
O7 C17 1_555 1_555
C7 C1 1_555 1_555
H11 C7 1_555 1_555
C8 C3 1_555 1_555
H12 C8 1_555 1_555
H13 C8 1_555 1_555
C9 C2 1_555 1_555
C10 C5 1_555 1_555
H14 C10 1_555 1_555
H15 C10 1_555 1_555
H16 C10 1_555 1_555
C11 C6 1_555 1_555
H17 C11 1_555 1_555
H18 C11 1_555 1_555
C12 O4 1_555 1_555
H19 C12 1_555 1_555
C13 C12 1_555 1_555
H20 C13 1_555 1_555
C14 C13 1_555 1_555
H21 C14 1_555 1_555
H22 C14 1_555 1_555
C15 C14 1_555 1_555
H23 C15 1_555 1_555
C16 C15 1_555 1_555
C17 C16 1_555 1_555
C18 O6 1_555 1_555
H24 C18 1_555 1_555
C19 O1 1_555 1_555
H25 C19 1_555 1_555
C20 C13 1_555 1_555
H26 C20 1_555 1_555
C21 H27 1_555 1_555
C22 C21 1_555 1_555
H28 C22 1_555 1_555
C23 C8 1_555 1_555
C24 C15 1_555 1_555
H29 C24 1_555 1_555
H30 C24 1_555 1_555
H31 C24 1_555 1_555
C25 C17 1_555 1_555
H32 C25 1_555 1_555
H33 C25 1_555 1_555
H34 C25 1_555 1_555
C26 H35 1_555 1_555
C27 C23 1_555 1_555
H36 C27 1_555 1_555
C28 C21 1_555 1_555
H37 C28 1_555 1_555
H38 O8 1_555 1_555
H39 O8 1_555 1_555
C4 C9 1_555 1_555
C5 C6 1_555 1_555
C7 C9 1_555 1_555
C7 C12 1_555 1_555
C9 C19 1_555 1_555
C16 C18 1_555 1_555
C18 C20 1_555 1_555
C19 C20 1_555 1_555
C22 C23 1_555 1_555
C26 C27 1_555 1_555
C26 C28 1_555 1_555

#END
