
#######################################################################
#
#                 Cambridge Crystallographic Data Centre
#                                CCDC 
#
#######################################################################
#
# If this CIF has been generated from an entry in the Cambridge 
# Structural Database, then it will include bibliographic, chemical, 
# crystal, experimental, refinement or atomic coordinate data resulting 
# from the CCDC's data processing and validation procedures.
#
#######################################################################

data_RISHEI
_chemical_formula_moiety         'C22 H15 N1 O1'
_chemical_name_systematic        
1,5-Diphenyl-3-(pyridin-4-yl)penta-1,4-diyn-3-ol
_symmetry_cell_setting           orthorhombic
_symmetry_space_group_name_H-M   'P n m a'
_symmetry_Int_Tables_number      62
_space_group_name_Hall           '-P 2ac 2n'
loop_
_symmetry_equiv_pos_site_id
_symmetry_equiv_pos_as_xyz
1 x,y,z
2 1/2-x,-y,1/2+z
3 -x,1/2+y,-z
4 1/2+x,1/2-y,1/2-z
5 -x,-y,-z
6 1/2+x,y,1/2-z
7 x,1/2-y,z
8 1/2-x,1/2+y,1/2+z
_cell_length_a                   12.0684(16)
_cell_length_b                   18.819(3)
_cell_length_c                   7.5890(10)
_cell_angle_alpha                90
_cell_angle_beta                 90
_cell_angle_gamma                90
_cell_volume                     1723.58
_exptl_crystal_description       plate
_chemical_melting_point          '468 K'
_cell_formula_units_Z            4
loop_
_atom_site_label
_atom_site_type_symbol
_atom_site_fract_x
_atom_site_fract_y
_atom_site_fract_z
O1 O 0.01568(16) 0.7500 1.0942(2)
H1 H 0.0254 0.7500 1.2038
N1 N 0.0600(2) 0.7500 0.4469(3)
C1 C -0.0209(3) 0.7500 0.5607(5)
H2 H -0.0948 0.7500 0.5173
C2 C -0.0050(3) 0.7500 0.7413(4)
H3 H -0.0672 0.7500 0.8180
C3 C 0.0976(2) 0.7500 0.8088(4)
C4 C 0.1820(3) 0.7500 0.6904(4)
H4 H 0.2565 0.7500 0.7309
C5 C 0.1606(3) 0.7500 0.5111(4)
H5 H 0.2214 0.7500 0.4316
C6 C 0.1193(2) 0.7500 1.0084(4)
C7 C 0.18517(17) 0.68621(12) 1.0539(2)
C8 C 0.24208(18) 0.63596(12) 1.0897(3)
C9 C 0.31304(17) 0.57703(11) 1.1333(3)
C10 C 0.40480(18) 0.58713(12) 1.2424(3)
H6 H 0.4196 0.6328 1.2905
C11 C 0.4736(2) 0.53104(15) 1.2803(3)
H7 H 0.5365 0.5382 1.3533
C12 C 0.4519(2) 0.46468(15) 1.2134(4)
H8 H 0.4994 0.4260 1.2415
C13 C 0.3618(2) 0.45410(14) 1.1060(4)
H9 H 0.3473 0.4081 1.0596
C14 C 0.29203(19) 0.50993(12) 1.0649(3)
H10 H 0.2299 0.5024 0.9903
C7F C 0.18517(17) 0.81379(12) 1.0539(2)
C8F C 0.24208(18) 0.86404(12) 1.0897(3)
C9F C 0.31304(17) 0.92297(11) 1.1333(3)
C10F C 0.40480(18) 0.91287(12) 1.2424(3)
H6F H 0.4196 0.8672 1.2905
C11F C 0.4736(2) 0.96896(15) 1.2803(3)
H7F H 0.5365 0.9618 1.3533
C12F C 0.4519(2) 1.03532(15) 1.2134(4)
H8F H 0.4994 1.0740 1.2415
C13F C 0.3618(2) 1.04590(14) 1.1060(4)
H9F H 0.3473 1.0919 1.0596
C14F C 0.29203(19) 0.99007(12) 1.0649(3)
H10F H 0.2299 0.9976 0.9903
loop_
_geom_bond_atom_site_label_1
_geom_bond_atom_site_label_2
_geom_bond_site_symmetry_1
_geom_bond_site_symmetry_2
O1 H1 1_555 1_555
N1 C1 1_555 1_555
C1 H2 1_555 1_555
C2 C1 1_555 1_555
H3 C2 1_555 1_555
C3 C2 1_555 1_555
C4 C3 1_555 1_555
H4 C4 1_555 1_555
C5 N1 1_555 1_555
H5 C5 1_555 1_555
C6 O1 1_555 1_555
C7 C6 1_555 1_555
C8 C7 1_555 1_555
C9 C8 1_555 1_555
C10 C9 1_555 1_555
H6 C10 1_555 1_555
C11 C10 1_555 1_555
H7 C11 1_555 1_555
C12 C11 1_555 1_555
H8 C12 1_555 1_555
C13 C12 1_555 1_555
H9 C13 1_555 1_555
C14 C9 1_555 1_555
H10 C14 1_555 1_555
C7F C6 1_555 1_555
C8F C7F 1_555 1_555
C9F C8F 1_555 1_555
C10F C9F 1_555 1_555
H6F C10F 1_555 1_555
C11F C10F 1_555 1_555
H7F C11F 1_555 1_555
C12F C11F 1_555 1_555
H8F C12F 1_555 1_555
C13F C12F 1_555 1_555
H9F C13F 1_555 1_555
C14F C9F 1_555 1_555
H10F C14F 1_555 1_555
C3 C6 1_555 1_555
C4 C5 1_555 1_555
C13 C14 1_555 1_555
C13F C14F 1_555 1_555

#END
