
#######################################################################
#
#                 Cambridge Crystallographic Data Centre
#                                CCDC 
#
#######################################################################
#
# If this CIF has been generated from an entry in the Cambridge 
# Structural Database, then it will include bibliographic, chemical, 
# crystal, experimental, refinement or atomic coordinate data resulting 
# from the CCDC's data processing and validation procedures.
#
#######################################################################

data_RISJUB
_chemical_formula_moiety         'C29 H21 N1 O3'
_chemical_name_systematic        
1-(benzenecarbonyl)-2-(2-oxo-2-phenylethyl)-2-phenyl-1,2-dihydro-3H-indol-3-one
_symmetry_cell_setting           monoclinic
_symmetry_space_group_name_H-M   'P 21/n'
_symmetry_Int_Tables_number      14
_space_group_name_Hall           '-P 2yn'
loop_
_symmetry_equiv_pos_site_id
_symmetry_equiv_pos_as_xyz
1 x,y,z
2 1/2-x,1/2+y,1/2-z
3 -x,-y,-z
4 1/2+x,1/2-y,1/2+z
_cell_length_a                   15.1567(17)
_cell_length_b                   8.8569(9)
_cell_length_c                   17.1329(19)
_cell_angle_alpha                90
_cell_angle_beta                 101.178(3)
_cell_angle_gamma                90
_cell_volume                     2256.31
_exptl_crystal_colour            colorless
_exptl_crystal_description       block
_cell_formula_units_Z            4
loop_
_atom_site_label
_atom_site_type_symbol
_atom_site_fract_x
_atom_site_fract_y
_atom_site_fract_z
C1 C 0.85064(15) 0.5351(2) 0.55720(13)
O1 O 0.77155(11) 0.46231(18) 0.73197(10)
N1 N 0.83094(12) 0.37853(19) 0.54763(10)
O2 O 0.82667(13) 0.15193(18) 0.48632(10)
C2 C 0.88790(16) 0.6335(3) 0.50918(15)
H1 H 0.906140 0.599613 0.463424
O3 O 0.64183(12) 0.42531(19) 0.55398(12)
C3 C 0.89681(18) 0.7827(3) 0.53175(17)
H2 H 0.919525 0.850518 0.499186
C4 C 0.87342(18) 0.8360(3) 0.60077(17)
H3 H 0.879592 0.937984 0.613520
C5 C 0.84113(17) 0.7381(3) 0.65030(16)
H4 H 0.826850 0.771661 0.697761
C6 C 0.83016(15) 0.5872(2) 0.62809(14)
C7 C 0.79885(15) 0.4615(2) 0.66992(14)
C8 C 0.89373(14) 0.2358(2) 0.67196(13)
C9 C 0.81167(14) 0.3162(2) 0.62351(12)
C10 C 0.88860(17) 0.1773(3) 0.74611(14)
H5 H 0.835965 0.189445 0.765720
C11 C 0.9600(2) 0.1019(3) 0.79099(18)
H6 H 0.955403 0.062931 0.840457
C12 C 1.0377(2) 0.0841(4) 0.7628(2)
H7 H 1.085644 0.031053 0.792607
C13 C 1.04515(19) 0.1444(4) 0.6907(2)
H8 H 1.098618 0.134120 0.672228
C14 C 0.97344(16) 0.2203(3) 0.64537(16)
H9 H 0.979016 0.261246 0.596581
C15 C 0.88288(19) 0.3206(3) 0.35578(16)
H10 H 0.922872 0.241898 0.371967
C16 C 0.8825(3) 0.3926(5) 0.28413(19)
H11 H 0.923142 0.363858 0.252647
C17 C 0.8227(3) 0.5055(5) 0.2596(2)
H12 H 0.823450 0.554303 0.211685
C18 C 0.7617(2) 0.5480(4) 0.3045(2)
H13 H 0.720037 0.623489 0.286483
C19 C 0.76192(18) 0.4781(3) 0.37749(16)
H14 H 0.720733 0.506998 0.408448
C20 C 0.82359(16) 0.3659(3) 0.40341(14)
C21 C 0.82740(16) 0.2893(3) 0.48109(14)
C22 C 0.72735(14) 0.2173(2) 0.61340(13)
H15 H 0.734830 0.132664 0.579352
H16 H 0.722435 0.176882 0.664997
C23 C 0.64063(15) 0.2970(3) 0.57858(14)
C24 C 0.55393(15) 0.2149(2) 0.57573(13)
C25 C 0.47505(17) 0.2827(3) 0.53707(16)
H17 H 0.477252 0.377575 0.514310
C26 C 0.39339(18) 0.2111(3) 0.53194(17)
H18 H 0.340939 0.257731 0.505846
C27 C 0.38942(18) 0.0710(3) 0.56528(16)
H19 H 0.334362 0.022388 0.561473
C28 C 0.46697(18) 0.0026(3) 0.60436(15)
H20 H 0.464103 -0.091858 0.627486
C29 C 0.54901(16) 0.0733(3) 0.60942(14)
H21 H 0.601222 0.025901 0.635489
loop_
_geom_bond_atom_site_label_1
_geom_bond_atom_site_label_2
_geom_bond_site_symmetry_1
_geom_bond_site_symmetry_2
C1 N1 1_555 1_555
O1 C7 1_555 1_555
N1 C9 1_555 1_555
O2 C21 1_555 1_555
C2 C1 1_555 1_555
H1 C2 1_555 1_555
O3 C23 1_555 1_555
C3 C2 1_555 1_555
H2 C3 1_555 1_555
C4 C3 1_555 1_555
H3 C4 1_555 1_555
C5 C4 1_555 1_555
H4 C5 1_555 1_555
C6 C1 1_555 1_555
C7 C6 1_555 1_555
C8 C9 1_555 1_555
C9 C7 1_555 1_555
C10 C8 1_555 1_555
H5 C10 1_555 1_555
C11 C10 1_555 1_555
H6 C11 1_555 1_555
C12 C11 1_555 1_555
H7 C12 1_555 1_555
C13 C12 1_555 1_555
H8 C13 1_555 1_555
C14 C8 1_555 1_555
H9 C14 1_555 1_555
C15 H10 1_555 1_555
C16 C15 1_555 1_555
H11 C16 1_555 1_555
C17 C16 1_555 1_555
H12 C17 1_555 1_555
C18 C17 1_555 1_555
H13 C18 1_555 1_555
C19 C18 1_555 1_555
H14 C19 1_555 1_555
C20 C15 1_555 1_555
C21 N1 1_555 1_555
C22 C9 1_555 1_555
H15 C22 1_555 1_555
H16 C22 1_555 1_555
C23 C22 1_555 1_555
C24 C23 1_555 1_555
C25 C24 1_555 1_555
H17 C25 1_555 1_555
C26 C25 1_555 1_555
H18 C26 1_555 1_555
C27 C26 1_555 1_555
H19 C27 1_555 1_555
C28 C27 1_555 1_555
H20 C28 1_555 1_555
C29 C24 1_555 1_555
H21 C29 1_555 1_555
C5 C6 1_555 1_555
C13 C14 1_555 1_555
C19 C20 1_555 1_555
C20 C21 1_555 1_555
C28 C29 1_555 1_555

#END
