
#######################################################################
#
#                 Cambridge Crystallographic Data Centre
#                                CCDC 
#
#######################################################################
#
# If this CIF has been generated from an entry in the Cambridge 
# Structural Database, then it will include bibliographic, chemical, 
# crystal, experimental, refinement or atomic coordinate data resulting 
# from the CCDC's data processing and validation procedures.
#
#######################################################################

data_RISSUK
_chemical_formula_moiety         'C18 H14 Cl1 N1 O3'
_chemical_name_systematic        
4-chloro-1-methyl-3'-phenyl-5'H-spiro[indole-3,2'-oxolane]-2,5'(1H)-dione
_symmetry_cell_setting           monoclinic
_symmetry_space_group_name_H-M   'P 21'
_symmetry_Int_Tables_number      4
_space_group_name_Hall           'P 2yb'
loop_
_symmetry_equiv_pos_site_id
_symmetry_equiv_pos_as_xyz
1 x,y,z
2 -x,1/2+y,-z
_cell_length_a                   9.8920(7)
_cell_length_b                   6.7802(4)
_cell_length_c                   11.6465(8)
_cell_angle_alpha                90
_cell_angle_beta                 90.292(8)
_cell_angle_gamma                90
_cell_volume                     781.118
_exptl_crystal_colour            colorless
_exptl_crystal_description       needle
_cell_formula_units_Z            2
loop_
_atom_site_label
_atom_site_type_symbol
_atom_site_fract_x
_atom_site_fract_y
_atom_site_fract_z
Cl1 Cl -0.49184(11) -0.48543(16) -0.24970(9)
O1 O -0.7829(3) -1.2163(4) -0.2690(2)
O2 O -0.5445(2) -0.9650(4) -0.2206(2)
O3 O -0.4443(3) -1.0761(4) -0.0618(3)
N1 N -0.7982(3) -0.9932(5) -0.4175(2)
C1 C -0.7394(4) -0.8103(5) -0.4442(3)
C2 C -0.7465(4) -0.7080(6) -0.5461(3)
H1 H -0.7982 -0.7540 -0.6074
C3 C -0.6732(4) -0.5329(6) -0.5542(3)
H2 H -0.6770 -0.4601 -0.6218
C4 C -0.5952(4) -0.4658(6) -0.4639(3)
H3 H -0.5454 -0.3502 -0.4712
C5 C -0.5913(4) -0.5721(5) -0.3617(3)
C6 C -0.6625(4) -0.7429(5) -0.3516(3)
C7 C -0.6749(4) -0.8915(5) -0.2557(3)
C8 C -0.7579(4) -1.0589(5) -0.3115(3)
C9 C -0.8809(5) -1.1114(7) -0.4956(4)
H4 H -0.9602 -1.0383 -0.5171
H5 H -0.9072 -1.2314 -0.4580
H6 H -0.8297 -1.1424 -0.5630
C10 C -0.5433(4) -1.0085(6) -0.1055(3)
C11 C -0.6776(4) -0.9607(7) -0.0555(3)
H7 H -0.6675 -0.8988 0.0191
H8 H -0.7321 -1.0787 -0.0474
C12 C -0.7413(4) -0.8187(5) -0.1416(3)
H9 H -0.7066 -0.6863 -0.1251
C13 C -0.8940(4) -0.8067(5) -0.1468(3)
C14 C -0.9539(4) -0.6320(6) -0.1839(3)
H10 H -0.9000 -0.5252 -0.2040
C15 C -1.0938(5) -0.6161(7) -0.1912(4)
H11 H -1.1325 -0.4980 -0.2152
C16 C -1.1752(5) -0.7718(7) -0.1635(3)
H12 H -1.2687 -0.7603 -0.1699
C17 C -1.1183(4) -0.9454(7) -0.1262(4)
H13 H -1.1731 -1.0513 -0.1062
C18 C -0.9790(4) -0.9621(6) -0.1183(3)
H14 H -0.9415 -1.0804 -0.0933
loop_
_geom_bond_atom_site_label_1
_geom_bond_atom_site_label_2
_geom_bond_site_symmetry_1
_geom_bond_site_symmetry_2
Cl1 C5 1_555 1_555
O1 C8 1_555 1_555
O2 C7 1_555 1_555
O3 C10 1_555 1_555
N1 C1 1_555 1_555
C1 C2 1_555 1_555
C2 H1 1_555 1_555
C3 C2 1_555 1_555
H2 C3 1_555 1_555
C4 C3 1_555 1_555
H3 C4 1_555 1_555
C5 C4 1_555 1_555
C6 C1 1_555 1_555
C7 C6 1_555 1_555
C8 N1 1_555 1_555
C9 N1 1_555 1_555
H4 C9 1_555 1_555
H5 C9 1_555 1_555
H6 C9 1_555 1_555
C10 O2 1_555 1_555
C11 C10 1_555 1_555
H7 C11 1_555 1_555
H8 C11 1_555 1_555
C12 C7 1_555 1_555
H9 C12 1_555 1_555
C13 C12 1_555 1_555
C14 C13 1_555 1_555
H10 C14 1_555 1_555
C15 C14 1_555 1_555
H11 C15 1_555 1_555
C16 C15 1_555 1_555
H12 C16 1_555 1_555
C17 C16 1_555 1_555
H13 C17 1_555 1_555
C18 C13 1_555 1_555
H14 C18 1_555 1_555
C5 C6 1_555 1_555
C7 C8 1_555 1_555
C11 C12 1_555 1_555
C17 C18 1_555 1_555

#END
