
#######################################################################
#
#                 Cambridge Crystallographic Data Centre
#                                CCDC 
#
#######################################################################
#
# If this CIF has been generated from an entry in the Cambridge 
# Structural Database, then it will include bibliographic, chemical, 
# crystal, experimental, refinement or atomic coordinate data resulting 
# from the CCDC's data processing and validation procedures.
#
#######################################################################

data_RISVIA
_chemical_formula_moiety         'C17 H24 O6'
_chemical_name_systematic        
'8,9-Dihydroxy-3,6,9-trimethyl-2-oxo-2,3,3a,4,5,7,8,9,9a,9b-decahydroazuleno[4,5-b]furan-4-yl acetate'
_symmetry_cell_setting           monoclinic
_symmetry_space_group_name_H-M   'P 21'
_symmetry_Int_Tables_number      4
_space_group_name_Hall           'P 2yb'
loop_
_symmetry_equiv_pos_site_id
_symmetry_equiv_pos_as_xyz
1 x,y,z
2 -x,1/2+y,-z
_cell_length_a                   10.160(9)
_cell_length_b                   8.059(9)
_cell_length_c                   11.068(9)
_cell_angle_alpha                90
_cell_angle_beta                 115.983(16)
_cell_angle_gamma                90
_cell_volume                     814.642
_exptl_crystal_colour            colorless
_exptl_crystal_description       Prism
_cell_formula_units_Z            2
loop_
_atom_site_label
_atom_site_type_symbol
_atom_site_fract_x
_atom_site_fract_y
_atom_site_fract_z
O1 O 0.88618(17) 0.5519(2) 1.05472(16)
H1 H 0.8976 0.5786 1.1302
O2 O 0.82326(18) 0.1569(2) 0.88243(18)
H2 H 0.9073 0.1284 0.9006
O3 O 0.62367(15) 0.2951(2) 0.60575(14)
O4 O 0.5431(2) 0.2824(3) 0.38446(16)
O5 O 0.15638(14) 0.3068(2) 0.58355(14)
O6 O 0.0776(2) 0.1138(3) 0.68076(18)
C1 C 0.8681(2) 0.3756(3) 1.0395(2)
H3 H 0.9594 0.3178 1.0959
C2 C 0.7441(2) 0.3164(3) 1.0690(2)
H4 H 0.7418 0.3777 1.1434
H5 H 0.7543 0.1991 1.0909
C3 C 0.6057(2) 0.3488(3) 0.93945(19)
C4 C 0.4731(2) 0.3527(3) 0.9332(2)
C5 C 0.3334(2) 0.3890(3) 0.8064(2)
H6 H 0.2507 0.3753 0.8271
H7 H 0.3354 0.5043 0.7822
C6 C 0.3075(2) 0.2827(3) 0.68504(19)
H8 H 0.3243 0.1656 0.7112
C7 C 0.4033(2) 0.3343(3) 0.61948(18)
H9 H 0.4017 0.4557 0.6137
C8 C 0.3690(2) 0.2642(3) 0.4799(2)
H10 H 0.3449 0.1462 0.4784
C9 C 0.5157(3) 0.2791(3) 0.4786(2)
C10 C 0.5618(2) 0.2792(3) 0.70139(18)
H11 H 0.5629 0.1621 0.7256
C11 C 0.6518(2) 0.3779(3) 0.82688(19)
H12 H 0.6408 0.4962 0.8040
C12 C 0.8173(2) 0.3339(3) 0.8916(2)
C13 C 0.4454(3) 0.3275(4) 1.0544(2)
H13 H 0.5364 0.3062 1.1315
H14 H 0.3808 0.2347 1.0395
H15 H 0.4011 0.4255 1.0699
C14 C 0.0535(2) 0.2126(3) 0.5927(2)
C15 C -0.0945(3) 0.2444(4) 0.4796(3)
H16 H -0.1657 0.1747 0.4898
H17 H -0.0922 0.2202 0.3956
H18 H -0.1205 0.3587 0.4809
C16 C 0.2504(3) 0.3474(4) 0.3588(2)
H19 H 0.2401 0.2914 0.2786
H20 H 0.2763 0.4612 0.3554
H21 H 0.1594 0.3424 0.3655
C17 C 0.9069(3) 0.4185(4) 0.8309(2)
H22 H 1.0071 0.3835 0.8774
H23 H 0.9014 0.5366 0.8392
H24 H 0.8693 0.3892 0.7377
loop_
_geom_bond_atom_site_label_1
_geom_bond_atom_site_label_2
_geom_bond_site_symmetry_1
_geom_bond_site_symmetry_2
O1 H1 1_555 1_555
O2 H2 1_555 1_555
O3 C9 1_555 1_555
O4 C9 1_555 1_555
O5 C6 1_555 1_555
O6 C14 1_555 1_555
C1 O1 1_555 1_555
H3 C1 1_555 1_555
C2 C1 1_555 1_555
H4 C2 1_555 1_555
H5 C2 1_555 1_555
C3 C2 1_555 1_555
C4 C3 1_555 1_555
C5 C4 1_555 1_555
H6 C5 1_555 1_555
H7 C5 1_555 1_555
C6 C5 1_555 1_555
H8 C6 1_555 1_555
C7 C6 1_555 1_555
H9 C7 1_555 1_555
C8 C7 1_555 1_555
H10 C8 1_555 1_555
C9 C8 1_555 1_555
C10 O3 1_555 1_555
H11 C10 1_555 1_555
C11 C3 1_555 1_555
H12 C11 1_555 1_555
C12 O2 1_555 1_555
C13 C4 1_555 1_555
H13 C13 1_555 1_555
H14 C13 1_555 1_555
H15 C13 1_555 1_555
C14 O5 1_555 1_555
C15 C14 1_555 1_555
H16 C15 1_555 1_555
H17 C15 1_555 1_555
H18 C15 1_555 1_555
C16 C8 1_555 1_555
H19 C16 1_555 1_555
H20 C16 1_555 1_555
H21 C16 1_555 1_555
C17 C12 1_555 1_555
H22 C17 1_555 1_555
H23 C17 1_555 1_555
H24 C17 1_555 1_555
C1 C12 1_555 1_555
C7 C10 1_555 1_555
C10 C11 1_555 1_555
C11 C12 1_555 1_555

#END
