
#######################################################################
#
#                 Cambridge Crystallographic Data Centre
#                                CCDC 
#
#######################################################################
#
# If this CIF has been generated from an entry in the Cambridge 
# Structural Database, then it will include bibliographic, chemical, 
# crystal, experimental, refinement or atomic coordinate data resulting 
# from the CCDC's data processing and validation procedures.
#
#######################################################################

data_RISVEW
_chemical_formula_moiety         'C37 H44 N4 O9,2(C2 H6 O1 S1)'
_chemical_name_systematic        
'N-(2,3,5,6,8,9,11,12,14,15-Decahydro-1,4,7,10,13,16-benzohexaoxacyclooctadecin-18-yl)-4-isobutoxy-8-((phenylcarbamoyl)amino)quinoline-2-carboxamide dimethyl sulfoxide solvate'
_symmetry_cell_setting           triclinic
_symmetry_space_group_name_H-M   'P -1'
_symmetry_Int_Tables_number      2
_space_group_name_Hall           '-P 1'
loop_
_symmetry_equiv_pos_site_id
_symmetry_equiv_pos_as_xyz
1 x,y,z
2 -x,-y,-z
_cell_length_a                   11.9166(16)
_cell_length_b                   13.5384(18)
_cell_length_c                   13.9031(19)
_cell_angle_alpha                83.641(3)
_cell_angle_beta                 73.138(3)
_cell_angle_gamma                82.993(3)
_cell_volume                     2123.82
_exptl_crystal_colour            colorless
_exptl_crystal_description       Plate
_cell_formula_units_Z            2
loop_
_atom_site_label
_atom_site_type_symbol
_atom_site_fract_x
_atom_site_fract_y
_atom_site_fract_z
O1 O 0.47546(15) 0.69406(13) 0.53153(13)
O2 O 0.07304(17) 0.28371(14) 0.57691(14)
O3 O 0.31833(16) 0.80245(13) 0.23022(14)
O4 O -0.06094(15) 0.63651(12) 0.03707(13)
O5 O -0.29429(15) 0.58005(12) 0.08969(13)
O6 O -0.47449(15) 0.64342(13) -0.01927(13)
O7 O -0.42070(15) 0.83709(13) -0.10308(14)
O8 O -0.19655(15) 0.92078(13) -0.13579(13)
O9 O -0.00906(15) 0.80268(12) -0.07879(13)
N1 N 0.24093(18) 0.59245(15) 0.40350(15)
H1 H 0.148(2) 0.6428(19) 0.2823(19)
N2 N 0.13372(19) 0.42752(16) 0.48227(17)
H2 H 0.129(2) 0.463(2) 0.427(2)
N3 N 0.0175(2) 0.33432(17) 0.43310(18)
H3 H 0.030(2) 0.377(2) 0.384(2)
N4 N 0.17815(19) 0.69600(16) 0.24645(16)
C1 C 0.2694(2) 0.54322(18) 0.48587(18)
C2 C 0.3501(2) 0.57517(18) 0.52941(19)
C3 C 0.4023(2) 0.66476(19) 0.4850(2)
C4 C 0.3743(2) 0.71390(19) 0.40205(19)
H4 H 0.4091 0.7731 0.3706
C5 C 0.2934(2) 0.67450(18) 0.36506(19)
C6 C 0.2122(2) 0.45451(18) 0.52907(19)
C7 C 0.2384(2) 0.40330(19) 0.6124(2)
H5 H 0.2000 0.3455 0.6427
C8 C 0.3214(2) 0.43568(19) 0.6530(2)
H6 H 0.3400 0.3980 0.7092
C9 C 0.3761(2) 0.51999(19) 0.61383(19)
H7 H 0.4310 0.5413 0.6430
C10 C 0.5260(2) 0.78692(19) 0.4946(2)
H8 H 0.4634 0.8411 0.4904
H9 H 0.5817 0.7813 0.4266
C11 C 0.5897(2) 0.8090(2) 0.5681(2)
H10 H 0.6475 0.7503 0.5747
C12 C 0.5044(3) 0.8234(2) 0.6716(2)
H11 H 0.4500 0.8832 0.6676
H12 H 0.5485 0.8315 0.7193
H13 H 0.4597 0.7650 0.6946
C13 C 0.6581(3) 0.8999(2) 0.5271(2)
H14 H 0.7162 0.8863 0.4627
H15 H 0.6986 0.9142 0.5754
H16 H 0.6035 0.9576 0.5168
C14 C 0.0738(2) 0.34302(19) 0.5037(2)
C15 C -0.0521(2) 0.25923(19) 0.4282(2)
C16 C -0.0595(2) 0.1699(2) 0.4882(2)
H17 H -0.0176 0.1565 0.5376
C17 C -0.1291(3) 0.1003(2) 0.4747(2)
H18 H -0.1347 0.0391 0.5157
C18 C -0.1900(2) 0.1178(2) 0.4035(2)
H19 H -0.2368 0.0690 0.3952
C19 C -0.1827(2) 0.2069(2) 0.3439(2)
H20 H -0.2248 0.2199 0.2946
C20 C -0.1142(2) 0.2770(2) 0.3562(2)
H21 H -0.1092 0.3382 0.3151
C21 C 0.2642(2) 0.73121(18) 0.27420(19)
C22 C 0.1340(2) 0.72993(18) 0.16338(19)
C23 C 0.0587(2) 0.66942(18) 0.14228(19)
H22 H 0.0386 0.6103 0.1845
C24 C 0.0131(2) 0.69379(18) 0.06137(19)
C25 C 0.0419(2) 0.78176(18) -0.00084(18)
C26 C 0.1167(2) 0.84082(18) 0.02072(19)
H23 H 0.1378 0.8995 -0.0218
C27 C 0.1621(2) 0.81683(18) 0.10281(19)
H24 H 0.2118 0.8595 0.1172
C28 C -0.1003(2) 0.55433(18) 0.10911(19)
H25 H -0.1314 0.5781 0.1775
H26 H -0.0333 0.5033 0.1092
C29 C -0.1947(2) 0.50940(18) 0.0821(2)
H27 H -0.1647 0.4887 0.0124
H28 H -0.2173 0.4494 0.1281
C30 C -0.3977(2) 0.53377(19) 0.0964(2)
H29 H -0.4227 0.4950 0.1624
H30 H -0.3810 0.4872 0.0427
C31 C -0.4939(2) 0.6122(2) 0.0848(2)
H31 H -0.5713 0.5849 0.1117
H32 H -0.4939 0.6698 0.1229
C32 C -0.5612(2) 0.71916(19) -0.0393(2)
H33 H -0.6382 0.7079 0.0098
H34 H -0.5686 0.7132 -0.1075
C33 C -0.5331(2) 0.82336(19) -0.0335(2)
H35 H -0.5939 0.8728 -0.0511
H36 H -0.5315 0.8326 0.0357
C34 C -0.4000(2) 0.93946(19) -0.1272(2)
H37 H -0.4097 0.9723 -0.0647
H38 H -0.4575 0.9740 -0.1616
C35 C -0.2769(2) 0.94581(19) -0.1949(2)
H39 H -0.2606 0.8990 -0.2483
H40 H -0.2679 1.0143 -0.2276
C36 C -0.0775(2) 0.91960(19) -0.19533(19)
H41 H -0.0644 0.9842 -0.2359
H42 H -0.0595 0.8660 -0.2420
C37 C 0.0011(2) 0.90194(18) -0.12738(19)
H43 H 0.0837 0.9093 -0.1670
H44 H -0.0222 0.9515 -0.0761
S1 S 0.21335(6) 0.43874(5) 0.18766(5)
O10 O 0.10506(15) 0.47291(12) 0.27024(13)
C38 C 0.1854(2) 0.32314(19) 0.1549(2)
H45 H 0.1574 0.2795 0.2163
H46 H 0.2581 0.2913 0.1118
H47 H 0.1252 0.3347 0.1185
C39 C 0.3221(2) 0.3927(2) 0.2496(2)
H48 H 0.3439 0.4477 0.2787
H49 H 0.3918 0.3631 0.2009
H50 H 0.2908 0.3418 0.3034
S2 S 0.78051(11) 0.92188(8) 0.13088(9)
O11 O 0.6975(2) 1.00951(15) 0.16677(18)
C40 C 0.7094(3) 0.8280(2) 0.1135(2)
H51 H 0.6371 0.8221 0.1689
H52 H 0.7604 0.7653 0.1120
H53 H 0.6895 0.8419 0.0494
C41 C 0.8304(3) 0.8685(2) 0.2381(2)
H54 H 0.8664 0.9189 0.2616
H55 H 0.8885 0.8113 0.2183
H56 H 0.7631 0.8462 0.2924
S3? S 0.70366(15) 0.91206(13) 0.21476(13)
O12? O 0.6975(2) 1.00951(15) 0.16677(18)
C42? C 0.7094(3) 0.8280(2) 0.1135(2)
H57? H 0.6682 0.8633 0.0662
H58? H 0.6713 0.7676 0.1444
H59? H 0.7917 0.8096 0.0771
C43? C 0.8304(3) 0.8685(2) 0.2381(2)
H60? H 0.8934 0.8676 0.1746
H61? H 0.8240 0.8005 0.2705
H62? H 0.8480 0.9116 0.2829
loop_
_geom_bond_atom_site_label_1
_geom_bond_atom_site_label_2
_geom_bond_site_symmetry_1
_geom_bond_site_symmetry_2
O1 C3 1_555 1_555
O2 C14 1_555 1_555
O3 C21 1_555 1_555
O4 C24 1_555 1_555
O5 C29 1_555 1_555
O6 C31 1_555 1_555
O7 C33 1_555 1_555
O8 C35 1_555 1_555
O9 C25 1_555 1_555
N1 C1 1_555 1_555
H1 N4 1_555 1_555
N2 H2 1_555 1_555
N3 H3 1_555 1_555
N4 C21 1_555 1_555
C1 C2 1_555 1_555
C2 C3 1_555 1_555
C3 C4 1_555 1_555
C4 H4 1_555 1_555
C5 N1 1_555 1_555
C6 N2 1_555 1_555
C7 C6 1_555 1_555
H5 C7 1_555 1_555
C8 C7 1_555 1_555
H6 C8 1_555 1_555
C9 C2 1_555 1_555
H7 C9 1_555 1_555
C10 O1 1_555 1_555
H8 C10 1_555 1_555
H9 C10 1_555 1_555
C11 C10 1_555 1_555
H10 C11 1_555 1_555
C12 C11 1_555 1_555
H11 C12 1_555 1_555
H12 C12 1_555 1_555
H13 C12 1_555 1_555
C13 C11 1_555 1_555
H14 C13 1_555 1_555
H15 C13 1_555 1_555
H16 C13 1_555 1_555
C14 N2 1_555 1_555
C15 N3 1_555 1_555
C16 C15 1_555 1_555
H17 C16 1_555 1_555
C17 C16 1_555 1_555
H18 C17 1_555 1_555
C18 C17 1_555 1_555
H19 C18 1_555 1_555
C19 C18 1_555 1_555
H20 C19 1_555 1_555
C20 C15 1_555 1_555
H21 C20 1_555 1_555
C21 C5 1_555 1_555
C22 N4 1_555 1_555
C23 C22 1_555 1_555
H22 C23 1_555 1_555
C24 C23 1_555 1_555
C25 C24 1_555 1_555
C26 C25 1_555 1_555
H23 C26 1_555 1_555
C27 C22 1_555 1_555
H24 C27 1_555 1_555
C28 O4 1_555 1_555
H25 C28 1_555 1_555
H26 C28 1_555 1_555
C29 C28 1_555 1_555
H27 C29 1_555 1_555
H28 C29 1_555 1_555
C30 O5 1_555 1_555
H29 C30 1_555 1_555
H30 C30 1_555 1_555
C31 C30 1_555 1_555
H31 C31 1_555 1_555
H32 C31 1_555 1_555
C32 O6 1_555 1_555
H33 C32 1_555 1_555
H34 C32 1_555 1_555
C33 C32 1_555 1_555
H35 C33 1_555 1_555
H36 C33 1_555 1_555
C34 O7 1_555 1_555
H37 C34 1_555 1_555
H38 C34 1_555 1_555
C35 C34 1_555 1_555
H39 C35 1_555 1_555
H40 C35 1_555 1_555
C36 O8 1_555 1_555
H41 C36 1_555 1_555
H42 C36 1_555 1_555
C37 O9 1_555 1_555
H43 C37 1_555 1_555
H44 C37 1_555 1_555
S1 O10 1_555 1_555
C38 S1 1_555 1_555
H45 C38 1_555 1_555
H46 C38 1_555 1_555
H47 C38 1_555 1_555
C39 S1 1_555 1_555
H48 C39 1_555 1_555
H49 C39 1_555 1_555
H50 C39 1_555 1_555
S2 O11 1_555 1_555
C40 S2 1_555 1_555
H51 C40 1_555 1_555
H52 C40 1_555 1_555
H53 C40 1_555 1_555
C41 S2 1_555 1_555
H54 C41 1_555 1_555
H55 C41 1_555 1_555
H56 C41 1_555 1_555
N3 C14 1_555 1_555
C1 C6 1_555 1_555
C4 C5 1_555 1_555
C8 C9 1_555 1_555
C19 C20 1_555 1_555
C26 C27 1_555 1_555
C36 C37 1_555 1_555

#END
