
#######################################################################
#
#                 Cambridge Crystallographic Data Centre
#                                CCDC 
#
#######################################################################
#
# If this CIF has been generated from an entry in the Cambridge 
# Structural Database, then it will include bibliographic, chemical, 
# crystal, experimental, refinement or atomic coordinate data resulting 
# from the CCDC's data processing and validation procedures.
#
#######################################################################

data_RISWUN
_chemical_formula_moiety         'C37 H44 N4 O9,2(C2 H3 N1),0.5(C1 H2 Cl2)'
_chemical_name_systematic        
'N-(2,3,5,6,8,9,11,12,14,15-decahydro-1,4,7,10,13,16-benzohexaoxacyclooctadecin-18-yl)-4-isobutoxy-8-((phenylcarbamoyl)amino)quinoline-2-carboxamide acetonitrile dichloromethane solvate'
_symmetry_cell_setting           triclinic
_symmetry_space_group_name_H-M   'P -1'
_symmetry_Int_Tables_number      2
_space_group_name_Hall           '-P 1'
loop_
_symmetry_equiv_pos_site_id
_symmetry_equiv_pos_as_xyz
1 x,y,z
2 -x,-y,-z
_cell_length_a                   8.1234(5)
_cell_length_b                   14.2466(8)
_cell_length_c                   18.2923(10)
_cell_angle_alpha                89.595(4)
_cell_angle_beta                 81.136(4)
_cell_angle_gamma                88.880(4)
_cell_volume                     2091.28
_exptl_crystal_colour            colorless
_exptl_crystal_description       irregular
_cell_formula_units_Z            2
loop_
_atom_site_label
_atom_site_type_symbol
_atom_site_fract_x
_atom_site_fract_y
_atom_site_fract_z
O1 O 0.8437(3) -0.03465(13) 0.75909(11)
O2 O 0.8543(3) 0.13900(13) 0.71326(11)
O3 O 0.6327(3) 0.22021(15) 0.62257(11)
O4 O 0.3734(3) 0.10100(19) 0.58995(12)
O5 O 0.5343(3) -0.13533(15) 0.76556(14)
O6 O 0.2851(3) -0.04124(17) 0.70135(15)
C1 C 1.6193(4) 0.6587(2) 0.61227(18)
C2 C 1.5557(4) 0.6346(2) 0.68527(16)
C3 C 1.5245(4) 0.5405(2) 0.70280(16)
C4 C 0.8929(4) 0.0299(2) 0.80682(17)
C5 C 1.6214(4) 0.4991(3) 0.57610(18)
C6 C 0.8649(4) 0.2342(2) 0.68613(17)
C7 C 0.8064(5) 0.2361(2) 0.61170(18)
C8 C 0.8123(5) -0.1292(2) 0.78488(19)
C9 C 1.5592(4) 0.4723(2) 0.64813(18)
C10 C 0.6377(5) -0.1415(2) 0.8213(2)
C11 C 0.3846(5) 0.1992(3) 0.5730(2)
C12 C 0.5653(5) 0.2222(3) 0.55538(19)
C13 C 0.2068(5) 0.0761(4) 0.6194(2)
C14 C 0.2694(5) -0.1343(3) 0.7289(3)
C15 C 0.2024(5) -0.0271(4) 0.6390(3)
C16 C 0.3622(5) -0.1434(2) 0.7928(3)
O7 O 1.4819(3) 0.64109(14) 0.84205(11)
O8 O 1.0663(3) 0.46277(13) 1.21725(11)
N1 N 1.4531(3) 0.51006(16) 0.77371(13)
C17 C 0.9538(4) 0.1923(2) 0.82499(17)
N2 N 1.3463(3) 0.51348(15) 0.89722(13)
N3 N 1.0476(3) 0.24507(16) 0.93611(14)
C18 C 0.9720(4) 0.4002(2) 1.27003(18)
C19 C 1.0933(4) 0.4376(2) 1.14543(17)
C20 C 1.4314(4) 0.5616(2) 0.83813(17)
C21 C 1.3158(4) 0.54225(19) 0.97057(16)
N4 N 1.1655(3) 0.39880(16) 0.99289(13)
C22 C 1.2213(4) 0.47996(19) 1.02099(16)
C23 C 0.9966(4) 0.1704(2) 0.89395(17)
C24 C 1.1882(4) 0.5021(2) 1.09710(16)
O9 O 0.9491(3) 0.19202(13) 1.05296(11)
C25 C 1.0372(4) 0.3577(2) 1.11709(17)
C26 C 1.2511(4) 0.5860(2) 1.12253(16)
C27 C 1.3386(4) 0.6451(2) 1.07287(17)
C28 C 1.3720(4) 0.6248(2) 0.99722(17)
C29 C 1.0775(4) 0.34178(19) 1.04041(16)
C30 C 0.9012(4) 0.1233(2) 0.78149(17)
C31 C 1.0182(4) 0.2524(2) 1.01100(17)
C32 C 0.8895(5) 0.3741(3) 1.40485(19)
C33 C 0.9022(5) 0.5385(3) 1.35502(19)
C34 C 0.9920(5) 0.0794(2) 0.91805(19)
C35 C 0.9787(4) 0.4393(2) 1.34634(17)
C36 C 1.6518(4) 0.5917(3) 0.55762(18)
C37 C 0.9380(5) 0.0101(2) 0.8749(2)
H1 H 0.97723 0.31196 1.14666
H2 H 0.62264 0.18139 0.52222
H3 H 0.62998 -0.20473 0.84714
H4 H 1.70294 0.61011 0.50333
H5 H 1.54715 0.40733 0.65948
H6 H 0.95394 0.25219 0.80859
H7 H 0.86720 0.19017 0.57869
H8 H 1.38067 0.70077 1.09198
H9 H 0.82961 0.29854 0.58855
H10 H 1.02490 0.33108 1.26880
H11 H 1.65103 0.44821 0.53943
H12 H 1.42031 0.45155 0.77350
H13 H 1.42386 0.66115 0.96310
H14 H 1.23974 0.60165 1.17395
H15 H 0.61796 -0.08717 0.85818
H16 H 0.56768 0.28686 0.53382
H17 H 0.77477 0.27442 0.71985
H18 H 0.94510 -0.04800 0.87826
H19 H 0.32763 0.21541 0.53049
H20 H 0.32774 0.23705 0.61349
H21 H 0.13529 0.09427 0.58241
H22 H 0.16991 0.11320 0.66201
H23 H 0.26628 -0.03922 0.58859
H24 H 0.09638 -0.05956 0.63694
H25 H 0.31599 -0.18017 0.69746
H26 H 0.15811 -0.14805 0.75089
H27 H 0.34811 -0.20345 0.82148
H28 H 0.33391 -0.09560 0.83271
H29 H 0.97664 0.25514 0.68017
H30 H 1.64026 0.72289 0.59892
H31 H 1.53897 0.68237 0.72344
H32 H 0.85694 0.40064 1.26275
H33 H 1.09802 0.44143 1.35237
H34 H 0.77170 0.38630 1.41108
H35 H 0.92720 0.37713 1.45053
H36 H 0.90454 0.30802 1.38782
H37 H 0.98500 0.58559 1.34980
H38 H 0.83574 0.54468 1.40278
H39 H 0.83149 0.54916 1.31833
H40 H 1.02681 0.06328 0.96561
H41 H 1.30475 0.45490 0.88690
H42 H 1.10729 0.29346 0.90968
H43 H 0.88842 -0.14584 0.81962
H44 H 0.83866 -0.17230 0.74396
N5 N 1.3573(4) 0.3060(2) 0.80016(15)
C38 C 1.3918(4) 0.2284(2) 0.79184(17)
C39 C 1.4324(5) 0.1288(2) 0.78120(18)
H45 H 1.54625 0.11622 0.78643
H46 H 1.41541 0.11033 0.73326
H47 H 1.36319 0.09208 0.81726
N6 N 0.9229(4) -0.1446(2) 0.55615(18)
C40 C 0.8193(5) -0.0931(3) 0.57795(18)
C41 C 0.6835(5) -0.0276(3) 0.60478(19)
H48 H 0.74086 0.02927 0.61734
H49 H 0.60920 -0.01653 0.56815
H50 H 0.62474 -0.06400 0.64402
C42 C 0.5967(9) 0.1001(5) 0.9924(4)
Cl1 Cl 0.3994(2) 0.14641(13) 0.98310(10)
H51 H 0.65300 0.13888 1.02806
H52 H 0.68097 0.10836 0.94578
Cl2A Cl 0.5842(3) -0.01990(15) 1.02176(11)
Cl2 Cl 0.4158(3) 0.01990(15) 0.97824(11)
C42A C 0.4033(9) -0.1001(5) 1.0076(4)
Cl1A Cl 0.6006(2) -0.14641(13) 1.01690(10)
H51A H 0.34700 -0.13888 0.97194
H52A H 0.31903 -0.10836 1.05422
loop_
_geom_bond_atom_site_label_1
_geom_bond_atom_site_label_2
_geom_bond_site_symmetry_1
_geom_bond_site_symmetry_2
O1 C4 1_555 1_555
O2 C6 1_555 1_555
O3 C7 1_555 1_555
O4 C11 1_555 1_555
O5 C10 1_555 1_555
O6 C14 1_555 1_555
C1 C2 1_555 1_555
C2 C3 1_555 1_555
C3 C9 1_555 1_555
C4 C30 1_555 1_555
C5 C9 1_555 1_555
C6 C7 1_555 1_555
C7 H7 1_555 1_555
C8 O1 1_555 1_555
C9 H5 1_555 1_555
C10 C8 1_555 1_555
C11 C12 1_555 1_555
C12 O3 1_555 1_555
C13 O4 1_555 1_555
C14 C16 1_555 1_555
C15 O6 1_555 1_555
C16 O5 1_555 1_555
O7 C20 1_555 1_555
O8 C18 1_555 1_555
N1 C3 1_555 1_555
C17 C23 1_555 1_555
N2 C20 1_555 1_555
N3 C23 1_555 1_555
C18 C35 1_555 1_555
C19 O8 1_555 1_555
C20 N1 1_555 1_555
C21 N2 1_555 1_555
N4 C22 1_555 1_555
C22 C21 1_555 1_555
C23 C34 1_555 1_555
C24 C19 1_555 1_555
O9 C31 1_555 1_555
C25 C19 1_555 1_555
C26 C24 1_555 1_555
C27 C26 1_555 1_555
C28 C21 1_555 1_555
C29 N4 1_555 1_555
C30 O2 1_555 1_555
C31 N3 1_555 1_555
C32 C35 1_555 1_555
C33 C35 1_555 1_555
C34 C37 1_555 1_555
C35 H33 1_555 1_555
C36 C1 1_555 1_555
C37 C4 1_555 1_555
H1 C25 1_555 1_555
H2 C12 1_555 1_555
H3 C10 1_555 1_555
H4 C36 1_555 1_555
H6 C17 1_555 1_555
H8 C27 1_555 1_555
H9 C7 1_555 1_555
H10 C18 1_555 1_555
H11 C5 1_555 1_555
H12 N1 1_555 1_555
H13 C28 1_555 1_555
H14 C26 1_555 1_555
H15 C10 1_555 1_555
H16 C12 1_555 1_555
H17 C6 1_555 1_555
H18 C37 1_555 1_555
H19 C11 1_555 1_555
H20 C11 1_555 1_555
H21 C13 1_555 1_555
H22 C13 1_555 1_555
H23 C15 1_555 1_555
H24 C15 1_555 1_555
H25 C14 1_555 1_555
H26 C14 1_555 1_555
H27 C16 1_555 1_555
H28 C16 1_555 1_555
H29 C6 1_555 1_555
H30 C1 1_555 1_555
H31 C2 1_555 1_555
H32 C18 1_555 1_555
H34 C32 1_555 1_555
H35 C32 1_555 1_555
H36 C32 1_555 1_555
H37 C33 1_555 1_555
H38 C33 1_555 1_555
H39 C33 1_555 1_555
H40 C34 1_555 1_555
H41 N2 1_555 1_555
H42 N3 1_555 1_555
H43 C8 1_555 1_555
H44 C8 1_555 1_555
N5 C38 1_555 1_555
C38 C39 1_555 1_555
C39 H45 1_555 1_555
H46 C39 1_555 1_555
H47 C39 1_555 1_555
N6 C40 1_555 1_555
C40 C41 1_555 1_555
C41 H48 1_555 1_555
H49 C41 1_555 1_555
H50 C41 1_555 1_555
C42 Cl1 1_555 1_555
H51 C42 1_555 1_555
H52 C42 1_555 1_555
Cl2 C42A 1_555 1_555
Cl2A C42 1_555 1_555
C42A Cl1A 1_555 1_555
H51A C42A 1_555 1_555
H52A C42A 1_555 1_555
C5 C36 1_555 1_555
C13 C15 1_555 1_555
C17 C30 1_555 1_555
C22 C24 1_555 1_555
C25 C29 1_555 1_555
C27 C28 1_555 1_555
C29 C31 1_555 1_555

#END
