
#######################################################################
#
#                 Cambridge Crystallographic Data Centre
#                                CCDC 
#
#######################################################################
#
# If this CIF has been generated from an entry in the Cambridge 
# Structural Database, then it will include bibliographic, chemical, 
# crystal, experimental, refinement or atomic coordinate data resulting 
# from the CCDC's data processing and validation procedures.
#
#######################################################################

data_RISZOJ
_chemical_formula_moiety         'C18 H26 N2 2+,2(Br1 1-),2(H2 O1)'
_chemical_name_systematic        
'Octane-1,8-bis(pyridinium) dibromide dihydrate'
_symmetry_cell_setting           orthorhombic
_symmetry_space_group_name_H-M   'P b c a'
_symmetry_Int_Tables_number      61
_space_group_name_Hall           '-P 2ac 2ab'
loop_
_symmetry_equiv_pos_site_id
_symmetry_equiv_pos_as_xyz
1 x,y,z
2 1/2-x,-y,1/2+z
3 1/2+x,1/2-y,-z
4 -x,1/2+y,1/2-z
5 -x,-y,-z
6 1/2+x,y,1/2-z
7 1/2-x,1/2+y,z
8 x,1/2-y,1/2+z
_cell_length_a                   9.8329(7)
_cell_length_b                   13.3000(11)
_cell_length_c                   16.5688(13)
_cell_angle_alpha                90
_cell_angle_beta                 90
_cell_angle_gamma                90
_cell_volume                     2166.83
_exptl_crystal_colour            colorless
_exptl_crystal_description       Prism
_cell_formula_units_Z            4
loop_
_atom_site_label
_atom_site_type_symbol
_atom_site_fract_x
_atom_site_fract_y
_atom_site_fract_z
Br1 Br 0.28891(2) 0.652327(19) 0.328729(15)
N1 N 0.44180(18) 0.35645(13) 0.32104(10)
C1 C 0.3916(3) 0.40288(17) 0.38614(14)
H1 H 0.3246 0.4517 0.3801
C2 C 0.4380(3) 0.3791(2) 0.46131(16)
H2 H 0.4014 0.4105 0.5065
C3 C 0.5389(3) 0.3088(2) 0.46995(16)
H3 H 0.5725 0.2931 0.5209
C4 C 0.5895(3) 0.2622(2) 0.40288(15)
H4 H 0.6582 0.2146 0.4077
C5 C 0.5382(2) 0.28617(18) 0.32886(13)
H5 H 0.5707 0.2532 0.2832
C6 C 0.3864(2) 0.37965(18) 0.23978(13)
H6 H 0.3137 0.4285 0.2453
H7 H 0.3476 0.3189 0.2170
C7 C 0.4916(2) 0.42052(18) 0.18213(12)
H8 H 0.5633 0.3712 0.1749
H9 H 0.5320 0.4808 0.2048
C8 C 0.4286(2) 0.44515(19) 0.10078(13)
H10 H 0.3865 0.3850 0.0791
H11 H 0.3577 0.4950 0.1084
C9 C 0.5310(2) 0.48488(17) 0.04014(12)
H12 H 0.5766 0.5428 0.0633
H13 H 0.5992 0.4335 0.0306
N1D N 0.55820(18) 0.64355(13) -0.32104(10)
C1D C 0.6084(3) 0.59712(17) -0.38614(14)
H1D H 0.6754 0.5483 -0.3801
C2D C 0.5620(3) 0.6209(2) -0.46131(16)
H2D H 0.5986 0.5895 -0.5065
C3D C 0.4611(3) 0.6912(2) -0.46995(16)
H3D H 0.4275 0.7069 -0.5209
C4D C 0.4105(3) 0.7378(2) -0.40288(15)
H4D H 0.3418 0.7854 -0.4077
C5D C 0.4618(2) 0.71383(18) -0.32886(13)
H5D H 0.4293 0.7468 -0.2832
C6D C 0.6136(2) 0.62035(18) -0.23978(13)
H6D H 0.6863 0.5715 -0.2453
H7D H 0.6524 0.6811 -0.2170
C7D C 0.5084(2) 0.57948(18) -0.18213(12)
H8D H 0.4367 0.6288 -0.1749
H9D H 0.4680 0.5192 -0.2048
C8D C 0.5714(2) 0.55485(19) -0.10078(13)
H10D H 0.6135 0.6150 -0.0791
H11D H 0.6423 0.5050 -0.1084
C9D C 0.4690(2) 0.51512(17) -0.04014(12)
H12D H 0.4234 0.4572 -0.0633
H13D H 0.4008 0.5665 -0.0306
O1 O 0.1270(2) 0.6061(2) 0.15455(12)
H14 H 0.0442 0.6131 0.1647
H15 H 0.1689 0.6117 0.1965
loop_
_geom_bond_atom_site_label_1
_geom_bond_atom_site_label_2
_geom_bond_site_symmetry_1
_geom_bond_site_symmetry_2
N1 C1 1_555 1_555
C1 H1 1_555 1_555
C2 C1 1_555 1_555
H2 C2 1_555 1_555
C3 C2 1_555 1_555
H3 C3 1_555 1_555
C4 C3 1_555 1_555
H4 C4 1_555 1_555
C5 N1 1_555 1_555
H5 C5 1_555 1_555
C6 N1 1_555 1_555
H6 C6 1_555 1_555
H7 C6 1_555 1_555
C7 C6 1_555 1_555
H8 C7 1_555 1_555
H9 C7 1_555 1_555
C8 C7 1_555 1_555
H10 C8 1_555 1_555
H11 C8 1_555 1_555
C9 C8 1_555 1_555
H12 C9 1_555 1_555
H13 C9 1_555 1_555
O1 H14 1_555 1_555
H15 O1 1_555 1_555
N1D C1D 1_555 1_555
C1D H1D 1_555 1_555
C2D C1D 1_555 1_555
H2D C2D 1_555 1_555
C3D C2D 1_555 1_555
H3D C3D 1_555 1_555
C4D C3D 1_555 1_555
H4D C4D 1_555 1_555
C5D N1D 1_555 1_555
H5D C5D 1_555 1_555
C6D N1D 1_555 1_555
H6D C6D 1_555 1_555
H7D C6D 1_555 1_555
C7D C6D 1_555 1_555
H8D C7D 1_555 1_555
H9D C7D 1_555 1_555
C8D C7D 1_555 1_555
H10D C8D 1_555 1_555
H11D C8D 1_555 1_555
C9D C9 1_555 1_555
H12D C9D 1_555 1_555
H13D C9D 1_555 1_555
C4 C5 1_555 1_555
C4D C5D 1_555 1_555
C8D C9D 1_555 1_555

#END
