
#######################################################################
#
#                 Cambridge Crystallographic Data Centre
#                                CCDC 
#
#######################################################################
#
# If this CIF has been generated from an entry in the Cambridge 
# Structural Database, then it will include bibliographic, chemical, 
# crystal, experimental, refinement or atomic coordinate data resulting 
# from the CCDC's data processing and validation procedures.
#
#######################################################################

data_RITBIG
_chemical_formula_moiety         'C36 H34 N6 O2 2+,2(F6 P1 1-)'
_chemical_name_systematic        
'9,10-bis(2-(1-(2-Pyridylmethyl)imidazolium-3-yl)ethoxy)anthracene bis(hexafluoridophosphate)'
_symmetry_cell_setting           triclinic
_symmetry_space_group_name_H-M   'P -1'
_symmetry_Int_Tables_number      2
_space_group_name_Hall           '-P 1'
loop_
_symmetry_equiv_pos_site_id
_symmetry_equiv_pos_as_xyz
1 x,y,z
2 -x,-y,-z
_cell_length_a                   8.829(4)
_cell_length_b                   9.811(4)
_cell_length_c                   12.586(5)
_cell_angle_alpha                72.382(7)
_cell_angle_beta                 78.759(7)
_cell_angle_gamma                65.598(7)
_cell_volume                     943.185
_exptl_crystal_colour            yellow
_exptl_crystal_description       Block
_cell_formula_units_Z            1
_exptl_crystal_recrystallization_method acetonitrile
loop_
_atom_site_label
_atom_site_type_symbol
_atom_site_fract_x
_atom_site_fract_y
_atom_site_fract_z
O1 O 0.3505(3) 0.6951(3) 0.80589(19)
N1 N -0.1667(4) 1.0465(4) 0.9161(3)
N2 N -0.1181(4) 1.0404(4) 0.6845(3)
N3 N 0.0945(4) 0.8468(4) 0.6444(2)
C1 C -0.2180(7) 1.0165(6) 1.0243(4)
H1 H -0.1385 0.9512 1.0749
C2 C -0.3809(7) 1.0760(6) 1.0655(4)
H2 H -0.4105 1.0523 1.1420
C3 C -0.4988(6) 1.1708(5) 0.9918(5)
H3 H -0.6107 1.2126 1.0168
C4 C -0.4483(5) 1.2030(5) 0.8795(4)
H4 H -0.5260 1.2661 0.8273
C5 C -0.2824(5) 1.1410(5) 0.8457(4)
C6 C -0.2179(5) 1.1793(5) 0.7253(4)
H5 H -0.3115 1.2428 0.6799
H6 H -0.1501 1.2389 0.7172
C7 C -0.1765(6) 0.9587(6) 0.6444(4)
H7 H -0.2876 0.9820 0.6362
C8 C -0.0454(6) 0.8389(6) 0.6192(3)
H8 H -0.0484 0.7637 0.5899
C9 C 0.0470(5) 0.9692(5) 0.6840(3)
H9 H 0.1176 1.0009 0.7079
C10 C 0.2667(5) 0.7415(5) 0.6272(3)
H10 H 0.3375 0.8007 0.6007
H11 H 0.2736 0.6916 0.5697
C11 C 0.3307(5) 0.6199(5) 0.7318(3)
H12 H 0.2521 0.5702 0.7660
H13 H 0.4368 0.5418 0.7143
C12 C 0.4252(4) 0.5939(4) 0.9027(3)
C13 C 0.5991(4) 0.5322(4) 0.9005(3)
C14 C 0.3242(4) 0.5662(4) 0.9991(3)
C15 C 0.1466(4) 0.6314(5) 1.0023(4)
H14 H 0.0945 0.6955 0.9377
C16 C 0.0538(5) 0.6010(5) 1.0979(4)
H15 H -0.0620 0.6462 1.0990
C17 C 0.1285(5) 0.5026(5) 1.1957(4)
H16 H 0.0618 0.4813 1.2604
C18 C 0.7031(5) 0.5624(5) 0.8023(3)
H17 H 0.6555 0.6269 0.7363
O1A O 0.6495(3) 0.3049(3) 1.19411(19)
N1A N 1.1667(4) -0.0465(4) 1.0839(3)
N2A N 1.1181(4) -0.0404(4) 1.3155(3)
N3A N 0.9055(4) 0.1532(4) 1.3556(2)
C1A C 1.2180(7) -0.0165(6) 0.9757(4)
H1A H 1.1385 0.0488 0.9251
C2A C 1.3809(7) -0.0760(6) 0.9345(4)
H2A H 1.4105 -0.0523 0.8580
C3A C 1.4988(6) -0.1708(5) 1.0082(5)
H3A H 1.6107 -0.2126 0.9832
C4A C 1.4483(5) -0.2030(5) 1.1205(4)
H4A H 1.5260 -0.2661 1.1727
C5A C 1.2824(5) -0.1410(5) 1.1543(4)
C6A C 1.2179(5) -0.1793(5) 1.2747(4)
H5A H 1.3115 -0.2428 1.3201
H6A H 1.1501 -0.2389 1.2828
C7A C 1.1765(6) 0.0413(6) 1.3556(4)
H7A H 1.2876 0.0180 1.3638
C8A C 1.0454(6) 0.1611(6) 1.3808(3)
H8A H 1.0484 0.2363 1.4101
C9A C 0.9530(5) 0.0308(5) 1.3160(3)
H9A H 0.8824 -0.0009 1.2921
C10A C 0.7333(5) 0.2585(5) 1.3728(3)
H10A H 0.6625 0.1993 1.3993
H11A H 0.7264 0.3084 1.4303
C11A C 0.6693(5) 0.3801(5) 1.2682(3)
H12A H 0.7479 0.4298 1.2340
H13A H 0.5632 0.4582 1.2857
C12A C 0.5748(4) 0.4061(4) 1.0973(3)
C13A C 0.4009(4) 0.4678(4) 1.0995(3)
C14A C 0.6758(4) 0.4338(4) 1.0009(3)
C15A C 0.8534(4) 0.3686(5) 0.9977(4)
H14A H 0.9055 0.3045 1.0623
C16A C 0.9462(5) 0.3990(5) 0.9021(4)
H15A H 1.0620 0.3538 0.9010
C17A C 0.8715(5) 0.4974(5) 0.8043(4)
H16A H 0.9382 0.5187 0.7396
C18A C 0.2969(5) 0.4376(5) 1.1977(3)
H17A H 0.3445 0.3731 1.2637
P1 P 0.71210(13) 0.71357(15) 0.41845(9)
F13 F 0.5218(10) 0.776(2) 0.4093(15)
F14 F 0.7395(16) 0.722(2) 0.2880(7)
F15 F 0.661(2) 0.8926(11) 0.3589(17)
F16 F 0.6951(19) 0.712(2) 0.5411(7)
F17 F 0.8139(15) 0.5346(9) 0.4402(17)
F18 F 0.8931(11) 0.7078(15) 0.4201(10)
F1? F 0.551(2) 0.702(3) 0.3935(19)
F2? F 0.789(2) 0.5628(17) 0.3757(17)
F3? F 0.758(2) 0.811(2) 0.3001(11)
F4? F 0.6560(19) 0.8681(17) 0.4551(19)
F5? F 0.662(2) 0.615(2) 0.5320(11)
F6? F 0.8857(15) 0.655(2) 0.4618(15)
F7? F 0.5497(16) 0.672(2) 0.4454(14)
F8? F 0.7523(17) 0.631(2) 0.3229(13)
F9? F 0.590(2) 0.8701(16) 0.3574(15)
F10? F 0.6405(16) 0.7923(18) 0.5218(10)
F11? F 0.761(2) 0.5581(15) 0.5135(13)
F12? F 0.8703(15) 0.7530(19) 0.3841(15)
loop_
_geom_bond_atom_site_label_1
_geom_bond_atom_site_label_2
_geom_bond_site_symmetry_1
_geom_bond_site_symmetry_2
O1 C11 1_555 1_555
N1 C1 1_555 1_555
N2 C6 1_555 1_555
N3 C8 1_555 1_555
C1 H1 1_555 1_555
C2 C1 1_555 1_555
H2 C2 1_555 1_555
C3 C2 1_555 1_555
H3 C3 1_555 1_555
C4 C3 1_555 1_555
H4 C4 1_555 1_555
C5 N1 1_555 1_555
C6 C5 1_555 1_555
H5 C6 1_555 1_555
H6 C6 1_555 1_555
C7 N2 1_555 1_555
H7 C7 1_555 1_555
C8 C7 1_555 1_555
H8 C8 1_555 1_555
C9 N2 1_555 1_555
H9 C9 1_555 1_555
C10 N3 1_555 1_555
H10 C10 1_555 1_555
H11 C10 1_555 1_555
C11 C10 1_555 1_555
H12 C11 1_555 1_555
H13 C11 1_555 1_555
C12 O1 1_555 1_555
C13 C12 1_555 1_555
C14 C12 1_555 1_555
C15 C14 1_555 1_555
H14 C15 1_555 1_555
C16 C15 1_555 1_555
H15 C16 1_555 1_555
C17 C16 1_555 1_555
H16 C17 1_555 1_555
C18 C13 1_555 1_555
H17 C18 1_555 1_555
P1 F13 1_555 1_555
F14 P1 1_555 1_555
F15 P1 1_555 1_555
F16 P1 1_555 1_555
F17 P1 1_555 1_555
F18 P1 1_555 1_555
O1A C11A 1_555 1_555
N1A C1A 1_555 1_555
N2A C6A 1_555 1_555
N3A C8A 1_555 1_555
C1A H1A 1_555 1_555
C2A C1A 1_555 1_555
H2A C2A 1_555 1_555
C3A C2A 1_555 1_555
H3A C3A 1_555 1_555
C4A C3A 1_555 1_555
H4A C4A 1_555 1_555
C5A N1A 1_555 1_555
C6A C5A 1_555 1_555
H5A C6A 1_555 1_555
H6A C6A 1_555 1_555
C7A N2A 1_555 1_555
H7A C7A 1_555 1_555
C8A C7A 1_555 1_555
H8A C8A 1_555 1_555
C9A N2A 1_555 1_555
H9A C9A 1_555 1_555
C10A N3A 1_555 1_555
H10A C10A 1_555 1_555
H11A C10A 1_555 1_555
C11A C10A 1_555 1_555
H12A C11A 1_555 1_555
H13A C11A 1_555 1_555
C12A O1A 1_555 1_555
C13A C14 1_555 1_555
C14A C13 1_555 1_555
C15A C14A 1_555 1_555
H14A C15A 1_555 1_555
C16A C15A 1_555 1_555
H15A C16A 1_555 1_555
C17A C18 1_555 1_555
H16A C17A 1_555 1_555
C18A C17 1_555 1_555
H17A C18A 1_555 1_555
N3 C9 1_555 1_555
C4 C5 1_555 1_555
N3A C9A 1_555 1_555
C4A C5A 1_555 1_555
C12A C13A 1_555 1_555
C12A C14A 1_555 1_555
C13A C18A 1_555 1_555
C16A C17A 1_555 1_555

#END
