
#######################################################################
#
#                 Cambridge Crystallographic Data Centre
#                                CCDC 
#
#######################################################################
#
# If this CIF has been generated from an entry in the Cambridge 
# Structural Database, then it will include bibliographic, chemical, 
# crystal, experimental, refinement or atomic coordinate data resulting 
# from the CCDC's data processing and validation procedures.
#
#######################################################################

data_RITCUT
_chemical_formula_moiety         'C21 H16 Cl2 N2 O3'
_chemical_name_systematic        
N'-((1E)-(3,5-Dichloro-2-hydroxyphenyl)(phenyl)methylene)-4-methoxybenzohydrazide
_symmetry_cell_setting           triclinic
_symmetry_space_group_name_H-M   'P -1'
_symmetry_Int_Tables_number      2
_space_group_name_Hall           '-P 1'
loop_
_symmetry_equiv_pos_site_id
_symmetry_equiv_pos_as_xyz
1 x,y,z
2 -x,-y,-z
_cell_length_a                   8.9814(9)
_cell_length_b                   10.8867(11)
_cell_length_c                   11.5291(13)
_cell_angle_alpha                89.623(2)
_cell_angle_beta                 72.7000(10)
_cell_angle_gamma                66.947(2)
_cell_volume                     982.568
_exptl_crystal_colour            yellow
_exptl_crystal_description       block
_cell_formula_units_Z            2
loop_
_atom_site_label
_atom_site_type_symbol
_atom_site_fract_x
_atom_site_fract_y
_atom_site_fract_z
Cl1 Cl 0.51883(14) 1.15784(10) 0.47405(9)
Cl2 Cl 0.19492(12) 1.40951(10) 0.93386(11)
O1 O 0.4694(3) 1.2048(2) 0.99251(19)
H1 H 0.5549 1.1501 1.0051
O2 O 0.7413(3) 1.0462(2) 1.16739(19)
O3 O 1.3151(3) 0.5644(3) 1.3043(2)
N1 N 0.8610(3) 0.9057(3) 0.9878(2)
N2 N 0.7483(3) 0.9984(2) 0.9403(2)
C1 C 0.4846(4) 1.1863(3) 0.8740(3)
C2 C 0.3621(4) 1.2797(3) 0.8308(3)
C3 C 0.3711(4) 1.2716(3) 0.7099(4)
H2 H 0.2875 1.3359 0.6838
C4 C 0.5050(4) 1.1674(3) 0.6276(3)
C5 C 0.6262(4) 1.0708(3) 0.6671(3)
H3 H 0.7149 0.9998 0.6113
C6 C 0.6180(3) 1.0778(3) 0.7901(2)
C7 C 0.7493(4) 0.9727(3) 0.8309(2)
C8 C 0.8492(4) 0.9403(3) 1.1074(3)
C9 C 0.9766(4) 0.8393(3) 1.1529(3)
C10 C 1.1299(4) 0.7433(4) 1.0769(3)
H4 H 1.1552 0.7415 0.9925
C11 C 1.2451(4) 0.6506(4) 1.1240(3)
H5 H 1.3464 0.5863 1.0713
C12 C 1.2110(4) 0.6527(3) 1.2492(3)
C13 C 1.0590(5) 0.7504(4) 1.3255(3)
H6 H 1.0346 0.7532 1.4099
C14 C 0.9449(4) 0.8425(3) 1.2786(3)
H7 H 0.8449 0.9080 1.3314
C15 C 1.4627(5) 0.4539(4) 1.2293(4)
H8 H 1.4296 0.4067 1.1785
H9 H 1.5162 0.3938 1.2804
H10 H 1.5416 0.4867 1.1787
C16 C 0.8695(4) 0.8437(3) 0.7508(2)
C17 C 0.8065(5) 0.7546(4) 0.7229(3)
H11 H 0.6896 0.7767 0.7513
C18 C 0.9169(7) 0.6327(4) 0.6528(3)
H12 H 0.8745 0.5722 0.6352
C19 C 1.0902(6) 0.6004(4) 0.6088(3)
H13 H 1.1650 0.5178 0.5623
C20 C 1.1502(5) 0.6900(4) 0.6338(3)
H14 H 1.2664 0.6698 0.6020
C21 C 1.0411(4) 0.8108(4) 0.7059(3)
H15 H 1.0846 0.8704 0.7240
loop_
_geom_bond_atom_site_label_1
_geom_bond_atom_site_label_2
_geom_bond_site_symmetry_1
_geom_bond_site_symmetry_2
Cl1 C4 1_555 1_555
Cl2 C2 1_555 1_555
O1 H1 1_555 1_555
O2 C8 1_555 1_555
O3 C12 1_555 1_555
N1 N2 1_555 1_555
N2 C7 1_555 1_555
C1 O1 1_555 1_555
C2 C1 1_555 1_555
C3 C2 1_555 1_555
H2 C3 1_555 1_555
C4 C3 1_555 1_555
C5 C4 1_555 1_555
H3 C5 1_555 1_555
C6 C1 1_555 1_555
C7 C6 1_555 1_555
C8 N1 1_555 1_555
C9 C8 1_555 1_555
C10 C9 1_555 1_555
H4 C10 1_555 1_555
C11 C10 1_555 1_555
H5 C11 1_555 1_555
C12 C11 1_555 1_555
C13 C12 1_555 1_555
H6 C13 1_555 1_555
C14 C9 1_555 1_555
H7 C14 1_555 1_555
C15 O3 1_555 1_555
H8 C15 1_555 1_555
H9 C15 1_555 1_555
H10 C15 1_555 1_555
C16 C7 1_555 1_555
C17 C16 1_555 1_555
H11 C17 1_555 1_555
C18 C17 1_555 1_555
H12 C18 1_555 1_555
C19 C18 1_555 1_555
H13 C19 1_555 1_555
C20 C19 1_555 1_555
H14 C20 1_555 1_555
C21 C16 1_555 1_555
H15 C21 1_555 1_555
C5 C6 1_555 1_555
C13 C14 1_555 1_555
C20 C21 1_555 1_555

#END
