
#######################################################################
#
#                 Cambridge Crystallographic Data Centre
#                                CCDC 
#
#######################################################################
#
# If this CIF has been generated from an entry in the Cambridge 
# Structural Database, then it will include bibliographic, chemical, 
# crystal, experimental, refinement or atomic coordinate data resulting 
# from the CCDC's data processing and validation procedures.
#
#######################################################################

data_RITCAZ
_chemical_name_common            Fenpyroximate
_chemical_formula_moiety         'C24 H27 N3 O4'
_chemical_name_systematic        
't-Butyl 4-((((E)-1,3-dimethyl-5-phenoxypyrazol-4-yl)methylene)amino-oxymethyl)benzoate'
_chemical_properties_biological  acaricide
_symmetry_cell_setting           triclinic
_symmetry_space_group_name_H-M   'P -1'
_symmetry_Int_Tables_number      2
_space_group_name_Hall           '-P 1'
loop_
_symmetry_equiv_pos_site_id
_symmetry_equiv_pos_as_xyz
1 x,y,z
2 -x,-y,-z
_cell_length_a                   9.672(3)
_cell_length_b                   9.908(3)
_cell_length_c                   13.179(3)
_cell_angle_alpha                72.487(5)
_cell_angle_beta                 71.614(5)
_cell_angle_gamma                74.494(4)
_cell_volume                     1121.99
_exptl_crystal_colour            colorless
_exptl_crystal_description       Prism
_cell_formula_units_Z            2
_exptl_crystal_recrystallization_method 'ethyl acetate/petroleum ether'
loop_
_atom_site_label
_atom_site_type_symbol
_atom_site_fract_x
_atom_site_fract_y
_atom_site_fract_z
O1 O 0.26628(19) 1.1772(2) -0.00386(14)
O2 O 0.3962(2) 0.6532(2) 0.19530(16)
O3 O 1.0760(3) 0.3688(3) 0.34012(19)
O4 O 0.9545(2) 0.2420(2) 0.49895(15)
N1 N 0.3522(3) 1.2674(3) 0.1062(2)
N2 N 0.4285(3) 1.2208(3) 0.1845(2)
N3 N 0.4010(3) 0.7806(3) 0.2206(2)
C1 C 0.1138(3) 1.1919(3) 0.0179(2)
C2 C 0.0642(3) 1.1915(3) -0.0686(2)
H1 H 0.1307 1.1812 -0.1356
C3 C -0.0863(4) 1.2068(4) -0.0544(3)
H2 H -0.1213 1.2064 -0.1124
C4 C -0.1839(4) 1.2223(3) 0.0431(3)
H3 H -0.2850 1.2318 0.0520
C5 C -0.1329(3) 1.2238(3) 0.1279(3)
H4 H -0.2000 1.2349 0.1945
C6 C 0.0167(3) 1.2090(3) 0.1166(2)
H5 H 0.0510 1.2106 0.1746
C7 C 0.3276(3) 1.1573(3) 0.0806(2)
C8 C 0.3863(3) 1.0308(3) 0.1450(2)
C9 C 0.4502(3) 1.0776(3) 0.2080(2)
C10 C 0.5368(4) 0.9888(4) 0.2888(3)
H6 H 0.5743 1.0507 0.3132
H7 H 0.6183 0.9235 0.2545
H8 H 0.4738 0.9348 0.3507
C11 C 0.3029(4) 1.4211(3) 0.0637(3)
H9 H 0.3730 1.4549 -0.0036
H10 H 0.2959 1.4727 0.1168
H11 H 0.2074 1.4370 0.0499
C12 C 0.3833(3) 0.8883(3) 0.1411(2)
H12 H 0.3681 0.8747 0.0790
C13 C 0.3981(3) 0.5385(3) 0.2913(3)
H13 H 0.3680 0.4583 0.2816
H14 H 0.3258 0.5706 0.3536
C14 C 0.5472(3) 0.4862(3) 0.3174(2)
C15 C 0.5588(3) 0.3798(3) 0.4126(3)
H15 H 0.4754 0.3429 0.4580
C16 C 0.6917(3) 0.3281(3) 0.4406(2)
H16 H 0.6969 0.2582 0.5055
C17 C 0.8173(3) 0.3792(3) 0.3734(2)
C18 C 0.8060(3) 0.4847(3) 0.2779(2)
H17 H 0.8900 0.5200 0.2315
C19 C 0.6725(3) 0.5377(3) 0.2510(2)
H18 H 0.6667 0.6093 0.1872
C20 C 0.9636(3) 0.3290(3) 0.4004(2)
C21 C 1.0809(3) 0.1863(3) 0.5491(2)
C22 C 1.2093(4) 0.1033(5) 0.4795(3)
H19 H 1.1775 0.0273 0.4668
H20 H 1.2871 0.0626 0.5167
H21 H 1.2456 0.1668 0.4103
C23 C 1.0184(5) 0.0865(5) 0.6550(3)
H22 H 0.9339 0.1395 0.6979
H23 H 1.0927 0.0446 0.6955
H24 H 0.9886 0.0115 0.6394
C24 C 1.1218(5) 0.3089(4) 0.5687(4)
H25 H 1.1617 0.3702 0.4994
H26 H 1.1949 0.2726 0.6104
H27 H 1.0352 0.3630 0.6090
loop_
_geom_bond_atom_site_label_1
_geom_bond_atom_site_label_2
_geom_bond_site_symmetry_1
_geom_bond_site_symmetry_2
O1 C1 1_555 1_555
O2 N3 1_555 1_555
O3 C20 1_555 1_555
O4 C20 1_555 1_555
N1 N2 1_555 1_555
N2 C9 1_555 1_555
N3 C12 1_555 1_555
C1 C2 1_555 1_555
C2 H1 1_555 1_555
C3 C2 1_555 1_555
H2 C3 1_555 1_555
C4 C3 1_555 1_555
H3 C4 1_555 1_555
C5 C4 1_555 1_555
H4 C5 1_555 1_555
C6 C1 1_555 1_555
H5 C6 1_555 1_555
C7 O1 1_555 1_555
C8 C7 1_555 1_555
C9 C8 1_555 1_555
C10 C9 1_555 1_555
H6 C10 1_555 1_555
H7 C10 1_555 1_555
H8 C10 1_555 1_555
C11 N1 1_555 1_555
H9 C11 1_555 1_555
H10 C11 1_555 1_555
H11 C11 1_555 1_555
C12 C8 1_555 1_555
H12 C12 1_555 1_555
C13 O2 1_555 1_555
H13 C13 1_555 1_555
H14 C13 1_555 1_555
C14 C13 1_555 1_555
C15 C14 1_555 1_555
H15 C15 1_555 1_555
C16 C15 1_555 1_555
H16 C16 1_555 1_555
C17 C16 1_555 1_555
C18 C17 1_555 1_555
H17 C18 1_555 1_555
C19 C14 1_555 1_555
H18 C19 1_555 1_555
C20 C17 1_555 1_555
C21 O4 1_555 1_555
C22 C21 1_555 1_555
H19 C22 1_555 1_555
H20 C22 1_555 1_555
H21 C22 1_555 1_555
C23 C21 1_555 1_555
H22 C23 1_555 1_555
H23 C23 1_555 1_555
H24 C23 1_555 1_555
C24 C21 1_555 1_555
H25 C24 1_555 1_555
H26 C24 1_555 1_555
H27 C24 1_555 1_555
N1 C7 1_555 1_555
C5 C6 1_555 1_555
C18 C19 1_555 1_555

#END
