
#######################################################################
#
#                 Cambridge Crystallographic Data Centre
#                                CCDC 
#
#######################################################################
#
# If this CIF has been generated from an entry in the Cambridge 
# Structural Database, then it will include bibliographic, chemical, 
# crystal, experimental, refinement or atomic coordinate data resulting 
# from the CCDC's data processing and validation procedures.
#
#######################################################################

data_RITKIR
_chemical_formula_moiety         'C17 H17 N1 O1 S1'
_chemical_name_systematic        
'S-phenyl 3-(4-(dimethylamino)phenyl)prop-2-enethioate'
_symmetry_cell_setting           monoclinic
_symmetry_space_group_name_H-M   'P 21'
_symmetry_Int_Tables_number      4
_space_group_name_Hall           'P 2yb'
loop_
_symmetry_equiv_pos_site_id
_symmetry_equiv_pos_as_xyz
1 x,y,z
2 -x,1/2+y,-z
_cell_length_a                   6.2317(5)
_cell_length_b                   7.5812(6)
_cell_length_c                   15.8318(13)
_cell_angle_alpha                90
_cell_angle_beta                 97.343(3)
_cell_angle_gamma                90
_cell_volume                     741.82
_cell_formula_units_Z            2
_chemical_properties_physical    Air-sensitive,Light-sensitive,Photo-sensitive
_exptl_crystal_recrystallization_method dichloromethane
_exptl_crystal_preparation       ', Luminescent'
loop_
_atom_site_label
_atom_site_type_symbol
_atom_site_fract_x
_atom_site_fract_y
_atom_site_fract_z
S1 S 0.7123(3) 0.5547(3) 0.25372(10)
O1 O 0.3649(8) 0.3600(8) 0.2179(3)
N1 N 0.0444(8) 0.4553(7) 0.7261(3)
C1 C 0.1078(9) 0.4422(7) 0.6471(3)
C2 C 0.2363(10) 0.4127(8) 0.4817(3)
C3 C 0.7037(9) 0.5578(9) 0.1423(3)
C4 C 0.3030(9) 0.5151(7) 0.6287(3)
H1 H 0.3919 0.5748 0.6710
C5 C -0.0183(10) 0.3548(8) 0.5800(4)
H2 H -0.1488 0.3043 0.5899
C6 C 0.3647(9) 0.4988(8) 0.5481(3)
H3 H 0.4961 0.5469 0.5377
C7 C 0.0437(11) 0.3417(8) 0.5012(4)
H4 H -0.0462 0.2832 0.4588
C8 C 0.8850(10) 0.5015(8) 0.1075(4)
H5 H 0.9998 0.4492 0.1418
C9 C 0.5358(10) 0.6341(8) 0.0896(4)
H6 H 0.4117 0.6697 0.1119
C10 C 0.4808(12) 0.4420(10) 0.2726(4)
C11 C 0.2891(11) 0.3969(8) 0.3945(4)
H7 H 0.1930 0.3322 0.3567
C12 C 0.1811(12) 0.5391(11) 0.7950(4)
H8 H 0.3270 0.4979 0.7958
H9 H 0.1302 0.5106 0.8480
H10 H 0.1770 0.6647 0.7869
C13 C 0.5503(11) 0.6579(9) 0.0049(4)
H11 H 0.4374 0.7121 -0.0297
C14 C 0.4519(12) 0.4621(9) 0.3647(4)
H12 H 0.5551 0.5236 0.4008
C15 C 0.7287(12) 0.6028(10) -0.0292(4)
H13 H 0.7373 0.6192 -0.0869
C16 C 0.8933(12) 0.5241(11) 0.0209(4)
H14 H 1.0134 0.4846 -0.0030
C17 C -0.1544(10) 0.3760(11) 0.7457(4)
H15 H -0.2755 0.4415 0.7183
H16 H -0.1568 0.3774 0.8062
H17 H -0.1627 0.2564 0.7257
loop_
_geom_bond_atom_site_label_1
_geom_bond_atom_site_label_2
_geom_bond_site_symmetry_1
_geom_bond_site_symmetry_2
S1 C3 1_555 1_555
O1 C10 1_555 1_555
N1 C1 1_555 1_555
C1 C4 1_555 1_555
C2 C6 1_555 1_555
C3 C8 1_555 1_555
C4 H1 1_555 1_555
C5 C1 1_555 1_555
H2 C5 1_555 1_555
C6 C4 1_555 1_555
H3 C6 1_555 1_555
C7 C2 1_555 1_555
H4 C7 1_555 1_555
C8 H5 1_555 1_555
C9 C3 1_555 1_555
H6 C9 1_555 1_555
C10 S1 1_555 1_555
C11 C2 1_555 1_555
H7 C11 1_555 1_555
C12 N1 1_555 1_555
H8 C12 1_555 1_555
H9 C12 1_555 1_555
H10 C12 1_555 1_555
C13 C9 1_555 1_555
H11 C13 1_555 1_555
C14 C10 1_555 1_555
H12 C14 1_555 1_555
C15 C13 1_555 1_555
H13 C15 1_555 1_555
C16 C8 1_555 1_555
H14 C16 1_555 1_555
C17 N1 1_555 1_555
H15 C17 1_555 1_555
H16 C17 1_555 1_555
H17 C17 1_555 1_555
C5 C7 1_555 1_555
C11 C14 1_555 1_555
C15 C16 1_555 1_555

#END
