
#######################################################################
#
#                 Cambridge Crystallographic Data Centre
#                                CCDC 
#
#######################################################################
#
# If this CIF has been generated from an entry in the Cambridge 
# Structural Database, then it will include bibliographic, chemical, 
# crystal, experimental, refinement or atomic coordinate data resulting 
# from the CCDC's data processing and validation procedures.
#
#######################################################################

data_RITZEA
_chemical_formula_moiety         'C35 H35 N2 O3 P1'
_chemical_name_systematic        
(R)-N^1^,N^1^-diisopropyl-N^2^-((S)-1,1'-binaphthyl-2,2'-diyl-phosphoryl)-2-methyl-2-phenylacetamidine
_symmetry_cell_setting           orthorhombic
_symmetry_space_group_name_H-M   'P 21 21 2'
_symmetry_Int_Tables_number      18
_space_group_name_Hall           'P 2 2ab'
loop_
_symmetry_equiv_pos_site_id
_symmetry_equiv_pos_as_xyz
1 x,y,z
2 -x,-y,z
3 1/2-x,1/2+y,-z
4 1/2+x,1/2-y,-z
_cell_length_a                   16.798(4)
_cell_length_b                   17.234(4)
_cell_length_c                   10.223(2)
_cell_angle_alpha                90
_cell_angle_beta                 90
_cell_angle_gamma                90
_cell_volume                     2959.53
_cell_formula_units_Z            4
loop_
_atom_site_label
_atom_site_type_symbol
_atom_site_fract_x
_atom_site_fract_y
_atom_site_fract_z
P1 P 0.48470(14) 0.23633(13) 0.8593(2)
O1 O 0.4984(4) 0.3247(3) 0.8141(5)
O2 O 0.4943(3) 0.1893(3) 0.7236(5)
O3 O 0.5455(3) 0.2174(3) 0.9563(6)
N1 N 0.3917(4) 0.2294(4) 0.8922(7)
N2 N 0.2807(4) 0.1811(4) 0.9923(7)
C1 C 0.4735(5) 0.3532(5) 0.6936(10)
C2 C 0.4138(5) 0.4115(5) 0.6937(10)
H1 H 0.3904 0.4267 0.7721
C3 C 0.3910(6) 0.4451(5) 0.5796(10)
H2 H 0.3544 0.4857 0.5812
C4 C 0.4219(5) 0.4195(5) 0.4582(10)
C5 C 0.3956(6) 0.4506(5) 0.3371(11)
H3 H 0.3589 0.4910 0.3362
C6 C 0.4241(6) 0.4215(6) 0.2219(10)
H4 H 0.4087 0.4440 0.1432
C7 C 0.4758(5) 0.3586(5) 0.2215(10)
H5 H 0.4917 0.3374 0.1420
C8 C 0.5039(5) 0.3272(5) 0.3348(9)
H6 H 0.5388 0.2853 0.3320
C9 C 0.4800(5) 0.3582(5) 0.4569(9)
C10 C 0.5088(5) 0.3280(5) 0.5794(9)
C11 C 0.5737(5) 0.2695(5) 0.5852(8)
C12 C 0.6502(5) 0.2848(5) 0.5258(8)
C13 C 0.6696(5) 0.3568(5) 0.4676(9)
H7 H 0.6311 0.3954 0.4619
C14 C 0.7439(6) 0.3704(6) 0.4196(8)
H8 H 0.7550 0.4184 0.3824
C15 C 0.8044(5) 0.3140(6) 0.4246(9)
H9 H 0.8545 0.3240 0.3902
C16 C 0.7875(6) 0.2439(6) 0.4814(9)
H10 H 0.8271 0.2062 0.4851
C17 C 0.7114(5) 0.2273(5) 0.5347(8)
C18 C 0.6952(6) 0.1564(5) 0.5989(9)
H11 H 0.7336 0.1175 0.5997
C19 C 0.6243(6) 0.1440(5) 0.6595(9)
H12 H 0.6150 0.0979 0.7042
C20 C 0.5653(5) 0.2017(5) 0.6536(8)
C21 C 0.3562(5) 0.1718(5) 0.9543(9)
C22 C 0.2321(5) 0.1170(5) 1.0494(9)
H13 H 0.2650 0.0701 1.0486
C23 C 0.1590(6) 0.1007(6) 0.9669(10)
H14 H 0.1251 0.1456 0.9664
H15 H 0.1305 0.0574 1.0031
H16 H 0.1749 0.0887 0.8790
C24 C 0.2109(6) 0.1342(6) 1.1914(10)
H17 H 0.2588 0.1434 1.2404
H18 H 0.1831 0.0906 1.2280
H19 H 0.1775 0.1793 1.1953
C25 C 0.2388(5) 0.2575(5) 0.9838(9)
H20 H 0.1869 0.2499 1.0257
C26 C 0.2793(6) 0.3200(5) 1.0602(10)
H21 H 0.2933 0.3006 1.1452
H22 H 0.2440 0.3635 1.0697
H23 H 0.3266 0.3361 1.0150
C27 C 0.2208(6) 0.2824(6) 0.8426(10)
H24 H 0.1802 0.3216 0.8429
H25 H 0.2028 0.2383 0.7934
H26 H 0.2683 0.3029 0.8033
C28 C 0.4008(5) 0.0949(5) 0.9818(9)
H27 H 0.4567 0.1065 0.9623
C29 C 0.3779(6) 0.0309(5) 0.8833(10)
H28 H 0.4110 -0.0137 0.8968
H29 H 0.3851 0.0499 0.7958
H30 H 0.3231 0.0168 0.8959
C30 C 0.4005(5) 0.0724(5) 1.1245(10)
C31 C 0.3798(6) -0.0003(6) 1.1714(11)
H31 H 0.3647 -0.0389 1.1129
C32 C 0.3812(7) -0.0162(7) 1.3019(12)
H32 H 0.3649 -0.0647 1.3314
C33 C 0.4064(7) 0.0387(8) 1.3908(11)
H33 H 0.4076 0.0274 1.4797
C34 C 0.4298(6) 0.1103(6) 1.3464(12)
H34 H 0.4480 0.1477 1.4048
C35 C 0.4262(6) 0.1261(6) 1.2160(11)
H35 H 0.4417 0.1750 1.1872
loop_
_geom_bond_atom_site_label_1
_geom_bond_atom_site_label_2
_geom_bond_site_symmetry_1
_geom_bond_site_symmetry_2
P1 O1 1_555 1_555
O1 C1 1_555 1_555
O2 P1 1_555 1_555
O3 P1 1_555 1_555
N1 P1 1_555 1_555
N2 C21 1_555 1_555
C1 C2 1_555 1_555
C2 H1 1_555 1_555
C3 C2 1_555 1_555
H2 C3 1_555 1_555
C4 C3 1_555 1_555
C5 C4 1_555 1_555
H3 C5 1_555 1_555
C6 C5 1_555 1_555
H4 C6 1_555 1_555
C7 C6 1_555 1_555
H5 C7 1_555 1_555
C8 C7 1_555 1_555
H6 C8 1_555 1_555
C9 C4 1_555 1_555
C10 C1 1_555 1_555
C11 C10 1_555 1_555
C12 C11 1_555 1_555
C13 C12 1_555 1_555
H7 C13 1_555 1_555
C14 C13 1_555 1_555
H8 C14 1_555 1_555
C15 C14 1_555 1_555
H9 C15 1_555 1_555
C16 C15 1_555 1_555
H10 C16 1_555 1_555
C17 C12 1_555 1_555
C18 C17 1_555 1_555
H11 C18 1_555 1_555
C19 C18 1_555 1_555
H12 C19 1_555 1_555
C20 O2 1_555 1_555
C21 N1 1_555 1_555
C22 N2 1_555 1_555
H13 C22 1_555 1_555
C23 C22 1_555 1_555
H14 C23 1_555 1_555
H15 C23 1_555 1_555
H16 C23 1_555 1_555
C24 C22 1_555 1_555
H17 C24 1_555 1_555
H18 C24 1_555 1_555
H19 C24 1_555 1_555
C25 N2 1_555 1_555
H20 C25 1_555 1_555
C26 C25 1_555 1_555
H21 C26 1_555 1_555
H22 C26 1_555 1_555
H23 C26 1_555 1_555
C27 C25 1_555 1_555
H24 C27 1_555 1_555
H25 C27 1_555 1_555
H26 C27 1_555 1_555
C28 C21 1_555 1_555
H27 C28 1_555 1_555
C29 C28 1_555 1_555
H28 C29 1_555 1_555
H29 C29 1_555 1_555
H30 C29 1_555 1_555
C30 C28 1_555 1_555
C31 C30 1_555 1_555
H31 C31 1_555 1_555
C32 C31 1_555 1_555
H32 C32 1_555 1_555
C33 C32 1_555 1_555
H33 C33 1_555 1_555
C34 C33 1_555 1_555
H34 C34 1_555 1_555
C35 C30 1_555 1_555
H35 C35 1_555 1_555
C8 C9 1_555 1_555
C9 C10 1_555 1_555
C11 C20 1_555 1_555
C16 C17 1_555 1_555
C19 C20 1_555 1_555
C34 C35 1_555 1_555

#END
