
#######################################################################
#
#                 Cambridge Crystallographic Data Centre
#                                CCDC 
#
#######################################################################
#
# If this CIF has been generated from an entry in the Cambridge 
# Structural Database, then it will include bibliographic, chemical, 
# crystal, experimental, refinement or atomic coordinate data resulting 
# from the CCDC's data processing and validation procedures.
#
#######################################################################

data_RIVHOV
_chemical_formula_moiety         'C20 H17 N3 S1'
_chemical_name_systematic        
2-(diphenylmethylene)-N-phenylhydrazinecarbothioamide
_symmetry_cell_setting           monoclinic
_symmetry_space_group_name_H-M   'P 21/c'
_symmetry_Int_Tables_number      14
_space_group_name_Hall           '-P 2ybc'
loop_
_symmetry_equiv_pos_site_id
_symmetry_equiv_pos_as_xyz
1 x,y,z
2 -x,1/2+y,1/2-z
3 -x,-y,-z
4 x,1/2-y,1/2+z
_cell_length_a                   5.6023(3)
_cell_length_b                   10.2081(4)
_cell_length_c                   29.8821(12)
_cell_angle_alpha                90
_cell_angle_beta                 92.960(4)
_cell_angle_gamma                90
_cell_volume                     1706.64
_cell_formula_units_Z            4
loop_
_atom_site_label
_atom_site_type_symbol
_atom_site_fract_x
_atom_site_fract_y
_atom_site_fract_z
S1 S 0.41595(11) -0.00116(6) 0.374246(18)
N1 N 0.5660(3) -0.20502(19) 0.32506(6)
H1 H 0.6809 -0.2605 0.3236
N2 N 0.7527(3) -0.17088(17) 0.39302(5)
H2 H 0.7682 -0.1315 0.4184
N3 N 0.9020(3) -0.27273(16) 0.38416(5)
C1 C 0.2021(4) -0.1294(3) 0.28192(8)
H3 H 0.1732 -0.0638 0.3026
C2 C 0.0481(5) -0.1477(3) 0.24480(8)
H4 H -0.0842 -0.0932 0.2407
C3 C 0.0852(5) -0.2438(3) 0.21397(8)
H5 H -0.0220 -0.2557 0.1895
C4 C 0.2825(5) -0.3221(3) 0.21979(7)
H6 H 0.3110 -0.3870 0.1989
C5 C 0.4392(4) -0.3056(2) 0.25633(7)
H7 H 0.5730 -0.3593 0.2599
C6 C 0.3992(4) -0.2096(2) 0.28796(6)
C7 C 0.5794(4) -0.13068(19) 0.36213(6)
C8 C 1.0547(3) -0.30909(18) 0.41552(6)
C9 C 1.0653(3) -0.25126(18) 0.46165(6)
C10 C 1.2495(4) -0.1710(2) 0.47640(7)
H8 H 1.3691 -0.1501 0.4572
C11 C 1.2597(4) -0.1207(2) 0.51945(7)
H9 H 1.3870 -0.0674 0.5290
C12 C 1.0856(4) -0.1484(2) 0.54798(7)
H10 H 1.0925 -0.1139 0.5768
C13 C 0.9016(4) -0.2268(3) 0.53391(8)
H11 H 0.7818 -0.2464 0.5533
C14 C 0.8906(4) -0.2780(3) 0.49111(8)
H12 H 0.7628 -0.3314 0.4820
C15 C 1.2265(3) -0.41236(18) 0.40440(6)
C16 C 1.3861(4) -0.46400(19) 0.43675(6)
H13 H 1.3799 -0.4356 0.4662
C17 C 1.5539(4) -0.5564(2) 0.42626(7)
H14 H 1.6598 -0.5889 0.4486
C18 C 1.5653(4) -0.6006(2) 0.38310(7)
H15 H 1.6783 -0.6628 0.3759
C19 C 1.4068(5) -0.5512(3) 0.35057(8)
H16 H 1.4128 -0.5812 0.3213
C20 C 1.2405(4) -0.4589(2) 0.36061(7)
H17 H 1.1357 -0.4268 0.3381
loop_
_geom_bond_atom_site_label_1
_geom_bond_atom_site_label_2
_geom_bond_site_symmetry_1
_geom_bond_site_symmetry_2
S1 C7 1_555 1_555
N1 H1 1_555 1_555
N2 H2 1_555 1_555
N3 N2 1_555 1_555
C1 H3 1_555 1_555
C2 C1 1_555 1_555
H4 C2 1_555 1_555
C3 C2 1_555 1_555
H5 C3 1_555 1_555
C4 C3 1_555 1_555
H6 C4 1_555 1_555
C5 C4 1_555 1_555
H7 C5 1_555 1_555
C6 N1 1_555 1_555
C7 N1 1_555 1_555
C8 N3 1_555 1_555
C9 C8 1_555 1_555
C10 C9 1_555 1_555
H8 C10 1_555 1_555
C11 C10 1_555 1_555
H9 C11 1_555 1_555
C12 C11 1_555 1_555
H10 C12 1_555 1_555
C13 C12 1_555 1_555
H11 C13 1_555 1_555
C14 C9 1_555 1_555
H12 C14 1_555 1_555
C15 C8 1_555 1_555
C16 C15 1_555 1_555
H13 C16 1_555 1_555
C17 C16 1_555 1_555
H14 C17 1_555 1_555
C18 C17 1_555 1_555
H15 C18 1_555 1_555
C19 C18 1_555 1_555
H16 C19 1_555 1_555
C20 C15 1_555 1_555
H17 C20 1_555 1_555
N2 C7 1_555 1_555
C1 C6 1_555 1_555
C5 C6 1_555 1_555
C13 C14 1_555 1_555
C19 C20 1_555 1_555

#END
