
#######################################################################
#
#                 Cambridge Crystallographic Data Centre
#                                CCDC 
#
#######################################################################
#
# If this CIF has been generated from an entry in the Cambridge 
# Structural Database, then it will include bibliographic, chemical, 
# crystal, experimental, refinement or atomic coordinate data resulting 
# from the CCDC's data processing and validation procedures.
#
#######################################################################

data_RIVHUA
_chemical_formula_moiety         'C25 H22 N4 O3,C3 H6 O1,H2 O1'
_chemical_name_systematic        
'1-Phenyl-3-methyl-4-(salicylidene hydrazide)phenylethylene-5-pyrazolone acetone solvate monohydrate'
_symmetry_cell_setting           monoclinic
_symmetry_space_group_name_H-M   'P 21/c'
_symmetry_Int_Tables_number      14
_space_group_name_Hall           '-P 2ybc'
loop_
_symmetry_equiv_pos_site_id
_symmetry_equiv_pos_as_xyz
1 x,y,z
2 -x,1/2+y,1/2-z
3 -x,-y,-z
4 x,1/2-y,1/2+z
_cell_length_a                   10.828(2)
_cell_length_b                   24.689(4)
_cell_length_c                   9.717(2)
_cell_angle_alpha                90
_cell_angle_beta                 95.127(4)
_cell_angle_gamma                90
_cell_volume                     2587.28
_exptl_crystal_colour            'light yellow'
_exptl_crystal_description       block
_chemical_melting_point          95-97deg.C
_cell_formula_units_Z            4
_exptl_crystal_recrystallization_method acetone
_exptl_crystal_preparation       fluorescent
loop_
_atom_site_label
_atom_site_type_symbol
_atom_site_fract_x
_atom_site_fract_y
_atom_site_fract_z
O1 O 0.4741(2) 0.36647(9) 0.3693(2)
O2 O 0.2686(2) 0.22374(11) 0.4606(2)
O3 O 0.1364(2) 0.17790(11) 0.0670(3)
N1 N 0.6846(2) 0.37204(11) 0.3331(3)
N2 N 0.7714(3) 0.34021(11) 0.2728(3)
N3 N 0.3786(3) 0.27400(13) 0.2635(3)
N4 N 0.2743(3) 0.24178(12) 0.2344(3)
C1 C 0.7191(3) 0.4238(1) 0.3861(3)
C2 C 0.8182(3) 0.4507(2) 0.3353(4)
C3 C 0.8553(4) 0.5007(2) 0.3898(4)
C4 C 0.7928(4) 0.5243(2) 0.4912(4)
C5 C 0.6932(4) 0.4980(2) 0.5385(4)
C6 C 0.6559(4) 0.4477(2) 0.4883(4)
C7 C 0.5695(3) 0.3475(1) 0.3242(3)
C8 C 0.5858(3) 0.2971(1) 0.2534(3)
C9 C 0.7143(3) 0.2965(2) 0.2262(4)
C10 C 0.7873(4) 0.2543(2) 0.1570(4)
C11 C 0.4888(3) 0.2612(1) 0.2225(3)
C12 C 0.4993(3) 0.20857(13) 0.1475(3)
C13 C 0.5066(3) 0.1601(1) 0.2433(3)
C14 C 0.5855(3) 0.1593(2) 0.3634(4)
C15 C 0.5974(4) 0.1138(2) 0.4459(4)
C16 C 0.5306(4) 0.0681(2) 0.4067(5)
C17 C 0.4494(4) 0.0680(2) 0.2884(5)
C18 C 0.4364(4) 0.1141(2) 0.2075(4)
C19 C 0.2237(3) 0.2181(1) 0.3409(3)
C20 C 0.1099(3) 0.1844(1) 0.3064(3)
C21 C 0.0412(3) 0.1705(2) 0.4161(4)
C22 C -0.0628(4) 0.1381(2) 0.3981(4)
C23 C -0.0979(3) 0.1181(2) 0.2670(4)
C24 C -0.0329(3) 0.1305(2) 0.1564(4)
C25 C 0.0708(3) 0.1643(1) 0.1752(3)
H1 H 0.8598 0.4350 0.2630
H2 H 0.9249 0.5184 0.3573
H3 H 0.8192 0.5585 0.5275
H4 H 0.6484 0.5151 0.6062
H5 H 0.5883 0.4292 0.5232
H6 H 0.7833 0.2617 0.0607
H7 H 0.7540 0.2194 0.1714
H8 H 0.8713 0.2555 0.1948
H9 H 0.4290 0.2046 0.0824
H10 H 0.5724 0.2095 0.1002
H11 H 0.6313 0.1910 0.3896
H12 H 0.6525 0.1139 0.5277
H13 H 0.5400 0.0363 0.4618
H14 H 0.4026 0.0365 0.2632
H15 H 0.3801 0.1145 0.1268
H16 H 0.0675 0.1838 0.5056
H17 H -0.1098 0.1298 0.4734
H18 H -0.1684 0.0951 0.2535
H19 H -0.0580 0.1163 0.0675
H26 H 0.095(4) 0.173(2) -0.018(5)
H27 H 0.242(4) 0.238(2) 0.146(4)
H28 H 0.375(3) 0.305(2) 0.308(4)
O4 O 0.0788(3) 0.43896(12) 0.1682(3)
C26 C 0.1684(4) 0.4414(2) 0.1003(4)
C27 C 0.2739(4) 0.4038(2) 0.1236(5)
C28 C 0.1734(5) 0.4821(2) -0.0107(6)
H20 H 0.3341 0.4186 0.1903
H21 H 0.3099 0.3985 0.0390
H22 H 0.2460 0.3700 0.1559
H23 H 0.1377 0.4669 -0.0948
H24 H 0.2567 0.4923 -0.0207
H25 H 0.1272 0.5132 0.0116
O5 O 0.0361(3) 0.34515(13) 0.3186(3)
H29 H -0.045(5) 0.340(2) 0.306(4)
H30 H 0.063(5) 0.376(2) 0.278(5)
loop_
_geom_bond_atom_site_label_1
_geom_bond_atom_site_label_2
_geom_bond_site_symmetry_1
_geom_bond_site_symmetry_2
O1 C7 1_555 1_555
O2 C19 1_555 1_555
O3 C25 1_555 1_555
O4 C26 1_555 1_555
O5 H29 1_555 1_555
N1 N2 1_555 1_555
N2 C9 1_555 1_555
N3 N4 1_555 1_555
N4 C19 1_555 1_555
C1 N1 1_555 1_555
C2 C1 1_555 1_555
C3 C2 1_555 1_555
C4 C3 1_555 1_555
C5 C4 1_555 1_555
C6 C1 1_555 1_555
C7 N1 1_555 1_555
C8 C7 1_555 1_555
C9 C8 1_555 1_555
C10 C9 1_555 1_555
C11 N3 1_555 1_555
C12 C11 1_555 1_555
C13 C12 1_555 1_555
C14 C13 1_555 1_555
C15 C14 1_555 1_555
C16 C15 1_555 1_555
C17 C16 1_555 1_555
C18 C13 1_555 1_555
C19 C20 1_555 1_555
C20 C21 1_555 1_555
C21 C22 1_555 1_555
C22 C23 1_555 1_555
C23 C24 1_555 1_555
C24 C25 1_555 1_555
C25 C20 1_555 1_555
C26 C27 1_555 1_555
C27 H20 1_555 1_555
C28 C26 1_555 1_555
H1 C2 1_555 1_555
H2 C3 1_555 1_555
H3 C4 1_555 1_555
H4 C5 1_555 1_555
H5 C6 1_555 1_555
H6 C10 1_555 1_555
H7 C10 1_555 1_555
H8 C10 1_555 1_555
H9 C12 1_555 1_555
H10 C12 1_555 1_555
H11 C14 1_555 1_555
H12 C15 1_555 1_555
H13 C16 1_555 1_555
H14 C17 1_555 1_555
H15 C18 1_555 1_555
H16 C21 1_555 1_555
H17 C22 1_555 1_555
H18 C23 1_555 1_555
H19 C24 1_555 1_555
H21 C27 1_555 1_555
H22 C27 1_555 1_555
H23 C28 1_555 1_555
H24 C28 1_555 1_555
H25 C28 1_555 1_555
H26 O3 1_555 1_555
H27 N4 1_555 1_555
H28 N3 1_555 1_555
H30 O5 1_555 1_555
C5 C6 1_555 1_555
C8 C11 1_555 1_555
C17 C18 1_555 1_555

#END
