
#######################################################################
#
#                 Cambridge Crystallographic Data Centre
#                                CCDC 
#
#######################################################################
#
# If this CIF has been generated from an entry in the Cambridge 
# Structural Database, then it will include bibliographic, chemical, 
# crystal, experimental, refinement or atomic coordinate data resulting 
# from the CCDC's data processing and validation procedures.
#
#######################################################################

data_RIVJAI
_chemical_compound_source        'root of Dictamnus radicis Cortex'
_chemical_name_common            (2S,5S,7R,9S)-Isodictamdiol
_chemical_formula_moiety         'C15 H18 O5'
_chemical_name_systematic        
1-(3-Furyl)-4,6-dihydroxy-5,8a-dimethyl-1,4,6,7,8,8a-hexahydro-3H-isochromen-3-one
_symmetry_cell_setting           monoclinic
_symmetry_space_group_name_H-M   'P 21'
_symmetry_Int_Tables_number      4
_space_group_name_Hall           'P 2yb'
loop_
_symmetry_equiv_pos_site_id
_symmetry_equiv_pos_as_xyz
1 x,y,z
2 -x,1/2+y,-z
_cell_length_a                   7.5269(5)
_cell_length_b                   10.5031(7)
_cell_length_c                   18.8455(12)
_cell_angle_alpha                90
_cell_angle_beta                 97.971(3)
_cell_angle_gamma                90
_cell_volume                     1475.45
_exptl_crystal_colour            colorless
_cell_formula_units_Z            4
loop_
_atom_site_label
_atom_site_type_symbol
_atom_site_fract_x
_atom_site_fract_y
_atom_site_fract_z
C1 C 0.8928(5) 0.2548(4) 0.45118(19)
H1 H 0.9146 0.3241 0.4187
C2 C 1.0719(5) 0.1976(4) 0.48085(19)
C3 C 0.6386(5) 0.3758(4) 0.48793(19)
C4 C 0.8619(5) 0.2752(4) 0.58390(18)
C5 C 0.7888(5) 0.3082(3) 0.50694(19)
C8 C 0.6075(6) 0.4059(5) 0.6188(2)
H3 H 0.5138 0.4084 0.6493
H4 H 0.6898 0.4754 0.6329
C9 C 0.5641(6) 0.4033(5) 0.4110(2)
H5 H 0.6488 0.3766 0.3803
H6 H 0.5425 0.4930 0.4051
H7 H 0.4535 0.3578 0.3986
C10 C 0.9335(5) 0.1384(4) 0.58378(17)
H8 H 0.8374 0.0833 0.5607
C13 C 0.5253(5) 0.4244(4) 0.5423(2)
H9 H 0.4135 0.3752 0.5356
C14 C 1.0047(6) 0.0821(4) 0.65483(19)
C16 C 0.7081(6) 0.2800(4) 0.6301(2)
H10 H 0.6259 0.2100 0.6172
H11 H 0.7568 0.2708 0.6803
C26 C 1.1688(7) 0.1074(5) 0.6979(2)
H24 H 1.2577 0.1633 0.6877
C27 C 1.0196(8) -0.0359(5) 0.7541(2)
H25 H 0.9883 -0.0929 0.7881
C28 C 1.0121(6) 0.3686(4) 0.6128(2)
H26 H 0.9667 0.4541 0.6090
H27 H 1.1098 0.3605 0.5853
H28 H 1.0536 0.3493 0.6621
O1 O 1.2024(3) 0.2031(3) 0.44976(14)
O3 O 1.0854(4) 0.1323(3) 0.54209(13)
O4 O 0.8004(4) 0.1549(3) 0.40922(13)
H32 H 0.7327 0.1182 0.4330
O5 O 0.4767(4) 0.5555(3) 0.52814(18)
H33 H 0.5671 0.6000 0.5346
O9 O 1.1715(8) 0.0345(6) 0.7569(2)
C30 C 0.9261(8) -0.0044(6) 0.6917(3)
H36 H 0.8149 -0.0399 0.6750
C6 C 0.2141(5) 0.8413(4) 0.0157(2)
C7 C 0.0704(5) 0.8984(4) -0.0394(2)
H2 H 0.0252 0.8316 -0.0735
C11 C 0.1993(5) 0.8750(4) 0.0929(2)
C12 C 0.3461(5) 0.7743(4) -0.0054(2)
C15 C -0.0863(6) 0.9547(5) -0.0083(3)
C17 C 0.1319(6) 1.0149(4) 0.0918(2)
H12 H 0.2110 1.0669 0.0665
C18 C 0.1198(7) 1.0752(5) 0.1623(2)
C19 C 0.3629(7) 0.7493(5) -0.0834(2)
H13 H 0.2543 0.7748 -0.1128
H14 H 0.3829 0.6601 -0.0901
H15 H 0.4620 0.7970 -0.0966
C20 C 0.3860(6) 0.8686(5) 0.1364(2)
H16 H 0.3764 0.8774 0.1869
H17 H 0.4585 0.9385 0.1227
C21 C 0.4769(7) 0.7424(5) 0.1235(3)
H18 H 0.5927 0.7386 0.1533
H19 H 0.4042 0.6728 0.1374
C22 C 0.5023(6) 0.7266(5) 0.0469(3)
H20 H 0.6069 0.7779 0.0395
C23 C -0.0136(9) 1.0629(6) 0.2071(3)
H21 H -0.1177 1.0141 0.2015
C24 C 0.1987(9) 1.2010(6) 0.2573(3)
H22 H 0.2635 1.2582 0.2885
C25 C 0.2389(10) 1.1590(6) 0.1957(3)
H23 H 0.3408 1.1850 0.1768
C29 C 0.0680(7) 0.7862(5) 0.1242(3)
H29 H 0.1079 0.6998 0.1217
H30 H -0.0493 0.7948 0.0971
H31 H 0.0631 0.8087 0.1733
O2 O -0.2395(4) 0.9477(4) -0.0378(2)
O6 O 0.1330(4) 1.0010(4) -0.07793(14)
H34 H 0.2272 1.0282 -0.0561
O7 O 0.5419(5) 0.5967(3) 0.0295(2)
H35 H 0.5097 0.5487 0.0596
O8 O 0.0571(12) 1.1481(7) 0.2646(2)
O10 O -0.0506(4) 1.0210(3) 0.05209(16)
loop_
_geom_bond_atom_site_label_1
_geom_bond_atom_site_label_2
_geom_bond_site_symmetry_1
_geom_bond_site_symmetry_2
C1 H1 1_555 1_555
C2 C1 1_555 1_555
C3 C5 1_555 1_555
C4 C5 1_555 1_555
C5 C1 1_555 1_555
C6 C7 1_555 1_555
C7 H2 1_555 1_555
C8 H3 1_555 1_555
H4 C8 1_555 1_555
C9 C3 1_555 1_555
H5 C9 1_555 1_555
H6 C9 1_555 1_555
H7 C9 1_555 1_555
C10 C4 1_555 1_555
H8 C10 1_555 1_555
C11 C6 1_555 1_555
C12 C6 1_555 1_555
C13 C3 1_555 1_555
H9 C13 1_555 1_555
C14 C10 1_555 1_555
C15 C7 1_555 1_555
C16 C4 1_555 1_555
H10 C16 1_555 1_555
H11 C16 1_555 1_555
C17 C11 1_555 1_555
H12 C17 1_555 1_555
C18 C17 1_555 1_555
C19 C12 1_555 1_555
H13 C19 1_555 1_555
H14 C19 1_555 1_555
H15 C19 1_555 1_555
C20 C11 1_555 1_555
H16 C20 1_555 1_555
H17 C20 1_555 1_555
C21 C20 1_555 1_555
H18 C21 1_555 1_555
H19 C21 1_555 1_555
C22 C12 1_555 1_555
H20 C22 1_555 1_555
C23 C18 1_555 1_555
H21 C23 1_555 1_555
C24 H22 1_555 1_555
C25 C18 1_555 1_555
H23 C25 1_555 1_555
C26 C14 1_555 1_555
H24 C26 1_555 1_555
C27 H25 1_555 1_555
C28 C4 1_555 1_555
H26 C28 1_555 1_555
H27 C28 1_555 1_555
H28 C28 1_555 1_555
C29 C11 1_555 1_555
H29 C29 1_555 1_555
H30 C29 1_555 1_555
H31 C29 1_555 1_555
O1 C2 1_555 1_555
O2 C15 1_555 1_555
O3 C2 1_555 1_555
O4 C1 1_555 1_555
H32 O4 1_555 1_555
O5 C13 1_555 1_555
H33 O5 1_555 1_555
O6 C7 1_555 1_555
H34 O6 1_555 1_555
O7 C22 1_555 1_555
H35 O7 1_555 1_555
O8 C23 1_555 1_555
O9 C26 1_555 1_555
O10 C15 1_555 1_555
C30 C14 1_555 1_555
H36 C30 1_555 1_555
C8 C13 1_555 1_555
C8 C16 1_555 1_555
C10 O3 1_555 1_555
C17 O10 1_555 1_555
C21 C22 1_555 1_555
C24 C25 1_555 1_555
C24 O8 1_555 1_555
C27 O9 1_555 1_555
C27 C30 1_555 1_555

#END
