
#######################################################################
#
#                 Cambridge Crystallographic Data Centre
#                                CCDC 
#
#######################################################################
#
# If this CIF has been generated from an entry in the Cambridge 
# Structural Database, then it will include bibliographic, chemical, 
# crystal, experimental, refinement or atomic coordinate data resulting 
# from the CCDC's data processing and validation procedures.
#
#######################################################################

data_RIVTEX
_chemical_name_common            'Sculponin M'
_chemical_formula_moiety         'C20 H26 O6'
_chemical_name_systematic        
9,19-Dihydroxy-7,7-dimethyl-18-methylene-3,10,15-trioxahexacyclo[15.2.1.0^1,13^.0^4,12^.0^8,12^.0^14,16^]icosan-2-one
_symmetry_cell_setting           monoclinic
_symmetry_space_group_name_H-M   'C 2'
_symmetry_Int_Tables_number      5
_space_group_name_Hall           'C 2y'
loop_
_symmetry_equiv_pos_site_id
_symmetry_equiv_pos_as_xyz
1 x,y,z
2 -x,y,-z
3 1/2+x,1/2+y,z
4 1/2-x,1/2+y,-z
_cell_length_a                   21.7849(9)
_cell_length_b                   6.6516(3)
_cell_length_c                   12.2025(5)
_cell_angle_alpha                90
_cell_angle_beta                 97.698(2)
_cell_angle_gamma                90
_cell_volume                     1752.26
_exptl_crystal_colour            colorless
_exptl_crystal_description       prism
_cell_formula_units_Z            4
loop_
_atom_site_label
_atom_site_type_symbol
_atom_site_fract_x
_atom_site_fract_y
_atom_site_fract_z
O1 O 0.08258(7) 0.4907(3) 0.79182(11)
O2 O 0.15352(6) -0.0437(3) 0.94867(10)
O3 O 0.25081(7) 0.0158(3) 1.00898(12)
O4 O 0.14511(7) -0.1556(3) 0.59397(11)
O5 O 0.28926(7) 0.3232(3) 0.79208(11)
H1 H 0.2848 0.3727 0.8538
C1 C 0.11225(9) 0.3340(4) 0.86042(15)
H2 H 0.0905 0.3120 0.9256
H3 H 0.1558 0.3701 0.8865
C2 C 0.10923(9) 0.1436(4) 0.78824(16)
C3 C 0.17024(9) 0.1313(4) 0.73386(15)
H4 H 0.1851 0.2730 0.7297
C4 C 0.22254(9) 0.0175(4) 0.81084(16)
C5 C 0.23442(10) -0.2005(4) 0.77400(16)
H5 H 0.2652 -0.2701 0.8280
H6 H 0.1957 -0.2801 0.7626
C6 C 0.25980(10) -0.1610(4) 0.66464(16)
H7 H 0.2816 -0.2806 0.6385
C7 C 0.04994(9) 0.1875(4) 0.70446(16)
H8 H 0.0538 0.1181 0.6330
C8 C -0.01328(9) 0.1270(4) 0.74305(16)
C9 C -0.03848(9) 0.2797(4) 0.82220(17)
H9 H -0.0459 0.4093 0.7845
H10 H -0.0081 0.2970 0.8884
H11 H -0.0774 0.2292 0.8437
C10 C -0.06112(10) 0.1119(4) 0.63897(17)
H12 H -0.0492 0.0040 0.5914
H13 H -0.0628 0.2397 0.5987
H14 H -0.1020 0.0823 0.6603
C11 C -0.00706(10) -0.0804(4) 0.79935(17)
H15 H -0.0467 -0.1151 0.8261
H16 H 0.0010 -0.1829 0.7442
C12 C 0.04505(10) -0.0868(4) 0.89665(16)
H17 H 0.0382 0.0174 0.9516
H18 H 0.0459 -0.2198 0.9333
C13 C 0.10529(9) -0.0496(4) 0.85323(15)
H19 H 0.1138 -0.1654 0.8052
C14 C 0.21115(9) 0.0033(4) 0.93031(16)
C15 C 0.28668(10) 0.1124(4) 0.79820(16)
H20 H 0.3176 0.0662 0.8612
O6 O 0.09334(7) 0.4525(3) 0.60555(11)
H21 H 0.0963 0.5773 0.5973
C16 C 0.30269(9) 0.0166(4) 0.69148(17)
C17 C 0.20701(10) -0.0893(4) 0.58012(16)
H22 H 0.2162 -0.0745 0.5024
C18 C 0.16284(10) 0.0528(4) 0.61637(16)
H23 H 0.1449 0.1511 0.5588
C19 C 0.34355(11) 0.0888(4) 0.63061(18)
H24 H 0.3482 0.0276 0.5619
H25 H 0.3682 0.2017 0.6557
C20 C 0.05551(10) 0.4127(4) 0.68817(16)
H26 H 0.0135 0.4728 0.6669
loop_
_geom_bond_atom_site_label_1
_geom_bond_atom_site_label_2
_geom_bond_site_symmetry_1
_geom_bond_site_symmetry_2
O1 C1 1_555 1_555
O2 C13 1_555 1_555
O3 C14 1_555 1_555
O4 C17 1_555 1_555
O5 H1 1_555 1_555
C1 H2 1_555 1_555
H3 C1 1_555 1_555
C2 C1 1_555 1_555
C3 C2 1_555 1_555
H4 C3 1_555 1_555
C4 C3 1_555 1_555
C5 C4 1_555 1_555
H5 C5 1_555 1_555
H6 C5 1_555 1_555
C6 C5 1_555 1_555
H7 C6 1_555 1_555
C7 C2 1_555 1_555
H8 C7 1_555 1_555
C8 C7 1_555 1_555
C9 C8 1_555 1_555
H9 C9 1_555 1_555
H10 C9 1_555 1_555
H11 C9 1_555 1_555
C10 C8 1_555 1_555
H12 C10 1_555 1_555
H13 C10 1_555 1_555
H14 C10 1_555 1_555
C11 C8 1_555 1_555
H15 C11 1_555 1_555
H16 C11 1_555 1_555
C12 C11 1_555 1_555
H17 C12 1_555 1_555
H18 C12 1_555 1_555
C13 C2 1_555 1_555
H19 C13 1_555 1_555
C14 O2 1_555 1_555
C15 O5 1_555 1_555
H20 C15 1_555 1_555
O6 H21 1_555 1_555
C16 C6 1_555 1_555
C17 C6 1_555 1_555
H22 C17 1_555 1_555
C18 O4 1_555 1_555
H23 C18 1_555 1_555
C19 C16 1_555 1_555
H24 C19 1_555 1_555
H25 C19 1_555 1_555
C20 O1 1_555 1_555
H26 C20 1_555 1_555
C3 C18 1_555 1_555
C4 C14 1_555 1_555
C4 C15 1_555 1_555
C7 C20 1_555 1_555
C12 C13 1_555 1_555
C15 C16 1_555 1_555
O6 C20 1_555 1_555
C17 C18 1_555 1_555

#END
