
#######################################################################
#
#                 Cambridge Crystallographic Data Centre
#                                CCDC 
#
#######################################################################
#
# If this CIF has been generated from an entry in the Cambridge 
# Structural Database, then it will include bibliographic, chemical, 
# crystal, experimental, refinement or atomic coordinate data resulting 
# from the CCDC's data processing and validation procedures.
#
#######################################################################

data_RIWBEF
_chemical_formula_moiety         'C28 H34 O4'
_chemical_name_systematic        
'(2Z,4E,6E,8E)-4-formyl-2-methoxyphenyl 3,7-dimethyl-9-(2,6,6-trimethylcyclohex-1-enyl)nona-2,4,6,8-tetraenoate'
_symmetry_cell_setting           monoclinic
_symmetry_space_group_name_H-M   'P 21/c'
_symmetry_Int_Tables_number      14
_space_group_name_Hall           '-P 2ybc'
loop_
_symmetry_equiv_pos_site_id
_symmetry_equiv_pos_as_xyz
1 x,y,z
2 -x,1/2+y,1/2-z
3 -x,-y,-z
4 x,1/2-y,1/2+z
_cell_length_a                   22.235(3)
_cell_length_b                   7.4117(10)
_cell_length_c                   15.990(2)
_cell_angle_alpha                90
_cell_angle_beta                 109.253(3)
_cell_angle_gamma                90
_cell_volume                     2487.76
_exptl_crystal_colour            yellow
_exptl_crystal_description       prismatic
_chemical_melting_point          '382-383 K'
_cell_formula_units_Z            4
_exptl_crystal_recrystallization_method 'ethyl acetate/petroleum ether'
loop_
_atom_site_label
_atom_site_type_symbol
_atom_site_fract_x
_atom_site_fract_y
_atom_site_fract_z
O1 O 0.22487(11) 0.3578(3) 0.55765(15)
O2 O 0.12429(10) 0.2731(3) 0.48530(16)
O3 O 0.11033(11) 0.6176(3) 0.44612(14)
O4 O 0.01408(16) 0.8833(5) 0.67467(19)
C1 C 0.18832(16) 0.2908(4) 0.4931(2)
C2 C 0.19853(18) 0.2201(4) 0.4142(2)
C3 C 0.25457(16) 0.2010(4) 0.4008(2)
C4 C 0.31475(15) 0.2347(4) 0.4692(2)
H1 H 0.3139 0.2628 0.5255
C5 C 0.37195(17) 0.2286(4) 0.4578(3)
C6 C 0.43062(17) 0.2588(4) 0.5278(2)
C7 C 0.49026(16) 0.2587(4) 0.5231(2)
C8 C 0.54347(17) 0.2849(4) 0.6042(2)
C9 C 0.60491(16) 0.2894(4) 0.6117(2)
C10 C 0.66229(16) 0.3151(4) 0.68861(18)
C11 C 0.71843(15) 0.3281(4) 0.67488(19)
C12 C 0.78042(17) 0.3610(5) 0.7473(2)
H2 H 0.8064 0.2532 0.7548
H3 H 0.8028 0.4576 0.7290
C13 C 0.7740(2) 0.4089(8) 0.8332(3)
H4 H 0.8137 0.3817 0.8798
H5 H 0.7669 0.5379 0.8344
C14 C 0.7244(3) 0.3186(8) 0.8513(3)
H6 H 0.7214 0.3676 0.9061
H7 H 0.7368 0.1932 0.8625
C15 C 0.65681(18) 0.3225(5) 0.7821(2)
C16 C 0.25484(18) 0.1445(5) 0.3108(2)
H8 H 0.2119 0.1241 0.2728
H9 H 0.2790 0.0354 0.3158
H10 H 0.2738 0.2380 0.2861
C17 C 0.50354(16) 0.2310(4) 0.4380(2)
H11 H 0.4646 0.2020 0.3917
H12 H 0.5333 0.1338 0.4449
H13 H 0.5212 0.3395 0.4229
C18 C 0.72659(16) 0.3079(4) 0.5850(2)
H14 H 0.7156 0.1871 0.5637
H15 H 0.7701 0.3319 0.5901
H16 H 0.6992 0.3918 0.5442
C19 C 0.6199(2) 0.4863(6) 0.7936(3)
H17 H 0.6157 0.4842 0.8514
H18 H 0.5783 0.4852 0.7494
H19 H 0.6421 0.5937 0.7872
C20 C 0.6261(2) 0.1502(5) 0.8023(2)
H20 H 0.6490 0.0469 0.7928
H21 H 0.5826 0.1436 0.7640
H22 H 0.6274 0.1523 0.8629
C21 C 0.10255(14) 0.3842(5) 0.5391(2)
C22 C 0.09325(14) 0.5657(5) 0.5165(2)
C23 C 0.06675(15) 0.6769(5) 0.5643(2)
C24 C 0.04985(15) 0.6051(5) 0.6335(2)
C25 C 0.05961(17) 0.4255(6) 0.6547(2)
C26 C 0.08636(16) 0.3120(6) 0.6076(2)
C27 C 0.0201(2) 0.7233(8) 0.6830(3)
C28 C 0.10291(19) 0.8019(5) 0.4210(2)
H23 H 0.0589 0.8356 0.4064
H24 H 0.1164 0.8199 0.3704
H25 H 0.1284 0.8750 0.4693
H26 H 0.1607(15) 0.198(4) 0.371(2)
H27 H 0.3749(14) 0.197(4) 0.402(2)
H28 H 0.4269(14) 0.280(4) 0.585(2)
H29 H 0.5280(16) 0.303(4) 0.654(2)
H30 H 0.6150(14) 0.272(4) 0.559(2)
H31 H 0.0562(13) 0.800(4) 0.5505(18)
H32 H 0.0501(17) 0.373(5) 0.702(2)
H33 H 0.0897(15) 0.183(4) 0.620(2)
H34 H 0.0031(19) 0.659(5) 0.724(3)
loop_
_geom_bond_atom_site_label_1
_geom_bond_atom_site_label_2
_geom_bond_site_symmetry_1
_geom_bond_site_symmetry_2
O1 C1 1_555 1_555
O2 C1 1_555 1_555
O3 C22 1_555 1_555
O4 C27 1_555 1_555
C1 C2 1_555 1_555
C2 C3 1_555 1_555
C3 C4 1_555 1_555
C4 H1 1_555 1_555
C5 C4 1_555 1_555
C6 C5 1_555 1_555
C7 C6 1_555 1_555
C8 C7 1_555 1_555
C9 C8 1_555 1_555
C10 C9 1_555 1_555
C11 C10 1_555 1_555
C12 C11 1_555 1_555
H2 C12 1_555 1_555
H3 C12 1_555 1_555
C13 C12 1_555 1_555
H4 C13 1_555 1_555
H5 C13 1_555 1_555
C14 C13 1_555 1_555
H6 C14 1_555 1_555
H7 C14 1_555 1_555
C15 C10 1_555 1_555
C16 C3 1_555 1_555
H8 C16 1_555 1_555
H9 C16 1_555 1_555
H10 C16 1_555 1_555
C17 C7 1_555 1_555
H11 C17 1_555 1_555
H12 C17 1_555 1_555
H13 C17 1_555 1_555
C18 C11 1_555 1_555
H14 C18 1_555 1_555
H15 C18 1_555 1_555
H16 C18 1_555 1_555
C19 C15 1_555 1_555
H17 C19 1_555 1_555
H18 C19 1_555 1_555
H19 C19 1_555 1_555
C20 C15 1_555 1_555
H20 C20 1_555 1_555
H21 C20 1_555 1_555
H22 C20 1_555 1_555
C21 O2 1_555 1_555
C22 C21 1_555 1_555
C23 C22 1_555 1_555
C24 C23 1_555 1_555
C25 C24 1_555 1_555
C26 C21 1_555 1_555
C27 C24 1_555 1_555
C28 O3 1_555 1_555
H23 C28 1_555 1_555
H24 C28 1_555 1_555
H25 C28 1_555 1_555
H26 C2 1_555 1_555
H27 C5 1_555 1_555
H28 C6 1_555 1_555
H29 C8 1_555 1_555
H30 C9 1_555 1_555
H31 C23 1_555 1_555
H32 C25 1_555 1_555
H33 C26 1_555 1_555
H34 C27 1_555 1_555
C14 C15 1_555 1_555
C25 C26 1_555 1_555

#END
