
#######################################################################
#
#                 Cambridge Crystallographic Data Centre
#                                CCDC 
#
#######################################################################
#
# If this CIF has been generated from an entry in the Cambridge 
# Structural Database, then it will include bibliographic, chemical, 
# crystal, experimental, refinement or atomic coordinate data resulting 
# from the CCDC's data processing and validation procedures.
#
#######################################################################

data_RIWCIK
_chemical_formula_moiety         'C30 H50 O5,3(H2 O1)'
_chemical_name_systematic        
'5\b,19-epoxycucurbita-6-ene-3,23(R),24(S),25-tetraol trihydrate'
_chemical_properties_biological  'antidiabetic activity'
_symmetry_cell_setting           orthorhombic
_symmetry_space_group_name_H-M   'P 21 21 21'
_symmetry_Int_Tables_number      19
_space_group_name_Hall           'P 2ac 2ab'
loop_
_symmetry_equiv_pos_site_id
_symmetry_equiv_pos_as_xyz
1 x,y,z
2 1/2-x,-y,1/2+z
3 -x,1/2+y,1/2-z
4 1/2+x,1/2-y,-z
_cell_length_a                   6.33550(12)
_cell_length_b                   13.7125(2)
_cell_length_c                   35.1964(7)
_cell_angle_alpha                90
_cell_angle_beta                 90
_cell_angle_gamma                90
_cell_volume                     3057.71
_exptl_crystal_colour            colorless
_exptl_crystal_description       plate
_cell_formula_units_Z            4
loop_
_atom_site_label
_atom_site_type_symbol
_atom_site_fract_x
_atom_site_fract_y
_atom_site_fract_z
O1 O 1.3215(3) 0.01237(14) 1.14150(5)
H1 H 1.4136 0.0100 1.1244
O2 O 1.4730(3) -0.03781(13) 1.07188(5)
O3 O 1.1521(3) 0.17690(13) 0.78309(5)
H2 H 1.2391 0.2208 0.7888
O4 O 0.7800(3) 0.08652(12) 0.75641(5)
H3 H 0.6754 0.0552 0.7646
O5 O 0.7134(3) 0.35252(12) 0.75434(5)
H4 H 0.8209 0.3750 0.7652
C1 C 1.0924(4) 0.08389(18) 1.07242(7)
H5 H 1.2216 0.1210 1.0789
H6 H 0.9930 0.1294 1.0599
C2 C 0.9921(4) 0.04634(18) 1.10907(7)
H7 H 0.9714 0.1015 1.1268
H8 H 0.8519 0.0182 1.1033
C3 C 1.1297(4) -0.03093(18) 1.12794(7)
H9 H 1.0509 -0.0559 1.1506
C4 C 1.1725(4) -0.11862(18) 1.10158(7)
C5 C 1.2673(4) -0.08232(18) 1.06363(7)
C6 C 1.2998(4) -0.16355(18) 1.03495(7)
H10 H 1.3005 -0.2293 1.0434
C7 C 1.3272(5) -0.14493(18) 0.99857(7)
H11 H 1.3406 -0.1986 0.9817
C8 C 1.3384(4) -0.04367(17) 0.98216(7)
H12 H 1.4836 -0.0365 0.9713
C9 C 1.3207(4) 0.03347(18) 1.01496(7)
C10 C 1.1503(4) 0.00248(17) 1.04433(6)
H13 H 1.0212 -0.0219 1.0310
C11 C 1.3062(4) 0.13783(17) 0.99880(7)
H14 H 1.2589 0.1817 1.0194
H15 H 1.4498 0.1587 0.9913
C12 C 1.1585(4) 0.15244(17) 0.96453(6)
H16 H 1.0103 0.1429 0.9726
H17 H 1.1731 0.2199 0.9549
C13 C 1.2119(4) 0.08000(17) 0.93265(6)
C14 C 1.1836(4) -0.02618(16) 0.94887(6)
C15 C 1.2232(4) -0.08729(17) 0.91307(6)
H18 H 1.1616 -0.1533 0.9157
H19 H 1.3762 -0.0935 0.9079
C16 C 1.1117(4) -0.02934(17) 0.88111(7)
H20 H 0.9790 -0.0622 0.8736
H21 H 1.2042 -0.0248 0.8585
C17 C 1.0636(4) 0.07522(16) 0.89723(6)
H22 H 0.9146 0.0755 0.9066
C18 C 1.4384(4) 0.09949(19) 0.91848(7)
H23 H 1.4529 0.1685 0.9117
H24 H 1.4669 0.0591 0.8961
H25 H 1.5392 0.0833 0.9386
C19 C 1.5199(4) 0.0259(2) 1.04039(7)
H26 H 1.6395 -0.0005 1.0255
H27 H 1.5597 0.0914 1.0499
C20 C 1.0836(4) 0.15501(16) 0.86651(7)
H28 H 1.2278 0.1511 0.8551
C21 C 1.0528(5) 0.25712(17) 0.88294(7)
H29 H 1.0402 0.3043 0.8622
H30 H 1.1744 0.2741 0.8988
H31 H 0.9240 0.2585 0.8984
C22 C 0.9195(4) 0.13639(17) 0.83510(7)
H32 H 0.9254 0.0668 0.8277
H33 H 0.7769 0.1494 0.8454
C23 C 0.9523(4) 0.19888(17) 0.79978(7)
H34 H 0.9526 0.2690 0.8076
C24 C 0.7741(4) 0.18368(17) 0.77097(7)
H35 H 0.6387 0.1901 0.7853
C25 C 0.7634(4) 0.25796(18) 0.73777(7)
C26 C 0.5777(5) 0.2329(2) 0.71226(7)
H36 H 0.4500 0.2259 0.7277
H37 H 0.6063 0.1716 0.6990
H38 H 0.5571 0.2852 0.6936
C27 C 0.9642(5) 0.2672(2) 0.71454(7)
H39 H 0.9359 0.3059 0.6917
H40 H 1.0132 0.2021 0.7071
H41 H 1.0733 0.2994 0.7298
C28 C 1.3224(5) -0.1900(2) 1.12173(7)
H42 H 1.4607 -0.1591 1.1251
H43 H 1.3381 -0.2490 1.1063
H44 H 1.2641 -0.2073 1.1466
C29 C 0.9634(5) -0.17111(18) 1.09385(7)
H45 H 0.8981 -0.1898 1.1180
H46 H 0.9901 -0.2297 1.0786
H47 H 0.8683 -0.1275 1.0799
C30 C 0.9540(4) -0.04740(17) 0.96072(7)
H48 H 0.9439 -0.1141 0.9705
H49 H 0.8611 -0.0403 0.9386
H50 H 0.9110 -0.0013 0.9805
O6 O 0.0121(3) 0.46277(13) 0.78971(5)
H51 H -0.0168 0.4778 0.8123
H52 H 0.0802 0.5097 0.7805
O7 O 0.4201(3) 0.01526(15) 0.78805(5)
H53 H 0.3541 -0.0328 0.7792
H54 H 0.3300 0.0602 0.7877
O8 O 0.3648(3) 0.34177(14) 0.80229(5)
H55 H 0.2831 0.3884 0.7975
H56 H 0.4700 0.3556 0.7888
loop_
_geom_bond_atom_site_label_1
_geom_bond_atom_site_label_2
_geom_bond_site_symmetry_1
_geom_bond_site_symmetry_2
O1 H1 1_555 1_555
O2 C5 1_555 1_555
O3 H2 1_555 1_555
O4 H3 1_555 1_555
O5 H4 1_555 1_555
C1 H5 1_555 1_555
H6 C1 1_555 1_555
C2 C1 1_555 1_555
H7 C2 1_555 1_555
H8 C2 1_555 1_555
C3 O1 1_555 1_555
H9 C3 1_555 1_555
C4 C3 1_555 1_555
C5 C4 1_555 1_555
C6 C5 1_555 1_555
H10 C6 1_555 1_555
C7 C6 1_555 1_555
H11 C7 1_555 1_555
C8 C7 1_555 1_555
H12 C8 1_555 1_555
C9 C8 1_555 1_555
C10 C1 1_555 1_555
H13 C10 1_555 1_555
C11 C9 1_555 1_555
H14 C11 1_555 1_555
H15 C11 1_555 1_555
C12 C11 1_555 1_555
H16 C12 1_555 1_555
H17 C12 1_555 1_555
C13 C12 1_555 1_555
C14 C8 1_555 1_555
C15 C14 1_555 1_555
H18 C15 1_555 1_555
H19 C15 1_555 1_555
C16 C15 1_555 1_555
H20 C16 1_555 1_555
H21 C16 1_555 1_555
C17 C13 1_555 1_555
H22 C17 1_555 1_555
C18 C13 1_555 1_555
H23 C18 1_555 1_555
H24 C18 1_555 1_555
H25 C18 1_555 1_555
C19 O2 1_555 1_555
H26 C19 1_555 1_555
H27 C19 1_555 1_555
C20 C17 1_555 1_555
H28 C20 1_555 1_555
C21 C20 1_555 1_555
H29 C21 1_555 1_555
H30 C21 1_555 1_555
H31 C21 1_555 1_555
C22 C20 1_555 1_555
H32 C22 1_555 1_555
H33 C22 1_555 1_555
C23 O3 1_555 1_555
H34 C23 1_555 1_555
C24 O4 1_555 1_555
H35 C24 1_555 1_555
C25 O5 1_555 1_555
C26 C25 1_555 1_555
H36 C26 1_555 1_555
H37 C26 1_555 1_555
H38 C26 1_555 1_555
C27 C25 1_555 1_555
H39 C27 1_555 1_555
H40 C27 1_555 1_555
H41 C27 1_555 1_555
C28 C4 1_555 1_555
H42 C28 1_555 1_555
H43 C28 1_555 1_555
H44 C28 1_555 1_555
C29 C4 1_555 1_555
H45 C29 1_555 1_555
H46 C29 1_555 1_555
H47 C29 1_555 1_555
C30 C14 1_555 1_555
H48 C30 1_555 1_555
H49 C30 1_555 1_555
H50 C30 1_555 1_555
O6 H51 1_555 1_555
H52 O6 1_555 1_555
O7 H53 1_555 1_555
H54 O7 1_555 1_555
O8 H55 1_555 1_555
H56 O8 1_555 1_555
C2 C3 1_555 1_555
C5 C10 1_555 1_555
C9 C10 1_555 1_555
C9 C19 1_555 1_555
C13 C14 1_555 1_555
C16 C17 1_555 1_555
C22 C23 1_555 1_555
C23 C24 1_555 1_555
C24 C25 1_555 1_555

#END
