
#######################################################################
#
#                 Cambridge Crystallographic Data Centre
#                                CCDC 
#
#######################################################################
#
# If this CIF has been generated from an entry in the Cambridge 
# Structural Database, then it will include bibliographic, chemical, 
# crystal, experimental, refinement or atomic coordinate data resulting 
# from the CCDC's data processing and validation procedures.
#
#######################################################################

data_RIWHOW
_chemical_compound_source        'seeds of Caesalpinia minax'
_chemical_name_common            'Caesalminaxin B monohydrate'
_chemical_formula_moiety         'C26 H36 O11,H2 O1'
_chemical_name_systematic        
"3,5a-Dihydroxy-3,6,6,9a-tetramethyl-3'-oxododecahydrospiro[cyclopenta[a]naphthalene-2,2'-[4,6]dioxabicyclo[3.1.0]hexane]-4,5,9-triyl triacetate monohydrate"
_symmetry_cell_setting           orthorhombic
_symmetry_space_group_name_H-M   'P 21 21 21'
_symmetry_Int_Tables_number      19
_space_group_name_Hall           'P 2ac 2ab'
loop_
_symmetry_equiv_pos_site_id
_symmetry_equiv_pos_as_xyz
1 x,y,z
2 1/2+x,1/2-y,-z
3 -x,1/2+y,1/2-z
4 1/2-x,-y,1/2+z
_cell_length_a                   11.2384(2)
_cell_length_b                   12.0287(3)
_cell_length_c                   19.6185(4)
_cell_angle_alpha                90
_cell_angle_beta                 90
_cell_angle_gamma                90
_cell_volume                     2652.09
_exptl_crystal_colour            colorless
_exptl_crystal_description       block
_cell_formula_units_Z            4
loop_
_atom_site_label
_atom_site_type_symbol
_atom_site_fract_x
_atom_site_fract_y
_atom_site_fract_z
O1 O 0.19248(11) 1.05395(9) 0.41152(6)
O2 O 0.08291(15) 1.14685(15) 0.48880(9)
O3 O 0.31501(10) 0.90316(9) 0.33076(6)
H1 H 0.3130 0.9646 0.3511
O4 O 0.31543(10) 0.73901(9) 0.23721(6)
O5 O 0.20913(13) 0.66027(14) 0.15292(7)
O6 O 0.22040(10) 0.57077(9) 0.31884(6)
O7 O 0.41729(14) 0.54732(15) 0.33786(13)
O8 O 0.27204(10) 0.62888(9) 0.47636(6)
H2 H 0.2838 0.5619 0.4865
O9 O 0.28215(10) 0.83167(10) 0.55175(6)
O10 O 0.16601(11) 0.76099(11) 0.63272(6)
O11 O 0.05896(11) 0.59723(10) 0.61068(6)
C1 C 0.08738(15) 1.02474(13) 0.37100(8)
H3 H 0.0145 1.0346 0.3996
C2 C 0.08186(16) 1.10439(14) 0.31077(9)
H4 H 0.0837 1.1819 0.3277
H5 H 0.0060 1.0934 0.2860
C3 C 0.18591(16) 1.08607(14) 0.26174(9)
H6 H 0.2607 1.1056 0.2855
H7 H 0.1770 1.1377 0.2228
C4 C 0.19715(15) 0.96606(14) 0.23375(8)
C5 C 0.20362(14) 0.88461(12) 0.29697(8)
C6 C 0.21006(13) 0.75914(13) 0.27849(8)
H8 H 0.1369 0.7362 0.2531
C7 C 0.22689(14) 0.68595(13) 0.34143(8)
H9 H 0.3071 0.7004 0.3616
C8 C 0.13244(13) 0.70626(12) 0.39473(8)
H10 H 0.0536 0.6843 0.3754
C9 C 0.12827(13) 0.82960(13) 0.41258(7)
H11 H 0.2096 0.8515 0.4283
C10 C 0.09784(14) 0.90172(13) 0.34977(7)
C11 C 0.04660(14) 0.83053(13) 0.47506(8)
H12 H -0.0373 0.8167 0.4622
H13 H 0.0520 0.9019 0.5000
C12 C 0.19502(14) 0.77989(13) 0.56518(8)
C13 C 0.09797(13) 0.73268(13) 0.51815(8)
C14 C 0.14930(13) 0.64601(12) 0.46393(8)
C15 C 0.00942(13) 0.68709(13) 0.56816(8)
H14 H -0.0779 0.6909 0.5586
C16 C 0.05455(15) 0.70647(14) 0.63611(8)
H15 H -0.0021 0.7251 0.6737
C17 C 0.08099(15) 0.53592(13) 0.46444(8)
H16 H 0.1066 0.4902 0.4258
H17 H -0.0045 0.5508 0.4608
H18 H 0.0972 0.4963 0.5071
C18 C 0.31312(17) 0.96468(15) 0.19147(9)
H19 H 0.3159 0.8969 0.1638
H20 H 0.3818 0.9664 0.2222
H21 H 0.3152 1.0299 0.1615
C19 C 0.09498(17) 0.94239(17) 0.18375(8)
H22 H 0.1052 0.9879 0.1427
H23 H 0.0189 0.9607 0.2054
H24 H 0.0957 0.8635 0.1712
C20 C -0.02696(14) 0.86898(14) 0.32221(8)
H25 H -0.0817 0.8581 0.3605
H26 H -0.0208 0.7999 0.2960
H27 H -0.0572 0.9284 0.2927
C21 C 0.17818(17) 1.11429(14) 0.46811(10)
C22 C 0.2946(2) 1.13117(18) 0.50306(12)
H28 H 0.2911 1.1987 0.5309
H29 H 0.3577 1.1388 0.4689
H30 H 0.3116 1.0671 0.5323
C23 C 0.30360(16) 0.68774(13) 0.17697(9)
C24 C 0.42249(18) 0.67067(17) 0.14392(11)
H31 H 0.4326 0.5919 0.1327
H32 H 0.4855 0.6939 0.1753
H33 H 0.4270 0.7151 0.1021
C25 C 0.32205(18) 0.51054(16) 0.32184(12)
C26 C 0.2979(3) 0.39232(19) 0.30051(19)
H34 H 0.3624 0.3443 0.3167
H35 H 0.2932 0.3883 0.2507
H36 H 0.2223 0.3675 0.3203
O12 O 0.33247(14) 0.41536(13) 0.51514(9)
H37 H 0.4031 0.3913 0.5102
H38 H 0.3161 0.3998 0.5563
loop_
_geom_bond_atom_site_label_1
_geom_bond_atom_site_label_2
_geom_bond_site_symmetry_1
_geom_bond_site_symmetry_2
O1 C1 1_555 1_555
O2 C21 1_555 1_555
O3 H1 1_555 1_555
O4 C6 1_555 1_555
O5 C23 1_555 1_555
O6 C7 1_555 1_555
O7 C25 1_555 1_555
O8 H2 1_555 1_555
O9 C12 1_555 1_555
O10 C12 1_555 1_555
O11 C15 1_555 1_555
C1 H3 1_555 1_555
C2 C1 1_555 1_555
H4 C2 1_555 1_555
H5 C2 1_555 1_555
C3 C2 1_555 1_555
H6 C3 1_555 1_555
H7 C3 1_555 1_555
C4 C3 1_555 1_555
C5 O3 1_555 1_555
C6 C5 1_555 1_555
H8 C6 1_555 1_555
C7 C6 1_555 1_555
H9 C7 1_555 1_555
C8 C7 1_555 1_555
H10 C8 1_555 1_555
C9 C8 1_555 1_555
H11 C9 1_555 1_555
C10 C1 1_555 1_555
C11 C9 1_555 1_555
H12 C11 1_555 1_555
H13 C11 1_555 1_555
C12 C13 1_555 1_555
C13 C11 1_555 1_555
C14 O8 1_555 1_555
C15 C13 1_555 1_555
H14 C15 1_555 1_555
C16 O10 1_555 1_555
H15 C16 1_555 1_555
C17 C14 1_555 1_555
H16 C17 1_555 1_555
H17 C17 1_555 1_555
H18 C17 1_555 1_555
C18 C4 1_555 1_555
H19 C18 1_555 1_555
H20 C18 1_555 1_555
H21 C18 1_555 1_555
C19 C4 1_555 1_555
H22 C19 1_555 1_555
H23 C19 1_555 1_555
H24 C19 1_555 1_555
C20 C10 1_555 1_555
H25 C20 1_555 1_555
H26 C20 1_555 1_555
H27 C20 1_555 1_555
C21 O1 1_555 1_555
C22 C21 1_555 1_555
H28 C22 1_555 1_555
H29 C22 1_555 1_555
H30 C22 1_555 1_555
C23 O4 1_555 1_555
C24 C23 1_555 1_555
H31 C24 1_555 1_555
H32 C24 1_555 1_555
H33 C24 1_555 1_555
C25 O6 1_555 1_555
C26 C25 1_555 1_555
H34 C26 1_555 1_555
H35 C26 1_555 1_555
H36 C26 1_555 1_555
O12 H37 1_555 1_555
H38 O12 1_555 1_555
O11 C16 1_555 1_555
C4 C5 1_555 1_555
C5 C10 1_555 1_555
C8 C14 1_555 1_555
C9 C10 1_555 1_555
C13 C14 1_555 1_555
C15 C16 1_555 1_555

#END
