
#######################################################################
#
#                 Cambridge Crystallographic Data Centre
#                                CCDC 
#
#######################################################################
#
# If this CIF has been generated from an entry in the Cambridge 
# Structural Database, then it will include bibliographic, chemical, 
# crystal, experimental, refinement or atomic coordinate data resulting 
# from the CCDC's data processing and validation procedures.
#
#######################################################################

data_RIWJAK
_chemical_compound_source        'seeds of Caesalpinia minax'
_chemical_name_common            'Caesalminaxin G'
_chemical_formula_moiety         'C29 H44 O11'
_chemical_name_systematic        
'4a-Hydroxy-7,9,10a-trimethoxy-4,4,7,11b-tetramethyl-1,2,3,4,4a,5,6,6a,7,9,10a,11,11a,11b-tetradecahydrophenanthro[3,2-b]furan-1,5,6-triyl triacetate'
_symmetry_cell_setting           orthorhombic
_symmetry_space_group_name_H-M   'P 21 21 21'
_symmetry_Int_Tables_number      19
_space_group_name_Hall           'P 2ac 2ab'
loop_
_symmetry_equiv_pos_site_id
_symmetry_equiv_pos_as_xyz
1 x,y,z
2 1/2+x,1/2-y,-z
3 -x,1/2+y,1/2-z
4 1/2-x,-y,1/2+z
_cell_length_a                   11.35390(10)
_cell_length_b                   11.88610(10)
_cell_length_c                   21.7292(2)
_cell_angle_alpha                90
_cell_angle_beta                 90
_cell_angle_gamma                90
_cell_volume                     2932.43
_exptl_crystal_colour            colorless
_exptl_crystal_description       block
_cell_formula_units_Z            4
loop_
_atom_site_label
_atom_site_type_symbol
_atom_site_fract_x
_atom_site_fract_y
_atom_site_fract_z
O1 O 0.60536(8) 0.24748(8) 0.82797(4)
O2 O 0.65295(10) 0.20961(11) 0.72973(5)
O3 O 0.57077(8) 0.28989(8) 0.95708(4)
H1 H 0.5445 0.2828 0.9212
O4 O 0.68293(9) 0.35034(9) 1.06740(4)
O5 O 0.85121(13) 0.42822(14) 1.10123(6)
O6 O 0.78999(9) 0.14963(8) 1.08718(4)
O7 O 0.62870(10) 0.08034(12) 1.13449(5)
O8 O 0.79563(9) -0.06919(9) 1.04574(4)
O9 O 0.81692(11) -0.13870(9) 0.83326(5)
O10 O 0.63284(10) -0.06623(9) 0.85495(5)
O11 O 1.00815(11) -0.19181(13) 0.85795(6)
C1 C 0.76138(11) 0.25889(12) 0.90479(6)
C2 C 0.72323(12) 0.29250(12) 0.83887(6)
H2 H 0.7787 0.2569 0.8089
C3 C 0.72234(13) 0.41844(13) 0.82759(6)
H3 H 0.6900 0.4336 0.7861
H4 H 0.8042 0.4471 0.8287
C4 C 0.64896(13) 0.48066(12) 0.87540(7)
H5 H 0.5657 0.4572 0.8711
H6 H 0.6530 0.5623 0.8667
C5 C 0.68803(12) 0.46034(11) 0.94258(6)
C6 C 0.69061(11) 0.32895(11) 0.95456(6)
C7 C 0.74268(12) 0.29476(12) 1.01715(6)
H7 H 0.8285 0.3134 1.0183
C8 C 0.72522(11) 0.16958(12) 1.03021(6)
H8 H 0.6397 0.1543 1.0372
C9 C 0.77174(11) 0.09074(11) 0.97999(6)
H9 H 0.8597 0.0937 0.9818
C10 C 0.73484(11) 0.13130(11) 0.91491(6)
H10 H 0.6477 0.1211 0.9115
C11 C 0.79227(13) 0.05682(12) 0.86535(6)
H11 H 0.7705 0.0849 0.8240
H12 H 0.8790 0.0606 0.8693
C12 C 0.75192(13) -0.06396(13) 0.87238(6)
C13 C 0.78043(12) -0.10221(11) 0.93703(6)
C14 C 0.73462(12) -0.03497(12) 0.99104(6)
C15 C 0.86121(13) -0.18207(12) 0.93468(7)
H13 H 0.8968 -0.2162 0.9696
C16 C 0.88879(15) -0.21129(13) 0.86911(7)
H14 H 0.8687 -0.2917 0.8606
C17 C 0.60064(13) -0.04782(13) 0.99785(7)
H15 H 0.5800 -0.1279 0.9976
H16 H 0.5612 -0.0098 0.9635
H17 H 0.5753 -0.0140 1.0368
C18 C 0.59552(15) 0.52092(13) 0.98266(8)
H18 H 0.6238 0.5252 1.0252
H19 H 0.5212 0.4790 0.9815
H20 H 0.5827 0.5971 0.9668
C19 C 0.80603(14) 0.52068(13) 0.95375(7)
H21 H 0.7933 0.6022 0.9541
H22 H 0.8614 0.5013 0.9208
H23 H 0.8386 0.4970 0.9935
C20 C 0.89651(11) 0.27803(13) 0.90686(6)
H24 H 0.9336 0.2390 0.8722
H25 H 0.9280 0.2484 0.9456
H26 H 0.9132 0.3588 0.9041
C21 C 0.58599(13) 0.20066(12) 0.77201(6)
C22 C 0.47388(14) 0.13547(14) 0.77122(7)
H27 H 0.4597 0.1066 0.7296
H28 H 0.4086 0.1846 0.7834
H29 H 0.4796 0.0724 0.8001
C23 C 0.74800(17) 0.40985(15) 1.10738(7)
C24 C 0.6729(2) 0.4496(2) 1.15977(9)
H30 H 0.7216 0.4917 1.1891
H31 H 0.6377 0.3846 1.1805
H32 H 0.6103 0.4985 1.1440
C25 C 0.73281(14) 0.10164(13) 1.13436(6)
C26 C 0.81405(15) 0.07631(15) 1.18676(7)
H33 H 0.7762 0.0975 1.2256
H34 H 0.8872 0.1192 1.1818
H35 H 0.8320 -0.0043 1.1872
C27 C 0.75525(17) -0.17058(14) 1.07449(7)
H36 H 0.6787 -0.1570 1.0940
H37 H 0.8122 -0.1943 1.1058
H38 H 0.7472 -0.2298 1.0434
C28 C 1.0449(2) -0.2317(3) 0.79904(10)
H39 H 1.0255 -0.3117 0.7952
H40 H 1.1301 -0.2215 0.7947
H41 H 1.0042 -0.1892 0.7668
C29 C 0.57785(19) -0.17369(17) 0.85809(10)
H42 H 0.6180 -0.2258 0.8301
H43 H 0.4950 -0.1668 0.8460
H44 H 0.5827 -0.2025 0.9003
loop_
_geom_bond_atom_site_label_1
_geom_bond_atom_site_label_2
_geom_bond_site_symmetry_1
_geom_bond_site_symmetry_2
O1 C2 1_555 1_555
O2 C21 1_555 1_555
O3 H1 1_555 1_555
O4 C7 1_555 1_555
O5 C23 1_555 1_555
O6 C8 1_555 1_555
O7 C25 1_555 1_555
O8 C14 1_555 1_555
O9 C12 1_555 1_555
O10 C12 1_555 1_555
O11 C16 1_555 1_555
C1 C2 1_555 1_555
C2 H2 1_555 1_555
C3 C2 1_555 1_555
H3 C3 1_555 1_555
H4 C3 1_555 1_555
C4 C3 1_555 1_555
H5 C4 1_555 1_555
H6 C4 1_555 1_555
C5 C4 1_555 1_555
C6 O3 1_555 1_555
C7 C6 1_555 1_555
H7 C7 1_555 1_555
C8 C7 1_555 1_555
H8 C8 1_555 1_555
C9 C8 1_555 1_555
H9 C9 1_555 1_555
C10 C1 1_555 1_555
H10 C10 1_555 1_555
C11 C10 1_555 1_555
H11 C11 1_555 1_555
H12 C11 1_555 1_555
C12 C11 1_555 1_555
C13 C12 1_555 1_555
C14 C9 1_555 1_555
C15 C13 1_555 1_555
H13 C15 1_555 1_555
C16 O9 1_555 1_555
H14 C16 1_555 1_555
C17 C14 1_555 1_555
H15 C17 1_555 1_555
H16 C17 1_555 1_555
H17 C17 1_555 1_555
C18 C5 1_555 1_555
H18 C18 1_555 1_555
H19 C18 1_555 1_555
H20 C18 1_555 1_555
C19 C5 1_555 1_555
H21 C19 1_555 1_555
H22 C19 1_555 1_555
H23 C19 1_555 1_555
C20 C1 1_555 1_555
H24 C20 1_555 1_555
H25 C20 1_555 1_555
H26 C20 1_555 1_555
C21 O1 1_555 1_555
C22 C21 1_555 1_555
H27 C22 1_555 1_555
H28 C22 1_555 1_555
H29 C22 1_555 1_555
C23 O4 1_555 1_555
C24 C23 1_555 1_555
H30 C24 1_555 1_555
H31 C24 1_555 1_555
H32 C24 1_555 1_555
C25 O6 1_555 1_555
C26 C25 1_555 1_555
H33 C26 1_555 1_555
H34 C26 1_555 1_555
H35 C26 1_555 1_555
C27 O8 1_555 1_555
H36 C27 1_555 1_555
H37 C27 1_555 1_555
H38 C27 1_555 1_555
C28 O11 1_555 1_555
H39 C28 1_555 1_555
H40 C28 1_555 1_555
H41 C28 1_555 1_555
C29 O10 1_555 1_555
H42 C29 1_555 1_555
H43 C29 1_555 1_555
H44 C29 1_555 1_555
C1 C6 1_555 1_555
C5 C6 1_555 1_555
C9 C10 1_555 1_555
C13 C14 1_555 1_555
C15 C16 1_555 1_555

#END
