
#######################################################################
#
#                 Cambridge Crystallographic Data Centre
#                                CCDC 
#
#######################################################################
#
# If this CIF has been generated from an entry in the Cambridge 
# Structural Database, then it will include bibliographic, chemical, 
# crystal, experimental, refinement or atomic coordinate data resulting 
# from the CCDC's data processing and validation procedures.
#
#######################################################################

data_RIWKEP
_chemical_formula_moiety         'C10 H10 O2'
_chemical_name_systematic        'trans-2-Phenyl-cyclopropane-carboxylic acid'
_symmetry_cell_setting           monoclinic
_symmetry_space_group_name_H-M   'C 2/c'
_symmetry_Int_Tables_number      15
_space_group_name_Hall           '-C 2yn'
loop_
_symmetry_equiv_pos_site_id
_symmetry_equiv_pos_as_xyz
1 x,y,z
2 1/2+x,1/2+y,z
3 x,-y,1/2+z
4 1/2+x,1/2-y,1/2+z
5 -x,-y,-z
6 1/2-x,1/2-y,-z
7 -x,y,1/2-z
8 1/2-x,1/2+y,1/2-z
_cell_length_a                   35.208(9)
_cell_length_b                   4.9437(12)
_cell_length_c                   9.577(2)
_cell_angle_alpha                90.00
_cell_angle_beta                 95.197(5)
_cell_angle_gamma                90.00
_cell_volume                     1660.1
_exptl_crystal_description       'flat plate'
_chemical_melting_point          '85.0-86.0 deg.C'
_cell_formula_units_Z            8
_exptl_crystal_recrystallization_method cyclohexane
loop_
_atom_site_label
_atom_site_type_symbol
_atom_site_fract_x
_atom_site_fract_y
_atom_site_fract_z
C1 C 0.04394(5) 0.2758(3) 0.49695(19)
C2 C 0.07956(5) 0.1261(3) 0.48474(19)
H1 H 0.0986 0.1280 0.5688
C3 C 0.07967(5) -0.1203(4) 0.39127(19)
H2 H 0.0978 -0.2673 0.4200
H3 H 0.0549 -0.1823 0.3454
C4 C 0.09574(5) 0.1379(3) 0.34005(19)
H4 H 0.0789 0.2320 0.2657
C5 C 0.13717(5) 0.1835(3) 0.33111(19)
C6 C 0.16545(5) 0.0449(4) 0.4135(2)
H5 H 0.1584 -0.0857 0.4792
C7 C 0.20365(6) 0.0945(4) 0.4010(2)
H6 H 0.2225 -0.0020 0.4581
C8 C 0.21458(6) 0.2837(4) 0.3061(2)
H7 H 0.2408 0.3175 0.2977
C9 C 0.18687(5) 0.4228(4) 0.2236(2)
H8 H 0.1941 0.5526 0.1579
C10 C 0.14854(5) 0.3738(4) 0.2364(2)
H9 H 0.1298 0.4718 0.1796
H10 H -0.0082(8) 0.397(6) 0.401(3)
O1 O 0.01748(4) 0.2505(3) 0.39729(13)
O2 O 0.04178(3) 0.4302(2) 0.60154(13)
loop_
_geom_bond_atom_site_label_1
_geom_bond_atom_site_label_2
_geom_bond_site_symmetry_1
_geom_bond_site_symmetry_2
C1 C2 1_555 1_555
C2 H1 1_555 1_555
C3 C2 1_555 1_555
H2 C3 1_555 1_555
H3 C3 1_555 1_555
C4 C2 1_555 1_555
H4 C4 1_555 1_555
C5 C4 1_555 1_555
C6 C5 1_555 1_555
H5 C6 1_555 1_555
C7 C6 1_555 1_555
H6 C7 1_555 1_555
C8 C7 1_555 1_555
H7 C8 1_555 1_555
C9 C8 1_555 1_555
H8 C9 1_555 1_555
C10 C5 1_555 1_555
H9 C10 1_555 1_555
H10 O1 1_555 1_555
O1 C1 1_555 1_555
O2 C1 1_555 1_555
C3 C4 1_555 1_555
C9 C10 1_555 1_555

#END
