
#######################################################################
#
#                 Cambridge Crystallographic Data Centre
#                                CCDC 
#
#######################################################################
#
# If this CIF has been generated from an entry in the Cambridge 
# Structural Database, then it will include bibliographic, chemical, 
# crystal, experimental, refinement or atomic coordinate data resulting 
# from the CCDC's data processing and validation procedures.
#
#######################################################################

data_RIWQET02
_chemical_formula_moiety         'C13 H12 N4 O4'
_chemical_name_systematic        2-(Methylbenzylamino)-3,5-dinitropyridine
_symmetry_cell_setting           monoclinic
_symmetry_space_group_name_H-M   'P 21'
_symmetry_Int_Tables_number      4
_space_group_name_Hall           'P 2yb'
loop_
_symmetry_equiv_pos_site_id
_symmetry_equiv_pos_as_xyz
1 x,y,z
2 -x,1/2+y,-z
_cell_length_a                   8.352(3)
_cell_length_b                   8.570(3)
_cell_length_c                   8.909(4)
_cell_angle_alpha                90
_cell_angle_beta                 93.98(2)
_cell_angle_gamma                90
_cell_volume                     636.138
_exptl_crystal_colour            yellow
_exptl_crystal_description       block
_cell_formula_units_Z            2
loop_
_atom_site_label
_atom_site_type_symbol
_atom_site_fract_x
_atom_site_fract_y
_atom_site_fract_z
O1 O -0.15648(6) 0.96551(7) 0.73211(6)
O2 O -0.01934(7) 1.06874(7) 0.55883(6)
O3 O 0.51597(7) 0.89231(7) 0.49339(6)
O4 O 0.61185(6) 0.69626(7) 0.62699(6)
N1 N -0.08107(7) 0.67476(7) 0.82450(6)
H1 H -0.164(2) 0.742(2) 0.8061(19)
N2 N 0.17858(7) 0.60322(7) 0.78756(6)
N3 N -0.03936(7) 0.96739(7) 0.65346(6)
N4 N 0.50111(6) 0.78433(7) 0.58295(6)
C1 C -0.24422(7) 0.55578(8) 1.00655(7)
C2 C -0.38688(8) 0.47035(8) 1.00010(7)
H2 H -0.4060(19) 0.397(2) 0.9235(16)
C3 C -0.50551(8) 0.50300(8) 1.09942(7)
H3 H -0.6058(18) 0.447(2) 1.0900(16)
C4 C -0.48067(8) 0.61837(8) 1.20847(7)
H4 H -0.565(2) 0.643(2) 1.2752(17)
C5 C -0.33707(8) 0.70299(8) 1.21699(7)
H5 H -0.3217(17) 0.790(2) 1.2959(15)
C6 C -0.22103(8) 0.67317(8) 1.11588(7)
H6 H -0.1242(18) 0.734(2) 1.1210(15)
C7 C -0.11271(7) 0.52580(8) 0.89942(7)
H7 H -0.0208(17) 0.497(2) 0.9604(14)
C8 C -0.15248(8) 0.39822(8) 0.78313(7)
H8 H -0.1605(19) 0.297(2) 0.8342(18)
H9 H -0.054(2) 0.386(2) 0.7126(16)
H10 H -0.2596(18) 0.428(2) 0.7189(16)
C9 C 0.05719(7) 0.70826(8) 0.76395(7)
C10 C 0.08164(7) 0.84630(8) 0.67686(7)
C11 C 0.22560(8) 0.87036(7) 0.61288(7)
H11 H 0.250(2) 0.963(3) 0.5622(17)
C12 C 0.34521(7) 0.76037(7) 0.64038(7)
C13 C 0.31782(8) 0.62998(8) 0.72973(7)
H12 H 0.4066(19) 0.556(2) 0.7516(15)
loop_
_geom_bond_atom_site_label_1
_geom_bond_atom_site_label_2
_geom_bond_site_symmetry_1
_geom_bond_site_symmetry_2
O1 N3 1_555 1_555
O2 N3 1_555 1_555
O3 N4 1_555 1_555
O4 N4 1_555 1_555
N1 H1 1_555 1_555
N2 C9 1_555 1_555
N3 C10 1_555 1_555
N4 C12 1_555 1_555
C1 C2 1_555 1_555
C2 H2 1_555 1_555
C3 C2 1_555 1_555
H3 C3 1_555 1_555
C4 C3 1_555 1_555
H4 C4 1_555 1_555
C5 C4 1_555 1_555
H5 C5 1_555 1_555
C6 C1 1_555 1_555
H6 C6 1_555 1_555
C7 N1 1_555 1_555
H7 C7 1_555 1_555
C8 C7 1_555 1_555
H8 C8 1_555 1_555
H9 C8 1_555 1_555
H10 C8 1_555 1_555
C9 N1 1_555 1_555
C10 C9 1_555 1_555
C11 C10 1_555 1_555
H11 C11 1_555 1_555
C12 C11 1_555 1_555
C13 N2 1_555 1_555
H12 C13 1_555 1_555
C1 C7 1_555 1_555
C5 C6 1_555 1_555
C12 C13 1_555 1_555

#END
