
#######################################################################
#
#                 Cambridge Crystallographic Data Centre
#                                CCDC 
#
#######################################################################
#
# If this CIF has been generated from an entry in the Cambridge 
# Structural Database, then it will include bibliographic, chemical, 
# crystal, experimental, refinement or atomic coordinate data resulting 
# from the CCDC's data processing and validation procedures.
#
#######################################################################

data_RIWRIB
_chemical_formula_moiety         'C23 H21 N1 O4,C1 H2 Cl2'
_chemical_name_systematic        
'N-(3-benzyl-7a-methyl-2,5-dioxo-2,3,3a,4,5,7a-hexahydro-1-benzofuran-3-yl)benzamide dichloromethane solvate'
_symmetry_cell_setting           triclinic
_symmetry_space_group_name_H-M   'P 1'
_symmetry_Int_Tables_number      1
_space_group_name_Hall           'P 1'
loop_
_symmetry_equiv_pos_site_id
_symmetry_equiv_pos_as_xyz
1 x,y,z
_cell_length_a                   9.4955(4)
_cell_length_b                   11.2983(5)
_cell_length_c                   11.3062(5)
_cell_angle_alpha                75.516(4)
_cell_angle_beta                 69.837(4)
_cell_angle_gamma                89.852(3)
_cell_volume                     1097.76
_exptl_crystal_colour            colorless
_exptl_crystal_description       needle
_cell_formula_units_Z            2
loop_
_atom_site_label
_atom_site_type_symbol
_atom_site_fract_x
_atom_site_fract_y
_atom_site_fract_z
Cl1 Cl 0.12390(12) 1.06838(12) 0.89425(11)
Cl2 Cl 0.12251(14) 1.09801(17) 0.63114(12)
C1 C 0.1067(6) 0.9920(6) 0.7812(5)
H1 H 0.0098 0.9439 0.8173
H2 H 0.1847 0.9362 0.7657
Cl3 Cl 0.85869(13) 0.78299(12) 0.10667(11)
Cl4 Cl 0.88789(19) 0.6538(2) 0.35121(18)
C2 C 0.8978(7) 0.6444(6) 0.1943(7)
H3 H 0.9978 0.6253 0.1468
H4 H 0.8258 0.5788 0.2035
O1 O 0.7167(3) -0.0689(3) 0.4714(3)
O2 O 0.4749(3) -0.0982(3) 0.5978(3)
O3 O 0.5212(4) 0.0127(3) 0.3306(3)
N1 N 0.5305(3) 0.1734(3) 0.4129(3)
H5 H 0.5144 0.2492 0.4070
O4 O 0.8621(5) 0.3828(4) 0.1493(3)
C3 C 0.4889(4) 0.1168(4) 0.3361(4)
C4 C 0.4041(4) 0.1864(4) 0.2559(4)
C5 C 0.5838(4) -0.0286(4) 0.5284(4)
C6 C 0.6014(4) 0.1125(4) 0.5054(3)
C7 C 0.5908(4) 0.1098(4) 0.7387(3)
C8 C 0.7747(4) 0.1391(4) 0.4533(3)
H6 H 0.8057 0.1300 0.5290
C9 C 0.5607(5) -0.0080(4) 0.8221(4)
H7 H 0.4972 -0.0653 0.8137
C10 C 0.8322(4) 0.0333(4) 0.3927(4)
C11 C 0.3241(4) 0.2849(4) 0.2824(4)
H8 H 0.3225 0.3132 0.3533
C12 C 0.6860(4) 0.1952(4) 0.7526(4)
H9 H 0.7067 0.2744 0.6976
C13 C 0.6249(5) -0.0411(4) 0.9184(4)
H10 H 0.6042 -0.1201 0.9740
C14 C 0.8568(5) 0.1712(5) 0.1758(4)
H11 H 0.8693 0.1801 0.0886
C15 C 0.8507(4) 0.2827(5) 0.2221(4)
C16 C 0.5211(4) 0.1485(4) 0.6339(4)
H12 H 0.5190 0.2370 0.6132
H13 H 0.4175 0.1126 0.6699
C17 C 0.4050(4) 0.1443(4) 0.1489(4)
H14 H 0.4581 0.0778 0.1306
C18 C 0.2461(5) 0.3416(5) 0.2032(5)
H15 H 0.1922 0.4077 0.2214
C19 C 0.7500(4) 0.1620(5) 0.8487(4)
H16 H 0.8132 0.2193 0.8576
C20 C 0.8368(4) 0.2665(4) 0.3624(4)
H17 H 0.7719 0.3258 0.3964
H18 H 0.9356 0.2853 0.3641
C21 C 0.8452(5) 0.0592(5) 0.2521(4)
H19 H 0.8451 -0.0070 0.2170
C22 C 0.3270(5) 0.2014(5) 0.0708(4)
H20 H 0.3277 0.1733 0.0000
C23 C 0.7201(4) 0.0449(5) 0.9307(4)
H21 H 0.7636 0.0232 0.9944
C24 C 0.9799(5) -0.0088(5) 0.4065(5)
H22 H 0.9702 -0.0274 0.4967
H23 H 1.0595 0.0554 0.3559
H24 H 1.0029 -0.0808 0.3755
C25 C 0.2480(5) 0.3002(6) 0.0975(5)
H25 H 0.1961 0.3389 0.0444
O5 O 0.2804(3) 0.4156(3) 0.5318(3)
O6 O 0.5238(3) 0.4458(3) 0.4108(3)
O7 O 0.4669(3) 0.4252(3) 0.6814(3)
N2 N 0.4662(3) 0.6268(3) 0.5932(3)
H26 H 0.4834 0.6998 0.5981
O8 O 0.1338(4) 0.7080(4) 0.8508(4)
C26 C 0.2240(4) 0.6147(4) 0.5473(3)
H27 H 0.1960 0.6444 0.4700
C27 C 0.5034(4) 0.5322(4) 0.6727(4)
C28 C 0.5909(4) 0.5609(4) 0.7521(3)
C29 C 0.5965(4) 0.4645(4) 0.8545(4)
H28 H 0.5451 0.3885 0.8718
C30 C 0.4144(4) 0.4825(4) 0.4775(3)
C31 C 0.3205(4) 0.8181(4) 0.2472(4)
H29 H 0.2999 0.8701 0.3021
C32 C 0.4433(4) 0.6477(4) 0.1809(4)
H30 H 0.5061 0.5855 0.1900
C33 C 0.4134(4) 0.7255(4) 0.2633(3)
C34 C 0.1414(4) 0.6431(5) 0.7778(4)
C35 C 0.6784(5) 0.4810(5) 0.9308(4)
H31 H 0.6822 0.4163 0.9988
C36 C 0.7491(4) 0.6898(5) 0.8040(4)
H32 H 0.7998 0.7659 0.7875
C37 C 0.1638(4) 0.4804(4) 0.6063(4)
C38 C 0.6683(4) 0.6737(4) 0.7261(4)
H33 H 0.6663 0.7382 0.6572
C39 C 0.7545(5) 0.5943(5) 0.9051(4)
H34 H 0.8092 0.6059 0.9561
C40 C 0.1242(5) 0.5093(5) 0.8257(4)
H35 H 0.1002 0.4745 0.9148
C41 C 0.1603(4) 0.6976(4) 0.6369(4)
H36 H 0.2265 0.7730 0.6042
H37 H 0.0630 0.7191 0.6324
C42 C 0.3977(4) 0.6122(4) 0.4985(3)
C43 C 0.4809(4) 0.7112(4) 0.3697(4)
H38 H 0.4835 0.7896 0.3897
H39 H 0.5842 0.6917 0.3352
C44 C 0.2572(5) 0.8351(5) 0.1504(4)
H40 H 0.1962 0.8985 0.1400
C45 C 0.2864(5) 0.7562(5) 0.0691(4)
H41 H 0.2439 0.7659 0.0049
C46 C 0.3790(5) 0.6636(5) 0.0850(4)
H42 H 0.3986 0.6110 0.0308
C47 C 0.1409(5) 0.4351(5) 0.7491(4)
H43 H 0.1383 0.3512 0.7851
C48 C 0.0200(5) 0.4482(5) 0.5855(5)
H44 H 0.0366 0.4713 0.4937
H45 H -0.0596 0.4916 0.6297
H46 H -0.0077 0.3615 0.6200
loop_
_geom_bond_atom_site_label_1
_geom_bond_atom_site_label_2
_geom_bond_site_symmetry_1
_geom_bond_site_symmetry_2
Cl1 C1 1_555 1_555
Cl2 C1 1_555 1_555
C1 H1 1_555 1_555
H2 C1 1_555 1_555
Cl3 C2 1_555 1_555
Cl4 C2 1_555 1_555
C2 H3 1_555 1_555
H4 C2 1_555 1_555
O1 C5 1_555 1_555
O2 C5 1_555 1_555
O3 C3 1_555 1_555
N1 H5 1_555 1_555
O4 C15 1_555 1_555
C3 N1 1_555 1_555
C4 C3 1_555 1_555
C5 C6 1_555 1_555
C6 N1 1_555 1_555
C7 C9 1_555 1_555
C8 C6 1_555 1_555
H6 C8 1_555 1_555
C9 H7 1_555 1_555
C10 O1 1_555 1_555
C11 C4 1_555 1_555
H8 C11 1_555 1_555
C12 C7 1_555 1_555
H9 C12 1_555 1_555
C13 C9 1_555 1_555
H10 C13 1_555 1_555
C14 H11 1_555 1_555
C15 C14 1_555 1_555
C16 C6 1_555 1_555
H12 C16 1_555 1_555
H13 C16 1_555 1_555
C17 C4 1_555 1_555
H14 C17 1_555 1_555
C18 C11 1_555 1_555
H15 C18 1_555 1_555
C19 C12 1_555 1_555
H16 C19 1_555 1_555
C20 C8 1_555 1_555
H17 C20 1_555 1_555
H18 C20 1_555 1_555
C21 C10 1_555 1_555
H19 C21 1_555 1_555
C22 C17 1_555 1_555
H20 C22 1_555 1_555
C23 C13 1_555 1_555
H21 C23 1_555 1_555
C24 C10 1_555 1_555
H22 C24 1_555 1_555
H23 C24 1_555 1_555
H24 C24 1_555 1_555
C25 C18 1_555 1_555
H25 C25 1_555 1_555
O5 C30 1_555 1_555
O6 C30 1_555 1_555
O7 C27 1_555 1_555
N2 H26 1_555 1_555
O8 C34 1_555 1_555
C26 H27 1_555 1_555
C27 N2 1_555 1_555
C28 C27 1_555 1_555
C29 C28 1_555 1_555
H28 C29 1_555 1_555
C30 C42 1_555 1_555
C31 H29 1_555 1_555
C32 H30 1_555 1_555
C33 C31 1_555 1_555
C34 C40 1_555 1_555
C35 C29 1_555 1_555
H31 C35 1_555 1_555
C36 H32 1_555 1_555
C37 O5 1_555 1_555
C38 C28 1_555 1_555
H33 C38 1_555 1_555
C39 C35 1_555 1_555
H34 C39 1_555 1_555
C40 H35 1_555 1_555
C41 C26 1_555 1_555
H36 C41 1_555 1_555
H37 C41 1_555 1_555
C42 N2 1_555 1_555
C43 C33 1_555 1_555
H38 C43 1_555 1_555
H39 C43 1_555 1_555
C44 C31 1_555 1_555
H40 C44 1_555 1_555
C45 C44 1_555 1_555
H41 C45 1_555 1_555
C46 C32 1_555 1_555
H42 C46 1_555 1_555
C47 C37 1_555 1_555
H43 C47 1_555 1_555
C48 C37 1_555 1_555
H44 C48 1_555 1_555
H45 C48 1_555 1_555
H46 C48 1_555 1_555
C7 C16 1_555 1_555
C8 C10 1_555 1_555
C14 C21 1_555 1_555
C15 C20 1_555 1_555
C19 C23 1_555 1_555
C22 C25 1_555 1_555
C26 C37 1_555 1_555
C26 C42 1_555 1_555
C32 C33 1_555 1_555
C34 C41 1_555 1_555
C36 C38 1_555 1_555
C36 C39 1_555 1_555
C40 C47 1_555 1_555
C42 C43 1_555 1_555
C45 C46 1_555 1_555

#END
