
#######################################################################
#
#                 Cambridge Crystallographic Data Centre
#                                CCDC 
#
#######################################################################
#
# If this CIF has been generated from an entry in the Cambridge 
# Structural Database, then it will include bibliographic, chemical, 
# crystal, experimental, refinement or atomic coordinate data resulting 
# from the CCDC's data processing and validation procedures.
#
#######################################################################

data_RIWROH
_chemical_formula_moiety         'C52 H79 N8 O2 1+,C24 H20 B1 1-'
_chemical_name_systematic        
"N-cyclohexyl(cyclohexylamino){2-[(2-{[1-(N,N'-dicyclohexylcarbamimidoyl)piperidine-2-carbonyl]amino}-1,2-diphenylethyl)carbamoyl]piperidin-1-yl}methaniminium tetraphenylborate unknown solvate"
_symmetry_cell_setting           orthorhombic
_symmetry_space_group_name_H-M   'P 21 21 21'
_symmetry_Int_Tables_number      19
_space_group_name_Hall           'P 2ac 2ab'
loop_
_symmetry_equiv_pos_site_id
_symmetry_equiv_pos_as_xyz
1 x,y,z
2 1/2-x,-y,1/2+z
3 -x,1/2+y,1/2-z
4 1/2+x,1/2-y,-z
_cell_length_a                   20.6886(6)
_cell_length_b                   21.2747(5)
_cell_length_c                   21.4491(7)
_cell_angle_alpha                90
_cell_angle_beta                 90
_cell_angle_gamma                90
_cell_volume                     9440.69
_exptl_crystal_colour            colorless
_exptl_crystal_description       needle
_cell_formula_units_Z            4
loop_
_atom_site_label
_atom_site_type_symbol
_atom_site_fract_x
_atom_site_fract_y
_atom_site_fract_z
C1 C 0.5113(6) 0.0036(5) -0.0265(6)
H1 H 0.554344 0.001911 -0.046646
H2 H 0.479668 0.019545 -0.057285
C2 C 0.4910(6) -0.0637(5) -0.0037(6)
H3 H 0.488194 -0.092387 -0.039938
H4 H 0.524287 -0.080296 0.025085
C3 C 0.4252(6) -0.0613(5) 0.0298(6)
H5 H 0.413939 -0.103615 0.045510
H6 H 0.391249 -0.047895 0.000151
C4 C 0.4286(6) -0.0141(4) 0.0853(6)
H7 H 0.385983 -0.011995 0.106274
H8 H 0.460872 -0.028708 0.116090
C5 C 0.4474(5) 0.0515(4) 0.0615(6)
H9 H 0.414235 0.067753 0.031632
C6 C 0.5134(6) 0.0467(5) 0.0299(6)
H10 H 0.527633 0.089104 0.016746
H11 H 0.545436 0.030410 0.060228
C7 C 0.4100(6) 0.1912(5) 0.0210(6)
H12 H 0.453003 0.170024 0.017531
C8 C 0.3707(6) 0.1755(5) -0.0340(6)
H13 H 0.327892 0.196058 -0.030720
H14 H 0.363766 0.129450 -0.035866
C9 C 0.4049(7) 0.1976(5) -0.0936(6)
H15 H 0.378089 0.187035 -0.130370
H16 H 0.446812 0.175489 -0.097835
C10 C 0.4166(7) 0.2692(5) -0.0916(7)
H17 H 0.441190 0.282504 -0.128945
H18 H 0.374735 0.291690 -0.091437
C11 C 0.4514(7) 0.2839(5) -0.0379(7)
H19 H 0.457319 0.330014 -0.036020
H20 H 0.494786 0.264547 -0.040961
C12 C 0.4197(7) 0.2621(5) 0.0230(6)
H21 H 0.447655 0.273331 0.058819
H22 H 0.377540 0.283328 0.028446
C13 C 0.4064(5) 0.1403(4) 0.1270(6)
C14 C 0.4061(5) 0.1098(4) 0.2347(5)
H23 H 0.451187 0.117647 0.248079
H24 H 0.403651 0.066315 0.218387
C15 C 0.3628(5) 0.1160(4) 0.2887(6)
H25 H 0.377323 0.087387 0.322328
H26 H 0.318425 0.103632 0.276536
C16 C 0.3625(6) 0.1862(4) 0.3136(6)
H27 H 0.335078 0.190281 0.351137
H28 H 0.406874 0.200393 0.323770
C17 C 0.3351(5) 0.2236(4) 0.2601(5)
H29 H 0.331565 0.268316 0.272387
H30 H 0.291120 0.208083 0.250304
C18 C 0.3777(5) 0.2181(4) 0.2022(6)
H31 H 0.351787 0.235436 0.166835
C19 C 0.4395(5) 0.2553(4) 0.2037(5)
C20 C 0.4995(5) 0.4013(4) 0.1564(6)
C21 C 0.4823(5) 0.3636(4) 0.2170(5)
H32 H 0.521494 0.339511 0.230098
C22 C 0.4587(5) 0.4063(4) 0.1074(6)
H33 H 0.418304 0.385129 0.108277
C23 C 0.4759(6) 0.4431(5) 0.0543(6)
H34 H 0.447180 0.446098 0.019899
C24 C 0.5749(6) 0.4705(5) 0.1076(6)
H35 H 0.614343 0.493329 0.108642
C25 C 0.5327(5) 0.4733(4) 0.0530(6)
H36 H 0.545442 0.496316 0.017091
C26 C 0.5569(5) 0.4349(4) 0.1563(5)
H37 H 0.584262 0.432794 0.191823
C27 C 0.4464(5) 0.3689(4) 0.3284(5)
C28 C 0.4633(5) 0.4064(4) 0.2695(5)
H38 H 0.502088 0.432488 0.279733
C29 C 0.4977(5) 0.3343(4) 0.3575(5)
H39 H 0.540570 0.336670 0.341832
C30 C 0.4837(6) 0.2974(4) 0.4087(6)
H40 H 0.517128 0.273501 0.427680
C31 C 0.4198(6) 0.2946(4) 0.4337(6)
H41 H 0.411122 0.270398 0.469943
C32 C 0.3709(6) 0.3273(4) 0.4045(6)
H42 H 0.327917 0.324236 0.419832
C33 C 0.3840(5) 0.3652(4) 0.3522(5)
H43 H 0.350051 0.388245 0.333066
C34 C 0.4153(5) 0.5141(4) 0.2580(5)
C35 C 0.3579(5) 0.5501(4) 0.2326(5)
H44 H 0.317845 0.532477 0.252040
C36 C 0.3517(5) 0.5434(4) 0.1606(5)
H45 H 0.355598 0.498455 0.149211
H46 H 0.308387 0.558009 0.147512
C37 C 0.4011(5) 0.5794(4) 0.1270(6)
H47 H 0.394697 0.575175 0.081434
H48 H 0.444747 0.563494 0.137491
C38 C 0.3948(5) 0.6497(4) 0.1466(5)
H49 H 0.350918 0.665182 0.136611
H50 H 0.426456 0.675410 0.123174
C39 C 0.4075(5) 0.6562(4) 0.2180(5)
H51 H 0.452428 0.643543 0.227914
H52 H 0.401508 0.700448 0.231211
C40 C 0.3480(5) 0.6310(4) 0.3084(6)
C41 C 0.2924(6) 0.5865(4) 0.4021(6)
H53 H 0.326690 0.609804 0.425385
C42 C 0.3050(6) 0.5142(5) 0.4103(6)
H54 H 0.273877 0.490737 0.384112
H55 H 0.349023 0.504430 0.394896
C43 C 0.2993(6) 0.4922(5) 0.4752(7)
H56 H 0.304880 0.446000 0.476223
H57 H 0.334335 0.511133 0.500386
C44 C 0.2371(7) 0.5083(5) 0.5032(7)
H58 H 0.236897 0.494502 0.547280
H59 H 0.202381 0.485126 0.481174
C45 C 0.2223(7) 0.5802(6) 0.5003(7)
H60 H 0.178649 0.588642 0.517192
H61 H 0.254155 0.603609 0.525826
C46 C 0.2261(6) 0.6021(5) 0.4323(6)
H62 H 0.218913 0.648050 0.430463
H63 H 0.191335 0.581492 0.408023
C47 C 0.3938(5) 0.7206(4) 0.4436(6)
H64 H 0.438564 0.734664 0.435017
H65 H 0.395589 0.678205 0.462544
C48 C 0.3543(5) 0.7189(4) 0.3828(5)
H66 H 0.309761 0.703899 0.393133
C49 C 0.3487(5) 0.7865(4) 0.3573(5)
H67 H 0.392128 0.800925 0.344143
H68 H 0.320661 0.786079 0.319905
C50 C 0.3219(6) 0.8323(5) 0.4034(6)
H69 H 0.322505 0.875031 0.385214
H70 H 0.276383 0.821266 0.412741
C51 C 0.3593(6) 0.8318(5) 0.4608(6)
H71 H 0.340977 0.862760 0.490354
H72 H 0.404433 0.844252 0.451681
C52 C 0.3589(6) 0.7687(4) 0.4899(6)
H73 H 0.313874 0.755032 0.497652
H74 H 0.382021 0.769904 0.530296
N1 N 0.4522(4) 0.0926(3) 0.1162(4)
H75 H 0.484194 0.087303 0.142687
N2 N 0.3776(4) 0.1701(4) 0.0788(5)
N3 N 0.3895(4) 0.1522(3) 0.1872(5)
N4 N 0.4302(4) 0.3181(3) 0.2038(4)
H76 H 0.391242 0.332629 0.195743
N5 N 0.4115(4) 0.4502(3) 0.2509(4)
H77 H 0.376226 0.434434 0.234215
N6 N 0.3626(4) 0.6163(3) 0.2500(4)
N7 N 0.2963(4) 0.6043(3) 0.3366(5)
H78 H 0.262087 0.597086 0.313346
N8 N 0.3815(4) 0.6764(3) 0.3388(4)
H79 H 0.423014 0.679757 0.330759
O1 O 0.4926(3) 0.2307(2) 0.2043(4)
O2 O 0.4580(3) 0.5391(2) 0.2886(3)
C53 C 0.2555(7) 0.7985(5) 0.0299(7)
C54 C 0.2234(7) 0.7408(5) 0.0408(7)
H80 H 0.180370 0.741821 0.056164
C55 C 0.2520(8) 0.6826(6) 0.0302(7)
H81 H 0.230579 0.644264 0.039878
C56 C 0.3186(7) 0.6838(6) 0.0024(7)
H82 H 0.339464 0.645361 -0.007677
C57 C 0.3475(7) 0.7353(6) -0.0079(7)
H83 H 0.390984 0.734038 -0.021994
C58 C 0.3168(7) 0.7965(5) 0.0010(7)
H84 H 0.337612 0.834014 -0.012257
C59 C 0.2464(6) 0.8881(6) 0.1158(7)
C60 C 0.2116(6) 0.9335(6) 0.1463(7)
H85 H 0.173309 0.950917 0.128937
C61 C 0.2354(7) 0.9531(7) 0.2047(8)
H86 H 0.211761 0.985239 0.225376
C62 C 0.2865(6) 0.9317(6) 0.2333(7)
H87 H 0.300183 0.947420 0.272621
C63 C 0.3198(6) 0.8840(6) 0.2020(7)
H88 H 0.357424 0.866276 0.220262
C64 C 0.2996(6) 0.8634(5) 0.1476(6)
H89 H 0.322645 0.829759 0.128834
C65 C 0.2555(4) 0.9090(3) -0.0690(5)
H90 H 0.251531 0.866879 -0.083307
C66 C 0.2727(4) 0.9564(4) -0.1104(4)
H91 H 0.280538 0.946669 -0.152989
C67 C 0.2786(4) 1.0179(3) -0.0895(4)
H92 H 0.290362 1.050340 -0.117799
C68 C 0.2672(4) 1.0321(3) -0.0272(5)
H93 H 0.271179 1.074222 -0.012926
C69 C 0.2500(4) 0.9847(4) 0.0142(4)
H94 H 0.242172 0.994433 0.056757
C70 C 0.2441(4) 0.9232(3) -0.0067(4)
C71 C 0.1428(3) 0.8598(4) 0.0382(5)
C72 C 0.1119(4) 0.8743(4) -0.0175(4)
H95 H 0.136192 0.889397 -0.051997
C73 C 0.0454(4) 0.8667(4) -0.0228(4)
H96 H 0.024229 0.876621 -0.060861
C74 C 0.0098(3) 0.8446(4) 0.0276(5)
H97 H -0.035635 0.839414 0.024025
C75 C 0.0408(5) 0.8301(4) 0.0833(4)
H98 H 0.016464 0.814982 0.117776
C76 C 0.1073(5) 0.8377(4) 0.0886(4)
H99 H 0.128427 0.827758 0.126642
B1 B 0.2228(8) 0.8675(6) 0.0433(8)
loop_
_geom_bond_atom_site_label_1
_geom_bond_atom_site_label_2
_geom_bond_site_symmetry_1
_geom_bond_site_symmetry_2
C1 H1 1_555 1_555
H2 C1 1_555 1_555
C2 C1 1_555 1_555
H3 C2 1_555 1_555
H4 C2 1_555 1_555
C3 C2 1_555 1_555
H5 C3 1_555 1_555
H6 C3 1_555 1_555
C4 C3 1_555 1_555
H7 C4 1_555 1_555
H8 C4 1_555 1_555
C5 C4 1_555 1_555
H9 C5 1_555 1_555
C6 C1 1_555 1_555
H10 C6 1_555 1_555
H11 C6 1_555 1_555
C7 H12 1_555 1_555
C8 C7 1_555 1_555
H13 C8 1_555 1_555
H14 C8 1_555 1_555
C9 C8 1_555 1_555
H15 C9 1_555 1_555
H16 C9 1_555 1_555
C10 C9 1_555 1_555
H17 C10 1_555 1_555
H18 C10 1_555 1_555
C11 C10 1_555 1_555
H19 C11 1_555 1_555
H20 C11 1_555 1_555
C12 C7 1_555 1_555
H21 C12 1_555 1_555
H22 C12 1_555 1_555
C13 N1 1_555 1_555
C14 H23 1_555 1_555
H24 C14 1_555 1_555
C15 C14 1_555 1_555
H25 C15 1_555 1_555
H26 C15 1_555 1_555
C16 C15 1_555 1_555
H27 C16 1_555 1_555
H28 C16 1_555 1_555
C17 C16 1_555 1_555
H29 C17 1_555 1_555
H30 C17 1_555 1_555
C18 C17 1_555 1_555
H31 C18 1_555 1_555
C19 C18 1_555 1_555
C20 C21 1_555 1_555
C21 H32 1_555 1_555
C22 C20 1_555 1_555
H33 C22 1_555 1_555
C23 C22 1_555 1_555
H34 C23 1_555 1_555
C24 H35 1_555 1_555
C25 C23 1_555 1_555
H36 C25 1_555 1_555
C26 C20 1_555 1_555
H37 C26 1_555 1_555
C27 C28 1_555 1_555
C28 C21 1_555 1_555
H38 C28 1_555 1_555
C29 C27 1_555 1_555
H39 C29 1_555 1_555
C30 C29 1_555 1_555
H40 C30 1_555 1_555
C31 C30 1_555 1_555
H41 C31 1_555 1_555
C32 C31 1_555 1_555
H42 C32 1_555 1_555
C33 C27 1_555 1_555
H43 C33 1_555 1_555
C34 C35 1_555 1_555
C35 H44 1_555 1_555
C36 C35 1_555 1_555
H45 C36 1_555 1_555
H46 C36 1_555 1_555
C37 C36 1_555 1_555
H47 C37 1_555 1_555
H48 C37 1_555 1_555
C38 C37 1_555 1_555
H49 C38 1_555 1_555
H50 C38 1_555 1_555
C39 C38 1_555 1_555
H51 C39 1_555 1_555
H52 C39 1_555 1_555
C40 N6 1_555 1_555
C41 H53 1_555 1_555
C42 C41 1_555 1_555
H54 C42 1_555 1_555
H55 C42 1_555 1_555
C43 C42 1_555 1_555
H56 C43 1_555 1_555
H57 C43 1_555 1_555
C44 C43 1_555 1_555
H58 C44 1_555 1_555
H59 C44 1_555 1_555
C45 C44 1_555 1_555
H60 C45 1_555 1_555
H61 C45 1_555 1_555
C46 C41 1_555 1_555
H62 C46 1_555 1_555
H63 C46 1_555 1_555
C47 H64 1_555 1_555
H65 C47 1_555 1_555
C48 C47 1_555 1_555
H66 C48 1_555 1_555
C49 C48 1_555 1_555
H67 C49 1_555 1_555
H68 C49 1_555 1_555
C50 C49 1_555 1_555
H69 C50 1_555 1_555
H70 C50 1_555 1_555
C51 C50 1_555 1_555
H71 C51 1_555 1_555
H72 C51 1_555 1_555
C52 C47 1_555 1_555
H73 C52 1_555 1_555
H74 C52 1_555 1_555
N1 C5 1_555 1_555
H75 N1 1_555 1_555
N2 C7 1_555 1_555
N3 C13 1_555 1_555
N4 C19 1_555 1_555
H76 N4 1_555 1_555
N5 C28 1_555 1_555
H77 N5 1_555 1_555
N6 C35 1_555 1_555
N7 C40 1_555 1_555
H78 N7 1_555 1_555
N8 C40 1_555 1_555
H79 N8 1_555 1_555
O1 C19 1_555 1_555
O2 C34 1_555 1_555
C53 C54 1_555 1_555
C54 H80 1_555 1_555
C55 C54 1_555 1_555
H81 C55 1_555 1_555
C56 C55 1_555 1_555
H82 C56 1_555 1_555
C57 C56 1_555 1_555
H83 C57 1_555 1_555
C58 C53 1_555 1_555
H84 C58 1_555 1_555
C59 C60 1_555 1_555
C60 H85 1_555 1_555
C61 C60 1_555 1_555
H86 C61 1_555 1_555
C62 C61 1_555 1_555
H87 C62 1_555 1_555
C63 C62 1_555 1_555
H88 C63 1_555 1_555
C64 C59 1_555 1_555
H89 C64 1_555 1_555
C65 H90 1_555 1_555
C66 C65 1_555 1_555
H91 C66 1_555 1_555
C67 C66 1_555 1_555
H92 C67 1_555 1_555
C68 C67 1_555 1_555
H93 C68 1_555 1_555
C69 C68 1_555 1_555
H94 C69 1_555 1_555
C70 C65 1_555 1_555
C71 C72 1_555 1_555
C72 H95 1_555 1_555
C73 C72 1_555 1_555
H96 C73 1_555 1_555
C74 C73 1_555 1_555
H97 C74 1_555 1_555
C75 C74 1_555 1_555
H98 C75 1_555 1_555
C76 C71 1_555 1_555
H99 C76 1_555 1_555
B1 C53 1_555 1_555
C5 C6 1_555 1_555
C11 C12 1_555 1_555
C13 N2 1_555 1_555
C14 N3 1_555 1_555
C18 N3 1_555 1_555
C21 N4 1_555 1_555
C24 C25 1_555 1_555
C24 C26 1_555 1_555
C32 C33 1_555 1_555
C34 N5 1_555 1_555
C39 N6 1_555 1_555
C41 N7 1_555 1_555
C45 C46 1_555 1_555
C48 N8 1_555 1_555
C51 C52 1_555 1_555
C57 C58 1_555 1_555
C59 B1 1_555 1_555
C63 C64 1_555 1_555
C69 C70 1_555 1_555
C70 B1 1_555 1_555
C71 B1 1_555 1_555
C75 C76 1_555 1_555

#END
