
#######################################################################
#
#                 Cambridge Crystallographic Data Centre
#                                CCDC 
#
#######################################################################
#
# If this CIF has been generated from an entry in the Cambridge 
# Structural Database, then it will include bibliographic, chemical, 
# crystal, experimental, refinement or atomic coordinate data resulting 
# from the CCDC's data processing and validation procedures.
#
#######################################################################

data_RIWSOI
_chemical_formula_moiety         'C50 H45 N5,0.5(C7 H8)'
_chemical_name_systematic        
'6,15,20-tris(2,4,6-trimethylphenyl)-24,25,26,27,28-penta-azahexacyclo[19.2.1.1^2,5^.1^7,10^.1^11,14^.1^16,19^]octacosa-1(24),2(28),3,5,7,9,11(26),12,14,16,18,20,22-tridecaene toluene solvate'
_symmetry_cell_setting           monoclinic
_symmetry_space_group_name_H-M   'P 21/n'
_symmetry_Int_Tables_number      14
_space_group_name_Hall           '-P 2yn'
loop_
_symmetry_equiv_pos_site_id
_symmetry_equiv_pos_as_xyz
1 x,y,z
2 1/2-x,1/2+y,1/2-z
3 -x,-y,-z
4 1/2+x,1/2-y,1/2+z
_cell_length_a                   12.02532(19)
_cell_length_b                   16.4219(2)
_cell_length_c                   43.1429(5)
_cell_angle_alpha                90
_cell_angle_beta                 95.3076(13)
_cell_angle_gamma                90
_cell_volume                     8483.27
_exptl_crystal_colour            brown
_exptl_crystal_description       plate
_cell_formula_units_Z            8
loop_
_atom_site_label
_atom_site_type_symbol
_atom_site_fract_x
_atom_site_fract_y
_atom_site_fract_z
N1 N 0.49674(12) 0.54056(8) 0.13865(3)
H1 H 0.5546 0.5145 0.1465
N2 N 0.60829(11) 0.45624(8) 0.09255(3)
N3 N 0.81908(11) 0.36818(8) 0.11510(3)
H2 H 0.7705 0.3950 0.1244
N4 N 0.62237(12) 0.52140(9) 0.19116(3)
N5 N 0.79943(12) 0.41126(9) 0.18080(3)
C1 C 0.47635(14) 0.49309(10) 0.05247(4)
H3 H 0.4101 0.5137 0.0427
C2 C 0.82200(14) 0.36277(10) 0.08335(4)
C3 C 0.93392(14) 0.31448(10) 0.16263(4)
C4 C 0.55316(15) 0.57775(11) 0.20390(4)
C5 C 0.55943(14) 0.45724(10) 0.03886(4)
H4 H 0.5629 0.4494 0.0176
C6 C 0.39525(14) 0.67452(10) 0.20203(4)
C7 C 0.90609(14) 0.32388(10) 0.12969(4)
C8 C 0.35853(14) 0.58532(11) 0.10516(4)
H5 H 0.3120 0.5927 0.0869
C9 C 0.51155(13) 0.49304(10) 0.08573(4)
C10 C 0.69566(14) 0.49729(11) 0.21392(4)
C11 C 0.79275(15) 0.30575(11) -0.01923(4)
H6 H 0.7787 0.2579 -0.0305
C12 C 0.78063(14) 0.43752(11) 0.20888(4)
C13 C 0.64312(14) 0.43291(10) 0.06367(4)
C14 C 0.86561(14) 0.44069(11) -0.01592(4)
H7 H 0.9022 0.4836 -0.0247
C15 C 0.98889(14) 0.17487(11) 0.18140(4)
C16 C 0.88621(14) 0.35490(10) 0.18584(4)
C17 C 0.96474(14) 0.28994(10) 0.10639(4)
H8 H 1.0271 0.2565 0.1095
C18 C 0.74131(14) 0.39499(10) 0.05946(4)
C19 C 0.43444(14) 0.59337(10) 0.15467(4)
C20 C 0.67672(15) 0.53748(11) 0.24291(4)
H9 H 0.7172 0.5300 0.2621
C21 C 0.75472(14) 0.31279(10) 0.01036(4)
C22 C 0.45362(14) 0.53572(10) 0.10876(4)
C23 C 0.77413(14) 0.38539(10) 0.02675(4)
C24 C 0.36715(16) 0.81142(11) 0.21940(4)
H10 H 0.3889 0.8658 0.2204
C25 C 1.02246(14) 0.25248(10) 0.17226(3)
C26 C 0.24120(15) 0.70664(11) 0.23161(4)
H11 H 0.1783 0.6901 0.2410
C27 C 0.58870(15) 0.58797(11) 0.23650(4)
H12 H 0.5573 0.6225 0.2504
C28 C 1.18295(15) 0.13459(11) 0.19133(4)
C29 C 0.82723(14) 0.45107(10) 0.01337(4)
C30 C 0.91408(14) 0.31468(10) 0.07783(4)
H13 H 0.9371 0.3016 0.0584
C31 C 0.30045(15) 0.64946(10) 0.21589(4)
C32 C 0.85469(15) 0.39941(12) 0.23328(4)
H14 H 0.8566 0.4091 0.2546
C33 C 1.21451(15) 0.21190(11) 0.18247(4)
H15 H 1.2901 0.2243 0.1829
C34 C 0.91981(15) 0.34742(11) 0.21899(4)
H16 H 0.9751 0.3136 0.2284
C35 C 0.69817(17) 0.24132(11) 0.02411(4)
H17 H 0.6555 0.2120 0.0078
H18 H 0.6493 0.2605 0.0389
H19 H 0.7536 0.2060 0.0343
C36 C 0.46397(14) 0.61342(10) 0.18665(4)
C37 C 1.17393(16) 0.35557(11) 0.16426(5)
H20 H 1.1511 0.3657 0.1427
H21 H 1.2538 0.3589 0.1677
H22 H 1.1410 0.3955 0.1768
C38 C 0.27367(16) 0.78773(11) 0.23364(4)
C39 C 1.06997(15) 0.11732(11) 0.19066(4)
H23 H 1.0478 0.0658 0.1966
C40 C 0.34629(15) 0.62142(11) 0.13376(4)
H24 H 0.2902 0.6574 0.1382
C41 C 0.84243(16) 0.53162(11) 0.02988(4)
H25 H 0.8874 0.5668 0.0184
H26 H 0.8788 0.5231 0.0504
H27 H 0.7708 0.5563 0.0314
C42 C 0.42955(15) 0.75637(11) 0.20365(4)
C43 C 1.13607(14) 0.27160(11) 0.17295(4)
C44 C 0.85061(14) 0.36796(11) -0.03226(4)
C45 C 0.26430(17) 0.56153(11) 0.21410(5)
H28 H 0.2550 0.5446 0.1927
H29 H 0.1947 0.5556 0.2231
H30 H 0.3201 0.5283 0.2253
C46 C 0.53198(17) 0.78425(12) 0.18899(5)
H31 H 0.5976 0.7640 0.2009
H32 H 0.5341 0.8427 0.1887
H33 H 0.5295 0.7639 0.1681
C47 C 0.90020(16) 0.35581(12) -0.06286(4)
H34 H 0.9741 0.3337 -0.0590
H35 H 0.9036 0.4072 -0.0734
H36 H 0.8544 0.3188 -0.0756
C48 C 0.86667(15) 0.15398(12) 0.18166(4)
H37 H 0.8375 0.1796 0.1992
H38 H 0.8584 0.0960 0.1832
H39 H 0.8265 0.1731 0.1628
C49 C 1.26872(17) 0.07037(12) 0.20132(5)
H40 H 1.3075 0.0545 0.1838
H41 H 1.2321 0.0238 0.2092
H42 H 1.3212 0.0920 0.2173
C50 C 0.20560(19) 0.84887(12) 0.24988(5)
H43 H 0.2546 0.8874 0.2609
H44 H 0.1628 0.8212 0.2644
H45 H 0.1560 0.8769 0.2348
N6 N 0.76553(12) 0.73985(8) 0.03023(3)
N7 N 0.91191(12) 0.82046(9) 0.00082(3)
H46 H 0.9001 0.8040 0.0191
N8 N 0.84089(12) 0.73423(8) 0.09503(3)
N9 N 1.06183(11) 0.80894(8) 0.11198(3)
H47 H 1.0193 0.8060 0.0949
C51 C 0.74238(14) 0.70615(10) 0.08378(4)
N10 N 1.08491(11) 0.86795(8) 0.04715(3)
C52 C 1.18506(14) 0.89898(10) 0.06175(4)
C53 C 0.93566(14) 0.73829(10) 0.14745(4)
C54 C 1.03698(14) 0.77783(10) 0.14026(4)
C55 C 0.59750(15) 0.69486(10) 0.00573(4)
H48 H 0.5410 0.6825 -0.0098
C56 C 1.16523(14) 0.84535(10) 0.11549(4)
C57 C 1.08449(14) 0.89099(10) 0.01778(4)
C58 C 1.18234(15) 0.93838(11) 0.01184(4)
H49 H 1.1982 0.9611 -0.0070
C59 C 0.99888(14) 0.86658(10) -0.00592(4)
C60 C 1.33234(15) 1.00086(10) 0.11912(4)
C61 C 0.98957(15) 0.88075(11) -0.03818(4)
H50 H 1.0382 0.9110 -0.0492
C62 C 1.24514(15) 0.94265(11) 0.03916(4)
H51 H 1.3139 0.9685 0.0429
C63 C 1.12774(15) 0.79451(11) 0.16172(4)
H52 H 1.1341 0.7802 0.1827
C64 C 1.20693(14) 0.83603(11) 0.14661(4)
H53 H 1.2757 0.8545 0.1556
C65 C 0.84625(14) 0.71886(10) 0.12707(4)
C66 C 0.69282(15) 0.68075(10) -0.07478(4)
C67 C 0.59611(15) 0.68121(10) 0.03667(4)
H54 H 0.5384 0.6583 0.0467
C68 C 1.22183(14) 0.88803(10) 0.09226(4)
C69 C 0.84476(14) 0.80360(10) -0.02584(4)
C70 C 1.43279(16) 1.03081(11) 0.13323(4)
H55 H 1.4339 1.0815 0.1428
C71 C 0.70322(14) 0.73210(10) 0.00145(4)
C72 C 0.74250(14) 0.76016(10) -0.02572(4)
C73 C 1.33150(14) 0.92476(10) 0.10471(4)
C74 C 0.74408(15) 0.67931(11) 0.13482(4)
H56 H 0.7270 0.6628 0.1545
C75 C 0.53999(16) 0.72410(11) -0.11195(4)
C76 C 0.58917(15) 0.80403(11) -0.06538(4)
C77 C 0.67350(14) 0.74829(10) -0.05603(4)
C78 C 0.89374(15) 0.84075(11) -0.05047(4)
H57 H 0.8668 0.8389 -0.0714
C79 C 0.70265(14) 0.70959(10) 0.05099(4)
C80 C 0.67947(15) 0.67149(11) 0.10790(4)
H58 H 0.6086 0.6485 0.1052
C81 C 0.78164(16) 0.61943(11) -0.06480(4)
H59 H 0.8532 0.6458 -0.0626
H60 H 0.7819 0.5772 -0.0802
H61 H 0.7666 0.5961 -0.0452
C82 C 1.43047(15) 0.88089(11) 0.10321(4)
C83 C 0.52298(16) 0.79051(11) -0.09316(4)
H62 H 0.4660 0.8270 -0.0992
C84 C 1.43174(17) 0.80087(12) 0.08634(5)
H63 H 1.3747 0.7660 0.0932
H64 H 1.5034 0.7755 0.0907
H65 H 1.4180 0.8100 0.0643
C85 C 0.90005(17) 0.77794(14) 0.20183(4)
C86 C 0.93019(14) 0.71770(11) 0.18119(4)
C87 C 1.53153(15) 0.98685(12) 0.13329(4)
C88 C 0.92120(17) 0.68023(17) 0.24416(5)
C89 C 0.62578(16) 0.67052(11) -0.10257(4)
H66 H 0.6389 0.6264 -0.1153
C90 C 1.22611(17) 1.04919(12) 0.11982(4)
H67 H 1.1833 1.0278 0.1357
H68 H 1.1833 1.0453 0.1000
H69 H 1.2441 1.1052 0.1243
C91 C 0.95415(15) 0.63871(12) 0.19175(4)
C92 C 0.56893(16) 0.87751(11) -0.04574(5)
H70 H 0.5175 0.8636 -0.0308
H71 H 0.5382 0.9207 -0.0589
H72 H 0.6383 0.8950 -0.0350
C93 C 1.63819(17) 1.01820(14) 0.15030(5)
H73 H 1.6363 1.0766 0.1509
H74 H 1.7007 1.0008 0.1396
H75 H 1.6455 0.9972 0.1712
C94 C 0.94906(17) 0.62152(14) 0.22333(5)
H76 H 0.9649 0.5690 0.2305
C95 C 0.46690(19) 0.70939(14) -0.14179(5)
H77 H 0.4277 0.6588 -0.1403
H78 H 0.5125 0.7070 -0.1589
H79 H 0.4140 0.7530 -0.1451
C96 C 0.98400(19) 0.57267(12) 0.16992(5)
H80 H 0.9198 0.5593 0.1560
H81 H 1.0083 0.5252 0.1817
H82 H 1.0431 0.5912 0.1582
C97 C 1.52925(15) 0.91299(12) 0.11767(4)
H83 H 1.5954 0.8841 0.1168
C98 C 0.89617(18) 0.75765(17) 0.23320(5)
H84 H 0.8762 0.7973 0.2470
C99 C 0.8703(2) 0.86280(15) 0.19055(6)
H85 H 0.9339 0.8873 0.1823
H86 H 0.8487 0.8949 0.2076
H87 H 0.8095 0.8602 0.1745
C100 C 0.9194(2) 0.6610(2) 0.27838(5)
H88 H 0.9166 0.6030 0.2812
H89 H 0.8549 0.6855 0.2860
H90 H 0.9857 0.6822 0.2897
C101 C 0.74133(16) 0.98407(11) 0.06727(4)
C102 C 0.80278(16) 1.10779(11) 0.09404(4)
H91 H 0.7922 1.1628 0.0979
C103 C 0.83255(17) 0.94386(12) 0.08247(5)
H92 H 0.8430 0.8887 0.0789
C104 C 0.65907(18) 0.93936(13) 0.04469(5)
H93 H 0.6986 0.9018 0.0327
H94 H 0.6195 0.9779 0.0310
H95 H 0.6069 0.9101 0.0560
C105 C 0.90817(16) 0.98559(12) 0.10302(4)
H96 H 0.9691 0.9581 0.1129
C106 C 0.89375(15) 1.06722(11) 0.10885(4)
H97 H 0.9446 1.0948 0.1226
C107 C 0.72755(15) 1.06616(11) 0.07347(4)
H98 H 0.6667 1.0938 0.0636
loop_
_geom_bond_atom_site_label_1
_geom_bond_atom_site_label_2
_geom_bond_site_symmetry_1
_geom_bond_site_symmetry_2
N1 H1 1_555 1_555
N2 C9 1_555 1_555
N3 H2 1_555 1_555
N4 C4 1_555 1_555
N5 C12 1_555 1_555
C1 H3 1_555 1_555
C2 N3 1_555 1_555
C3 C7 1_555 1_555
C4 C27 1_555 1_555
C5 C1 1_555 1_555
H4 C5 1_555 1_555
C6 C31 1_555 1_555
C7 N3 1_555 1_555
C8 H5 1_555 1_555
C9 C1 1_555 1_555
C10 N4 1_555 1_555
C11 H6 1_555 1_555
C12 C10 1_555 1_555
C13 N2 1_555 1_555
C14 H7 1_555 1_555
C15 C25 1_555 1_555
C16 N5 1_555 1_555
C17 C7 1_555 1_555
H8 C17 1_555 1_555
C18 C2 1_555 1_555
C19 N1 1_555 1_555
C20 C10 1_555 1_555
H9 C20 1_555 1_555
C21 C11 1_555 1_555
C22 N1 1_555 1_555
C23 C18 1_555 1_555
C24 H10 1_555 1_555
C25 C3 1_555 1_555
C26 H11 1_555 1_555
C27 C20 1_555 1_555
H12 C27 1_555 1_555
C28 C33 1_555 1_555
C29 C14 1_555 1_555
C30 C2 1_555 1_555
H13 C30 1_555 1_555
C31 C26 1_555 1_555
C32 C12 1_555 1_555
H14 C32 1_555 1_555
C33 H15 1_555 1_555
C34 C16 1_555 1_555
H16 C34 1_555 1_555
C35 C21 1_555 1_555
H17 C35 1_555 1_555
H18 C35 1_555 1_555
H19 C35 1_555 1_555
C36 C4 1_555 1_555
C37 H20 1_555 1_555
H21 C37 1_555 1_555
H22 C37 1_555 1_555
C38 C24 1_555 1_555
C39 C15 1_555 1_555
H23 C39 1_555 1_555
C40 C8 1_555 1_555
H24 C40 1_555 1_555
C41 C29 1_555 1_555
H25 C41 1_555 1_555
H26 C41 1_555 1_555
H27 C41 1_555 1_555
C42 C6 1_555 1_555
C43 C25 1_555 1_555
C44 C11 1_555 1_555
C45 C31 1_555 1_555
H28 C45 1_555 1_555
H29 C45 1_555 1_555
H30 C45 1_555 1_555
C46 C42 1_555 1_555
H31 C46 1_555 1_555
H32 C46 1_555 1_555
H33 C46 1_555 1_555
C47 C44 1_555 1_555
H34 C47 1_555 1_555
H35 C47 1_555 1_555
H36 C47 1_555 1_555
C48 C15 1_555 1_555
H37 C48 1_555 1_555
H38 C48 1_555 1_555
H39 C48 1_555 1_555
C49 C28 1_555 1_555
H40 C49 1_555 1_555
H41 C49 1_555 1_555
H42 C49 1_555 1_555
C50 C38 1_555 1_555
H43 C50 1_555 1_555
H44 C50 1_555 1_555
H45 C50 1_555 1_555
N6 C71 1_555 1_555
N7 H46 1_555 1_555
N8 C51 1_555 1_555
N9 H47 1_555 1_555
C51 C79 1_555 1_555
N10 C52 1_555 1_555
C52 C62 1_555 1_555
C53 C54 1_555 1_555
C54 N9 1_555 1_555
C55 H48 1_555 1_555
C56 N9 1_555 1_555
C57 N10 1_555 1_555
C58 C57 1_555 1_555
H49 C58 1_555 1_555
C59 N7 1_555 1_555
C60 C70 1_555 1_555
C61 C59 1_555 1_555
H50 C61 1_555 1_555
C62 C58 1_555 1_555
H51 C62 1_555 1_555
C63 C54 1_555 1_555
H52 C63 1_555 1_555
C64 C56 1_555 1_555
H53 C64 1_555 1_555
C65 N8 1_555 1_555
C66 C77 1_555 1_555
C67 C55 1_555 1_555
H54 C67 1_555 1_555
C68 C52 1_555 1_555
C69 N7 1_555 1_555
C70 H55 1_555 1_555
C71 C55 1_555 1_555
C72 C69 1_555 1_555
C73 C60 1_555 1_555
C74 C65 1_555 1_555
H56 C74 1_555 1_555
C75 C83 1_555 1_555
C76 C77 1_555 1_555
C77 C72 1_555 1_555
C78 C61 1_555 1_555
H57 C78 1_555 1_555
C79 N6 1_555 1_555
C80 C51 1_555 1_555
H58 C80 1_555 1_555
C81 C66 1_555 1_555
H59 C81 1_555 1_555
H60 C81 1_555 1_555
H61 C81 1_555 1_555
C82 C73 1_555 1_555
C83 C76 1_555 1_555
H62 C83 1_555 1_555
C84 C82 1_555 1_555
H63 C84 1_555 1_555
H64 C84 1_555 1_555
H65 C84 1_555 1_555
C85 C86 1_555 1_555
C86 C53 1_555 1_555
C87 C70 1_555 1_555
C88 C94 1_555 1_555
C89 C66 1_555 1_555
H66 C89 1_555 1_555
C90 C60 1_555 1_555
H67 C90 1_555 1_555
H68 C90 1_555 1_555
H69 C90 1_555 1_555
C91 C86 1_555 1_555
C92 C76 1_555 1_555
H70 C92 1_555 1_555
H71 C92 1_555 1_555
H72 C92 1_555 1_555
C93 C87 1_555 1_555
H73 C93 1_555 1_555
H74 C93 1_555 1_555
H75 C93 1_555 1_555
C94 C91 1_555 1_555
H76 C94 1_555 1_555
C95 C75 1_555 1_555
H77 C95 1_555 1_555
H78 C95 1_555 1_555
H79 C95 1_555 1_555
C96 C91 1_555 1_555
H80 C96 1_555 1_555
H81 C96 1_555 1_555
H82 C96 1_555 1_555
C97 C82 1_555 1_555
H83 C97 1_555 1_555
C98 C85 1_555 1_555
H84 C98 1_555 1_555
C99 C85 1_555 1_555
H85 C99 1_555 1_555
H86 C99 1_555 1_555
H87 C99 1_555 1_555
C100 C88 1_555 1_555
H88 C100 1_555 1_555
H89 C100 1_555 1_555
H90 C100 1_555 1_555
C101 C103 1_555 1_555
C102 H91 1_555 1_555
C103 H92 1_555 1_555
C104 C101 1_555 1_555
H93 C104 1_555 1_555
H94 C104 1_555 1_555
H95 C104 1_555 1_555
C105 C103 1_555 1_555
H96 C105 1_555 1_555
C106 C102 1_555 1_555
H97 C106 1_555 1_555
C107 C101 1_555 1_555
H98 C107 1_555 1_555
C3 C16 1_555 1_555
C5 C13 1_555 1_555
C6 C36 1_555 1_555
C8 C22 1_555 1_555
C9 C22 1_555 1_555
C13 C18 1_555 1_555
C14 C44 1_555 1_555
C17 C30 1_555 1_555
C19 C36 1_555 1_555
C19 C40 1_555 1_555
C21 C23 1_555 1_555
C23 C29 1_555 1_555
C24 C42 1_555 1_555
C26 C38 1_555 1_555
C28 C39 1_555 1_555
C32 C34 1_555 1_555
C33 C43 1_555 1_555
C37 C43 1_555 1_555
C53 C65 1_555 1_555
C56 C68 1_555 1_555
C57 C59 1_555 1_555
C63 C64 1_555 1_555
C67 C79 1_555 1_555
C68 C73 1_555 1_555
C69 C78 1_555 1_555
C71 C72 1_555 1_555
C74 C80 1_555 1_555
C75 C89 1_555 1_555
C87 C97 1_555 1_555
C88 C98 1_555 1_555
C102 C107 1_555 1_555
C105 C106 1_555 1_555

#END
