
#######################################################################
#
#                 Cambridge Crystallographic Data Centre
#                                CCDC 
#
#######################################################################
#
# If this CIF has been generated from an entry in the Cambridge 
# Structural Database, then it will include bibliographic, chemical, 
# crystal, experimental, refinement or atomic coordinate data resulting 
# from the CCDC's data processing and validation procedures.
#
#######################################################################

data_RIWTOJ
_chemical_formula_moiety         'C29 H26 O4 S1'
_chemical_name_systematic        
2-(4-methylphenyl)-6-{2-(4-methylphenyl)-1-[(4-methylphenyl)sulfonyl]cyclopropyl}-4H-pyran-4-one
_symmetry_cell_setting           monoclinic
_symmetry_space_group_name_H-M   'C 2/c'
_symmetry_Int_Tables_number      15
_space_group_name_Hall           '-C 2yn'
loop_
_symmetry_equiv_pos_site_id
_symmetry_equiv_pos_as_xyz
1 x,y,z
2 -x,y,1/2-z
3 1/2+x,1/2+y,z
4 1/2-x,1/2+y,1/2-z
5 -x,-y,-z
6 x,-y,1/2+z
7 1/2-x,1/2-y,-z
8 1/2+x,1/2-y,1/2+z
_cell_length_a                   25.6883(4)
_cell_length_b                   11.16288(14)
_cell_length_c                   17.4819(3)
_cell_angle_alpha                90
_cell_angle_beta                 101.5541(16)
_cell_angle_gamma                90
_cell_volume                     4911.45
_exptl_crystal_colour            colorless
_exptl_crystal_description       plank
_cell_formula_units_Z            8
loop_
_atom_site_label
_atom_site_type_symbol
_atom_site_fract_x
_atom_site_fract_y
_atom_site_fract_z
S1 S 0.68278(2) 0.47600(3) 0.65544(2)
O1 O 0.65313(6) 0.51695(12) 0.71160(8)
O2 O 0.73451(5) 0.52569(11) 0.65640(8)
O3 O 0.57989(6) 0.08978(16) 0.81027(8)
O4 O 0.60616(4) 0.24600(9) 0.61238(6)
C1 C 0.69132(6) 0.31813(14) 0.66791(8)
C2 C 0.72994(6) 0.25862(14) 0.62406(9)
H1 H 0.746894 0.313783 0.592911
C3 C 0.74557(6) 0.27732(16) 0.71012(10)
H2 H 0.771904 0.338475 0.728674
H3 H 0.747364 0.207397 0.743484
C4 C 0.64394(6) 0.49683(13) 0.56120(9)
C5 C 0.59166(7) 0.53254(15) 0.55317(11)
H4 H 0.576457 0.541715 0.596826
C6 C 0.56240(7) 0.55435(17) 0.47941(12)
H5 H 0.527440 0.580323 0.473863
C7 C 0.58365(7) 0.53864(15) 0.41348(11)
C8 C 0.63601(7) 0.50133(16) 0.42255(10)
H6 H 0.650729 0.489239 0.378695
C9 C 0.66661(6) 0.48190(14) 0.49613(10)
H7 H 0.702004 0.459075 0.501920
C10 C 0.55100(10) 0.5631(3) 0.33360(14)
H8 H 0.544947 0.647690 0.327247
H9 H 0.517529 0.522316 0.327806
H10 H 0.569657 0.534850 0.294716
C11 C 0.71634(6) 0.13937(14) 0.58715(9)
C12 C 0.68878(6) 0.13342(15) 0.51019(9)
H11 H 0.678837 0.203903 0.482771
C13 C 0.67593(6) 0.02450(15) 0.47386(10)
H12 H 0.657360 0.022726 0.422416
C14 C 0.69032(7) -0.08225(15) 0.51293(10)
C15 C 0.71730(8) -0.07552(16) 0.58940(11)
H13 H 0.727082 -0.146064 0.616833
C16 C 0.73020(7) 0.03253(16) 0.62634(10)
H14 H 0.748352 0.033835 0.678011
C17 C 0.67717(10) -0.20062(19) 0.47320(14)
H15 H 0.641107 -0.199511 0.444723
H16 H 0.681350 -0.263153 0.511644
H17 H 0.700644 -0.214972 0.437803
C18 C 0.64357(6) 0.25134(14) 0.67980(9)
C19 C 0.63650(7) 0.20052(17) 0.74582(9)
H18 H 0.663256 0.205763 0.790240
C20 C 0.58772(7) 0.13694(17) 0.74976(10)
C21 C 0.54982(7) 0.13360(16) 0.67674(10)
H19 H 0.517597 0.094483 0.674661
C22 C 0.55961(6) 0.18525(13) 0.61161(9)
C23 C 0.52514(6) 0.18502(14) 0.53361(9)
C24 C 0.54229(7) 0.23348(17) 0.46958(10)
H20 H 0.576189 0.266112 0.475882
C25 C 0.50935(8) 0.23341(19) 0.39687(11)
H21 H 0.521500 0.266678 0.354918
C26 C 0.45864(7) 0.18519(17) 0.38452(11)
C27 C 0.44238(7) 0.13545(18) 0.44830(12)
H22 H 0.408728 0.101369 0.441444
C28 C 0.47446(7) 0.13470(17) 0.52181(11)
H23 H 0.462264 0.100621 0.563483
C29 C 0.42223(10) 0.1881(2) 0.30531(13)
H24 H 0.438994 0.148130 0.268031
H25 H 0.414983 0.269755 0.289514
H26 H 0.389529 0.148193 0.307973
loop_
_geom_bond_atom_site_label_1
_geom_bond_atom_site_label_2
_geom_bond_site_symmetry_1
_geom_bond_site_symmetry_2
S1 O1 1_555 1_555
O2 S1 1_555 1_555
O3 C20 1_555 1_555
O4 C18 1_555 1_555
C1 S1 1_555 1_555
C2 C1 1_555 1_555
H1 C2 1_555 1_555
C3 C1 1_555 1_555
H2 C3 1_555 1_555
H3 C3 1_555 1_555
C4 S1 1_555 1_555
C5 C4 1_555 1_555
H4 C5 1_555 1_555
C6 C5 1_555 1_555
H5 C6 1_555 1_555
C7 C6 1_555 1_555
C8 C7 1_555 1_555
H6 C8 1_555 1_555
C9 C4 1_555 1_555
H7 C9 1_555 1_555
C10 C7 1_555 1_555
H8 C10 1_555 1_555
H9 C10 1_555 1_555
H10 C10 1_555 1_555
C11 C2 1_555 1_555
C12 C11 1_555 1_555
H11 C12 1_555 1_555
C13 C12 1_555 1_555
H12 C13 1_555 1_555
C14 C13 1_555 1_555
C15 C14 1_555 1_555
H13 C15 1_555 1_555
C16 C11 1_555 1_555
H14 C16 1_555 1_555
C17 C14 1_555 1_555
H15 C17 1_555 1_555
H16 C17 1_555 1_555
H17 C17 1_555 1_555
C18 C1 1_555 1_555
C19 C18 1_555 1_555
H18 C19 1_555 1_555
C20 C19 1_555 1_555
C21 C20 1_555 1_555
H19 C21 1_555 1_555
C22 O4 1_555 1_555
C23 C22 1_555 1_555
C24 C23 1_555 1_555
H20 C24 1_555 1_555
C25 C24 1_555 1_555
H21 C25 1_555 1_555
C26 C25 1_555 1_555
C27 C26 1_555 1_555
H22 C27 1_555 1_555
C28 C23 1_555 1_555
H23 C28 1_555 1_555
C29 C26 1_555 1_555
H24 C29 1_555 1_555
H25 C29 1_555 1_555
H26 C29 1_555 1_555
C2 C3 1_555 1_555
C8 C9 1_555 1_555
C15 C16 1_555 1_555
C21 C22 1_555 1_555
C27 C28 1_555 1_555

#END
