
#######################################################################
#
#                 Cambridge Crystallographic Data Centre
#                                CCDC 
#
#######################################################################
#
# If this CIF has been generated from an entry in the Cambridge 
# Structural Database, then it will include bibliographic, chemical, 
# crystal, experimental, refinement or atomic coordinate data resulting 
# from the CCDC's data processing and validation procedures.
#
#######################################################################

data_RIWVOJ
_chemical_formula_moiety         'C9 H9 Br1 O3'
_chemical_name_systematic        'rac-2-(2-Bromophenoxy)propionic acid'
_symmetry_cell_setting           monoclinic
_symmetry_space_group_name_H-M   'P 21/n'
_symmetry_Int_Tables_number      14
_space_group_name_Hall           '-P 2yn'
loop_
_symmetry_equiv_pos_site_id
_symmetry_equiv_pos_as_xyz
1 x,y,z
2 1/2-x,1/2+y,1/2-z
3 -x,-y,-z
4 1/2+x,1/2-y,1/2+z
_cell_length_a                   7.4613(2)
_cell_length_b                   7.7470(3)
_cell_length_c                   16.3410(6)
_cell_angle_alpha                90
_cell_angle_beta                 93.6930(10)
_cell_angle_gamma                90
_cell_volume                     942.592
_exptl_crystal_colour            colorless
_exptl_crystal_description       tablet
_chemical_melting_point          '138-139 deg.C'
_cell_formula_units_Z            4
_exptl_crystal_recrystallization_method dichloromethane/hexanes
loop_
_atom_site_label
_atom_site_type_symbol
_atom_site_fract_x
_atom_site_fract_y
_atom_site_fract_z
Br1 Br 0.74749(2) 0.26721(3) 0.349670(12)
O1 O 0.05855(18) 0.18910(19) 0.56291(8)
O2 O 0.18845(16) 0.04920(16) 0.46183(7)
O3 O 0.46621(16) 0.28314(16) 0.47026(8)
C1 C 0.1904(2) 0.1588(2) 0.51522(10)
C2 C 0.3519(2) 0.2733(2) 0.53678(11)
H1 H 0.3121 0.3914 0.5525
C3 C 0.4616(2) 0.1895(2) 0.60786(11)
H2 H 0.5700 0.2580 0.6212
H3 H 0.4959 0.0725 0.5923
H4 H 0.3896 0.1840 0.6559
C4 C 0.3995(2) 0.3595(2) 0.39915(10)
C5 C 0.5130(2) 0.3621(2) 0.33455(11)
C6 C 0.4590(3) 0.4354(2) 0.25967(11)
H5 H 0.5382 0.4359 0.2164
C7 C 0.2900(3) 0.5077(2) 0.24788(11)
H6 H 0.2523 0.5574 0.1965
C8 C 0.1760(2) 0.5073(2) 0.31160(12)
H7 H 0.0600 0.5574 0.3037
C9 C 0.2302(2) 0.4341(2) 0.38705(11)
H8 H 0.1513 0.4352 0.4304
H9 H -0.016(4) 0.124(4) 0.5539(17)
loop_
_geom_bond_atom_site_label_1
_geom_bond_atom_site_label_2
_geom_bond_site_symmetry_1
_geom_bond_site_symmetry_2
Br1 C5 1_555 1_555
O1 C1 1_555 1_555
O2 C1 1_555 1_555
O3 C2 1_555 1_555
C1 C2 1_555 1_555
C2 H1 1_555 1_555
C3 C2 1_555 1_555
H2 C3 1_555 1_555
H3 C3 1_555 1_555
H4 C3 1_555 1_555
C4 O3 1_555 1_555
C5 C4 1_555 1_555
C6 C5 1_555 1_555
H5 C6 1_555 1_555
C7 C6 1_555 1_555
H6 C7 1_555 1_555
C8 C7 1_555 1_555
H7 C8 1_555 1_555
C9 C4 1_555 1_555
H8 C9 1_555 1_555
H9 O1 1_555 1_555
C8 C9 1_555 1_555

#END
