
#######################################################################
#
#                 Cambridge Crystallographic Data Centre
#                                CCDC 
#
#######################################################################
#
# If this CIF has been generated from an entry in the Cambridge 
# Structural Database, then it will include bibliographic, chemical, 
# crystal, experimental, refinement or atomic coordinate data resulting 
# from the CCDC's data processing and validation procedures.
#
#######################################################################

data_RIWWAW
_chemical_formula_moiety         'C9 H9 Br1 O3,C9 H9 Cl1 O3'
_chemical_name_systematic        
'(R)-2-(2-Bromophenoxy)propionic acid (S)-2-(2-chlorophenoxy)propionic acid'
_symmetry_cell_setting           monoclinic
_symmetry_space_group_name_H-M   'P 21'
_symmetry_Int_Tables_number      4
_space_group_name_Hall           'P 2yb'
loop_
_symmetry_equiv_pos_site_id
_symmetry_equiv_pos_as_xyz
1 x,y,z
2 -x,1/2+y,-z
_cell_length_a                   7.4281(2)
_cell_length_b                   7.7164(2)
_cell_length_c                   16.3508(5)
_cell_angle_alpha                90
_cell_angle_beta                 93.2830(10)
_cell_angle_gamma                90
_cell_volume                     935.66
_exptl_crystal_colour            colorless
_exptl_crystal_description       prism
_chemical_melting_point          '126-127.5 deg.C'
_cell_formula_units_Z            2
_exptl_crystal_recrystallization_method dichloromethane/hexanes
loop_
_atom_site_label
_atom_site_type_symbol
_atom_site_fract_x
_atom_site_fract_y
_atom_site_fract_z
Cl1 Cl -0.48716(9) -0.00013(11) 0.90012(4)
O1 O 0.1907(3) 0.0826(3) 0.68771(12)
O2 O 0.0560(2) 0.2268(3) 0.78710(11)
O3 O -0.2215(2) -0.0090(3) 0.77954(11)
C1 C 0.0560(4) 0.1151(4) 0.73472(16)
C2 C -0.1050(3) -0.0004(5) 0.71324(14)
H1 H -0.0642 -0.1191 0.6982
C3 C -0.2133(4) 0.0819(5) 0.64184(16)
H2 H -0.3230 0.0140 0.6294
H3 H -0.1406 0.0842 0.5937
H4 H -0.2462 0.2005 0.6563
C4 C -0.1558(4) -0.0848(4) 0.85120(15)
C5 C -0.2722(4) -0.0870(5) 0.91528(17)
C6 C -0.2185(4) -0.1601(5) 0.99052(17)
H5 H -0.2991 -0.1616 1.0336
C7 C -0.0478(4) -0.2308(5) 1.0027(2)
H6 H -0.0108 -0.2797 1.0543
C8 C 0.0690(4) -0.2304(5) 0.93975(19)
H7 H 0.1855 -0.2802 0.9481
C9 C 0.0164(4) -0.1569(5) 0.86365(17)
H8 H 0.0974 -0.1560 0.8207
H10 H 0.259(5) 0.154(5) 0.695(3)
H9 H 0.236(5) 0.397(5) 0.803(3)
Br1 Br 0.99905(4) 0.53891(7) 0.600493(17)
O4 O 0.3041(3) 0.4645(3) 0.81278(12)
O5 O 0.4377(3) 0.3207(3) 0.71288(11)
O6 O 0.7170(2) 0.5557(4) 0.72112(10)
C10 C 0.4376(4) 0.4320(4) 0.76585(15)
C11 C 0.5998(3) 0.5475(6) 0.78738(13)
H11 H 0.5599 0.6663 0.8027
C12 C 0.7081(4) 0.4624(5) 0.85911(16)
H12 H 0.7424 0.3447 0.8437
H13 H 0.6343 0.4573 0.9068
H14 H 0.8170 0.5306 0.8727
C13 C 0.6504(4) 0.6310(4) 0.64946(16)
C14 C 0.7657(4) 0.6328(4) 0.58501(17)
C15 C 0.7128(4) 0.7049(5) 0.50972(17)
H15 H 0.7934 0.7053 0.4667
C16 C 0.5427(4) 0.7760(5) 0.4974(2)
H16 H 0.5052 0.8250 0.4460
C17 C 0.4273(4) 0.7749(5) 0.56120(18)
H17 H 0.3099 0.8228 0.5529
C18 C 0.4806(4) 0.7048(4) 0.63718(17)
H18 H 0.4010 0.7075 0.6806
loop_
_geom_bond_atom_site_label_1
_geom_bond_atom_site_label_2
_geom_bond_site_symmetry_1
_geom_bond_site_symmetry_2
Cl1 C5 1_555 1_555
O1 C1 1_555 1_555
O2 C1 1_555 1_555
O3 C2 1_555 1_555
C1 C2 1_555 1_555
C2 H1 1_555 1_555
C3 C2 1_555 1_555
H2 C3 1_555 1_555
H3 C3 1_555 1_555
H4 C3 1_555 1_555
C4 O3 1_555 1_555
C5 C4 1_555 1_555
C6 C5 1_555 1_555
H5 C6 1_555 1_555
C7 C6 1_555 1_555
H6 C7 1_555 1_555
C8 C7 1_555 1_555
H7 C8 1_555 1_555
C9 C4 1_555 1_555
H8 C9 1_555 1_555
H9 O4 1_555 1_555
H10 O1 1_555 1_555
Br1 C14 1_555 1_555
O4 C10 1_555 1_555
O5 C10 1_555 1_555
O6 C11 1_555 1_555
C10 C11 1_555 1_555
C11 H11 1_555 1_555
C12 C11 1_555 1_555
H12 C12 1_555 1_555
H13 C12 1_555 1_555
H14 C12 1_555 1_555
C13 O6 1_555 1_555
C14 C13 1_555 1_555
C15 C14 1_555 1_555
H15 C15 1_555 1_555
C16 C15 1_555 1_555
H16 C16 1_555 1_555
C17 C16 1_555 1_555
H17 C17 1_555 1_555
C18 C13 1_555 1_555
H18 C18 1_555 1_555
C8 C9 1_555 1_555
C17 C18 1_555 1_555

#END
