
#######################################################################
#
#                 Cambridge Crystallographic Data Centre
#                                CCDC 
#
#######################################################################
#
# If this CIF has been generated from an entry in the Cambridge 
# Structural Database, then it will include bibliographic, chemical, 
# crystal, experimental, refinement or atomic coordinate data resulting 
# from the CCDC's data processing and validation procedures.
#
#######################################################################

data_RIWWEA
_chemical_formula_moiety         'C9 H9 Br1 O3,C10 H12 O3'
_chemical_name_systematic        
'(R)-2-(2-Bromophenoxy)propionic acid (S)-2-(2-methylphenoxy)propionic acid'
_symmetry_cell_setting           monoclinic
_symmetry_space_group_name_H-M   'P 21'
_symmetry_Int_Tables_number      4
_space_group_name_Hall           'P 2yb'
loop_
_symmetry_equiv_pos_site_id
_symmetry_equiv_pos_as_xyz
1 x,y,z
2 -x,1/2+y,-z
_cell_length_a                   7.3844(3)
_cell_length_b                   7.8299(4)
_cell_length_c                   16.4090(8)
_cell_angle_alpha                90.00
_cell_angle_beta                 93.838(3)
_cell_angle_gamma                90.00
_cell_volume                     946.626
_exptl_crystal_colour            colorless
_exptl_crystal_description       plate
_chemical_melting_point          '105-106 deg.C'
_cell_formula_units_Z            2
_exptl_crystal_recrystallization_method dichloromethane/hexanes
loop_
_atom_site_label
_atom_site_type_symbol
_atom_site_fract_x
_atom_site_fract_y
_atom_site_fract_z
O1 O 0.19042(14) 1.24303(15) 0.68857(6)
O3 O 0.05950(13) 1.10173(14) 0.78821(6)
O5 O -0.21921(10) 1.33374(17) 0.78208(5)
C1 C 0.05758(16) 1.21254(17) 0.73621(7)
C2 C -0.10542(14) 1.3263(2) 0.71580(6)
H1 H -0.0653 1.4435 0.7009
C3 C -0.21841(18) 1.24534(19) 0.64459(7)
H2 H -0.2575 1.1310 0.6603
H3 H -0.1450 1.2366 0.5972
H4 H -0.3252 1.3164 0.6306
C4 C -0.15184(16) 1.41097(16) 0.85268(7)
C5 C -0.26564(17) 1.41330(18) 0.91699(8)
C6 C -0.2112(2) 1.4867(2) 0.99155(8)
H5 H -0.2909 1.4870 1.0347
C7 C -0.03963(19) 1.5598(2) 1.00314(9)
H6 H -0.0012 1.6099 1.0541
C8 C 0.07414(19) 1.5586(2) 0.93955(9)
H7 H 0.1912 1.6086 0.9472
C9 C 0.01999(17) 1.48520(18) 0.86448(7)
H8 H 0.0998 1.4856 0.8214
Br1 Br -0.500948(15) 1.31799(3) 0.902361(7)
H20 H 0.265(4) 1.197(4) 0.6990(15)
O2 O 0.30543(13) 0.86068(13) 0.81053(6)
O4 O 0.43978(13) 1.00726(14) 0.71306(6)
O6 O 0.71983(12) 0.77420(12) 0.72018(5)
C10 C 0.96346(19) 0.7770(2) 0.60504(10)
H9 H 1.0178 0.7315 0.6567
H10 H 0.9510 0.9012 0.6093
H11 H 1.0415 0.7495 0.5608
C11 C 0.44075(17) 0.89420(17) 0.76462(7)
C12 C 0.60368(16) 0.78029(16) 0.78571(7)
H12 H 0.5633 0.6627 0.7999
C13 C 0.71286(18) 0.86078(18) 0.85789(8)
H13 H 0.8245 0.7951 0.8699
H14 H 0.6405 0.8603 0.9058
H15 H 0.7439 0.9787 0.8444
C14 C 0.65457(18) 0.69684(18) 0.64850(7)
C15 C 0.7776(2) 0.69744(19) 0.58684(8)
C16 C 0.7212(2) 0.6216(2) 0.51279(8)
H16 H 0.8024 0.6200 0.4703
C17 C 0.5520(2) 0.5486(2) 0.49870(9)
H17 H 0.5171 0.4995 0.4471
C18 C 0.4326(2) 0.5475(2) 0.56110(9)
H18 H 0.3164 0.4962 0.5524
C19 C 0.48408(19) 0.62203(19) 0.63636(8)
H19 H 0.4032 0.6216 0.6790
H21 H 0.230(3) 0.943(3) 0.8010(13)
loop_
_geom_bond_atom_site_label_1
_geom_bond_atom_site_label_2
_geom_bond_site_symmetry_1
_geom_bond_site_symmetry_2
O1 C1 1_555 1_555
O2 C11 1_555 1_555
O3 C1 1_555 1_555
O4 C11 1_555 1_555
O5 C2 1_555 1_555
O6 C12 1_555 1_555
C1 C2 1_555 1_555
C2 H1 1_555 1_555
C3 C2 1_555 1_555
H2 C3 1_555 1_555
H3 C3 1_555 1_555
H4 C3 1_555 1_555
C4 O5 1_555 1_555
C5 C4 1_555 1_555
C6 C5 1_555 1_555
H5 C6 1_555 1_555
C7 C6 1_555 1_555
H6 C7 1_555 1_555
C8 C7 1_555 1_555
H7 C8 1_555 1_555
C9 C4 1_555 1_555
H8 C9 1_555 1_555
C10 H9 1_555 1_555
H10 C10 1_555 1_555
H11 C10 1_555 1_555
Br1 C5 1_555 1_555
C11 C12 1_555 1_555
C12 H12 1_555 1_555
C13 C12 1_555 1_555
H13 C13 1_555 1_555
H14 C13 1_555 1_555
H15 C13 1_555 1_555
C14 O6 1_555 1_555
C15 C10 1_555 1_555
C16 C15 1_555 1_555
H16 C16 1_555 1_555
C17 C16 1_555 1_555
H17 C17 1_555 1_555
C18 C17 1_555 1_555
H18 C18 1_555 1_555
C19 C14 1_555 1_555
H19 C19 1_555 1_555
H20 O1 1_555 1_555
H21 O2 1_555 1_555
C8 C9 1_555 1_555
C14 C15 1_555 1_555
C18 C19 1_555 1_555

#END
