
#######################################################################
#
#                 Cambridge Crystallographic Data Centre
#                                CCDC 
#
#######################################################################
#
# If this CIF has been generated from an entry in the Cambridge 
# Structural Database, then it will include bibliographic, chemical, 
# crystal, experimental, refinement or atomic coordinate data resulting 
# from the CCDC's data processing and validation procedures.
#
#######################################################################

data_RIWWEA01
_chemical_formula_moiety         'C9 H9 Br1 O3,C10 H12 O3'
_chemical_name_systematic        
'(R)-2-(2-Bromophenoxy)propionic acid (S)-2-(2-methylphenoxy)propionic acid'
_symmetry_cell_setting           monoclinic
_symmetry_space_group_name_H-M   'P 21'
_symmetry_Int_Tables_number      4
_space_group_name_Hall           'P 2yb'
loop_
_symmetry_equiv_pos_site_id
_symmetry_equiv_pos_as_xyz
1 x,y,z
2 -x,1/2+y,-z
_cell_length_a                   11.1927(2)
_cell_length_b                   11.1966(2)
_cell_length_c                   31.0565(6)
_cell_angle_alpha                90
_cell_angle_beta                 90.3200(10)
_cell_angle_gamma                90
_cell_volume                     3891.95
_exptl_crystal_colour            colorless
_exptl_crystal_description       tablet
_chemical_melting_point          '104-106 deg.C'
_cell_formula_units_Z            8
_exptl_crystal_recrystallization_method dichloromethane/hexanes
loop_
_atom_site_label
_atom_site_type_symbol
_atom_site_fract_x
_atom_site_fract_y
_atom_site_fract_z
O1 O 0.7720(4) 0.4219(4) 0.96418(13)
H1 H 0.7957 0.4882 0.9736
O2 O 0.6533(3) 0.4332(4) 1.02120(12)
O3 O 0.5888(3) 0.2025(4) 1.01178(13)
C1 C 0.6940(4) 0.3804(5) 0.98898(18)
C2 C 0.6432(5) 0.2602(6) 0.97595(18)
H2 H 0.7074 0.2085 0.9636
C3 C 0.5446(6) 0.2798(7) 0.9429(2)
H3 H 0.5053 0.2036 0.9366
H4 H 0.5790 0.3123 0.9165
H5 H 0.4860 0.3362 0.9544
C4 C 0.6637(5) 0.1567(5) 1.04375(18)
C5 C 0.6045(5) 0.1067(5) 1.07889(18)
C6 C 0.6715(7) 0.0585(6) 1.1110(2)
H6 H 0.6327 0.0200 1.1344
C7 C 0.7945(6) 0.0643(6) 1.1106(2)
H7 H 0.8393 0.0329 1.1341
C8 C 0.8515(6) 0.1142(6) 1.0770(2)
H8 H 0.9363 0.1158 1.0762
C9 C 0.7852(5) 0.1634(6) 1.0435(2)
H9 H 0.8247 0.2019 1.0204
C10 C 0.4683(6) 0.1105(7) 1.0805(2)
H10 H 0.4408 0.0720 1.1069
H11 H 0.4353 0.0683 1.0555
H12 H 0.4414 0.1938 1.0800
Br1 Br 1.03943(7) 0.96767(8) 0.91434(3)
O4 O 0.7289(3) 0.6523(4) 1.03685(13)
H13 H 0.7077 0.5847 1.0279
O5 O 0.8476(5) 0.6421(4) 0.98072(15)
O6 O 0.9018(3) 0.8772(4) 0.98858(14)
C11 C 0.8061(5) 0.6939(5) 1.01257(19)
C12 C 0.8542(5) 0.8176(6) 1.02487(19)
H14 H 0.7899 0.8668 1.0383
C13 C 0.9580(6) 0.8005(7) 1.0564(2)
H15 H 1.0184 0.7488 1.0433
H16 H 0.9286 0.7635 1.0829
H17 H 0.9936 0.8783 1.0632
C14 C 0.8234(5) 0.9168(5) 0.95786(19)
C15 C 0.8719(5) 0.9671(5) 0.92103(19)
C16 C 0.8006(7) 1.0099(6) 0.8890(2)
H18 H 0.8354 1.0447 0.8642
C17 C 0.6784(6) 1.0032(6) 0.8924(2)
H19 H 0.6289 1.0327 0.8698
C18 C 0.6283(5) 0.9536(6) 0.9284(2)
H20 H 0.5438 0.9483 0.9306
C19 C 0.7003(5) 0.9112(6) 0.9615(2)
H21 H 0.6651 0.8782 0.9866
C20 C -0.0919(7) 0.7313(8) 0.8308(3)
H22 H -0.0212 0.7614 0.8158
H23 H -0.0880 0.7550 0.8612
H24 H -0.1640 0.7650 0.8175
O7 O 0.2222(4) 0.4345(4) 0.71410(13)
H25 H 0.2883 0.4114 0.7239
O8 O 0.2330(4) 0.5549(4) 0.77071(14)
O9 O 0.0014(4) 0.6145(4) 0.76130(14)
C21 C 0.1795(5) 0.5130(5) 0.73870(19)
C22 C 0.0585(5) 0.5644(5) 0.7260(2)
H26 H 0.0074 0.4999 0.7134
C23 C 0.0773(6) 0.6608(7) 0.6933(2)
H27 H 0.0022 0.7040 0.6886
H28 H 0.1035 0.6250 0.6661
H29 H 0.1385 0.7164 0.7038
C24 C -0.0449(5) 0.5408(6) 0.7927(2)
C25 C -0.0956(5) 0.5980(6) 0.8276(2)
C26 C -0.1450(6) 0.5275(9) 0.8595(2)
H30 H -0.1821 0.5642 0.8835
C27 C -0.1413(6) 0.4050(8) 0.8567(2)
H31 H -0.1781 0.3580 0.8784
C28 C -0.0867(7) 0.3520(7) 0.8241(2)
H32 H -0.0809 0.2674 0.8236
C29 C -0.0379(6) 0.4181(6) 0.7908(2)
H33 H -0.0006 0.3796 0.7671
Br2 Br 0.76617(7) 0.16215(7) 0.66451(3)
O10 O 0.4514(3) 0.4776(4) 0.78667(13)
H34 H 0.3858 0.5022 0.7769
O11 O 0.4399(4) 0.3563(5) 0.73023(15)
O12 O 0.6750(4) 0.3003(4) 0.73848(14)
C30 C 0.4947(5) 0.3995(5) 0.76116(19)
C31 C 0.6140(5) 0.3479(5) 0.77521(18)
H35 H 0.6637 0.4113 0.7892
C32 C 0.5964(6) 0.2458(6) 0.8057(2)
H36 H 0.5376 0.1901 0.7936
H37 H 0.5674 0.2764 0.8334
H38 H 0.6725 0.2043 0.8102
C33 C 0.7139(5) 0.3790(5) 0.70776(19)
C34 C 0.7659(5) 0.3275(6) 0.67164(19)
C35 C 0.8099(6) 0.4011(7) 0.6397(2)
H39 H 0.8455 0.3660 0.6150
C36 C 0.8036(6) 0.5227(7) 0.6424(2)
H40 H 0.8333 0.5712 0.6198
C37 C 0.7527(6) 0.5752(6) 0.6790(2)
H41 H 0.7479 0.6596 0.6816
C38 C 0.7099(6) 0.5024(6) 0.7110(2)
H42 H 0.6767 0.5376 0.7361
O13 O 0.7202(4) 0.9816(4) 0.78434(14)
H43 H 0.7357 1.0425 0.7696
O14 O 0.7349(4) 0.8557(4) 0.72890(14)
O15 O 0.5012(4) 0.7932(4) 0.73716(14)
C39 C 0.6783(5) 0.8995(5) 0.75982(19)
C40 C 0.5586(5) 0.8480(5) 0.77277(19)
H44 H 0.5067 0.9126 0.7846
C41 C 0.5783(6) 0.7529(7) 0.8063(2)
H45 H 0.5012 0.7192 0.8149
H46 H 0.6179 0.7880 0.8316
H47 H 0.6287 0.6895 0.7945
C42 C 0.4573(4) 0.8680(5) 0.70513(18)
C43 C 0.4067(5) 0.8072(6) 0.6700(2)
C44 C 0.3573(6) 0.8757(7) 0.6373(2)
H48 H 0.3202 0.8372 0.6134
C45 C 0.3609(6) 0.9968(7) 0.6387(2)
H49 H 0.3263 1.0418 0.6159
C46 C 0.4127(6) 1.0535(7) 0.6718(2)
H50 H 0.4170 1.1383 0.6721
C47 C 0.4602(6) 0.9879(6) 0.7059(2)
H51 H 0.4948 1.0281 0.7299
C48 C 0.4090(6) 0.6712(6) 0.6693(2)
H52 H 0.3538 0.6420 0.6471
H53 H 0.3847 0.6405 0.6975
H54 H 0.4901 0.6437 0.6629
Br3 Br 1.26398(7) 1.25713(6) 0.83568(3)
O16 O 0.9523(4) 0.9319(4) 0.71375(13)
H55 H 0.8848 0.9101 0.7225
O17 O 0.9396(4) 1.0548(4) 0.76974(15)
O18 O 1.1749(4) 1.1113(4) 0.76249(13)
C49 C 0.9932(5) 1.0111(5) 0.73842(19)
C50 C 1.1159(5) 1.0595(5) 0.7267(2)
H56 H 1.1661 0.9940 0.7145
C51 C 1.1008(7) 1.1595(7) 0.6933(2)
H57 H 1.0481 1.2215 0.7048
H58 H 1.0657 1.1265 0.6669
H59 H 1.1790 1.1943 0.6868
C52 C 1.2176(5) 1.0376(5) 0.79399(19)
C53 C 1.2679(5) 1.0897(5) 0.83018(18)
C54 C 1.3152(5) 1.0214(6) 0.86257(19)
H60 H 1.3511 1.0595 0.8867
C55 C 1.3121(6) 0.9013(7) 0.8609(2)
H61 H 1.3453 0.8550 0.8837
C56 C 1.2594(6) 0.8456(7) 0.8254(2)
H62 H 1.2553 0.7609 0.8240
C57 C 1.2133(6) 0.9134(5) 0.7922(2)
H63 H 1.1783 0.8751 0.7679
O19 O 0.7747(3) 0.4785(4) 0.53431(13)
H64 H 0.7971 0.4127 0.5242
O20 O 0.6479(4) 0.4647(4) 0.47894(14)
O21 O 0.5890(3) 0.6985(4) 0.48820(14)
C58 C 0.6928(5) 0.5213(6) 0.51079(18)
C59 C 0.6426(5) 0.6390(5) 0.52373(18)
H65 H 0.7074 0.6900 0.5362
C60 C 0.5446(6) 0.6226(6) 0.5564(2)
H66 H 0.5125 0.7008 0.5645
H67 H 0.5771 0.5829 0.5820
H68 H 0.4807 0.5736 0.5439
C61 C 0.6662(5) 0.7453(5) 0.45663(18)
C62 C 0.6048(6) 0.7967(5) 0.4214(2)
C63 C 0.6751(8) 0.8462(6) 0.3910(2)
H69 H 0.6374 0.8856 0.3675
C64 C 0.7976(8) 0.8430(6) 0.3921(2)
H70 H 0.8422 0.8787 0.3696
C65 C 0.8541(7) 0.7893(6) 0.4250(2)
H71 H 0.9389 0.7866 0.4259
C66 C 0.7877(6) 0.7376(6) 0.4579(2)
H72 H 0.8267 0.6974 0.4810
C67 C 0.4759(7) 0.7937(7) 0.4189(3)
H73 H 0.4484 0.8498 0.3968
H74 H 0.4423 0.8164 0.4468
H75 H 0.4496 0.7128 0.4114
Br4 Br 1.05556(5) -0.06260(7) 0.58554(2)
O22 O 0.7265(3) 0.2456(4) 0.46425(13)
H76 H 0.7038 0.3124 0.4735
O23 O 0.8502(4) 0.2599(4) 0.52008(14)
O24 O 0.9090(3) 0.0257(4) 0.51288(13)
C68 C 0.8069(4) 0.2045(5) 0.4889(2)
C69 C 0.8573(5) 0.0846(5) 0.47661(19)
H77 H 0.7933 0.0336 0.4636
C70 C 0.9575(6) 0.1048(6) 0.4440(2)
H78 H 1.0199 0.1547 0.4571
H79 H 0.9250 0.1450 0.4185
H80 H 0.9917 0.0277 0.4357
C71 C 0.8354(5) -0.0155(5) 0.54357(18)
C72 C 0.8872(4) -0.0665(5) 0.57966(19)
C73 C 0.8189(6) -0.1136(5) 0.61269(19)
H81 H 0.8573 -0.1479 0.6371
C74 C 0.6983(6) -0.1112(6) 0.6106(2)
H82 H 0.6519 -0.1434 0.6334
C75 C 0.6429(5) -0.0605(6) 0.5746(2)
H83 H 0.5582 -0.0567 0.5732
C76 C 0.7092(5) -0.0164(6) 0.5413(2)
H84 H 0.6700 0.0140 0.5164
loop_
_geom_bond_atom_site_label_1
_geom_bond_atom_site_label_2
_geom_bond_site_symmetry_1
_geom_bond_site_symmetry_2
O1 H1 1_555 1_555
O2 C1 1_555 1_555
O3 C2 1_555 1_555
C1 O1 1_555 1_555
C2 C1 1_555 1_555
H2 C2 1_555 1_555
C3 C2 1_555 1_555
H3 C3 1_555 1_555
H4 C3 1_555 1_555
H5 C3 1_555 1_555
C4 O3 1_555 1_555
C5 C4 1_555 1_555
C6 C5 1_555 1_555
H6 C6 1_555 1_555
C7 C6 1_555 1_555
H7 C7 1_555 1_555
C8 C7 1_555 1_555
H8 C8 1_555 1_555
C9 C4 1_555 1_555
H9 C9 1_555 1_555
C10 C5 1_555 1_555
H10 C10 1_555 1_555
H11 C10 1_555 1_555
H12 C10 1_555 1_555
Br1 C15 1_555 1_555
O4 H13 1_555 1_555
O5 C11 1_555 1_555
O6 C12 1_555 1_555
C11 O4 1_555 1_555
C12 C11 1_555 1_555
H14 C12 1_555 1_555
C13 C12 1_555 1_555
H15 C13 1_555 1_555
H16 C13 1_555 1_555
H17 C13 1_555 1_555
C14 O6 1_555 1_555
C15 C14 1_555 1_555
C16 C15 1_555 1_555
H18 C16 1_555 1_555
C17 C16 1_555 1_555
H19 C17 1_555 1_555
C18 C17 1_555 1_555
H20 C18 1_555 1_555
C19 C14 1_555 1_555
H21 C19 1_555 1_555
C20 H22 1_555 1_555
H23 C20 1_555 1_555
H24 C20 1_555 1_555
O7 H25 1_555 1_555
O8 C21 1_555 1_555
O9 C22 1_555 1_555
C21 O7 1_555 1_555
C22 C21 1_555 1_555
H26 C22 1_555 1_555
C23 C22 1_555 1_555
H27 C23 1_555 1_555
H28 C23 1_555 1_555
H29 C23 1_555 1_555
C24 O9 1_555 1_555
C25 C20 1_555 1_555
C26 C25 1_555 1_555
H30 C26 1_555 1_555
C27 C26 1_555 1_555
H31 C27 1_555 1_555
C28 C27 1_555 1_555
H32 C28 1_555 1_555
C29 C24 1_555 1_555
H33 C29 1_555 1_555
Br2 C34 1_555 1_555
O10 H34 1_555 1_555
O11 C30 1_555 1_555
O12 C31 1_555 1_555
C30 O10 1_555 1_555
C31 C30 1_555 1_555
H35 C31 1_555 1_555
C32 C31 1_555 1_555
H36 C32 1_555 1_555
H37 C32 1_555 1_555
H38 C32 1_555 1_555
C33 O12 1_555 1_555
C34 C33 1_555 1_555
C35 C34 1_555 1_555
H39 C35 1_555 1_555
C36 C35 1_555 1_555
H40 C36 1_555 1_555
C37 C36 1_555 1_555
H41 C37 1_555 1_555
C38 C33 1_555 1_555
H42 C38 1_555 1_555
O13 H43 1_555 1_555
O14 C39 1_555 1_555
O15 C40 1_555 1_555
C39 O13 1_555 1_555
C40 C39 1_555 1_555
H44 C40 1_555 1_555
C41 C40 1_555 1_555
H45 C41 1_555 1_555
H46 C41 1_555 1_555
H47 C41 1_555 1_555
C42 O15 1_555 1_555
C43 C42 1_555 1_555
C44 C43 1_555 1_555
H48 C44 1_555 1_555
C45 C44 1_555 1_555
H49 C45 1_555 1_555
C46 C45 1_555 1_555
H50 C46 1_555 1_555
C47 C42 1_555 1_555
H51 C47 1_555 1_555
C48 C43 1_555 1_555
H52 C48 1_555 1_555
H53 C48 1_555 1_555
H54 C48 1_555 1_555
Br3 C53 1_555 1_555
O16 H55 1_555 1_555
O17 C49 1_555 1_555
O18 C50 1_555 1_555
C49 O16 1_555 1_555
C50 C49 1_555 1_555
H56 C50 1_555 1_555
C51 C50 1_555 1_555
H57 C51 1_555 1_555
H58 C51 1_555 1_555
H59 C51 1_555 1_555
C52 O18 1_555 1_555
C53 C52 1_555 1_555
C54 C53 1_555 1_555
H60 C54 1_555 1_555
C55 C54 1_555 1_555
H61 C55 1_555 1_555
C56 C55 1_555 1_555
H62 C56 1_555 1_555
C57 C52 1_555 1_555
H63 C57 1_555 1_555
O19 H64 1_555 1_555
O20 C58 1_555 1_555
O21 C59 1_555 1_555
C58 O19 1_555 1_555
C59 C58 1_555 1_555
H65 C59 1_555 1_555
C60 C59 1_555 1_555
H66 C60 1_555 1_555
H67 C60 1_555 1_555
H68 C60 1_555 1_555
C61 O21 1_555 1_555
C62 C61 1_555 1_555
C63 C62 1_555 1_555
H69 C63 1_555 1_555
C64 C63 1_555 1_555
H70 C64 1_555 1_555
C65 C64 1_555 1_555
H71 C65 1_555 1_555
C66 C61 1_555 1_555
H72 C66 1_555 1_555
C67 C62 1_555 1_555
H73 C67 1_555 1_555
H74 C67 1_555 1_555
H75 C67 1_555 1_555
Br4 C72 1_555 1_555
O22 H76 1_555 1_555
O23 C68 1_555 1_555
O24 C69 1_555 1_555
C68 O22 1_555 1_555
C69 C68 1_555 1_555
H77 C69 1_555 1_555
C70 C69 1_555 1_555
H78 C70 1_555 1_555
H79 C70 1_555 1_555
H80 C70 1_555 1_555
C71 O24 1_555 1_555
C72 C71 1_555 1_555
C73 C72 1_555 1_555
H81 C73 1_555 1_555
C74 C73 1_555 1_555
H82 C74 1_555 1_555
C75 C74 1_555 1_555
H83 C75 1_555 1_555
C76 C71 1_555 1_555
H84 C76 1_555 1_555
C8 C9 1_555 1_555
C18 C19 1_555 1_555
C24 C25 1_555 1_555
C28 C29 1_555 1_555
C37 C38 1_555 1_555
C46 C47 1_555 1_555
C56 C57 1_555 1_555
C65 C66 1_555 1_555
C75 C76 1_555 1_555

#END
