
#######################################################################
#
#                 Cambridge Crystallographic Data Centre
#                                CCDC 
#
#######################################################################
#
# If this CIF has been generated from an entry in the Cambridge 
# Structural Database, then it will include bibliographic, chemical, 
# crystal, experimental, refinement or atomic coordinate data resulting 
# from the CCDC's data processing and validation procedures.
#
#######################################################################

data_RIXDEH
_chemical_formula_moiety         'C36 H24 N2 O4'
_chemical_name_systematic        
(3)(N,N')-1,8;4,5-Naphthalenetetracarboxy-di-imido-(3)(2,7)pyrenophane
_symmetry_cell_setting           triclinic
_symmetry_space_group_name_H-M   'P -1'
_symmetry_Int_Tables_number      2
_space_group_name_Hall           '-P 1'
loop_
_symmetry_equiv_pos_site_id
_symmetry_equiv_pos_as_xyz
1 x,y,z
2 -x,-y,-z
_cell_length_a                   8.610(1)
_cell_length_b                   9.037(1)
_cell_length_c                   17.469(2)
_cell_angle_alpha                93.71(1)
_cell_angle_beta                 100.46(1)
_cell_angle_gamma                111.84(1)
_cell_volume                     1227.62
_exptl_crystal_colour            red
_chemical_melting_point          'above 330deg.C'
_cell_formula_units_Z            2
loop_
_atom_site_label
_atom_site_type_symbol
_atom_site_fract_x
_atom_site_fract_y
_atom_site_fract_z
C1 C -0.0313(4) 0.3049(4) 0.0863(2)
C2 C 0.0168(4) 0.2787(5) 0.0078(2)
C3 C 0.1946(5) 0.3877(5) 0.0000(2)
C4 C 0.3368(4) 0.3579(5) 0.0498(2)
C5 C 0.4650(4) 0.4842(4) 0.1047(2)
C6 C 0.5927(4) 0.4617(5) 0.1570(2)
C7 C 0.5896(4) 0.3050(4) 0.1573(2)
C8 C 0.7239(5) 0.5876(4) 0.2175(2)
C9 C 0.8339(5) 0.5578(5) 0.2707(2)
C10 C 0.8229(4) 0.3978(4) 0.2756(2)
C11 C 0.7049(4) 0.2712(4) 0.2170(2)
C12 C 0.9265(4) 0.3635(4) 0.3385(2)
C13 C 0.9141(4) 0.2098(4) 0.3446(2)
C14 C 0.8038(4) 0.0877(4) 0.2858(2)
C15 C 0.7004(4) 0.1168(4) 0.2213(2)
C16 C 0.5839(4) -0.0090(4) 0.1605(2)
C17 C 0.4764(4) 0.0226(4) 0.1034(2)
C18 C 0.4683(4) 0.1748(4) 0.0999(2)
C19 C 0.3463(4) 0.2104(4) 0.0476(2)
C20 C 1.0147(5) 0.1723(5) 0.4169(2)
C21 C 0.9792(4) 0.2226(5) 0.4942(2)
C22 C 0.8013(5) 0.1317(5) 0.5088(2)
N1 N 0.6581(3) 0.1465(3) 0.4509(1)
C23 C 0.6494(4) 0.3004(5) 0.4595(2)
C24 C 0.5212(4) 0.3201(4) 0.3962(2)
C25 C 0.4077(4) 0.1925(4) 0.3383(2)
C26 C 0.5201(4) 0.4724(5) 0.3963(2)
C27 C 0.4101(5) 0.4995(4) 0.3362(2)
C28 C 0.2979(4) 0.3766(5) 0.2775(2)
C29 C 0.2896(4) 0.2156(4) 0.2775(2)
C30 C 0.1873(4) 0.4090(4) 0.2114(2)
N2 N 0.0750(3) 0.2756(4) 0.1540(2)
C31 C 0.0546(4) 0.1147(4) 0.1589(2)
C32 C 0.1729(4) 0.0855(4) 0.2216(2)
C33 C 0.1758(4) -0.0644(4) 0.2254(2)
C34 C 0.2961(4) -0.0882(4) 0.2853(2)
C35 C 0.4107(4) 0.0367(4) 0.3388(2)
C36 C 0.5439(4) 0.0132(4) 0.3995(2)
O1 O 0.7440(3) 0.4039(3) 0.5129(1)
O2 O 0.1931(3) 0.5444(3) 0.2031(2)
O3 O -0.0549(3) 0.0076(3) 0.1124(2)
O4 O 0.5531(3) -0.1158(3) 0.4018(2)
H1 H 0.479(4) 0.588(4) 0.120(2)
H2 H 0.726(3) 0.683(3) 0.214(2)
H3 H 0.906(3) 0.644(3) 0.311(2)
H4 H 1.001(3) 0.460(3) 0.376(1)
H5 H 0.799(3) -0.025(3) 0.291(1)
H6 H 0.584(4) -0.128(4) 0.167(2)
H7 H 0.415(4) -0.062(4) 0.062(2)
H8 H 0.246(6) 0.100(6) 0.004(3)
H9 H 0.600(4) 0.557(4) 0.426(2)
H10 H 0.417(3) 0.597(3) 0.339(1)
H11 H 0.097(7) -0.160(7) 0.185(3)
H12 H 0.295(3) -0.210(3) 0.282(2)
H13 H -0.029(4) 0.421(4) 0.100(2)
H14 H -0.147(3) 0.245(3) 0.086(2)
H15 H -0.067(3) 0.301(3) -0.030(2)
H16 H -0.001(4) 0.164(4) -0.005(2)
H17 H 0.206(3) 0.392(3) -0.049(2)
H18 H 0.212(4) 0.513(4) 0.013(2)
H19 H 1.146(5) 0.224(5) 0.423(2)
H20 H 0.989(3) 0.058(3) 0.411(2)
H21 H 1.057(4) 0.207(3) 0.538(2)
H22 H 1.007(4) 0.340(4) 0.496(2)
H23 H 0.763(4) 0.006(4) 0.503(2)
H24 H 0.805(3) 0.175(3) 0.560(2)
loop_
_geom_bond_atom_site_label_1
_geom_bond_atom_site_label_2
_geom_bond_site_symmetry_1
_geom_bond_site_symmetry_2
C1 C2 1_555 1_555
C2 C3 1_555 1_555
C3 C4 1_555 1_555
C4 C5 1_555 1_555
C5 C6 1_555 1_555
C6 C7 1_555 1_555
C7 C11 1_555 1_555
C8 C6 1_555 1_555
C9 C8 1_555 1_555
C10 C9 1_555 1_555
C11 C10 1_555 1_555
C12 C10 1_555 1_555
C13 C12 1_555 1_555
C14 C13 1_555 1_555
C15 C11 1_555 1_555
C16 C15 1_555 1_555
C17 C16 1_555 1_555
C18 C7 1_555 1_555
C19 C4 1_555 1_555
C20 C13 1_555 1_555
C21 C20 1_555 1_555
C22 C21 1_555 1_555
N1 C22 1_555 1_555
C23 N1 1_555 1_555
C24 C23 1_555 1_555
C25 C24 1_555 1_555
C26 C24 1_555 1_555
C27 C26 1_555 1_555
C28 C27 1_555 1_555
C29 C25 1_555 1_555
C30 C28 1_555 1_555
N2 C1 1_555 1_555
C31 N2 1_555 1_555
C32 C29 1_555 1_555
C33 C32 1_555 1_555
C34 C33 1_555 1_555
C35 C25 1_555 1_555
C36 N1 1_555 1_555
O1 C23 1_555 1_555
O2 C30 1_555 1_555
O3 C31 1_555 1_555
O4 C36 1_555 1_555
H1 C5 1_555 1_555
H2 C8 1_555 1_555
H3 C9 1_555 1_555
H4 C12 1_555 1_555
H5 C14 1_555 1_555
H6 C16 1_555 1_555
H7 C17 1_555 1_555
H8 C19 1_555 1_555
H9 C26 1_555 1_555
H10 C27 1_555 1_555
H11 C33 1_555 1_555
H12 C34 1_555 1_555
H13 C1 1_555 1_555
H14 C1 1_555 1_555
H15 C2 1_555 1_555
H16 C2 1_555 1_555
H17 C3 1_555 1_555
H18 C3 1_555 1_555
H19 C20 1_555 1_555
H20 C20 1_555 1_555
H21 C21 1_555 1_555
H22 C21 1_555 1_555
H23 C22 1_555 1_555
H24 C22 1_555 1_555
C14 C15 1_555 1_555
C17 C18 1_555 1_555
C18 C19 1_555 1_555
C28 C29 1_555 1_555
C30 N2 1_555 1_555
C31 C32 1_555 1_555
C34 C35 1_555 1_555
C35 C36 1_555 1_555

#END
