
#######################################################################
#
#                 Cambridge Crystallographic Data Centre
#                                CCDC 
#
#######################################################################
#
# If this CIF has been generated from an entry in the Cambridge 
# Structural Database, then it will include bibliographic, chemical, 
# crystal, experimental, refinement or atomic coordinate data resulting 
# from the CCDC's data processing and validation procedures.
#
#######################################################################

data_RIXRUM
_chemical_formula_moiety         'C29 H29 N1 P1 1+,Br1 1-,C1 H2 Cl2'
_chemical_name_systematic        
'Triphenyl(2-(2,6-dimethylanilino)propenyl)phosphonium bromide dichloromethane solvate'
_symmetry_cell_setting           monoclinic
_symmetry_space_group_name_H-M   'C c'
_symmetry_Int_Tables_number      9
_space_group_name_Hall           'C -2yc'
loop_
_symmetry_equiv_pos_site_id
_symmetry_equiv_pos_as_xyz
1 x,y,z
2 x,-y,1/2+z
3 1/2+x,1/2+y,z
4 1/2+x,1/2-y,1/2+z
_cell_length_a                   21.3127(4)
_cell_length_b                   10.0835(3)
_cell_length_c                   16.2680(3)
_cell_angle_alpha                90
_cell_angle_beta                 122.569(2)
_cell_angle_gamma                90
_cell_volume                     2946.32
_exptl_crystal_colour            colorless
_exptl_crystal_description       prism
_cell_formula_units_Z            4
loop_
_atom_site_label
_atom_site_type_symbol
_atom_site_fract_x
_atom_site_fract_y
_atom_site_fract_z
C1 C 0.1157(3) 0.7540(5) -0.3387(3)
C2 C 0.0963(3) 0.6190(6) -0.3187(4)
H1 H 0.0539 0.6263 -0.3130
H2 H 0.1379 0.5847 -0.2589
H3 H 0.0849 0.5601 -0.3713
C3 C 0.1732(3) 0.7774(5) -0.3503(4)
H4 H 0.1775 0.8623 -0.3691
C4 C 0.2030(3) 0.5313(5) -0.4238(3)
C5 C 0.2462(3) 0.4213(6) -0.4139(4)
H5 H 0.2944 0.4131 -0.3596
C6 C 0.2168(4) 0.3239(6) -0.4857(5)
H6 H 0.2452 0.2493 -0.4781
C7 C 0.1468(4) 0.3363(7) -0.5673(5)
H7 H 0.1277 0.2709 -0.6152
C8 C 0.1054(3) 0.4449(7) -0.5779(4)
H8 H 0.0581 0.4540 -0.6338
C9 C 0.1324(3) 0.5422(6) -0.5069(4)
H9 H 0.1030 0.6153 -0.5151
C10 C 0.2840(3) 0.5884(5) -0.2125(3)
C11 C 0.2810(4) 0.4557(6) -0.1939(5)
H10 H 0.2560 0.3955 -0.2449
C12 C 0.3160(5) 0.4136(9) -0.0974(6)
H11 H 0.3151 0.3244 -0.0834
C13 C 0.3523(4) 0.5051(9) -0.0220(5)
H12 H 0.3764 0.4757 0.0422
C14 C 0.3533(5) 0.6381(9) -0.0400(5)
H13 H 0.3770 0.6986 0.0111
C15 C 0.3183(4) 0.6797(7) -0.1358(5)
H14 H 0.3176 0.7695 -0.1495
C16 C 0.3102(3) 0.7449(5) -0.3415(3)
C17 C 0.3818(3) 0.6939(7) -0.2936(4)
H15 H 0.3932 0.6188 -0.2547
C18 C 0.4362(4) 0.7523(10) -0.3024(5)
H16 H 0.4841 0.7170 -0.2695
C19 C 0.4200(5) 0.8615(9) -0.3592(7)
H17 H 0.4568 0.9019 -0.3647
C20 C 0.3488(5) 0.9124(9) -0.4085(8)
H18 H 0.3384 0.9873 -0.4473
C21 C 0.2926(4) 0.8559(7) -0.4024(6)
H19 H 0.2445 0.8902 -0.4375
C22 C 0.0782(3) 0.9873(5) -0.3616(4)
C23 C 0.0529(3) 1.0284(5) -0.4574(4)
C24 C 0.0234(4) 0.9302(7) -0.5402(4)
H20 H 0.0094 0.9762 -0.5994
H21 H -0.0193 0.8857 -0.5479
H22 H 0.0613 0.8662 -0.5260
C25 C 0.0578(4) 1.1612(6) -0.4730(5)
H23 H 0.0420 1.1904 -0.5355
C26 C 0.0851(4) 1.2497(7) -0.3995(6)
H24 H 0.0874 1.3389 -0.4120
C27 C 0.1098(4) 1.2093(6) -0.3057(5)
H25 H 0.1286 1.2716 -0.2557
C28 C 0.1067(3) 1.0756(5) -0.2851(4)
C29 C 0.1346(4) 1.0290(7) -0.1831(5)
H26 H 0.1524 1.1035 -0.1395
H27 H 0.1745 0.9668 -0.1628
H28 H 0.0948 0.9868 -0.1818
N1 N 0.0709(2) 0.8507(4) -0.3436(3)
H29 H 0.0354 0.8297 -0.3354
P1 P 0.23957(7) 0.66044(12) -0.33272(8)
C30 C 0.3887(6) 1.0821(13) -0.1621(10)
H30 H 0.4001 1.0594 -0.2107
H31 H 0.4078 1.1707 -0.1390
Cl1 Cl 0.29234(13) 1.0873(3) -0.2196(2)
Cl2 Cl 0.43455(14) 0.9788(3) -0.0695(2)
Br1 Br 0.45269(3) 0.69713(6) 0.22825(3)
loop_
_geom_bond_atom_site_label_1
_geom_bond_atom_site_label_2
_geom_bond_site_symmetry_1
_geom_bond_site_symmetry_2
C1 C2 1_555 1_555
C2 H1 1_555 1_555
H2 C2 1_555 1_555
H3 C2 1_555 1_555
C3 C1 1_555 1_555
H4 C3 1_555 1_555
C4 C5 1_555 1_555
C5 H5 1_555 1_555
C6 C5 1_555 1_555
H6 C6 1_555 1_555
C7 C6 1_555 1_555
H7 C7 1_555 1_555
C8 C7 1_555 1_555
H8 C8 1_555 1_555
C9 C4 1_555 1_555
H9 C9 1_555 1_555
C10 C11 1_555 1_555
C11 H10 1_555 1_555
C12 C11 1_555 1_555
H11 C12 1_555 1_555
C13 C12 1_555 1_555
H12 C13 1_555 1_555
C14 C13 1_555 1_555
H13 C14 1_555 1_555
C15 C10 1_555 1_555
H14 C15 1_555 1_555
C16 C17 1_555 1_555
C17 H15 1_555 1_555
C18 C17 1_555 1_555
H16 C18 1_555 1_555
C19 C18 1_555 1_555
H17 C19 1_555 1_555
C20 C19 1_555 1_555
H18 C20 1_555 1_555
C21 C16 1_555 1_555
H19 C21 1_555 1_555
C22 C23 1_555 1_555
C23 C24 1_555 1_555
C24 H20 1_555 1_555
H21 C24 1_555 1_555
H22 C24 1_555 1_555
C25 C23 1_555 1_555
H23 C25 1_555 1_555
C26 C25 1_555 1_555
H24 C26 1_555 1_555
C27 C26 1_555 1_555
H25 C27 1_555 1_555
C28 C22 1_555 1_555
C29 C28 1_555 1_555
H26 C29 1_555 1_555
H27 C29 1_555 1_555
H28 C29 1_555 1_555
N1 C1 1_555 1_555
H29 N1 1_555 1_555
P1 C3 1_555 1_555
C30 H30 1_555 1_555
H31 C30 1_555 1_555
Cl1 C30 1_555 1_555
Cl2 C30 1_555 1_555
C4 P1 1_555 1_555
C8 C9 1_555 1_555
C10 P1 1_555 1_555
C14 C15 1_555 1_555
C16 P1 1_555 1_555
C20 C21 1_555 1_555
C22 N1 1_555 1_555
C27 C28 1_555 1_555

#END
