
#######################################################################
#
#                 Cambridge Crystallographic Data Centre
#                                CCDC 
#
#######################################################################
#
# If this CIF has been generated from an entry in the Cambridge 
# Structural Database, then it will include bibliographic, chemical, 
# crystal, experimental, refinement or atomic coordinate data resulting 
# from the CCDC's data processing and validation procedures.
#
#######################################################################

data_RIXSOI
_chemical_formula_moiety         'C66 H66 O6 S3'
_chemical_name_systematic        
"5,6,12,13,19,20-hexabutoxytribenzo[11,12:3,4:7,8]bisthieno[2',3':5,6;2'',3'':9,10]coroneno[1,2-b]thiophene unknown solvate"
_symmetry_cell_setting           triclinic
_symmetry_space_group_name_H-M   'P -1'
_symmetry_Int_Tables_number      2
_space_group_name_Hall           '-P 1'
loop_
_symmetry_equiv_pos_site_id
_symmetry_equiv_pos_as_xyz
1 x,y,z
2 -x,-y,-z
_cell_length_a                   12.1545(19)
_cell_length_b                   13.507(2)
_cell_length_c                   19.3873(17)
_cell_angle_alpha                98.703(11)
_cell_angle_beta                 95.789(10)
_cell_angle_gamma                108.038(15)
_cell_volume                     2954.37
_exptl_crystal_colour            'light yellow'
_exptl_crystal_description       block
_cell_formula_units_Z            2
loop_
_atom_site_label
_atom_site_type_symbol
_atom_site_fract_x
_atom_site_fract_y
_atom_site_fract_z
S1 S 0.88901(11) -0.10493(11) 0.43955(7)
S2 S 0.61991(12) 0.35627(10) 0.72912(7)
S3 S 0.46199(12) 0.26095(10) 0.24616(7)
O1 O 0.9124(2) -0.17395(18) 0.66993(12)
O2 O 0.4823(2) -0.20636(18) 0.11492(11)
O3 O 0.3659(2) -0.07782(18) 0.09175(12)
O4 O 0.2411(2) 0.48227(18) 0.54895(12)
O5 O 0.2730(2) 0.43166(19) 0.67182(12)
O6 O 0.8587(2) -0.0531(2) 0.77947(13)
C1 C 0.79932(13) -0.09528(12) 0.30979(8)
H1 H 0.7841 -0.1022 0.2610
C2 C 0.7303(3) -0.0517(2) 0.37125(16)
C3 C 0.42347(16) 0.38775(12) 0.35417(8)
H2 H 0.3966 0.4377 0.3790
C4 C 0.7780(3) -0.0519(2) 0.43980(17)
C5 C 0.75925(14) 0.24427(13) 0.75264(8)
H3 H 0.8107 0.2162 0.7750
C6 C 0.6384(3) -0.0074(2) 0.35905(16)
C7 C 0.5725(3) -0.0217(2) 0.28926(16)
C8 C 0.5623(3) -0.1082(3) 0.23491(16)
H4 H 0.6016 -0.1553 0.2434
C9 C 0.4956(3) -0.1248(2) 0.16954(16)
C10 C 0.4329(3) -0.0548(3) 0.15711(16)
C11 C 0.4407(3) 0.0284(3) 0.20965(16)
H5 H 0.3987 0.0736 0.2012
C12 C 0.5114(3) 0.0479(2) 0.27711(16)
C13 C 0.5120(3) 0.1305(2) 0.33435(16)
C14 C 0.5503(3) 0.1245(2) 0.40379(16)
C15 C 0.6162(3) 0.0555(2) 0.41640(15)
C16 C 0.6648(2) 0.0549(2) 0.48796(16)
C17 C 0.7374(3) -0.0064(2) 0.49988(16)
C18 C 0.7714(3) -0.0176(2) 0.57154(16)
C19 C 0.8232(3) -0.0937(2) 0.58574(16)
H6 H 0.8341 -0.1391 0.5479
C20 C 0.8583(3) -0.1036(2) 0.65339(17)
C21 C 0.8346(3) -0.0401(3) 0.71072(17)
C22 C 0.7795(3) 0.0312(3) 0.69806(17)
H7 H 0.7617 0.0709 0.7362
C23 C 0.7485(3) 0.0468(2) 0.62900(17)
C24 C 0.6896(3) 0.1220(2) 0.61641(16)
C25 C 0.6395(2) 0.1195(2) 0.54652(16)
C26 C 0.5680(3) 0.1845(2) 0.53345(16)
C27 C 0.5287(2) 0.1916(2) 0.46244(15)
C28 C 0.4726(3) 0.2670(2) 0.45064(16)
C29 C 0.4594(3) 0.2870(2) 0.38021(16)
C30 C 0.4769(3) 0.2188(2) 0.32369(16)
C31 C 0.5413(3) 0.2468(2) 0.59080(16)
C32 C 0.6061(3) 0.2597(3) 0.65853(16)
C33 C 0.6813(3) 0.2017(3) 0.67120(16)
C34 C 0.4571(3) 0.3002(2) 0.57754(16)
C35 C 0.4300(3) 0.3168(2) 0.50853(16)
C36 C 0.3547(3) 0.3781(2) 0.49918(16)
H8 H 0.3365 0.3909 0.4544
C37 C 0.3083(3) 0.4187(2) 0.55387(17)
C38 C 0.3288(3) 0.3938(3) 0.62196(17)
C39 C 0.4008(3) 0.3346(2) 0.63192(17)
H9 H 0.4128 0.3167 0.6759
C40 C 0.9516(3) -0.2279(3) 0.61211(18)
H10 H 1.0013 -0.1767 0.5887
H11 H 0.8849 -0.2741 0.5778
H12 H 0.373(3) -0.094(3) -0.054(2)
H13 H 0.395(4) 0.017(3) -0.050(2)
H14 H 1.194(3) -0.189(3) 0.650(2)
H15 H 1.136(3) -0.175(3) 0.718(2)
C41 C 1.0196(3) -0.2925(3) 0.64307(19)
H16 H 0.9756 -0.3300 0.6757
H17 H 1.0263 -0.3451 0.6052
C42 C 1.1412(3) -0.2267(3) 0.6815(2)
C43 C 1.2067(3) -0.2948(3) 0.7111(2)
H18 H 1.2160 -0.3445 0.6730
H19 H 1.1629 -0.3326 0.7430
H20 H 1.2824 -0.2500 0.7359
C44 C 0.5586(4) -0.2682(3) 0.12274(18)
H21 H 0.5381 -0.3099 0.1590
H22 H 0.6393 -0.2219 0.1364
C45 C 0.5440(4) -0.3412(3) 0.0517(2)
H23 H 0.5889 -0.3884 0.0570
H24 H 0.4622 -0.3844 0.0379
C46 C 0.5835(6) -0.2813(4) -0.0069(2)
H25 H 0.5371 -0.2356 -0.0137
H26 H 0.6649 -0.2369 0.0068
C47 C 0.5699(8) -0.3578(6) -0.0758(3)
H27 H 0.6064 -0.3192 -0.1097
H28 H 0.4881 -0.3932 -0.0936
H29 H 0.6065 -0.4095 -0.0675
C48 C 0.3165(3) 0.0015(3) 0.07419(17)
H30 H 0.3780 0.0693 0.0793
H31 H 0.2615 0.0101 0.1057
C49 C 0.2549(3) -0.0348(3) -0.00087(18)
H32 H 0.2144 0.0140 -0.0114
H33 H 0.1962 -0.1040 -0.0051
C50 C 0.3343(3) -0.0425(3) -0.05569(18)
C51 C 0.2659(4) -0.0799(4) -0.13065(19)
H34 H 0.3185 -0.0863 -0.1635
H35 H 0.2294 -0.0293 -0.1416
H36 H 0.2069 -0.1476 -0.1340
C52 C 0.2315(3) 0.5205(3) 0.48419(17)
H37 H 0.1917 0.4618 0.4452
H38 H 0.3087 0.5571 0.4742
C53 C 0.1618(3) 0.5960(3) 0.49363(17)
H39 H 0.0934 0.5637 0.5145
H40 H 0.2095 0.6606 0.5261
C54 C 0.1223(3) 0.6240(3) 0.42445(18)
H41 H 0.0733 0.5595 0.3923
H42 H 0.1906 0.6549 0.4031
C55 C 0.0543(3) 0.7015(3) 0.4335(2)
H43 H 0.0338 0.7179 0.3885
H44 H 0.1020 0.7654 0.4655
H45 H -0.0157 0.6699 0.4522
C56 C 0.2937(3) 0.4100(3) 0.74098(18)
H46 H 0.3771 0.4354 0.7586
H47 H 0.2638 0.3343 0.7397
C57 C 0.2316(4) 0.4665(3) 0.7883(2)
H48 H 0.2452 0.4531 0.8357
H49 H 0.2653 0.5423 0.7906
C58 C 0.1029(4) 0.4331(4) 0.7643(3)
H50 H 0.0693 0.3571 0.7611
H51 H 0.0891 0.4481 0.7174
C59 C 0.0406(6) 0.4896(6) 0.8140(4)
H52 H -0.0410 0.4681 0.7948
H53 H 0.0750 0.5650 0.8185
H54 H 0.0490 0.4709 0.8596
C60 C 0.9828(5) -0.0100(4) 0.8101(2)
H55 H 1.0283 -0.0318 0.7762
H56 H 0.9948 -0.0398 0.8516
C61 C 1.0283(7) 0.1120(5) 0.8313(3)
H57 H 1.1132 0.1350 0.8396
H58 H 1.0054 0.1403 0.7911
C62 C 0.9911(7) 0.1599(6) 0.8918(4)
H59 H 1.0012 0.1233 0.9300
H60 H 0.9080 0.1483 0.8803
C63 C 1.0516(10) 0.2742(7) 0.9176(5)
H61 H 1.0381 0.3124 0.8814
H62 H 1.1341 0.2873 0.9293
H63 H 1.0219 0.2975 0.9589
C64 C 0.8846(12) -0.1183(12) 0.3498(6)
H64 H 0.9399 -0.1411 0.3284
C65 C 0.4450(12) 0.3753(10) 0.2865(6)
H65 H 0.4506 0.4301 0.2618
C66 C 0.7292(10) 0.3285(10) 0.7774(8)
H66 H 0.7674 0.3719 0.8206
S4? S 0.79932(13) -0.09528(12) 0.30979(8)
S5? S 0.75925(14) 0.24427(13) 0.75264(8)
S6? S 0.42347(16) 0.38775(12) 0.35417(8)
C67? C 0.88901(11) -0.10493(11) 0.43955(7)
H67? H 0.9296 -0.1237 0.4759
C68? C 0.46199(12) 0.26095(10) 0.24616(7)
H68? H 0.4693 0.2313 0.2010
C69? C 0.61991(12) 0.35627(10) 0.72912(7)
H69? H 0.5798 0.4047 0.7352
H70? H 1.0666 0.1391 0.7932
H71? H 0.9603 0.1350 0.8327
C70? C 1.1018(19) 0.1608(17) 0.8918(11)
H72? H 1.0625 0.1351 0.9299
H73? H 1.1687 0.1360 0.8909
C71? C 1.1436(18) 0.2653(18) 0.9096(14)
H74? H 1.2229 0.2870 0.9332
H75? H 1.0966 0.2896 0.9407
H76? H 1.1415 0.2954 0.8679
C72? C 0.8993(19) -0.1110(16) 0.3719(8)
H77? H 0.9647 -0.1246 0.3574
C73? C 0.437(2) 0.3494(14) 0.2686(9)
H78? H 0.4259 0.3911 0.2361
C74? C 0.7016(15) 0.3443(15) 0.7725(12)
H79? H 0.7296 0.3913 0.8156
loop_
_geom_bond_atom_site_label_1
_geom_bond_atom_site_label_2
_geom_bond_site_symmetry_1
_geom_bond_site_symmetry_2
S1 C4 1_555 1_555
S2 C32 1_555 1_555
S3 C30 1_555 1_555
O1 C20 1_555 1_555
O2 C9 1_555 1_555
O3 C10 1_555 1_555
O4 C37 1_555 1_555
O5 C38 1_555 1_555
O6 C21 1_555 1_555
C1 H1 1_555 1_555
C2 C1 1_555 1_555
C3 H2 1_555 1_555
C4 C2 1_555 1_555
C5 H3 1_555 1_555
C6 C2 1_555 1_555
C7 C6 1_555 1_555
C8 C7 1_555 1_555
H4 C8 1_555 1_555
C9 C8 1_555 1_555
C10 C9 1_555 1_555
C11 C10 1_555 1_555
H5 C11 1_555 1_555
C12 C7 1_555 1_555
C13 C12 1_555 1_555
C14 C13 1_555 1_555
C15 C6 1_555 1_555
C16 C15 1_555 1_555
C17 C4 1_555 1_555
C18 C17 1_555 1_555
C19 C18 1_555 1_555
H6 C19 1_555 1_555
C20 C19 1_555 1_555
C21 C20 1_555 1_555
C22 C21 1_555 1_555
H7 C22 1_555 1_555
C23 C18 1_555 1_555
C24 C23 1_555 1_555
C25 C16 1_555 1_555
C26 C25 1_555 1_555
C27 C14 1_555 1_555
C28 C27 1_555 1_555
C29 C3 1_555 1_555
C30 C13 1_555 1_555
C31 C26 1_555 1_555
C32 C31 1_555 1_555
C33 C5 1_555 1_555
C34 C31 1_555 1_555
C35 C28 1_555 1_555
C36 C35 1_555 1_555
H8 C36 1_555 1_555
C37 C36 1_555 1_555
C38 C37 1_555 1_555
C39 C34 1_555 1_555
H9 C39 1_555 1_555
C40 O1 1_555 1_555
H10 C40 1_555 1_555
H11 C40 1_555 1_555
H12 C50 1_555 1_555
H13 C50 1_555 1_555
H14 C42 1_555 1_555
H15 C42 1_555 1_555
C41 C40 1_555 1_555
H16 C41 1_555 1_555
H17 C41 1_555 1_555
C42 C41 1_555 1_555
C43 C42 1_555 1_555
H18 C43 1_555 1_555
H19 C43 1_555 1_555
H20 C43 1_555 1_555
C44 O2 1_555 1_555
H21 C44 1_555 1_555
H22 C44 1_555 1_555
C45 C44 1_555 1_555
H23 C45 1_555 1_555
H24 C45 1_555 1_555
C46 C45 1_555 1_555
H25 C46 1_555 1_555
H26 C46 1_555 1_555
C47 C46 1_555 1_555
H27 C47 1_555 1_555
H28 C47 1_555 1_555
H29 C47 1_555 1_555
C48 O3 1_555 1_555
H30 C48 1_555 1_555
H31 C48 1_555 1_555
C49 C48 1_555 1_555
H32 C49 1_555 1_555
H33 C49 1_555 1_555
C50 C49 1_555 1_555
C51 C50 1_555 1_555
H34 C51 1_555 1_555
H35 C51 1_555 1_555
H36 C51 1_555 1_555
C52 O4 1_555 1_555
H37 C52 1_555 1_555
H38 C52 1_555 1_555
C53 C52 1_555 1_555
H39 C53 1_555 1_555
H40 C53 1_555 1_555
C54 C53 1_555 1_555
H41 C54 1_555 1_555
H42 C54 1_555 1_555
C55 C54 1_555 1_555
H43 C55 1_555 1_555
H44 C55 1_555 1_555
H45 C55 1_555 1_555
C56 O5 1_555 1_555
H46 C56 1_555 1_555
H47 C56 1_555 1_555
C57 C56 1_555 1_555
H48 C57 1_555 1_555
H49 C57 1_555 1_555
C58 C57 1_555 1_555
H50 C58 1_555 1_555
H51 C58 1_555 1_555
C59 C58 1_555 1_555
H52 C59 1_555 1_555
H53 C59 1_555 1_555
H54 C59 1_555 1_555
C60 O6 1_555 1_555
H55 C60 1_555 1_555
H56 C60 1_555 1_555
C61 C60 1_555 1_555
H57 C61 1_555 1_555
H58 C61 1_555 1_555
C62 C61 1_555 1_555
H59 C62 1_555 1_555
H60 C62 1_555 1_555
C63 C62 1_555 1_555
H61 C63 1_555 1_555
H62 C63 1_555 1_555
H63 C63 1_555 1_555
C64 S1 1_555 1_555
H64 C64 1_555 1_555
C65 S3 1_555 1_555
H65 C65 1_555 1_555
C66 S2 1_555 1_555
H66 C66 1_555 1_555
C1 C64 1_555 1_555
C3 C65 1_555 1_555
C5 C66 1_555 1_555
C11 C12 1_555 1_555
C14 C15 1_555 1_555
C16 C17 1_555 1_555
C22 C23 1_555 1_555
C24 C25 1_555 1_555
C24 C33 1_555 1_555
C26 C27 1_555 1_555
C28 C29 1_555 1_555
C29 C30 1_555 1_555
C32 C33 1_555 1_555
C34 C35 1_555 1_555
C38 C39 1_555 1_555

#END
