
#######################################################################
#
#                 Cambridge Crystallographic Data Centre
#                                CCDC 
#
#######################################################################
#
# If this CIF has been generated from an entry in the Cambridge 
# Structural Database, then it will include bibliographic, chemical, 
# crystal, experimental, refinement or atomic coordinate data resulting 
# from the CCDC's data processing and validation procedures.
#
#######################################################################

data_RIXSUO
_chemical_formula_moiety         'C120 H168 O12'
_chemical_name_systematic        
2,3,6,7,10,11,14,15,18,19,22,23-dodecakis(n-Hexoxy)trinaphtho[1,2,3,4-fgh:1',2',3',4'-pqr:1'',2'',3'',4''-za~1~b~1~]trinaphthylene
_symmetry_cell_setting           triclinic
_symmetry_space_group_name_H-M   'P -1'
_symmetry_Int_Tables_number      2
_space_group_name_Hall           '-P 1'
loop_
_symmetry_equiv_pos_site_id
_symmetry_equiv_pos_as_xyz
1 x,y,z
2 -x,-y,-z
_cell_length_a                   12.5229(7)
_cell_length_b                   14.2127(8)
_cell_length_c                   17.6666(12)
_cell_angle_alpha                88.113(5)
_cell_angle_beta                 73.225(6)
_cell_angle_gamma                66.912(5)
_cell_volume                     2757.91
_cell_formula_units_Z            1
loop_
_atom_site_label
_atom_site_type_symbol
_atom_site_fract_x
_atom_site_fract_y
_atom_site_fract_z
O1 O 0.1127(2) 0.42414(17) 0.28611(16)
O2 O -0.06002(15) 0.56696(14) 0.40096(12)
O3 O -0.08604(15) 0.94775(13) 0.56462(11)
O4 O -0.02250(17) 0.98299(13) 0.68260(12)
O5 O 0.19067(19) 0.7148(2) 0.91722(12)
O6 O 0.4144(2) 0.6268(2) 0.92153(13)
C1 C 0.0501(5) 0.3663(5) 0.3062(4)
H1 H 0.0652(5) 0.3320(5) 0.3528(4)
H2 H -0.0363(5) 0.4085(5) 0.3187(4)
C2 C 0.091(2) 0.285(2) 0.2349(13)
H3 H 0.030(2) 0.258(2) 0.2391(13)
H4 H 0.104(2) 0.316(2) 0.1850(13)
C3 C 0.2091(10) 0.2022(9) 0.2402(8)
H5 H 0.2634(10) 0.2338(9) 0.2443(8)
H6 H 0.1922(10) 0.1687(9) 0.2883(8)
C4 C 0.274(3) 0.121(3) 0.1691(17)
H7 H 0.214(3) 0.106(3) 0.1523(17)
H8 H 0.319(3) 0.146(3) 0.1250(17)
C5 C 0.360(2) 0.024(3) 0.192(3)
H9 H 0.419(2) 0.037(3) 0.210(3)
H10 H 0.316(2) -0.005(3) 0.234(3)
C6 C 0.423(3) -0.051(3) 0.1175(19)
H11 H 0.479(3) -0.114(3) 0.1289(19)
H12 H 0.363(3) -0.064(3) 0.1005(19)
H13 H 0.466(3) -0.022(3) 0.0763(19)
C7 C -0.1551(2) 0.6501(2) 0.45310(19)
H14 H -0.1580(2) 0.6372(2) 0.50776(19)
H15 H -0.1424(2) 0.7129(2) 0.44244(19)
C8 C -0.2722(3) 0.6600(4) 0.4392(3)
H16 H -0.2758(3) 0.5930(4) 0.4441(3)
H17 H -0.3384(3) 0.7059(4) 0.4826(3)
C9 C -0.298(2) 0.695(3) 0.367(3)
H18 H -0.311(2) 0.767(3) 0.365(3)
H19 H -0.229(2) 0.657(3) 0.322(3)
C10 C -0.4113(10) 0.6825(9) 0.3599(8)
H20 H -0.3854(10) 0.6150(9) 0.3335(8)
H21 H -0.4632(10) 0.6844(9) 0.4130(8)
C11 C -0.4801(10) 0.7550(13) 0.3194(11)
H22 H -0.5101(10) 0.8221(13) 0.3477(11)
H23 H -0.4271(10) 0.7560(13) 0.2674(11)
C12 C -0.590(3) 0.738(3) 0.308(2)
H24 H -0.631(3) 0.792(3) 0.280(2)
H25 H -0.561(3) 0.673(3) 0.279(2)
H26 H -0.645(3) 0.740(3) 0.359(2)
C13 C -0.1282(2) 0.9298(2) 0.50195(18)
H27 H -0.0686(2) 0.9241(2) 0.45110(18)
H28 H -0.1399(2) 0.8661(2) 0.50724(18)
C14 C -0.2469(2) 1.0184(2) 0.50634(19)
H29 H -0.3059(2) 1.0239(2) 0.55742(19)
H30 H -0.2347(2) 1.0819(2) 0.50137(19)
C15 C -0.2951(3) 1.0022(3) 0.4403(2)
H31 H -0.2324(3) 0.9906(3) 0.3899(2)
H32 H -0.3116(3) 0.9407(3) 0.4479(2)
C16 C -0.4095(3) 1.0909(3) 0.4361(3)
H33 H -0.4738(3) 1.1003(3) 0.4853(3)
H34 H -0.3946(3) 1.1532(3) 0.4311(3)
C17 C -0.4515(5) 1.0750(5) 0.3675(4)
H35 H -0.3832(5) 1.0557(5) 0.3194(4)
H36 H -0.4770(5) 1.0183(5) 0.3765(4)
C18 C -0.553(2) 1.1666(15) 0.3551(16)
H37 H -0.575(2) 1.1510(15) 0.3107(16)
H38 H -0.622(2) 1.1853(15) 0.4019(16)
H39 H -0.528(2) 1.2228(15) 0.3447(16)
C19 C 0.0028(3) 1.0064(2) 0.7517(2)
H40 H 0.0018(3) 0.9543(2) 0.7885(2)
H41 H 0.0823(3) 1.0091(2) 0.7374(2)
C20 C -0.0946(19) 1.1093(15) 0.7893(11)
H42 H -0.1727(19) 1.1038(15) 0.8055(11)
H43 H -0.0797(19) 1.1269(15) 0.8368(11)
C21 C -0.1016(8) 1.1971(8) 0.7344(7)
H44 H -0.0202(8) 1.1952(8) 0.7120(7)
H45 H -0.1275(8) 1.1835(8) 0.6907(7)
C22 C -0.1827(5) 1.3010(3) 0.7712(3)
H46 H -0.1892(5) 1.3458(3) 0.7285(3)
H47 H -0.2627(5) 1.3007(3) 0.7950(3)
C23 C -0.156(3) 1.3506(19) 0.8318(17)
H48 H -0.215(3) 1.4215(19) 0.8425(17)
H49 H -0.172(3) 1.3177(19) 0.8803(17)
C24 C -0.0419(11) 1.3513(9) 0.8174(7)
H50 H -0.0396(11) 1.3862(9) 0.8622(7)
H51 H 0.0180(11) 1.2820(9) 0.8090(7)
H52 H -0.0247(11) 1.3864(9) 0.7710(7)
C25 C 0.072(3) 0.781(2) 0.9184(19)
H53 H 0.075(3) 0.833(2) 0.8816(19)
H54 H 0.033(3) 0.742(2) 0.9022(19)
C26 C 0.0011(14) 0.8319(14) 1.0018(8)
H55 H -0.0143(14) 0.7810(14) 1.0361(8)
H56 H 0.0502(14) 0.8576(14) 1.0216(8)
C27 C -0.1167(14) 0.9181(16) 1.0062(8)
H57 H -0.1013(14) 0.9649(16) 0.9675(8)
H58 H -0.1680(14) 0.8906(16) 0.9910(8)
C28 C -0.1873(12) 0.9797(17) 1.0876(8)
H59 H -0.2128(12) 0.9375(17) 1.1270(8)
H60 H -0.1386(12) 1.0075(17) 1.1057(8)
C29 C -0.304(2) 1.071(3) 1.0707(16)
H61 H -0.282(2) 1.122(3) 1.0400(16)
H62 H -0.346(2) 1.045(3) 1.0444(16)
C30 C -0.376(3) 1.1119(19) 1.1542(13)
H63 H -0.451(3) 1.1684(19) 1.1551(13)
H64 H -0.394(3) 1.0587(19) 1.1829(13)
H65 H -0.331(3) 1.1351(19) 1.1785(13)
C31 C 0.5301(5) 0.6077(5) 0.9269(3)
H66 H 0.5814(5) 0.5354(5) 0.9116(3)
H67 H 0.5653(5) 0.6467(5) 0.8893(3)
C32 C 0.5310(11) 0.6340(9) 1.0060(7)
H68 H 0.4861(11) 0.7075(9) 1.0193(7)
H69 H 0.4891(11) 0.6000(9) 1.0444(7)
C33 C 0.6559(11) 0.6044(12) 1.0130(6)
H70 H 0.7031(11) 0.5335(12) 0.9911(6)
H71 H 0.6923(11) 0.6457(12) 0.9790(6)
C34 C 0.6710(14) 0.6128(16) 1.0868(8)
H72 H 0.6134(14) 0.6793(16) 1.1141(8)
H73 H 0.6528(14) 0.5606(16) 1.1181(8)
C35 C 0.8031(14) 0.6006(18) 1.0817(11)
H74 H 0.8561(14) 0.5786(18) 1.0277(11)
H75 H 0.8021(14) 0.6656(18) 1.0976(11)
C36 C 0.845(2) 0.5278(19) 1.1320(14)
H76 H 0.925(2) 0.5188(19) 1.1300(14)
H77 H 0.792(2) 0.5504(19) 1.1853(14)
H78 H 0.845(2) 0.4637(19) 1.1156(14)
C37 C 0.43487(19) 0.45936(16) 0.36774(14)
C38 C 0.30658(19) 0.49158(17) 0.37643(14)
C39 C 0.2180(2) 0.56667(17) 0.43735(14)
C40 C 0.25844(19) 0.60863(17) 0.49286(14)
C41 C 0.18286(18) 0.70183(16) 0.54477(14)
C42 C 0.21573(19) 0.72099(17) 0.61122(14)
C43 C 0.32444(19) 0.64657(17) 0.62592(14)
C44 C 0.41071(18) 0.57504(16) 0.56389(13)
C45 C 0.37706(18) 0.55521(16) 0.49622(13)
C46 C 0.46691(18) 0.47986(16) 0.43282(14)
C47 C 0.3489(2) 0.64387(17) 0.70178(14)
C48 C 0.4692(2) 0.59185(18) 0.70434(14)
C49 C 0.2660(2) 0.44177(18) 0.32943(15)
H79 H 0.3236(2) 0.38870(18) 0.29158(15)
C50 C 0.1467(2) 0.46840(19) 0.33748(16)
C51 C 0.0576(2) 0.54551(19) 0.39712(16)
C52 C 0.0938(2) 0.59108(18) 0.44675(15)
H80 H 0.0350(2) 0.63933(18) 0.48766(15)
C53 C 0.0818(2) 0.78056(18) 0.52811(15)
H81 H 0.0614(2) 0.77048(18) 0.48333(15)
C54 C 0.0138(2) 0.87036(18) 0.57551(15)
C55 C 0.0477(2) 0.88912(18) 0.64172(16)
C56 C 0.1472(2) 0.81668(18) 0.65698(15)
H82 H 0.1710(2) 0.83073(18) 0.69906(15)
C57 C 0.2546(2) 0.6834(2) 0.77388(16)
H83 H 0.1745(2) 0.7141(2) 0.77266(16)
C58 C 0.2772(2) 0.6779(2) 0.84531(16)
C59 C 0.3980(3) 0.6292(2) 0.84823(16)
C60 C 0.4888(2) 0.5847(2) 0.78020(15)
H84 H 0.5672(2) 0.5480(2) 0.78316(15)
O1A O 0.8873(2) 0.57586(17) 0.71389(16)
O2A O 1.06002(15) 0.43304(14) 0.59904(12)
O3A O 1.08604(15) 0.05225(13) 0.43538(11)
O4A O 1.02250(17) 0.01701(13) 0.31740(12)
O5A O 0.80933(19) 0.2852(2) 0.08278(12)
O6A O 0.5856(2) 0.3732(2) 0.07847(13)
C1A C 0.9499(5) 0.6337(5) 0.6938(4)
H1A H 0.9348(5) 0.6680(5) 0.6472(4)
H2A H 1.0363(5) 0.5915(5) 0.6813(4)
C2A C 0.909(2) 0.715(2) 0.7651(13)
H3A H 0.970(2) 0.742(2) 0.7609(13)
H4A H 0.896(2) 0.684(2) 0.8150(13)
C3A C 0.7909(10) 0.7978(9) 0.7598(8)
H5A H 0.7366(10) 0.7662(9) 0.7557(8)
H6A H 0.8078(10) 0.8313(9) 0.7117(8)
C4A C 0.726(3) 0.879(3) 0.8309(17)
H7A H 0.786(3) 0.894(3) 0.8477(17)
H8A H 0.681(3) 0.854(3) 0.8750(17)
C5A C 0.640(2) 0.976(3) 0.808(3)
H9A H 0.581(2) 0.963(3) 0.790(3)
H10A H 0.684(2) 1.005(3) 0.766(3)
C6A C 0.577(3) 1.051(3) 0.8825(19)
H11A H 0.521(3) 1.114(3) 0.8711(19)
H12A H 0.637(3) 1.064(3) 0.8995(19)
H13A H 0.534(3) 1.022(3) 0.9237(19)
C7A C 1.1551(2) 0.3499(2) 0.54690(19)
H14A H 1.1580(2) 0.3628(2) 0.49224(19)
H15A H 1.1424(2) 0.2871(2) 0.55756(19)
C8A C 1.2722(3) 0.3400(4) 0.5608(3)
H16A H 1.2758(3) 0.4070(4) 0.5559(3)
H17A H 1.3384(3) 0.2941(4) 0.5174(3)
C9A C 1.298(2) 0.305(3) 0.633(3)
H18A H 1.311(2) 0.233(3) 0.635(3)
H19A H 1.229(2) 0.343(3) 0.678(3)
C10A C 1.4113(10) 0.3175(9) 0.6401(8)
H20A H 1.3854(10) 0.3850(9) 0.6665(8)
H21A H 1.4632(10) 0.3156(9) 0.5870(8)
C11A C 1.4801(10) 0.2450(13) 0.6806(11)
H22A H 1.5101(10) 0.1779(13) 0.6523(11)
H23A H 1.4271(10) 0.2440(13) 0.7326(11)
C12A C 1.590(3) 0.262(3) 0.692(2)
H24A H 1.631(3) 0.208(3) 0.720(2)
H25A H 1.561(3) 0.327(3) 0.721(2)
H26A H 1.645(3) 0.260(3) 0.641(2)
C13A C 1.1282(2) 0.0702(2) 0.49805(18)
H27A H 1.0686(2) 0.0759(2) 0.54890(18)
H28A H 1.1399(2) 0.1339(2) 0.49276(18)
C14A C 1.2469(2) -0.0184(2) 0.49366(19)
H29A H 1.3059(2) -0.0239(2) 0.44258(19)
H30A H 1.2347(2) -0.0819(2) 0.49863(19)
C15A C 1.2951(3) -0.0022(3) 0.5597(2)
H31A H 1.2324(3) 0.0094(3) 0.6101(2)
H32A H 1.3116(3) 0.0593(3) 0.5521(2)
C16A C 1.4095(3) -0.0909(3) 0.5639(3)
H33A H 1.4738(3) -0.1003(3) 0.5147(3)
H34A H 1.3946(3) -0.1532(3) 0.5689(3)
C17A C 1.4515(5) -0.0750(5) 0.6325(4)
H35A H 1.3832(5) -0.0557(5) 0.6806(4)
H36A H 1.4770(5) -0.0183(5) 0.6235(4)
C18A C 1.553(2) -0.1666(15) 0.6449(16)
H37A H 1.575(2) -0.1510(15) 0.6893(16)
H38A H 1.622(2) -0.1853(15) 0.5981(16)
H39A H 1.528(2) -0.2228(15) 0.6553(16)
C19A C 0.9972(3) -0.0064(2) 0.2483(2)
H40A H 0.9982(3) 0.0457(2) 0.2115(2)
H41A H 0.9177(3) -0.0091(2) 0.2626(2)
C20A C 1.0946(19) -0.1093(15) 0.2107(11)
H42A H 1.1727(19) -0.1038(15) 0.1945(11)
H43A H 1.0797(19) -0.1269(15) 0.1632(11)
C21A C 1.1016(8) -0.1971(8) 0.2656(7)
H44A H 1.0202(8) -0.1952(8) 0.2880(7)
H45A H 1.1275(8) -0.1835(8) 0.3093(7)
C22A C 1.1827(5) -0.3010(3) 0.2288(3)
H46A H 1.1892(5) -0.3458(3) 0.2715(3)
H47A H 1.2627(5) -0.3007(3) 0.2050(3)
C23A C 1.156(3) -0.3506(19) 0.1682(17)
H48A H 1.215(3) -0.4215(19) 0.1575(17)
H49A H 1.172(3) -0.3177(19) 0.1197(17)
C24A C 1.0419(11) -0.3513(9) 0.1826(7)
H50A H 1.0396(11) -0.3862(9) 0.1378(7)
H51A H 0.9820(11) -0.2820(9) 0.1910(7)
H52A H 1.0247(11) -0.3864(9) 0.2290(7)
C25A C 0.928(3) 0.219(2) 0.0816(19)
H53A H 0.925(3) 0.167(2) 0.1184(19)
H54A H 0.967(3) 0.258(2) 0.0978(19)
C26A C 0.9989(14) 0.1681(14) -0.0018(8)
H55A H 1.0143(14) 0.2190(14) -0.0361(8)
H56A H 0.9498(14) 0.1424(14) -0.0216(8)
C27A C 1.1167(14) 0.0819(16) -0.0062(8)
H57A H 1.1013(14) 0.0351(16) 0.0325(8)
H58A H 1.1680(14) 0.1094(16) 0.0090(8)
C28A C 1.1873(12) 0.0203(17) -0.0876(8)
H59A H 1.2128(12) 0.0625(17) -0.1270(8)
H60A H 1.1386(12) -0.0075(17) -0.1057(8)
C29A C 1.304(2) -0.071(3) -0.0707(16)
H61A H 1.282(2) -0.122(3) -0.0400(16)
H62A H 1.346(2) -0.045(3) -0.0444(16)
C30A C 1.376(3) -0.1119(19) -0.1542(13)
H63A H 1.451(3) -0.1684(19) -0.1551(13)
H64A H 1.394(3) -0.0587(19) -0.1829(13)
H65A H 1.331(3) -0.1351(19) -0.1785(13)
C31A C 0.4699(5) 0.3923(5) 0.0731(3)
H66A H 0.4186(5) 0.4646(5) 0.0884(3)
H67A H 0.4347(5) 0.3533(5) 0.1107(3)
C32A C 0.4690(11) 0.3660(9) -0.0060(7)
H68A H 0.5139(11) 0.2925(9) -0.0193(7)
H69A H 0.5109(11) 0.4000(9) -0.0444(7)
C33A C 0.3441(11) 0.3956(12) -0.0130(6)
H70A H 0.2969(11) 0.4665(12) 0.0089(6)
H71A H 0.3077(11) 0.3543(12) 0.0210(6)
C34A C 0.3290(14) 0.3872(16) -0.0868(8)
H72A H 0.3866(14) 0.3207(16) -0.1141(8)
H73A H 0.3472(14) 0.4394(16) -0.1181(8)
C35A C 0.1969(14) 0.3994(18) -0.0817(11)
H74A H 0.1439(14) 0.4214(18) -0.0277(11)
H75A H 0.1979(14) 0.3344(18) -0.0976(11)
C36A C 0.155(2) 0.4722(19) -0.1320(14)
H76A H 0.075(2) 0.4812(19) -0.1300(14)
H77A H 0.208(2) 0.4496(19) -0.1853(14)
H78A H 0.155(2) 0.5363(19) -0.1156(14)
C37A C 0.56513(19) 0.54064(16) 0.63226(14)
C38A C 0.69342(19) 0.50842(17) 0.62357(14)
C39A C 0.7820(2) 0.43333(17) 0.56265(14)
C40A C 0.74156(19) 0.39137(17) 0.50714(14)
C41A C 0.81714(18) 0.29817(16) 0.45523(14)
C42A C 0.78427(19) 0.27901(17) 0.38878(14)
C43A C 0.67556(19) 0.35343(17) 0.37408(14)
C44A C 0.58929(18) 0.42496(16) 0.43611(13)
C45A C 0.62294(18) 0.44479(16) 0.50378(13)
C46A C 0.53309(18) 0.52014(16) 0.56718(14)
C47A C 0.6511(2) 0.35613(17) 0.29822(14)
C48A C 0.5308(2) 0.40815(18) 0.29566(14)
C49A C 0.7340(2) 0.55823(18) 0.67057(15)
H79A H 0.6764(2) 0.61130(18) 0.70842(15)
C50A C 0.8533(2) 0.53160(19) 0.66252(16)
C51A C 0.9424(2) 0.45449(19) 0.60288(16)
C52A C 0.9062(2) 0.40892(18) 0.55325(15)
H80A H 0.9650(2) 0.36067(18) 0.51234(15)
C53A C 0.9182(2) 0.21944(18) 0.47189(15)
H81A H 0.9386(2) 0.22952(18) 0.51667(15)
C54A C 0.9862(2) 0.12964(18) 0.42449(15)
C55A C 0.9523(2) 0.11088(18) 0.35828(16)
C56A C 0.8528(2) 0.18332(18) 0.34302(15)
H82A H 0.8290(2) 0.16927(18) 0.30094(15)
C57A C 0.7454(2) 0.3166(2) 0.22612(16)
H83A H 0.8255(2) 0.2859(2) 0.22734(16)
C58A C 0.7228(2) 0.3221(2) 0.15469(16)
C59A C 0.6020(3) 0.3708(2) 0.15177(16)
C60A C 0.5112(2) 0.4153(2) 0.21980(15)
H84A H 0.4328(2) 0.4520(2) 0.21684(15)
H85? H -0.341(9) 0.715(8) 0.475(6)
H86? H -0.284(9) 0.597(8) 0.449(6)
H87? H -0.39(4) 1.02(4) 0.33(2)
H88? H 0.089(16) 0.989(14) 0.739(10)
H89? H -0.018(15) 0.964(13) 0.792(10)
C61? C 0.1751(10) 0.3269(9) 0.2605(8)
H90? H 0.2388(10) 0.3197(9) 0.2114(8)
H91? H 0.2127(10) 0.2900(9) 0.2995(8)
C62? C 0.089(4) 0.283(4) 0.247(2)
H92? H 0.058(4) 0.251(4) 0.292(2)
H93? H 0.022(4) 0.335(4) 0.232(2)
C63? C 0.1809(16) 0.2024(17) 0.1751(13)
H94? H 0.1371(16) 0.1861(17) 0.1439(13)
H95? H 0.2351(16) 0.2304(17) 0.1411(13)
C64? C 0.254(4) 0.106(3) 0.207(2)
H96? H 0.294(4) 0.123(3) 0.241(2)
H97? H 0.200(4) 0.076(3) 0.238(2)
C65? C 0.352(3) 0.028(3) 0.135(3)
H98? H 0.314(3) 0.009(3) 0.101(3)
H99? H 0.408(3) 0.056(3) 0.104(3)
C66? C 0.415(4) -0.064(3) 0.179(3)
H100? H 0.478(4) -0.118(3) 0.141(3)
H101? H 0.450(4) -0.042(3) 0.214(3)
H102? H 0.356(4) -0.089(3) 0.210(3)
C67? C -0.263(4) 0.694(4) 0.353(4)
H103? H -0.226(4) 0.743(4) 0.345(4)
H104? H -0.208(4) 0.634(4) 0.315(4)
C68? C -0.3837(12) 0.7420(17) 0.3302(10)
H105? H -0.4265(12) 0.8122(17) 0.3543(10)
H106? H -0.3627(12) 0.7450(17) 0.2731(10)
C69? C -0.4655(16) 0.6935(18) 0.3515(11)
H107? H -0.4185(16) 0.6213(18) 0.3332(11)
H108? H -0.4920(16) 0.6976(18) 0.4090(11)
C70? C -0.580(3) 0.726(3) 0.325(2)
H109? H -0.622(3) 0.683(3) 0.346(2)
H110? H -0.631(3) 0.797(3) 0.345(2)
H111? H -0.557(3) 0.720(3) 0.268(2)
C71? C -0.587(7) 1.129(11) 0.383(7)
H112? H -0.627(7) 1.089(11) 0.413(7)
H113? H -0.616(7) 1.195(11) 0.411(7)
H114? H -0.605(7) 1.138(11) 0.333(7)
C72? C -0.088(9) 1.118(7) 0.784(6)
H115? H -0.168(9) 1.128(7) 0.781(6)
H116? H -0.094(9) 1.130(7) 0.839(6)
C73? C -0.045(4) 1.193(4) 0.735(3)
H117? H 0.037(4) 1.155(4) 0.701(3)
H118? H -0.096(4) 1.221(4) 0.700(3)
C74? C -0.046(3) 1.281(2) 0.7789(18)
H119? H 0.026(3) 1.258(2) 0.7965(18)
H120? H -0.042(3) 1.334(2) 0.7434(18)
C75? C -0.160(10) 1.327(6) 0.851(5)
H121? H -0.232(10) 1.334(6) 0.838(5)
H122? H -0.152(10) 1.284(6) 0.895(5)
C76? C -0.167(3) 1.431(2) 0.8743(19)
H123? H -0.237(3) 1.463(2) 0.9195(19)
H124? H -0.094(3) 1.423(2) 0.8873(19)
H125? H -0.174(3) 1.472(2) 0.8307(19)
C77? C 0.065(5) 0.747(4) 0.916(3)
H126? H 0.043(5) 0.804(4) 0.883(3)
H127? H 0.053(5) 0.690(4) 0.895(3)
C78? C -0.012(2) 0.779(3) 1.0028(15)
H128? H -0.013(2) 0.718(3) 1.0286(15)
H129? H 0.027(2) 0.809(3) 1.0284(15)
C79? C -0.141(2) 0.854(2) 1.0167(13)
H130? H -0.141(2) 0.912(2) 0.9864(13)
H131? H -0.184(2) 0.822(2) 0.9968(13)
C80? C -0.209(2) 0.893(3) 1.1026(13)
H132? H -0.236(2) 0.842(3) 1.1288(13)
H133? H -0.154(2) 0.902(3) 1.1279(13)
C81? C -0.319(3) 0.993(3) 1.1153(19)
H134? H -0.356(3) 0.999(3) 1.0732(19)
H135? H -0.379(3) 0.998(3) 1.1657(19)
C82? C -0.276(5) 1.077(5) 1.115(3)
H136? H -0.344(5) 1.142(5) 1.123(3)
H137? H -0.240(5) 1.071(5) 1.157(3)
H138? H -0.217(5) 1.072(5) 1.065(3)
C83? C 0.411(2) 0.7031(19) 0.9595(13)
H139? H 0.447(2) 0.7412(19) 0.9212(13)
H140? H 0.327(2) 0.7478(19) 0.9839(13)
C84? C 0.474(4) 0.682(3) 1.023(3)
H141? H 0.416(4) 0.726(3) 1.070(3)
H142? H 0.488(4) 0.612(3) 1.035(3)
C85? C 0.588(4) 0.694(4) 1.011(2)
H143? H 0.627(4) 0.675(4) 0.955(2)
H144? H 0.561(4) 0.768(4) 1.018(2)
C86? C 0.689(5) 0.661(5) 1.040(4)
H145? H 0.739(5) 0.697(5) 1.013(4)
H146? H 0.658(5) 0.686(5) 1.096(4)
C87? C 0.773(5) 0.548(4) 1.034(3)
H147? H 0.724(5) 0.508(4) 1.052(3)
H148? H 0.819(5) 0.525(4) 0.979(3)
C88? C 0.859(5) 0.525(4) 1.081(2)
H149? H 0.909(5) 0.453(4) 1.074(2)
H150? H 0.910(5) 0.562(4) 1.063(2)
H151? H 0.815(5) 0.546(4) 1.136(2)
loop_
_geom_bond_atom_site_label_1
_geom_bond_atom_site_label_2
_geom_bond_site_symmetry_1
_geom_bond_site_symmetry_2
O1 C1 1_555 1_555
O2 C7 1_555 1_555
O3 C13 1_555 1_555
O4 C19 1_555 1_555
O5 C25 1_555 1_555
O6 C31 1_555 1_555
C1 H1 1_555 1_555
H2 C1 1_555 1_555
C2 C1 1_555 1_555
H3 C2 1_555 1_555
H4 C2 1_555 1_555
C3 C2 1_555 1_555
H5 C3 1_555 1_555
H6 C3 1_555 1_555
C4 C3 1_555 1_555
H7 C4 1_555 1_555
H8 C4 1_555 1_555
C5 C4 1_555 1_555
H9 C5 1_555 1_555
H10 C5 1_555 1_555
C6 C5 1_555 1_555
H11 C6 1_555 1_555
H12 C6 1_555 1_555
H13 C6 1_555 1_555
C7 H14 1_555 1_555
H15 C7 1_555 1_555
C8 C7 1_555 1_555
H16 C8 1_555 1_555
H17 C8 1_555 1_555
C9 C8 1_555 1_555
H18 C9 1_555 1_555
H19 C9 1_555 1_555
C10 C9 1_555 1_555
H20 C10 1_555 1_555
H21 C10 1_555 1_555
C11 C10 1_555 1_555
H22 C11 1_555 1_555
H23 C11 1_555 1_555
C12 C11 1_555 1_555
H24 C12 1_555 1_555
H25 C12 1_555 1_555
H26 C12 1_555 1_555
C13 H27 1_555 1_555
H28 C13 1_555 1_555
C14 C13 1_555 1_555
H29 C14 1_555 1_555
H30 C14 1_555 1_555
C15 C14 1_555 1_555
H31 C15 1_555 1_555
H32 C15 1_555 1_555
C16 C15 1_555 1_555
H33 C16 1_555 1_555
H34 C16 1_555 1_555
C17 C16 1_555 1_555
H35 C17 1_555 1_555
H36 C17 1_555 1_555
C18 C17 1_555 1_555
H37 C18 1_555 1_555
H38 C18 1_555 1_555
H39 C18 1_555 1_555
C19 H40 1_555 1_555
H41 C19 1_555 1_555
C20 C19 1_555 1_555
H42 C20 1_555 1_555
H43 C20 1_555 1_555
C21 C20 1_555 1_555
H44 C21 1_555 1_555
H45 C21 1_555 1_555
C22 C21 1_555 1_555
H46 C22 1_555 1_555
H47 C22 1_555 1_555
C23 C22 1_555 1_555
H48 C23 1_555 1_555
H49 C23 1_555 1_555
C24 C23 1_555 1_555
H50 C24 1_555 1_555
H51 C24 1_555 1_555
H52 C24 1_555 1_555
C25 H53 1_555 1_555
H54 C25 1_555 1_555
C26 C25 1_555 1_555
H55 C26 1_555 1_555
H56 C26 1_555 1_555
C27 C26 1_555 1_555
H57 C27 1_555 1_555
H58 C27 1_555 1_555
C28 C27 1_555 1_555
H59 C28 1_555 1_555
H60 C28 1_555 1_555
C29 C28 1_555 1_555
H61 C29 1_555 1_555
H62 C29 1_555 1_555
C30 C29 1_555 1_555
H63 C30 1_555 1_555
H64 C30 1_555 1_555
H65 C30 1_555 1_555
C31 H66 1_555 1_555
H67 C31 1_555 1_555
C32 C31 1_555 1_555
H68 C32 1_555 1_555
H69 C32 1_555 1_555
C33 C32 1_555 1_555
H70 C33 1_555 1_555
H71 C33 1_555 1_555
C34 C33 1_555 1_555
H72 C34 1_555 1_555
H73 C34 1_555 1_555
C35 C34 1_555 1_555
H74 C35 1_555 1_555
H75 C35 1_555 1_555
C36 C35 1_555 1_555
H76 C36 1_555 1_555
H77 C36 1_555 1_555
H78 C36 1_555 1_555
C37 C38 1_555 1_555
C38 C39 1_555 1_555
C39 C40 1_555 1_555
C40 C41 1_555 1_555
C41 C42 1_555 1_555
C42 C43 1_555 1_555
C43 C44 1_555 1_555
C44 C45 1_555 1_555
C45 C40 1_555 1_555
C46 C37 1_555 1_555
C47 C43 1_555 1_555
C48 C47 1_555 1_555
C49 C38 1_555 1_555
H79 C49 1_555 1_555
C50 O1 1_555 1_555
C51 O2 1_555 1_555
C52 C39 1_555 1_555
H80 C52 1_555 1_555
C53 C41 1_555 1_555
H81 C53 1_555 1_555
C54 O3 1_555 1_555
C55 O4 1_555 1_555
C56 C42 1_555 1_555
H82 C56 1_555 1_555
C57 C47 1_555 1_555
H83 C57 1_555 1_555
C58 O5 1_555 1_555
C59 O6 1_555 1_555
C60 C48 1_555 1_555
H84 C60 1_555 1_555
O1A C1A 1_555 1_555
O2A C7A 1_555 1_555
O3A C13A 1_555 1_555
O4A C19A 1_555 1_555
O5A C25A 1_555 1_555
O6A C31A 1_555 1_555
C1A H1A 1_555 1_555
H2A C1A 1_555 1_555
C2A C1A 1_555 1_555
H3A C2A 1_555 1_555
H4A C2A 1_555 1_555
C3A C2A 1_555 1_555
H5A C3A 1_555 1_555
H6A C3A 1_555 1_555
C4A C3A 1_555 1_555
H7A C4A 1_555 1_555
H8A C4A 1_555 1_555
C5A C4A 1_555 1_555
H9A C5A 1_555 1_555
H10A C5A 1_555 1_555
C6A C5A 1_555 1_555
H11A C6A 1_555 1_555
H12A C6A 1_555 1_555
H13A C6A 1_555 1_555
C7A H14A 1_555 1_555
H15A C7A 1_555 1_555
C8A C7A 1_555 1_555
H16A C8A 1_555 1_555
H17A C8A 1_555 1_555
C9A C8A 1_555 1_555
H18A C9A 1_555 1_555
H19A C9A 1_555 1_555
C10A C9A 1_555 1_555
H20A C10A 1_555 1_555
H21A C10A 1_555 1_555
C11A C10A 1_555 1_555
H22A C11A 1_555 1_555
H23A C11A 1_555 1_555
C12A C11A 1_555 1_555
H24A C12A 1_555 1_555
H25A C12A 1_555 1_555
H26A C12A 1_555 1_555
C13A H27A 1_555 1_555
H28A C13A 1_555 1_555
C14A C13A 1_555 1_555
H29A C14A 1_555 1_555
H30A C14A 1_555 1_555
C15A C14A 1_555 1_555
H31A C15A 1_555 1_555
H32A C15A 1_555 1_555
C16A C15A 1_555 1_555
H33A C16A 1_555 1_555
H34A C16A 1_555 1_555
C17A C16A 1_555 1_555
H35A C17A 1_555 1_555
H36A C17A 1_555 1_555
C18A C17A 1_555 1_555
H37A C18A 1_555 1_555
H38A C18A 1_555 1_555
H39A C18A 1_555 1_555
C19A H40A 1_555 1_555
H41A C19A 1_555 1_555
C20A C19A 1_555 1_555
H42A C20A 1_555 1_555
H43A C20A 1_555 1_555
C21A C20A 1_555 1_555
H44A C21A 1_555 1_555
H45A C21A 1_555 1_555
C22A C21A 1_555 1_555
H46A C22A 1_555 1_555
H47A C22A 1_555 1_555
C23A C22A 1_555 1_555
H48A C23A 1_555 1_555
H49A C23A 1_555 1_555
C24A C23A 1_555 1_555
H50A C24A 1_555 1_555
H51A C24A 1_555 1_555
H52A C24A 1_555 1_555
C25A H53A 1_555 1_555
H54A C25A 1_555 1_555
C26A C25A 1_555 1_555
H55A C26A 1_555 1_555
H56A C26A 1_555 1_555
C27A C26A 1_555 1_555
H57A C27A 1_555 1_555
H58A C27A 1_555 1_555
C28A C27A 1_555 1_555
H59A C28A 1_555 1_555
H60A C28A 1_555 1_555
C29A C28A 1_555 1_555
H61A C29A 1_555 1_555
H62A C29A 1_555 1_555
C30A C29A 1_555 1_555
H63A C30A 1_555 1_555
H64A C30A 1_555 1_555
H65A C30A 1_555 1_555
C31A H66A 1_555 1_555
H67A C31A 1_555 1_555
C32A C31A 1_555 1_555
H68A C32A 1_555 1_555
H69A C32A 1_555 1_555
C33A C32A 1_555 1_555
H70A C33A 1_555 1_555
H71A C33A 1_555 1_555
C34A C33A 1_555 1_555
H72A C34A 1_555 1_555
H73A C34A 1_555 1_555
C35A C34A 1_555 1_555
H74A C35A 1_555 1_555
H75A C35A 1_555 1_555
C36A C35A 1_555 1_555
H76A C36A 1_555 1_555
H77A C36A 1_555 1_555
H78A C36A 1_555 1_555
C37A C48 1_555 1_555
C38A C37A 1_555 1_555
C39A C38A 1_555 1_555
C40A C39A 1_555 1_555
C41A C40A 1_555 1_555
C42A C41A 1_555 1_555
C43A C42A 1_555 1_555
C44A C46 1_555 1_555
C45A C40A 1_555 1_555
C46A C44 1_555 1_555
C47A C43A 1_555 1_555
C48A C37 1_555 1_555
C49A C38A 1_555 1_555
H79A C49A 1_555 1_555
C50A O1A 1_555 1_555
C51A O2A 1_555 1_555
C52A C39A 1_555 1_555
H80A C52A 1_555 1_555
C53A C41A 1_555 1_555
H81A C53A 1_555 1_555
C54A O3A 1_555 1_555
C55A O4A 1_555 1_555
C56A C42A 1_555 1_555
H82A C56A 1_555 1_555
C57A C47A 1_555 1_555
H83A C57A 1_555 1_555
C58A O5A 1_555 1_555
C59A O6A 1_555 1_555
C60A C48A 1_555 1_555
H84A C60A 1_555 1_555
C45 C46 1_555 1_555
C49 C50 1_555 1_555
C50 C51 1_555 1_555
C51 C52 1_555 1_555
C53 C54 1_555 1_555
C54 C55 1_555 1_555
C55 C56 1_555 1_555
C57 C58 1_555 1_555
C58 C59 1_555 1_555
C59 C60 1_555 1_555
C37A C46A 1_555 1_555
C43A C44A 1_555 1_555
C44A C45A 1_555 1_555
C45A C46A 1_555 1_555
C47A C48A 1_555 1_555
C49A C50A 1_555 1_555
C50A C51A 1_555 1_555
C51A C52A 1_555 1_555
C53A C54A 1_555 1_555
C54A C55A 1_555 1_555
C55A C56A 1_555 1_555
C57A C58A 1_555 1_555
C58A C59A 1_555 1_555
C59A C60A 1_555 1_555

#END
