
#######################################################################
#
#                 Cambridge Crystallographic Data Centre
#                                CCDC 
#
#######################################################################
#
# If this CIF has been generated from an entry in the Cambridge 
# Structural Database, then it will include bibliographic, chemical, 
# crystal, experimental, refinement or atomic coordinate data resulting 
# from the CCDC's data processing and validation procedures.
#
#######################################################################

data_RIXXUS
_chemical_compound_source        'octocoral Briareum excavatum'
_chemical_formula_moiety         'C24 H34 O9'
_chemical_name_systematic        'Excavatolide E'
_chemical_properties_biological  
'low inhibitory activity against superoxide anion generation by human neutrophils'
_symmetry_cell_setting           orthorhombic
_symmetry_space_group_name_H-M   'P 21 21 21'
_symmetry_Int_Tables_number      19
_space_group_name_Hall           'P 2ac 2ab'
loop_
_symmetry_equiv_pos_site_id
_symmetry_equiv_pos_as_xyz
1 x,y,z
2 1/2-x,-y,1/2+z
3 -x,1/2+y,1/2-z
4 1/2+x,1/2-y,-z
_cell_length_a                   6.799(3)
_cell_length_b                   18.512(6)
_cell_length_c                   19.594(6)
_cell_angle_alpha                90
_cell_angle_beta                 90
_cell_angle_gamma                90
_cell_volume                     2466.16
_exptl_crystal_colour            colorless
_exptl_crystal_description       prism
_cell_formula_units_Z            4
_exptl_crystal_recrystallization_method 'ethyl acetate'
loop_
_atom_site_label
_atom_site_type_symbol
_atom_site_fract_x
_atom_site_fract_y
_atom_site_fract_z
O1 O 0.2475(2) 0.90889(8) 0.81466(7)
O2 O 0.5038(3) 0.90031(10) 0.74282(9)
O3 O 0.6798(2) 1.21169(7) 0.90453(8)
O4 O 0.8307(2) 1.08846(7) 0.96688(9)
O5 O 0.2945(2) 1.07561(8) 1.00256(8)
O6 O 0.6131(3) 0.80895(9) 1.10033(10)
O7 O 0.5751(2) 0.84200(7) 0.88996(7)
O8 O 0.4982(3) 0.72990(9) 0.85636(11)
O9 O 0.8542(3) 1.27255(8) 0.98056(10)
C1 C 0.3398(3) 0.92905(10) 0.93400(10)
C2 C 0.3489(3) 0.95990(10) 0.86036(10)
H1 H 0.4869 0.9639 0.8464
C3 C 0.2485(3) 1.03192(11) 0.84932(11)
H2 H 0.2705 1.0621 0.8890
H3 H 0.1079 1.0240 0.8453
C4 C 0.3207(4) 1.07209(13) 0.78576(12)
H4 H 0.2797 1.0452 0.7457
H5 H 0.2565 1.1188 0.7841
C5 C 0.5388(4) 1.08356(12) 0.78197(12)
C6 C 0.6459(4) 1.11050(11) 0.83273(11)
H6 H 0.7816 1.1095 0.8268
C7 C 0.5737(3) 1.14214(10) 0.89793(10)
H7 H 0.4317 1.1508 0.8952
C8 C 0.6232(3) 1.10196(9) 0.96353(10)
C9 C 0.4890(3) 1.04874(9) 1.00087(10)
H8 H 0.5332 1.0503 1.0485
C10 C 0.5003(3) 0.96673(9) 0.98051(9)
H9 H 0.6235 0.9621 0.9549
C11 C 0.5389(3) 0.92640(10) 1.04954(10)
H10 H 0.6585 0.9481 1.0685
C12 C 0.5883(3) 0.84671(10) 1.03724(11)
H11 H 0.7109 0.8437 1.0111
C13 C 0.4269(3) 0.81027(10) 0.99754(11)
H12 H 0.3064 0.8111 1.0240
H13 H 0.4620 0.7602 0.9896
C14 C 0.3926(3) 0.84755(10) 0.92977(10)
H14 H 0.2875 0.8222 0.9053
C15 C 0.1261(3) 0.93244(11) 0.96039(12)
H15 H 0.0391 0.9127 0.9266
H16 H 0.0909 0.9818 0.9692
H17 H 0.1152 0.9049 1.0018
C16 C 0.6345(6) 1.06314(16) 0.71561(14)
H18 H 0.5994 1.0144 0.7040
H19 H 0.7748 1.0667 0.7201
H20 H 0.5905 1.0952 0.6803
C17 C 0.7519(3) 1.14981(10) 1.00468(11)
C18 C 0.7845(5) 1.15272(13) 1.07966(13)
H21 H 0.7906 1.1045 1.0975
H22 H 0.6781 1.1783 1.1009
H23 H 0.9061 1.1772 1.0890
C19 C 0.7720(3) 1.21732(11) 0.96361(12)
C20 C 0.3803(4) 0.93599(12) 1.10428(11)
H24 H 0.2751 0.9025 1.0962
H25 H 0.3301 0.9844 1.1025
H26 H 0.4361 0.9271 1.1485
C21 C 0.3390(4) 0.88599(13) 0.75768(12)
C22 C 0.2064(6) 0.8390(2) 0.71631(18)
H27 H 0.2685 0.8279 0.6736
H28 H 0.0849 0.8639 0.7080
H29 H 0.1804 0.7951 0.7408
C23 C 0.6069(4) 0.78135(12) 0.85492(13)
C24 C 0.7927(4) 0.78459(15) 0.81517(14)
H30 H 0.7722 0.7635 0.7710
H31 H 0.8935 0.7583 0.8388
H32 H 0.8325 0.8340 0.8100
H33 H 0.298(4) 1.1167(16) 1.0156(15)
H34 H 0.725(5) 0.8068(17) 1.1083(16)
loop_
_geom_bond_atom_site_label_1
_geom_bond_atom_site_label_2
_geom_bond_site_symmetry_1
_geom_bond_site_symmetry_2
O1 C2 1_555 1_555
O2 C21 1_555 1_555
O3 C7 1_555 1_555
O4 C8 1_555 1_555
O5 C9 1_555 1_555
O6 C12 1_555 1_555
O7 C14 1_555 1_555
O8 C23 1_555 1_555
O9 C19 1_555 1_555
C1 C2 1_555 1_555
C2 H1 1_555 1_555
C3 C2 1_555 1_555
H2 C3 1_555 1_555
H3 C3 1_555 1_555
C4 C3 1_555 1_555
H4 C4 1_555 1_555
H5 C4 1_555 1_555
C5 C4 1_555 1_555
C6 C5 1_555 1_555
H6 C6 1_555 1_555
C7 C6 1_555 1_555
H7 C7 1_555 1_555
C8 C7 1_555 1_555
C9 C8 1_555 1_555
H8 C9 1_555 1_555
C10 C1 1_555 1_555
H9 C10 1_555 1_555
C11 C10 1_555 1_555
H10 C11 1_555 1_555
C12 C11 1_555 1_555
H11 C12 1_555 1_555
C13 C12 1_555 1_555
H12 C13 1_555 1_555
H13 C13 1_555 1_555
C14 C1 1_555 1_555
H14 C14 1_555 1_555
C15 C1 1_555 1_555
H15 C15 1_555 1_555
H16 C15 1_555 1_555
H17 C15 1_555 1_555
C16 C5 1_555 1_555
H18 C16 1_555 1_555
H19 C16 1_555 1_555
H20 C16 1_555 1_555
C17 O4 1_555 1_555
C18 C17 1_555 1_555
H21 C18 1_555 1_555
H22 C18 1_555 1_555
H23 C18 1_555 1_555
C19 O3 1_555 1_555
C20 C11 1_555 1_555
H24 C20 1_555 1_555
H25 C20 1_555 1_555
H26 C20 1_555 1_555
C21 O1 1_555 1_555
C22 C21 1_555 1_555
H27 C22 1_555 1_555
H28 C22 1_555 1_555
H29 C22 1_555 1_555
C23 O7 1_555 1_555
C24 C23 1_555 1_555
H30 C24 1_555 1_555
H31 C24 1_555 1_555
H32 C24 1_555 1_555
H33 O5 1_555 1_555
H34 O6 1_555 1_555
C8 C17 1_555 1_555
C9 C10 1_555 1_555
C13 C14 1_555 1_555
C17 C19 1_555 1_555

#END
