
#######################################################################
#
#                 Cambridge Crystallographic Data Centre
#                                CCDC 
#
#######################################################################
#
# If this CIF has been generated from an entry in the Cambridge 
# Structural Database, then it will include bibliographic, chemical, 
# crystal, experimental, refinement or atomic coordinate data resulting 
# from the CCDC's data processing and validation procedures.
#
#######################################################################

data_RIXXOM
_chemical_compound_source        'octocoral Briareum excavatum'
_chemical_formula_moiety         'C28 H38 O12'
_chemical_name_systematic        'Excavatolide C'
_chemical_properties_biological  
'inhibitory activity against superoxide anion generation by human neutrophils'
_symmetry_cell_setting           monoclinic
_symmetry_space_group_name_H-M   'P 21'
_symmetry_Int_Tables_number      4
_space_group_name_Hall           'P 2yb'
loop_
_symmetry_equiv_pos_site_id
_symmetry_equiv_pos_as_xyz
1 x,y,z
2 -x,1/2+y,-z
_cell_length_a                   8.9987(18)
_cell_length_b                   14.718(3)
_cell_length_c                   10.882(2)
_cell_angle_alpha                90
_cell_angle_beta                 94.91(3)
_cell_angle_gamma                90
_cell_volume                     1435.95
_exptl_crystal_colour            colorless
_exptl_crystal_description       prism
_cell_formula_units_Z            2
_exptl_crystal_recrystallization_method 'ethyl acetate'
loop_
_atom_site_label
_atom_site_type_symbol
_atom_site_fract_x
_atom_site_fract_y
_atom_site_fract_z
O1 O 0.33665(16) 0.51512(12) 0.86668(15)
O2 O 0.2061(2) 0.61290(17) 0.9763(3)
O3 O 0.4470(2) 0.47701(14) 1.10202(16)
O4 O 0.5495(4) 0.5952(3) 1.2067(3)
O5 O 0.9415(3) 0.74487(15) 0.6758(2)
H1 H 1.0097 0.7171 0.6473
O6 O 0.75124(18) 0.63844(12) 0.97788(16)
O7 O 0.7549(3) 0.76514(17) 1.0932(3)
O8 O 0.87530(18) 0.40386(12) 0.63710(16)
O9 O 0.7694(2) 0.23248(12) 0.67756(18)
O10 O 0.8516(3) 0.19644(16) 0.4976(2)
O11 O 0.46947(17) 0.44307(11) 0.67263(15)
O12 O 0.4469(2) 0.37139(18) 0.49029(18)
C1 C 0.5615(2) 0.60416(15) 0.8109(2)
C2 C 0.4767(2) 0.55607(16) 0.9147(2)
H2 H 0.4477 0.6058 0.9675
C3 C 0.5496(3) 0.48533(17) 1.0044(2)
H3 H 0.6467 0.5076 1.0396
C4 C 0.5653(3) 0.38839(17) 0.9571(2)
H4 H 0.5090 0.3481 1.0063
H5 H 0.5208 0.3854 0.8728
C5 C 0.7223(3) 0.35425(18) 0.9602(2)
C6 C 0.7808(3) 0.31998(18) 0.8626(2)
H6 H 0.8795 0.3007 0.8732
C7 C 0.7017(3) 0.30974(16) 0.7371(2)
H7 H 0.5957 0.2977 0.7441
C8 C 0.7186(2) 0.38898(16) 0.6499(2)
C9 C 0.6173(2) 0.47179(15) 0.64836(19)
H8 H 0.6111 0.4972 0.5648
C10 C 0.6758(2) 0.54809(15) 0.7389(2)
H9 H 0.7429 0.5182 0.8021
C11 C 0.7785(3) 0.60970(17) 0.6620(2)
H10 H 0.8582 0.5698 0.6378
C12 C 0.8564(3) 0.68359(19) 0.7442(3)
H11 H 0.9232 0.6543 0.8082
C13 C 0.7453(3) 0.74054(17) 0.8049(3)
H12 H 0.6811 0.7717 0.7423
H13 H 0.7974 0.7860 0.8568
C14 C 0.6514(3) 0.68132(16) 0.8826(2)
H14 H 0.5813 0.7203 0.9224
C15 C 0.4393(3) 0.65095(19) 0.7251(3)
H15 H 0.4847 0.6930 0.6722
H16 H 0.3724 0.6830 0.7738
H17 H 0.3849 0.6059 0.6758
C16 C 0.8126(4) 0.3558(3) 1.0840(3)
H18 H 0.8228 0.4174 1.1127
H19 H 0.9096 0.3306 1.0756
H20 H 0.7627 0.3205 1.1422
C17 C 0.7867(3) 0.35331(19) 0.5412(2)
C18 C 0.7778(4) 0.3890(2) 0.4127(2)
H21 H 0.7699 0.4540 0.4143
H22 H 0.6917 0.3640 0.3665
H23 H 0.8660 0.3720 0.3746
C19 C 0.8086(3) 0.25344(19) 0.5651(3)
C20 C 0.7070(4) 0.6515(2) 0.5414(3)
H24 H 0.6269 0.6134 0.5081
H25 H 0.7807 0.6565 0.4830
H26 H 0.6688 0.7108 0.5580
C21 C 0.2125(3) 0.54518(19) 0.9165(3)
C22 C 0.0854(3) 0.4821(2) 0.8859(3)
H27 H 0.1160 0.4210 0.9061
H28 H 0.0547 0.4860 0.7994
H29 H 0.0037 0.4986 0.9325
C23 C 0.4575(4) 0.5370(3) 1.1952(3)
C24 C 0.3328(5) 0.5223(3) 1.2769(3)
H30 H 0.2409 0.5438 1.2357
H31 H 0.3538 0.5550 1.3527
H32 H 0.3242 0.4586 1.2942
C25 C 0.3918(3) 0.39547(18) 0.5812(2)
C26 C 0.2355(3) 0.3792(3) 0.6100(4)
H33 H 0.1865 0.4364 0.6193
H34 H 0.2355 0.3452 0.6852
H35 H 0.1837 0.3456 0.5440
C27 C 0.7950(3) 0.6885(2) 1.0795(3)
C28 C 0.8976(4) 0.6360(3) 1.1670(3)
H36 H 0.8526 0.5788 1.1845
H37 H 0.9168 0.6698 1.2421
H38 H 0.9898 0.6255 1.1309
loop_
_geom_bond_atom_site_label_1
_geom_bond_atom_site_label_2
_geom_bond_site_symmetry_1
_geom_bond_site_symmetry_2
O1 C2 1_555 1_555
O2 C21 1_555 1_555
O3 C3 1_555 1_555
O4 C23 1_555 1_555
O5 H1 1_555 1_555
O6 C14 1_555 1_555
O7 C27 1_555 1_555
O8 C8 1_555 1_555
O9 C7 1_555 1_555
O10 C19 1_555 1_555
O11 C9 1_555 1_555
O12 C25 1_555 1_555
C1 C2 1_555 1_555
C2 H2 1_555 1_555
C3 C2 1_555 1_555
H3 C3 1_555 1_555
C4 C3 1_555 1_555
H4 C4 1_555 1_555
H5 C4 1_555 1_555
C5 C4 1_555 1_555
C6 C5 1_555 1_555
H6 C6 1_555 1_555
C7 C6 1_555 1_555
H7 C7 1_555 1_555
C8 C7 1_555 1_555
C9 C8 1_555 1_555
H8 C9 1_555 1_555
C10 C1 1_555 1_555
H9 C10 1_555 1_555
C11 C10 1_555 1_555
H10 C11 1_555 1_555
C12 O5 1_555 1_555
H11 C12 1_555 1_555
C13 C12 1_555 1_555
H12 C13 1_555 1_555
H13 C13 1_555 1_555
C14 C1 1_555 1_555
H14 C14 1_555 1_555
C15 C1 1_555 1_555
H15 C15 1_555 1_555
H16 C15 1_555 1_555
H17 C15 1_555 1_555
C16 C5 1_555 1_555
H18 C16 1_555 1_555
H19 C16 1_555 1_555
H20 C16 1_555 1_555
C17 O8 1_555 1_555
C18 C17 1_555 1_555
H21 C18 1_555 1_555
H22 C18 1_555 1_555
H23 C18 1_555 1_555
C19 O9 1_555 1_555
C20 C11 1_555 1_555
H24 C20 1_555 1_555
H25 C20 1_555 1_555
H26 C20 1_555 1_555
C21 O1 1_555 1_555
C22 C21 1_555 1_555
H27 C22 1_555 1_555
H28 C22 1_555 1_555
H29 C22 1_555 1_555
C23 O3 1_555 1_555
C24 C23 1_555 1_555
H30 C24 1_555 1_555
H31 C24 1_555 1_555
H32 C24 1_555 1_555
C25 O11 1_555 1_555
C26 C25 1_555 1_555
H33 C26 1_555 1_555
H34 C26 1_555 1_555
H35 C26 1_555 1_555
C27 O6 1_555 1_555
C28 C27 1_555 1_555
H36 C28 1_555 1_555
H37 C28 1_555 1_555
H38 C28 1_555 1_555
C8 C17 1_555 1_555
C9 C10 1_555 1_555
C11 C12 1_555 1_555
C13 C14 1_555 1_555
C17 C19 1_555 1_555

#END
