
#######################################################################
#
#                 Cambridge Crystallographic Data Centre
#                                CCDC 
#
#######################################################################
#
# If this CIF has been generated from an entry in the Cambridge 
# Structural Database, then it will include bibliographic, chemical, 
# crystal, experimental, refinement or atomic coordinate data resulting 
# from the CCDC's data processing and validation procedures.
#
#######################################################################

data_RIYBOQ
_chemical_formula_moiety         'C28 H18 N4 S8,C1 S2'
_chemical_name_systematic        
'1^5^,1^6^-Dicyano-5^3^,5^7^-dimethylthio-4,6-dithia-2,8(1,4)-dibenzena-1(2,3)-pyrazina-5(2,6)-tetrathiafulvalenacyclo-octaphane carbon disulfide'
_symmetry_cell_setting           monoclinic
_symmetry_space_group_name_H-M   'P 21/c'
_symmetry_Int_Tables_number      14
_space_group_name_Hall           '-P 2ybc'
loop_
_symmetry_equiv_pos_site_id
_symmetry_equiv_pos_as_xyz
1 x,y,z
2 -x,1/2+y,1/2-z
3 -x,-y,-z
4 x,1/2-y,1/2+z
_cell_length_a                   8.052(3)
_cell_length_b                   21.305(3)
_cell_length_c                   19.941(3)
_cell_angle_alpha                90
_cell_angle_beta                 100.32(2)
_cell_angle_gamma                90
_cell_volume                     3365.5
_exptl_crystal_colour            red
_chemical_melting_point          'above 250deg.C'
_cell_formula_units_Z            4
loop_
_atom_site_label
_atom_site_type_symbol
_atom_site_fract_x
_atom_site_fract_y
_atom_site_fract_z
S1 S 0.7458(2) 0.45268(6) 0.96990(6)
S2 S 0.3964(2) 0.45570(6) 0.89647(6)
S3 S 0.7974(2) 0.31670(6) 0.93787(7)
S4 S 0.3972(2) 0.32113(6) 0.85068(7)
S5 S 0.7801(2) 0.60411(7) 0.93856(7)
S6 S 0.4256(2) 0.60644(6) 0.87481(7)
S7 S 0.8693(2) 0.71641(7) 0.86054(9)
S8 S 0.4693(2) 0.71434(6) 0.78152(6)
N1 N 0.7530(5) 0.4959(2) 0.5285(2)
N2 N 0.8736(5) 0.3798(2) 0.5794(2)
N3 N 0.8686(6) 0.4908(2) 0.3709(2)
N4 N 0.9795(7) 0.3169(2) 0.4335(2)
C1 C 0.5812(6) 0.4987(2) 0.9263(2)
C2 C 0.6670(6) 0.3831(2) 0.9274(2)
C3 C 0.5072(6) 0.3839(2) 0.8934(2)
C4 C 0.5937(7) 0.5609(2) 0.9154(2)
C5 C 0.7203(7) 0.6602(2) 0.8733(3)
C6 C 0.5597(7) 0.6601(2) 0.8429(2)
C7 C 0.9781(6) 0.3446(2) 0.9031(2)
H1 H 1.0298(6) 0.3793(2) 0.9307(2)
H2 H 1.0611(6) 0.3113(2) 0.9060(2)
C8 C 0.3372(7) 0.3538(2) 0.7661(3)
H3 H 0.2740(33) 0.3233(6) 0.7365(5)
H4 H 0.4368(7) 0.3652(13) 0.7487(7)
H5 H 0.2689(32) 0.3904(9) 0.7683(3)
C9 C 1.0485(12) 0.6705(5) 0.8541(6)
H6 H 1.1411(12) 0.6979(5) 0.8467(6)
H7 H 1.0209(12) 0.6414(5) 0.8156(6)
H8 H 1.0828(12) 0.6466(5) 0.8963(6)
C10 C 0.3604(7) 0.6625(2) 0.7145(2)
H9 H 0.2727(7) 0.6401(2) 0.7322(2)
H10 H 0.3056(7) 0.6882(2) 0.6767(2)
C11 C 0.9314(6) 0.3663(2) 0.8296(2)
C12 C 0.9448(6) 0.4293(2) 0.8125(2)
H11 H 0.9783(6) 0.4588(2) 0.8466(2)
C13 C 0.9068(6) 0.4482(2) 0.7451(2)
H12 H 0.9180(6) 0.4902(2) 0.7341(2)
C14 C 0.8521(6) 0.4048(2) 0.6934(2)
C15 C 0.8375(6) 0.3420(2) 0.7106(2)
H13 H 0.8029(6) 0.3124(2) 0.6767(2)
C16 C 0.8755(6) 0.3233(2) 0.7780(2)
H14 H 0.8630(6) 0.2814(2) 0.7890(2)
C17 C 0.4728(6) 0.6157(2) 0.6880(2)
C18 C 0.4726(6) 0.5529(2) 0.7073(2)
H15 H 0.4107(6) 0.5410(2) 0.7403(2)
C19 C 0.5640(6) 0.5086(2) 0.6787(2)
H16 H 0.5636(6) 0.4670(2) 0.6928(2)
C20 C 0.6580(6) 0.5263(2) 0.6289(2)
C21 C 0.6616(7) 0.5895(2) 0.6119(3)
H17 H 0.7256(7) 0.6025(2) 0.5800(3)
C22 C 0.5693(7) 0.6336(2) 0.6408(3)
H18 H 0.5723(7) 0.6757(2) 0.6288(3)
C23 C 0.8203(6) 0.4226(2) 0.6204(2)
C24 C 0.7469(6) 0.4804(2) 0.5930(2)
C25 C 0.8195(6) 0.4545(2) 0.4903(2)
C26 C 0.8726(6) 0.3952(2) 0.5145(2)
C27 C 0.8430(7) 0.4753(2) 0.4232(3)
C28 C 0.9326(8) 0.3499(2) 0.4702(3)
S9 S 0.3564(2) 0.36951(8) 0.58482(8)
S10 S 0.5389(13) 0.2623(4) 0.5248(7)
C29 C 0.4364(8) 0.3136(3) 0.5533(3)
C30? C 0.9842(21) 0.6684(7) 0.8112(8)
H19? H 1.0772(21) 0.6927(7) 0.7986(8)
H20? H 0.9088(21) 0.6542(7) 0.7698(8)
H21? H 1.0298(21) 0.6318(7) 0.8382(8)
S11? S 0.4791(20) 0.2532(5) 0.5172(9)
loop_
_geom_bond_atom_site_label_1
_geom_bond_atom_site_label_2
_geom_bond_site_symmetry_1
_geom_bond_site_symmetry_2
S1 C1 1_555 1_555
S2 C1 1_555 1_555
S3 C2 1_555 1_555
S4 C3 1_555 1_555
S5 C4 1_555 1_555
S6 C4 1_555 1_555
S7 C5 1_555 1_555
S8 C6 1_555 1_555
N1 C24 1_555 1_555
N2 C23 1_555 1_555
N3 C27 1_555 1_555
N4 C28 1_555 1_555
C1 C4 1_555 1_555
C2 S1 1_555 1_555
C3 S2 1_555 1_555
C5 S5 1_555 1_555
C6 S6 1_555 1_555
C7 S3 1_555 1_555
H1 C7 1_555 1_555
H2 C7 1_555 1_555
C8 S4 1_555 1_555
H3 C8 1_555 1_555
H4 C8 1_555 1_555
H5 C8 1_555 1_555
C9 S7 1_555 1_555
H6 C9 1_555 1_555
H7 C9 1_555 1_555
H8 C9 1_555 1_555
C10 S8 1_555 1_555
H9 C10 1_555 1_555
H10 C10 1_555 1_555
C11 C7 1_555 1_555
C12 C11 1_555 1_555
H11 C12 1_555 1_555
C13 C12 1_555 1_555
H12 C13 1_555 1_555
C14 C13 1_555 1_555
C15 C14 1_555 1_555
H13 C15 1_555 1_555
C16 C11 1_555 1_555
H14 C16 1_555 1_555
C17 C10 1_555 1_555
C18 C17 1_555 1_555
H15 C18 1_555 1_555
C19 C18 1_555 1_555
H16 C19 1_555 1_555
C20 C19 1_555 1_555
C21 C20 1_555 1_555
H17 C21 1_555 1_555
C22 C17 1_555 1_555
H18 C22 1_555 1_555
C23 C14 1_555 1_555
C24 C20 1_555 1_555
C25 N1 1_555 1_555
C26 N2 1_555 1_555
C27 C25 1_555 1_555
C28 C26 1_555 1_555
S9 C29 1_555 1_555
S10 C29 1_555 1_555
C2 C3 1_555 1_555
C5 C6 1_555 1_555
C15 C16 1_555 1_555
C21 C22 1_555 1_555
C23 C24 1_555 1_555
C25 C26 1_555 1_555

#END
