
#######################################################################
#
#                 Cambridge Crystallographic Data Centre
#                                CCDC 
#
#######################################################################
#
# If this CIF has been generated from an entry in the Cambridge 
# Structural Database, then it will include bibliographic, chemical, 
# crystal, experimental, refinement or atomic coordinate data resulting 
# from the CCDC's data processing and validation procedures.
#
#######################################################################

data_RIYBUW
_chemical_formula_moiety         'C28 H18 N4 S8,C1 H2 Cl2'
_chemical_name_systematic        
'1^5^,1^6^-Dicyano-5^3^,5^7^-dimethylthio-4,6-dithia-2,8(1,4)-dibenzena-1(2,3)-pyrazina-5(2,6)-tetrathiafulvalenacyclo-octaphane dichloromethane solvate'
_symmetry_cell_setting           triclinic
_symmetry_space_group_name_H-M   'P -1'
_symmetry_Int_Tables_number      2
_space_group_name_Hall           '-P 1'
loop_
_symmetry_equiv_pos_site_id
_symmetry_equiv_pos_as_xyz
1 x,y,z
2 -x,-y,-z
_cell_length_a                   11.408(1)
_cell_length_b                   16.057(1)
_cell_length_c                   19.819(1)
_cell_angle_alpha                94.78(1)
_cell_angle_beta                 106.58(1)
_cell_angle_gamma                102.05(1)
_cell_volume                     3363.02
_exptl_crystal_colour            brown
_cell_formula_units_Z            4
loop_
_atom_site_label
_atom_site_type_symbol
_atom_site_fract_x
_atom_site_fract_y
_atom_site_fract_z
S1 S 0.53476(9) 0.29153(6) 0.62772(5)
S2 S 0.47548(9) 0.11742(6) 0.54795(5)
S3 S 0.34502(10) 0.24298(7) 0.70632(5)
S4 S 0.28672(9) 0.04072(7) 0.61826(5)
S5 S 0.81490(9) 0.33111(6) 0.60224(6)
S6 S 0.74854(9) 0.15868(6) 0.52022(5)
S7 S 1.09542(9) 0.34682(7) 0.63849(6)
S8 S 1.01934(9) 0.14333(6) 0.55765(5)
N1 N 0.9292(3) -0.0451(2) 0.8820(2)
N2 N 0.7174(3) -0.0245(2) 0.9192(2)
N3 N 1.0601(4) -0.1580(3) 1.0092(2)
N4 N 0.7261(5) -0.1479(3) 1.0521(3)
C1 C 0.5875(4) 0.2167(2) 0.5811(2)
C2 C 0.4213(4) 0.2119(3) 0.6471(2)
C3 C 0.3961(3) 0.1315(3) 0.6113(2)
C4 C 0.7006(4) 0.2335(2) 0.5698(2)
C5 C 0.9411(4) 0.2834(3) 0.6020(2)
C6 C 0.9106(3) 0.2035(2) 0.5658(2)
C7 C 0.4778(4) 0.2775(3) 0.7889(2)
H1 H 0.5375(4) 0.3290(3) 0.7835(2)
H2 H 0.4461(4) 0.2939(3) 0.8283(2)
C8 C 0.3938(4) -0.0266(3) 0.6511(2)
H3 H 0.3452(4) -0.0840(7) 0.6527(16)
H4 H 0.4494(20) -0.0005(11) 0.6991(7)
H5 H 0.4447(21) -0.0315(16) 0.6193(9)
C9 C 1.1139(5) 0.3555(4) 0.7318(3)
H6 H 1.1982(13) 0.3907(19) 0.7590(3)
H7 H 1.1032(33) 0.2978(5) 0.7456(4)
H8 H 1.0500(22) 0.3826(21) 0.7417(4)
C10 C 0.9432(4) 0.0395(3) 0.5757(2)
H9 H 0.8611(4) 0.0173(3) 0.5380(2)
H10 H 0.9958(4) -0.0015(3) 0.5722(2)
C11 C 0.5469(4) 0.2084(3) 0.8077(2)
C12 C 0.6702(4) 0.2188(3) 0.8049(2)
H11 H 0.7097(4) 0.2696(3) 0.7908(2)
C13 C 0.7350(4) 0.1557(3) 0.8226(2)
H12 H 0.8194(4) 0.1642(3) 0.8215(2)
C14 C 0.6780(4) 0.0800(3) 0.8422(2)
C15 C 0.5535(4) 0.0697(3) 0.8444(2)
H13 H 0.5134(4) 0.0189(3) 0.8582(2)
C16 C 0.4894(4) 0.1329(3) 0.8269(2)
H14 H 0.4053(4) 0.1249(3) 0.8284(2)
C17 C 0.9206(4) 0.0403(2) 0.6470(2)
C18 C 0.7976(4) 0.0199(2) 0.6505(2)
H15 H 0.7286(4) 0.0123(2) 0.6083(2)
C19 C 0.7748(4) 0.0108(3) 0.7150(2)
H16 H 0.6905(4) -0.0026(3) 0.7165(2)
C20 C 0.8751(4) 0.0208(3) 0.7778(2)
C21 C 0.9985(4) 0.0442(3) 0.7748(2)
H17 H 1.0677(4) 0.0527(3) 0.8171(2)
C22 C 1.0204(4) 0.0549(3) 0.7103(2)
H18 H 1.1047(4) 0.0725(3) 0.7093(2)
C23 C 0.7489(4) 0.0155(3) 0.8677(2)
C24 C 0.8508(4) -0.0019(3) 0.8443(2)
C25 C 0.9006(4) -0.0794(3) 0.9364(2)
C26 C 0.7909(4) -0.0735(3) 0.9525(2)
C27 C 0.9893(4) -0.1237(3) 0.9768(2)
C28 C 0.7541(5) -0.1163(3) 1.0074(3)
S9 S 0.19470(9) 0.17723(6) 0.41579(6)
S10 S 0.25787(9) 0.35396(6) 0.49057(5)
S11 S -0.08429(9) 0.16135(7) 0.36863(6)
S12 S -0.01305(9) 0.36703(7) 0.45112(5)
S13 S 0.47397(9) 0.21073(6) 0.39412(5)
S14 S 0.53434(9) 0.38947(6) 0.46381(5)
S15 S 0.63273(9) 0.25228(7) 0.29660(5)
S16 S 0.69962(10) 0.45856(7) 0.37717(6)
N5 N 0.0929(3) 0.3472(2) 0.0219(2)
N6 N -0.0760(3) 0.4134(2) 0.0751(2)
N7 N -0.0386(5) 0.3584(4) -0.1566(2)
N8 N -0.2782(5) 0.4437(3) -0.0816(3)
C29 C 0.3092(4) 0.2752(2) 0.4467(2)
C30 C 0.0680(4) 0.2257(3) 0.4112(2)
C31 C 0.0959(4) 0.3069(3) 0.4452(2)
C32 C 0.4229(4) 0.2897(2) 0.4373(2)
C33 C 0.5719(3) 0.2879(3) 0.3623(2)
C34 C 0.5991(4) 0.3700(3) 0.3943(2)
C35 C 0.0510(4) 0.4632(3) 0.4167(2)
H19 H 0.0022(4) 0.5066(3) 0.4207(2)
H20 H 0.1395(4) 0.4884(3) 0.4463(2)
C36 C -0.0907(5) 0.1607(4) 0.2767(3)
H21 H -0.1704(15) 0.1228(18) 0.2460(3)
H22 H -0.0201(20) 0.1397(22) 0.2689(5)
H23 H -0.0848(34) 0.2193(5) 0.2652(6)
C37 C 0.5840(5) 0.5159(3) 0.3357(3)
H24 H 0.5303(20) 0.4827(11) 0.2896(8)
H25 H 0.6273(5) 0.5724(9) 0.3287(16)
H26 H 0.5320(21) 0.5236(19) 0.3664(9)
C38 C 0.4885(4) 0.1835(3) 0.2312(2)
H27 H 0.5120(4) 0.1547(3) 0.1926(2)
H28 H 0.4506(4) 0.1381(3) 0.2548(2)
C39 C 0.0465(4) 0.4437(3) 0.3397(2)
C40 C 0.1567(4) 0.4564(3) 0.3205(2)
H29 H 0.2366(4) 0.4766(3) 0.3559(2)
C41 C 0.1503(4) 0.4390(3) 0.2496(2)
H30 H 0.2259(4) 0.4474(3) 0.2370(2)
C42 C 0.0348(4) 0.4094(3) 0.1963(2)
C43 C -0.0755(4) 0.3978(3) 0.2158(2)
H31 H -0.1553(4) 0.3781(3) 0.1802(2)
C44 C -0.0695(4) 0.4141(3) 0.2865(2)
H32 H -0.1453(4) 0.4051(3) 0.2989(2)
C45 C 0.3910(4) 0.2311(3) 0.1986(2)
C46 C 0.2803(4) 0.2227(3) 0.2175(2)
H33 H 0.2673(4) 0.1880(3) 0.2525(2)
C47 C 0.1894(4) 0.2642(3) 0.1851(2)
H34 H 0.1145(4) 0.2579(3) 0.1982(2)
C48 C 0.2063(4) 0.3155(3) 0.1332(2)
C49 C 0.3162(4) 0.3237(3) 0.1147(2)
H35 H 0.3290(4) 0.3578(3) 0.0793(2)
C50 C 0.4083(4) 0.2826(3) 0.1475(2)
H36 H 0.4838(4) 0.2899(3) 0.1350(2)
C51 C 0.0228(4) 0.3919(3) 0.1197(2)
C52 C 0.1056(4) 0.3538(3) 0.0916(2)
C53 C -0.0039(4) 0.3715(3) -0.0208(2)
C54 C -0.0908(4) 0.4010(3) 0.0052(2)
C55 C -0.0198(5) 0.3627(4) -0.0964(2)
C56 C -0.1978(5) 0.4242(3) -0.0424(2)
Cl1 Cl 0.3362(3) 0.3710(2) 0.9291(2)
Cl2 Cl 0.3998(3) 0.5203(2) 0.8632(2)
C57 C 0.3186(10) 0.4764(7) 0.9188(6)
H37 H 0.2280(10) 0.4750(7) 0.8986(6)
H38 H 0.3512(10) 0.5132(7) 0.9660(6)
Cl3 Cl 0.3764(9) 0.7458(4) 0.9783(4)
Cl4 Cl 0.2971(11) 0.8751(8) 0.8963(4)
C58 C 0.3585(8) 0.8511(4) 0.9790(4)
H39 H 0.2982 0.8481 0.9972
H40 H 0.4227 0.8754 1.0007
Cl5? Cl 0.3325(14) 0.7475(5) 0.9404(6)
Cl6? Cl 0.3252(12) 0.9218(6) 0.9184(4)
C59? C 0.4455(28) 0.9141(19) 0.9610(15)
C60? C 0.2252(50) 0.8164(35) 0.9020(27)
loop_
_geom_bond_atom_site_label_1
_geom_bond_atom_site_label_2
_geom_bond_site_symmetry_1
_geom_bond_site_symmetry_2
S1 C1 1_555 1_555
S2 C1 1_555 1_555
S3 C2 1_555 1_555
S4 C3 1_555 1_555
S5 C4 1_555 1_555
S6 C4 1_555 1_555
S7 C5 1_555 1_555
S8 C6 1_555 1_555
N1 C24 1_555 1_555
N2 C23 1_555 1_555
N3 C27 1_555 1_555
N4 C28 1_555 1_555
C1 C4 1_555 1_555
C2 S1 1_555 1_555
C3 S2 1_555 1_555
C5 S5 1_555 1_555
C6 S6 1_555 1_555
C7 S3 1_555 1_555
H1 C7 1_555 1_555
H2 C7 1_555 1_555
C8 S4 1_555 1_555
H3 C8 1_555 1_555
H4 C8 1_555 1_555
H5 C8 1_555 1_555
C9 S7 1_555 1_555
H6 C9 1_555 1_555
H7 C9 1_555 1_555
H8 C9 1_555 1_555
C10 S8 1_555 1_555
H9 C10 1_555 1_555
H10 C10 1_555 1_555
C11 C7 1_555 1_555
C12 C11 1_555 1_555
H11 C12 1_555 1_555
C13 C12 1_555 1_555
H12 C13 1_555 1_555
C14 C13 1_555 1_555
C15 C14 1_555 1_555
H13 C15 1_555 1_555
C16 C11 1_555 1_555
H14 C16 1_555 1_555
C17 C10 1_555 1_555
C18 C17 1_555 1_555
H15 C18 1_555 1_555
C19 C18 1_555 1_555
H16 C19 1_555 1_555
C20 C19 1_555 1_555
C21 C20 1_555 1_555
H17 C21 1_555 1_555
C22 C17 1_555 1_555
H18 C22 1_555 1_555
C23 C14 1_555 1_555
C24 C20 1_555 1_555
C25 N1 1_555 1_555
C26 N2 1_555 1_555
C27 C25 1_555 1_555
C28 C26 1_555 1_555
S9 C29 1_555 1_555
S10 C29 1_555 1_555
S11 C30 1_555 1_555
S12 C31 1_555 1_555
S13 C32 1_555 1_555
S14 C32 1_555 1_555
S15 C33 1_555 1_555
S16 C34 1_555 1_555
N5 C52 1_555 1_555
N6 C51 1_555 1_555
N7 C55 1_555 1_555
N8 C56 1_555 1_555
C29 C32 1_555 1_555
C30 S9 1_555 1_555
C31 S10 1_555 1_555
C33 S13 1_555 1_555
C34 S14 1_555 1_555
C35 S12 1_555 1_555
H19 C35 1_555 1_555
H20 C35 1_555 1_555
C36 S11 1_555 1_555
H21 C36 1_555 1_555
H22 C36 1_555 1_555
H23 C36 1_555 1_555
C37 S16 1_555 1_555
H24 C37 1_555 1_555
H25 C37 1_555 1_555
H26 C37 1_555 1_555
C38 S15 1_555 1_555
H27 C38 1_555 1_555
H28 C38 1_555 1_555
C39 C35 1_555 1_555
C40 C39 1_555 1_555
H29 C40 1_555 1_555
C41 C40 1_555 1_555
H30 C41 1_555 1_555
C42 C41 1_555 1_555
C43 C42 1_555 1_555
H31 C43 1_555 1_555
C44 C39 1_555 1_555
H32 C44 1_555 1_555
C45 C38 1_555 1_555
C46 C45 1_555 1_555
H33 C46 1_555 1_555
C47 C46 1_555 1_555
H34 C47 1_555 1_555
C48 C47 1_555 1_555
C49 C48 1_555 1_555
H35 C49 1_555 1_555
C50 C45 1_555 1_555
H36 C50 1_555 1_555
C51 C42 1_555 1_555
C52 C48 1_555 1_555
C53 N5 1_555 1_555
C54 N6 1_555 1_555
C55 C53 1_555 1_555
C56 C54 1_555 1_555
Cl1 C57 1_555 1_555
Cl2 C57 1_555 1_555
C57 H37 1_555 1_555
H38 C57 1_555 1_555
Cl3 C58 1_555 1_555
Cl4 C58 1_555 1_555
C58 H39 1_555 1_555
H40 C58 1_555 1_555
C2 C3 1_555 1_555
C5 C6 1_555 1_555
C15 C16 1_555 1_555
C21 C22 1_555 1_555
C23 C24 1_555 1_555
C25 C26 1_555 1_555
C30 C31 1_555 1_555
C33 C34 1_555 1_555
C43 C44 1_555 1_555
C49 C50 1_555 1_555
C51 C52 1_555 1_555
C53 C54 1_555 1_555

#END
