
#######################################################################
#
#                 Cambridge Crystallographic Data Centre
#                                CCDC 
#
#######################################################################
#
# If this CIF has been generated from an entry in the Cambridge 
# Structural Database, then it will include bibliographic, chemical, 
# crystal, experimental, refinement or atomic coordinate data resulting 
# from the CCDC's data processing and validation procedures.
#
#######################################################################

data_RIYCEH
_chemical_formula_moiety         'C16 H12 Br2 S10'
_chemical_name_systematic        
1,2-Dibromo-3,4-bis(4-(5-methylthio-2-thioxo-1,3-dithiolyl)thiomethyl)benzene
_symmetry_cell_setting           monoclinic
_symmetry_space_group_name_H-M   'P 21/n'
_symmetry_Int_Tables_number      14
_space_group_name_Hall           '-P 2yn'
loop_
_symmetry_equiv_pos_site_id
_symmetry_equiv_pos_as_xyz
1 x,y,z
2 1/2-x,1/2+y,1/2-z
3 -x,-y,-z
4 1/2+x,1/2-y,1/2+z
_cell_length_a                   11.8495(11)
_cell_length_b                   12.0561(11)
_cell_length_c                   16.511(2)
_cell_angle_alpha                90
_cell_angle_beta                 97.525(4)
_cell_angle_gamma                90
_cell_volume                     2338.43
_exptl_crystal_colour            amber
_chemical_melting_point          450-451.5K
_cell_formula_units_Z            4
loop_
_atom_site_label
_atom_site_type_symbol
_atom_site_fract_x
_atom_site_fract_y
_atom_site_fract_z
Br1 Br 0.71837(3) 0.82153(4) 0.53707(2)
Br2 Br 0.49964(3) 0.72207(4) 0.63054(2)
S1 S 0.17577(9) 0.79629(10) 0.31144(6)
S2 S 0.12230(9) 0.64503(10) 0.44576(6)
S3 S 0.30479(11) 0.49278(10) 0.43005(8)
S4 S 0.16538(11) 0.45923(10) 0.56445(8)
S5 S 0.38230(10) 0.60952(11) 0.28611(7)
S6 S 0.52430(8) 1.02764(8) 0.25572(6)
S7 S 0.47259(8) 0.82495(9) 0.15039(6)
S8 S 0.69841(8) 0.73521(8) 0.18521(6)
S9 S 0.52323(9) 0.60852(9) 0.07643(6)
S10 S 0.78543(8) 0.92792(8) 0.29464(6)
C1 C 0.5646(3) 0.8445(3) 0.4945(2)
C2 C 0.4753(3) 0.8051(3) 0.5327(2)
C3 C 0.3635(3) 0.8276(3) 0.4993(2)
H1 H 0.3028(36) 0.8023(34) 0.5274(25)
C4 C 0.3403(3) 0.8856(3) 0.4262(2)
C5 C 0.4305(3) 0.9240(3) 0.3869(2)
C6 C 0.5422(3) 0.9038(3) 0.4218(2)
H2 H 0.6024(33) 0.9331(32) 0.3950(23)
C7 C 0.2177(3) 0.8997(4) 0.3913(2)
H3 H 0.2049(34) 0.9610(35) 0.3657(25)
H4 H 0.1679(32) 0.8944(31) 0.4335(24)
C8 C 0.4046(3) 0.9870(4) 0.3065(2)
H5 H 0.3703(39) 1.0550(41) 0.3156(27)
H6 H 0.3511(35) 0.9423(35) 0.2684(25)
C9 C 0.2074(3) 0.6755(4) 0.3698(2)
C10 C 0.2927(4) 0.6046(4) 0.3622(2)
C11 C 0.1965(4) 0.5293(3) 0.4858(3)
C12 C 0.5211(4) 0.5998(5) 0.3456(4)
H7 H 0.5771(62) 0.5906(59) 0.3039(44)
H8 H 0.5308(48) 0.5289(52) 0.3776(34)
H9 H 0.5393(51) 0.6570(56) 0.3808(38)
C13 C 0.5669(3) 0.8996(3) 0.2201(2)
C14 C 0.6740(3) 0.8587(3) 0.2357(2)
C15 C 0.5617(3) 0.7170(3) 0.1349(2)
C16 C 0.8645(4) 0.8138(4) 0.3454(3)
H10 H 0.9186(41) 0.8467(40) 0.3835(30)
H11 H 0.8987(42) 0.7721(41) 0.3044(31)
H12 H 0.8159(43) 0.7736(41) 0.3711(30)
loop_
_geom_bond_atom_site_label_1
_geom_bond_atom_site_label_2
_geom_bond_site_symmetry_1
_geom_bond_site_symmetry_2
Br1 C1 1_555 1_555
Br2 C2 1_555 1_555
S1 C7 1_555 1_555
S2 C9 1_555 1_555
S3 C10 1_555 1_555
S4 C11 1_555 1_555
S5 C10 1_555 1_555
S6 C8 1_555 1_555
S7 C13 1_555 1_555
S8 C14 1_555 1_555
S9 C15 1_555 1_555
S10 C14 1_555 1_555
C1 C2 1_555 1_555
C2 C3 1_555 1_555
C3 H1 1_555 1_555
C4 C3 1_555 1_555
C5 C4 1_555 1_555
C6 C1 1_555 1_555
H2 C6 1_555 1_555
C7 C4 1_555 1_555
H3 C7 1_555 1_555
H4 C7 1_555 1_555
C8 C5 1_555 1_555
H5 C8 1_555 1_555
H6 C8 1_555 1_555
C9 S1 1_555 1_555
C10 C9 1_555 1_555
C11 S2 1_555 1_555
C12 S5 1_555 1_555
H7 C12 1_555 1_555
H8 C12 1_555 1_555
H9 C12 1_555 1_555
C13 S6 1_555 1_555
C14 C13 1_555 1_555
C15 S7 1_555 1_555
C16 S10 1_555 1_555
H10 C16 1_555 1_555
H11 C16 1_555 1_555
H12 C16 1_555 1_555
S3 C11 1_555 1_555
S8 C15 1_555 1_555
C5 C6 1_555 1_555

#END
