
#######################################################################
#
#                 Cambridge Crystallographic Data Centre
#                                CCDC 
#
#######################################################################
#
# If this CIF has been generated from an entry in the Cambridge 
# Structural Database, then it will include bibliographic, chemical, 
# crystal, experimental, refinement or atomic coordinate data resulting 
# from the CCDC's data processing and validation procedures.
#
#######################################################################

data_RIYCIL
_chemical_formula_moiety         'C16 H12 Br2 S8'
_chemical_name_systematic        
4^4^,4^5^-Dibromo-1^3^,1^6^-dimethylthio-2,6-dithia-4(1,2)-benzena-1(2,7)-tetrathiafulvalena-cyclohexaphane
_symmetry_cell_setting           monoclinic
_symmetry_space_group_name_H-M   'I m'
_symmetry_Int_Tables_number      8
_space_group_name_Hall           'I -2y'
loop_
_symmetry_equiv_pos_site_id
_symmetry_equiv_pos_as_xyz
1 x,y,z
2 x,-y,z
3 1/2+x,1/2+y,1/2+z
4 1/2+x,1/2-y,1/2+z
_cell_length_a                   8.2091(9)
_cell_length_b                   16.124(2)
_cell_length_c                   8.418(2)
_cell_angle_alpha                90
_cell_angle_beta                 98.973(4)
_cell_angle_gamma                90
_cell_volume                     1100.6
_exptl_crystal_colour            yellow
_chemical_melting_point          483K
_cell_formula_units_Z            2
loop_
_atom_site_label
_atom_site_type_symbol
_atom_site_fract_x
_atom_site_fract_y
_atom_site_fract_z
Br1 Br 0.01099(8) 0.60462(4) -0.07544(9)
S1 S 0.7487(3) 0.60509(11) 0.2908(3)
S2 S 0.6552(2) 0.59838(13) 0.6106(2)
S3 S 0.4709(3) 0.72369(11) 0.1612(2)
S4 S 0.3424(2) 0.69442(9) 0.5237(2)
C1 C 0.7290(8) 0.5418(4) 0.4579(9)
C2 C 0.5704(8) 0.6618(4) 0.3168(8)
C3 C 0.5237(8) 0.6569(4) 0.4643(8)
C4 C 0.4742(13) 0.6612(6) -0.0144(10)
H1 H 0.3993(57) 0.6839(22) -0.1027(22)
H2 H 0.4413(76) 0.6056(11) 0.0065(27)
H3 H 0.5838(20) 0.6605(32) -0.0409(44)
C5 C 0.2412(10) 0.5948(4) 0.5495(10)
H4 H 0.3106(76) 0.5604(40) 0.6379(83)
H5 H 0.147(10) 0.6058(48) 0.590(11)
C6 C 0.1991(7) 0.5439(4) 0.3979(7)
C7 C 0.1450(8) 0.5853(4) 0.2541(8)
H6 H 0.1569(79) 0.6405(40) 0.2533(81)
C8 C 0.0916(8) 0.5425(4) 0.1109(7)
C1A C 0.7290(8) 0.4582(4) 0.4579(9)
S1A S 0.7487(3) 0.39491(11) 0.2908(3)
C2A C 0.5704(8) 0.3382(4) 0.3168(8)
S3A S 0.4709(3) 0.27631(11) 0.1612(2)
C4A C 0.4742(13) 0.3388(6) -0.0144(10)
H1A H 0.3993(57) 0.3161(22) -0.1027(22)
H2A H 0.4413(76) 0.3944(11) 0.0065(27)
H3A H 0.5838(20) 0.3395(32) -0.0409(44)
C3A C 0.5237(8) 0.3431(4) 0.4643(8)
S2A S 0.6552(2) 0.40162(13) 0.6106(2)
S4A S 0.3424(2) 0.30558(9) 0.5237(2)
C5A C 0.2412(10) 0.4052(4) 0.5495(10)
H4A H 0.3106(76) 0.4396(40) 0.6379(83)
H5A H 0.147(10) 0.3942(48) 0.590(11)
C6A C 0.1991(7) 0.4561(4) 0.3979(7)
C7A C 0.1450(8) 0.4147(4) 0.2541(8)
H6A H 0.1569(79) 0.3595(40) 0.2533(81)
C8A C 0.0916(8) 0.4575(4) 0.1109(7)
Br1A Br 0.01099(8) 0.39538(4) -0.07544(9)
loop_
_geom_bond_atom_site_label_1
_geom_bond_atom_site_label_2
_geom_bond_site_symmetry_1
_geom_bond_site_symmetry_2
Br1 C8 1_555 1_555
S1 C1 1_555 1_555
S2 C1 1_555 1_555
S3 C2 1_555 1_555
S4 C3 1_555 1_555
C1 C1A 1_555 1_555
C2 S1 1_555 1_555
C3 S2 1_555 1_555
C4 S3 1_555 1_555
H1 C4 1_555 1_555
H2 C4 1_555 1_555
H3 C4 1_555 1_555
C5 S4 1_555 1_555
H4 C5 1_555 1_555
H5 C5 1_555 1_555
C6 C5 1_555 1_555
C7 C6 1_555 1_555
H6 C7 1_555 1_555
C8 C7 1_555 1_555
C1A S1A 1_555 1_555
S1A C2A 1_555 1_555
C2A S3A 1_555 1_555
S3A C4A 1_555 1_555
C4A H1A 1_555 1_555
H2A C4A 1_555 1_555
H3A C4A 1_555 1_555
C3A C2A 1_555 1_555
S2A C1A 1_555 1_555
S4A C3A 1_555 1_555
C5A S4A 1_555 1_555
H4A C5A 1_555 1_555
H5A C5A 1_555 1_555
C6A C6 1_555 1_555
C7A C6A 1_555 1_555
H6A C7A 1_555 1_555
C8A C8 1_555 1_555
Br1A C8A 1_555 1_555
C2 C3 1_555 1_555
C3A S2A 1_555 1_555
C5A C6A 1_555 1_555
C7A C8A 1_555 1_555

#END
