
#######################################################################
#
#                 Cambridge Crystallographic Data Centre
#                                CCDC 
#
#######################################################################
#
# If this CIF has been generated from an entry in the Cambridge 
# Structural Database, then it will include bibliographic, chemical, 
# crystal, experimental, refinement or atomic coordinate data resulting 
# from the CCDC's data processing and validation procedures.
#
#######################################################################

data_RIYPIZ
_chemical_formula_moiety         'C22 H19 N1 O6'
_chemical_name_systematic        
'Ethyl 3-(4-nitrophenyl)-2-((2-oxo-5-phenyldihydrofuran-3(2H)-ylidene)methyl)acrylate'
_symmetry_cell_setting           monoclinic
_symmetry_space_group_name_H-M   'P 21/n'
_symmetry_Int_Tables_number      14
_space_group_name_Hall           '-P 2yn'
loop_
_symmetry_equiv_pos_site_id
_symmetry_equiv_pos_as_xyz
1 x,y,z
2 1/2-x,1/2+y,1/2-z
3 -x,-y,-z
4 1/2+x,1/2-y,1/2+z
_cell_length_a                   6.169(2)
_cell_length_b                   21.664(8)
_cell_length_c                   14.797(6)
_cell_angle_alpha                90
_cell_angle_beta                 98.171(6)
_cell_angle_gamma                90
_cell_volume                     1957.47
_exptl_crystal_colour            colorless
_exptl_crystal_description       block
_cell_formula_units_Z            4
loop_
_atom_site_label
_atom_site_type_symbol
_atom_site_fract_x
_atom_site_fract_y
_atom_site_fract_z
O1 O 0.0956(2) 0.20032(9) 0.58224(14)
O2 O 0.3762(3) 0.26427(8) 0.58022(13)
O3 O 0.7961(3) 0.07316(8) 0.42331(13)
O4 O 0.5925(3) 0.12019(9) 0.30578(12)
O5 O 0.6351(5) -0.20693(11) 0.1773(2)
O6 O 0.3301(4) -0.24372(11) 0.20755(17)
N1 N 0.4666(5) -0.20262(12) 0.20955(17)
C1 C 0.2664(4) 0.21179(11) 0.55499(18)
C2 C 0.3875(3) 0.17504(11) 0.49445(16)
C3 C 0.5765(3) 0.21362(11) 0.47509(17)
H1 H 0.5506 0.2302 0.4136
H2 H 0.7108 0.1897 0.4823
C4 C 0.5885(4) 0.26567(11) 0.54658(18)
H3 H 0.7043 0.2561 0.5971
C5 C 0.6251(4) 0.32934(12) 0.51200(17)
C6 C 0.4622(5) 0.36223(14) 0.4615(2)
H4 H 0.3230 0.3451 0.4486
C7 C 0.5001(7) 0.42013(16) 0.4295(2)
H5 H 0.3873 0.4416 0.3947
C8 C 0.6993(8) 0.44573(17) 0.4482(3)
H6 H 0.7235 0.4853 0.4273
C9 C 0.8647(7) 0.41449(19) 0.4973(3)
H7 H 1.0032 0.4321 0.5094
C10 C 0.8275(5) 0.35565(15) 0.5300(3)
H8 H 0.9413 0.3342 0.5642
C11 C 0.3167(3) 0.11867(11) 0.46961(16)
H9 H 0.1884 0.1069 0.4911
C12 C 0.4076(3) 0.07257(10) 0.41437(15)
C13 C 0.3046(3) 0.01818(11) 0.39880(17)
H10 H 0.1768 0.0148 0.4251
C14 C 0.3558(3) -0.03656(11) 0.34838(16)
C15 C 0.5427(4) -0.04505(13) 0.3063(2)
H11 H 0.6455 -0.0135 0.3090
C16 C 0.5786(4) -0.09845(13) 0.2614(2)
H12 H 0.7038 -0.1031 0.2336
C17 C 0.4269(4) -0.14503(11) 0.25800(17)
C18 C 0.2404(4) -0.13929(12) 0.29717(18)
H13 H 0.1380 -0.1710 0.2932
C19 C 0.2072(3) -0.08557(11) 0.34256(17)
H14 H 0.0818 -0.0817 0.3703
C20 C 0.6216(4) 0.08779(11) 0.38213(17)
C21 C 0.7919(5) 0.14244(15) 0.2727(2)
H15 H 0.9009 0.1526 0.3244
H16 H 0.7586 0.1797 0.2371
C22 C 0.8827(6) 0.09527(17) 0.2155(3)
H17 H 1.0135 0.1109 0.1955
H18 H 0.7766 0.0860 0.1633
H19 H 0.9167 0.0584 0.2507
loop_
_geom_bond_atom_site_label_1
_geom_bond_atom_site_label_2
_geom_bond_site_symmetry_1
_geom_bond_site_symmetry_2
O1 C1 1_555 1_555
O2 C1 1_555 1_555
O3 C20 1_555 1_555
O4 C20 1_555 1_555
O5 N1 1_555 1_555
O6 N1 1_555 1_555
N1 C17 1_555 1_555
C1 C2 1_555 1_555
C2 C3 1_555 1_555
C3 H1 1_555 1_555
H2 C3 1_555 1_555
C4 O2 1_555 1_555
H3 C4 1_555 1_555
C5 C4 1_555 1_555
C6 C5 1_555 1_555
H4 C6 1_555 1_555
C7 C6 1_555 1_555
H5 C7 1_555 1_555
C8 C7 1_555 1_555
H6 C8 1_555 1_555
C9 C8 1_555 1_555
H7 C9 1_555 1_555
C10 C5 1_555 1_555
H8 C10 1_555 1_555
C11 C2 1_555 1_555
H9 C11 1_555 1_555
C12 C11 1_555 1_555
C13 C12 1_555 1_555
H10 C13 1_555 1_555
C14 C13 1_555 1_555
C15 C14 1_555 1_555
H11 C15 1_555 1_555
C16 C15 1_555 1_555
H12 C16 1_555 1_555
C17 C16 1_555 1_555
C18 C17 1_555 1_555
H13 C18 1_555 1_555
C19 C14 1_555 1_555
H14 C19 1_555 1_555
C20 C12 1_555 1_555
C21 O4 1_555 1_555
H15 C21 1_555 1_555
H16 C21 1_555 1_555
C22 C21 1_555 1_555
H17 C22 1_555 1_555
H18 C22 1_555 1_555
H19 C22 1_555 1_555
C3 C4 1_555 1_555
C9 C10 1_555 1_555
C18 C19 1_555 1_555

#END
