
#######################################################################
#
#                 Cambridge Crystallographic Data Centre
#                                CCDC 
#
#######################################################################
#
# If this CIF has been generated from an entry in the Cambridge 
# Structural Database, then it will include bibliographic, chemical, 
# crystal, experimental, refinement or atomic coordinate data resulting 
# from the CCDC's data processing and validation procedures.
#
#######################################################################

data_RIYPAR
_chemical_formula_moiety         'C30 H21 N5 O1,C3 H7 N1 O1'
_chemical_name_systematic        
'3,5-Dicyano-1,4-dihydro-2,6-bis(1H-indol-3-yl)-4-(4-methoxyphenyl)pyridine dimethylformamide solvate'
_symmetry_cell_setting           monoclinic
_symmetry_space_group_name_H-M   'C c'
_symmetry_Int_Tables_number      9
_space_group_name_Hall           'C -2yc'
loop_
_symmetry_equiv_pos_site_id
_symmetry_equiv_pos_as_xyz
1 x,y,z
2 x,-y,1/2+z
3 1/2+x,1/2+y,z
4 1/2+x,1/2-y,1/2+z
_cell_length_a                   20.537(4)
_cell_length_b                   11.849(2)
_cell_length_c                   22.672(4)
_cell_angle_alpha                90
_cell_angle_beta                 92.723(4)
_cell_angle_gamma                90
_cell_volume                     5510.84
_exptl_crystal_colour            'light yellow'
_exptl_crystal_description       block
_chemical_melting_point          'above 300 deg.C'
_cell_formula_units_Z            8
loop_
_atom_site_label
_atom_site_type_symbol
_atom_site_fract_x
_atom_site_fract_y
_atom_site_fract_z
O1 O 1.01241(12) -0.0076(2) 0.96085(11)
N1 N 0.75465(13) 0.3935(2) 0.79836(13)
H1 H 0.7208 0.4389 0.7991
N2 N 0.80822(15) 0.7472(2) 0.80148(14)
H2 H 0.7956 0.8123 0.7862
N3 N 0.98356(16) 0.4612(3) 0.80290(18)
N4 N 0.78311(17) -0.0066(3) 0.77106(16)
N5 N 0.59101(15) 0.1346(3) 0.81861(16)
H3 H 0.5680 0.0788 0.8325
C1 C 0.81674(16) 0.4385(3) 0.80259(15)
C2 C 0.86950(16) 0.3718(3) 0.79780(16)
C3 C 0.86698(16) 0.2457(3) 0.78827(16)
H7 H 0.8843 0.2298 0.7486
C4 C 0.79581(16) 0.2084(3) 0.78640(15)
C5 C 0.74461(16) 0.2785(3) 0.79297(15)
C6 C 0.82121(15) 0.5606(3) 0.81331(15)
C7 C 0.79312(18) 0.6427(3) 0.77829(17)
H8 H 0.7671 0.6296 0.7432
C8 C 0.84626(17) 0.7332(3) 0.85254(17)
C9 C 0.8733(2) 0.8138(3) 0.8912(2)
H9 H 0.8673 0.8922 0.8842
C10 C 0.9088(2) 0.7757(4) 0.93982(19)
H10 H 0.9277 0.8287 0.9670
C11 C 0.9178(2) 0.6591(4) 0.95043(19)
H11 H 0.9423 0.6352 0.9848
C12 C 0.89178(18) 0.5795(3) 0.91178(18)
H12 H 0.8983 0.5014 0.9192
C13 C 0.85563(16) 0.6154(3) 0.86152(16)
C14 C 0.93249(18) 0.4228(3) 0.80023(18)
C15 C 0.90777(16) 0.1796(3) 0.83349(16)
C16 C 0.89318(17) 0.1812(3) 0.89230(16)
H13 H 0.8585 0.2273 0.9045
C17 C 0.92820(18) 0.1167(3) 0.93397(17)
H14 H 0.9166 0.1167 0.9741
C18 C 0.98043(17) 0.0521(3) 0.91634(16)
C19 C 0.99602(16) 0.0505(3) 0.85811(16)
H15 H 1.0315 0.0062 0.8460
C20 C 0.95927(17) 0.1146(3) 0.81669(17)
H16 H 0.9700 0.1132 0.7764
C21 C 1.0597(2) -0.0892(3) 0.94231(19)
H17 H 1.0386 -0.1420 0.9142
H18 H 1.0774 -0.1308 0.9768
H19 H 1.0951 -0.0499 0.9233
C22 C 0.78638(18) 0.0897(3) 0.77847(17)
C23 C 0.67706(16) 0.2403(3) 0.79625(15)
C24 C 0.65780(19) 0.1417(3) 0.82234(18)
H20 H 0.6863 0.0871 0.8402
C25 C 0.56587(16) 0.2274(3) 0.79002(16)
C26 C 0.50087(18) 0.2545(3) 0.77657(19)
H21 H 0.4663 0.2072 0.7881
C27 C 0.4892(2) 0.3527(4) 0.74594(19)
H22 H 0.4454 0.3749 0.7370
C28 C 0.5398(2) 0.4211(3) 0.72748(17)
H23 H 0.5297 0.4868 0.7048
C29 C 0.60469(18) 0.3949(3) 0.74168(16)
H24 H 0.6388 0.4426 0.7297
C30 C 0.61855(16) 0.2961(3) 0.77421(15)
O2 O 0.67280(14) 0.5401(3) 0.85596(15)
N6 N 0.63573(18) 0.7097(3) 0.88539(17)
C31 C 0.6498(2) 0.6334(4) 0.8446(2)
H25 H 0.6415 0.6527 0.8043
C32 C 0.6452(3) 0.6814(4) 0.9482(2)
H26 H 0.6039 0.6544 0.9631
H27 H 0.6595 0.7487 0.9703
H28 H 0.6783 0.6222 0.9531
C33 C 0.5991(3) 0.8107(4) 0.8705(3)
H29 H 0.5891 0.8127 0.8278
H30 H 0.6249 0.8772 0.8822
H31 H 0.5584 0.8106 0.8913
O3 O 0.65527(14) -0.0538(2) 0.45575(12)
N7 N 0.91748(14) 0.3442(2) 0.62443(13)
H4 H 0.9511 0.3901 0.6275
N8 N 0.86330(15) 0.6973(2) 0.62497(15)
H5 H 0.8752 0.7613 0.6420
N9 N 0.68719(16) 0.4077(3) 0.60705(16)
N10 N 0.88718(16) -0.0569(3) 0.63961(19)
N11 N 1.08349(14) 0.0926(2) 0.60167(14)
H6 H 1.1074 0.0393 0.5865
C34 C 0.85512(16) 0.3888(3) 0.61790(16)
C35 C 0.80229(18) 0.3220(3) 0.61859(18)
C36 C 0.80457(17) 0.1946(3) 0.62835(17)
H32 H 0.7873 0.1782 0.6680
C37 C 0.87583(18) 0.1582(3) 0.62934(17)
C38 C 0.92785(16) 0.2289(3) 0.62614(15)
C39 C 0.85156(17) 0.5121(3) 0.60975(16)
C40 C 0.87855(18) 0.5916(3) 0.64629(17)
H33 H 0.9042 0.5764 0.6814
C41 C 0.82671(18) 0.6875(3) 0.57313(18)
C42 C 0.80007(19) 0.7710(3) 0.5355(2)
H34 H 0.8057 0.8491 0.5438
C43 C 0.7654(2) 0.7342(4) 0.4861(2)
H35 H 0.7459 0.7886 0.4600
C44 C 0.7577(2) 0.6196(4) 0.47247(19)
H36 H 0.7343 0.5979 0.4371
C45 C 0.78359(18) 0.5381(3) 0.51005(17)
H37 H 0.7778 0.4604 0.5011
C46 C 0.81814(17) 0.5711(3) 0.56113(17)
C47 C 0.73892(19) 0.3716(3) 0.61267(18)
C48 C 0.76363(16) 0.1294(3) 0.58209(16)
C49 C 0.77598(19) 0.1342(3) 0.52279(17)
H38 H 0.8098 0.1815 0.5099
C50 C 0.73992(19) 0.0716(3) 0.48248(19)
H39 H 0.7495 0.0751 0.4419
C51 C 0.68986(17) 0.0035(3) 0.49989(16)
C52 C 0.67614(18) -0.0033(3) 0.55855(18)
H40 H 0.6417 -0.0497 0.5710
C53 C 0.71397(18) 0.0596(3) 0.59948(17)
H41 H 0.7054 0.0544 0.6402
C54 C 0.6083(2) -0.1353(4) 0.4741(2)
H42 H 0.6296 -0.1888 0.5018
H43 H 0.5903 -0.1763 0.4395
H44 H 0.5730 -0.0964 0.4935
C55 C 0.88463(18) 0.0395(3) 0.63501(19)
C56 C 0.99609(17) 0.1925(3) 0.62434(16)
C57 C 1.01757(18) 0.0997(3) 0.59492(16)
H45 H 0.9905 0.0481 0.5731
C58 C 1.10741(17) 0.1807(3) 0.63555(16)
C59 C 1.17090(17) 0.2090(3) 0.65144(18)
H46 H 1.2064 0.1641 0.6397
C60 C 1.18093(18) 0.3049(3) 0.68505(19)
H47 H 1.2242 0.3274 0.6961
C61 C 1.12899(19) 0.3693(3) 0.70300(17)
H48 H 1.1372 0.4338 0.7271
C62 C 1.06577(18) 0.3411(3) 0.68649(16)
H49 H 1.0306 0.3856 0.6993
C63 C 1.05355(16) 0.2468(3) 0.65089(16)
O4 O 0.0072(3) 0.4850(5) 0.5770(3)
N12 N 0.0278(3) 0.6725(4) 0.5871(3)
C64 C 0.0027(3) 0.5910(6) 0.5525(3)
C66 C 0.0598(3) 0.6483(6) 0.6434(3)
C68 C 0.0192(5) 0.7928(7) 0.5709(4)
O5? O 0.0024(4) 0.4957(7) 0.5570(4)
N13? N 0.0218(6) 0.6671(9) 0.5631(5)
C65? C 0.0228(7) 0.5746(11) 0.5969(6)
C67? C 0.0378(10) 0.7847(14) 0.5832(9)
C69? C -0.0108(8) 0.6464(14) 0.5062(7)
loop_
_geom_bond_atom_site_label_1
_geom_bond_atom_site_label_2
_geom_bond_site_symmetry_1
_geom_bond_site_symmetry_2
O1 C18 1_555 1_555
O2 C31 1_555 1_555
O3 C51 1_555 1_555
O4 C64 1_555 1_555
N1 H1 1_555 1_555
N2 H2 1_555 1_555
N3 C14 1_555 1_555
N4 C22 1_555 1_555
N5 H3 1_555 1_555
N6 C31 1_555 1_555
N7 H4 1_555 1_555
N8 H5 1_555 1_555
N9 C47 1_555 1_555
N10 C55 1_555 1_555
N11 H6 1_555 1_555
N12 C64 1_555 1_555
C1 N1 1_555 1_555
C2 C1 1_555 1_555
C3 C2 1_555 1_555
H7 C3 1_555 1_555
C4 C3 1_555 1_555
C5 N1 1_555 1_555
C6 C1 1_555 1_555
C7 N2 1_555 1_555
H8 C7 1_555 1_555
C8 N2 1_555 1_555
C9 C8 1_555 1_555
H9 C9 1_555 1_555
C10 C9 1_555 1_555
H10 C10 1_555 1_555
C11 C10 1_555 1_555
H11 C11 1_555 1_555
C12 C11 1_555 1_555
H12 C12 1_555 1_555
C13 C6 1_555 1_555
C14 C2 1_555 1_555
C15 C3 1_555 1_555
C16 C15 1_555 1_555
H13 C16 1_555 1_555
C17 C16 1_555 1_555
H14 C17 1_555 1_555
C18 C17 1_555 1_555
C19 C18 1_555 1_555
H15 C19 1_555 1_555
C20 C15 1_555 1_555
H16 C20 1_555 1_555
C21 O1 1_555 1_555
H17 C21 1_555 1_555
H18 C21 1_555 1_555
H19 C21 1_555 1_555
C22 C4 1_555 1_555
C23 C5 1_555 1_555
C24 N5 1_555 1_555
H20 C24 1_555 1_555
C25 N5 1_555 1_555
C26 C25 1_555 1_555
H21 C26 1_555 1_555
C27 C26 1_555 1_555
H22 C27 1_555 1_555
C28 C27 1_555 1_555
H23 C28 1_555 1_555
C29 C28 1_555 1_555
H24 C29 1_555 1_555
C30 C23 1_555 1_555
C31 H25 1_555 1_555
C32 N6 1_555 1_555
H26 C32 1_555 1_555
H27 C32 1_555 1_555
H28 C32 1_555 1_555
C33 N6 1_555 1_555
H29 C33 1_555 1_555
H30 C33 1_555 1_555
H31 C33 1_555 1_555
C34 N7 1_555 1_555
C35 C34 1_555 1_555
C36 C35 1_555 1_555
H32 C36 1_555 1_555
C37 C36 1_555 1_555
C38 N7 1_555 1_555
C39 C34 1_555 1_555
C40 N8 1_555 1_555
H33 C40 1_555 1_555
C41 N8 1_555 1_555
C42 C41 1_555 1_555
H34 C42 1_555 1_555
C43 C42 1_555 1_555
H35 C43 1_555 1_555
C44 C43 1_555 1_555
H36 C44 1_555 1_555
C45 C44 1_555 1_555
H37 C45 1_555 1_555
C46 C39 1_555 1_555
C47 C35 1_555 1_555
C48 C36 1_555 1_555
C49 C48 1_555 1_555
H38 C49 1_555 1_555
C50 C49 1_555 1_555
H39 C50 1_555 1_555
C51 C50 1_555 1_555
C52 C51 1_555 1_555
H40 C52 1_555 1_555
C53 C48 1_555 1_555
H41 C53 1_555 1_555
C54 O3 1_555 1_555
H42 C54 1_555 1_555
H43 C54 1_555 1_555
H44 C54 1_555 1_555
C55 C37 1_555 1_555
C56 C38 1_555 1_555
C57 N11 1_555 1_555
H45 C57 1_555 1_555
C58 N11 1_555 1_555
C59 C58 1_555 1_555
H46 C59 1_555 1_555
C60 C59 1_555 1_555
H47 C60 1_555 1_555
C61 C60 1_555 1_555
H48 C61 1_555 1_555
C62 C61 1_555 1_555
H49 C62 1_555 1_555
C63 C56 1_555 1_555
C66 N12 1_555 1_555
C68 N12 1_555 1_555
C4 C5 1_555 1_555
C6 C7 1_555 1_555
C8 C13 1_555 1_555
C12 C13 1_555 1_555
C19 C20 1_555 1_555
C23 C24 1_555 1_555
C25 C30 1_555 1_555
C29 C30 1_555 1_555
C37 C38 1_555 1_555
C39 C40 1_555 1_555
C41 C46 1_555 1_555
C45 C46 1_555 1_555
C52 C53 1_555 1_555
C56 C57 1_555 1_555
C58 C63 1_555 1_555
C62 C63 1_555 1_555

#END
