
#######################################################################
#
#                 Cambridge Crystallographic Data Centre
#                                CCDC 
#
#######################################################################
#
# If this CIF has been generated from an entry in the Cambridge 
# Structural Database, then it will include bibliographic, chemical, 
# crystal, experimental, refinement or atomic coordinate data resulting 
# from the CCDC's data processing and validation procedures.
#
#######################################################################

data_RIYVUR
_chemical_formula_moiety         'C13 H17 N5'
_chemical_name_systematic        
4-(4-(Diethylamino)benzylideneamino)-4H-1,2,4-triazole
_symmetry_cell_setting           orthorhombic
_symmetry_space_group_name_H-M   'P 21 21 21'
_symmetry_Int_Tables_number      19
_space_group_name_Hall           'P 2ac 2ab'
loop_
_symmetry_equiv_pos_site_id
_symmetry_equiv_pos_as_xyz
1 x,y,z
2 1/2-x,-y,1/2+z
3 -x,1/2+y,1/2-z
4 1/2+x,1/2-y,-z
_cell_length_a                   7.740(3)
_cell_length_b                   9.238(4)
_cell_length_c                   18.497(7)
_cell_angle_alpha                90
_cell_angle_beta                 90
_cell_angle_gamma                90
_cell_volume                     1322.57
_exptl_crystal_colour            yellow
_exptl_crystal_description       block
_cell_formula_units_Z            4
_exptl_crystal_recrystallization_method ethanol
loop_
_atom_site_label
_atom_site_type_symbol
_atom_site_fract_x
_atom_site_fract_y
_atom_site_fract_z
C1 C 1.0028(7) 0.8829(5) -0.2061(3)
H1 H 1.0615 0.8029 -0.2241
C2 C 0.8502(7) 1.0221(5) -0.1387(3)
H2 H 0.7824 1.0569 -0.1010
C3 C 0.9580(6) 0.6644(4) -0.0936(2)
H3 H 1.0140 0.6437 -0.1368
C4 C 0.9482(6) 0.5533(4) -0.0388(2)
C5 C 0.8680(7) 0.5730(4) 0.0283(2)
H4 H 0.8150 0.6611 0.0384
C6 C 0.8654(6) 0.4652(4) 0.0798(2)
H5 H 0.8085 0.4815 0.1234
C7 C 0.9468(6) 0.3314(4) 0.0680(2)
C8 C 1.0235(6) 0.3114(4) -0.0006(2)
H6 H 1.0746 0.2231 -0.0117
C9 C 1.0236(6) 0.4195(4) -0.0505(2)
H7 H 1.0770 0.4026 -0.0948
C10 C 1.0615(7) 0.0993(4) 0.1119(2)
H8 H 1.1077 0.0746 0.1591
H9 H 1.1583 0.1240 0.0810
C11 C 0.9734(7) -0.0308(4) 0.0814(3)
H10 H 0.8749 -0.0546 0.1106
H11 H 1.0523 -0.1110 0.0809
H12 H 0.9362 -0.0106 0.0329
C12 C 0.8512(7) 0.2348(5) 0.1858(2)
H13 H 0.8145 0.1383 0.1997
H14 H 0.7483 0.2917 0.1765
C13 C 0.9488(9) 0.3017(6) 0.2477(3)
H15 H 1.0464 0.2421 0.2596
H16 H 0.8742 0.3094 0.2890
H17 H 0.9882 0.3964 0.2341
N1 N 0.8934(7) 1.0979(5) -0.1959(3)
N2 N 0.9902(7) 1.0065(5) -0.2379(2)
N3 N 0.9164(5) 0.8878(4) -0.1417(2)
N4 N 0.8933(5) 0.7886(4) -0.08490(19)
N5 N 0.9521(5) 0.2252(3) 0.11934(19)
loop_
_geom_bond_atom_site_label_1
_geom_bond_atom_site_label_2
_geom_bond_site_symmetry_1
_geom_bond_site_symmetry_2
C1 H1 1_555 1_555
C2 H2 1_555 1_555
C3 H3 1_555 1_555
C4 C3 1_555 1_555
C5 C4 1_555 1_555
H4 C5 1_555 1_555
C6 C5 1_555 1_555
H5 C6 1_555 1_555
C7 C6 1_555 1_555
C8 C7 1_555 1_555
H6 C8 1_555 1_555
C9 C4 1_555 1_555
H7 C9 1_555 1_555
C10 H8 1_555 1_555
H9 C10 1_555 1_555
C11 C10 1_555 1_555
H10 C11 1_555 1_555
H11 C11 1_555 1_555
H12 C11 1_555 1_555
C12 H13 1_555 1_555
H14 C12 1_555 1_555
C13 C12 1_555 1_555
H15 C13 1_555 1_555
H16 C13 1_555 1_555
H17 C13 1_555 1_555
N1 C2 1_555 1_555
N2 C1 1_555 1_555
N3 C1 1_555 1_555
N4 C3 1_555 1_555
N5 C7 1_555 1_555
C2 N3 1_555 1_555
C8 C9 1_555 1_555
C10 N5 1_555 1_555
C12 N5 1_555 1_555
N1 N2 1_555 1_555
N3 N4 1_555 1_555

#END
