
#######################################################################
#
#                 Cambridge Crystallographic Data Centre
#                                CCDC 
#
#######################################################################
#
# If this CIF has been generated from an entry in the Cambridge 
# Structural Database, then it will include bibliographic, chemical, 
# crystal, experimental, refinement or atomic coordinate data resulting 
# from the CCDC's data processing and validation procedures.
#
#######################################################################

data_RIYZEG
_chemical_formula_moiety         'C15 H17 Br1 N2 O3'
_chemical_name_systematic        
trans-(R,R)-7-Bromo-N,N-diethyl-1-methyl-2-oxo-1,2-dihydrospiro[indole-3,2'-oxirane]-3'-carboxamide
_symmetry_cell_setting           orthorhombic
_symmetry_space_group_name_H-M   'P 21 21 21'
_symmetry_Int_Tables_number      19
_space_group_name_Hall           'P 2ac 2ab'
loop_
_symmetry_equiv_pos_site_id
_symmetry_equiv_pos_as_xyz
1 x,y,z
2 1/2-x,-y,1/2+z
3 -x,1/2+y,1/2-z
4 1/2+x,1/2-y,-z
_cell_length_a                   7.7315(6)
_cell_length_b                   14.3537(11)
_cell_length_c                   26.576(2)
_cell_angle_alpha                90
_cell_angle_beta                 90
_cell_angle_gamma                90
_cell_volume                     2949.29
_cell_formula_units_Z            8
loop_
_atom_site_label
_atom_site_type_symbol
_atom_site_fract_x
_atom_site_fract_y
_atom_site_fract_z
Br1 Br 0.48454(3) 0.712320(14) 0.239244(8)
C1 C 0.2726(3) 0.86428(13) 0.11843(8)
C2 C 0.2556(3) 0.79756(14) 0.08128(8)
H1 H 0.2105 0.8129 0.0491
C3 C 0.3070(3) 0.70681(15) 0.09275(9)
H2 H 0.2964 0.6592 0.0681
C4 C 0.3731(3) 0.68572(13) 0.13972(9)
H3 H 0.4075 0.6235 0.1468
C5 C 0.3907(3) 0.75378(14) 0.17707(8)
C6 C 0.3405(2) 0.84419(13) 0.16607(8)
C7 C 0.2936(2) 1.00223(14) 0.16790(8)
C8 C 0.4094(3) 0.93763(16) 0.24678(8)
H4 H 0.3914 1.0021 0.2578
H5 H 0.5329 0.9226 0.2484
H6 H 0.3450 0.8954 0.2689
C9 C 0.2353(3) 0.96537(13) 0.11712(8)
C10 C 0.0971(3) 1.01666(13) 0.09005(8)
H7 H 0.0514 1.0733 0.1075
C11 C -0.0259(3) 0.97002(13) 0.05378(8)
C12 C -0.3233(3) 0.93552(14) 0.03282(8)
H8 H -0.2926 0.9569 -0.0014
H9 H -0.4369 0.9628 0.0417
C13 C -0.3372(3) 0.82992(14) 0.03306(9)
H10 H -0.2267 0.8028 0.0225
H11 H -0.4284 0.8104 0.0097
H12 H -0.3656 0.8085 0.0671
C14 C -0.2486(3) 0.99008(15) 0.11992(8)
H13 H -0.1493 0.9820 0.1430
H14 H -0.3397 0.9455 0.1301
C15 C -0.3187(3) 1.08977(15) 0.12521(9)
H15 H -0.2277 1.1344 0.1163
H16 H -0.3552 1.1004 0.1600
H17 H -0.4177 1.0981 0.1026
N1 N 0.3485(2) 0.92698(11) 0.19545(7)
N2 N -0.1930(2) 0.96821(12) 0.06842(7)
O1 O 0.2924(2) 1.08321(10) 0.18186(6)
O2 O 0.27308(19) 1.02162(10) 0.07417(6)
O3 O 0.0232(2) 0.94204(10) 0.01255(6)
Br2 Br -0.11840(3) 0.740062(14) 0.159368(10)
C16 C -0.0479(3) 0.45152(14) 0.14076(8)
C17 C -0.1058(3) 0.43627(15) 0.09247(8)
H18 H -0.1049 0.3753 0.0786
C18 C -0.1659(3) 0.51162(16) 0.06422(9)
H19 H -0.2046 0.5028 0.0306
C19 C -0.1682(3) 0.60000(16) 0.08596(10)
H20 H -0.2118 0.6509 0.0669
C20 C -0.1090(3) 0.61603(14) 0.13448(9)
C21 C -0.0484(3) 0.54160(14) 0.16272(8)
C22 C 0.0530(3) 0.44638(15) 0.22581(8)
C23 C 0.0362(3) 0.61298(16) 0.24870(9)
H21 H 0.0864 0.5889 0.2800
H22 H -0.0770 0.6407 0.2558
H23 H 0.1130 0.6604 0.2344
C24 C 0.0204(3) 0.38724(14) 0.17958(8)
C25 C 0.1254(3) 0.30175(14) 0.17196(8)
H24 H 0.2150 0.2875 0.1980
C26 C 0.1613(3) 0.26840(13) 0.11881(9)
C27 C 0.3587(3) 0.25325(14) 0.04911(9)
H25 H 0.2917 0.1961 0.0417
H26 H 0.4830 0.2376 0.0464
C28 C 0.3149(4) 0.32702(17) 0.00996(10)
H27 H 0.1940 0.3462 0.0140
H28 H 0.3319 0.3012 -0.0238
H29 H 0.3905 0.3811 0.0146
C29 C 0.4571(3) 0.33251(15) 0.12853(9)
H30 H 0.5711 0.3131 0.1153
H31 H 0.4517 0.3139 0.1644
C30 C 0.4433(3) 0.43838(16) 0.12518(10)
H32 H 0.4578 0.4580 0.0901
H33 H 0.5337 0.4669 0.1459
H34 H 0.3295 0.4583 0.1373
N3 N 0.0155(2) 0.53647(12) 0.21260(7)
N4 N 0.3215(3) 0.28307(12) 0.10086(7)
O4 O 0.1041(3) 0.41980(12) 0.26657(6)
O5 O -0.0514(2) 0.29659(11) 0.18741(6)
O6 O 0.0457(2) 0.23155(10) 0.09438(6)
loop_
_geom_bond_atom_site_label_1
_geom_bond_atom_site_label_2
_geom_bond_site_symmetry_1
_geom_bond_site_symmetry_2
Br1 C5 1_555 1_555
C1 C2 1_555 1_555
C2 H1 1_555 1_555
C3 C2 1_555 1_555
H2 C3 1_555 1_555
C4 C3 1_555 1_555
H3 C4 1_555 1_555
C5 C4 1_555 1_555
C6 C1 1_555 1_555
C7 C9 1_555 1_555
C8 H4 1_555 1_555
H5 C8 1_555 1_555
H6 C8 1_555 1_555
C9 C1 1_555 1_555
C10 C9 1_555 1_555
H7 C10 1_555 1_555
C11 C10 1_555 1_555
C12 H8 1_555 1_555
H9 C12 1_555 1_555
C13 C12 1_555 1_555
H10 C13 1_555 1_555
H11 C13 1_555 1_555
H12 C13 1_555 1_555
C14 H13 1_555 1_555
H14 C14 1_555 1_555
C15 C14 1_555 1_555
H15 C15 1_555 1_555
H16 C15 1_555 1_555
H17 C15 1_555 1_555
N1 C6 1_555 1_555
N2 C11 1_555 1_555
O1 C7 1_555 1_555
O2 C9 1_555 1_555
O3 C11 1_555 1_555
Br2 C20 1_555 1_555
C16 C17 1_555 1_555
C17 H18 1_555 1_555
C18 C17 1_555 1_555
H19 C18 1_555 1_555
C19 C18 1_555 1_555
H20 C19 1_555 1_555
C20 C19 1_555 1_555
C21 C16 1_555 1_555
C22 C24 1_555 1_555
C23 H21 1_555 1_555
H22 C23 1_555 1_555
H23 C23 1_555 1_555
C24 C16 1_555 1_555
C25 C24 1_555 1_555
H24 C25 1_555 1_555
C26 C25 1_555 1_555
C27 H25 1_555 1_555
H26 C27 1_555 1_555
C28 C27 1_555 1_555
H27 C28 1_555 1_555
H28 C28 1_555 1_555
H29 C28 1_555 1_555
C29 H30 1_555 1_555
H31 C29 1_555 1_555
C30 C29 1_555 1_555
H32 C30 1_555 1_555
H33 C30 1_555 1_555
H34 C30 1_555 1_555
N3 C21 1_555 1_555
N4 C26 1_555 1_555
O4 C22 1_555 1_555
O5 C24 1_555 1_555
O6 C26 1_555 1_555
C5 C6 1_555 1_555
C7 N1 1_555 1_555
C8 N1 1_555 1_555
C10 O2 1_555 1_555
C12 N2 1_555 1_555
C14 N2 1_555 1_555
C20 C21 1_555 1_555
C22 N3 1_555 1_555
C23 N3 1_555 1_555
C25 O5 1_555 1_555
C27 N4 1_555 1_555
C29 N4 1_555 1_555

#END
