
#######################################################################
#
#                 Cambridge Crystallographic Data Centre
#                                CCDC 
#
#######################################################################
#
# If this CIF has been generated from an entry in the Cambridge 
# Structural Database, then it will include bibliographic, chemical, 
# crystal, experimental, refinement or atomic coordinate data resulting 
# from the CCDC's data processing and validation procedures.
#
#######################################################################

data_RIZBEJ
_chemical_formula_moiety         'C34 H30 B1 F10 O1 P1'
_chemical_name_systematic        
2,2-Dimesityl-7,7-bis(pentafluorophenyl)-1,2,7-oxaphosphaborepan-2-ium-7-ide
_symmetry_cell_setting           triclinic
_symmetry_space_group_name_H-M   'P -1'
_symmetry_Int_Tables_number      2
_space_group_name_Hall           '-P 1'
loop_
_symmetry_equiv_pos_site_id
_symmetry_equiv_pos_as_xyz
1 x,y,z
2 -x,-y,-z
_cell_length_a                   10.2513(2)
_cell_length_b                   10.7475(2)
_cell_length_c                   14.2965(3)
_cell_angle_alpha                91.802(1)
_cell_angle_beta                 101.483(1)
_cell_angle_gamma                93.419(1)
_cell_volume                     1539.34
_exptl_crystal_colour            colorless
_exptl_crystal_description       block
_cell_formula_units_Z            2
loop_
_atom_site_label
_atom_site_type_symbol
_atom_site_fract_x
_atom_site_fract_y
_atom_site_fract_z
P1 P 0.78752(9) 0.74531(8) 0.22401(7)
B1 B 0.5384(4) 0.6121(4) 0.2059(3)
O1 O 0.6913(2) 0.6280(2) 0.20476(18)
C1 C 0.6917(4) 0.8788(3) 0.1928(3)
H1 H 0.6304 0.8888 0.2366
H2 H 0.7518 0.9543 0.1992
C2 C 0.6118(4) 0.8622(4) 0.0897(3)
H3 H 0.6074 0.9437 0.0608
H4 H 0.6588 0.8085 0.0527
C3 C 0.4708(4) 0.8054(4) 0.0836(3)
H5 H 0.4209 0.8133 0.0184
H6 H 0.4282 0.8552 0.1262
C4 C 0.4567(4) 0.6682(4) 0.1089(3)
H7 H 0.4772 0.6188 0.0556
H8 H 0.3618 0.6493 0.1085
C5 C 0.9023(4) 0.7532(4) 0.1420(3)
C6 C 1.0014(4) 0.8530(4) 0.1568(3)
C7 C 1.0756(4) 0.8749(4) 0.0867(3)
H9 H 1.1411 0.9416 0.0965
C8 C 1.0563(4) 0.8018(4) 0.0028(3)
C9 C 0.9641(4) 0.7006(4) -0.0075(3)
H10 H 0.9544 0.6470 -0.0621
C10 C 0.8852(4) 0.6741(4) 0.0587(3)
C11 C 1.0388(4) 0.9375(4) 0.2467(3)
H11 H 0.9585 0.9659 0.2641
H12 H 1.0948 1.0089 0.2349
H13 H 1.0871 0.8916 0.2984
C12 C 1.1341(5) 0.8302(5) -0.0745(3)
H14 H 1.1966 0.7666 -0.0773
H15 H 1.1825 0.9111 -0.0602
H16 H 1.0728 0.8312 -0.1356
C13 C 0.7885(5) 0.5603(4) 0.0358(3)
H17 H 0.8038 0.5161 -0.0208
H18 H 0.6978 0.5861 0.0243
H19 H 0.8019 0.5058 0.0892
C14 C 0.8835(4) 0.7457(3) 0.3452(3)
C15 C 0.8690(4) 0.8281(4) 0.4204(3)
C16 C 0.9509(4) 0.8185(4) 0.5100(3)
H20 H 0.9410 0.8733 0.5603
C17 C 1.0464(5) 0.7313(4) 0.5279(3)
C18 C 1.0565(4) 0.6499(4) 0.4539(3)
H21 H 1.1194 0.5891 0.4654
C19 C 0.9781(4) 0.6535(4) 0.3630(3)
C20 C 0.7716(5) 0.9288(4) 0.4128(3)
H22 H 0.7809 0.9725 0.4745
H23 H 0.6814 0.8915 0.3931
H24 H 0.7899 0.9874 0.3660
C21 C 1.1354(6) 0.7261(5) 0.6248(4)
H25 H 1.1589 0.6410 0.6360
H26 H 1.0889 0.7545 0.6735
H27 H 1.2159 0.7795 0.6275
C22 C 1.0000(5) 0.5589(4) 0.2884(3)
H28 H 1.0521 0.5985 0.2465
H29 H 0.9145 0.5262 0.2512
H30 H 1.0475 0.4913 0.3195
C23 C 0.5187(4) 0.6654(3) 0.3119(3)
C24 C 0.5940(4) 0.6207(4) 0.3944(3)
F1 F 0.6829(2) 0.5348(2) 0.38776(17)
C25 C 0.5822(5) 0.6554(5) 0.4861(3)
F2 F 0.6590(4) 0.6080(4) 0.5620(2)
C26 C 0.4912(6) 0.7403(6) 0.4979(3)
F3 F 0.4782(4) 0.7769(4) 0.5863(2)
C27 C 0.4117(5) 0.7848(5) 0.4198(4)
F4 F 0.3200(4) 0.8658(4) 0.4306(2)
C28 C 0.4256(4) 0.7465(4) 0.3292(3)
F5 F 0.3402(3) 0.7937(3) 0.2563(2)
C29 C 0.4946(4) 0.4609(3) 0.2034(3)
C30 C 0.5703(4) 0.3609(4) 0.1930(3)
F6 F 0.6984(2) 0.3791(2) 0.18399(18)
C31 C 0.5238(4) 0.2377(4) 0.1921(3)
F7 F 0.6060(3) 0.1456(2) 0.1836(2)
C32 C 0.3969(5) 0.2078(4) 0.2026(3)
F8 F 0.3518(3) 0.0878(3) 0.2043(2)
C33 C 0.3165(4) 0.3024(4) 0.2148(3)
F9 F 0.1918(3) 0.2750(3) 0.2288(2)
C34 C 0.3664(4) 0.4244(4) 0.2140(3)
F10 F 0.2807(2) 0.5119(2) 0.2256(2)
loop_
_geom_bond_atom_site_label_1
_geom_bond_atom_site_label_2
_geom_bond_site_symmetry_1
_geom_bond_site_symmetry_2
P1 O1 1_555 1_555
B1 O1 1_555 1_555
C1 P1 1_555 1_555
H1 C1 1_555 1_555
H2 C1 1_555 1_555
C2 C1 1_555 1_555
H3 C2 1_555 1_555
H4 C2 1_555 1_555
C3 C2 1_555 1_555
H5 C3 1_555 1_555
H6 C3 1_555 1_555
C4 B1 1_555 1_555
H7 C4 1_555 1_555
H8 C4 1_555 1_555
C5 P1 1_555 1_555
C6 C5 1_555 1_555
C7 C6 1_555 1_555
H9 C7 1_555 1_555
C8 C7 1_555 1_555
C9 C8 1_555 1_555
H10 C9 1_555 1_555
C10 C5 1_555 1_555
C11 C6 1_555 1_555
H11 C11 1_555 1_555
H12 C11 1_555 1_555
H13 C11 1_555 1_555
C12 C8 1_555 1_555
H14 C12 1_555 1_555
H15 C12 1_555 1_555
H16 C12 1_555 1_555
C13 C10 1_555 1_555
H17 C13 1_555 1_555
H18 C13 1_555 1_555
H19 C13 1_555 1_555
C14 P1 1_555 1_555
C15 C14 1_555 1_555
C16 C15 1_555 1_555
H20 C16 1_555 1_555
C17 C16 1_555 1_555
C18 C17 1_555 1_555
H21 C18 1_555 1_555
C19 C14 1_555 1_555
C20 C15 1_555 1_555
H22 C20 1_555 1_555
H23 C20 1_555 1_555
H24 C20 1_555 1_555
C21 C17 1_555 1_555
H25 C21 1_555 1_555
H26 C21 1_555 1_555
H27 C21 1_555 1_555
C22 C19 1_555 1_555
H28 C22 1_555 1_555
H29 C22 1_555 1_555
H30 C22 1_555 1_555
C23 B1 1_555 1_555
C24 C23 1_555 1_555
F1 C24 1_555 1_555
C25 C24 1_555 1_555
F2 C25 1_555 1_555
C26 C25 1_555 1_555
F3 C26 1_555 1_555
C27 C26 1_555 1_555
F4 C27 1_555 1_555
C28 C23 1_555 1_555
F5 C28 1_555 1_555
C29 B1 1_555 1_555
C30 C29 1_555 1_555
F6 C30 1_555 1_555
C31 C30 1_555 1_555
F7 C31 1_555 1_555
C32 C31 1_555 1_555
F8 C32 1_555 1_555
C33 C32 1_555 1_555
F9 C33 1_555 1_555
C34 C29 1_555 1_555
F10 C34 1_555 1_555
C3 C4 1_555 1_555
C9 C10 1_555 1_555
C18 C19 1_555 1_555
C27 C28 1_555 1_555
C33 C34 1_555 1_555

#END
