
#######################################################################
#
#                 Cambridge Crystallographic Data Centre
#                                CCDC 
#
#######################################################################
#
# If this CIF has been generated from an entry in the Cambridge 
# Structural Database, then it will include bibliographic, chemical, 
# crystal, experimental, refinement or atomic coordinate data resulting 
# from the CCDC's data processing and validation procedures.
#
#######################################################################

data_RIZFOX
_chemical_formula_moiety         'C20 H25 N3 O1,C2 H6 O1'
_chemical_name_systematic        
'(5R*,6aS*,10aR*)-7,7-Dimethyl-1-phenyl-5-vinyl-6,6a,7,8,9,10-hexahydro[1,2,3]triazolo[5,1-a]isoquinolin-10a(5H)-ol ethanol solvate'
_symmetry_cell_setting           monoclinic
_symmetry_space_group_name_H-M   'P 21/c'
_symmetry_Int_Tables_number      14
_space_group_name_Hall           '-P 2ybc'
loop_
_symmetry_equiv_pos_site_id
_symmetry_equiv_pos_as_xyz
1 x,y,z
2 -x,1/2+y,1/2-z
3 -x,-y,-z
4 x,1/2-y,1/2+z
_cell_length_a                   9.2253(3)
_cell_length_b                   10.5676(3)
_cell_length_c                   21.0165(6)
_cell_angle_alpha                90
_cell_angle_beta                 97.5590(10)
_cell_angle_gamma                90
_cell_volume                     2031.08
_exptl_crystal_colour            colorless
_exptl_crystal_description       'Rectangular parallelepiped'
_chemical_melting_point          '162-164 deg.C'
_cell_formula_units_Z            4
loop_
_atom_site_label
_atom_site_type_symbol
_atom_site_fract_x
_atom_site_fract_y
_atom_site_fract_z
O1 O 0.29920(8) 0.40042(7) 0.16650(4)
H1 H 0.2434(19) 0.3569(16) 0.1363(8)
N1 N -0.03471(10) 0.52313(9) 0.12549(4)
N2 N -0.10659(10) 0.57537(9) 0.07243(4)
N3 N -0.00837(10) 0.63568(9) 0.04383(4)
C1 C -0.36409(13) 0.36301(13) 0.14201(6)
H2 H -0.3974(17) 0.4177(15) 0.1734(8)
H3 H -0.4342(16) 0.3060(14) 0.1183(7)
C2 C -0.22759(13) 0.36607(11) 0.13063(5)
H4 H -0.1910(16) 0.3109(14) 0.0977(7)
C3 C -0.11384(12) 0.44658(11) 0.16870(5)
H5 H -0.1638(14) 0.5060(13) 0.1960(6)
C4 C -0.00006(13) 0.36942(11) 0.21197(5)
H6 H 0.0353(13) 0.3039(12) 0.1874(6)
H7 H -0.0514(15) 0.3293(13) 0.2450(7)
C5 C 0.12376(12) 0.45531(10) 0.24163(5)
H8 H 0.0768(14) 0.5343(13) 0.2558(6)
C6 C 0.21807(13) 0.40264(11) 0.30272(5)
C7 C 0.33256(14) 0.50400(12) 0.32667(5)
H9 H 0.3984(15) 0.4689(13) 0.3639(7)
H10 H 0.2807(15) 0.5780(13) 0.3428(6)
C8 C 0.42070(13) 0.55238(12) 0.27516(5)
H11 H 0.4824(15) 0.4845(13) 0.2620(6)
H12 H 0.4866(16) 0.6220(14) 0.2931(7)
C9 C 0.32173(13) 0.60285(11) 0.21678(5)
H13 H 0.2646(15) 0.6766(13) 0.2301(6)
H14 H 0.3803(14) 0.6323(12) 0.1848(6)
C10 C 0.21428(12) 0.50071(10) 0.18865(5)
C11 C 0.11035(11) 0.55035(10) 0.13233(5)
C12 C 0.12678(12) 0.62196(10) 0.07857(5)
C13 C 0.25688(12) 0.67755(10) 0.05528(5)
C14 C 0.38844(12) 0.61073(11) 0.05912(5)
H15 H 0.3946(14) 0.5267(14) 0.0768(6)
C15 C 0.50973(13) 0.66427(12) 0.03672(5)
H16 H 0.6004(16) 0.6167(14) 0.0399(7)
C16 C 0.50000(14) 0.78431(12) 0.00968(6)
H17 H 0.5847(16) 0.8209(14) -0.0067(7)
C17 C 0.36926(14) 0.85064(12) 0.00472(6)
H18 H 0.3601(16) 0.9342(15) -0.0150(7)
C18 C 0.24832(13) 0.79774(11) 0.02756(5)
H19 H 0.1588(15) 0.8436(13) 0.0242(6)
C19 C 0.29230(15) 0.27580(12) 0.29216(6)
H20 H 0.2176(17) 0.2126(15) 0.2729(7)
H21 H 0.3686(17) 0.2837(14) 0.2628(7)
H22 H 0.3377(16) 0.2425(14) 0.3333(7)
C20 C 0.12016(15) 0.38317(13) 0.35563(6)
H23 H 0.1819(17) 0.3621(15) 0.3975(8)
H24 H 0.0488(16) 0.3124(15) 0.3455(7)
H25 H 0.0659(16) 0.4619(14) 0.3624(7)
O2 O 0.13779(12) 0.26432(9) 0.07107(4)
H26 H 0.0939(19) 0.2965(17) 0.0366(9)
C21 C 0.12801(14) 0.13234(12) 0.06874(6)
H27 H 0.0301(19) 0.1059(16) 0.0709(8)
H28 H 0.1532(18) 0.1018(16) 0.0257(8)
C22 C 0.23115(16) 0.07689(13) 0.12305(6)
H29 H 0.2252(19) -0.0143(18) 0.1240(8)
H30 H 0.2106(18) 0.1078(15) 0.1641(8)
H31 H 0.333(2) 0.1008(18) 0.1171(9)
loop_
_geom_bond_atom_site_label_1
_geom_bond_atom_site_label_2
_geom_bond_site_symmetry_1
_geom_bond_site_symmetry_2
O1 H1 1_555 1_555
N1 N2 1_555 1_555
N2 N3 1_555 1_555
N3 C12 1_555 1_555
C1 H2 1_555 1_555
H3 C1 1_555 1_555
C2 C1 1_555 1_555
H4 C2 1_555 1_555
C3 N1 1_555 1_555
H5 C3 1_555 1_555
C4 C3 1_555 1_555
H6 C4 1_555 1_555
H7 C4 1_555 1_555
C5 C4 1_555 1_555
H8 C5 1_555 1_555
C6 C5 1_555 1_555
C7 C6 1_555 1_555
H9 C7 1_555 1_555
H10 C7 1_555 1_555
C8 C7 1_555 1_555
H11 C8 1_555 1_555
H12 C8 1_555 1_555
C9 C8 1_555 1_555
H13 C9 1_555 1_555
H14 C9 1_555 1_555
C10 O1 1_555 1_555
C11 N1 1_555 1_555
C12 C11 1_555 1_555
C13 C12 1_555 1_555
C14 C13 1_555 1_555
H15 C14 1_555 1_555
C15 C14 1_555 1_555
H16 C15 1_555 1_555
C16 C15 1_555 1_555
H17 C16 1_555 1_555
C17 C16 1_555 1_555
H18 C17 1_555 1_555
C18 C13 1_555 1_555
H19 C18 1_555 1_555
C19 C6 1_555 1_555
H20 C19 1_555 1_555
H21 C19 1_555 1_555
H22 C19 1_555 1_555
C20 C6 1_555 1_555
H23 C20 1_555 1_555
H24 C20 1_555 1_555
H25 C20 1_555 1_555
O2 H26 1_555 1_555
C21 O2 1_555 1_555
H27 C21 1_555 1_555
H28 C21 1_555 1_555
C22 C21 1_555 1_555
H29 C22 1_555 1_555
H30 C22 1_555 1_555
H31 C22 1_555 1_555
C2 C3 1_555 1_555
C5 C10 1_555 1_555
C9 C10 1_555 1_555
C10 C11 1_555 1_555
C17 C18 1_555 1_555

#END
