
#######################################################################
#
#                 Cambridge Crystallographic Data Centre
#                                CCDC 
#
#######################################################################
#
# If this CIF has been generated from an entry in the Cambridge 
# Structural Database, then it will include bibliographic, chemical, 
# crystal, experimental, refinement or atomic coordinate data resulting 
# from the CCDC's data processing and validation procedures.
#
#######################################################################

data_RIZFOW
_chemical_formula_moiety         'C16 H10 N2 O1'
_chemical_name_systematic        4-(4-Cyanobenzoylmethyl)benzonitrile
_symmetry_cell_setting           triclinic
_symmetry_space_group_name_H-M   'P -1'
_symmetry_Int_Tables_number      2
_space_group_name_Hall           '-P 1'
loop_
_symmetry_equiv_pos_site_id
_symmetry_equiv_pos_as_xyz
1 x,y,z
2 -x,-y,-z
_cell_length_a                   7.5217(15)
_cell_length_b                   7.9759(16)
_cell_length_c                   10.881(2)
_cell_angle_alpha                96.78(3)
_cell_angle_beta                 93.34(3)
_cell_angle_gamma                102.10(3)
_cell_volume                     631.49
_exptl_crystal_colour            yellow
_exptl_crystal_description       block
_cell_formula_units_Z            2
_exptl_crystal_recrystallization_method dimethylformamide/methanol
loop_
_atom_site_label
_atom_site_type_symbol
_atom_site_fract_x
_atom_site_fract_y
_atom_site_fract_z
C1 C 0.1774(2) 0.4661(2) 0.18751(15)
C2 C 0.0347(3) 0.5506(2) 0.18255(17)
H1 H -0.0715 0.5081 0.2189
C3 C 0.0475(3) 0.6970(2) 0.12455(17)
H2 H -0.0493 0.7528 0.1218
C4 C 0.2055(2) 0.7599(2) 0.07065(15)
C5 C 0.3487(3) 0.6762(2) 0.07410(17)
H3 H 0.4545 0.7181 0.0371
C6 C 0.3339(3) 0.5301(2) 0.13273(17)
H4 H 0.4306 0.4742 0.1353
C7 C 0.2217(3) 0.9131(2) 0.00999(17)
C8 C 0.2389(2) 0.2017(2) 0.46012(15)
C9 C 0.2979(3) 0.2430(2) 0.58529(16)
H5 H 0.3178 0.3571 0.6226
C10 C 0.3274(3) 0.1162(2) 0.65476(17)
H6 H 0.3668 0.1447 0.7387
C11 C 0.2980(2) -0.0536(2) 0.59929(16)
C12 C 0.2369(2) -0.0974(2) 0.47534(17)
H7 H 0.2158 -0.2118 0.4384
C13 C 0.2074(3) 0.0309(2) 0.40669(16)
H8 H 0.1656 0.0018 0.3232
C14 C 0.3367(3) -0.1839(2) 0.67244(18)
C15 C 0.2138(3) 0.3455(2) 0.38867(17)
N1 N 0.2355(3) 1.0349(2) -0.03745(18)
N2 N 0.3690(3) -0.2834(2) 0.73238(17)
O1 O 0.2335(4) 0.48933(19) 0.44054(14)
C16 C 0.1648(3) 0.3057(2) 0.25106(16)
H9 H 0.0413 0.2365 0.2358
H10 H 0.2458 0.2374 0.2147
loop_
_geom_bond_atom_site_label_1
_geom_bond_atom_site_label_2
_geom_bond_site_symmetry_1
_geom_bond_site_symmetry_2
C1 C2 1_555 1_555
C2 H1 1_555 1_555
C3 C2 1_555 1_555
H2 C3 1_555 1_555
C4 C3 1_555 1_555
C5 C4 1_555 1_555
H3 C5 1_555 1_555
C6 C1 1_555 1_555
H4 C6 1_555 1_555
C7 C4 1_555 1_555
C8 C9 1_555 1_555
C9 H5 1_555 1_555
C10 C9 1_555 1_555
H6 C10 1_555 1_555
C11 C10 1_555 1_555
C12 C11 1_555 1_555
H7 C12 1_555 1_555
C13 C8 1_555 1_555
H8 C13 1_555 1_555
C14 C11 1_555 1_555
C15 C8 1_555 1_555
N1 C7 1_555 1_555
N2 C14 1_555 1_555
O1 C15 1_555 1_555
C16 C1 1_555 1_555
H9 C16 1_555 1_555
H10 C16 1_555 1_555
C5 C6 1_555 1_555
C12 C13 1_555 1_555
C15 C16 1_555 1_555

#END
