
#######################################################################
#
#                 Cambridge Crystallographic Data Centre
#                                CCDC 
#
#######################################################################
#
# If this CIF has been generated from an entry in the Cambridge 
# Structural Database, then it will include bibliographic, chemical, 
# crystal, experimental, refinement or atomic coordinate data resulting 
# from the CCDC's data processing and validation procedures.
#
#######################################################################

data_RIZFIR
_chemical_formula_moiety         'C18 H21 N3 O1'
_chemical_name_systematic        
(5R*,6aS*,10aR*)-1-Phenyl-5-vinyl-6,6a,7,8,9,10-hexahydro[1,2,3]triazolo[5,1-a]isoquinolin-10a(5H)-ol
_symmetry_cell_setting           monoclinic
_symmetry_space_group_name_H-M   'P 21/n'
_symmetry_Int_Tables_number      14
_space_group_name_Hall           '-P 2yn'
loop_
_symmetry_equiv_pos_site_id
_symmetry_equiv_pos_as_xyz
1 x,y,z
2 1/2-x,1/2+y,1/2-z
3 -x,-y,-z
4 1/2+x,1/2-y,1/2+z
_cell_length_a                   6.7407(4)
_cell_length_b                   16.6911(10)
_cell_length_c                   13.8906(8)
_cell_angle_alpha                90
_cell_angle_beta                 98.6652(16)
_cell_angle_gamma                90
_cell_volume                     1544.99
_exptl_crystal_colour            colorless
_exptl_crystal_description       'Rectangular parallelepiped'
_cell_formula_units_Z            4
loop_
_atom_site_label
_atom_site_type_symbol
_atom_site_fract_x
_atom_site_fract_y
_atom_site_fract_z
O1 O 0.11154(11) 0.21263(5) -0.04579(6)
H1 H 0.059(3) 0.2207(10) -0.1078(14)
N1 N 0.52645(13) 0.20346(5) 0.10224(7)
N2 N 0.59030(14) 0.20343(6) 0.19836(7)
N3 N 0.47666(14) 0.25482(6) 0.23761(7)
C1 C 0.8639(2) 0.04331(8) 0.08099(10)
H2 H 0.981(3) 0.0756(11) 0.0720(13)
H3 H 0.886(3) -0.0142(11) 0.1006(12)
C2 C 0.68292(19) 0.07516(7) 0.07042(8)
H4 H 0.560(2) 0.0438(9) 0.0803(10)
C3 C 0.64154(17) 0.15954(7) 0.03575(8)
H5 H 0.776(2) 0.1878(8) 0.0373(10)
C4 C 0.52160(17) 0.16269(7) -0.06644(8)
H6 H 0.613(2) 0.1457(8) -0.1128(11)
H7 H 0.414(2) 0.1254(8) -0.0702(10)
C5 C 0.43754(16) 0.24631(6) -0.09299(8)
H8 H 0.3652(19) 0.2449(8) -0.1604(10)
C6 C 0.60366(17) 0.31002(7) -0.08786(9)
H9 H 0.694(2) 0.2946(8) -0.1341(11)
H10 H 0.687(2) 0.3098(8) -0.0219(11)
C7 C 0.51922(18) 0.39418(7) -0.10918(9)
H11 H 0.449(2) 0.3971(8) -0.1791(11)
H12 H 0.630(2) 0.4338(9) -0.1024(10)
C8 C 0.37140(17) 0.41484(7) -0.03962(9)
H13 H 0.444(2) 0.4157(8) 0.0295(11)
H14 H 0.315(2) 0.4688(9) -0.0530(11)
C9 C 0.20202(16) 0.35338(7) -0.04825(8)
H15 H 0.102(2) 0.3679(8) -0.0050(10)
H16 H 0.129(2) 0.3548(8) -0.1175(11)
C10 C 0.27836(16) 0.26759(6) -0.02748(8)
C11 C 0.37028(15) 0.25513(6) 0.07735(8)
C12 C 0.34039(16) 0.28771(6) 0.16575(8)
C13 C 0.19795(16) 0.34999(6) 0.18800(8)
C14 C -0.00881(17) 0.33631(7) 0.16989(8)
H17 H -0.058(2) 0.2841(9) 0.1441(10)
C15 C -0.14138(18) 0.39624(8) 0.18753(9)
H18 H -0.288(2) 0.3841(9) 0.1746(11)
C16 C -0.07029(19) 0.47003(8) 0.22329(9)
H19 H -0.162(2) 0.5118(10) 0.2354(11)
C17 C 0.1351(2) 0.48358(7) 0.24313(9)
H20 H 0.188(2) 0.5350(9) 0.2702(11)
C18 C 0.26851(17) 0.42368(7) 0.22585(8)
H21 H 0.413(2) 0.4334(9) 0.2390(10)
loop_
_geom_bond_atom_site_label_1
_geom_bond_atom_site_label_2
_geom_bond_site_symmetry_1
_geom_bond_site_symmetry_2
O1 H1 1_555 1_555
N1 N2 1_555 1_555
N2 N3 1_555 1_555
N3 C12 1_555 1_555
C1 H2 1_555 1_555
H3 C1 1_555 1_555
C2 C1 1_555 1_555
H4 C2 1_555 1_555
C3 N1 1_555 1_555
H5 C3 1_555 1_555
C4 C3 1_555 1_555
H6 C4 1_555 1_555
H7 C4 1_555 1_555
C5 C4 1_555 1_555
H8 C5 1_555 1_555
C6 C5 1_555 1_555
H9 C6 1_555 1_555
H10 C6 1_555 1_555
C7 C6 1_555 1_555
H11 C7 1_555 1_555
H12 C7 1_555 1_555
C8 C7 1_555 1_555
H13 C8 1_555 1_555
H14 C8 1_555 1_555
C9 C8 1_555 1_555
H15 C9 1_555 1_555
H16 C9 1_555 1_555
C10 O1 1_555 1_555
C11 N1 1_555 1_555
C12 C11 1_555 1_555
C13 C12 1_555 1_555
C14 C13 1_555 1_555
H17 C14 1_555 1_555
C15 C14 1_555 1_555
H18 C15 1_555 1_555
C16 C15 1_555 1_555
H19 C16 1_555 1_555
C17 C16 1_555 1_555
H20 C17 1_555 1_555
C18 C13 1_555 1_555
H21 C18 1_555 1_555
C2 C3 1_555 1_555
C5 C10 1_555 1_555
C9 C10 1_555 1_555
C10 C11 1_555 1_555
C17 C18 1_555 1_555

#END
