
#######################################################################
#
#                 Cambridge Crystallographic Data Centre
#                                CCDC 
#
#######################################################################
#
# If this CIF has been generated from an entry in the Cambridge 
# Structural Database, then it will include bibliographic, chemical, 
# crystal, experimental, refinement or atomic coordinate data resulting 
# from the CCDC's data processing and validation procedures.
#
#######################################################################

data_RIZJUG
_chemical_formula_moiety         '2(C18 H10 Cl2 O2),C18 H10 Cl2 O2'
_chemical_name_systematic        
'bis(cis-2,4-bis(Chloro(phenyl)methylene)cyclobutane-1,3-dione) trans-2,4-bis(chloro(phenyl)methylene)cyclobutane-1,3-dione'
_symmetry_cell_setting           triclinic
_symmetry_space_group_name_H-M   'P -1'
_symmetry_Int_Tables_number      2
_space_group_name_Hall           '-P 1'
loop_
_symmetry_equiv_pos_site_id
_symmetry_equiv_pos_as_xyz
1 x,y,z
2 -x,-y,-z
_cell_length_a                   3.8044(16)
_cell_length_b                   11.576(8)
_cell_length_c                   24.63(2)
_cell_angle_alpha                100.54(6)
_cell_angle_beta                 94.52(5)
_cell_angle_gamma                96.78(5)
_cell_volume                     1053.32
_exptl_crystal_colour            red
_exptl_crystal_description       needle
_chemical_melting_point          '175-175.5 deg.C'
_cell_formula_units_Z            1
_exptl_crystal_recrystallization_method sublimation
loop_
_atom_site_label
_atom_site_type_symbol
_atom_site_fract_x
_atom_site_fract_y
_atom_site_fract_z
Cl1 Cl 0.0480(5) 0.26299(15) 0.06079(6)
O1 O -0.3172(12) 0.0369(4) 0.09225(16)
C1 C -0.4136(17) 0.0198(5) 0.0425(2)
C2 C -0.3474(17) 0.0814(5) -0.0034(2)
C3 C -0.1647(18) 0.1900(6) -0.0047(2)
C4 C -0.1003(17) 0.2502(6) -0.0498(2)
C5 C 0.0935(17) 0.3622(5) -0.0422(2)
H1 H 0.2032 0.3996 -0.0063
C6 C 0.1287(18) 0.4201(6) -0.0866(3)
H2 H 0.2565 0.4978 -0.0805
C7 C -0.0204(18) 0.3659(6) -0.1396(3)
H3 H 0.0054 0.4053 -0.1699
C8 C -0.2082(18) 0.2528(6) -0.1474(2)
H4 H -0.3106 0.2145 -0.1836
C9 C -0.2486(17) 0.1955(6) -0.1037(2)
H5 H -0.3781 0.1180 -0.1100
Cl1A Cl -1.0480(5) -0.26299(15) -0.06079(6)
O1A O -0.6828(12) -0.0369(4) -0.09225(16)
C1A C -0.5864(17) -0.0198(5) -0.0425(2)
C2A C -0.6526(17) -0.0814(5) 0.0034(2)
C3A C -0.8353(18) -0.1900(6) 0.0047(2)
C4A C -0.8997(17) -0.2502(6) 0.0498(2)
C5A C -1.0935(17) -0.3622(5) 0.0422(2)
H1A H -1.2032 -0.3996 0.0063
C6A C -1.1287(18) -0.4201(6) 0.0866(3)
H2A H -1.2565 -0.4978 0.0805
C7A C -0.9796(18) -0.3659(6) 0.1396(3)
H3A H -1.0054 -0.4053 0.1699
C8A C -0.7918(18) -0.2528(6) 0.1474(2)
H4A H -0.6894 -0.2145 0.1836
C9A C -0.7514(17) -0.1955(6) 0.1037(2)
H5A H -0.6219 -0.1180 0.1100
Cl2 Cl 0.6018(5) 0.84570(15) 0.36165(7)
Cl3 Cl 0.5328(5) 0.37578(15) 0.18475(6)
O2 O 0.6960(13) 0.6431(4) 0.26095(16)
O3 O 0.1246(12) 0.4299(4) 0.37284(16)
C10 C 0.4207(16) 0.4562(5) 0.2879(2)
C11 C 0.5462(17) 0.5884(6) 0.2913(2)
C12 C 0.4301(17) 0.6139(5) 0.3489(2)
C13 C 0.2853(18) 0.4840(6) 0.3443(2)
C14 C 0.4519(17) 0.7194(5) 0.3849(2)
C15 C 0.3371(15) 0.7351(5) 0.4429(2)
C16 C 0.2766(16) 0.8470(5) 0.4698(2)
H6 H 0.3039 0.9133 0.4520
C17 C 0.1748(17) 0.8588(6) 0.5236(2)
H7 H 0.1208 0.9332 0.5420
C18 C 0.1522(16) 0.7650(6) 0.5498(2)
H8 H 0.0869 0.7754 0.5867
C19 C 0.2224(17) 0.6544(6) 0.5240(2)
H9 H 0.2005 0.5888 0.5423
C20 C 0.3260(16) 0.6422(6) 0.4704(2)
H10 H 0.3897 0.5686 0.4528
C21 C 0.3973(17) 0.3581(6) 0.2492(2)
C22 C 0.2897(16) 0.2371(6) 0.2551(2)
C23 C 0.3501(17) 0.2055(5) 0.3059(2)
H11 H 0.4613 0.2637 0.3367
C24 C 0.2525(17) 0.0910(6) 0.3131(3)
H12 H 0.3043 0.0706 0.3482
C25 C 0.0764(17) 0.0046(6) 0.2685(2)
H13 H 0.0042 -0.0741 0.2732
C26 C 0.0123(17) 0.0367(5) 0.2186(3)
H14 H -0.1058 -0.0214 0.1884
C27 C 0.1104(16) 0.1489(5) 0.2101(2)
H15 H 0.0597 0.1680 0.1747
loop_
_geom_bond_atom_site_label_1
_geom_bond_atom_site_label_2
_geom_bond_site_symmetry_1
_geom_bond_site_symmetry_2
Cl1 C3 1_555 1_555
O1 C1 1_555 1_555
C1 C2 1_555 1_555
C2 C3 1_555 1_555
C3 C4 1_555 1_555
C4 C5 1_555 1_555
C5 H1 1_555 1_555
C6 C5 1_555 1_555
H2 C6 1_555 1_555
C7 C6 1_555 1_555
H3 C7 1_555 1_555
C8 C7 1_555 1_555
H4 C8 1_555 1_555
C9 C4 1_555 1_555
H5 C9 1_555 1_555
Cl2 C14 1_555 1_555
Cl3 C21 1_555 1_555
O2 C11 1_555 1_555
O3 C13 1_555 1_555
C10 C11 1_555 1_555
C11 C12 1_555 1_555
C12 C13 1_555 1_555
C13 C10 1_555 1_555
C14 C12 1_555 1_555
C15 C14 1_555 1_555
C16 C15 1_555 1_555
H6 C16 1_555 1_555
C17 C16 1_555 1_555
H7 C17 1_555 1_555
C18 C17 1_555 1_555
H8 C18 1_555 1_555
C19 C18 1_555 1_555
H9 C19 1_555 1_555
C20 C15 1_555 1_555
H10 C20 1_555 1_555
C21 C10 1_555 1_555
C22 C21 1_555 1_555
C23 C22 1_555 1_555
H11 C23 1_555 1_555
C24 C23 1_555 1_555
H12 C24 1_555 1_555
C25 C24 1_555 1_555
H13 C25 1_555 1_555
C26 C25 1_555 1_555
H14 C26 1_555 1_555
C27 C22 1_555 1_555
H15 C27 1_555 1_555
Cl1A C3A 1_555 1_555
O1A C1A 1_555 1_555
C1A C2 1_555 1_555
C2A C1 1_555 1_555
C3A C2A 1_555 1_555
C4A C3A 1_555 1_555
C5A C4A 1_555 1_555
H1A C5A 1_555 1_555
C6A C5A 1_555 1_555
H2A C6A 1_555 1_555
C7A C6A 1_555 1_555
H3A C7A 1_555 1_555
C8A C7A 1_555 1_555
H4A C8A 1_555 1_555
C9A C4A 1_555 1_555
H5A C9A 1_555 1_555
C8 C9 1_555 1_555
C19 C20 1_555 1_555
C26 C27 1_555 1_555
C1A C2A 1_555 1_555
C8A C9A 1_555 1_555

#END
