
#######################################################################
#
#                 Cambridge Crystallographic Data Centre
#                                CCDC 
#
#######################################################################
#
# If this CIF has been generated from an entry in the Cambridge 
# Structural Database, then it will include bibliographic, chemical, 
# crystal, experimental, refinement or atomic coordinate data resulting 
# from the CCDC's data processing and validation procedures.
#
#######################################################################

data_RIZJIT
_chemical_formula_moiety         'C30 H64 Mg1 N6 O1'
_chemical_name_systematic        
Tetrahydrofuran-bis(di-isopropyl(di-isopropylamino)carbodi-imide)-magnesium
_symmetry_cell_setting           monoclinic
_symmetry_space_group_name_H-M   'C 2/c'
_symmetry_Int_Tables_number      15
_space_group_name_Hall           '-C 2yn'
loop_
_symmetry_equiv_pos_site_id
_symmetry_equiv_pos_as_xyz
1 x,y,z
2 -x,y,1/2-z
3 1/2+x,1/2+y,z
4 1/2-x,1/2+y,1/2-z
5 -x,-y,-z
6 x,-y,1/2+z
7 1/2-x,1/2-y,-z
8 1/2+x,1/2-y,1/2+z
_cell_length_a                   20.669(4)
_cell_length_b                   10.615(4)
_cell_length_c                   16.910(4)
_cell_angle_alpha                90
_cell_angle_beta                 98.47(2)
_cell_angle_gamma                90
_cell_volume                     3669.61
_exptl_crystal_colour            colorless
_chemical_melting_point          144deg.C
_cell_formula_units_Z            4
loop_
_atom_site_label
_atom_site_type_symbol
_atom_site_fract_x
_atom_site_fract_y
_atom_site_fract_z
Mg1 Mg 0.0000 0.2964(4) 0.7500
O1 O 0.0000 0.4940(7) 0.7500
N1 N 0.0903(3) 0.2238(7) 0.7357(4)
N2 N 0.0725(3) 0.2795(6) 0.8573(4)
N3 N 0.1762(3) 0.1762(7) 0.8465(4)
C1 C 0.1135(4) 0.2271(8) 0.8154(6)
C2 C 0.1234(5) 0.1560(9) 0.6804(6)
C3 C 0.1412(5) 0.2420(10) 0.6161(6)
C4 C 0.0809(5) 0.049(1) 0.6399(6)
C5 C 0.0917(4) 0.315(1) 0.9420(6)
C6 C 0.0801(5) 0.457(1) 0.9511(6)
C7 C 0.0521(5) 0.240(1) 0.9965(5)
C8 C 0.2334(5) 0.255(1) 0.8517(7)
C9 C 0.2198(5) 0.388(1) 0.8335(6)
C10 C 0.2864(5) 0.206(1) 0.8089(7)
C11 C 0.1768(6) 0.068(1) 0.8954(10)
C12 C 0.1211(6) -0.016(1) 0.8755(6)
C13 C 0.2321(6) 0.012(1) 0.9328(8)
C14 C 0.0547(4) 0.5698(8) 0.7280(6)
C15 C 0.0329(6) 0.6988(10) 0.7387(10)
H1 H 0.1624 0.1208 0.7087
H2 H 0.1692 0.3069 0.6398
H3 H 0.1630 0.1949 0.5802
H4 H 0.1026 0.2782 0.5878
H5 H 0.0418 0.0834 0.6116
H6 H 0.1043 0.0063 0.6036
H7 H 0.0706 -0.0081 0.6793
H8 H 0.1369 0.2972 0.9572
H9 H 0.0927 0.4805 1.0053
H10 H 0.1056 0.5021 0.9183
H11 H 0.0351 0.4750 0.9352
H12 H 0.0068 0.2572 0.9820
H13 H 0.0595 0.1519 0.9903
H14 H 0.0656 0.2630 1.0506
H15 H 0.2517 0.2533 0.9067
H16 H 0.2598 0.4338 0.8382
H17 H 0.1973 0.3963 0.7805
H18 H 0.1934 0.4218 0.8700
H19 H 0.2940 0.1194 0.8217
H20 H 0.2735 0.2144 0.7528
H21 H 0.3253 0.2524 0.8248
H22 H 0.0847 0.0311 0.8498
H23 H 0.1317 -0.0803 0.8408
H24 H 0.1101 -0.0524 0.9231
H25 H 0.2236 -0.0246 0.9817
H26 H 0.2454 -0.0524 0.8995
H27 H 0.2657 0.0728 0.9436
C15A C -0.0329(6) 0.6988(10) 0.7613(10)
C14A C -0.0547(4) 0.5698(8) 0.7720(6)
N1A N -0.0903(3) 0.2238(7) 0.7643(4)
C1A C -0.1135(4) 0.2271(8) 0.6846(6)
N2A N -0.0725(3) 0.2795(6) 0.6427(4)
C5A C -0.0917(4) 0.315(1) 0.5580(6)
C6A C -0.0801(5) 0.457(1) 0.5489(6)
H9A H -0.0927 0.4805 0.4947
H10A H -0.1056 0.5021 0.5817
H11A H -0.0351 0.4750 0.5648
C7A C -0.0521(5) 0.240(1) 0.5035(5)
H12A H -0.0068 0.2572 0.5180
H13A H -0.0595 0.1519 0.5097
H14A H -0.0656 0.2630 0.4494
H8A H -0.1369 0.2972 0.5428
N3A N -0.1762(3) 0.1762(7) 0.6535(4)
C8A C -0.2334(5) 0.255(1) 0.6483(7)
C9A C -0.2198(5) 0.388(1) 0.6665(6)
H16A H -0.2598 0.4338 0.6618
H17A H -0.1973 0.3963 0.7195
H18A H -0.1934 0.4218 0.6300
C10A C -0.2864(5) 0.206(1) 0.6911(7)
H19A H -0.2940 0.1194 0.6783
H20A H -0.2735 0.2144 0.7472
H21A H -0.3253 0.2524 0.6752
H15A H -0.2517 0.2533 0.5933
C11A C -0.1768(6) 0.068(1) 0.6046(10)
C12A C -0.1211(6) -0.016(1) 0.6245(6)
H22A H -0.0847 0.0311 0.6502
H23A H -0.1317 -0.0803 0.6592
H24A H -0.1101 -0.0524 0.5769
C13A C -0.2321(6) 0.012(1) 0.5672(8)
H25A H -0.2236 -0.0246 0.5183
H26A H -0.2454 -0.0524 0.6005
H27A H -0.2657 0.0728 0.5564
C2A C -0.1234(5) 0.1560(9) 0.8196(6)
C3A C -0.1412(5) 0.2420(10) 0.8839(6)
H2A H -0.1692 0.3069 0.8602
H3A H -0.1630 0.1949 0.9198
H4A H -0.1026 0.2782 0.9122
C4A C -0.0809(5) 0.049(1) 0.8601(6)
H5A H -0.0418 0.0834 0.8884
H6A H -0.1043 0.0063 0.8964
H7A H -0.0706 -0.0081 0.8207
H1A H -0.1624 0.1208 0.7913
loop_
_geom_bond_atom_site_label_1
_geom_bond_atom_site_label_2
_geom_bond_site_symmetry_1
_geom_bond_site_symmetry_2
Mg1 O1 1_555 1_555
O1 C14 1_555 1_555
N1 Mg1 1_555 1_555
N2 Mg1 1_555 1_555
N3 C1 1_555 1_555
C1 N1 1_555 1_555
C2 N1 1_555 1_555
C3 C2 1_555 1_555
C4 C2 1_555 1_555
C5 N2 1_555 1_555
C6 C5 1_555 1_555
C7 C5 1_555 1_555
C8 N3 1_555 1_555
C9 C8 1_555 1_555
C10 C8 1_555 1_555
C11 N3 1_555 1_555
C12 C11 1_555 1_555
C13 C11 1_555 1_555
C14 C15 1_555 1_555
C15 C15A 1_555 1_555
H1 C2 1_555 1_555
H2 C3 1_555 1_555
H3 C3 1_555 1_555
H4 C3 1_555 1_555
H5 C4 1_555 1_555
H6 C4 1_555 1_555
H7 C4 1_555 1_555
H8 C5 1_555 1_555
H9 C6 1_555 1_555
H10 C6 1_555 1_555
H11 C6 1_555 1_555
H12 C7 1_555 1_555
H13 C7 1_555 1_555
H14 C7 1_555 1_555
H15 C8 1_555 1_555
H16 C9 1_555 1_555
H17 C9 1_555 1_555
H18 C9 1_555 1_555
H19 C10 1_555 1_555
H20 C10 1_555 1_555
H21 C10 1_555 1_555
H22 C12 1_555 1_555
H23 C12 1_555 1_555
H24 C12 1_555 1_555
H25 C13 1_555 1_555
H26 C13 1_555 1_555
H27 C13 1_555 1_555
C15A C14A 1_555 1_555
C14A O1 1_555 1_555
N1A Mg1 1_555 1_555
C1A N1A 1_555 1_555
N2A Mg1 1_555 1_555
C5A N2A 1_555 1_555
C6A C5A 1_555 1_555
H9A C6A 1_555 1_555
H10A C6A 1_555 1_555
H11A C6A 1_555 1_555
C7A C5A 1_555 1_555
H12A C7A 1_555 1_555
H13A C7A 1_555 1_555
H14A C7A 1_555 1_555
H8A C5A 1_555 1_555
N3A C1A 1_555 1_555
C8A N3A 1_555 1_555
C9A C8A 1_555 1_555
H16A C9A 1_555 1_555
H17A C9A 1_555 1_555
H18A C9A 1_555 1_555
C10A C8A 1_555 1_555
H19A C10A 1_555 1_555
H20A C10A 1_555 1_555
H21A C10A 1_555 1_555
H15A C8A 1_555 1_555
C11A N3A 1_555 1_555
C12A C11A 1_555 1_555
H22A C12A 1_555 1_555
H23A C12A 1_555 1_555
H24A C12A 1_555 1_555
C13A C11A 1_555 1_555
H25A C13A 1_555 1_555
H26A C13A 1_555 1_555
H27A C13A 1_555 1_555
C2A N1A 1_555 1_555
C3A C2A 1_555 1_555
H2A C3A 1_555 1_555
H3A C3A 1_555 1_555
H4A C3A 1_555 1_555
C4A C2A 1_555 1_555
H5A C4A 1_555 1_555
H6A C4A 1_555 1_555
H7A C4A 1_555 1_555
H1A C2A 1_555 1_555
N2 C1 1_555 1_555
C1A N2A 1_555 1_555

#END
