
#######################################################################
#
#                 Cambridge Crystallographic Data Centre
#                                CCDC 
#
#######################################################################
#
# If this CIF has been generated from an entry in the Cambridge 
# Structural Database, then it will include bibliographic, chemical, 
# crystal, experimental, refinement or atomic coordinate data resulting 
# from the CCDC's data processing and validation procedures.
#
#######################################################################

data_RIZPAT
_chemical_formula_moiety         'C28 H28 O4'
_chemical_name_systematic        
'Dimethyl (6-methyl-3-(4-methylphenyl)-2-phenyl-2,3-dihydro-1H-inden-1-yl)malonate'
_symmetry_cell_setting           orthorhombic
_symmetry_space_group_name_H-M   'P b c a'
_symmetry_Int_Tables_number      61
_space_group_name_Hall           '-P 2ac 2ab'
loop_
_symmetry_equiv_pos_site_id
_symmetry_equiv_pos_as_xyz
1 x,y,z
2 1/2-x,-y,1/2+z
3 -x,1/2+y,1/2-z
4 1/2+x,1/2-y,-z
5 -x,-y,-z
6 1/2+x,y,1/2-z
7 x,1/2-y,1/2+z
8 1/2-x,1/2+y,z
_cell_length_a                   16.8408(10)
_cell_length_b                   14.2476(8)
_cell_length_c                   19.6198(11)
_cell_angle_alpha                90
_cell_angle_beta                 90
_cell_angle_gamma                90
_cell_volume                     4707.59
_exptl_crystal_colour            colorless
_exptl_crystal_description       prismatic
_cell_formula_units_Z            8
loop_
_atom_site_label
_atom_site_type_symbol
_atom_site_fract_x
_atom_site_fract_y
_atom_site_fract_z
O1 O 0.19328(8) 0.90991(9) 0.43844(6)
O2 O 0.09507(7) 0.92900(9) 0.36338(6)
O3 O 0.30017(7) 0.71306(9) 0.36534(6)
O4 O 0.18622(7) 0.69990(8) 0.42298(6)
C1 C 0.23646(8) 0.85431(10) 0.27743(7)
H1 H 0.2629 0.8020 0.2543
C2 C 0.18289(8) 0.90402(10) 0.22422(7)
H2 H 0.1441 0.9414 0.2498
C3 C 0.23872(8) 0.97442(10) 0.18714(7)
H3 H 0.2646 0.9417 0.1493
C4 C 0.30048(8) 0.99477(10) 0.24130(7)
C5 C 0.29907(8) 0.92782(10) 0.29266(7)
C6 C 0.35253(9) 0.93343(12) 0.34633(8)
H4 H 0.3512 0.8887 0.3808
C7 C 0.40819(9) 1.00558(13) 0.34885(9)
C8 C 0.40907(10) 1.07088(13) 0.29644(9)
H5 H 0.4465 1.1189 0.2973
C9 C 0.35586(9) 1.06661(12) 0.24290(9)
H6 H 0.3572 1.1114 0.2084
C10 C 0.46565(12) 1.01311(16) 0.40757(11)
H7 H 0.5185 1.0005 0.3917
H8 H 0.4516 0.9683 0.4421
H9 H 0.4634 1.0753 0.4263
C11 C 0.19596(8) 1.05929(10) 0.15908(7)
C12 C 0.15692(9) 1.12106(11) 0.20194(8)
H10 H 0.1575 1.1106 0.2487
C13 C 0.11698(10) 1.19828(12) 0.17626(10)
H11 H 0.0913 1.2387 0.2062
C14 C 0.11448(11) 1.21645(13) 0.10751(10)
C15 C 0.15412(11) 1.15588(14) 0.06476(9)
H12 H 0.1539 1.1671 0.0181
C16 C 0.19445(10) 1.07831(12) 0.08994(8)
H13 H 0.2208 1.0386 0.0599
C17 C 0.06979(16) 1.30087(18) 0.08012(15)
H14 H 0.0797 1.3542 0.1088
H15 H 0.0139 1.2875 0.0796
H16 H 0.0875 1.3143 0.0346
C18 C 0.13634(8) 0.83806(10) 0.17923(7)
C19 C 0.17258(10) 0.78565(12) 0.12861(7)
H17 H 0.2272 0.7901 0.1227
C20 C 0.12941(13) 0.72694(13) 0.08674(8)
H18 H 0.1548 0.6932 0.0525
C21 C 0.04914(13) 0.71843(14) 0.09568(10)
H19 H 0.0197 0.6802 0.0668
C22 C 0.01222(12) 0.76636(15) 0.14728(12)
H20 H -0.0419 0.7583 0.1548
C23 C 0.05542(10) 0.82681(13) 0.18825(10)
H21 H 0.0296 0.8604 0.2224
C24 C 0.18892(8) 0.81301(10) 0.33757(7)
H22 H 0.1414 0.7835 0.3183
C25 C 0.16079(10) 0.88814(10) 0.38685(8)
C26 C 0.06537(15) 1.00832(16) 0.40171(14)
H23 H 0.0544 0.9892 0.4477
H24 H 0.0175 1.0311 0.3809
H25 H 0.1045 1.0573 0.4020
C27 C 0.23342(10) 0.73752(11) 0.37605(7)
C28 C 0.21974(14) 0.62449(13) 0.46269(10)
H26 H 0.2327 0.5729 0.4332
H27 H 0.1819 0.6043 0.4962
H28 H 0.2670 0.6461 0.4851
loop_
_geom_bond_atom_site_label_1
_geom_bond_atom_site_label_2
_geom_bond_site_symmetry_1
_geom_bond_site_symmetry_2
O1 C25 1_555 1_555
O2 C25 1_555 1_555
O3 C27 1_555 1_555
O4 C27 1_555 1_555
C1 H1 1_555 1_555
C2 C1 1_555 1_555
H2 C2 1_555 1_555
C3 C2 1_555 1_555
H3 C3 1_555 1_555
C4 C3 1_555 1_555
C5 C1 1_555 1_555
C6 C5 1_555 1_555
H4 C6 1_555 1_555
C7 C6 1_555 1_555
C8 C7 1_555 1_555
H5 C8 1_555 1_555
C9 C4 1_555 1_555
H6 C9 1_555 1_555
C10 C7 1_555 1_555
H7 C10 1_555 1_555
H8 C10 1_555 1_555
H9 C10 1_555 1_555
C11 C3 1_555 1_555
C12 C11 1_555 1_555
H10 C12 1_555 1_555
C13 C12 1_555 1_555
H11 C13 1_555 1_555
C14 C13 1_555 1_555
C15 C14 1_555 1_555
H12 C15 1_555 1_555
C16 C11 1_555 1_555
H13 C16 1_555 1_555
C17 C14 1_555 1_555
H14 C17 1_555 1_555
H15 C17 1_555 1_555
H16 C17 1_555 1_555
C18 C2 1_555 1_555
C19 C18 1_555 1_555
H17 C19 1_555 1_555
C20 C19 1_555 1_555
H18 C20 1_555 1_555
C21 C20 1_555 1_555
H19 C21 1_555 1_555
C22 C21 1_555 1_555
H20 C22 1_555 1_555
C23 C18 1_555 1_555
H21 C23 1_555 1_555
C24 C1 1_555 1_555
H22 C24 1_555 1_555
C25 C24 1_555 1_555
C26 O2 1_555 1_555
H23 C26 1_555 1_555
H24 C26 1_555 1_555
H25 C26 1_555 1_555
C27 C24 1_555 1_555
C28 O4 1_555 1_555
H26 C28 1_555 1_555
H27 C28 1_555 1_555
H28 C28 1_555 1_555
C4 C5 1_555 1_555
C8 C9 1_555 1_555
C15 C16 1_555 1_555
C22 C23 1_555 1_555

#END
