
#######################################################################
#
#                 Cambridge Crystallographic Data Centre
#                                CCDC 
#
#######################################################################
#
# If this CIF has been generated from an entry in the Cambridge 
# Structural Database, then it will include bibliographic, chemical, 
# crystal, experimental, refinement or atomic coordinate data resulting 
# from the CCDC's data processing and validation procedures.
#
#######################################################################

data_RIZPOH
_chemical_formula_moiety         'C22 H29 P1'
_chemical_name_systematic        But-3-en-1-yl(dimesityl)phosphine
_symmetry_cell_setting           triclinic
_symmetry_space_group_name_H-M   'P -1'
_symmetry_Int_Tables_number      2
_space_group_name_Hall           '-P 1'
loop_
_symmetry_equiv_pos_site_id
_symmetry_equiv_pos_as_xyz
1 x,y,z
2 -x,-y,-z
_cell_length_a                   11.3351(6)
_cell_length_b                   11.4675(4)
_cell_length_c                   17.6404(5)
_cell_angle_alpha                87.588(4)
_cell_angle_beta                 77.145(3)
_cell_angle_gamma                61.359(3)
_cell_volume                     1956.39
_exptl_crystal_colour            colorless
_exptl_crystal_description       column
_cell_formula_units_Z            4
loop_
_atom_site_label
_atom_site_type_symbol
_atom_site_fract_x
_atom_site_fract_y
_atom_site_fract_z
P1 P 0.06286(5) 0.11823(4) 0.50430(3)
C1 C -0.0657(2) 0.22116(18) 0.44711(11)
H1 H -0.1328 0.1894 0.4504
H2 H -0.1156 0.3141 0.4685
C2 C 0.0085(2) 0.2120(2) 0.36173(11)
H3 H 0.0672 0.2537 0.3583
H4 H 0.0683 0.1180 0.3429
C3 C -0.0911(3) 0.2787(2) 0.31084(13)
H5 H -0.1580 0.2517 0.3129
C4 C -0.0947(4) 0.3698(3) 0.26424(16)
H6 H -0.0300 0.4002 0.2600
H7 H -0.1620 0.4056 0.2346
C5 C 0.15466(19) 0.21507(17) 0.50620(10)
C6 C 0.09939(19) 0.33522(17) 0.55309(10)
C7 C 0.1845(2) 0.38882(19) 0.55782(12)
H8 H 0.1481 0.4670 0.5902
C8 C 0.3211(2) 0.3317(2) 0.51667(13)
C9 C 0.3714(2) 0.2190(2) 0.46814(13)
H9 H 0.4624 0.1815 0.4379
C10 C 0.2923(2) 0.15882(19) 0.46229(11)
C11 C -0.0486(2) 0.40998(18) 0.59861(11)
H10 H -0.0607 0.3650 0.6451
H11 H -0.1092 0.4130 0.5666
H12 H -0.0710 0.5000 0.6134
C12 C 0.4105(3) 0.3930(3) 0.52432(18)
H13 H 0.5058 0.3328 0.4987
H14 H 0.4041 0.4086 0.5791
H15 H 0.3790 0.4769 0.5001
C13 C 0.3609(2) 0.0321(2) 0.40944(13)
H16 H 0.3869 -0.0442 0.4407
H17 H 0.4428 0.0252 0.3736
H18 H 0.2970 0.0340 0.3802
C14 C -0.01797(18) 0.12671(16) 0.60875(10)
C15 C 0.07885(19) 0.05872(18) 0.65509(11)
C16 C 0.0333(2) 0.0552(2) 0.73473(11)
H19 H 0.0990 0.0114 0.7648
C17 C -0.1054(2) 0.1138(2) 0.77106(11)
C18 C -0.1990(2) 0.17527(19) 0.72491(11)
H20 H -0.2937 0.2136 0.7485
C19 C -0.15986(19) 0.18320(17) 0.64524(11)
C20 C 0.2335(2) -0.0140(2) 0.62179(12)
H21 H 0.2665 0.0502 0.6106
H22 H 0.2540 -0.0661 0.5741
H23 H 0.2791 -0.0727 0.6594
C21 C -0.1523(3) 0.1102(3) 0.85773(13)
H24 H -0.1105 0.0185 0.8716
H25 H -0.2521 0.1490 0.8719
H26 H -0.1244 0.1606 0.8854
C22 C -0.27483(19) 0.2531(2) 0.60316(12)
H27 H -0.3630 0.2808 0.6396
H28 H -0.2635 0.1928 0.5619
H29 H -0.2719 0.3307 0.5808
P2 P 0.64869(5) 0.91844(5) 0.06339(3)
C23 C 0.5422(2) 0.8347(2) 0.08291(13)
H30 H 0.5254 0.8190 0.1384
H31 H 0.4528 0.8914 0.0700
C24 C 0.6177(3) 0.7017(2) 0.03349(16)
H32 H 0.6318 0.7187 -0.0218
H33 H 0.7088 0.6476 0.0450
C25 C 0.5405(3) 0.6268(3) 0.04841(18)
H34 H 0.4638 0.6556 0.0262
C26 C 0.5696(4) 0.5252(3) 0.0893(2)
H35 H 0.6455 0.4933 0.1124
H36 H 0.5150 0.4829 0.0960
C27 C 0.5791(2) 1.06426(18) 0.13387(11)
C28 C 0.4473(2) 1.12812(19) 0.18550(12)
C29 C 0.4161(2) 1.2338(2) 0.23683(13)
H37 H 0.3294 1.2740 0.2721
C30 C 0.5057(3) 1.2818(2) 0.23836(13)
C31 C 0.6310(3) 1.2236(2) 0.18431(14)
H38 H 0.6931 1.2564 0.1832
C32 C 0.6685(2) 1.11817(19) 0.13149(12)
C33 C 0.3356(2) 1.0915(2) 0.18809(15)
H39 H 0.3580 1.0091 0.2133
H40 H 0.3287 1.0799 0.1354
H41 H 0.2481 1.1620 0.2172
C34 C 0.4669(4) 1.3969(3) 0.29472(17)
H42 H 0.5448 1.3781 0.3168
H43 H 0.3889 1.4089 0.3362
H44 H 0.4422 1.4775 0.2674
C35 C 0.8043(3) 1.0682(2) 0.07190(14)
H45 H 0.8732 0.9861 0.0875
H46 H 0.8346 1.1347 0.0686
H47 H 0.7923 1.0518 0.0214
C36 C 0.8030(2) 0.79466(18) 0.09727(11)
C37 C 0.9268(2) 0.7244(2) 0.03980(12)
C38 C 1.0472(2) 0.6366(2) 0.06218(13)
H48 H 1.1290 0.5905 0.0235
C39 C 1.0513(2) 0.6146(2) 0.13948(14)
C40 C 0.9286(2) 0.6798(2) 0.19491(13)
H49 H 0.9291 0.6635 0.2475
C41 C 0.8046(2) 0.76845(19) 0.17608(11)
C42 C 0.9353(3) 0.7396(3) -0.04641(13)
H50 H 1.0305 0.6872 -0.0750
H51 H 0.9024 0.8326 -0.0564
H52 H 0.8786 0.7086 -0.0632
C43 C 1.1841(3) 0.5225(3) 0.16260(18)
H53 H 1.1973 0.5683 0.2023
H54 H 1.2606 0.4955 0.1173
H55 H 1.1800 0.4444 0.1831
C44 C 0.6790(2) 0.8314(2) 0.24289(12)
H56 H 0.6516 0.9247 0.2517
H57 H 0.7008 0.7862 0.2896
H58 H 0.6039 0.8237 0.2303
loop_
_geom_bond_atom_site_label_1
_geom_bond_atom_site_label_2
_geom_bond_site_symmetry_1
_geom_bond_site_symmetry_2
P1 C1 1_555 1_555
C1 H1 1_555 1_555
H2 C1 1_555 1_555
C2 C1 1_555 1_555
H3 C2 1_555 1_555
H4 C2 1_555 1_555
C3 C2 1_555 1_555
H5 C3 1_555 1_555
C4 C3 1_555 1_555
H6 C4 1_555 1_555
H7 C4 1_555 1_555
C5 P1 1_555 1_555
C6 C5 1_555 1_555
C7 C6 1_555 1_555
H8 C7 1_555 1_555
C8 C7 1_555 1_555
C9 C8 1_555 1_555
H9 C9 1_555 1_555
C10 C5 1_555 1_555
C11 C6 1_555 1_555
H10 C11 1_555 1_555
H11 C11 1_555 1_555
H12 C11 1_555 1_555
C12 C8 1_555 1_555
H13 C12 1_555 1_555
H14 C12 1_555 1_555
H15 C12 1_555 1_555
C13 C10 1_555 1_555
H16 C13 1_555 1_555
H17 C13 1_555 1_555
H18 C13 1_555 1_555
C14 P1 1_555 1_555
C15 C14 1_555 1_555
C16 C15 1_555 1_555
H19 C16 1_555 1_555
C17 C16 1_555 1_555
C18 C17 1_555 1_555
H20 C18 1_555 1_555
C19 C14 1_555 1_555
C20 C15 1_555 1_555
H21 C20 1_555 1_555
H22 C20 1_555 1_555
H23 C20 1_555 1_555
C21 C17 1_555 1_555
H24 C21 1_555 1_555
H25 C21 1_555 1_555
H26 C21 1_555 1_555
C22 C19 1_555 1_555
H27 C22 1_555 1_555
H28 C22 1_555 1_555
H29 C22 1_555 1_555
P2 C23 1_555 1_555
C23 H30 1_555 1_555
H31 C23 1_555 1_555
C24 C23 1_555 1_555
H32 C24 1_555 1_555
H33 C24 1_555 1_555
C25 C24 1_555 1_555
H34 C25 1_555 1_555
C26 C25 1_555 1_555
H35 C26 1_555 1_555
H36 C26 1_555 1_555
C27 P2 1_555 1_555
C28 C27 1_555 1_555
C29 C28 1_555 1_555
H37 C29 1_555 1_555
C30 C29 1_555 1_555
C31 C30 1_555 1_555
H38 C31 1_555 1_555
C32 C27 1_555 1_555
C33 C28 1_555 1_555
H39 C33 1_555 1_555
H40 C33 1_555 1_555
H41 C33 1_555 1_555
C34 C30 1_555 1_555
H42 C34 1_555 1_555
H43 C34 1_555 1_555
H44 C34 1_555 1_555
C35 C32 1_555 1_555
H45 C35 1_555 1_555
H46 C35 1_555 1_555
H47 C35 1_555 1_555
C36 P2 1_555 1_555
C37 C36 1_555 1_555
C38 C37 1_555 1_555
H48 C38 1_555 1_555
C39 C38 1_555 1_555
C40 C39 1_555 1_555
H49 C40 1_555 1_555
C41 C36 1_555 1_555
C42 C37 1_555 1_555
H50 C42 1_555 1_555
H51 C42 1_555 1_555
H52 C42 1_555 1_555
C43 C39 1_555 1_555
H53 C43 1_555 1_555
H54 C43 1_555 1_555
H55 C43 1_555 1_555
C44 C41 1_555 1_555
H56 C44 1_555 1_555
H57 C44 1_555 1_555
H58 C44 1_555 1_555
C9 C10 1_555 1_555
C18 C19 1_555 1_555
C31 C32 1_555 1_555
C40 C41 1_555 1_555

#END
