
#######################################################################
#
#                 Cambridge Crystallographic Data Centre
#                                CCDC 
#
#######################################################################
#
# If this CIF has been generated from an entry in the Cambridge 
# Structural Database, then it will include bibliographic, chemical, 
# crystal, experimental, refinement or atomic coordinate data resulting 
# from the CCDC's data processing and validation procedures.
#
#######################################################################

data_RIZQIC
_chemical_formula_moiety         'C20 H12 Cl2 N6'
_chemical_name_systematic        
2,3-Dichloro-5,10-bis(pyridin-2-yl)-5,10-dihydropyrazino[2,3-b]quinoxaline
_symmetry_cell_setting           orthorhombic
_symmetry_space_group_name_H-M   'P n m a'
_symmetry_Int_Tables_number      62
_space_group_name_Hall           '-P 2ac 2n'
loop_
_symmetry_equiv_pos_site_id
_symmetry_equiv_pos_as_xyz
1 x,y,z
2 1/2+x,1/2-y,1/2-z
3 -x,1/2+y,-z
4 1/2-x,-y,1/2+z
5 -x,-y,-z
6 1/2-x,1/2+y,1/2+z
7 x,1/2-y,z
8 1/2+x,y,1/2-z
_cell_length_a                   16.2880(6)
_cell_length_b                   19.2991(6)
_cell_length_c                   5.3395(2)
_cell_angle_alpha                90
_cell_angle_beta                 90
_cell_angle_gamma                90
_cell_volume                     1678.44
_exptl_crystal_colour            'pale yellow'
_exptl_crystal_description       rod
_cell_formula_units_Z            4
loop_
_atom_site_label
_atom_site_type_symbol
_atom_site_fract_x
_atom_site_fract_y
_atom_site_fract_z
Cl1 Cl 1.09340(4) 0.66831(3) 1.10121(13)
N1 N 0.98052(14) 0.67761(10) 0.7514(4)
N2 N 0.88033(13) 0.67731(10) 0.4401(4)
N3 N 0.83786(16) 0.57325(11) 0.6278(4)
C1 C 1.02962(16) 0.71474(14) 0.9043(5)
C2 C 0.93127(15) 0.71289(13) 0.6022(5)
C3 C 0.83212(15) 0.71379(13) 0.2625(5)
C4 C 0.78629(16) 0.67841(14) 0.0852(5)
H1 H 0.7882(15) 0.6280(14) 0.081(5)
C5 C 0.74094(17) 0.71437(15) -0.0936(6)
H2 H 0.7089(18) 0.6912(14) -0.213(6)
C6 C 0.87990(16) 0.60246(13) 0.4441(5)
C7 C 0.8366(2) 0.50377(14) 0.6306(6)
H3 H 0.808(2) 0.4895(15) 0.756(6)
C8 C 0.87515(17) 0.46280(14) 0.4541(6)
H4 H 0.8725(17) 0.4119(16) 0.463(6)
C9 C 0.9174(2) 0.49520(15) 0.2648(6)
H5 H 0.943(2) 0.4705(16) 0.154(6)
C10 C 0.91952(19) 0.56674(14) 0.2584(6)
H6 H 0.9488(19) 0.5893(15) 0.132(6)
Cl1F Cl 1.09340(4) 0.83169(3) 1.10121(13)
N1F N 0.98052(14) 0.82239(10) 0.7514(4)
N2F N 0.88033(13) 0.82269(10) 0.4401(4)
N3F N 0.83786(16) 0.92675(11) 0.6278(4)
C1F C 1.02962(16) 0.78526(14) 0.9043(5)
C2F C 0.93127(15) 0.78711(13) 0.6022(5)
C3F C 0.83212(15) 0.78621(13) 0.2625(5)
C4F C 0.78629(16) 0.82159(14) 0.0852(5)
H1F H 0.7882(15) 0.8720(14) 0.081(5)
C5F C 0.74094(17) 0.78563(15) -0.0936(6)
H2F H 0.7089(18) 0.8088(14) -0.213(6)
C6F C 0.87990(16) 0.89754(13) 0.4441(5)
C7F C 0.8366(2) 0.99623(14) 0.6306(6)
H3F H 0.808(2) 1.0105(15) 0.756(6)
C8F C 0.87515(17) 1.03720(14) 0.4541(6)
H4F H 0.8725(17) 1.0881(16) 0.463(6)
C9F C 0.9174(2) 1.00480(15) 0.2648(6)
H5F H 0.943(2) 1.0295(16) 0.154(6)
C10F C 0.91952(19) 0.93326(14) 0.2584(6)
H6F H 0.9488(19) 0.9107(15) 0.132(6)
loop_
_geom_bond_atom_site_label_1
_geom_bond_atom_site_label_2
_geom_bond_site_symmetry_1
_geom_bond_site_symmetry_2
Cl1 C1 1_555 1_555
N1 C1 1_555 1_555
N2 C2 1_555 1_555
N3 C6 1_555 1_555
C1 C1F 1_555 1_555
C2 N1 1_555 1_555
C3 N2 1_555 1_555
C4 C3 1_555 1_555
H1 C4 1_555 1_555
C5 C4 1_555 1_555
H2 C5 1_555 1_555
C6 N2 1_555 1_555
C7 N3 1_555 1_555
H3 C7 1_555 1_555
C8 C7 1_555 1_555
H4 C8 1_555 1_555
C9 C8 1_555 1_555
H5 C9 1_555 1_555
C10 C6 1_555 1_555
H6 C10 1_555 1_555
Cl1F C1F 1_555 1_555
N1F C1F 1_555 1_555
N2F C2F 1_555 1_555
N3F C6F 1_555 1_555
C2F C2 1_555 1_555
C3F C3 1_555 1_555
C4F C3F 1_555 1_555
H1F C4F 1_555 1_555
C5F C5 1_555 1_555
H2F C5F 1_555 1_555
C6F N2F 1_555 1_555
C7F N3F 1_555 1_555
H3F C7F 1_555 1_555
C8F C7F 1_555 1_555
H4F C8F 1_555 1_555
C9F C8F 1_555 1_555
H5F C9F 1_555 1_555
C10F C6F 1_555 1_555
H6F C10F 1_555 1_555
C9 C10 1_555 1_555
N1F C2F 1_555 1_555
N2F C3F 1_555 1_555
C4F C5F 1_555 1_555
C9F C10F 1_555 1_555

#END
