
#######################################################################
#
#                 Cambridge Crystallographic Data Centre
#                                CCDC 
#
#######################################################################
#
# If this CIF has been generated from an entry in the Cambridge 
# Structural Database, then it will include bibliographic, chemical, 
# crystal, experimental, refinement or atomic coordinate data resulting 
# from the CCDC's data processing and validation procedures.
#
#######################################################################

data_RIZQAU
_chemical_formula_moiety         'C45 H49 N5 O9,2(C2 H6 O1 S1)'
_chemical_name_systematic        
'Tetraethyl 3,4,19,20-tetraethyl-29-oxa-26,27,28,30,31-pentaazaheptacyclo[20.3.1.1^2,5^.1^6,9^.1^10,13^.1^14,17^.1^18,21^]hentriaconta-1(26),2,4,6,8,10,12,14,16,18,20,22,24-tridecaene-7,8,15,16-tetracarboxylate dimethyl sulfoxide solvate'
_symmetry_cell_setting           monoclinic
_symmetry_space_group_name_H-M   'I 2/a'
_symmetry_Int_Tables_number      15
_space_group_name_Hall           '-I 2ya'
loop_
_symmetry_equiv_pos_site_id
_symmetry_equiv_pos_as_xyz
1 x,y,z
2 1/2-x,y,-z
3 1/2+x,1/2+y,1/2+z
4 -x,1/2+y,1/2-z
5 -x,-y,-z
6 1/2+x,-y,z
7 1/2-x,1/2-y,1/2-z
8 x,1/2-y,1/2+z
_cell_length_a                   14.1607(9)
_cell_length_b                   21.6697(14)
_cell_length_c                   16.7388(9)
_cell_angle_alpha                90
_cell_angle_beta                 106.766(4)
_cell_angle_gamma                90
_cell_volume                     4918.09
_cell_formula_units_Z            4
loop_
_atom_site_label
_atom_site_type_symbol
_atom_site_fract_x
_atom_site_fract_y
_atom_site_fract_z
C1 C 0.2500 0.83468(14) 0.0000
H1 H 0.2500 0.8785 0.0000
C2 C 0.22124(18) 0.80335(10) 0.06115(14)
H2 H 0.2020 0.8251 0.1033
C3 C 0.22124(14) 0.73860(9) 0.05922(13)
C4 C 0.19197(14) 0.69834(9) 0.11886(12)
C5 C 0.14055(15) 0.70619(9) 0.17817(13)
C6 C 0.13200(15) 0.64734(9) 0.21274(12)
C7 C 0.17934(14) 0.60473(9) 0.17461(12)
C8 C 0.19321(13) 0.53816(9) 0.18027(11)
C9 C 0.20433(14) 0.49462(9) 0.24350(12)
C10 C 0.21633(14) 0.43560(9) 0.20951(12)
C11 C 0.21369(14) 0.44511(9) 0.12619(12)
C12 C 0.23295(14) 0.40774(9) 0.06085(11)
C13 C 0.23905(16) 0.34744(9) 0.03931(13)
H3 H 0.2305 0.3122 0.0703
C14 C 0.09470(17) 0.76443(10) 0.19978(15)
H4 H 0.1335 0.8005 0.1909
H5 H 0.0975 0.7634 0.2595
C15 C -0.0121(2) 0.77219(15) 0.1474(2)
H6 H -0.0144 0.7793 0.0890
H7 H -0.0413 0.8076 0.1680
H8 H -0.0493 0.7348 0.1514
C16 C 0.07340(16) 0.63269(11) 0.27252(14)
H9 H 0.0543 0.6718 0.2943
H10 H 0.1156 0.6092 0.3204
C17 C -0.01965(18) 0.59510(12) 0.23207(16)
H11 H -0.0639 0.6192 0.1871
H12 H -0.0533 0.5852 0.2741
H13 H -0.0014 0.5568 0.2091
C18 C 0.20464(15) 0.50758(10) 0.33066(12)
C19 C 0.1195(2) 0.4863(2) 0.43173(18)
H14 H 0.1844 0.4797 0.4733
H15 H 0.0973 0.5287 0.4387
C20 C 0.0486(4) 0.44189(15) 0.4451(3)
H16 H -0.0162 0.4498 0.4055
H17 H 0.0441 0.4459 0.5022
H18 H 0.0700 0.4000 0.4366
C21 C 0.23689(15) 0.37554(9) 0.25100(12)
C22 C 0.29242(18) 0.32312(11) 0.38101(14)
H19 H 0.2457 0.2908 0.3519
H20 H 0.2846 0.3285 0.4375
C23 C 0.39619(18) 0.30301(11) 0.38825(15)
H21 H 0.4010 0.2909 0.3332
H22 H 0.4136 0.2678 0.4265
H23 H 0.4417 0.3372 0.4098
N1 N 0.2500 0.70766(10) 0.0000
N2 N 0.21452(12) 0.63688(7) 0.11788(10)
H24 H 0.2469 0.6202 0.0856
N3 N 0.19810(11) 0.50651(7) 0.11042(10)
H25 H 0.1919 0.5238 0.0616
O1 O 0.2500 0.44461(8) 0.0000
O2 O 0.26277(12) 0.53983(9) 0.37927(10)
O3 O 0.12850(11) 0.47855(9) 0.34786(9)
O4 O 0.22734(12) 0.32626(7) 0.21484(10)
O5 O 0.26952(12) 0.38098(7) 0.33506(9)
C2A C 0.27876(18) 0.80335(10) -0.06115(14)
H2A H 0.2980 0.8251 -0.1033
C3A C 0.27876(14) 0.73860(9) -0.05922(13)
C4A C 0.30803(14) 0.69834(9) -0.11886(12)
C5A C 0.35945(15) 0.70619(9) -0.17817(13)
C6A C 0.36800(15) 0.64734(9) -0.21274(12)
C7A C 0.32066(14) 0.60473(9) -0.17461(12)
C8A C 0.30679(13) 0.53816(9) -0.18027(11)
C9A C 0.29567(14) 0.49462(9) -0.24350(12)
C10A C 0.28367(14) 0.43560(9) -0.20951(12)
C11A C 0.28631(14) 0.44511(9) -0.12619(12)
C12A C 0.26705(14) 0.40774(9) -0.06085(11)
C13A C 0.26095(16) 0.34744(9) -0.03931(13)
H3A H 0.2695 0.3122 -0.0703
C14A C 0.40530(17) 0.76443(10) -0.19978(15)
H4A H 0.3665 0.8005 -0.1909
H5A H 0.4025 0.7634 -0.2595
C15A C 0.5121(2) 0.77219(15) -0.1474(2)
H6A H 0.5144 0.7793 -0.0890
H7A H 0.5413 0.8076 -0.1680
H8A H 0.5493 0.7348 -0.1514
C16A C 0.42660(16) 0.63269(11) -0.27252(14)
H9A H 0.4457 0.6718 -0.2943
H10A H 0.3844 0.6092 -0.3204
C17A C 0.51965(18) 0.59510(12) -0.23207(16)
H11A H 0.5639 0.6192 -0.1871
H12A H 0.5533 0.5852 -0.2741
H13A H 0.5014 0.5568 -0.2091
C18A C 0.29536(15) 0.50758(10) -0.33066(12)
C19A C 0.3805(2) 0.4863(2) -0.43173(18)
H14A H 0.3156 0.4797 -0.4733
H15A H 0.4027 0.5287 -0.4387
C20A C 0.4514(4) 0.44189(15) -0.4451(3)
H16A H 0.5162 0.4498 -0.4055
H17A H 0.4559 0.4459 -0.5022
H18A H 0.4300 0.4000 -0.4366
C21A C 0.26311(15) 0.37554(9) -0.25100(12)
C22A C 0.20758(18) 0.32312(11) -0.38101(14)
H19A H 0.2543 0.2908 -0.3519
H20A H 0.2154 0.3285 -0.4375
C23A C 0.10381(18) 0.30301(11) -0.38825(15)
H21A H 0.0990 0.2909 -0.3332
H22A H 0.0864 0.2678 -0.4265
H23A H 0.0583 0.3372 -0.4098
N2A N 0.28548(12) 0.63688(7) -0.11788(10)
H24A H 0.2531 0.6202 -0.0856
N3A N 0.30190(11) 0.50651(7) -0.11042(10)
H25A H 0.3081 0.5238 -0.0616
O2A O 0.23723(12) 0.53983(9) -0.37927(10)
O3A O 0.37150(11) 0.47855(9) -0.34786(9)
O4A O 0.27266(12) 0.32626(7) -0.21484(10)
O5A O 0.23048(12) 0.38098(7) -0.33506(9)
C24 C 0.95410(19) 0.41424(15) 0.20158(16)
H26 H 0.9250 0.4501 0.2212
H27 H 1.0210 0.4075 0.2382
H28 H 0.9137 0.3777 0.2025
C25 C 0.99287(19) 0.35225(12) 0.0743(2)
H29 H 0.9428 0.3227 0.0799
H30 H 1.0568 0.3414 0.1133
H31 H 0.9978 0.3510 0.0171
O6 O 0.85236(10) 0.43503(6) 0.04686(9)
S1 S 0.95877(4) 0.42783(2) 0.09702(3)
loop_
_geom_bond_atom_site_label_1
_geom_bond_atom_site_label_2
_geom_bond_site_symmetry_1
_geom_bond_site_symmetry_2
C1 H1 1_555 1_555
C2 C1 1_555 1_555
H2 C2 1_555 1_555
C3 C2 1_555 1_555
C4 C3 1_555 1_555
C5 C4 1_555 1_555
C6 C5 1_555 1_555
C7 C6 1_555 1_555
C8 C7 1_555 1_555
C9 C8 1_555 1_555
C10 C9 1_555 1_555
C11 C10 1_555 1_555
C12 C11 1_555 1_555
C13 C12 1_555 1_555
H3 C13 1_555 1_555
C14 C5 1_555 1_555
H4 C14 1_555 1_555
H5 C14 1_555 1_555
C15 C14 1_555 1_555
H6 C15 1_555 1_555
H7 C15 1_555 1_555
H8 C15 1_555 1_555
C16 C6 1_555 1_555
H9 C16 1_555 1_555
H10 C16 1_555 1_555
C17 C16 1_555 1_555
H11 C17 1_555 1_555
H12 C17 1_555 1_555
H13 C17 1_555 1_555
C18 C9 1_555 1_555
C19 H14 1_555 1_555
H15 C19 1_555 1_555
C20 C19 1_555 1_555
H16 C20 1_555 1_555
H17 C20 1_555 1_555
H18 C20 1_555 1_555
C21 C10 1_555 1_555
C22 H19 1_555 1_555
H20 C22 1_555 1_555
C23 C22 1_555 1_555
H21 C23 1_555 1_555
H22 C23 1_555 1_555
H23 C23 1_555 1_555
N1 C3 1_555 1_555
N2 C4 1_555 1_555
H24 N2 1_555 1_555
N3 C8 1_555 1_555
H25 N3 1_555 1_555
O1 C12 1_555 1_555
O2 C18 1_555 1_555
O3 C18 1_555 1_555
O4 C21 1_555 1_555
O5 C21 1_555 1_555
C24 H26 1_555 1_555
H27 C24 1_555 1_555
H28 C24 1_555 1_555
C25 H29 1_555 1_555
H30 C25 1_555 1_555
H31 C25 1_555 1_555
O6 S1 1_555 1_555
S1 C24 1_555 1_555
C2A C1 1_555 1_555
H2A C2A 1_555 1_555
C3A N1 1_555 1_555
C4A C3A 1_555 1_555
C5A C4A 1_555 1_555
C6A C5A 1_555 1_555
C7A C6A 1_555 1_555
C8A C7A 1_555 1_555
C9A C8A 1_555 1_555
C10A C9A 1_555 1_555
C11A C10A 1_555 1_555
C12A O1 1_555 1_555
C13A C13 1_555 1_555
H3A C13A 1_555 1_555
C14A C5A 1_555 1_555
H4A C14A 1_555 1_555
H5A C14A 1_555 1_555
C15A C14A 1_555 1_555
H6A C15A 1_555 1_555
H7A C15A 1_555 1_555
H8A C15A 1_555 1_555
C16A C6A 1_555 1_555
H9A C16A 1_555 1_555
H10A C16A 1_555 1_555
C17A C16A 1_555 1_555
H11A C17A 1_555 1_555
H12A C17A 1_555 1_555
H13A C17A 1_555 1_555
C18A C9A 1_555 1_555
C19A H14A 1_555 1_555
H15A C19A 1_555 1_555
C20A C19A 1_555 1_555
H16A C20A 1_555 1_555
H17A C20A 1_555 1_555
H18A C20A 1_555 1_555
C21A C10A 1_555 1_555
C22A H19A 1_555 1_555
H20A C22A 1_555 1_555
C23A C22A 1_555 1_555
H21A C23A 1_555 1_555
H22A C23A 1_555 1_555
H23A C23A 1_555 1_555
N2A C4A 1_555 1_555
H24A N2A 1_555 1_555
N3A C8A 1_555 1_555
H25A N3A 1_555 1_555
O2A C18A 1_555 1_555
O3A C18A 1_555 1_555
O4A C21A 1_555 1_555
O5A C21A 1_555 1_555
C7 N2 1_555 1_555
C11 N3 1_555 1_555
C19 O3 1_555 1_555
C22 O5 1_555 1_555
C25 S1 1_555 1_555
C2A C3A 1_555 1_555
C7A N2A 1_555 1_555
C11A C12A 1_555 1_555
C11A N3A 1_555 1_555
C12A C13A 1_555 1_555
C19A O3A 1_555 1_555
C22A O5A 1_555 1_555

#END
