
#######################################################################
#
#                 Cambridge Crystallographic Data Centre
#                                CCDC 
#
#######################################################################
#
# If this CIF has been generated from an entry in the Cambridge 
# Structural Database, then it will include bibliographic, chemical, 
# crystal, experimental, refinement or atomic coordinate data resulting 
# from the CCDC's data processing and validation procedures.
#
#######################################################################

data_RIZRUN
_chemical_formula_moiety         'C14 H15 N2 1+,F6 P1 1-'
_chemical_name_systematic        
'3,4-Benzo-2,2-dimethyl-2-hydroquinazolinium hexafluorophosphate'
_symmetry_cell_setting           monoclinic
_symmetry_space_group_name_H-M   'P 21/n'
_symmetry_Int_Tables_number      14
_space_group_name_Hall           '-P 2yn'
loop_
_symmetry_equiv_pos_site_id
_symmetry_equiv_pos_as_xyz
1 x,y,z
2 1/2-x,1/2+y,1/2-z
3 -x,-y,-z
4 1/2+x,1/2-y,1/2+z
_cell_length_a                   8.258(2)
_cell_length_b                   10.036(4)
_cell_length_c                   17.976(7)
_cell_angle_alpha                90
_cell_angle_beta                 100.12(3)
_cell_angle_gamma                90
_cell_volume                     1466.62
_exptl_crystal_colour            colorless
_cell_formula_units_Z            4
loop_
_atom_site_label
_atom_site_type_symbol
_atom_site_fract_x
_atom_site_fract_y
_atom_site_fract_z
N1 N 0.2499(2) 0.6041(2) 0.4318(1)
C1 C 0.2010(3) 0.7273(2) 0.4498(1)
C2 C 0.1546(3) 0.7516(2) 0.5182(1)
C3 C 0.1583(3) 0.6480(2) 0.5694(1)
C4 C 0.2053(2) 0.5227(2) 0.5504(1)
C5 C 0.2505(2) 0.4987(2) 0.4799(1)
C6 C 0.3014(2) 0.3686(2) 0.4570(1)
C7 C 0.2724(3) 0.2507(2) 0.4941(1)
C8 C 0.3291(3) 0.1304(2) 0.4726(1)
C9 C 0.4195(3) 0.1262(2) 0.4135(1)
C10 C 0.4503(3) 0.2405(2) 0.3762(1)
C11 C 0.3899(2) 0.3625(2) 0.3966(1)
N2 N 0.4184(2) 0.4814(2) 0.3628(1)
C12 C 0.2889(3) 0.5805(2) 0.3526(1)
C13 C 0.3559(3) 0.7052(2) 0.3210(1)
C14 C 0.1297(3) 0.5325(2) 0.3031(1)
H1 H 0.1990(3) 0.7980(2) 0.4145(1)
H2 H 0.1205(3) 0.8382(2) 0.5303(1)
H3 H 0.1285(3) 0.6634(2) 0.6174(1)
H4 H 0.2071(2) 0.4517(2) 0.5854(1)
H5 H 0.2127(3) 0.2539(2) 0.5347(1)
H6 H 0.3073(3) 0.0507(2) 0.4976(1)
H7 H 0.4599(3) 0.0433(2) 0.3991(1)
H8 H 0.5125(3) 0.2365(2) 0.3366(1)
H9 H 0.5127(2) 0.4967(2) 0.3479(1)
H10 H 0.4575(3) 0.7327(2) 0.3542(1)
H11 H 0.2744(3) 0.7769(2) 0.3181(1)
H12 H 0.3789(3) 0.6866(2) 0.2704(1)
H13 H 0.0905(3) 0.4522(2) 0.3254(1)
H14 H 0.1505(3) 0.5122(2) 0.2523(1)
H15 H 0.0460(3) 0.6025(2) 0.3000(1)
P1 P 0.6339(1) 0.4530(1) 0.1786(1)
F1 F 0.5663(2) 0.4573(1) 0.0897(1)
F2 F 0.6963(2) 0.4479(2) 0.2679(1)
F3 F 0.4479(2) 0.4431(2) 0.1936(1)
F4 F 0.6248(3) 0.6093(2) 0.1828(1)
F5 F 0.8161(2) 0.4591(2) 0.1642(1)
F6 F 0.6369(2) 0.2948(2) 0.1733(1)
loop_
_geom_bond_atom_site_label_1
_geom_bond_atom_site_label_2
_geom_bond_site_symmetry_1
_geom_bond_site_symmetry_2
N1 C1 1_555 1_555
C1 C2 1_555 1_555
C2 C3 1_555 1_555
C3 C4 1_555 1_555
C4 C5 1_555 1_555
C5 N1 1_555 1_555
C6 C5 1_555 1_555
C7 C6 1_555 1_555
C8 C7 1_555 1_555
C9 C8 1_555 1_555
C10 C9 1_555 1_555
C11 C6 1_555 1_555
N2 C11 1_555 1_555
C12 N1 1_555 1_555
C13 C12 1_555 1_555
C14 C12 1_555 1_555
P1 F1 1_555 1_555
F2 P1 1_555 1_555
F3 P1 1_555 1_555
F4 P1 1_555 1_555
F5 P1 1_555 1_555
F6 P1 1_555 1_555
H1 C1 1_555 1_555
H2 C2 1_555 1_555
H3 C3 1_555 1_555
H4 C4 1_555 1_555
H5 C7 1_555 1_555
H6 C8 1_555 1_555
H7 C9 1_555 1_555
H8 C10 1_555 1_555
H9 N2 1_555 1_555
H10 C13 1_555 1_555
H11 C13 1_555 1_555
H12 C13 1_555 1_555
H13 C14 1_555 1_555
H14 C14 1_555 1_555
H15 C14 1_555 1_555
C10 C11 1_555 1_555
N2 C12 1_555 1_555

#END
