
#######################################################################
#
#                 Cambridge Crystallographic Data Centre
#                                CCDC 
#
#######################################################################
#
# If this CIF has been generated from an entry in the Cambridge 
# Structural Database, then it will include bibliographic, chemical, 
# crystal, experimental, refinement or atomic coordinate data resulting 
# from the CCDC's data processing and validation procedures.
#
#######################################################################

data_RIZZEG
_chemical_name_common            
"N-(3,3-diphenyl-2,3-dihydropentalen-1-yl)-N'-methylethane-1,2-diamine methanol solvate"
_chemical_formula_moiety         'C23 H24 N2,C1 H4 O1'
_chemical_name_systematic        
'3-(N-(2-(methylamino)ethyl)amino)-1,1-diphenyl-1,2-dihydropentalene methanol solvate'
_symmetry_cell_setting           monoclinic
_symmetry_space_group_name_H-M   'P 21/c'
_symmetry_Int_Tables_number      14
_space_group_name_Hall           '-P 2ybc'
loop_
_symmetry_equiv_pos_site_id
_symmetry_equiv_pos_as_xyz
1 x,y,z
2 -x,1/2+y,1/2-z
3 -x,-y,-z
4 x,1/2-y,1/2+z
_cell_length_a                   16.8122(13)
_cell_length_b                   9.1808(7)
_cell_length_c                   12.9098(10)
_cell_angle_alpha                90
_cell_angle_beta                 94.489(2)
_cell_angle_gamma                90
_cell_volume                     1986.51
_exptl_crystal_colour            yellow
_exptl_crystal_description       block
_cell_formula_units_Z            4
_exptl_crystal_recrystallization_method hexane
loop_
_atom_site_label
_atom_site_type_symbol
_atom_site_fract_x
_atom_site_fract_y
_atom_site_fract_z
O1 O 0.11390(16) 0.7107(3) 0.08783(18)
H1 H 0.1166 0.8001 0.1017
C1 C 0.1199(4) 0.6910(7) -0.0148(5)
H2 H 0.1257 0.7857 -0.0484
H3 H 0.0718 0.6424 -0.0454
H4 H 0.1667 0.6305 -0.0252
N1 N 0.07045(17) 0.5104(4) 0.2349(2)
H5 H 0.080(2) 0.574(4) 0.183(3)
N2 N -0.12171(17) 0.4942(3) 0.3640(2)
H6 H -0.139(2) 0.540(4) 0.420(3)
C2 C -0.1853(2) 0.5208(4) 0.2817(3)
H7 H -0.2372 0.5009 0.3083
H8 H -0.1778 0.4567 0.2225
H9 H -0.1833 0.6227 0.2592
C3 C 0.1338(2) 0.4614(4) 0.2913(3)
C4 C 0.2159(2) 0.5089(5) 0.2663(3)
H10 H 0.2197 0.6165 0.2673
H11 H 0.2272 0.4740 0.1963
C5 C 0.2767(2) 0.4421(5) 0.3501(3)
C6 C 0.2226(2) 0.3479(4) 0.4093(3)
C7 C 0.2264(2) 0.2496(5) 0.4901(3)
H12 H 0.2733 0.2187 0.5298
C8 C 0.1467(2) 0.2027(4) 0.5031(3)
H13 H 0.1325 0.1334 0.5531
C9 C 0.0938(2) 0.2714(4) 0.4337(3)
H14 H 0.0375 0.2598 0.4270
C10 C 0.1403(2) 0.3642(4) 0.3730(3)
C11 C -0.01114(19) 0.4671(4) 0.2517(3)
H15 H -0.0122 0.3618 0.2681
H16 H -0.0457 0.4834 0.1870
C12 C -0.0438(2) 0.5523(4) 0.3396(3)
H17 H -0.0059 0.5465 0.4021
H18 H -0.0497 0.6560 0.3195
C13 C 0.3209(9) 0.5579(19) 0.4289(13)
C14 C 0.3507(6) 0.5150(11) 0.5262(7)
H19 H 0.3406 0.4184 0.5479
C15 C 0.3952(6) 0.6066(13) 0.5946(9)
H20 H 0.4156 0.5753 0.6616
C16 C 0.4086(8) 0.7531(16) 0.5570(11)
H21 H 0.4390 0.8196 0.6003
C17 C 0.3809(7) 0.7938(13) 0.4691(9)
H22 H 0.3908 0.8908 0.4481
C18 C 0.3355(6) 0.7012(12) 0.3996(9)
H23 H 0.3152 0.7363 0.3336
C19 C 0.3414(4) 0.3428(6) 0.2986(5)
C20 C 0.3526(4) 0.1991(7) 0.3148(5)
H24 H 0.3228 0.1501 0.3638
C21 C 0.4077(4) 0.1200(9) 0.2600(6)
H25 H 0.4160 0.0189 0.2723
C22 C 0.4491(5) 0.1923(10) 0.1887(7)
H26 H 0.4877 0.1410 0.1530
C23 C 0.4386(4) 0.3099(9) 0.1717(6)
H27 H 0.4667 0.3515 0.1178
C24 C 0.3836(6) 0.4101(12) 0.2265(8)
H28 H 0.3790 0.5113 0.2118
C25? C 0.3286(10) 0.5218(18) 0.4292(14)
C26? C 0.4067(6) 0.5059(12) 0.4654(8)
H29? H 0.4356 0.4239 0.4436
C27? C 0.4446(6) 0.6040(11) 0.5320(8)
H30? H 0.5001 0.5920 0.5505
C28? C 0.4064(9) 0.7168(18) 0.5720(12)
H31? H 0.4319 0.7737 0.6264
C29? C 0.3263(14) 0.750(3) 0.5317(17)
H32? H 0.3004 0.8379 0.5494
C30? C 0.2877(10) 0.6440(18) 0.4631(14)
H33? H 0.2331 0.6568 0.4402
C31? C 0.3059(7) 0.5994(14) 0.3972(9)
C32? C 0.3264(6) 0.7216(12) 0.3434(10)
H34? H 0.3240 0.7191 0.2696
C33? C 0.3509(6) 0.8499(13) 0.3960(9)
H35? H 0.3652 0.9335 0.3583
C34? C 0.3538(8) 0.8530(16) 0.4999(11)
H36? H 0.3695 0.9398 0.5360
C35? C 0.3332(10) 0.7247(18) 0.5579(14)
H37? H 0.3371 0.7250 0.6317
C36? C 0.3084(8) 0.6047(16) 0.5036(11)
H38? H 0.2922 0.5216 0.5404
C37? C 0.3409(7) 0.3958(13) 0.2966(10)
C38? C 0.3912(8) 0.2928(14) 0.3584(11)
H39? H 0.3792 0.2732 0.4278
C39? C 0.4574(9) 0.2209(16) 0.3189(11)
H40? H 0.4902 0.1571 0.3616
C40? C 0.4731(9) 0.2465(17) 0.2156(11)
H41? H 0.5084 0.1856 0.1812
C41? C 0.4336(5) 0.3695(11) 0.1630(7)
H42? H 0.4537 0.4116 0.1030
C42? C 0.3712(10) 0.4185(17) 0.2002(13)
H43? H 0.3399 0.4812 0.1549
loop_
_geom_bond_atom_site_label_1
_geom_bond_atom_site_label_2
_geom_bond_site_symmetry_1
_geom_bond_site_symmetry_2
O1 H1 1_555 1_555
C1 O1 1_555 1_555
H2 C1 1_555 1_555
H3 C1 1_555 1_555
H4 C1 1_555 1_555
N1 H5 1_555 1_555
N2 H6 1_555 1_555
C2 N2 1_555 1_555
H7 C2 1_555 1_555
H8 C2 1_555 1_555
H9 C2 1_555 1_555
C3 N1 1_555 1_555
C4 C3 1_555 1_555
H10 C4 1_555 1_555
H11 C4 1_555 1_555
C5 C4 1_555 1_555
C6 C5 1_555 1_555
C7 C6 1_555 1_555
H12 C7 1_555 1_555
C8 C7 1_555 1_555
H13 C8 1_555 1_555
C9 C8 1_555 1_555
H14 C9 1_555 1_555
C10 C3 1_555 1_555
C11 N1 1_555 1_555
H15 C11 1_555 1_555
H16 C11 1_555 1_555
C12 N2 1_555 1_555
H17 C12 1_555 1_555
H18 C12 1_555 1_555
C13 C5 1_555 1_555
C14 C13 1_555 1_555
H19 C14 1_555 1_555
C15 C14 1_555 1_555
H20 C15 1_555 1_555
C16 C15 1_555 1_555
H21 C16 1_555 1_555
C17 C16 1_555 1_555
H22 C17 1_555 1_555
C18 C13 1_555 1_555
H23 C18 1_555 1_555
C19 C5 1_555 1_555
C20 C19 1_555 1_555
H24 C20 1_555 1_555
C21 C20 1_555 1_555
H25 C21 1_555 1_555
C22 C21 1_555 1_555
H26 C22 1_555 1_555
C23 C22 1_555 1_555
H27 C23 1_555 1_555
C24 C19 1_555 1_555
H28 C24 1_555 1_555
C6 C10 1_555 1_555
C9 C10 1_555 1_555
C11 C12 1_555 1_555
C17 C18 1_555 1_555
C23 C24 1_555 1_555

#END
