
#######################################################################
#
#                 Cambridge Crystallographic Data Centre
#                                CCDC 
#
#######################################################################
#
# If this CIF has been generated from an entry in the Cambridge 
# Structural Database, then it will include bibliographic, chemical, 
# crystal, experimental, refinement or atomic coordinate data resulting 
# from the CCDC's data processing and validation procedures.
#
#######################################################################

data_ROBDET
_chemical_formula_moiety         'C24 H22 O3'
_chemical_name_systematic        
'Benzyl 2-hydroxy-1-methyl-2-phenylindane-1-carboxylate'
_symmetry_cell_setting           monoclinic
_symmetry_space_group_name_H-M   'P 21/n'
_symmetry_Int_Tables_number      14
_space_group_name_Hall           '-P 2yn'
loop_
_symmetry_equiv_pos_site_id
_symmetry_equiv_pos_as_xyz
1 x,y,z
2 1/2-x,1/2+y,1/2-z
3 -x,-y,-z
4 1/2+x,1/2-y,1/2+z
_cell_length_a                   10.7148(6)
_cell_length_b                   10.3476(6)
_cell_length_c                   17.2186(12)
_cell_angle_alpha                90
_cell_angle_beta                 97.936(6)
_cell_angle_gamma                90
_cell_volume                     1890.79
_cell_formula_units_Z            4
loop_
_atom_site_label
_atom_site_type_symbol
_atom_site_fract_x
_atom_site_fract_y
_atom_site_fract_z
C1 C 0.25310(14) 0.45198(15) 0.06632(10)
C2 C 0.30866(16) 0.57551(16) 0.03497(11)
H1 H 0.3952 0.5913 0.0617
H2 H 0.3107 0.5692 -0.0222
C3 C 0.22090(15) 0.68067(16) 0.05328(10)
C4 C 0.21151(17) 0.80649(17) 0.02511(12)
H3 H 0.2644 0.8357 -0.0113
C5 C 0.12396(19) 0.88874(17) 0.05081(13)
H4 H 0.1167 0.9750 0.0319
C6 C 0.04707(19) 0.84636(18) 0.10378(14)
H5 H -0.0136 0.9034 0.1202
C7 C 0.05746(17) 0.72165(17) 0.13311(12)
H6 H 0.0057 0.6931 0.1703
C8 C 0.14502(15) 0.63942(15) 0.10704(10)
C9 C 0.17942(14) 0.50302(15) 0.13452(10)
C10 C 0.25867(16) 0.50905(18) 0.21569(11)
H7 H 0.2084 0.5469 0.2533
H8 H 0.3335 0.5625 0.2130
H9 H 0.2848 0.4216 0.2326
C11 C 0.06616(15) 0.41605(15) 0.13597(10)
C12 C 0.00757(16) 0.20224(16) 0.16159(11)
H10 H 0.0469 0.1168 0.1561
H11 H -0.0547 0.2169 0.1143
C13 C -0.05973(15) 0.20036(16) 0.23256(11)
C14 C -0.15585(16) 0.11140(18) 0.23526(12)
H12 H -0.1773 0.0536 0.1926
C15 C -0.22113(18) 0.1057(2) 0.29952(14)
H13 H -0.2869 0.0444 0.3008
C16 C -0.1900(2) 0.1892(2) 0.36125(14)
H14 H -0.2353 0.1871 0.4049
C17 C -0.0933(2) 0.2757(2) 0.35974(14)
H15 H -0.0708 0.3319 0.4030
C18 C -0.0281(2) 0.28195(18) 0.29558(12)
H16 H 0.0384 0.3425 0.2950
C19 C 0.34844(15) 0.34564(16) 0.08977(10)
C20 C 0.31904(16) 0.21714(16) 0.07210(11)
H17 H 0.2386 0.1959 0.0446
C21 C 0.40513(17) 0.11980(18) 0.09396(13)
H18 H 0.3832 0.0325 0.0815
C22 C 0.52252(17) 0.14828(19) 0.13362(13)
H19 H 0.5814 0.0811 0.1486
C23 C 0.55361(17) 0.27499(19) 0.15135(14)
H20 H 0.6345 0.2955 0.1785
C24 C 0.46773(16) 0.37230(17) 0.12981(12)
H21 H 0.4904 0.4593 0.1425
O1 O 0.16002(10) 0.39770(11) 0.00801(7)
H22 H 0.1256 0.4570 -0.0207
O2 O -0.04264(10) 0.44307(11) 0.11449(7)
O3 O 0.10288(10) 0.30012(10) 0.16547(7)
loop_
_geom_bond_atom_site_label_1
_geom_bond_atom_site_label_2
_geom_bond_site_symmetry_1
_geom_bond_site_symmetry_2
C1 C2 1_555 1_555
C2 H1 1_555 1_555
H2 C2 1_555 1_555
C3 C2 1_555 1_555
C4 C3 1_555 1_555
H3 C4 1_555 1_555
C5 C4 1_555 1_555
H4 C5 1_555 1_555
C6 C5 1_555 1_555
H5 C6 1_555 1_555
C7 C6 1_555 1_555
H6 C7 1_555 1_555
C8 C3 1_555 1_555
C9 C1 1_555 1_555
C10 C9 1_555 1_555
H7 C10 1_555 1_555
H8 C10 1_555 1_555
H9 C10 1_555 1_555
C11 C9 1_555 1_555
C12 H10 1_555 1_555
H11 C12 1_555 1_555
C13 C12 1_555 1_555
C14 C13 1_555 1_555
H12 C14 1_555 1_555
C15 C14 1_555 1_555
H13 C15 1_555 1_555
C16 C15 1_555 1_555
H14 C16 1_555 1_555
C17 C16 1_555 1_555
H15 C17 1_555 1_555
C18 C13 1_555 1_555
H16 C18 1_555 1_555
C19 C1 1_555 1_555
C20 C19 1_555 1_555
H17 C20 1_555 1_555
C21 C20 1_555 1_555
H18 C21 1_555 1_555
C22 C21 1_555 1_555
H19 C22 1_555 1_555
C23 C22 1_555 1_555
H20 C23 1_555 1_555
C24 C19 1_555 1_555
H21 C24 1_555 1_555
O1 C1 1_555 1_555
H22 O1 1_555 1_555
O2 C11 1_555 1_555
O3 C11 1_555 1_555
C7 C8 1_555 1_555
C8 C9 1_555 1_555
C12 O3 1_555 1_555
C17 C18 1_555 1_555
C23 C24 1_555 1_555

#END
