
#######################################################################
#
#                 Cambridge Crystallographic Data Centre
#                                CCDC 
#
#######################################################################
#
# If this CIF has been generated from an entry in the Cambridge 
# Structural Database, then it will include bibliographic, chemical, 
# crystal, experimental, refinement or atomic coordinate data resulting 
# from the CCDC's data processing and validation procedures.
#
#######################################################################

data_ROBWAI
_chemical_formula_moiety         'C23 H20 F1 N3 O4 S1'
_chemical_name_systematic        
N-(2-(4,5-dihydro-1,3-oxazol-2-yl)phenyl)-5-fluoro-2-(((4-methylphenyl)sulfonyl)amino)benzamide
_symmetry_cell_setting           triclinic
_symmetry_space_group_name_H-M   'P -1'
_symmetry_Int_Tables_number      2
_space_group_name_Hall           '-P 1'
loop_
_symmetry_equiv_pos_site_id
_symmetry_equiv_pos_as_xyz
1 x,y,z
2 -x,-y,-z
_cell_length_a                   8.9759(10)
_cell_length_b                   11.1688(13)
_cell_length_c                   12.3629(14)
_cell_angle_alpha                68.596(2)
_cell_angle_beta                 69.139(2)
_cell_angle_gamma                77.785(2)
_cell_volume                     1073.5
_exptl_crystal_colour            colorless
_exptl_crystal_description       prismatic
_cell_formula_units_Z            2
loop_
_atom_site_label
_atom_site_type_symbol
_atom_site_fract_x
_atom_site_fract_y
_atom_site_fract_z
S1 S 0.62957(6) 0.51812(5) 0.23486(5)
F1 F 0.1597(2) 1.00852(16) 0.38159(13)
N1 N 0.5990(2) 0.67267(17) 0.16686(16)
N2 N 0.3065(2) 0.95122(15) -0.02542(14)
N3 N 0.0930(2) 1.15219(16) 0.00408(15)
O1 O 0.4943(2) 0.78249(16) -0.02041(13)
O2 O -0.0045(2) 1.26696(16) -0.15109(15)
O3 O 0.74002(19) 0.47045(16) 0.14117(15)
O4 O 0.66985(19) 0.50058(16) 0.34154(15)
C1 C 0.4832(2) 0.75718(17) 0.22181(16)
C2 C 0.4675(3) 0.7531(2) 0.33923(18)
H1 H 0.5331 0.6931 0.3814
C3 C 0.3576(3) 0.8353(2) 0.3938(2)
H2 H 0.3451 0.8296 0.4735
C4 C 0.2672(3) 0.9254(2) 0.32902(19)
C5 C 0.2790(3) 0.93478(19) 0.21337(18)
H3 H 0.2147 0.9980 0.1723
C6 C 0.3868(2) 0.85019(16) 0.15628(15)
C7 C 0.4007(2) 0.85774(17) 0.03014(16)
C8 C 0.2904(2) 0.97982(17) -0.14142(16)
C9 C 0.3784(3) 0.9106(2) -0.22138(18)
H4 H 0.4537 0.8430 -0.1995
C10 C 0.3542(3) 0.9418(3) -0.3319(2)
H5 H 0.4136 0.8947 -0.3843
C11 C 0.2454(4) 1.0402(3) -0.3671(2)
H6 H 0.2301 1.0598 -0.4425
C12 C 0.1582(3) 1.1104(2) -0.2900(2)
H7 H 0.0834 1.1774 -0.3138
C13 C 0.1794(2) 1.08335(19) -0.17732(17)
C14 C 0.0894(2) 1.16547(18) -0.10127(18)
C15 C -0.0083(3) 1.2603(2) 0.0415(2)
H8 H 0.0542 1.3132 0.0529
H9 H -0.0934 1.2295 0.1169
C16 C -0.0757(3) 1.3356(2) -0.0626(3)
H10 H -0.1915 1.3373 -0.0352
H11 H -0.0465 1.4236 -0.0973
C17 C 0.4474(2) 0.45404(17) 0.28159(17)
C18 C 0.4095(3) 0.4106(2) 0.2037(2)
H12 H 0.4814 0.4140 0.1271
C19 C 0.2661(3) 0.3629(2) 0.2407(3)
H13 H 0.2421 0.3326 0.1886
C20 C 0.1544(3) 0.3578(2) 0.3529(3)
C21 C 0.1950(3) 0.4027(2) 0.4290(3)
H14 H 0.1220 0.4009 0.5050
C22 C 0.3396(3) 0.4496(2) 0.39481(19)
H15 H 0.3650 0.4781 0.4474
C23 C -0.0032(3) 0.3049(3) 0.3933(4)
H16 H -0.0773 0.3705 0.3595
H17 H -0.0445 0.2780 0.4807
H18 H 0.0108 0.2322 0.3655
H19 H 0.602(2) 0.6859(19) 0.0976(14)
H20 H 0.246(2) 0.9996(17) 0.0090(13)
loop_
_geom_bond_atom_site_label_1
_geom_bond_atom_site_label_2
_geom_bond_site_symmetry_1
_geom_bond_site_symmetry_2
S1 N1 1_555 1_555
F1 C4 1_555 1_555
N1 C1 1_555 1_555
N2 C7 1_555 1_555
N3 C14 1_555 1_555
O1 C7 1_555 1_555
O2 C14 1_555 1_555
O3 S1 1_555 1_555
O4 S1 1_555 1_555
C1 C2 1_555 1_555
C2 H1 1_555 1_555
C3 C2 1_555 1_555
H2 C3 1_555 1_555
C4 C3 1_555 1_555
C5 C4 1_555 1_555
H3 C5 1_555 1_555
C6 C1 1_555 1_555
C7 C6 1_555 1_555
C8 N2 1_555 1_555
C9 C8 1_555 1_555
H4 C9 1_555 1_555
C10 C9 1_555 1_555
H5 C10 1_555 1_555
C11 C10 1_555 1_555
H6 C11 1_555 1_555
C12 C11 1_555 1_555
H7 C12 1_555 1_555
C13 C8 1_555 1_555
C14 C13 1_555 1_555
C15 N3 1_555 1_555
H8 C15 1_555 1_555
H9 C15 1_555 1_555
C16 O2 1_555 1_555
H10 C16 1_555 1_555
H11 C16 1_555 1_555
C17 S1 1_555 1_555
C18 C17 1_555 1_555
H12 C18 1_555 1_555
C19 C18 1_555 1_555
H13 C19 1_555 1_555
C20 C19 1_555 1_555
C21 C20 1_555 1_555
H14 C21 1_555 1_555
C22 C17 1_555 1_555
H15 C22 1_555 1_555
C23 C20 1_555 1_555
H16 C23 1_555 1_555
H17 C23 1_555 1_555
H18 C23 1_555 1_555
H19 N1 1_555 1_555
H20 N2 1_555 1_555
C5 C6 1_555 1_555
C12 C13 1_555 1_555
C15 C16 1_555 1_555
C21 C22 1_555 1_555

#END
