
#######################################################################
#
#                 Cambridge Crystallographic Data Centre
#                                CCDC 
#
#######################################################################
#
# If this CIF has been generated from an entry in the Cambridge 
# Structural Database, then it will include bibliographic, chemical, 
# crystal, experimental, refinement or atomic coordinate data resulting 
# from the CCDC's data processing and validation procedures.
#
#######################################################################

data_ROBXUD
_chemical_formula_moiety         'C23 H30 N2 O5 S1'
_chemical_name_systematic        
N-((8-(methoxyimino)-3,5a-dimethyl-2-oxo-2,3,3a,4,5,5a,6,7,8,9b-decahydronaphtho[1,2-b]furan-9-yl)methyl)-4-methylbenzenesulfonamide
_symmetry_cell_setting           monoclinic
_symmetry_space_group_name_H-M   'P 21'
_symmetry_Int_Tables_number      4
_space_group_name_Hall           'P 2yb'
loop_
_symmetry_equiv_pos_site_id
_symmetry_equiv_pos_as_xyz
1 x,y,z
2 -x,1/2+y,-z
_cell_length_a                   9.0914(4)
_cell_length_b                   10.2457(5)
_cell_length_c                   11.6359(6)
_cell_angle_alpha                90
_cell_angle_beta                 92.762(3)
_cell_angle_gamma                90
_cell_volume                     1082.6
_exptl_crystal_colour            white
_exptl_crystal_description       platy
_cell_formula_units_Z            2
loop_
_atom_site_label
_atom_site_type_symbol
_atom_site_fract_x
_atom_site_fract_y
_atom_site_fract_z
N1 N -0.1691(3) -0.3014(3) 0.2271(2)
N2 N -0.2143(3) -0.0327(3) 0.2928(2)
H1 H -0.2541 -0.0993 0.3238
O1 O -0.1788(3) -0.4362(2) 0.2536(2)
O2 O -0.2766(3) 0.2028(2) 0.2835(2)
O3 O -0.2797(2) 0.0805(3) 0.46661(19)
O4 O 0.0530(2) 0.1379(2) 0.09296(19)
O5 O 0.0573(3) 0.3556(2) 0.0798(2)
S1 S -0.21366(8) 0.10495(7) 0.35913(7)
C1 C 0.3795(4) 0.3436(3) 0.1344(3)
H2 H 0.4824 0.3241 0.1304
H3 H 0.3561 0.3548 0.2134
H4 H 0.3572 0.4224 0.0926
C2 C 0.2894(3) 0.2323(3) 0.0822(3)
H5 H 0.3159 0.2208 0.0022
C3 C 0.1240(3) 0.2550(3) 0.0840(3)
C4 C 0.1621(3) 0.0332(3) 0.0957(3)
H6 H 0.1783 0.0095 0.0157
C5 C 0.3021(3) 0.1002(3) 0.1432(2)
H7 H 0.2920 0.1150 0.2257
C6 C 0.4339(3) 0.0130(3) 0.1294(3)
H8 H 0.5232 0.0561 0.1581
H9 H 0.4439 -0.0085 0.0490
C7 C 0.4064(3) -0.1112(3) 0.1995(3)
H10 H 0.4875 -0.1710 0.1896
H11 H 0.4074 -0.0878 0.2803
C8 C 0.2602(3) -0.1838(3) 0.1679(3)
C9 C 0.2749(4) -0.2552(4) 0.0518(3)
H12 H 0.3583 -0.3127 0.0573
H13 H 0.2883 -0.1922 -0.0079
H14 H 0.1873 -0.3049 0.0340
C10 C 0.2378(4) -0.2824(3) 0.2648(3)
H15 H 0.3181 -0.3449 0.2665
H16 H 0.2420 -0.2365 0.3378
C11 C 0.0938(3) -0.3556(3) 0.2522(3)
H17 H 0.0994 -0.4193 0.1909
H18 H 0.0776 -0.4023 0.3229
C12 C -0.0336(3) -0.2658(3) 0.2257(2)
C13 C -0.0084(3) -0.1294(3) 0.1891(2)
C14 C 0.1259(3) -0.0909(3) 0.1582(2)
C15 C -0.3303(4) -0.4715(4) 0.2443(3)
H19 H -0.3404 -0.5625 0.2620
H20 H -0.3686 -0.4554 0.1673
H21 H -0.3841 -0.4205 0.2973
C16 C -0.1486(3) -0.0478(3) 0.1801(3)
H22 H -0.1261 0.0377 0.1498
H23 H -0.2194 -0.0893 0.1268
C17 C -0.0272(3) 0.1500(3) 0.3893(3)
C18 C 0.0704(4) 0.0598(3) 0.4391(3)
H24 H 0.0397 -0.0252 0.4527
C19 C 0.2145(3) 0.0973(4) 0.4685(3)
H25 H 0.2804 0.0366 0.5007
C20 C 0.2614(4) 0.2263(4) 0.4501(3)
C21 C 0.1611(4) 0.3141(4) 0.3998(3)
H26 H 0.1910 0.3995 0.3873
C22 C 0.0175(4) 0.2782(3) 0.3677(3)
H27 H -0.0474 0.3379 0.3328
C23 C 0.4180(4) 0.2664(4) 0.4820(3)
H28 H 0.4309 0.3570 0.4639
H29 H 0.4846 0.2147 0.4395
H30 H 0.4379 0.2531 0.5629
loop_
_geom_bond_atom_site_label_1
_geom_bond_atom_site_label_2
_geom_bond_site_symmetry_1
_geom_bond_site_symmetry_2
N1 O1 1_555 1_555
N2 H1 1_555 1_555
O1 C15 1_555 1_555
O2 S1 1_555 1_555
O3 S1 1_555 1_555
O4 C3 1_555 1_555
O5 C3 1_555 1_555
S1 N2 1_555 1_555
C1 H2 1_555 1_555
H3 C1 1_555 1_555
H4 C1 1_555 1_555
C2 C1 1_555 1_555
H5 C2 1_555 1_555
C3 C2 1_555 1_555
C4 O4 1_555 1_555
H6 C4 1_555 1_555
C5 C2 1_555 1_555
H7 C5 1_555 1_555
C6 C5 1_555 1_555
H8 C6 1_555 1_555
H9 C6 1_555 1_555
C7 C6 1_555 1_555
H10 C7 1_555 1_555
H11 C7 1_555 1_555
C8 C7 1_555 1_555
C9 C8 1_555 1_555
H12 C9 1_555 1_555
H13 C9 1_555 1_555
H14 C9 1_555 1_555
C10 C8 1_555 1_555
H15 C10 1_555 1_555
H16 C10 1_555 1_555
C11 C10 1_555 1_555
H17 C11 1_555 1_555
H18 C11 1_555 1_555
C12 N1 1_555 1_555
C13 C12 1_555 1_555
C14 C4 1_555 1_555
C15 H19 1_555 1_555
H20 C15 1_555 1_555
H21 C15 1_555 1_555
C16 N2 1_555 1_555
H22 C16 1_555 1_555
H23 C16 1_555 1_555
C17 S1 1_555 1_555
C18 C17 1_555 1_555
H24 C18 1_555 1_555
C19 C18 1_555 1_555
H25 C19 1_555 1_555
C20 C19 1_555 1_555
C21 C20 1_555 1_555
H26 C21 1_555 1_555
C22 C17 1_555 1_555
H27 C22 1_555 1_555
C23 C20 1_555 1_555
H28 C23 1_555 1_555
H29 C23 1_555 1_555
H30 C23 1_555 1_555
C4 C5 1_555 1_555
C8 C14 1_555 1_555
C11 C12 1_555 1_555
C13 C14 1_555 1_555
C13 C16 1_555 1_555
C21 C22 1_555 1_555

#END
