
#######################################################################
#
#                 Cambridge Crystallographic Data Centre
#                                CCDC 
#
#######################################################################
#
# If this CIF has been generated from an entry in the Cambridge 
# Structural Database, then it will include bibliographic, chemical, 
# crystal, experimental, refinement or atomic coordinate data resulting 
# from the CCDC's data processing and validation procedures.
#
#######################################################################

data_ROBXOX
_chemical_formula_moiety         'C38 H60 N2 O3 S1'
_chemical_name_systematic        
N-(3-(methoxyimino)lanost-8-en-29-yl)-4-methylbenzenesulfonamide
_symmetry_cell_setting           orthorhombic
_symmetry_space_group_name_H-M   'P 21 21 21'
_symmetry_Int_Tables_number      19
_space_group_name_Hall           'P 2ac 2ab'
loop_
_symmetry_equiv_pos_site_id
_symmetry_equiv_pos_as_xyz
1 x,y,z
2 1/2-x,-y,1/2+z
3 -x,1/2+y,1/2-z
4 1/2+x,1/2-y,-z
_cell_length_a                   6.0620(5)
_cell_length_b                   12.0849(10)
_cell_length_c                   48.626(4)
_cell_angle_alpha                90
_cell_angle_beta                 90
_cell_angle_gamma                90
_cell_volume                     3562.28
_exptl_crystal_colour            colorless
_exptl_crystal_description       Needle
_cell_formula_units_Z            4
loop_
_atom_site_label
_atom_site_type_symbol
_atom_site_fract_x
_atom_site_fract_y
_atom_site_fract_z
C1 C 0.0848(9) 0.7216(4) 0.92619(10)
C2 C -0.0520(9) 0.8198(5) 0.91647(10)
C3 C 0.0128(9) 0.8482(4) 0.88639(9)
H1 H 0.1674 0.8766 0.8877
C4 C -0.1171(9) 0.9423(4) 0.87340(10)
H2 H -0.2659 0.9156 0.8683
H3 H -0.1349 1.0028 0.8869
C5 C -0.0002(9) 0.9860(4) 0.84805(10)
H4 H -0.1086 1.0261 0.8365
H5 H 0.1134 1.0399 0.8539
C6 C 0.1074(9) 0.8989(4) 0.83090(9)
C7 C 0.2132(8) 0.9387(4) 0.80427(9)
C8 C 0.1094(9) 1.0373(4) 0.78962(10)
H6 H 0.1594 1.1078 0.7979
H7 H -0.0536 1.0338 0.7906
C9 C 0.1905(9) 1.0268(4) 0.75952(10)
H8 H 0.2980 1.0861 0.7553
H9 H 0.0647 1.0334 0.7467
C10 C 0.3014(9) 0.9113(4) 0.75652(9)
H10 H 0.4629 0.9215 0.7598
C11 C 0.2062(8) 0.8473(4) 0.78167(9)
C12 C 0.3285(9) 0.7460(4) 0.79242(9)
H11 H 0.4865 0.7643 0.7949
H12 H 0.3176 0.6854 0.7788
C13 C 0.2319(9) 0.7072(4) 0.82000(9)
H13 H 0.1195 0.6500 0.8160
H14 H 0.3516 0.6706 0.8304
C14 C 0.1268(8) 0.7925(4) 0.83874(9)
C15 C 0.0264(9) 0.7487(4) 0.86583(10)
C16 C 0.1741(9) 0.6605(4) 0.87857(10)
H15 H 0.3268 0.6894 0.8795
H16 H 0.1753 0.5948 0.8664
C17 C 0.1022(10) 0.6247(4) 0.90743(10)
H17 H -0.0425 0.5870 0.9063
H18 H 0.2107 0.5714 0.9149
N1 N 0.1713(7) 0.7313(3) 0.95013(8)
O1 O 0.2932(7) 0.6351(3) 0.95795(7)
C18 C 0.3832(11) 0.6556(5) 0.98443(11)
H19 H 0.4801 0.7204 0.9836
H20 H 0.4682 0.5910 0.9904
H21 H 0.2633 0.6695 0.9975
C19 C -0.2993(9) 0.7942(5) 0.92022(11)
H22 H -0.3331 0.7220 0.9121
H23 H -0.3872 0.8516 0.9111
H24 H -0.3350 0.7928 0.9399
C20 C -0.0076(9) 0.9237(5) 0.93479(10)
H25 H -0.1026 0.9854 0.9286
H26 H -0.0462 0.9065 0.9541
N2 N 0.2245(8) 0.9576(3) 0.93329(8)
H27 H 0.3036 0.9091 0.9440
S1 S 0.2926(3) 1.08207(12) 0.94297(3)
O2 O 0.5277(7) 1.0882(3) 0.93962(8)
O3 O 0.1518(8) 1.1584(3) 0.92917(8)
C21 C 0.2326(10) 1.0926(4) 0.97819(10)
C22 C 0.3879(10) 1.0569(5) 0.99727(13)
H28 H 0.5263 1.0294 0.9912
C23 C 0.3412(11) 1.0614(5) 1.02507(12)
H29 H 0.4466 1.0351 1.0380
C24 C 0.1407(12) 1.1041(5) 1.03441(12)
C25 C -0.0082(11) 1.1405(5) 1.01548(13)
H30 H -0.1441 1.1709 1.0216
C26 C 0.0339(10) 1.1344(4) 0.98695(12)
H31 H -0.0733 1.1587 0.9740
C27 C 0.0905(15) 1.1092(6) 1.06501(11)
H32 H 0.1839 1.1655 1.0737
H33 H 0.1204 1.0370 1.0734
H34 H -0.0650 1.1284 1.0677
C28 C 0.4522(9) 0.9737(4) 0.81182(10)
H35 H 0.4480 1.0279 0.8268
H36 H 0.5236 1.0067 0.7957
H37 H 0.5359 0.9085 0.8177
C29 C 0.2750(9) 0.8646(4) 0.72753(9)
H38 H 0.1138 0.8566 0.7237
C30 C 0.3831(10) 0.7512(4) 0.72428(11)
H39 H 0.3639 0.7252 0.7053
H40 H 0.3139 0.6986 0.7370
H41 H 0.5409 0.7569 0.7285
C31 C 0.3729(10) 0.9468(4) 0.70642(10)
H42 H 0.2912 1.0175 0.7079
H43 H 0.5280 0.9618 0.7116
C32 C 0.3684(10) 0.9102(5) 0.67647(10)
H44 H 0.4297 0.9704 0.6650
H45 H 0.4658 0.8450 0.6744
C33 C 0.1410(10) 0.8808(4) 0.66581(10)
H46 H 0.0417 0.9445 0.6691
H47 H 0.0840 0.8177 0.6767
C34 C 0.1282(11) 0.8506(5) 0.63546(11)
H48 H 0.1840 0.9148 0.6245
C35 C 0.2717(12) 0.7499(5) 0.62882(12)
H49 H 0.4274 0.7718 0.6288
H50 H 0.2320 0.7211 0.6106
H51 H 0.2476 0.6925 0.6427
C36 C -0.1117(12) 0.8288(6) 0.62705(13)
H52 H -0.1652 0.7619 0.6363
H53 H -0.1199 0.8187 0.6071
H54 H -0.2034 0.8920 0.6324
C37 C -0.0349(8) 0.8139(4) 0.77547(10)
H55 H -0.0363 0.7534 0.7620
H56 H -0.1146 0.8776 0.7679
H57 H -0.1066 0.7894 0.7925
C38 C -0.1974(9) 0.6972(4) 0.85806(10)
H58 H -0.1786 0.6490 0.8420
H59 H -0.3025 0.7562 0.8536
H60 H -0.2535 0.6538 0.8736
loop_
_geom_bond_atom_site_label_1
_geom_bond_atom_site_label_2
_geom_bond_site_symmetry_1
_geom_bond_site_symmetry_2
C1 C2 1_555 1_555
C2 C3 1_555 1_555
C3 H1 1_555 1_555
C4 C3 1_555 1_555
H2 C4 1_555 1_555
H3 C4 1_555 1_555
C5 C4 1_555 1_555
H4 C5 1_555 1_555
H5 C5 1_555 1_555
C6 C5 1_555 1_555
C7 C6 1_555 1_555
C8 C7 1_555 1_555
H6 C8 1_555 1_555
H7 C8 1_555 1_555
C9 C8 1_555 1_555
H8 C9 1_555 1_555
H9 C9 1_555 1_555
C10 C9 1_555 1_555
H10 C10 1_555 1_555
C11 C7 1_555 1_555
C12 C11 1_555 1_555
H11 C12 1_555 1_555
H12 C12 1_555 1_555
C13 C12 1_555 1_555
H13 C13 1_555 1_555
H14 C13 1_555 1_555
C14 C6 1_555 1_555
C15 C3 1_555 1_555
C16 C15 1_555 1_555
H15 C16 1_555 1_555
H16 C16 1_555 1_555
C17 C1 1_555 1_555
H17 C17 1_555 1_555
H18 C17 1_555 1_555
N1 C1 1_555 1_555
O1 N1 1_555 1_555
C18 O1 1_555 1_555
H19 C18 1_555 1_555
H20 C18 1_555 1_555
H21 C18 1_555 1_555
C19 C2 1_555 1_555
H22 C19 1_555 1_555
H23 C19 1_555 1_555
H24 C19 1_555 1_555
C20 C2 1_555 1_555
H25 C20 1_555 1_555
H26 C20 1_555 1_555
N2 C20 1_555 1_555
H27 N2 1_555 1_555
S1 N2 1_555 1_555
O2 S1 1_555 1_555
O3 S1 1_555 1_555
C21 S1 1_555 1_555
C22 C21 1_555 1_555
H28 C22 1_555 1_555
C23 C22 1_555 1_555
H29 C23 1_555 1_555
C24 C23 1_555 1_555
C25 C24 1_555 1_555
H30 C25 1_555 1_555
C26 C21 1_555 1_555
H31 C26 1_555 1_555
C27 C24 1_555 1_555
H32 C27 1_555 1_555
H33 C27 1_555 1_555
H34 C27 1_555 1_555
C28 C7 1_555 1_555
H35 C28 1_555 1_555
H36 C28 1_555 1_555
H37 C28 1_555 1_555
C29 C10 1_555 1_555
H38 C29 1_555 1_555
C30 C29 1_555 1_555
H39 C30 1_555 1_555
H40 C30 1_555 1_555
H41 C30 1_555 1_555
C31 C29 1_555 1_555
H42 C31 1_555 1_555
H43 C31 1_555 1_555
C32 C31 1_555 1_555
H44 C32 1_555 1_555
H45 C32 1_555 1_555
C33 C32 1_555 1_555
H46 C33 1_555 1_555
H47 C33 1_555 1_555
C34 C33 1_555 1_555
H48 C34 1_555 1_555
C35 C34 1_555 1_555
H49 C35 1_555 1_555
H50 C35 1_555 1_555
H51 C35 1_555 1_555
C36 C34 1_555 1_555
H52 C36 1_555 1_555
H53 C36 1_555 1_555
H54 C36 1_555 1_555
C37 C11 1_555 1_555
H55 C37 1_555 1_555
H56 C37 1_555 1_555
H57 C37 1_555 1_555
C38 C15 1_555 1_555
H58 C38 1_555 1_555
H59 C38 1_555 1_555
H60 C38 1_555 1_555
C10 C11 1_555 1_555
C13 C14 1_555 1_555
C14 C15 1_555 1_555
C16 C17 1_555 1_555
C25 C26 1_555 1_555

#END
