
#######################################################################
#
#                 Cambridge Crystallographic Data Centre
#                                CCDC 
#
#######################################################################
#
# If this CIF has been generated from an entry in the Cambridge 
# Structural Database, then it will include bibliographic, chemical, 
# crystal, experimental, refinement or atomic coordinate data resulting 
# from the CCDC's data processing and validation procedures.
#
#######################################################################

data_ROBYIS
_chemical_formula_moiety         'C18 H26 N2 O5 S1'
_chemical_name_systematic        
'ethyl 2-(methoxyimino)-1-((((4-methylphenyl)sulfonyl)amino)methyl)cyclohexanecarboxylate'
_symmetry_cell_setting           triclinic
_symmetry_space_group_name_H-M   'P -1'
_symmetry_Int_Tables_number      2
_space_group_name_Hall           '-P 1'
loop_
_symmetry_equiv_pos_site_id
_symmetry_equiv_pos_as_xyz
1 x,y,z
2 -x,-y,-z
_cell_length_a                   9.2259(5)
_cell_length_b                   10.2376(5)
_cell_length_c                   11.1572(6)
_cell_angle_alpha                69.550(3)
_cell_angle_beta                 76.935(3)
_cell_angle_gamma                84.815(3)
_cell_volume                     961.761
_exptl_crystal_colour            white
_exptl_crystal_description       platy
_cell_formula_units_Z            2
loop_
_atom_site_label
_atom_site_type_symbol
_atom_site_fract_x
_atom_site_fract_y
_atom_site_fract_z
S1 S 1.14629(5) 1.04836(4) 0.12041(4)
N1 N 1.00317(16) 0.95455(15) 0.21388(13)
H1 H 0.9216 0.9547 0.1854
O1 O 1.10513(14) 1.11974(12) -0.00359(12)
O2 O 1.18779(15) 1.12813(13) 0.19042(13)
O3 O 0.89305(16) 0.54762(13) 0.25908(13)
N2 N 0.92531(17) 0.66407(15) 0.28814(14)
C1 C 0.86748(19) 0.80026(17) 0.42657(15)
C2 C 1.01645(19) 0.86959(18) 0.34806(16)
H2 H 1.0462 0.9294 0.3913
H3 H 1.0945 0.7970 0.3454
O4 O 0.77011(16) 1.01082(14) 0.45661(14)
C3 C 1.29043(19) 0.92838(17) 0.09980(16)
C4 C 0.8305(2) 0.68330(18) 0.38353(16)
C5 C 1.5131(2) 0.80405(19) 0.15419(17)
H4 H 1.5923 0.7888 0.1993
C6 C 1.50679(19) 0.72448(18) 0.07659(17)
C7 C 1.40530(19) 0.90572(18) 0.16687(16)
H5 H 1.4104 0.9588 0.2207
C8 C 1.2831(2) 0.8519(2) 0.01978(19)
H6 H 1.2051 0.8687 -0.0269
C9 C 0.74772(19) 0.91556(18) 0.40529(17)
C10 C 0.8718(2) 0.73664(19) 0.57335(16)
H7 H 0.9568 0.6703 0.5846
H8 H 0.8875 0.8117 0.6057
O5 O 0.64906(15) 0.92207(16) 0.34922(15)
C11 C 0.7279(2) 0.6609(2) 0.65411(18)
H9 H 0.7340 0.6227 0.7475
H10 H 0.6432 0.7278 0.6455
C12 C 1.3908(2) 0.7512(2) 0.0091(2)
H11 H 1.3859 0.6989 -0.0454
C13 C 1.6214(2) 0.6127(2) 0.0653(2)
H12 H 1.6929 0.6078 0.1197
H13 H 1.6737 0.6348 -0.0261
H14 H 1.5721 0.5227 0.0950
C14 C 0.6955(2) 0.5963(2) 0.46318(19)
H15 H 0.6923 0.5165 0.4332
H16 H 0.6041 0.6533 0.4501
C15 C 0.7009(3) 0.5423(2) 0.60873(19)
H17 H 0.6056 0.4968 0.6607
H18 H 0.7815 0.4716 0.6240
C16 C 0.9992(2) 0.5447(2) 0.14418(19)
H19 H 0.9799 0.4647 0.1214
H20 H 1.0999 0.5365 0.1611
H21 H 0.9904 0.6310 0.0715
C17 C 0.6772(3) 1.1350(2) 0.4329(3)
H22 H 0.6676 1.1721 0.5052
H23 H 0.5765 1.1112 0.4304
C18 C 0.7409(3) 1.2414(3) 0.3090(3)
H24 H 0.6772 1.3251 0.2953
H25 H 0.7476 1.2056 0.2371
H26 H 0.8406 1.2649 0.3115
loop_
_geom_bond_atom_site_label_1
_geom_bond_atom_site_label_2
_geom_bond_site_symmetry_1
_geom_bond_site_symmetry_2
S1 N1 1_555 1_555
N1 H1 1_555 1_555
O1 S1 1_555 1_555
O2 S1 1_555 1_555
O3 N2 1_555 1_555
N2 C4 1_555 1_555
C1 C2 1_555 1_555
C2 N1 1_555 1_555
H2 C2 1_555 1_555
H3 C2 1_555 1_555
O4 C9 1_555 1_555
C3 S1 1_555 1_555
C4 C1 1_555 1_555
C5 H4 1_555 1_555
C6 C5 1_555 1_555
C7 C3 1_555 1_555
H5 C7 1_555 1_555
C8 C3 1_555 1_555
H6 C8 1_555 1_555
C9 C1 1_555 1_555
C10 C1 1_555 1_555
H7 C10 1_555 1_555
H8 C10 1_555 1_555
O5 C9 1_555 1_555
C11 C10 1_555 1_555
H9 C11 1_555 1_555
H10 C11 1_555 1_555
C12 C6 1_555 1_555
H11 C12 1_555 1_555
C13 C6 1_555 1_555
H12 C13 1_555 1_555
H13 C13 1_555 1_555
H14 C13 1_555 1_555
C14 C4 1_555 1_555
H15 C14 1_555 1_555
H16 C14 1_555 1_555
C15 C11 1_555 1_555
H17 C15 1_555 1_555
H18 C15 1_555 1_555
C16 O3 1_555 1_555
H19 C16 1_555 1_555
H20 C16 1_555 1_555
H21 C16 1_555 1_555
C17 O4 1_555 1_555
H22 C17 1_555 1_555
H23 C17 1_555 1_555
C18 C17 1_555 1_555
H24 C18 1_555 1_555
H25 C18 1_555 1_555
H26 C18 1_555 1_555
C5 C7 1_555 1_555
C8 C12 1_555 1_555
C14 C15 1_555 1_555

#END
