
#######################################################################
#
#                 Cambridge Crystallographic Data Centre
#                                CCDC 
#
#######################################################################
#
# If this CIF has been generated from an entry in the Cambridge 
# Structural Database, then it will include bibliographic, chemical, 
# crystal, experimental, refinement or atomic coordinate data resulting 
# from the CCDC's data processing and validation procedures.
#
#######################################################################

data_ROBYEM02
_chemical_formula_moiety         'C10 H16 D1 N2 O4 1+,3(D2 O1),Cl1 1-'
_chemical_name_systematic        
'(4-((^2^H)Carboxymethyl)-1,4-diazoniabicyclo[2.2.2]oct-1-yl)acetate chloride tris(deuterium oxide)'
_symmetry_cell_setting           monoclinic
_symmetry_space_group_name_H-M   'P 21/n'
_symmetry_Int_Tables_number      14
_space_group_name_Hall           '-P 2yn'
loop_
_symmetry_equiv_pos_site_id
_symmetry_equiv_pos_as_xyz
1 x,y,z
2 1/2-x,1/2+y,1/2-z
3 -x,-y,-z
4 1/2+x,1/2-y,1/2+z
_cell_length_a                   6.992(2)
_cell_length_b                   11.728(4)
_cell_length_c                   17.769(6)
_cell_angle_alpha                90
_cell_angle_beta                 98.469(5)
_cell_angle_gamma                90
_cell_volume                     1441.21
_exptl_crystal_colour            colorless
_exptl_crystal_description       block
_cell_formula_units_Z            4
loop_
_atom_site_label
_atom_site_type_symbol
_atom_site_fract_x
_atom_site_fract_y
_atom_site_fract_z
O1 O 0.2426(3) 0.60600(15) 0.03456(11)
N1 N 0.3038(3) 0.40463(16) 0.13185(11)
O2 O 0.1167(4) -0.00079(19) 0.13221(16)
N2 N 0.3312(3) 0.19585(16) 0.09142(12)
O3 O 0.2499(4) 0.71555(16) 0.13855(13)
D1 D 0.3015 0.7841 0.1049
C1 C 0.3504(4) 0.2048(2) 0.17674(15)
H1 H 0.2441(4) 0.1651(2) 0.19468(15)
H2 H 0.4701(4) 0.1689(2) 0.19955(15)
C2 C 0.2582(4) 0.6193(2) 0.10310(15)
O4 O 0.2716(4) -0.11234(17) 0.05960(14)
C3 C 0.1361(4) 0.2437(2) 0.05864(16)
H3 H 0.0346(4) 0.1966(2) 0.07413(16)
H4 H 0.1221(4) 0.2429(2) 0.00351(16)
C4 C 0.2914(4) 0.52426(19) 0.16181(14)
H5 H 0.4108(4) 0.54045(19) 0.19534(14)
H6 H 0.1875(4) 0.52668(19) 0.19244(14)
C5 C 0.1170(4) 0.3648(2) 0.08650(17)
H7 H 0.0820(4) 0.4149(2) 0.04327(17)
H8 H 0.0149(4) 0.3682(2) 0.11793(17)
C6 C 0.2354(5) -0.0184(2) 0.08844(17)
C7 C 0.4855(4) 0.2680(2) 0.06390(18)
H9 H 0.6120(4) 0.2414(2) 0.08694(18)
H10 H 0.4771(4) 0.2602(2) 0.00917(18)
C8 C 0.3624(4) 0.0762(2) 0.06417(16)
H11 H 0.4961(4) 0.0557(2) 0.08122(16)
H12 H 0.3443(4) 0.0775(2) 0.00900(16)
C9 C 0.4623(4) 0.3916(2) 0.08350(18)
H13 H 0.4311(4) 0.4360(2) 0.03725(18)
H14 H 0.5829(4) 0.4202(2) 0.11100(18)
C10 C 0.3501(5) 0.3281(2) 0.20044(15)
H15 H 0.4760(5) 0.3481(2) 0.22788(15)
H16 H 0.2549(5) 0.3394(2) 0.23432(15)
O5 O -0.2026(4) -0.1433(2) 0.11599(16)
D2 D -0.0853 -0.1139 0.1215
D3 D -0.2919 -0.0956 0.1158
Cl1 Cl -0.35810(13) -0.03406(8) 0.25419(5)
O6 O -0.2427(5) -0.3772(3) 0.1015(2)
D4 D -0.1495 -0.4094 0.1342
D5 D -0.2651 -0.2979 0.1177
O7 O -0.3614(5) -0.3002(3) 0.3000(2)
D6 D -0.3643 -0.3823 0.2951
D7 D -0.3807 -0.2701 0.2538
loop_
_geom_bond_atom_site_label_1
_geom_bond_atom_site_label_2
_geom_bond_site_symmetry_1
_geom_bond_site_symmetry_2
O1 C2 1_555 1_555
N1 C4 1_555 1_555
O2 C6 1_555 1_555
N2 C1 1_555 1_555
O3 D1 1_555 1_555
C1 H1 1_555 1_555
H2 C1 1_555 1_555
C2 O3 1_555 1_555
O4 C6 1_555 1_555
C3 N2 1_555 1_555
H3 C3 1_555 1_555
H4 C3 1_555 1_555
C4 C2 1_555 1_555
H5 C4 1_555 1_555
H6 C4 1_555 1_555
C5 N1 1_555 1_555
H7 C5 1_555 1_555
H8 C5 1_555 1_555
C6 C8 1_555 1_555
C7 N2 1_555 1_555
H9 C7 1_555 1_555
H10 C7 1_555 1_555
C8 N2 1_555 1_555
H11 C8 1_555 1_555
H12 C8 1_555 1_555
C9 N1 1_555 1_555
H13 C9 1_555 1_555
H14 C9 1_555 1_555
C10 N1 1_555 1_555
H15 C10 1_555 1_555
H16 C10 1_555 1_555
O5 D2 1_555 1_555
D3 O5 1_555 1_555
O6 D4 1_555 1_555
D5 O6 1_555 1_555
O7 D6 1_555 1_555
D7 O7 1_555 1_555
C1 C10 1_555 1_555
C3 C5 1_555 1_555
C7 C9 1_555 1_555

#END
