
#######################################################################
#
#                 Cambridge Crystallographic Data Centre
#                                CCDC 
#
#######################################################################
#
# If this CIF has been generated from an entry in the Cambridge 
# Structural Database, then it will include bibliographic, chemical, 
# crystal, experimental, refinement or atomic coordinate data resulting 
# from the CCDC's data processing and validation procedures.
#
#######################################################################

data_ROBYEO
_chemical_formula_moiety         'C16 H26 N2 O3 S1'
_chemical_name_systematic        
N-(2-ethyl-3-(methoxyimino)hexyl)-4-methylbenzenesulfonamide
_symmetry_cell_setting           monoclinic
_symmetry_space_group_name_H-M   'P 21/c'
_symmetry_Int_Tables_number      14
_space_group_name_Hall           '-P 2ybc'
loop_
_symmetry_equiv_pos_site_id
_symmetry_equiv_pos_as_xyz
1 x,y,z
2 -x,1/2+y,1/2-z
3 -x,-y,-z
4 x,1/2-y,1/2+z
_cell_length_a                   13.1014(13)
_cell_length_b                   12.7136(11)
_cell_length_c                   10.5927(10)
_cell_angle_alpha                90
_cell_angle_beta                 95.941(3)
_cell_angle_gamma                90
_cell_volume                     1754.91
_exptl_crystal_colour            white
_exptl_crystal_description       block
_cell_formula_units_Z            4
loop_
_atom_site_label
_atom_site_type_symbol
_atom_site_fract_x
_atom_site_fract_y
_atom_site_fract_z
S1 S 0.02997(6) 0.87541(7) 0.15557(8)
N1 N 0.1154(2) 0.9024(2) 0.0610(3)
H1 H 0.1185 0.9655 0.0275
N2 N 0.3147(2) 1.0404(2) -0.0695(3)
O1 O 0.08255(17) 0.83814(19) 0.2722(2)
O2 O -0.03317(17) 0.96863(18) 0.1569(2)
O3 O 0.37607(18) 1.12280(19) -0.0126(2)
C1 C 0.4115(3) 1.0048(3) 0.3577(4)
H2 H 0.3803 1.0436 0.4239
H3 H 0.4776 1.0368 0.3444
H4 H 0.4222 0.9314 0.3840
C2 C 0.3406(3) 1.0089(3) 0.2346(3)
H5 H 0.3289 1.0833 0.2094
H6 H 0.2734 0.9779 0.2490
C3 C 0.3844(3) 0.9498(3) 0.1265(3)
H7 H 0.4541 0.9771 0.1177
H8 H 0.3912 0.8745 0.1499
C4 C 0.3212(2) 0.9583(3) 0.0005(3)
C5 C 0.2620(3) 0.8644(3) -0.0561(3)
H9 H 0.2205 0.8885 -0.1354
C6 C 0.1878(2) 0.8199(3) 0.0317(3)
H10 H 0.1498 0.7598 -0.0097
H11 H 0.2263 0.7944 0.1111
C7 C 0.3686(3) 1.2094(3) -0.0980(4)
H12 H 0.4105 1.2677 -0.0611
H13 H 0.2968 1.2319 -0.1133
H14 H 0.3932 1.1882 -0.1785
C8 C 0.3331(3) 0.7769(3) -0.0928(4)
H15 H 0.2910 0.7181 -0.1309
H16 H 0.3733 0.7502 -0.0152
C9 C 0.4070(3) 0.8129(3) -0.1868(4)
H17 H 0.4510 0.7539 -0.2062
H18 H 0.4497 0.8704 -0.1493
H19 H 0.3678 0.8373 -0.2651
C10 C -0.0442(2) 0.7712(3) 0.0861(3)
C11 C -0.1076(3) 0.7890(3) -0.0257(3)
H20 H -0.1149 0.8578 -0.0606
C12 C -0.1595(3) 0.7051(3) -0.0851(3)
H21 H -0.2022 0.7169 -0.1618
C13 C -0.1509(3) 0.6041(3) -0.0356(3)
C14 C -0.0881(3) 0.5887(3) 0.0769(3)
H22 H -0.0816 0.5202 0.1127
C15 C -0.0348(3) 0.6713(3) 0.1375(3)
H23 H 0.0080 0.6595 0.2142
C16 C -0.2052(3) 0.5121(3) -0.1032(4)
H24 H -0.2454 0.5369 -0.1806
H25 H -0.2510 0.4790 -0.0473
H26 H -0.1544 0.4606 -0.1255
loop_
_geom_bond_atom_site_label_1
_geom_bond_atom_site_label_2
_geom_bond_site_symmetry_1
_geom_bond_site_symmetry_2
S1 N1 1_555 1_555
N1 H1 1_555 1_555
N2 O3 1_555 1_555
O1 S1 1_555 1_555
O2 S1 1_555 1_555
O3 C7 1_555 1_555
C1 H2 1_555 1_555
H3 C1 1_555 1_555
H4 C1 1_555 1_555
C2 C1 1_555 1_555
H5 C2 1_555 1_555
H6 C2 1_555 1_555
C3 C2 1_555 1_555
H7 C3 1_555 1_555
H8 C3 1_555 1_555
C4 N2 1_555 1_555
C5 C4 1_555 1_555
H9 C5 1_555 1_555
C6 N1 1_555 1_555
H10 C6 1_555 1_555
H11 C6 1_555 1_555
C7 H12 1_555 1_555
H13 C7 1_555 1_555
H14 C7 1_555 1_555
C8 C5 1_555 1_555
H15 C8 1_555 1_555
H16 C8 1_555 1_555
C9 C8 1_555 1_555
H17 C9 1_555 1_555
H18 C9 1_555 1_555
H19 C9 1_555 1_555
C10 S1 1_555 1_555
C11 C10 1_555 1_555
H20 C11 1_555 1_555
C12 C11 1_555 1_555
H21 C12 1_555 1_555
C13 C12 1_555 1_555
C14 C13 1_555 1_555
H22 C14 1_555 1_555
C15 C10 1_555 1_555
H23 C15 1_555 1_555
C16 C13 1_555 1_555
H24 C16 1_555 1_555
H25 C16 1_555 1_555
H26 C16 1_555 1_555
C3 C4 1_555 1_555
C5 C6 1_555 1_555
C14 C15 1_555 1_555

#END
