
#######################################################################
#
#                 Cambridge Crystallographic Data Centre
#                                CCDC 
#
#######################################################################
#
# If this CIF has been generated from an entry in the Cambridge 
# Structural Database, then it will include bibliographic, chemical, 
# crystal, experimental, refinement or atomic coordinate data resulting 
# from the CCDC's data processing and validation procedures.
#
#######################################################################

data_ROBYAK
_chemical_formula_moiety         'C38 H60 N2 O3 S1'
_chemical_name_systematic        
N-((3-(methoxyimino)-4a,6b,8a,11,11,12b,14a-heptamethyldocosahydropicen-4-yl)methyl)-4-methylbenzenesulfonamide
_symmetry_cell_setting           orthorhombic
_symmetry_space_group_name_H-M   'P 21 21 21'
_symmetry_Int_Tables_number      19
_space_group_name_Hall           'P 2ac 2ab'
loop_
_symmetry_equiv_pos_site_id
_symmetry_equiv_pos_as_xyz
1 x,y,z
2 1/2-x,-y,1/2+z
3 1/2+x,1/2-y,-z
4 -x,1/2+y,1/2-z
_cell_length_a                   7.3922(5)
_cell_length_b                   13.9405(8)
_cell_length_c                   34.054(2)
_cell_angle_alpha                90
_cell_angle_beta                 90
_cell_angle_gamma                90
_cell_volume                     3509.3
_exptl_crystal_colour            white
_exptl_crystal_description       platy
_cell_formula_units_Z            4
loop_
_atom_site_label
_atom_site_type_symbol
_atom_site_fract_x
_atom_site_fract_y
_atom_site_fract_z
S1 S 0.51353(17) -0.20921(8) 0.76648(3)
O1 O 0.6599(4) -0.2522(2) 0.78754(8)
O2 O 0.4212(4) -0.1281(2) 0.78232(8)
O3 O 0.9122(5) -0.2747(2) 0.63728(9)
N1 N 0.6003(5) -0.1797(2) 0.72473(9)
H1 H 0.6980 -0.1475 0.7284
N2 N 0.7662(5) -0.2270(3) 0.65567(10)
C1 C 0.6638(6) 0.0441(3) 0.61223(12)
H2 H 0.7244 0.0799 0.6340
C2 C 0.5748(6) 0.3448(3) 0.58107(11)
C3 C 0.4001(6) 0.2843(3) 0.59024(11)
C4 C 0.5930(6) 0.1238(3) 0.58363(11)
C5 C 0.5184(6) -0.0193(3) 0.63283(11)
C6 C 0.3943(7) -0.3808(3) 0.73659(13)
H3 H 0.5098 -0.3853 0.7245
C7 C 0.3672(7) 0.4976(3) 0.58397(12)
C8 C 0.6971(6) 0.2848(3) 0.55384(12)
H4 H 0.6325 0.2734 0.5288
H5 H 0.8075 0.3222 0.5478
C9 C 0.5150(6) 0.4406(3) 0.56048(11)
H6 H 0.4572 0.4214 0.5351
C10 C 0.3499(6) -0.2997(3) 0.75848(12)
C11 C 0.7524(6) 0.1887(3) 0.57120(12)
H7 H 0.8297 0.2006 0.5944
H8 H 0.8264 0.1539 0.5516
C12 C 0.4598(5) 0.1858(3) 0.60841(12)
H9 H 0.5297 0.2034 0.6325
C13 C 0.5119(7) 0.0803(3) 0.54534(11)
H10 H 0.5700 0.0186 0.5398
H11 H 0.5332 0.1243 0.5234
H12 H 0.3815 0.0707 0.5487
C14 C 0.3754(6) 0.0467(3) 0.65168(12)
H13 H 0.2736 0.0069 0.6612
H14 H 0.4298 0.0789 0.6748
C15 C 0.6178(6) -0.0765(3) 0.66619(12)
H15 H 0.6781 -0.0274 0.6831
C16 C 0.6786(6) 0.5042(3) 0.54946(13)
H16 H 0.7507 0.5159 0.5735
H17 H 0.7560 0.4680 0.5309
C17 C 0.4241(6) -0.0914(3) 0.60495(12)
H18 H 0.3501 -0.0563 0.5859
H19 H 0.3468 -0.1345 0.6203
H20 H 0.5159 -0.1291 0.5910
C18 C 0.1910(7) 0.5126(4) 0.55987(14)
H21 H 0.2219 0.5261 0.5324
H22 H 0.1230 0.5668 0.5708
H23 H 0.1168 0.4544 0.5612
C19 C 0.8056(7) 0.6605(3) 0.52729(15)
H24 H 0.8555 0.6722 0.5535
H25 H 0.7784 0.7219 0.5146
H26 H 0.8941 0.6252 0.5115
C20 C 0.2840(6) 0.3397(3) 0.62070(13)
H27 H 0.1548 0.3282 0.6147
H28 H 0.3081 0.3124 0.6470
C21 C 0.4982(8) 0.6557(3) 0.55783(13)
H29 H 0.5544 0.7167 0.5663
H30 H 0.3886 0.6717 0.5425
C22 C 0.1826(7) -0.2933(4) 0.77604(14)
H31 H 0.1502 -0.2378 0.7907
C23 C 0.7669(6) -0.1356(3) 0.64853(12)
C24 C 0.8132(7) -0.0180(3) 0.59408(13)
H32 H 0.7605 -0.0588 0.5732
H33 H 0.9052 0.0241 0.5818
C25 C 0.6328(6) 0.6016(3) 0.53086(13)
C26 C 0.3010(6) 0.1237(3) 0.62369(12)
H34 H 0.2126 0.1646 0.6377
H35 H 0.2384 0.0927 0.6013
C27 C 0.3151(7) 0.4487(3) 0.62268(12)
H36 H 0.2031 0.4791 0.6326
H37 H 0.4118 0.4614 0.6421
C28 C 0.9046(6) -0.0819(3) 0.62481(15)
H38 H 0.9857 -0.1281 0.6115
H39 H 0.9792 -0.0417 0.6425
C29 C 0.5544(7) 0.5881(3) 0.48989(12)
H40 H 0.6414 0.5532 0.4735
H41 H 0.5298 0.6509 0.4782
H42 H 0.4417 0.5513 0.4916
C30 C 0.0617(7) -0.3691(4) 0.77206(15)
H43 H -0.0527 -0.3651 0.7847
C31 C 0.4419(7) 0.5993(3) 0.59414(13)
H44 H 0.3477 0.6358 0.6084
H45 H 0.5476 0.5925 0.6118
C32 C 0.1020(8) -0.4493(4) 0.75052(14)
C33 C 0.4915(7) -0.1342(3) 0.69341(11)
H46 H 0.4002 -0.0910 0.7052
H47 H 0.4273 -0.1840 0.6781
C34 C 0.6882(6) 0.3691(3) 0.61841(13)
H48 H 0.6590 0.4341 0.6273
H49 H 0.8174 0.3651 0.6121
H50 H 0.6594 0.3232 0.6393
C35 C 0.2727(7) -0.4538(3) 0.73245(14)
H51 H 0.3039 -0.5084 0.7172
C36 C 0.9245(8) -0.3668(4) 0.65482(16)
H52 H 1.0111 -0.4062 0.6401
H53 H 0.8055 -0.3977 0.6544
H54 H 0.9656 -0.3603 0.6820
C37 C 0.2839(6) 0.2684(3) 0.55317(13)
H55 H 0.2249 0.3287 0.5458
H56 H 0.1918 0.2196 0.5586
H57 H 0.3614 0.2467 0.5316
C38 C -0.0305(8) -0.5316(4) 0.74687(17)
H58 H -0.0228 -0.5722 0.7703
H59 H -0.0010 -0.5697 0.7236
H60 H -0.1536 -0.5061 0.7444
loop_
_geom_bond_atom_site_label_1
_geom_bond_atom_site_label_2
_geom_bond_site_symmetry_1
_geom_bond_site_symmetry_2
S1 O1 1_555 1_555
O2 S1 1_555 1_555
O3 N2 1_555 1_555
N1 S1 1_555 1_555
H1 N1 1_555 1_555
N2 C23 1_555 1_555
C1 H2 1_555 1_555
C2 C3 1_555 1_555
C3 C12 1_555 1_555
C4 C1 1_555 1_555
C5 C1 1_555 1_555
C6 H3 1_555 1_555
C7 C9 1_555 1_555
C8 C2 1_555 1_555
H4 C8 1_555 1_555
H5 C8 1_555 1_555
C9 C2 1_555 1_555
H6 C9 1_555 1_555
C10 S1 1_555 1_555
C11 C4 1_555 1_555
H7 C11 1_555 1_555
H8 C11 1_555 1_555
C12 C4 1_555 1_555
H9 C12 1_555 1_555
C13 C4 1_555 1_555
H10 C13 1_555 1_555
H11 C13 1_555 1_555
H12 C13 1_555 1_555
C14 C5 1_555 1_555
H13 C14 1_555 1_555
H14 C14 1_555 1_555
C15 C5 1_555 1_555
H15 C15 1_555 1_555
C16 C9 1_555 1_555
H16 C16 1_555 1_555
H17 C16 1_555 1_555
C17 C5 1_555 1_555
H18 C17 1_555 1_555
H19 C17 1_555 1_555
H20 C17 1_555 1_555
C18 C7 1_555 1_555
H21 C18 1_555 1_555
H22 C18 1_555 1_555
H23 C18 1_555 1_555
C19 H24 1_555 1_555
H25 C19 1_555 1_555
H26 C19 1_555 1_555
C20 C3 1_555 1_555
H27 C20 1_555 1_555
H28 C20 1_555 1_555
C21 H29 1_555 1_555
H30 C21 1_555 1_555
C22 C10 1_555 1_555
H31 C22 1_555 1_555
C23 C15 1_555 1_555
C24 C1 1_555 1_555
H32 C24 1_555 1_555
H33 C24 1_555 1_555
C25 C16 1_555 1_555
C26 C12 1_555 1_555
H34 C26 1_555 1_555
H35 C26 1_555 1_555
C27 C7 1_555 1_555
H36 C27 1_555 1_555
H37 C27 1_555 1_555
C28 C23 1_555 1_555
H38 C28 1_555 1_555
H39 C28 1_555 1_555
C29 C25 1_555 1_555
H40 C29 1_555 1_555
H41 C29 1_555 1_555
H42 C29 1_555 1_555
C30 C22 1_555 1_555
H43 C30 1_555 1_555
C31 C7 1_555 1_555
H44 C31 1_555 1_555
H45 C31 1_555 1_555
C32 C30 1_555 1_555
C33 N1 1_555 1_555
H46 C33 1_555 1_555
H47 C33 1_555 1_555
C34 C2 1_555 1_555
H48 C34 1_555 1_555
H49 C34 1_555 1_555
H50 C34 1_555 1_555
C35 C6 1_555 1_555
H51 C35 1_555 1_555
C36 O3 1_555 1_555
H52 C36 1_555 1_555
H53 C36 1_555 1_555
H54 C36 1_555 1_555
C37 C3 1_555 1_555
H55 C37 1_555 1_555
H56 C37 1_555 1_555
H57 C37 1_555 1_555
C38 C32 1_555 1_555
H58 C38 1_555 1_555
H59 C38 1_555 1_555
H60 C38 1_555 1_555
C6 C10 1_555 1_555
C8 C11 1_555 1_555
C14 C26 1_555 1_555
C15 C33 1_555 1_555
C19 C25 1_555 1_555
C20 C27 1_555 1_555
C21 C25 1_555 1_555
C21 C31 1_555 1_555
C24 C28 1_555 1_555
C32 C35 1_555 1_555

#END
