
#######################################################################
#
#                 Cambridge Crystallographic Data Centre
#                                CCDC 
#
#######################################################################
#
# If this CIF has been generated from an entry in the Cambridge 
# Structural Database, then it will include bibliographic, chemical, 
# crystal, experimental, refinement or atomic coordinate data resulting 
# from the CCDC's data processing and validation procedures.
#
#######################################################################

data_ROBYEM04
_chemical_formula_moiety         'C10 H17 N2 O4 1+,3(H2 O1),Cl1 1-'
_chemical_name_systematic        
'(4-(Carboxymethyl)-1,4-diazoniabicyclo[2.2.2]oct-1-yl)acetate chloride trihydrate'
_symmetry_cell_setting           monoclinic
_symmetry_space_group_name_H-M   'P 21/n'
_symmetry_Int_Tables_number      14
_space_group_name_Hall           '-P 2yn'
loop_
_symmetry_equiv_pos_site_id
_symmetry_equiv_pos_as_xyz
1 x,y,z
2 1/2-x,1/2+y,1/2-z
3 -x,-y,-z
4 1/2+x,1/2-y,1/2+z
_cell_length_a                   6.992(4)
_cell_length_b                   11.726(6)
_cell_length_c                   17.764(9)
_cell_angle_alpha                90
_cell_angle_beta                 98.537(10)
_cell_angle_gamma                90
_cell_volume                     1440.3
_exptl_crystal_colour            colorless
_exptl_crystal_description       block
_cell_formula_units_Z            4
loop_
_atom_site_label
_atom_site_type_symbol
_atom_site_fract_x
_atom_site_fract_y
_atom_site_fract_z
C1 C 0.2582(3) 0.61903(18) 0.10315(13)
C2 C 0.2922(4) 0.52446(17) 0.16196(12)
H1 H 0.4116 0.5409 0.1955
H2 H 0.1884 0.5268 0.1925
C3 C 0.2348(4) -0.01813(19) 0.08858(15)
C4 C 0.3625(4) 0.07604(18) 0.06419(14)
H3 H 0.4961 0.0554 0.0815
H4 H 0.3449 0.0772 0.0090
C5 C 0.3514(4) 0.2049(2) 0.17676(13)
H5 H 0.2450 0.1652 0.1946
H6 H 0.4711 0.1691 0.1996
C6 C 0.3509(4) 0.3280(2) 0.20051(13)
H7 H 0.4766 0.3480 0.2282
H8 H 0.2554 0.3392 0.2342
C7 C 0.1170(3) 0.36510(19) 0.08657(14)
H9 H 0.0818 0.4154 0.0434
H10 H 0.0151 0.3682 0.1181
C8 C 0.1367(3) 0.24397(19) 0.05855(14)
H11 H 0.0352 0.1968 0.0738
H12 H 0.1230 0.2435 0.0034
C9 C 0.4860(4) 0.26830(19) 0.06362(15)
H13 H 0.6126 0.2418 0.0868
H14 H 0.4776 0.2604 0.0089
C10 C 0.4626(4) 0.3916(2) 0.08330(16)
H15 H 0.4303 0.4357 0.0370
H16 H 0.5834 0.4205 0.1105
N1 N 0.3049(3) 0.40460(14) 0.13204(10)
N2 N 0.3316(3) 0.19597(15) 0.09137(10)
O1 O 0.2504(4) 0.71561(14) 0.13893(11)
H17 H 0.2457 0.7684 0.1084
O2 O 0.2425(3) 0.60628(14) 0.03480(10)
O3 O 0.1169(3) -0.00076(17) 0.13218(14)
O4 O 0.2715(4) -0.11264(15) 0.05913(13)
Cl1 Cl 0.85888(12) 0.46576(7) 0.24578(4)
O5 O 0.8629(3) 0.19826(17) 0.20032(11)
H18 H 0.8224 0.1238 0.2231
H19 H 0.8698 0.2546 0.2444
O6 O 0.7973(3) 0.85720(17) 0.11589(11)
H20 H 0.7329 0.8872 0.1561
H21 H 0.9067 0.9046 0.1212
O7 O 0.7575(6) 0.6229(3) 0.10194(16)
H22 H 0.7649 0.7017 0.1180
H23 H 0.7875 0.5828 0.1481
loop_
_geom_bond_atom_site_label_1
_geom_bond_atom_site_label_2
_geom_bond_site_symmetry_1
_geom_bond_site_symmetry_2
C1 C2 1_555 1_555
C2 H1 1_555 1_555
H2 C2 1_555 1_555
C3 C4 1_555 1_555
C4 H3 1_555 1_555
H4 C4 1_555 1_555
C5 H5 1_555 1_555
H6 C5 1_555 1_555
C6 C5 1_555 1_555
H7 C6 1_555 1_555
H8 C6 1_555 1_555
C7 H9 1_555 1_555
H10 C7 1_555 1_555
C8 C7 1_555 1_555
H11 C8 1_555 1_555
H12 C8 1_555 1_555
C9 H13 1_555 1_555
H14 C9 1_555 1_555
C10 C9 1_555 1_555
H15 C10 1_555 1_555
H16 C10 1_555 1_555
N1 C2 1_555 1_555
N2 C4 1_555 1_555
O1 C1 1_555 1_555
H17 O1 1_555 1_555
O2 C1 1_555 1_555
O3 C3 1_555 1_555
O4 C3 1_555 1_555
O5 H18 1_555 1_555
H19 O5 1_555 1_555
O6 H20 1_555 1_555
H21 O6 1_555 1_555
O7 H22 1_555 1_555
H23 O7 1_555 1_555
C5 N2 1_555 1_555
C6 N1 1_555 1_555
C7 N1 1_555 1_555
C8 N2 1_555 1_555
C9 N2 1_555 1_555
C10 N1 1_555 1_555

#END
