
#######################################################################
#
#                 Cambridge Crystallographic Data Centre
#                                CCDC 
#
#######################################################################
#
# If this CIF has been generated from an entry in the Cambridge 
# Structural Database, then it will include bibliographic, chemical, 
# crystal, experimental, refinement or atomic coordinate data resulting 
# from the CCDC's data processing and validation procedures.
#
#######################################################################

data_ROCDAP
_chemical_compound_source        
'leaf extract of Rutaceae Clausena lansium (Lour.) Skeels'
_chemical_formula_moiety         'C18 H17 N1 O2'
_chemical_name_systematic        Homoclausenamide
_chemical_properties_biological  
'parent plant used in folk medicine as a treatment of influenza, gastrointestinal disorder, viral hepatitis and dermatological diseases'
_symmetry_cell_setting           triclinic
_symmetry_space_group_name_H-M   'P -1'
_symmetry_Int_Tables_number      2
_space_group_name_Hall           '-P 1'
loop_
_symmetry_equiv_pos_site_id
_symmetry_equiv_pos_as_xyz
1 x,y,z
2 -x,-y,-z
_cell_length_a                   8.8913(18)
_cell_length_b                   12.820(3)
_cell_length_c                   13.032(3)
_cell_angle_alpha                89.96(3)
_cell_angle_beta                 84.70(3)
_cell_angle_gamma                89.87(3)
_cell_volume                     1479.12
_exptl_crystal_colour            colorless
_exptl_crystal_description       block
_chemical_melting_point          '193-194 deg.C'
_cell_formula_units_Z            4
_exptl_crystal_recrystallization_method 'ethyl acetate/hexane'
loop_
_atom_site_label
_atom_site_type_symbol
_atom_site_fract_x
_atom_site_fract_y
_atom_site_fract_z
O1 O 0.4598(4) 0.2947(2) 0.9540(2)
H1 H 0.5157 0.2441 0.9436
O3 O 0.1403(3) 0.3696(2) 0.9114(3)
C2 C 0.5634(4) 0.4781(3) 0.8183(3)
C4 C 0.3990(5) 0.3226(3) 0.8615(3)
H4 H 0.3570 0.2603 0.8315
C5 C 0.4608(4) 0.5312(3) 0.8772(3)
H5 H 0.4880 0.5969 0.8992
C6 C 0.7123(5) 0.5210(3) 0.7828(3)
N2 N 0.3147(4) 0.4964(2) 0.9090(3)
C7 C 0.5197(5) 0.3702(3) 0.7828(3)
H6 H 0.6099 0.3261 0.7828
C12 C 0.2716(5) 0.3974(3) 0.8943(3)
C14 C 0.4701(5) 0.3670(3) 0.6742(3)
C15 C 0.7609(5) 0.6168(4) 0.8177(4)
H9 H 0.6977 0.6545 0.8651
C17 C 0.3802(5) 0.4419(4) 0.6378(4)
H11 H 0.3508 0.4989 0.6791
C18 C 0.9972(6) 0.6038(5) 0.7148(5)
H12 H 1.0911 0.6312 0.6921
C23 C 0.8122(5) 0.4686(4) 0.7131(4)
H17 H 0.7844 0.4045 0.6875
C24 C 0.9003(6) 0.6571(4) 0.7836(5)
H18 H 0.9289 0.7216 0.8079
C25 C 0.2043(5) 0.5714(3) 0.9561(4)
H19 H 0.1095 0.5369 0.9729
H20 H 0.1911 0.6271 0.9085
H21 H 0.2401 0.5992 1.0177
C28 C 0.3314(6) 0.4344(5) 0.5389(4)
H26 H 0.2687 0.4854 0.5150
C29 C 0.9529(6) 0.5096(5) 0.6805(5)
H27 H 1.0180 0.4720 0.6343
C31 C 0.5153(8) 0.2836(4) 0.6108(4)
H29 H 0.5782 0.2322 0.6337
C33 C 0.3766(8) 0.3515(6) 0.4778(5)
H31 H 0.3456 0.3460 0.4118
C36 C 0.4670(10) 0.2774(6) 0.5139(5)
H34 H 0.4969 0.2209 0.4721
O2 O 0.9594(4) 0.2050(2) 0.9546(2)
H2 H 1.0157 0.2552 0.9449
C1 C 1.0631(4) 0.0223(3) 0.8179(3)
O4 O 0.6403(3) 0.1302(2) 0.9115(3)
C3 C 0.9613(4) -0.0312(3) 0.8776(3)
H3 H 0.9895 -0.0966 0.9004
N1 N 0.8140(4) 0.0038(2) 0.9089(3)
C8 C 1.2127(4) -0.0214(3) 0.7833(3)
C9 C 1.0198(4) 0.1301(3) 0.7829(3)
H7 H 1.1100 0.1739 0.7831
C10 C 0.8996(5) 0.1775(3) 0.8606(3)
H8 H 0.8576 0.2400 0.8306
C11 C 0.7715(5) 0.1028(3) 0.8945(3)
C13 C 0.9702(5) 0.1336(3) 0.6746(3)
C16 C 1.2612(5) -0.1166(4) 0.8190(4)
H10 H 1.1986 -0.1537 0.8670
C19 C 1.4967(6) -0.1034(5) 0.7158(4)
H13 H 1.5912 -0.1306 0.6937
C20 C 0.8796(5) 0.0582(4) 0.6379(4)
H14 H 0.8501 0.0013 0.6792
C21 C 1.3129(5) 0.0315(4) 0.7134(4)
H15 H 1.2850 0.0960 0.6885
C22 C 1.4009(6) -0.1574(4) 0.7844(5)
H16 H 1.4298 -0.2222 0.8080
C26 C 0.7043(5) -0.0710(3) 0.9561(4)
H22 H 0.6096 -0.0364 0.9736
H23 H 0.7409 -0.0993 1.0174
H24 H 0.6906 -0.1265 0.9084
C27 C 1.0156(7) 0.2156(4) 0.6113(4)
H25 H 1.0783 0.2666 0.6347
C30 C 1.4530(6) -0.0095(5) 0.6801(5)
H28 H 1.5175 0.0273 0.6330
C32 C 0.8314(6) 0.0661(5) 0.5393(4)
H30 H 0.7689 0.0152 0.5154
C34 C 0.8767(8) 0.1494(6) 0.4776(5)
H32 H 0.8446 0.1554 0.4119
C35 C 0.9688(10) 0.2230(6) 0.5132(5)
H33 H 1.0006 0.2790 0.4712
loop_
_geom_bond_atom_site_label_1
_geom_bond_atom_site_label_2
_geom_bond_site_symmetry_1
_geom_bond_site_symmetry_2
O1 H1 1_555 1_555
O2 H2 1_555 1_555
C1 C3 1_555 1_555
O3 C12 1_555 1_555
C2 C5 1_555 1_555
O4 C11 1_555 1_555
C3 H3 1_555 1_555
N1 C3 1_555 1_555
C4 O1 1_555 1_555
H4 C4 1_555 1_555
C5 H5 1_555 1_555
C6 C2 1_555 1_555
N2 C5 1_555 1_555
C7 C2 1_555 1_555
H6 C7 1_555 1_555
C8 C1 1_555 1_555
C9 C1 1_555 1_555
H7 C9 1_555 1_555
C10 O2 1_555 1_555
H8 C10 1_555 1_555
C11 N1 1_555 1_555
C12 C4 1_555 1_555
C13 C9 1_555 1_555
C14 C7 1_555 1_555
C15 C6 1_555 1_555
H9 C15 1_555 1_555
C16 C8 1_555 1_555
H10 C16 1_555 1_555
C17 C14 1_555 1_555
H11 C17 1_555 1_555
C18 H12 1_555 1_555
C19 H13 1_555 1_555
C20 C13 1_555 1_555
H14 C20 1_555 1_555
C21 C8 1_555 1_555
H15 C21 1_555 1_555
C22 C16 1_555 1_555
H16 C22 1_555 1_555
C23 C6 1_555 1_555
H17 C23 1_555 1_555
C24 C15 1_555 1_555
H18 C24 1_555 1_555
C25 N2 1_555 1_555
H19 C25 1_555 1_555
H20 C25 1_555 1_555
H21 C25 1_555 1_555
C26 N1 1_555 1_555
H22 C26 1_555 1_555
H23 C26 1_555 1_555
H24 C26 1_555 1_555
C27 C13 1_555 1_555
H25 C27 1_555 1_555
C28 C17 1_555 1_555
H26 C28 1_555 1_555
C29 C18 1_555 1_555
H27 C29 1_555 1_555
C30 C19 1_555 1_555
H28 C30 1_555 1_555
C31 C14 1_555 1_555
H29 C31 1_555 1_555
C32 C20 1_555 1_555
H30 C32 1_555 1_555
C33 C28 1_555 1_555
H31 C33 1_555 1_555
C34 C32 1_555 1_555
H32 C34 1_555 1_555
C35 C27 1_555 1_555
H33 C35 1_555 1_555
C36 C31 1_555 1_555
H34 C36 1_555 1_555
C4 C7 1_555 1_555
N2 C12 1_555 1_555
C9 C10 1_555 1_555
C10 C11 1_555 1_555
C18 C24 1_555 1_555
C19 C22 1_555 1_555
C21 C30 1_555 1_555
C23 C29 1_555 1_555
C33 C36 1_555 1_555
C34 C35 1_555 1_555

#END
