
#######################################################################
#
#                 Cambridge Crystallographic Data Centre
#                                CCDC 
#
#######################################################################
#
# If this CIF has been generated from an entry in the Cambridge 
# Structural Database, then it will include bibliographic, chemical, 
# crystal, experimental, refinement or atomic coordinate data resulting 
# from the CCDC's data processing and validation procedures.
#
#######################################################################

data_ROCNAZ
_chemical_formula_moiety         'C16 H23 N1 O4'
_chemical_name_systematic        
(3aS,7S,7aR)-5-Benzyl-7-(hydroxymethyl)-2,2-dimethyl-hexahydro[1,3]dioxolo[4,5-c]pyridin-7-ol
_symmetry_cell_setting           monoclinic
_symmetry_space_group_name_H-M   'P 21'
_symmetry_Int_Tables_number      4
_space_group_name_Hall           'P 2yb'
loop_
_symmetry_equiv_pos_site_id
_symmetry_equiv_pos_as_xyz
1 x,y,z
2 -x,1/2+y,-z
_cell_length_a                   10.8722(10)
_cell_length_b                   5.6676(5)
_cell_length_c                   12.9160(12)
_cell_angle_alpha                90
_cell_angle_beta                 106.839(1)
_cell_angle_gamma                90
_cell_volume                     761.75
_exptl_crystal_colour            colorless
_exptl_crystal_description       needle
_chemical_melting_point          '152-154 deg.C'
_cell_formula_units_Z            2
_exptl_crystal_recrystallization_method 'ethyl acetate/petroleum ether'
loop_
_atom_site_label
_atom_site_type_symbol
_atom_site_fract_x
_atom_site_fract_y
_atom_site_fract_z
O1 O -0.18205(17) 0.2696(4) 0.72335(14)
C1 C -0.2458(3) 0.1179(6) 0.6338(2)
O2 O -0.15099(18) 0.0603(4) 0.58011(15)
C2 C -0.0291(3) 0.1077(5) 0.6580(2)
H1 H -0.0088 -0.0190 0.7120
C3 C 0.0838(3) 0.1471(6) 0.6151(2)
H2 H 0.1029 0.0054 0.5806
H3 H 0.0666 0.2748 0.5629
N1 N 0.1908(2) 0.2073(4) 0.70958(17)
C4 C 0.1652(3) 0.4196(6) 0.7666(2)
H4 H 0.1532 0.5534 0.7179
H5 H 0.2399 0.4516 0.8275
C5 C 0.0476(3) 0.3976(5) 0.8079(2)
C6 C -0.0608(3) 0.3285(5) 0.7089(2)
H6 H -0.0736 0.4566 0.6559
C7 C 0.0690(3) 0.2253(5) 0.9013(2)
H7 H 0.0874 0.0706 0.8774
H8 H 0.1432 0.2752 0.9592
C8 C -0.2916(3) -0.0963(7) 0.6787(3)
H9 H -0.3361 -0.1981 0.6204
H10 H -0.3489 -0.0502 0.7194
H11 H -0.2194 -0.1786 0.7252
C9 C -0.3527(3) 0.2502(8) 0.5551(3)
H12 H -0.3183 0.3868 0.5295
H13 H -0.4149 0.2985 0.5906
H14 H -0.3931 0.1496 0.4951
C10 C 0.3099(3) 0.2360(8) 0.6798(2)
H15 H 0.3050 0.3814 0.6392
H16 H 0.3174 0.1069 0.6327
C11 C 0.4290(3) 0.2423(6) 0.7753(2)
C12 C 0.4552(3) 0.0605(6) 0.8504(3)
H17 H 0.3969 -0.0628 0.8431
C13 C 0.5673(3) 0.0593(7) 0.9364(3)
H18 H 0.5832 -0.0632 0.9864
C14 C 0.6544(3) 0.2404(7) 0.9471(3)
H19 H 0.7299 0.2398 1.0040
C15 C 0.6297(3) 0.4213(7) 0.8738(3)
H20 H 0.6884 0.5441 0.8813
C16 C 0.5178(3) 0.4224(6) 0.7887(2)
H21 H 0.5021 0.5467 0.7396
O3 O 0.0229(2) 0.6299(3) 0.84164(14)
H22 H 0.0227 0.6261 0.9051
O4 O -0.0384(2) 0.2091(5) 0.94159(15)
H23 H -0.1041 0.1963 0.8909
loop_
_geom_bond_atom_site_label_1
_geom_bond_atom_site_label_2
_geom_bond_site_symmetry_1
_geom_bond_site_symmetry_2
O1 C1 1_555 1_555
C1 O2 1_555 1_555
O2 C2 1_555 1_555
C2 H1 1_555 1_555
C3 C2 1_555 1_555
H2 C3 1_555 1_555
H3 C3 1_555 1_555
N1 C3 1_555 1_555
C4 N1 1_555 1_555
H4 C4 1_555 1_555
H5 C4 1_555 1_555
C5 C4 1_555 1_555
C6 O1 1_555 1_555
H6 C6 1_555 1_555
C7 C5 1_555 1_555
H7 C7 1_555 1_555
H8 C7 1_555 1_555
C8 C1 1_555 1_555
H9 C8 1_555 1_555
H10 C8 1_555 1_555
H11 C8 1_555 1_555
C9 C1 1_555 1_555
H12 C9 1_555 1_555
H13 C9 1_555 1_555
H14 C9 1_555 1_555
C10 N1 1_555 1_555
H15 C10 1_555 1_555
H16 C10 1_555 1_555
C11 C10 1_555 1_555
C12 C11 1_555 1_555
H17 C12 1_555 1_555
C13 C12 1_555 1_555
H18 C13 1_555 1_555
C14 C13 1_555 1_555
H19 C14 1_555 1_555
C15 C14 1_555 1_555
H20 C15 1_555 1_555
C16 C11 1_555 1_555
H21 C16 1_555 1_555
O3 C5 1_555 1_555
H22 O3 1_555 1_555
O4 C7 1_555 1_555
H23 O4 1_555 1_555
C2 C6 1_555 1_555
C5 C6 1_555 1_555
C15 C16 1_555 1_555

#END
