
#######################################################################
#
#                 Cambridge Crystallographic Data Centre
#                                CCDC 
#
#######################################################################
#
# If this CIF has been generated from an entry in the Cambridge 
# Structural Database, then it will include bibliographic, chemical, 
# crystal, experimental, refinement or atomic coordinate data resulting 
# from the CCDC's data processing and validation procedures.
#
#######################################################################

data_ROCSIN
_chemical_formula_moiety         'C142 H202 N4'
_chemical_name_systematic        
8-(4-t-Butylphenyl)-2,14-bis(2-methyldec-2-yl)-4,6,10,12-tetrakis(4-(2-methyldec-2-yl)phenyl)-16,16,18,18,20,20,22,22-octamethyl-5,7,9,11,16,18,20,22-octahydroquinolino[3,2-b]quinolino[3',2':6,7]quinolino[2,3-i]acridine
_symmetry_cell_setting           triclinic
_symmetry_space_group_name_H-M   'P -1'
_symmetry_Int_Tables_number      2
_space_group_name_Hall           '-P 1'
loop_
_symmetry_equiv_pos_site_id
_symmetry_equiv_pos_as_xyz
1 x,y,z
2 -x,-y,-z
_cell_length_a                   14.2365(16)
_cell_length_b                   17.8529(19)
_cell_length_c                   24.947(3)
_cell_angle_alpha                100.054(5)
_cell_angle_beta                 97.316(5)
_cell_angle_gamma                97.856(6)
_cell_volume                     6109.88
_exptl_crystal_colour            colorless
_exptl_crystal_description       plate
_cell_formula_units_Z            2
loop_
_atom_site_label
_atom_site_type_symbol
_atom_site_fract_x
_atom_site_fract_y
_atom_site_fract_z
N1 N 0.7739(2) 0.4708(2) -0.18740(13)
N2 N 0.8082(2) 0.37329(18) -0.01674(13)
N3 N 0.7936(2) 0.16143(18) 0.08423(13)
N4 N 0.8321(2) 0.05302(19) 0.25026(13)
H1 H 0.832(2) 0.471(2) -0.1814(14)
H2 H 0.861(2) 0.3638(19) -0.0229(13)
H3 H 0.855(2) 0.166(2) 0.0888(14)
H4 H 0.886(2) 0.047(2) 0.2440(14)
C1 C 0.6483(2) 0.6317(2) -0.26612(16)
C2 C 0.5961(3) 0.5807(2) -0.24049(16)
H5 H 0.5298 0.5827 -0.2404
C3 C 0.6362(2) 0.5271(2) -0.21501(15)
C4 C 0.5775(2) 0.4695(3) -0.18756(17)
C5 C 0.6405(2) 0.4562(2) -0.13760(16)
C6 C 0.6070(2) 0.4399(2) -0.09021(15)
H6 H 0.5428 0.4458 -0.0861
C7 C 0.6616(2) 0.4158(2) -0.04889(15)
C8 C 0.6280(2) 0.4026(2) 0.00452(15)
C9 C 0.6665(2) 0.3328(2) 0.02032(14)
C10 C 0.6153(2) 0.2788(2) 0.04400(15)
H7 H 0.5504 0.2827 0.0475
C11 C 0.6542(2) 0.2199(2) 0.06277(15)
C12 C 0.5961(2) 0.1572(2) 0.08517(16)
C13 C 0.6597(2) 0.1361(2) 0.13215(15)
C14 C 0.6250(2) 0.1129(2) 0.17757(15)
H8 H 0.5595 0.1144 0.1809
C15 C 0.6814(2) 0.0881(2) 0.21769(16)
C16 C 0.6481(2) 0.0678(2) 0.27000(15)
C17 C 0.6915(2) -0.0010(2) 0.28318(15)
C18 C 0.6453(2) -0.0604(2) 0.30492(16)
H9 H 0.5788 -0.0625 0.3067
C19 C 0.6910(2) -0.1160(2) 0.32389(16)
C20 C 0.7890(2) -0.1090(2) 0.32249(15)
H10 H 0.8235 -0.1442 0.3378
C21 C 0.8395(2) -0.0529(2) 0.29981(15)
C22 C 0.7886(2) -0.0020(2) 0.27715(15)
C23 C 0.7763(2) 0.0821(2) 0.21084(15)
C24 C 0.8141(2) 0.1039(2) 0.16564(15)
C25 C 0.7562(2) 0.1342(2) 0.12818(15)
C26 C 0.7512(2) 0.2170(2) 0.06052(15)
C27 C 0.8056(2) 0.2698(2) 0.03617(15)
C28 C 0.7602(2) 0.3240(2) 0.01341(15)
C29 C 0.7550(2) 0.4039(2) -0.05615(16)
C30 C 0.7923(2) 0.4200(2) -0.10316(15)
C31 C 0.7364(2) 0.4497(2) -0.14151(16)
C32 C 0.7335(2) 0.5232(2) -0.21476(15)
C33 C 0.7886(2) 0.5737(2) -0.24017(15)
C34 C 0.7446(2) 0.6260(2) -0.26556(16)
H11 H 0.7822 0.6594 -0.2833
C35 C 0.6022(3) 0.6903(2) -0.29521(16)
C36 C 0.6612(7) 0.7698(6) -0.2731(4)
H12 H 0.6597 0.7843 -0.2335
H13 H 0.6342 0.8074 -0.2922
H14 H 0.7277 0.7690 -0.2793
C37 C 0.4976(6) 0.6905(6) -0.2867(4)
H15 H 0.4946 0.7035 -0.2472
H16 H 0.4600 0.6394 -0.3022
H17 H 0.4713 0.7289 -0.3053
C38 C 0.6053(6) 0.6698(5) -0.3591(3)
H18 H 0.5786 0.7093 -0.3770
H19 H 0.6731 0.6720 -0.3649
C39 C 0.5523(7) 0.5941(6) -0.3858(4)
H20 H 0.4883 0.5893 -0.3740
H21 H 0.5860 0.5549 -0.3716
C40 C 0.5374(6) 0.5739(6) -0.4488(4)
H22 H 0.6008 0.5819 -0.4611
H23 H 0.5103 0.5184 -0.4606
C41 C 0.4726(7) 0.6195(6) -0.4774(4)
H24 H 0.5044 0.6738 -0.4709
H25 H 0.4126 0.6183 -0.4612
C42 C 0.4474(6) 0.5885(6) -0.5398(4)
H26 H 0.5071 0.5938 -0.5562
H27 H 0.4213 0.5329 -0.5461
C43 C 0.3770(7) 0.6277(7) -0.5688(4)
H28 H 0.4028 0.6835 -0.5617
H29 H 0.3171 0.6218 -0.5526
C44 C 0.3523(7) 0.5998(6) -0.6294(4)
H30 H 0.3223 0.5449 -0.6370
H31 H 0.4120 0.6034 -0.6460
C45 C 0.2830(7) 0.6466(6) -0.6568(5)
H32 H 0.2703 0.6271 -0.6967
H33 H 0.3122 0.7011 -0.6492
H34 H 0.2226 0.6412 -0.6418
C46 C 0.5493(3) 0.3926(3) -0.22909(18)
H35 H 0.6075 0.3735 -0.2389
H36 H 0.5102 0.4004 -0.2623
H37 H 0.5124 0.3547 -0.2125
C47 C 0.4849(2) 0.4983(3) -0.17261(19)
H38 H 0.4505 0.4618 -0.1539
H39 H 0.4440 0.5024 -0.2063
H40 H 0.5016 0.5491 -0.1482
C48 C 0.5178(2) 0.3919(2) -0.00021(15)
H41 H 0.4948 0.4370 -0.0114
H42 H 0.4991 0.3863 0.0356
H43 H 0.4893 0.3455 -0.0278
C49 C 0.6707(2) 0.4732(2) 0.05047(15)
H44 H 0.7409 0.4808 0.0544
H45 H 0.6507 0.4645 0.0853
H46 H 0.6476 0.5192 0.0409
C50 C 0.5673(3) 0.0851(2) 0.03866(18)
H47 H 0.6252 0.0673 0.0274
H48 H 0.5290 0.0981 0.0071
H49 H 0.5293 0.0442 0.0520
C51 C 0.5041(2) 0.1821(3) 0.10237(18)
H50 H 0.4696 0.1414 0.1176
H51 H 0.4634 0.1912 0.0702
H52 H 0.5203 0.2297 0.1304
C52 C 0.5376(2) 0.0534(2) 0.26406(17)
H53 H 0.5116 0.0087 0.2345
H54 H 0.5126 0.0989 0.2551
H55 H 0.5183 0.0433 0.2988
C53 C 0.6854(3) 0.1368(2) 0.31695(16)
H56 H 0.6645 0.1255 0.3510
H57 H 0.6599 0.1822 0.3080
H58 H 0.7557 0.1471 0.3219
C54 C 0.6407(2) -0.1837(2) 0.34606(16)
C55 C 0.6676(6) -0.2601(5) 0.3197(3)
H59 H 0.6366 -0.2745 0.2811
H60 H 0.6461 -0.3003 0.3396
H61 H 0.7374 -0.2544 0.3213
C56 C 0.5290(4) -0.1931(4) 0.3301(3)
H62 H 0.5134 -0.1824 0.2931
H63 H 0.5038 -0.1568 0.3567
H64 H 0.4999 -0.2460 0.3307
C57 C 0.6723(5) -0.1682(5) 0.4089(3)
H65 H 0.7433 -0.1569 0.4154
H66 H 0.6498 -0.1200 0.4242
C58 C 0.6449(6) -0.2238(6) 0.4427(4)
H67 H 0.6557 -0.2752 0.4247
H68 H 0.5754 -0.2270 0.4443
C59 C 0.7014(8) -0.2042(8) 0.5040(5)
H69 H 0.6908 -0.1525 0.5215
H70 H 0.6723 -0.2416 0.5246
C60 C 0.8042(8) -0.2047(9) 0.5110(5)
H71 H 0.8403 -0.1586 0.5015
H72 H 0.8207 -0.2521 0.4898
C61 C 0.8219(12) -0.2027(12) 0.5838(7)
H73 H 0.7716 -0.1750 0.5979
H74 H 0.8038 -0.2569 0.5874
C62 C 0.8673(17) -0.1871(19) 0.6051(10)
H75 H 0.8622 -0.1316 0.6137
H76 H 0.9176 -0.1897 0.5811
C63 C 0.9272(8) -0.1977(10) 0.6638(5)
H77 H 0.9310 -0.1505 0.6920
H78 H 0.8922 -0.2413 0.6767
C64 C 1.0260(7) -0.2126(7) 0.6575(5)
H79 H 1.0588 -0.2199 0.6928
H80 H 1.0617 -0.1685 0.6463
H81 H 1.0224 -0.2591 0.6294
C65 C 0.9452(2) -0.0500(2) 0.30319(17)
C66 C 0.9954(2) -0.0464(2) 0.25890(16)
H82 H 0.9619 -0.0438 0.2240
C67 C 1.0933(2) -0.0466(2) 0.26522(17)
H83 H 1.1256 -0.0434 0.2344
C68 C 1.1457(2) -0.0513(2) 0.31467(17)
C69 C 1.0955(2) -0.0538(2) 0.35923(17)
H84 H 1.1292 -0.0557 0.3942
C70 C 0.9980(2) -0.0533(2) 0.35325(17)
H85 H 0.9660 -0.0554 0.3843
C71 C 1.2520(3) -0.0596(3) 0.32196(18)
C72 C 1.2933(3) -0.0579(3) 0.26873(18)
H86 H 1.2910 -0.0075 0.2585
H87 H 1.2555 -0.0984 0.2393
H88 H 1.3600 -0.0666 0.2741
C73 C 1.2589(3) -0.1407(3) 0.3362(2)
H89 H 1.2336 -0.1440 0.3706
H90 H 1.3262 -0.1482 0.3407
H91 H 1.2214 -0.1808 0.3064
C74 C 1.3083(2) 0.0056(3) 0.36823(19)
H92 H 1.3128 0.0546 0.3546
H93 H 1.2719 0.0110 0.3996
C75 C 1.4090(3) -0.0072(3) 0.38880(19)
H94 H 1.4404 -0.0242 0.3566
H95 H 1.4042 -0.0493 0.4099
C76 C 1.4726(3) 0.0641(3) 0.4253(2)
H96 H 1.4420 0.0816 0.4577
H97 H 1.4792 0.1064 0.4044
C77 C 1.5724(3) 0.0461(3) 0.4447(2)
H98 H 1.5645 0.0046 0.4662
H99 H 1.6002 0.0258 0.4118
C78 C 1.6402(3) 0.1101(3) 0.4779(2)
H100 H 1.6122 0.1313 0.5105
H101 H 1.6501 0.1511 0.4562
C79 C 1.7378(3) 0.0895(3) 0.4977(2)
H102 H 1.7734 0.1327 0.5266
H103 H 1.7268 0.0438 0.5150
C80 C 1.8008(3) 0.0723(3) 0.4540(2)
H104 H 1.8103 0.1166 0.4352
H105 H 1.7682 0.0266 0.4261
C81 C 1.8989(3) 0.0568(3) 0.4789(2)
H106 H 1.9373 0.0452 0.4495
H107 H 1.8897 0.0129 0.4974
H108 H 1.9322 0.1025 0.5056
C82 C 0.9095(2) 0.0846(2) 0.15271(16)
C83 C 0.9112(2) 0.0219(2) 0.11281(17)
H109 H 0.8521 -0.0085 0.0946
C84 C 0.9954(2) 0.0013(2) 0.09798(17)
H110 H 0.9931 -0.0435 0.0707
C85 C 1.0839(2) 0.0451(2) 0.12243(17)
C86 C 1.0823(2) 0.1073(2) 0.16316(18)
H111 H 1.1414 0.1377 0.1816
C87 C 0.9965(2) 0.1274(2) 0.17829(17)
H112 H 0.9982 0.1710 0.2065
C88 C 1.1767(2) 0.0219(2) 0.10332(17)
C89 C 1.2643(2) 0.0814(2) 0.1314(2)
H113 H 1.2544 0.1324 0.1246
H114 H 1.3213 0.0675 0.1165
H115 H 1.2732 0.0826 0.1712
C90 C 1.1663(3) 0.0175(3) 0.04056(18)
H116 H 1.1518 0.0666 0.0320
H117 H 1.1141 -0.0241 0.0220
H118 H 1.2264 0.0072 0.0278
C91 C 1.1882(2) -0.0571(2) 0.11711(16)
H119 H 1.1873 -0.0538 0.1571
H120 H 1.1317 -0.0949 0.0973
C92 C 1.2786(3) -0.0885(2) 0.10309(18)
H121 H 1.2821 -0.0900 0.0635
H122 H 1.3358 -0.0533 0.1248
C93 C 1.2798(3) -0.1693(2) 0.11526(18)
H123 H 1.2270 -0.2052 0.0900
H124 H 1.2668 -0.1688 0.1534
C94 C 1.3741(3) -0.2002(3) 0.10929(18)
H125 H 1.3634 -0.2562 0.1092
H126 H 1.3927 -0.1932 0.0734
C95 C 1.4562(3) -0.1609(3) 0.15494(19)
H127 H 1.4359 -0.1647 0.1910
H128 H 1.4700 -0.1055 0.1533
C96 C 1.5482(3) -0.1958(3) 0.15104(19)
H129 H 1.5946 -0.1736 0.1850
H130 H 1.5328 -0.2520 0.1494
C97 C 1.5962(3) -0.1825(3) 0.10132(19)
H131 H 1.6464 -0.2156 0.0978
H132 H 1.5477 -0.1988 0.0676
C98 C 1.6415(3) -0.0993(3) 0.1047(2)
H133 H 1.6740 -0.0956 0.0728
H134 H 1.6881 -0.0821 0.1386
H135 H 1.5914 -0.0667 0.1051
C99 C 0.9113(2) 0.2725(2) 0.03787(15)
C100 C 0.9526(2) 0.2157(2) 0.01013(17)
H136 H 0.9128 0.1706 -0.0113
C101 C 1.0520(2) 0.2227(2) 0.01264(18)
H137 H 1.0778 0.1817 -0.0069
C102 C 1.1134(2) 0.2861(2) 0.04220(16)
C103 C 1.0717(2) 0.3437(2) 0.07119(17)
H138 H 1.1117 0.3884 0.0929
C104 C 0.9730(3) 0.3369(3) 0.06882(17)
H139 H 0.9468 0.3773 0.0888
C105 C 1.2222(2) 0.2983(2) 0.04404(17)
C106 C 1.2559(2) 0.2290(2) 0.01118(17)
H140 H 1.2423 0.1841 0.0283
H141 H 1.3251 0.2409 0.0110
H142 H 1.2219 0.2176 -0.0267
C107 C 1.2714(2) 0.3120(3) 0.10388(17)
H143 H 1.2519 0.2670 0.1199
H144 H 1.2527 0.3578 0.1250
H145 H 1.3412 0.3201 0.1051
C108 C 1.2505(2) 0.3692(2) 0.01909(19)
H146 H 1.2318 0.4145 0.0408
H147 H 1.2176 0.3605 -0.0190
H148 H 1.3200 0.3779 0.0195
C109 C 0.8825(2) 0.3922(2) -0.11800(16)
C110 C 0.8706(3) 0.3234(2) -0.15491(18)
H149 H 0.8074 0.2964 -0.1683
C111 C 0.9469(3) 0.2923(2) -0.17327(18)
H150 H 0.9352 0.2441 -0.1982
C112 C 1.0407(2) 0.3304(2) -0.15580(17)
C113 C 1.0522(2) 0.3986(3) -0.11843(18)
H151 H 1.1153 0.4259 -0.1051
C114 C 0.9745(2) 0.4296(2) -0.09915(17)
H152 H 0.9857 0.4766 -0.0729
C115 C 1.1235(3) 0.2940(2) -0.17679(17)
C116 C 1.2181(3) 0.3522(3) -0.16494(18)
H153 H 1.2079 0.3979 -0.1803
H154 H 1.2678 0.3281 -0.1820
H155 H 1.2388 0.3675 -0.1250
C117 C 1.1369(3) 0.2261(3) -0.14793(19)
H156 H 1.0777 0.1883 -0.1566
H157 H 1.1518 0.2450 -0.1080
H158 H 1.1898 0.2018 -0.1608
C118 C 1.0989(3) 0.2613(2) -0.23946(17)
H159 H 1.1545 0.2390 -0.2516
H160 H 1.0441 0.2185 -0.2457
C119 C 1.0738(3) 0.3176(2) -0.27606(17)
H161 H 1.0272 0.3478 -0.2600
H162 H 1.1324 0.3541 -0.2766
C120 C 0.9954(3) 0.3313(2) -0.37129(17)
H163 H 1.0502 0.3697 -0.3750
H164 H 0.9489 0.3597 -0.3534
C121 C 1.0312(3) 0.2784(2) -0.33477(18)
H165 H 1.0805 0.2527 -0.3518
H166 H 0.9771 0.2377 -0.3337
C122 C 0.9475(3) 0.2884(3) -0.42823(18)
H167 H 0.8953 0.2481 -0.4241
H168 H 0.9952 0.2620 -0.4464
C123 C 0.9058(3) 0.3382(3) -0.46587(19)
H169 H 0.8594 0.3660 -0.4476
H170 H 0.9581 0.3771 -0.4717
C124 C 0.8557(3) 0.2916(3) -0.5213(2)
H171 H 0.8025 0.2538 -0.5152
H172 H 0.9019 0.2622 -0.5386
C125 C 0.8153(3) 0.3387(3) -0.5617(2)
H173 H 0.7814 0.3038 -0.5954
H174 H 0.8680 0.3733 -0.5707
H175 H 0.7706 0.3692 -0.5448
C126 C 0.8953(2) 0.5783(2) -0.23773(15)
C127 C 0.9393(2) 0.5165(2) -0.25557(15)
H176 H 0.9017 0.4668 -0.2683
C128 C 1.0385(2) 0.5256(2) -0.25523(15)
H177 H 1.0669 0.4820 -0.2679
C129 C 1.0960(2) 0.5965(2) -0.23696(15)
C130 C 1.0510(2) 0.6583(2) -0.21823(18)
H178 H 1.0886 0.7079 -0.2049
C131 C 0.9531(3) 0.6495(2) -0.21847(17)
H179 H 0.9248 0.6929 -0.2052
C132 C 1.2056(2) 0.6086(2) -0.23307(16)
C133 C 1.2461(3) 0.6121(3) -0.17247(18)
H180 H 1.2229 0.5634 -0.1617
H181 H 1.2249 0.6547 -0.1492
H182 H 1.3164 0.6203 -0.1678
C134 C 1.2430(3) 0.6854(2) -0.24913(19)
H183 H 1.2111 0.6866 -0.2861
H184 H 1.3125 0.6900 -0.2490
H185 H 1.2294 0.7283 -0.2226
C135 C 1.2439(2) 0.5423(2) -0.26693(16)
H186 H 1.3142 0.5494 -0.2551
H187 H 1.2159 0.4937 -0.2570
C136 C 1.2257(3) 0.5316(2) -0.32958(17)
H188 H 1.2516 0.5800 -0.3406
H189 H 1.1557 0.5204 -0.3427
C137 C 1.2728(3) 0.4657(3) -0.35693(18)
H190 H 1.3390 0.4709 -0.3372
H191 H 1.2369 0.4163 -0.3524
C138 C 1.2773(3) 0.4622(3) -0.41766(19)
H192 H 1.3102 0.5127 -0.4223
H193 H 1.3172 0.4231 -0.4298
C139 C 1.1827(3) 0.4433(3) -0.45457(18)
H194 H 1.1407 0.4799 -0.4410
H195 H 1.1519 0.3909 -0.4526
C140 C 1.1904(3) 0.4465(3) -0.51539(19)
H196 H 1.2242 0.4981 -0.5171
H197 H 1.2298 0.4081 -0.5294
C141 C 1.0953(4) 0.4313(3) -0.55241(19)
H198 H 1.0551 0.4687 -0.5377
H199 H 1.0624 0.3790 -0.5517
C142 C 1.1025(4) 0.4372(3) -0.6120(2)
H200 H 1.0385 0.4229 -0.6342
H201 H 1.1446 0.4021 -0.6265
H202 H 1.1291 0.4902 -0.6137
C143? C 0.6731(7) 0.7634(6) -0.2930(4)
H203? H 0.6874 0.7931 -0.2552
H204? H 0.6449 0.7946 -0.3175
H205? H 0.7324 0.7495 -0.3050
C144? C 0.5163(7) 0.7132(6) -0.2692(4)
H206? H 0.5329 0.7235 -0.2290
H207? H 0.4617 0.6712 -0.2808
H208? H 0.4992 0.7598 -0.2811
C145? C 0.5718(7) 0.6486(6) -0.3559(3)
H209? H 0.6292 0.6320 -0.3698
H210? H 0.5257 0.6014 -0.3567
C146? C 0.5272(7) 0.6931(6) -0.3950(4)
H211? H 0.5725 0.7407 -0.3944
H212? H 0.4685 0.7087 -0.3822
C147? C 0.5008(7) 0.6475(6) -0.4550(4)
H213? H 0.5606 0.6372 -0.4692
H214? H 0.4618 0.5972 -0.4550
C148? C 0.4452(7) 0.6888(6) -0.4939(4)
H215? H 0.4869 0.7363 -0.4973
H216? H 0.3891 0.7042 -0.4778
C149? C 0.4101(8) 0.6392(7) -0.5517(4)
H217? H 0.4668 0.6259 -0.5682
H218? H 0.3718 0.5904 -0.5478
C150? C 0.3518(7) 0.6748(6) -0.5903(4)
H219? H 0.3910 0.7222 -0.5959
H220? H 0.2965 0.6902 -0.5733
C151? C 0.3143(8) 0.6230(6) -0.6461(4)
H221? H 0.2679 0.5788 -0.6415
H222? H 0.3682 0.6025 -0.6618
C152? C 0.2641(7) 0.6681(6) -0.6866(4)
H223? H 0.2381 0.6330 -0.7218
H224? H 0.3109 0.7101 -0.6929
H225? H 0.2118 0.6896 -0.6707
C153? C 0.6455(9) -0.2569(7) 0.3048(5)
H226? H 0.6071 -0.2565 0.2694
H227? H 0.6200 -0.3023 0.3189
H228? H 0.7123 -0.2589 0.2998
C154? C 0.5424(6) -0.1739(7) 0.3582(5)
H229? H 0.5027 -0.1672 0.3248
H230? H 0.5469 -0.1284 0.3873
H231? H 0.5132 -0.2197 0.3704
C155? C 0.7048(8) -0.1954(7) 0.4014(4)
H232? H 0.6696 -0.2397 0.4134
H233? H 0.7645 -0.2116 0.3903
C156? C 0.7303(11) -0.1419(8) 0.4441(6)
H234? H 0.6723 -0.1179 0.4484
H235? H 0.7763 -0.1031 0.4327
C157? C 0.7739(14) -0.1452(11) 0.5031(7)
H236? H 0.8439 -0.1282 0.5064
H237? H 0.7496 -0.1052 0.5280
C158? C 0.7619(15) -0.2132(13) 0.5254(9)
H238? H 0.7597 -0.2607 0.4977
H239? H 0.7056 -0.2177 0.5449
C159? C 0.8757(19) -0.1855(17) 0.5721(12)
H240? H 0.9121 -0.1518 0.5517
H241? H 0.8570 -0.1491 0.6021
C160? C 0.917(2) -0.200(3) 0.5883(12)
H242? H 0.9749 -0.1801 0.5735
H243? H 0.9054 -0.2563 0.5752
C161? C 0.9530(13) -0.1874(15) 0.6558(8)
H244? H 0.9769 -0.1320 0.6708
H245? H 0.8974 -0.2031 0.6738
C162? C 1.0322(11) -0.2338(12) 0.6700(8)
H246? H 1.0944 -0.1995 0.6791
H247? H 1.0334 -0.2745 0.6383
H248? H 1.0196 -0.2570 0.7017
loop_
_geom_bond_atom_site_label_1
_geom_bond_atom_site_label_2
_geom_bond_site_symmetry_1
_geom_bond_site_symmetry_2
N1 H1 1_555 1_555
N2 H2 1_555 1_555
N3 H3 1_555 1_555
N4 H4 1_555 1_555
C1 C2 1_555 1_555
C2 H5 1_555 1_555
C3 C2 1_555 1_555
C4 C3 1_555 1_555
C5 C4 1_555 1_555
C6 C5 1_555 1_555
H6 C6 1_555 1_555
C7 C6 1_555 1_555
C8 C7 1_555 1_555
C9 C8 1_555 1_555
C10 C9 1_555 1_555
H7 C10 1_555 1_555
C11 C10 1_555 1_555
C12 C11 1_555 1_555
C13 C12 1_555 1_555
C14 C13 1_555 1_555
H8 C14 1_555 1_555
C15 C14 1_555 1_555
C16 C15 1_555 1_555
C17 C16 1_555 1_555
C18 C17 1_555 1_555
H9 C18 1_555 1_555
C19 C18 1_555 1_555
C20 C19 1_555 1_555
H10 C20 1_555 1_555
C21 C20 1_555 1_555
C22 N4 1_555 1_555
C23 N4 1_555 1_555
C24 C23 1_555 1_555
C25 N3 1_555 1_555
C26 N3 1_555 1_555
C27 C26 1_555 1_555
C28 N2 1_555 1_555
C29 N2 1_555 1_555
C30 C29 1_555 1_555
C31 N1 1_555 1_555
C32 N1 1_555 1_555
C33 C32 1_555 1_555
C34 C1 1_555 1_555
H11 C34 1_555 1_555
C35 C1 1_555 1_555
C36 C35 1_555 1_555
H12 C36 1_555 1_555
H13 C36 1_555 1_555
H14 C36 1_555 1_555
C37 C35 1_555 1_555
H15 C37 1_555 1_555
H16 C37 1_555 1_555
H17 C37 1_555 1_555
C38 C35 1_555 1_555
H18 C38 1_555 1_555
H19 C38 1_555 1_555
C39 C38 1_555 1_555
H20 C39 1_555 1_555
H21 C39 1_555 1_555
C40 C39 1_555 1_555
H22 C40 1_555 1_555
H23 C40 1_555 1_555
C41 C40 1_555 1_555
H24 C41 1_555 1_555
H25 C41 1_555 1_555
C42 C41 1_555 1_555
H26 C42 1_555 1_555
H27 C42 1_555 1_555
C43 C42 1_555 1_555
H28 C43 1_555 1_555
H29 C43 1_555 1_555
C44 C43 1_555 1_555
H30 C44 1_555 1_555
H31 C44 1_555 1_555
C45 C44 1_555 1_555
H32 C45 1_555 1_555
H33 C45 1_555 1_555
H34 C45 1_555 1_555
C46 C4 1_555 1_555
H35 C46 1_555 1_555
H36 C46 1_555 1_555
H37 C46 1_555 1_555
C47 C4 1_555 1_555
H38 C47 1_555 1_555
H39 C47 1_555 1_555
H40 C47 1_555 1_555
C48 C8 1_555 1_555
H41 C48 1_555 1_555
H42 C48 1_555 1_555
H43 C48 1_555 1_555
C49 C8 1_555 1_555
H44 C49 1_555 1_555
H45 C49 1_555 1_555
H46 C49 1_555 1_555
C50 C12 1_555 1_555
H47 C50 1_555 1_555
H48 C50 1_555 1_555
H49 C50 1_555 1_555
C51 C12 1_555 1_555
H50 C51 1_555 1_555
H51 C51 1_555 1_555
H52 C51 1_555 1_555
C52 C16 1_555 1_555
H53 C52 1_555 1_555
H54 C52 1_555 1_555
H55 C52 1_555 1_555
C53 C16 1_555 1_555
H56 C53 1_555 1_555
H57 C53 1_555 1_555
H58 C53 1_555 1_555
C54 C19 1_555 1_555
C55 C54 1_555 1_555
H59 C55 1_555 1_555
H60 C55 1_555 1_555
H61 C55 1_555 1_555
C56 C54 1_555 1_555
H62 C56 1_555 1_555
H63 C56 1_555 1_555
H64 C56 1_555 1_555
C57 C54 1_555 1_555
H65 C57 1_555 1_555
H66 C57 1_555 1_555
C58 C57 1_555 1_555
H67 C58 1_555 1_555
H68 C58 1_555 1_555
C59 C58 1_555 1_555
H69 C59 1_555 1_555
H70 C59 1_555 1_555
C60 C59 1_555 1_555
H71 C60 1_555 1_555
H72 C60 1_555 1_555
C61 C60 1_555 1_555
H73 C61 1_555 1_555
H74 C61 1_555 1_555
C62 C61 1_555 1_555
H75 C62 1_555 1_555
H76 C62 1_555 1_555
C63 C62 1_555 1_555
H77 C63 1_555 1_555
H78 C63 1_555 1_555
C64 C63 1_555 1_555
H79 C64 1_555 1_555
H80 C64 1_555 1_555
H81 C64 1_555 1_555
C65 C21 1_555 1_555
C66 C65 1_555 1_555
H82 C66 1_555 1_555
C67 C66 1_555 1_555
H83 C67 1_555 1_555
C68 C67 1_555 1_555
C69 C68 1_555 1_555
H84 C69 1_555 1_555
C70 C65 1_555 1_555
H85 C70 1_555 1_555
C71 C68 1_555 1_555
C72 C71 1_555 1_555
H86 C72 1_555 1_555
H87 C72 1_555 1_555
H88 C72 1_555 1_555
C73 C71 1_555 1_555
H89 C73 1_555 1_555
H90 C73 1_555 1_555
H91 C73 1_555 1_555
C74 C71 1_555 1_555
H92 C74 1_555 1_555
H93 C74 1_555 1_555
C75 C74 1_555 1_555
H94 C75 1_555 1_555
H95 C75 1_555 1_555
C76 C75 1_555 1_555
H96 C76 1_555 1_555
H97 C76 1_555 1_555
C77 C76 1_555 1_555
H98 C77 1_555 1_555
H99 C77 1_555 1_555
C78 C77 1_555 1_555
H100 C78 1_555 1_555
H101 C78 1_555 1_555
C79 C78 1_555 1_555
H102 C79 1_555 1_555
H103 C79 1_555 1_555
C80 C79 1_555 1_555
H104 C80 1_555 1_555
H105 C80 1_555 1_555
C81 C80 1_555 1_555
H106 C81 1_555 1_555
H107 C81 1_555 1_555
H108 C81 1_555 1_555
C82 C24 1_555 1_555
C83 C82 1_555 1_555
H109 C83 1_555 1_555
C84 C83 1_555 1_555
H110 C84 1_555 1_555
C85 C84 1_555 1_555
C86 C85 1_555 1_555
H111 C86 1_555 1_555
C87 C82 1_555 1_555
H112 C87 1_555 1_555
C88 C85 1_555 1_555
C89 C88 1_555 1_555
H113 C89 1_555 1_555
H114 C89 1_555 1_555
H115 C89 1_555 1_555
C90 C88 1_555 1_555
H116 C90 1_555 1_555
H117 C90 1_555 1_555
H118 C90 1_555 1_555
C91 C88 1_555 1_555
H119 C91 1_555 1_555
H120 C91 1_555 1_555
C92 C91 1_555 1_555
H121 C92 1_555 1_555
H122 C92 1_555 1_555
C93 C92 1_555 1_555
H123 C93 1_555 1_555
H124 C93 1_555 1_555
C94 C93 1_555 1_555
H125 C94 1_555 1_555
H126 C94 1_555 1_555
C95 C94 1_555 1_555
H127 C95 1_555 1_555
H128 C95 1_555 1_555
C96 C95 1_555 1_555
H129 C96 1_555 1_555
H130 C96 1_555 1_555
C97 C96 1_555 1_555
H131 C97 1_555 1_555
H132 C97 1_555 1_555
C98 C97 1_555 1_555
H133 C98 1_555 1_555
H134 C98 1_555 1_555
H135 C98 1_555 1_555
C99 C27 1_555 1_555
C100 C99 1_555 1_555
H136 C100 1_555 1_555
C101 C100 1_555 1_555
H137 C101 1_555 1_555
C102 C101 1_555 1_555
C103 C102 1_555 1_555
H138 C103 1_555 1_555
C104 C99 1_555 1_555
H139 C104 1_555 1_555
C105 C102 1_555 1_555
C106 C105 1_555 1_555
H140 C106 1_555 1_555
H141 C106 1_555 1_555
H142 C106 1_555 1_555
C107 C105 1_555 1_555
H143 C107 1_555 1_555
H144 C107 1_555 1_555
H145 C107 1_555 1_555
C108 C105 1_555 1_555
H146 C108 1_555 1_555
H147 C108 1_555 1_555
H148 C108 1_555 1_555
C109 C30 1_555 1_555
C110 C109 1_555 1_555
H149 C110 1_555 1_555
C111 C110 1_555 1_555
H150 C111 1_555 1_555
C112 C111 1_555 1_555
C113 C112 1_555 1_555
H151 C113 1_555 1_555
C114 C109 1_555 1_555
H152 C114 1_555 1_555
C115 C112 1_555 1_555
C116 C115 1_555 1_555
H153 C116 1_555 1_555
H154 C116 1_555 1_555
H155 C116 1_555 1_555
C117 C115 1_555 1_555
H156 C117 1_555 1_555
H157 C117 1_555 1_555
H158 C117 1_555 1_555
C118 C115 1_555 1_555
H159 C118 1_555 1_555
H160 C118 1_555 1_555
C119 C118 1_555 1_555
H161 C119 1_555 1_555
H162 C119 1_555 1_555
C120 H163 1_555 1_555
H164 C120 1_555 1_555
C121 C119 1_555 1_555
H165 C121 1_555 1_555
H166 C121 1_555 1_555
C122 C120 1_555 1_555
H167 C122 1_555 1_555
H168 C122 1_555 1_555
C123 C122 1_555 1_555
H169 C123 1_555 1_555
H170 C123 1_555 1_555
C124 C123 1_555 1_555
H171 C124 1_555 1_555
H172 C124 1_555 1_555
C125 C124 1_555 1_555
H173 C125 1_555 1_555
H174 C125 1_555 1_555
H175 C125 1_555 1_555
C126 C33 1_555 1_555
C127 C126 1_555 1_555
H176 C127 1_555 1_555
C128 C127 1_555 1_555
H177 C128 1_555 1_555
C129 C128 1_555 1_555
C130 C129 1_555 1_555
H178 C130 1_555 1_555
C131 C126 1_555 1_555
H179 C131 1_555 1_555
C132 C129 1_555 1_555
C133 C132 1_555 1_555
H180 C133 1_555 1_555
H181 C133 1_555 1_555
H182 C133 1_555 1_555
C134 C132 1_555 1_555
H183 C134 1_555 1_555
H184 C134 1_555 1_555
H185 C134 1_555 1_555
C135 C132 1_555 1_555
H186 C135 1_555 1_555
H187 C135 1_555 1_555
C136 C135 1_555 1_555
H188 C136 1_555 1_555
H189 C136 1_555 1_555
C137 C136 1_555 1_555
H190 C137 1_555 1_555
H191 C137 1_555 1_555
C138 C137 1_555 1_555
H192 C138 1_555 1_555
H193 C138 1_555 1_555
C139 C138 1_555 1_555
H194 C139 1_555 1_555
H195 C139 1_555 1_555
C140 C139 1_555 1_555
H196 C140 1_555 1_555
H197 C140 1_555 1_555
C141 C140 1_555 1_555
H198 C141 1_555 1_555
H199 C141 1_555 1_555
C142 C141 1_555 1_555
H200 C142 1_555 1_555
H201 C142 1_555 1_555
H202 C142 1_555 1_555
C3 C32 1_555 1_555
C5 C31 1_555 1_555
C7 C29 1_555 1_555
C9 C28 1_555 1_555
C11 C26 1_555 1_555
C13 C25 1_555 1_555
C15 C23 1_555 1_555
C17 C22 1_555 1_555
C21 C22 1_555 1_555
C24 C25 1_555 1_555
C27 C28 1_555 1_555
C30 C31 1_555 1_555
C33 C34 1_555 1_555
C69 C70 1_555 1_555
C86 C87 1_555 1_555
C103 C104 1_555 1_555
C113 C114 1_555 1_555
C120 C121 1_555 1_555
C130 C131 1_555 1_555

#END
