
#######################################################################
#
#                 Cambridge Crystallographic Data Centre
#                                CCDC 
#
#######################################################################
#
# If this CIF has been generated from an entry in the Cambridge 
# Structural Database, then it will include bibliographic, chemical, 
# crystal, experimental, refinement or atomic coordinate data resulting 
# from the CCDC's data processing and validation procedures.
#
#######################################################################

data_ROCSOT
_chemical_formula_moiety         'C76 H80 Si2'
_chemical_name_systematic        
4,14-Dimesityl-9,19-bis(2-(tri-isopropylsilyl)ethynyl)benzo(a,de,l,op)pentacene
_symmetry_cell_setting           triclinic
_symmetry_space_group_name_H-M   'P -1'
_symmetry_Int_Tables_number      2
_space_group_name_Hall           '-P 1'
loop_
_symmetry_equiv_pos_site_id
_symmetry_equiv_pos_as_xyz
1 x,y,z
2 -x,-y,-z
_cell_length_a                   13.9671(12)
_cell_length_b                   14.3263(13)
_cell_length_c                   15.9903(15)
_cell_angle_alpha                102.783(7)
_cell_angle_beta                 107.815(6)
_cell_angle_gamma                90.531(6)
_cell_volume                     2960.46
_exptl_crystal_colour            'dark green'
_exptl_crystal_description       platelet
_cell_formula_units_Z            2
loop_
_atom_site_label
_atom_site_type_symbol
_atom_site_fract_x
_atom_site_fract_y
_atom_site_fract_z
Si1 Si 1.0742(2) 0.59838(16) 0.28740(19)
C1 C 0.9934(7) 0.9015(6) 0.4675(6)
H1 H 0.9916 0.8339 0.4468
C2 C 1.0421(7) 0.9610(6) 0.4318(6)
C3 C 1.0533(7) 1.0612(6) 0.4668(6)
C4 C 1.1107(7) 1.1222(6) 0.4355(6)
C5 C 1.1383(7) 1.2170(6) 0.4778(6)
H2 H 1.1196 1.2425 0.5302
C6 C 1.1929(7) 1.2791(6) 0.4478(6)
H3 H 1.2117 1.3442 0.4799
C7 C 1.2181(7) 1.2423(6) 0.3705(6)
H4 H 1.2557 1.2822 0.3494
C8 C 1.1882(7) 1.1450(6) 0.3221(6)
C9 C 1.2121(7) 1.1095(6) 0.2398(6)
C10 C 1.1890(7) 1.0134(6) 0.1959(6)
C11 C 1.2118(7) 0.9782(6) 0.1126(6)
H5 H 1.2428 1.0215 0.0894
C12 C 1.1902(8) 0.8856(6) 0.0673(6)
H6 H 1.2034 0.8648 0.0115
C13 C 1.1486(8) 0.8200(6) 0.1016(6)
H7 H 1.1361 0.7543 0.0702
C14 C 1.1252(7) 0.8495(6) 0.1817(6)
H8 H 1.0930 0.8043 0.2020
C15 C 1.1482(6) 0.9450(5) 0.2333(5)
C16 C 1.1233(7) 0.9812(6) 0.3158(6)
C17 C 1.0826(7) 0.9189(6) 0.3594(6)
C18 C 1.1432(7) 1.0797(6) 0.3574(6)
C19 C 1.0795(7) 0.8165(6) 0.3365(6)
C20 C 1.0748(7) 0.7301(6) 0.3208(6)
C21 C 1.0078(18) 0.5639(14) 0.1571(13)
H9 H 1.0540 0.5877 0.1280
C22 C 0.9151(15) 0.6118(12) 0.1341(12)
H10 H 0.9308 0.6815 0.1550
H11 H 0.8690 0.5911 0.1633
H12 H 0.8830 0.5950 0.0684
C23 C 0.996(2) 0.453(2) 0.127(2)
H13 H 1.0617 0.4276 0.1460
H14 H 0.9670 0.4332 0.0608
H15 H 0.9504 0.4276 0.1543
C24 C 1.0207(9) 0.5472(7) 0.3639(7)
H16 H 1.0315 0.4773 0.3548
C25 C 0.9057(10) 0.5584(9) 0.3457(8)
H17 H 0.8688 0.5264 0.2828
H18 H 0.8941 0.6268 0.3563
H19 H 0.8820 0.5290 0.3863
C26 C 1.0784(11) 0.5979(9) 0.4640(8)
H20 H 1.1508 0.5906 0.4762
H21 H 1.0537 0.5687 0.5042
H22 H 1.0671 0.6663 0.4745
C27 C 1.2100(10) 0.5707(7) 0.3063(8)
H23 H 1.2492 0.6140 0.3657
C28 C 1.2300(10) 0.4711(7) 0.3163(8)
H24 H 1.2019 0.4568 0.3616
H25 H 1.3030 0.4655 0.3356
H26 H 1.1983 0.4256 0.2581
C29 C 1.2527(11) 0.5965(9) 0.2370(10)
H27 H 1.2379 0.6620 0.2317
H28 H 1.2218 0.5516 0.1783
H29 H 1.3259 0.5924 0.2563
C30 C 1.2526(7) 1.1791(6) 0.2013(6)
C31 C 1.1866(7) 1.2233(6) 0.1368(6)
C32 C 1.2246(8) 1.2878(6) 0.1017(6)
H30 H 1.1790 1.3162 0.0588
C33 C 1.3286(7) 1.3140(6) 0.1264(6)
C34 C 1.3937(8) 1.2690(6) 0.1901(6)
H31 H 1.4645 1.2848 0.2091
C35 C 1.3560(7) 1.2037(6) 0.2245(6)
C36 C 1.0731(8) 1.1978(7) 0.1090(7)
H32 H 1.0599 1.1506 0.1409
H33 H 1.0470 1.1707 0.0437
H34 H 1.0395 1.2559 0.1246
C37 C 1.3680(10) 1.3858(8) 0.0887(9)
H35 H 1.4417 1.3943 0.1140
H36 H 1.3398 1.4472 0.1043
H37 H 1.3484 1.3634 0.0228
C38 C 1.4266(7) 1.1571(7) 0.2937(7)
H38 H 1.3872 1.1118 0.3107
H39 H 1.4631 1.2068 0.3475
H40 H 1.4750 1.1228 0.2676
Si1A Si 0.9258(2) 1.40162(16) 0.71260(19)
C1A C 1.0066(7) 1.0985(6) 0.5325(6)
H1A H 1.0084 1.1661 0.5532
C2A C 0.9579(7) 1.0390(6) 0.5682(6)
C3A C 0.9467(7) 0.9388(6) 0.5332(6)
C4A C 0.8893(7) 0.8778(6) 0.5645(6)
C5A C 0.8617(7) 0.7830(6) 0.5222(6)
H2A H 0.8804 0.7575 0.4698
C6A C 0.8071(7) 0.7209(6) 0.5522(6)
H3A H 0.7883 0.6558 0.5201
C7A C 0.7819(7) 0.7577(6) 0.6295(6)
H4A H 0.7443 0.7178 0.6506
C8A C 0.8118(7) 0.8550(6) 0.6779(6)
C9A C 0.7879(7) 0.8905(6) 0.7602(6)
C10A C 0.8110(7) 0.9866(6) 0.8041(6)
C11A C 0.7882(7) 1.0218(6) 0.8874(6)
H5A H 0.7572 0.9785 0.9106
C12A C 0.8098(8) 1.1144(6) 0.9327(6)
H6A H 0.7966 1.1352 0.9885
C13A C 0.8514(8) 1.1800(6) 0.8984(6)
H7A H 0.8639 1.2457 0.9298
C14A C 0.8748(7) 1.1505(6) 0.8183(6)
H8A H 0.9070 1.1957 0.7980
C15A C 0.8518(6) 1.0550(5) 0.7667(5)
C16A C 0.8767(7) 1.0188(6) 0.6842(6)
C17A C 0.9174(7) 1.0811(6) 0.6406(6)
C18A C 0.8568(7) 0.9203(6) 0.6426(6)
C19A C 0.9205(7) 1.1835(6) 0.6635(6)
C20A C 0.9252(7) 1.2699(6) 0.6792(6)
C21A C 0.9922(18) 1.4361(14) 0.8429(13)
H9A H 0.9460 1.4123 0.8720
C22A C 1.0849(15) 1.3882(12) 0.8659(12)
H10A H 1.0692 1.3185 0.8450
H11A H 1.1310 1.4089 0.8367
H12A H 1.1170 1.4050 0.9316
C23A C 1.004(2) 1.547(2) 0.873(2)
H13A H 0.9383 1.5724 0.8540
H14A H 1.0330 1.5668 0.9392
H15A H 1.0496 1.5724 0.8457
C24A C 0.9793(9) 1.4528(7) 0.6361(7)
H16A H 0.9685 1.5227 0.6452
C25A C 1.0943(10) 1.4416(9) 0.6543(8)
H17A H 1.1312 1.4736 0.7172
H18A H 1.1059 1.3732 0.6437
H19A H 1.1180 1.4710 0.6137
C26A C 0.9216(11) 1.4021(9) 0.5360(8)
H20A H 0.8492 1.4094 0.5238
H21A H 0.9463 1.4313 0.4958
H22A H 0.9329 1.3337 0.5255
C27A C 0.7900(10) 1.4293(7) 0.6937(8)
H23A H 0.7508 1.3860 0.6343
C28A C 0.7700(10) 1.5289(7) 0.6837(8)
H24A H 0.7981 1.5432 0.6384
H25A H 0.6970 1.5345 0.6644
H26A H 0.8017 1.5744 0.7419
C29A C 0.7473(11) 1.4035(9) 0.7630(10)
H27A H 0.7621 1.3380 0.7683
H28A H 0.7782 1.4484 0.8217
H29A H 0.6741 1.4076 0.7437
C30A C 0.7474(7) 0.8209(6) 0.7987(6)
C31A C 0.8134(7) 0.7767(6) 0.8632(6)
C32A C 0.7754(8) 0.7122(6) 0.8983(6)
H30A H 0.8210 0.6838 0.9412
C33A C 0.6714(7) 0.6860(6) 0.8736(6)
C34A C 0.6063(8) 0.7310(6) 0.8099(6)
H31A H 0.5355 0.7152 0.7909
C35A C 0.6440(7) 0.7963(6) 0.7755(6)
C36A C 0.9269(8) 0.8022(7) 0.8910(7)
H32A H 0.9401 0.8494 0.8591
H33A H 0.9530 0.8293 0.9563
H34A H 0.9605 0.7441 0.8754
C37A C 0.6320(10) 0.6142(8) 0.9113(9)
H35A H 0.5583 0.6057 0.8860
H36A H 0.6602 0.5528 0.8957
H37A H 0.6516 0.6366 0.9772
C38A C 0.5734(7) 0.8429(7) 0.7063(7)
H38A H 0.6128 0.8882 0.6893
H39A H 0.5369 0.7932 0.6525
H40A H 0.5250 0.8772 0.7324
Si2 Si 0.5700(2) 0.80524(16) 0.29581(17)
C42 C 0.4909(7) 0.5832(6) 0.4675(6)
H48 H 0.4871 0.6408 0.4471
C43 C 0.5422(7) 0.5073(5) 0.4308(6)
C44 C 0.5543(7) 0.4249(6) 0.4671(6)
C45 C 0.6121(7) 0.3501(5) 0.4341(6)
C46 C 0.6420(7) 0.2750(5) 0.4776(6)
H49 H 0.6261 0.2748 0.5313
C47 C 0.6936(7) 0.2015(6) 0.4447(6)
H50 H 0.7114 0.1510 0.4748
C48 C 0.7190(7) 0.2017(6) 0.3695(6)
H51 H 0.7559 0.1515 0.3484
C49 C 0.6915(7) 0.2761(6) 0.3204(6)
C50 C 0.7164(6) 0.2717(5) 0.2419(6)
C51 C 0.6943(7) 0.3484(6) 0.1968(6)
C52 C 0.7211(8) 0.3454(6) 0.1190(6)
H52 H 0.7548 0.2925 0.0975
C53 C 0.7003(8) 0.4160(6) 0.0734(7)
H53 H 0.7195 0.4121 0.0207
C54 C 0.6503(8) 0.4951(7) 0.1039(7)
H54 H 0.6343 0.5439 0.0713
C55 C 0.6251(8) 0.5009(6) 0.1815(6)
H55 H 0.5901 0.5538 0.2008
C56 C 0.6493(7) 0.4306(5) 0.2345(6)
C57 C 0.6234(7) 0.4345(6) 0.3156(6)
C58 C 0.5806(7) 0.5155(5) 0.3611(6)
C59 C 0.6444(6) 0.3556(5) 0.3590(6)
C60 C 0.5736(7) 0.6068(6) 0.3348(6)
C61 C 0.5672(8) 0.6840(6) 0.3216(6)
C62 C 0.4840(9) 0.7969(7) 0.1743(7)
H56 H 0.4141 0.7767 0.1714
C63 C 0.5128(15) 0.7231(11) 0.1057(9)
H57 H 0.5151 0.6611 0.1224
H58 H 0.5793 0.7429 0.1040
H59 H 0.4627 0.7170 0.0461
C64 C 0.4807(11) 0.8957(8) 0.1502(8)
H60 H 0.4615 0.9429 0.1955
H61 H 0.4311 0.8907 0.0906
H62 H 0.5475 0.9162 0.1494
C65 C 0.5172(8) 0.8877(7) 0.3767(6)
H63 H 0.5280 0.9548 0.3710
C66 C 0.4010(9) 0.8639(8) 0.3539(8)
H64 H 0.3662 0.8681 0.2917
H65 H 0.3756 0.9099 0.3955
H66 H 0.3886 0.7987 0.3601
C67 C 0.5772(10) 0.8827(8) 0.4764(7)
H67 H 0.6493 0.8985 0.4884
H68 H 0.5668 0.8178 0.4840
H69 H 0.5528 0.9288 0.5189
C68 C 0.7073(8) 0.8438(6) 0.3211(6)
H70 H 0.7433 0.8332 0.3823
C69 C 0.7301(10) 0.9491(7) 0.3263(8)
H71 H 0.7001 0.9889 0.3683
H72 H 0.7016 0.9618 0.2661
H73 H 0.8034 0.9646 0.3476
C70 C 0.7556(9) 0.7814(8) 0.2547(8)
H74 H 0.7414 0.7133 0.2513
H75 H 0.8288 0.7974 0.2763
H76 H 0.7271 0.7941 0.1946
C71 C 0.7549(7) 0.1831(5) 0.2000(6)
C72 C 0.6898(7) 0.1069(6) 0.1384(6)
C73 C 0.7260(7) 0.0227(6) 0.1052(6)
H77 H 0.6803 -0.0279 0.0627
C74 C 0.8283(8) 0.0104(6) 0.1328(6)
C75 C 0.8916(8) 0.0876(6) 0.1913(7)
H78 H 0.9622 0.0814 0.2069
C76 C 0.8603(7) 0.1726(6) 0.2287(6)
C77 C 0.5771(7) 0.1189(6) 0.1076(6)
H79 H 0.5646 0.1830 0.1372
H80 H 0.5411 0.0702 0.1238
H81 H 0.5530 0.1112 0.0419
C78 C 0.8677(9) -0.0829(7) 0.0992(7)
H82 H 0.9413 -0.0779 0.1251
H83 H 0.8488 -0.0971 0.0331
H84 H 0.8385 -0.1346 0.1173
C79 C 0.9311(8) 0.2544(7) 0.2929(7)
H85 H 0.8925 0.3080 0.3100
H86 H 0.9773 0.2750 0.2638
H87 H 0.9700 0.2339 0.3471
Si2A Si 0.4300(2) 0.19476(16) 0.70419(17)
C42A C 0.5091(7) 0.4168(6) 0.5325(6)
H48A H 0.5129 0.3592 0.5529
C43A C 0.4578(7) 0.4927(5) 0.5692(6)
C44A C 0.4457(7) 0.5751(6) 0.5329(6)
C45A C 0.3879(7) 0.6499(5) 0.5659(6)
C46A C 0.3580(7) 0.7250(5) 0.5224(6)
H49A H 0.3739 0.7252 0.4687
C47A C 0.3064(7) 0.7985(6) 0.5553(6)
H50A H 0.2886 0.8490 0.5252
C48A C 0.2810(7) 0.7983(6) 0.6305(6)
H51A H 0.2441 0.8485 0.6516
C49A C 0.3085(7) 0.7239(6) 0.6796(6)
C50A C 0.2836(6) 0.7283(5) 0.7581(6)
C51A C 0.3057(7) 0.6516(6) 0.8032(6)
C52A C 0.2789(8) 0.6546(6) 0.8810(6)
H52A H 0.2452 0.7075 0.9025
C53A C 0.2997(8) 0.5840(6) 0.9266(7)
H53A H 0.2805 0.5879 0.9793
C54A C 0.3497(8) 0.5049(7) 0.8961(7)
H54A H 0.3657 0.4561 0.9287
C55A C 0.3749(8) 0.4991(6) 0.8185(6)
H55A H 0.4099 0.4462 0.7992
C56A C 0.3507(7) 0.5694(5) 0.7655(6)
C57A C 0.3766(7) 0.5655(6) 0.6844(6)
C58A C 0.4194(7) 0.4845(5) 0.6389(6)
C59A C 0.3556(6) 0.6444(5) 0.6410(6)
C60A C 0.4264(7) 0.3932(6) 0.6652(6)
C61A C 0.4328(8) 0.3160(6) 0.6784(6)
C62A C 0.5160(9) 0.2031(7) 0.8257(7)
H56A H 0.5859 0.2233 0.8286
C63A C 0.4872(15) 0.2769(11) 0.8943(9)
H57A H 0.4849 0.3389 0.8776
H58A H 0.4207 0.2571 0.8960
H59A H 0.5373 0.2830 0.9539
C64A C 0.5193(11) 0.1043(8) 0.8498(8)
H60A H 0.5385 0.0571 0.8045
H61A H 0.5689 0.1093 0.9094
H62A H 0.4525 0.0838 0.8506
C65A C 0.4828(8) 0.1123(7) 0.6233(6)
H63A H 0.4720 0.0452 0.6290
C66A C 0.5990(9) 0.1361(8) 0.6461(8)
H64A H 0.6338 0.1319 0.7083
H65A H 0.6244 0.0901 0.6045
H66A H 0.6114 0.2013 0.6399
C67A C 0.4228(10) 0.1173(8) 0.5236(7)
H67A H 0.3507 0.1015 0.5116
H68A H 0.4332 0.1822 0.5160
H69A H 0.4472 0.0712 0.4811
C68A C 0.2927(8) 0.1562(6) 0.6789(6)
H70A H 0.2567 0.1668 0.6177
C69A C 0.2699(10) 0.0509(7) 0.6737(8)
H71A H 0.2999 0.0111 0.6317
H72A H 0.2984 0.0382 0.7339
H73A H 0.1966 0.0354 0.6524
C70A C 0.2444(9) 0.2186(8) 0.7453(8)
H74A H 0.2586 0.2867 0.7487
H75A H 0.1712 0.2026 0.7237
H76A H 0.2729 0.2059 0.8054
C71A C 0.2451(7) 0.8169(5) 0.8000(6)
C72A C 0.3102(7) 0.8931(6) 0.8616(6)
C73A C 0.2740(7) 0.9773(6) 0.8948(6)
H77A H 0.3197 1.0279 0.9373
C74A C 0.1717(8) 0.9896(6) 0.8672(6)
C75A C 0.1084(8) 0.9124(6) 0.8087(7)
H78A H 0.0378 0.9186 0.7931
C76A C 0.1397(7) 0.8274(6) 0.7713(6)
C77A C 0.4229(7) 0.8811(6) 0.8924(6)
H79A H 0.4354 0.8170 0.8628
H80A H 0.4589 0.9298 0.8762
H81A H 0.4470 0.8888 0.9581
C78A C 0.1323(9) 1.0829(7) 0.9008(7)
H82A H 0.0587 1.0779 0.8749
H83A H 0.1512 1.0971 0.9669
H84A H 0.1615 1.1346 0.8827
C79A C 0.0689(8) 0.7456(7) 0.7071(7)
H85A H 0.1075 0.6920 0.6900
H86A H 0.0227 0.7250 0.7362
H87A H 0.0300 0.7661 0.6529
C39? C 0.964(4) 0.545(3) 0.170(3)
H41? H 0.8967 0.5511 0.1805
C40? C 0.971(3) 0.610(2) 0.098(2)
H42? H 0.9607 0.6772 0.1222
H43? H 0.9198 0.5852 0.0397
H44? H 1.0384 0.6075 0.0906
C41? C 0.976(5) 0.441(4) 0.138(4)
H45? H 0.9713 0.4066 0.1836
H46? H 1.0426 0.4343 0.1297
H47? H 0.9234 0.4141 0.0809
loop_
_geom_bond_atom_site_label_1
_geom_bond_atom_site_label_2
_geom_bond_site_symmetry_1
_geom_bond_site_symmetry_2
Si1 C20 1_555 1_555
C1 H1 1_555 1_555
C2 C1 1_555 1_555
C3 C2 1_555 1_555
C4 C3 1_555 1_555
C5 C4 1_555 1_555
H2 C5 1_555 1_555
C6 C5 1_555 1_555
H3 C6 1_555 1_555
C7 C6 1_555 1_555
H4 C7 1_555 1_555
C8 C7 1_555 1_555
C9 C8 1_555 1_555
C10 C9 1_555 1_555
C11 C10 1_555 1_555
H5 C11 1_555 1_555
C12 C11 1_555 1_555
H6 C12 1_555 1_555
C13 C12 1_555 1_555
H7 C13 1_555 1_555
C14 C13 1_555 1_555
H8 C14 1_555 1_555
C15 C10 1_555 1_555
C16 C15 1_555 1_555
C17 C2 1_555 1_555
C18 C4 1_555 1_555
C19 C17 1_555 1_555
C20 C19 1_555 1_555
C21 Si1 1_555 1_555
H9 C21 1_555 1_555
C22 C21 1_555 1_555
H10 C22 1_555 1_555
H11 C22 1_555 1_555
H12 C22 1_555 1_555
C23 C21 1_555 1_555
H13 C23 1_555 1_555
H14 C23 1_555 1_555
H15 C23 1_555 1_555
C24 Si1 1_555 1_555
H16 C24 1_555 1_555
C25 C24 1_555 1_555
H17 C25 1_555 1_555
H18 C25 1_555 1_555
H19 C25 1_555 1_555
C26 C24 1_555 1_555
H20 C26 1_555 1_555
H21 C26 1_555 1_555
H22 C26 1_555 1_555
C27 Si1 1_555 1_555
H23 C27 1_555 1_555
C28 C27 1_555 1_555
H24 C28 1_555 1_555
H25 C28 1_555 1_555
H26 C28 1_555 1_555
C29 C27 1_555 1_555
H27 C29 1_555 1_555
H28 C29 1_555 1_555
H29 C29 1_555 1_555
C30 C9 1_555 1_555
C31 C30 1_555 1_555
C32 C31 1_555 1_555
H30 C32 1_555 1_555
C33 C32 1_555 1_555
C34 C33 1_555 1_555
H31 C34 1_555 1_555
C35 C30 1_555 1_555
C36 C31 1_555 1_555
H32 C36 1_555 1_555
H33 C36 1_555 1_555
H34 C36 1_555 1_555
C37 C33 1_555 1_555
H35 C37 1_555 1_555
H36 C37 1_555 1_555
H37 C37 1_555 1_555
C38 C35 1_555 1_555
H38 C38 1_555 1_555
H39 C38 1_555 1_555
H40 C38 1_555 1_555
Si2 C61 1_555 1_555
C42 H48 1_555 1_555
C43 C42 1_555 1_555
C44 C43 1_555 1_555
C45 C44 1_555 1_555
C46 C45 1_555 1_555
H49 C46 1_555 1_555
C47 C46 1_555 1_555
H50 C47 1_555 1_555
C48 C47 1_555 1_555
H51 C48 1_555 1_555
C49 C48 1_555 1_555
C50 C49 1_555 1_555
C51 C50 1_555 1_555
C52 C51 1_555 1_555
H52 C52 1_555 1_555
C53 C52 1_555 1_555
H53 C53 1_555 1_555
C54 C53 1_555 1_555
H54 C54 1_555 1_555
C55 C54 1_555 1_555
H55 C55 1_555 1_555
C56 C51 1_555 1_555
C57 C56 1_555 1_555
C58 C43 1_555 1_555
C59 C45 1_555 1_555
C60 C58 1_555 1_555
C61 C60 1_555 1_555
C62 Si2 1_555 1_555
H56 C62 1_555 1_555
C63 C62 1_555 1_555
H57 C63 1_555 1_555
H58 C63 1_555 1_555
H59 C63 1_555 1_555
C64 C62 1_555 1_555
H60 C64 1_555 1_555
H61 C64 1_555 1_555
H62 C64 1_555 1_555
C65 Si2 1_555 1_555
H63 C65 1_555 1_555
C66 C65 1_555 1_555
H64 C66 1_555 1_555
H65 C66 1_555 1_555
H66 C66 1_555 1_555
C67 C65 1_555 1_555
H67 C67 1_555 1_555
H68 C67 1_555 1_555
H69 C67 1_555 1_555
C68 Si2 1_555 1_555
H70 C68 1_555 1_555
C69 C68 1_555 1_555
H71 C69 1_555 1_555
H72 C69 1_555 1_555
H73 C69 1_555 1_555
C70 C68 1_555 1_555
H74 C70 1_555 1_555
H75 C70 1_555 1_555
H76 C70 1_555 1_555
C71 C50 1_555 1_555
C72 C71 1_555 1_555
C73 C72 1_555 1_555
H77 C73 1_555 1_555
C74 C73 1_555 1_555
C75 C74 1_555 1_555
H78 C75 1_555 1_555
C76 C71 1_555 1_555
C77 C72 1_555 1_555
H79 C77 1_555 1_555
H80 C77 1_555 1_555
H81 C77 1_555 1_555
C78 C74 1_555 1_555
H82 C78 1_555 1_555
H83 C78 1_555 1_555
H84 C78 1_555 1_555
C79 C76 1_555 1_555
H85 C79 1_555 1_555
H86 C79 1_555 1_555
H87 C79 1_555 1_555
Si1A C20A 1_555 1_555
C1A C3 1_555 1_555
H1A C1A 1_555 1_555
C2A C1A 1_555 1_555
C3A C1 1_555 1_555
C4A C3A 1_555 1_555
C5A C4A 1_555 1_555
H2A C5A 1_555 1_555
C6A C5A 1_555 1_555
H3A C6A 1_555 1_555
C7A C6A 1_555 1_555
H4A C7A 1_555 1_555
C8A C7A 1_555 1_555
C9A C8A 1_555 1_555
C10A C9A 1_555 1_555
C11A C10A 1_555 1_555
H5A C11A 1_555 1_555
C12A C11A 1_555 1_555
H6A C12A 1_555 1_555
C13A C12A 1_555 1_555
H7A C13A 1_555 1_555
C14A C13A 1_555 1_555
H8A C14A 1_555 1_555
C15A C10A 1_555 1_555
C16A C15A 1_555 1_555
C17A C2A 1_555 1_555
C18A C4A 1_555 1_555
C19A C17A 1_555 1_555
C20A C19A 1_555 1_555
C21A Si1A 1_555 1_555
H9A C21A 1_555 1_555
C22A C21A 1_555 1_555
H10A C22A 1_555 1_555
H11A C22A 1_555 1_555
H12A C22A 1_555 1_555
C23A C21A 1_555 1_555
H13A C23A 1_555 1_555
H14A C23A 1_555 1_555
H15A C23A 1_555 1_555
C24A Si1A 1_555 1_555
H16A C24A 1_555 1_555
C25A C24A 1_555 1_555
H17A C25A 1_555 1_555
H18A C25A 1_555 1_555
H19A C25A 1_555 1_555
C26A C24A 1_555 1_555
H20A C26A 1_555 1_555
H21A C26A 1_555 1_555
H22A C26A 1_555 1_555
C27A Si1A 1_555 1_555
H23A C27A 1_555 1_555
C28A C27A 1_555 1_555
H24A C28A 1_555 1_555
H25A C28A 1_555 1_555
H26A C28A 1_555 1_555
C29A C27A 1_555 1_555
H27A C29A 1_555 1_555
H28A C29A 1_555 1_555
H29A C29A 1_555 1_555
C30A C9A 1_555 1_555
C31A C30A 1_555 1_555
C32A C31A 1_555 1_555
H30A C32A 1_555 1_555
C33A C32A 1_555 1_555
C34A C33A 1_555 1_555
H31A C34A 1_555 1_555
C35A C30A 1_555 1_555
C36A C31A 1_555 1_555
H32A C36A 1_555 1_555
H33A C36A 1_555 1_555
H34A C36A 1_555 1_555
C37A C33A 1_555 1_555
H35A C37A 1_555 1_555
H36A C37A 1_555 1_555
H37A C37A 1_555 1_555
C38A C35A 1_555 1_555
H38A C38A 1_555 1_555
H39A C38A 1_555 1_555
H40A C38A 1_555 1_555
Si2A C61A 1_555 1_555
C42A C44 1_555 1_555
H48A C42A 1_555 1_555
C43A C42A 1_555 1_555
C44A C42 1_555 1_555
C45A C44A 1_555 1_555
C46A C45A 1_555 1_555
H49A C46A 1_555 1_555
C47A C46A 1_555 1_555
H50A C47A 1_555 1_555
C48A C47A 1_555 1_555
H51A C48A 1_555 1_555
C49A C48A 1_555 1_555
C50A C49A 1_555 1_555
C51A C50A 1_555 1_555
C52A C51A 1_555 1_555
H52A C52A 1_555 1_555
C53A C52A 1_555 1_555
H53A C53A 1_555 1_555
C54A C53A 1_555 1_555
H54A C54A 1_555 1_555
C55A C54A 1_555 1_555
H55A C55A 1_555 1_555
C56A C51A 1_555 1_555
C57A C56A 1_555 1_555
C58A C43A 1_555 1_555
C59A C45A 1_555 1_555
C60A C58A 1_555 1_555
C61A C60A 1_555 1_555
C62A Si2A 1_555 1_555
H56A C62A 1_555 1_555
C63A C62A 1_555 1_555
H57A C63A 1_555 1_555
H58A C63A 1_555 1_555
H59A C63A 1_555 1_555
C64A C62A 1_555 1_555
H60A C64A 1_555 1_555
H61A C64A 1_555 1_555
H62A C64A 1_555 1_555
C65A Si2A 1_555 1_555
H63A C65A 1_555 1_555
C66A C65A 1_555 1_555
H64A C66A 1_555 1_555
H65A C66A 1_555 1_555
H66A C66A 1_555 1_555
C67A C65A 1_555 1_555
H67A C67A 1_555 1_555
H68A C67A 1_555 1_555
H69A C67A 1_555 1_555
C68A Si2A 1_555 1_555
H70A C68A 1_555 1_555
C69A C68A 1_555 1_555
H71A C69A 1_555 1_555
H72A C69A 1_555 1_555
H73A C69A 1_555 1_555
C70A C68A 1_555 1_555
H74A C70A 1_555 1_555
H75A C70A 1_555 1_555
H76A C70A 1_555 1_555
C71A C50A 1_555 1_555
C72A C71A 1_555 1_555
C73A C72A 1_555 1_555
H77A C73A 1_555 1_555
C74A C73A 1_555 1_555
C75A C74A 1_555 1_555
H78A C75A 1_555 1_555
C76A C71A 1_555 1_555
C77A C72A 1_555 1_555
H79A C77A 1_555 1_555
H80A C77A 1_555 1_555
H81A C77A 1_555 1_555
C78A C74A 1_555 1_555
H82A C78A 1_555 1_555
H83A C78A 1_555 1_555
H84A C78A 1_555 1_555
C79A C76A 1_555 1_555
H85A C79A 1_555 1_555
H86A C79A 1_555 1_555
H87A C79A 1_555 1_555
C8 C18 1_555 1_555
C14 C15 1_555 1_555
C16 C17 1_555 1_555
C16 C18 1_555 1_555
C34 C35 1_555 1_555
C49 C59 1_555 1_555
C55 C56 1_555 1_555
C57 C58 1_555 1_555
C57 C59 1_555 1_555
C75 C76 1_555 1_555
C2A C3A 1_555 1_555
C8A C18A 1_555 1_555
C14A C15A 1_555 1_555
C16A C17A 1_555 1_555
C16A C18A 1_555 1_555
C34A C35A 1_555 1_555
C43A C44A 1_555 1_555
C49A C59A 1_555 1_555
C55A C56A 1_555 1_555
C57A C58A 1_555 1_555
C57A C59A 1_555 1_555
C75A C76A 1_555 1_555

#END
