
#######################################################################
#
#                 Cambridge Crystallographic Data Centre
#                                CCDC 
#
#######################################################################
#
# If this CIF has been generated from an entry in the Cambridge 
# Structural Database, then it will include bibliographic, chemical, 
# crystal, experimental, refinement or atomic coordinate data resulting 
# from the CCDC's data processing and validation procedures.
#
#######################################################################

data_ROCSUZ
_chemical_formula_moiety         'C74 H64,1.5(C1 H1 Cl3)'
_chemical_name_systematic        
"5,15-bis(4-t-Butylphenyl)-9,19-dimesityldinaphtho(3,2,1-de:3',2',1'-op)pentacene chloroform solvate"
_symmetry_cell_setting           triclinic
_symmetry_space_group_name_H-M   'P -1'
_symmetry_Int_Tables_number      2
_space_group_name_Hall           '-P 1'
loop_
_symmetry_equiv_pos_site_id
_symmetry_equiv_pos_as_xyz
1 x,y,z
2 -x,-y,-z
_cell_length_a                   15.5797(7)
_cell_length_b                   19.5366(9)
_cell_length_c                   22.6289(11)
_cell_angle_alpha                71.380(2)
_cell_angle_beta                 76.171(2)
_cell_angle_gamma                67.194(2)
_cell_volume                     5964.26
_exptl_crystal_colour            red
_exptl_crystal_description       prism
_cell_formula_units_Z            4
loop_
_atom_site_label
_atom_site_type_symbol
_atom_site_fract_x
_atom_site_fract_y
_atom_site_fract_z
C1 C 0.0796(2) 0.0176(2) 0.00510(17)
C2 C -0.0229(2) 0.0065(2) -0.05747(16)
H1 H -0.0346 0.0080 -0.0973
C3 C 0.0528(2) 0.0295(2) -0.05563(16)
C4 C 0.0936(2) 0.0686(2) -0.11019(17)
C5 C 0.1591(2) 0.1018(2) -0.10669(17)
C6 C 0.1901(3) 0.1509(2) -0.15956(18)
H2 H 0.1689 0.1612 -0.1986
C7 C 0.2523(3) 0.1853(2) -0.15607(19)
H3 H 0.2691 0.2214 -0.1920
C8 C 0.2887(3) 0.1677(2) -0.10206(18)
H4 H 0.3316 0.1910 -0.1011
C9 C 0.2635(3) 0.1146(2) -0.04648(17)
C10 C 0.3036(3) 0.0938(2) 0.00849(18)
C11 C 0.2805(3) 0.0375(2) 0.06119(17)
C12 C 0.3288(3) 0.0086(2) 0.11472(19)
H5 H 0.3716 0.0314 0.1168
C13 C 0.3156(3) -0.0508(3) 0.1630(2)
H6 H 0.3481 -0.0686 0.1985
C14 C 0.2532(3) -0.0855(3) 0.1598(2)
H7 H 0.2456 -0.1284 0.1925
C15 C 0.2037(3) -0.0579(2) 0.11018(18)
H8 H 0.1623 -0.0824 0.1090
C16 C 0.2119(3) 0.0067(2) 0.05969(17)
C17 C 0.1618(2) 0.0357(2) 0.00648(17)
C18 C 0.1939(2) 0.0840(2) -0.04822(16)
C19 C 0.0647(3) 0.0798(2) -0.17214(17)
C20 C -0.0128(3) 0.1434(2) -0.19416(19)
C21 C -0.0396(3) 0.1494(3) -0.2507(2)
H9 H -0.0922 0.1918 -0.2659
C22 C 0.0075(3) 0.0958(3) -0.2854(2)
C23 C 0.0823(3) 0.0334(3) -0.26228(19)
H10 H 0.1145 -0.0043 -0.2854
C24 C 0.1120(3) 0.0241(2) -0.20593(17)
C25 C -0.0660(3) 0.2026(3) -0.1575(2)
H11 H -0.1173 0.2424 -0.1800
H12 H -0.0234 0.2260 -0.1528
H13 H -0.0920 0.1782 -0.1159
C26 C -0.0238(5) 0.1045(4) -0.3466(2)
H14 H 0.0176 0.0617 -0.3647
H15 H -0.0208 0.1530 -0.3761
H16 H -0.0885 0.1046 -0.3385
C27 C 0.1921(3) -0.0462(3) -0.1809(2)
H17 H 0.2169 -0.0787 -0.2105
H18 H 0.1695 -0.0750 -0.1400
H19 H 0.2420 -0.0305 -0.1758
C28 C 0.3752(3) 0.1259(2) 0.01109(17)
C29 C 0.4651(3) 0.1036(2) -0.02241(18)
H20 H 0.4797 0.0691 -0.0479
C30 C 0.5330(3) 0.1310(2) -0.01897(18)
H21 H 0.5939 0.1142 -0.0416
C31 C 0.5141(3) 0.1828(2) 0.01708(18)
C32 C 0.4247(3) 0.2050(2) 0.04968(19)
H22 H 0.4097 0.2402 0.0745
C33 C 0.3561(3) 0.1773(2) 0.04706(18)
H23 H 0.2955 0.1937 0.0701
C34 C 0.5905(3) 0.2116(2) 0.0217(2)
C35 C 0.5582(6) 0.2633(5) 0.0633(5)
H24 H 0.5049 0.3082 0.0477
H25 H 0.6095 0.2801 0.0641
H26 H 0.5387 0.2363 0.1059
C36 C 0.6740(6) 0.1413(5) 0.0440(5)
H27 H 0.6951 0.1083 0.0148
H28 H 0.6553 0.1126 0.0861
H29 H 0.7254 0.1576 0.0454
C37 C 0.6197(7) 0.2550(6) -0.0466(4)
H30 H 0.6423 0.2200 -0.0741
H31 H 0.6699 0.2734 -0.0464
H32 H 0.5653 0.2987 -0.0620
C1A C -0.0796(2) -0.0176(2) -0.00510(17)
C2A C 0.0229(2) -0.0065(2) 0.05747(16)
H1A H 0.0346 -0.0080 0.0973
C3A C -0.0528(2) -0.0295(2) 0.05563(16)
C4A C -0.0936(2) -0.0686(2) 0.11019(17)
C5A C -0.1591(2) -0.1018(2) 0.10669(17)
C6A C -0.1901(3) -0.1509(2) 0.15956(18)
H2A H -0.1689 -0.1612 0.1986
C7A C -0.2523(3) -0.1853(2) 0.15607(19)
H3A H -0.2691 -0.2214 0.1920
C8A C -0.2887(3) -0.1677(2) 0.10206(18)
H4A H -0.3316 -0.1910 0.1011
C9A C -0.2635(3) -0.1146(2) 0.04648(17)
C10A C -0.3036(3) -0.0938(2) -0.00849(18)
C11A C -0.2805(3) -0.0375(2) -0.06119(17)
C12A C -0.3288(3) -0.0086(2) -0.11472(19)
H5A H -0.3716 -0.0314 -0.1168
C13A C -0.3156(3) 0.0508(3) -0.1630(2)
H6A H -0.3481 0.0686 -0.1985
C14A C -0.2532(3) 0.0855(3) -0.1598(2)
H7A H -0.2456 0.1284 -0.1925
C15A C -0.2037(3) 0.0579(2) -0.11018(18)
H8A H -0.1623 0.0824 -0.1090
C16A C -0.2119(3) -0.0067(2) -0.05969(17)
C17A C -0.1618(2) -0.0357(2) -0.00648(17)
C18A C -0.1939(2) -0.0840(2) 0.04822(16)
C19A C -0.0647(3) -0.0798(2) 0.17214(17)
C20A C 0.0128(3) -0.1434(2) 0.19416(19)
C21A C 0.0396(3) -0.1494(3) 0.2507(2)
H9A H 0.0922 -0.1918 0.2659
C22A C -0.0075(3) -0.0958(3) 0.2854(2)
C23A C -0.0823(3) -0.0334(3) 0.26228(19)
H10A H -0.1145 0.0043 0.2854
C24A C -0.1120(3) -0.0241(2) 0.20593(17)
C25A C 0.0660(3) -0.2026(3) 0.1575(2)
H11A H 0.1173 -0.2424 0.1800
H12A H 0.0234 -0.2260 0.1528
H13A H 0.0920 -0.1782 0.1159
C26A C 0.0238(5) -0.1045(4) 0.3466(2)
H14A H -0.0176 -0.0617 0.3647
H15A H 0.0208 -0.1530 0.3761
H16A H 0.0885 -0.1046 0.3385
C27A C -0.1921(3) 0.0462(3) 0.1809(2)
H17A H -0.2169 0.0787 0.2105
H18A H -0.1695 0.0750 0.1400
H19A H -0.2420 0.0305 0.1758
C28A C -0.3752(3) -0.1259(2) -0.01109(17)
C29A C -0.4651(3) -0.1036(2) 0.02241(18)
H20A H -0.4797 -0.0691 0.0479
C30A C -0.5330(3) -0.1310(2) 0.01897(18)
H21A H -0.5939 -0.1142 0.0416
C31A C -0.5141(3) -0.1828(2) -0.01708(18)
C32A C -0.4247(3) -0.2050(2) -0.04968(19)
H22A H -0.4097 -0.2402 -0.0745
C33A C -0.3561(3) -0.1773(2) -0.04706(18)
H23A H -0.2955 -0.1937 -0.0701
C34A C -0.5905(3) -0.2116(2) -0.0217(2)
C35A C -0.5582(6) -0.2633(5) -0.0633(5)
H24A H -0.5049 -0.3082 -0.0477
H25A H -0.6095 -0.2801 -0.0641
H26A H -0.5387 -0.2363 -0.1059
C36A C -0.6740(6) -0.1413(5) -0.0440(5)
H27A H -0.6951 -0.1083 -0.0148
H28A H -0.6553 -0.1126 -0.0861
H29A H -0.7254 -0.1576 -0.0454
C37A C -0.6197(7) -0.2550(6) 0.0466(4)
H30A H -0.6423 -0.2200 0.0741
H31A H -0.6699 -0.2734 0.0464
H32A H -0.5653 -0.2987 0.0620
C41 C 0.4690(3) 0.0050(2) 0.44613(17)
H42 H 0.4462 0.0117 0.4086
C42 C 0.5381(3) 0.0384(2) 0.44153(17)
C43 C 0.5811(3) 0.0670(2) 0.38273(17)
C44 C 0.6532(3) 0.0980(2) 0.37811(17)
C45 C 0.6944(3) 0.1301(2) 0.31937(18)
H43 H 0.6727 0.1331 0.2825
C46 C 0.7672(3) 0.1578(3) 0.31384(18)
H44 H 0.7935 0.1802 0.2734
C47 C 0.8003(3) 0.1530(2) 0.36564(19)
H45 H 0.8515 0.1702 0.3608
C48 C 0.7598(3) 0.1227(2) 0.42748(18)
C49 C 0.7928(3) 0.1195(2) 0.48116(19)
C50 C 0.7404(3) 0.1030(3) 0.5408(2)
C51 C 0.7673(4) 0.1044(3) 0.5962(2)
H46 H 0.8263 0.1096 0.5937
C52 C 0.7117(4) 0.0985(4) 0.6523(2)
H47 H 0.7317 0.0995 0.6884
C53 C 0.6241(4) 0.0910(3) 0.6564(2)
H48 H 0.5832 0.0900 0.6950
C54 C 0.5975(3) 0.0851(3) 0.60624(19)
H49 H 0.5377 0.0806 0.6102
C55 C 0.6568(3) 0.0854(2) 0.54717(19)
C56 C 0.6352(3) 0.0726(2) 0.49431(18)
C57 C 0.5666(3) 0.0362(2) 0.49853(17)
C58 C 0.6826(3) 0.0970(2) 0.43375(18)
C59 C 0.5665(3) 0.0530(2) 0.32508(17)
C60 C 0.5000(3) 0.1068(2) 0.28602(18)
C61 C 0.4925(3) 0.0902(3) 0.23236(19)
H50 H 0.4476 0.1268 0.2057
C62 C 0.5485(3) 0.0218(3) 0.21676(19)
C63 C 0.6120(3) -0.0314(2) 0.25704(19)
H51 H 0.6493 -0.0792 0.2477
C64 C 0.6228(3) -0.0170(2) 0.31064(18)
C65 C 0.4375(3) 0.1813(3) 0.3019(2)
H52 H 0.3956 0.2118 0.2697
H53 H 0.4762 0.2099 0.3033
H54 H 0.4000 0.1707 0.3430
C66 C 0.5427(4) 0.0045(3) 0.1575(2)
H55 H 0.4944 0.0475 0.1346
H56 H 0.5264 -0.0422 0.1688
H57 H 0.6036 -0.0032 0.1308
C67 C 0.6956(3) -0.0763(3) 0.3517(2)
H58 H 0.7276 -0.1211 0.3342
H59 H 0.6647 -0.0920 0.3943
H60 H 0.7415 -0.0541 0.3531
C68 C 0.8790(3) 0.1392(2) 0.47445(18)
C69 C 0.9668(3) 0.0938(3) 0.4518(2)
H61 H 0.9720 0.0500 0.4396
C70 C 1.0466(3) 0.1113(3) 0.4468(2)
H62 H 1.1058 0.0783 0.4324
C71 C 1.0420(3) 0.1761(3) 0.46222(19)
C72 C 0.9542(3) 0.2223(3) 0.4835(2)
H63 H 0.9488 0.2672 0.4942
C73 C 0.8741(3) 0.2042(2) 0.4896(2)
H64 H 0.8150 0.2369 0.5043
C74 C 1.1321(4) 0.1936(4) 0.4572(3)
C75 C 1.1940(6) 0.1312(6) 0.5014(5)
H65 H 1.2513 0.1423 0.4984
H66 H 1.2106 0.0825 0.4905
H67 H 1.1612 0.1275 0.5444
C76 C 1.1802(6) 0.2032(7) 0.3890(5)
H68 H 1.1389 0.2475 0.3617
H69 H 1.1930 0.1568 0.3756
H70 H 1.2394 0.2114 0.3861
C77 C 1.1094(6) 0.2724(6) 0.4705(5)
H71 H 1.0638 0.3122 0.4433
H72 H 1.1671 0.2848 0.4618
H73 H 1.0828 0.2700 0.5146
C41A C 0.5310(3) -0.0050(2) 0.55387(17)
H42A H 0.5538 -0.0117 0.5914
C42A C 0.4619(3) -0.0384(2) 0.55847(17)
C43A C 0.4189(3) -0.0670(2) 0.61727(17)
C44A C 0.3468(3) -0.0980(2) 0.62189(17)
C45A C 0.3056(3) -0.1301(2) 0.68063(18)
H43A H 0.3273 -0.1331 0.7175
C46A C 0.2328(3) -0.1578(3) 0.68616(18)
H44A H 0.2065 -0.1802 0.7266
C47A C 0.1997(3) -0.1530(2) 0.63436(19)
H45A H 0.1485 -0.1702 0.6392
C48A C 0.2402(3) -0.1227(2) 0.57252(18)
C49A C 0.2072(3) -0.1195(2) 0.51884(19)
C50A C 0.2596(3) -0.1030(3) 0.4592(2)
C51A C 0.2327(4) -0.1044(3) 0.4038(2)
H46A H 0.1737 -0.1096 0.4063
C52A C 0.2883(4) -0.0985(4) 0.3477(2)
H47A H 0.2683 -0.0995 0.3116
C53A C 0.3759(4) -0.0910(3) 0.3436(2)
H48A H 0.4168 -0.0900 0.3050
C54A C 0.4025(3) -0.0851(3) 0.39376(19)
H49A H 0.4623 -0.0806 0.3898
C55A C 0.3432(3) -0.0854(2) 0.45283(19)
C56A C 0.3648(3) -0.0726(2) 0.50569(18)
C57A C 0.4334(3) -0.0362(2) 0.50147(17)
C58A C 0.3174(3) -0.0970(2) 0.56625(18)
C59A C 0.4335(3) -0.0530(2) 0.67492(17)
C60A C 0.5000(3) -0.1068(2) 0.71398(18)
C61A C 0.5075(3) -0.0902(3) 0.76764(19)
H50A H 0.5524 -0.1268 0.7943
C62A C 0.4515(3) -0.0218(3) 0.78324(19)
C63A C 0.3880(3) 0.0314(2) 0.74296(19)
H51A H 0.3507 0.0792 0.7523
C64A C 0.3772(3) 0.0170(2) 0.68936(18)
C65A C 0.5625(3) -0.1813(3) 0.6981(2)
H52A H 0.6044 -0.2118 0.7303
H53A H 0.5238 -0.2099 0.6967
H54A H 0.6000 -0.1707 0.6570
C66A C 0.4573(4) -0.0045(3) 0.8425(2)
H55A H 0.5056 -0.0475 0.8654
H56A H 0.4736 0.0422 0.8312
H57A H 0.3964 0.0032 0.8692
C67A C 0.3044(3) 0.0763(3) 0.6483(2)
H58A H 0.2724 0.1211 0.6658
H59A H 0.3353 0.0920 0.6057
H60A H 0.2585 0.0541 0.6469
C68A C 0.1210(3) -0.1392(2) 0.52555(18)
C69A C 0.0332(3) -0.0938(3) 0.5482(2)
H61A H 0.0280 -0.0500 0.5604
C70A C -0.0466(3) -0.1113(3) 0.5532(2)
H62A H -0.1058 -0.0783 0.5676
C71A C -0.0420(3) -0.1761(3) 0.53778(19)
C72A C 0.0458(3) -0.2223(3) 0.5165(2)
H63A H 0.0512 -0.2672 0.5058
C73A C 0.1259(3) -0.2042(2) 0.5104(2)
H64A H 0.1850 -0.2369 0.4957
C74A C -0.1321(4) -0.1936(4) 0.5428(3)
C75A C -0.1940(6) -0.1312(6) 0.4986(5)
H65A H -0.2513 -0.1423 0.5016
H66A H -0.2106 -0.0825 0.5095
H67A H -0.1612 -0.1275 0.4556
C76A C -0.1802(6) -0.2032(7) 0.6110(5)
H68A H -0.1389 -0.2475 0.6383
H69A H -0.1930 -0.1568 0.6244
H70A H -0.2394 -0.2114 0.6139
C77A C -0.1094(6) -0.2724(6) 0.5295(5)
H71A H -0.0638 -0.3122 0.5567
H72A H -0.1671 -0.2848 0.5382
H73A H -0.0828 -0.2700 0.4854
C81 C 0.0192(3) 0.4963(2) 0.55802(17)
H83 H 0.0280 0.4966 0.5981
C82 C 0.0757(2) 0.5222(2) 0.50602(16)
C83 C 0.0525(2) 0.5310(2) 0.44499(17)
C84 C 0.0911(2) 0.5724(2) 0.39107(17)
C85 C 0.1535(2) 0.6083(2) 0.39533(17)
C86 C 0.1830(3) 0.6589(2) 0.34283(17)
H84 H 0.1615 0.6696 0.3039
C87 C 0.2439(3) 0.6942(2) 0.34645(18)
H85 H 0.2594 0.7313 0.3108
C88 C 0.2813(3) 0.6760(2) 0.40051(18)
H86 H 0.3237 0.6996 0.4016
C89 C 0.2575(2) 0.6218(2) 0.45553(17)
C90 C 0.2989(3) 0.6000(2) 0.51007(18)
C91 C 0.2753(3) 0.5445(2) 0.56332(18)
C92 C 0.3226(3) 0.5159(3) 0.6172(2)
H87 H 0.3660 0.5383 0.6190
C93 C 0.3081(3) 0.4579(3) 0.6663(2)
H88 H 0.3392 0.4412 0.7024
C94 C 0.2458(3) 0.4229(3) 0.6629(2)
H89 H 0.2382 0.3800 0.6957
C95 C 0.1970(3) 0.4497(2) 0.61336(19)
H90 H 0.1554 0.4251 0.6125
C96 C 0.2055(3) 0.5136(2) 0.56216(17)
C97 C 0.1562(3) 0.5423(2) 0.50867(17)
C98 C 0.1878(2) 0.5909(2) 0.45399(17)
C99 C 0.0635(3) 0.5829(2) 0.32902(17)
C100 C -0.0134(3) 0.6469(3) 0.3065(2)
C101 C -0.0401(4) 0.6529(3) 0.2504(2)
H91 H -0.0920 0.6959 0.2349
C102 C 0.0058(4) 0.5988(4) 0.2161(2)
C103 C 0.0805(4) 0.5353(3) 0.2398(2)
H92 H 0.1122 0.4973 0.2168
C104 C 0.1100(3) 0.5257(3) 0.29620(18)
C105 C -0.0668(3) 0.7060(3) 0.3431(3)
H93 H -0.1172 0.7462 0.3201
H94 H -0.0241 0.7288 0.3486
H95 H -0.0939 0.6817 0.3844
C106 C -0.0256(6) 0.6069(5) 0.1550(3)
H96 H -0.0785 0.6548 0.1455
H97 H -0.0451 0.5634 0.1592
H98 H 0.0266 0.6078 0.1209
C107 C 0.1874(3) 0.4550(3) 0.3222(2)
H99 H 0.2116 0.4219 0.2931
H100 H 0.1631 0.4273 0.3630
H101 H 0.2381 0.4694 0.3277
C108 C 0.3749(3) 0.6288(2) 0.51083(18)
C109 C 0.4622(3) 0.6038(2) 0.47544(19)
H102 H 0.4725 0.5695 0.4507
C110 C 0.5337(3) 0.6284(2) 0.4761(2)
H103 H 0.5926 0.6106 0.4516
C111 C 0.5220(3) 0.6787(2) 0.5116(2)
C112 C 0.4345(3) 0.7042(2) 0.5460(2)
H104 H 0.4237 0.7393 0.5701
C113 C 0.3623(3) 0.6791(2) 0.5458(2)
H105 H 0.3033 0.6969 0.5702
C114 C 0.6050(3) 0.7023(3) 0.5124(3)
C115 C 0.6872(3) 0.6308(3) 0.5349(3)
H106 H 0.6688 0.6041 0.5779
H107 H 0.7408 0.6457 0.5341
H108 H 0.7049 0.5967 0.5070
C116 C 0.5803(4) 0.7561(4) 0.5536(4)
H109 H 0.5598 0.7314 0.5968
H110 H 0.5294 0.8032 0.5379
H111 H 0.6355 0.7689 0.5529
C117 C 0.6375(4) 0.7419(4) 0.4441(4)
H112 H 0.6905 0.7573 0.4439
H113 H 0.5855 0.7874 0.4276
H114 H 0.6572 0.7060 0.4175
C81A C -0.0192(3) 0.5037(2) 0.44198(17)
H83A H -0.0280 0.5034 0.4019
C82A C -0.0757(2) 0.4778(2) 0.49398(16)
C83A C -0.0525(2) 0.4690(2) 0.55501(17)
C84A C -0.0911(2) 0.4276(2) 0.60893(17)
C85A C -0.1535(2) 0.3917(2) 0.60467(17)
C86A C -0.1830(3) 0.3411(2) 0.65717(17)
H84A H -0.1615 0.3304 0.6961
C87A C -0.2439(3) 0.3058(2) 0.65355(18)
H85A H -0.2594 0.2687 0.6892
C88A C -0.2813(3) 0.3240(2) 0.59949(18)
H86A H -0.3237 0.3004 0.5984
C89A C -0.2575(2) 0.3782(2) 0.54447(17)
C90A C -0.2989(3) 0.4000(2) 0.48993(18)
C91A C -0.2753(3) 0.4555(2) 0.43668(18)
C92A C -0.3226(3) 0.4841(3) 0.3828(2)
H87A H -0.3660 0.4617 0.3810
C93A C -0.3081(3) 0.5421(3) 0.3337(2)
H88A H -0.3392 0.5588 0.2976
C94A C -0.2458(3) 0.5771(3) 0.3371(2)
H89A H -0.2382 0.6200 0.3043
C95A C -0.1970(3) 0.5503(2) 0.38664(19)
H90A H -0.1554 0.5749 0.3875
C96A C -0.2055(3) 0.4864(2) 0.43784(17)
C97A C -0.1562(3) 0.4577(2) 0.49133(17)
C98A C -0.1878(2) 0.4091(2) 0.54601(17)
C99A C -0.0635(3) 0.4171(2) 0.67098(17)
C100A C 0.0134(3) 0.3531(3) 0.6935(2)
C101A C 0.0401(4) 0.3471(3) 0.7496(2)
H91A H 0.0920 0.3041 0.7651
C102A C -0.0058(4) 0.4012(4) 0.7839(2)
C103A C -0.0805(4) 0.4647(3) 0.7602(2)
H92A H -0.1122 0.5027 0.7832
C104A C -0.1100(3) 0.4743(3) 0.70380(18)
C105A C 0.0668(3) 0.2940(3) 0.6569(3)
H93A H 0.1172 0.2538 0.6799
H94A H 0.0241 0.2712 0.6514
H95A H 0.0939 0.3183 0.6156
C106A C 0.0256(6) 0.3931(5) 0.8450(3)
H96A H 0.0785 0.3452 0.8545
H97A H 0.0451 0.4366 0.8408
H98A H -0.0266 0.3922 0.8791
C107A C -0.1874(3) 0.5450(3) 0.6778(2)
H99A H -0.2116 0.5781 0.7069
H100A H -0.1631 0.5727 0.6370
H101A H -0.2381 0.5306 0.6723
C108A C -0.3749(3) 0.3712(2) 0.48917(18)
C109A C -0.4622(3) 0.3962(2) 0.52456(19)
H102A H -0.4725 0.4305 0.5493
C110A C -0.5337(3) 0.3716(2) 0.5239(2)
H103A H -0.5926 0.3894 0.5484
C111A C -0.5220(3) 0.3213(2) 0.4884(2)
C112A C -0.4345(3) 0.2958(2) 0.4540(2)
H104A H -0.4237 0.2607 0.4299
C113A C -0.3623(3) 0.3209(2) 0.4542(2)
H105A H -0.3033 0.3031 0.4298
C114A C -0.6050(3) 0.2977(3) 0.4876(3)
C115A C -0.6872(3) 0.3692(3) 0.4651(3)
H106A H -0.6688 0.3959 0.4221
H107A H -0.7408 0.3543 0.4659
H108A H -0.7049 0.4033 0.4930
C116A C -0.5803(4) 0.2439(4) 0.4464(4)
H109A H -0.5598 0.2686 0.4032
H110A H -0.5294 0.1968 0.4621
H111A H -0.6355 0.2311 0.4471
C117A C -0.6375(4) 0.2581(4) 0.5559(4)
H112A H -0.6905 0.2427 0.5561
H113A H -0.5855 0.2126 0.5724
H114A H -0.6572 0.2940 0.5825
C118 C 0.5154(3) 0.5109(2) 0.05367(17)
H115 H 0.5218 0.5216 0.0902
C119 C 0.4421(2) 0.4824(2) 0.05720(17)
C120 C 0.3974(2) 0.4536(2) 0.11513(17)
C121 C 0.3343(2) 0.4141(2) 0.11883(17)
C122 C 0.3014(3) 0.3734(2) 0.17654(18)
H116 H 0.3222 0.3704 0.2137
C123 C 0.2380(3) 0.3366(2) 0.18065(19)
H117 H 0.2186 0.3071 0.2202
C124 C 0.2038(3) 0.3429(2) 0.12821(19)
H118 H 0.1599 0.3184 0.1320
C125 C 0.2326(2) 0.3856(2) 0.06794(17)
C126 C 0.1958(2) 0.3941(2) 0.01419(18)
C127 C 0.2262(3) 0.4365(2) -0.04514(18)
C128 C 0.1850(3) 0.4495(2) -0.09901(19)
H119 H 0.1401 0.4260 -0.0953
C129 C 0.2079(3) 0.4947(3) -0.15626(19)
H120 H 0.1814 0.5009 -0.1921
C130 C 0.2717(3) 0.5319(3) -0.16078(19)
H121 H 0.2857 0.5656 -0.1996
C131 C 0.3136(3) 0.5200(2) -0.11035(18)
H122 H 0.3555 0.5465 -0.1148
C132 C 0.2970(2) 0.4692(2) -0.05100(17)
C133 C 0.3408(2) 0.4546(2) 0.00254(17)
C134 C 0.4229(3) 0.4762(2) -0.00026(17)
C135 C 0.3036(2) 0.4183(2) 0.06221(17)
C136 C 0.4137(2) 0.4628(2) 0.17430(16)
C137 C 0.4845(3) 0.4071(2) 0.21003(19)
C138 C 0.4949(3) 0.4186(3) 0.26516(19)
H123 H 0.5426 0.3810 0.2892
C139 C 0.4376(3) 0.4836(2) 0.28595(18)
C140 C 0.3695(3) 0.5375(2) 0.24967(18)
H124 H 0.3303 0.5824 0.2631
C141 C 0.3559(3) 0.5289(2) 0.19420(17)
C142 C 0.5478(3) 0.3357(3) 0.1891(2)
H125 H 0.5305 0.3368 0.1498
H126 H 0.5409 0.2903 0.2216
H127 H 0.6132 0.3337 0.1822
C143 C 0.4490(4) 0.4973(3) 0.3454(2)
H128 H 0.5005 0.4542 0.3651
H129 H 0.3906 0.5019 0.3746
H130 H 0.4633 0.5448 0.3348
C144 C 0.2810(3) 0.5898(2) 0.15691(19)
H131 H 0.2479 0.6313 0.1782
H132 H 0.2363 0.5677 0.1533
H133 H 0.3097 0.6104 0.1148
C145 C 0.1196(3) 0.3625(2) 0.02038(17)
C146 C 0.0290(3) 0.3974(2) 0.0486(2)
H134 H 0.0163 0.4411 0.0635
C147 C -0.0422(3) 0.3686(2) 0.0550(2)
H135 H -0.1034 0.3938 0.0733
C148 C -0.0265(3) 0.3037(2) 0.03524(18)
C149 C 0.0639(3) 0.2698(2) 0.00663(18)
H136 H 0.0770 0.2257 -0.0079
C150 C 0.1348(3) 0.2994(2) -0.00092(17)
H137 H 0.1952 0.2757 -0.0212
C151 C -0.1070(3) 0.2736(2) 0.0428(2)
C152 C -0.1783(3) 0.3321(3) -0.0014(3)
H138 H -0.1476 0.3381 -0.0450
H139 H -0.2021 0.3817 0.0092
H140 H -0.2306 0.3139 0.0033
C153 C -0.1566(3) 0.2646(3) 0.1115(2)
H141 H -0.2079 0.2453 0.1162
H142 H -0.1819 0.3145 0.1216
H143 H -0.1112 0.2282 0.1402
C154 C -0.0721(3) 0.1956(3) 0.0286(2)
H144 H -0.0401 0.1994 -0.0147
H145 H -0.1255 0.1787 0.0334
H146 H -0.0281 0.1583 0.0579
C118A C 0.4846(3) 0.4891(2) -0.05367(17)
H115A H 0.4782 0.4784 -0.0902
C119A C 0.5579(2) 0.5176(2) -0.05720(17)
C120A C 0.6026(2) 0.5464(2) -0.11513(17)
C121A C 0.6657(2) 0.5859(2) -0.11883(17)
C122A C 0.6986(3) 0.6266(2) -0.17654(18)
H116A H 0.6778 0.6296 -0.2137
C123A C 0.7620(3) 0.6634(2) -0.18065(19)
H117A H 0.7814 0.6929 -0.2202
C124A C 0.7962(3) 0.6571(2) -0.12821(19)
H118A H 0.8401 0.6816 -0.1320
C125A C 0.7674(2) 0.6144(2) -0.06794(17)
C126A C 0.8042(2) 0.6059(2) -0.01419(18)
C127A C 0.7738(3) 0.5635(2) 0.04514(18)
C128A C 0.8150(3) 0.5505(2) 0.09901(19)
H119A H 0.8599 0.5740 0.0953
C129A C 0.7921(3) 0.5053(3) 0.15626(19)
H120A H 0.8186 0.4991 0.1921
C130A C 0.7283(3) 0.4681(3) 0.16078(19)
H121A H 0.7143 0.4344 0.1996
C131A C 0.6864(3) 0.4800(2) 0.11035(18)
H122A H 0.6445 0.4535 0.1148
C132A C 0.7030(2) 0.5308(2) 0.05100(17)
C133A C 0.6592(2) 0.5454(2) -0.00254(17)
C134A C 0.5771(3) 0.5238(2) 0.00026(17)
C135A C 0.6964(2) 0.5817(2) -0.06221(17)
C136A C 0.5863(2) 0.5372(2) -0.17430(16)
C137A C 0.5155(3) 0.5929(2) -0.21003(19)
C138A C 0.5051(3) 0.5814(3) -0.26516(19)
H123A H 0.4574 0.6190 -0.2892
C139A C 0.5624(3) 0.5164(2) -0.28595(18)
C140A C 0.6305(3) 0.4625(2) -0.24967(18)
H124A H 0.6697 0.4176 -0.2631
C141A C 0.6441(3) 0.4711(2) -0.19420(17)
C142A C 0.4522(3) 0.6643(3) -0.1891(2)
H125A H 0.4695 0.6632 -0.1498
H126A H 0.4591 0.7097 -0.2216
H127A H 0.3868 0.6663 -0.1822
C143A C 0.5510(4) 0.5027(3) -0.3454(2)
H128A H 0.4995 0.5458 -0.3651
H129A H 0.6094 0.4981 -0.3746
H130A H 0.5367 0.4552 -0.3348
C144A C 0.7190(3) 0.4102(2) -0.15691(19)
H131A H 0.7521 0.3687 -0.1782
H132A H 0.7637 0.4323 -0.1533
H133A H 0.6903 0.3896 -0.1148
C145A C 0.8804(3) 0.6375(2) -0.02038(17)
C146A C 0.9710(3) 0.6026(2) -0.0486(2)
H134A H 0.9837 0.5589 -0.0635
C147A C 1.0422(3) 0.6314(2) -0.0550(2)
H135A H 1.1034 0.6062 -0.0733
C148A C 1.0265(3) 0.6963(2) -0.03524(18)
C149A C 0.9361(3) 0.7302(2) -0.00663(18)
H136A H 0.9230 0.7743 0.0079
C150A C 0.8652(3) 0.7006(2) 0.00092(17)
H137A H 0.8048 0.7243 0.0212
C151A C 1.1070(3) 0.7264(2) -0.0428(2)
C152A C 1.1783(3) 0.6679(3) 0.0014(3)
H138A H 1.1476 0.6619 0.0450
H139A H 1.2021 0.6183 -0.0092
H140A H 1.2306 0.6861 -0.0033
C153A C 1.1566(3) 0.7354(3) -0.1115(2)
H141A H 1.2079 0.7547 -0.1162
H142A H 1.1819 0.6855 -0.1216
H143A H 1.1112 0.7718 -0.1402
C154A C 1.0721(3) 0.8044(3) -0.0286(2)
H144A H 1.0401 0.8006 0.0147
H145A H 1.1255 0.8213 -0.0334
H146A H 1.0281 0.8417 -0.0579
C155 C 0.9438(5) 0.3250(4) 0.3007(3)
H147 H 0.9777 0.2777 0.3312
Cl1 Cl 0.9670(2) 0.40443(15) 0.30457(18)
Cl2 Cl 0.82718(14) 0.33906(12) 0.31432(11)
Cl3 Cl 0.9839(2) 0.31512(18) 0.22382(13)
C156 C 0.4928(5) 0.2618(4) -0.1800(3)
H148 H 0.5121 0.2167 -0.1435
Cl4 Cl 0.57692(19) 0.30334(18) -0.20435(17)
Cl5 Cl 0.4806(2) 0.23006(15) -0.24017(13)
Cl6 Cl 0.38579(14) 0.32550(10) -0.15636(11)
C157 C 0.1411(4) 0.0980(4) 0.2234(3)
H149 H 0.1682 0.0449 0.2171
Cl7 Cl 0.04749(19) 0.10056(14) 0.28373(11)
Cl8 Cl 0.22930(17) 0.11784(14) 0.24251(11)
Cl9 Cl 0.10535(11) 0.16204(10) 0.15204(7)
C38? C 0.6869(7) 0.1810(7) -0.0144(6)
H33? H 0.7293 0.2034 -0.0080
H34? H 0.6817 0.1948 -0.0593
H35? H 0.7119 0.1250 0.0009
C39? C 0.5560(7) 0.2996(6) 0.0035(6)
H36? H 0.4940 0.3192 0.0270
H37? H 0.5515 0.3186 -0.0417
H38? H 0.6004 0.3174 0.0134
C40? C 0.6077(8) 0.1874(7) 0.0931(6)
H39? H 0.5478 0.2056 0.1192
H40? H 0.6514 0.2103 0.0969
H41? H 0.6344 0.1313 0.1070
C78? C 1.2210(11) 0.1201(11) 0.4637(9)
H74? H 1.2282 0.0945 0.4310
H75? H 1.2142 0.0852 0.5052
H76? H 1.2766 0.1343 0.4588
C79? C 1.1493(12) 0.2462(12) 0.3953(9)
H77? H 1.1567 0.2221 0.3616
H78? H 1.2066 0.2569 0.3932
H79? H 1.0959 0.2944 0.3901
C80? C 1.1262(11) 0.2303(11) 0.5082(9)
H80? H 1.1136 0.1968 0.5495
H81? H 1.0753 0.2801 0.5030
H82? H 1.1858 0.2379 0.5052
loop_
_geom_bond_atom_site_label_1
_geom_bond_atom_site_label_2
_geom_bond_site_symmetry_1
_geom_bond_site_symmetry_2
C1 C3 1_555 1_555
C2 H1 1_555 1_555
C3 C2 1_555 1_555
C4 C3 1_555 1_555
C5 C4 1_555 1_555
C6 C5 1_555 1_555
H2 C6 1_555 1_555
C7 C6 1_555 1_555
H3 C7 1_555 1_555
C8 C7 1_555 1_555
H4 C8 1_555 1_555
C9 C8 1_555 1_555
C10 C9 1_555 1_555
C11 C10 1_555 1_555
C12 C11 1_555 1_555
H5 C12 1_555 1_555
C13 C12 1_555 1_555
H6 C13 1_555 1_555
C14 C13 1_555 1_555
H7 C14 1_555 1_555
C15 C14 1_555 1_555
H8 C15 1_555 1_555
C16 C11 1_555 1_555
C17 C1 1_555 1_555
C18 C5 1_555 1_555
C19 C4 1_555 1_555
C20 C19 1_555 1_555
C21 C20 1_555 1_555
H9 C21 1_555 1_555
C22 C21 1_555 1_555
C23 C22 1_555 1_555
H10 C23 1_555 1_555
C24 C19 1_555 1_555
C25 C20 1_555 1_555
H11 C25 1_555 1_555
H12 C25 1_555 1_555
H13 C25 1_555 1_555
C26 C22 1_555 1_555
H14 C26 1_555 1_555
H15 C26 1_555 1_555
H16 C26 1_555 1_555
C27 C24 1_555 1_555
H17 C27 1_555 1_555
H18 C27 1_555 1_555
H19 C27 1_555 1_555
C28 C10 1_555 1_555
C29 C28 1_555 1_555
H20 C29 1_555 1_555
C30 C29 1_555 1_555
H21 C30 1_555 1_555
C31 C30 1_555 1_555
C32 C31 1_555 1_555
H22 C32 1_555 1_555
C33 C28 1_555 1_555
H23 C33 1_555 1_555
C34 C31 1_555 1_555
C35 C34 1_555 1_555
H24 C35 1_555 1_555
H25 C35 1_555 1_555
H26 C35 1_555 1_555
C36 C34 1_555 1_555
H27 C36 1_555 1_555
H28 C36 1_555 1_555
H29 C36 1_555 1_555
C37 C34 1_555 1_555
H30 C37 1_555 1_555
H31 C37 1_555 1_555
H32 C37 1_555 1_555
C41 H42 1_555 1_555
C42 C41 1_555 1_555
C43 C42 1_555 1_555
C44 C43 1_555 1_555
C45 C44 1_555 1_555
H43 C45 1_555 1_555
C46 C45 1_555 1_555
H44 C46 1_555 1_555
C47 C46 1_555 1_555
H45 C47 1_555 1_555
C48 C47 1_555 1_555
C49 C48 1_555 1_555
C50 C49 1_555 1_555
C51 C50 1_555 1_555
H46 C51 1_555 1_555
C52 C51 1_555 1_555
H47 C52 1_555 1_555
C53 C52 1_555 1_555
H48 C53 1_555 1_555
C54 C53 1_555 1_555
H49 C54 1_555 1_555
C55 C50 1_555 1_555
C56 C55 1_555 1_555
C57 C42 1_555 1_555
C58 C44 1_555 1_555
C59 C43 1_555 1_555
C60 C59 1_555 1_555
C61 C60 1_555 1_555
H50 C61 1_555 1_555
C62 C61 1_555 1_555
C63 C62 1_555 1_555
H51 C63 1_555 1_555
C64 C59 1_555 1_555
C65 C60 1_555 1_555
H52 C65 1_555 1_555
H53 C65 1_555 1_555
H54 C65 1_555 1_555
C66 C62 1_555 1_555
H55 C66 1_555 1_555
H56 C66 1_555 1_555
H57 C66 1_555 1_555
C67 C64 1_555 1_555
H58 C67 1_555 1_555
H59 C67 1_555 1_555
H60 C67 1_555 1_555
C68 C49 1_555 1_555
C69 C68 1_555 1_555
H61 C69 1_555 1_555
C70 C69 1_555 1_555
H62 C70 1_555 1_555
C71 C70 1_555 1_555
C72 C71 1_555 1_555
H63 C72 1_555 1_555
C73 C68 1_555 1_555
H64 C73 1_555 1_555
C74 C71 1_555 1_555
C75 C74 1_555 1_555
H65 C75 1_555 1_555
H66 C75 1_555 1_555
H67 C75 1_555 1_555
C76 C74 1_555 1_555
H68 C76 1_555 1_555
H69 C76 1_555 1_555
H70 C76 1_555 1_555
C77 C74 1_555 1_555
H71 C77 1_555 1_555
H72 C77 1_555 1_555
H73 C77 1_555 1_555
C81 H83 1_555 1_555
C82 C81 1_555 1_555
C83 C82 1_555 1_555
C84 C83 1_555 1_555
C85 C84 1_555 1_555
C86 C85 1_555 1_555
H84 C86 1_555 1_555
C87 C86 1_555 1_555
H85 C87 1_555 1_555
C88 C87 1_555 1_555
H86 C88 1_555 1_555
C89 C88 1_555 1_555
C90 C89 1_555 1_555
C91 C90 1_555 1_555
C92 C91 1_555 1_555
H87 C92 1_555 1_555
C93 C92 1_555 1_555
H88 C93 1_555 1_555
C94 C93 1_555 1_555
H89 C94 1_555 1_555
C95 C94 1_555 1_555
H90 C95 1_555 1_555
C96 C91 1_555 1_555
C97 C82 1_555 1_555
C98 C85 1_555 1_555
C99 C84 1_555 1_555
C100 C99 1_555 1_555
C101 C100 1_555 1_555
H91 C101 1_555 1_555
C102 C101 1_555 1_555
C103 C102 1_555 1_555
H92 C103 1_555 1_555
C104 C99 1_555 1_555
C105 C100 1_555 1_555
H93 C105 1_555 1_555
H94 C105 1_555 1_555
H95 C105 1_555 1_555
C106 C102 1_555 1_555
H96 C106 1_555 1_555
H97 C106 1_555 1_555
H98 C106 1_555 1_555
C107 C104 1_555 1_555
H99 C107 1_555 1_555
H100 C107 1_555 1_555
H101 C107 1_555 1_555
C108 C90 1_555 1_555
C109 C108 1_555 1_555
H102 C109 1_555 1_555
C110 C109 1_555 1_555
H103 C110 1_555 1_555
C111 C110 1_555 1_555
C112 C111 1_555 1_555
H104 C112 1_555 1_555
C113 C108 1_555 1_555
H105 C113 1_555 1_555
C114 C111 1_555 1_555
C115 C114 1_555 1_555
H106 C115 1_555 1_555
H107 C115 1_555 1_555
H108 C115 1_555 1_555
C116 C114 1_555 1_555
H109 C116 1_555 1_555
H110 C116 1_555 1_555
H111 C116 1_555 1_555
C117 C114 1_555 1_555
H112 C117 1_555 1_555
H113 C117 1_555 1_555
H114 C117 1_555 1_555
C118 H115 1_555 1_555
C119 C118 1_555 1_555
C120 C119 1_555 1_555
C121 C120 1_555 1_555
C122 C121 1_555 1_555
H116 C122 1_555 1_555
C123 C122 1_555 1_555
H117 C123 1_555 1_555
C124 C123 1_555 1_555
H118 C124 1_555 1_555
C125 C124 1_555 1_555
C126 C125 1_555 1_555
C127 C126 1_555 1_555
C128 C127 1_555 1_555
H119 C128 1_555 1_555
C129 C128 1_555 1_555
H120 C129 1_555 1_555
C130 C129 1_555 1_555
H121 C130 1_555 1_555
C131 C130 1_555 1_555
H122 C131 1_555 1_555
C132 C127 1_555 1_555
C133 C132 1_555 1_555
C134 C119 1_555 1_555
C135 C121 1_555 1_555
C136 C120 1_555 1_555
C137 C136 1_555 1_555
C138 C137 1_555 1_555
H123 C138 1_555 1_555
C139 C138 1_555 1_555
C140 C139 1_555 1_555
H124 C140 1_555 1_555
C141 C136 1_555 1_555
C142 C137 1_555 1_555
H125 C142 1_555 1_555
H126 C142 1_555 1_555
H127 C142 1_555 1_555
C143 C139 1_555 1_555
H128 C143 1_555 1_555
H129 C143 1_555 1_555
H130 C143 1_555 1_555
C144 C141 1_555 1_555
H131 C144 1_555 1_555
H132 C144 1_555 1_555
H133 C144 1_555 1_555
C145 C126 1_555 1_555
C146 C145 1_555 1_555
H134 C146 1_555 1_555
C147 C146 1_555 1_555
H135 C147 1_555 1_555
C148 C147 1_555 1_555
C149 C148 1_555 1_555
H136 C149 1_555 1_555
C150 C145 1_555 1_555
H137 C150 1_555 1_555
C151 C148 1_555 1_555
C152 C151 1_555 1_555
H138 C152 1_555 1_555
H139 C152 1_555 1_555
H140 C152 1_555 1_555
C153 C151 1_555 1_555
H141 C153 1_555 1_555
H142 C153 1_555 1_555
H143 C153 1_555 1_555
C154 C151 1_555 1_555
H144 C154 1_555 1_555
H145 C154 1_555 1_555
H146 C154 1_555 1_555
C155 H147 1_555 1_555
Cl1 C155 1_555 1_555
Cl2 C155 1_555 1_555
Cl3 C155 1_555 1_555
C156 H148 1_555 1_555
Cl4 C156 1_555 1_555
Cl5 C156 1_555 1_555
Cl6 C156 1_555 1_555
C157 H149 1_555 1_555
Cl7 C157 1_555 1_555
Cl8 C157 1_555 1_555
Cl9 C157 1_555 1_555
C1A C2 1_555 1_555
C2A C1 1_555 1_555
H1A C2A 1_555 1_555
C3A C1A 1_555 1_555
C4A C3A 1_555 1_555
C5A C4A 1_555 1_555
C6A C5A 1_555 1_555
H2A C6A 1_555 1_555
C7A C6A 1_555 1_555
H3A C7A 1_555 1_555
C8A C7A 1_555 1_555
H4A C8A 1_555 1_555
C9A C8A 1_555 1_555
C10A C9A 1_555 1_555
C11A C10A 1_555 1_555
C12A C11A 1_555 1_555
H5A C12A 1_555 1_555
C13A C12A 1_555 1_555
H6A C13A 1_555 1_555
C14A C13A 1_555 1_555
H7A C14A 1_555 1_555
C15A C14A 1_555 1_555
H8A C15A 1_555 1_555
C16A C11A 1_555 1_555
C17A C1A 1_555 1_555
C18A C5A 1_555 1_555
C19A C4A 1_555 1_555
C20A C19A 1_555 1_555
C21A C20A 1_555 1_555
H9A C21A 1_555 1_555
C22A C21A 1_555 1_555
C23A C22A 1_555 1_555
H10A C23A 1_555 1_555
C24A C19A 1_555 1_555
C25A C20A 1_555 1_555
H11A C25A 1_555 1_555
H12A C25A 1_555 1_555
H13A C25A 1_555 1_555
C26A C22A 1_555 1_555
H14A C26A 1_555 1_555
H15A C26A 1_555 1_555
H16A C26A 1_555 1_555
C27A C24A 1_555 1_555
H17A C27A 1_555 1_555
H18A C27A 1_555 1_555
H19A C27A 1_555 1_555
C28A C10A 1_555 1_555
C29A C28A 1_555 1_555
H20A C29A 1_555 1_555
C30A C29A 1_555 1_555
H21A C30A 1_555 1_555
C31A C30A 1_555 1_555
C32A C31A 1_555 1_555
H22A C32A 1_555 1_555
C33A C28A 1_555 1_555
H23A C33A 1_555 1_555
C34A C31A 1_555 1_555
C35A C34A 1_555 1_555
H24A C35A 1_555 1_555
H25A C35A 1_555 1_555
H26A C35A 1_555 1_555
C36A C34A 1_555 1_555
H27A C36A 1_555 1_555
H28A C36A 1_555 1_555
H29A C36A 1_555 1_555
C37A C34A 1_555 1_555
H30A C37A 1_555 1_555
H31A C37A 1_555 1_555
H32A C37A 1_555 1_555
C41A C57 1_555 1_555
H42A C41A 1_555 1_555
C42A C41A 1_555 1_555
C43A C42A 1_555 1_555
C44A C43A 1_555 1_555
C45A C44A 1_555 1_555
H43A C45A 1_555 1_555
C46A C45A 1_555 1_555
H44A C46A 1_555 1_555
C47A C46A 1_555 1_555
H45A C47A 1_555 1_555
C48A C47A 1_555 1_555
C49A C48A 1_555 1_555
C50A C49A 1_555 1_555
C51A C50A 1_555 1_555
H46A C51A 1_555 1_555
C52A C51A 1_555 1_555
H47A C52A 1_555 1_555
C53A C52A 1_555 1_555
H48A C53A 1_555 1_555
C54A C53A 1_555 1_555
H49A C54A 1_555 1_555
C55A C50A 1_555 1_555
C56A C55A 1_555 1_555
C57A C41 1_555 1_555
C58A C44A 1_555 1_555
C59A C43A 1_555 1_555
C60A C59A 1_555 1_555
C61A C60A 1_555 1_555
H50A C61A 1_555 1_555
C62A C61A 1_555 1_555
C63A C62A 1_555 1_555
H51A C63A 1_555 1_555
C64A C59A 1_555 1_555
C65A C60A 1_555 1_555
H52A C65A 1_555 1_555
H53A C65A 1_555 1_555
H54A C65A 1_555 1_555
C66A C62A 1_555 1_555
H55A C66A 1_555 1_555
H56A C66A 1_555 1_555
H57A C66A 1_555 1_555
C67A C64A 1_555 1_555
H58A C67A 1_555 1_555
H59A C67A 1_555 1_555
H60A C67A 1_555 1_555
C68A C49A 1_555 1_555
C69A C68A 1_555 1_555
H61A C69A 1_555 1_555
C70A C69A 1_555 1_555
H62A C70A 1_555 1_555
C71A C70A 1_555 1_555
C72A C71A 1_555 1_555
H63A C72A 1_555 1_555
C73A C68A 1_555 1_555
H64A C73A 1_555 1_555
C74A C71A 1_555 1_555
C75A C74A 1_555 1_555
H65A C75A 1_555 1_555
H66A C75A 1_555 1_555
H67A C75A 1_555 1_555
C76A C74A 1_555 1_555
H68A C76A 1_555 1_555
H69A C76A 1_555 1_555
H70A C76A 1_555 1_555
C77A C74A 1_555 1_555
H71A C77A 1_555 1_555
H72A C77A 1_555 1_555
H73A C77A 1_555 1_555
C81A C83 1_555 1_555
H83A C81A 1_555 1_555
C82A C81A 1_555 1_555
C83A C81 1_555 1_555
C84A C83A 1_555 1_555
C85A C84A 1_555 1_555
C86A C85A 1_555 1_555
H84A C86A 1_555 1_555
C87A C86A 1_555 1_555
H85A C87A 1_555 1_555
C88A C87A 1_555 1_555
H86A C88A 1_555 1_555
C89A C88A 1_555 1_555
C90A C89A 1_555 1_555
C91A C90A 1_555 1_555
C92A C91A 1_555 1_555
H87A C92A 1_555 1_555
C93A C92A 1_555 1_555
H88A C93A 1_555 1_555
C94A C93A 1_555 1_555
H89A C94A 1_555 1_555
C95A C94A 1_555 1_555
H90A C95A 1_555 1_555
C96A C91A 1_555 1_555
C97A C82A 1_555 1_555
C98A C85A 1_555 1_555
C99A C84A 1_555 1_555
C100A C99A 1_555 1_555
C101A C100A 1_555 1_555
H91A C101A 1_555 1_555
C102A C101A 1_555 1_555
C103A C102A 1_555 1_555
H92A C103A 1_555 1_555
C104A C99A 1_555 1_555
C105A C100A 1_555 1_555
H93A C105A 1_555 1_555
H94A C105A 1_555 1_555
H95A C105A 1_555 1_555
C106A C102A 1_555 1_555
H96A C106A 1_555 1_555
H97A C106A 1_555 1_555
H98A C106A 1_555 1_555
C107A C104A 1_555 1_555
H99A C107A 1_555 1_555
H100A C107A 1_555 1_555
H101A C107A 1_555 1_555
C108A C90A 1_555 1_555
C109A C108A 1_555 1_555
H102A C109A 1_555 1_555
C110A C109A 1_555 1_555
H103A C110A 1_555 1_555
C111A C110A 1_555 1_555
C112A C111A 1_555 1_555
H104A C112A 1_555 1_555
C113A C108A 1_555 1_555
H105A C113A 1_555 1_555
C114A C111A 1_555 1_555
C115A C114A 1_555 1_555
H106A C115A 1_555 1_555
H107A C115A 1_555 1_555
H108A C115A 1_555 1_555
C116A C114A 1_555 1_555
H109A C116A 1_555 1_555
H110A C116A 1_555 1_555
H111A C116A 1_555 1_555
C117A C114A 1_555 1_555
H112A C117A 1_555 1_555
H113A C117A 1_555 1_555
H114A C117A 1_555 1_555
C118A C134 1_555 1_555
H115A C118A 1_555 1_555
C119A C118A 1_555 1_555
C120A C119A 1_555 1_555
C121A C120A 1_555 1_555
C122A C121A 1_555 1_555
H116A C122A 1_555 1_555
C123A C122A 1_555 1_555
H117A C123A 1_555 1_555
C124A C123A 1_555 1_555
H118A C124A 1_555 1_555
C125A C124A 1_555 1_555
C126A C125A 1_555 1_555
C127A C126A 1_555 1_555
C128A C127A 1_555 1_555
H119A C128A 1_555 1_555
C129A C128A 1_555 1_555
H120A C129A 1_555 1_555
C130A C129A 1_555 1_555
H121A C130A 1_555 1_555
C131A C130A 1_555 1_555
H122A C131A 1_555 1_555
C132A C127A 1_555 1_555
C133A C132A 1_555 1_555
C134A C118 1_555 1_555
C135A C121A 1_555 1_555
C136A C120A 1_555 1_555
C137A C136A 1_555 1_555
C138A C137A 1_555 1_555
H123A C138A 1_555 1_555
C139A C138A 1_555 1_555
C140A C139A 1_555 1_555
H124A C140A 1_555 1_555
C141A C136A 1_555 1_555
C142A C137A 1_555 1_555
H125A C142A 1_555 1_555
H126A C142A 1_555 1_555
H127A C142A 1_555 1_555
C143A C139A 1_555 1_555
H128A C143A 1_555 1_555
H129A C143A 1_555 1_555
H130A C143A 1_555 1_555
C144A C141A 1_555 1_555
H131A C144A 1_555 1_555
H132A C144A 1_555 1_555
H133A C144A 1_555 1_555
C145A C126A 1_555 1_555
C146A C145A 1_555 1_555
H134A C146A 1_555 1_555
C147A C146A 1_555 1_555
H135A C147A 1_555 1_555
C148A C147A 1_555 1_555
C149A C148A 1_555 1_555
H136A C149A 1_555 1_555
C150A C145A 1_555 1_555
H137A C150A 1_555 1_555
C151A C148A 1_555 1_555
C152A C151A 1_555 1_555
H138A C152A 1_555 1_555
H139A C152A 1_555 1_555
H140A C152A 1_555 1_555
C153A C151A 1_555 1_555
H141A C153A 1_555 1_555
H142A C153A 1_555 1_555
H143A C153A 1_555 1_555
C154A C151A 1_555 1_555
H144A C154A 1_555 1_555
H145A C154A 1_555 1_555
H146A C154A 1_555 1_555
C9 C18 1_555 1_555
C15 C16 1_555 1_555
C16 C17 1_555 1_555
C17 C18 1_555 1_555
C23 C24 1_555 1_555
C32 C33 1_555 1_555
C48 C58 1_555 1_555
C54 C55 1_555 1_555
C56 C57 1_555 1_555
C56 C58 1_555 1_555
C63 C64 1_555 1_555
C72 C73 1_555 1_555
C89 C98 1_555 1_555
C95 C96 1_555 1_555
C96 C97 1_555 1_555
C97 C98 1_555 1_555
C103 C104 1_555 1_555
C112 C113 1_555 1_555
C125 C135 1_555 1_555
C131 C132 1_555 1_555
C133 C134 1_555 1_555
C133 C135 1_555 1_555
C140 C141 1_555 1_555
C149 C150 1_555 1_555
C2A C3A 1_555 1_555
C9A C18A 1_555 1_555
C15A C16A 1_555 1_555
C16A C17A 1_555 1_555
C17A C18A 1_555 1_555
C23A C24A 1_555 1_555
C32A C33A 1_555 1_555
C42A C57A 1_555 1_555
C48A C58A 1_555 1_555
C54A C55A 1_555 1_555
C56A C57A 1_555 1_555
C56A C58A 1_555 1_555
C63A C64A 1_555 1_555
C72A C73A 1_555 1_555
C82A C83A 1_555 1_555
C89A C98A 1_555 1_555
C95A C96A 1_555 1_555
C96A C97A 1_555 1_555
C97A C98A 1_555 1_555
C103A C104A 1_555 1_555
C112A C113A 1_555 1_555
C119A C134A 1_555 1_555
C125A C135A 1_555 1_555
C131A C132A 1_555 1_555
C133A C134A 1_555 1_555
C133A C135A 1_555 1_555
C140A C141A 1_555 1_555
C149A C150A 1_555 1_555

#END
