
#######################################################################
#
#                 Cambridge Crystallographic Data Centre
#                                CCDC 
#
#######################################################################
#
# If this CIF has been generated from an entry in the Cambridge 
# Structural Database, then it will include bibliographic, chemical, 
# crystal, experimental, refinement or atomic coordinate data resulting 
# from the CCDC's data processing and validation procedures.
#
#######################################################################

data_RODDEU
_chemical_formula_moiety         'C25 H34 N1 O6 1+,I1 1-'
_chemical_name_systematic        
'4-((E)-2-(2,3,5,6,8,9,11,12,14,15-Decahydrobenzo-1,4,7,10,13,16-hexaoxacyclooctadecin-18-yl)ethenyl)-1-ethylpyridinium iodide'
_symmetry_cell_setting           monoclinic
_symmetry_space_group_name_H-M   'P 21'
_symmetry_Int_Tables_number      4
_space_group_name_Hall           'P 2yb'
loop_
_symmetry_equiv_pos_site_id
_symmetry_equiv_pos_as_xyz
1 x,y,z
2 -x,1/2+y,-z
_cell_length_a                   8.5838(12)
_cell_length_b                   6.6948(9)
_cell_length_c                   21.707(3)
_cell_angle_alpha                90
_cell_angle_beta                 92.289(4)
_cell_angle_gamma                90
_cell_volume                     1246.44
_exptl_crystal_colour            yellow
_exptl_crystal_description       plate
_chemical_melting_point          210-213deg.C
_cell_formula_units_Z            2
_chemical_properties_physical    light-sensitive
_exptl_crystal_recrystallization_method benzene/acetonitrile
loop_
_atom_site_label
_atom_site_type_symbol
_atom_site_fract_x
_atom_site_fract_y
_atom_site_fract_z
I1 I 0.27973(3) 0.11980(7) 0.101351(15)
O1 O 0.7657(4) 0.7706(6) 0.32566(18)
O2 O 0.9405(4) 1.1408(10) 0.42711(16)
O3 O 0.6327(5) 1.3528(7) 0.4595(2)
O4 O 0.4119(5) 1.2382(7) 0.3681(2)
O5 O 0.2511(4) 0.8012(6) 0.29352(19)
O6 O 0.5380(4) 0.6246(12) 0.26282(16)
N1 N 0.8053(5) -0.5909(7) 0.0681(2)
C1 C 0.6642(6) -0.5161(9) 0.0770(3)
H1 H 0.5754 -0.5850 0.0604
C2 C 0.6431(6) -0.3431(9) 0.1091(3)
H2 H 0.5403 -0.2951 0.1143
C3 C 0.7700(6) -0.2356(8) 0.1346(2)
C4 C 0.9188(6) -0.3158(8) 0.1235(3)
H3 H 1.0098 -0.2479 0.1384
C5 C 0.9326(7) -0.4883(9) 0.0917(3)
H4 H 1.0338 -0.5401 0.0855
C6 C 0.7442(6) -0.0556(8) 0.1679(2)
H5 H 0.6396 -0.0104 0.1697
C7 C 0.8544(6) 0.0552(8) 0.1969(3)
H6 H 0.9586 0.0082 0.1954
C8 C 0.8313(6) 0.2405(8) 0.2307(3)
C9 C 0.9603(6) 0.3324(9) 0.2608(3)
H7 H 1.0606 0.2733 0.2589
C10 C 0.9423(6) 0.5091(9) 0.2934(3)
H8 H 1.0292 0.5696 0.3144
C11 C 0.7952(5) 0.5963(12) 0.2948(2)
C12 C 0.6696(6) 0.5114(9) 0.2626(3)
C13 C 0.6859(6) 0.3349(8) 0.2322(3)
H9 H 0.5976 0.2752 0.2118
C14 C 0.8906(6) 0.8708(9) 0.3585(3)
H10 H 0.9628 0.9309 0.3292
H11 H 0.9498 0.7755 0.3853
C15 C 0.8174(6) 1.0321(9) 0.3971(3)
H12 H 0.7527 1.1222 0.3705
H13 H 0.7500 0.9711 0.4279
C16 C 0.8976(7) 1.2572(9) 0.4774(3)
H14 H 0.9932 1.3131 0.4977
H15 H 0.8477 1.1694 0.5075
C17 C 0.7870(7) 1.4281(9) 0.4610(3)
H16 H 0.7986 1.5356 0.4921
H17 H 0.8110 1.4840 0.4203
C18 C 0.5216(7) 1.4916(10) 0.4323(3)
H18 H 0.5631 1.5532 0.3949
H19 H 0.4977 1.5988 0.4619
C19 C 0.3762(7) 1.3696(10) 0.4159(3)
H20 H 0.3438 1.2934 0.4524
H21 H 0.2896 1.4591 0.4024
C20 C 0.3054(7) 1.0756(9) 0.3600(3)
H22 H 0.1971 1.1255 0.3548
H23 H 0.3122 0.9853 0.3961
C21 C 0.3520(7) 0.9691(10) 0.3035(3)
H24 H 0.3438 1.0601 0.2675
H25 H 0.4615 0.9235 0.3085
C22 C 0.2755(6) 0.7025(9) 0.2370(3)
H26 H 0.3117 0.8013 0.2068
H27 H 0.1747 0.6481 0.2208
C23 C 0.3916(6) 0.5360(9) 0.2422(3)
H28 H 0.3581 0.4350 0.2723
H29 H 0.4021 0.4702 0.2018
C24 C 0.8359(6) -0.7729(8) 0.0310(3)
H30 H 0.9036 -0.8640 0.0560
H31 H 0.8938 -0.7332 -0.0056
C25 C 0.6902(5) -0.8862(18) 0.0094(2)
H32 H 0.7201 -1.0029 -0.0148
H33 H 0.6232 -0.7986 -0.0163
H34 H 0.6336 -0.9303 0.0452
loop_
_geom_bond_atom_site_label_1
_geom_bond_atom_site_label_2
_geom_bond_site_symmetry_1
_geom_bond_site_symmetry_2
O1 C11 1_555 1_555
O2 C15 1_555 1_555
O3 C17 1_555 1_555
O4 C19 1_555 1_555
O5 C21 1_555 1_555
O6 C12 1_555 1_555
N1 C1 1_555 1_555
C1 H1 1_555 1_555
C2 C1 1_555 1_555
H2 C2 1_555 1_555
C3 C2 1_555 1_555
C4 C3 1_555 1_555
H3 C4 1_555 1_555
C5 N1 1_555 1_555
H4 C5 1_555 1_555
C6 C3 1_555 1_555
H5 C6 1_555 1_555
C7 C6 1_555 1_555
H6 C7 1_555 1_555
C8 C7 1_555 1_555
C9 C8 1_555 1_555
H7 C9 1_555 1_555
C10 C9 1_555 1_555
H8 C10 1_555 1_555
C11 C10 1_555 1_555
C12 C11 1_555 1_555
C13 C8 1_555 1_555
H9 C13 1_555 1_555
C14 O1 1_555 1_555
H10 C14 1_555 1_555
H11 C14 1_555 1_555
C15 C14 1_555 1_555
H12 C15 1_555 1_555
H13 C15 1_555 1_555
C16 O2 1_555 1_555
H14 C16 1_555 1_555
H15 C16 1_555 1_555
C17 C16 1_555 1_555
H16 C17 1_555 1_555
H17 C17 1_555 1_555
C18 O3 1_555 1_555
H18 C18 1_555 1_555
H19 C18 1_555 1_555
C19 C18 1_555 1_555
H20 C19 1_555 1_555
H21 C19 1_555 1_555
C20 O4 1_555 1_555
H22 C20 1_555 1_555
H23 C20 1_555 1_555
C21 C20 1_555 1_555
H24 C21 1_555 1_555
H25 C21 1_555 1_555
C22 O5 1_555 1_555
H26 C22 1_555 1_555
H27 C22 1_555 1_555
C23 O6 1_555 1_555
H28 C23 1_555 1_555
H29 C23 1_555 1_555
C24 N1 1_555 1_555
H30 C24 1_555 1_555
H31 C24 1_555 1_555
C25 C24 1_555 1_555
H32 C25 1_555 1_555
H33 C25 1_555 1_555
H34 C25 1_555 1_555
C4 C5 1_555 1_555
C12 C13 1_555 1_555
C22 C23 1_555 1_555

#END
