
#######################################################################
#
#                 Cambridge Crystallographic Data Centre
#                                CCDC 
#
#######################################################################
#
# If this CIF has been generated from an entry in the Cambridge 
# Structural Database, then it will include bibliographic, chemical, 
# crystal, experimental, refinement or atomic coordinate data resulting 
# from the CCDC's data processing and validation procedures.
#
#######################################################################

data_RODDUK
_chemical_formula_moiety         'C17 H21 N2 1+,I1 1-,2(C6 H6)'
_chemical_name_systematic        
'4-((E)-2-(4-(Dimethylamino)phenyl)ethenyl)-1-ethylpyridinium iodide benzene solvate'
_symmetry_cell_setting           orthorhombic
_symmetry_space_group_name_H-M   'P 21 21 21'
_symmetry_Int_Tables_number      19
_space_group_name_Hall           'P 2ac 2ab'
loop_
_symmetry_equiv_pos_site_id
_symmetry_equiv_pos_as_xyz
1 x,y,z
2 1/2-x,-y,1/2+z
3 -x,1/2+y,1/2-z
4 1/2+x,1/2-y,-z
_cell_length_a                   6.4685(3)
_cell_length_b                   16.3121(9)
_cell_length_c                   25.4514(14)
_cell_angle_alpha                90
_cell_angle_beta                 90
_cell_angle_gamma                90
_cell_volume                     2685.5
_exptl_crystal_colour            'dark red'
_exptl_crystal_description       block
_cell_formula_units_Z            4
_chemical_properties_physical    light-sensitive
_exptl_crystal_recrystallization_method benzene/acetonitrile
loop_
_atom_site_label
_atom_site_type_symbol
_atom_site_fract_x
_atom_site_fract_y
_atom_site_fract_z
I1 I 0.96474(7) 0.44100(2) 0.235132(18)
N1 N 1.7162(8) 0.1913(3) 0.2209(2)
N2 N 0.3066(9) 0.1934(3) 0.4477(2)
C1 C 1.6036(11) 0.2612(4) 0.2222(3)
H1 H 1.6515 0.3082 0.2037
C2 C 1.4235(12) 0.2654(5) 0.2494(3)
H2 H 1.3470 0.3152 0.2494
C3 C 1.3486(11) 0.1984(6) 0.2773(3)
C4 C 1.4649(15) 0.1267(6) 0.2733(3)
H3 H 1.4162 0.0785 0.2902
C5 C 1.6480(14) 0.1231(4) 0.2457(3)
H4 H 1.7252 0.0736 0.2442
C6 C 1.1555(18) 0.2209(6) 0.3056(4)
H5 H 1.1028 0.2752 0.3035
C7 C 1.0569(16) 0.1641(5) 0.3340(4)
H6 H 1.1123 0.1103 0.3366
C10 C 0.8626(12) 0.1844(8) 0.3615(4)
C11 C 0.7834(13) 0.1149(7) 0.3863(4)
H9 H 0.8557 0.0644 0.3832
C12 C 0.6032(13) 0.1174(5) 0.4150(3)
H10 H 0.5549 0.0691 0.4319
C13 C 0.4884(10) 0.1914(4) 0.4198(2)
C14 C 0.5663(11) 0.2621(5) 0.3955(3)
H11 H 0.4944 0.3126 0.3989
C15 C 0.7469(13) 0.2587(7) 0.3668(3)
H12 H 0.7958 0.3070 0.3500
C16 C 0.2346(14) 0.1209(5) 0.4765(3)
H13 H 0.3279 0.0749 0.4695
H14 H 0.0947 0.1067 0.4648
H15 H 0.2332 0.1328 0.5142
C17 C 0.1896(11) 0.2672(4) 0.4531(3)
H16 H 0.2539 0.3107 0.4321
H17 H 0.1866 0.2836 0.4901
H18 H 0.0481 0.2578 0.4407
C18 C 1.9116(11) 0.1879(5) 0.1913(3)
H19 H 1.9890 0.1379 0.2012
H20 H 1.9978 0.2361 0.2003
C19 C 1.8675(14) 0.1873(6) 0.1318(3)
H21 H 1.9985 0.1854 0.1125
H22 H 1.7917 0.2371 0.1221
H23 H 1.7844 0.1390 0.1229
C20 C 0.743(2) 0.9636(6) 0.1223(5)
H24 H 0.8670 0.9428 0.1371
C21 C 0.567(2) 0.9706(5) 0.1536(4)
H25 H 0.5690 0.9537 0.1893
C22 C 0.394(2) 1.0018(6) 0.1320(4)
H26 H 0.2732 1.0069 0.1530
C23 C 0.3870(17) 1.0262(6) 0.0806(4)
H27 H 0.2626 1.0474 0.0662
C24 C 0.5611(18) 1.0200(6) 0.0501(4)
H28 H 0.5578 1.0391 0.0148
C25 C 0.7388(18) 0.9868(6) 0.0696(5)
H29 H 0.8567 0.9798 0.0479
C26 C 0.649(2) 0.4036(7) 0.0935(7)
H30 H 0.7742 0.4256 0.1068
C27 C 0.480(3) 0.4060(6) 0.1213(5)
H31 H 0.4844 0.4328 0.1544
C28 C 0.300(2) 0.3727(6) 0.1056(4)
H32 H 0.1831 0.3741 0.1281
C29 C 0.2866(19) 0.3376(7) 0.0582(5)
H33 H 0.1596 0.3141 0.0471
C30 C 0.456(3) 0.3354(8) 0.0255(4)
H34 H 0.4466 0.3123 -0.0087
C31 C 0.641(2) 0.3675(9) 0.0433(6)
H35 H 0.7609 0.3653 0.0220
C8? C 1.174(3) 0.1621(11) 0.3118(7)
H7? H 1.1626 0.1068 0.3231
C9? C 1.046(4) 0.2217(10) 0.3225(7)
H8? H 1.0566 0.2766 0.3102
loop_
_geom_bond_atom_site_label_1
_geom_bond_atom_site_label_2
_geom_bond_site_symmetry_1
_geom_bond_site_symmetry_2
N1 C1 1_555 1_555
N2 C13 1_555 1_555
C1 H1 1_555 1_555
C2 C1 1_555 1_555
H2 C2 1_555 1_555
C3 C2 1_555 1_555
C4 C3 1_555 1_555
H3 C4 1_555 1_555
C5 N1 1_555 1_555
H4 C5 1_555 1_555
C6 C3 1_555 1_555
H5 C6 1_555 1_555
C7 C6 1_555 1_555
H6 C7 1_555 1_555
C10 C7 1_555 1_555
C11 C10 1_555 1_555
H9 C11 1_555 1_555
C12 C11 1_555 1_555
H10 C12 1_555 1_555
C13 C12 1_555 1_555
C14 C13 1_555 1_555
H11 C14 1_555 1_555
C15 C10 1_555 1_555
H12 C15 1_555 1_555
C16 N2 1_555 1_555
H13 C16 1_555 1_555
H14 C16 1_555 1_555
H15 C16 1_555 1_555
C17 N2 1_555 1_555
H16 C17 1_555 1_555
H17 C17 1_555 1_555
H18 C17 1_555 1_555
C18 N1 1_555 1_555
H19 C18 1_555 1_555
H20 C18 1_555 1_555
C19 C18 1_555 1_555
H21 C19 1_555 1_555
H22 C19 1_555 1_555
H23 C19 1_555 1_555
C20 H24 1_555 1_555
C21 C20 1_555 1_555
H25 C21 1_555 1_555
C22 C21 1_555 1_555
H26 C22 1_555 1_555
C23 C22 1_555 1_555
H27 C23 1_555 1_555
C24 C23 1_555 1_555
H28 C24 1_555 1_555
C25 C20 1_555 1_555
H29 C25 1_555 1_555
C26 H30 1_555 1_555
C27 C26 1_555 1_555
H31 C27 1_555 1_555
C28 C27 1_555 1_555
H32 C28 1_555 1_555
C29 C28 1_555 1_555
H33 C29 1_555 1_555
C30 C29 1_555 1_555
H34 C30 1_555 1_555
C31 C26 1_555 1_555
H35 C31 1_555 1_555
C4 C5 1_555 1_555
C14 C15 1_555 1_555
C24 C25 1_555 1_555
C30 C31 1_555 1_555

#END
