
#######################################################################
#
#                 Cambridge Crystallographic Data Centre
#                                CCDC 
#
#######################################################################
#
# If this CIF has been generated from an entry in the Cambridge 
# Structural Database, then it will include bibliographic, chemical, 
# crystal, experimental, refinement or atomic coordinate data resulting 
# from the CCDC's data processing and validation procedures.
#
#######################################################################

data_RODFUM
_chemical_formula_moiety         'C16 H18 N1 O1 1+,Cl1 O4 1-'
_chemical_name_systematic        
'4-((E)-2-(4-Methoxyphenyl)ethenyl)-1-ethylpyridinium perchlorate'
_symmetry_cell_setting           monoclinic
_symmetry_space_group_name_H-M   'P 21/n'
_symmetry_Int_Tables_number      14
_space_group_name_Hall           '-P 2yn'
loop_
_symmetry_equiv_pos_site_id
_symmetry_equiv_pos_as_xyz
1 x,y,z
2 1/2-x,1/2+y,1/2-z
3 -x,-y,-z
4 1/2+x,1/2-y,1/2+z
_cell_length_a                   7.5224(5)
_cell_length_b                   11.3017(8)
_cell_length_c                   18.8763(13)
_cell_angle_alpha                90
_cell_angle_beta                 91.213(1)
_cell_angle_gamma                90
_cell_volume                     1604.43
_exptl_crystal_colour            yellow
_exptl_crystal_description       block
_chemical_melting_point          158-160deg.C
_cell_formula_units_Z            4
_chemical_properties_physical    light-sensitive
_exptl_crystal_recrystallization_method 'ethyl acetate/acetonitrile'
loop_
_atom_site_label
_atom_site_type_symbol
_atom_site_fract_x
_atom_site_fract_y
_atom_site_fract_z
Cl1 Cl 0.60695(7) 0.18060(4) 0.36767(3)
O1 O 0.4407(2) 0.22501(14) 0.34108(10)
O2 O 0.6881(2) 0.11232(14) 0.31309(10)
O3 O 0.5752(3) 0.10669(17) 0.42764(10)
O4 O 0.7200(2) 0.27759(16) 0.38692(9)
O5 O 1.06537(19) 0.91581(13) 0.33487(8)
N1 N 0.4883(2) 0.25664(14) 0.66851(9)
C1 C 0.4868(3) 0.36930(18) 0.69115(13)
C2 C 0.5489(8) 0.4637(5) 0.6569(3)
H1 H 0.5392 0.5407 0.6766
C3 C 0.6280(5) 0.4467(5) 0.5918(3)
C4 C 0.6310(5) 0.3315(5) 0.5647(2)
H2 H 0.6810 0.3161 0.5198
C5 C 0.5603(13) 0.2401(5) 0.6039(6)
H3 H 0.5623 0.1624 0.5848
C6 C 0.7000(4) 0.5494(3) 0.5550(2)
H4 H 0.6920 0.6239 0.5780
C7 C 0.7758(4) 0.5470(3) 0.4918(2)
H5 H 0.7860 0.4718 0.4697
C8 C 0.8449(9) 0.6485(6) 0.4530(3)
C9 C 0.9113(10) 0.6323(7) 0.3851(3)
H6 H 0.9067 0.5560 0.3641
C10 C 0.9789(3) 0.7194(2) 0.35040(14)
C11 C 0.9867(2) 0.83414(18) 0.37712(11)
C12 C 0.9159(3) 0.85953(19) 0.44268(12)
C13 C 0.8449(3) 0.7691(2) 0.48223(13)
C14 C 1.1141(4) 1.0262(2) 0.36748(16)
C15 C 0.4245(3) 0.1610(2) 0.71483(17)
C16 C 0.5649(4) 0.1302(3) 0.76945(18)
H7 H 0.437(3) 0.3800(19) 0.7332(12)
H8 H 1.025(3) 0.7080(19) 0.3058(13)
H9 H 0.913(3) 0.941(2) 0.4595(12)
H10 H 0.795(3) 0.788(2) 0.5234(14)
H11 H 1.183(3) 1.064(2) 0.3312(13)
H12 H 1.189(3) 1.0115(19) 0.4096(13)
H13 H 1.008(3) 1.074(2) 0.3767(12)
H14 H 0.390(4) 0.097(3) 0.6837(16)
H15 H 0.317(4) 0.188(2) 0.7369(14)
H16 H 0.534(3) 0.064(2) 0.7903(15)
H17 H 0.591(4) 0.196(3) 0.8029(19)
H18 H 0.676(4) 0.107(2) 0.7453(15)
C17? C 0.576(2) 0.4412(14) 0.6353(9)
H19? H 0.5907 0.5234 0.6440
C18? C 0.6398(12) 0.3970(13) 0.5719(5)
C19? C 0.6184(17) 0.2769(11) 0.5606(8)
H20? H 0.6585 0.2444 0.5174
C20? C 0.543(3) 0.2033(14) 0.6081(17)
H21? H 0.5295 0.1209 0.5998
C21? C 0.7218(8) 0.4711(7) 0.5184(4)
H22? H 0.7628 0.4335 0.4768
C22? C 0.7429(11) 0.5866(9) 0.5238(5)
H23? H 0.6970 0.6216 0.5653
C23? C 0.826(3) 0.6678(19) 0.4751(8)
C24? C 0.893(2) 0.6315(14) 0.4110(8)
H24? H 0.8895 0.5492 0.4008
loop_
_geom_bond_atom_site_label_1
_geom_bond_atom_site_label_2
_geom_bond_site_symmetry_1
_geom_bond_site_symmetry_2
Cl1 O1 1_555 1_555
O2 Cl1 1_555 1_555
O3 Cl1 1_555 1_555
O4 Cl1 1_555 1_555
O5 C11 1_555 1_555
N1 C1 1_555 1_555
C1 C2 1_555 1_555
C2 H1 1_555 1_555
C3 C2 1_555 1_555
C4 C3 1_555 1_555
H2 C4 1_555 1_555
C5 N1 1_555 1_555
H3 C5 1_555 1_555
C6 C3 1_555 1_555
H4 C6 1_555 1_555
C7 C6 1_555 1_555
H5 C7 1_555 1_555
C8 C7 1_555 1_555
C9 C8 1_555 1_555
H6 C9 1_555 1_555
C10 C9 1_555 1_555
C11 C10 1_555 1_555
C12 C11 1_555 1_555
C13 C8 1_555 1_555
C14 O5 1_555 1_555
C15 N1 1_555 1_555
C16 C15 1_555 1_555
H7 C1 1_555 1_555
H8 C10 1_555 1_555
H9 C12 1_555 1_555
H10 C13 1_555 1_555
H11 C14 1_555 1_555
H12 C14 1_555 1_555
H13 C14 1_555 1_555
H14 C15 1_555 1_555
H15 C15 1_555 1_555
H16 C16 1_555 1_555
H17 C16 1_555 1_555
H18 C16 1_555 1_555
C4 C5 1_555 1_555
C12 C13 1_555 1_555

#END
