
#######################################################################
#
#                 Cambridge Crystallographic Data Centre
#                                CCDC 
#
#######################################################################
#
# If this CIF has been generated from an entry in the Cambridge 
# Structural Database, then it will include bibliographic, chemical, 
# crystal, experimental, refinement or atomic coordinate data resulting 
# from the CCDC's data processing and validation procedures.
#
#######################################################################

data_RODGIB
_chemical_formula_moiety         'C16 H18 N1 S1 1+,Cl1 O4 1-,C6 H6'
_chemical_name_systematic        
'4-((E)-2-(4-(Methylsulfanyl)phenyl)ethenyl)-1-ethylpyridinium perchlorate benzene solvate'
_symmetry_cell_setting           monoclinic
_symmetry_space_group_name_H-M   'P 21/c'
_symmetry_Int_Tables_number      14
_space_group_name_Hall           '-P 2ybc'
loop_
_symmetry_equiv_pos_site_id
_symmetry_equiv_pos_as_xyz
1 x,y,z
2 -x,1/2+y,1/2-z
3 -x,-y,-z
4 x,1/2-y,1/2+z
_cell_length_a                   17.9283(7)
_cell_length_b                   6.6644(3)
_cell_length_c                   18.0521(6)
_cell_angle_alpha                90
_cell_angle_beta                 101.031(2)
_cell_angle_gamma                90
_cell_volume                     2117.04
_exptl_crystal_colour            yellow
_exptl_crystal_description       plate
_cell_formula_units_Z            4
_chemical_properties_physical    light-sensitive
_exptl_crystal_recrystallization_method benzene/acetonitrile
loop_
_atom_site_label
_atom_site_type_symbol
_atom_site_fract_x
_atom_site_fract_y
_atom_site_fract_z
Cl1 Cl 0.12198(2) 0.74796(7) 0.37066(2)
O1 O 0.05059(8) 0.8305(3) 0.33314(10)
O2 O 0.17521(9) 0.7560(3) 0.32048(10)
O3 O 0.15041(10) 0.8554(3) 0.43797(9)
O4 O 0.11041(12) 0.5414(3) 0.38973(13)
S1 S 0.43357(2) 1.38462(6) 0.13545(2)
N1 N 0.09548(7) -0.0139(2) 0.13630(8)
C1 C 0.12481(9) 0.0214(3) 0.07388(10)
C2 C 0.10821(10) 0.1177(3) 0.19399(10)
C3 C 0.16629(11) 0.1903(3) 0.06615(15)
H1 H 0.1848 0.2123 0.0209
C4 C 0.18125(10) 0.3299(3) 0.12471(14)
C5 C 0.15101(11) 0.2892(3) 0.18976(14)
H2 H 0.1601 0.3801 0.2310
C6 C 0.22623(10) 0.5078(3) 0.11623(10)
H3 H 0.2421 0.5247 0.0693
C7 C 0.24723(9) 0.6501(3) 0.16902(11)
H4 H 0.2311 0.6331 0.2158
C8 C 0.29225(11) 0.8272(3) 0.16106(16)
C9 C 0.30961(13) 0.9616(4) 0.22115(16)
H5 H 0.2914 0.9364 0.2664
C17 C 0.35290(9) 1.1312(2) 0.21591(10)
C18 C 0.37974(8) 1.1725(2) 0.15007(9)
C19 C 0.36347(9) 1.0401(2) 0.08893(9)
C20 C 0.32061(10) 0.8696(2) 0.09378(10)
C21 C 0.44505(11) 1.5193(3) 0.22294(10)
C22 C 0.04983(10) -0.1987(3) 0.14354(11)
C23 C 0.02285(12) -0.3073(3) 0.07063(12)
H11 H 0.1169(12) -0.073(3) 0.0353(13)
H12 H 0.0864(10) 0.084(3) 0.2294(10)
H13 H 0.3640(12) 1.219(3) 0.2584(13)
H14 H 0.3817(11) 1.066(3) 0.0442(12)
H15 H 0.3099(12) 0.792(3) 0.0516(13)
H16 H 0.4680(14) 1.639(4) 0.2144(14)
H17 H 0.4759(13) 1.450(3) 0.2627(13)
H18 H 0.3970(13) 1.548(3) 0.2377(13)
H19 H 0.0810(12) -0.284(3) 0.1824(13)
H20 H 0.0111(13) -0.158(3) 0.1634(13)
H21 H -0.0113(14) -0.414(4) 0.0795(14)
H22 H 0.0654(15) -0.370(4) 0.0469(15)
H23 H -0.0073(13) -0.218(3) 0.0334(13)
C24 C 0.33808(13) 0.4871(3) 0.38824(11)
C25 C 0.29033(11) 0.3259(4) 0.39366(11)
C26 C 0.32057(12) 0.1391(3) 0.41432(11)
C27 C 0.39913(12) 0.1131(3) 0.42968(11)
C28 C 0.44616(11) 0.2736(3) 0.42405(11)
C29 C 0.41587(12) 0.4611(3) 0.40378(11)
H24 H 0.3181(15) 0.606(4) 0.3756(15)
H25 H 0.2379(15) 0.343(4) 0.3843(15)
H26 H 0.2889(15) 0.026(4) 0.4181(14)
H27 H 0.4192(12) -0.013(3) 0.4420(13)
H28 H 0.4966(14) 0.258(4) 0.4334(15)
H29 H 0.4458(14) 0.571(4) 0.4000(14)
O5? O 0.1759(13) 0.720(4) 0.4420(11)
O6? O 0.1226(16) 0.969(3) 0.3636(16)
O7? O 0.0513(12) 0.692(4) 0.3807(16)
O8? O 0.1513(14) 0.666(4) 0.3134(13)
C10? C 0.1667(11) 0.209(2) 0.0921(12)
H6? H 0.1936 0.2525 0.0545
C11? C 0.1745(9) 0.336(2) 0.1546(11)
C12? C 0.1432(15) 0.291(3) 0.2168(15)
H7? H 0.1457 0.3618 0.2628
C13? C 0.2187(12) 0.524(3) 0.1738(13)
H8? H 0.2235 0.5769 0.2234
C14? C 0.2483(11) 0.611(3) 0.1297(14)
H9? H 0.2430 0.5474 0.0819
C15? C 0.2962(11) 0.820(3) 0.1366(11)
C16? C 0.3108(14) 0.937(3) 0.2022(13)
H10? H 0.2914 0.8853 0.2438
loop_
_geom_bond_atom_site_label_1
_geom_bond_atom_site_label_2
_geom_bond_site_symmetry_1
_geom_bond_site_symmetry_2
Cl1 O1 1_555 1_555
O2 Cl1 1_555 1_555
O3 Cl1 1_555 1_555
O4 Cl1 1_555 1_555
S1 C18 1_555 1_555
N1 C1 1_555 1_555
C1 C3 1_555 1_555
C2 N1 1_555 1_555
C3 H1 1_555 1_555
C4 C3 1_555 1_555
C5 C2 1_555 1_555
H2 C5 1_555 1_555
C6 C4 1_555 1_555
H3 C6 1_555 1_555
C7 C6 1_555 1_555
H4 C7 1_555 1_555
C8 C7 1_555 1_555
C9 C8 1_555 1_555
H5 C9 1_555 1_555
C17 C9 1_555 1_555
C18 C17 1_555 1_555
C19 C18 1_555 1_555
C20 C8 1_555 1_555
C21 S1 1_555 1_555
C22 N1 1_555 1_555
C23 C22 1_555 1_555
C24 C25 1_555 1_555
C25 C26 1_555 1_555
C26 C27 1_555 1_555
C27 C28 1_555 1_555
C28 C29 1_555 1_555
C29 C24 1_555 1_555
H11 C1 1_555 1_555
H12 C2 1_555 1_555
H13 C17 1_555 1_555
H14 C19 1_555 1_555
H15 C20 1_555 1_555
H16 C21 1_555 1_555
H17 C21 1_555 1_555
H18 C21 1_555 1_555
H19 C22 1_555 1_555
H20 C22 1_555 1_555
H21 C23 1_555 1_555
H22 C23 1_555 1_555
H23 C23 1_555 1_555
H24 C24 1_555 1_555
H25 C25 1_555 1_555
H26 C26 1_555 1_555
H27 C27 1_555 1_555
H28 C28 1_555 1_555
H29 C29 1_555 1_555
C4 C5 1_555 1_555
C19 C20 1_555 1_555

#END
