
#######################################################################
#
#                 Cambridge Crystallographic Data Centre
#                                CCDC 
#
#######################################################################
#
# If this CIF has been generated from an entry in the Cambridge 
# Structural Database, then it will include bibliographic, chemical, 
# crystal, experimental, refinement or atomic coordinate data resulting 
# from the CCDC's data processing and validation procedures.
#
#######################################################################

data_RODGAT
_chemical_formula_moiety         'C16 H18 N1 O1 1+,Cl1 O4 1-,C6 H6'
_chemical_name_systematic        
'4-((E)-2-(4-Methoxyphenyl)ethenyl)-1-ethylpyridinium perchlorate benzene solvate'
_symmetry_cell_setting           monoclinic
_symmetry_space_group_name_H-M   'P 21/c'
_symmetry_Int_Tables_number      14
_space_group_name_Hall           '-P 2ybc'
loop_
_symmetry_equiv_pos_site_id
_symmetry_equiv_pos_as_xyz
1 x,y,z
2 -x,1/2+y,1/2-z
3 -x,-y,-z
4 x,1/2-y,1/2+z
_cell_length_a                   17.738(3)
_cell_length_b                   6.5673(12)
_cell_length_c                   18.083(3)
_cell_angle_alpha                90
_cell_angle_beta                 99.680(7)
_cell_angle_gamma                90
_cell_volume                     2076.51
_exptl_crystal_colour            yellow
_exptl_crystal_description       plate
_cell_formula_units_Z            4
_chemical_properties_physical    light-sensitive
_exptl_crystal_recrystallization_method benzene/acetonitrile
loop_
_atom_site_label
_atom_site_type_symbol
_atom_site_fract_x
_atom_site_fract_y
_atom_site_fract_z
Cl1 Cl 0.12560(7) 0.7324(2) 0.37272(7)
O1 O 0.1785(2) 0.7431(8) 0.3211(2)
O2 O 0.05219(19) 0.8024(7) 0.3360(2)
O3 O 0.1509(2) 0.8437(7) 0.4371(2)
O4 O 0.1180(3) 0.5198(7) 0.3920(3)
O5 O 0.42844(18) 1.3435(5) 0.14431(19)
N1 N 0.0951(2) -0.0217(6) 0.1385(2)
C1 C 0.1222(3) 0.0200(8) 0.0748(3)
C2 C 0.1647(3) 0.1927(9) 0.0684(4)
H1 H 0.1818 0.2177 0.0222
C3 C 0.1094(3) 0.1070(9) 0.1971(4)
H2 H 0.089(2) 0.065(6) 0.237(2)
C4 C 0.1823(4) 0.3213(12) 0.1219(5)
C5 C 0.1547(5) 0.2808(15) 0.1889(5)
H3 H 0.1667 0.3725 0.2298
C6 C 0.2273(4) 0.5043(13) 0.1131(4)
H4 H 0.2414 0.5252 0.0653
C7 C 0.2509(4) 0.6474(13) 0.1664(4)
H5 H 0.2363 0.6296 0.2142
C8 C 0.2966(3) 0.8252(8) 0.1559(4)
C9 C 0.3145(3) 0.9497(8) 0.2179(3)
C10 C 0.3576(3) 1.1208(9) 0.2164(3)
C11 C 0.3842(3) 1.1730(7) 0.1517(3)
C12 C 0.3674(3) 1.0551(8) 0.0882(3)
C13 C 0.3234(3) 0.8827(9) 0.0899(3)
H6 H 0.3109 0.8017 0.0460
C14 C 0.4490(4) 1.4689(10) 0.2086(3)
C15 C 0.0483(3) -0.2079(8) 0.1448(3)
H7 H 0.0786 -0.3035 0.1804
H8 H 0.0025 -0.1689 0.1661
C16 C 0.0233(3) -0.3146(9) 0.0727(3)
H9 H -0.0075 -0.4338 0.0811
H10 H 0.0682 -0.3587 0.0520
H11 H -0.0075 -0.2220 0.0373
H12 H 0.117(3) -0.085(8) 0.031(3)
H13 H 0.293(3) 0.912(7) 0.273(3)
H14 H 0.369(3) 1.191(8) 0.254(3)
H15 H 0.379(3) 1.100(7) 0.036(3)
H16 H 0.478(3) 1.579(7) 0.187(3)
H17 H 0.478(3) 1.409(8) 0.253(3)
H18 H 0.407(3) 1.518(8) 0.232(3)
C17 C 0.4530(3) 0.2619(9) 0.4213(3)
C18 C 0.4210(3) 0.4486(10) 0.4009(3)
C19 C 0.3426(4) 0.4706(10) 0.3866(3)
C20 C 0.2962(3) 0.3007(11) 0.3937(3)
C21 C 0.3292(3) 0.1147(11) 0.4155(3)
C22 C 0.4084(3) 0.0978(10) 0.4282(3)
H19 H 0.503(3) 0.269(8) 0.438(3)
H20 H 0.452(3) 0.571(8) 0.401(3)
H21 H 0.321(3) 0.589(9) 0.371(3)
H22 H 0.234(4) 0.310(10) 0.374(4)
H23 H 0.294(3) -0.027(8) 0.426(3)
H24 H 0.430(3) -0.015(9) 0.449(3)
O6? O 0.1349(19) 0.960(4) 0.369(2)
O7? O 0.1837(18) 0.663(5) 0.4383(17)
O8? O 0.0484(15) 0.691(5) 0.390(2)
O9? O 0.139(2) 0.635(6) 0.3041(17)
C23? C 0.1766(13) 0.342(3) 0.1568(18)
C24? C 0.1448(16) 0.270(5) 0.2182(19)
H25? H 0.1491 0.3315 0.2662
C25? C 0.2214(12) 0.521(4) 0.1741(13)
H26? H 0.2294 0.5729 0.2238
C26? C 0.2507(15) 0.612(5) 0.1247(18)
H27? H 0.2470 0.5638 0.0746
loop_
_geom_bond_atom_site_label_1
_geom_bond_atom_site_label_2
_geom_bond_site_symmetry_1
_geom_bond_site_symmetry_2
Cl1 O1 1_555 1_555
O2 Cl1 1_555 1_555
O3 Cl1 1_555 1_555
O4 Cl1 1_555 1_555
O5 C11 1_555 1_555
N1 C1 1_555 1_555
C1 C2 1_555 1_555
C2 H1 1_555 1_555
C3 N1 1_555 1_555
H2 C3 1_555 1_555
C4 C2 1_555 1_555
C5 C3 1_555 1_555
H3 C5 1_555 1_555
C6 C4 1_555 1_555
H4 C6 1_555 1_555
C7 C6 1_555 1_555
H5 C7 1_555 1_555
C8 C7 1_555 1_555
C9 C8 1_555 1_555
C10 C9 1_555 1_555
C11 C10 1_555 1_555
C12 C11 1_555 1_555
C13 C8 1_555 1_555
H6 C13 1_555 1_555
C14 O5 1_555 1_555
C15 N1 1_555 1_555
H7 C15 1_555 1_555
H8 C15 1_555 1_555
C16 C15 1_555 1_555
H9 C16 1_555 1_555
H10 C16 1_555 1_555
H11 C16 1_555 1_555
H12 C1 1_555 1_555
H13 C9 1_555 1_555
H14 C10 1_555 1_555
H15 C12 1_555 1_555
H16 C14 1_555 1_555
H17 C14 1_555 1_555
H18 C14 1_555 1_555
C17 C18 1_555 1_555
C18 C19 1_555 1_555
C19 C20 1_555 1_555
C20 C21 1_555 1_555
C21 C22 1_555 1_555
C22 C17 1_555 1_555
H19 C17 1_555 1_555
H20 C18 1_555 1_555
H21 C19 1_555 1_555
H22 C20 1_555 1_555
H23 C21 1_555 1_555
H24 C22 1_555 1_555
C4 C5 1_555 1_555
C12 C13 1_555 1_555

#END
