
#######################################################################
#
#                 Cambridge Crystallographic Data Centre
#                                CCDC 
#
#######################################################################
#
# If this CIF has been generated from an entry in the Cambridge 
# Structural Database, then it will include bibliographic, chemical, 
# crystal, experimental, refinement or atomic coordinate data resulting 
# from the CCDC's data processing and validation procedures.
#
#######################################################################

data_RODNUV
_chemical_name_common            16,21:20,24-diepoxycholane-3,21,24-trione
_chemical_formula_moiety         'C24 H32 O5'
_chemical_name_systematic        
(2S,2a'S,6a'S,6b'S,8a'S,8b'R,11a'S,12a'S,12b'R)-6a',8a'-dimethyloctadecahydro-4'H,5H,10'H-spiro[furan-2,9'-naphtho[2',1':4,5]indeno[2,1-b]furan]-4',5,10'-trione
_symmetry_cell_setting           orthorhombic
_symmetry_space_group_name_H-M   'P 21 21 21'
_symmetry_Int_Tables_number      19
_space_group_name_Hall           'P 2ac 2ab'
loop_
_symmetry_equiv_pos_site_id
_symmetry_equiv_pos_as_xyz
1 x,y,z
2 1/2-x,-y,1/2+z
3 -x,1/2+y,1/2-z
4 1/2+x,1/2-y,-z
_cell_length_a                   6.4163(9)
_cell_length_b                   14.742(2)
_cell_length_c                   21.517(3)
_cell_angle_alpha                90
_cell_angle_beta                 90
_cell_angle_gamma                90
_cell_volume                     2035.27
_exptl_crystal_colour            colorless
_exptl_crystal_description       prismatic
_cell_formula_units_Z            4
_exptl_crystal_recrystallization_method MeOH/dichloromethane
loop_
_atom_site_label
_atom_site_type_symbol
_atom_site_fract_x
_atom_site_fract_y
_atom_site_fract_z
O1 O 0.8824(5) 0.79403(17) 0.89516(12)
O2 O -0.1438(4) 0.07002(16) 0.87665(12)
O3 O -0.0808(3) 0.18041(13) 0.80898(9)
O4 O 0.3439(4) -0.10254(13) 0.78533(10)
O5 O 0.2547(3) 0.04124(12) 0.79686(7)
C1 C 0.7638(4) 0.56848(16) 0.93471(12)
H1 H 0.7892 0.5263 0.9685
H2 H 0.8579 0.5531 0.9010
C2 C 0.8127(5) 0.66512(17) 0.95714(14)
H3 H 0.7338 0.6774 0.9947
H4 H 0.9596 0.6693 0.9673
C3 C 0.7609(6) 0.7349(2) 0.90935(14)
C4 C 0.5499(6) 0.72504(19) 0.87954(14)
H5 H 0.5428 0.7641 0.8433
H6 H 0.4438 0.7449 0.9086
C5 C 0.5034(5) 0.62693(17) 0.85976(12)
H7 H 0.6040 0.6120 0.8270
C6 C 0.2895(5) 0.61969(19) 0.83046(13)
H8 H 0.2780 0.6636 0.7971
H9 H 0.1843 0.6340 0.8613
C7 C 0.2499(5) 0.52535(17) 0.80490(12)
H10 H 0.3394 0.5154 0.7692
H11 H 0.1065 0.5215 0.7908
C8 C 0.2898(4) 0.45058(17) 0.85309(11)
H12 H 0.1838 0.4550 0.8858
C9 C 0.5073(4) 0.46169(16) 0.88298(11)
H13 H 0.6078 0.4578 0.8488
C10 C 0.5372(4) 0.55702(17) 0.91205(11)
C11 C 0.5585(5) 0.38264(16) 0.92671(12)
H14 H 0.7023 0.3882 0.9401
H15 H 0.4712 0.3873 0.9634
C12 C 0.5275(4) 0.28917(17) 0.89776(12)
H16 H 0.6305 0.2801 0.8653
H17 H 0.5491 0.2430 0.9292
C13 C 0.3106(4) 0.27866(17) 0.87033(10)
C14 C 0.2778(4) 0.35664(17) 0.82408(11)
H18 H 0.3934 0.3531 0.7944
C15 C 0.0811(5) 0.32952(18) 0.78794(13)
H19 H -0.0440 0.3463 0.8105
H20 H 0.0784 0.3578 0.7472
C16 C 0.1013(5) 0.22719(18) 0.78269(12)
H21 H 0.1254 0.2087 0.7395
C17 C 0.2838(5) 0.19800(16) 0.82487(10)
H22 H 0.4103 0.1916 0.7997
C18 C 0.1468(5) 0.27724(18) 0.92250(11)
H23 H 0.1731 0.2268 0.9496
H24 H 0.0103 0.2714 0.9047
H25 H 0.1548 0.3327 0.9458
C19 C 0.3885(5) 0.57138(17) 0.96713(11)
H26 H 0.2493 0.5555 0.9549
H27 H 0.3922 0.6339 0.9797
H28 H 0.4311 0.5337 1.0012
C20 C 0.2149(5) 0.10588(18) 0.84709(11)
C21 C -0.0210(5) 0.1136(2) 0.84800(15)
C22 C 0.3122(5) 0.06258(17) 0.90450(11)
H29 H 0.4487 0.0881 0.9128
H30 H 0.2244 0.0714 0.9407
C23 C 0.3284(6) -0.03738(19) 0.88804(12)
H31 H 0.4602 -0.0623 0.9021
H32 H 0.2158 -0.0715 0.9069
C24 C 0.3137(5) -0.0406(2) 0.81953(14)
loop_
_geom_bond_atom_site_label_1
_geom_bond_atom_site_label_2
_geom_bond_site_symmetry_1
_geom_bond_site_symmetry_2
O1 C3 1_555 1_555
O2 C21 1_555 1_555
O3 C16 1_555 1_555
O4 C24 1_555 1_555
O5 C20 1_555 1_555
C1 H1 1_555 1_555
H2 C1 1_555 1_555
C2 C1 1_555 1_555
H3 C2 1_555 1_555
H4 C2 1_555 1_555
C3 C2 1_555 1_555
C4 C3 1_555 1_555
H5 C4 1_555 1_555
H6 C4 1_555 1_555
C5 C4 1_555 1_555
H7 C5 1_555 1_555
C6 C5 1_555 1_555
H8 C6 1_555 1_555
H9 C6 1_555 1_555
C7 C6 1_555 1_555
H10 C7 1_555 1_555
H11 C7 1_555 1_555
C8 C7 1_555 1_555
H12 C8 1_555 1_555
C9 C8 1_555 1_555
H13 C9 1_555 1_555
C10 C1 1_555 1_555
C11 C9 1_555 1_555
H14 C11 1_555 1_555
H15 C11 1_555 1_555
C12 C11 1_555 1_555
H16 C12 1_555 1_555
H17 C12 1_555 1_555
C13 C12 1_555 1_555
C14 C8 1_555 1_555
H18 C14 1_555 1_555
C15 C14 1_555 1_555
H19 C15 1_555 1_555
H20 C15 1_555 1_555
C16 C15 1_555 1_555
H21 C16 1_555 1_555
C17 C13 1_555 1_555
H22 C17 1_555 1_555
C18 C13 1_555 1_555
H23 C18 1_555 1_555
H24 C18 1_555 1_555
H25 C18 1_555 1_555
C19 C10 1_555 1_555
H26 C19 1_555 1_555
H27 C19 1_555 1_555
H28 C19 1_555 1_555
C20 C17 1_555 1_555
C21 O3 1_555 1_555
C22 C20 1_555 1_555
H29 C22 1_555 1_555
H30 C22 1_555 1_555
C23 C22 1_555 1_555
H31 C23 1_555 1_555
H32 C23 1_555 1_555
C24 O5 1_555 1_555
C5 C10 1_555 1_555
C9 C10 1_555 1_555
C13 C14 1_555 1_555
C16 C17 1_555 1_555
C20 C21 1_555 1_555
C23 C24 1_555 1_555

#END
