
#######################################################################
#
#                 Cambridge Crystallographic Data Centre
#                                CCDC 
#
#######################################################################
#
# If this CIF has been generated from an entry in the Cambridge 
# Structural Database, then it will include bibliographic, chemical, 
# crystal, experimental, refinement or atomic coordinate data resulting 
# from the CCDC's data processing and validation procedures.
#
#######################################################################

data_RODPEH
_chemical_formula_moiety         'C34 H21 Cl1 N2 O4'
_chemical_name_systematic        
2'-(4-chlorophenyl)-2'-hydroxy-3'-(2-oxo-1,2-dihydro-3H-indol-3-ylidene)-2',3'-dihydro-10b'H-spiro[indene-2,1'-pyrrolo[2,1-a]isoquinoline]-1,3-dione
_symmetry_cell_setting           orthorhombic
_symmetry_space_group_name_H-M   'P b c n'
_symmetry_Int_Tables_number      60
_space_group_name_Hall           '-P 2n 2ab'
loop_
_symmetry_equiv_pos_site_id
_symmetry_equiv_pos_as_xyz
1 x,y,z
2 1/2-x,1/2-y,1/2+z
3 -x,y,1/2-z
4 1/2+x,1/2-y,-z
5 -x,-y,-z
6 1/2+x,1/2+y,1/2-z
7 x,-y,1/2+z
8 1/2-x,1/2+y,z
_cell_length_a                   13.3299(18)
_cell_length_b                   16.080(2)
_cell_length_c                   25.043(3)
_cell_angle_alpha                90
_cell_angle_beta                 90
_cell_angle_gamma                90
_cell_volume                     5367.84
_cell_formula_units_Z            8
loop_
_atom_site_label
_atom_site_type_symbol
_atom_site_fract_x
_atom_site_fract_y
_atom_site_fract_z
C1 C 0.62650(18) 0.92352(15) 0.06876(8)
H1 H 0.5987 0.9789 0.0758
C2 C 0.5854(2) 0.89296(15) 0.01576(9)
C3 C 0.4920(2) 0.85652(18) 0.01157(11)
H2 H 0.4542 0.8466 0.0421
C4 C 0.4544(2) 0.8346(2) -0.03831(13)
H3 H 0.3912 0.8106 -0.0411
C5 C 0.5104(3) 0.8483(2) -0.08300(13)
H4 H 0.4862 0.8316 -0.1162
C6 C 0.6024(3) 0.8865(2) -0.07940(11)
H5 H 0.6394 0.8963 -0.1103
C7 C 0.6407(2) 0.91071(17) -0.03012(10)
C8 C 0.7355(3) 0.9542(2) -0.02503(11)
H6 H 0.7647 0.9769 -0.0555
C9 C 0.7818(2) 0.96285(18) 0.02118(10)
H7 H 0.8431 0.9902 0.0231
C10 C 0.92120(17) 0.91032(13) 0.18042(9)
C11 C 0.88307(17) 0.90617(14) 0.12537(9)
C12 C 0.97159(19) 0.89138(14) 0.09211(10)
C13 C 0.9876(2) 0.87144(17) 0.03836(11)
H8 H 0.9343 0.8710 0.0144
C14 C 1.0841(3) 0.85238(19) 0.02138(14)
H9 H 1.0950 0.8399 -0.0144
C15 C 1.1635(3) 0.8515(2) 0.05584(16)
H10 H 1.2271 0.8384 0.0431
C16 C 1.1506(2) 0.86993(18) 0.10935(14)
H11 H 1.2044 0.8696 0.1330
C17 C 1.05446(19) 0.88875(15) 0.12626(11)
C18 C 0.78208(17) 0.91344(14) 0.11476(8)
C19 C 0.69800(16) 0.90295(13) 0.15575(8)
C20 C 0.67512(16) 0.98632(13) 0.18326(8)
C21 C 0.69715(17) 1.06299(14) 0.16068(9)
H12 H 0.7230 1.0651 0.1262
C22 C 0.68145(17) 1.13655(14) 0.18837(9)
H13 H 0.6964 1.1875 0.1727
C23 C 0.64350(16) 1.13295(14) 0.23920(9)
C24 C 0.61959(18) 1.05848(15) 0.26228(9)
H14 H 0.5928 1.0569 0.2966
C25 C 0.63542(17) 0.98564(14) 0.23440(8)
H15 H 0.6191 0.9351 0.2502
C26 C 0.62952(17) 0.77622(14) 0.10973(9)
C27 C 0.61137(16) 0.87037(13) 0.11831(8)
C28 C 0.50786(17) 0.87263(15) 0.14418(9)
C29 C 0.48084(17) 0.78700(15) 0.15953(10)
C30 C 0.3999(2) 0.75941(19) 0.18898(14)
H16 H 0.3531 0.7965 0.2028
C31 C 0.3909(3) 0.6757(2) 0.1972(2)
H17 H 0.3378 0.6557 0.2176
C32 C 0.4590(3) 0.6203(2) 0.1759(2)
H18 H 0.4502 0.5636 0.1817
C33 C 0.5392(2) 0.64693(17) 0.14635(15)
H19 H 0.5848 0.6093 0.1320
C34 C 0.55019(18) 0.73124(15) 0.13853(11)
Cl1 Cl 0.62571(5) 1.22425(4) 0.27565(3)
N1 N 0.73746(15) 0.93034(12) 0.06737(7)
N2 N 1.02234(14) 0.90279(12) 0.17813(8)
H20 H 1.0615 0.9063 0.2053
O1 O 0.87461(11) 0.92098(10) 0.22338(6)
O2 O 0.71459(11) 0.83955(9) 0.19327(6)
H21 H 0.7607 0.8530 0.2132
O3 O 0.45630(13) 0.93389(11) 0.14932(7)
O4 O 0.69712(12) 0.74562(10) 0.08413(6)
loop_
_geom_bond_atom_site_label_1
_geom_bond_atom_site_label_2
_geom_bond_site_symmetry_1
_geom_bond_site_symmetry_2
C1 H1 1_555 1_555
C2 C1 1_555 1_555
C3 C2 1_555 1_555
H2 C3 1_555 1_555
C4 C3 1_555 1_555
H3 C4 1_555 1_555
C5 C4 1_555 1_555
H4 C5 1_555 1_555
C6 C5 1_555 1_555
H5 C6 1_555 1_555
C7 C2 1_555 1_555
C8 C7 1_555 1_555
H6 C8 1_555 1_555
C9 C8 1_555 1_555
H7 C9 1_555 1_555
C10 C11 1_555 1_555
C11 C12 1_555 1_555
C12 C13 1_555 1_555
C13 H8 1_555 1_555
C14 C13 1_555 1_555
H9 C14 1_555 1_555
C15 C14 1_555 1_555
H10 C15 1_555 1_555
C16 C15 1_555 1_555
H11 C16 1_555 1_555
C17 C12 1_555 1_555
C18 C11 1_555 1_555
C19 C18 1_555 1_555
C20 C19 1_555 1_555
C21 C20 1_555 1_555
H12 C21 1_555 1_555
C22 C21 1_555 1_555
H13 C22 1_555 1_555
C23 C22 1_555 1_555
C24 C23 1_555 1_555
H14 C24 1_555 1_555
C25 C20 1_555 1_555
H15 C25 1_555 1_555
C26 C27 1_555 1_555
C27 C1 1_555 1_555
C28 C27 1_555 1_555
C29 C28 1_555 1_555
C30 C29 1_555 1_555
H16 C30 1_555 1_555
C31 C30 1_555 1_555
H17 C31 1_555 1_555
C32 C31 1_555 1_555
H18 C32 1_555 1_555
C33 C32 1_555 1_555
H19 C33 1_555 1_555
C34 C26 1_555 1_555
Cl1 C23 1_555 1_555
N1 C1 1_555 1_555
N2 C10 1_555 1_555
H20 N2 1_555 1_555
O1 C10 1_555 1_555
O2 C19 1_555 1_555
H21 O2 1_555 1_555
O3 C28 1_555 1_555
O4 C26 1_555 1_555
C6 C7 1_555 1_555
C9 N1 1_555 1_555
C16 C17 1_555 1_555
C17 N2 1_555 1_555
C18 N1 1_555 1_555
C19 C27 1_555 1_555
C24 C25 1_555 1_555
C29 C34 1_555 1_555
C33 C34 1_555 1_555

#END
