
#######################################################################
#
#                 Cambridge Crystallographic Data Centre
#                                CCDC 
#
#######################################################################
#
# If this CIF has been generated from an entry in the Cambridge 
# Structural Database, then it will include bibliographic, chemical, 
# crystal, experimental, refinement or atomic coordinate data resulting 
# from the CCDC's data processing and validation procedures.
#
#######################################################################

data_RODQIM
_chemical_formula_moiety         'C27 H23 B1 Cl2 F2 N4'
_chemical_name_systematic        
2,8-dichloro-3-(4-ethyl-3,5-dimethyl-1H-pyrrol-2-yl)-5,5-difluoro-10-phenyl-7-(1H-pyrrol-2-yl)-5H-6,5-dipyrrolo[1,2-c:2',1'-f][1,3,2]diazaborinine
_symmetry_cell_setting           monoclinic
_symmetry_space_group_name_H-M   'C 2/c'
_symmetry_Int_Tables_number      15
_space_group_name_Hall           '-C 2yn'
loop_
_symmetry_equiv_pos_site_id
_symmetry_equiv_pos_as_xyz
1 x,y,z
2 -x,y,1/2-z
3 1/2+x,1/2+y,z
4 1/2-x,1/2+y,1/2-z
5 -x,-y,-z
6 x,-y,1/2+z
7 1/2-x,1/2-y,-z
8 1/2+x,1/2-y,1/2+z
_cell_length_a                   27.109(3)
_cell_length_b                   5.0418(5)
_cell_length_c                   37.898(4)
_cell_angle_alpha                90
_cell_angle_beta                 106.6760(10)
_cell_angle_gamma                90
_cell_volume                     4961.98
_exptl_crystal_colour            green
_exptl_crystal_description       block
_cell_formula_units_Z            8
loop_
_atom_site_label
_atom_site_type_symbol
_atom_site_fract_x
_atom_site_fract_y
_atom_site_fract_z
B1 B 0.16916(9) 0.3427(5) 0.14196(6)
C1 C 0.29300(9) 0.2727(5) 0.24589(6)
H1 H 0.2920 0.3875 0.2649
C2 C 0.32329(9) 0.0550(5) 0.24924(6)
H2 H 0.3464 -0.0068 0.2708
C3 C 0.31334(8) -0.0597(5) 0.21427(6)
H3 H 0.3289 -0.2113 0.2084
C4 C 0.27604(8) 0.0936(4) 0.18986(5)
C5 C 0.25407(8) 0.0630(4) 0.15075(5)
C6 C 0.27467(9) -0.0917(5) 0.12683(6)
C7 C 0.24527(9) -0.0554(5) 0.09165(6)
H4 H 0.2509 -0.1303 0.0707
C8 C 0.20482(8) 0.1156(5) 0.09257(5)
C9 C 0.16359(9) 0.2014(5) 0.06414(6)
C10 C 0.12357(9) 0.3447(5) 0.07161(5)
C11 C 0.07772(10) 0.4386(6) 0.04760(6)
H5 H 0.0682 0.4326 0.0220
C12 C 0.04965(10) 0.5410(6) 0.06910(6)
C13 C 0.07754(8) 0.5143(5) 0.10662(6)
C14 C 0.05886(8) 0.5845(5) 0.13740(5)
C15 C 0.01364(8) 0.5032(5) 0.14383(6)
C16 C 0.01027(8) 0.6364(5) 0.17612(6)
C17 C 0.05269(8) 0.7959(5) 0.18792(6)
C18 C -0.02315(11) 0.2995(6) 0.12253(8)
H6 H -0.0539 0.3855 0.1080
H7 H -0.0317 0.1774 0.1393
H8 H -0.0074 0.2047 0.1066
C19 C -0.03257(10) 0.6019(6) 0.19363(8)
H9 H -0.0423 0.4162 0.1923
H10 H -0.0198 0.6491 0.2195
C20 C -0.07922(13) 0.7635(7) 0.17637(11)
H11 H -0.0712 0.9483 0.1807
H12 H -0.1062 0.7161 0.1870
H13 H -0.0904 0.7304 0.1503
C21 C 0.06753(10) 0.9911(5) 0.21877(7)
H14 H 0.0952 0.9198 0.2383
H15 H 0.0384 1.0258 0.2277
H16 H 0.0785 1.1532 0.2101
C22 C 0.16007(9) 0.1361(5) 0.02524(6)
C23 C 0.2014(2) 0.1871(12) 0.01204(14)
H17 H 0.2316 0.2596 0.0273
C24 C 0.1974(3) 0.1286(16) -0.02440(15)
H18 H 0.2254 0.1579 -0.0335
C25 C 0.15107(17) 0.0245(9) -0.04792(8)
H19 H 0.1507 -0.0151 -0.0720
C26 C 0.1128(2) -0.0389(15) -0.03326(14)
H20 H 0.0835 -0.1223 -0.0480
C27 C 0.11588(19) 0.0162(11) 0.00289(12)
H21 H 0.0887 -0.0263 0.0123
Cl1 Cl 0.32742(3) -0.29560(17) 0.139582(19)
Cl2 Cl -0.00867(3) 0.6994(2) 0.053526(19)
F1 F 0.15414(5) 0.1961(2) 0.16794(3)
F2 F 0.18930(5) 0.5838(2) 0.15771(3)
N1 N 0.26427(7) 0.2955(4) 0.21024(5)
H22 H 0.2420 0.4183 0.2017
N2 N 0.21087(7) 0.1849(3) 0.12944(4)
N3 N 0.12330(7) 0.3966(4) 0.10759(4)
N4 N 0.08268(7) 0.7594(4) 0.16479(5)
H23 H 0.1119 0.8343 0.1670
C28? C 0.1601(2) 0.3368(12) -0.00085(13)
H24? H 0.1643 0.5122 0.0070
C29? C 0.1543(3) 0.2828(13) -0.03700(14)
H25? H 0.1525 0.4191 -0.0539
C30? C 0.1485(4) -0.1765(15) -0.02480(17)
H26? H 0.1417 -0.3490 -0.0335
C31? C 0.1563(3) -0.1182(13) 0.01248(16)
H27? H 0.1590 -0.2571 0.0291
loop_
_geom_bond_atom_site_label_1
_geom_bond_atom_site_label_2
_geom_bond_site_symmetry_1
_geom_bond_site_symmetry_2
B1 F1 1_555 1_555
C1 H1 1_555 1_555
C2 C1 1_555 1_555
H2 C2 1_555 1_555
C3 C2 1_555 1_555
H3 C3 1_555 1_555
C4 C3 1_555 1_555
C5 C4 1_555 1_555
C6 C5 1_555 1_555
C7 C6 1_555 1_555
H4 C7 1_555 1_555
C8 C7 1_555 1_555
C9 C8 1_555 1_555
C10 C9 1_555 1_555
C11 C10 1_555 1_555
H5 C11 1_555 1_555
C12 C11 1_555 1_555
C13 C12 1_555 1_555
C14 C13 1_555 1_555
C15 C14 1_555 1_555
C16 C15 1_555 1_555
C17 C16 1_555 1_555
C18 C15 1_555 1_555
H6 C18 1_555 1_555
H7 C18 1_555 1_555
H8 C18 1_555 1_555
C19 C16 1_555 1_555
H9 C19 1_555 1_555
H10 C19 1_555 1_555
C20 C19 1_555 1_555
H11 C20 1_555 1_555
H12 C20 1_555 1_555
H13 C20 1_555 1_555
C21 C17 1_555 1_555
H14 C21 1_555 1_555
H15 C21 1_555 1_555
H16 C21 1_555 1_555
C22 C9 1_555 1_555
C23 C22 1_555 1_555
H17 C23 1_555 1_555
C24 C23 1_555 1_555
H18 C24 1_555 1_555
C25 C24 1_555 1_555
H19 C25 1_555 1_555
C26 C25 1_555 1_555
H20 C26 1_555 1_555
C27 C22 1_555 1_555
H21 C27 1_555 1_555
Cl1 C6 1_555 1_555
Cl2 C12 1_555 1_555
F2 B1 1_555 1_555
N1 C1 1_555 1_555
H22 N1 1_555 1_555
N2 B1 1_555 1_555
N3 B1 1_555 1_555
N4 C14 1_555 1_555
H23 N4 1_555 1_555
C4 N1 1_555 1_555
C5 N2 1_555 1_555
C8 N2 1_555 1_555
C10 N3 1_555 1_555
C13 N3 1_555 1_555
C17 N4 1_555 1_555
C26 C27 1_555 1_555

#END
