
#######################################################################
#
#                 Cambridge Crystallographic Data Centre
#                                CCDC 
#
#######################################################################
#
# If this CIF has been generated from an entry in the Cambridge 
# Structural Database, then it will include bibliographic, chemical, 
# crystal, experimental, refinement or atomic coordinate data resulting 
# from the CCDC's data processing and validation procedures.
#
#######################################################################

data_RODZUF
_chemical_formula_moiety         'C20 H36 O2 Si2'
_chemical_name_systematic        
'(E)-3,4-bis(((t-Butyl)dimethylsiloxy)methyl) hex-3-ene-1,5-diyne'
_symmetry_cell_setting           monoclinic
_symmetry_space_group_name_H-M   'C 2/c'
_symmetry_Int_Tables_number      15
_space_group_name_Hall           '-C 2yn'
loop_
_symmetry_equiv_pos_site_id
_symmetry_equiv_pos_as_xyz
1 x,y,z
2 -x,y,1/2-z
3 1/2+x,1/2+y,z
4 1/2-x,1/2+y,1/2-z
5 -x,-y,-z
6 x,-y,1/2+z
7 1/2-x,1/2-y,-z
8 1/2+x,1/2-y,1/2+z
_cell_length_a                   26.81(2)
_cell_length_b                   6.292(5)
_cell_length_c                   14.576(13)
_cell_angle_alpha                90
_cell_angle_beta                 100.97(7)
_cell_angle_gamma                90
_cell_volume                     2413.87
_exptl_crystal_colour            yellow
_chemical_melting_point          '71 deg.C'
_cell_formula_units_Z            4
loop_
_atom_site_label
_atom_site_type_symbol
_atom_site_fract_x
_atom_site_fract_y
_atom_site_fract_z
Si1 Si 0.3802(1) 0.2585(2) -0.0598(1)
C1 C 0.2172(2) 0.4090(8) -0.1968(3)
C2 C 0.2335(1) 0.3282(7) -0.1257(3)
C3 C 0.2558(1) 0.2224(6) -0.0414(2)
C4 C 0.2923(1) 0.0448(6) -0.0519(3)
O1 O 0.3302(1) 0.1113(3) -0.1020(1)
C5 C 0.3610(2) 0.5315(8) -0.0339(5)
C6 C 0.4146(2) 0.1417(10) 0.0509(4)
C7 C 0.4187(1) 0.2588(7) -0.1539(3)
C8 C 0.3893(2) 0.3603(13) -0.2431(4)
C9 C 0.4329(2) 0.0302(10) -0.1750(5)
C10 C 0.4686(2) 0.3832(8) -0.1203(4)
H1 H 0.2029 0.4889 -0.2487
H2 H 0.3082 -0.0053 0.0088
H3 H 0.2733 -0.0706 -0.0848
H4 H 0.3300 0.6011 -0.0858
H5 H 0.3431 0.5213 0.0170
H6 H 0.3916 0.6122 -0.0146
H7 H 0.4306 0.0250 0.0253
H8 H 0.4400 0.2411 0.0794
H9 H 0.3964 0.0894 0.0970
H10 H 0.4086 0.3691 -0.2921
H11 H 0.3590 0.2791 -0.2644
H12 H 0.3803 0.5008 -0.2264
H13 H 0.4532 0.0351 -0.2225
H14 H 0.4527 -0.0273 -0.1186
H15 H 0.4038 -0.0582 -0.1955
H16 H 0.4873 0.3853 -0.1702
H17 H 0.4591 0.5256 -0.1073
H18 H 0.4893 0.3238 -0.0654
C3F C 0.2442(1) 0.2776(6) 0.0414(2)
C2F C 0.2665(1) 0.1718(7) 0.1257(3)
C1F C 0.2828(2) 0.0910(8) 0.1968(3)
H1F H 0.2971 0.0111 0.2487
C4F C 0.2077(1) 0.4552(6) 0.0519(3)
O1F O 0.1698(1) 0.3887(3) 0.1020(1)
Si1F Si 0.1198(1) 0.2415(2) 0.0598(1)
C5F C 0.1390(2) -0.0315(8) 0.0339(5)
H4F H 0.1700 -0.1011 0.0858
H5F H 0.1569 -0.0213 -0.0170
H6F H 0.1084 -0.1122 0.0146
C6F C 0.0854(2) 0.3583(10) -0.0509(4)
H7F H 0.0694 0.4750 -0.0253
H8F H 0.0600 0.2589 -0.0794
H9F H 0.1036 0.4106 -0.0970
C7F C 0.0813(1) 0.2412(7) 0.1539(3)
C8F C 0.1107(2) 0.1397(13) 0.2431(4)
H10F H 0.0914 0.1309 0.2921
H11F H 0.1410 0.2209 0.2644
H12F H 0.1197 -0.0008 0.2264
C9F C 0.0671(2) 0.4698(10) 0.1750(5)
H13F H 0.0468 0.4649 0.2225
H14F H 0.0473 0.5273 0.1186
H15F H 0.0962 0.5582 0.1955
C10F C 0.0314(2) 0.1168(8) 0.1203(4)
H16F H 0.0127 0.1147 0.1702
H17F H 0.0409 -0.0256 0.1073
H18F H 0.0107 0.1762 0.0654
H2F H 0.1918 0.5053 -0.0088
H3F H 0.2267 0.5706 0.0848
loop_
_geom_bond_atom_site_label_1
_geom_bond_atom_site_label_2
_geom_bond_site_symmetry_1
_geom_bond_site_symmetry_2
Si1 O1 1_555 1_555
C1 C2 1_555 1_555
C2 C3 1_555 1_555
C3 C4 1_555 1_555
C4 O1 1_555 1_555
C5 Si1 1_555 1_555
C6 Si1 1_555 1_555
C7 Si1 1_555 1_555
C8 C7 1_555 1_555
C9 C7 1_555 1_555
C10 C7 1_555 1_555
H1 C1 1_555 1_555
H2 C4 1_555 1_555
H3 C4 1_555 1_555
H4 C5 1_555 1_555
H5 C5 1_555 1_555
H6 C5 1_555 1_555
H7 C6 1_555 1_555
H8 C6 1_555 1_555
H9 C6 1_555 1_555
H10 C8 1_555 1_555
H11 C8 1_555 1_555
H12 C8 1_555 1_555
H13 C9 1_555 1_555
H14 C9 1_555 1_555
H15 C9 1_555 1_555
H16 C10 1_555 1_555
H17 C10 1_555 1_555
H18 C10 1_555 1_555
C3F C3 1_555 1_555
C2F C3F 1_555 1_555
C1F C2F 1_555 1_555
H1F C1F 1_555 1_555
C4F C3F 1_555 1_555
O1F C4F 1_555 1_555
Si1F O1F 1_555 1_555
C5F Si1F 1_555 1_555
H4F C5F 1_555 1_555
H5F C5F 1_555 1_555
H6F C5F 1_555 1_555
C6F Si1F 1_555 1_555
H7F C6F 1_555 1_555
H8F C6F 1_555 1_555
H9F C6F 1_555 1_555
C7F Si1F 1_555 1_555
C8F C7F 1_555 1_555
H10F C8F 1_555 1_555
H11F C8F 1_555 1_555
H12F C8F 1_555 1_555
C9F C7F 1_555 1_555
H13F C9F 1_555 1_555
H14F C9F 1_555 1_555
H15F C9F 1_555 1_555
C10F C7F 1_555 1_555
H16F C10F 1_555 1_555
H17F C10F 1_555 1_555
H18F C10F 1_555 1_555
H2F C4F 1_555 1_555
H3F C4F 1_555 1_555

#END
