
#######################################################################
#
#                 Cambridge Crystallographic Data Centre
#                                CCDC 
#
#######################################################################
#
# If this CIF has been generated from an entry in the Cambridge 
# Structural Database, then it will include bibliographic, chemical, 
# crystal, experimental, refinement or atomic coordinate data resulting 
# from the CCDC's data processing and validation procedures.
#
#######################################################################

data_ROFBAR
_chemical_formula_moiety         'C44 H60 O14,2(C36 H31 N7 4+),8(F6 P1 1-)'
_chemical_name_systematic        
'bis(8-azido-5,12,19,26-tetraazoniaheptacyclo[24.2.2.2^2,5^.2^7,10^.2^12,15^.2^16,19^.2^21,24^]tetraconta-1(28),2,4,7,9,12,14,16,18,21,23,26,29,31,33,35,37,39-octadecaene) octakis(hexafluorophosphate) 6,9,12,15,18,21,24,35,38,41,44,47,50,53-tetradecaoxapentacyclo[52.4.0.0^5,58^.0^25,30^.0^29,34^]octapentaconta-1(58),2,4,25,27,29,31,33,54,56-decaene'
_symmetry_cell_setting           triclinic
_symmetry_space_group_name_H-M   'P -1'
_symmetry_Int_Tables_number      2
_space_group_name_Hall           '-P 1'
loop_
_symmetry_equiv_pos_site_id
_symmetry_equiv_pos_as_xyz
1 x,y,z
2 -x,-y,-z
_cell_length_a                   13.9730(4)
_cell_length_b                   14.0470(4)
_cell_length_c                   22.1298(6)
_cell_angle_alpha                106.3870(10)
_cell_angle_beta                 105.1950(10)
_cell_angle_gamma                91.5810(10)
_cell_volume                     3997.22
_exptl_crystal_colour            violet
_exptl_crystal_description       Block
_cell_formula_units_Z            1
loop_
_atom_site_label
_atom_site_type_symbol
_atom_site_fract_x
_atom_site_fract_y
_atom_site_fract_z
C1 C 0.1752(6) 0.9041(4) 0.4459(4)
H1 H 0.2403 0.9363 0.4770
H2 H 0.1217 0.9382 0.4621
C2 C 0.0727(5) 0.7482(5) 0.4299(4)
H3 H 0.0159 0.7841 0.4267
C3 C 0.2434(4) 0.7460(4) 0.4442(3)
H4 H 0.3074 0.7811 0.4537
C4 C 0.0624(5) 0.6488(5) 0.4228(4)
H5 H -0.0007 0.6176 0.4196
C5 C 0.2338(4) 0.6439(4) 0.4334(3)
H6 H 0.2911 0.6088 0.4351
C6 C 0.1407(4) 0.5924(4) 0.4201(2)
C7 C 0.1273(4) 0.4816(4) 0.4025(3)
C8 C 0.0364(4) 0.4269(4) 0.3677(3)
H7 H -0.0213 0.4608 0.3593
C9 C 0.2073(4) 0.4278(4) 0.4166(3)
H8 H 0.2709 0.4624 0.4420
C10 C 0.0273(5) 0.3247(4) 0.3449(3)
H9 H -0.0358 0.2882 0.3204
C11 C 0.1965(5) 0.3281(5) 0.3950(3)
H10 H 0.2524 0.2933 0.4065
C12 C 0.1017(6) 0.1663(4) 0.3265(4)
H11 H 0.1574 0.1382 0.3514
H12 H 0.0382 0.1342 0.3273
C13 C 0.1056(6) 0.1452(4) 0.2574(4)
C14 C 0.0183(7) 0.1286(5) 0.2055(4)
H13 H -0.0444 0.1216 0.2139
C15 C 0.1999(6) 0.1491(5) 0.2445(4)
C16 C 0.0207(7) 0.1222(4) 0.1431(4)
H14 H -0.0399 0.1121 0.1091
C17 C 0.1984(7) 0.1405(5) 0.1782(4)
H15 H 0.2599 0.1416 0.1674
C18 C 0.1107(7) 0.1306(4) 0.1295(4)
C19 C 0.1125(8) 0.1422(5) 0.0626(4)
H16 H 0.1715 0.1144 0.0505
H17 H 0.0518 0.1055 0.0282
C20 C 0.0336(6) 0.2957(4) 0.0624(3)
H18 H -0.0290 0.2574 0.0513
C21 C 0.2074(6) 0.3033(5) 0.0843(3)
H19 H 0.2658 0.2699 0.0889
C22 C 0.0385(5) 0.3989(4) 0.0731(3)
H20 H -0.0209 0.4308 0.0684
C23 C 0.2143(5) 0.4044(5) 0.0945(3)
H21 H 0.2779 0.4403 0.1044
C24 C 0.1308(4) 0.4550(4) 0.0906(2)
C25 C 0.1382(4) 0.5663(4) 0.1074(2)
C26 C 0.0526(4) 0.6150(4) 0.0975(3)
H22 H -0.0115 0.5783 0.0774
C27 C 0.2308(5) 0.6235(4) 0.1365(3)
H23 H 0.2901 0.5914 0.1422
C28 C 0.0638(5) 0.7190(4) 0.1181(3)
H24 H 0.0060 0.7528 0.1104
C29 C 0.2366(5) 0.7257(4) 0.1567(3)
H25 H 0.2998 0.7643 0.1769
C30 C 0.1580(6) 0.8835(4) 0.1788(4)
H26 H 0.2190 0.9165 0.1753
H27 H 0.0995 0.9103 0.1556
C31 C 0.1609(5) 0.9046(3) 0.2497(3)
C32 C 0.0739(5) 0.9056(3) 0.2687(3)
H28 H 0.0112 0.9025 0.2378
C33 C 0.2535(4) 0.9143(4) 0.2955(3)
H29 H 0.3134 0.9179 0.2832
C34 C 0.0790(4) 0.9112(4) 0.3327(3)
H30 H 0.0197 0.9139 0.3461
C35 C 0.2565(4) 0.9186(3) 0.3596(3)
H31 H 0.3191 0.9255 0.3913
C36 C 0.1695(5) 0.9130(4) 0.3775(3)
N1 N 0.1632(4) 0.7952(3) 0.4413(2)
N2 N 0.1092(4) 0.2761(3) 0.3578(2)
N3 N 0.1167(5) 0.2515(4) 0.0677(3)
N4 N 0.1512(4) 0.7723(3) 0.1478(2)
N5 N 0.2970(13) 0.178(2) 0.2983(10)
N6 N 0.4428(13) 0.216(2) 0.3812(10)
N7 N 0.3688(13) 0.2164(19) 0.3428(10)
C37 C -0.0058(4) 0.4799(3) 0.2241(2)
C38 C -0.0495(4) 0.5657(4) 0.2261(3)
H32 H -0.1199 0.5644 0.2119
C39 C 0.0138(4) 0.6579(4) 0.2503(3)
H33 H -0.0159 0.7186 0.2539
C40 C 0.1138(4) 0.6616(4) 0.2680(3)
H34 H 0.1536 0.7242 0.2833
C41 C 0.1602(4) 0.5719(3) 0.2640(2)
C42 C 0.1007(4) 0.4797(3) 0.2417(2)
C43 C 0.1464(4) 0.3898(3) 0.2368(2)
H35 H 0.1069 0.3271 0.2218
C44 C 0.2486(4) 0.3950(4) 0.2540(3)
H36 H 0.2793 0.3350 0.2509
C45 C 0.3085(4) 0.4849(4) 0.2757(3)
H37 H 0.3790 0.4860 0.2868
C46 C 0.2655(4) 0.5725(4) 0.2810(2)
C47 C 0.4243(5) 0.6640(6) 0.3176(4)
H38 H 0.4432 0.6305 0.2773
H39 H 0.4471 0.6267 0.3496
C48 C 0.4728(6) 0.7679(6) 0.3454(4)
H40 H 0.5451 0.7682 0.3495
H41 H 0.4443 0.8071 0.3154
C49 C 0.5138(6) 0.7878(6) 0.4637(5)
H42 H 0.5784 0.7674 0.4570
H43 H 0.4770 0.7303 0.4684
C50 C 0.5321(5) 0.8717(7) 0.5240(4)
H44 H 0.5747 0.8529 0.5613
H45 H 0.5679 0.9298 0.5192
C51 C 0.4515(7) 0.9546(7) 0.6014(4)
H46 H 0.5048 1.0103 0.6141
H47 H 0.4723 0.9125 0.6306
C52 C 0.3620(7) 0.9934(6) 0.6096(3)
H48 H 0.3394 1.0320 0.5783
H49 H 0.3753 1.0400 0.6546
C53 C 0.1978(7) 0.9559(7) 0.6137(4)
H50 H 0.1625 0.9848 0.5792
H51 H 0.2165 1.0094 0.6563
C54 C 0.1309(7) 0.8732(8) 0.6169(4)
H52 H 0.0608 0.8868 0.6018
H53 H 0.1394 0.8102 0.5856
C55 C 0.2456(6) 0.8351(7) 0.7055(4)
H54 H 0.2957 0.8886 0.7082
H55 H 0.2581 0.7714 0.6767
C56 C 0.2528(6) 0.8267(7) 0.7731(4)
H56 H 0.3229 0.8226 0.7961
H57 H 0.2295 0.8861 0.7993
C57 C 0.2058(5) 0.7241(5) 0.8286(3)
H58 H 0.1702 0.7715 0.8549
H59 H 0.2774 0.7342 0.8530
C58 C -0.1635(4) 0.3814(4) 0.1840(3)
H60 H -0.1862 0.4018 0.1437
H61 H -0.1867 0.4271 0.2190
O1 O 0.3191(3) 0.6637(3) 0.30242(19)
O2 O 0.4585(4) 0.8134(5) 0.4087(3)
O3 O 0.4394(4) 0.8984(4) 0.5370(2)
O4 O 0.2840(4) 0.9177(4) 0.5995(2)
O5 O 0.1464(4) 0.8583(4) 0.6795(2)
O6 O 0.1929(4) 0.7402(4) 0.7656(2)
O7 O -0.0577(3) 0.3861(2) 0.20356(18)
C37A C 0.0058(4) 0.5201(3) 0.7759(2)
C38A C 0.0495(4) 0.4343(4) 0.7739(3)
H32A H 0.1199 0.4356 0.7881
C39A C -0.0138(4) 0.3421(4) 0.7497(3)
H33A H 0.0159 0.2814 0.7461
C40A C -0.1138(4) 0.3384(4) 0.7320(3)
H34A H -0.1536 0.2758 0.7167
C41A C -0.1602(4) 0.4281(3) 0.7360(2)
C42A C -0.1007(4) 0.5203(3) 0.7583(2)
C43A C -0.1464(4) 0.6102(3) 0.7632(2)
H35A H -0.1069 0.6729 0.7782
C44A C -0.2486(4) 0.6050(4) 0.7460(3)
H36A H -0.2793 0.6650 0.7491
C45A C -0.3085(4) 0.5151(4) 0.7243(3)
H37A H -0.3790 0.5140 0.7132
C46A C -0.2655(4) 0.4275(4) 0.7190(2)
C47A C -0.4243(5) 0.3360(6) 0.6824(4)
H38A H -0.4432 0.3695 0.7227
H39A H -0.4471 0.3733 0.6504
C48A C -0.4728(6) 0.2321(6) 0.6546(4)
H40A H -0.5451 0.2318 0.6505
H41A H -0.4443 0.1929 0.6846
C49A C -0.5138(6) 0.2122(6) 0.5363(5)
H42A H -0.5784 0.2326 0.5430
H43A H -0.4770 0.2697 0.5316
C50A C -0.5321(5) 0.1283(7) 0.4760(4)
H44A H -0.5747 0.1471 0.4387
H45A H -0.5679 0.0702 0.4808
C51A C -0.4515(7) 0.0454(7) 0.3986(4)
H46A H -0.5048 -0.0103 0.3859
H47A H -0.4723 0.0875 0.3694
C52A C -0.3620(7) 0.0066(6) 0.3904(3)
H48A H -0.3394 -0.0320 0.4217
H49A H -0.3753 -0.0400 0.3454
C53A C -0.1978(7) 0.0441(7) 0.3863(4)
H50A H -0.1625 0.0152 0.4208
H51A H -0.2165 -0.0094 0.3437
C54A C -0.1309(7) 0.1268(8) 0.3831(4)
H52A H -0.0608 0.1132 0.3982
H53A H -0.1394 0.1898 0.4144
C55A C -0.2456(6) 0.1649(7) 0.2945(4)
H54A H -0.2957 0.1114 0.2918
H55A H -0.2581 0.2286 0.3233
C56A C -0.2528(6) 0.1733(7) 0.2269(4)
H56A H -0.3229 0.1774 0.2039
H57A H -0.2295 0.1139 0.2007
C57A C -0.2058(5) 0.2759(5) 0.1714(3)
H58A H -0.1702 0.2285 0.1451
H59A H -0.2774 0.2658 0.1470
C58A C 0.1635(4) 0.6186(4) 0.8160(3)
H60A H 0.1862 0.5982 0.8563
H61A H 0.1867 0.5729 0.7810
O1A O -0.3191(3) 0.3363(3) 0.69758(19)
O2A O -0.4585(4) 0.1866(5) 0.5913(3)
O3A O -0.4394(4) 0.1016(4) 0.4630(2)
O4A O -0.2840(4) 0.0823(4) 0.4005(2)
O5A O -0.1464(4) 0.1417(4) 0.3205(2)
O6A O -0.1929(4) 0.2598(4) 0.2344(2)
O7A O 0.0577(3) 0.6139(2) 0.79644(18)
P1 P -0.17716(11) 0.78902(11) 0.46724(9)
F1 F -0.2666(4) 0.8159(5) 0.4148(3)
F2 F -0.0886(3) 0.7548(3) 0.5138(2)
F3 F -0.1498(3) 0.7134(3) 0.4060(2)
F4 F -0.1024(4) 0.8765(3) 0.4674(3)
F5 F -0.2068(4) 0.8613(4) 0.5269(3)
F6 F -0.2511(3) 0.7023(3) 0.4687(3)
P2 P 0.2379(2) -0.1216(3) 0.02063(13)
F7 F 0.1404(5) -0.1102(7) 0.0394(4)
F8 F 0.3341(6) -0.1278(8) -0.0008(3)
F9 F 0.1934(8) -0.0689(7) -0.0319(5)
F10 F 0.2825(7) -0.0197(7) 0.0718(5)
F11 F 0.2807(7) -0.1703(9) 0.0746(4)
F12 F 0.1952(7) -0.2222(6) -0.0282(4)
P3? P -0.2046(8) 0.8435(9) 0.1007(7)
F13? F -0.3107(11) 0.7993(16) 0.1075(11)
F14? F -0.0972(14) 0.8780(18) 0.0926(12)
F15? F -0.2638(13) 0.8536(17) 0.0286(9)
F16? F -0.2196(12) 0.9549(14) 0.1368(11)
F17? F -0.1470(12) 0.8076(17) 0.1634(10)
F18? F -0.1911(14) 0.7263(14) 0.0578(11)
P4? P -0.1697(8) 0.8097(10) 0.0647(7)
F19? F -0.2372(12) 0.7561(15) 0.0500(12)
F20? F -0.1058(15) 0.8645(16) 0.0782(13)
F21? F -0.2185(14) 0.8433(18) 0.0301(11)
F22? F -0.1989(18) 0.8624(18) 0.1027(12)
F23? F -0.1315(13) 0.7756(18) 0.1021(10)
F24? F -0.1466(13) 0.7583(17) 0.0253(10)
P5? P 0.4896(8) 0.9203(9) 0.1850(5)
F25? F 0.3780(10) 0.9386(14) 0.1613(7)
F26? F 0.6010(10) 0.8955(14) 0.2073(7)
F27? F 0.5181(13) 0.9683(14) 0.1367(6)
F28? F 0.5143(11) 1.0187(12) 0.2418(6)
F29? F 0.4615(11) 0.8738(14) 0.2336(7)
F30? F 0.4665(12) 0.8186(11) 0.1303(6)
P6? P 0.4899(8) 0.9126(9) 0.1823(5)
F31? F 0.3851(10) 0.8866(14) 0.1335(7)
F32? F 0.5952(11) 0.9337(14) 0.2291(7)
F33? F 0.5167(13) 0.9934(13) 0.1558(7)
F34? F 0.4442(10) 0.9746(12) 0.2322(6)
F35? F 0.4675(11) 0.8236(13) 0.2044(7)
F36? F 0.5250(11) 0.8381(12) 0.1285(6)
P7? P 0.5215(4) 0.4380(5) 0.1605(3)
F37? F 0.4554(9) 0.5262(10) 0.1523(7)
F38? F 0.5851(8) 0.3527(10) 0.1766(10)
F39? F 0.6124(9) 0.4856(13) 0.1480(8)
F40? F 0.5558(11) 0.4982(12) 0.2367(5)
F41? F 0.4325(7) 0.3833(11) 0.1761(5)
F42? F 0.4667(14) 0.3786(16) 0.0878(7)
P8? P 0.5045(10) 0.3684(14) 0.0877(7)
F43? F 0.4535(17) 0.435(2) 0.0865(11)
F44? F 0.5525(18) 0.3017(19) 0.0920(11)
F45? F 0.5794(15) 0.424(2) 0.1068(13)
F46? F 0.5118(12) 0.3823(19) 0.1439(9)
F47? F 0.4280(15) 0.315(2) 0.0730(11)
F48? F 0.500(2) 0.355(2) 0.0322(10)
loop_
_geom_bond_atom_site_label_1
_geom_bond_atom_site_label_2
_geom_bond_site_symmetry_1
_geom_bond_site_symmetry_2
C1 H1 1_555 1_555
H2 C1 1_555 1_555
C2 H3 1_555 1_555
C3 H4 1_555 1_555
C4 C2 1_555 1_555
H5 C4 1_555 1_555
C5 C3 1_555 1_555
H6 C5 1_555 1_555
C6 C4 1_555 1_555
C7 C6 1_555 1_555
C8 C7 1_555 1_555
H7 C8 1_555 1_555
C9 C7 1_555 1_555
H8 C9 1_555 1_555
C10 C8 1_555 1_555
H9 C10 1_555 1_555
C11 C9 1_555 1_555
H10 C11 1_555 1_555
C12 H11 1_555 1_555
H12 C12 1_555 1_555
C13 C12 1_555 1_555
C14 C13 1_555 1_555
H13 C14 1_555 1_555
C15 C13 1_555 1_555
C16 C14 1_555 1_555
H14 C16 1_555 1_555
C17 C15 1_555 1_555
H15 C17 1_555 1_555
C18 C16 1_555 1_555
C19 C18 1_555 1_555
H16 C19 1_555 1_555
H17 C19 1_555 1_555
C20 H18 1_555 1_555
C21 H19 1_555 1_555
C22 C20 1_555 1_555
H20 C22 1_555 1_555
C23 C21 1_555 1_555
H21 C23 1_555 1_555
C24 C22 1_555 1_555
C25 C24 1_555 1_555
C26 C25 1_555 1_555
H22 C26 1_555 1_555
C27 C25 1_555 1_555
H23 C27 1_555 1_555
C28 C26 1_555 1_555
H24 C28 1_555 1_555
C29 C27 1_555 1_555
H25 C29 1_555 1_555
C30 H26 1_555 1_555
H27 C30 1_555 1_555
C31 C30 1_555 1_555
C32 C31 1_555 1_555
H28 C32 1_555 1_555
C33 C31 1_555 1_555
H29 C33 1_555 1_555
C34 C32 1_555 1_555
H30 C34 1_555 1_555
C35 C33 1_555 1_555
H31 C35 1_555 1_555
C36 C1 1_555 1_555
N1 C1 1_555 1_555
N2 C10 1_555 1_555
N3 C19 1_555 1_555
N4 C28 1_555 1_555
N5 C15 1_555 1_555
N6 N7 1_555 1_555
N7 N5 1_555 1_555
C37 C38 1_555 1_555
C38 H32 1_555 1_555
C39 C38 1_555 1_555
H33 C39 1_555 1_555
C40 C39 1_555 1_555
H34 C40 1_555 1_555
C41 C40 1_555 1_555
C42 C37 1_555 1_555
C43 C42 1_555 1_555
H35 C43 1_555 1_555
C44 C43 1_555 1_555
H36 C44 1_555 1_555
C45 C44 1_555 1_555
H37 C45 1_555 1_555
C46 C41 1_555 1_555
C47 H38 1_555 1_555
H39 C47 1_555 1_555
C48 C47 1_555 1_555
H40 C48 1_555 1_555
H41 C48 1_555 1_555
C49 H42 1_555 1_555
H43 C49 1_555 1_555
C50 C49 1_555 1_555
H44 C50 1_555 1_555
H45 C50 1_555 1_555
C51 H46 1_555 1_555
H47 C51 1_555 1_555
C52 C51 1_555 1_555
H48 C52 1_555 1_555
H49 C52 1_555 1_555
C53 H50 1_555 1_555
H51 C53 1_555 1_555
C54 C53 1_555 1_555
H52 C54 1_555 1_555
H53 C54 1_555 1_555
C55 H54 1_555 1_555
H55 C55 1_555 1_555
C56 C55 1_555 1_555
H56 C56 1_555 1_555
H57 C56 1_555 1_555
C57 H58 1_555 1_555
H59 C57 1_555 1_555
C58 H60 1_555 1_555
H61 C58 1_555 1_555
O1 C46 1_555 1_555
O2 C48 1_555 1_555
O3 C50 1_555 1_555
O4 C52 1_555 1_555
O5 C54 1_555 1_555
O6 C56 1_555 1_555
O7 C37 1_555 1_555
P1 F1 1_555 1_555
F2 P1 1_555 1_555
F3 P1 1_555 1_555
F4 P1 1_555 1_555
F5 P1 1_555 1_555
F6 P1 1_555 1_555
P2 F7 1_555 1_555
F8 P2 1_555 1_555
F9 P2 1_555 1_555
F10 P2 1_555 1_555
F11 P2 1_555 1_555
F12 P2 1_555 1_555
C37A C38A 1_555 1_555
C38A H32A 1_555 1_555
C39A C38A 1_555 1_555
H33A C39A 1_555 1_555
C40A C39A 1_555 1_555
H34A C40A 1_555 1_555
C41A C40A 1_555 1_555
C42A C37A 1_555 1_555
C43A C42A 1_555 1_555
H35A C43A 1_555 1_555
C44A C43A 1_555 1_555
H36A C44A 1_555 1_555
C45A C44A 1_555 1_555
H37A C45A 1_555 1_555
C46A C41A 1_555 1_555
C47A H38A 1_555 1_555
H39A C47A 1_555 1_555
C48A C47A 1_555 1_555
H40A C48A 1_555 1_555
H41A C48A 1_555 1_555
C49A H42A 1_555 1_555
H43A C49A 1_555 1_555
C50A C49A 1_555 1_555
H44A C50A 1_555 1_555
H45A C50A 1_555 1_555
C51A H46A 1_555 1_555
H47A C51A 1_555 1_555
C52A C51A 1_555 1_555
H48A C52A 1_555 1_555
H49A C52A 1_555 1_555
C53A H50A 1_555 1_555
H51A C53A 1_555 1_555
C54A C53A 1_555 1_555
H52A C54A 1_555 1_555
H53A C54A 1_555 1_555
C55A H54A 1_555 1_555
H55A C55A 1_555 1_555
C56A C55A 1_555 1_555
H56A C56A 1_555 1_555
H57A C56A 1_555 1_555
C57A C58 1_555 1_555
H58A C57A 1_555 1_555
H59A C57A 1_555 1_555
C58A C57 1_555 1_555
H60A C58A 1_555 1_555
H61A C58A 1_555 1_555
O1A C46A 1_555 1_555
O2A C48A 1_555 1_555
O3A C50A 1_555 1_555
O4A C52A 1_555 1_555
O5A C54A 1_555 1_555
O6A C56A 1_555 1_555
O7A C37A 1_555 1_555
C2 N1 1_555 1_555
C3 N1 1_555 1_555
C5 C6 1_555 1_555
C11 N2 1_555 1_555
C12 N2 1_555 1_555
C17 C18 1_555 1_555
C20 N3 1_555 1_555
C21 N3 1_555 1_555
C23 C24 1_555 1_555
C29 N4 1_555 1_555
C30 N4 1_555 1_555
C34 C36 1_555 1_555
C35 C36 1_555 1_555
C41 C42 1_555 1_555
C45 C46 1_555 1_555
C47 O1 1_555 1_555
C49 O2 1_555 1_555
C51 O3 1_555 1_555
C53 O4 1_555 1_555
C55 O5 1_555 1_555
C57 O6 1_555 1_555
C58 O7 1_555 1_555
C41A C42A 1_555 1_555
C45A C46A 1_555 1_555
C47A O1A 1_555 1_555
C49A O2A 1_555 1_555
C51A O3A 1_555 1_555
C53A O4A 1_555 1_555
C55A O5A 1_555 1_555
C57A O6A 1_555 1_555
C58A O7A 1_555 1_555

#END
