
#######################################################################
#
#                 Cambridge Crystallographic Data Centre
#                                CCDC 
#
#######################################################################
#
# If this CIF has been generated from an entry in the Cambridge 
# Structural Database, then it will include bibliographic, chemical, 
# crystal, experimental, refinement or atomic coordinate data resulting 
# from the CCDC's data processing and validation procedures.
#
#######################################################################

data_ROFBOF
_chemical_formula_moiety         'C21 H10 Cl1 N3 O4,C2 H6 O1 S1'
_chemical_name_systematic        
"2-amino-5'-chloro-2',5,10-trioxo-1',2',5,10-tetrahydrospiro[benzo[g]chromene-4,3'-indole]-3-carbonitrile dimethyl sulfoxide solvate"
_symmetry_cell_setting           monoclinic
_symmetry_space_group_name_H-M   'P 21'
_symmetry_Int_Tables_number      4
_space_group_name_Hall           'P 2yb'
loop_
_symmetry_equiv_pos_site_id
_symmetry_equiv_pos_as_xyz
1 x,y,z
2 -x,1/2+y,-z
_cell_length_a                   8.1589(19)
_cell_length_b                   11.464(3)
_cell_length_c                   11.608(2)
_cell_angle_alpha                90
_cell_angle_beta                 95.615(7)
_cell_angle_gamma                90
_cell_volume                     1080.53
_exptl_crystal_colour            yellow
_exptl_crystal_description       block
_cell_formula_units_Z            2
loop_
_atom_site_label
_atom_site_type_symbol
_atom_site_fract_x
_atom_site_fract_y
_atom_site_fract_z
Cl1 Cl -0.16062(15) 0.20307(11) 0.15451(10)
O1 O 0.2352(3) 0.4139(3) 0.6586(2)
O2 O 0.2407(3) 0.7261(3) 0.4532(2)
O3 O 0.0273(4) 0.4096(3) 0.8150(3)
O4 O -0.1425(3) 0.6466(3) 0.4255(2)
N1 N 0.1775(4) 0.6435(3) 0.2728(3)
H1 H 0.214(5) 0.700(3) 0.235(3)
N2 N 0.5309(5) 0.4463(4) 0.3267(4)
N3 N 0.4812(4) 0.3541(3) 0.6175(3)
H2 H 0.482(5) 0.332(4) 0.6883(14)
H3 H 0.554(5) 0.339(4) 0.563(4)
C1 C 0.1497(5) 0.5213(4) 0.4314(3)
C2 C 0.3118(5) 0.4591(4) 0.4702(3)
C3 C 0.3452(5) 0.4108(4) 0.5760(3)
C4 C 0.0876(5) 0.4709(4) 0.6313(3)
C5 C -0.0166(5) 0.4651(4) 0.7277(3)
C6 C -0.1736(5) 0.5298(4) 0.7126(3)
C7 C -0.2194(5) 0.5885(4) 0.6088(3)
C8 C -0.1107(5) 0.5898(4) 0.5145(3)
C9 C 0.0442(4) 0.5227(3) 0.5302(3)
C10 C -0.2772(5) 0.5318(4) 0.8010(3)
H4 H -0.2466 0.4937 0.8706
C11 C -0.4263(5) 0.5906(4) 0.7850(4)
H5 H -0.4960 0.5917 0.8437
C12 C -0.4715(5) 0.6477(4) 0.6820(4)
H6 H -0.5720 0.6864 0.6718
C13 C -0.3696(5) 0.6481(4) 0.5946(4)
H7 H -0.4004 0.6880 0.5261
C14 C 0.0723(5) 0.4670(4) 0.3192(3)
C15 C -0.0081(5) 0.3637(4) 0.2995(4)
H8 H -0.0313 0.3153 0.3601
C16 C -0.0538(5) 0.3337(4) 0.1848(4)
C17 C -0.0181(5) 0.4028(5) 0.0938(4)
H9 H -0.0478 0.3785 0.0182
C18 C 0.0625(6) 0.5090(5) 0.1145(4)
H10 H 0.0875 0.5568 0.0538
C19 C 0.1038(5) 0.5406(4) 0.2282(3)
C20 C 0.1934(5) 0.6462(4) 0.3911(4)
C21 C 0.4330(6) 0.4527(4) 0.3924(4)
S1 S 0.49234(13) 0.21806(12) 0.93304(9)
O5 O 0.5927(3) 0.2766(3) 0.8479(2)
C22 C 0.4093(8) 0.3346(6) 1.0107(5)
H11 H 0.4973 0.3763 1.0536
H12 H 0.3365 0.3036 1.0632
H13 H 0.3494 0.3867 0.9572
C23 C 0.3097(6) 0.1705(6) 0.8540(5)
H14 H 0.2586 0.2349 0.8115
H15 H 0.2359 0.1405 0.9063
H16 H 0.3349 0.1103 0.8011
loop_
_geom_bond_atom_site_label_1
_geom_bond_atom_site_label_2
_geom_bond_site_symmetry_1
_geom_bond_site_symmetry_2
Cl1 C16 1_555 1_555
O1 C3 1_555 1_555
O2 C20 1_555 1_555
O3 C5 1_555 1_555
O4 C8 1_555 1_555
N1 H1 1_555 1_555
N2 C21 1_555 1_555
N3 H2 1_555 1_555
H3 N3 1_555 1_555
C1 C2 1_555 1_555
C2 C3 1_555 1_555
C3 N3 1_555 1_555
C4 O1 1_555 1_555
C5 C4 1_555 1_555
C6 C5 1_555 1_555
C7 C6 1_555 1_555
C8 C7 1_555 1_555
C9 C1 1_555 1_555
C10 C6 1_555 1_555
H4 C10 1_555 1_555
C11 C10 1_555 1_555
H5 C11 1_555 1_555
C12 C11 1_555 1_555
H6 C12 1_555 1_555
C13 C7 1_555 1_555
H7 C13 1_555 1_555
C14 C1 1_555 1_555
C15 C14 1_555 1_555
H8 C15 1_555 1_555
C16 C15 1_555 1_555
C17 C16 1_555 1_555
H9 C17 1_555 1_555
C18 C17 1_555 1_555
H10 C18 1_555 1_555
C19 N1 1_555 1_555
C20 N1 1_555 1_555
C21 C2 1_555 1_555
S1 O5 1_555 1_555
C22 S1 1_555 1_555
H11 C22 1_555 1_555
H12 C22 1_555 1_555
H13 C22 1_555 1_555
C23 S1 1_555 1_555
H14 C23 1_555 1_555
H15 C23 1_555 1_555
H16 C23 1_555 1_555
C1 C20 1_555 1_555
C4 C9 1_555 1_555
C8 C9 1_555 1_555
C12 C13 1_555 1_555
C14 C19 1_555 1_555
C18 C19 1_555 1_555

#END
