
#######################################################################
#
#                 Cambridge Crystallographic Data Centre
#                                CCDC 
#
#######################################################################
#
# If this CIF has been generated from an entry in the Cambridge 
# Structural Database, then it will include bibliographic, chemical, 
# crystal, experimental, refinement or atomic coordinate data resulting 
# from the CCDC's data processing and validation procedures.
#
#######################################################################

data_ROFCUL
_chemical_formula_moiety         'C8 H6 Br1 N3 S1'
_chemical_name_systematic        5-(2-Bromophenyl)-1,3,4-thiadiazol-2-amine
_symmetry_cell_setting           monoclinic
_symmetry_space_group_name_H-M   'P 21/c'
_symmetry_Int_Tables_number      14
_space_group_name_Hall           '-P 2ybc'
loop_
_symmetry_equiv_pos_site_id
_symmetry_equiv_pos_as_xyz
1 x,y,z
2 -x,1/2+y,1/2-z
3 -x,-y,-z
4 x,1/2-y,1/2+z
_cell_length_a                   14.869(3)
_cell_length_b                   8.0250(16)
_cell_length_c                   7.9480(16)
_cell_angle_alpha                90
_cell_angle_beta                 97.43(3)
_cell_angle_gamma                90
_cell_volume                     940.422
_exptl_crystal_colour            colorless
_exptl_crystal_description       block
_chemical_melting_point          '486-487 K'
_cell_formula_units_Z            4
_exptl_crystal_recrystallization_method acetone
loop_
_atom_site_label
_atom_site_type_symbol
_atom_site_fract_x
_atom_site_fract_y
_atom_site_fract_z
Br1 Br 0.88329(5) 1.09232(10) 1.09121(14)
S1 S 0.65602(11) 1.1146(2) 1.0932(2)
N1 N 0.6259(3) 0.9573(7) 0.8134(6)
N2 N 0.5587(3) 1.0773(6) 0.8048(6)
N3 N 0.5081(3) 1.2909(6) 0.9666(6)
H1 H 0.4635 1.3143 0.8901
H2 H 0.5158 1.3467 1.0597
C1 C 0.7308(5) 0.6693(8) 0.9656(9)
H3 H 0.6722 0.6431 0.9176
C2 C 0.7921(5) 0.5423(8) 1.0064(10)
H4 H 0.7750 0.4319 0.9866
C3 C 0.8787(5) 0.5816(10) 1.0769(10)
H5 H 0.9204 0.4968 1.1067
C4 C 0.9041(4) 0.7438(10) 1.1036(9)
H6 H 0.9630 0.7698 1.1506
C5 C 0.8416(4) 0.8692(8) 1.0602(9)
C6 C 0.7542(4) 0.8348(7) 0.9941(8)
C7 C 0.6811(4) 0.9618(8) 0.9507(7)
C8 C 0.5647(4) 1.1688(7) 0.9412(7)
loop_
_geom_bond_atom_site_label_1
_geom_bond_atom_site_label_2
_geom_bond_site_symmetry_1
_geom_bond_site_symmetry_2
Br1 C5 1_555 1_555
S1 C7 1_555 1_555
N1 N2 1_555 1_555
N2 C8 1_555 1_555
N3 H1 1_555 1_555
H2 N3 1_555 1_555
C1 H3 1_555 1_555
C2 C1 1_555 1_555
H4 C2 1_555 1_555
C3 C2 1_555 1_555
H5 C3 1_555 1_555
C4 C3 1_555 1_555
H6 C4 1_555 1_555
C5 C4 1_555 1_555
C6 C1 1_555 1_555
C7 N1 1_555 1_555
C8 S1 1_555 1_555
N3 C8 1_555 1_555
C5 C6 1_555 1_555
C6 C7 1_555 1_555

#END
