
#######################################################################
#
#                 Cambridge Crystallographic Data Centre
#                                CCDC 
#
#######################################################################
#
# If this CIF has been generated from an entry in the Cambridge 
# Structural Database, then it will include bibliographic, chemical, 
# crystal, experimental, refinement or atomic coordinate data resulting 
# from the CCDC's data processing and validation procedures.
#
#######################################################################

data_ROFDUM
_chemical_formula_moiety         'C25 H16 Cl2 N4'
_chemical_name_systematic        
4-(2,4-Dichlorophenyl)-6-(1H-indol-3-yl)-1,4-dihydro-2,2'-bipyridine-5-carbonitrile
_symmetry_cell_setting           triclinic
_symmetry_space_group_name_H-M   'P -1'
_symmetry_Int_Tables_number      2
_space_group_name_Hall           '-P 1'
loop_
_symmetry_equiv_pos_site_id
_symmetry_equiv_pos_as_xyz
1 x,y,z
2 -x,-y,-z
_cell_length_a                   8.0158(9)
_cell_length_b                   10.0261(12)
_cell_length_c                   14.3653(17)
_cell_angle_alpha                72.260(6)
_cell_angle_beta                 79.420(6)
_cell_angle_gamma                78.224(6)
_cell_volume                     1067.29
_exptl_crystal_colour            yellow
_exptl_crystal_description       block
_cell_formula_units_Z            2
_exptl_crystal_recrystallization_method ethanol
loop_
_atom_site_label
_atom_site_type_symbol
_atom_site_fract_x
_atom_site_fract_y
_atom_site_fract_z
Cl1 Cl 0.65524(10) 0.88516(11) 0.55182(6)
Cl2 Cl 1.32340(10) 0.67807(10) 0.50447(5)
N1 N 0.7936(2) 0.98325(19) 0.91511(14)
H1 H 0.821(3) 0.993(3) 0.966(2)
C1 C 0.7078(3) 0.8757(2) 0.92099(15)
C2 C 0.6640(3) 0.8668(2) 0.83578(15)
C3 C 0.7222(3) 0.9620(2) 0.73464(15)
H2 H 0.6248 0.9910 0.6966
C4 C 0.7668(3) 1.0937(2) 0.74732(16)
H3 H 0.7692 1.1738 0.6936
C5 C 0.8027(3) 1.0996(2) 0.83236(15)
C6 C 0.6707(3) 0.7807(2) 1.01918(15)
C7 C 0.6776(3) 0.8008(2) 1.11452(15)
C8 C 0.7107(3) 0.9087(2) 1.14899(17)
H4 H 0.7337 0.9946 1.1049
C9 C 0.7087(3) 0.8860(3) 1.24827(18)
H5 H 0.7316 0.9572 1.2709
C10 C 0.6732(3) 0.7589(3) 1.31624(18)
H6 H 0.6743 0.7465 1.3830
C11 C 0.6369(3) 0.6519(3) 1.28621(17)
H7 H 0.6108 0.5677 1.3314
C12 C 0.6405(3) 0.6741(2) 1.18565(16)
N2 N 0.6121(3) 0.5841(2) 1.13699(14)
H8 H 0.586(3) 0.503(3) 1.1635(19)
C13 C 0.6302(3) 0.6468(2) 1.03934(16)
H9 H 0.6172 0.6054 0.9919
C14 C 0.5542(3) 0.7736(2) 0.83477(16)
N3 N 0.4654(3) 0.7028(2) 0.82628(17)
C15 C 0.8703(3) 0.8858(2) 0.67753(15)
C16 C 0.8534(3) 0.8496(3) 0.59441(17)
C17 C 0.9908(3) 0.7851(3) 0.54127(18)
H10 H 0.9761 0.7629 0.4853
C18 C 1.1491(3) 0.7547(3) 0.57292(17)
C19 C 1.1726(3) 0.7853(3) 0.65559(18)
H11 H 1.2802 0.7628 0.6770
C20 C 1.0333(3) 0.8503(3) 0.70659(17)
H12 H 1.0492 0.8713 0.7628
C21 C 0.8451(3) 1.2263(2) 0.85058(16)
C22 C 0.8700(4) 1.3490(2) 0.77569(19)
H13 H 0.8621 1.3543 0.7108
C23 C 0.9063(4) 1.4627(3) 0.7986(2)
H14 H 0.9234 1.5458 0.7495
C24 C 0.9171(3) 1.4520(3) 0.8944(2)
H15 H 0.9407 1.5276 0.9119
C25 C 0.8923(3) 1.3271(3) 0.9640(2)
H16 H 0.9000 1.3201 1.0292
N4 N 0.8574(3) 1.2145(2) 0.94397(14)
loop_
_geom_bond_atom_site_label_1
_geom_bond_atom_site_label_2
_geom_bond_site_symmetry_1
_geom_bond_site_symmetry_2
Cl1 C16 1_555 1_555
Cl2 C18 1_555 1_555
N1 H1 1_555 1_555
C1 N1 1_555 1_555
C2 C1 1_555 1_555
C3 C2 1_555 1_555
H2 C3 1_555 1_555
C4 C3 1_555 1_555
H3 C4 1_555 1_555
C5 N1 1_555 1_555
C6 C1 1_555 1_555
C7 C6 1_555 1_555
C8 C7 1_555 1_555
H4 C8 1_555 1_555
C9 C8 1_555 1_555
H5 C9 1_555 1_555
C10 C9 1_555 1_555
H6 C10 1_555 1_555
C11 C10 1_555 1_555
H7 C11 1_555 1_555
C12 C7 1_555 1_555
N2 C12 1_555 1_555
H8 N2 1_555 1_555
C13 C6 1_555 1_555
H9 C13 1_555 1_555
C14 C2 1_555 1_555
N3 C14 1_555 1_555
C15 C3 1_555 1_555
C16 C15 1_555 1_555
C17 C16 1_555 1_555
H10 C17 1_555 1_555
C18 C17 1_555 1_555
C19 C18 1_555 1_555
H11 C19 1_555 1_555
C20 C15 1_555 1_555
H12 C20 1_555 1_555
C21 C5 1_555 1_555
C22 C21 1_555 1_555
H13 C22 1_555 1_555
C23 C22 1_555 1_555
H14 C23 1_555 1_555
C24 C23 1_555 1_555
H15 C24 1_555 1_555
C25 C24 1_555 1_555
H16 C25 1_555 1_555
N4 C21 1_555 1_555
C4 C5 1_555 1_555
C11 C12 1_555 1_555
N2 C13 1_555 1_555
C19 C20 1_555 1_555
C25 N4 1_555 1_555

#END
