
#######################################################################
#
#                 Cambridge Crystallographic Data Centre
#                                CCDC 
#
#######################################################################
#
# If this CIF has been generated from an entry in the Cambridge 
# Structural Database, then it will include bibliographic, chemical, 
# crystal, experimental, refinement or atomic coordinate data resulting 
# from the CCDC's data processing and validation procedures.
#
#######################################################################

data_ROFDIA
_chemical_formula_moiety         'C21 H18 N2 O2'
_chemical_name_systematic        
3-(4-Methylphenyl)-1-((E)-1-(4-methylphenyl)-3-oxo-1-propen-1-yl)-1H-pyrazole-4-carbaldehyde
_symmetry_cell_setting           monoclinic
_symmetry_space_group_name_H-M   'P 21/n'
_symmetry_Int_Tables_number      14
_space_group_name_Hall           '-P 2yn'
loop_
_symmetry_equiv_pos_site_id
_symmetry_equiv_pos_as_xyz
1 x,y,z
2 1/2-x,1/2+y,1/2-z
3 -x,-y,-z
4 1/2+x,1/2-y,1/2+z
_cell_length_a                   10.2914(4)
_cell_length_b                   15.3618(5)
_cell_length_c                   11.0271(4)
_cell_angle_alpha                90
_cell_angle_beta                 98.7780(10)
_cell_angle_gamma                90
_cell_volume                     1722.9
_exptl_crystal_colour            colorless
_exptl_crystal_description       Block
_cell_formula_units_Z            4
_exptl_crystal_recrystallization_method dichloromethane
loop_
_atom_site_label
_atom_site_type_symbol
_atom_site_fract_x
_atom_site_fract_y
_atom_site_fract_z
O1 O 0.65358(11) 0.31462(7) 0.28639(13)
O2 O 1.23915(18) -0.09914(9) 0.0928(2)
N1 N 0.93785(9) 0.08384(7) 0.22048(10)
N2 N 1.03155(10) 0.13820(7) 0.18711(10)
C1 C 1.12006(11) 0.08674(8) 0.14811(11)
C2 C 1.08139(12) -0.00258(8) 0.15437(12)
C3 C 0.96509(12) -0.00004(8) 0.20099(12)
H1 H 0.9144 -0.0478 0.2163
C4 C 0.82656(11) 0.11747(8) 0.26494(11)
C5 C 0.75369(11) 0.05214(8) 0.32683(12)
C6 C 0.80708(14) 0.01954(10) 0.44021(14)
H2 H 0.8884 0.0396 0.4784
C7 C 0.74082(17) -0.04269(11) 0.49748(15)
H3 H 0.7777 -0.0632 0.5744
C8 C 0.62160(17) -0.07477(10) 0.44295(16)
C9 C 0.56858(16) -0.04197(12) 0.33110(18)
H4 H 0.4876 -0.0627 0.2931
C10 C 0.63277(14) 0.02175(11) 0.27265(14)
H5 H 0.5940 0.0437 0.1971
C11 C 0.5526(2) -0.14496(13) 0.5044(2)
H6 H 0.4601 -0.1432 0.4741
H7 H 0.5667 -0.1356 0.5915
H8 H 0.5872 -0.2008 0.4867
C12 C 0.79599(12) 0.20179(9) 0.25103(13)
H9 H 0.8454 0.2369 0.2066
C13 C 0.68876(13) 0.24017(10) 0.30271(14)
H10 H 0.6441 0.2053 0.3516
C14 C 1.23610(11) 0.12790(9) 0.10905(12)
C15 C 1.26700(13) 0.21329(10) 0.14214(14)
H11 H 1.2159 0.2431 0.1911
C16 C 1.37242(14) 0.25480(10) 0.10352(15)
H12 H 1.3910 0.3122 0.1268
C17 C 1.45103(12) 0.21259(10) 0.03075(13)
C18 C 1.42132(13) 0.12763(10) -0.00071(14)
H13 H 1.4736 0.0978 -0.0486
C19 C 1.31552(13) 0.08512(10) 0.03692(13)
H14 H 1.2976 0.0276 0.0137
C20 C 1.56456(14) 0.25876(12) -0.01291(16)
H15 H 1.6425 0.2240 0.0057
H16 H 1.5783 0.3140 0.0277
H17 H 1.5451 0.2677 -0.1000
C21 C 1.13601(18) -0.08585(10) 0.12661(19)
H18 H 1.0849 -0.1346 0.1362
loop_
_geom_bond_atom_site_label_1
_geom_bond_atom_site_label_2
_geom_bond_site_symmetry_1
_geom_bond_site_symmetry_2
O1 C13 1_555 1_555
O2 C21 1_555 1_555
N1 N2 1_555 1_555
N2 C1 1_555 1_555
C1 C2 1_555 1_555
C2 C3 1_555 1_555
C3 N1 1_555 1_555
H1 C3 1_555 1_555
C4 N1 1_555 1_555
C5 C4 1_555 1_555
C6 C5 1_555 1_555
H2 C6 1_555 1_555
C7 C6 1_555 1_555
H3 C7 1_555 1_555
C8 C7 1_555 1_555
C9 C8 1_555 1_555
H4 C9 1_555 1_555
C10 C5 1_555 1_555
H5 C10 1_555 1_555
C11 C8 1_555 1_555
H6 C11 1_555 1_555
H7 C11 1_555 1_555
H8 C11 1_555 1_555
C12 C4 1_555 1_555
H9 C12 1_555 1_555
C13 C12 1_555 1_555
H10 C13 1_555 1_555
C14 C1 1_555 1_555
C15 C14 1_555 1_555
H11 C15 1_555 1_555
C16 C15 1_555 1_555
H12 C16 1_555 1_555
C17 C16 1_555 1_555
C18 C17 1_555 1_555
H13 C18 1_555 1_555
C19 C14 1_555 1_555
H14 C19 1_555 1_555
C20 C17 1_555 1_555
H15 C20 1_555 1_555
H16 C20 1_555 1_555
H17 C20 1_555 1_555
C21 C2 1_555 1_555
H18 C21 1_555 1_555
C9 C10 1_555 1_555
C18 C19 1_555 1_555

#END
