
#######################################################################
#
#                 Cambridge Crystallographic Data Centre
#                                CCDC 
#
#######################################################################
#
# If this CIF has been generated from an entry in the Cambridge 
# Structural Database, then it will include bibliographic, chemical, 
# crystal, experimental, refinement or atomic coordinate data resulting 
# from the CCDC's data processing and validation procedures.
#
#######################################################################

data_ROFDUN
_chemical_formula_moiety         'C30 H23 N3 O4,C2 H6 O1 S1'
_chemical_name_systematic        
"1'-allyl-14-amino-1,2,3,4-tetrahydrospiro[benzo[6,7]chromeno[2,3-b]quinoline-13,3'-indole]-2',7,12(1'H)-trione dimethyl sulfoxide solvate"
_symmetry_cell_setting           triclinic
_symmetry_space_group_name_H-M   'P 1'
_symmetry_Int_Tables_number      1
_space_group_name_Hall           'P 1'
loop_
_symmetry_equiv_pos_site_id
_symmetry_equiv_pos_as_xyz
1 x,y,z
_cell_length_a                   10.5241(5)
_cell_length_b                   11.8785(7)
_cell_length_c                   12.5034(7)
_cell_angle_alpha                85.082(4)
_cell_angle_beta                 88.112(4)
_cell_angle_gamma                64.559(5)
_cell_volume                     1406.27
_exptl_crystal_colour            red
_exptl_crystal_description       block
_cell_formula_units_Z            2
loop_
_atom_site_label
_atom_site_type_symbol
_atom_site_fract_x
_atom_site_fract_y
_atom_site_fract_z
O1 O 1.0292(3) 0.4736(3) 0.3173(3)
O2 O 0.8798(4) 0.8608(3) 0.1887(3)
O3 O 1.0395(4) 0.8379(3) 0.4353(4)
O4 O 1.2956(4) 0.3564(4) 0.3582(4)
N1 N 0.7623(4) 0.9597(3) 0.3359(3)
N2 N 0.8548(4) 0.4594(3) 0.2317(3)
N3 N 0.5700(4) 0.8221(4) 0.2807(4)
H1 H 0.594(6) 0.855(5) 0.330(3)
H2 H 0.4817(18) 0.841(5) 0.275(5)
C1 C 0.8623(4) 0.7375(4) 0.3536(3)
C2 C 0.7865(4) 0.7937(4) 0.4551(4)
C3 C 0.7684(5) 0.7373(4) 0.5520(4)
H3 H 0.7996 0.6501 0.5611
C4 C 0.7040(6) 0.8107(5) 0.6354(4)
H4 H 0.6926 0.7730 0.7020
C5 C 0.6557(6) 0.9401(6) 0.6216(5)
H5 H 0.6139 0.9886 0.6795
C6 C 0.6687(6) 0.9990(5) 0.5227(4)
H6 H 0.6335 1.0865 0.5124
C7 C 0.7349(5) 0.9239(4) 0.4412(4)
C8 C 0.8374(5) 0.8586(4) 0.2799(4)
C9 C 1.0197(5) 0.6648(4) 0.3729(3)
C10 C 1.0987(5) 0.7295(4) 0.4142(4)
C11 C 1.2550(5) 0.6573(5) 0.4304(4)
C12 C 1.3305(6) 0.7178(6) 0.4682(5)
H7 H 1.2840 0.8015 0.4850
C13 C 1.4746(6) 0.6529(7) 0.4805(5)
H8 H 1.5262 0.6933 0.5055
C14 C 1.5436(6) 0.5307(7) 0.4570(5)
H9 H 1.6419 0.4885 0.4647
C15 C 1.4689(6) 0.4692(6) 0.4219(4)
H10 H 1.5160 0.3849 0.4066
C16 C 1.3237(5) 0.5329(5) 0.4094(4)
C17 C 1.2422(5) 0.4669(5) 0.3736(4)
C18 C 1.0881(5) 0.5424(4) 0.3546(4)
C19 C 0.8055(5) 0.6579(4) 0.3011(3)
C20 C 0.6640(4) 0.7045(4) 0.2647(4)
C21 C 0.6240(4) 0.6262(4) 0.2085(4)
C22 C 0.4748(5) 0.6757(5) 0.1668(5)
H11 H 0.4396 0.7653 0.1455
H12 H 0.4142 0.6649 0.2241
C23 C 0.4678(11) 0.6051(10) 0.0676(10)
H13 H 0.3703 0.6333 0.0440
H14 H 0.5226 0.6195 0.0074
C24 C 0.531(4) 0.4676(16) 0.1085(19)
H15 H 0.5150 0.4186 0.0555
H16 H 0.4846 0.4571 0.1754
C25 C 0.6907(6) 0.4193(5) 0.1285(5)
H17 H 0.7264 0.3363 0.1675
H18 H 0.7393 0.4107 0.0594
C26 C 0.7232(5) 0.5070(4) 0.1928(4)
C27 C 0.8892(4) 0.5340(4) 0.2829(4)
C28 C 0.7213(6) 1.0882(4) 0.2912(5)
H19 H 0.7859 1.0888 0.2331
H20 H 0.7295 1.1377 0.3471
C29 C 0.5765(7) 1.1463(5) 0.2494(6)
H21 H 0.5029 1.1651 0.2995
C30 C 0.5430(11) 1.1731(8) 0.1498(8)
H22 H 0.6137 1.1555 0.0974
H23 H 0.4478 1.2102 0.1290
O5 O 0.6068(3) 0.5869(3) 0.8053(3)
O6 O 0.8585(3) 0.3997(3) 0.5754(3)
O7 O 0.6264(4) 0.2423(3) 0.6343(4)
O8 O 0.3346(4) 0.6916(4) 0.7732(5)
N4 N 0.9332(4) 0.1903(3) 0.6280(3)
N5 N 0.7744(4) 0.6072(3) 0.8936(3)
N6 N 1.0751(4) 0.2495(3) 0.8415(3)
H28 H 1.056(5) 0.195(3) 0.813(3)
H29 H 1.157(3) 0.219(5) 0.870(4)
C33 C 0.7885(4) 0.3320(4) 0.7514(3)
C34 C 0.8358(4) 0.1952(4) 0.7934(4)
C35 C 0.8086(5) 0.1451(5) 0.8905(4)
H30 H 0.7514 0.1970 0.9422
C36 C 0.8686(7) 0.0151(5) 0.9095(6)
H31 H 0.8536 -0.0213 0.9756
C37 C 0.9490(7) -0.0601(5) 0.8329(6)
H32 H 0.9878 -0.1474 0.8470
C38 C 0.9740(6) -0.0097(5) 0.7352(5)
H33 H 1.0279 -0.0617 0.6824
C39 C 0.9177(5) 0.1195(4) 0.7167(4)
C40 C 0.8632(4) 0.3153(4) 0.6399(3)
C41 C 0.6289(4) 0.3992(4) 0.7350(3)
C42 C 0.5580(5) 0.3379(4) 0.6792(4)
C43 C 0.4020(5) 0.3950(4) 0.6760(4)
C44 C 0.3306(6) 0.3309(5) 0.6387(5)
H34 H 0.3818 0.2491 0.6182
C45 C 0.1869(6) 0.3850(5) 0.6315(5)
H35 H 0.1403 0.3404 0.6061
C46 C 0.1104(5) 0.5045(5) 0.6613(4)
H36 H 0.0117 0.5413 0.6561
C47 C 0.1774(5) 0.5708(5) 0.6987(4)
H37 H 0.1247 0.6524 0.7191
C48 C 0.3239(5) 0.5163(4) 0.7062(4)
C49 C 0.3966(5) 0.5851(5) 0.7484(4)
C50 C 0.5533(4) 0.5168(4) 0.7619(3)
C51 C 0.8358(4) 0.4089(4) 0.8192(3)
C52 C 0.9745(4) 0.3648(4) 0.8606(3)
C53 C 1.0089(4) 0.4442(4) 0.9191(3)
C54 C 1.1564(5) 0.4001(4) 0.9638(4)
H38 H 1.2198 0.4020 0.9052
H39 H 1.1896 0.3133 0.9940
C55 C 1.1628(6) 0.4804(5) 1.0505(5)
H40 H 1.1187 0.4629 1.1161
H41 H 1.2614 0.4588 1.0670
C56 C 1.0883(5) 0.6184(5) 1.0147(5)
H42 H 1.1300 0.6362 0.9479
H43 H 1.0989 0.6679 1.0695
C57 C 0.9318(5) 0.6540(4) 0.9967(4)
H44 H 0.8858 0.6582 1.0667
H45 H 0.8884 0.7375 0.9589
C58 C 0.9058(5) 0.5642(4) 0.9337(3)
C59 C 0.7460(4) 0.5306(4) 0.8404(3)
C60 C 1.0035(6) 0.1401(5) 0.5277(4)
H46 H 0.9670 0.0826 0.5049
H47 H 0.9784 0.2094 0.4719
C61 C 1.1576(7) 0.0738(7) 0.5341(6)
H48 H 1.2012 0.0300 0.4741
C62 C 1.2396(15) 0.0666(13) 0.6068(11)
H49 H 1.3190 0.0815 0.5902
H50 H 1.2220 0.0462 0.6784
S1 S 0.13075(17) 0.05424(13) 0.24495(13)
O9 O 0.2632(5) -0.0568(5) 0.2643(6)
C64 C 0.0729(19) 0.0298(18) 0.1208(14)
H54 H 0.1244 0.0502 0.0624
H55 H -0.0269 0.0831 0.1116
H56 H 0.0896 -0.0570 0.1205
C65 C 0.1665(15) 0.1855(12) 0.2012(12)
H57 H 0.2176 0.2009 0.2570
H58 H 0.0785 0.2588 0.1865
H59 H 0.2227 0.1677 0.1365
O10 O 0.3523(6) 1.1099(5) 0.9358(6)
S2 S 0.4632(3) 0.9966(2) 0.8900(2)
C68 C 0.3971(19) 0.9056(15) 0.8558(15)
H66 H 0.2993 0.9376 0.8776
H67 H 0.4491 0.8225 0.8906
H68 H 0.4030 0.9016 0.7785
C69 C 0.5825(17) 0.9105(15) 0.9691(14)
H69 H 0.5574 0.9368 1.0412
H70 H 0.6693 0.9161 0.9481
H71 H 0.5953 0.8248 0.9675
C31? C 0.4420(11) 0.5709(10) 0.1312(10)
H24? H 0.4200 0.5291 0.1953
H25? H 0.3572 0.6090 0.0863
C32? C 0.550(4) 0.478(2) 0.073(2)
H26? H 0.5604 0.5158 0.0025
H27? H 0.5209 0.4117 0.0612
H51? H 1.1862 -0.0065 0.5694
C63? C 1.2618(13) 0.0952(13) 0.5052(12)
H52? H 1.3272 0.0911 0.5565
H53? H 1.2739 0.1151 0.4323
C66? C 0.047(2) 0.079(2) 0.1198(18)
H60? H 0.1168 0.0568 0.0634
H61? H -0.0188 0.1663 0.1076
H62? H -0.0038 0.0273 0.1196
C67? C 0.181(3) 0.177(2) 0.238(2)
H63? H 0.2433 0.1652 0.2974
H64? H 0.0979 0.2555 0.2418
H65? H 0.2290 0.1782 0.1707
S3? S 0.4111(10) 0.9710(8) 0.9529(8)
C70? C 0.357(2) 0.8974(17) 0.8945(16)
H72? H 0.2586 0.9213 0.9128
H73? H 0.4109 0.8090 0.9146
H74? H 0.3646 0.9137 0.8178
C71? C 0.5619(15) 0.9098(12) 1.0150(13)
H75? H 0.6173 0.9541 0.9896
H76? H 0.6117 0.8224 1.0010
H77? H 0.5465 0.9164 1.0916
loop_
_geom_bond_atom_site_label_1
_geom_bond_atom_site_label_2
_geom_bond_site_symmetry_1
_geom_bond_site_symmetry_2
O1 C18 1_555 1_555
O2 C8 1_555 1_555
O3 C10 1_555 1_555
O4 C17 1_555 1_555
N1 C7 1_555 1_555
N2 C26 1_555 1_555
N3 H1 1_555 1_555
H2 N3 1_555 1_555
C1 C2 1_555 1_555
C2 C3 1_555 1_555
C3 H3 1_555 1_555
C4 C3 1_555 1_555
H4 C4 1_555 1_555
C5 C4 1_555 1_555
H5 C5 1_555 1_555
C6 C5 1_555 1_555
H6 C6 1_555 1_555
C7 C2 1_555 1_555
C8 N1 1_555 1_555
C9 C1 1_555 1_555
C10 C9 1_555 1_555
C11 C10 1_555 1_555
C12 C11 1_555 1_555
H7 C12 1_555 1_555
C13 C12 1_555 1_555
H8 C13 1_555 1_555
C14 C13 1_555 1_555
H9 C14 1_555 1_555
C15 C14 1_555 1_555
H10 C15 1_555 1_555
C16 C11 1_555 1_555
C17 C16 1_555 1_555
C18 C9 1_555 1_555
C19 C1 1_555 1_555
C20 N3 1_555 1_555
C21 C20 1_555 1_555
C22 C21 1_555 1_555
H11 C22 1_555 1_555
H12 C22 1_555 1_555
C23 C22 1_555 1_555
H13 C23 1_555 1_555
H14 C23 1_555 1_555
C24 C23 1_555 1_555
H15 C24 1_555 1_555
H16 C24 1_555 1_555
C25 C24 1_555 1_555
H17 C25 1_555 1_555
H18 C25 1_555 1_555
C26 C21 1_555 1_555
C27 O1 1_555 1_555
C28 N1 1_555 1_555
H19 C28 1_555 1_555
H20 C28 1_555 1_555
C29 C28 1_555 1_555
H21 C29 1_555 1_555
C30 C29 1_555 1_555
H22 C30 1_555 1_555
H23 C30 1_555 1_555
O5 C50 1_555 1_555
O6 C40 1_555 1_555
O7 C42 1_555 1_555
O8 C49 1_555 1_555
N4 C39 1_555 1_555
N5 C58 1_555 1_555
N6 H28 1_555 1_555
H29 N6 1_555 1_555
C33 C34 1_555 1_555
C34 C35 1_555 1_555
C35 H30 1_555 1_555
C36 C35 1_555 1_555
H31 C36 1_555 1_555
C37 C36 1_555 1_555
H32 C37 1_555 1_555
C38 C37 1_555 1_555
H33 C38 1_555 1_555
C39 C34 1_555 1_555
C40 N4 1_555 1_555
C41 C33 1_555 1_555
C42 C41 1_555 1_555
C43 C42 1_555 1_555
C44 C43 1_555 1_555
H34 C44 1_555 1_555
C45 C44 1_555 1_555
H35 C45 1_555 1_555
C46 C45 1_555 1_555
H36 C46 1_555 1_555
C47 C46 1_555 1_555
H37 C47 1_555 1_555
C48 C43 1_555 1_555
C49 C48 1_555 1_555
C50 C41 1_555 1_555
C51 C33 1_555 1_555
C52 N6 1_555 1_555
C53 C52 1_555 1_555
C54 C53 1_555 1_555
H38 C54 1_555 1_555
H39 C54 1_555 1_555
C55 C54 1_555 1_555
H40 C55 1_555 1_555
H41 C55 1_555 1_555
C56 C55 1_555 1_555
H42 C56 1_555 1_555
H43 C56 1_555 1_555
C57 C56 1_555 1_555
H44 C57 1_555 1_555
H45 C57 1_555 1_555
C58 C53 1_555 1_555
C59 O5 1_555 1_555
C60 N4 1_555 1_555
H46 C60 1_555 1_555
H47 C60 1_555 1_555
C61 C60 1_555 1_555
H48 C61 1_555 1_555
C62 C61 1_555 1_555
H49 C62 1_555 1_555
H50 C62 1_555 1_555
S1 O9 1_555 1_555
C64 S1 1_555 1_555
H54 C64 1_555 1_555
H55 C64 1_555 1_555
H56 C64 1_555 1_555
C65 S1 1_555 1_555
H57 C65 1_555 1_555
H58 C65 1_555 1_555
H59 C65 1_555 1_555
O10 S2 1_555 1_555
S2 C68 1_555 1_555
C68 H66 1_555 1_555
H67 C68 1_555 1_555
H68 C68 1_555 1_555
C69 S2 1_555 1_555
H69 C69 1_555 1_555
H70 C69 1_555 1_555
H71 C69 1_555 1_555
N2 C27 1_555 1_555
C1 C8 1_555 1_555
C6 C7 1_555 1_555
C15 C16 1_555 1_555
C17 C18 1_555 1_555
C19 C20 1_555 1_555
C19 C27 1_555 1_555
C25 C26 1_555 1_555
N5 C59 1_555 1_555
C33 C40 1_555 1_555
C38 C39 1_555 1_555
C47 C48 1_555 1_555
C49 C50 1_555 1_555
C51 C52 1_555 1_555
C51 C59 1_555 1_555
C57 C58 1_555 1_555

#END
