
#######################################################################
#
#                 Cambridge Crystallographic Data Centre
#                                CCDC 
#
#######################################################################
#
# If this CIF has been generated from an entry in the Cambridge 
# Structural Database, then it will include bibliographic, chemical, 
# crystal, experimental, refinement or atomic coordinate data resulting 
# from the CCDC's data processing and validation procedures.
#
#######################################################################

data_ROFFEY
_chemical_formula_moiety         'C4 H8 N4,1.5(H2 O1)'
_chemical_name_systematic        
'3,5-Dimethyl-4H-1,2,4-triazol-4-amine sesquihydrate'
_symmetry_cell_setting           triclinic
_symmetry_space_group_name_H-M   'P -1'
_symmetry_Int_Tables_number      2
_space_group_name_Hall           '-P 1'
loop_
_symmetry_equiv_pos_site_id
_symmetry_equiv_pos_as_xyz
1 x,y,z
2 -x,-y,-z
_cell_length_a                   7.194(4)
_cell_length_b                   8.680(4)
_cell_length_c                   13.592(7)
_cell_angle_alpha                72.332(8)
_cell_angle_beta                 84.993(8)
_cell_angle_gamma                68.936(7)
_cell_volume                     754.439
_exptl_crystal_colour            colorless
_exptl_crystal_description       block
_cell_formula_units_Z            4
loop_
_atom_site_label
_atom_site_type_symbol
_atom_site_fract_x
_atom_site_fract_y
_atom_site_fract_z
C1 C 0.2307(2) 0.21698(19) 0.03818(12)
C2 C 0.2155(3) 0.3435(2) 0.09351(15)
H1 H 0.2195 0.4487 0.0448
H2 H 0.3249 0.2973 0.1422
H3 H 0.0922 0.3666 0.1295
C3 C 0.2508(2) -0.02273(19) 0.01050(12)
C4 C 0.2584(3) -0.2021(2) 0.02881(14)
H4 H 0.2743 -0.2287 -0.0357
H5 H 0.1369 -0.2134 0.0596
H6 H 0.3691 -0.2805 0.0744
N1 N 0.2638(2) 0.08533(18) -0.07827(10)
N2 N 0.2508(2) 0.23853(17) -0.06052(10)
N3 N 0.22893(18) 0.05496(15) 0.08561(9)
N4 N 0.2136(3) -0.02566(19) 0.19138(10)
H13 H 0.100(3) 0.047(3) 0.2139(15)
H14 H 0.320(3) -0.030(3) 0.2220(15)
C5 C 0.2491(2) 0.3310(2) -0.54342(13)
C6 C 0.2507(4) 0.2018(3) -0.59340(17)
H7 H 0.2633 0.0947 -0.5416
H8 H 0.3612 0.1843 -0.6389
H9 H 0.1286 0.2421 -0.6324
C7 C 0.2362(2) 0.5735(2) -0.52294(12)
C8 C 0.2197(3) 0.7564(2) -0.54624(15)
H10 H 0.2259 0.7821 -0.4830
H11 H 0.0951 0.8304 -0.5817
H12 H 0.3274 0.7752 -0.5892
N5 N 0.2546(2) 0.46293(18) -0.43183(10)
N6 N 0.2637(2) 0.30785(18) -0.44498(11)
N7 N 0.2326(2) 0.49581(17) -0.59485(9)
N8 N 0.2096(4) 0.5651(3) -0.70320(12)
H15 H 0.105(4) 0.659(4) -0.710(2)
H16 H 0.325(5) 0.589(4) -0.726(2)
O1 O -0.1595(3) 0.1723(3) 0.26863(18)
H17 H -0.219(5) 0.280(4) 0.254(2)
H18 H -0.248(5) 0.128(4) 0.254(2)
O2 O 0.3524(2) 0.47375(18) -0.23848(12)
H19 H 0.308(4) 0.412(3) -0.186(2)
H20 H 0.308(4) 0.466(3) -0.296(2)
O3 O 0.3962(2) 0.02300(16) -0.26616(11)
H21 H 0.341(3) 0.055(3) -0.2121(18)
H22 H 0.349(4) 0.114(3) -0.321(2)
loop_
_geom_bond_atom_site_label_1
_geom_bond_atom_site_label_2
_geom_bond_site_symmetry_1
_geom_bond_site_symmetry_2
C1 C2 1_555 1_555
C2 H1 1_555 1_555
H2 C2 1_555 1_555
H3 C2 1_555 1_555
C3 C4 1_555 1_555
C4 H4 1_555 1_555
H5 C4 1_555 1_555
H6 C4 1_555 1_555
C5 C6 1_555 1_555
C6 H7 1_555 1_555
H8 C6 1_555 1_555
H9 C6 1_555 1_555
C7 C8 1_555 1_555
C8 H10 1_555 1_555
H11 C8 1_555 1_555
H12 C8 1_555 1_555
N1 C3 1_555 1_555
N2 C1 1_555 1_555
N3 C1 1_555 1_555
N4 N3 1_555 1_555
H13 N4 1_555 1_555
H14 N4 1_555 1_555
N5 C7 1_555 1_555
N6 C5 1_555 1_555
N7 C5 1_555 1_555
N8 N7 1_555 1_555
H15 N8 1_555 1_555
H16 N8 1_555 1_555
O1 H17 1_555 1_555
H18 O1 1_555 1_555
O2 H19 1_555 1_555
H20 O2 1_555 1_555
O3 H21 1_555 1_555
H22 O3 1_555 1_555
C3 N3 1_555 1_555
C7 N7 1_555 1_555
N1 N2 1_555 1_555
N5 N6 1_555 1_555

#END
