
#######################################################################
#
#                 Cambridge Crystallographic Data Centre
#                                CCDC 
#
#######################################################################
#
# If this CIF has been generated from an entry in the Cambridge 
# Structural Database, then it will include bibliographic, chemical, 
# crystal, experimental, refinement or atomic coordinate data resulting 
# from the CCDC's data processing and validation procedures.
#
#######################################################################

data_ROFGID
_chemical_formula_moiety         'C19 H19 N1 O1'
_chemical_name_systematic        1-((Dimethylamino)(phenyl)methyl)-2-naphthol
_symmetry_cell_setting           monoclinic
_symmetry_space_group_name_H-M   'P 21/n'
_symmetry_Int_Tables_number      14
_space_group_name_Hall           '-P 2yn'
loop_
_symmetry_equiv_pos_site_id
_symmetry_equiv_pos_as_xyz
1 x,y,z
2 1/2-x,1/2+y,1/2-z
3 -x,-y,-z
4 1/2+x,1/2-y,1/2+z
_cell_length_a                   9.3297(10)
_cell_length_b                   9.2042(10)
_cell_length_c                   18.072(2)
_cell_angle_alpha                90
_cell_angle_beta                 103.66(2)
_cell_angle_gamma                90
_cell_volume                     1507.99
_exptl_crystal_colour            colorless
_exptl_crystal_description       prism
_cell_formula_units_Z            4
_exptl_crystal_recrystallization_method dichloromethane
loop_
_atom_site_label
_atom_site_type_symbol
_atom_site_fract_x
_atom_site_fract_y
_atom_site_fract_z
C1 C 0.9601(2) 0.1887(2) 0.19972(12)
H1 H 1.0000 0.2728 0.2312
C2 C 0.8401(2) 0.2439(2) 0.13328(12)
C3 C 0.7170(2) 0.1608(2) 0.10134(13)
C4 C 0.6082(2) 0.2123(3) 0.03982(13)
H2 H 0.5253 0.1558 0.0202
C5 C 0.6229(3) 0.3438(3) 0.00864(12)
H3 H 0.5498 0.3759 -0.0325
C6 C 0.7468(2) 0.4334(2) 0.03727(12)
C7 C 0.8563(2) 0.3830(2) 0.09998(12)
C8 C 0.9798(3) 0.4747(2) 0.12697(13)
H4 H 1.0547 0.4442 0.1677
C9 C 0.9911(3) 0.6069(3) 0.09435(15)
H5 H 1.0730 0.6651 0.1135
C10 C 0.8826(3) 0.6557(3) 0.03331(15)
H6 H 0.8914 0.7458 0.0116
C11 C 0.7632(3) 0.5708(3) 0.00549(14)
H7 H 0.6904 0.6038 -0.0355
C12 C 1.0864(2) 0.1206(2) 0.17158(12)
C13 C 1.2301(2) 0.1639(3) 0.20272(14)
H8 H 1.2489 0.2341 0.2408
C14 C 1.3465(3) 0.1033(3) 0.17760(16)
H9 H 1.4427 0.1328 0.1992
C15 C 1.3208(3) 0.0005(3) 0.12133(16)
H10 H 1.3990 -0.0397 0.1046
C16 C 1.1786(3) -0.0430(3) 0.08969(14)
H11 H 1.1604 -0.1129 0.0515
C17 C 1.0626(2) 0.0171(2) 0.11468(13)
H12 H 0.9667 -0.0128 0.0928
C18 C 1.0071(3) 0.0025(3) 0.30073(15)
H13 H 1.0796 0.0664 0.3305
H14 H 1.0540 -0.0629 0.2724
H15 H 0.9609 -0.0523 0.3339
C19 C 0.8097(3) 0.1744(3) 0.29155(15)
H16 H 0.7613 0.1103 0.3198
H17 H 0.7372 0.2311 0.2569
H18 H 0.8749 0.2378 0.3261
N1 N 0.8956(2) 0.0879(2) 0.24811(10)
O1 O 0.69398(18) 0.02542(17) 0.12688(10)
H19 H 0.7539 0.0097 0.1672
loop_
_geom_bond_atom_site_label_1
_geom_bond_atom_site_label_2
_geom_bond_site_symmetry_1
_geom_bond_site_symmetry_2
C1 H1 1_555 1_555
C2 C1 1_555 1_555
C3 C2 1_555 1_555
C4 C3 1_555 1_555
H2 C4 1_555 1_555
C5 C4 1_555 1_555
H3 C5 1_555 1_555
C6 C5 1_555 1_555
C7 C2 1_555 1_555
C8 C7 1_555 1_555
H4 C8 1_555 1_555
C9 C8 1_555 1_555
H5 C9 1_555 1_555
C10 C9 1_555 1_555
H6 C10 1_555 1_555
C11 C6 1_555 1_555
H7 C11 1_555 1_555
C12 C1 1_555 1_555
C13 C12 1_555 1_555
H8 C13 1_555 1_555
C14 C13 1_555 1_555
H9 C14 1_555 1_555
C15 C14 1_555 1_555
H10 C15 1_555 1_555
C16 C15 1_555 1_555
H11 C16 1_555 1_555
C17 C12 1_555 1_555
H12 C17 1_555 1_555
C18 H13 1_555 1_555
H14 C18 1_555 1_555
H15 C18 1_555 1_555
C19 H16 1_555 1_555
H17 C19 1_555 1_555
H18 C19 1_555 1_555
N1 C1 1_555 1_555
O1 C3 1_555 1_555
H19 O1 1_555 1_555
C6 C7 1_555 1_555
C10 C11 1_555 1_555
C16 C17 1_555 1_555
C18 N1 1_555 1_555
C19 N1 1_555 1_555

#END
