
#######################################################################
#
#                 Cambridge Crystallographic Data Centre
#                                CCDC 
#
#######################################################################
#
# If this CIF has been generated from an entry in the Cambridge 
# Structural Database, then it will include bibliographic, chemical, 
# crystal, experimental, refinement or atomic coordinate data resulting 
# from the CCDC's data processing and validation procedures.
#
#######################################################################

data_ROFJAZ
_chemical_formula_moiety         'C6 H14 N1 1+,C7 H4 N1 O5 1-'
_chemical_name_systematic        'cyclohexanaminium 2-hydroxy-5-nitrobenzoate'
_symmetry_cell_setting           monoclinic
_symmetry_space_group_name_H-M   'P 21/c'
_symmetry_Int_Tables_number      14
_space_group_name_Hall           '-P 2ybc'
loop_
_symmetry_equiv_pos_site_id
_symmetry_equiv_pos_as_xyz
1 x,y,z
2 -x,1/2+y,1/2-z
3 -x,-y,-z
4 x,1/2-y,1/2+z
_cell_length_a                   13.501(2)
_cell_length_b                   6.3144(15)
_cell_length_c                   19.601(3)
_cell_angle_alpha                90
_cell_angle_beta                 123.900(13)
_cell_angle_gamma                90
_cell_volume                     1386.95
_exptl_crystal_colour            colorless
_exptl_crystal_description       block
_cell_formula_units_Z            4
loop_
_atom_site_label
_atom_site_type_symbol
_atom_site_fract_x
_atom_site_fract_y
_atom_site_fract_z
N1 N 0.4310(4) 0.4474(8) 0.7823(2)
H1 H 0.4483 0.4776 0.7457
H2 H 0.4736 0.3360 0.8121
H3 H 0.4484 0.5583 0.8152
C1 C 0.2988(5) 0.3968(10) 0.7377(3)
H4 H 0.2815 0.3631 0.7788
C2 C 0.2255(5) 0.5840(10) 0.6895(3)
H5 H 0.2466 0.6277 0.6517
H6 H 0.2421 0.7010 0.7265
C3 C 0.0930(6) 0.5297(11) 0.6414(3)
H7 H 0.0703 0.4990 0.6794
H8 H 0.0466 0.6501 0.6081
C4 C 0.0662(5) 0.3393(10) 0.5864(3)
H9 H 0.0822 0.3751 0.5453
H10 H -0.0177 0.3037 0.5581
C5 C 0.1411(5) 0.1479(9) 0.6354(3)
H11 H 0.1186 0.1016 0.6721
H12 H 0.1258 0.0325 0.5980
C6 C 0.2734(5) 0.2019(9) 0.6852(3)
H13 H 0.3187 0.0831 0.7203
H14 H 0.2986 0.2270 0.6483
N2 N 0.1531(5) 1.0088(9) 0.4134(3)
O1 O 0.4577(3) 0.5558(6) 0.6547(2)
O2 O 0.4792(4) 0.2658(7) 0.5972(2)
O3 O 0.3756(4) 0.2452(7) 0.4425(2)
H15 H 0.4229 0.2127 0.4908
O4 O 0.0857(4) 1.0842(7) 0.3435(2)
O5 O 0.1721(4) 1.0998(7) 0.4751(3)
C7 C 0.4362(5) 0.4484(11) 0.5936(3)
C8 C 0.3503(5) 0.5392(9) 0.5089(3)
C9 C 0.3239(6) 0.4305(10) 0.4383(3)
C10 C 0.2384(6) 0.5170(11) 0.3612(3)
H16 H 0.2187 0.4432 0.3141
C11 C 0.1837(6) 0.7032(11) 0.3528(3)
H17 H 0.1273 0.7576 0.3010
C12 C 0.2139(5) 0.8108(9) 0.4232(3)
C13 C 0.2936(5) 0.7315(10) 0.4997(3)
H18 H 0.3102 0.8060 0.5459
loop_
_geom_bond_atom_site_label_1
_geom_bond_atom_site_label_2
_geom_bond_site_symmetry_1
_geom_bond_site_symmetry_2
N1 H1 1_555 1_555
H2 N1 1_555 1_555
H3 N1 1_555 1_555
C1 N1 1_555 1_555
H4 C1 1_555 1_555
C2 C1 1_555 1_555
H5 C2 1_555 1_555
H6 C2 1_555 1_555
C3 C2 1_555 1_555
H7 C3 1_555 1_555
H8 C3 1_555 1_555
C4 C3 1_555 1_555
H9 C4 1_555 1_555
H10 C4 1_555 1_555
C5 C4 1_555 1_555
H11 C5 1_555 1_555
H12 C5 1_555 1_555
C6 C1 1_555 1_555
H13 C6 1_555 1_555
H14 C6 1_555 1_555
N2 O4 1_555 1_555
O1 C7 1_555 1_555
O2 C7 1_555 1_555
O3 H15 1_555 1_555
O5 N2 1_555 1_555
C7 C8 1_555 1_555
C8 C9 1_555 1_555
C9 O3 1_555 1_555
C10 C9 1_555 1_555
H16 C10 1_555 1_555
C11 C10 1_555 1_555
H17 C11 1_555 1_555
C12 N2 1_555 1_555
C13 C8 1_555 1_555
H18 C13 1_555 1_555
C5 C6 1_555 1_555
C11 C12 1_555 1_555
C12 C13 1_555 1_555

#END
