
#######################################################################
#
#                 Cambridge Crystallographic Data Centre
#                                CCDC 
#
#######################################################################
#
# If this CIF has been generated from an entry in the Cambridge 
# Structural Database, then it will include bibliographic, chemical, 
# crystal, experimental, refinement or atomic coordinate data resulting 
# from the CCDC's data processing and validation procedures.
#
#######################################################################

data_ROFKIH
_chemical_formula_moiety         'C14 H10 F2 O1'
_chemical_name_systematic        1-(2',4'-Difluoro-biphenyl-4-yl)ethanone
_symmetry_cell_setting           orthorhombic
_symmetry_space_group_name_H-M   'P c a 21'
_symmetry_Int_Tables_number      29
_space_group_name_Hall           'P 2c -2ac'
loop_
_symmetry_equiv_pos_site_id
_symmetry_equiv_pos_as_xyz
1 x,y,z
2 -x,-y,1/2+z
3 1/2-x,y,1/2+z
4 1/2+x,-y,z
_cell_length_a                   13.092(7)
_cell_length_b                   6.102(3)
_cell_length_c                   27.719(15)
_cell_angle_alpha                90
_cell_angle_beta                 90
_cell_angle_gamma                90
_cell_volume                     2214.4
_exptl_crystal_colour            colorless
_exptl_crystal_description       block
_cell_formula_units_Z            8
_exptl_crystal_recrystallization_method ethanol
loop_
_atom_site_label
_atom_site_type_symbol
_atom_site_fract_x
_atom_site_fract_y
_atom_site_fract_z
F1 F 0.3975(2) 0.4954(5) 1.02287(16)
F2 F 0.7101(3) 0.2074(5) 0.97293(14)
O1 O 1.0793(3) 0.8318(7) 0.83509(19)
C1 C 0.4849(4) 0.5145(8) 0.9977(2)
C2 C 0.5545(4) 0.3442(8) 0.99906(18)
H1 H 0.5431 0.2190 1.0174
C3 C 0.6420(3) 0.3703(7) 0.97159(18)
C4 C 0.6630(3) 0.5529(7) 0.94406(16)
C5 C 0.5892(4) 0.7202(7) 0.94479(17)
H2 H 0.6003 0.8463 0.9267
C6 C 0.5003(3) 0.7029(8) 0.9717(2)
H3 H 0.4525 0.8156 0.9721
C7 C 0.7577(3) 0.5771(6) 0.91542(15)
C8 C 0.7929(3) 0.4063(7) 0.88590(18)
H4 H 0.7563 0.2761 0.8840
C9 C 0.8827(3) 0.4311(7) 0.85932(18)
H5 H 0.9059 0.3167 0.8400
C10 C 0.9376(3) 0.6252(7) 0.86148(15)
C11 C 0.9034(3) 0.7916(7) 0.89094(19)
H6 H 0.9409 0.9208 0.8930
C12 C 0.8149(3) 0.7706(7) 0.91747(17)
H7 H 0.7931 0.8858 0.9369
C13 C 1.0342(4) 0.6569(9) 0.83342(18)
C14 C 1.0706(5) 0.4727(13) 0.8035(3)
H8 H 1.1369 0.5069 0.7908
H9 H 1.0238 0.4486 0.7774
H10 H 1.0749 0.3427 0.8229
F3 F 0.3553(3) 1.0087(6) 1.04498(16)
F4 F 0.0411(2) 1.2848(4) 1.09719(14)
O2 O -0.3281(3) 0.6449(6) 1.2310(2)
C15 C 0.2688(3) 0.9868(7) 1.0722(2)
C16 C 0.1987(4) 1.1521(7) 1.07165(18)
H11 H 0.2096 1.2788 1.0537
C17 C 0.1123(3) 1.1255(6) 1.09822(17)
C18 C 0.0917(3) 0.9397(7) 1.12637(16)
C19 C 0.1654(3) 0.7758(7) 1.12533(19)
H12 H 0.1547 0.6481 1.1429
C20 C 0.2550(4) 0.7983(7) 1.0985(2)
H13 H 0.3042 0.6883 1.0985
C21 C -0.0043(3) 0.9146(6) 1.15438(15)
C22 C -0.0595(3) 0.7189(7) 1.15141(18)
H14 H -0.0362 0.6067 1.1315
C23 C -0.1482(3) 0.6900(7) 1.17769(17)
H15 H -0.1837 0.5585 1.1752
C24 C -0.1853(3) 0.8548(7) 1.20778(15)
C25 C -0.1292(4) 1.0488(8) 1.21097(18)
H16 H -0.1518 1.1606 1.2311
C26 C -0.0409(3) 1.0768(7) 1.18471(16)
H17 H -0.0050 1.2078 1.1874
C27 C -0.2822(4) 0.8178(8) 1.23485(19)
C28 C -0.3252(4) 0.9976(11) 1.2659(2)
H18 H -0.3950 0.9646 1.2738
H19 H -0.3223 1.1340 1.2487
H20 H -0.2860 1.0089 1.2950
loop_
_geom_bond_atom_site_label_1
_geom_bond_atom_site_label_2
_geom_bond_site_symmetry_1
_geom_bond_site_symmetry_2
F1 C1 1_555 1_555
F2 C3 1_555 1_555
O1 C13 1_555 1_555
C1 C2 1_555 1_555
C2 H1 1_555 1_555
C3 C2 1_555 1_555
C4 C3 1_555 1_555
C5 C4 1_555 1_555
H2 C5 1_555 1_555
C6 C1 1_555 1_555
H3 C6 1_555 1_555
C7 C4 1_555 1_555
C8 C7 1_555 1_555
H4 C8 1_555 1_555
C9 C8 1_555 1_555
H5 C9 1_555 1_555
C10 C9 1_555 1_555
C11 C10 1_555 1_555
H6 C11 1_555 1_555
C12 C7 1_555 1_555
H7 C12 1_555 1_555
C13 C10 1_555 1_555
C14 C13 1_555 1_555
H8 C14 1_555 1_555
H9 C14 1_555 1_555
H10 C14 1_555 1_555
F3 C15 1_555 1_555
F4 C17 1_555 1_555
O2 C27 1_555 1_555
C15 C16 1_555 1_555
C16 H11 1_555 1_555
C17 C16 1_555 1_555
C18 C17 1_555 1_555
C19 C18 1_555 1_555
H12 C19 1_555 1_555
C20 C15 1_555 1_555
H13 C20 1_555 1_555
C21 C18 1_555 1_555
C22 C21 1_555 1_555
H14 C22 1_555 1_555
C23 C22 1_555 1_555
H15 C23 1_555 1_555
C24 C23 1_555 1_555
C25 C24 1_555 1_555
H16 C25 1_555 1_555
C26 C21 1_555 1_555
H17 C26 1_555 1_555
C27 C24 1_555 1_555
C28 C27 1_555 1_555
H18 C28 1_555 1_555
H19 C28 1_555 1_555
H20 C28 1_555 1_555
C5 C6 1_555 1_555
C11 C12 1_555 1_555
C19 C20 1_555 1_555
C25 C26 1_555 1_555

#END
