
#######################################################################
#
#                 Cambridge Crystallographic Data Centre
#                                CCDC 
#
#######################################################################
#
# If this CIF has been generated from an entry in the Cambridge 
# Structural Database, then it will include bibliographic, chemical, 
# crystal, experimental, refinement or atomic coordinate data resulting 
# from the CCDC's data processing and validation procedures.
#
#######################################################################

data_ROFLOO
_chemical_formula_moiety         'C18 H28 Br2 O2'
_chemical_name_systematic        1,4-Dibromo-2,5-bis(hexyloxy)benzene
_symmetry_cell_setting           triclinic
_symmetry_space_group_name_H-M   'P -1'
_symmetry_Int_Tables_number      2
_space_group_name_Hall           '-P 1'
loop_
_symmetry_equiv_pos_site_id
_symmetry_equiv_pos_as_xyz
1 x,y,z
2 -x,-y,-z
_cell_length_a                   6.9638(12)
_cell_length_b                   8.2581(14)
_cell_length_c                   9.7321(17)
_cell_angle_alpha                107.012(2)
_cell_angle_beta                 106.981(2)
_cell_angle_gamma                99.193(2)
_cell_volume                     493.108
_exptl_crystal_colour            colorless
_exptl_crystal_description       block
_cell_formula_units_Z            1
_exptl_crystal_recrystallization_method dichloromethane/ethanol
loop_
_atom_site_label
_atom_site_type_symbol
_atom_site_fract_x
_atom_site_fract_y
_atom_site_fract_z
Br1 Br 0.07253(4) 0.51292(4) -0.31314(3)
O1 O 0.3731(2) 0.6878(2) 0.00755(19)
C1 C -0.1596(3) 0.4127(3) -0.1410(3)
H1 H -0.2656 0.3549 -0.2366
C2 C 0.0292(3) 0.5069(3) -0.1316(3)
C3 C 0.1932(3) 0.5970(3) 0.0107(3)
C4 C 0.5450(3) 0.7726(4) 0.1511(3)
H2 H 0.5871 0.6864 0.1944
H3 H 0.5056 0.8560 0.2240
C5 C 0.7229(3) 0.8672(3) 0.1183(3)
H4 H 0.6775 0.9504 0.0722
H5 H 0.7610 0.7824 0.0455
C6 C 0.9133(3) 0.9647(3) 0.2665(3)
H6 H 0.8755 1.0516 0.3377
H7 H 0.9547 0.8817 0.3143
C7 C 1.0979(3) 1.0563(3) 0.2370(3)
H8 H 1.1351 0.9693 0.1653
H9 H 1.0564 1.1394 0.1894
C8 C 1.2870(4) 1.1524(4) 0.3828(3)
H10 H 1.3355 1.0679 0.4259
H11 H 1.2471 1.2326 0.4576
C9 C 1.4646(4) 1.2556(5) 0.3548(4)
H12 H 1.5032 1.1771 0.2795
H13 H 1.5824 1.3105 0.4494
H14 H 1.4200 1.3442 0.3179
Br1A Br -0.07253(4) 0.48708(4) 0.31314(3)
O1A O -0.3731(2) 0.3122(2) -0.00755(19)
C1A C 0.1596(3) 0.5873(3) 0.1410(3)
H1A H 0.2656 0.6451 0.2366
C2A C -0.0292(3) 0.4931(3) 0.1316(3)
C3A C -0.1932(3) 0.4030(3) -0.0107(3)
C4A C -0.5450(3) 0.2274(4) -0.1511(3)
H2A H -0.5871 0.3136 -0.1944
H3A H -0.5056 0.1440 -0.2240
C5A C -0.7229(3) 0.1328(3) -0.1183(3)
H4A H -0.6775 0.0496 -0.0722
H5A H -0.7610 0.2176 -0.0455
C6A C -0.9133(3) 0.0353(3) -0.2665(3)
H6A H -0.8755 -0.0516 -0.3377
H7A H -0.9547 0.1183 -0.3143
C7A C -1.0979(3) -0.0563(3) -0.2370(3)
H8A H -1.1351 0.0307 -0.1653
H9A H -1.0564 -0.1394 -0.1894
C8A C -1.2870(4) -0.1524(4) -0.3828(3)
H10A H -1.3355 -0.0679 -0.4259
H11A H -1.2471 -0.2326 -0.4576
C9A C -1.4646(4) -0.2556(5) -0.3548(4)
H12A H -1.5032 -0.1771 -0.2795
H13A H -1.5824 -0.3105 -0.4494
H14A H -1.4200 -0.3442 -0.3179
loop_
_geom_bond_atom_site_label_1
_geom_bond_atom_site_label_2
_geom_bond_site_symmetry_1
_geom_bond_site_symmetry_2
Br1 C2 1_555 1_555
O1 C3 1_555 1_555
C1 H1 1_555 1_555
C2 C1 1_555 1_555
C3 C2 1_555 1_555
C4 O1 1_555 1_555
H2 C4 1_555 1_555
H3 C4 1_555 1_555
C5 C4 1_555 1_555
H4 C5 1_555 1_555
H5 C5 1_555 1_555
C6 C5 1_555 1_555
H6 C6 1_555 1_555
H7 C6 1_555 1_555
C7 C6 1_555 1_555
H8 C7 1_555 1_555
H9 C7 1_555 1_555
C8 C7 1_555 1_555
H10 C8 1_555 1_555
H11 C8 1_555 1_555
C9 C8 1_555 1_555
H12 C9 1_555 1_555
H13 C9 1_555 1_555
H14 C9 1_555 1_555
Br1A C2A 1_555 1_555
O1A C3A 1_555 1_555
C1A C3 1_555 1_555
H1A C1A 1_555 1_555
C2A C1A 1_555 1_555
C3A C1 1_555 1_555
C4A O1A 1_555 1_555
H2A C4A 1_555 1_555
H3A C4A 1_555 1_555
C5A C4A 1_555 1_555
H4A C5A 1_555 1_555
H5A C5A 1_555 1_555
C6A C5A 1_555 1_555
H6A C6A 1_555 1_555
H7A C6A 1_555 1_555
C7A C6A 1_555 1_555
H8A C7A 1_555 1_555
H9A C7A 1_555 1_555
C8A C7A 1_555 1_555
H10A C8A 1_555 1_555
H11A C8A 1_555 1_555
C9A C8A 1_555 1_555
H12A C9A 1_555 1_555
H13A C9A 1_555 1_555
H14A C9A 1_555 1_555
C2A C3A 1_555 1_555

#END
