
#######################################################################
#
#                 Cambridge Crystallographic Data Centre
#                                CCDC 
#
#######################################################################
#
# If this CIF has been generated from an entry in the Cambridge 
# Structural Database, then it will include bibliographic, chemical, 
# crystal, experimental, refinement or atomic coordinate data resulting 
# from the CCDC's data processing and validation procedures.
#
#######################################################################

data_ROFLOP
_chemical_formula_moiety         'C6 H14 N1 1+,C7 H4 Cl1 O2 1-,0.67(H2 O1)'
_chemical_name_systematic        'cyclohexanaminium 2-chlorobenzoate hydrate'
_symmetry_cell_setting           triclinic
_symmetry_space_group_name_H-M   'P -1'
_symmetry_Int_Tables_number      2
_space_group_name_Hall           '-P 1'
loop_
_symmetry_equiv_pos_site_id
_symmetry_equiv_pos_as_xyz
1 x,y,z
2 -x,-y,-z
_cell_length_a                   10.151(3)
_cell_length_b                   13.160(4)
_cell_length_c                   17.172(5)
_cell_angle_alpha                72.159(4)
_cell_angle_beta                 79.546(4)
_cell_angle_gamma                78.285(4)
_cell_volume                     2120.59
_exptl_crystal_colour            colorless
_exptl_crystal_description       BLOCK
_cell_formula_units_Z            6
loop_
_atom_site_label
_atom_site_type_symbol
_atom_site_fract_x
_atom_site_fract_y
_atom_site_fract_z
Cl1 Cl 0.72726(11) 0.85552(9) 0.44805(8)
O1 O 0.8058(3) 0.5420(2) 0.56591(16)
O2 O 0.8594(3) 0.6168(2) 0.43217(17)
C1 C 0.8546(3) 0.6121(3) 0.5060(3)
C2 C 0.9112(3) 0.6951(3) 0.5293(2)
C3 C 0.8592(4) 0.8043(3) 0.5077(2)
C4 C 0.9072(5) 0.8755(3) 0.5371(3)
H1 H 0.8694 0.9482 0.5240
C5 C 1.0097(5) 0.8386(4) 0.5850(3)
H2 H 1.0426 0.8863 0.6042
C6 C 1.0639(5) 0.7320(4) 0.6048(3)
H3 H 1.1350 0.7072 0.6367
C7 C 1.0140(4) 0.6606(3) 0.5779(2)
H4 H 1.0507 0.5876 0.5929
Cl2 Cl 0.28136(12) 0.90486(9) 0.09881(8)
O3 O 0.2465(3) 0.6720(2) 0.18086(17)
O4 O 0.4414(3) 0.5871(2) 0.22537(16)
C8 C 0.3716(4) 0.6546(3) 0.1728(2)
C9 C 0.4476(3) 0.7150(3) 0.0945(2)
C10 C 0.4132(4) 0.8234(3) 0.0558(2)
C11 C 0.4841(4) 0.8744(3) -0.0176(2)
H5 H 0.4591 0.9478 -0.0424
C12 C 0.5925(5) 0.8152(4) -0.0537(3)
H6 H 0.6408 0.8487 -0.1032
C13 C 0.6289(4) 0.7084(4) -0.0172(3)
H7 H 0.7014 0.6685 -0.0421
C14 C 0.5583(4) 0.6590(3) 0.0567(2)
H8 H 0.5858 0.5861 0.0819
Cl3 Cl 1.08107(13) 0.15680(9) 0.19473(8)
O5 O 0.9544(3) 0.4671(2) 0.21376(17)
O6 O 1.1544(3) 0.3801(3) 0.17581(18)
C15 C 1.0306(4) 0.4052(3) 0.1759(2)
C16 C 0.9629(3) 0.3618(3) 0.1249(2)
C17 C 0.9832(4) 0.2544(3) 0.1260(2)
C18 C 0.9211(5) 0.2200(4) 0.0752(3)
H9 H 0.9350 0.1472 0.0773
C19 C 0.8394(5) 0.2938(5) 0.0221(3)
H10 H 0.7984 0.2712 -0.0126
C20 C 0.8178(5) 0.4003(5) 0.0196(3)
H11 H 0.7626 0.4501 -0.0170
C21 C 0.8769(4) 0.4339(4) 0.0705(3)
H12 H 0.8596 0.5066 0.0690
N1 N 0.9946(3) 0.6316(2) 0.26860(17)
H13 H 0.9805 0.5742 0.2561
H14 H 0.9826 0.6194 0.3231
H15 H 1.0790 0.6438 0.2489
C22 C 0.8970(4) 0.7280(3) 0.2312(3)
H16 H 0.8064 0.7179 0.2608
C23 C 0.9325(4) 0.8268(3) 0.2447(3)
H17 H 1.0252 0.8349 0.2204
H18 H 0.9263 0.8179 0.3034
C24 C 0.8373(6) 0.9271(4) 0.2062(3)
H19 H 0.7467 0.9230 0.2358
H20 H 0.8665 0.9902 0.2114
C25 C 0.8334(6) 0.9393(4) 0.1188(4)
H21 H 0.9221 0.9499 0.0882
H22 H 0.7689 1.0027 0.0970
C26 C 0.7930(6) 0.8403(4) 0.1078(4)
H23 H 0.7937 0.8488 0.0496
H24 H 0.7018 0.8323 0.1353
C27 C 0.8928(6) 0.7395(4) 0.1444(3)
H25 H 0.8650 0.6759 0.1392
H26 H 0.9826 0.7455 0.1141
N2 N 0.6991(3) 0.5964(2) 0.71572(18)
H27 H 0.7557 0.5963 0.7497
H28 H 0.7462 0.5894 0.6681
H29 H 0.6529 0.5416 0.7384
C28 C 0.6024(4) 0.7006(3) 0.7005(2)
H30 H 0.6552 0.7603 0.6806
C29 C 0.5172(4) 0.7090(3) 0.7808(2)
H31 H 0.5759 0.7055 0.8206
H32 H 0.4673 0.6487 0.8028
C30 C 0.4181(5) 0.8148(4) 0.7677(3)
H33 H 0.3609 0.8170 0.8192
H34 H 0.4682 0.8750 0.7510
C31 C 0.3307(5) 0.8252(4) 0.7024(3)
H35 H 0.2730 0.7697 0.7221
H36 H 0.2726 0.8950 0.6924
C32 C 0.4154(5) 0.8143(4) 0.6230(3)
H37 H 0.4648 0.8749 0.5999
H38 H 0.3565 0.8164 0.5838
C33 C 0.5151(4) 0.7096(3) 0.6363(2)
H39 H 0.4657 0.6489 0.6537
H40 H 0.5719 0.7072 0.5848
N3 N 0.3864(3) 0.6012(2) 0.39179(18)
H41 H 0.3196 0.5647 0.4195
H42 H 0.4630 0.5697 0.4132
H43 H 0.3971 0.6016 0.3391
C34 C 0.3519(4) 0.7145(3) 0.3977(2)
H44 H 0.3379 0.7126 0.4561
C35 C 0.2231(4) 0.7693(3) 0.3614(3)
H45 H 0.1490 0.7318 0.3928
H46 H 0.2325 0.7654 0.3051
C36 C 0.1903(4) 0.8861(3) 0.3621(3)
H47 H 0.1109 0.9205 0.3343
H48 H 0.1687 0.8895 0.4187
C37 C 0.3064(4) 0.9473(3) 0.3202(3)
H49 H 0.3206 0.9523 0.2618
H50 H 0.2840 1.0201 0.3260
C38 C 0.4346(5) 0.8916(3) 0.3573(3)
H51 H 0.4238 0.8941 0.4140
H52 H 0.5089 0.9297 0.3271
C39 C 0.4690(4) 0.7743(3) 0.3550(3)
H53 H 0.4891 0.7718 0.2981
H54 H 0.5490 0.7395 0.3821
O7 O 0.6528(2) 0.5023(2) 0.42827(16)
H55 H 0.7132 0.5363 0.4319
H56 H 0.6622 0.4980 0.3791
O8 O 0.6933(3) 0.4935(3) 0.27065(18)
H57 H 0.6293 0.5287 0.2427
H58 H 0.7682 0.4964 0.2391
loop_
_geom_bond_atom_site_label_1
_geom_bond_atom_site_label_2
_geom_bond_site_symmetry_1
_geom_bond_site_symmetry_2
Cl1 C3 1_555 1_555
O1 C1 1_555 1_555
O2 C1 1_555 1_555
C1 C2 1_555 1_555
C2 C3 1_555 1_555
C3 C4 1_555 1_555
C4 H1 1_555 1_555
C5 C4 1_555 1_555
H2 C5 1_555 1_555
C6 C5 1_555 1_555
H3 C6 1_555 1_555
C7 C2 1_555 1_555
H4 C7 1_555 1_555
Cl2 C10 1_555 1_555
O3 C8 1_555 1_555
O4 C8 1_555 1_555
C8 C9 1_555 1_555
C9 C10 1_555 1_555
C10 C11 1_555 1_555
C11 H5 1_555 1_555
C12 C11 1_555 1_555
H6 C12 1_555 1_555
C13 C12 1_555 1_555
H7 C13 1_555 1_555
C14 C9 1_555 1_555
H8 C14 1_555 1_555
Cl3 C17 1_555 1_555
O5 C15 1_555 1_555
O6 C15 1_555 1_555
C15 C16 1_555 1_555
C16 C17 1_555 1_555
C17 C18 1_555 1_555
C18 H9 1_555 1_555
C19 C18 1_555 1_555
H10 C19 1_555 1_555
C20 C19 1_555 1_555
H11 C20 1_555 1_555
C21 C16 1_555 1_555
H12 C21 1_555 1_555
N1 H13 1_555 1_555
H14 N1 1_555 1_555
H15 N1 1_555 1_555
C22 N1 1_555 1_555
H16 C22 1_555 1_555
C23 C22 1_555 1_555
H17 C23 1_555 1_555
H18 C23 1_555 1_555
C24 C23 1_555 1_555
H19 C24 1_555 1_555
H20 C24 1_555 1_555
C25 C24 1_555 1_555
H21 C25 1_555 1_555
H22 C25 1_555 1_555
C26 C25 1_555 1_555
H23 C26 1_555 1_555
H24 C26 1_555 1_555
C27 C22 1_555 1_555
H25 C27 1_555 1_555
H26 C27 1_555 1_555
N2 H27 1_555 1_555
H28 N2 1_555 1_555
H29 N2 1_555 1_555
C28 N2 1_555 1_555
H30 C28 1_555 1_555
C29 C28 1_555 1_555
H31 C29 1_555 1_555
H32 C29 1_555 1_555
C30 C29 1_555 1_555
H33 C30 1_555 1_555
H34 C30 1_555 1_555
C31 C30 1_555 1_555
H35 C31 1_555 1_555
H36 C31 1_555 1_555
C32 C31 1_555 1_555
H37 C32 1_555 1_555
H38 C32 1_555 1_555
C33 C28 1_555 1_555
H39 C33 1_555 1_555
H40 C33 1_555 1_555
N3 H41 1_555 1_555
H42 N3 1_555 1_555
H43 N3 1_555 1_555
C34 N3 1_555 1_555
H44 C34 1_555 1_555
C35 C34 1_555 1_555
H45 C35 1_555 1_555
H46 C35 1_555 1_555
C36 C35 1_555 1_555
H47 C36 1_555 1_555
H48 C36 1_555 1_555
C37 C36 1_555 1_555
H49 C37 1_555 1_555
H50 C37 1_555 1_555
C38 C37 1_555 1_555
H51 C38 1_555 1_555
H52 C38 1_555 1_555
C39 C34 1_555 1_555
H53 C39 1_555 1_555
H54 C39 1_555 1_555
O7 H55 1_555 1_555
H56 O7 1_555 1_555
O8 H57 1_555 1_555
H58 O8 1_555 1_555
C6 C7 1_555 1_555
C13 C14 1_555 1_555
C20 C21 1_555 1_555
C26 C27 1_555 1_555
C32 C33 1_555 1_555
C38 C39 1_555 1_555

#END
