
#######################################################################
#
#                 Cambridge Crystallographic Data Centre
#                                CCDC 
#
#######################################################################
#
# If this CIF has been generated from an entry in the Cambridge 
# Structural Database, then it will include bibliographic, chemical, 
# crystal, experimental, refinement or atomic coordinate data resulting 
# from the CCDC's data processing and validation procedures.
#
#######################################################################

data_ROFLEF
_chemical_formula_moiety         'C10 H6 O6 S2 2-,2(C6 H14 N1 1+)'
_chemical_name_systematic        
'bis(cyclohexanaminium) naphthalene-1,5-disulfonate'
_symmetry_cell_setting           monoclinic
_symmetry_space_group_name_H-M   'P 21/n'
_symmetry_Int_Tables_number      14
_space_group_name_Hall           '-P 2yn'
loop_
_symmetry_equiv_pos_site_id
_symmetry_equiv_pos_as_xyz
1 x,y,z
2 1/2-x,1/2+y,1/2-z
3 -x,-y,-z
4 1/2+x,1/2-y,1/2+z
_cell_length_a                   5.3477(5)
_cell_length_b                   19.9238(16)
_cell_length_c                   11.1761(9)
_cell_angle_alpha                90
_cell_angle_beta                 95.7230(10)
_cell_angle_gamma                90
_cell_volume                     1184.84
_exptl_crystal_colour            colorless
_exptl_crystal_description       BLOCK
_cell_formula_units_Z            2
loop_
_atom_site_label
_atom_site_type_symbol
_atom_site_fract_x
_atom_site_fract_y
_atom_site_fract_z
N1 N 1.0349(5) 0.58849(11) 0.95860(19)
H1 H 1.0647 0.5743 1.0342
H2 H 1.1480 0.5708 0.9145
H3 H 0.8816 0.5757 0.9290
C1 C 1.0524(5) 0.66286(14) 0.9554(2)
H4 H 1.2263 0.6753 0.9822
C2 C 0.8887(8) 0.69404(17) 1.0391(3)
H5 H 0.9422 0.6797 1.1205
H6 H 0.7170 0.6791 1.0191
C3 C 0.8981(11) 0.77032(19) 1.0326(4)
H7 H 0.7771 0.7891 1.0824
H8 H 1.0639 0.7857 1.0639
C4 C 0.8405(8) 0.79502(18) 0.9048(4)
H9 H 0.6665 0.7852 0.8777
H10 H 0.8622 0.8433 0.9031
C5 C 1.0033(8) 0.76380(18) 0.8224(3)
H11 H 1.1748 0.7787 0.8429
H12 H 0.9509 0.7784 0.7410
C6 C 0.9949(7) 0.68743(16) 0.8275(3)
H13 H 0.8295 0.6719 0.7958
H14 H 1.1167 0.6690 0.7778
O1 O 0.5310(5) 0.43746(11) 0.17384(17)
O2 O 0.6677(4) 0.54816(12) 0.12653(15)
O3 O 0.2425(4) 0.52865(14) 0.17233(17)
S1 S 0.50415(11) 0.50882(4) 0.19286(5)
C7 C 0.2539(5) 0.44881(12) 0.4120(2)
H15 H 0.2010 0.4387 0.3322
C8 C 0.4600(4) 0.49252(11) 0.43822(17)
C9 C 0.5934(4) 0.52343(11) 0.34789(18)
C10 C 0.7920(5) 0.56481(12) 0.3778(2)
H16 H 0.8773 0.5839 0.3178
C11 C 0.8689(5) 0.57877(13) 0.4992(2)
H17 H 1.0050 0.6071 0.5189
O1B O 0.4690(5) 0.56254(11) 0.82616(17)
O2B O 0.3323(4) 0.45184(12) 0.87347(15)
O3B O 0.7575(4) 0.47135(14) 0.82767(17)
S1B S 0.49585(11) 0.49118(4) 0.80714(5)
C7B C 0.7461(5) 0.55119(12) 0.5880(2)
H15B H 0.7990 0.5613 0.6678
C8B C 0.5400(4) 0.50748(11) 0.56178(17)
C9B C 0.4066(4) 0.47657(11) 0.65211(18)
C10B C 0.2080(5) 0.43519(12) 0.6222(2)
H16B H 0.1227 0.4161 0.6822
C11B C 0.1311(5) 0.42123(13) 0.5008(2)
H17B H -0.0050 0.3929 0.4811
loop_
_geom_bond_atom_site_label_1
_geom_bond_atom_site_label_2
_geom_bond_site_symmetry_1
_geom_bond_site_symmetry_2
N1 H1 1_555 1_555
H2 N1 1_555 1_555
H3 N1 1_555 1_555
C1 N1 1_555 1_555
H4 C1 1_555 1_555
C2 C1 1_555 1_555
H5 C2 1_555 1_555
H6 C2 1_555 1_555
C3 C2 1_555 1_555
H7 C3 1_555 1_555
H8 C3 1_555 1_555
C4 C3 1_555 1_555
H9 C4 1_555 1_555
H10 C4 1_555 1_555
C5 C4 1_555 1_555
H11 C5 1_555 1_555
H12 C5 1_555 1_555
C6 C1 1_555 1_555
H13 C6 1_555 1_555
H14 C6 1_555 1_555
O1 S1 1_555 1_555
O2 S1 1_555 1_555
O3 S1 1_555 1_555
S1 C9 1_555 1_555
C7 H15 1_555 1_555
C8 C7 1_555 1_555
C9 C8 1_555 1_555
C10 C9 1_555 1_555
H16 C10 1_555 1_555
C11 C10 1_555 1_555
H17 C11 1_555 1_555
O1B S1B 1_555 1_555
O2B S1B 1_555 1_555
O3B S1B 1_555 1_555
S1B C9B 1_555 1_555
C7B C11 1_555 1_555
H15B C7B 1_555 1_555
C8B C8 1_555 1_555
C9B C8B 1_555 1_555
C10B C9B 1_555 1_555
H16B C10B 1_555 1_555
C11B C7 1_555 1_555
H17B C11B 1_555 1_555
C5 C6 1_555 1_555
C7B C8B 1_555 1_555
C10B C11B 1_555 1_555

#END
