
#######################################################################
#
#                 Cambridge Crystallographic Data Centre
#                                CCDC 
#
#######################################################################
#
# If this CIF has been generated from an entry in the Cambridge 
# Structural Database, then it will include bibliographic, chemical, 
# crystal, experimental, refinement or atomic coordinate data resulting 
# from the CCDC's data processing and validation procedures.
#
#######################################################################

data_ROFLOO02
_chemical_formula_moiety         'C18 H28 Br2 O2'
_chemical_name_systematic        1,4-dibromo-2,5-bis(hexyloxy)benzene
_symmetry_cell_setting           triclinic
_symmetry_space_group_name_H-M   'P -1'
_symmetry_Int_Tables_number      2
_space_group_name_Hall           '-P 1'
loop_
_symmetry_equiv_pos_site_id
_symmetry_equiv_pos_as_xyz
1 x,y,z
2 -x,-y,-z
_cell_length_a                   6.9534(8)
_cell_length_b                   8.2493(14)
_cell_length_c                   9.7157(12)
_cell_angle_alpha                107.062(13)
_cell_angle_beta                 106.936(10)
_cell_angle_gamma                99.153(12)
_cell_volume                     491.107
_exptl_crystal_colour            colorless
_exptl_crystal_description       needle
_cell_formula_units_Z            1
loop_
_atom_site_label
_atom_site_type_symbol
_atom_site_fract_x
_atom_site_fract_y
_atom_site_fract_z
Br1 Br 0.92752(7) 0.98709(7) 0.81312(5)
C1 C 0.9692(6) 0.9924(5) 0.6313(4)
O1 O 0.6270(4) 0.8126(4) 0.4929(3)
C2 C 0.8416(6) 0.9121(5) 0.3580(4)
H1 H 0.7364 0.8534 0.2619
C3 C 0.8072(6) 0.9029(5) 0.4897(4)
C4 C -0.2876(7) 0.3474(7) 0.1164(6)
H2 H -0.2472 0.2681 0.0410
H3 H -0.3367 0.4323 0.0740
C5 C 0.0865(6) 0.5350(6) 0.2346(5)
H4 H 0.0451 0.6177 0.1863
H5 H 0.1250 0.4480 0.1636
C6 C 0.2768(6) 0.6333(6) 0.3824(5)
H6 H 0.2387 0.7189 0.4549
H7 H 0.3223 0.5506 0.4294
C7 C 0.4548(6) 0.7269(6) 0.3489(5)
H8 H 0.4943 0.6428 0.2762
H9 H 0.4128 0.8127 0.3049
C8 C -0.0980(6) 0.4436(6) 0.2623(5)
H10 H -0.0569 0.3602 0.3098
H11 H -0.1355 0.5305 0.3342
C9 C -0.4659(8) 0.2420(8) 0.1429(8)
H12 H -0.4246 0.1474 0.1716
H13 H -0.5867 0.1948 0.0499
H14 H -0.4985 0.3176 0.2240
Br1A Br 1.07248(7) 1.01291(7) 0.18688(5)
C1A C 1.0308(6) 1.0076(5) 0.3687(4)
O1A O 1.3730(4) 1.1874(4) 0.5071(3)
C2A C 1.1584(6) 1.0879(5) 0.6420(4)
H1A H 1.2636 1.1466 0.7381
C3A C 1.1928(6) 1.0971(5) 0.5103(4)
C4A C 2.2876(7) 1.6526(7) 0.8836(6)
H2A H 2.2472 1.7319 0.9590
H3A H 2.3367 1.5677 0.9260
C5A C 1.9135(6) 1.4650(6) 0.7654(5)
H4A H 1.9549 1.3823 0.8137
H5A H 1.8750 1.5520 0.8364
C6A C 1.7232(6) 1.3667(6) 0.6176(5)
H6A H 1.7613 1.2811 0.5451
H7A H 1.6777 1.4494 0.5706
C7A C 1.5452(6) 1.2731(6) 0.6511(5)
H8A H 1.5057 1.3572 0.7238
H9A H 1.5872 1.1873 0.6951
C8A C 2.0980(6) 1.5564(6) 0.7377(5)
H10A H 2.0569 1.6398 0.6902
H11A H 2.1355 1.4695 0.6658
C9A C 2.4659(8) 1.7580(8) 0.8571(8)
H12A H 2.4246 1.8526 0.8284
H13A H 2.5867 1.8052 0.9501
H14A H 2.4985 1.6824 0.7760
loop_
_geom_bond_atom_site_label_1
_geom_bond_atom_site_label_2
_geom_bond_site_symmetry_1
_geom_bond_site_symmetry_2
Br1 C1 1_555 1_555
C1 C3 1_555 1_555
O1 C3 1_555 1_555
C2 H1 1_555 1_555
C3 C2 1_555 1_555
C4 H2 1_555 1_555
H3 C4 1_555 1_555
C5 H4 1_555 1_555
H5 C5 1_555 1_555
C6 C5 1_555 1_555
H6 C6 1_555 1_555
H7 C6 1_555 1_555
C7 O1 1_555 1_555
H8 C7 1_555 1_555
H9 C7 1_555 1_555
C8 C4 1_555 1_555
H10 C8 1_555 1_555
H11 C8 1_555 1_555
C9 C4 1_555 1_555
H12 C9 1_555 1_555
H13 C9 1_555 1_555
H14 C9 1_555 1_555
Br1A C1A 1_555 1_555
C1A C2 1_555 1_555
O1A C3A 1_555 1_555
C2A C1 1_555 1_555
H1A C2A 1_555 1_555
C3A C1A 1_555 1_555
C4A H2A 1_555 1_555
H3A C4A 1_555 1_555
C5A H4A 1_555 1_555
H5A C5A 1_555 1_555
C6A C5A 1_555 1_555
H6A C6A 1_555 1_555
H7A C6A 1_555 1_555
C7A O1A 1_555 1_555
H8A C7A 1_555 1_555
H9A C7A 1_555 1_555
C8A C4A 1_555 1_555
H10A C8A 1_555 1_555
H11A C8A 1_555 1_555
C9A C4A 1_555 1_555
H12A C9A 1_555 1_555
H13A C9A 1_555 1_555
H14A C9A 1_555 1_555
C5 C8 1_555 1_555
C6 C7 1_555 1_555
C2A C3A 1_555 1_555
C5A C8A 1_555 1_555
C6A C7A 1_555 1_555

#END
