
#######################################################################
#
#                 Cambridge Crystallographic Data Centre
#                                CCDC 
#
#######################################################################
#
# If this CIF has been generated from an entry in the Cambridge 
# Structural Database, then it will include bibliographic, chemical, 
# crystal, experimental, refinement or atomic coordinate data resulting 
# from the CCDC's data processing and validation procedures.
#
#######################################################################

data_ROFMOP
_chemical_formula_moiety         'C14 H10 Br1 Cl1 N2 O3'
_chemical_name_systematic        
N'-(3-Bromo-5-chloro-2-hydroxybenzylidene)-4-hydroxybenzohydrazide
_symmetry_cell_setting           monoclinic
_symmetry_space_group_name_H-M   'P 21/n'
_symmetry_Int_Tables_number      14
_space_group_name_Hall           '-P 2yn'
loop_
_symmetry_equiv_pos_site_id
_symmetry_equiv_pos_as_xyz
1 x,y,z
2 1/2-x,1/2+y,1/2-z
3 -x,-y,-z
4 1/2+x,1/2-y,1/2+z
_cell_length_a                   8.279(2)
_cell_length_b                   11.446(3)
_cell_length_c                   14.998(4)
_cell_angle_alpha                90
_cell_angle_beta                 99.002(4)
_cell_angle_gamma                90
_cell_volume                     1403.73
_exptl_crystal_colour            colorless
_exptl_crystal_description       block
_cell_formula_units_Z            4
loop_
_atom_site_label
_atom_site_type_symbol
_atom_site_fract_x
_atom_site_fract_y
_atom_site_fract_z
Br1 Br 1.16504(5) 0.88843(3) 1.28591(2)
Cl1 Cl 1.19663(10) 0.56024(7) 1.02050(6)
N1 N 0.7282(3) 0.9996(2) 0.98662(16)
N2 N 0.6142(3) 1.0530(2) 0.92314(15)
O1 O 0.9168(3) 0.98960(19) 1.14418(14)
H1 H 0.8479 1.0183 1.1051
O2 O 0.5803(3) 1.20014(17) 1.01833(13)
O3 O 0.0964(3) 1.38132(18) 0.68220(14)
H2 H 0.0978 1.3553 0.6314
C1 C 0.9178(3) 0.8455(2) 1.02657(18)
C2 C 0.9719(3) 0.8893(2) 1.11358(19)
C3 C 1.0902(4) 0.8268(3) 1.17019(18)
C4 C 1.1560(4) 0.7256(3) 1.1431(2)
H3 H 1.2341 0.6847 1.1824
C5 C 1.1051(4) 0.6856(3) 1.0573(2)
C6 C 0.9868(4) 0.7438(3) 0.9991(2)
H4 H 0.9532 0.7149 0.9412
C7 C 0.7930(4) 0.9061(3) 0.9632(2)
H5 H 0.7610 0.8760 0.9056
C8 C 0.5482(4) 1.1559(3) 0.94328(19)
C9 C 0.4350(3) 1.2130(2) 0.87016(17)
C10 C 0.3617(4) 1.3161(3) 0.89023(19)
H6 H 0.3888 1.3482 0.9476
C11 C 0.2498(4) 1.3723(3) 0.8275(2)
H7 H 0.2009 1.4412 0.8426
C12 C 0.2103(4) 1.3258(3) 0.74178(18)
C13 C 0.2856(4) 1.2251(3) 0.71958(18)
H8 H 0.2615 1.1948 0.6615
C14 C 0.3965(4) 1.1692(3) 0.78333(19)
H9 H 0.4465 1.1009 0.7679
H10 H 0.577(5) 1.016(3) 0.8710(15)
loop_
_geom_bond_atom_site_label_1
_geom_bond_atom_site_label_2
_geom_bond_site_symmetry_1
_geom_bond_site_symmetry_2
Br1 C3 1_555 1_555
Cl1 C5 1_555 1_555
N1 N2 1_555 1_555
N2 C8 1_555 1_555
O1 H1 1_555 1_555
O2 C8 1_555 1_555
O3 H2 1_555 1_555
C1 C2 1_555 1_555
C2 O1 1_555 1_555
C3 C2 1_555 1_555
C4 C3 1_555 1_555
H3 C4 1_555 1_555
C5 C4 1_555 1_555
C6 C1 1_555 1_555
H4 C6 1_555 1_555
C7 N1 1_555 1_555
H5 C7 1_555 1_555
C8 C9 1_555 1_555
C9 C10 1_555 1_555
C10 H6 1_555 1_555
C11 C10 1_555 1_555
H7 C11 1_555 1_555
C12 O3 1_555 1_555
C13 C12 1_555 1_555
H8 C13 1_555 1_555
C14 C9 1_555 1_555
H9 C14 1_555 1_555
H10 N2 1_555 1_555
C1 C7 1_555 1_555
C5 C6 1_555 1_555
C11 C12 1_555 1_555
C13 C14 1_555 1_555

#END
