
#######################################################################
#
#                 Cambridge Crystallographic Data Centre
#                                CCDC 
#
#######################################################################
#
# If this CIF has been generated from an entry in the Cambridge 
# Structural Database, then it will include bibliographic, chemical, 
# crystal, experimental, refinement or atomic coordinate data resulting 
# from the CCDC's data processing and validation procedures.
#
#######################################################################

data_ROFNOQ01
_chemical_formula_moiety         'C9 H8 Br2 O2'
_chemical_name_systematic        '2,3-dibromo-3-phenylpropanoic acid'
_symmetry_cell_setting           monoclinic
_symmetry_space_group_name_H-M   'P 21/n'
_symmetry_Int_Tables_number      14
_space_group_name_Hall           '-P 2yn'
loop_
_symmetry_equiv_pos_site_id
_symmetry_equiv_pos_as_xyz
1 x,y,z
2 1/2-x,1/2+y,1/2-z
3 -x,-y,-z
4 1/2+x,1/2-y,1/2+z
_cell_length_a                   5.5382(2)
_cell_length_b                   28.8640(13)
_cell_length_c                   6.6112(3)
_cell_angle_alpha                90
_cell_angle_beta                 111.9350(10)
_cell_angle_gamma                90
_cell_volume                     980.325
_exptl_crystal_colour            colorless
_exptl_crystal_description       plate
_cell_formula_units_Z            4
loop_
_atom_site_label
_atom_site_type_symbol
_atom_site_fract_x
_atom_site_fract_y
_atom_site_fract_z
Br1 Br 0.72796(6) 0.36584(2) 0.82102(5)
Br2 Br -0.02058(6) 0.43970(2) 0.37555(5)
C1 C 0.2346(10) 0.34824(16) 0.4013(8)
C2 C 0.0636(8) 0.31343(15) 0.4024(6)
H1 H -0.021097 0.314523 0.503558
C3 C 0.0162(7) 0.27744(12) 0.2582(6)
H2 H -0.105009 0.254060 0.257170
C4 C 0.1431(6) 0.27480(12) 0.1139(5)
H3 H 0.110182 0.249474 0.015500
C5 C 0.3178(7) 0.30891(13) 0.1124(6)
H4 H 0.406474 0.306975 0.014352
C6 C 0.3625(8) 0.34602(14) 0.2555(7)
H5 H 0.480065 0.369870 0.254135
C7 C 0.4667(13) 0.4536(2) 0.7928(9)
O1 O 0.3550(8) 0.44829(11) 0.9260(7)
O2 O 0.5956(10) 0.48698(15) 0.7794(6)
H6 H 0.622278 0.504415 0.887335
C8 C 0.4884(13) 0.4126(2) 0.6445(10)
H7 H 0.546193 0.424225 0.527342
C9 C 0.2257(13) 0.3899(2) 0.5471(11)
H8 H 0.170807 0.378764 0.666760
C10? C 0.339(3) 0.4271(5) 0.554(2)
H9? H 0.450625 0.432294 0.467135
C11? C 0.353(3) 0.3769(5) 0.622(2)
H10? H 0.239337 0.372327 0.707530
C12? C 0.300(3) 0.4015(5) 0.477(2)
H11? H 0.440311 0.414737 0.433276
C13? C 0.379(3) 0.3982(5) 0.715(2)
H12? H 0.246721 0.384549 0.766877
loop_
_geom_bond_atom_site_label_1
_geom_bond_atom_site_label_2
_geom_bond_site_symmetry_1
_geom_bond_site_symmetry_2
Br1 C8 1_555 1_555
Br2 C9 1_555 1_555
C1 C2 1_555 1_555
C2 H1 1_555 1_555
C3 C2 1_555 1_555
H2 C3 1_555 1_555
C4 C3 1_555 1_555
H3 C4 1_555 1_555
C5 C4 1_555 1_555
H4 C5 1_555 1_555
C6 C1 1_555 1_555
H5 C6 1_555 1_555
C7 O1 1_555 1_555
O2 C7 1_555 1_555
H6 O2 1_555 1_555
C8 C7 1_555 1_555
H7 C8 1_555 1_555
C9 C1 1_555 1_555
H8 C9 1_555 1_555
C5 C6 1_555 1_555
C8 C9 1_555 1_555

#END
