
#######################################################################
#
#                 Cambridge Crystallographic Data Centre
#                                CCDC 
#
#######################################################################
#
# If this CIF has been generated from an entry in the Cambridge 
# Structural Database, then it will include bibliographic, chemical, 
# crystal, experimental, refinement or atomic coordinate data resulting 
# from the CCDC's data processing and validation procedures.
#
#######################################################################

data_ROFPUY
_chemical_formula_moiety         'C15 H13 F1 N2 O3'
_chemical_name_systematic        
N-(4-Fluorobenzoyl)-2-hydroxy-4-methylbenzohydrazide
_symmetry_cell_setting           triclinic
_symmetry_space_group_name_H-M   'P -1'
_symmetry_Int_Tables_number      2
_space_group_name_Hall           '-P 1'
loop_
_symmetry_equiv_pos_site_id
_symmetry_equiv_pos_as_xyz
1 x,y,z
2 -x,-y,-z
_cell_length_a                   7.0969(13)
_cell_length_b                   7.2994(14)
_cell_length_c                   13.701(3)
_cell_angle_alpha                102.854(2)
_cell_angle_beta                 97.754(3)
_cell_angle_gamma                105.5380(10)
_cell_volume                     652.227
_exptl_crystal_colour            colorless
_exptl_crystal_description       block
_chemical_melting_point          217-226deg.C
_cell_formula_units_Z            2
loop_
_atom_site_label
_atom_site_type_symbol
_atom_site_fract_x
_atom_site_fract_y
_atom_site_fract_z
C1 C 1.5146(3) 0.7327(3) 0.90895(14)
H1 H 1.5688 0.6263 0.9116
H2 H 1.4846 0.7824 0.9741
H3 H 1.6105 0.8366 0.8931
C2 C 1.3255(2) 0.6585(2) 0.82719(12)
C3 C 1.1619(2) 0.7274(2) 0.83934(12)
H4 H 1.1679 0.8211 0.8990
C4 C 0.9911(2) 0.6566(2) 0.76276(12)
H5 H 0.8839 0.7043 0.7722
C5 C 1.3107(2) 0.5166(2) 0.73751(12)
H6 H 1.4184 0.4696 0.7285
C6 C 1.1384(2) 0.4435(2) 0.66103(11)
C7 C 0.9748(2) 0.5153(2) 0.67156(11)
C8 C 0.7818(2) 0.4502(2) 0.59554(11)
C9 C 0.5611(2) 0.0444(2) 0.37524(11)
C10 C 0.3744(2) -0.0450(2) 0.29516(12)
C11 C 0.3805(2) -0.1729(2) 0.20387(12)
H7 H 0.4995 -0.1983 0.1948
C12 C 0.1944(2) -0.0106(2) 0.30968(12)
H8 H 0.1892 0.0725 0.3708
C13 C 0.0234(2) -0.1002(2) 0.23314(13)
H9 H -0.0972 -0.0786 0.2422
C14 C 0.2107(3) -0.2622(3) 0.12657(13)
H10 H 0.2140 -0.3465 0.0654
C15 C 0.0363(2) -0.2216(2) 0.14356(13)
F1 F -0.13083(16) -0.30700(16) 0.06798(8)
N1 N 0.76066(18) 0.30055(19) 0.51310(10)
H11 H 0.8590 0.2550 0.5049
N2 N 0.58263(18) 0.21862(18) 0.44102(9)
H12 H 0.4916 0.2760 0.4386
O1 O 1.12712(16) 0.30064(17) 0.57426(8)
H13 H 1.1820 0.2223 0.5895
O2 O 0.64816(15) 0.52694(16) 0.60736(8)
O3 O 0.69450(16) -0.03614(17) 0.38199(9)
loop_
_geom_bond_atom_site_label_1
_geom_bond_atom_site_label_2
_geom_bond_site_symmetry_1
_geom_bond_site_symmetry_2
C1 H1 1_555 1_555
H2 C1 1_555 1_555
H3 C1 1_555 1_555
C2 C1 1_555 1_555
C3 C2 1_555 1_555
H4 C3 1_555 1_555
C4 C3 1_555 1_555
H5 C4 1_555 1_555
C5 C2 1_555 1_555
H6 C5 1_555 1_555
C6 C5 1_555 1_555
C7 C4 1_555 1_555
C8 C7 1_555 1_555
C9 C10 1_555 1_555
C10 C11 1_555 1_555
C11 H7 1_555 1_555
C12 C10 1_555 1_555
H8 C12 1_555 1_555
C13 C12 1_555 1_555
H9 C13 1_555 1_555
C14 C11 1_555 1_555
H10 C14 1_555 1_555
C15 C13 1_555 1_555
F1 C15 1_555 1_555
N1 C8 1_555 1_555
H11 N1 1_555 1_555
N2 C9 1_555 1_555
H12 N2 1_555 1_555
O1 C6 1_555 1_555
H13 O1 1_555 1_555
O2 C8 1_555 1_555
O3 C9 1_555 1_555
C6 C7 1_555 1_555
C14 C15 1_555 1_555
N1 N2 1_555 1_555

#END
