
#######################################################################
#
#                 Cambridge Crystallographic Data Centre
#                                CCDC 
#
#######################################################################
#
# If this CIF has been generated from an entry in the Cambridge 
# Structural Database, then it will include bibliographic, chemical, 
# crystal, experimental, refinement or atomic coordinate data resulting 
# from the CCDC's data processing and validation procedures.
#
#######################################################################

data_ROFTEN
_chemical_formula_moiety         'C66 Cl10,C1 S2'
_chemical_name_systematic        
'Decachloro-C66fullerene carbon disulfide solvate'
_symmetry_cell_setting           orthorhombic
_symmetry_space_group_name_H-M   'P 21 21 21'
_symmetry_Int_Tables_number      19
_space_group_name_Hall           'P 2ac 2ab'
loop_
_symmetry_equiv_pos_site_id
_symmetry_equiv_pos_as_xyz
1 x,y,z
2 1/2-x,-y,1/2+z
3 -x,1/2+y,1/2-z
4 1/2+x,1/2-y,-z
_cell_length_a                   12.8807(3)
_cell_length_b                   16.4973(6)
_cell_length_c                   38.9740(9)
_cell_angle_alpha                90
_cell_angle_beta                 90
_cell_angle_gamma                90
_cell_volume                     8281.85
_cell_formula_units_Z            8
loop_
_atom_site_label
_atom_site_type_symbol
_atom_site_fract_x
_atom_site_fract_y
_atom_site_fract_z
Cl1 Cl 0.24627(10) 0.58222(7) 0.13646(3)
Cl2 Cl 0.55890(10) 0.20219(7) 0.07086(4)
Cl3 Cl 0.19710(10) 0.51729(10) -0.01462(3)
Cl4 Cl 0.14691(9) 0.44813(8) 0.05746(3)
Cl5 Cl 0.31401(11) 0.37242(10) -0.03916(3)
Cl6 Cl 0.45168(10) 0.50369(8) 0.18739(3)
Cl7 Cl 0.51357(11) 0.22451(8) -0.00674(3)
Cl8 Cl 0.16830(10) 0.64038(8) 0.06583(4)
Cl9 Cl 0.29564(10) 0.26918(8) 0.02633(3)
Cl10 Cl 0.62389(10) 0.29183(8) 0.15081(3)
C1 C 0.4995(4) 0.6095(3) 0.13313(12)
C2 C 0.5256(4) 0.3970(3) 0.10764(12)
C3 C 0.3384(4) 0.5745(3) 0.10144(13)
C4 C 0.6723(4) 0.3387(3) 0.05786(14)
C5 C 0.3836(4) 0.4904(3) 0.10032(12)
C6 C 0.6612(4) 0.3983(3) -0.00097(13)
C7 C 0.4287(4) 0.6330(3) 0.10837(13)
C8 C 0.5532(4) 0.3827(3) -0.00022(12)
C9 C 0.8198(4) 0.4126(3) 0.03339(14)
C10 C 0.7275(5) 0.7273(3) 0.10557(14)
C11 C 0.4923(4) 0.3579(3) 0.07721(12)
C12 C 0.5518(4) 0.7370(3) 0.08957(14)
C13 C 0.8531(4) 0.4799(3) 0.01186(14)
C14 C 0.7856(4) 0.4592(3) 0.12470(13)
C15 C 0.7752(4) 0.5914(3) -0.02100(12)
C16 C 0.5061(4) 0.3137(3) 0.01912(13)
C17 C 0.6676(4) 0.6019(3) -0.03059(12)
C18 C 0.7658(4) 0.7190(3) 0.01210(14)
C19 C 0.3717(4) 0.4151(3) -0.00112(12)
C20 C 0.8792(4) 0.6453(3) 0.08976(14)
C21 C 0.6930(4) 0.4645(3) -0.02073(13)
C22 C 0.6832(4) 0.4482(3) 0.13745(12)
C23 C 0.4268(4) 0.6828(3) 0.04800(14)
C24 C 0.4701(4) 0.4645(3) 0.11875(11)
C25 C 0.5869(4) 0.7524(3) 0.02803(14)
C26 C 0.6325(4) 0.3754(3) 0.12063(13)
C27 C 0.5603(4) 0.3057(3) 0.05514(13)
C28 C 0.6164(4) 0.7664(3) 0.06127(15)
C29 C 0.2712(4) 0.4923(3) 0.05101(13)
C30 C 0.7980(4) 0.7343(3) 0.04712(14)
C31 C 0.5056(4) 0.6590(3) -0.00857(13)
C32 C 0.5126(4) 0.5151(3) -0.02351(12)
C33 C 0.6758(4) 0.5929(3) 0.14757(13)
C34 C 0.5117(4) 0.5219(3) 0.14599(12)
C35 C 0.6177(4) 0.5241(4) -0.03151(12)
C36 C 0.3725(4) 0.5691(3) 0.01179(13)
C37 C 0.4040(4) 0.3817(3) 0.06039(12)
C38 C 0.4809(4) 0.4381(3) -0.01099(12)
C39 C 0.7762(4) 0.6033(3) 0.13617(13)
C40 C 0.7051(4) 0.3592(3) 0.09001(14)
C41 C 0.7981(4) 0.4053(3) 0.09522(13)
C42 C 0.8977(4) 0.5597(4) 0.09533(14)
C43 C 0.6289(4) 0.5148(3) 0.14873(12)
C44 C 0.8578(4) 0.4289(3) 0.06737(14)
C45 C 0.9064(4) 0.5397(3) 0.03341(15)
C46 C 0.4559(4) 0.5854(3) -0.01150(12)
C47 C 0.4588(4) 0.6945(3) 0.08400(13)
C48 C 0.8228(4) 0.6484(3) 0.00021(14)
C49 C 0.8769(4) 0.6763(3) 0.05663(14)
C50 C 0.6211(4) 0.7154(3) 0.11682(14)
C51 C 0.6127(4) 0.6691(3) -0.01945(13)
C52 C 0.7244(4) 0.7595(3) 0.07122(15)
C53 C 0.6629(5) 0.7281(3) 0.00280(14)
C54 C 0.8920(4) 0.6219(3) 0.02757(14)
C55 C 0.8038(4) 0.6729(3) 0.11493(13)
C56 C 0.3492(4) 0.4483(3) 0.07193(11)
C57 C 0.4914(4) 0.7090(3) 0.02183(14)
C58 C 0.3593(4) 0.6167(3) 0.04045(12)
C59 C 0.2850(4) 0.5817(3) 0.06570(13)
C60 C 0.7896(4) 0.5062(3) -0.01437(13)
C61 C 0.5957(4) 0.6498(3) 0.13722(13)
C62 C 0.7248(4) 0.3719(3) 0.02819(13)
C63 C 0.8338(4) 0.5336(4) 0.12495(13)
C64 C 0.9100(4) 0.5074(4) 0.06747(14)
C65 C 0.3919(4) 0.3454(3) 0.02564(13)
C66 C 0.3066(4) 0.4944(4) 0.01217(12)
Cl11 Cl 0.74902(10) 0.42229(7) 0.22569(3)
Cl12 Cl 1.01007(11) 0.56917(7) 0.18428(3)
Cl13 Cl 0.78329(14) 0.32025(8) 0.30581(4)
Cl14 Cl 1.06430(19) 0.30567(11) 0.34486(4)
Cl15 Cl 1.28401(14) 0.42796(15) 0.31047(5)
Cl16 Cl 1.28113(16) 0.50731(17) 0.38222(5)
Cl17 Cl 1.1082(2) 0.40629(13) 0.40947(4)
Cl18 Cl 0.8463(2) 0.32827(9) 0.38211(4)
Cl19 Cl 1.35385(12) 0.61257(18) 0.30019(6)
C67 C 0.7898(4) 0.5015(3) 0.25533(13)
C68 C 0.9674(5) 0.6014(3) 0.22676(12)
C69 C 0.9830(4) 0.5362(3) 0.25339(11)
C70 C 0.6966(6) 0.8228(4) 0.28678(17)
C71 C 0.7924(5) 0.5322(3) 0.37685(14)
C72 C 0.8905(5) 0.7247(4) 0.40492(13)
C73 C 0.6477(4) 0.5922(4) 0.34484(16)
C74 C 0.9799(5) 0.5164(4) 0.38380(12)
C75 C 0.9706(4) 0.7702(4) 0.39184(13)
C76 C 0.8464(5) 0.8598(3) 0.36239(14)
C77 C 0.9638(7) 0.8128(3) 0.25553(16)
C78 C 0.7202(4) 0.5080(3) 0.28723(14)
C79 C 1.0738(4) 0.6460(4) 0.38252(14)
C80 C 0.6865(5) 0.6228(4) 0.25320(15)
C81 C 0.9499(5) 0.8391(4) 0.37006(15)
C82 C 0.9894(5) 0.5982(4) 0.39627(13)
C83 C 1.0779(4) 0.5357(4) 0.27062(13)
C84 C 0.8539(5) 0.6278(3) 0.22552(13)
C85 C 0.9171(4) 0.4453(3) 0.29641(12)
C86 C 0.6375(5) 0.7492(4) 0.28296(16)
C87 C 1.1381(5) 0.7270(5) 0.32040(18)
C88 C 1.1036(5) 0.6804(4) 0.26164(15)
C89 C 0.7991(5) 0.6039(3) 0.39662(13)
C90 C 1.0226(5) 0.6783(4) 0.23841(13)
C91 C 0.7464(4) 0.4798(3) 0.31935(15)
C92 C 0.9519(6) 0.7436(3) 0.23518(13)
C93 C 0.8953(6) 0.8837(3) 0.30204(16)
C94 C 0.8504(6) 0.7140(3) 0.22737(13)
C95 C 1.2181(4) 0.5905(6) 0.30319(17)
C96 C 0.6534(4) 0.6644(4) 0.36584(15)
C97 C 1.0130(5) 0.4421(3) 0.31177(13)
C98 C 0.6056(4) 0.7058(4) 0.31087(16)
C99 C 0.6790(5) 0.7072(4) 0.25264(15)
C100 C 1.0626(5) 0.7301(4) 0.37879(15)
C101 C 0.7846(4) 0.7443(3) 0.39674(13)
C102 C 0.7177(5) 0.5273(3) 0.34925(15)
C103 C 0.8326(5) 0.4173(3) 0.32040(14)
C104 C 0.7637(4) 0.8112(3) 0.37602(14)
C105 C 0.9988(6) 0.8593(4) 0.30951(17)
C106 C 0.7746(6) 0.8259(3) 0.26088(15)
C107 C 0.9003(4) 0.4896(3) 0.26650(12)
C108 C 1.0271(5) 0.8393(4) 0.34262(15)
C109 C 0.7615(6) 0.7538(3) 0.23977(15)
C110 C 1.0951(5) 0.7706(5) 0.34850(17)
C111 C 0.6151(4) 0.6183(4) 0.31146(17)
C112 C 0.8208(6) 0.8835(3) 0.32768(17)
C113 C 0.6294(4) 0.7346(4) 0.34552(16)
C114 C 0.6554(4) 0.5775(4) 0.28296(15)
C115 C 0.6842(5) 0.8059(4) 0.34972(15)
C116 C 1.0417(6) 0.8130(4) 0.28149(16)
C117 C 0.8712(7) 0.8551(3) 0.26780(17)
C118 C 1.1698(4) 0.6480(5) 0.32835(17)
C119 C 1.1599(5) 0.5997(5) 0.26773(16)
C120 C 1.0116(6) 0.4052(4) 0.34650(14)
C121 C 1.1916(5) 0.5059(5) 0.31806(16)
C122 C 0.7292(5) 0.6704(3) 0.39136(13)
C123 C 1.1077(5) 0.7464(5) 0.28586(18)
C124 C 0.8865(6) 0.4865(4) 0.37505(13)
C125 C 1.1399(5) 0.6073(5) 0.35778(15)
C126 C 1.0935(4) 0.4872(4) 0.29914(13)
C127 C 0.7184(5) 0.8509(3) 0.32006(16)
C128 C 1.1644(5) 0.5175(5) 0.35723(16)
C129 C 1.0704(6) 0.4642(4) 0.37251(15)
C130 C 0.8989(5) 0.6370(4) 0.40576(12)
C131 C 0.8939(7) 0.4091(4) 0.35558(15)
C132 C 0.7758(4) 0.5836(3) 0.23855(13)
Cl20 Cl 1.24250(12) 0.57669(13) 0.23148(4)
S1 S 0.49489(12) 0.89074(10) 0.23335(4)
S2 S 0.44240(18) 0.71547(13) 0.21094(7)
C133 C 0.4691(5) 0.8032(5) 0.22262(18)
S3 S 0.46778(16) 0.88469(11) 0.13999(5)
S4 S 0.48399(13) 0.99005(12) 0.07465(4)
C134 C 0.4752(5) 0.9367(4) 0.10696(17)
loop_
_geom_bond_atom_site_label_1
_geom_bond_atom_site_label_2
_geom_bond_site_symmetry_1
_geom_bond_site_symmetry_2
Cl1 C3 1_555 1_555
Cl2 C27 1_555 1_555
Cl3 C66 1_555 1_555
Cl4 C29 1_555 1_555
Cl5 C19 1_555 1_555
Cl6 C34 1_555 1_555
Cl7 C16 1_555 1_555
Cl8 C59 1_555 1_555
Cl9 C65 1_555 1_555
Cl10 C26 1_555 1_555
C1 C7 1_555 1_555
C2 C11 1_555 1_555
C3 C5 1_555 1_555
C4 C27 1_555 1_555
C5 C24 1_555 1_555
C6 C8 1_555 1_555
C7 C3 1_555 1_555
C8 C16 1_555 1_555
C9 C13 1_555 1_555
C10 C50 1_555 1_555
C11 C27 1_555 1_555
C12 C28 1_555 1_555
C13 C45 1_555 1_555
C14 C22 1_555 1_555
C15 C17 1_555 1_555
C16 C27 1_555 1_555
C17 C35 1_555 1_555
C18 C30 1_555 1_555
C19 C38 1_555 1_555
C20 C42 1_555 1_555
C21 C6 1_555 1_555
C22 C26 1_555 1_555
C23 C47 1_555 1_555
C24 C2 1_555 1_555
C25 C28 1_555 1_555
C26 C2 1_555 1_555
C28 C52 1_555 1_555
C29 C56 1_555 1_555
C30 C49 1_555 1_555
C31 C46 1_555 1_555
C32 C35 1_555 1_555
C33 C39 1_555 1_555
C34 C1 1_555 1_555
C35 C21 1_555 1_555
C36 C46 1_555 1_555
C37 C11 1_555 1_555
C38 C8 1_555 1_555
C39 C55 1_555 1_555
C40 C4 1_555 1_555
C41 C14 1_555 1_555
C42 C63 1_555 1_555
C43 C22 1_555 1_555
C44 C9 1_555 1_555
C45 C54 1_555 1_555
C46 C32 1_555 1_555
C47 C7 1_555 1_555
C48 C15 1_555 1_555
C49 C20 1_555 1_555
C50 C12 1_555 1_555
C51 C17 1_555 1_555
C52 C10 1_555 1_555
C53 C18 1_555 1_555
C54 C48 1_555 1_555
C55 C10 1_555 1_555
C56 C5 1_555 1_555
C57 C23 1_555 1_555
C58 C23 1_555 1_555
C59 C3 1_555 1_555
C60 C13 1_555 1_555
C61 C1 1_555 1_555
C62 C4 1_555 1_555
C63 C14 1_555 1_555
C64 C42 1_555 1_555
C65 C16 1_555 1_555
C66 C19 1_555 1_555
Cl11 C67 1_555 1_555
Cl12 C68 1_555 1_555
Cl13 C103 1_555 1_555
Cl14 C120 1_555 1_555
Cl15 C121 1_555 1_555
Cl16 C128 1_555 1_555
Cl17 C129 1_555 1_555
Cl18 C131 1_555 1_555
Cl19 C95 1_555 1_555
C67 C78 1_555 1_555
C68 C69 1_555 1_555
C69 C83 1_555 1_555
C70 C86 1_555 1_555
C71 C89 1_555 1_555
C72 C75 1_555 1_555
C73 C96 1_555 1_555
C74 C82 1_555 1_555
C75 C81 1_555 1_555
C76 C81 1_555 1_555
C77 C92 1_555 1_555
C78 C91 1_555 1_555
C79 C82 1_555 1_555
C80 C99 1_555 1_555
C81 C108 1_555 1_555
C82 C130 1_555 1_555
C83 C119 1_555 1_555
C84 C68 1_555 1_555
C85 C97 1_555 1_555
C86 C98 1_555 1_555
C87 C110 1_555 1_555
C88 C90 1_555 1_555
C89 C122 1_555 1_555
C90 C68 1_555 1_555
C91 C102 1_555 1_555
C92 C90 1_555 1_555
C93 C105 1_555 1_555
C94 C84 1_555 1_555
C95 C118 1_555 1_555
C96 C113 1_555 1_555
C97 C120 1_555 1_555
C98 C111 1_555 1_555
C99 C86 1_555 1_555
C100 C75 1_555 1_555
C101 C72 1_555 1_555
C102 C71 1_555 1_555
C103 C85 1_555 1_555
C104 C76 1_555 1_555
C105 C108 1_555 1_555
C106 C70 1_555 1_555
C107 C67 1_555 1_555
C108 C110 1_555 1_555
C109 C94 1_555 1_555
C110 C100 1_555 1_555
C111 C73 1_555 1_555
C112 C76 1_555 1_555
C113 C98 1_555 1_555
C114 C78 1_555 1_555
C115 C104 1_555 1_555
C116 C77 1_555 1_555
C117 C77 1_555 1_555
C118 C87 1_555 1_555
C119 C88 1_555 1_555
C120 C129 1_555 1_555
C121 C95 1_555 1_555
C122 C96 1_555 1_555
C123 C87 1_555 1_555
C124 C71 1_555 1_555
C125 C79 1_555 1_555
C126 C83 1_555 1_555
C127 C70 1_555 1_555
C128 C121 1_555 1_555
C129 C74 1_555 1_555
C130 C72 1_555 1_555
C131 C103 1_555 1_555
C132 C67 1_555 1_555
Cl20 C119 1_555 1_555
S1 C133 1_555 1_555
S2 C133 1_555 1_555
S3 C134 1_555 1_555
S4 C134 1_555 1_555
C6 C62 1_555 1_555
C9 C62 1_555 1_555
C12 C47 1_555 1_555
C15 C60 1_555 1_555
C18 C48 1_555 1_555
C19 C65 1_555 1_555
C20 C55 1_555 1_555
C21 C60 1_555 1_555
C24 C34 1_555 1_555
C25 C53 1_555 1_555
C25 C57 1_555 1_555
C26 C40 1_555 1_555
C29 C59 1_555 1_555
C29 C66 1_555 1_555
C30 C52 1_555 1_555
C31 C51 1_555 1_555
C31 C57 1_555 1_555
C32 C38 1_555 1_555
C33 C43 1_555 1_555
C33 C61 1_555 1_555
C34 C43 1_555 1_555
C36 C58 1_555 1_555
C36 C66 1_555 1_555
C37 C56 1_555 1_555
C37 C65 1_555 1_555
C39 C63 1_555 1_555
C40 C41 1_555 1_555
C41 C44 1_555 1_555
C44 C64 1_555 1_555
C45 C64 1_555 1_555
C49 C54 1_555 1_555
C50 C61 1_555 1_555
C51 C53 1_555 1_555
C58 C59 1_555 1_555
C69 C107 1_555 1_555
C73 C102 1_555 1_555
C74 C124 1_555 1_555
C79 C100 1_555 1_555
C80 C114 1_555 1_555
C80 C132 1_555 1_555
C84 C132 1_555 1_555
C85 C107 1_555 1_555
C88 C123 1_555 1_555
C89 C130 1_555 1_555
C91 C103 1_555 1_555
C92 C94 1_555 1_555
C93 C112 1_555 1_555
C93 C117 1_555 1_555
C95 C119 1_555 1_555
C97 C126 1_555 1_555
C99 C109 1_555 1_555
C101 C104 1_555 1_555
C101 C122 1_555 1_555
C105 C116 1_555 1_555
C106 C109 1_555 1_555
C106 C117 1_555 1_555
C111 C114 1_555 1_555
C112 C127 1_555 1_555
C113 C115 1_555 1_555
C115 C127 1_555 1_555
C116 C123 1_555 1_555
C118 C125 1_555 1_555
C120 C131 1_555 1_555
C121 C126 1_555 1_555
C124 C131 1_555 1_555
C125 C128 1_555 1_555
C128 C129 1_555 1_555

#END
