
#######################################################################
#
#                 Cambridge Crystallographic Data Centre
#                                CCDC 
#
#######################################################################
#
# If this CIF has been generated from an entry in the Cambridge 
# Structural Database, then it will include bibliographic, chemical, 
# crystal, experimental, refinement or atomic coordinate data resulting 
# from the CCDC's data processing and validation procedures.
#
#######################################################################

data_ROFYIV
_chemical_name_common            Dibenzo-18-crown-6
_chemical_formula_moiety         'C20 H24 O6'
_chemical_name_systematic        
6,7,9,10,17,18,20,21-Octahydrodibenzo(b,k)(1,4,7,10,13,16)hexaoxacyclooctadecene
_symmetry_cell_setting           monoclinic
_symmetry_space_group_name_H-M   'C c'
_symmetry_Int_Tables_number      9
_space_group_name_Hall           'C -2yc'
loop_
_symmetry_equiv_pos_site_id
_symmetry_equiv_pos_as_xyz
1 x,y,z
2 x,-y,1/2+z
3 1/2+x,1/2+y,z
4 1/2+x,1/2-y,1/2+z
_cell_length_a                   4.902(3)
_cell_length_b                   28.58(2)
_cell_length_c                   25.06(2)
_cell_angle_alpha                90
_cell_angle_beta                 92.049(8)
_cell_angle_gamma                90
_cell_volume                     3508.64
_exptl_crystal_colour            colorless
_exptl_crystal_description       shard
_cell_formula_units_Z            8
loop_
_atom_site_label
_atom_site_type_symbol
_atom_site_fract_x
_atom_site_fract_y
_atom_site_fract_z
C1 C -0.212(2) 0.0826(4) 0.4641(4)
H1 H -0.3259 0.1107 0.4695
H2 H -0.0944 0.0776 0.4965
C2 C -0.394(2) 0.0398(4) 0.4538(4)
H3 H -0.5394 0.0393 0.4802
H4 H -0.4828 0.0424 0.4178
C3 C -0.127(2) -0.0154(3) 0.4094(4)
H5 H 0.0010 0.0093 0.3982
H6 H -0.2696 -0.0194 0.3807
C4 C 0.0261(18) -0.0614(3) 0.4193(4)
H7 H 0.1473 -0.0591 0.4516
H8 H -0.1041 -0.0875 0.4241
C5 C 0.3565(19) -0.1064(3) 0.3725(4)
C6 C 0.3652(19) -0.1415(3) 0.4119(4)
H9 H 0.2444 -0.1407 0.4407
C7 C 0.555(2) -0.1773(3) 0.4076(4)
H10 H 0.5648 -0.2013 0.4339
C8 C 0.728(2) -0.1785(3) 0.3663(5)
H11 H 0.8561 -0.2033 0.3640
C9 C 0.719(2) -0.1436(4) 0.3272(4)
H12 H 0.8412 -0.1447 0.2986
C10 C 0.532(2) -0.1076(3) 0.3302(4)
C11 C 0.707(2) -0.0650(3) 0.2567(4)
H13 H 0.7199 -0.0925 0.2329
H14 H 0.8852 -0.0604 0.2756
C12 C 0.630(2) -0.0222(3) 0.2247(4)
H15 H 0.7406 -0.0215 0.1924
H16 H 0.4361 -0.0248 0.2128
C13 C 0.427(2) 0.0340(3) 0.2823(4)
H17 H 0.3957 0.0113 0.3113
H18 H 0.2627 0.0353 0.2584
C14 C 0.4934(19) 0.0814(4) 0.3048(4)
H19 H 0.6710 0.0811 0.3249
H20 H 0.5002 0.1051 0.2761
C15 C 0.2997(17) 0.1272(3) 0.3756(4)
C16 C 0.4900(18) 0.1624(3) 0.3713(4)
H21 H 0.6100 0.1628 0.3424
C17 C 0.505(2) 0.1984(3) 0.4110(4)
H22 H 0.6328 0.2231 0.4082
C18 C 0.3359(19) 0.1972(3) 0.4526(4)
H23 H 0.3461 0.2211 0.4790
C19 C 0.144(2) 0.1603(3) 0.4566(4)
H24 H 0.0274 0.1591 0.4861
C20 C 0.1258(18) 0.1265(3) 0.4179(4)
O1 O -0.0471(13) 0.0889(2) 0.4184(3)
O2 O -0.2456(14) -0.0028(2) 0.4572(3)
O3 O 0.1848(13) -0.0692(2) 0.3723(3)
O4 O 0.4961(14) -0.0723(2) 0.2945(3)
O5 O 0.6677(15) 0.0207(3) 0.2526(3)
O6 O 0.2725(13) 0.0911(2) 0.3399(3)
C21 C 0.274(2) 0.2188(4) 0.7537(5)
H25 H 0.2570 0.1907 0.7765
H26 H 0.0967 0.2245 0.7348
C22 C 0.354(2) 0.2602(3) 0.7869(4)
H27 H 0.2364 0.2614 0.8182
H28 H 0.5448 0.2559 0.8005
C23 C 0.5683(18) 0.3155(3) 0.7319(4)
H29 H 0.5979 0.2925 0.7031
H30 H 0.7303 0.3153 0.7566
C24 C 0.526(2) 0.3640(3) 0.7083(4)
H31 H 0.3490 0.3656 0.6881
H32 H 0.5258 0.3877 0.7371
C25 C 0.724(2) 0.4109(3) 0.6399(4)
C26 C 0.5268(19) 0.4460(3) 0.6442(4)
H33 H 0.4039 0.4457 0.6727
C27 C 0.5145(17) 0.4811(4) 0.6062(4)
H34 H 0.3801 0.5049 0.6082
C28 C 0.6990(19) 0.4818(3) 0.5647(4)
H35 H 0.6901 0.5065 0.5394
C29 C 0.8951(18) 0.4469(3) 0.5600(4)
H36 H 1.0202 0.4478 0.5319
C30 C 0.9041(18) 0.4109(3) 0.5970(4)
C31 C 1.2366(19) 0.3687(3) 0.5498(4)
H37 H 1.3639 0.3953 0.5465
H38 H 1.1140 0.3678 0.5176
C32 C 1.3939(19) 0.3235(3) 0.5552(4)
H39 H 1.5297 0.3221 0.5269
H40 H 1.4948 0.3232 0.5901
C33 C 1.1119(19) 0.2686(3) 0.6009(4)
H41 H 0.9953 0.2936 0.6152
H42 H 1.2594 0.2614 0.6277
C34 C 0.9432(19) 0.2249(3) 0.5878(4)
H43 H 0.8174 0.2302 0.5566
H44 H 1.0624 0.1979 0.5803
C35 C 0.625(2) 0.1796(4) 0.6351(4)
C36 C 0.604(2) 0.1462(4) 0.5958(5)
H45 H 0.7148 0.1484 0.5657
C37 C 0.420(2) 0.1088(4) 0.5998(5)
H46 H 0.4148 0.0850 0.5733
C38 C 0.246(2) 0.1064(4) 0.6417(5)
H47 H 0.1158 0.0819 0.6436
C39 C 0.266(2) 0.1413(3) 0.6819(5)
H48 H 0.1482 0.1401 0.7113
C40 C 0.453(2) 0.1766(3) 0.6787(4)
O7 O 0.4850(14) 0.2117(2) 0.7157(3)
O8 O 0.3343(15) 0.3040(2) 0.7592(3)
O9 O 0.7442(12) 0.3724(2) 0.6740(3)
O10 O 1.0815(13) 0.3740(2) 0.5963(3)
O11 O 1.2235(14) 0.2826(2) 0.5513(3)
O12 O 0.7963(14) 0.2174(2) 0.6350(3)
loop_
_geom_bond_atom_site_label_1
_geom_bond_atom_site_label_2
_geom_bond_site_symmetry_1
_geom_bond_site_symmetry_2
C1 H1 1_555 1_555
H2 C1 1_555 1_555
C2 C1 1_555 1_555
H3 C2 1_555 1_555
H4 C2 1_555 1_555
C3 H5 1_555 1_555
H6 C3 1_555 1_555
C4 C3 1_555 1_555
H7 C4 1_555 1_555
H8 C4 1_555 1_555
C5 C6 1_555 1_555
C6 H9 1_555 1_555
C7 C6 1_555 1_555
H10 C7 1_555 1_555
C8 C7 1_555 1_555
H11 C8 1_555 1_555
C9 C8 1_555 1_555
H12 C9 1_555 1_555
C10 C5 1_555 1_555
C11 H13 1_555 1_555
H14 C11 1_555 1_555
C12 C11 1_555 1_555
H15 C12 1_555 1_555
H16 C12 1_555 1_555
C13 H17 1_555 1_555
H18 C13 1_555 1_555
C14 C13 1_555 1_555
H19 C14 1_555 1_555
H20 C14 1_555 1_555
C15 C16 1_555 1_555
C16 H21 1_555 1_555
C17 C16 1_555 1_555
H22 C17 1_555 1_555
C18 C17 1_555 1_555
H23 C18 1_555 1_555
C19 C18 1_555 1_555
H24 C19 1_555 1_555
C20 C15 1_555 1_555
O1 C1 1_555 1_555
O2 C2 1_555 1_555
O3 C4 1_555 1_555
O4 C10 1_555 1_555
O5 C12 1_555 1_555
O6 C14 1_555 1_555
C21 H25 1_555 1_555
H26 C21 1_555 1_555
C22 C21 1_555 1_555
H27 C22 1_555 1_555
H28 C22 1_555 1_555
C23 H29 1_555 1_555
H30 C23 1_555 1_555
C24 C23 1_555 1_555
H31 C24 1_555 1_555
H32 C24 1_555 1_555
C25 C26 1_555 1_555
C26 H33 1_555 1_555
C27 C26 1_555 1_555
H34 C27 1_555 1_555
C28 C27 1_555 1_555
H35 C28 1_555 1_555
C29 C28 1_555 1_555
H36 C29 1_555 1_555
C30 C25 1_555 1_555
C31 H37 1_555 1_555
H38 C31 1_555 1_555
C32 C31 1_555 1_555
H39 C32 1_555 1_555
H40 C32 1_555 1_555
C33 H41 1_555 1_555
H42 C33 1_555 1_555
C34 C33 1_555 1_555
H43 C34 1_555 1_555
H44 C34 1_555 1_555
C35 C36 1_555 1_555
C36 H45 1_555 1_555
C37 C36 1_555 1_555
H46 C37 1_555 1_555
C38 C37 1_555 1_555
H47 C38 1_555 1_555
C39 C38 1_555 1_555
H48 C39 1_555 1_555
C40 C35 1_555 1_555
O7 C21 1_555 1_555
O8 C22 1_555 1_555
O9 C24 1_555 1_555
O10 C30 1_555 1_555
O11 C32 1_555 1_555
O12 C34 1_555 1_555
C3 O2 1_555 1_555
C5 O3 1_555 1_555
C9 C10 1_555 1_555
C11 O4 1_555 1_555
C13 O5 1_555 1_555
C15 O6 1_555 1_555
C19 C20 1_555 1_555
C20 O1 1_555 1_555
C23 O8 1_555 1_555
C25 O9 1_555 1_555
C29 C30 1_555 1_555
C31 O10 1_555 1_555
C33 O11 1_555 1_555
C35 O12 1_555 1_555
C39 C40 1_555 1_555
C40 O7 1_555 1_555

#END
