
#######################################################################
#
#                 Cambridge Crystallographic Data Centre
#                                CCDC 
#
#######################################################################
#
# If this CIF has been generated from an entry in the Cambridge 
# Structural Database, then it will include bibliographic, chemical, 
# crystal, experimental, refinement or atomic coordinate data resulting 
# from the CCDC's data processing and validation procedures.
#
#######################################################################

data_ROFZAO
_chemical_formula_moiety         'C26 H25 N1 O1'
_chemical_name_systematic        
1-(Phenyl(1-(p-tolyl)ethylamino)methyl)-2-naphthol
_symmetry_cell_setting           triclinic
_symmetry_space_group_name_H-M   'P 1'
_symmetry_Int_Tables_number      1
_space_group_name_Hall           'P 1'
loop_
_symmetry_equiv_pos_site_id
_symmetry_equiv_pos_as_xyz
1 x,y,z
_cell_length_a                   9.3046(19)
_cell_length_b                   13.126(3)
_cell_length_c                   13.572(3)
_cell_angle_alpha                88.14(3)
_cell_angle_beta                 89.99(2)
_cell_angle_gamma                72.39(3)
_cell_volume                     1578.99
_exptl_crystal_colour            colorless
_exptl_crystal_description       Prism
_cell_formula_units_Z            3
_exptl_crystal_recrystallization_method 'ethyl acetate'
loop_
_atom_site_label
_atom_site_type_symbol
_atom_site_fract_x
_atom_site_fract_y
_atom_site_fract_z
C1 C 0.3155(4) 0.7172(3) 0.8864(3)
C2 C 0.2500(5) 0.6843(4) 0.9671(3)
H1 H 0.1711 0.6557 0.9583
C3 C 0.3005(7) 0.6934(4) 1.0618(4)
H2 H 0.2539 0.6720 1.1158
C4 C 0.4167(7) 0.7332(4) 1.0759(4)
H3 H 0.4523 0.7367 1.1394
C5 C 0.4819(6) 0.7682(4) 0.9965(4)
H4 H 0.5593 0.7982 1.0059
C6 C 0.4315(5) 0.7588(3) 0.9024(3)
H5 H 0.4775 0.7812 0.8486
C7 C 0.2582(4) 0.7047(3) 0.7836(3)
H6 H 0.1699 0.6793 0.7913
C8 C 0.2098(5) 0.8090(3) 0.7229(3)
C9 C 0.3141(7) 0.8430(4) 0.6695(3)
C10 C 0.2735(11) 0.9451(6) 0.6209(4)
H7 H 0.3460 0.9675 0.5871
C11 C 0.1332(13) 1.0083(6) 0.6237(5)
H8 H 0.1100 1.0751 0.5917
C12 C 0.0190(8) 0.9803(4) 0.6716(4)
C13 C -0.1273(12) 1.0453(6) 0.6728(6)
H9 H -0.1519 1.1115 0.6395
C14 C -0.2387(11) 1.0159(9) 0.7215(6)
H10 H -0.3369 1.0618 0.7215
C15 C -0.2030(8) 0.9166(8) 0.7711(5)
H11 H -0.2781 0.8957 0.8035
C16 C -0.0564(6) 0.8488(5) 0.7722(4)
H12 H -0.0346 0.7832 0.8062
C17 C 0.0586(6) 0.8762(4) 0.7240(3)
C18 C 0.3134(4) 0.5779(3) 0.6466(3)
H13 H 0.2650 0.6378 0.6009
C19 C 0.4459(5) 0.5019(4) 0.5929(4)
H14 H 0.5165 0.5391 0.5739
H15 H 0.4093 0.4770 0.5351
H16 H 0.4951 0.4420 0.6359
C20 C 0.1955(4) 0.5256(3) 0.6774(2)
C21 C 0.0467(5) 0.5712(3) 0.6513(3)
H17 H 0.0181 0.6346 0.6135
C22 C -0.0609(5) 0.5239(5) 0.6809(3)
H18 H -0.1607 0.5561 0.6615
C23 C -0.0267(7) 0.4327(5) 0.7369(3)
C24 C 0.1216(7) 0.3864(4) 0.7642(3)
H19 H 0.1485 0.3237 0.8031
C25 C 0.2306(5) 0.4318(3) 0.7348(3)
H20 H 0.3303 0.3987 0.7539
C26 C -0.1445(9) 0.3811(7) 0.7711(5)
H21 H -0.2419 0.4228 0.7463
H22 H -0.1461 0.3778 0.8418
H23 H -0.1202 0.3101 0.7468
N1 N 0.3758(4) 0.6216(3) 0.7309(3)
H24 H 0.4194 0.5675 0.7739
O1 O 0.4601(4) 0.7828(3) 0.6589(3)
H25 H 0.4740 0.7246 0.6876
C27 C 0.0607(4) 0.6526(3) 0.3775(2)
C28 C 0.2086(4) 0.6212(3) 0.3414(3)
H26 H 0.2409 0.5591 0.3058
C29 C 0.3079(5) 0.6790(3) 0.3568(3)
H27 H 0.4052 0.6557 0.3320
C30 C 0.2615(6) 0.7725(4) 0.4098(3)
H28 H 0.3285 0.8110 0.4214
C31 C 0.1192(5) 0.8072(3) 0.4444(3)
H29 H 0.0893 0.8699 0.4792
C32 C 0.0139(4) 0.7496(3) 0.4285(3)
C33 C -0.1334(5) 0.7844(3) 0.4658(3)
H30 H -0.1637 0.8467 0.5011
C34 C -0.2299(5) 0.7295(3) 0.4514(3)
H31 H -0.3274 0.7552 0.4754
C35 C -0.1874(4) 0.6327(3) 0.4001(3)
C36 C -0.0418(4) 0.5921(3) 0.3643(2)
C37 C 0.0086(4) 0.4862(3) 0.3122(3)
H32 H 0.1141 0.4508 0.3309
C38 C 0.0010(4) 0.4984(3) 0.2004(3)
C39 C 0.1208(4) 0.4455(3) 0.1437(3)
H33 H 0.2089 0.4031 0.1745
C40 C 0.1140(5) 0.4536(4) 0.0429(3)
H34 H 0.1972 0.4178 0.0061
C41 C -0.0152(5) 0.5143(3) -0.0036(3)
H35 H -0.0201 0.5200 -0.0720
C42 C -0.1368(5) 0.5663(3) 0.0509(3)
H36 H -0.2253 0.6070 0.0194
C43 C -0.1292(4) 0.5590(3) 0.1527(3)
H37 H -0.2125 0.5952 0.1893
C44 C -0.0337(4) 0.3634(3) 0.4442(3)
H38 H -0.0308 0.4192 0.4896
C45 C -0.1560(5) 0.3160(4) 0.4792(4)
H39 H -0.2519 0.3706 0.4768
H40 H -0.1343 0.2883 0.5457
H41 H -0.1591 0.2592 0.4373
C46 C 0.1198(4) 0.2804(3) 0.4471(2)
C47 C 0.2259(5) 0.2823(3) 0.5164(3)
H42 H 0.2042 0.3380 0.5601
C48 C 0.3640(5) 0.2044(4) 0.5235(4)
H43 H 0.4328 0.2081 0.5719
C49 C 0.4011(5) 0.1209(4) 0.4594(3)
C50 C 0.2946(5) 0.1187(3) 0.3913(3)
H44 H 0.3156 0.0621 0.3487
C51 C 0.1580(4) 0.1963(3) 0.3830(3)
H45 H 0.0901 0.1926 0.3340
C52 C 0.5525(6) 0.0356(5) 0.4674(5)
H46 H 0.5590 -0.0161 0.4179
H47 H 0.5632 0.0008 0.5315
H48 H 0.6315 0.0680 0.4580
N2 N -0.0798(3) 0.4155(2) 0.3457(2)
H49 H -0.0692 0.3642 0.3015
O2 O -0.2945(3) 0.5840(2) 0.3874(3)
H50 H -0.2573 0.5266 0.3613
C53 C 0.5031(3) 0.2743(3) 0.1125(3)
C54 C 0.4856(4) 0.2479(3) 0.2123(3)
H51 H 0.4625 0.1852 0.2281
C55 C 0.5015(4) 0.3117(3) 0.2868(3)
H52 H 0.4881 0.2923 0.3518
C56 C 0.5374(4) 0.4049(3) 0.2657(4)
H53 H 0.5478 0.4481 0.3165
C57 C 0.5572(4) 0.4327(3) 0.1722(4)
H54 H 0.5826 0.4950 0.1590
C58 C 0.5403(4) 0.3698(3) 0.0928(3)
C59 C 0.5630(5) 0.3966(4) -0.0060(4)
H55 H 0.5890 0.4585 -0.0203
C60 C 0.5482(5) 0.3352(4) -0.0801(4)
H56 H 0.5657 0.3545 -0.1445
C61 C 0.5063(4) 0.2417(4) -0.0614(3)
C62 C 0.4835(4) 0.2101(3) 0.0338(3)
C63 C 0.4476(4) 0.1062(3) 0.0570(3)
H57 H 0.3793 0.1178 0.1133
C64 C 0.5875(4) 0.0136(3) 0.0847(3)
C65 C 0.5855(6) -0.0533(3) 0.1655(3)
H58 H 0.4999 -0.0408 0.2042
C66 C 0.7132(8) -0.1398(4) 0.1884(4)
H59 H 0.7131 -0.1833 0.2439
C67 C 0.8359(7) -0.1609(4) 0.1313(5)
H60 H 0.9186 -0.2201 0.1462
C68 C 0.8397(5) -0.0961(4) 0.0522(5)
H61 H 0.9257 -0.1106 0.0136
C69 C 0.7166(5) -0.0084(3) 0.0284(3)
H62 H 0.7208 0.0358 -0.0258
C70 C 0.2047(4) 0.1251(3) -0.0320(3)
H63 H 0.1860 0.2023 -0.0423
C71 C 0.1472(6) 0.0848(5) -0.1227(4)
H64 H 0.2022 0.0973 -0.1794
H65 H 0.0419 0.1221 -0.1323
H66 H 0.1611 0.0096 -0.1141
C72 C 0.1207(4) 0.1087(3) 0.0598(3)
C73 C 0.1590(5) 0.0127(3) 0.1132(4)
H67 H 0.2421 -0.0425 0.0939
C74 C 0.0789(5) -0.0041(3) 0.1937(4)
H68 H 0.1100 -0.0693 0.2287
C75 C -0.0481(4) 0.0753(3) 0.2232(3)
C76 C -0.0865(4) 0.1706(3) 0.1707(3)
H69 H -0.1707 0.2252 0.1896
C77 C -0.0053(4) 0.1885(3) 0.0910(3)
H70 H -0.0348 0.2547 0.0576
C78 C -0.1366(5) 0.0563(4) 0.3107(4)
H71 H -0.0909 -0.0146 0.3379
H72 H -0.2383 0.0639 0.2905
H73 H -0.1371 0.1076 0.3598
N3 N 0.3698(4) 0.0750(3) -0.0274(2)
H74 H 0.3882 0.0036 -0.0233
O3 O 0.4909(4) 0.1879(3) -0.14207(19)
H75 H 0.4449 0.1453 -0.1274
loop_
_geom_bond_atom_site_label_1
_geom_bond_atom_site_label_2
_geom_bond_site_symmetry_1
_geom_bond_site_symmetry_2
C1 C2 1_555 1_555
C2 H1 1_555 1_555
C3 C2 1_555 1_555
H2 C3 1_555 1_555
C4 C3 1_555 1_555
H3 C4 1_555 1_555
C5 C4 1_555 1_555
H4 C5 1_555 1_555
C6 C1 1_555 1_555
H5 C6 1_555 1_555
C7 C1 1_555 1_555
H6 C7 1_555 1_555
C8 C7 1_555 1_555
C9 C8 1_555 1_555
C10 C9 1_555 1_555
H7 C10 1_555 1_555
C11 C10 1_555 1_555
H8 C11 1_555 1_555
C12 C11 1_555 1_555
C13 C12 1_555 1_555
H9 C13 1_555 1_555
C14 C13 1_555 1_555
H10 C14 1_555 1_555
C15 C14 1_555 1_555
H11 C15 1_555 1_555
C16 C15 1_555 1_555
H12 C16 1_555 1_555
C17 C8 1_555 1_555
C18 H13 1_555 1_555
C19 C18 1_555 1_555
H14 C19 1_555 1_555
H15 C19 1_555 1_555
H16 C19 1_555 1_555
C20 C18 1_555 1_555
C21 C20 1_555 1_555
H17 C21 1_555 1_555
C22 C21 1_555 1_555
H18 C22 1_555 1_555
C23 C22 1_555 1_555
C24 C23 1_555 1_555
H19 C24 1_555 1_555
C25 C20 1_555 1_555
H20 C25 1_555 1_555
C26 C23 1_555 1_555
H21 C26 1_555 1_555
H22 C26 1_555 1_555
H23 C26 1_555 1_555
N1 C7 1_555 1_555
H24 N1 1_555 1_555
O1 C9 1_555 1_555
H25 O1 1_555 1_555
C27 C28 1_555 1_555
C28 H26 1_555 1_555
C29 C28 1_555 1_555
H27 C29 1_555 1_555
C30 C29 1_555 1_555
H28 C30 1_555 1_555
C31 C30 1_555 1_555
H29 C31 1_555 1_555
C32 C27 1_555 1_555
C33 C32 1_555 1_555
H30 C33 1_555 1_555
C34 C33 1_555 1_555
H31 C34 1_555 1_555
C35 C34 1_555 1_555
C36 C27 1_555 1_555
C37 C36 1_555 1_555
H32 C37 1_555 1_555
C38 C37 1_555 1_555
C39 C38 1_555 1_555
H33 C39 1_555 1_555
C40 C39 1_555 1_555
H34 C40 1_555 1_555
C41 C40 1_555 1_555
H35 C41 1_555 1_555
C42 C41 1_555 1_555
H36 C42 1_555 1_555
C43 C38 1_555 1_555
H37 C43 1_555 1_555
C44 H38 1_555 1_555
C45 C44 1_555 1_555
H39 C45 1_555 1_555
H40 C45 1_555 1_555
H41 C45 1_555 1_555
C46 C44 1_555 1_555
C47 C46 1_555 1_555
H42 C47 1_555 1_555
C48 C47 1_555 1_555
H43 C48 1_555 1_555
C49 C48 1_555 1_555
C50 C49 1_555 1_555
H44 C50 1_555 1_555
C51 C46 1_555 1_555
H45 C51 1_555 1_555
C52 C49 1_555 1_555
H46 C52 1_555 1_555
H47 C52 1_555 1_555
H48 C52 1_555 1_555
N2 C37 1_555 1_555
H49 N2 1_555 1_555
O2 C35 1_555 1_555
H50 O2 1_555 1_555
C53 C54 1_555 1_555
C54 H51 1_555 1_555
C55 C54 1_555 1_555
H52 C55 1_555 1_555
C56 C55 1_555 1_555
H53 C56 1_555 1_555
C57 C56 1_555 1_555
H54 C57 1_555 1_555
C58 C53 1_555 1_555
C59 C58 1_555 1_555
H55 C59 1_555 1_555
C60 C59 1_555 1_555
H56 C60 1_555 1_555
C61 C60 1_555 1_555
C62 C53 1_555 1_555
C63 C62 1_555 1_555
H57 C63 1_555 1_555
C64 C63 1_555 1_555
C65 C64 1_555 1_555
H58 C65 1_555 1_555
C66 C65 1_555 1_555
H59 C66 1_555 1_555
C67 C66 1_555 1_555
H60 C67 1_555 1_555
C68 C67 1_555 1_555
H61 C68 1_555 1_555
C69 C64 1_555 1_555
H62 C69 1_555 1_555
C70 H63 1_555 1_555
C71 C70 1_555 1_555
H64 C71 1_555 1_555
H65 C71 1_555 1_555
H66 C71 1_555 1_555
C72 C70 1_555 1_555
C73 C72 1_555 1_555
H67 C73 1_555 1_555
C74 C73 1_555 1_555
H68 C74 1_555 1_555
C75 C74 1_555 1_555
C76 C75 1_555 1_555
H69 C76 1_555 1_555
C77 C72 1_555 1_555
H70 C77 1_555 1_555
C78 C75 1_555 1_555
H71 C78 1_555 1_555
H72 C78 1_555 1_555
H73 C78 1_555 1_555
N3 C63 1_555 1_555
H74 N3 1_555 1_555
O3 C61 1_555 1_555
H75 O3 1_555 1_555
C5 C6 1_555 1_555
C12 C17 1_555 1_555
C16 C17 1_555 1_555
C18 N1 1_555 1_555
C24 C25 1_555 1_555
C31 C32 1_555 1_555
C35 C36 1_555 1_555
C42 C43 1_555 1_555
C44 N2 1_555 1_555
C50 C51 1_555 1_555
C57 C58 1_555 1_555
C61 C62 1_555 1_555
C68 C69 1_555 1_555
C70 N3 1_555 1_555
C76 C77 1_555 1_555

#END
