
#######################################################################
#
#                 Cambridge Crystallographic Data Centre
#                                CCDC 
#
#######################################################################
#
# If this CIF has been generated from an entry in the Cambridge 
# Structural Database, then it will include bibliographic, chemical, 
# crystal, experimental, refinement or atomic coordinate data resulting 
# from the CCDC's data processing and validation procedures.
#
#######################################################################

data_ROFZIW
_chemical_formula_moiety         'C24 H23 N1 O1'
_chemical_name_systematic        
4-Methyl-2-((E)-phenyl(1,2,3,4-tetrahydro-1-naphthylimino)methyl)phenol
_symmetry_cell_setting           triclinic
_symmetry_space_group_name_H-M   'P -1'
_symmetry_Int_Tables_number      2
_space_group_name_Hall           '-P 1'
loop_
_symmetry_equiv_pos_site_id
_symmetry_equiv_pos_as_xyz
1 x,y,z
2 -x,-y,-z
_cell_length_a                   10.121(3)
_cell_length_b                   10.370(2)
_cell_length_c                   10.482(2)
_cell_angle_alpha                95.181(3)
_cell_angle_beta                 112.830(3)
_cell_angle_gamma                106.243(4)
_cell_volume                     948.585
_exptl_crystal_colour            yellow
_exptl_crystal_description       block
_cell_formula_units_Z            2
_exptl_crystal_recrystallization_method ethanol
loop_
_atom_site_label
_atom_site_type_symbol
_atom_site_fract_x
_atom_site_fract_y
_atom_site_fract_z
C1 C 0.1262(2) 0.4914(2) 0.3438(2)
H1 H 0.1775 0.4751 0.4372
H2 H 0.1420 0.4344 0.2763
C2 C -0.0430(2) 0.4527(2) 0.3033(2)
H3 H -0.0832 0.3591 0.3121
H4 H -0.0595 0.5138 0.3668
C3 C -0.1248(2) 0.4641(2) 0.1520(2)
H5 H -0.1229 0.3917 0.0880
H6 H -0.2307 0.4505 0.1305
C4 C -0.0538(2) 0.60102(18) 0.12713(18)
C5 C -0.1381(2) 0.6473(2) 0.0128(2)
H7 H -0.2384 0.5927 -0.0470
C6 C -0.0767(3) 0.7713(2) -0.0136(2)
H8 H -0.1352 0.8004 -0.0905
C7 C 0.0713(3) 0.8527(2) 0.0731(2)
H9 H 0.1138 0.9368 0.0549
C8 C 0.1561(2) 0.8091(2) 0.1869(2)
H10 H 0.2563 0.8648 0.2459
C9 C 0.0960(2) 0.68399(18) 0.21587(18)
C10 C 0.19315(19) 0.64187(19) 0.34485(18)
H11 H 0.2032 0.6984 0.4305
C11 C 0.4687(2) 0.72766(17) 0.46336(18)
C12 C 0.47002(19) 0.76700(19) 0.60484(18)
C13 C 0.4491(2) 0.8879(2) 0.6440(2)
H12 H 0.4349 0.9471 0.5823
C14 C 0.4492(3) 0.9210(3) 0.7741(3)
H13 H 0.4349 1.0024 0.7999
C15 C 0.4702(3) 0.8349(4) 0.8654(3)
H14 H 0.4707 0.8582 0.9534
C16 C 0.4906(2) 0.7147(3) 0.8285(2)
H15 H 0.5039 0.6559 0.8907
C17 C 0.4912(2) 0.6809(2) 0.6982(2)
H16 H 0.5061 0.5995 0.6733
C18 C 0.61531(19) 0.75267(17) 0.45517(19)
C19 C 0.7536(2) 0.81930(18) 0.5754(2)
H17 H 0.7509 0.8483 0.6606
C20 C 0.8942(2) 0.8440(2) 0.5731(2)
C21 C 1.0404(2) 0.9151(2) 0.7060(2)
H18 H 1.0535 0.8547 0.7706
H19 H 1.0357 0.9978 0.7502
H20 H 1.1250 0.9379 0.6816
C22 C 0.8940(3) 0.7998(2) 0.4443(3)
H21 H 0.9868 0.8141 0.4397
C23 C 0.7608(3) 0.7353(2) 0.3232(3)
H22 H 0.7649 0.7068 0.2385
C24 C 0.6212(2) 0.7125(2) 0.3262(2)
N1 N 0.34550(17) 0.67080(15) 0.34810(15)
O1 O 0.49367(17) 0.65077(17) 0.20388(15)
H23 H 0.4183 0.6450 0.2182
loop_
_geom_bond_atom_site_label_1
_geom_bond_atom_site_label_2
_geom_bond_site_symmetry_1
_geom_bond_site_symmetry_2
C1 H1 1_555 1_555
H2 C1 1_555 1_555
C2 C1 1_555 1_555
H3 C2 1_555 1_555
H4 C2 1_555 1_555
C3 C2 1_555 1_555
H5 C3 1_555 1_555
H6 C3 1_555 1_555
C4 C3 1_555 1_555
C5 C4 1_555 1_555
H7 C5 1_555 1_555
C6 C5 1_555 1_555
H8 C6 1_555 1_555
C7 C6 1_555 1_555
H9 C7 1_555 1_555
C8 C7 1_555 1_555
H10 C8 1_555 1_555
C9 C4 1_555 1_555
C10 C1 1_555 1_555
H11 C10 1_555 1_555
C11 C12 1_555 1_555
C12 C13 1_555 1_555
C13 H12 1_555 1_555
C14 C13 1_555 1_555
H13 C14 1_555 1_555
C15 C14 1_555 1_555
H14 C15 1_555 1_555
C16 C15 1_555 1_555
H15 C16 1_555 1_555
C17 C12 1_555 1_555
H16 C17 1_555 1_555
C18 C11 1_555 1_555
C19 C18 1_555 1_555
H17 C19 1_555 1_555
C20 C19 1_555 1_555
C21 C20 1_555 1_555
H18 C21 1_555 1_555
H19 C21 1_555 1_555
H20 C21 1_555 1_555
C22 C20 1_555 1_555
H21 C22 1_555 1_555
C23 C22 1_555 1_555
H22 C23 1_555 1_555
C24 C18 1_555 1_555
N1 C10 1_555 1_555
O1 C24 1_555 1_555
H23 O1 1_555 1_555
C8 C9 1_555 1_555
C9 C10 1_555 1_555
C11 N1 1_555 1_555
C16 C17 1_555 1_555
C23 C24 1_555 1_555

#END
