
#######################################################################
#
#                 Cambridge Crystallographic Data Centre
#                                CCDC 
#
#######################################################################
#
# If this CIF has been generated from an entry in the Cambridge 
# Structural Database, then it will include bibliographic, chemical, 
# crystal, experimental, refinement or atomic coordinate data resulting 
# from the CCDC's data processing and validation procedures.
#
#######################################################################

data_ROGBAR
_chemical_formula_moiety         'C9 H18 N1 O1 1+,Cl1 1-'
_chemical_name_systematic        '4-Allyl-4-ethylmorpholinium chloride'
_symmetry_cell_setting           monoclinic
_symmetry_space_group_name_H-M   'P 21/n'
_symmetry_Int_Tables_number      14
_space_group_name_Hall           '-P 2yn'
loop_
_symmetry_equiv_pos_site_id
_symmetry_equiv_pos_as_xyz
1 x,y,z
2 1/2-x,1/2+y,1/2-z
3 -x,-y,-z
4 1/2+x,1/2-y,1/2+z
_cell_length_a                   8.5414(17)
_cell_length_b                   9.0391(18)
_cell_length_c                   13.124(3)
_cell_angle_alpha                90
_cell_angle_beta                 91.03(3)
_cell_angle_gamma                90
_cell_volume                     1013.1
_exptl_crystal_colour            colorless
_exptl_crystal_description       prism
_cell_formula_units_Z            4
_exptl_crystal_recrystallization_method ethanol/acetone
loop_
_atom_site_label
_atom_site_type_symbol
_atom_site_fract_x
_atom_site_fract_y
_atom_site_fract_z
Cl1 Cl 0.25140(4) 0.17741(4) 0.39587(3)
O1 O 1.03933(11) 0.39901(11) 0.64961(8)
N1 N 0.76318(13) 0.27908(13) 0.54538(9)
C1 C 0.79277(17) 0.44310(15) 0.56086(11)
H1 H 0.8448 0.4824 0.5016
H2 H 0.6932 0.4937 0.5668
C2 C 0.89224(17) 0.47404(15) 0.65487(11)
H3 H 0.9101 0.5797 0.6609
H4 H 0.8373 0.4415 0.7149
C3 C 1.01221(17) 0.24347(15) 0.64773(11)
H5 H 0.9565 0.2149 0.7084
H6 H 1.1119 0.1920 0.6484
C4 C 0.91803(16) 0.19804(15) 0.55435(11)
H7 H 0.8983 0.0924 0.5571
H8 H 0.9787 0.2177 0.4941
C5 C 0.65242(16) 0.21894(15) 0.62513(11)
H9 H 0.6438 0.1126 0.6169
H10 H 0.6970 0.2378 0.6924
C6 C 0.49194(17) 0.28520(16) 0.61896(11)
H11 H 0.4292 0.2668 0.5617
C7 C 0.43728(18) 0.36865(18) 0.69216(12)
H12 H 0.4988 0.3880 0.7498
H13 H 0.3371 0.4084 0.6863
C8 C 0.69654(17) 0.25945(16) 0.43820(11)
H14 H 0.5981 0.3127 0.4328
H15 H 0.7680 0.3041 0.3905
C9 C 0.66857(19) 0.10082(16) 0.40710(11)
H16 H 0.7662 0.0481 0.4085
H17 H 0.6241 0.0980 0.3394
H18 H 0.5976 0.0554 0.4536
loop_
_geom_bond_atom_site_label_1
_geom_bond_atom_site_label_2
_geom_bond_site_symmetry_1
_geom_bond_site_symmetry_2
O1 C2 1_555 1_555
N1 C1 1_555 1_555
C1 H1 1_555 1_555
H2 C1 1_555 1_555
C2 C1 1_555 1_555
H3 C2 1_555 1_555
H4 C2 1_555 1_555
C3 O1 1_555 1_555
H5 C3 1_555 1_555
H6 C3 1_555 1_555
C4 N1 1_555 1_555
H7 C4 1_555 1_555
H8 C4 1_555 1_555
C5 N1 1_555 1_555
H9 C5 1_555 1_555
H10 C5 1_555 1_555
C6 C5 1_555 1_555
H11 C6 1_555 1_555
C7 C6 1_555 1_555
H12 C7 1_555 1_555
H13 C7 1_555 1_555
C8 N1 1_555 1_555
H14 C8 1_555 1_555
H15 C8 1_555 1_555
C9 C8 1_555 1_555
H16 C9 1_555 1_555
H17 C9 1_555 1_555
H18 C9 1_555 1_555
C3 C4 1_555 1_555

#END
