
#######################################################################
#
#                 Cambridge Crystallographic Data Centre
#                                CCDC 
#
#######################################################################
#
# If this CIF has been generated from an entry in the Cambridge 
# Structural Database, then it will include bibliographic, chemical, 
# crystal, experimental, refinement or atomic coordinate data resulting 
# from the CCDC's data processing and validation procedures.
#
#######################################################################

data_ROGBIZ
_chemical_formula_moiety         'C19 H19 N1 P1 1+,I1 1-'
_chemical_name_systematic        
'(2-Aminophenyl)methyldiphenylphosphonium iodide'
_symmetry_cell_setting           monoclinic
_symmetry_space_group_name_H-M   'P 21/n'
_symmetry_Int_Tables_number      14
_space_group_name_Hall           '-P 2yn'
loop_
_symmetry_equiv_pos_site_id
_symmetry_equiv_pos_as_xyz
1 x,y,z
2 1/2-x,1/2+y,1/2-z
3 -x,-y,-z
4 1/2+x,1/2-y,1/2+z
_cell_length_a                   13.215(4)
_cell_length_b                   17.854(4)
_cell_length_c                   15.325(6)
_cell_angle_alpha                90
_cell_angle_beta                 93.385(14)
_cell_angle_gamma                90
_cell_volume                     3609.48
_exptl_crystal_colour            yellow
_exptl_crystal_description       block
_cell_formula_units_Z            8
_exptl_crystal_recrystallization_method ethanol
loop_
_atom_site_label
_atom_site_type_symbol
_atom_site_fract_x
_atom_site_fract_y
_atom_site_fract_z
I1 I 0.275253(16) -0.173440(9) 0.146444(14)
I2 I 0.246225(14) 0.039910(9) 0.389305(12)
P1 P 0.21547(4) -0.23074(3) 0.46752(4)
N1 N 0.2607(2) -0.33502(12) 0.30937(18)
H1 H 0.2768 -0.3620 0.2658
H2 H 0.2769 -0.2884 0.3115
C1 C 0.16106(17) -0.20039(12) 0.56607(16)
C2 C 0.0564(2) -0.19164(16) 0.5673(2)
H3 H 0.0159 -0.1986 0.5163
C3 C 0.0128(2) -0.17288(16) 0.6432(2)
H4 H -0.0571 -0.1671 0.6435
C4 C 0.0720(3) -0.16268(16) 0.7185(2)
H5 H 0.0422 -0.1507 0.7701
C5 C 0.1752(3) -0.17011(15) 0.7179(2)
H6 H 0.2153 -0.1627 0.7691
C6 C 0.2199(2) -0.18849(12) 0.64174(18)
H7 H 0.2900 -0.1929 0.6416
C7 C 0.34992(17) -0.22050(12) 0.48204(16)
C8 C 0.3946(2) -0.15029(15) 0.4743(2)
H8 H 0.3558 -0.1097 0.4541
C9 C 0.4958(2) -0.14136(17) 0.4966(2)
H9 H 0.5257 -0.0945 0.4924
C10 C 0.5530(2) -0.20159(19) 0.5252(2)
H10 H 0.6216 -0.1951 0.5406
C11 C 0.5107(2) -0.27100(17) 0.5314(2)
H11 H 0.5506 -0.3115 0.5501
C12 C 0.40877(19) -0.28112(14) 0.5101(2)
H12 H 0.3797 -0.3283 0.5144
C13 C 0.18399(17) -0.32710(11) 0.45066(16)
C14 C 0.13475(19) -0.36486(13) 0.51540(18)
H13 H 0.1178 -0.3391 0.5652
C15 C 0.1108(2) -0.43940(14) 0.5070(2)
H14 H 0.0775 -0.4639 0.5506
C16 C 0.1366(2) -0.47742(14) 0.4334(2)
H15 H 0.1208 -0.5280 0.4277
C17 C 0.18451(19) -0.44243(13) 0.3692(2)
H16 H 0.2011 -0.4696 0.3203
C18 C 0.20976(18) -0.36601(13) 0.37475(17)
C19 C 0.1658(2) -0.17182(13) 0.38091(19)
H17 H 0.1934 -0.1867 0.3270
H18 H 0.1839 -0.1207 0.3935
H19 H 0.0933 -0.1763 0.3757
P2 P 0.34957(4) -0.41826(3) 0.81596(4)
N2 N 0.30679(19) -0.30209(13) 0.96039(17)
H20 H 0.2868 -0.3479 0.9614
H21 H 0.2939 -0.2723 1.0024
C20 C 0.38306(17) -0.32116(12) 0.82121(17)
C21 C 0.43743(19) -0.28979(15) 0.75442(18)
H22 H 0.4531 -0.3191 0.7069
C22 C 0.4678(2) -0.21594(16) 0.7585(2)
H23 H 0.5032 -0.1953 0.7137
C23 C 0.4457(2) -0.17343(16) 0.8287(2)
H24 H 0.4676 -0.1240 0.8318
C24 C 0.3919(2) -0.20197(15) 0.8946(2)
H25 H 0.3772 -0.1714 0.9413
C25 C 0.35822(18) -0.27696(13) 0.89301(18)
C26 C 0.39532(19) -0.46171(13) 0.72040(17)
C27 C 0.4990(2) -0.47327(17) 0.7155(2)
H26 H 0.5445 -0.4541 0.7585
C28 C 0.5336(3) -0.5131(2) 0.6468(3)
H27 H 0.6028 -0.5203 0.6427
C29 C 0.4667(3) -0.54243(18) 0.5843(2)
H28 H 0.4910 -0.5706 0.5389
C30 C 0.3650(3) -0.53088(19) 0.5878(2)
H29 H 0.3202 -0.5507 0.5447
C31 C 0.3288(2) -0.48961(16) 0.65574(19)
H30 H 0.2596 -0.4807 0.6578
C32 C 0.21474(18) -0.42786(12) 0.81176(16)
C33 C 0.1681(2) -0.49125(14) 0.8414(2)
H31 H 0.2064 -0.5284 0.8703
C34 C 0.0645(2) -0.49951(17) 0.8283(2)
H32 H 0.0333 -0.5427 0.8475
C35 C 0.0070(2) -0.44431(18) 0.7870(2)
H33 H -0.0627 -0.4503 0.7782
C36 C 0.0522(2) -0.38083(17) 0.7588(2)
H34 H 0.0131 -0.3435 0.7313
C37 C 0.15576(19) -0.37169(15) 0.7709(2)
H35 H 0.1862 -0.3282 0.7519
C38 C 0.4077(2) -0.46872(15) 0.90723(18)
H36 H 0.3858 -0.4478 0.9607
H37 H 0.4801 -0.4648 0.9064
H38 H 0.3881 -0.5205 0.9033
loop_
_geom_bond_atom_site_label_1
_geom_bond_atom_site_label_2
_geom_bond_site_symmetry_1
_geom_bond_site_symmetry_2
P1 C1 1_555 1_555
N1 H1 1_555 1_555
H2 N1 1_555 1_555
C1 C2 1_555 1_555
C2 H3 1_555 1_555
C3 C2 1_555 1_555
H4 C3 1_555 1_555
C4 C3 1_555 1_555
H5 C4 1_555 1_555
C5 C4 1_555 1_555
H6 C5 1_555 1_555
C6 C1 1_555 1_555
H7 C6 1_555 1_555
C7 P1 1_555 1_555
C8 C7 1_555 1_555
H8 C8 1_555 1_555
C9 C8 1_555 1_555
H9 C9 1_555 1_555
C10 C9 1_555 1_555
H10 C10 1_555 1_555
C11 C10 1_555 1_555
H11 C11 1_555 1_555
C12 C7 1_555 1_555
H12 C12 1_555 1_555
C13 P1 1_555 1_555
C14 C13 1_555 1_555
H13 C14 1_555 1_555
C15 C14 1_555 1_555
H14 C15 1_555 1_555
C16 C15 1_555 1_555
H15 C16 1_555 1_555
C17 C16 1_555 1_555
H16 C17 1_555 1_555
C18 N1 1_555 1_555
C19 P1 1_555 1_555
H17 C19 1_555 1_555
H18 C19 1_555 1_555
H19 C19 1_555 1_555
P2 C20 1_555 1_555
N2 H20 1_555 1_555
H21 N2 1_555 1_555
C20 C21 1_555 1_555
C21 H22 1_555 1_555
C22 C21 1_555 1_555
H23 C22 1_555 1_555
C23 C22 1_555 1_555
H24 C23 1_555 1_555
C24 C23 1_555 1_555
H25 C24 1_555 1_555
C25 N2 1_555 1_555
C26 P2 1_555 1_555
C27 C26 1_555 1_555
H26 C27 1_555 1_555
C28 C27 1_555 1_555
H27 C28 1_555 1_555
C29 C28 1_555 1_555
H28 C29 1_555 1_555
C30 C29 1_555 1_555
H29 C30 1_555 1_555
C31 C26 1_555 1_555
H30 C31 1_555 1_555
C32 P2 1_555 1_555
C33 C32 1_555 1_555
H31 C33 1_555 1_555
C34 C33 1_555 1_555
H32 C34 1_555 1_555
C35 C34 1_555 1_555
H33 C35 1_555 1_555
C36 C35 1_555 1_555
H34 C36 1_555 1_555
C37 C32 1_555 1_555
H35 C37 1_555 1_555
C38 P2 1_555 1_555
H36 C38 1_555 1_555
H37 C38 1_555 1_555
H38 C38 1_555 1_555
C5 C6 1_555 1_555
C11 C12 1_555 1_555
C13 C18 1_555 1_555
C17 C18 1_555 1_555
C20 C25 1_555 1_555
C24 C25 1_555 1_555
C30 C31 1_555 1_555
C36 C37 1_555 1_555

#END
