
#######################################################################
#
#                 Cambridge Crystallographic Data Centre
#                                CCDC 
#
#######################################################################
#
# If this CIF has been generated from an entry in the Cambridge 
# Structural Database, then it will include bibliographic, chemical, 
# crystal, experimental, refinement or atomic coordinate data resulting 
# from the CCDC's data processing and validation procedures.
#
#######################################################################

data_ROGBAS
_chemical_formula_moiety         'C13 H17 Cl1 N2 O2'
_chemical_name_systematic        
4-Chloro-N-(2-methoxycyclohexyl)pyridine-2-carboxamide
_symmetry_cell_setting           triclinic
_symmetry_space_group_name_H-M   'P 1'
_symmetry_Int_Tables_number      1
_space_group_name_Hall           'P 1'
loop_
_symmetry_equiv_pos_site_id
_symmetry_equiv_pos_as_xyz
1 x,y,z
_cell_length_a                   8.0981(4)
_cell_length_b                   8.8180(7)
_cell_length_c                   10.4495(7)
_cell_angle_alpha                103.797(6)
_cell_angle_beta                 101.344(5)
_cell_angle_gamma                91.264(5)
_cell_volume                     708.636
_cell_formula_units_Z            2
loop_
_atom_site_label
_atom_site_type_symbol
_atom_site_fract_x
_atom_site_fract_y
_atom_site_fract_z
C1 C -0.8478(11) -1.1626(11) -1.1305(9)
H1 H -0.8487 -1.1016 -1.1977
C2 C -0.6891(10) -1.1184(9) -1.0243(7)
H2 H -0.6961 -1.1751 -0.9552
C3 C -0.5365(11) -1.1709(12) -1.0837(9)
H3 H -0.5244 -1.1127 -1.1496
H4 H -0.4359 -1.1457 -1.0125
C4 C -0.5481(19) -1.3418(15) -1.1494(12)
H5 H -0.5459 -1.4012 -1.0821
H6 H -0.4519 -1.3666 -1.1912
C5 C -0.708(2) -1.3863(14) -1.2538(13)
H7 H -0.7174 -1.4988 -1.2904
H8 H -0.7019 -1.3375 -1.3269
C6 C -0.8634(18) -1.3390(14) -1.2004(12)
H9 H -0.8794 -1.3989 -1.1365
H10 H -0.9614 -1.3623 -1.2740
C7 C -0.6093(8) -0.8947(9) -0.8275(7)
C8 C -0.5847(8) -0.7219(9) -0.7825(7)
C9 C -0.4964(8) -0.6512(10) -0.6550(7)
H11 H -0.4538 -0.7100 -0.5946
C10 C -0.4733(10) -0.4907(12) -0.6197(9)
C11 C -0.5397(12) -0.4040(11) -0.7057(11)
H12 H -0.5258 -0.2952 -0.6818
C12 C -0.6283(13) -0.4850(12) -0.8296(10)
H13 H -0.6754 -0.4273 -0.8897
C13 C -1.1064(19) -1.082(2) -1.1257(15)
H14 H -1.1272 -1.1451 -1.2168
H15 H -1.0910 -0.9740 -1.1253
H16 H -1.2010 -1.0973 -1.0861
Cl1 Cl -0.3462(12) -0.3947(12) -0.4633(8)
N1 N -0.6704(8) -0.9555(8) -0.9601(7)
H17 H -0.681(7) -0.899(7) -1.006(6)
N2 N -0.6521(8) -0.6405(9) -0.8708(6)
O1 O -0.5752(6) -0.9746(6) -0.7458(5)
O2 O -0.9811(9) -1.1210(11) -1.0617(9)
C14 C -0.9583(7) -0.8891(8) -1.6148(7)
H18 H -0.8920 -0.8883 -1.6836
C15 C -0.8747(7) -0.9821(8) -1.5221(6)
H19 H -0.9402 -0.9780 -1.4520
C16 C -0.8739(9) -1.1545(8) -1.5974(7)
H20 H -0.8072 -1.1619 -1.6660
H21 H -0.8222 -1.2136 -1.5347
C17 C -1.0505(12) -1.2232(10) -1.6622(9)
H22 H -1.1152 -1.2233 -1.5933
H23 H -1.0476 -1.3305 -1.7123
C18 C -1.1340(11) -1.1265(11) -1.7569(9)
H24 H -1.0725 -1.1319 -1.8285
H25 H -1.2486 -1.1701 -1.7976
C19 C -1.1372(8) -0.9594(9) -1.6836(7)
H26 H -1.2061 -0.9529 -1.6165
H27 H -1.1874 -0.9000 -1.7466
C20 C -0.6531(8) -0.8547(8) -1.3249(6)
C21 C -0.4746(7) -0.7897(7) -1.2760(6)
C22 C -0.4162(8) -0.7233(8) -1.1434(6)
H28 H -0.4870 -0.7156 -1.0824
C23 C -0.2497(10) -0.6675(10) -1.1012(7)
C24 C -0.1472(10) -0.6829(10) -1.1925(8)
H29 H -0.0330 -0.6505 -1.1649
C25 C -0.2154(9) -0.7457(10) -1.3225(8)
H30 H -0.1466 -0.7517 -1.3848
C26 C -0.9697(16) -0.6157(19) -1.6018(15)
H31 H -0.9164 -0.6443 -1.6776
H32 H -0.9143 -0.5205 -1.5418
H33 H -1.0864 -0.6004 -1.6327
Cl3 Cl -0.1775(9) -0.5627(15) -0.9320(6)
N3 N -0.7027(5) -0.9175(6) -1.4560(4)
H34 H -0.6290 -0.9205 -1.5055
N4 N -0.3787(6) -0.8010(7) -1.3682(5)
O3 O -0.7471(5) -0.8468(6) -1.2435(4)
O4 O -0.9584(6) -0.7331(6) -1.5351(5)
Cl2? Cl -0.406(3) -0.393(4) -0.456(3)
Cl4? Cl -0.145(3) -0.649(4) -0.938(2)
loop_
_geom_bond_atom_site_label_1
_geom_bond_atom_site_label_2
_geom_bond_site_symmetry_1
_geom_bond_site_symmetry_2
C1 H1 1_555 1_555
C2 C1 1_555 1_555
H2 C2 1_555 1_555
C3 C2 1_555 1_555
H3 C3 1_555 1_555
H4 C3 1_555 1_555
C4 C3 1_555 1_555
H5 C4 1_555 1_555
H6 C4 1_555 1_555
C5 C4 1_555 1_555
H7 C5 1_555 1_555
H8 C5 1_555 1_555
C6 C1 1_555 1_555
H9 C6 1_555 1_555
H10 C6 1_555 1_555
C7 C8 1_555 1_555
C8 C9 1_555 1_555
C9 H11 1_555 1_555
C10 C9 1_555 1_555
C11 C10 1_555 1_555
H12 C11 1_555 1_555
C12 C11 1_555 1_555
H13 C12 1_555 1_555
C13 H14 1_555 1_555
H15 C13 1_555 1_555
H16 C13 1_555 1_555
Cl1 C10 1_555 1_555
N1 C2 1_555 1_555
H17 N1 1_555 1_555
N2 C8 1_555 1_555
O1 C7 1_555 1_555
O2 C1 1_555 1_555
C14 H18 1_555 1_555
C15 C14 1_555 1_555
H19 C15 1_555 1_555
C16 C15 1_555 1_555
H20 C16 1_555 1_555
H21 C16 1_555 1_555
C17 C16 1_555 1_555
H22 C17 1_555 1_555
H23 C17 1_555 1_555
C18 C17 1_555 1_555
H24 C18 1_555 1_555
H25 C18 1_555 1_555
C19 C14 1_555 1_555
H26 C19 1_555 1_555
H27 C19 1_555 1_555
C20 C21 1_555 1_555
C21 C22 1_555 1_555
C22 H28 1_555 1_555
C23 C22 1_555 1_555
C24 C23 1_555 1_555
H29 C24 1_555 1_555
C25 C24 1_555 1_555
H30 C25 1_555 1_555
C26 H31 1_555 1_555
H32 C26 1_555 1_555
H33 C26 1_555 1_555
Cl3 C23 1_555 1_555
N3 C15 1_555 1_555
H34 N3 1_555 1_555
N4 C21 1_555 1_555
O3 C20 1_555 1_555
O4 C14 1_555 1_555
C5 C6 1_555 1_555
C7 N1 1_555 1_555
C12 N2 1_555 1_555
C13 O2 1_555 1_555
C18 C19 1_555 1_555
C20 N3 1_555 1_555
C25 N4 1_555 1_555
C26 O4 1_555 1_555

#END
