
#######################################################################
#
#                 Cambridge Crystallographic Data Centre
#                                CCDC 
#
#######################################################################
#
# If this CIF has been generated from an entry in the Cambridge 
# Structural Database, then it will include bibliographic, chemical, 
# crystal, experimental, refinement or atomic coordinate data resulting 
# from the CCDC's data processing and validation procedures.
#
#######################################################################

data_ROGDOH
_chemical_formula_moiety         'C7 H16 N1 O2 1+,Cl1 1-'
_chemical_name_systematic        '4-Hydroxyethyl-4-methylmorpholinium chloride'
_symmetry_cell_setting           orthorhombic
_symmetry_space_group_name_H-M   'P b c a'
_symmetry_Int_Tables_number      61
_space_group_name_Hall           '-P 2ac 2ab'
loop_
_symmetry_equiv_pos_site_id
_symmetry_equiv_pos_as_xyz
1 x,y,z
2 1/2-x,-y,1/2+z
3 -x,1/2+y,1/2-z
4 1/2+x,1/2-y,-z
5 -x,-y,-z
6 1/2+x,y,1/2-z
7 x,1/2-y,1/2+z
8 1/2-x,1/2+y,z
_cell_length_a                   12.181(2)
_cell_length_b                   12.452(3)
_cell_length_c                   23.856(5)
_cell_angle_alpha                90
_cell_angle_beta                 90
_cell_angle_gamma                90
_cell_volume                     3618.43
_exptl_crystal_colour            colorless
_exptl_crystal_description       prism
_cell_formula_units_Z            16
_exptl_crystal_recrystallization_method ethanol/acetone
loop_
_atom_site_label
_atom_site_type_symbol
_atom_site_fract_x
_atom_site_fract_y
_atom_site_fract_z
Cl1 Cl 0.68479(3) 0.09749(3) 0.579742(15)
Cl2 Cl 0.30866(3) 0.32732(3) 0.691066(15)
O1 O 0.99622(9) 0.31527(9) 1.03992(5)
O2 O 0.86105(10) -0.08159(9) 0.88818(5)
H1 H 0.8137 -0.1060 0.8673
N1 N 0.87164(10) 0.18106(9) 0.96226(5)
C1 C 0.92450(13) 0.13932(12) 1.01538(6)
H3 H 0.9974 0.1125 1.0068
H4 H 0.8814 0.0801 1.0300
C2 C 0.93275(14) 0.22648(12) 1.05946(6)
H5 H 0.8596 0.2510 1.0692
H6 H 0.9664 0.1972 1.0930
C3 C 0.94589(14) 0.36040(13) 0.99131(7)
H7 H 0.9889 0.4212 0.9785
H8 H 0.8732 0.3863 1.0009
C4 C 0.93669(13) 0.27905(12) 0.94444(6)
H9 H 1.0097 0.2570 0.9330
H10 H 0.9012 0.3122 0.9124
C5 C 0.75259(13) 0.20764(13) 0.97066(6)
H11 H 0.7147 0.1455 0.9846
H12 H 0.7209 0.2292 0.9356
H13 H 0.7460 0.2652 0.9972
C6 C 0.88210(13) 0.09905(11) 0.91578(6)
H14 H 0.9587 0.0786 0.9125
H15 H 0.8607 0.1327 0.8808
C7 C 0.81376(13) -0.00259(12) 0.92364(7)
H16 H 0.8160 -0.0259 0.9624
H17 H 0.7379 0.0104 0.9133
O3 O 1.09148(9) 0.15192(9) 0.74353(4)
O4 O 0.84900(10) -0.08501(10) 0.59544(5)
H2 H 0.8108 -0.0332 0.5870
N2 N 0.91549(10) 0.00400(9) 0.71337(5)
C8 C 0.98190(13) -0.00380(12) 0.76704(6)
H18 H 0.9364 -0.0341 0.7964
H19 H 1.0436 -0.0518 0.7611
C9 C 1.02402(13) 0.10464(12) 0.78564(6)
H20 H 0.9624 0.1516 0.7935
H21 H 1.0661 0.0965 0.8199
C10 C 1.02888(14) 0.16834(12) 0.69399(6)
H22 H 1.0744 0.2029 0.6659
H23 H 0.9677 0.2157 0.7022
C11 C 0.98544(13) 0.06294(12) 0.67078(6)
H24 H 0.9420 0.0772 0.6375
H25 H 1.0467 0.0177 0.6600
C12 C 0.80896(13) 0.06048(13) 0.72421(7)
H26 H 0.8231 0.1282 0.7421
H27 H 0.7639 0.0170 0.7482
H28 H 0.7716 0.0724 0.6893
C13 C 0.89419(14) -0.11115(12) 0.69480(6)
H29 H 0.9637 -0.1424 0.6835
H30 H 0.8683 -0.1513 0.7270
C14 C 0.81313(14) -0.12733(13) 0.64760(7)
H31 H 0.7994 -0.2036 0.6432
H32 H 0.7442 -0.0934 0.6577
loop_
_geom_bond_atom_site_label_1
_geom_bond_atom_site_label_2
_geom_bond_site_symmetry_1
_geom_bond_site_symmetry_2
O1 C2 1_555 1_555
O2 H1 1_555 1_555
O3 C9 1_555 1_555
O4 H2 1_555 1_555
N1 C1 1_555 1_555
N2 C8 1_555 1_555
C1 H3 1_555 1_555
H4 C1 1_555 1_555
C2 C1 1_555 1_555
H5 C2 1_555 1_555
H6 C2 1_555 1_555
C3 O1 1_555 1_555
H7 C3 1_555 1_555
H8 C3 1_555 1_555
C4 N1 1_555 1_555
H9 C4 1_555 1_555
H10 C4 1_555 1_555
C5 N1 1_555 1_555
H11 C5 1_555 1_555
H12 C5 1_555 1_555
H13 C5 1_555 1_555
C6 N1 1_555 1_555
H14 C6 1_555 1_555
H15 C6 1_555 1_555
C7 O2 1_555 1_555
H16 C7 1_555 1_555
H17 C7 1_555 1_555
C8 H18 1_555 1_555
H19 C8 1_555 1_555
C9 C8 1_555 1_555
H20 C9 1_555 1_555
H21 C9 1_555 1_555
C10 O3 1_555 1_555
H22 C10 1_555 1_555
H23 C10 1_555 1_555
C11 N2 1_555 1_555
H24 C11 1_555 1_555
H25 C11 1_555 1_555
C12 N2 1_555 1_555
H26 C12 1_555 1_555
H27 C12 1_555 1_555
H28 C12 1_555 1_555
C13 N2 1_555 1_555
H29 C13 1_555 1_555
H30 C13 1_555 1_555
C14 O4 1_555 1_555
H31 C14 1_555 1_555
H32 C14 1_555 1_555
C3 C4 1_555 1_555
C6 C7 1_555 1_555
C10 C11 1_555 1_555
C13 C14 1_555 1_555

#END
