
#######################################################################
#
#                 Cambridge Crystallographic Data Centre
#                                CCDC 
#
#######################################################################
#
# If this CIF has been generated from an entry in the Cambridge 
# Structural Database, then it will include bibliographic, chemical, 
# crystal, experimental, refinement or atomic coordinate data resulting 
# from the CCDC's data processing and validation procedures.
#
#######################################################################

data_ROGGAW
_chemical_formula_moiety         'C19 H22 Cl2 N1 O2 1+,Cl1 1-'
_chemical_name_systematic        
'(2SR,3RS)-Benzyl(4-chloro-1-(4-chlorophenyl)-1-methoxycarbonyl-2-butyl)ammonium chloride'
_symmetry_cell_setting           triclinic
_symmetry_space_group_name_H-M   'P -1'
_symmetry_Int_Tables_number      2
_space_group_name_Hall           '-P 1'
loop_
_symmetry_equiv_pos_site_id
_symmetry_equiv_pos_as_xyz
1 x,y,z
2 -x,-y,-z
_cell_length_a                   9.263(2)
_cell_length_b                   10.432(3)
_cell_length_c                   11.490(3)
_cell_angle_alpha                115.954(3)
_cell_angle_beta                 93.925(3)
_cell_angle_gamma                103.015(3)
_cell_volume                     954.834
_exptl_crystal_colour            colorless
_exptl_crystal_description       block
_cell_formula_units_Z            2
_exptl_crystal_recrystallization_method 'diethyl ether/methanol'
loop_
_atom_site_label
_atom_site_type_symbol
_atom_site_fract_x
_atom_site_fract_y
_atom_site_fract_z
Cl1 Cl 0.64470(8) 0.98821(8) 0.38456(7)
Cl2 Cl 0.26825(11) -0.01534(7) -0.06864(6)
O1 O 0.11480(18) 0.6582(2) 0.40412(15)
O2 O 0.28993(18) 0.62358(19) 0.52192(14)
N1 N 0.18786(18) 0.67376(17) 0.17013(15)
H1 H 0.1142 0.6505 0.2107
H2 H 0.1838 0.5903 0.0966
C1 C 0.2347(2) 0.6371(2) 0.41927(17)
C2 C 0.3435(2) 0.6218(2) 0.32432(17)
H3 H 0.4452 0.6583 0.3773
C3 C 0.3372(2) 0.7230(2) 0.25943(17)
H4 H 0.3497 0.8237 0.3299
C4 C 0.4634(2) 0.7305(2) 0.18192(19)
H5 H 0.4571 0.6302 0.1166
H6 H 0.4464 0.7852 0.1349
C5 C 0.6210(2) 0.8022(3) 0.2633(2)
H7 H 0.6930 0.8014 0.2058
H8 H 0.6418 0.7446 0.3064
C6 C 0.3211(2) 0.4594(2) 0.22692(18)
C7 C 0.4464(2) 0.4091(3) 0.1945(2)
H9 H 0.5425 0.4744 0.2344
C8 C 0.4308(3) 0.2642(3) 0.1046(2)
H10 H 0.5154 0.2315 0.0833
C9 C 0.2888(3) 0.1685(2) 0.0466(2)
C10 C 0.1623(3) 0.2137(3) 0.0776(2)
H11 H 0.0668 0.1469 0.0380
C11 C 0.1778(2) 0.3591(2) 0.1681(2)
H12 H 0.0925 0.3903 0.1899
C12 C 0.1968(3) 0.6398(3) 0.6215(2)
H13 H 0.2542 0.6480 0.6984
H14 H 0.1100 0.5545 0.5872
H15 H 0.1646 0.7278 0.6445
C13 C 0.1553(3) 0.7857(2) 0.1302(2)
H16 H 0.2240 0.7983 0.0735
H17 H 0.0535 0.7461 0.0790
C14 C 0.1697(2) 0.9353(2) 0.2434(2)
C15 C 0.0533(3) 0.9580(3) 0.3120(3)
H18 H -0.0319 0.8791 0.2907
C16 C 0.0627(4) 1.0968(3) 0.4118(3)
H19 H -0.0156 1.1104 0.4583
C17 C 0.1861(4) 1.2151(3) 0.4434(3)
H20 H 0.1906 1.3089 0.5097
C18 C 0.3036(3) 1.1941(3) 0.3761(2)
H21 H 0.3883 1.2736 0.3974
C19 C 0.2947(3) 1.0547(3) 0.2771(2)
H22 H 0.3742 1.0408 0.2322
Cl3 Cl 0.17315(6) 0.47020(7) -0.12520(5)
loop_
_geom_bond_atom_site_label_1
_geom_bond_atom_site_label_2
_geom_bond_site_symmetry_1
_geom_bond_site_symmetry_2
Cl1 C5 1_555 1_555
Cl2 C9 1_555 1_555
O1 C1 1_555 1_555
O2 C1 1_555 1_555
N1 H1 1_555 1_555
H2 N1 1_555 1_555
C1 C2 1_555 1_555
C2 H3 1_555 1_555
C3 N1 1_555 1_555
H4 C3 1_555 1_555
C4 C3 1_555 1_555
H5 C4 1_555 1_555
H6 C4 1_555 1_555
C5 C4 1_555 1_555
H7 C5 1_555 1_555
H8 C5 1_555 1_555
C6 C2 1_555 1_555
C7 C6 1_555 1_555
H9 C7 1_555 1_555
C8 C7 1_555 1_555
H10 C8 1_555 1_555
C9 C8 1_555 1_555
C10 C9 1_555 1_555
H11 C10 1_555 1_555
C11 C6 1_555 1_555
H12 C11 1_555 1_555
C12 O2 1_555 1_555
H13 C12 1_555 1_555
H14 C12 1_555 1_555
H15 C12 1_555 1_555
C13 N1 1_555 1_555
H16 C13 1_555 1_555
H17 C13 1_555 1_555
C14 C13 1_555 1_555
C15 C14 1_555 1_555
H18 C15 1_555 1_555
C16 C15 1_555 1_555
H19 C16 1_555 1_555
C17 C16 1_555 1_555
H20 C17 1_555 1_555
C18 C17 1_555 1_555
H21 C18 1_555 1_555
C19 C14 1_555 1_555
H22 C19 1_555 1_555
C2 C3 1_555 1_555
C10 C11 1_555 1_555
C18 C19 1_555 1_555

#END
