
#######################################################################
#
#                 Cambridge Crystallographic Data Centre
#                                CCDC 
#
#######################################################################
#
# If this CIF has been generated from an entry in the Cambridge 
# Structural Database, then it will include bibliographic, chemical, 
# crystal, experimental, refinement or atomic coordinate data resulting 
# from the CCDC's data processing and validation procedures.
#
#######################################################################

data_ROGJIH
_chemical_formula_moiety         'C21 H16 N4 O2'
_chemical_name_systematic        
6,7-Dihydro-4-(4-methoxyphenyl)-3-methyl-6-oxo-1-phenyl-1H-pyrazolo(3,4-b)pyridine-5-carbonitrile
_symmetry_cell_setting           triclinic
_symmetry_space_group_name_H-M   'P -1'
_symmetry_Int_Tables_number      2
_space_group_name_Hall           '-P 1'
loop_
_symmetry_equiv_pos_site_id
_symmetry_equiv_pos_as_xyz
1 x,y,z
2 -x,-y,-z
_cell_length_a                   7.0621(11)
_cell_length_b                   11.0272(17)
_cell_length_c                   12.1743(19)
_cell_angle_alpha                68.467(2)
_cell_angle_beta                 78.949(2)
_cell_angle_gamma                87.471(2)
_cell_volume                     865.196
_exptl_crystal_colour            colorless
_exptl_crystal_description       block
_cell_formula_units_Z            2
_exptl_crystal_recrystallization_method 'ethyl acetate/ethanol'
loop_
_atom_site_label
_atom_site_type_symbol
_atom_site_fract_x
_atom_site_fract_y
_atom_site_fract_z
C1 C 0.2756(2) 0.56351(17) 0.91520(16)
C2 C 0.4579(2) 0.63083(17) 0.84855(16)
C3 C 0.5717(2) 0.60459(16) 0.75386(16)
C4 C 0.5056(2) 0.50171(17) 0.72613(16)
C5 C 0.3325(2) 0.43515(16) 0.79290(15)
C6 C 0.5776(3) 0.43251(18) 0.64820(17)
C7 C 0.5055(3) 0.7343(2) 0.88358(19)
C8 C 0.7609(3) 0.4528(2) 0.55762(19)
H1 H 0.7738 0.3832 0.5273
H2 H 0.8686 0.4537 0.5950
H3 H 0.7580 0.5345 0.4924
C9 C 0.1563(3) 0.23971(18) 0.79607(16)
C10 C -0.0341(3) 0.2728(2) 0.81733(18)
H4 H -0.0665 0.3585 0.8065
C11 C -0.1762(3) 0.1761(3) 0.8550(2)
H5 H -0.3052 0.1966 0.8713
C12 C -0.1284(5) 0.0504(3) 0.8685(2)
H6 H -0.2250 -0.0137 0.8923
C13 C 0.0630(5) 0.0186(2) 0.8470(2)
H7 H 0.0947 -0.0670 0.8567
C14 C 0.2069(3) 0.1128(2) 0.81120(19)
H8 H 0.3360 0.0915 0.7975
C15 C 0.7532(2) 0.68056(16) 0.68722(16)
C16 C 0.8942(3) 0.69110(18) 0.74930(17)
H9 H 0.8741 0.6498 0.8325
C17 C 1.0627(3) 0.76181(18) 0.68909(17)
H10 H 1.1553 0.7678 0.7320
C18 C 1.0963(2) 0.82417(17) 0.56554(17)
C19 C 0.9568(3) 0.81699(17) 0.50216(17)
H11 H 0.9768 0.8600 0.4192
C20 C 0.7868(3) 0.74526(17) 0.56307(16)
H12 H 0.6936 0.7404 0.5201
C21 C 1.3193(3) 0.9516(2) 0.39001(19)
H13 H 1.3223 0.8877 0.3534
H14 H 1.4440 0.9940 0.3686
H15 H 1.2248 1.0151 0.3623
N1 N 0.22050(19) 0.46471(13) 0.88333(13)
H16 H 0.1144 0.4213 0.9209
N2 N 0.3060(2) 0.33757(15) 0.75584(14)
N3 N 0.4599(2) 0.33551(16) 0.66572(14)
N4 N 0.5383(3) 0.8162(2) 0.9136(2)
O1 O 0.17078(18) 0.59323(13) 0.99468(12)
O2 O 1.27013(19) 0.88929(14) 0.51707(13)
loop_
_geom_bond_atom_site_label_1
_geom_bond_atom_site_label_2
_geom_bond_site_symmetry_1
_geom_bond_site_symmetry_2
C1 C2 1_555 1_555
C2 C3 1_555 1_555
C3 C4 1_555 1_555
C4 C5 1_555 1_555
C5 N1 1_555 1_555
C6 C4 1_555 1_555
C7 C2 1_555 1_555
C8 C6 1_555 1_555
H1 C8 1_555 1_555
H2 C8 1_555 1_555
H3 C8 1_555 1_555
C9 C10 1_555 1_555
C10 H4 1_555 1_555
C11 C10 1_555 1_555
H5 C11 1_555 1_555
C12 C11 1_555 1_555
H6 C12 1_555 1_555
C13 C12 1_555 1_555
H7 C13 1_555 1_555
C14 C9 1_555 1_555
H8 C14 1_555 1_555
C15 C3 1_555 1_555
C16 C15 1_555 1_555
H9 C16 1_555 1_555
C17 C16 1_555 1_555
H10 C17 1_555 1_555
C18 C17 1_555 1_555
C19 C18 1_555 1_555
H11 C19 1_555 1_555
C20 C15 1_555 1_555
H12 C20 1_555 1_555
C21 H13 1_555 1_555
H14 C21 1_555 1_555
H15 C21 1_555 1_555
N1 C1 1_555 1_555
H16 N1 1_555 1_555
N2 C5 1_555 1_555
N3 C6 1_555 1_555
N4 C7 1_555 1_555
O1 C1 1_555 1_555
O2 C18 1_555 1_555
C9 N2 1_555 1_555
C13 C14 1_555 1_555
C19 C20 1_555 1_555
C21 O2 1_555 1_555
N2 N3 1_555 1_555

#END
