
#######################################################################
#
#                 Cambridge Crystallographic Data Centre
#                                CCDC 
#
#######################################################################
#
# If this CIF has been generated from an entry in the Cambridge 
# Structural Database, then it will include bibliographic, chemical, 
# crystal, experimental, refinement or atomic coordinate data resulting 
# from the CCDC's data processing and validation procedures.
#
#######################################################################

data_ROGMIK
_chemical_formula_moiety         'C17 H26 N2 O2 S1'
_chemical_name_systematic        
(S)-1-(t-butylsulfinyl)-N-(3,5-dimethylphenyl)prolinamide
_symmetry_cell_setting           monoclinic
_symmetry_space_group_name_H-M   'P 21'
_symmetry_Int_Tables_number      4
_space_group_name_Hall           'P 2yb'
loop_
_symmetry_equiv_pos_site_id
_symmetry_equiv_pos_as_xyz
1 x,y,z
2 -x,1/2+y,-z
_cell_length_a                   9.037(4)
_cell_length_b                   9.405(4)
_cell_length_c                   11.028(3)
_cell_angle_alpha                90
_cell_angle_beta                 94.22(4)
_cell_angle_gamma                90
_cell_volume                     934.761
_exptl_crystal_colour            colorless
_exptl_crystal_description       block
_cell_formula_units_Z            2
loop_
_atom_site_label
_atom_site_type_symbol
_atom_site_fract_x
_atom_site_fract_y
_atom_site_fract_z
S1 S 0.39317(9) 0.57754(10) 0.20200(8)
O1 O 0.6329(3) 0.9053(4) 0.3543(2)
O2 O 0.4117(3) 0.5652(4) 0.0704(2)
N1 N 0.6989(3) 0.9999(3) 0.1767(3)
H1 H 0.6777 0.9952 0.0995
N2 N 0.4059(3) 0.7467(4) 0.2437(3)
C1 C 0.8848(4) 1.1647(5) 0.1253(4)
H2 H 0.8503 1.1521 0.0445
C2 C 1.0003(5) 1.2589(5) 0.1533(5)
C3 C 1.0490(5) 1.2766(5) 0.2743(4)
H3 H 1.1247 1.3412 0.2947
C4 C 0.9880(4) 1.2011(5) 0.3650(4)
C5 C 0.8720(4) 1.1054(5) 0.3351(4)
H4 H 0.8303 1.0533 0.3956
C6 C 0.8201(4) 1.0894(4) 0.2146(3)
C7 C 1.0686(8) 1.3390(8) 0.0539(6)
H5 H 1.0405 1.4373 0.0570
H6 H 1.0344 1.2997 -0.0235
H7 H 1.1747 1.3313 0.0646
C8 C 1.0431(6) 1.2207(9) 0.4966(5)
H8 H 1.1430 1.2561 0.5010
H9 H 1.0409 1.1310 0.5380
H10 H 0.9805 1.2873 0.5344
C9 C 0.6127(4) 0.9215(4) 0.2452(3)
C10 C 0.4807(4) 0.8516(4) 0.1710(3)
H11 H 0.5145 0.8068 0.0977
C11 C 0.3575(5) 0.9593(5) 0.1366(4)
H12 H 0.3983 1.0529 0.1232
H13 H 0.2986 0.9297 0.0639
C12 C 0.2691(6) 0.9588(6) 0.2423(5)
H14 H 0.1685 0.9898 0.2197
H15 H 0.3123 1.0218 0.3049
C13 C 0.2701(5) 0.8068(5) 0.2873(4)
H16 H 0.2727 0.8035 0.3754
H17 H 0.1832 0.7557 0.2538
C14 C 0.5600(6) 0.4966(5) 0.2773(4)
C15 C 0.5580(8) 0.5290(9) 0.4115(4)
H18 H 0.6407 0.4832 0.4550
H19 H 0.4672 0.4945 0.4408
H20 H 0.5647 0.6299 0.4238
C16 C 0.5361(8) 0.3358(7) 0.2496(7)
H21 H 0.5414 0.3193 0.1641
H22 H 0.4404 0.3072 0.2733
H23 H 0.6118 0.2814 0.2942
C17 C 0.7000(5) 0.5534(7) 0.2242(4)
H24 H 0.7247 0.6447 0.2591
H25 H 0.6827 0.5627 0.1376
H26 H 0.7806 0.4886 0.2426
loop_
_geom_bond_atom_site_label_1
_geom_bond_atom_site_label_2
_geom_bond_site_symmetry_1
_geom_bond_site_symmetry_2
S1 O2 1_555 1_555
O1 C9 1_555 1_555
N1 H1 1_555 1_555
N2 S1 1_555 1_555
C1 H2 1_555 1_555
C2 C1 1_555 1_555
C3 C2 1_555 1_555
H3 C3 1_555 1_555
C4 C3 1_555 1_555
C5 C4 1_555 1_555
H4 C5 1_555 1_555
C6 N1 1_555 1_555
C7 C2 1_555 1_555
H5 C7 1_555 1_555
H6 C7 1_555 1_555
H7 C7 1_555 1_555
C8 C4 1_555 1_555
H8 C8 1_555 1_555
H9 C8 1_555 1_555
H10 C8 1_555 1_555
C9 N1 1_555 1_555
C10 N2 1_555 1_555
H11 C10 1_555 1_555
C11 C10 1_555 1_555
H12 C11 1_555 1_555
H13 C11 1_555 1_555
C12 C11 1_555 1_555
H14 C12 1_555 1_555
H15 C12 1_555 1_555
C13 N2 1_555 1_555
H16 C13 1_555 1_555
H17 C13 1_555 1_555
C14 S1 1_555 1_555
C15 C14 1_555 1_555
H18 C15 1_555 1_555
H19 C15 1_555 1_555
H20 C15 1_555 1_555
C16 C14 1_555 1_555
H21 C16 1_555 1_555
H22 C16 1_555 1_555
H23 C16 1_555 1_555
C17 C14 1_555 1_555
H24 C17 1_555 1_555
H25 C17 1_555 1_555
H26 C17 1_555 1_555
C1 C6 1_555 1_555
C5 C6 1_555 1_555
C9 C10 1_555 1_555
C12 C13 1_555 1_555

#END
