
#######################################################################
#
#                 Cambridge Crystallographic Data Centre
#                                CCDC 
#
#######################################################################
#
# If this CIF has been generated from an entry in the Cambridge 
# Structural Database, then it will include bibliographic, chemical, 
# crystal, experimental, refinement or atomic coordinate data resulting 
# from the CCDC's data processing and validation procedures.
#
#######################################################################

data_ROGQUB
_chemical_formula_moiety         'C48 H45 N3 O1,0.25(C7 H8)'
_chemical_name_systematic        
'3,6-Di-t-butyl-9-(4-(4-(4-(5-(4-t-butylphenyl)-1,3,4-oxadiazol-2-yl)phenyl)buta-1,3-diyn-1-yl)phenyl)-9H-carbazole toulene solvate'
_symmetry_cell_setting           monoclinic
_symmetry_space_group_name_H-M   'P 2/c'
_symmetry_Int_Tables_number      13
_space_group_name_Hall           '-P 2yc'
loop_
_symmetry_equiv_pos_site_id
_symmetry_equiv_pos_as_xyz
1 x,y,z
2 -x,y,1/2-z
3 -x,-y,-z
4 x,-y,1/2+z
_cell_length_a                   27.2611(7)
_cell_length_b                   5.7786(2)
_cell_length_c                   26.0035(6)
_cell_angle_alpha                90
_cell_angle_beta                 101.6460(18)
_cell_angle_gamma                90
_cell_volume                     4012.03
_exptl_crystal_colour            colorless
_exptl_crystal_description       needle
_cell_formula_units_Z            4
_exptl_crystal_recrystallization_method toluene/acetonitrile
loop_
_atom_site_label
_atom_site_type_symbol
_atom_site_fract_x
_atom_site_fract_y
_atom_site_fract_z
O1 O 0.38573(6) -1.0150(3) 0.35871(6)
N1 N 0.81145(7) 0.8428(3) 0.51380(7)
N2 N 0.34969(8) -0.8867(4) 0.42229(8)
N3 N 0.32241(8) -1.0790(4) 0.39811(8)
C1 C 0.80434(9) 0.9577(4) 0.60539(9)
H1 H 0.7753 0.8681 0.6064
C2 C 0.82664(9) 1.0936(4) 0.64746(9)
H2 H 0.8123 1.0945 0.6779
C3 C 0.86934(9) 1.2304(4) 0.64775(8)
C4 C 0.88902(8) 1.2324(4) 0.60272(8)
H3 H 0.9173 1.3265 0.6013
C5 C 0.91533(9) 1.1554(4) 0.48234(8)
H4 H 0.9388 1.2650 0.4999
C6 C 0.91743(8) 1.0858(4) 0.43179(8)
C7 C 0.88174(9) 0.9238(4) 0.40705(8)
H5 H 0.8831 0.8751 0.3725
C8 C 0.84502(9) 0.8325(4) 0.43050(8)
H6 H 0.8216 0.7224 0.4129
C9 C 0.84360(9) 0.9079(4) 0.48088(9)
C10 C 0.87876(9) 1.0651(4) 0.50753(8)
C11 C 0.86779(9) 1.0975(4) 0.55923(8)
C12 C 0.82623(9) 0.9581(4) 0.56159(8)
C13 C 0.95589(9) 1.1807(4) 0.40196(8)
C14 C 0.98654(9) 0.9816(4) 0.38530(9)
H7 H 0.9641 0.8734 0.3630
H8 H 1.0044 0.9004 0.4166
H9 H 1.0108 1.0440 0.3657
C15 C 0.99266(9) 1.3484(4) 0.43486(9)
H10 H 1.0167 1.4033 0.4141
H11 H 1.0107 1.2690 0.4663
H12 H 0.9743 1.4806 0.4452
C16 C 0.92845(9) 1.3076(4) 0.35266(9)
H13 H 0.9057 1.1999 0.3305
H14 H 0.9529 1.3671 0.3330
H15 H 0.9092 1.4367 0.3630
C17 C 0.89303(8) 1.3634(4) 0.69744(8)
C18 C 0.93356(9) 1.5317(4) 0.68780(9)
H16 H 0.9189 1.6426 0.6605
H17 H 0.9604 1.4455 0.6764
H18 H 0.9472 1.6151 0.7204
C19 C 0.91725(10) 1.1882(4) 0.73939(9)
H19 H 0.9430 1.0997 0.7266
H20 H 0.8916 1.0823 0.7470
H21 H 0.9326 1.2712 0.7715
C20 C 0.85343(9) 1.5021(4) 0.71800(9)
H22 H 0.8694 1.5899 0.7491
H23 H 0.8285 1.3964 0.7273
H24 H 0.8370 1.6092 0.6907
C21 C 0.76873(9) 0.6976(4) 0.49986(9)
C22 C 0.73047(10) 0.7609(4) 0.45914(9)
H25 H 0.7325 0.9023 0.4411
C23 C 0.68907(10) 0.6191(5) 0.44441(9)
H26 H 0.6628 0.6624 0.4161
C24 C 0.68609(9) 0.4131(4) 0.47122(9)
C25 C 0.72455(10) 0.3527(4) 0.51260(9)
H27 H 0.7225 0.2130 0.5313
C26 C 0.76586(9) 0.4951(4) 0.52675(9)
H28 H 0.7922 0.4529 0.5550
C27 C 0.64362(10) 0.2617(5) 0.45729(9)
C28 C 0.60992(11) 0.1265(5) 0.44861(10)
C29 C 0.57157(11) -0.0349(5) 0.44015(10)
C30 C 0.53871(11) -0.1744(5) 0.43373(10)
C31 C 0.49962(10) -0.3460(5) 0.42473(10)
C32 C 0.50108(10) -0.5230(5) 0.38931(11)
H29 H 0.5279 -0.5299 0.3710
C33 C 0.46406(10) -0.6900(5) 0.38018(10)
H30 H 0.4654 -0.8103 0.3556
C34 C 0.42509(9) -0.6815(4) 0.40697(9)
C35 C 0.42342(10) -0.5059(5) 0.44278(9)
H31 H 0.3968 -0.5008 0.4614
C36 C 0.46016(10) -0.3385(5) 0.45160(9)
H32 H 0.4586 -0.2177 0.4760
C37 C 0.38601(10) -0.8568(4) 0.39791(9)
C38 C 0.34482(10) -1.1480(4) 0.36173(10)
C39 C 0.33051(9) -1.3349(4) 0.32410(9)
C40 C 0.35313(9) -1.3652(4) 0.28154(10)
H33 H 0.3814 -1.2738 0.2785
C41 C 0.33501(10) -1.5269(5) 0.24358(10)
H34 H 0.3511 -1.5442 0.2146
C42 C 0.29390(9) -1.6657(4) 0.24622(9)
C43 C 0.27396(9) -1.6426(4) 0.29092(9)
H35 H 0.2474 -1.7423 0.2954
C44 C 0.29127(9) -1.4796(4) 0.32926(9)
H36 H 0.2763 -1.4668 0.3591
C45 C 0.27004(10) -1.8196(4) 0.20021(9)
C46 C 0.23735(10) -1.6659(5) 0.15851(9)
H37 H 0.2217 -1.7613 0.1285
H38 H 0.2582 -1.5469 0.1467
H39 H 0.2113 -1.5917 0.1737
C47 C 0.31034(11) -1.9377(5) 0.17596(10)
H40 H 0.3345 -2.0154 0.2035
H41 H 0.3277 -1.8212 0.1588
H42 H 0.2946 -2.0520 0.1499
C48 C 0.23654(10) -2.0075(4) 0.21657(9)
H43 H 0.2563 -2.1025 0.2445
H44 H 0.2230 -2.1055 0.1863
H45 H 0.2089 -1.9341 0.2295
loop_
_geom_bond_atom_site_label_1
_geom_bond_atom_site_label_2
_geom_bond_site_symmetry_1
_geom_bond_site_symmetry_2
O1 C37 1_555 1_555
N1 C9 1_555 1_555
N2 N3 1_555 1_555
N3 C38 1_555 1_555
C1 H1 1_555 1_555
C2 C1 1_555 1_555
H2 C2 1_555 1_555
C3 C2 1_555 1_555
C4 C3 1_555 1_555
H3 C4 1_555 1_555
C5 H4 1_555 1_555
C6 C5 1_555 1_555
C7 C6 1_555 1_555
H5 C7 1_555 1_555
C8 C7 1_555 1_555
H6 C8 1_555 1_555
C9 C8 1_555 1_555
C10 C5 1_555 1_555
C11 C4 1_555 1_555
C12 N1 1_555 1_555
C13 C6 1_555 1_555
C14 C13 1_555 1_555
H7 C14 1_555 1_555
H8 C14 1_555 1_555
H9 C14 1_555 1_555
C15 C13 1_555 1_555
H10 C15 1_555 1_555
H11 C15 1_555 1_555
H12 C15 1_555 1_555
C16 C13 1_555 1_555
H13 C16 1_555 1_555
H14 C16 1_555 1_555
H15 C16 1_555 1_555
C17 C3 1_555 1_555
C18 C17 1_555 1_555
H16 C18 1_555 1_555
H17 C18 1_555 1_555
H18 C18 1_555 1_555
C19 C17 1_555 1_555
H19 C19 1_555 1_555
H20 C19 1_555 1_555
H21 C19 1_555 1_555
C20 C17 1_555 1_555
H22 C20 1_555 1_555
H23 C20 1_555 1_555
H24 C20 1_555 1_555
C21 N1 1_555 1_555
C22 C21 1_555 1_555
H25 C22 1_555 1_555
C23 C22 1_555 1_555
H26 C23 1_555 1_555
C24 C23 1_555 1_555
C25 C24 1_555 1_555
H27 C25 1_555 1_555
C26 C21 1_555 1_555
H28 C26 1_555 1_555
C27 C24 1_555 1_555
C28 C27 1_555 1_555
C29 C28 1_555 1_555
C30 C29 1_555 1_555
C31 C30 1_555 1_555
C32 C31 1_555 1_555
H29 C32 1_555 1_555
C33 C32 1_555 1_555
H30 C33 1_555 1_555
C34 C33 1_555 1_555
C35 C34 1_555 1_555
H31 C35 1_555 1_555
C36 C31 1_555 1_555
H32 C36 1_555 1_555
C37 N2 1_555 1_555
C38 O1 1_555 1_555
C39 C38 1_555 1_555
C40 C39 1_555 1_555
H33 C40 1_555 1_555
C41 C40 1_555 1_555
H34 C41 1_555 1_555
C42 C41 1_555 1_555
C43 C42 1_555 1_555
H35 C43 1_555 1_555
C44 C39 1_555 1_555
H36 C44 1_555 1_555
C45 C42 1_555 1_555
C46 C45 1_555 1_555
H37 C46 1_555 1_555
H38 C46 1_555 1_555
H39 C46 1_555 1_555
C47 C45 1_555 1_555
H40 C47 1_555 1_555
H41 C47 1_555 1_555
H42 C47 1_555 1_555
C48 C45 1_555 1_555
H43 C48 1_555 1_555
H44 C48 1_555 1_555
H45 C48 1_555 1_555
C1 C12 1_555 1_555
C9 C10 1_555 1_555
C10 C11 1_555 1_555
C11 C12 1_555 1_555
C25 C26 1_555 1_555
C34 C37 1_555 1_555
C35 C36 1_555 1_555
C43 C44 1_555 1_555

#END
