
#######################################################################
#
#                 Cambridge Crystallographic Data Centre
#                                CCDC 
#
#######################################################################
#
# If this CIF has been generated from an entry in the Cambridge 
# Structural Database, then it will include bibliographic, chemical, 
# crystal, experimental, refinement or atomic coordinate data resulting 
# from the CCDC's data processing and validation procedures.
#
#######################################################################

data_ROHJAB
_chemical_formula_moiety         'C26 H28 F2'
_chemical_name_systematic        
9,10-bis(4-fluorophenyl)tricyclo[8.3.1.0^2,8^]tetradec-2(8)-ene
_symmetry_cell_setting           triclinic
_symmetry_space_group_name_H-M   'P -1'
_symmetry_Int_Tables_number      2
_space_group_name_Hall           '-P 1'
loop_
_symmetry_equiv_pos_site_id
_symmetry_equiv_pos_as_xyz
1 x,y,z
2 -x,-y,-z
_cell_length_a                   5.9880(2)
_cell_length_b                   10.6331(4)
_cell_length_c                   15.6614(6)
_cell_angle_alpha                84.310(3)
_cell_angle_beta                 85.535(3)
_cell_angle_gamma                81.296(3)
_cell_volume                     978.832
_exptl_crystal_colour            colorless
_exptl_crystal_description       prism
_cell_formula_units_Z            2
loop_
_atom_site_label
_atom_site_type_symbol
_atom_site_fract_x
_atom_site_fract_y
_atom_site_fract_z
C1 C 1.0789(4) 0.18599(18) 0.92347(12)
C2 C 1.1475(3) 0.30431(18) 0.91116(12)
H1 H 1.2756 0.3215 0.9378
C3 C 1.0245(3) 0.39803(17) 0.85864(12)
H2 H 1.0674 0.4810 0.8505
C4 C 0.8405(3) 0.37379(16) 0.81772(11)
C5 C 0.7757(3) 0.25252(17) 0.83343(12)
H3 H 0.6474 0.2344 0.8074
C6 C 0.8958(4) 0.15776(18) 0.88663(12)
H4 H 0.8513 0.0753 0.8970
C7 C 0.7145(3) 0.47608(16) 0.75627(11)
H5 H 0.5611 0.4516 0.7520
C8 C 0.6783(3) 0.60249(16) 0.79684(11)
C9 C 0.5336(3) 0.60165(18) 0.88047(12)
H6 H 0.6232 0.6230 0.9262
H7 H 0.4984 0.5140 0.8961
C10 C 0.3115(3) 0.69364(18) 0.87915(14)
H8 H 0.2086 0.6665 0.9278
H9 H 0.2390 0.6873 0.8253
C11 C 0.3379(4) 0.83284(19) 0.88515(14)
H10 H 0.1852 0.8838 0.8881
H11 H 0.4073 0.8389 0.9397
C12 C 0.4792(3) 0.89274(18) 0.81183(14)
H12 H 0.4745 0.9843 0.8199
H13 H 0.4097 0.8876 0.7572
C13 C 0.7277(3) 0.83030(17) 0.80396(13)
H14 H 0.8168 0.8910 0.7697
H15 H 0.7857 0.8154 0.8622
C14 C 0.7686(3) 0.70498(16) 0.76294(12)
C15 C 0.9038(3) 0.70480(17) 0.67738(12)
H16 H 1.0264 0.7587 0.6787
C16 C 0.7487(3) 0.76270(18) 0.60522(13)
H17 H 0.6807 0.8508 0.6165
H18 H 0.8386 0.7665 0.5495
C17 C 0.5622(3) 0.68108(18) 0.60108(12)
H19 H 0.4578 0.6893 0.6531
H20 H 0.4744 0.7126 0.5503
C18 C 0.6588(3) 0.54052(17) 0.59510(12)
H21 H 0.7337 0.5311 0.5370
H22 H 0.5313 0.4902 0.6010
C19 C 0.8309(3) 0.48192(16) 0.66248(11)
C20 C 1.0120(3) 0.57005(16) 0.65905(12)
H23 H 1.1237 0.5364 0.7021
H24 H 1.0930 0.5724 0.6015
C21 C 0.9317(3) 0.34616(17) 0.64134(11)
C22 C 0.8010(3) 0.26525(18) 0.60969(12)
H25 H 0.6493 0.2976 0.5971
C23 C 0.8839(3) 0.13959(18) 0.59595(13)
H26 H 0.7913 0.0868 0.5741
C24 C 1.1012(3) 0.09340(17) 0.61452(13)
C25 C 1.2391(3) 0.16777(18) 0.64548(13)
H27 H 1.3902 0.1338 0.6580
C26 C 1.1534(3) 0.29384(17) 0.65820(12)
H28 H 1.2489 0.3460 0.6790
F1 F 1.1992(2) 0.09431(11) 0.97588(8)
F2 F 1.1863(2) -0.02982(10) 0.60085(8)
loop_
_geom_bond_atom_site_label_1
_geom_bond_atom_site_label_2
_geom_bond_site_symmetry_1
_geom_bond_site_symmetry_2
C1 C2 1_555 1_555
C2 H1 1_555 1_555
C3 C2 1_555 1_555
H2 C3 1_555 1_555
C4 C3 1_555 1_555
C5 C4 1_555 1_555
H3 C5 1_555 1_555
C6 C1 1_555 1_555
H4 C6 1_555 1_555
C7 C4 1_555 1_555
H5 C7 1_555 1_555
C8 C7 1_555 1_555
C9 C8 1_555 1_555
H6 C9 1_555 1_555
H7 C9 1_555 1_555
C10 C9 1_555 1_555
H8 C10 1_555 1_555
H9 C10 1_555 1_555
C11 C10 1_555 1_555
H10 C11 1_555 1_555
H11 C11 1_555 1_555
C12 C11 1_555 1_555
H12 C12 1_555 1_555
H13 C12 1_555 1_555
C13 C12 1_555 1_555
H14 C13 1_555 1_555
H15 C13 1_555 1_555
C14 C8 1_555 1_555
C15 C14 1_555 1_555
H16 C15 1_555 1_555
C16 C15 1_555 1_555
H17 C16 1_555 1_555
H18 C16 1_555 1_555
C17 C16 1_555 1_555
H19 C17 1_555 1_555
H20 C17 1_555 1_555
C18 C17 1_555 1_555
H21 C18 1_555 1_555
H22 C18 1_555 1_555
C19 C7 1_555 1_555
C20 C15 1_555 1_555
H23 C20 1_555 1_555
H24 C20 1_555 1_555
C21 C19 1_555 1_555
C22 C21 1_555 1_555
H25 C22 1_555 1_555
C23 C22 1_555 1_555
H26 C23 1_555 1_555
C24 C23 1_555 1_555
C25 C24 1_555 1_555
H27 C25 1_555 1_555
C26 C21 1_555 1_555
H28 C26 1_555 1_555
F1 C1 1_555 1_555
F2 C24 1_555 1_555
C5 C6 1_555 1_555
C13 C14 1_555 1_555
C18 C19 1_555 1_555
C19 C20 1_555 1_555
C25 C26 1_555 1_555

#END
