
#######################################################################
#
#                 Cambridge Crystallographic Data Centre
#                                CCDC 
#
#######################################################################
#
# If this CIF has been generated from an entry in the Cambridge 
# Structural Database, then it will include bibliographic, chemical, 
# crystal, experimental, refinement or atomic coordinate data resulting 
# from the CCDC's data processing and validation procedures.
#
#######################################################################

data_ROHJED
_chemical_compound_source        
'derivative of compound isolated from fruits of Pterodon polygalaeflorus Benth'
_chemical_formula_moiety         'C20 H26 O4'
_chemical_name_systematic        6\a-Hydroxyvouacapan-7\b,17\b-lactone
_chemical_properties_biological  'antiinflammatory and analgesic activity'
_symmetry_cell_setting           orthorhombic
_symmetry_space_group_name_H-M   'P 21 21 21'
_symmetry_Int_Tables_number      19
_space_group_name_Hall           'P 2ac 2ab'
loop_
_symmetry_equiv_pos_site_id
_symmetry_equiv_pos_as_xyz
1 x,y,z
2 1/2-x,-y,1/2+z
3 1/2+x,1/2-y,-z
4 -x,1/2+y,1/2-z
_cell_length_a                   7.8937(6)
_cell_length_b                   10.808(2)
_cell_length_c                   19.523(2)
_cell_angle_alpha                90
_cell_angle_beta                 90
_cell_angle_gamma                90
_cell_volume                     1665.61
_exptl_crystal_colour            colorless
_exptl_crystal_description       prism
_chemical_melting_point          223-224deg.C
_cell_formula_units_Z            4
loop_
_atom_site_label
_atom_site_type_symbol
_atom_site_fract_x
_atom_site_fract_y
_atom_site_fract_z
O1 O -0.3770(7) 0.9638(5) 0.0734(3)
O2 O 0.4794(6) 0.9793(5) -0.1157(3)
H1 H 0.5178 0.9022 -0.1124
O3 O 0.3122(7) 0.8436(4) 0.0034(3)
O4 O 0.2050(7) 0.7232(5) 0.0865(3)
C1 C -0.0429(10) 1.2428(6) -0.1234(4)
H2 H -0.1654(10) 1.2408(6) -0.1195(4)
H3 H -0.0002(10) 1.3008(6) -0.0896(4)
C2 C 0.0052(11) 1.2881(8) -0.1949(4)
H4 H -0.0388(11) 1.2315(8) -0.2291(4)
H5 H -0.0441(11) 1.3690(8) -0.2029(4)
C3 C 0.1968(10) 1.2958(7) -0.2008(4)
H6 H 0.2368(10) 1.3593(7) -0.1697(4)
H7 H 0.2249(10) 1.3223(7) -0.2469(4)
C4 C 0.2942(10) 1.1750(7) -0.1856(4)
C5 C 0.2268(9) 1.1148(6) -0.1177(4)
H8 H 0.2692(9) 1.1686(6) -0.0810(4)
C6 C 0.3024(9) 0.9839(7) -0.1012(4)
H9 H 0.2429(9) 0.9205(7) -0.1279(4)
C7 C 0.2679(10) 0.9657(7) -0.0267(4)
H10 H 0.3246(10) 1.0312(7) -0.0006(4)
C8 C 0.0822(8) 0.9693(6) -0.0119(3)
H11 H 0.0302(8) 0.9032(6) -0.0390(3)
C9 C -0.0075(9) 1.0869(7) -0.0307(3)
H12 H 0.0415(9) 1.1543(7) -0.0036(3)
C10 C 0.0276(9) 1.1142(7) -0.1080(4)
C11 C -0.1979(10) 1.0727(7) -0.0098(4)
H13 H -0.2430(10) 1.1528(7) 0.0031(4)
H14 H -0.2624(10) 1.0427(7) -0.0487(4)
C12 C -0.2167(10) 0.9850(7) 0.0484(4)
C13 C -0.1032(10) 0.9171(7) 0.0834(4)
C14 C 0.0783(10) 0.9276(7) 0.0616(4)
H15 H 0.1331(10) 0.9911(7) 0.0897(4)
C15 C -0.1935(12) 0.8493(8) 0.1342(4)
H16 H -0.1485(12) 0.7955(8) 0.1667(4)
C16 C -0.3580(12) 0.8793(8) 0.1255(4)
H17 H -0.4467(12) 0.8472(8) 0.1512(4)
C17 C 0.1992(11) 0.8185(7) 0.0547(4)
C18 C 0.2859(11) 1.0893(7) -0.2485(4)
H18 H 0.1697(11) 1.0701(36) -0.2585(16)
H19 H 0.3467(54) 1.0143(22) -0.2391(10)
H20 H 0.3360(58) 1.1302(21) -0.2872(7)
C19 C 0.4807(10) 1.2172(8) -0.1773(5)
H21 H 0.5110(22) 1.2705(40) -0.2147(15)
H22 H 0.5536(12) 1.1460(9) -0.1772(27)
H23 H 0.4932(18) 1.2611(42) -0.1348(14)
C20 C -0.0618(9) 1.0183(7) -0.1544(4)
H24 H -0.0307(51) 0.9363(7) -0.1402(17)
H25 H -0.0280(51) 1.0309(31) -0.2011(5)
H26 H -0.1824(9) 1.0281(31) -0.1506(20)
loop_
_geom_bond_atom_site_label_1
_geom_bond_atom_site_label_2
_geom_bond_site_symmetry_1
_geom_bond_site_symmetry_2
O1 C12 1_555 1_555
O2 H1 1_555 1_555
O3 C7 1_555 1_555
O4 C17 1_555 1_555
C1 H2 1_555 1_555
H3 C1 1_555 1_555
C2 C1 1_555 1_555
H4 C2 1_555 1_555
H5 C2 1_555 1_555
C3 C2 1_555 1_555
H6 C3 1_555 1_555
H7 C3 1_555 1_555
C4 C3 1_555 1_555
C5 C4 1_555 1_555
H8 C5 1_555 1_555
C6 O2 1_555 1_555
H9 C6 1_555 1_555
C7 C6 1_555 1_555
H10 C7 1_555 1_555
C8 C7 1_555 1_555
H11 C8 1_555 1_555
C9 C8 1_555 1_555
H12 C9 1_555 1_555
C10 C1 1_555 1_555
C11 C9 1_555 1_555
H13 C11 1_555 1_555
H14 C11 1_555 1_555
C12 C11 1_555 1_555
C13 C12 1_555 1_555
C14 C8 1_555 1_555
H15 C14 1_555 1_555
C15 C13 1_555 1_555
H16 C15 1_555 1_555
C16 O1 1_555 1_555
H17 C16 1_555 1_555
C17 O3 1_555 1_555
C18 C4 1_555 1_555
H18 C18 1_555 1_555
H19 C18 1_555 1_555
H20 C18 1_555 1_555
C19 C4 1_555 1_555
H21 C19 1_555 1_555
H22 C19 1_555 1_555
H23 C19 1_555 1_555
C20 C10 1_555 1_555
H24 C20 1_555 1_555
H25 C20 1_555 1_555
H26 C20 1_555 1_555
C5 C6 1_555 1_555
C5 C10 1_555 1_555
C9 C10 1_555 1_555
C13 C14 1_555 1_555
C14 C17 1_555 1_555
C15 C16 1_555 1_555

#END
