
#######################################################################
#
#                 Cambridge Crystallographic Data Centre
#                                CCDC 
#
#######################################################################
#
# If this CIF has been generated from an entry in the Cambridge 
# Structural Database, then it will include bibliographic, chemical, 
# crystal, experimental, refinement or atomic coordinate data resulting 
# from the CCDC's data processing and validation procedures.
#
#######################################################################

data_ROHKUU01
_chemical_formula_moiety         'C2 H10 N2 2+,2(C4 H3 O4 1-)'
_chemical_name_systematic        'Ethylenediammonium bis(hydrogen maleate)'
_symmetry_cell_setting           triclinic
_symmetry_space_group_name_H-M   'P -1'
_symmetry_Int_Tables_number      2
_space_group_name_Hall           '-P 1'
loop_
_symmetry_equiv_pos_site_id
_symmetry_equiv_pos_as_xyz
1 x,y,z
2 -x,-y,-z
_cell_length_a                   5.731(3)
_cell_length_b                   6.552(3)
_cell_length_c                   8.794(4)
_cell_angle_alpha                92.605(7)
_cell_angle_beta                 96.025(6)
_cell_angle_gamma                105.321(6)
_cell_volume                     315.792
_exptl_crystal_colour            colorless
_exptl_crystal_description       bar
_cell_formula_units_Z            1
loop_
_atom_site_label
_atom_site_type_symbol
_atom_site_fract_x
_atom_site_fract_y
_atom_site_fract_z
C1 C 0.9689(3) 0.7451(3) 0.67074(19)
C2 C 0.7441(3) 0.7391(3) 0.5701(2)
C3 C 0.6965(3) 0.7227(3) 0.4184(2)
C4 C 0.8538(3) 0.7042(3) 0.29710(19)
O1 O 0.9589(3) 0.7344(2) 0.80844(14)
O2 O 1.1720(2) 0.7628(2) 0.61297(15)
O3 O 1.0830(2) 0.7429(2) 0.33337(15)
O4 O 0.7539(3) 0.6519(2) 0.16437(14)
H1 H 1.141(5) 0.765(4) 0.492(3)
H2 H 0.615(4) 0.743(3) 0.626(2)
H3 H 0.541(4) 0.719(3) 0.380(2)
C5 C 0.4160(3) 0.9751(3) 0.06126(19)
N1 N 0.3100(3) 0.7434(3) 0.05986(18)
H4 H 0.503(4) 1.031(3) 0.161(3)
H5 H 0.286(4) 1.035(3) 0.044(2)
H6 H 0.456(5) 0.682(4) 0.083(3)
H7 H 0.204(4) 0.713(3) 0.137(3)
H8 H 0.214(5) 0.695(3) -0.031(3)
C5A C 0.5840(3) 1.0249(3) -0.06126(19)
N1A N 0.6900(3) 1.2566(3) -0.05986(18)
H4A H 0.497(4) 0.969(3) -0.161(3)
H5A H 0.714(4) 0.965(3) -0.044(2)
H6A H 0.544(5) 1.318(4) -0.083(3)
H7A H 0.796(4) 1.287(3) -0.137(3)
H8A H 0.786(5) 1.305(3) 0.031(3)
loop_
_geom_bond_atom_site_label_1
_geom_bond_atom_site_label_2
_geom_bond_site_symmetry_1
_geom_bond_site_symmetry_2
C1 C2 1_555 1_555
C2 C3 1_555 1_555
C3 C4 1_555 1_555
C4 O3 1_555 1_555
O1 C1 1_555 1_555
O2 C1 1_555 1_555
O4 C4 1_555 1_555
H1 O2 1_555 1_555
H2 C2 1_555 1_555
H3 C3 1_555 1_555
C5 N1 1_555 1_555
N1 H6 1_555 1_555
H4 C5 1_555 1_555
H5 C5 1_555 1_555
H7 N1 1_555 1_555
H8 N1 1_555 1_555
C5A C5 1_555 1_555
N1A C5A 1_555 1_555
H4A C5A 1_555 1_555
H5A C5A 1_555 1_555
H6A N1A 1_555 1_555
H7A N1A 1_555 1_555
H8A N1A 1_555 1_555

#END
