
#######################################################################
#
#                 Cambridge Crystallographic Data Centre
#                                CCDC 
#
#######################################################################
#
# If this CIF has been generated from an entry in the Cambridge 
# Structural Database, then it will include bibliographic, chemical, 
# crystal, experimental, refinement or atomic coordinate data resulting 
# from the CCDC's data processing and validation procedures.
#
#######################################################################

data_ROHKOP
_chemical_formula_moiety         'C24 H28 O4 Si1'
_chemical_name_systematic        
3,3'-(dimethylsilylene-bis(1,4-phenylene))-bis(2,4-pentanedione)
_symmetry_cell_setting           triclinic
_symmetry_space_group_name_H-M   'P -1'
_symmetry_Int_Tables_number      2
_space_group_name_Hall           '-P 1'
loop_
_symmetry_equiv_pos_site_id
_symmetry_equiv_pos_as_xyz
1 x,y,z
2 -x,-y,-z
_cell_length_a                   8.016(2)
_cell_length_b                   8.044(2)
_cell_length_c                   17.791(4)
_cell_angle_alpha                87.401(8)
_cell_angle_beta                 83.350(8)
_cell_angle_gamma                81.920(11)
_cell_volume                     1127.65
_exptl_crystal_colour            colorless
_exptl_crystal_description       needle
_chemical_melting_point          '155-157 deg.C'
_cell_formula_units_Z            2
_exptl_crystal_recrystallization_method methanol
loop_
_atom_site_label
_atom_site_type_symbol
_atom_site_fract_x
_atom_site_fract_y
_atom_site_fract_z
Si1 Si 0.42405(5) 0.51785(5) 0.81365(2)
O1 O 0.91700(15) 1.25432(14) 0.97032(7)
H1 H 0.992(3) 1.279(2) 0.9136(12)
O2 O 1.05348(14) 1.24586(14) 0.83993(7)
O3 O 0.83940(16) -0.13847(16) 0.47099(7)
H2 H 0.854(3) -0.030(3) 0.4225(13)
O4 O 0.8423(2) 0.12486(19) 0.39863(7)
C1 C 0.21007(19) 0.62394(19) 0.79505(9)
H3 H 0.1367 0.5391 0.7887
H4 H 0.2203 0.6945 0.7488
H5 H 0.1608 0.6941 0.8378
C2 C 0.4071(2) 0.3710(2) 0.89738(9)
H6 H 0.5209 0.3210 0.9081
H7 H 0.3420 0.2821 0.8867
H8 H 0.3494 0.4329 0.9414
C3 C 0.56106(18) 0.67839(17) 0.83206(8)
C4 C 0.53720(19) 0.84159(18) 0.80006(8)
H9 H 0.4539 0.8691 0.7660
C5 C 0.63227(19) 0.96367(18) 0.81696(8)
H10 H 0.6125 1.0730 0.7945
C6 C 0.75629(18) 0.92830(17) 0.86637(8)
C7 C 0.78405(18) 0.76610(18) 0.89776(8)
H11 H 0.8692 0.7387 0.9310
C8 C 0.68836(18) 0.64424(18) 0.88091(8)
H12 H 0.7095 0.5347 0.9030
C9 C 0.85626(18) 1.06285(18) 0.88404(8)
C10 C 0.7196(2) 1.0764(2) 1.02107(9)
H13 H 0.7847 1.0422 1.0639
H14 H 0.6676 0.9812 1.0065
H15 H 0.6307 1.1694 1.0358
C11 C 0.83488(19) 1.13184(18) 0.95573(9)
C12 C 0.97220(19) 1.12546(18) 0.82697(9)
C13 C 1.0106(2) 1.0532(2) 0.75021(9)
H16 H 0.9431 1.1220 0.7147
H17 H 0.9825 0.9382 0.7524
H18 H 1.1314 1.0518 0.7330
C14 C 0.52103(18) 0.39905(17) 0.72713(8)
C15 C 0.4276(2) 0.29261(19) 0.69394(9)
H19 H 0.3157 0.2818 0.7158
C16 C 0.4945(2) 0.2027(2) 0.62998(9)
H20 H 0.4280 0.1317 0.6089
C17 C 0.6585(2) 0.21568(19) 0.59634(8)
C18 C 0.7523(2) 0.32115(19) 0.62853(9)
H21 H 0.8642 0.3317 0.6065
C19 C 0.68481(19) 0.41152(18) 0.69261(8)
H22 H 0.7514 0.4831 0.7133
C20 C 0.7325(2) 0.1203(2) 0.52695(9)
C21 C 0.7324(3) -0.1609(2) 0.59962(11)
H23 H 0.6146 -0.1832 0.6037
H24 H 0.7498 -0.1003 0.6440
H25 H 0.8086 -0.2675 0.5971
C22 C 0.7694(2) -0.0569(2) 0.52977(10)
C23 C 0.7719(3) 0.2058(2) 0.45878(10)
C24 C 0.7389(4) 0.3923(3) 0.44760(12)
H26 H 0.8456 0.4393 0.4459
H27 H 0.6595 0.4402 0.4897
H28 H 0.6897 0.4197 0.3999
loop_
_geom_bond_atom_site_label_1
_geom_bond_atom_site_label_2
_geom_bond_site_symmetry_1
_geom_bond_site_symmetry_2
Si1 C1 1_555 1_555
O1 H1 1_555 1_555
O2 C12 1_555 1_555
O3 H2 1_555 1_555
O4 C23 1_555 1_555
C1 H3 1_555 1_555
H4 C1 1_555 1_555
H5 C1 1_555 1_555
C2 Si1 1_555 1_555
H6 C2 1_555 1_555
H7 C2 1_555 1_555
H8 C2 1_555 1_555
C3 Si1 1_555 1_555
C4 C3 1_555 1_555
H9 C4 1_555 1_555
C5 C4 1_555 1_555
H10 C5 1_555 1_555
C6 C5 1_555 1_555
C7 C6 1_555 1_555
H11 C7 1_555 1_555
C8 C3 1_555 1_555
H12 C8 1_555 1_555
C9 C6 1_555 1_555
C10 H13 1_555 1_555
H14 C10 1_555 1_555
H15 C10 1_555 1_555
C11 O1 1_555 1_555
C12 C9 1_555 1_555
C13 C12 1_555 1_555
H16 C13 1_555 1_555
H17 C13 1_555 1_555
H18 C13 1_555 1_555
C14 Si1 1_555 1_555
C15 C14 1_555 1_555
H19 C15 1_555 1_555
C16 C15 1_555 1_555
H20 C16 1_555 1_555
C17 C16 1_555 1_555
C18 C17 1_555 1_555
H21 C18 1_555 1_555
C19 C14 1_555 1_555
H22 C19 1_555 1_555
C20 C17 1_555 1_555
C21 H23 1_555 1_555
H24 C21 1_555 1_555
H25 C21 1_555 1_555
C22 O3 1_555 1_555
C23 C20 1_555 1_555
C24 C23 1_555 1_555
H26 C24 1_555 1_555
H27 C24 1_555 1_555
H28 C24 1_555 1_555
C7 C8 1_555 1_555
C9 C11 1_555 1_555
C10 C11 1_555 1_555
C18 C19 1_555 1_555
C20 C22 1_555 1_555
C21 C22 1_555 1_555

#END
