
#######################################################################
#
#                 Cambridge Crystallographic Data Centre
#                                CCDC 
#
#######################################################################
#
# If this CIF has been generated from an entry in the Cambridge 
# Structural Database, then it will include bibliographic, chemical, 
# crystal, experimental, refinement or atomic coordinate data resulting 
# from the CCDC's data processing and validation procedures.
#
#######################################################################

data_ROHROX
_chemical_formula_moiety         'C22 H19 Cl1 N2 O5'
_chemical_name_systematic        
'Ethyl 3-(1-(4-chlorophenyl)-2,5-dioxopyrrolidin-3-yl)-1-methyl-2-oxoindoline-3-carboxylate'
_symmetry_cell_setting           monoclinic
_symmetry_space_group_name_H-M   'P 21'
_symmetry_Int_Tables_number      4
_space_group_name_Hall           'P 2yb'
loop_
_symmetry_equiv_pos_site_id
_symmetry_equiv_pos_as_xyz
1 x,y,z
2 -x,1/2+y,-z
_cell_length_a                   13.837(3)
_cell_length_b                   5.8930(11)
_cell_length_c                   14.013(3)
_cell_angle_alpha                90
_cell_angle_beta                 118.922(2)
_cell_angle_gamma                90
_cell_volume                     1000.13
_exptl_crystal_colour            colorless
_exptl_crystal_description       prism
_cell_formula_units_Z            2
loop_
_atom_site_label
_atom_site_type_symbol
_atom_site_fract_x
_atom_site_fract_y
_atom_site_fract_z
Cl1 Cl 0.39616(3) -0.19804(8) 0.42139(3)
O1 O 0.83853(8) 0.2977(2) 0.00387(7)
O2 O 0.79271(8) 0.20606(19) 0.33028(8)
O3 O 0.77487(8) 0.73339(19) 0.21466(8)
O4 O 0.88703(10) 0.6627(2) 0.05347(9)
O5 O 0.46192(8) 0.3314(2) 0.02827(8)
N1 N 0.61348(9) 0.2109(2) 0.18750(9)
N2 N 0.95609(10) 0.6316(2) 0.32815(9)
C1 C 0.45676(12) -0.0753(3) 0.34989(12)
C2 C 0.42021(12) 0.1330(3) 0.29962(12)
H1 H 0.3609 0.2087 0.3021
C3 C 0.47197(12) 0.2303(3) 0.24505(12)
H2 H 0.4478 0.3729 0.2097
C4 C 0.55888(11) 0.1174(3) 0.24282(11)
C5 C 0.72889(11) 0.2199(3) 0.23395(11)
C6 C 0.75524(11) 0.2525(2) 0.14130(10)
H3 H 0.7706 0.1001 0.1202
C7 C 0.85636(11) 0.4043(2) 0.17216(11)
C8 C 0.86100(11) 0.4772(3) 0.06949(11)
C9 C 0.85492(13) 0.3218(3) -0.09055(11)
H4 H 0.9329 0.3594 -0.0675
H5 H 0.8072 0.4438 -0.1390
C10 C 0.82445(16) 0.0968(3) -0.14840(13)
H6 H 0.8688 -0.0234 -0.0978
H7 H 0.8388 0.1006 -0.2104
H8 H 0.7459 0.0667 -0.1747
C11 C 0.54230(11) -0.1912(3) 0.34639(11)
H9 H 0.5653 -0.3353 0.3804
C12 C 0.59390(12) -0.0938(3) 0.29244(12)
H10 H 0.6527 -0.1708 0.2894
C13 C 0.85455(11) 0.6133(2) 0.23767(11)
C14 C 1.02570(11) 0.4525(2) 0.33445(11)
C15 C 0.96972(10) 0.3039(3) 0.24651(10)
C16 C 1.02162(12) 0.1154(3) 0.23423(12)
H11 H 0.9839 0.0151 0.1743
C17 C 1.13161(13) 0.0759(3) 0.31265(12)
H12 H 1.1690 -0.0539 0.3066
C18 C 1.18665(12) 0.2252(3) 0.39951(12)
H13 H 1.2615 0.1959 0.4512
C19 C 1.13498(12) 0.4170(3) 0.41279(12)
H14 H 1.1727 0.5180 0.4724
C20 C 0.98121(11) 0.7955(3) 0.41487(10)
H15 H 0.9257 0.9166 0.3878
H16 H 1.0545 0.8608 0.4386
H17 H 0.9803 0.7194 0.4766
C21 C 0.64623(11) 0.3419(3) 0.04660(11)
H18 H 0.6515 0.5065 0.0356
H19 H 0.6282 0.2613 -0.0220
C22 C 0.55989(11) 0.2959(3) 0.08055(11)
loop_
_geom_bond_atom_site_label_1
_geom_bond_atom_site_label_2
_geom_bond_site_symmetry_1
_geom_bond_site_symmetry_2
Cl1 C1 1_555 1_555
O1 C8 1_555 1_555
O2 C5 1_555 1_555
O3 C13 1_555 1_555
O4 C8 1_555 1_555
O5 C22 1_555 1_555
N1 C4 1_555 1_555
N2 C13 1_555 1_555
C1 C2 1_555 1_555
C2 H1 1_555 1_555
C3 C2 1_555 1_555
H2 C3 1_555 1_555
C4 C3 1_555 1_555
C5 N1 1_555 1_555
C6 C5 1_555 1_555
H3 C6 1_555 1_555
C7 C6 1_555 1_555
C8 C7 1_555 1_555
C9 O1 1_555 1_555
H4 C9 1_555 1_555
H5 C9 1_555 1_555
C10 C9 1_555 1_555
H6 C10 1_555 1_555
H7 C10 1_555 1_555
H8 C10 1_555 1_555
C11 C1 1_555 1_555
H9 C11 1_555 1_555
C12 C4 1_555 1_555
H10 C12 1_555 1_555
C13 C7 1_555 1_555
C14 N2 1_555 1_555
C15 C7 1_555 1_555
C16 C15 1_555 1_555
H11 C16 1_555 1_555
C17 C16 1_555 1_555
H12 C17 1_555 1_555
C18 C17 1_555 1_555
H13 C18 1_555 1_555
C19 C14 1_555 1_555
H14 C19 1_555 1_555
C20 N2 1_555 1_555
H15 C20 1_555 1_555
H16 C20 1_555 1_555
H17 C20 1_555 1_555
C21 C6 1_555 1_555
H18 C21 1_555 1_555
H19 C21 1_555 1_555
C22 N1 1_555 1_555
C11 C12 1_555 1_555
C14 C15 1_555 1_555
C18 C19 1_555 1_555
C21 C22 1_555 1_555

#END
