
#######################################################################
#
#                 Cambridge Crystallographic Data Centre
#                                CCDC 
#
#######################################################################
#
# If this CIF has been generated from an entry in the Cambridge 
# Structural Database, then it will include bibliographic, chemical, 
# crystal, experimental, refinement or atomic coordinate data resulting 
# from the CCDC's data processing and validation procedures.
#
#######################################################################

data_ROHTOY
_chemical_formula_moiety         'C24 H37 N4 P1'
_chemical_name_systematic        
1,1-bis(Diisopropylamino)-3-phenyl-(1,3,2)diazaphospholo(1,5-a)pyridine
_symmetry_cell_setting           monoclinic
_symmetry_space_group_name_H-M   'P 21/c'
_symmetry_Int_Tables_number      14
_space_group_name_Hall           '-P 2ybc'
loop_
_symmetry_equiv_pos_site_id
_symmetry_equiv_pos_as_xyz
1 x,y,z
2 -x,1/2+y,1/2-z
3 -x,-y,-z
4 x,1/2-y,1/2+z
_cell_length_a                   9.8189(10)
_cell_length_b                   15.8136(17)
_cell_length_c                   15.4341(16)
_cell_angle_alpha                90
_cell_angle_beta                 103.25(1)
_cell_angle_gamma                90
_cell_volume                     2332.69
_exptl_crystal_colour            red
_exptl_crystal_description       block
_cell_formula_units_Z            4
_exptl_crystal_recrystallization_method hexane
loop_
_atom_site_label
_atom_site_type_symbol
_atom_site_fract_x
_atom_site_fract_y
_atom_site_fract_z
P1 P 0.39191(9) 0.08452(5) 0.72523(6)
N1 N 0.4901(3) 0.15247(16) 0.79713(17)
N2 N 0.5034(3) 0.01018(16) 0.73553(17)
N3 N 0.3377(3) 0.13095(16) 0.62747(16)
N4 N 0.2448(3) 0.05777(15) 0.75213(18)
C1 C 0.6234(3) 0.03222(19) 0.7997(2)
C2 C 0.6217(3) 0.11188(19) 0.8353(2)
C3 C 0.7247(4) 0.1631(2) 0.8909(2)
H1 H 0.8153 0.1403 0.9140
C4 C 0.6974(4) 0.2433(2) 0.9121(2)
H2 H 0.7684 0.2762 0.9492
C5 C 0.5609(4) 0.2790(2) 0.8782(2)
H3 H 0.5405 0.3344 0.8955
C6 C 0.4627(4) 0.23444(19) 0.8226(2)
H4 H 0.3732 0.2588 0.7997
C7 C 0.7392(3) -0.02851(19) 0.8195(2)
C8 C 0.7620(3) -0.0827(2) 0.7527(2)
H5 H 0.7018 -0.0801 0.6950
C9 C 0.8713(4) -0.1404(2) 0.7695(2)
H6 H 0.8866 -0.1757 0.7229
C10 C 0.9581(3) -0.1471(2) 0.8532(2)
H7 H 1.0323 -0.1871 0.8646
C11 C 0.9355(4) -0.0950(2) 0.9200(2)
H8 H 0.9946 -0.0992 0.9779
C12 C 0.8283(3) -0.0364(2) 0.9039(2)
H9 H 0.8147 -0.0011 0.9511
C13 C 0.2281(4) 0.0856(2) 0.5596(2)
H10 H 0.1695 0.0529 0.5930
C14 C 0.2931(4) 0.0219(2) 0.5072(2)
H11 H 0.3481 -0.0194 0.5480
H12 H 0.3541 0.0515 0.4750
H13 H 0.2186 -0.0074 0.4645
C15 C 0.1314(4) 0.1480(2) 0.4998(2)
H14 H 0.0951 0.1887 0.5368
H15 H 0.0532 0.1173 0.4620
H16 H 0.1836 0.1781 0.4624
C16 C 0.4338(3) 0.1853(2) 0.5878(2)
H17 H 0.4065 0.1754 0.5221
C17 C 0.5885(3) 0.1631(2) 0.6162(2)
H18 H 0.6004 0.1018 0.6117
H19 H 0.6252 0.1810 0.6780
H20 H 0.6397 0.1921 0.5774
C18 C 0.4099(4) 0.2793(2) 0.6010(3)
H21 H 0.3092 0.2910 0.5873
H22 H 0.4542 0.3125 0.5614
H23 H 0.4510 0.2947 0.6630
C19 C 0.1334(3) 0.1213(2) 0.7523(2)
H24 H 0.1557 0.1722 0.7196
C20 C 0.1294(4) 0.1499(2) 0.8462(2)
H25 H 0.2210 0.1725 0.8763
H26 H 0.1058 0.1018 0.8800
H27 H 0.0583 0.1941 0.8424
C21 C -0.0115(4) 0.0904(3) 0.7038(3)
H28 H -0.0108 0.0766 0.6420
H29 H -0.0805 0.1350 0.7047
H30 H -0.0362 0.0399 0.7336
C22 C 0.2367(4) -0.0209(2) 0.8052(2)
H31 H 0.1432 -0.0199 0.8206
C23 C 0.3455(4) -0.0244(2) 0.8933(2)
H32 H 0.3434 0.0286 0.9258
H33 H 0.4387 -0.0324 0.8817
H34 H 0.3242 -0.0717 0.9290
C24 C 0.2387(4) -0.1003(2) 0.7486(3)
H35 H 0.1650 -0.0959 0.6939
H36 H 0.2222 -0.1503 0.7822
H37 H 0.3298 -0.1053 0.7333
loop_
_geom_bond_atom_site_label_1
_geom_bond_atom_site_label_2
_geom_bond_site_symmetry_1
_geom_bond_site_symmetry_2
P1 N1 1_555 1_555
N1 C2 1_555 1_555
N2 P1 1_555 1_555
N3 P1 1_555 1_555
N4 P1 1_555 1_555
C1 N2 1_555 1_555
C2 C1 1_555 1_555
C3 C2 1_555 1_555
H1 C3 1_555 1_555
C4 C3 1_555 1_555
H2 C4 1_555 1_555
C5 C4 1_555 1_555
H3 C5 1_555 1_555
C6 N1 1_555 1_555
H4 C6 1_555 1_555
C7 C1 1_555 1_555
C8 C7 1_555 1_555
H5 C8 1_555 1_555
C9 C8 1_555 1_555
H6 C9 1_555 1_555
C10 C9 1_555 1_555
H7 C10 1_555 1_555
C11 C10 1_555 1_555
H8 C11 1_555 1_555
C12 C7 1_555 1_555
H9 C12 1_555 1_555
C13 N3 1_555 1_555
H10 C13 1_555 1_555
C14 C13 1_555 1_555
H11 C14 1_555 1_555
H12 C14 1_555 1_555
H13 C14 1_555 1_555
C15 C13 1_555 1_555
H14 C15 1_555 1_555
H15 C15 1_555 1_555
H16 C15 1_555 1_555
C16 N3 1_555 1_555
H17 C16 1_555 1_555
C17 C16 1_555 1_555
H18 C17 1_555 1_555
H19 C17 1_555 1_555
H20 C17 1_555 1_555
C18 C16 1_555 1_555
H21 C18 1_555 1_555
H22 C18 1_555 1_555
H23 C18 1_555 1_555
C19 N4 1_555 1_555
H24 C19 1_555 1_555
C20 C19 1_555 1_555
H25 C20 1_555 1_555
H26 C20 1_555 1_555
H27 C20 1_555 1_555
C21 C19 1_555 1_555
H28 C21 1_555 1_555
H29 C21 1_555 1_555
H30 C21 1_555 1_555
C22 N4 1_555 1_555
H31 C22 1_555 1_555
C23 C22 1_555 1_555
H32 C23 1_555 1_555
H33 C23 1_555 1_555
H34 C23 1_555 1_555
C24 C22 1_555 1_555
H35 C24 1_555 1_555
H36 C24 1_555 1_555
H37 C24 1_555 1_555
C5 C6 1_555 1_555
C11 C12 1_555 1_555

#END
