
#######################################################################
#
#                 Cambridge Crystallographic Data Centre
#                                CCDC 
#
#######################################################################
#
# If this CIF has been generated from an entry in the Cambridge 
# Structural Database, then it will include bibliographic, chemical, 
# crystal, experimental, refinement or atomic coordinate data resulting 
# from the CCDC's data processing and validation procedures.
#
#######################################################################

data_ROHYOE
_chemical_formula_moiety         'C42 H62 N2 2+,2(C24 B1 F20 1-)'
_chemical_name_systematic        
"5,5'-ethene-1,2-diylbis(1-(2,6-diisopropylphenyl)-2,2,4,4-tetramethyl-3,4-dihydro-2H-pyrrolium) bis(tetrakis(pentafluorophenyl)borate)"
_symmetry_cell_setting           monoclinic
_symmetry_space_group_name_H-M   'C 2/c'
_symmetry_Int_Tables_number      15
_space_group_name_Hall           '-C 2yn'
loop_
_symmetry_equiv_pos_site_id
_symmetry_equiv_pos_as_xyz
1 x,y,z
2 -x,y,1/2-z
3 1/2+x,1/2+y,z
4 1/2-x,1/2+y,1/2-z
5 -x,-y,-z
6 x,-y,1/2+z
7 1/2-x,1/2-y,-z
8 1/2+x,1/2-y,1/2+z
_cell_length_a                   23.066(5)
_cell_length_b                   15.449(3)
_cell_length_c                   25.111(5)
_cell_angle_alpha                90
_cell_angle_beta                 113.70(3)
_cell_angle_gamma                90
_cell_volume                     8193.55
_exptl_crystal_colour            yellow
_exptl_crystal_description       plate
_cell_formula_units_Z            4
loop_
_atom_site_label
_atom_site_type_symbol
_atom_site_fract_x
_atom_site_fract_y
_atom_site_fract_z
N1 N 0.6527(3) 0.1183(4) 0.4518(3)
C1 C 0.7436(4) 0.2084(4) 0.4978(3)
C2 C 0.7135(3) 0.1295(3) 0.4703(2)
C3 C 0.7493(3) 0.0561(4) 0.4599(3)
C4 C 0.6961(4) -0.0119(5) 0.4438(5)
H1 H 0.6989 -0.0512 0.4138
H2 H 0.7020 -0.0470 0.4785
C5 C 0.6302(5) 0.0303(6) 0.4206(5)
C6 C 0.7691(5) 0.0816(7) 0.4103(4)
H3 H 0.8021 0.1262 0.4241
H4 H 0.7323 0.1043 0.3775
C7 C 0.8073(4) 0.0362(6) 0.5171(4)
H5 H 0.8301 -0.0139 0.5112
H6 H 0.7929 0.0235 0.5480
H7 H 0.8356 0.0865 0.5282
C8 C 0.6004(8) 0.0377(8) 0.3548(6)
H8 H 0.6271 0.0742 0.3419
H9 H 0.5583 0.0638 0.3424
H10 H 0.5967 -0.0200 0.3376
C9 C 0.5877(8) -0.0115(12) 0.4435(7)
H11 H 0.5520 0.0271 0.4381
H12 H 0.6109 -0.0236 0.4850
H13 H 0.5717 -0.0659 0.4226
C10 C 0.6110(5) 0.1836(6) 0.4606(5)
C11 C 0.6011(8) 0.1837(9) 0.5102(8)
C12 C 0.5607(10) 0.2480(11) 0.5174(6)
H14 H 0.5517 0.2484 0.5511
C13 C 0.5350(5) 0.3096(7) 0.4749(4)
H15 H 0.5087 0.3533 0.4800
C14 C 0.5463(4) 0.3096(4) 0.4257(3)
H16 H 0.5271 0.3523 0.3967
C15 C 0.5861(4) 0.2468(5) 0.4173(4)
C16 C 0.6336(7) 0.1211(9) 0.5600(6)
C17 C 0.5868(9) 0.0715(12) 0.5761(7)
H17 H 0.5562 0.0424 0.5416
C18 C 0.6871(8) 0.1614(14) 0.6120(7)
H18 H 0.6469 0.0788 0.5367
H19 H 0.5595 0.1207 0.5893
H20 H 0.5971 0.0311 0.5985
H21 H 0.7127 0.1859 0.6003
H22 H 0.6965 0.1149 0.6386
H23 H 0.6603 0.2059 0.6252
C19 C 0.5882(3) 0.2390(5) 0.3545(3)
H24 H 0.7856 0.0306 0.3978
C20 C 0.6110(4) 0.3268(5) 0.3425(4)
C21 C 0.5243(3) 0.2170(5) 0.3050(3)
N1F N 0.8473(3) 0.3817(4) 0.5482(3)
C1F C 0.7564(4) 0.2916(4) 0.5022(3)
C2F C 0.7865(3) 0.3705(3) 0.5297(2)
C3F C 0.7507(3) 0.4439(4) 0.5401(3)
C4F C 0.8039(4) 0.5119(5) 0.5562(5)
H1F H 0.8011 0.5512 0.5862
H2F H 0.7980 0.5470 0.5215
C5F C 0.8698(5) 0.4697(6) 0.5794(5)
C6F C 0.7309(5) 0.4184(7) 0.5897(4)
H3F H 0.6979 0.3738 0.5759
H4F H 0.7677 0.3957 0.6225
C7F C 0.6927(4) 0.4638(6) 0.4829(4)
H5F H 0.6699 0.5139 0.4888
H6F H 0.7071 0.4765 0.4520
H7F H 0.6644 0.4135 0.4718
C8F C 0.8996(8) 0.4623(8) 0.6452(6)
H8F H 0.8729 0.4258 0.6581
H9F H 0.9417 0.4362 0.6576
H10F H 0.9033 0.5200 0.6624
C9F C 0.9123(8) 0.5115(12) 0.5565(7)
H11F H 0.9480 0.4729 0.5619
H12F H 0.8891 0.5236 0.5150
H13F H 0.9283 0.5659 0.5774
C10F C 0.8890(5) 0.3164(6) 0.5394(5)
C11F C 0.8989(8) 0.3163(9) 0.4898(8)
C12F C 0.9393(10) 0.2520(11) 0.4826(6)
H14F H 0.9483 0.2516 0.4489
C13F C 0.9650(5) 0.1904(7) 0.5251(4)
H15F H 0.9913 0.1467 0.5200
C14F C 0.9537(4) 0.1904(4) 0.5743(3)
H16F H 0.9729 0.1477 0.6033
C15F C 0.9139(4) 0.2532(5) 0.5827(4)
C16F C 0.8664(7) 0.3789(9) 0.4400(6)
C17F C 0.9132(9) 0.4285(12) 0.4239(7)
H17F H 0.9438 0.4576 0.4584
C18F C 0.8129(8) 0.3386(14) 0.3880(7)
H18F H 0.8531 0.4212 0.4633
H19F H 0.9405 0.3793 0.4107
H20F H 0.9029 0.4689 0.4015
H21F H 0.7873 0.3141 0.3997
H22F H 0.8035 0.3851 0.3614
H23F H 0.8397 0.2941 0.3748
C19F C 0.9118(3) 0.2610(5) 0.6455(3)
H24F H 0.7144 0.4694 0.6022
C20F C 0.8890(4) 0.1732(5) 0.6575(4)
C21F C 0.9757(3) 0.2830(5) 0.6950(3)
C22 C 0.24689(9) 0.66832(10) 0.18025(8)
C23 C 0.20590(9) 0.64734(11) 0.12409(8)
C24 C 0.14062(10) 0.64502(12) 0.10537(8)
C25 C 0.11333(9) 0.65941(12) 0.14396(9)
C26 C 0.15182(9) 0.67619(11) 0.20111(9)
C27 C 0.21608(8) 0.68120(10) 0.21716(8)
C28 C 0.34466(8) 0.59063(11) 0.25530(7)
C29 C 0.32765(8) 0.50743(11) 0.23420(8)
C30 C 0.33901(9) 0.43401(11) 0.26804(9)
C31 C 0.36817(9) 0.44191(13) 0.32749(9)
C32 C 0.38406(9) 0.52272(13) 0.35133(8)
C33 C 0.37204(9) 0.59465(12) 0.31528(8)
C34 C 0.35375(9) 0.76582(11) 0.23723(7)
C35 C 0.32091(9) 0.84343(11) 0.22811(8)
C36 C 0.34907(11) 0.92236(11) 0.24928(9)
C37 C 0.41300(11) 0.92693(12) 0.28041(9)
C38 C 0.44871(10) 0.85216(13) 0.29054(8)
C39 C 0.41863(9) 0.77480(11) 0.26866(8)
C40 C 0.35570(9) 0.66180(11) 0.15892(8)
C41 C 0.33834(11) 0.72129(13) 0.11345(9)
C42 C 0.36314(14) 0.72368(15) 0.07189(11)
C43 C 0.40895(14) 0.66436(17) 0.07513(11)
C44 C 0.42881(10) 0.60537(15) 0.11925(10)
C45 C 0.40285(9) 0.60540(12) 0.16025(8)
F1 F 0.22784(6) 0.62612(7) 0.08327(4)
F2 F 0.10323(6) 0.62729(8) 0.04944(5)
F3 F 0.05003(6) 0.65619(9) 0.12637(6)
F4 F 0.12577(5) 0.68786(7) 0.23991(5)
F5 F 0.25103(5) 0.70055(7) 0.27384(4)
F6 F 0.29814(5) 0.49528(6) 0.17596(4)
F7 F 0.32182(6) 0.35586(7) 0.24365(5)
F8 F 0.38030(7) 0.37149(8) 0.36187(6)
F9 F 0.41172(6) 0.53164(8) 0.40957(5)
F10 F 0.38875(5) 0.67112(7) 0.34361(4)
F11 F 0.25795(5) 0.84686(6) 0.19591(5)
F12 F 0.31372(7) 0.99520(7) 0.23847(6)
F13 F 0.44132(7) 1.00334(8) 0.30129(6)
F14 F 0.51203(6) 0.85582(8) 0.32070(5)
F15 F 0.45648(5) 0.70472(7) 0.27878(5)
F16 F 0.29364(7) 0.78211(7) 0.10804(5)
F17 F 0.34226(10) 0.78292(11) 0.02868(7)
F18 F 0.43352(10) 0.66523(12) 0.03461(8)
F19 F 0.47385(6) 0.54744(10) 0.12284(6)
F20 F 0.42703(5) 0.54587(8) 0.20276(5)
B1 B 0.32519(10) 0.67137(12) 0.20798(8)
H25? H 0.6198 0.1937 0.3561
H26? H 0.4968 0.2681 0.2955
H27? H 0.5040 0.1698 0.3173
H28? H 0.5312 0.1989 0.2706
H29? H 0.6126 0.3259 0.3041
H30? H 0.6534 0.3387 0.3722
H31? H 0.5818 0.3721 0.3435
N2? N 0.6392(3) 0.1405(4) 0.4402(3)
C46? C 0.6036(4) 0.2052(5) 0.4557(4)
C47? C 0.5983(6) 0.1953(7) 0.5110(6)
C48? C 0.5660(7) 0.2588(7) 0.5248(4)
C49? C 0.5393(4) 0.3288(4) 0.4888(3)
C50? C 0.5481(3) 0.3395(3) 0.4384(2)
C51? C 0.5786(4) 0.2762(4) 0.4199(2)
H32? H 0.5617 0.2551 0.5608
H33? H 0.5147 0.3696 0.4991
H34? H 0.5332 0.3905 0.4159
C52? C 0.6077(3) 0.2792(3) 0.3714(2)
C53? C 0.5701(4) 0.3059(5) 0.3579(3)
C54? C 0.6275(5) 0.1225(7) 0.5541(4)
C55? C 0.5773(5) 0.0782(7) 0.5710(5)
C56? C 0.6790(6) 0.1608(9) 0.6096(5)
H35? H 0.6543 0.0769 0.5443
H36? H 0.5644 0.1115 0.5916
H37? H 0.6093 0.0282 0.6058
H38? H 0.7155 0.1932 0.5985
H39? H 0.7109 0.1156 0.6389
H40? H 0.6694 0.2013 0.6319
H41? H 0.5434 0.0548 0.5361
C57? C 0.7312(3) 0.2257(4) 0.4820(3)
C58? C 0.6998(3) 0.1477(3) 0.4535(2)
C59? C 0.7292(3) 0.0733(4) 0.4342(2)
C60? C 0.6761(3) 0.0045(5) 0.4167(3)
C61? C 0.6150(4) 0.0549(5) 0.4066(4)
C62? C 0.7446(4) 0.1053(7) 0.3828(3)
C63? C 0.7897(3) 0.0370(5) 0.4839(3)
C64? C 0.5784(5) 0.0777(4) 0.3445(4)
C65? C 0.5700(5) 0.0075(8) 0.4295(5)
H42? H 0.7582 0.0562 0.3660
H43? H 0.7792 0.0170 0.5159
H44? H 0.8218 0.0826 0.4979
H45? H 0.6724 -0.0259 0.3808
H46? H 0.6848 -0.0387 0.4481
H47? H 0.7067 0.1315 0.3531
H48? H 0.8062 -0.0116 0.4691
H49? H 0.7785 0.1484 0.3969
H50? H 0.6065 0.1057 0.3290
H51? H 0.5606 0.0250 0.3222
H52? H 0.5934 -0.0081 0.4704
H53? H 0.5534 -0.0451 0.4066
H54? H 0.5441 0.1174 0.3413
H55? H 0.5347 0.0458 0.4259
H56? H 0.5774 0.2535 0.3380
H57? H 0.5594 0.2868 0.2818
H58? H 0.5289 0.3468 0.3158
H59? H 0.6288 0.4095 0.3908
H60? H 0.6907 0.3496 0.4132
H61? H 0.6558 0.3730 0.3456
C66? C 0.6221(5) 0.3703(10) 0.3626(6)
C67? C 0.5064(3) 0.3447(5) 0.3161(3)
C68? C 0.5481(3) 0.2903(3) 0.3155(2)
H62? H 0.6636 0.3424 0.3817
H63? H 0.5069 0.3520 0.2775
H64? H 0.5001 0.4011 0.3308
H65? H 0.4719 0.3057 0.3134
H66? H 0.5178 0.2443 0.3129
H67? H 0.6311 0.2250 0.3711
H68? H 0.6165 0.3893 0.3235
H69? H 0.6198 0.4205 0.3855
C69? C 0.6495(3) 0.3602(4) 0.3811(3)
loop_
_geom_bond_atom_site_label_1
_geom_bond_atom_site_label_2
_geom_bond_site_symmetry_1
_geom_bond_site_symmetry_2
N1 C2 1_555 1_555
C1 C2 1_555 1_555
C2 C3 1_555 1_555
C3 C4 1_555 1_555
C4 H1 1_555 1_555
H2 C4 1_555 1_555
C5 N1 1_555 1_555
C6 C3 1_555 1_555
H3 C6 1_555 1_555
H4 C6 1_555 1_555
C7 C3 1_555 1_555
H5 C7 1_555 1_555
H6 C7 1_555 1_555
H7 C7 1_555 1_555
C8 C5 1_555 1_555
H8 C8 1_555 1_555
H9 C8 1_555 1_555
H10 C8 1_555 1_555
C9 C5 1_555 1_555
H11 C9 1_555 1_555
H12 C9 1_555 1_555
H13 C9 1_555 1_555
C10 N1 1_555 1_555
C11 C10 1_555 1_555
C12 C11 1_555 1_555
H14 C12 1_555 1_555
C13 C12 1_555 1_555
H15 C13 1_555 1_555
C14 C13 1_555 1_555
H16 C14 1_555 1_555
C15 C10 1_555 1_555
C16 C11 1_555 1_555
C17 C16 1_555 1_555
H17 C17 1_555 1_555
C18 C16 1_555 1_555
H18 C16 1_555 1_555
H19 C17 1_555 1_555
H20 C17 1_555 1_555
H21 C18 1_555 1_555
H22 C18 1_555 1_555
H23 C18 1_555 1_555
C19 C15 1_555 1_555
H24 C6 1_555 1_555
C20 C19 1_555 1_555
C21 C19 1_555 1_555
C22 C23 1_555 1_555
C23 C24 1_555 1_555
C24 C25 1_555 1_555
C25 C26 1_555 1_555
C26 C27 1_555 1_555
C27 C22 1_555 1_555
C28 C29 1_555 1_555
C29 C30 1_555 1_555
C30 C31 1_555 1_555
C31 C32 1_555 1_555
C32 C33 1_555 1_555
C33 C28 1_555 1_555
C34 C35 1_555 1_555
C35 C36 1_555 1_555
C36 C37 1_555 1_555
C37 C38 1_555 1_555
C38 C39 1_555 1_555
C39 C34 1_555 1_555
C40 C41 1_555 1_555
C41 C42 1_555 1_555
C42 C43 1_555 1_555
C43 C44 1_555 1_555
C44 C45 1_555 1_555
C45 C40 1_555 1_555
F1 C23 1_555 1_555
F2 C24 1_555 1_555
F3 C25 1_555 1_555
F4 C26 1_555 1_555
F5 C27 1_555 1_555
F6 C29 1_555 1_555
F7 C30 1_555 1_555
F8 C31 1_555 1_555
F9 C32 1_555 1_555
F10 C33 1_555 1_555
F11 C35 1_555 1_555
F12 C36 1_555 1_555
F13 C37 1_555 1_555
F14 C38 1_555 1_555
F15 C39 1_555 1_555
F16 C41 1_555 1_555
F17 C42 1_555 1_555
F18 C43 1_555 1_555
F19 C44 1_555 1_555
F20 C45 1_555 1_555
B1 C22 1_555 1_555
N1F C2F 1_555 1_555
C1F C1 1_555 1_555
C2F C1F 1_555 1_555
C3F C2F 1_555 1_555
C4F C3F 1_555 1_555
H1F C4F 1_555 1_555
H2F C4F 1_555 1_555
C5F N1F 1_555 1_555
C6F C3F 1_555 1_555
H3F C6F 1_555 1_555
H4F C6F 1_555 1_555
C7F C3F 1_555 1_555
H5F C7F 1_555 1_555
H6F C7F 1_555 1_555
H7F C7F 1_555 1_555
C8F C5F 1_555 1_555
H8F C8F 1_555 1_555
H9F C8F 1_555 1_555
H10F C8F 1_555 1_555
C9F C5F 1_555 1_555
H11F C9F 1_555 1_555
H12F C9F 1_555 1_555
H13F C9F 1_555 1_555
C10F N1F 1_555 1_555
C11F C10F 1_555 1_555
C12F C11F 1_555 1_555
H14F C12F 1_555 1_555
C13F C12F 1_555 1_555
H15F C13F 1_555 1_555
C14F C13F 1_555 1_555
H16F C14F 1_555 1_555
C15F C10F 1_555 1_555
C16F C11F 1_555 1_555
C17F C16F 1_555 1_555
H17F C17F 1_555 1_555
C18F C16F 1_555 1_555
H18F C16F 1_555 1_555
H19F C17F 1_555 1_555
H20F C17F 1_555 1_555
H21F C18F 1_555 1_555
H22F C18F 1_555 1_555
H23F C18F 1_555 1_555
C19F C15F 1_555 1_555
H24F C6F 1_555 1_555
C20F C19F 1_555 1_555
C21F C19F 1_555 1_555
C4 C5 1_555 1_555
C14 C15 1_555 1_555
C28 B1 1_555 1_555
C34 B1 1_555 1_555
C40 B1 1_555 1_555
C4F C5F 1_555 1_555
C14F C15F 1_555 1_555

#END
