
#######################################################################
#
#                 Cambridge Crystallographic Data Centre
#                                CCDC 
#
#######################################################################
#
# If this CIF has been generated from an entry in the Cambridge 
# Structural Database, then it will include bibliographic, chemical, 
# crystal, experimental, refinement or atomic coordinate data resulting 
# from the CCDC's data processing and validation procedures.
#
#######################################################################

data_ROHZOF
_chemical_formula_moiety         'C17 H35 N2 O2 1+,C1 F3 O3 S1 1-'
_chemical_name_systematic        
'2-((4-ethoxy-3-methyl-4-oxobut-2-en-2-yl)amino)-N,N-diethyl-3,3-dimethylbutan-1-aminium trifluoromethanesulfonate'
_symmetry_cell_setting           orthorhombic
_symmetry_space_group_name_H-M   'P 21 21 21'
_symmetry_Int_Tables_number      19
_space_group_name_Hall           'P 2ac 2ab'
loop_
_symmetry_equiv_pos_site_id
_symmetry_equiv_pos_as_xyz
1 x,y,z
2 1/2-x,-y,1/2+z
3 -x,1/2+y,1/2-z
4 1/2+x,1/2-y,-z
_cell_length_a                   7.306(3)
_cell_length_b                   13.258(4)
_cell_length_c                   23.857(8)
_cell_angle_alpha                90
_cell_angle_beta                 90
_cell_angle_gamma                90
_cell_volume                     2310.86
_exptl_crystal_colour            colorless
_exptl_crystal_description       block
_cell_formula_units_Z            4
loop_
_atom_site_label
_atom_site_type_symbol
_atom_site_fract_x
_atom_site_fract_y
_atom_site_fract_z
S1 S 0.77596(7) 0.36297(4) 0.19231(2)
F1 F 0.8902(3) 0.22947(12) 0.11944(7)
F2 F 0.8714(2) 0.38017(14) 0.08728(6)
F3 F 1.0917(2) 0.33998(14) 0.14257(7)
O1 O 0.8360(2) 0.29452(12) 0.23539(7)
O2 O 0.5920(2) 0.34583(13) 0.17329(8)
O3 O 0.8243(2) 0.46651(11) 0.20074(8)
C1 C 0.9141(3) 0.3261(2) 0.13230(11)
O4 O 0.4708(2) 0.40323(12) 0.39618(7)
O5 O 0.6259(2) 0.54524(11) 0.41573(7)
N1 N 0.6715(2) 0.24500(12) 0.36647(7)
N2 N 0.6233(2) 0.11901(12) 0.26866(7)
C2 C 0.6707(3) 0.13505(15) 0.37260(8)
C3 C 0.5531(3) 0.09140(17) 0.32558(8)
C4 C 0.7929(3) 0.06130(15) 0.25186(9)
C5 C 0.7589(3) -0.04857(16) 0.23942(10)
C6 C 0.4781(3) 0.11079(17) 0.22387(9)
C7 C 0.3181(3) 0.18029(18) 0.23324(11)
C8 C 0.6020(3) 0.09995(16) 0.43166(8)
C9 C 0.6304(4) -0.01432(16) 0.43741(10)
C10 C 0.3991(3) 0.12478(19) 0.44006(10)
C11 C 0.7155(4) 0.15340(19) 0.47649(10)
C12 C 0.8198(3) 0.30714(15) 0.37338(8)
C13 C 1.0052(3) 0.26118(18) 0.36430(10)
C14 C 0.7985(3) 0.40820(16) 0.38631(8)
C15 C 0.9567(3) 0.48133(18) 0.38924(11)
C16 C 0.6181(3) 0.44771(15) 0.39888(8)
C17 C 0.4590(4) 0.58938(18) 0.43625(11)
C18 C 0.5016(5) 0.69749(19) 0.45100(13)
loop_
_geom_bond_atom_site_label_1
_geom_bond_atom_site_label_2
_geom_bond_site_symmetry_1
_geom_bond_site_symmetry_2
S1 O1 1_555 1_555
F1 C1 1_555 1_555
F2 C1 1_555 1_555
F3 C1 1_555 1_555
O2 S1 1_555 1_555
O3 S1 1_555 1_555
C1 S1 1_555 1_555
O4 C16 1_555 1_555
O5 C16 1_555 1_555
N1 C2 1_555 1_555
N2 C3 1_555 1_555
C2 C3 1_555 1_555
C4 N2 1_555 1_555
C5 C4 1_555 1_555
C6 N2 1_555 1_555
C7 C6 1_555 1_555
C8 C2 1_555 1_555
C9 C8 1_555 1_555
C10 C8 1_555 1_555
C11 C8 1_555 1_555
C12 N1 1_555 1_555
C13 C12 1_555 1_555
C14 C12 1_555 1_555
C15 C14 1_555 1_555
C16 C14 1_555 1_555
C17 O5 1_555 1_555
C18 C17 1_555 1_555

#END
