
#######################################################################
#
#                 Cambridge Crystallographic Data Centre
#                                CCDC 
#
#######################################################################
#
# If this CIF has been generated from an entry in the Cambridge 
# Structural Database, then it will include bibliographic, chemical, 
# crystal, experimental, refinement or atomic coordinate data resulting 
# from the CCDC's data processing and validation procedures.
#
#######################################################################

data_ROJDOL
_chemical_formula_moiety         'C27 H23 N5 O2'
_chemical_name_systematic        
N-(2-(1,3-benzoxazol-2-yl)phenyl)-N^2^,N^2^-bis(pyridin-2-ylmethyl)glycinamide
_symmetry_cell_setting           triclinic
_symmetry_space_group_name_H-M   'P -1'
_symmetry_Int_Tables_number      2
_space_group_name_Hall           '-P 1'
loop_
_symmetry_equiv_pos_site_id
_symmetry_equiv_pos_as_xyz
1 x,y,z
2 -x,-y,-z
_cell_length_a                   9.4001(18)
_cell_length_b                   9.4983(18)
_cell_length_c                   13.114(3)
_cell_angle_alpha                92.085(3)
_cell_angle_beta                 94.402(3)
_cell_angle_gamma                99.476(3)
_cell_volume                     1150.07
_cell_formula_units_Z            2
loop_
_atom_site_label
_atom_site_type_symbol
_atom_site_fract_x
_atom_site_fract_y
_atom_site_fract_z
C1 C 0.6599(2) 0.7094(2) 0.53006(16)
C2 C 0.5614(2) 0.7781(2) 0.4725(2)
H1 H 0.5372 0.8627 0.4982
C3 C 0.5010(3) 0.7207(3) 0.3785(2)
H2 H 0.4351 0.7668 0.3417
C4 C 0.5351(3) 0.5981(3) 0.3378(2)
H3 H 0.4946 0.5616 0.2734
C5 C 0.6308(2) 0.5283(2) 0.39356(16)
H4 H 0.6530 0.4436 0.3662
C6 C 0.69442(19) 0.58121(19) 0.48890(14)
C7 C 0.79290(18) 0.50098(18) 0.54422(13)
C8 C 0.93651(19) 0.41578(18) 0.64974(14)
C9 C 1.0276(2) 0.3864(2) 0.73271(17)
H5 H 1.0459 0.4462 0.7916
C10 C 1.0889(2) 0.2656(2) 0.7237(2)
H6 H 1.1499 0.2434 0.7777
C11 C 1.0625(2) 0.1766(2) 0.6369(2)
H7 H 1.1064 0.0958 0.6339
C12 C 0.9730(3) 0.2034(2) 0.55433(19)
H8 H 0.9556 0.1437 0.4953
C13 C 0.9110(2) 0.32445(19) 0.56464(14)
C14 C 0.7195(2) 0.8930(2) 0.67317(19)
C15 C 0.8081(3) 0.9226(2) 0.7746(2)
H9 H 0.9007 0.9794 0.7634
H10 H 0.7590 0.9796 0.8187
C16 C 0.9645(2) 0.8239(3) 0.89985(17)
H11 H 0.9745 0.7377 0.9353
H12 H 0.9526 0.8969 0.9507
C17 C 1.1015(2) 0.8728(2) 0.84855(16)
C18 C 1.1320(2) 0.8099(2) 0.75789(16)
H13 H 1.0652 0.7371 0.7238
C19 C 1.2624(2) 0.8563(2) 0.71862(18)
H14 H 1.2847 0.8148 0.6578
C20 C 1.3590(2) 0.9642(2) 0.7701(2)
H15 H 1.4482 0.9970 0.7458
C21 C 1.3196(3) 1.0217(3) 0.8580(2)
H16 H 1.3844 1.0959 0.8924
C22 C 0.7067(2) 0.7424(2) 0.88367(19)
H17 H 0.6208 0.7329 0.8364
H18 H 0.6983 0.8132 0.9371
C23 C 0.7115(2) 0.6024(3) 0.93098(16)
C24 C 0.7381(3) 0.4868(3) 0.87591(19)
H19 H 0.7615 0.4948 0.8085
C25 C 0.7299(4) 0.3576(3) 0.9215(3)
H20 H 0.7476 0.2768 0.8857
C26 C 0.6947(3) 0.3512(5) 1.0212(3)
H21 H 0.6866 0.2654 1.0539
C27 C 0.6723(4) 0.4709(6) 1.0707(2)
H22 H 0.6497 0.4650 1.1384
N1 N 0.72422(18) 0.76447(16) 0.62624(14)
H23 H 0.7730 0.7097 0.6599
N2 N 0.85990(17) 0.52829(16) 0.63416(12)
N3 N 0.83462(17) 0.79495(17) 0.82823(13)
N4 N 1.1945(2) 0.9789(2) 0.89821(15)
N5 N 0.6803(2) 0.5971(3) 1.02915(17)
O1 O 0.6556(2) 0.98448(17) 0.63861(17)
O2 O 0.81876(14) 0.37846(13) 0.49559(9)
loop_
_geom_bond_atom_site_label_1
_geom_bond_atom_site_label_2
_geom_bond_site_symmetry_1
_geom_bond_site_symmetry_2
C1 C2 1_555 1_555
C2 H1 1_555 1_555
C3 C2 1_555 1_555
H2 C3 1_555 1_555
C4 C3 1_555 1_555
H3 C4 1_555 1_555
C5 C4 1_555 1_555
H4 C5 1_555 1_555
C6 C1 1_555 1_555
C7 C6 1_555 1_555
C8 C9 1_555 1_555
C9 H5 1_555 1_555
C10 C9 1_555 1_555
H6 C10 1_555 1_555
C11 C10 1_555 1_555
H7 C11 1_555 1_555
C12 C11 1_555 1_555
H8 C12 1_555 1_555
C13 C8 1_555 1_555
C14 C15 1_555 1_555
C15 H9 1_555 1_555
H10 C15 1_555 1_555
C16 H11 1_555 1_555
H12 C16 1_555 1_555
C17 C16 1_555 1_555
C18 C17 1_555 1_555
H13 C18 1_555 1_555
C19 C18 1_555 1_555
H14 C19 1_555 1_555
C20 C19 1_555 1_555
H15 C20 1_555 1_555
C21 C20 1_555 1_555
H16 C21 1_555 1_555
C22 H17 1_555 1_555
H18 C22 1_555 1_555
C23 C22 1_555 1_555
C24 C23 1_555 1_555
H19 C24 1_555 1_555
C25 C24 1_555 1_555
H20 C25 1_555 1_555
C26 C25 1_555 1_555
H21 C26 1_555 1_555
C27 C26 1_555 1_555
H22 C27 1_555 1_555
N1 C1 1_555 1_555
H23 N1 1_555 1_555
N2 C7 1_555 1_555
N3 C15 1_555 1_555
N4 C17 1_555 1_555
N5 C23 1_555 1_555
O1 C14 1_555 1_555
O2 C7 1_555 1_555
C5 C6 1_555 1_555
C8 N2 1_555 1_555
C12 C13 1_555 1_555
C13 O2 1_555 1_555
C14 N1 1_555 1_555
C16 N3 1_555 1_555
C21 N4 1_555 1_555
C22 N3 1_555 1_555
C27 N5 1_555 1_555

#END
