
#######################################################################
#
#                 Cambridge Crystallographic Data Centre
#                                CCDC 
#
#######################################################################
#
# If this CIF has been generated from an entry in the Cambridge 
# Structural Database, then it will include bibliographic, chemical, 
# crystal, experimental, refinement or atomic coordinate data resulting 
# from the CCDC's data processing and validation procedures.
#
#######################################################################

data_ROJFED
_chemical_formula_moiety         'C23 H18 N2 O3 S1'
_chemical_name_systematic        
1-benzyl-4-(methylsulfanyl)-3-(4-nitrophenyl)quinolin-2(1H)-one
_symmetry_cell_setting           monoclinic
_symmetry_space_group_name_H-M   'C 2/c'
_symmetry_Int_Tables_number      15
_space_group_name_Hall           '-C 2yn'
loop_
_symmetry_equiv_pos_site_id
_symmetry_equiv_pos_as_xyz
1 x,y,z
2 -x,y,1/2-z
3 1/2+x,1/2+y,z
4 1/2-x,1/2+y,1/2-z
5 -x,-y,-z
6 x,-y,1/2+z
7 1/2-x,1/2-y,-z
8 1/2+x,1/2-y,1/2+z
_cell_length_a                   18.098(3)
_cell_length_b                   5.8104(8)
_cell_length_c                   37.332(5)
_cell_angle_alpha                90
_cell_angle_beta                 96.725(4)
_cell_angle_gamma                90
_cell_volume                     3898.7
_exptl_crystal_colour            yellow
_exptl_crystal_description       block
_cell_formula_units_Z            8
loop_
_atom_site_label
_atom_site_type_symbol
_atom_site_fract_x
_atom_site_fract_y
_atom_site_fract_z
C1 C 0.11963(16) -0.2888(5) 0.35211(8)
C2 C 0.04890(18) -0.3205(6) 0.33290(9)
H1 H 0.0407 -0.4391 0.3162
C3 C -0.00846(19) -0.1737(7) 0.33905(11)
H2 H -0.0553 -0.1951 0.3263
C4 C 0.00210(19) 0.0015(7) 0.36338(10)
H3 H -0.0370 0.0995 0.3670
C5 C 0.07031(18) 0.0317(6) 0.38232(9)
H4 H 0.0770 0.1497 0.3992
C6 C 0.13085(16) -0.1097(5) 0.37709(8)
C7 C 0.20437(16) -0.0774(5) 0.39649(7)
C8 C 0.26153(16) -0.2158(5) 0.38904(7)
C9 C 0.25087(18) -0.4015(5) 0.36270(8)
C10 C 0.16501(18) -0.6383(6) 0.32310(8)
H5 H 0.1211 -0.7157 0.3298
H6 H 0.2067 -0.7428 0.3284
C11 C 0.15397(18) -0.5968(5) 0.28301(9)
C12 C 0.1189(2) -0.7628(7) 0.26115(12)
H7 H 0.0992 -0.8914 0.2714
C13 C 0.1124(3) -0.7418(9) 0.22420(14)
H8 H 0.0885 -0.8561 0.2097
C14 C 0.1406(3) -0.5560(10) 0.20893(12)
H9 H 0.1371 -0.5444 0.1839
C15 C 0.1740(2) -0.3856(8) 0.22986(11)
H10 H 0.1922 -0.2556 0.2193
C16 C 0.18088(18) -0.4069(6) 0.26707(9)
H11 H 0.2040 -0.2907 0.2814
C17 C 0.33838(16) -0.1879(5) 0.40793(7)
C18 C 0.36872(17) -0.3566(5) 0.43187(8)
H12 H 0.3422 -0.4907 0.4350
C19 C 0.43808(18) -0.3252(6) 0.45101(8)
H13 H 0.4580 -0.4358 0.4674
C20 C 0.47705(17) -0.1293(6) 0.44553(8)
C21 C 0.44994(18) 0.0361(6) 0.42138(8)
H14 H 0.4780 0.1663 0.4177
C22 C 0.38016(18) 0.0065(6) 0.40252(8)
H15 H 0.3611 0.1178 0.3861
C23 C 0.2289(3) -0.0222(8) 0.46989(9)
H16 H 0.2364 0.0792 0.4903
H17 H 0.2716 -0.1199 0.4696
H18 H 0.1856 -0.1150 0.4716
N1 N 0.17875(14) -0.4349(4) 0.34614(6)
N2 N 0.55009(17) -0.0915(7) 0.46661(8)
O1 O 0.30181(12) -0.5266(4) 0.35525(6)
O2 O 0.58618(17) 0.0740(6) 0.45941(9)
O3 O 0.57144(14) -0.2278(6) 0.49020(7)
S1 S 0.21623(5) 0.14333(16) 0.42948(3)
loop_
_geom_bond_atom_site_label_1
_geom_bond_atom_site_label_2
_geom_bond_site_symmetry_1
_geom_bond_site_symmetry_2
C1 C2 1_555 1_555
C2 H1 1_555 1_555
C3 C2 1_555 1_555
H2 C3 1_555 1_555
C4 C3 1_555 1_555
H3 C4 1_555 1_555
C5 C4 1_555 1_555
H4 C5 1_555 1_555
C6 C1 1_555 1_555
C7 C6 1_555 1_555
C8 C7 1_555 1_555
C9 C8 1_555 1_555
C10 H5 1_555 1_555
H6 C10 1_555 1_555
C11 C10 1_555 1_555
C12 C11 1_555 1_555
H7 C12 1_555 1_555
C13 C12 1_555 1_555
H8 C13 1_555 1_555
C14 C13 1_555 1_555
H9 C14 1_555 1_555
C15 C14 1_555 1_555
H10 C15 1_555 1_555
C16 C11 1_555 1_555
H11 C16 1_555 1_555
C17 C8 1_555 1_555
C18 C17 1_555 1_555
H12 C18 1_555 1_555
C19 C18 1_555 1_555
H13 C19 1_555 1_555
C20 C19 1_555 1_555
C21 C20 1_555 1_555
H14 C21 1_555 1_555
C22 C17 1_555 1_555
H15 C22 1_555 1_555
C23 H16 1_555 1_555
H17 C23 1_555 1_555
H18 C23 1_555 1_555
N1 C1 1_555 1_555
N2 C20 1_555 1_555
O1 C9 1_555 1_555
O2 N2 1_555 1_555
O3 N2 1_555 1_555
S1 C7 1_555 1_555
C5 C6 1_555 1_555
C9 N1 1_555 1_555
C10 N1 1_555 1_555
C15 C16 1_555 1_555
C21 C22 1_555 1_555
C23 S1 1_555 1_555

#END
