
#######################################################################
#
#                 Cambridge Crystallographic Data Centre
#                                CCDC 
#
#######################################################################
#
# If this CIF has been generated from an entry in the Cambridge 
# Structural Database, then it will include bibliographic, chemical, 
# crystal, experimental, refinement or atomic coordinate data resulting 
# from the CCDC's data processing and validation procedures.
#
#######################################################################

data_ROJGUU
_chemical_formula_moiety         'C35 H27 F1 O1'
_chemical_name_systematic        
1-(4-fluorophenyl)-2-(1-naphthyl)-5-(1-naphthylmethylene)spiro[2.5]octan-4-one
_symmetry_cell_setting           monoclinic
_symmetry_space_group_name_H-M   'P 21/c'
_symmetry_Int_Tables_number      14
_space_group_name_Hall           '-P 2ybc'
loop_
_symmetry_equiv_pos_site_id
_symmetry_equiv_pos_as_xyz
1 x,y,z
2 -x,1/2+y,1/2-z
3 -x,-y,-z
4 x,1/2-y,1/2+z
_cell_length_a                   12.0922(7)
_cell_length_b                   10.7380(5)
_cell_length_c                   19.1119(10)
_cell_angle_alpha                90
_cell_angle_beta                 96.4680(10)
_cell_angle_gamma                90
_cell_volume                     2465.81
_exptl_crystal_colour            colorless
_cell_formula_units_Z            4
loop_
_atom_site_label
_atom_site_type_symbol
_atom_site_fract_x
_atom_site_fract_y
_atom_site_fract_z
F1 F -0.32254(8) 0.10831(11) 0.87313(6)
O1 O 0.11781(10) -0.13393(10) 0.60101(5)
C1 C -0.24162(13) 0.05795(15) 0.83788(9)
C2 C -0.13432(13) 0.05332(14) 0.87083(8)
H1 H -0.1172 0.0843 0.9173
C3 C -0.05193(12) 0.00259(14) 0.83480(7)
H2 H 0.0224 -0.0002 0.8569
C4 C -0.07601(12) -0.04485(14) 0.76622(7)
C5 C 0.00556(12) -0.10244(14) 0.72305(7)
H3 H -0.0318 -0.1362 0.6776
C6 C 0.11932(12) -0.04111(14) 0.71328(7)
C7 C 0.14123(12) -0.04155(14) 0.63745(7)
C8 C 0.18990(12) 0.07225(14) 0.60717(7)
C9 C 0.19470(12) 0.07369(14) 0.53736(7)
H4 H 0.1682 0.0021 0.5115
C10 C 0.23775(13) 0.17728(14) 0.49748(7)
C11 C 0.32243(12) 0.15440(15) 0.45208(7)
C12 C 0.36374(12) 0.25641(15) 0.41497(7)
C13 C 0.45095(13) 0.23443(16) 0.37247(7)
H5 H 0.4794 0.3018 0.3477
C14 C 0.49424(14) 0.11867(17) 0.36679(8)
H6 H 0.5530 0.1060 0.3385
C15 C 0.11225(12) -0.17078(14) 0.74644(7)
H7 H 0.1277 -0.2396 0.7136
C16 C 0.15884(12) 0.07137(13) 0.75754(7)
H8 H 0.1767 0.0454 0.8072
H9 H 0.0983 0.1338 0.7555
C17 C 0.26133(12) 0.13040(14) 0.73167(7)
H10 H 0.2865 0.2015 0.7624
H11 H 0.3224 0.0686 0.7342
C18 C 0.23499(12) 0.17561(14) 0.65617(7)
H12 H 0.1795 0.2436 0.6548
H13 H 0.3035 0.2097 0.6395
C19 C 0.19707(13) 0.29633(15) 0.50283(7)
H14 H 0.1405 0.3113 0.5325
C20 C 0.23729(14) 0.39603(16) 0.46539(8)
H15 H 0.2075 0.4772 0.4697
C21 C 0.31930(13) 0.37655(15) 0.42272(7)
H16 H 0.3466 0.4447 0.3980
C22 C 0.45250(15) 0.01726(17) 0.40256(8)
H17 H 0.4822 -0.0638 0.3977
C23 C 0.36917(14) 0.03544(16) 0.44433(8)
H18 H 0.3422 -0.0334 0.4686
C24 C 0.15344(12) -0.19880(13) 0.82178(7)
C25 C 0.26912(12) -0.18881(13) 0.84695(7)
C26 C 0.35201(12) -0.16288(14) 0.80225(7)
H19 H 0.3313 -0.1542 0.7531
C27 C 0.46193(12) -0.15009(15) 0.82867(8)
H20 H 0.5162 -0.1335 0.7976
C28 C 0.49456(13) -0.16143(15) 0.90160(8)
H21 H 0.5700 -0.1487 0.9199
C29 C 0.41712(13) -0.19090(15) 0.94592(8)
H22 H 0.4399 -0.1998 0.9949
C30 C 0.30379(12) -0.20832(14) 0.92023(7)
C31 C 0.22429(13) -0.24554(14) 0.96518(7)
H23 H 0.2467 -0.2574 1.0140
C32 C 0.11592(12) -0.26444(14) 0.93900(7)
H24 H 0.0640 -0.2937 0.9690
C33 C 0.08113(12) -0.24038(14) 0.86718(7)
H25 H 0.0053 -0.2534 0.8497
C34 C -0.18618(12) -0.03497(14) 0.73481(8)
H26 H -0.2044 -0.0641 0.6880
C35 C -0.26927(13) 0.01619(16) 0.77033(9)
H27 H -0.3436 0.0222 0.7484
loop_
_geom_bond_atom_site_label_1
_geom_bond_atom_site_label_2
_geom_bond_site_symmetry_1
_geom_bond_site_symmetry_2
F1 C1 1_555 1_555
O1 C7 1_555 1_555
C1 C2 1_555 1_555
C2 H1 1_555 1_555
C3 C2 1_555 1_555
H2 C3 1_555 1_555
C4 C3 1_555 1_555
C5 C4 1_555 1_555
H3 C5 1_555 1_555
C6 C5 1_555 1_555
C7 C6 1_555 1_555
C8 C7 1_555 1_555
C9 C8 1_555 1_555
H4 C9 1_555 1_555
C10 C9 1_555 1_555
C11 C10 1_555 1_555
C12 C11 1_555 1_555
C13 C12 1_555 1_555
H5 C13 1_555 1_555
C14 C13 1_555 1_555
H6 C14 1_555 1_555
C15 C5 1_555 1_555
H7 C15 1_555 1_555
C16 C6 1_555 1_555
H8 C16 1_555 1_555
H9 C16 1_555 1_555
C17 C16 1_555 1_555
H10 C17 1_555 1_555
H11 C17 1_555 1_555
C18 C8 1_555 1_555
H12 C18 1_555 1_555
H13 C18 1_555 1_555
C19 C10 1_555 1_555
H14 C19 1_555 1_555
C20 C19 1_555 1_555
H15 C20 1_555 1_555
C21 C12 1_555 1_555
H16 C21 1_555 1_555
C22 C14 1_555 1_555
H17 C22 1_555 1_555
C23 C11 1_555 1_555
H18 C23 1_555 1_555
C24 C15 1_555 1_555
C25 C24 1_555 1_555
C26 C25 1_555 1_555
H19 C26 1_555 1_555
C27 C26 1_555 1_555
H20 C27 1_555 1_555
C28 C27 1_555 1_555
H21 C28 1_555 1_555
C29 C28 1_555 1_555
H22 C29 1_555 1_555
C30 C25 1_555 1_555
C31 C30 1_555 1_555
H23 C31 1_555 1_555
C32 C31 1_555 1_555
H24 C32 1_555 1_555
C33 C24 1_555 1_555
H25 C33 1_555 1_555
C34 C4 1_555 1_555
H26 C34 1_555 1_555
C35 C1 1_555 1_555
H27 C35 1_555 1_555
C6 C15 1_555 1_555
C17 C18 1_555 1_555
C20 C21 1_555 1_555
C22 C23 1_555 1_555
C29 C30 1_555 1_555
C32 C33 1_555 1_555
C34 C35 1_555 1_555

#END
