
#######################################################################
#
#                 Cambridge Crystallographic Data Centre
#                                CCDC 
#
#######################################################################
#
# If this CIF has been generated from an entry in the Cambridge 
# Structural Database, then it will include bibliographic, chemical, 
# crystal, experimental, refinement or atomic coordinate data resulting 
# from the CCDC's data processing and validation procedures.
#
#######################################################################

data_ROJHIJ
_chemical_formula_moiety         'C28 H34'
_chemical_name_systematic        
9,10-bis(4-methylphenyl)tricyclo[8.3.1.0^2,8^]tetradec-2(8)-ene
_symmetry_cell_setting           monoclinic
_symmetry_space_group_name_H-M   'C 2/c'
_symmetry_Int_Tables_number      15
_space_group_name_Hall           '-C 2yn'
loop_
_symmetry_equiv_pos_site_id
_symmetry_equiv_pos_as_xyz
1 x,y,z
2 -x,y,1/2-z
3 1/2+x,1/2+y,z
4 1/2-x,1/2+y,1/2-z
5 -x,-y,-z
6 x,-y,1/2+z
7 1/2-x,1/2-y,-z
8 1/2+x,1/2-y,1/2+z
_cell_length_a                   39.9430(10)
_cell_length_b                   5.9750(2)
_cell_length_c                   17.5610(6)
_cell_angle_alpha                90
_cell_angle_beta                 93.6140(10)
_cell_angle_gamma                90
_cell_volume                     4182.76
_exptl_crystal_colour            colorless
_exptl_crystal_description       prism
_cell_formula_units_Z            8
loop_
_atom_site_label
_atom_site_type_symbol
_atom_site_fract_x
_atom_site_fract_y
_atom_site_fract_z
C1 C 0.17904(6) 0.0140(4) 0.18936(14)
C2 C 0.19783(6) 0.0060(4) 0.26668(14)
H1 H 0.1832 -0.0471 0.3040
H2 H 0.2166 -0.0933 0.2647
C3 C 0.21191(7) 0.2288(4) 0.29745(16)
H3 H 0.2288 0.2013 0.3377
H4 H 0.2216 0.3089 0.2569
C4 C 0.18563(6) 0.3831(4) 0.32920(15)
H5 H 0.1976 0.5128 0.3482
H6 H 0.1764 0.3049 0.3708
C5 C 0.15767(6) 0.4578(4) 0.27164(14)
H7 H 0.1676 0.5348 0.2307
H8 H 0.1436 0.5593 0.2976
C6 C 0.13562(6) 0.2657(4) 0.23940(14)
H9 H 0.1319 0.1612 0.2796
H10 H 0.1144 0.3206 0.2183
C7 C 0.15084(6) 0.1320(4) 0.17670(13)
C8 C 0.13056(6) 0.1379(4) 0.10055(13)
H11 H 0.1263 0.2908 0.0862
C9 C 0.14913(6) 0.0340(4) 0.03213(14)
C10 C 0.16867(6) -0.1730(4) 0.06181(14)
H12 H 0.1532 -0.2757 0.0826
H13 H 0.1794 -0.2438 0.0206
C11 C 0.19491(6) -0.1051(4) 0.12446(14)
H14 H 0.2054 -0.2393 0.1443
C12 C 0.22159(6) 0.0455(4) 0.09129(15)
H15 H 0.2379 0.0867 0.1313
H16 H 0.2324 -0.0340 0.0523
C13 C 0.20512(6) 0.2552(4) 0.05677(15)
H17 H 0.2217 0.3380 0.0314
H18 H 0.1975 0.3423 0.0983
C14 C 0.17506(6) 0.1996(4) 0.00160(14)
H19 H 0.1841 0.1385 -0.0434
H20 H 0.1641 0.3392 -0.0107
C15 C 0.09639(6) 0.0296(4) 0.10922(13)
C16 C 0.09374(6) -0.1734(4) 0.14790(14)
H21 H 0.1134 -0.2341 0.1745
C17 C 0.06318(6) -0.2840(4) 0.14891(15)
H22 H 0.0621 -0.4261 0.1741
C18 C 0.03413(6) -0.1940(4) 0.11359(15)
C19 C 0.00115(7) -0.3194(5) 0.11403(19)
H23 H 0.0048 -0.4588 0.1404
H24 H -0.0073 -0.3480 0.0626
H25 H -0.0147 -0.2309 0.1396
C20 C 0.03641(6) 0.0133(4) 0.07873(14)
H26 H 0.0165 0.0824 0.0560
C21 C 0.06706(6) 0.1234(4) 0.07628(14)
H27 H 0.0684 0.2670 0.0521
C22 C 0.12287(6) -0.0242(4) -0.03246(13)
C23 C 0.10790(6) -0.2349(4) -0.03913(14)
H28 H 0.1154 -0.3527 -0.0049
C24 C 0.08213(6) -0.2798(4) -0.09345(14)
H29 H 0.0723 -0.4267 -0.0963
C25 C 0.07023(6) -0.1176(4) -0.14531(13)
C26 C 0.04262(7) -0.1675(5) -0.20519(15)
H30 H 0.0377 -0.0347 -0.2346
H31 H 0.0228 -0.2144 -0.1811
H32 H 0.0496 -0.2843 -0.2382
C27 C 0.08526(6) 0.0915(4) -0.13966(14)
H33 H 0.0780 0.2078 -0.1746
C28 C 0.11083(6) 0.1380(4) -0.08476(13)
H34 H 0.1202 0.2858 -0.0825
loop_
_geom_bond_atom_site_label_1
_geom_bond_atom_site_label_2
_geom_bond_site_symmetry_1
_geom_bond_site_symmetry_2
C1 C2 1_555 1_555
C2 H1 1_555 1_555
H2 C2 1_555 1_555
C3 C2 1_555 1_555
H3 C3 1_555 1_555
H4 C3 1_555 1_555
C4 C3 1_555 1_555
H5 C4 1_555 1_555
H6 C4 1_555 1_555
C5 C4 1_555 1_555
H7 C5 1_555 1_555
H8 C5 1_555 1_555
C6 C5 1_555 1_555
H9 C6 1_555 1_555
H10 C6 1_555 1_555
C7 C1 1_555 1_555
C8 C7 1_555 1_555
H11 C8 1_555 1_555
C9 C8 1_555 1_555
C10 C9 1_555 1_555
H12 C10 1_555 1_555
H13 C10 1_555 1_555
C11 C1 1_555 1_555
H14 C11 1_555 1_555
C12 C11 1_555 1_555
H15 C12 1_555 1_555
H16 C12 1_555 1_555
C13 C12 1_555 1_555
H17 C13 1_555 1_555
H18 C13 1_555 1_555
C14 C9 1_555 1_555
H19 C14 1_555 1_555
H20 C14 1_555 1_555
C15 C8 1_555 1_555
C16 C15 1_555 1_555
H21 C16 1_555 1_555
C17 C16 1_555 1_555
H22 C17 1_555 1_555
C18 C17 1_555 1_555
C19 C18 1_555 1_555
H23 C19 1_555 1_555
H24 C19 1_555 1_555
H25 C19 1_555 1_555
C20 C18 1_555 1_555
H26 C20 1_555 1_555
C21 C15 1_555 1_555
H27 C21 1_555 1_555
C22 C9 1_555 1_555
C23 C22 1_555 1_555
H28 C23 1_555 1_555
C24 C23 1_555 1_555
H29 C24 1_555 1_555
C25 C24 1_555 1_555
C26 C25 1_555 1_555
H30 C26 1_555 1_555
H31 C26 1_555 1_555
H32 C26 1_555 1_555
C27 C25 1_555 1_555
H33 C27 1_555 1_555
C28 C22 1_555 1_555
H34 C28 1_555 1_555
C6 C7 1_555 1_555
C10 C11 1_555 1_555
C13 C14 1_555 1_555
C20 C21 1_555 1_555
C27 C28 1_555 1_555

#END
