
#######################################################################
#
#                 Cambridge Crystallographic Data Centre
#                                CCDC 
#
#######################################################################
#
# If this CIF has been generated from an entry in the Cambridge 
# Structural Database, then it will include bibliographic, chemical, 
# crystal, experimental, refinement or atomic coordinate data resulting 
# from the CCDC's data processing and validation procedures.
#
#######################################################################

data_ROJHUV
_chemical_formula_moiety         'C28 H34 S2'
_chemical_name_systematic        
9,10-bis(4-(methylsulfanyl)phenyl)tricyclo[8.3.1.0^2,8^]tetradec-2(8)-ene
_symmetry_cell_setting           monoclinic
_symmetry_space_group_name_H-M   'P 21/c'
_symmetry_Int_Tables_number      14
_space_group_name_Hall           '-P 2ybc'
loop_
_symmetry_equiv_pos_site_id
_symmetry_equiv_pos_as_xyz
1 x,y,z
2 -x,1/2+y,1/2-z
3 -x,-y,-z
4 x,1/2-y,1/2+z
_cell_length_a                   12.225(7)
_cell_length_b                   6.002(3)
_cell_length_c                   32.70(3)
_cell_angle_alpha                90
_cell_angle_beta                 99.38(2)
_cell_angle_gamma                90
_cell_volume                     2367.26
_exptl_crystal_colour            colorless
_exptl_crystal_description       prism
_cell_formula_units_Z            4
loop_
_atom_site_label
_atom_site_type_symbol
_atom_site_fract_x
_atom_site_fract_y
_atom_site_fract_z
C1 C 0.5597(9) 1.1706(18) 0.4576(4)
H1 H 0.4953 1.2209 0.4682
H2 H 0.5840 1.2849 0.4406
H3 H 0.6179 1.1379 0.4803
C2 C 0.6508(8) 0.8528(18) 0.4104(3)
C3 C 0.7519(8) 0.9590(14) 0.4207(3)
H4 H 0.7570 1.0887 0.4364
C4 C 0.8463(7) 0.8728(15) 0.4076(3)
H5 H 0.9138 0.9451 0.4152
C5 C 0.8421(7) 0.6832(15) 0.3836(3)
C6 C 0.7391(9) 0.5813(16) 0.3734(3)
H6 H 0.7338 0.4520 0.3576
C7 C 0.6459(7) 0.6629(17) 0.3856(3)
H7 H 0.5783 0.5916 0.3774
C8 C 0.9485(7) 0.5851(14) 0.3708(3)
H8 H 0.9344 0.4261 0.3657
C9 C 1.0431(8) 0.6007(14) 0.4069(3)
C10 C 1.0233(8) 0.4665(16) 0.4450(3)
H9 H 0.9488 0.4060 0.4395
H10 H 1.0269 0.5677 0.4683
C11 C 1.1046(8) 0.2741(15) 0.4576(3)
H11 H 1.0728 0.1749 0.4759
H12 H 1.1132 0.1903 0.4330
C12 C 1.2182(9) 0.3474(17) 0.4791(3)
H13 H 1.2623 0.2153 0.4871
H14 H 1.2094 0.4256 0.5043
C13 C 1.2823(8) 0.4960(16) 0.4541(3)
H15 H 1.2915 0.4182 0.4288
H16 H 1.3556 0.5211 0.4698
C14 C 1.2284(7) 0.7227(15) 0.4423(3)
H17 H 1.2007 0.7822 0.4662
H18 H 1.2851 0.8238 0.4358
C15 C 1.1353(8) 0.7193(14) 0.4063(3)
C16 C 1.1556(7) 0.8353(15) 0.3672(3)
H19 H 1.1968 0.9730 0.3750
C17 C 1.2269(8) 0.6837(16) 0.3436(3)
H20 H 1.2427 0.7598 0.3191
H21 H 1.2968 0.6504 0.3612
C18 C 1.1647(8) 0.4701(17) 0.3314(3)
H22 H 1.1586 0.3846 0.3561
H23 H 1.2058 0.3816 0.3142
C19 C 1.0476(8) 0.5179(14) 0.3073(3)
H24 H 1.0076 0.3781 0.3030
H25 H 1.0549 0.5768 0.2803
C20 C 0.9760(7) 0.6866(13) 0.3291(3)
C21 C 1.0475(7) 0.8948(14) 0.3402(3)
H26 H 1.0624 0.9654 0.3150
H27 H 1.0074 1.0002 0.3547
C22 C 0.8668(8) 0.7377(16) 0.2989(3)
C23 C 0.8092(9) 0.5741(15) 0.2723(3)
H28 H 0.8401 0.4327 0.2720
C24 C 0.7102(8) 0.6142(16) 0.2470(3)
H29 H 0.6758 0.4998 0.2305
C25 C 0.6609(7) 0.8205(17) 0.2456(3)
C26 C 0.7133(8) 0.9854(16) 0.2713(3)
H30 H 0.6807 1.1254 0.2714
C27 C 0.8130(9) 0.9449(15) 0.2966(3)
H31 H 0.8462 1.0606 0.3131
C28 C 0.5147(9) 0.6555(17) 0.1798(3)
H32 H 0.4473 0.6767 0.1606
H33 H 0.5089 0.5231 0.1958
H34 H 0.5756 0.6407 0.1648
S1 S 0.5266(2) 0.9268(6) 0.42756(10)
S2 S 0.5376(2) 0.8885(5) 0.21353(9)
loop_
_geom_bond_atom_site_label_1
_geom_bond_atom_site_label_2
_geom_bond_site_symmetry_1
_geom_bond_site_symmetry_2
C1 H1 1_555 1_555
H2 C1 1_555 1_555
H3 C1 1_555 1_555
C2 C3 1_555 1_555
C3 H4 1_555 1_555
C4 C3 1_555 1_555
H5 C4 1_555 1_555
C5 C4 1_555 1_555
C6 C5 1_555 1_555
H6 C6 1_555 1_555
C7 C2 1_555 1_555
H7 C7 1_555 1_555
C8 C5 1_555 1_555
H8 C8 1_555 1_555
C9 C8 1_555 1_555
C10 C9 1_555 1_555
H9 C10 1_555 1_555
H10 C10 1_555 1_555
C11 C10 1_555 1_555
H11 C11 1_555 1_555
H12 C11 1_555 1_555
C12 C11 1_555 1_555
H13 C12 1_555 1_555
H14 C12 1_555 1_555
C13 C12 1_555 1_555
H15 C13 1_555 1_555
H16 C13 1_555 1_555
C14 C13 1_555 1_555
H17 C14 1_555 1_555
H18 C14 1_555 1_555
C15 C9 1_555 1_555
C16 C15 1_555 1_555
H19 C16 1_555 1_555
C17 C16 1_555 1_555
H20 C17 1_555 1_555
H21 C17 1_555 1_555
C18 C17 1_555 1_555
H22 C18 1_555 1_555
H23 C18 1_555 1_555
C19 C18 1_555 1_555
H24 C19 1_555 1_555
H25 C19 1_555 1_555
C20 C8 1_555 1_555
C21 C16 1_555 1_555
H26 C21 1_555 1_555
H27 C21 1_555 1_555
C22 C20 1_555 1_555
C23 C22 1_555 1_555
H28 C23 1_555 1_555
C24 C23 1_555 1_555
H29 C24 1_555 1_555
C25 C24 1_555 1_555
C26 C25 1_555 1_555
H30 C26 1_555 1_555
C27 C22 1_555 1_555
H31 C27 1_555 1_555
C28 H32 1_555 1_555
H33 C28 1_555 1_555
H34 C28 1_555 1_555
S1 C1 1_555 1_555
S2 C25 1_555 1_555
C2 S1 1_555 1_555
C6 C7 1_555 1_555
C14 C15 1_555 1_555
C19 C20 1_555 1_555
C20 C21 1_555 1_555
C26 C27 1_555 1_555
C28 S2 1_555 1_555

#END
