
#######################################################################
#
#                 Cambridge Crystallographic Data Centre
#                                CCDC 
#
#######################################################################
#
# If this CIF has been generated from an entry in the Cambridge 
# Structural Database, then it will include bibliographic, chemical, 
# crystal, experimental, refinement or atomic coordinate data resulting 
# from the CCDC's data processing and validation procedures.
#
#######################################################################

data_ROJJEH
_chemical_formula_moiety         'C26 H28 Cl2'
_chemical_name_systematic        
9,10-bis(4-chlorophenyl)tricyclo[8.3.1.0^2,8^]tetradec-2(8)-ene
_symmetry_cell_setting           monoclinic
_symmetry_space_group_name_H-M   'P 21/c'
_symmetry_Int_Tables_number      14
_space_group_name_Hall           '-P 2ybc'
loop_
_symmetry_equiv_pos_site_id
_symmetry_equiv_pos_as_xyz
1 x,y,z
2 -x,1/2+y,1/2-z
3 -x,-y,-z
4 x,1/2-y,1/2+z
_cell_length_a                   6.10200(10)
_cell_length_b                   20.7980(4)
_cell_length_c                   16.7890(3)
_cell_angle_alpha                90
_cell_angle_beta                 96.9250(10)
_cell_angle_gamma                90
_cell_volume                     2115.14
_exptl_crystal_colour            colorless
_exptl_crystal_description       prism
_cell_formula_units_Z            4
loop_
_atom_site_label
_atom_site_type_symbol
_atom_site_fract_x
_atom_site_fract_y
_atom_site_fract_z
Cl1 Cl 0.48998(9) -0.11117(3) 0.60778(3)
Cl2 Cl 0.70082(12) 0.05579(3) 0.95410(4)
C1 C 0.4244(3) -0.02965(10) 0.60574(10)
C2 C 0.2072(3) -0.01106(10) 0.58899(11)
H1 H 0.0957 -0.0417 0.5806
C3 C 0.1575(3) 0.05355(9) 0.58487(11)
H2 H 0.0105 0.0658 0.5735
C4 C 0.3177(3) 0.10126(9) 0.59697(10)
C5 C 0.5344(3) 0.08008(11) 0.61484(12)
H3 H 0.6470 0.1103 0.6238
C6 C 0.5873(3) 0.01541(10) 0.61963(12)
H4 H 0.7334 0.0027 0.6323
C7 C 0.2553(3) 0.17237(9) 0.59319(10)
C8 C 0.0681(3) 0.18230(10) 0.52283(11)
H5 H 0.1133 0.1623 0.4752
H6 H -0.0622 0.1597 0.5357
C9 C 0.0042(3) 0.25164(10) 0.50273(12)
H7 H -0.0940 0.2527 0.4528
H8 H -0.0751 0.2690 0.5446
C10 C 0.2041(3) 0.29344(11) 0.49461(12)
H9 H 0.1594 0.3381 0.4893
H10 H 0.2691 0.2812 0.4469
C11 C 0.3754(3) 0.28521(10) 0.56917(11)
H11 H 0.5040 0.3120 0.5625
C12 C 0.4493(3) 0.21572(9) 0.57693(11)
H12 H 0.5680 0.2117 0.6206
H13 H 0.5048 0.2022 0.5279
C13 C 0.2776(3) 0.30755(10) 0.64338(11)
C14 C 0.2778(3) 0.37936(10) 0.65786(13)
H14 H 0.3592 0.3999 0.6186
H15 H 0.3568 0.3878 0.7105
C15 C 0.0499(3) 0.41074(11) 0.65342(14)
H16 H 0.0665 0.4567 0.6461
H17 H -0.0411 0.3944 0.6064
C16 C -0.0699(4) 0.39977(11) 0.72618(15)
H18 H -0.2058 0.4244 0.7196
H19 H 0.0208 0.4164 0.7731
C17 C -0.1257(3) 0.33016(11) 0.74191(14)
H20 H -0.2152 0.3133 0.6949
H21 H -0.2140 0.3287 0.7862
C18 C 0.0740(3) 0.28685(10) 0.76159(12)
H22 H 0.1819 0.3093 0.7987
H23 H 0.0286 0.2488 0.7887
C19 C 0.1844(3) 0.26583(9) 0.68952(11)
C20 C 0.1792(3) 0.19364(9) 0.67552(10)
H24 H 0.0248 0.1803 0.6741
C21 C 0.3065(3) 0.15975(9) 0.74736(10)
C22 C 0.5133(3) 0.18171(10) 0.78038(11)
H25 H 0.5705 0.2189 0.7600
C23 C 0.6357(3) 0.14943(11) 0.84282(12)
H26 H 0.7753 0.1640 0.8633
C24 C 0.5479(4) 0.09553(11) 0.87414(12)
C25 C 0.3412(4) 0.07316(11) 0.84462(12)
H27 H 0.2823 0.0370 0.8667
C26 C 0.2231(3) 0.10564(10) 0.78143(11)
H28 H 0.0837 0.0907 0.7612
loop_
_geom_bond_atom_site_label_1
_geom_bond_atom_site_label_2
_geom_bond_site_symmetry_1
_geom_bond_site_symmetry_2
Cl1 C1 1_555 1_555
Cl2 C24 1_555 1_555
C1 C2 1_555 1_555
C2 H1 1_555 1_555
C3 C2 1_555 1_555
H2 C3 1_555 1_555
C4 C3 1_555 1_555
C5 C4 1_555 1_555
H3 C5 1_555 1_555
C6 C1 1_555 1_555
H4 C6 1_555 1_555
C7 C4 1_555 1_555
C8 C7 1_555 1_555
H5 C8 1_555 1_555
H6 C8 1_555 1_555
C9 C8 1_555 1_555
H7 C9 1_555 1_555
H8 C9 1_555 1_555
C10 C9 1_555 1_555
H9 C10 1_555 1_555
H10 C10 1_555 1_555
C11 C10 1_555 1_555
H11 C11 1_555 1_555
C12 C7 1_555 1_555
H12 C12 1_555 1_555
H13 C12 1_555 1_555
C13 C11 1_555 1_555
C14 C13 1_555 1_555
H14 C14 1_555 1_555
H15 C14 1_555 1_555
C15 C14 1_555 1_555
H16 C15 1_555 1_555
H17 C15 1_555 1_555
C16 C15 1_555 1_555
H18 C16 1_555 1_555
H19 C16 1_555 1_555
C17 C16 1_555 1_555
H20 C17 1_555 1_555
H21 C17 1_555 1_555
C18 C17 1_555 1_555
H22 C18 1_555 1_555
H23 C18 1_555 1_555
C19 C13 1_555 1_555
C20 C7 1_555 1_555
H24 C20 1_555 1_555
C21 C20 1_555 1_555
C22 C21 1_555 1_555
H25 C22 1_555 1_555
C23 C22 1_555 1_555
H26 C23 1_555 1_555
C24 C23 1_555 1_555
C25 C24 1_555 1_555
H27 C25 1_555 1_555
C26 C21 1_555 1_555
H28 C26 1_555 1_555
C5 C6 1_555 1_555
C11 C12 1_555 1_555
C18 C19 1_555 1_555
C19 C20 1_555 1_555
C25 C26 1_555 1_555

#END
