
#######################################################################
#
#                 Cambridge Crystallographic Data Centre
#                                CCDC 
#
#######################################################################
#
# If this CIF has been generated from an entry in the Cambridge 
# Structural Database, then it will include bibliographic, chemical, 
# crystal, experimental, refinement or atomic coordinate data resulting 
# from the CCDC's data processing and validation procedures.
#
#######################################################################

data_ROJNAH
_chemical_formula_moiety         'C12 H11 N3 O1'
_chemical_name_systematic        2-phenyl-N-(pyrazin-2-yl)acetamide
_symmetry_cell_setting           monoclinic
_symmetry_space_group_name_H-M   'P 21/c'
_symmetry_Int_Tables_number      14
_space_group_name_Hall           '-P 2ybc'
loop_
_symmetry_equiv_pos_site_id
_symmetry_equiv_pos_as_xyz
1 x,y,z
2 -x,1/2+y,1/2-z
3 -x,-y,-z
4 x,1/2-y,1/2+z
_cell_length_a                   8.1614(10)
_cell_length_b                   14.9430(13)
_cell_length_c                   9.3877(9)
_cell_angle_alpha                90
_cell_angle_beta                 103.653(12)
_cell_angle_gamma                90
_cell_volume                     1112.53
_exptl_crystal_colour            'light green'
_exptl_crystal_description       block
_cell_formula_units_Z            4
loop_
_atom_site_label
_atom_site_type_symbol
_atom_site_fract_x
_atom_site_fract_y
_atom_site_fract_z
O1 O 0.08108(17) 0.21229(7) 0.15970(13)
N1 N 0.10985(18) 0.18674(8) -0.07146(14)
H1 H 0.0940 0.2106 -0.1570
N2 N 0.2619(3) -0.03563(11) 0.0691(2)
N3 N 0.2187(2) 0.07152(9) -0.17873(16)
C1 C -0.1918(2) 0.33355(10) -0.02273(18)
C2 C -0.2518(3) 0.38422(13) 0.0763(2)
H2 H -0.1769 0.4154 0.1495
C3 C -0.4227(3) 0.38895(17) 0.0674(3)
H3 H -0.4621 0.4232 0.1351
C4 C -0.5344(3) 0.34400(16) -0.0394(3)
H4 H -0.6496 0.3484 -0.0458
C5 C -0.4759(3) 0.29204(14) -0.1377(3)
H5 H -0.5513 0.2605 -0.2100
C6 C -0.3062(3) 0.28686(11) -0.1288(2)
H6 H -0.2673 0.2513 -0.1952
C7 C -0.0058(2) 0.32860(10) -0.01708(19)
H7 H 0.0532 0.3738 0.0499
H8 H 0.0121 0.3412 -0.1136
C8 C 0.0659(2) 0.23755(11) 0.03256(18)
C9 C 0.1778(2) 0.10022(10) -0.05799(18)
C10 C 0.2003(3) 0.04704(12) 0.0662(2)
H9 H 0.1717 0.0696 0.1494
C11 C 0.3023(3) -0.06381(12) -0.0522(2)
H10 H 0.3456 -0.1212 -0.0546
C12 C 0.2821(3) -0.01103(12) -0.1733(2)
H11 H 0.3137 -0.0334 -0.2553
loop_
_geom_bond_atom_site_label_1
_geom_bond_atom_site_label_2
_geom_bond_site_symmetry_1
_geom_bond_site_symmetry_2
O1 C8 1_555 1_555
N1 H1 1_555 1_555
N2 C10 1_555 1_555
N3 C9 1_555 1_555
C1 C2 1_555 1_555
C2 H2 1_555 1_555
C3 C2 1_555 1_555
H3 C3 1_555 1_555
C4 C3 1_555 1_555
H4 C4 1_555 1_555
C5 C4 1_555 1_555
H5 C5 1_555 1_555
C6 C1 1_555 1_555
H6 C6 1_555 1_555
C7 C1 1_555 1_555
H7 C7 1_555 1_555
H8 C7 1_555 1_555
C8 N1 1_555 1_555
C9 N1 1_555 1_555
C10 C9 1_555 1_555
H9 C10 1_555 1_555
C11 N2 1_555 1_555
H10 C11 1_555 1_555
C12 N3 1_555 1_555
H11 C12 1_555 1_555
C5 C6 1_555 1_555
C7 C8 1_555 1_555
C11 C12 1_555 1_555

#END
