
#######################################################################
#
#                 Cambridge Crystallographic Data Centre
#                                CCDC 
#
#######################################################################
#
# If this CIF has been generated from an entry in the Cambridge 
# Structural Database, then it will include bibliographic, chemical, 
# crystal, experimental, refinement or atomic coordinate data resulting 
# from the CCDC's data processing and validation procedures.
#
#######################################################################

data_ROJPAJ
_chemical_formula_moiety         'C16 H14 Cl1 F1 O1'
_chemical_name_systematic        
1-(4-chlorophenyl)-3-fluoro-2-phenylbut-3-en-1-ol
_symmetry_cell_setting           monoclinic
_symmetry_space_group_name_H-M   'P 21/c'
_symmetry_Int_Tables_number      14
_space_group_name_Hall           '-P 2ybc'
loop_
_symmetry_equiv_pos_site_id
_symmetry_equiv_pos_as_xyz
1 x,y,z
2 -x,1/2+y,1/2-z
3 -x,-y,-z
4 x,1/2-y,1/2+z
_cell_length_a                   13.297(3)
_cell_length_b                   5.4122(11)
_cell_length_c                   19.079(4)
_cell_angle_alpha                90
_cell_angle_beta                 93.626(4)
_cell_angle_gamma                90
_cell_volume                     1370.29
_exptl_crystal_colour            colorless
_exptl_crystal_description       prism
_cell_formula_units_Z            4
loop_
_atom_site_label
_atom_site_type_symbol
_atom_site_fract_x
_atom_site_fract_y
_atom_site_fract_z
C1 C 0.57134(16) -0.0925(5) 0.41969(12)
H1 H 0.6272 -0.1734 0.4406
H2 H 0.5717 0.0786 0.4152
C2 C 0.49293(14) -0.2183(4) 0.39679(10)
C3 C 0.39622(12) -0.1268(3) 0.36190(9)
H3 H 0.4077 0.0446 0.348
C4 C 0.36994(13) -0.2740(3) 0.29374(9)
H4 H 0.3524 -0.4424 0.3074
C5 C 0.28041(13) -0.1690(3) 0.25107(9)
C6 C 0.28919(14) 0.0407(4) 0.21074(10)
H5 H 0.3515 0.1183 0.2098
C7 C 0.20756(14) 0.1376(4) 0.17182(10)
H6 H 0.2144 0.2797 0.1452
C8 C 0.11577(14) 0.0207(4) 0.17304(10)
C9 C 0.10457(15) -0.1869(5) 0.21261(11)
H7 H 0.0422 -0.2644 0.2132
C10 C 0.18684(14) -0.2803(4) 0.25174(11)
H8 H 0.1792 -0.4206 0.2791
C11 C 0.30969(13) -0.1233(3) 0.41054(9)
C12 C 0.29655(17) -0.3066(4) 0.45910(11)
H9 H 0.3408 -0.4397 0.4623
C13 C 0.2181(2) -0.2948(5) 0.50322(13)
H10 H 0.2103 -0.4209 0.5355
C14 C 0.15249(17) -0.1031(5) 0.50030(13)
H11 H 0.1008 -0.0955 0.5309
C15 C 0.16330(17) 0.0780(5) 0.45201(13)
H12 H 0.118 0.209 0.449
C16 C 0.24151(15) 0.0689(4) 0.40723(12)
H13 H 0.248 0.1943 0.3745
Cl1 Cl 0.01350(4) 0.13802(14) 0.12231(3)
F1 F 0.49417(10) -0.4697(3) 0.40396(8)
O1 O 0.45669(9) -0.2900(3) 0.25327(7)
H14 H 0.4787 -0.1509 0.2468
loop_
_geom_bond_atom_site_label_1
_geom_bond_atom_site_label_2
_geom_bond_site_symmetry_1
_geom_bond_site_symmetry_2
C1 H1 1_555 1_555
H2 C1 1_555 1_555
C2 C1 1_555 1_555
C3 C2 1_555 1_555
H3 C3 1_555 1_555
C4 C3 1_555 1_555
H4 C4 1_555 1_555
C5 C4 1_555 1_555
C6 C5 1_555 1_555
H5 C6 1_555 1_555
C7 C6 1_555 1_555
H6 C7 1_555 1_555
C8 C7 1_555 1_555
C9 C8 1_555 1_555
H7 C9 1_555 1_555
C10 C5 1_555 1_555
H8 C10 1_555 1_555
C11 C3 1_555 1_555
C12 C11 1_555 1_555
H9 C12 1_555 1_555
C13 C12 1_555 1_555
H10 C13 1_555 1_555
C14 C13 1_555 1_555
H11 C14 1_555 1_555
C15 C14 1_555 1_555
H12 C15 1_555 1_555
C16 C11 1_555 1_555
H13 C16 1_555 1_555
Cl1 C8 1_555 1_555
F1 C2 1_555 1_555
O1 C4 1_555 1_555
H14 O1 1_555 1_555
C9 C10 1_555 1_555
C15 C16 1_555 1_555

#END
