
#######################################################################
#
#                 Cambridge Crystallographic Data Centre
#                                CCDC 
#
#######################################################################
#
# If this CIF has been generated from an entry in the Cambridge 
# Structural Database, then it will include bibliographic, chemical, 
# crystal, experimental, refinement or atomic coordinate data resulting 
# from the CCDC's data processing and validation procedures.
#
#######################################################################

data_ROJPOX
_chemical_formula_moiety         'C14 H14 N3 O4 P1'
_chemical_name_systematic        
'dimethyl (3-(dicyanomethyl)-7-methyl-2-oxo-2,3-dihydro-1H-indol-3-yl)phosphonate'
_symmetry_cell_setting           orthorhombic
_symmetry_space_group_name_H-M   'P 21 21 21'
_symmetry_Int_Tables_number      19
_space_group_name_Hall           'P 2ac 2ab'
loop_
_symmetry_equiv_pos_site_id
_symmetry_equiv_pos_as_xyz
1 x,y,z
2 1/2-x,-y,1/2+z
3 1/2+x,1/2-y,-z
4 -x,1/2+y,1/2-z
_cell_length_a                   12.3951(10)
_cell_length_b                   15.0267(8)
_cell_length_c                   17.0189(15)
_cell_angle_alpha                90
_cell_angle_beta                 90
_cell_angle_gamma                90
_cell_volume                     3169.9
_exptl_crystal_colour            colorless
_exptl_crystal_description       prism
_cell_formula_units_Z            8
loop_
_atom_site_label
_atom_site_type_symbol
_atom_site_fract_x
_atom_site_fract_y
_atom_site_fract_z
P1 P 0.21625(8) 0.28129(6) 0.40363(6)
O1 O 0.4183(2) 0.39498(18) 0.48251(19)
O2 O 0.1086(2) 0.2443(2) 0.39227(19)
O3 O 0.2498(3) 0.35906(19) 0.34880(19)
O4 O 0.3098(2) 0.21152(17) 0.39503(19)
N1 N 0.3862(3) 0.2862(2) 0.5758(2)
H1 H 0.4510 0.2784 0.5926
N2 N 0.1919(4) 0.4808(3) 0.6497(3)
N3 N -0.0137(3) 0.4340(3) 0.4582(3)
C1 C 0.2950(3) 0.2413(2) 0.6063(3)
C2 C 0.2916(4) 0.1825(3) 0.6677(3)
C3 C 0.1893(4) 0.1494(3) 0.6853(3)
H2 H 0.1829 0.1096 0.7269
C4 C 0.0975(4) 0.1721(3) 0.6449(3)
H3 H 0.0315 0.1470 0.6587
C5 C 0.1036(3) 0.2330(3) 0.5831(3)
H4 H 0.0422 0.2502 0.5556
C6 C 0.2033(3) 0.2670(2) 0.5641(2)
C7 C 0.2376(3) 0.3314(2) 0.5003(2)
C8 C 0.3595(3) 0.3424(2) 0.5174(3)
C9 C 0.3901(4) 0.1572(3) 0.7141(3)
H5 H 0.4348 0.1187 0.6832
H6 H 0.3685 0.1270 0.7613
H7 H 0.4297 0.2099 0.7276
C10 C 0.1862(3) 0.4270(2) 0.5048(3)
H8 H 0.2291 0.4673 0.4720
C11 C 0.1901(4) 0.4589(3) 0.5863(3)
C12 C 0.0741(4) 0.4304(3) 0.4780(3)
C13 C 0.2292(6) 0.3551(4) 0.2646(3)
H9 H 0.1636 0.3229 0.2552
H10 H 0.2880 0.3254 0.2390
H11 H 0.2225 0.4144 0.2442
C14 C 0.2909(5) 0.1179(3) 0.4107(4)
H12 H 0.3046 0.1057 0.4651
H13 H 0.3383 0.0826 0.3787
H14 H 0.2174 0.1034 0.3985
P2 P 0.50547(8) 0.70742(6) 0.40916(7)
O5 O 0.2966(2) 0.61008(17) 0.49921(18)
O6 O 0.6178(2) 0.7260(2) 0.39133(18)
O7 O 0.4524(3) 0.63242(19) 0.36005(18)
O8 O 0.4273(2) 0.78827(18) 0.39964(19)
N4 N 0.3363(3) 0.7330(2) 0.5757(2)
H15 H 0.2720 0.7482 0.5891
N5 N 0.7344(4) 0.5614(3) 0.4973(3)
N6 N 0.4798(4) 0.5130(3) 0.6596(3)
C15 C 0.4304(3) 0.7760(2) 0.6024(2)
C16 C 0.4386(4) 0.8456(3) 0.6554(3)
C17 C 0.5430(4) 0.8745(3) 0.6711(3)
H16 H 0.5523 0.9216 0.7058
C18 C 0.6339(4) 0.8368(3) 0.6377(3)
H17 H 0.7020 0.8576 0.6512
C19 C 0.6232(3) 0.7679(3) 0.5841(3)
H18 H 0.6837 0.7428 0.5606
C20 C 0.5211(3) 0.7375(2) 0.5664(2)
C21 C 0.4819(3) 0.6675(2) 0.5099(2)
C22 C 0.3589(3) 0.6651(2) 0.5266(2)
C23 C 0.3417(4) 0.8892(3) 0.6920(3)
H19 H 0.3159 0.9356 0.6581
H20 H 0.3613 0.9141 0.7419
H21 H 0.2858 0.8457 0.6994
C24 C 0.5264(3) 0.5708(2) 0.5199(3)
H22 H 0.4905 0.5324 0.4814
C25 C 0.6440(4) 0.5652(3) 0.5066(3)
C26 C 0.5007(4) 0.5380(2) 0.5985(3)
C27 C 0.4615(6) 0.6290(5) 0.2763(3)
H23 H 0.4101 0.6690 0.2532
H24 H 0.4474 0.5695 0.2585
H25 H 0.5330 0.6462 0.2609
C28 C 0.4648(5) 0.8785(3) 0.4083(4)
H26 H 0.4168 0.9181 0.3812
H27 H 0.5359 0.8837 0.3865
H28 H 0.4668 0.8938 0.4631
loop_
_geom_bond_atom_site_label_1
_geom_bond_atom_site_label_2
_geom_bond_site_symmetry_1
_geom_bond_site_symmetry_2
P1 O2 1_555 1_555
O1 C8 1_555 1_555
O3 P1 1_555 1_555
O4 P1 1_555 1_555
N1 H1 1_555 1_555
N2 C11 1_555 1_555
N3 C12 1_555 1_555
C1 N1 1_555 1_555
C2 C1 1_555 1_555
C3 C2 1_555 1_555
H2 C3 1_555 1_555
C4 C3 1_555 1_555
H3 C4 1_555 1_555
C5 C4 1_555 1_555
H4 C5 1_555 1_555
C6 C1 1_555 1_555
C7 P1 1_555 1_555
C8 N1 1_555 1_555
C9 C2 1_555 1_555
H5 C9 1_555 1_555
H6 C9 1_555 1_555
H7 C9 1_555 1_555
C10 C7 1_555 1_555
H8 C10 1_555 1_555
C11 C10 1_555 1_555
C12 C10 1_555 1_555
C13 O3 1_555 1_555
H9 C13 1_555 1_555
H10 C13 1_555 1_555
H11 C13 1_555 1_555
C14 O4 1_555 1_555
H12 C14 1_555 1_555
H13 C14 1_555 1_555
H14 C14 1_555 1_555
P2 O6 1_555 1_555
O5 C22 1_555 1_555
O7 P2 1_555 1_555
O8 P2 1_555 1_555
N4 H15 1_555 1_555
N5 C25 1_555 1_555
N6 C26 1_555 1_555
C15 N4 1_555 1_555
C16 C15 1_555 1_555
C17 C16 1_555 1_555
H16 C17 1_555 1_555
C18 C17 1_555 1_555
H17 C18 1_555 1_555
C19 C18 1_555 1_555
H18 C19 1_555 1_555
C20 C15 1_555 1_555
C21 P2 1_555 1_555
C22 N4 1_555 1_555
C23 C16 1_555 1_555
H19 C23 1_555 1_555
H20 C23 1_555 1_555
H21 C23 1_555 1_555
C24 C21 1_555 1_555
H22 C24 1_555 1_555
C25 C24 1_555 1_555
C26 C24 1_555 1_555
C27 O7 1_555 1_555
H23 C27 1_555 1_555
H24 C27 1_555 1_555
H25 C27 1_555 1_555
C28 O8 1_555 1_555
H26 C28 1_555 1_555
H27 C28 1_555 1_555
H28 C28 1_555 1_555
C5 C6 1_555 1_555
C6 C7 1_555 1_555
C7 C8 1_555 1_555
C19 C20 1_555 1_555
C20 C21 1_555 1_555
C21 C22 1_555 1_555

#END
