
#######################################################################
#
#                 Cambridge Crystallographic Data Centre
#                                CCDC 
#
#######################################################################
#
# If this CIF has been generated from an entry in the Cambridge 
# Structural Database, then it will include bibliographic, chemical, 
# crystal, experimental, refinement or atomic coordinate data resulting 
# from the CCDC's data processing and validation procedures.
#
#######################################################################

data_ROJWEU
_chemical_formula_moiety         'C36 H33 Br1 N2 O4 S1'
_chemical_name_systematic        
3'-Acetyl-6'-(4-bromophenyl)-1-(3,5-dimethylbenzyl)-1'-((4-methylphenyl)sulfonyl)-2',3'-dihydro-1'H-spiro[indole-3,4'-pyridin]-2(1H)-one
_symmetry_cell_setting           orthorhombic
_symmetry_space_group_name_H-M   'P 21 21 21'
_symmetry_Int_Tables_number      19
_space_group_name_Hall           'P 2ac 2ab'
loop_
_symmetry_equiv_pos_site_id
_symmetry_equiv_pos_as_xyz
1 x,y,z
2 1/2-x,-y,1/2+z
3 -x,1/2+y,1/2-z
4 1/2+x,1/2-y,-z
_cell_length_a                   8.8742(6)
_cell_length_b                   11.4737(8)
_cell_length_c                   32.228(2)
_cell_angle_alpha                90
_cell_angle_beta                 90
_cell_angle_gamma                90
_cell_volume                     3281.45
_exptl_crystal_colour            colorless
_exptl_crystal_description       prismatic
_cell_formula_units_Z            4
loop_
_atom_site_label
_atom_site_type_symbol
_atom_site_fract_x
_atom_site_fract_y
_atom_site_fract_z
Br1 Br 0.68026(10) 0.03562(6) 1.054573(17)
S1 S 0.71517(11) 0.13841(7) 0.83883(3)
N1 N 0.5000(3) 0.6887(2) 0.86541(8)
N2 N 0.6075(3) 0.2498(2) 0.85346(8)
O1 O 0.3418(3) 0.5368(2) 0.85070(9)
O2 O 0.5493(4) 0.6008(2) 0.77918(8)
O3 O 0.7773(3) 0.0885(2) 0.87564(7)
O4 O 0.6256(3) 0.0701(2) 0.81196(8)
C1 C 0.6547(4) 0.7063(3) 0.86898(9)
C2 C 0.7298(5) 0.8089(3) 0.87707(11)
H1 H 0.6780 0.8785 0.8810
C3 C 0.8846(6) 0.8040(4) 0.87914(13)
H2 H 0.9384 0.8724 0.8838
C4 C 0.9617(5) 0.7013(4) 0.87457(12)
H3 H 1.0662 0.7007 0.8768
C5 C 0.8849(4) 0.5978(3) 0.86666(11)
H4 H 0.9365 0.5278 0.8635
C6 C 0.7297(4) 0.6022(3) 0.86361(9)
C7 C 0.4665(4) 0.5755(3) 0.85678(10)
C8 C 0.6172(4) 0.5070(3) 0.85683(9)
C9 C 0.6214(4) 0.4243(3) 0.89334(9)
H5 H 0.6187 0.4578 0.9196
C10 C 0.6287(4) 0.3083(3) 0.89171(10)
C11 C 0.5502(4) 0.3234(3) 0.81941(10)
H6 H 0.4447 0.3411 0.8241
H7 H 0.5584 0.2816 0.7934
C12 C 0.6402(4) 0.4365(3) 0.81686(9)
H8 H 0.7468 0.4144 0.8160
C13 C 0.6097(5) 0.5085(3) 0.77784(10)
C14 C 0.6642(7) 0.4585(5) 0.73744(12)
H9 H 0.6113 0.4947 0.7149
H10 H 0.6458 0.3760 0.7370
H11 H 0.7703 0.4727 0.7346
C15 C 0.6419(4) 0.2380(3) 0.93016(9)
C16 C 0.5501(4) 0.1439(3) 0.93778(11)
H12 H 0.4792 0.1216 0.9181
C17 C 0.5619(5) 0.0824(4) 0.97424(15)
H13 H 0.4998 0.0187 0.9792
C18 C 0.6666(5) 0.1164(4) 1.00321(11)
C19 C 0.7598(5) 0.2075(3) 0.99652(11)
H14 H 0.8305 0.2291 1.0164
C20 C 0.7478(4) 0.2683(3) 0.95948(10)
H15 H 0.8124 0.3305 0.9543
C21 C 0.3899(5) 0.7819(3) 0.86155(11)
H16 H 0.3050 0.7530 0.8456
H17 H 0.4351 0.8450 0.8459
C22 C 0.3318(4) 0.8303(3) 0.90167(11)
C23 C 0.3475(5) 0.7727(4) 0.93862(11)
H18 H 0.4021 0.7035 0.9395
C24 C 0.2832(6) 0.8160(4) 0.97490(13)
C25 C 0.2029(6) 0.9162(5) 0.97269(16)
H19 H 0.1582 0.9446 0.9968
C26 C 0.1844(5) 0.9784(4) 0.93606(16)
C27 C 0.2504(4) 0.9328(3) 0.90064(14)
H20 H 0.2396 0.9722 0.8756
C28 C 0.3022(8) 0.7531(7) 1.01508(14)
H21 H 0.3368 0.8067 1.0359
H22 H 0.3748 0.6918 1.0117
H23 H 0.2074 0.7205 1.0235
C29 C 0.0916(7) 1.0895(6) 0.9345(2)
H24 H 0.1349 1.1422 0.9147
H25 H 0.0910 1.1254 0.9614
H26 H -0.0098 1.0711 0.9265
C30 C 0.8634(5) 0.1982(3) 0.80938(11)
C31 C 0.9734(4) 0.2621(3) 0.82992(12)
H27 H 0.9689 0.2715 0.8586
C32 C 1.0886(5) 0.3112(4) 0.80776(14)
H28 H 1.1616 0.3543 0.8216
C33 C 1.0987(6) 0.2980(4) 0.76523(15)
C34 C 0.9899(7) 0.2321(4) 0.74582(14)
H29 H 0.9974 0.2197 0.7174
C35 C 0.8693(6) 0.1833(3) 0.76719(12)
H30 H 0.7948 0.1417 0.7533
C36 C 1.2247(7) 0.3513(5) 0.74033(18)
H31 H 1.2613 0.4196 0.7543
H32 H 1.1880 0.3724 0.7133
H33 H 1.3051 0.2959 0.7375
loop_
_geom_bond_atom_site_label_1
_geom_bond_atom_site_label_2
_geom_bond_site_symmetry_1
_geom_bond_site_symmetry_2
Br1 C18 1_555 1_555
S1 N2 1_555 1_555
N1 C1 1_555 1_555
N2 C10 1_555 1_555
O1 C7 1_555 1_555
O2 C13 1_555 1_555
O3 S1 1_555 1_555
O4 S1 1_555 1_555
C1 C2 1_555 1_555
C2 H1 1_555 1_555
C3 C2 1_555 1_555
H2 C3 1_555 1_555
C4 C3 1_555 1_555
H3 C4 1_555 1_555
C5 C4 1_555 1_555
H4 C5 1_555 1_555
C6 C1 1_555 1_555
C7 N1 1_555 1_555
C8 C6 1_555 1_555
C9 C8 1_555 1_555
H5 C9 1_555 1_555
C10 C9 1_555 1_555
C11 N2 1_555 1_555
H6 C11 1_555 1_555
H7 C11 1_555 1_555
C12 C8 1_555 1_555
H8 C12 1_555 1_555
C13 C12 1_555 1_555
C14 C13 1_555 1_555
H9 C14 1_555 1_555
H10 C14 1_555 1_555
H11 C14 1_555 1_555
C15 C10 1_555 1_555
C16 C15 1_555 1_555
H12 C16 1_555 1_555
C17 C16 1_555 1_555
H13 C17 1_555 1_555
C18 C17 1_555 1_555
C19 C18 1_555 1_555
H14 C19 1_555 1_555
C20 C15 1_555 1_555
H15 C20 1_555 1_555
C21 N1 1_555 1_555
H16 C21 1_555 1_555
H17 C21 1_555 1_555
C22 C21 1_555 1_555
C23 C22 1_555 1_555
H18 C23 1_555 1_555
C24 C23 1_555 1_555
C25 C24 1_555 1_555
H19 C25 1_555 1_555
C26 C25 1_555 1_555
C27 C22 1_555 1_555
H20 C27 1_555 1_555
C28 C24 1_555 1_555
H21 C28 1_555 1_555
H22 C28 1_555 1_555
H23 C28 1_555 1_555
C29 C26 1_555 1_555
H24 C29 1_555 1_555
H25 C29 1_555 1_555
H26 C29 1_555 1_555
C30 S1 1_555 1_555
C31 C30 1_555 1_555
H27 C31 1_555 1_555
C32 C31 1_555 1_555
H28 C32 1_555 1_555
C33 C32 1_555 1_555
C34 C33 1_555 1_555
H29 C34 1_555 1_555
C35 C30 1_555 1_555
H30 C35 1_555 1_555
C36 C33 1_555 1_555
H31 C36 1_555 1_555
H32 C36 1_555 1_555
H33 C36 1_555 1_555
C5 C6 1_555 1_555
C7 C8 1_555 1_555
C11 C12 1_555 1_555
C19 C20 1_555 1_555
C26 C27 1_555 1_555
C34 C35 1_555 1_555

#END
