
#######################################################################
#
#                 Cambridge Crystallographic Data Centre
#                                CCDC 
#
#######################################################################
#
# If this CIF has been generated from an entry in the Cambridge 
# Structural Database, then it will include bibliographic, chemical, 
# crystal, experimental, refinement or atomic coordinate data resulting 
# from the CCDC's data processing and validation procedures.
#
#######################################################################

data_ROJZUN
_chemical_name_common            
'Perfluoro-O6-chaplet[3]arene[3]tetrazine chloroform solvate'
_chemical_formula_moiety         'C24 F12 N12 O6,C1 H1 Cl3'
_chemical_name_systematic        
'9,10,19,20,29,30,31,32,35,36,39,40-dodecafluoro-2,7,12,17,22,27-hexaoxa-4,5,14,15,24,25,33,34,37,38,41,42-dodecaazaheptacyclo[26.2.2.2^3,6^.2^8,11^.2^13,16^.2^18,21^.2^23,26^]dotetraconta-1(30),3,5,8,10,13,15,18,20,23,25,28,31,33,35,37,39,41-octadecaene chloroform solvate'
_symmetry_cell_setting           monoclinic
_symmetry_space_group_name_H-M   'P 21/m'
_symmetry_Int_Tables_number      11
_space_group_name_Hall           '-P 2yb'
loop_
_symmetry_equiv_pos_site_id
_symmetry_equiv_pos_as_xyz
1 x,y,z
2 -x,1/2+y,-z
3 -x,-y,-z
4 x,1/2-y,z
_cell_length_a                   13.662(9)
_cell_length_b                   10.750(6)
_cell_length_c                   13.671(9)
_cell_angle_alpha                90
_cell_angle_beta                 119.879(7)
_cell_angle_gamma                90
_cell_volume                     1740.93
_exptl_crystal_colour            orange
_exptl_crystal_description       block
_cell_formula_units_Z            2
loop_
_atom_site_label
_atom_site_type_symbol
_atom_site_fract_x
_atom_site_fract_y
_atom_site_fract_z
Cl1 Cl -0.0393(4) 0.5321(5) 0.2707(5)
Cl2 Cl -0.2714(5) 0.5323(5) 0.1885(4)
Cl3 Cl -0.1895(4) 0.5314(5) 0.0393(4)
C1 C -0.1679(8) 0.4671(10) 0.1677(9)
H1 H -0.1683 0.3741 0.1681
F1 F 0.5443(3) 0.4695(4) 0.9097(3)
F2 F 0.4176(3) 0.4684(3) 0.6814(3)
F3 F -0.1351(3) 0.4682(3) 0.4554(4)
F4 F -0.2360(3) 0.4684(3) 0.5818(3)
F5 F 0.0899(3) 0.4682(3) 1.1347(4)
F6 F 0.3188(3) 0.4684(3) 1.2364(3)
O1 O 0.4388(4) 0.2500 1.2912(4)
O2 O 0.6171(4) 0.2500 1.0308(4)
O3 O 0.3521(4) 0.2500 0.5613(4)
O4 O -0.0870(4) 0.2500 0.3824(4)
O5 O -0.2912(4) 0.2500 0.6475(4)
O6 O -0.0303(4) 0.2500 1.0869(4)
N1 N 0.5929(4) 0.2500 1.2713(5)
N2 N 0.6386(5) 0.2500 1.2061(5)
N3 N 0.4076(5) 0.2500 1.1080(5)
N4 N 0.4539(5) 0.2500 1.0416(5)
N5 N 0.1784(5) 0.2500 0.4073(5)
N6 N 0.0681(5) 0.2500 0.3625(5)
N7 N 0.0881(5) 0.2500 0.5460(5)
N8 N 0.1993(4) 0.2500 0.5916(5)
N9 N -0.1076(5) 0.2500 0.7999(5)
N10 N -0.0417(5) 0.2500 0.9123(5)
N11 N -0.2059(5) 0.2500 0.9322(5)
N12 N -0.2719(4) 0.2500 0.8214(5)
C2 C 0.4798(5) 0.2500 1.2172(5)
C3 C 0.5654(6) 0.2500 1.0943(6)
C4 C 0.5476(5) 0.2500 0.9128(6)
C5 C 0.5149(4) 0.3604(5) 0.8535(5)
C6 C 0.4507(4) 0.3606(5) 0.7378(4)
C7 C 0.4174(5) 0.2500 0.6785(6)
C8 C 0.2379(5) 0.2500 0.5194(5)
C9 C 0.0284(6) 0.2500 0.4345(6)
C10 C -0.1352(5) 0.2500 0.4526(6)
C11 C -0.1611(4) 0.3615(5) 0.4849(4)
C12 C -0.2140(4) 0.3604(5) 0.5487(4)
C13 C -0.2379(5) 0.2500 0.5816(5)
C14 C -0.2170(6) 0.2500 0.7631(6)
C15 C -0.0932(5) 0.2500 0.9725(6)
C16 C 0.0868(6) 0.2500 1.1352(5)
C17 C 0.1468(4) 0.3604(5) 1.1610(4)
C18 C 0.2625(5) 0.3592(5) 1.2134(4)
C19 C 0.3210(5) 0.2500 1.2387(5)
F1C F 0.5443(3) 0.0305(4) 0.9097(3)
F2C F 0.4176(3) 0.0316(3) 0.6814(3)
F3C F -0.1351(3) 0.0318(3) 0.4554(4)
F4C F -0.2360(3) 0.0316(3) 0.5818(3)
F5C F 0.0899(3) 0.0318(3) 1.1347(4)
F6C F 0.3188(3) 0.0316(3) 1.2364(3)
C5C C 0.5149(4) 0.1396(5) 0.8535(5)
C6C C 0.4507(4) 0.1394(5) 0.7378(4)
C11C C -0.1611(4) 0.1385(5) 0.4849(4)
C12C C -0.2140(4) 0.1396(5) 0.5487(4)
C17C C 0.1468(4) 0.1396(5) 1.1610(4)
C18C C 0.2625(5) 0.1408(5) 1.2134(4)
loop_
_geom_bond_atom_site_label_1
_geom_bond_atom_site_label_2
_geom_bond_site_symmetry_1
_geom_bond_site_symmetry_2
Cl1 C1 1_555 1_555
Cl2 C1 1_555 1_555
Cl3 C1 1_555 1_555
C1 H1 1_555 1_555
F1 C5 1_555 1_555
F2 C6 1_555 1_555
F3 C11 1_555 1_555
F4 C12 1_555 1_555
F5 C17 1_555 1_555
F6 C18 1_555 1_555
O1 C2 1_555 1_555
O2 C3 1_555 1_555
O3 C7 1_555 1_555
O4 C9 1_555 1_555
O5 C13 1_555 1_555
O6 C15 1_555 1_555
N1 N2 1_555 1_555
N2 C3 1_555 1_555
N3 N4 1_555 1_555
N4 C3 1_555 1_555
N5 N6 1_555 1_555
N6 C9 1_555 1_555
N7 N8 1_555 1_555
N8 C8 1_555 1_555
N9 N10 1_555 1_555
N10 C15 1_555 1_555
N11 N12 1_555 1_555
N12 C14 1_555 1_555
C2 N1 1_555 1_555
C4 O2 1_555 1_555
C5 C4 1_555 1_555
C6 C5 1_555 1_555
C7 C6 1_555 1_555
C8 O3 1_555 1_555
C9 N7 1_555 1_555
C10 O4 1_555 1_555
C11 C10 1_555 1_555
C12 C11 1_555 1_555
C13 C12 1_555 1_555
C14 O5 1_555 1_555
C15 N11 1_555 1_555
C16 O6 1_555 1_555
C17 C16 1_555 1_555
C18 C17 1_555 1_555
C19 O1 1_555 1_555
F1C C5C 1_555 1_555
F2C C6C 1_555 1_555
F3C C11C 1_555 1_555
F4C C12C 1_555 1_555
F5C C17C 1_555 1_555
F6C C18C 1_555 1_555
C5C C4 1_555 1_555
C6C C7 1_555 1_555
C11C C10 1_555 1_555
C12C C13 1_555 1_555
C17C C16 1_555 1_555
C18C C19 1_555 1_555
N3 C2 1_555 1_555
N5 C8 1_555 1_555
N9 C14 1_555 1_555
C18 C19 1_555 1_555
C5C C6C 1_555 1_555
C11C C12C 1_555 1_555
C17C C18C 1_555 1_555

#END
