
#######################################################################
#
#                 Cambridge Crystallographic Data Centre
#                                CCDC 
#
#######################################################################
#
# If this CIF has been generated from an entry in the Cambridge 
# Structural Database, then it will include bibliographic, chemical, 
# crystal, experimental, refinement or atomic coordinate data resulting 
# from the CCDC's data processing and validation procedures.
#
#######################################################################

data_ROKBAW
_chemical_name_common            
'Difluoro-O6-chaplet[3]arene[3]tetrazine acetone solvate'
_chemical_formula_moiety         'C24 H6 F6 N12 O6,7(C3 H6 O1)'
_chemical_name_systematic        
'9,19,29,31,35,39-hexafluoro-2,7,12,17,22,27-hexaoxa-4,5,14,15,24,25,33,34,37,38,41,42-dodecaazaheptacyclo[26.2.2.2^3,6^.2^8,11^.2^13,16^.2^18,21^.2^23,26^]dotetraconta-1(30),3,5,8,10,13,15,18,20,23,25,28,31,33,35,37,39,41-octadecaene acetone solvate'
_symmetry_cell_setting           monoclinic
_symmetry_space_group_name_H-M   'C 2/c'
_symmetry_Int_Tables_number      15
_space_group_name_Hall           '-C 2yn'
loop_
_symmetry_equiv_pos_site_id
_symmetry_equiv_pos_as_xyz
1 x,y,z
2 -x,y,1/2-z
3 1/2+x,1/2+y,z
4 1/2-x,1/2+y,1/2-z
5 -x,-y,-z
6 x,-y,1/2+z
7 1/2-x,1/2-y,-z
8 1/2+x,1/2-y,1/2+z
_cell_length_a                   15.908(7)
_cell_length_b                   24.490(10)
_cell_length_c                   15.608(7)
_cell_angle_alpha                90
_cell_angle_beta                 117.640(6)
_cell_angle_gamma                90
_cell_volume                     5386.75
_exptl_crystal_colour            red
_exptl_crystal_description       block
_cell_formula_units_Z            4
loop_
_atom_site_label
_atom_site_type_symbol
_atom_site_fract_x
_atom_site_fract_y
_atom_site_fract_z
F1 F 0.0975(4) 0.6765(3) 0.5168(5)
F2 F 0.3908(4) 0.6001(2) 0.4692(4)
F3 F 0.0088(7) 0.3600(5) 0.4224(7)
O1 O 0.1590(2) 0.73301(12) 0.4102(2)
O2 O 0.3340(2) 0.53872(13) 0.5798(2)
O3 O 0.1695(2) 0.35579(12) 0.4183(2)
N1 N 0.3299(3) 0.44737(18) 0.5840(3)
N2 N 0.2879(3) 0.40026(16) 0.5424(3)
N3 N 0.1760(3) 0.44969(14) 0.4057(2)
N4 N 0.2180(3) 0.49642(14) 0.4466(2)
N5 N 0.0406(2) 0.68236(12) 0.2913(2)
C1 C 0.0753(3) 0.73087(16) 0.3265(3)
N6 N 0.0413(3) 0.77952(14) 0.2921(3)
C2 C 0.2011(3) 0.68382(16) 0.4518(3)
C3 C 0.1697(3) 0.6544(2) 0.5048(3)
C4 C 0.2126(3) 0.6059(2) 0.5477(3)
C5 C 0.2895(3) 0.58780(18) 0.5361(3)
C6 C 0.3222(3) 0.6190(2) 0.4842(3)
C7 C 0.2781(3) 0.66658(19) 0.4415(3)
C8 C 0.2904(3) 0.49289(17) 0.5329(3)
C9 C 0.2114(3) 0.40517(17) 0.4551(3)
C10 C 0.0825(3) 0.35810(16) 0.3329(3)
C11 C 0.0007(4) 0.35832(19) 0.3378(3)
C12 C 0.0833(4) 0.3571(2) 0.2458(3)
F1A F -0.0975(4) 0.6765(3) -0.0168(5)
F2A F -0.3908(4) 0.6001(2) 0.0308(4)
F3A F -0.0088(7) 0.3600(5) 0.0776(7)
O1A O -0.1590(2) 0.73301(12) 0.0898(2)
O2A O -0.3340(2) 0.53872(13) -0.0798(2)
O3A O -0.1695(2) 0.35579(12) 0.0817(2)
N1A N -0.3299(3) 0.44737(18) -0.0840(3)
N2A N -0.2879(3) 0.40026(16) -0.0424(3)
N3A N -0.1760(3) 0.44969(14) 0.0943(2)
N4A N -0.2180(3) 0.49642(14) 0.0534(2)
N5A N -0.0406(2) 0.68236(12) 0.2087(2)
C1A C -0.0753(3) 0.73087(16) 0.1735(3)
N6A N -0.0413(3) 0.77952(14) 0.2079(3)
C2A C -0.2011(3) 0.68382(16) 0.0482(3)
C3A C -0.1697(3) 0.6544(2) -0.0048(3)
C4A C -0.2126(3) 0.6059(2) -0.0477(3)
C5A C -0.2895(3) 0.58780(18) -0.0361(3)
C6A C -0.3222(3) 0.6190(2) 0.0158(3)
C7A C -0.2781(3) 0.66658(19) 0.0585(3)
C8A C -0.2904(3) 0.49289(17) -0.0329(3)
C9A C -0.2114(3) 0.40517(17) 0.0449(3)
C10A C -0.0825(3) 0.35810(16) 0.1671(3)
C11A C -0.0007(4) 0.35832(19) 0.1622(3)
C12A C -0.0833(4) 0.3571(2) 0.2542(3)
O4 O 0.6316(11) 0.7647(5) 0.6788(11)
C13 C 0.5807(6) 0.7299(3) 0.5082(7)
H1 H 0.5965 0.6910 0.5137
H2 H 0.5933 0.7465 0.4582
H3 H 0.5134 0.7343 0.4907
C14 C 0.6410(8) 0.7579(2) 0.6045(7)
C15 C 0.7386(7) 0.7674(3) 0.6349(7)
H4 H 0.7468 0.8038 0.6135
H5 H 0.7628 0.7398 0.6065
H6 H 0.7738 0.7654 0.7056
O6 O 0.5000 0.7228(2) 0.2500
C16 C 0.4549(4) 0.6423(2) 0.2973(4)
H7 H 0.5037 0.6239 0.3545
H8 H 0.4123 0.6150 0.2522
H9 H 0.4184 0.6670 0.3168
C17 C 0.5000 0.6736(3) 0.2500
C16A C 0.5451(4) 0.6423(2) 0.2027(4)
H7A H 0.4963 0.6239 0.1455
H8A H 0.5877 0.6150 0.2478
H9A H 0.5816 0.6670 0.1832
O7 O 0.4099(8) 0.4253(3) 0.4475(6)
C18 C 0.4151(5) 0.4925(3) 0.3404(5)
H10 H 0.4018 0.5174 0.3817
H11 H 0.3730 0.5009 0.2723
H12 H 0.4813 0.4968 0.3536
C19 C 0.3987(5) 0.4346(3) 0.3612(6)
C20 C 0.4130(5) 0.3882(2) 0.3104(4)
H13 H 0.4799 0.3773 0.3431
H14 H 0.3953 0.3987 0.2435
H15 H 0.3734 0.3576 0.3103
C21 C 0.1739(5) 0.5832(3) 0.2222(5)
H16 H 0.2335 0.5648 0.2354
H17 H 0.1566 0.5741 0.2731
H18 H 0.1821 0.6228 0.2208
O9 O 0.1045(8) 0.5729(6) 0.0565(7)
C22 C 0.1011(10) 0.5656(7) 0.1315(10)
C23 C 0.0119(18) 0.5527(10) 0.1301(19)
H19 H 0.0219 0.5480 0.1965
H20 H -0.0135 0.5189 0.0937
H21 H -0.0332 0.5826 0.0990
F4? F 0.3122(5) 0.6978(3) 0.3973(5)
F5? F 0.1809(5) 0.5711(3) 0.5905(5)
F6? F 0.1659(3) 0.3564(2) 0.2429(3)
O5? O 0.5683(14) 0.7858(8) 0.6072(17)
O8? O 0.309(2) 0.4292(11) 0.331(3)
H22? H 0.2300 0.5679 0.2771
H23? H 0.1321 0.5997 0.2453
H24? H 0.1939 0.6111 0.1904
O10? O 0.1614(7) 0.5137(4) 0.1149(8)
C24? C 0.1220(8) 0.5388(6) 0.1517(8)
C25? C 0.0302(10) 0.5200(7) 0.1437(10)
H25? H 0.0369 0.4825 0.1680
H26? H -0.0183 0.5210 0.0758
H27? H 0.0113 0.5439 0.1820
loop_
_geom_bond_atom_site_label_1
_geom_bond_atom_site_label_2
_geom_bond_site_symmetry_1
_geom_bond_site_symmetry_2
F1 C3 1_555 1_555
F2 C6 1_555 1_555
F3 C11 1_555 1_555
O1 C1 1_555 1_555
O2 C5 1_555 1_555
O3 C9 1_555 1_555
N1 N2 1_555 1_555
N2 C9 1_555 1_555
N3 N4 1_555 1_555
N4 C8 1_555 1_555
N5 C1 1_555 1_555
C1 N6 1_555 1_555
N6 N6A 1_555 1_555
C2 O1 1_555 1_555
C3 C2 1_555 1_555
C4 C3 1_555 1_555
C5 C4 1_555 1_555
C6 C5 1_555 1_555
C7 C2 1_555 1_555
C8 O2 1_555 1_555
C9 N3 1_555 1_555
C10 O3 1_555 1_555
C11 C10 1_555 1_555
C12 C10 1_555 1_555
O4 C14 1_555 1_555
C13 H1 1_555 1_555
H2 C13 1_555 1_555
H3 C13 1_555 1_555
C14 C13 1_555 1_555
C15 C14 1_555 1_555
H4 C15 1_555 1_555
H5 C15 1_555 1_555
H6 C15 1_555 1_555
O6 C17 1_555 1_555
C16 H7 1_555 1_555
H8 C16 1_555 1_555
H9 C16 1_555 1_555
C17 C16 1_555 1_555
O7 C19 1_555 1_555
C18 H10 1_555 1_555
H11 C18 1_555 1_555
H12 C18 1_555 1_555
C19 C18 1_555 1_555
C20 C19 1_555 1_555
H13 C20 1_555 1_555
H14 C20 1_555 1_555
H15 C20 1_555 1_555
C21 H16 1_555 1_555
H17 C21 1_555 1_555
H18 C21 1_555 1_555
O9 C22 1_555 1_555
C22 C21 1_555 1_555
C23 C22 1_555 1_555
H19 C23 1_555 1_555
H20 C23 1_555 1_555
H21 C23 1_555 1_555
F1A C3A 1_555 1_555
F2A C6A 1_555 1_555
F3A C11A 1_555 1_555
O1A C1A 1_555 1_555
O2A C5A 1_555 1_555
O3A C9A 1_555 1_555
N1A N2A 1_555 1_555
N2A C9A 1_555 1_555
N3A N4A 1_555 1_555
N4A C8A 1_555 1_555
N5A N5 1_555 1_555
C1A N5A 1_555 1_555
N6A C1A 1_555 1_555
C2A O1A 1_555 1_555
C3A C2A 1_555 1_555
C4A C3A 1_555 1_555
C5A C4A 1_555 1_555
C6A C5A 1_555 1_555
C7A C2A 1_555 1_555
C8A O2A 1_555 1_555
C9A N3A 1_555 1_555
C10A O3A 1_555 1_555
C11A C12 1_555 1_555
C12A C11 1_555 1_555
C16A C17 1_555 1_555
H7A C16A 1_555 1_555
H8A C16A 1_555 1_555
H9A C16A 1_555 1_555
N1 C8 1_555 1_555
C6 C7 1_555 1_555
N1A C8A 1_555 1_555
C6A C7A 1_555 1_555
C10A C11A 1_555 1_555
C10A C12A 1_555 1_555

#END
