
#######################################################################
#
#                 Cambridge Crystallographic Data Centre
#                                CCDC 
#
#######################################################################
#
# If this CIF has been generated from an entry in the Cambridge 
# Structural Database, then it will include bibliographic, chemical, 
# crystal, experimental, refinement or atomic coordinate data resulting 
# from the CCDC's data processing and validation procedures.
#
#######################################################################

data_ROKFUT
_chemical_formula_moiety         
'2(C40 H44 N24 O12),C20 H24 N4 2+,2(Cl1 1-),52(H2 O1)'
_chemical_name_systematic        
'bis(o-Tetramethyl-cucurbit(6)uril) 1,6-bis(benzimidazolium-2-yl)hexane clathrate dichloride dopentacontahydrate'
_symmetry_cell_setting           triclinic
_symmetry_space_group_name_H-M   'P -1'
_symmetry_Int_Tables_number      2
_space_group_name_Hall           '-P 1'
loop_
_symmetry_equiv_pos_site_id
_symmetry_equiv_pos_as_xyz
1 x,y,z
2 -x,-y,-z
_cell_length_a                   17.409(4)
_cell_length_b                   18.235(4)
_cell_length_c                   24.767(6)
_cell_angle_alpha                92.974(3)
_cell_angle_beta                 106.115(3)
_cell_angle_gamma                90.165(3)
_cell_volume                     7542.02
_exptl_crystal_colour            'light yellow'
_cell_formula_units_Z            2
loop_
_atom_site_label
_atom_site_type_symbol
_atom_site_fract_x
_atom_site_fract_y
_atom_site_fract_z
Cl1 Cl 0.74777(19) 0.4107(2) 0.49922(13)
Cl2 Cl 0.5839(4) 0.2786(3) 0.1252(2)
O1 O -0.0601(4) 0.7967(5) 0.0330(2)
O2 O 0.3917(4) 0.4834(4) 0.4803(2)
O3 O -0.5410(4) 0.7038(4) 0.1261(3)
O4 O 0.0335(4) 0.1807(3) 0.2951(3)
O5 O 0.5110(4) -0.0658(4) 0.0634(2)
O6 O -0.1051(5) 0.5112(4) 0.4831(3)
O7 O -0.4541(4) 0.7854(3) 0.3059(3)
O8 O 0.4466(5) 0.2730(7) 0.0280(3)
O9 O 0.5044(4) 0.5953(5) 0.4451(3)
O10 O -0.0351(4) 0.6537(5) 0.0383(3)
O11 O -0.0107(4) 1.0479(3) 0.4564(3)
O12 O 0.0986(4) 0.6805(5) 0.1271(3)
O13 O 0.0043(4) 0.3938(5) 0.4405(3)
O14 O 0.4599(4) 0.1391(9) 0.0411(3)
O15 O -0.3256(5) 0.2543(4) 0.0482(3)
O16 O 0.4291(6) 0.5700(5) 0.0522(3)
O17 O 0.4948(5) -0.0544(4) 0.4564(3)
O18 O 0.4046(6) -0.1806(4) 0.0524(3)
O19 O -0.1664(5) 1.1098(5) 0.4330(3)
O21 O -0.1626(5) 0.3567(6) 0.4077(4)
O22 O 0.6033(6) -0.1639(5) 0.5011(4)
O23 O -0.0148(5) 1.0020(4) 0.0539(4)
O24 O 0.0881(6) 0.8283(5) 0.1212(4)
O25 O 0.0200(6) 0.2377(7) 0.3968(4)
O26 O -0.0471(5) 0.2359(7) 0.1019(5)
O27 O 0.0936(7) 1.1695(6) 0.4950(4)
O28 O 0.6748(7) 0.2543(8) 0.5101(4)
O29 O 0.3371(5) 0.6241(6) 0.4050(4)
O30 O -0.1688(7) 1.2258(6) 0.3579(5)
O32 O 0.7964(7) 0.1887(5) 0.2334(5)
O34 O 0.2352(9) -0.1365(5) 0.0591(4)
O35 O 0.7594(8) 0.8987(5) 0.4992(6)
O36 O 0.3581(8) -0.0096(7) -0.0217(4)
O37 O 0.3391(7) -0.1209(7) 0.4328(5)
O38 O 0.7641(6) 0.9886(9) 0.5867(4)
O39 O -0.2467(8) 0.3707(11) -0.0014(5)
O40 O 0.9239(8) 0.2291(7) 0.2046(6)
O41 O -0.0585(9) 0.3678(8) 0.0455(5)
O42 O 0.5290(6) 0.5802(11) -0.0142(4)
O43 O 0.7295(7) 0.9720(13) 0.4140(4)
O44 O 0.8163(8) 0.2468(8) 0.4864(4)
O45 O 0.3294(9) 0.7594(10) 0.3600(6)
O46 O -0.2567(7) 1.0835(9) 0.4990(6)
O47 O -0.1337(11) 1.1011(8) 0.0467(6)
O48 O -0.4796(9) 0.7328(14) 0.4631(6)
O50 O 0.2368(14) -0.2684(11) 0.1013(11)
O51 O 0.7395(15) 0.1024(18) 0.0845(9)
O52 O -0.5775(13) 0.7435(11) 0.2158(7)
O54 O 0.5971(18) -0.1607(14) 0.4069(9)
O55 O 0.5532(16) 0.0755(17) 0.0857(10)
O56 O -0.2846(14) 0.4582(14) -0.0386(11)
O57 O 0.0042(17) 0.4520(19) 0.0583(10)
O58 O 0.1305(13) 0.4934(14) 0.0075(8)
C1 C 0.3496(3) 0.4134(3) 0.12174(19)
C2 C 0.2270(3) 0.4454(3) 0.13793(19)
C3 C 0.2947(3) 0.4989(3) 0.17414(19)
C4 C 0.2339(3) 0.4382(3) 0.2341(2)
C5 C 0.4455(3) 0.5046(3) 0.18113(19)
H1 H 0.4731 0.4940 0.1526
H2 H 0.4395 0.5574 0.1841
C6 C 0.3420(3) 0.5267(3) 0.28160(19)
H3 H 0.3513 0.5766 0.2727
H4 H 0.3140 0.5294 0.3104
C7 C 0.5509(3) 0.4287(3) 0.2368(2)
C8 C 0.4939(3) 0.5105(2) 0.29029(18)
C9 C 0.5576(3) 0.4623(3) 0.33107(18)
C10 C 0.4314(3) 0.4469(2) 0.34711(18)
C11 C 0.6518(3) 0.3656(3) 0.3053(2)
H5 H 0.6933 0.3886 0.3363
H6 H 0.6734 0.3592 0.2733
C12 C 0.5382(3) 0.3751(3) 0.40667(18)
H7 H 0.5879 0.3957 0.4312
H8 H 0.4999 0.3735 0.4286
C13 C 0.6322(3) 0.2299(3) 0.2899(2)
C14 C 0.6269(3) 0.2800(3) 0.3772(2)
H9 H 0.6732 0.3013 0.4061
C15 C 0.6254(3) 0.1957(3) 0.3776(2)
H10 H 0.6731 0.1777 0.4046
C16 C 0.5138(3) 0.2416(3) 0.40225(18)
C17 C 0.6387(3) 0.0973(3) 0.3049(2)
H11 H 0.6609 0.0972 0.2730
H12 H 0.6789 0.0780 0.3362
C18 C 0.5353(3) 0.1083(3) 0.4101(2)
H13 H 0.5000 0.1142 0.4341
H14 H 0.5844 0.0870 0.4319
C19 C 0.5358(3) 0.0205(3) 0.2372(3)
C20 C 0.5414(3) 0.0122(3) 0.3316(2)
H15 H 0.5847 -0.0135 0.3573
C21 C 0.4768(4) -0.0427(3) 0.2955(2)
H16 H 0.4893 -0.0936 0.3052
C22 C 0.4197(3) 0.0356(3) 0.3516(2)
C23 C 0.4255(3) -0.0653(3) 0.1884(2)
H17 H 0.4163 -0.1159 0.1956
H18 H 0.4511 -0.0657 0.1582
C24 C 0.3278(3) -0.0586(3) 0.2900(2)
H19 H 0.3379 -0.1100 0.2829
H20 H 0.3020 -0.0554 0.3201
C25 C 0.3320(3) 0.0139(3) 0.1245(2)
C26 C 0.2767(3) -0.0517(3) 0.1836(2)
H21 H 0.2652 -0.1042 0.1743
C27 C 0.2106(3) -0.0045(3) 0.1467(2)
H22 H 0.1654 -0.0347 0.1238
C28 C 0.2199(3) 0.0240(3) 0.2415(2)
C29 C 0.2152(3) 0.0757(3) 0.06504(19)
H23 H 0.2478 0.0747 0.0390
H24 H 0.1637 0.0534 0.0454
C30 C 0.1204(3) 0.0929(3) 0.1743(2)
H25 H 0.1007 0.1006 0.2071
H26 H 0.0780 0.0691 0.1446
C31 C 0.2484(3) 0.2077(3) 0.07026(17)
C32 C 0.1343(3) 0.1752(3) 0.09775(19)
H27 H 0.0842 0.1559 0.0719
C33 C 0.1412(3) 0.2599(3) 0.09759(18)
H28 H 0.0953 0.2802 0.0703
C34 C 0.1389(3) 0.2280(3) 0.1873(2)
C35 C 0.2349(3) 0.3418(3) 0.06389(18)
H29 H 0.1865 0.3621 0.0401
H30 H 0.2713 0.3329 0.0410
C36 C 0.1297(3) 0.3608(3) 0.1692(2)
H31 H 0.0883 0.3795 0.1384
H32 H 0.1097 0.3621 0.2021
C37 C 0.1576(4) 0.4826(4) 0.0952(3)
H33 H 0.1300 0.5147 0.1151
H34 H 0.1210 0.4456 0.0733
H35 H 0.1788 0.5105 0.0706
C38 C 0.2827(5) 0.5797(4) 0.1599(3)
H36 H 0.2845 0.5851 0.1219
H37 H 0.3243 0.6094 0.1853
H38 H 0.2316 0.5952 0.1637
C39 C 0.5101(4) 0.5926(3) 0.2960(2)
H39 H 0.5096 0.6110 0.3329
H40 H 0.4694 0.6163 0.2683
H41 H 0.5614 0.6025 0.2904
C40 C 0.6255(3) 0.5046(3) 0.3722(2)
H42 H 0.6047 0.5358 0.3970
H43 H 0.6527 0.5340 0.3520
H44 H 0.6623 0.4708 0.3938
N1 N 0.2714(2) 0.3962(2) 0.10898(15)
N2 N 0.3664(2) 0.4699(2) 0.16275(15)
N3 N 0.1989(2) 0.4081(2) 0.18066(16)
N4 N 0.2909(2) 0.4886(2) 0.23157(15)
N5 N 0.4942(2) 0.4812(2) 0.23403(15)
N6 N 0.5850(2) 0.4138(2) 0.29127(15)
N7 N 0.4185(2) 0.4929(2) 0.30424(15)
N8 N 0.5082(2) 0.4240(2) 0.36071(15)
N9 N 0.6318(2) 0.2932(2) 0.32126(16)
N10 N 0.6231(2) 0.1724(2) 0.32007(18)
N11 N 0.5521(2) 0.3011(2) 0.38878(15)
N12 N 0.5533(2) 0.1791(2) 0.39381(16)
N13 N 0.5697(3) 0.0489(2) 0.29074(19)
N14 N 0.4788(3) -0.0303(2) 0.23831(19)
N15 N 0.4975(3) 0.0575(2) 0.36218(18)
N16 N 0.4038(3) -0.0188(2) 0.30861(18)
N17 N 0.3491(3) -0.0295(2) 0.17006(18)
N18 N 0.2531(3) 0.0318(2) 0.11212(18)
N19 N 0.2740(3) -0.0321(2) 0.24023(18)
N20 N 0.1875(3) 0.0444(2) 0.18801(18)
N21 N 0.2033(2) 0.1508(2) 0.08057(16)
N22 N 0.2149(2) 0.2723(2) 0.08288(15)
N23 N 0.1383(2) 0.1639(2) 0.15639(16)
N24 N 0.1446(2) 0.2851(2) 0.15470(15)
O59 O 0.3988(2) 0.38456(19) 0.10085(14)
O60 O 0.5689(2) 0.39989(19) 0.19609(13)
O61 O 0.6408(2) 0.2257(2) 0.24221(16)
O62 O 0.5542(2) 0.0370(2) 0.19479(17)
O63 O 0.3799(2) 0.0329(2) 0.09922(16)
O64 O 0.3070(2) 0.20182(19) 0.05256(13)
O65 O 0.2161(2) 0.42288(19) 0.27637(14)
O66 O 0.38050(19) 0.42961(17) 0.37009(12)
O67 O 0.4544(2) 0.24418(19) 0.41978(13)
O68 O 0.3704(2) 0.0596(2) 0.37487(14)
O69 O 0.2046(2) 0.0492(2) 0.28403(15)
O70 O 0.1329(2) 0.2348(2) 0.23547(14)
C41 C 0.0546(3) 0.5328(3) 0.2365(2)
C42 C 0.0637(3) 0.5105(3) 0.33183(19)
C43 C 0.0015(3) 0.4550(3) 0.29030(19)
C44 C -0.0615(3) 0.5242(2) 0.34927(18)
C45 C -0.0509(3) 0.4475(3) 0.18111(19)
H45 H -0.0250 0.4552 0.1519
H46 H -0.0559 0.3949 0.1839
C46 C -0.1491(3) 0.4330(2) 0.28424(19)
H47 H -0.1760 0.4336 0.3137
H48 H -0.1390 0.3821 0.2754
C47 C -0.1492(3) 0.5284(3) 0.12381(19)
C48 C -0.2008(3) 0.4474(2) 0.17615(18)
C49 C -0.2700(3) 0.4962(3) 0.14147(19)
C50 C -0.2599(3) 0.5139(2) 0.2382(2)
C51 C -0.2677(3) 0.5897(3) 0.06722(18)
H49 H -0.2333 0.5954 0.0428
H50 H -0.3169 0.5657 0.0448
C52 C -0.3644(3) 0.5843(3) 0.1773(2)
H51 H -0.4076 0.5621 0.1472
H52 H -0.3821 0.5873 0.2112
C53 C -0.2496(3) 0.7248(3) 0.07792(17)
C54 C -0.3565(3) 0.6765(3) 0.10540(18)
H53 H -0.4045 0.6535 0.0793
C55 C -0.3612(3) 0.7610(3) 0.10726(18)
H54 H -0.4106 0.7777 0.0813
C56 C -0.3563(2) 0.7188(3) 0.19600(19)
C57 C -0.2805(3) 0.8566(3) 0.07585(19)
H55 H -0.3321 0.8756 0.0561
H56 H -0.2474 0.8550 0.0502
C58 C -0.3774(3) 0.8524(3) 0.1843(2)
H57 H -0.3973 0.8483 0.2170
H58 H -0.4201 0.8716 0.1546
C59 C -0.1657(3) 0.9291(3) 0.1360(2)
C60 C -0.2872(3) 0.9467(3) 0.1572(2)
H59 H -0.3329 0.9719 0.1334
C61 C -0.2244(3) 1.0017(3) 0.1945(2)
H60 H -0.2385 1.0525 0.1854
C62 C -0.2772(3) 0.9323(3) 0.2520(2)
C63 C -0.0759(3) 1.0214(3) 0.1986(2)
H61 H -0.0866 1.0725 0.2062
H62 H -0.0508 1.0192 0.1682
C64 C -0.1711(3) 1.0219(3) 0.3024(2)
H63 H -0.1627 1.0732 0.2967
H64 H -0.1959 1.0201 0.3329
C65 C 0.0370(3) 0.9437(3) 0.2451(3)
C66 C -0.0222(3) 1.0109(3) 0.3050(2)
H65 H -0.0106 1.0631 0.3159
C67 C 0.0436(3) 0.9617(3) 0.3401(2)
H66 H 0.0870 0.9911 0.3659
C68 C -0.0775(3) 0.9377(3) 0.3604(2)
C69 C 0.1408(3) 0.8755(3) 0.3098(3)
H67 H 0.1818 0.8989 0.3408
H68 H 0.1614 0.8723 0.2772
C70 C 0.0396(3) 0.8736(3) 0.4165(2)
H69 H 0.0054 0.8700 0.4412
H70 H 0.0890 0.8980 0.4379
C71 C 0.1346(3) 0.7406(3) 0.2921(2)
C72 C 0.1290(3) 0.7848(3) 0.3815(2)
H71 H 0.1767 0.8068 0.4085
C73 C 0.1312(3) 0.6993(3) 0.3798(2)
H72 H 0.1780 0.6818 0.4079
C74 C 0.0196(3) 0.7383(3) 0.40685(18)
C75 C 0.1563(3) 0.6075(3) 0.3060(2)
H73 H 0.1770 0.6113 0.2737
H74 H 0.1988 0.5894 0.3363
C76 C 0.0435(3) 0.6051(3) 0.40836(19)
H75 H 0.0932 0.5878 0.4326
H76 H 0.0050 0.6081 0.4301
C77 C 0.1335(3) 0.4758(3) 0.3734(2)
H77 H 0.1138 0.4478 0.3986
H78 H 0.1695 0.5137 0.3944
H79 H 0.1611 0.4441 0.3532
C78 C 0.0225(3) 0.3751(3) 0.2967(2)
H80 H 0.0223 0.3615 0.3336
H81 H 0.0748 0.3675 0.2917
H82 H -0.0160 0.3454 0.2688
C79 C -0.2096(4) 0.3660(3) 0.1605(3)
H83 H -0.2079 0.3574 0.1222
H84 H -0.2597 0.3483 0.1642
H85 H -0.1666 0.3406 0.1850
C80 C -0.3387(4) 0.4554(3) 0.1014(2)
H86 H -0.3651 0.4257 0.1220
H87 H -0.3194 0.4245 0.0756
H88 H -0.3758 0.4897 0.0808
N25 N 0.0901(2) 0.5547(2) 0.29156(16)
N26 N 0.0002(2) 0.4788(2) 0.23459(15)
N27 N 0.0147(2) 0.5523(2) 0.36143(15)
N28 N -0.0730(2) 0.4718(2) 0.30568(15)
N29 N -0.1298(2) 0.4776(2) 0.16452(15)
N30 N -0.2284(2) 0.5419(2) 0.11198(15)
N31 N -0.2026(2) 0.4629(2) 0.23430(15)
N32 N -0.2952(2) 0.5373(2) 0.18631(15)
N33 N -0.2863(2) 0.6620(2) 0.08694(16)
N34 N -0.2914(2) 0.7837(2) 0.09138(15)
N35 N -0.3488(2) 0.6585(2) 0.16301(16)
N36 N -0.3581(2) 0.7798(2) 0.16598(16)
N37 N -0.2433(3) 0.9068(2) 0.12422(16)
N38 N -0.1505(3) 0.9811(2) 0.18063(17)
N39 N -0.3103(2) 0.9043(2) 0.19864(16)
N40 N -0.2256(3) 0.9882(2) 0.25121(17)
N41 N -0.0208(3) 0.9944(2) 0.24825(18)
N42 N 0.0708(3) 0.9213(2) 0.29756(19)
N43 N -0.0941(3) 0.9863(2) 0.31867(18)
N44 N 0.0006(3) 0.9183(2) 0.37037(17)
N45 N 0.1255(2) 0.8012(2) 0.32430(18)
N46 N 0.1346(2) 0.6803(2) 0.32303(18)
N47 N 0.0575(2) 0.8002(2) 0.39875(16)
N48 N 0.0571(2) 0.6782(2) 0.39145(16)
O71 O 0.0711(2) 0.5573(2) 0.19628(15)
O72 O -0.1011(2) 0.55635(19) 0.10206(14)
O73 O -0.1911(2) 0.72838(19) 0.05990(13)
O74 O -0.1173(2) 0.9088(2) 0.11068(16)
O75 O 0.0548(2) 0.9234(2) 0.20232(18)
O76 O 0.1413(2) 0.7396(2) 0.24412(17)
O77 O -0.11251(19) 0.54217(18) 0.37262(13)
O78 O -0.27521(19) 0.53352(18) 0.28242(13)
O79 O -0.3604(2) 0.71800(19) 0.24506(14)
O80 O -0.2928(2) 0.91132(19) 0.29513(14)
O81 O -0.1254(2) 0.9141(2) 0.38385(14)
O82 O -0.0393(2) 0.7361(2) 0.42547(14)
C81 C 0.6518(3) 0.7287(2) 0.72492(18)
C82 C 0.6133(3) 0.6943(3) 0.7589(2)
H89 H 0.6090 0.6434 0.7582
C83 C 0.5816(3) 0.7387(3) 0.7940(2)
H90 H 0.5544 0.7172 0.8168
C84 C 0.5895(3) 0.8150(3) 0.7960(2)
H91 H 0.5694 0.8433 0.8212
C85 C 0.6264(4) 0.8490(3) 0.7616(2)
H92 H 0.6300 0.8999 0.7621
C86 C 0.6583(3) 0.8046(3) 0.72588(19)
C87 C 0.7159(3) 0.7573(3) 0.6634(2)
C88 C 0.7598(4) 0.7512(3) 0.6189(2)
H93 H 0.7575 0.7981 0.6018
H94 H 0.8155 0.7416 0.6369
C89 C 0.7284(3) 0.6930(4) 0.5738(2)
H95 H 0.6711 0.6985 0.5584
H96 H 0.7375 0.6452 0.5896
C90 C 0.7694(4) 0.6974(5) 0.5261(3)
H97 H 0.7694 0.7483 0.5164
H98 H 0.8247 0.6836 0.5408
C91 C 0.7352(4) 0.6531(6) 0.4751(3)
H99 H 0.6799 0.6669 0.4601
H100 H 0.7352 0.6022 0.4846
C92 C 0.7769(4) 0.6586(4) 0.4292(2)
H101 H 0.7682 0.6127 0.4065
H102 H 0.8340 0.6642 0.4468
C93 C 0.7503(4) 0.7210(3) 0.3907(3)
H103 H 0.6930 0.7161 0.3736
H104 H 0.7603 0.7670 0.4131
C94 C 0.7912(3) 0.7240(3) 0.3448(2)
C95 C 0.8527(3) 0.6896(2) 0.28015(18)
C96 C 0.8884(3) 0.6527(3) 0.2440(2)
H105 H 0.8911 0.6017 0.2427
C97 C 0.9201(3) 0.6934(3) 0.2099(2)
H106 H 0.9450 0.6697 0.1853
C98 C 0.9153(3) 0.7693(3) 0.2116(2)
H107 H 0.9365 0.7955 0.1877
C99 C 0.8801(3) 0.8070(3) 0.2479(2)
H108 H 0.8779 0.8580 0.2495
C100 C 0.8483(3) 0.7655(2) 0.28178(19)
N49 N 0.6887(2) 0.7028(2) 0.68477(16)
H109 H 0.6930 0.6572 0.6755
N50 N 0.6994(3) 0.8189(2) 0.68708(18)
H110 H 0.7123 0.8620 0.6796
N51 N 0.8158(2) 0.6667(2) 0.32001(16)
H111 H 0.8101 0.6218 0.3273
N52 N 0.8085(3) 0.7835(2) 0.32287(18)
H112 H 0.7971 0.8273 0.3323
O20? O 0.6019(6) 0.1290(5) 0.1283(5)
O31? O -0.4720(7) 0.7390(7) 0.4073(5)
O33? O -0.6303(9) 0.7501(6) 0.2269(6)
O49? O 0.0169(8) 0.2677(14) 0.4605(6)
O53? O -0.7025(10) 0.7456(12) 0.2434(12)
loop_
_geom_bond_atom_site_label_1
_geom_bond_atom_site_label_2
_geom_bond_site_symmetry_1
_geom_bond_site_symmetry_2
C1 N1 1_555 1_555
C2 C3 1_555 1_555
C3 C38 1_555 1_555
C4 N3 1_555 1_555
C5 H1 1_555 1_555
H2 C5 1_555 1_555
C6 H3 1_555 1_555
H4 C6 1_555 1_555
C7 N5 1_555 1_555
C8 C9 1_555 1_555
C9 C40 1_555 1_555
C10 N7 1_555 1_555
C11 H5 1_555 1_555
H6 C11 1_555 1_555
C12 H7 1_555 1_555
H8 C12 1_555 1_555
C13 N9 1_555 1_555
C14 H9 1_555 1_555
C15 C14 1_555 1_555
H10 C15 1_555 1_555
C16 N11 1_555 1_555
C17 H11 1_555 1_555
H12 C17 1_555 1_555
C18 H13 1_555 1_555
H14 C18 1_555 1_555
C19 N13 1_555 1_555
C20 H15 1_555 1_555
C21 C20 1_555 1_555
H16 C21 1_555 1_555
C22 N15 1_555 1_555
C23 H17 1_555 1_555
H18 C23 1_555 1_555
C24 H19 1_555 1_555
H20 C24 1_555 1_555
C25 N17 1_555 1_555
C26 H21 1_555 1_555
C27 C26 1_555 1_555
H22 C27 1_555 1_555
C28 N19 1_555 1_555
C29 H23 1_555 1_555
H24 C29 1_555 1_555
C30 H25 1_555 1_555
H26 C30 1_555 1_555
C31 N21 1_555 1_555
C32 H27 1_555 1_555
C33 C32 1_555 1_555
H28 C33 1_555 1_555
C34 N23 1_555 1_555
C35 H29 1_555 1_555
H30 C35 1_555 1_555
C36 H31 1_555 1_555
H32 C36 1_555 1_555
C37 C2 1_555 1_555
H33 C37 1_555 1_555
H34 C37 1_555 1_555
H35 C37 1_555 1_555
C38 H36 1_555 1_555
H37 C38 1_555 1_555
H38 C38 1_555 1_555
C39 C8 1_555 1_555
H39 C39 1_555 1_555
H40 C39 1_555 1_555
H41 C39 1_555 1_555
C40 H42 1_555 1_555
H43 C40 1_555 1_555
H44 C40 1_555 1_555
C41 N25 1_555 1_555
C42 C43 1_555 1_555
C43 C78 1_555 1_555
C44 N27 1_555 1_555
C45 H45 1_555 1_555
H46 C45 1_555 1_555
C46 H47 1_555 1_555
H48 C46 1_555 1_555
C47 N29 1_555 1_555
C48 C49 1_555 1_555
C49 C80 1_555 1_555
C50 N31 1_555 1_555
C51 H49 1_555 1_555
H50 C51 1_555 1_555
C52 H51 1_555 1_555
H52 C52 1_555 1_555
C53 N33 1_555 1_555
C54 H53 1_555 1_555
C55 C54 1_555 1_555
H54 C55 1_555 1_555
C56 N35 1_555 1_555
C57 H55 1_555 1_555
H56 C57 1_555 1_555
C58 H57 1_555 1_555
H58 C58 1_555 1_555
C59 N37 1_555 1_555
C60 H59 1_555 1_555
C61 C60 1_555 1_555
H60 C61 1_555 1_555
C62 N39 1_555 1_555
C63 H61 1_555 1_555
H62 C63 1_555 1_555
C64 H63 1_555 1_555
H64 C64 1_555 1_555
C65 N41 1_555 1_555
C66 H65 1_555 1_555
C67 C66 1_555 1_555
H66 C67 1_555 1_555
C68 N43 1_555 1_555
C69 H67 1_555 1_555
H68 C69 1_555 1_555
C70 H69 1_555 1_555
H70 C70 1_555 1_555
C71 N45 1_555 1_555
C72 H71 1_555 1_555
C73 C72 1_555 1_555
H72 C73 1_555 1_555
C74 N47 1_555 1_555
C75 H73 1_555 1_555
H74 C75 1_555 1_555
C76 H75 1_555 1_555
H76 C76 1_555 1_555
C77 C42 1_555 1_555
H77 C77 1_555 1_555
H78 C77 1_555 1_555
H79 C77 1_555 1_555
C78 H80 1_555 1_555
H81 C78 1_555 1_555
H82 C78 1_555 1_555
C79 C48 1_555 1_555
H83 C79 1_555 1_555
H84 C79 1_555 1_555
H85 C79 1_555 1_555
C80 H86 1_555 1_555
H87 C80 1_555 1_555
H88 C80 1_555 1_555
C81 C82 1_555 1_555
C82 H89 1_555 1_555
C83 C82 1_555 1_555
H90 C83 1_555 1_555
C84 C83 1_555 1_555
H91 C84 1_555 1_555
C85 C84 1_555 1_555
H92 C85 1_555 1_555
C86 C81 1_555 1_555
C87 C88 1_555 1_555
C88 H93 1_555 1_555
H94 C88 1_555 1_555
C89 C88 1_555 1_555
H95 C89 1_555 1_555
H96 C89 1_555 1_555
C90 C89 1_555 1_555
H97 C90 1_555 1_555
H98 C90 1_555 1_555
C91 C90 1_555 1_555
H99 C91 1_555 1_555
H100 C91 1_555 1_555
C92 C91 1_555 1_555
H101 C92 1_555 1_555
H102 C92 1_555 1_555
C93 C92 1_555 1_555
H103 C93 1_555 1_555
H104 C93 1_555 1_555
C94 C93 1_555 1_555
C95 C96 1_555 1_555
C96 H105 1_555 1_555
C97 C96 1_555 1_555
H106 C97 1_555 1_555
C98 C97 1_555 1_555
H107 C98 1_555 1_555
C99 C98 1_555 1_555
H108 C99 1_555 1_555
C100 C95 1_555 1_555
N1 C2 1_555 1_555
N2 C1 1_555 1_555
N3 C2 1_555 1_555
N4 C3 1_555 1_555
N5 C5 1_555 1_555
N6 C7 1_555 1_555
N7 C6 1_555 1_555
N8 C9 1_555 1_555
N9 C11 1_555 1_555
N10 C13 1_555 1_555
N11 C12 1_555 1_555
N12 C15 1_555 1_555
N13 C17 1_555 1_555
N14 C19 1_555 1_555
N15 C18 1_555 1_555
N16 C21 1_555 1_555
N17 C23 1_555 1_555
N18 C25 1_555 1_555
N19 C24 1_555 1_555
N20 C27 1_555 1_555
N21 C29 1_555 1_555
N22 C31 1_555 1_555
N23 C30 1_555 1_555
N24 C33 1_555 1_555
N25 C42 1_555 1_555
N26 C41 1_555 1_555
N27 C42 1_555 1_555
N28 C43 1_555 1_555
N29 C45 1_555 1_555
N30 C47 1_555 1_555
N31 C46 1_555 1_555
N32 C49 1_555 1_555
N33 C51 1_555 1_555
N34 C53 1_555 1_555
N35 C52 1_555 1_555
N36 C55 1_555 1_555
N37 C57 1_555 1_555
N38 C59 1_555 1_555
N39 C58 1_555 1_555
N40 C61 1_555 1_555
N41 C63 1_555 1_555
N42 C65 1_555 1_555
N43 C64 1_555 1_555
N44 C67 1_555 1_555
N45 C69 1_555 1_555
N46 C71 1_555 1_555
N47 C70 1_555 1_555
N48 C73 1_555 1_555
N49 C81 1_555 1_555
H109 N49 1_555 1_555
N50 C86 1_555 1_555
H110 N50 1_555 1_555
N51 C94 1_555 1_555
H111 N51 1_555 1_555
N52 C94 1_555 1_555
H112 N52 1_555 1_555
O59 C1 1_555 1_555
O60 C7 1_555 1_555
O61 C13 1_555 1_555
O62 C19 1_555 1_555
O63 C25 1_555 1_555
O64 C31 1_555 1_555
O65 C4 1_555 1_555
O66 C10 1_555 1_555
O67 C16 1_555 1_555
O68 C22 1_555 1_555
O69 C28 1_555 1_555
O70 C34 1_555 1_555
O71 C41 1_555 1_555
O72 C47 1_555 1_555
O73 C53 1_555 1_555
O74 C59 1_555 1_555
O75 C65 1_555 1_555
O76 C71 1_555 1_555
O77 C44 1_555 1_555
O78 C50 1_555 1_555
O79 C56 1_555 1_555
O80 C62 1_555 1_555
O81 C68 1_555 1_555
O82 C74 1_555 1_555
C3 N2 1_555 1_555
C4 N4 1_555 1_555
C5 N2 1_555 1_555
C6 N4 1_555 1_555
C8 N5 1_555 1_555
C8 N7 1_555 1_555
C9 N6 1_555 1_555
C10 N8 1_555 1_555
C11 N6 1_555 1_555
C12 N8 1_555 1_555
C14 N9 1_555 1_555
C14 N11 1_555 1_555
C15 N10 1_555 1_555
C16 N12 1_555 1_555
C17 N10 1_555 1_555
C18 N12 1_555 1_555
C20 N13 1_555 1_555
C20 N15 1_555 1_555
C21 N14 1_555 1_555
C22 N16 1_555 1_555
C23 N14 1_555 1_555
C24 N16 1_555 1_555
C26 N17 1_555 1_555
C26 N19 1_555 1_555
C27 N18 1_555 1_555
C28 N20 1_555 1_555
C29 N18 1_555 1_555
C30 N20 1_555 1_555
C32 N21 1_555 1_555
C32 N23 1_555 1_555
C33 N22 1_555 1_555
C34 N24 1_555 1_555
C35 N1 1_555 1_555
C35 N22 1_555 1_555
C36 N3 1_555 1_555
C36 N24 1_555 1_555
C43 N26 1_555 1_555
C44 N28 1_555 1_555
C45 N26 1_555 1_555
C46 N28 1_555 1_555
C48 N29 1_555 1_555
C48 N31 1_555 1_555
C49 N30 1_555 1_555
C50 N32 1_555 1_555
C51 N30 1_555 1_555
C52 N32 1_555 1_555
C54 N33 1_555 1_555
C54 N35 1_555 1_555
C55 N34 1_555 1_555
C56 N36 1_555 1_555
C57 N34 1_555 1_555
C58 N36 1_555 1_555
C60 N37 1_555 1_555
C60 N39 1_555 1_555
C61 N38 1_555 1_555
C62 N40 1_555 1_555
C63 N38 1_555 1_555
C64 N40 1_555 1_555
C66 N41 1_555 1_555
C66 N43 1_555 1_555
C67 N42 1_555 1_555
C68 N44 1_555 1_555
C69 N42 1_555 1_555
C70 N44 1_555 1_555
C72 N45 1_555 1_555
C72 N47 1_555 1_555
C73 N46 1_555 1_555
C74 N48 1_555 1_555
C75 N25 1_555 1_555
C75 N46 1_555 1_555
C76 N27 1_555 1_555
C76 N48 1_555 1_555
C85 C86 1_555 1_555
C87 N49 1_555 1_555
C87 N50 1_555 1_555
C95 N51 1_555 1_555
C99 C100 1_555 1_555
C100 N52 1_555 1_555

#END
