
#######################################################################
#
#                 Cambridge Crystallographic Data Centre
#                                CCDC 
#
#######################################################################
#
# If this CIF has been generated from an entry in the Cambridge 
# Structural Database, then it will include bibliographic, chemical, 
# crystal, experimental, refinement or atomic coordinate data resulting 
# from the CCDC's data processing and validation procedures.
#
#######################################################################

data_ROKJOR
_chemical_name_common            3-Benzoyl-2-methylthio-5-(4-nitrophenyl)furan
_chemical_formula_moiety         'C18 H13 N1 O4 S1'
_chemical_name_systematic        
(2-(Methylthio)-5-(4-nitrophenyl)furan-3-yl)(phenyl)methanone
_symmetry_cell_setting           monoclinic
_symmetry_space_group_name_H-M   'P 21/c'
_symmetry_Int_Tables_number      14
_space_group_name_Hall           '-P 2ybc'
loop_
_symmetry_equiv_pos_site_id
_symmetry_equiv_pos_as_xyz
1 x,y,z
2 -x,1/2+y,1/2-z
3 -x,-y,-z
4 x,1/2-y,1/2+z
_cell_length_a                   16.312(4)
_cell_length_b                   13.323(3)
_cell_length_c                   7.362(2)
_cell_angle_alpha                90.00
_cell_angle_beta                 90.00
_cell_angle_gamma                90.00
_cell_volume                     1599.95
_exptl_crystal_colour            yellow
_exptl_crystal_description       block
_chemical_melting_point          '166-168 deg.C'
_cell_formula_units_Z            4
loop_
_atom_site_label
_atom_site_type_symbol
_atom_site_fract_x
_atom_site_fract_y
_atom_site_fract_z
S1 S 0.04425(6) 0.74893(7) 0.15946(14)
O1 O 0.18506(15) 0.67529(15) 0.0381(3)
O2 O 0.4639(2) 0.3093(2) -0.1908(5)
O3 O 0.5456(2) 0.4189(2) -0.3040(5)
O4 O 0.08739(17) 0.95535(18) 0.1268(4)
N1 N 0.4819(2) 0.3961(3) -0.2273(5)
C1 C 0.1420(2) 0.7600(3) 0.0742(4)
C2 C 0.1869(2) 0.8443(3) 0.0278(5)
C3 C 0.2621(2) 0.8063(3) -0.0451(5)
H1 H 0.3050 0.8448 -0.0908
C4 C 0.2603(2) 0.7053(3) -0.0364(5)
C5 C 0.3168(2) 0.6251(3) -0.0814(5)
C6 C 0.3895(2) 0.6480(3) -0.1708(5)
H2 H 0.4015 0.7143 -0.1998
C7 C 0.4440(2) 0.5731(3) -0.2165(5)
H3 H 0.4930 0.5885 -0.2751
C8 C 0.4251(2) 0.4756(3) -0.1745(5)
C9 C 0.3543(2) 0.4507(3) -0.0848(5)
H4 H 0.3435 0.3843 -0.0543
C10 C 0.2993(2) 0.5253(3) -0.0404(5)
H5 H 0.2503 0.5089 0.0173
C11 C 0.0266(2) 0.6166(2) 0.1324(6)
H6 H -0.0273 0.6002 0.1756
H7 H 0.0667 0.5798 0.2010
H8 H 0.0310 0.5991 0.0063
C12 C 0.1530(2) 0.9450(3) 0.0457(5)
C13 C 0.1927(3) 1.0320(3) -0.0444(5)
C14 C 0.1420(3) 1.1004(3) -0.1283(6)
H9 H 0.0856 1.0909 -0.1255
C15 C 0.1740(3) 1.1829(3) -0.2164(6)
H10 H 0.1394 1.2277 -0.2757
C16 C 0.2569(3) 1.1985(3) -0.2162(6)
H11 H 0.2786 1.2538 -0.2765
C17 C 0.3087(3) 1.1325(3) -0.1268(6)
H12 H 0.3649 1.1443 -0.1229
C18 C 0.2754(3) 1.0488(3) -0.0434(5)
H13 H 0.3098 1.0032 0.0143
loop_
_geom_bond_atom_site_label_1
_geom_bond_atom_site_label_2
_geom_bond_site_symmetry_1
_geom_bond_site_symmetry_2
S1 C1 1_555 1_555
O1 C1 1_555 1_555
O2 N1 1_555 1_555
O3 N1 1_555 1_555
O4 C12 1_555 1_555
N1 C8 1_555 1_555
C1 C2 1_555 1_555
C2 C3 1_555 1_555
C3 H1 1_555 1_555
C4 O1 1_555 1_555
C5 C4 1_555 1_555
C6 C5 1_555 1_555
H2 C6 1_555 1_555
C7 C6 1_555 1_555
H3 C7 1_555 1_555
C8 C7 1_555 1_555
C9 C8 1_555 1_555
H4 C9 1_555 1_555
C10 C5 1_555 1_555
H5 C10 1_555 1_555
C11 S1 1_555 1_555
H6 C11 1_555 1_555
H7 C11 1_555 1_555
H8 C11 1_555 1_555
C12 C2 1_555 1_555
C13 C12 1_555 1_555
C14 C13 1_555 1_555
H9 C14 1_555 1_555
C15 C14 1_555 1_555
H10 C15 1_555 1_555
C16 C15 1_555 1_555
H11 C16 1_555 1_555
C17 C16 1_555 1_555
H12 C17 1_555 1_555
C18 C13 1_555 1_555
H13 C18 1_555 1_555
C3 C4 1_555 1_555
C9 C10 1_555 1_555
C17 C18 1_555 1_555

#END
