
#######################################################################
#
#                 Cambridge Crystallographic Data Centre
#                                CCDC 
#
#######################################################################
#
# If this CIF has been generated from an entry in the Cambridge 
# Structural Database, then it will include bibliographic, chemical, 
# crystal, experimental, refinement or atomic coordinate data resulting 
# from the CCDC's data processing and validation procedures.
#
#######################################################################

data_ROKREP
_chemical_name_common            
"N,N'-bis((4-Ethoxyphenyl)carbamothioyl)benzene-1,3-dicarboxamide dimethylformamide clathrate"
_chemical_formula_moiety         'C26 H26 N4 O4 S2,C3 H7 N1 O1'
_chemical_name_systematic        
'1,3-bis((3-(4-Ethoxyphenyl)thiourea-1-yl)carbonyl)benzene dimethylformamide clathrate'
_symmetry_cell_setting           triclinic
_symmetry_space_group_name_H-M   'P -1'
_symmetry_Int_Tables_number      2
_space_group_name_Hall           '-P 1'
loop_
_symmetry_equiv_pos_site_id
_symmetry_equiv_pos_as_xyz
1 x,y,z
2 -x,-y,-z
_cell_length_a                   10.806(2)
_cell_length_b                   12.805(2)
_cell_length_c                   13.247(2)
_cell_angle_alpha                111.71(1)
_cell_angle_beta                 96.34(2)
_cell_angle_gamma                112.07(1)
_cell_volume                     1510.52
_cell_formula_units_Z            2
loop_
_atom_site_label
_atom_site_type_symbol
_atom_site_fract_x
_atom_site_fract_y
_atom_site_fract_z
S1 S 0.76219(8) 0.11027(9) 0.57695(7)
S2 S 0.53039(8) 0.37475(8) 0.29538(7)
O1 O 1.14120(17) 0.02790(16) 0.90817(14)
O2 O 0.48979(18) 0.16370(18) 0.80915(15)
O3 O 0.17442(17) 0.35080(17) 0.45174(15)
O4 O 0.1999(2) 0.5760(2) -0.00893(17)
N1 N 0.7164(2) 0.1367(2) 0.77567(17)
N2 N 0.5699(2) 0.1640(2) 0.65755(17)
N3 N 0.37257(19) 0.33476(18) 0.42651(16)
N4 N 0.3065(2) 0.4169(2) 0.31384(17)
C1 C 0.9369(3) 0.2010(2) 0.9052(2)
H1 H 0.9403 0.2794 0.9450
C2 C 1.0437(3) 0.1764(2) 0.9418(2)
H2 H 1.1176 0.2377 1.0062
C3 C 1.0399(2) 0.0609(2) 0.88249(19)
C4 C 0.9279(3) -0.0300(2) 0.7884(2)
H3 H 0.9244 -0.1085 0.7483
C5 C 0.8214(3) -0.0057(2) 0.7532(2)
H4 H 0.7458 -0.0681 0.6904
C6 C 0.8265(2) 0.1108(2) 0.81082(19)
C7 C 0.6824(2) 0.1373(2) 0.6760(2)
C8 C 0.4808(2) 0.1756(2) 0.7210(2)
C9 C 0.3657(2) 0.1984(2) 0.6754(2)
C10 C 0.2456(3) 0.1619(3) 0.7072(3)
H5 H 0.2396 0.1275 0.7582
C11 C 0.1343(3) 0.1760(4) 0.6641(3)
H6 H 0.0528 0.1498 0.6851
C12 C 0.1438(3) 0.2291(3) 0.5895(3)
H7 H 0.0686 0.2388 0.5604
C13 C 0.2644(2) 0.2679(2) 0.5582(2)
C14 C 0.3752(2) 0.2527(2) 0.60186(19)
H8 H 0.4570 0.2794 0.5815
C15 C 0.2662(2) 0.3222(2) 0.4755(2)
C16 C 0.3964(2) 0.3775(2) 0.34330(18)
C17 C 0.2920(2) 0.4593(2) 0.23072(19)
C18 C 0.1788(3) 0.4840(2) 0.2165(2)
H9 H 0.1199 0.4737 0.2619
C19 C 0.1513(3) 0.5230(3) 0.1372(2)
H10 H 0.0749 0.5395 0.1298
C20 C 0.2364(3) 0.5381(2) 0.0682(2)
C21 C 0.3498(3) 0.5145(3) 0.0813(2)
H11 H 0.4078 0.5242 0.0351
C22 C 0.3787(3) 0.4767(3) 0.1625(2)
H12 H 0.4568 0.4628 0.1715
C23 C 1.2576(3) 0.1173(3) 1.0060(2)
H13 H 1.2263 0.1396 1.0733
H14 H 1.3074 0.1932 0.9980
C24 C 1.3515(3) 0.0576(3) 1.0163(3)
H15 H 1.2991 -0.0210 1.0178
H16 H 1.4269 0.1129 1.0852
H17 H 1.3884 0.0427 0.9525
C25 C 0.2750(13) 0.5796(17) -0.0907(11)
H18 H 0.3139 0.5205 -0.1030
H19 H 0.3512 0.6633 -0.0632
C26 C 0.2257(7) 0.6522(8) -0.1469(6)
H20 H 0.1400 0.5855 -0.2027
H21 H 0.2906 0.6853 -0.1842
H22 H 0.2079 0.7180 -0.0970
H23 H 0.667(2) 0.157(2) 0.8180(19)
H24 H 0.551(3) 0.165(3) 0.5927(14)
H25 H 0.424(2) 0.302(2) 0.441(2)
H26 H 0.2405(19) 0.405(2) 0.3462(19)
O5 O 0.5517(3) 0.2129(3) 0.4467(2)
N5 N 0.7402(2) 0.23324(19) 0.38300(17)
C27 C 0.6106(3) 0.1718(3) 0.3793(3)
H27 H 0.5590 0.0905 0.3210
C28 C 0.8271(4) 0.3562(3) 0.4710(3)
H28 H 0.7734 0.3840 0.5180
H29 H 0.8646 0.4127 0.4385
H30 H 0.9021 0.3551 0.5161
C29 C 0.8043(4) 0.1732(3) 0.3079(3)
H31 H 0.7352 0.0907 0.2529
H32 H 0.8758 0.1661 0.3508
H33 H 0.8448 0.2224 0.2698
C30? C 0.1764(14) 0.5456(17) -0.2010(11)
H34? H 0.1027 0.4618 -0.2288
H35? H 0.2267 0.5495 -0.2559
H36? H 0.1374 0.6038 -0.1880
C31? C 0.287(3) 0.602(4) -0.079(3)
H37? H 0.2889 0.5252 -0.1293
H38? H 0.3813 0.6632 -0.0325
loop_
_geom_bond_atom_site_label_1
_geom_bond_atom_site_label_2
_geom_bond_site_symmetry_1
_geom_bond_site_symmetry_2
S1 C7 1_555 1_555
S2 C16 1_555 1_555
O1 C3 1_555 1_555
O2 C8 1_555 1_555
O3 C15 1_555 1_555
O4 C20 1_555 1_555
N1 C6 1_555 1_555
N2 C7 1_555 1_555
N3 C15 1_555 1_555
N4 C16 1_555 1_555
C1 H1 1_555 1_555
C2 C1 1_555 1_555
H2 C2 1_555 1_555
C3 C2 1_555 1_555
C4 C3 1_555 1_555
H3 C4 1_555 1_555
C5 C4 1_555 1_555
H4 C5 1_555 1_555
C6 C1 1_555 1_555
C7 N1 1_555 1_555
C8 N2 1_555 1_555
C9 C8 1_555 1_555
C10 C9 1_555 1_555
H5 C10 1_555 1_555
C11 C10 1_555 1_555
H6 C11 1_555 1_555
C12 C11 1_555 1_555
H7 C12 1_555 1_555
C13 C12 1_555 1_555
C14 C9 1_555 1_555
H8 C14 1_555 1_555
C15 C13 1_555 1_555
C16 N3 1_555 1_555
C17 N4 1_555 1_555
C18 C17 1_555 1_555
H9 C18 1_555 1_555
C19 C18 1_555 1_555
H10 C19 1_555 1_555
C20 C19 1_555 1_555
C21 C20 1_555 1_555
H11 C21 1_555 1_555
C22 C17 1_555 1_555
H12 C22 1_555 1_555
C23 O1 1_555 1_555
H13 C23 1_555 1_555
H14 C23 1_555 1_555
C24 C23 1_555 1_555
H15 C24 1_555 1_555
H16 C24 1_555 1_555
H17 C24 1_555 1_555
C25 O4 1_555 1_555
H18 C25 1_555 1_555
H19 C25 1_555 1_555
C26 C25 1_555 1_555
H20 C26 1_555 1_555
H21 C26 1_555 1_555
H22 C26 1_555 1_555
H23 N1 1_555 1_555
H24 N2 1_555 1_555
H25 N3 1_555 1_555
H26 N4 1_555 1_555
O5 C27 1_555 1_555
N5 C27 1_555 1_555
C27 H27 1_555 1_555
C28 N5 1_555 1_555
H28 C28 1_555 1_555
H29 C28 1_555 1_555
H30 C28 1_555 1_555
C29 N5 1_555 1_555
H31 C29 1_555 1_555
H32 C29 1_555 1_555
H33 C29 1_555 1_555
C5 C6 1_555 1_555
C13 C14 1_555 1_555
C21 C22 1_555 1_555

#END
