
#######################################################################
#
#                 Cambridge Crystallographic Data Centre
#                                CCDC 
#
#######################################################################
#
# If this CIF has been generated from an entry in the Cambridge 
# Structural Database, then it will include bibliographic, chemical, 
# crystal, experimental, refinement or atomic coordinate data resulting 
# from the CCDC's data processing and validation procedures.
#
#######################################################################

data_ROKTUI
_chemical_formula_moiety         'C16 H15 Br1 S3'
_chemical_name_systematic        
5'-bromo-2,2'',5,5''-tetramethyl-3,2':3',3''-terthiophene
_symmetry_cell_setting           monoclinic
_symmetry_space_group_name_H-M   'P 21/n'
_symmetry_Int_Tables_number      14
_space_group_name_Hall           '-P 2yn'
loop_
_symmetry_equiv_pos_site_id
_symmetry_equiv_pos_as_xyz
1 x,y,z
2 1/2-x,1/2+y,1/2-z
3 -x,-y,-z
4 1/2+x,1/2-y,1/2+z
_cell_length_a                   9.6418(7)
_cell_length_b                   18.9454(14)
_cell_length_c                   9.6625(7)
_cell_angle_alpha                90
_cell_angle_beta                 107.035(2)
_cell_angle_gamma                90
_cell_volume                     1687.59
_exptl_crystal_colour            brown
_exptl_crystal_description       block
_cell_formula_units_Z            4
loop_
_atom_site_label
_atom_site_type_symbol
_atom_site_fract_x
_atom_site_fract_y
_atom_site_fract_z
C1 C 1.1116(5) 0.1188(2) 0.8964(4)
S1 S 1.07376(17) 0.07013(8) 0.74275(15)
C2 C 0.9132(5) 0.1063(3) 0.6787(5)
C3 C 0.8651(3) 0.15968(16) 0.7611(3)
H1 H 0.7786 0.1849 0.7387
C4 C 1.0005(5) 0.1631(2) 0.8993(5)
Br1 Br 0.78925(8) 0.07630(4) 0.49940(6)
C5 C 1.2594(5) 0.1146(3) 0.9974(4)
C6 C 1.3237(5) 0.0544(3) 1.0638(5)
S2 S 1.49989(14) 0.07118(7) 1.16460(15)
C7 C 1.4883(5) 0.1596(2) 1.1176(5)
C8 C 1.3548(5) 0.1738(2) 1.0306(4)
H2 H 1.3268 0.2188 0.9947
C9 C 1.2566(6) -0.0175(3) 1.0630(6)
H3 H 1.1866 -0.0157 1.1161
H4 H 1.3309 -0.0510 1.1074
H5 H 1.2095 -0.0315 0.9650
C10 C 1.6184(5) 0.2068(3) 1.1679(5)
H6 H 1.5904 0.2547 1.1414
H7 H 1.6907 0.1924 1.1233
H8 H 1.6575 0.2035 1.2712
C11 C 0.9982(5) 0.2126(3) 1.0159(5)
C12 C 1.0318(5) 0.1963(3) 1.1598(6)
S3 S 1.00811(16) 0.26917(9) 1.25758(16)
C13 C 0.9536(5) 0.3213(3) 1.1076(7)
C14 C 0.9515(5) 0.2848(3) 0.9864(6)
H9 H 0.9230 0.3043 0.8941
C15 C 1.0767(6) 0.1280(3) 1.2365(5)
H10 H 1.0396 0.0897 1.1713
H11 H 1.0387 0.1250 1.3177
H12 H 1.1806 0.1255 1.2698
C16 C 0.9139(7) 0.3980(3) 1.1168(8)
H13 H 0.9999 0.4247 1.1616
H14 H 0.8474 0.4020 1.1734
H15 H 0.8692 0.4159 1.0211
C17? C 1.07376(17) 0.07013(8) 0.74275(15)
H16? H 1.1245 0.0360 0.7081
S4? S 0.8651(3) 0.15968(16) 0.7611(3)
loop_
_geom_bond_atom_site_label_1
_geom_bond_atom_site_label_2
_geom_bond_site_symmetry_1
_geom_bond_site_symmetry_2
C1 S1 1_555 1_555
S1 C2 1_555 1_555
C2 C3 1_555 1_555
C3 H1 1_555 1_555
C4 C1 1_555 1_555
Br1 C2 1_555 1_555
C5 C1 1_555 1_555
C6 C5 1_555 1_555
S2 C6 1_555 1_555
C7 S2 1_555 1_555
C8 C5 1_555 1_555
H2 C8 1_555 1_555
C9 C6 1_555 1_555
H3 C9 1_555 1_555
H4 C9 1_555 1_555
H5 C9 1_555 1_555
C10 C7 1_555 1_555
H6 C10 1_555 1_555
H7 C10 1_555 1_555
H8 C10 1_555 1_555
C11 C4 1_555 1_555
C12 C11 1_555 1_555
S3 C12 1_555 1_555
C13 S3 1_555 1_555
C14 C11 1_555 1_555
H9 C14 1_555 1_555
C15 C12 1_555 1_555
H10 C15 1_555 1_555
H11 C15 1_555 1_555
H12 C15 1_555 1_555
C16 C13 1_555 1_555
H13 C16 1_555 1_555
H14 C16 1_555 1_555
H15 C16 1_555 1_555
C3 C4 1_555 1_555
C7 C8 1_555 1_555
C13 C14 1_555 1_555

#END
