
#######################################################################
#
#                 Cambridge Crystallographic Data Centre
#                                CCDC 
#
#######################################################################
#
# If this CIF has been generated from an entry in the Cambridge 
# Structural Database, then it will include bibliographic, chemical, 
# crystal, experimental, refinement or atomic coordinate data resulting 
# from the CCDC's data processing and validation procedures.
#
#######################################################################

data_ROKWEV
_chemical_formula_moiety         'C13 H11 I1 N1 S1 1+,I3 1-'
_chemical_name_systematic        
'3-(1-iodoethylidene)-2,3-dihydro[1,4]thiazino[2,3,4-ij]quinolin-4-ium triiodide'
_symmetry_cell_setting           monoclinic
_symmetry_space_group_name_H-M   'C 2/c'
_symmetry_Int_Tables_number      15
_space_group_name_Hall           '-C 2yn'
loop_
_symmetry_equiv_pos_site_id
_symmetry_equiv_pos_as_xyz
1 x,y,z
2 -x,y,1/2-z
3 1/2+x,1/2+y,z
4 1/2-x,1/2+y,1/2-z
5 -x,-y,-z
6 x,-y,1/2+z
7 1/2-x,1/2-y,-z
8 1/2+x,1/2-y,1/2+z
_cell_length_a                   29.5083(11)
_cell_length_b                   8.3747(3)
_cell_length_c                   14.9533(5)
_cell_angle_alpha                90
_cell_angle_beta                 105.945(4)
_cell_angle_gamma                90
_cell_volume                     3553.13
_exptl_crystal_colour            red
_exptl_crystal_description       rhombohedral
_cell_formula_units_Z            8
loop_
_atom_site_label
_atom_site_type_symbol
_atom_site_fract_x
_atom_site_fract_y
_atom_site_fract_z
C1 C 0.8293(2) -0.1712(7) -0.0828(4)
C2 C 0.8135(2) -0.0222(8) -0.1246(4)
C3 C 0.7662(2) -0.0018(8) -0.1620(4)
H1 H 0.7553 0.0965 -0.1880
C4 C 0.7339(2) -0.1226(8) -0.1626(5)
H2 H 0.7018 -0.1032 -0.1870
C5 C 0.7488(2) -0.2682(8) -0.1279(4)
H3 H 0.7269 -0.3492 -0.1305
C6 C 0.7970(2) -0.2990(8) -0.0878(4)
C7 C 0.8141(2) -0.4497(8) -0.0517(4)
H4 H 0.7932 -0.5336 -0.0539
C8 C 0.8612(2) -0.4731(8) -0.0135(4)
H5 H 0.8725 -0.5745 0.0061
C9 C 0.8920(2) -0.3464(7) -0.0039(4)
H6 H 0.9240 -0.3623 0.0241
C10 C 0.9065(2) 0.0255(7) -0.1029(4)
H7 H 0.9076 -0.0465 -0.1531
H8 H 0.9330 0.0984 -0.0927
C11 C 0.9092(2) -0.0673(7) -0.0164(4)
C12 C 0.9328(2) -0.0319(7) 0.0709(4)
C13 C 0.9292(2) -0.1156(8) 0.1575(4)
H9 H 0.9276 -0.0378 0.2037
H10 H 0.9565 -0.1818 0.1809
H11 H 0.9014 -0.1806 0.1434
I1 I 0.977623(15) 0.16719(5) 0.09670(3)
N1 N 0.87630(18) -0.1994(6) -0.0349(3)
S1 S 0.85164(6) 0.1362(2) -0.13330(11)
I2 I 0.817065(16) 0.17704(6) 0.11366(3)
I3 I 0.888848(15) 0.37338(5) 0.23805(3)
I4 I 0.962626(16) 0.55954(5) 0.36431(3)
loop_
_geom_bond_atom_site_label_1
_geom_bond_atom_site_label_2
_geom_bond_site_symmetry_1
_geom_bond_site_symmetry_2
C1 C2 1_555 1_555
C2 C3 1_555 1_555
C3 H1 1_555 1_555
C4 C3 1_555 1_555
H2 C4 1_555 1_555
C5 C4 1_555 1_555
H3 C5 1_555 1_555
C6 C1 1_555 1_555
C7 C6 1_555 1_555
H4 C7 1_555 1_555
C8 C7 1_555 1_555
H5 C8 1_555 1_555
C9 C8 1_555 1_555
H6 C9 1_555 1_555
C10 H7 1_555 1_555
H8 C10 1_555 1_555
C11 C10 1_555 1_555
C12 C11 1_555 1_555
C13 C12 1_555 1_555
H9 C13 1_555 1_555
H10 C13 1_555 1_555
H11 C13 1_555 1_555
I1 C12 1_555 1_555
N1 C1 1_555 1_555
S1 C2 1_555 1_555
I2 I3 1_555 1_555
I3 I4 1_555 1_555
C5 C6 1_555 1_555
C9 N1 1_555 1_555
C10 S1 1_555 1_555
C11 N1 1_555 1_555

#END
