
#######################################################################
#
#                 Cambridge Crystallographic Data Centre
#                                CCDC 
#
#######################################################################
#
# If this CIF has been generated from an entry in the Cambridge 
# Structural Database, then it will include bibliographic, chemical, 
# crystal, experimental, refinement or atomic coordinate data resulting 
# from the CCDC's data processing and validation procedures.
#
#######################################################################

data_ROKWAR
_chemical_formula_moiety         'C12 H20 O4'
_chemical_name_systematic        
'3-ethyl-1,5-dioxaspiro[5.5]undecane-3-carboxylic acid'
_symmetry_cell_setting           tetragonal
_symmetry_space_group_name_H-M   'I 41/a'
_symmetry_Int_Tables_number      88
_space_group_name_Hall           '-I 4ad'
loop_
_symmetry_equiv_pos_site_id
_symmetry_equiv_pos_as_xyz
1 x,y,z
2 1/2-x,-y,1/2+z
3 3/4-y,1/4+x,1/4+z
4 3/4+y,3/4-x,3/4+z
5 1/2+x,1/2+y,1/2+z
6 -x,1/2-y,z
7 1/4-y,3/4+x,3/4+z
8 1/4+y,1/4-x,1/4+z
9 -x,-y,-z
10 1/2+x,y,1/2-z
11 1/4+y,3/4-x,3/4-z
12 1/4-y,1/4+x,1/4-z
13 1/2-x,1/2-y,1/2-z
14 x,1/2+y,-z
15 3/4+y,1/4-x,1/4-z
16 3/4-y,3/4+x,3/4-z
_cell_length_a                   21.243(15)
_cell_length_b                   21.243(15)
_cell_length_c                   11.242(17)
_cell_angle_alpha                90
_cell_angle_beta                 90
_cell_angle_gamma                90
_cell_volume                     5073.12
_exptl_crystal_colour            colorless
_exptl_crystal_description       block
_cell_formula_units_Z            16
loop_
_atom_site_label
_atom_site_type_symbol
_atom_site_fract_x
_atom_site_fract_y
_atom_site_fract_z
O1 O 0.05692(6) 0.45654(6) 0.11814(11)
O2 O 0.14472(6) 0.43940(6) 0.23884(11)
O3 O 0.07609(7) 0.50730(8) 0.45914(12)
O4 O -0.00885(7) 0.52142(9) 0.34608(13)
C1 C 0.11490(8) 0.42418(9) 0.12638(16)
C2 C 0.06132(9) 0.52315(9) 0.13289(17)
H1 H 0.0196 0.5415 0.1283
H2 H 0.0865 0.5408 0.0691
C3 C 0.05045(9) 0.52053(9) 0.36074(16)
C4 C 0.09149(9) 0.53991(9) 0.25398(16)
C5 C 0.10607(12) 0.61105(11) 0.2657(2)
H3 H 0.1275 0.6179 0.3408
H4 H 0.1351 0.6227 0.2028
C6 C 0.15335(9) 0.50455(9) 0.25895(17)
H5 H 0.1817 0.5214 0.1993
H6 H 0.1726 0.5107 0.3363
C7 C 0.15790(10) 0.43723(11) 0.01798(18)
H7 H 0.1646 0.4823 0.0113
H8 H 0.1985 0.4176 0.0315
C8 C 0.09857(11) 0.35557(10) 0.1333(2)
H9 H 0.0691 0.3488 0.1980
H10 H 0.1363 0.3315 0.1502
C9 C 0.13045(12) 0.41248(13) -0.10036(19)
H11 H 0.0934 0.4368 -0.1211
H12 H 0.1612 0.4179 -0.1632
C10 C 0.06921(12) 0.33227(12) 0.0162(2)
H13 H 0.0296 0.3539 0.0030
H14 H 0.0604 0.2876 0.0226
C11 C 0.11302(12) 0.34371(14) -0.0909(2)
H15 H 0.1509 0.3187 -0.0819
H16 H 0.0921 0.3305 -0.1634
C12 C 0.05073(16) 0.65418(13) 0.2602(3)
H17 H 0.0284 0.6474 0.1871
H18 H 0.0649 0.6970 0.2637
H19 H 0.0233 0.6458 0.3262
H20 H 0.0534(17) 0.4988(18) 0.521(2)
loop_
_geom_bond_atom_site_label_1
_geom_bond_atom_site_label_2
_geom_bond_site_symmetry_1
_geom_bond_site_symmetry_2
O1 C1 1_555 1_555
O2 C1 1_555 1_555
O3 C3 1_555 1_555
O4 C3 1_555 1_555
C1 C7 1_555 1_555
C2 O1 1_555 1_555
H1 C2 1_555 1_555
H2 C2 1_555 1_555
C3 C4 1_555 1_555
C4 C2 1_555 1_555
C5 C4 1_555 1_555
H3 C5 1_555 1_555
H4 C5 1_555 1_555
C6 O2 1_555 1_555
H5 C6 1_555 1_555
H6 C6 1_555 1_555
C7 H7 1_555 1_555
H8 C7 1_555 1_555
C8 C1 1_555 1_555
H9 C8 1_555 1_555
H10 C8 1_555 1_555
C9 C7 1_555 1_555
H11 C9 1_555 1_555
H12 C9 1_555 1_555
C10 C8 1_555 1_555
H13 C10 1_555 1_555
H14 C10 1_555 1_555
C11 C9 1_555 1_555
H15 C11 1_555 1_555
H16 C11 1_555 1_555
C12 C5 1_555 1_555
H17 C12 1_555 1_555
H18 C12 1_555 1_555
H19 C12 1_555 1_555
H20 O3 1_555 1_555
C4 C6 1_555 1_555
C10 C11 1_555 1_555

#END
