
#######################################################################
#
#                 Cambridge Crystallographic Data Centre
#                                CCDC 
#
#######################################################################
#
# If this CIF has been generated from an entry in the Cambridge 
# Structural Database, then it will include bibliographic, chemical, 
# crystal, experimental, refinement or atomic coordinate data resulting 
# from the CCDC's data processing and validation procedures.
#
#######################################################################

data_ROKWUL
_chemical_formula_moiety         'C7 H6 N2 S2'
_chemical_name_systematic        
2-(methylsulfanyl)[1,3]thiazolo[4,5-c]pyridine
_symmetry_cell_setting           monoclinic
_symmetry_space_group_name_H-M   'P 21/n'
_symmetry_Int_Tables_number      14
_space_group_name_Hall           '-P 2yn'
loop_
_symmetry_equiv_pos_site_id
_symmetry_equiv_pos_as_xyz
1 x,y,z
2 1/2-x,1/2+y,1/2-z
3 -x,-y,-z
4 1/2+x,1/2-y,1/2+z
_cell_length_a                   3.966(3)
_cell_length_b                   9.865(8)
_cell_length_c                   20.615(16)
_cell_angle_alpha                90
_cell_angle_beta                 92.018(9)
_cell_angle_gamma                90
_cell_volume                     806.053
_exptl_crystal_colour            colorless
_exptl_crystal_description       block
_cell_formula_units_Z            4
loop_
_atom_site_label
_atom_site_type_symbol
_atom_site_fract_x
_atom_site_fract_y
_atom_site_fract_z
C1 C 0.6848(4) 0.53220(15) 0.10062(7)
C2 C 0.5521(4) 0.55684(15) 0.16189(7)
C3 C 0.4462(4) 0.68630(17) 0.17798(8)
H1 H 0.3566 0.7053 0.2181
C4 C 0.4808(5) 0.78556(18) 0.13135(9)
H2 H 0.4098 0.8727 0.1414
C5 C 0.7097(5) 0.64056(17) 0.05753(8)
H3 H 0.7990 0.6252 0.0171
C6 C 0.7244(4) 0.32406(16) 0.13886(7)
C7 C 0.9309(5) 0.11076(18) 0.06538(9)
H4 H 0.7658 0.1437 0.0340
H5 H 0.9531 0.0143 0.0609
H6 H 1.1442 0.1532 0.0583
N1 N 0.6096(4) 0.76576(15) 0.07250(7)
N2 N 0.7808(3) 0.39863(13) 0.08860(6)
S1 S 0.55340(11) 0.40726(4) 0.206398(19)
S2 S 0.79853(12) 0.15029(4) 0.14602(2)
loop_
_geom_bond_atom_site_label_1
_geom_bond_atom_site_label_2
_geom_bond_site_symmetry_1
_geom_bond_site_symmetry_2
C1 C2 1_555 1_555
C2 C3 1_555 1_555
C3 H1 1_555 1_555
C4 C3 1_555 1_555
H2 C4 1_555 1_555
C5 C1 1_555 1_555
H3 C5 1_555 1_555
C6 N2 1_555 1_555
C7 H4 1_555 1_555
H5 C7 1_555 1_555
H6 C7 1_555 1_555
N1 C4 1_555 1_555
N2 C1 1_555 1_555
S1 C2 1_555 1_555
S2 C6 1_555 1_555
C5 N1 1_555 1_555
C6 S1 1_555 1_555
C7 S2 1_555 1_555

#END
