
#######################################################################
#
#                 Cambridge Crystallographic Data Centre
#                                CCDC 
#
#######################################################################
#
# If this CIF has been generated from an entry in the Cambridge 
# Structural Database, then it will include bibliographic, chemical, 
# crystal, experimental, refinement or atomic coordinate data resulting 
# from the CCDC's data processing and validation procedures.
#
#######################################################################

data_ROKXOG01
_chemical_formula_moiety         'C19 H17 Cl2 N3 O3'
_chemical_name_systematic        
1-((2-(2-chloro-4-(4-chlorophenoxy)phenyl)-4-methyl-1,3-dioxolan-2-yl)methyl)-1H-1,2,4-triazole
_symmetry_cell_setting           monoclinic
_symmetry_space_group_name_H-M   'C 2/c'
_symmetry_Int_Tables_number      15
_space_group_name_Hall           '-C 2yn'
loop_
_symmetry_equiv_pos_site_id
_symmetry_equiv_pos_as_xyz
1 x,y,z
2 -x,y,1/2-z
3 1/2+x,1/2+y,z
4 1/2-x,1/2+y,1/2-z
5 -x,-y,-z
6 x,-y,1/2+z
7 1/2-x,1/2-y,-z
8 1/2+x,1/2-y,1/2+z
_cell_length_a                   25.6913(13)
_cell_length_b                   10.0220(4)
_cell_length_c                   14.6417(6)
_cell_angle_alpha                90
_cell_angle_beta                 93.439(4)
_cell_angle_gamma                90
_cell_volume                     3763.13
_exptl_crystal_colour            colorless
_exptl_crystal_description       Block
_cell_formula_units_Z            8
loop_
_atom_site_label
_atom_site_type_symbol
_atom_site_fract_x
_atom_site_fract_y
_atom_site_fract_z
Cl1 Cl 0.42744(2) 0.49115(6) 0.12241(5)
Cl2 Cl 0.82170(3) 0.20023(10) 0.20260(9)
O1 O 0.62242(7) 0.48045(19) 0.13830(15)
O2 O 0.39803(7) 0.19880(19) 0.13311(13)
O3 O 0.44578(7) 0.04892(18) 0.05807(14)
N1 N 0.35985(8) 0.1646(2) -0.04986(15)
N2 N 0.35747(10) 0.0522(3) -0.10262(18)
N3 N 0.27774(9) 0.1059(2) -0.05524(16)
C1 C 0.48411(10) 0.2656(3) 0.08715(18)
C2 C 0.48477(10) 0.4006(2) 0.11281(17)
C3 C 0.53104(10) 0.4691(3) 0.13124(17)
H1 H 0.5305 0.5600 0.1496
C4 C 0.57807(10) 0.4041(3) 0.12269(18)
C5 C 0.57897(10) 0.2708(3) 0.09724(19)
H2 H 0.6112 0.2260 0.0917
C6 C 0.53236(10) 0.2042(3) 0.08011(19)
H3 H 0.5332 0.1129 0.0628
C7 C 0.66965(10) 0.4125(3) 0.15259(19)
C8 C 0.70587(12) 0.4212(3) 0.0878(2)
H4 H 0.6985 0.4704 0.0331
C9 C 0.75346(12) 0.3571(3) 0.1033(3)
H5 H 0.7792 0.3625 0.0596
C10 C 0.76287(11) 0.2854(3) 0.1831(2)
C11 C 0.72675(12) 0.2774(3) 0.2478(2)
H6 H 0.7339 0.2273 0.3022
C12 C 0.67983(11) 0.3430(3) 0.23296(19)
H7 H 0.6547 0.3404 0.2779
C13 C 0.43413(10) 0.1863(2) 0.06428(18)
C14 C 0.39958(15) 0.0777(3) 0.1848(2)
H8 H 0.3646 0.0559 0.2053
H9 H 0.4241 0.0860 0.2393
C15 C 0.4172(4) -0.0259(7) 0.1230(6)
H10 H 0.3851 -0.0594 0.0883
C16 C 0.4442(2) -0.1428(4) 0.1591(3)
H11 H 0.4771 -0.1534 0.1293
H12 H 0.4223 -0.2218 0.1472
H13 H 0.4514 -0.1325 0.2252
C17 C 0.40879(10) 0.2322(3) -0.02759(18)
H14 H 0.4026 0.3296 -0.0254
H15 H 0.4330 0.2148 -0.0764
C18 C 0.31254(10) 0.1939(3) -0.02307(18)
H16 H 0.3048 0.2680 0.0142
C19 C 0.30749(12) 0.0227(3) -0.1031(2)
H17 H 0.2932 -0.0524 -0.1351
H18? H 0.4047 0.0970 0.2510
H19? H 0.3666 0.0274 0.1738
C20? C 0.4417(4) 0.0044(8) 0.1547(6)
H20? H 0.4736 0.0383 0.1899
H21? H 0.4503 -0.1784 0.0983
H22? H 0.4111 -0.1777 0.1792
H23? H 0.4727 -0.1699 0.2025
loop_
_geom_bond_atom_site_label_1
_geom_bond_atom_site_label_2
_geom_bond_site_symmetry_1
_geom_bond_site_symmetry_2
Cl1 C2 1_555 1_555
Cl2 C10 1_555 1_555
O1 C4 1_555 1_555
O2 C13 1_555 1_555
O3 C13 1_555 1_555
N1 N2 1_555 1_555
N2 C19 1_555 1_555
N3 C18 1_555 1_555
C1 C2 1_555 1_555
C2 C3 1_555 1_555
C3 H1 1_555 1_555
C4 C3 1_555 1_555
C5 C4 1_555 1_555
H2 C5 1_555 1_555
C6 C1 1_555 1_555
H3 C6 1_555 1_555
C7 O1 1_555 1_555
C8 C7 1_555 1_555
H4 C8 1_555 1_555
C9 C8 1_555 1_555
H5 C9 1_555 1_555
C10 C9 1_555 1_555
C11 C10 1_555 1_555
H6 C11 1_555 1_555
C12 C7 1_555 1_555
H7 C12 1_555 1_555
C13 C1 1_555 1_555
C14 O2 1_555 1_555
H8 C14 1_555 1_555
H9 C14 1_555 1_555
C15 O3 1_555 1_555
H10 C15 1_555 1_555
C16 C15 1_555 1_555
H11 C16 1_555 1_555
H12 C16 1_555 1_555
H13 C16 1_555 1_555
C17 N1 1_555 1_555
H14 C17 1_555 1_555
H15 C17 1_555 1_555
C18 N1 1_555 1_555
H16 C18 1_555 1_555
C19 N3 1_555 1_555
H17 C19 1_555 1_555
C5 C6 1_555 1_555
C11 C12 1_555 1_555
C13 C17 1_555 1_555
C14 C15 1_555 1_555

#END
