
#######################################################################
#
#                 Cambridge Crystallographic Data Centre
#                                CCDC 
#
#######################################################################
#
# If this CIF has been generated from an entry in the Cambridge 
# Structural Database, then it will include bibliographic, chemical, 
# crystal, experimental, refinement or atomic coordinate data resulting 
# from the CCDC's data processing and validation procedures.
#
#######################################################################

data_ROLFUT
_chemical_formula_moiety         'C38 H50 Li2 N4 O2'
_chemical_name_systematic        
"bis((\m~2~-N,N'-Di(p-tolyl)formamidinato-N,N,N')-(diethyl ether)-lithium)"
_symmetry_cell_setting           triclinic
_symmetry_space_group_name_H-M   'P -1'
_symmetry_Int_Tables_number      2
_space_group_name_Hall           '-P 1'
loop_
_symmetry_equiv_pos_site_id
_symmetry_equiv_pos_as_xyz
1 x,y,z
2 -x,-y,-z
_cell_length_a                   8.279(3)
_cell_length_b                   10.390(3)
_cell_length_c                   12.156(4)
_cell_angle_alpha                69.57(2)
_cell_angle_beta                 79.47(3)
_cell_angle_gamma                70.12(2)
_cell_volume                     919.042
_exptl_crystal_colour            white
_cell_formula_units_Z            1
_exptl_crystal_recrystallization_method 'diethyl ether'
loop_
_atom_site_label
_atom_site_type_symbol
_atom_site_fract_x
_atom_site_fract_y
_atom_site_fract_z
Li1 Li 0.5650(10) 0.0670(8) 1.3990(7)
N1 N 0.3480(4) 0.2398(4) 1.3837(3)
C1 C 0.3739(5) 0.2487(5) 1.4834(4)
N2 N 0.4702(4) 0.1337(3) 1.5607(3)
C2 C 0.2288(5) 0.3569(4) 1.3121(4)
C3 C 0.2497(6) 0.3863(4) 1.1910(4)
C4 C 0.1349(6) 0.5014(5) 1.1168(4)
C5 C -0.0054(6) 0.5925(5) 1.1608(4)
C6 C -0.0296(6) 0.5612(5) 1.2810(4)
C7 C 0.0822(6) 0.4452(5) 1.3559(4)
C8 C -0.1278(6) 0.7177(5) 1.0808(4)
C9 C 0.5219(5) 0.1557(4) 1.6555(4)
C10 C 0.5681(6) 0.0393(5) 1.7561(4)
C11 C 0.6179(6) 0.0519(5) 1.8529(4)
C12 C 0.6274(6) 0.1811(5) 1.8545(4)
C13 C 0.5884(6) 0.2954(5) 1.7542(5)
C14 C 0.5383(6) 0.2856(5) 1.6559(4)
C15 C 0.6800(7) 0.1933(6) 1.9620(5)
C16 C 1.0001(10) -0.1191(10) 1.3913(9)
C17 C 0.9022(9) -0.0461(9) 1.2944(8)
O1 O 0.7768(5) 0.0849(4) 1.3102(4)
C18 C 0.8501(11) 0.1992(9) 1.2718(9)
C19 C 0.7295(11) 0.3333(9) 1.2564(9)
H1 H 0.3249(5) 0.3360(5) 1.5007(4)
H2 H 0.3442(6) 0.3268(4) 1.1581(4)
H3 H 0.1532(6) 0.5176(5) 1.0351(4)
H4 H -0.1251(6) 0.6203(5) 1.3135(4)
H5 H 0.0588(6) 0.4257(5) 1.4377(4)
H6 H -0.0893(6) 0.7222(5) 0.9996(4)
H7 H -0.1313(6) 0.8061(5) 1.0930(4)
H8 H -0.2419(6) 0.7059(5) 1.0981(4)
H9 H 0.5654(6) -0.0512(5) 1.7581(4)
H10 H 0.6460(6) -0.0296(5) 1.9196(4)
H11 H 0.5960(6) 0.3844(5) 1.7522(5)
H12 H 0.5149(6) 0.3668(5) 1.5886(4)
H13 H 0.7019(7) 0.1007(6) 2.0230(5)
H14 H 0.5881(7) 0.2642(6) 1.9904(5)
H15 H 0.7836(7) 0.2228(6) 1.9417(5)
H16 H 1.0833(10) -0.2062(10) 1.3800(9)
H17 H 0.9252(10) -0.1440(10) 1.4615(9)
H18 H 1.0600(10) -0.0581(10) 1.4000(9)
H19 H 0.8426(9) -0.1080(9) 1.2847(8)
H20 H 0.9777(9) -0.0218(9) 1.2231(8)
H21 H 0.9287(11) 0.1839(9) 1.3296(9)
H22 H 0.9183(11) 0.1975(9) 1.1971(9)
H23 H 0.7877(11) 0.4067(9) 1.2301(9)
H24 H 0.6632(11) 0.3368(9) 1.3304(9)
H25 H 0.6529(11) 0.3504(9) 1.1978(9)
N2A N 0.5298(4) -0.1337(3) 1.4393(3)
Li1A Li 0.4350(10) -0.0670(8) 1.6010(7)
N1A N 0.6520(4) -0.2398(4) 1.6163(3)
C1A C 0.6261(5) -0.2487(5) 1.5166(4)
C9A C 0.4781(5) -0.1557(4) 1.3445(4)
C10A C 0.4319(6) -0.0393(5) 1.2439(4)
C11A C 0.3821(6) -0.0519(5) 1.1471(4)
C12A C 0.3726(6) -0.1811(5) 1.1455(4)
C13A C 0.4116(6) -0.2954(5) 1.2458(5)
C14A C 0.4617(6) -0.2856(5) 1.3441(4)
H12A H 0.4851(6) -0.3668(5) 1.4114(4)
H11A H 0.4040(6) -0.3844(5) 1.2478(5)
C15A C 0.3200(7) -0.1933(6) 1.0380(5)
H13A H 0.2981(7) -0.1007(6) 0.9770(5)
H14A H 0.4119(7) -0.2642(6) 1.0096(5)
H15A H 0.2164(7) -0.2228(6) 1.0583(5)
H10A H 0.3540(6) 0.0296(5) 1.0804(4)
H9A H 0.4346(6) 0.0512(5) 1.2419(4)
H1A H 0.6751(5) -0.3360(5) 1.4993(4)
C2A C 0.7712(5) -0.3569(4) 1.6879(4)
C3A C 0.7503(6) -0.3863(4) 1.8090(4)
C4A C 0.8651(6) -0.5014(5) 1.8832(4)
C5A C 1.0054(6) -0.5925(5) 1.8392(4)
C6A C 1.0296(6) -0.5612(5) 1.7190(4)
C7A C 0.9178(6) -0.4452(5) 1.6441(4)
H5A H 0.9412(6) -0.4257(5) 1.5623(4)
H4A H 1.1251(6) -0.6203(5) 1.6865(4)
C8A C 1.1278(6) -0.7177(5) 1.9192(4)
H6A H 1.0893(6) -0.7222(5) 2.0004(4)
H7A H 1.1313(6) -0.8061(5) 1.9070(4)
H8A H 1.2419(6) -0.7059(5) 1.9019(4)
H3A H 0.8468(6) -0.5176(5) 1.9649(4)
H2A H 0.6558(6) -0.3268(4) 1.8419(4)
O1A O 0.2232(5) -0.0849(4) 1.6898(4)
C17A C 0.0978(9) 0.0461(9) 1.7056(8)
C16A C -0.0001(10) 0.1191(10) 1.6087(9)
H16A H -0.0833(10) 0.2062(10) 1.6200(9)
H17A H 0.0748(10) 0.1440(10) 1.5385(9)
H18A H -0.0600(10) 0.0581(10) 1.6000(9)
H19A H 0.1574(9) 0.1080(9) 1.7153(8)
H20A H 0.0223(9) 0.0218(9) 1.7769(8)
C18A C 0.1499(11) -0.1992(9) 1.7282(9)
C19A C 0.2705(11) -0.3333(9) 1.7436(9)
H23A H 0.2123(11) -0.4067(9) 1.7699(9)
H24A H 0.3368(11) -0.3368(9) 1.6696(9)
H25A H 0.3471(11) -0.3504(9) 1.8022(9)
H21A H 0.0713(11) -0.1839(9) 1.6704(9)
H22A H 0.0817(11) -0.1975(9) 1.8029(9)
loop_
_geom_bond_atom_site_label_1
_geom_bond_atom_site_label_2
_geom_bond_site_symmetry_1
_geom_bond_site_symmetry_2
Li1 N1 1_555 1_555
N1 C1 1_555 1_555
C1 N2 1_555 1_555
N2 Li1 1_555 1_555
C2 N1 1_555 1_555
C3 C2 1_555 1_555
C4 C3 1_555 1_555
C5 C4 1_555 1_555
C6 C5 1_555 1_555
C7 C2 1_555 1_555
C8 C5 1_555 1_555
C9 N2 1_555 1_555
C10 C9 1_555 1_555
C11 C10 1_555 1_555
C12 C11 1_555 1_555
C13 C12 1_555 1_555
C14 C9 1_555 1_555
C15 C12 1_555 1_555
C16 C17 1_555 1_555
C17 O1 1_555 1_555
O1 Li1 1_555 1_555
C18 O1 1_555 1_555
C19 C18 1_555 1_555
H1 C1 1_555 1_555
H2 C3 1_555 1_555
H3 C4 1_555 1_555
H4 C6 1_555 1_555
H5 C7 1_555 1_555
H6 C8 1_555 1_555
H7 C8 1_555 1_555
H8 C8 1_555 1_555
H9 C10 1_555 1_555
H10 C11 1_555 1_555
H11 C13 1_555 1_555
H12 C14 1_555 1_555
H13 C15 1_555 1_555
H14 C15 1_555 1_555
H15 C15 1_555 1_555
H16 C16 1_555 1_555
H17 C16 1_555 1_555
H18 C16 1_555 1_555
H19 C17 1_555 1_555
H20 C17 1_555 1_555
H21 C18 1_555 1_555
H22 C18 1_555 1_555
H23 C19 1_555 1_555
H24 C19 1_555 1_555
H25 C19 1_555 1_555
N2A Li1 1_555 1_555
Li1A N2 1_555 1_555
N1A Li1A 1_555 1_555
C1A N2A 1_555 1_555
C9A N2A 1_555 1_555
C10A C9A 1_555 1_555
C11A C10A 1_555 1_555
C12A C11A 1_555 1_555
C13A C12A 1_555 1_555
C14A C9A 1_555 1_555
H12A C14A 1_555 1_555
H11A C13A 1_555 1_555
C15A C12A 1_555 1_555
H13A C15A 1_555 1_555
H14A C15A 1_555 1_555
H15A C15A 1_555 1_555
H10A C11A 1_555 1_555
H9A C10A 1_555 1_555
H1A C1A 1_555 1_555
C2A N1A 1_555 1_555
C3A C2A 1_555 1_555
C4A C3A 1_555 1_555
C5A C4A 1_555 1_555
C6A C5A 1_555 1_555
C7A C2A 1_555 1_555
H5A C7A 1_555 1_555
H4A C6A 1_555 1_555
C8A C5A 1_555 1_555
H6A C8A 1_555 1_555
H7A C8A 1_555 1_555
H8A C8A 1_555 1_555
H3A C4A 1_555 1_555
H2A C3A 1_555 1_555
O1A Li1A 1_555 1_555
C17A O1A 1_555 1_555
C16A C17A 1_555 1_555
H16A C16A 1_555 1_555
H17A C16A 1_555 1_555
H18A C16A 1_555 1_555
H19A C17A 1_555 1_555
H20A C17A 1_555 1_555
C18A O1A 1_555 1_555
C19A C18A 1_555 1_555
H23A C19A 1_555 1_555
H24A C19A 1_555 1_555
H25A C19A 1_555 1_555
H21A C18A 1_555 1_555
H22A C18A 1_555 1_555
C6 C7 1_555 1_555
C13 C14 1_555 1_555
N2A Li1A 1_555 1_555
N1A C1A 1_555 1_555
C13A C14A 1_555 1_555
C6A C7A 1_555 1_555

#END
