
#######################################################################
#
#                 Cambridge Crystallographic Data Centre
#                                CCDC 
#
#######################################################################
#
# If this CIF has been generated from an entry in the Cambridge 
# Structural Database, then it will include bibliographic, chemical, 
# crystal, experimental, refinement or atomic coordinate data resulting 
# from the CCDC's data processing and validation procedures.
#
#######################################################################

data_ROLGII
_chemical_formula_moiety         'C15 H17 N2 1+,B1 F4 1-'
_chemical_name_systematic        
"N,N'-Di(p-tolyl)formamidinium tetrafluoroborate"
_symmetry_cell_setting           monoclinic
_symmetry_space_group_name_H-M   'C 2/c'
_symmetry_Int_Tables_number      15
_space_group_name_Hall           '-C 2yn'
loop_
_symmetry_equiv_pos_site_id
_symmetry_equiv_pos_as_xyz
1 x,y,z
2 -x,y,1/2-z
3 1/2+x,1/2+y,z
4 1/2-x,1/2+y,1/2-z
5 -x,-y,-z
6 x,-y,1/2+z
7 1/2-x,1/2-y,-z
8 1/2+x,1/2-y,1/2+z
_cell_length_a                   16.670(2)
_cell_length_b                   8.241(1)
_cell_length_c                   11.755(1)
_cell_angle_alpha                90
_cell_angle_beta                 90.284(9)
_cell_angle_gamma                90
_cell_volume                     1614.85
_cell_formula_units_Z            4
_exptl_crystal_recrystallization_method 'diethyl ether/methylene chloride'
loop_
_atom_site_label
_atom_site_type_symbol
_atom_site_fract_x
_atom_site_fract_y
_atom_site_fract_z
C1 C 0.5000 -0.0106(4) 0.2500
N1 N 0.4604(1) 0.0658(3) 0.3291(2)
C2 C 0.4157(1) -0.0037(3) 0.4196(2)
C3 C 0.4149(2) -0.1669(3) 0.4421(2)
C4 C 0.3693(2) -0.2248(4) 0.5315(3)
C5 C 0.3247(2) -0.1224(5) 0.5989(2)
C6 C 0.3274(2) 0.0389(6) 0.5752(2)
C7 C 0.3724(2) 0.1013(4) 0.4871(2)
C8 C 0.2734(3) -0.1863(8) 0.6943(3)
H1 H 0.5000 -0.1272(65) 0.2500
H2 H 0.4621(19) 0.1771(55) 0.3312(26)
H3 H 0.4472(21) -0.2368(43) 0.4008(29)
H4 H 0.3716(20) -0.3349(48) 0.5448(28)
H5 H 0.3002(20) 0.1215(45) 0.6186(27)
H6 H 0.3738(21) 0.2065(46) 0.4727(29)
H7 H 0.2806(21) -0.1299(45) 0.7633(32)
H8 H 0.2354(22) -0.2564(42) 0.6749(28)
H9 H 0.2993(23) -0.2685(47) 0.7258(34)
N1A N 0.5396(1) 0.0658(3) 0.1709(2)
C2A C 0.5843(1) -0.0037(3) 0.0804(2)
C3A C 0.5851(2) -0.1669(3) 0.0579(2)
C4A C 0.6307(2) -0.2248(4) -0.0315(3)
C5A C 0.6753(2) -0.1224(5) -0.0989(2)
C6A C 0.6726(2) 0.0389(6) -0.0752(2)
C7A C 0.6276(2) 0.1013(4) 0.0129(2)
H6A H 0.6262(21) 0.2065(46) 0.0273(29)
H5A H 0.6998(20) 0.1215(45) -0.1186(27)
C8A C 0.7266(3) -0.1863(8) -0.1943(3)
H7A H 0.7194(21) -0.1299(45) -0.2633(32)
H8A H 0.7646(22) -0.2564(42) -0.1749(28)
H9A H 0.7007(23) -0.2685(47) -0.2258(34)
H4A H 0.6284(20) -0.3349(48) -0.0448(28)
H3A H 0.5528(21) -0.2368(43) 0.0992(29)
H2A H 0.5379(19) 0.1771(55) 0.1688(26)
B1 B 0.5000 0.4979(6) 0.7500
F1 F 0.5404(2) 0.5954(2) 0.6745(2)
F2 F 0.4471(2) 0.3996(2) 0.6946(2)
F1A F 0.4596(2) 0.5954(2) 0.8255(2)
F2A F 0.5529(2) 0.3996(2) 0.8054(2)
loop_
_geom_bond_atom_site_label_1
_geom_bond_atom_site_label_2
_geom_bond_site_symmetry_1
_geom_bond_site_symmetry_2
C1 N1 1_555 1_555
N1 C2 1_555 1_555
C2 C3 1_555 1_555
C3 C4 1_555 1_555
C4 C5 1_555 1_555
C5 C6 1_555 1_555
C6 C7 1_555 1_555
C7 C2 1_555 1_555
C8 C5 1_555 1_555
B1 F1 1_555 1_555
F2 B1 1_555 1_555
H1 C1 1_555 1_555
H2 N1 1_555 1_555
H3 C3 1_555 1_555
H4 C4 1_555 1_555
H5 C6 1_555 1_555
H6 C7 1_555 1_555
H7 C8 1_555 1_555
H8 C8 1_555 1_555
H9 C8 1_555 1_555
N1A C1 1_555 1_555
C2A N1A 1_555 1_555
C3A C2A 1_555 1_555
C4A C3A 1_555 1_555
C5A C4A 1_555 1_555
C6A C5A 1_555 1_555
C7A C2A 1_555 1_555
H6A C7A 1_555 1_555
H5A C6A 1_555 1_555
C8A C5A 1_555 1_555
H7A C8A 1_555 1_555
H8A C8A 1_555 1_555
H9A C8A 1_555 1_555
H4A C4A 1_555 1_555
H3A C3A 1_555 1_555
H2A N1A 1_555 1_555
F1A B1 1_555 1_555
F2A B1 1_555 1_555
C6A C7A 1_555 1_555

#END
