
#######################################################################
#
#                 Cambridge Crystallographic Data Centre
#                                CCDC 
#
#######################################################################
#
# If this CIF has been generated from an entry in the Cambridge 
# Structural Database, then it will include bibliographic, chemical, 
# crystal, experimental, refinement or atomic coordinate data resulting 
# from the CCDC's data processing and validation procedures.
#
#######################################################################

data_ROLGEE
_chemical_formula_moiety         'C15 H16 N2'
_chemical_name_systematic        N,N'-Di(p-tolyl)formamidine
_symmetry_cell_setting           triclinic
_symmetry_space_group_name_H-M   'P -1'
_symmetry_Int_Tables_number      2
_space_group_name_Hall           '-P 1'
loop_
_symmetry_equiv_pos_site_id
_symmetry_equiv_pos_as_xyz
1 x,y,z
2 -x,-y,-z
_cell_length_a                   10.121(1)
_cell_length_b                   10.530(2)
_cell_length_c                   6.101(1)
_cell_angle_alpha                99.17(1)
_cell_angle_beta                 96.38(1)
_cell_angle_gamma                86.79(1)
_cell_volume                     637.438
_cell_formula_units_Z            2
_exptl_crystal_recrystallization_method toluene/hexanes
loop_
_atom_site_label
_atom_site_type_symbol
_atom_site_fract_x
_atom_site_fract_y
_atom_site_fract_z
N1 N 0.5950(1) 0.1578(1) 0.6175(2)
N2 N 0.6370(1) 0.0039(1) 0.3170(2)
C1 C 0.6714(1) 0.1013(1) 0.4610(2)
C2 C 0.6313(1) 0.2661(1) 0.7774(2)
C3 C 0.5776(2) 0.2844(2) 0.9783(3)
C4 C 0.6096(2) 0.3898(2) 1.1379(3)
C5 C 0.6970(2) 0.4785(1) 1.1035(3)
C6 C 0.7495(2) 0.4596(2) 0.9018(3)
C7 C 0.7170(2) 0.3559(2) 0.7376(3)
C8 C 0.7332(2) 0.5915(2) 1.2808(3)
C9 C 0.7343(1) -0.0533(1) 0.1783(2)
C10 C 0.8651(1) -0.0792(2) 0.2623(3)
C11 C 0.9549(2) -0.1416(2) 0.1235(3)
C12 C 0.9189(1) -0.1824(1) -0.1007(2)
C13 C 0.7890(2) -0.1552(1) -0.1835(2)
C14 C 0.6984(1) -0.0913(1) -0.0477(2)
C15 C 1.0169(2) -0.2554(2) -0.2473(3)
H1 H 0.5260(18) 0.1163(16) 0.6396(26)
H2 H 0.7583(16) 0.1418(15) 0.4628(24)
H3 H 0.5193(19) 0.2241(19) 1.0057(30)
H4 H 0.5655(19) 0.4035(18) 1.2743(32)
H5 H 0.8069(21) 0.5203(20) 0.8651(32)
H6 H 0.7519(17) 0.3461(16) 0.5936(29)
H7 H 0.8179(7) 0.5736(6) 1.3597(17)
H8 H 0.6666(8) 0.6061(9) 1.3835(15)
H9 H 0.7381(15) 0.6669(4) 1.2123(4)
H10 H 0.8891(16) -0.0527(15) 0.4219(27)
H11 H 1.0423(18) -0.1582(16) 0.1764(29)
H12 H 0.7625(16) -0.1791(15) -0.3394(29)
H13 H 0.6051(16) -0.0707(14) -0.1108(25)
H14 H 0.9986(8) -0.2349(10) -0.3958(6)
H15 H 1.0091(9) -0.3462(2) -0.2511(18)
H16 H 1.1056(2) -0.2316(10) -0.1886(13)
loop_
_geom_bond_atom_site_label_1
_geom_bond_atom_site_label_2
_geom_bond_site_symmetry_1
_geom_bond_site_symmetry_2
N1 C1 1_555 1_555
N2 C1 1_555 1_555
C1 H2 1_555 1_555
C2 N1 1_555 1_555
C3 C2 1_555 1_555
C4 C3 1_555 1_555
C5 C4 1_555 1_555
C6 C5 1_555 1_555
C7 C2 1_555 1_555
C8 C5 1_555 1_555
C9 N2 1_555 1_555
C10 C9 1_555 1_555
C11 C10 1_555 1_555
C12 C11 1_555 1_555
C13 C12 1_555 1_555
C14 C9 1_555 1_555
C15 C12 1_555 1_555
H1 N1 1_555 1_555
H3 C3 1_555 1_555
H4 C4 1_555 1_555
H5 C6 1_555 1_555
H6 C7 1_555 1_555
H7 C8 1_555 1_555
H8 C8 1_555 1_555
H9 C8 1_555 1_555
H10 C10 1_555 1_555
H11 C11 1_555 1_555
H12 C13 1_555 1_555
H13 C14 1_555 1_555
H14 C15 1_555 1_555
H15 C15 1_555 1_555
H16 C15 1_555 1_555
C6 C7 1_555 1_555
C13 C14 1_555 1_555

#END
