
#######################################################################
#
#                 Cambridge Crystallographic Data Centre
#                                CCDC 
#
#######################################################################
#
# If this CIF has been generated from an entry in the Cambridge 
# Structural Database, then it will include bibliographic, chemical, 
# crystal, experimental, refinement or atomic coordinate data resulting 
# from the CCDC's data processing and validation procedures.
#
#######################################################################

data_ROLGOO
_chemical_name_common            
'12,13,25,26-Tetra-aza-2,15-dithia(3.3)phenanthrolinophane 1,2-dichloroethane dihydrate'
_chemical_formula_moiety         'C28 H20 N4 S2,C2 H4 Cl2,2(H2 O1)'
_chemical_name_systematic        
3,7-Dithia-1,5(2,9)-di-1,10-phenanthrolinacyclo-octaphane
_symmetry_cell_setting           monoclinic
_symmetry_space_group_name_H-M   'P 21/n'
_symmetry_Int_Tables_number      14
_space_group_name_Hall           '-P 2yn'
loop_
_symmetry_equiv_pos_site_id
_symmetry_equiv_pos_as_xyz
1 x,y,z
2 1/2-x,1/2+y,1/2-z
3 -x,-y,-z
4 1/2+x,1/2-y,1/2+z
_cell_length_a                   16.286(5)
_cell_length_b                   8.578(3)
_cell_length_c                   10.650(3)
_cell_angle_alpha                90
_cell_angle_beta                 104.94(2)
_cell_angle_gamma                90
_cell_volume                     1437.53
_exptl_crystal_colour            'pale brown'
_exptl_crystal_description       prisms
_cell_formula_units_Z            2
_exptl_crystal_recrystallization_method 1,2-dichloroethane/cyclohexane
loop_
_atom_site_label
_atom_site_type_symbol
_atom_site_fract_x
_atom_site_fract_y
_atom_site_fract_z
S1 S 0.73858(6) 0.57929(12) 0.87077(11)
N1 N 0.60056(17) 0.28254(31) 0.97835(26)
N2 N 0.45561(17) 0.23711(32) 1.05643(26)
C1 C 0.6019(2) 0.1760(4) 1.0730(3)
C2 C 0.3846(2) 0.2135(4) 1.0914(3)
C3 C 0.6699(2) 0.3037(4) 0.9379(3)
C4 C 0.5253(2) 0.1508(4) 1.1133(3)
C5 C 0.6759(2) 0.0896(4) 1.1325(3)
C6 C 0.5246(3) 0.0382(4) 1.2096(3)
C7 C 0.3791(3) 0.1024(5) 1.1869(4)
C8 C 0.6634(3) 0.4186(5) 0.8295(4)
C9 C 0.7459(2) 0.2214(5) 0.9913(4)
C10 C 0.7487(3) 0.1164(5) 1.0876(4)
C11 C 0.4482(3) 0.0161(5) 1.2440(4)
C12 C 0.6914(2) 0.6919(5) 0.9778(4)
C13 C 0.6732(3) -0.0215(5) 1.2308(4)
C14 C 0.6014(3) -0.0469(5) 1.2670(4)
H1 H 0.327(2) 0.097(4) 1.202(3)
H2 H 0.676(2) 0.369(4) 0.747(3)
H3 H 0.794(3) 0.241(5) 0.962(4)
H4 H 0.738(3) 0.763(5) 1.024(4)
H5 H 0.796(2) 0.061(4) 1.120(3)
H6 H 0.725(3) -0.087(5) 1.264(4)
H7 H 0.603(2) 0.453(4) 0.798(3)
H8 H 0.678(2) 0.619(5) 1.049(4)
H9 H 0.599(3) -0.116(5) 1.334(4)
H10 H 0.450(3) -0.063(5) 1.315(4)
C12B C 0.3086(2) 0.3081(5) 1.0222(4)
S1B S 0.26142(6) 0.42071(12) 1.12923(11)
C8B C 0.3366(3) 0.5814(5) 1.1705(4)
C3B C 0.3301(2) 0.6963(4) 1.0621(3)
N1B N 0.39944(17) 0.71746(31) 1.02165(26)
C1B C 0.3981(2) 0.8240(4) 0.9270(3)
C4B C 0.4747(2) 0.8492(4) 0.8867(3)
N2B N 0.54439(17) 0.76289(32) 0.94357(26)
C2B C 0.6154(2) 0.7865(4) 0.9086(3)
C7B C 0.6209(3) 0.8976(5) 0.8131(4)
C11B C 0.5518(3) 0.9839(5) 0.7560(4)
C6B C 0.4754(3) 0.9618(4) 0.7904(3)
C14B C 0.3986(3) 1.0469(5) 0.7330(4)
C13B C 0.3268(3) 1.0215(5) 0.7692(4)
C5B C 0.3241(2) 0.9104(4) 0.8675(3)
C10B C 0.2513(3) 0.8836(5) 0.9124(4)
C9B C 0.2541(2) 0.7786(5) 1.0087(4)
H3B H 0.206(3) 0.759(5) 1.038(4)
H5B H 0.204(2) 0.939(4) 0.880(3)
H6B H 0.275(3) 1.087(5) 0.736(4)
H9B H 0.401(3) 1.116(5) 0.666(4)
H10B H 0.550(3) 1.063(5) 0.685(4)
H1B H 0.673(2) 0.903(4) 0.798(3)
H2B H 0.324(2) 0.631(4) 1.253(3)
H7B H 0.397(2) 0.547(4) 1.202(3)
H4B H 0.262(3) 0.237(5) 0.976(4)
H8B H 0.322(2) 0.381(5) 0.951(4)
Cl1 Cl 0.57543(10) 0.30110(17) 0.48137(14)
C15 C 0.5329(5) 0.5282(13) 0.4913(8)
H11 H 0.535(4) 0.560(7) 0.405(6)
H12 H 0.533(5) 0.601(9) 0.565(7)
C15B C 0.4671(5) 0.4718(13) 0.5087(8)
Cl1B Cl 0.42457(10) 0.69890(17) 0.51863(14)
H11B H 0.465(4) 0.440(7) 0.595(6)
H12B H 0.467(5) 0.399(9) 0.435(7)
O1 O 0.5626(2) 0.5514(5) 1.1873(3)
H13 H 0.535(3) 0.614(6) 1.139(5)
H14 H 0.543(4) 0.482(7) 1.145(5)
loop_
_geom_bond_atom_site_label_1
_geom_bond_atom_site_label_2
_geom_bond_site_symmetry_1
_geom_bond_site_symmetry_2
S1 C8 1_555 1_555
N1 C1 1_555 1_555
N2 C2 1_555 1_555
C1 C4 1_555 1_555
C2 C7 1_555 1_555
C3 N1 1_555 1_555
C4 N2 1_555 1_555
C5 C1 1_555 1_555
C6 C4 1_555 1_555
C7 C11 1_555 1_555
C8 C3 1_555 1_555
C9 C3 1_555 1_555
C10 C5 1_555 1_555
C11 C6 1_555 1_555
C12 S1 1_555 1_555
C13 C5 1_555 1_555
C14 C6 1_555 1_555
H1 C7 1_555 1_555
H2 C8 1_555 1_555
H3 C9 1_555 1_555
H4 C12 1_555 1_555
H5 C10 1_555 1_555
H6 C13 1_555 1_555
H7 C8 1_555 1_555
H8 C12 1_555 1_555
H9 C14 1_555 1_555
H10 C11 1_555 1_555
Cl1 C15 1_555 1_555
C15 H11 1_555 1_555
H12 C15 1_555 1_555
O1 H13 1_555 1_555
H14 O1 1_555 1_555
C12B C2 1_555 1_555
S1B C12B 1_555 1_555
C8B S1B 1_555 1_555
C3B C8B 1_555 1_555
N1B C3B 1_555 1_555
C1B N1B 1_555 1_555
C4B C1B 1_555 1_555
N2B C4B 1_555 1_555
C2B C12 1_555 1_555
C7B C2B 1_555 1_555
C11B C7B 1_555 1_555
C6B C4B 1_555 1_555
C14B C6B 1_555 1_555
C13B C14B 1_555 1_555
C5B C1B 1_555 1_555
C10B C5B 1_555 1_555
C9B C3B 1_555 1_555
H3B C9B 1_555 1_555
H5B C10B 1_555 1_555
H6B C13B 1_555 1_555
H9B C14B 1_555 1_555
H10B C11B 1_555 1_555
H1B C7B 1_555 1_555
H2B C8B 1_555 1_555
H7B C8B 1_555 1_555
H4B C12B 1_555 1_555
H8B C12B 1_555 1_555
C15B C15 1_555 1_555
Cl1B C15B 1_555 1_555
H11B C15B 1_555 1_555
H12B C15B 1_555 1_555
C9 C10 1_555 1_555
C13 C14 1_555 1_555
N2B C2B 1_555 1_555
C11B C6B 1_555 1_555
C13B C5B 1_555 1_555
C10B C9B 1_555 1_555

#END
