
#######################################################################
#
#                 Cambridge Crystallographic Data Centre
#                                CCDC 
#
#######################################################################
#
# If this CIF has been generated from an entry in the Cambridge 
# Structural Database, then it will include bibliographic, chemical, 
# crystal, experimental, refinement or atomic coordinate data resulting 
# from the CCDC's data processing and validation procedures.
#
#######################################################################

data_ROLSOA
_chemical_name_common            
'Teaching Subset: Fundamental Chemistry, Symmetry'
_chemical_formula_moiety         'C11 H24 N1 1+,F7 Te1 1-'
_chemical_name_systematic        
'1,1,3,3,5,5-Hexamethylpiperidinium heptafluorotellurate'
_symmetry_cell_setting           triclinic
_symmetry_space_group_name_H-M   'P -1'
_symmetry_Int_Tables_number      2
_space_group_name_Hall           '-P 1'
loop_
_symmetry_equiv_pos_site_id
_symmetry_equiv_pos_as_xyz
1 x,y,z
2 -x,-y,-z
_cell_length_a                   7.970(2)
_cell_length_b                   8.2500(10)
_cell_length_c                   12.780(2)
_cell_angle_alpha                86.120(9)
_cell_angle_beta                 72.1100(10)
_cell_angle_gamma                79.900(10)
_cell_volume                     787.208
_exptl_crystal_colour            colorless
_cell_formula_units_Z            2
_chemical_properties_physical    Moisture-sensitive
loop_
_atom_site_label
_atom_site_type_symbol
_atom_site_fract_x
_atom_site_fract_y
_atom_site_fract_z
Te1 Te 0.5126(1) 0.3044(1) 0.6673(1)
F1 F 0.5193(5) 0.0989(4) 0.7311(3)
F2 F 0.5016(5) 0.5156(4) 0.6140(3)
F3 F 0.2977(4) 0.3628(4) 0.7805(2)
F4 F 0.3295(5) 0.2853(5) 0.6082(3)
F5 F 0.5732(6) 0.3673(6) 0.7886(3)
F6 F 0.6251(7) 0.1931(5) 0.5347(3)
F7 F 0.7610(5) 0.3115(7) 0.6279(4)
N1 N 0.1036(5) 0.2589(4) 1.3323(3)
C1 C 0.0098(6) 0.0912(6) 1.2008(4)
C2 C 0.2615(6) 0.2733(5) 1.1229(3)
C3 C 0.0304(6) 0.1087(6) 1.3149(4)
C4 C 0.1813(6) 0.1213(6) 1.1117(4)
C5 C 0.2709(5) 0.2785(5) 1.2402(3)
C6 C 0.1705(7) 0.4352(6) 1.0827(4)
C7 C 0.4585(7) 0.2490(7) 1.0513(4)
C8 C 0.1566(7) 0.2294(7) 1.4365(4)
C9 C -0.1601(7) 0.1965(8) 1.1842(5)
C10 C -0.0341(7) 0.4116(6) 1.3500(4)
C11 C -0.0078(9) -0.0905(7) 1.1948(6)
H1 H 0.1124(79) 0.0193(78) 1.3278(46)
H2 H -0.0828(80) 0.1027(70) 1.3710(47)
H3 H 0.2740(79) 0.0252(73) 1.1158(46)
H4 H 0.1605(76) 0.1261(70) 1.0416(49)
H5 H 0.3080(76) 0.3711(75) 1.2512(46)
H6 H 0.3560(79) 0.1914(74) 1.2530(46)
H7 H 0.0459(83) 0.4614(70) 1.1158(48)
H8 H 0.1969(76) 0.4225(69) 1.0019(49)
H9 H 0.2186(77) 0.5326(75) 1.0983(47)
H10 H 0.4794(77) 0.2411(71) 0.9771(52)
H11 H 0.5190(79) 0.1579(77) 1.0750(48)
H12 H 0.5185(77) 0.3412(74) 1.0606(46)
H13 H 0.2378(82) 0.1415(78) 1.4296(47)
H14 H 0.0447(81) 0.2245(70) 1.4944(49)
H15 H 0.2049(77) 0.3273(75) 1.4450(46)
H16 H -0.1605(76) 0.3239(75) 1.1777(46)
H17 H -0.2683(81) 0.1802(71) 1.2436(48)
H18 H -0.1745(76) 0.1664(71) 1.1200(50)
H19 H -0.0637(77) 0.4363(71) 1.2915(51)
H20 H 0.0215(77) 0.5004(74) 1.3606(47)
H21 H -0.1491(78) 0.3900(69) 1.4130(48)
H22 H -0.0300(78) -0.1059(71) 1.1313(50)
H23 H -0.1013(85) -0.1110(74) 1.2432(50)
H24 H 0.1019(80) -0.1664(70) 1.2043(46)
loop_
_geom_bond_atom_site_label_1
_geom_bond_atom_site_label_2
_geom_bond_site_symmetry_1
_geom_bond_site_symmetry_2
Te1 F1 1_555 1_555
F2 Te1 1_555 1_555
F3 Te1 1_555 1_555
F4 Te1 1_555 1_555
F5 Te1 1_555 1_555
F6 Te1 1_555 1_555
F7 Te1 1_555 1_555
N1 C3 1_555 1_555
C1 C3 1_555 1_555
C2 C4 1_555 1_555
C3 H1 1_555 1_555
C4 C1 1_555 1_555
C5 N1 1_555 1_555
C6 C2 1_555 1_555
C7 C2 1_555 1_555
C8 N1 1_555 1_555
C9 C1 1_555 1_555
C10 N1 1_555 1_555
C11 C1 1_555 1_555
H2 C3 1_555 1_555
H3 C4 1_555 1_555
H4 C4 1_555 1_555
H5 C5 1_555 1_555
H6 C5 1_555 1_555
H7 C6 1_555 1_555
H8 C6 1_555 1_555
H9 C6 1_555 1_555
H10 C7 1_555 1_555
H11 C7 1_555 1_555
H12 C7 1_555 1_555
H13 C8 1_555 1_555
H14 C8 1_555 1_555
H15 C8 1_555 1_555
H16 C9 1_555 1_555
H17 C9 1_555 1_555
H18 C9 1_555 1_555
H19 C10 1_555 1_555
H20 C10 1_555 1_555
H21 C10 1_555 1_555
H22 C11 1_555 1_555
H23 C11 1_555 1_555
H24 C11 1_555 1_555
C2 C5 1_555 1_555

#END
