
#######################################################################
#
#                 Cambridge Crystallographic Data Centre
#                                CCDC 
#
#######################################################################
#
# If this CIF has been generated from an entry in the Cambridge 
# Structural Database, then it will include bibliographic, chemical, 
# crystal, experimental, refinement or atomic coordinate data resulting 
# from the CCDC's data processing and validation procedures.
#
#######################################################################

data_ROLSEQ
_chemical_name_common            
'Teaching Subset: Fundamental Chemistry, Symmetry'
_chemical_formula_moiety         'C11 H24 N1 1+,Cl1 F4 1-'
_chemical_name_systematic        
'1,1,3,3,5,5-Hexamethylpiperidinium tetrafluorochlorate'
_symmetry_cell_setting           tetragonal
_symmetry_space_group_name_H-M   'I 41 c d'
_symmetry_Int_Tables_number      110
_space_group_name_Hall           'I 4bw -2c'
loop_
_symmetry_equiv_pos_site_id
_symmetry_equiv_pos_as_xyz
1 x,y,z
2 -y,1/2+x,1/4+z
3 -x,y,1/2+z
4 1/2-x,1/2-y,1/2+z
5 -y,1/2-x,3/4+z
6 1/2+y,-x,3/4+z
7 1/2+x,1/2-y,z
8 1/2+y,x,1/4+z
9 1/2+x,1/2+y,1/2+z
10 1/2-y,x,3/4+z
11 1/2-x,1/2+y,z
12 -x,-y,z
13 1/2-y,-x,1/4+z
14 y,1/2-x,1/4+z
15 x,-y,1/2+z
16 y,1/2+x,3/4+z
_cell_length_a                   15.590(6)
_cell_length_b                   15.590(6)
_cell_length_c                   23.130(3)
_cell_angle_alpha                90
_cell_angle_beta                 90
_cell_angle_gamma                90
_cell_volume                     5621.7
_exptl_crystal_colour            colorless
_cell_formula_units_Z            16
loop_
_atom_site_label
_atom_site_type_symbol
_atom_site_fract_x
_atom_site_fract_y
_atom_site_fract_z
Cl1 Cl 0.2193(1) 0.0600(1) 0.0000
F1 F 0.2798(1) 0.1214(1) 0.0491(1)
F2 F 0.1563(1) -0.0009(1) -0.0515(1)
F3 F 0.2439(1) 0.1359(1) -0.0545(1)
F4 F 0.1936(1) -0.0152(1) 0.0572(1)
N1 N 0.3120(1) -0.0191(1) -0.2993(1)
C1 C 0.2491(1) 0.0552(1) -0.3003(1)
C2 C 0.1936(1) 0.0684(1) -0.2463(1)
C3 C 0.3645(1) -0.0172(1) -0.2441(1)
C4 C 0.3150(1) -0.0088(1) -0.1871(1)
C5 C 0.1164(1) 0.0086(2) -0.2430(1)
C6 C 0.2507(1) 0.0656(1) -0.1918(1)
C7 C 0.1586(1) 0.1602(2) -0.2517(1)
C8 C 0.3729(2) -0.0062(2) -0.3493(1)
C9 C 0.2694(2) -0.1040(1) -0.3090(1)
C10 C 0.2744(1) -0.0932(1) -0.1662(1)
C11 C 0.3823(1) 0.0160(2) -0.1416(1)
H1 H 0.2886(18) 0.1052(18) -0.3064(13)
H2 H 0.2134(17) 0.0490(18) -0.3352(12)
H3 H 0.4002(17) -0.0688(17) -0.2445(14)
H4 H 0.4036(16) 0.0330(16) -0.2484(14)
H5 H 0.1303(17) -0.0487(18) -0.2374(13)
H6 H 0.0845(18) 0.0099(19) -0.2780(12)
H7 H 0.0811(18) 0.0228(18) -0.2119(12)
H8 H 0.2104(17) 0.0641(17) -0.1581(13)
H9 H 0.2840(17) 0.1223(17) -0.1926(14)
H10 H 0.1234(18) 0.1797(19) -0.2203(12)
H11 H 0.1204(18) 0.1646(19) -0.2872(12)
H12 H 0.2060(17) 0.2040(17) -0.2567(13)
H13 H 0.4018(18) 0.0473(18) -0.3440(13)
H14 H 0.3376(18) -0.0065(18) -0.3835(11)
H15 H 0.4162(19) -0.0537(18) -0.3480(12)
H16 H 0.2332(18) -0.1172(19) -0.2811(12)
H17 H 0.3104(19) -0.1480(19) -0.3063(12)
H18 H 0.2460(19) -0.1008(20) -0.3449(12)
H19 H 0.2267(17) -0.1124(17) -0.1901(13)
H20 H 0.2505(20) -0.0866(19) -0.1290(12)
H21 H 0.3178(17) -0.1416(17) -0.1653(12)
H22 H 0.3554(18) 0.0237(17) -0.1047(13)
H23 H 0.4157(18) 0.0699(17) -0.1556(12)
H24 H 0.4242(18) -0.0287(17) -0.1376(12)
loop_
_geom_bond_atom_site_label_1
_geom_bond_atom_site_label_2
_geom_bond_site_symmetry_1
_geom_bond_site_symmetry_2
Cl1 F1 1_555 1_555
F2 Cl1 1_555 1_555
F3 Cl1 1_555 1_555
F4 Cl1 1_555 1_555
N1 C1 1_555 1_555
C1 C2 1_555 1_555
C2 C5 1_555 1_555
C3 N1 1_555 1_555
C4 C3 1_555 1_555
C5 H5 1_555 1_555
C6 C2 1_555 1_555
C7 C2 1_555 1_555
C8 N1 1_555 1_555
C9 N1 1_555 1_555
C10 C4 1_555 1_555
C11 C4 1_555 1_555
H1 C1 1_555 1_555
H2 C1 1_555 1_555
H3 C3 1_555 1_555
H4 C3 1_555 1_555
H6 C5 1_555 1_555
H7 C5 1_555 1_555
H8 C6 1_555 1_555
H9 C6 1_555 1_555
H10 C7 1_555 1_555
H11 C7 1_555 1_555
H12 C7 1_555 1_555
H13 C8 1_555 1_555
H14 C8 1_555 1_555
H15 C8 1_555 1_555
H16 C9 1_555 1_555
H17 C9 1_555 1_555
H18 C9 1_555 1_555
H19 C10 1_555 1_555
H20 C10 1_555 1_555
H21 C10 1_555 1_555
H22 C11 1_555 1_555
H23 C11 1_555 1_555
H24 C11 1_555 1_555
C4 C6 1_555 1_555

#END
