
#######################################################################
#
#                 Cambridge Crystallographic Data Centre
#                                CCDC 
#
#######################################################################
#
# If this CIF has been generated from an entry in the Cambridge 
# Structural Database, then it will include bibliographic, chemical, 
# crystal, experimental, refinement or atomic coordinate data resulting 
# from the CCDC's data processing and validation procedures.
#
#######################################################################

data_ROMGIL
_chemical_formula_moiety         'C36 H36 B1 N1'
_chemical_name_systematic        4-(dimesitylboryl)-N,N-diphenylaniline
_symmetry_cell_setting           monoclinic
_symmetry_space_group_name_H-M   'P 21/n'
_symmetry_Int_Tables_number      14
_space_group_name_Hall           '-P 2yn'
loop_
_symmetry_equiv_pos_site_id
_symmetry_equiv_pos_as_xyz
1 x,y,z
2 1/2-x,1/2+y,1/2-z
3 -x,-y,-z
4 1/2+x,1/2-y,1/2+z
_cell_length_a                   8.8391(3)
_cell_length_b                   34.0268(11)
_cell_length_c                   9.5807(3)
_cell_angle_alpha                90
_cell_angle_beta                 100.720(1)
_cell_angle_gamma                90
_cell_volume                     2831.26
_exptl_crystal_colour            colorless
_exptl_crystal_description       prism
_cell_formula_units_Z            4
_exptl_crystal_preparation       'soaked in perfluoro polyether oil'
loop_
_atom_site_label
_atom_site_type_symbol
_atom_site_fract_x
_atom_site_fract_y
_atom_site_fract_z
N1 N 0.61232(13) 0.28907(3) -0.15128(13)
C1 C 1.07893(16) 0.41980(4) 0.22344(16)
C2 C 1.21785(16) 0.41694(4) 0.32326(16)
C3 C 1.35713(16) 0.42821(4) 0.28634(16)
H1 H 1.44969(16) 0.42559(4) 0.35423(16)
C4 C 1.36348(16) 0.44319(4) 0.15233(17)
C5 C 1.22586(17) 0.44731(4) 0.05605(16)
H2 H 1.22791(17) 0.45819(4) -0.03489(16)
C6 C 1.08533(17) 0.43599(4) 0.08861(16)
C7 C 1.22092(17) 0.40058(5) 0.47045(16)
H3 H 1.1538(10) 0.4164(2) 0.5190(5)
H4 H 1.1844(12) 0.37333(11) 0.46315(16)
H5 H 1.3265(3) 0.4014(3) 0.5246(4)
C8 C 1.51359(17) 0.45552(5) 0.11333(18)
H6 H 1.5271(7) 0.48394(7) 0.1270(12)
H7 H 1.5986(2) 0.4417(3) 0.1739(8)
H8 H 1.5129(5) 0.4490(3) 0.0136(4)
C9 C 0.94302(18) 0.44284(5) -0.02384(17)
H9 H 0.9380(7) 0.4230(2) -0.0988(7)
H10 H 0.8511(2) 0.4408(3) 0.0193(3)
H11 H 0.9478(7) 0.46910(14) -0.0648(9)
C10 C 0.85020(16) 0.41601(4) 0.38812(16)
C11 C 0.82240(16) 0.45637(4) 0.41066(16)
C12 C 0.74206(17) 0.46759(5) 0.51632(17)
H12 H 0.72118(17) 0.49468(5) 0.52742(17)
C13 C 0.69161(17) 0.44058(5) 0.60570(17)
C14 C 0.72597(17) 0.40122(5) 0.58890(16)
H13 H 0.69651(17) 0.38236(5) 0.65192(16)
C15 C 0.80244(16) 0.38860(4) 0.48222(16)
C16 C 0.87546(19) 0.48826(4) 0.32101(19)
H14 H 0.98821(19) 0.4895(2) 0.3405(10)
H15 H 0.8390(12) 0.48238(19) 0.22023(19)
H16 H 0.8336(11) 0.51361(7) 0.3441(9)
C17 C 0.6020(2) 0.45352(6) 0.7168(2)
H17 H 0.6583(8) 0.4745(3) 0.7747(10)
H18 H 0.5009(6) 0.4634(4) 0.6703(2)
H19 H 0.5883(14) 0.43116(11) 0.7777(9)
C18 C 0.83504(18) 0.34507(5) 0.47531(18)
H20 H 0.7504(7) 0.33228(7) 0.4106(10)
H21 H 0.9314(7) 0.34113(5) 0.4405(12)
H22 H 0.8444(13) 0.33359(8) 0.5704(3)
C19 C 0.84055(16) 0.37087(4) 0.15270(16)
C20 C 0.68353(16) 0.36219(4) 0.14066(15)
H23 H 0.62746(16) 0.37470(4) 0.20367(15)
C21 C 0.60696(16) 0.33623(4) 0.04106(15)
H24 H 0.49982(16) 0.33181(4) 0.03507(15)
C22 C 0.68652(16) 0.31640(4) -0.05110(15)
C23 C 0.84402(16) 0.32388(4) -0.03972(16)
H25 H 0.90090(16) 0.31044(4) -0.09991(16)
C24 C 0.91724(16) 0.35061(4) 0.05813(16)
H26 H 1.02371(16) 0.35556(4) 0.06197(16)
C25 C 0.69474(15) 0.25516(4) -0.18501(15)
C26 C 0.78325(16) 0.23299(4) -0.07784(15)
H27 H 0.79652(16) 0.24143(4) 0.01818(15)
C27 C 0.85206(17) 0.19850(4) -0.11172(16)
H28 H 0.91307(17) 0.18344(4) -0.03870(16)
C28 C 0.83223(17) 0.18591(4) -0.25169(16)
H29 H 0.87633(17) 0.16180(4) -0.27420(16)
C29 C 0.74759(17) 0.20872(4) -0.35866(16)
H30 H 0.73636(17) 0.20053(4) -0.45484(16)
C30 C 0.67939(16) 0.24334(4) -0.32604(15)
H31 H 0.62233(16) 0.25896(4) -0.39968(15)
C31 C 0.44839(16) 0.28743(4) -0.18737(14)
C32 C 0.36283(17) 0.32128(4) -0.22923(15)
H32 H 0.41390(17) 0.34569(4) -0.23376(15)
C33 C 0.20355(17) 0.31944(5) -0.26426(15)
H33 H 0.14588(17) 0.34274(5) -0.29013(15)
C34 C 0.12763(16) 0.28368(5) -0.26176(15)
H34 H 0.01867(16) 0.28237(5) -0.28791(15)
C35 C 0.21241(16) 0.25004(4) -0.22080(15)
H35 H 0.16112(16) 0.22558(4) -0.21861(15)
C36 C 0.37169(16) 0.25173(4) -0.18289(15)
H36 H 0.42864(16) 0.22852(4) -0.15382(15)
B1 B 0.92416(18) 0.40245(5) 0.25768(18)
loop_
_geom_bond_atom_site_label_1
_geom_bond_atom_site_label_2
_geom_bond_site_symmetry_1
_geom_bond_site_symmetry_2
N1 C22 1_555 1_555
C1 C2 1_555 1_555
C2 C3 1_555 1_555
C3 H1 1_555 1_555
C4 C3 1_555 1_555
C5 C4 1_555 1_555
H2 C5 1_555 1_555
C6 C1 1_555 1_555
C7 C2 1_555 1_555
H3 C7 1_555 1_555
H4 C7 1_555 1_555
H5 C7 1_555 1_555
C8 C4 1_555 1_555
H6 C8 1_555 1_555
H7 C8 1_555 1_555
H8 C8 1_555 1_555
C9 C6 1_555 1_555
H9 C9 1_555 1_555
H10 C9 1_555 1_555
H11 C9 1_555 1_555
C10 C11 1_555 1_555
C11 C12 1_555 1_555
C12 H12 1_555 1_555
C13 C12 1_555 1_555
C14 C13 1_555 1_555
H13 C14 1_555 1_555
C15 C10 1_555 1_555
C16 C11 1_555 1_555
H14 C16 1_555 1_555
H15 C16 1_555 1_555
H16 C16 1_555 1_555
C17 C13 1_555 1_555
H17 C17 1_555 1_555
H18 C17 1_555 1_555
H19 C17 1_555 1_555
C18 C15 1_555 1_555
H20 C18 1_555 1_555
H21 C18 1_555 1_555
H22 C18 1_555 1_555
C19 C20 1_555 1_555
C20 H23 1_555 1_555
C21 C20 1_555 1_555
H24 C21 1_555 1_555
C22 C21 1_555 1_555
C23 C22 1_555 1_555
H25 C23 1_555 1_555
C24 C19 1_555 1_555
H26 C24 1_555 1_555
C25 N1 1_555 1_555
C26 C25 1_555 1_555
H27 C26 1_555 1_555
C27 C26 1_555 1_555
H28 C27 1_555 1_555
C28 C27 1_555 1_555
H29 C28 1_555 1_555
C29 C28 1_555 1_555
H30 C29 1_555 1_555
C30 C25 1_555 1_555
H31 C30 1_555 1_555
C31 N1 1_555 1_555
C32 C31 1_555 1_555
H32 C32 1_555 1_555
C33 C32 1_555 1_555
H33 C33 1_555 1_555
C34 C33 1_555 1_555
H34 C34 1_555 1_555
C35 C34 1_555 1_555
H35 C35 1_555 1_555
C36 C31 1_555 1_555
H36 C36 1_555 1_555
B1 C1 1_555 1_555
C5 C6 1_555 1_555
C10 B1 1_555 1_555
C14 C15 1_555 1_555
C19 B1 1_555 1_555
C23 C24 1_555 1_555
C29 C30 1_555 1_555
C35 C36 1_555 1_555

#END
