
#######################################################################
#
#                 Cambridge Crystallographic Data Centre
#                                CCDC 
#
#######################################################################
#
# If this CIF has been generated from an entry in the Cambridge 
# Structural Database, then it will include bibliographic, chemical, 
# crystal, experimental, refinement or atomic coordinate data resulting 
# from the CCDC's data processing and validation procedures.
#
#######################################################################

data_ROMGEH
_chemical_formula_moiety         'C28 H17 B1 F18'
_chemical_name_systematic        
(4-t-butylphenyl)(bis(2,4,6-tris(trifluoromethyl)phenyl))borane
_symmetry_cell_setting           monoclinic
_symmetry_space_group_name_H-M   'P 21/n'
_symmetry_Int_Tables_number      14
_space_group_name_Hall           '-P 2yn'
loop_
_symmetry_equiv_pos_site_id
_symmetry_equiv_pos_as_xyz
1 x,y,z
2 1/2-x,1/2+y,1/2-z
3 -x,-y,-z
4 1/2+x,1/2-y,1/2+z
_cell_length_a                   9.1239(3)
_cell_length_b                   24.4308(8)
_cell_length_c                   12.5042(6)
_cell_angle_alpha                90
_cell_angle_beta                 97.114(1)
_cell_angle_gamma                90
_cell_volume                     2765.78
_exptl_crystal_colour            colorless
_exptl_crystal_description       prism
_cell_formula_units_Z            4
_exptl_crystal_preparation       'soaked in perfluoro polyether oil'
loop_
_atom_site_label
_atom_site_type_symbol
_atom_site_fract_x
_atom_site_fract_y
_atom_site_fract_z
F1 F 0.14451(14) 0.33237(5) 0.80030(9)
F2 F 0.11076(15) 0.24041(5) 0.88360(11)
F3 F 0.62497(14) 0.33443(5) 1.08337(11)
F4 F -0.20812(15) 0.39520(6) 1.25264(11)
F5 F -0.08156(14) 0.35153(6) 0.81210(11)
F6 F -0.25683(15) 0.44049(6) 1.10496(12)
F7 F 0.07938(17) 0.41591(5) 0.81909(11)
F8 F 0.09864(15) 0.15507(5) 0.92218(13)
F9 F 0.08482(14) 0.21576(6) 1.04475(11)
F10 F 0.43242(15) 0.31693(7) 1.20962(11)
F11 F 0.28431(17) 0.31787(7) 1.33041(11)
F12 F 0.76113(16) 0.27044(6) 1.15602(13)
F13 F 0.28383(18) 0.25007(6) 1.22173(12)
F14 F -0.08623(16) 0.46814(6) 1.22657(15)
F15 F 0.76166(16) 0.28866(6) 0.98798(14)
F16 F 0.5265(3) 0.05144(7) 1.07593(18)
C1 C 0.5412(2) 0.42974(8) 0.79008(16)
F17 F 0.6133(4) 0.06834(8) 0.93232(15)
C2 C 0.4677(2) 0.44604(8) 0.87662(16)
H1 H 0.4630(2) 0.48384(8) 0.89366(16)
C3 C -0.0346(2) 0.38992(8) 1.12793(17)
C4 C 0.5566(2) 0.24100(8) 1.03708(16)
C5 C 0.4105(2) 0.35169(8) 0.91886(16)
C6 C 0.3816(2) 0.14946(8) 0.99337(16)
H2 H 0.3208(2) 0.11817(8) 0.97812(16)
C7 C 0.4020(2) 0.40839(8) 0.93765(16)
H3 H 0.3496(2) 0.42103(8) 0.99392(16)
C8 C 0.1929(2) 0.33301(8) 1.03765(15)
C9 C 0.3196(2) 0.20139(8) 0.98696(15)
C10 C 0.1817(2) 0.33338(8) 1.14970(16)
C11 C 0.4890(2) 0.33546(8) 0.83434(17)
H4 H 0.5005(2) 0.29756(8) 0.82067(17)
C12 C -0.0333(2) 0.38882(8) 1.01818(17)
H5 H -0.1085(2) 0.40722(8) 0.97246(17)
C13 C 0.0780(2) 0.36078(8) 0.97342(16)
C14 C 0.0578(2) 0.36439(9) 0.85133(17)
C15 C 0.5500(2) 0.37352(8) 0.77042(16)
H6 H 0.5987(2) 0.36116(8) 0.71202(16)
C16 C 0.6084(2) 0.47328(8) 0.72273(16)
F18 F 0.7329(2) 0.08661(8) 1.0833(3)
C17 C 0.0710(2) 0.36110(8) 1.19420(16)
H7 H 0.0678(2) 0.36027(8) 1.26983(16)
C18 C 0.4040(2) 0.24995(8) 1.00614(15)
C19 C 0.6190(2) 0.18892(8) 1.04514(16)
H8 H 0.7220(2) 0.18482(8) 1.06670(16)
C20 C 0.5319(2) 0.14330(8) 1.02195(16)
C21 C 0.6731(2) 0.28454(9) 1.06601(19)
C22 C 0.2946(2) 0.30451(10) 1.22791(17)
C23 C -0.1469(2) 0.42340(9) 1.17780(19)
C24 C 0.1535(2) 0.20326(8) 0.95907(17)
C25 C 0.6011(3) 0.08737(9) 1.02672(19)
B1 B 0.3355(2) 0.31027(9) 0.98810(17)
C26 C 0.7365(3) 0.50121(10) 0.79285(19)
H9 H 0.7003(5) 0.5173(7) 0.8565(8)
H10 H 0.8133(9) 0.47414(18) 0.8157(12)
H11 H 0.7778(14) 0.5301(5) 0.7512(5)
C27 C 0.4925(3) 0.51640(11) 0.6834(2)
H12 H 0.4078(10) 0.49857(15) 0.6417(14)
H13 H 0.4598(17) 0.5352(6) 0.7456(2)
H14 H 0.5357(7) 0.5431(5) 0.6379(14)
C28 C 0.6693(3) 0.44820(10) 0.6251(2)
H15 H 0.7480(16) 0.4222(6) 0.6497(2)
H16 H 0.5898(6) 0.4291(7) 0.5800(9)
H17 H 0.709(2) 0.47728(14) 0.5830(9)
loop_
_geom_bond_atom_site_label_1
_geom_bond_atom_site_label_2
_geom_bond_site_symmetry_1
_geom_bond_site_symmetry_2
F1 C14 1_555 1_555
F2 C24 1_555 1_555
F3 C21 1_555 1_555
F4 C23 1_555 1_555
F5 C14 1_555 1_555
F6 C23 1_555 1_555
F7 C14 1_555 1_555
F8 C24 1_555 1_555
F9 C24 1_555 1_555
F10 C22 1_555 1_555
F11 C22 1_555 1_555
F12 C21 1_555 1_555
F13 C22 1_555 1_555
F14 C23 1_555 1_555
F15 C21 1_555 1_555
F16 C25 1_555 1_555
C1 C2 1_555 1_555
F17 C25 1_555 1_555
C2 H1 1_555 1_555
C3 C12 1_555 1_555
C4 C18 1_555 1_555
C5 C7 1_555 1_555
C6 H2 1_555 1_555
C7 C2 1_555 1_555
H3 C7 1_555 1_555
C8 C10 1_555 1_555
C9 C6 1_555 1_555
C10 C17 1_555 1_555
C11 C5 1_555 1_555
H4 C11 1_555 1_555
C12 H5 1_555 1_555
C13 C8 1_555 1_555
C14 C13 1_555 1_555
C15 C1 1_555 1_555
H6 C15 1_555 1_555
C16 C1 1_555 1_555
F18 C25 1_555 1_555
C17 C3 1_555 1_555
H7 C17 1_555 1_555
C18 C9 1_555 1_555
C19 C4 1_555 1_555
H8 C19 1_555 1_555
C20 C6 1_555 1_555
C21 C4 1_555 1_555
C22 C10 1_555 1_555
C23 C3 1_555 1_555
C24 C9 1_555 1_555
C25 C20 1_555 1_555
B1 C5 1_555 1_555
C26 C16 1_555 1_555
H9 C26 1_555 1_555
H10 C26 1_555 1_555
H11 C26 1_555 1_555
C27 C16 1_555 1_555
H12 C27 1_555 1_555
H13 C27 1_555 1_555
H14 C27 1_555 1_555
C28 C16 1_555 1_555
H15 C28 1_555 1_555
H16 C28 1_555 1_555
H17 C28 1_555 1_555
C8 B1 1_555 1_555
C11 C15 1_555 1_555
C12 C13 1_555 1_555
C18 B1 1_555 1_555
C19 C20 1_555 1_555

#END
