
#######################################################################
#
#                 Cambridge Crystallographic Data Centre
#                                CCDC 
#
#######################################################################
#
# If this CIF has been generated from an entry in the Cambridge 
# Structural Database, then it will include bibliographic, chemical, 
# crystal, experimental, refinement or atomic coordinate data resulting 
# from the CCDC's data processing and validation procedures.
#
#######################################################################

data_ROMHUY
_chemical_formula_moiety         'C46 H52 B2 N2,0.5(C6 H14)'
_chemical_name_systematic        
'2-(Dimesitylboryl)-5,5-dimesityl-1-methyl-1,5-dihydro-4\l^5^,5\l^5^-imidazo[1,2-b][2,1]benzazaborole n-hexane solvate'
_symmetry_cell_setting           triclinic
_symmetry_space_group_name_H-M   'P -1'
_symmetry_Int_Tables_number      2
_space_group_name_Hall           '-P 1'
loop_
_symmetry_equiv_pos_site_id
_symmetry_equiv_pos_as_xyz
1 x,y,z
2 -x,-y,-z
_cell_length_a                   10.0795(13)
_cell_length_b                   11.9651(15)
_cell_length_c                   18.297(2)
_cell_angle_alpha                105.756(2)
_cell_angle_beta                 96.512(2)
_cell_angle_gamma                90.633(2)
_cell_volume                     2108.02
_exptl_crystal_colour            colorless
_exptl_crystal_description       block
_cell_formula_units_Z            2
loop_
_atom_site_label
_atom_site_type_symbol
_atom_site_fract_x
_atom_site_fract_y
_atom_site_fract_z
B1 B 0.3159(2) 0.70691(19) 0.34188(13)
B2 B 0.3858(2) 1.05048(19) 0.21635(12)
N1 N 0.36302(15) 0.81372(13) 0.31119(9)
N2 N 0.52926(15) 0.91393(14) 0.28746(9)
C1 C 0.23353(19) 0.74215(18) 0.41683(11)
C2 C 0.2255(2) 0.85627(19) 0.46472(12)
C3 C 0.1494(2) 0.8760(2) 0.52625(12)
H1 H 0.1404 0.9539 0.5553
C4 C 0.0871(2) 0.7875(2) 0.54650(13)
C5 C 0.1013(2) 0.6761(2) 0.50247(13)
H2 H 0.0626 0.6132 0.5163
C6 C 0.1699(2) 0.65161(19) 0.43837(12)
C7 C 0.1678(2) 0.52535(18) 0.39242(13)
H3 H 0.1530 0.4754 0.4255
H4 H 0.2534 0.5085 0.3721
H5 H 0.0954 0.5105 0.3499
C8 C 0.0076(3) 0.8125(3) 0.61442(16)
H6 H -0.0878 0.7967 0.5961
H7 H 0.0228 0.8942 0.6437
H8 H 0.0364 0.7626 0.6473
C9 C 0.2964(3) 0.9625(2) 0.45420(15)
H9 H 0.2922 1.0285 0.4993
H10 H 0.2528 0.9815 0.4087
H11 H 0.3901 0.9461 0.4478
C10 C 0.46833(19) 0.68072(17) 0.37447(11)
C11 C 0.5140(2) 0.60636(19) 0.41778(12)
H12 H 0.4520 0.5557 0.4299
C12 C 0.6487(2) 0.6054(2) 0.44349(13)
H13 H 0.6776 0.5530 0.4722
C13 C 0.7421(2) 0.6791(2) 0.42814(13)
H14 H 0.8341 0.6762 0.4457
C14 C 0.7013(2) 0.75638(18) 0.38746(12)
H15 H 0.7641 0.8083 0.3772
C15 C 0.56537(19) 0.75684(17) 0.36149(11)
C16 C 0.49642(18) 0.83132(16) 0.32046(11)
C17 C 0.40993(19) 0.94992(17) 0.25369(11)
C18 C 0.31029(19) 0.88353(16) 0.26910(11)
H16 H 0.2178 0.8861 0.2527
C19 C 0.6657(2) 0.9514(2) 0.28129(14)
H17 H 0.7230 0.8846 0.2740
H18 H 0.7005 1.0108 0.3282
H19 H 0.6647 0.9839 0.2375
C20 C 0.23317(19) 0.62072(17) 0.26362(11)
C21 C 0.0978(2) 0.64076(18) 0.24121(11)
C22 C 0.0269(2) 0.5694(2) 0.17458(13)
H20 H -0.0634 0.5855 0.1614
C23 C 0.0824(3) 0.4769(2) 0.12721(13)
C24 C 0.2155(3) 0.46004(19) 0.14650(13)
H21 H 0.2574 0.3986 0.1138
C25 C 0.2912(2) 0.52949(18) 0.21217(12)
C26 C 0.4361(3) 0.4999(2) 0.22446(15)
H22 H 0.4569 0.4382 0.1803
H23 H 0.4517 0.4734 0.2708
H24 H 0.4936 0.5691 0.2303
C27 C 0.0191(2) 0.7369(2) 0.28748(13)
H25 H -0.0486 0.7617 0.2530
H26 H 0.0800 0.8031 0.3150
H27 H -0.0248 0.7079 0.3243
C28 C 0.0017(3) 0.3949(2) 0.05814(16)
H28 H -0.0762 0.4341 0.0416
H29 H -0.0282 0.3257 0.0717
H30 H 0.0574 0.3717 0.0164
C29 C 0.24240(19) 1.04072(17) 0.17029(11)
C30 C 0.1922(2) 0.93739(18) 0.11488(12)
C31 C 0.0584(2) 0.9262(2) 0.08431(13)
H31 H 0.0268 0.8566 0.0466
C32 C -0.0305(2) 1.0128(2) 0.10684(13)
C33 C 0.0193(2) 1.11560(19) 0.15937(12)
H32 H -0.0395 1.1770 0.1743
C34 C 0.1528(2) 1.13173(17) 0.19096(11)
C35 C 0.1978(2) 1.24587(18) 0.24827(14)
H33 H 0.1241 1.2991 0.2521
H34 H 0.2739 1.2799 0.2316
H35 H 0.2247 1.2328 0.2984
C36 C -0.1769(2) 0.9961(3) 0.07482(16)
H36 H -0.1860 0.9460 0.0222
H37 H -0.2135 1.0718 0.0752
H38 H -0.2259 0.9599 0.1063
C37 C 0.2799(2) 0.8373(2) 0.08417(13)
H39 H 0.2576 0.8081 0.0286
H40 H 0.2648 0.7748 0.1079
H41 H 0.3740 0.8644 0.0962
C38 C 0.49366(19) 1.15191(16) 0.23014(11)
C39 C 0.5407(2) 1.18040(17) 0.16731(11)
C40 C 0.6450(2) 1.26343(18) 0.17915(14)
H42 H 0.6772 1.2796 0.1361
C41 C 0.7028(2) 1.32292(18) 0.25177(14)
C42 C 0.6541(2) 1.29799(18) 0.31346(13)
H43 H 0.6917 1.3393 0.3637
C43 C 0.5517(2) 1.21410(18) 0.30447(12)
C44 C 0.5025(3) 1.1984(2) 0.37626(12)
H44 H 0.5789 1.1897 0.4122
H45 H 0.4429 1.1288 0.3631
H46 H 0.4537 1.2666 0.4000
C45 C 0.4805(2) 1.1224(2) 0.08625(12)
H47 H 0.5251 1.1539 0.0508
H48 H 0.3849 1.1370 0.0805
H49 H 0.4923 1.0384 0.0747
C46 C 0.8120(3) 1.4153(2) 0.26346(19)
H50 H 0.8661 1.4236 0.3128
H51 H 0.7721 1.4894 0.2629
H52 H 0.8689 1.3930 0.2222
C47 C 0.5082(4) 0.5630(3) 0.0234(2)
H53 H 0.4943 0.6138 -0.0112
H54 H 0.4394 0.5796 0.0590
C48 C 0.6447(4) 0.5902(4) 0.0683(2)
H55 H 0.6592 0.5393 0.1028
H56 H 0.7137 0.5746 0.0328
C49 C 0.6584(5) 0.7131(4) 0.1140(3)
H57 H 0.7457 0.7279 0.1452
H58 H 0.5874 0.7296 0.1474
H59 H 0.6510 0.7635 0.0796
C47A C 0.4918(4) 0.4370(3) -0.0234(2)
H53A H 0.5057 0.3862 0.0112
H54A H 0.5606 0.4204 -0.0590
C48A C 0.3553(4) 0.4098(4) -0.0683(2)
H55A H 0.3408 0.4607 -0.1028
H56A H 0.2863 0.4254 -0.0328
C49A C 0.3416(5) 0.2869(4) -0.1140(3)
H57A H 0.2543 0.2721 -0.1452
H58A H 0.4126 0.2704 -0.1474
H59A H 0.3490 0.2365 -0.0796
loop_
_geom_bond_atom_site_label_1
_geom_bond_atom_site_label_2
_geom_bond_site_symmetry_1
_geom_bond_site_symmetry_2
B1 N1 1_555 1_555
B2 C17 1_555 1_555
N1 C16 1_555 1_555
N2 C16 1_555 1_555
C1 B1 1_555 1_555
C2 C1 1_555 1_555
C3 C2 1_555 1_555
H1 C3 1_555 1_555
C4 C3 1_555 1_555
C5 C4 1_555 1_555
H2 C5 1_555 1_555
C6 C1 1_555 1_555
C7 C6 1_555 1_555
H3 C7 1_555 1_555
H4 C7 1_555 1_555
H5 C7 1_555 1_555
C8 C4 1_555 1_555
H6 C8 1_555 1_555
H7 C8 1_555 1_555
H8 C8 1_555 1_555
C9 C2 1_555 1_555
H9 C9 1_555 1_555
H10 C9 1_555 1_555
H11 C9 1_555 1_555
C10 B1 1_555 1_555
C11 C10 1_555 1_555
H12 C11 1_555 1_555
C12 C11 1_555 1_555
H13 C12 1_555 1_555
C13 C12 1_555 1_555
H14 C13 1_555 1_555
C14 C13 1_555 1_555
H15 C14 1_555 1_555
C15 C10 1_555 1_555
C16 C15 1_555 1_555
C17 N2 1_555 1_555
C18 N1 1_555 1_555
H16 C18 1_555 1_555
C19 N2 1_555 1_555
H17 C19 1_555 1_555
H18 C19 1_555 1_555
H19 C19 1_555 1_555
C20 B1 1_555 1_555
C21 C20 1_555 1_555
C22 C21 1_555 1_555
H20 C22 1_555 1_555
C23 C22 1_555 1_555
C24 C23 1_555 1_555
H21 C24 1_555 1_555
C25 C20 1_555 1_555
C26 C25 1_555 1_555
H22 C26 1_555 1_555
H23 C26 1_555 1_555
H24 C26 1_555 1_555
C27 C21 1_555 1_555
H25 C27 1_555 1_555
H26 C27 1_555 1_555
H27 C27 1_555 1_555
C28 C23 1_555 1_555
H28 C28 1_555 1_555
H29 C28 1_555 1_555
H30 C28 1_555 1_555
C29 B2 1_555 1_555
C30 C29 1_555 1_555
C31 C30 1_555 1_555
H31 C31 1_555 1_555
C32 C31 1_555 1_555
C33 C32 1_555 1_555
H32 C33 1_555 1_555
C34 C29 1_555 1_555
C35 C34 1_555 1_555
H33 C35 1_555 1_555
H34 C35 1_555 1_555
H35 C35 1_555 1_555
C36 C32 1_555 1_555
H36 C36 1_555 1_555
H37 C36 1_555 1_555
H38 C36 1_555 1_555
C37 C30 1_555 1_555
H39 C37 1_555 1_555
H40 C37 1_555 1_555
H41 C37 1_555 1_555
C38 B2 1_555 1_555
C39 C38 1_555 1_555
C40 C39 1_555 1_555
H42 C40 1_555 1_555
C41 C40 1_555 1_555
C42 C41 1_555 1_555
H43 C42 1_555 1_555
C43 C38 1_555 1_555
C44 C43 1_555 1_555
H44 C44 1_555 1_555
H45 C44 1_555 1_555
H46 C44 1_555 1_555
C45 C39 1_555 1_555
H47 C45 1_555 1_555
H48 C45 1_555 1_555
H49 C45 1_555 1_555
C46 C41 1_555 1_555
H50 C46 1_555 1_555
H51 C46 1_555 1_555
H52 C46 1_555 1_555
C47 H53 1_555 1_555
H54 C47 1_555 1_555
C48 C47 1_555 1_555
H55 C48 1_555 1_555
H56 C48 1_555 1_555
C49 C48 1_555 1_555
H57 C49 1_555 1_555
H58 C49 1_555 1_555
H59 C49 1_555 1_555
C47A C47 1_555 1_555
H53A C47A 1_555 1_555
H54A C47A 1_555 1_555
C48A C47A 1_555 1_555
H55A C48A 1_555 1_555
H56A C48A 1_555 1_555
C49A C48A 1_555 1_555
H57A C49A 1_555 1_555
H58A C49A 1_555 1_555
H59A C49A 1_555 1_555
C5 C6 1_555 1_555
C14 C15 1_555 1_555
C17 C18 1_555 1_555
C24 C25 1_555 1_555
C33 C34 1_555 1_555
C42 C43 1_555 1_555

#END
