
#######################################################################
#
#                 Cambridge Crystallographic Data Centre
#                                CCDC 
#
#######################################################################
#
# If this CIF has been generated from an entry in the Cambridge 
# Structural Database, then it will include bibliographic, chemical, 
# crystal, experimental, refinement or atomic coordinate data resulting 
# from the CCDC's data processing and validation procedures.
#
#######################################################################

data_ROMHOS
_chemical_formula_moiety         'C28 H31 B1 N2'
_chemical_name_systematic        
5,5-Dimesityl-1-methyl-1,5-dihydro-4\l^5^,5\l^5^-imidazo[1,2-b][2,1]benzazaborole
_symmetry_cell_setting           monoclinic
_symmetry_space_group_name_H-M   'P 21/c'
_symmetry_Int_Tables_number      14
_space_group_name_Hall           '-P 2ybc'
loop_
_symmetry_equiv_pos_site_id
_symmetry_equiv_pos_as_xyz
1 x,y,z
2 -x,1/2+y,1/2-z
3 -x,-y,-z
4 x,1/2-y,1/2+z
_cell_length_a                   11.1429(6)
_cell_length_b                   12.9636(5)
_cell_length_c                   15.5786(8)
_cell_angle_alpha                90
_cell_angle_beta                 90.392(3)
_cell_angle_gamma                90
_cell_volume                     2250.31
_exptl_crystal_colour            colorless
_exptl_crystal_description       block
_cell_formula_units_Z            4
loop_
_atom_site_label
_atom_site_type_symbol
_atom_site_fract_x
_atom_site_fract_y
_atom_site_fract_z
B1 B 0.1995(2) 0.27350(16) 0.91412(15)
N1 N 0.15529(15) 0.35071(11) 0.98998(11)
N2 N 0.17291(16) 0.50217(12) 1.05119(12)
C1 C 0.31071(18) 0.34578(14) 0.88326(13)
C2 C 0.31522(18) 0.43948(14) 0.92966(13)
C3 C 0.4030(2) 0.51443(15) 0.91593(15)
H1 H 0.4035 0.5767 0.9481
C4 C 0.4882(2) 0.49614(17) 0.85504(16)
H2 H 0.5471 0.5471 0.8433
C5 C 0.4891(2) 0.40316(17) 0.81019(15)
H3 H 0.5495 0.3908 0.7686
C6 C 0.40279(19) 0.32836(15) 0.82561(14)
H4 H 0.4068 0.2643 0.7962
C7 C 0.21872(19) 0.43854(14) 0.99040(14)
C8 C 0.2127(2) 0.60660(16) 1.07065(16)
H5 H 0.2974 0.6054 1.0879
H6 H 0.1645 0.6347 1.1176
H7 H 0.2029 0.6500 1.0196
C9 C 0.0772(2) 0.45231(16) 1.08900(14)
H8 H 0.0280 0.4784 1.1336
C10 C 0.0671(2) 0.35956(15) 1.05057(14)
H9 H 0.0085 0.3087 1.0633
C11 C 0.07796(18) 0.26231(13) 0.85316(13)
C12 C 0.05396(18) 0.32255(13) 0.77919(13)
C13 C -0.04859(19) 0.30466(14) 0.72919(13)
H10 H -0.0618 0.3460 0.6797
C14 C -0.13173(19) 0.22906(14) 0.74893(14)
C15 C -0.11212(19) 0.17409(14) 0.82346(14)
H11 H -0.1692 0.1234 0.8397
C16 C -0.01217(18) 0.18972(13) 0.87589(13)
C17 C -0.0068(2) 0.12291(16) 0.95523(14)
H12 H -0.0876 0.1157 0.9791
H13 H 0.0462 0.1550 0.9980
H14 H 0.0244 0.0547 0.9401
C18 C 0.1337(2) 0.40934(15) 0.74892(14)
H15 H 0.0940 0.4461 0.7016
H16 H 0.2101 0.3810 0.7290
H17 H 0.1486 0.4572 0.7965
C19 C -0.2398(2) 0.20793(18) 0.69285(17)
H18 H -0.2476 0.1334 0.6836
H19 H -0.2300 0.2426 0.6374
H20 H -0.3121 0.2340 0.7210
C20 C 0.25704(17) 0.16322(13) 0.94667(13)
C21 C 0.30689(18) 0.14772(14) 1.02924(13)
C22 C 0.34638(18) 0.05026(15) 1.05555(14)
H21 H 0.3751 0.0418 1.1127
C23 C 0.34515(18) -0.03401(14) 1.00145(15)
C24 C 0.30780(18) -0.01680(14) 0.91819(15)
H22 H 0.3115 -0.0722 0.8784
C25 C 0.26470(18) 0.07852(14) 0.88982(13)
C26 C 0.2280(2) 0.08373(15) 0.79605(13)
H23 H 0.2447 0.1529 0.7737
H24 H 0.1420 0.0691 0.7905
H25 H 0.2736 0.0326 0.7634
C27 C 0.3281(2) 0.23531(16) 1.09242(14)
H26 H 0.3850 0.2129 1.1369
H27 H 0.2519 0.2545 1.1191
H28 H 0.3610 0.2950 1.0620
C28 C 0.3879(2) -0.13874(15) 1.03125(17)
H29 H 0.4578 -0.1304 1.0692
H30 H 0.4103 -0.1804 0.9814
H31 H 0.3234 -0.1733 1.0625
loop_
_geom_bond_atom_site_label_1
_geom_bond_atom_site_label_2
_geom_bond_site_symmetry_1
_geom_bond_site_symmetry_2
B1 N1 1_555 1_555
N1 C7 1_555 1_555
N2 C7 1_555 1_555
C1 B1 1_555 1_555
C2 C1 1_555 1_555
C3 C2 1_555 1_555
H1 C3 1_555 1_555
C4 C3 1_555 1_555
H2 C4 1_555 1_555
C5 C4 1_555 1_555
H3 C5 1_555 1_555
C6 C1 1_555 1_555
H4 C6 1_555 1_555
C7 C2 1_555 1_555
C8 N2 1_555 1_555
H5 C8 1_555 1_555
H6 C8 1_555 1_555
H7 C8 1_555 1_555
C9 N2 1_555 1_555
H8 C9 1_555 1_555
C10 N1 1_555 1_555
H9 C10 1_555 1_555
C11 B1 1_555 1_555
C12 C11 1_555 1_555
C13 C12 1_555 1_555
H10 C13 1_555 1_555
C14 C13 1_555 1_555
C15 C14 1_555 1_555
H11 C15 1_555 1_555
C16 C11 1_555 1_555
C17 C16 1_555 1_555
H12 C17 1_555 1_555
H13 C17 1_555 1_555
H14 C17 1_555 1_555
C18 C12 1_555 1_555
H15 C18 1_555 1_555
H16 C18 1_555 1_555
H17 C18 1_555 1_555
C19 C14 1_555 1_555
H18 C19 1_555 1_555
H19 C19 1_555 1_555
H20 C19 1_555 1_555
C20 B1 1_555 1_555
C21 C20 1_555 1_555
C22 C21 1_555 1_555
H21 C22 1_555 1_555
C23 C22 1_555 1_555
C24 C23 1_555 1_555
H22 C24 1_555 1_555
C25 C20 1_555 1_555
C26 C25 1_555 1_555
H23 C26 1_555 1_555
H24 C26 1_555 1_555
H25 C26 1_555 1_555
C27 C21 1_555 1_555
H26 C27 1_555 1_555
H27 C27 1_555 1_555
H28 C27 1_555 1_555
C28 C23 1_555 1_555
H29 C28 1_555 1_555
H30 C28 1_555 1_555
H31 C28 1_555 1_555
C5 C6 1_555 1_555
C9 C10 1_555 1_555
C15 C16 1_555 1_555
C24 C25 1_555 1_555

#END
