
#######################################################################
#
#                 Cambridge Crystallographic Data Centre
#                                CCDC 
#
#######################################################################
#
# If this CIF has been generated from an entry in the Cambridge 
# Structural Database, then it will include bibliographic, chemical, 
# crystal, experimental, refinement or atomic coordinate data resulting 
# from the CCDC's data processing and validation procedures.
#
#######################################################################

data_ROMHIL
_chemical_formula_moiety         'C17 H13 Br1 N4 O2 S1'
_chemical_name_systematic        
2-Benzoylamino-N-(5-(4-bromophenyl)-1,3,4-thiadiazol-2-yl)ethanamide
_symmetry_cell_setting           triclinic
_symmetry_space_group_name_H-M   'P -1'
_symmetry_Int_Tables_number      2
_space_group_name_Hall           '-P 1'
loop_
_symmetry_equiv_pos_site_id
_symmetry_equiv_pos_as_xyz
1 x,y,z
2 -x,-y,-z
_cell_length_a                   4.020(4)
_cell_length_b                   13.706(9)
_cell_length_c                   16.210(5)
_cell_angle_alpha                113.334(17)
_cell_angle_beta                 94.018(19)
_cell_angle_gamma                92.78(2)
_cell_volume                     815.236
_exptl_crystal_colour            colorless
_exptl_crystal_description       block
_chemical_melting_point          '271-273 deg.C'
_cell_formula_units_Z            2
_exptl_crystal_recrystallization_method methanol
loop_
_atom_site_label
_atom_site_type_symbol
_atom_site_fract_x
_atom_site_fract_y
_atom_site_fract_z
Br1 Br 0.19570(14) 0.16142(4) 0.64242(3)
S1 S 0.3284(3) 0.41677(8) 0.33059(7)
O1 O 0.2257(8) 0.6333(2) -0.00717(17)
O2 O 0.2253(9) 0.5689(2) 0.25867(18)
N1 N 0.2711(9) 0.6635(2) 0.1388(2)
H1 H 0.2352 0.7034 0.1931
N2 N 0.5949(10) 0.2787(3) 0.1998(2)
N3 N 0.5645(10) 0.2351(2) 0.2632(2)
N4 N 0.4834(9) 0.4276(2) 0.1728(2)
H2 H 0.5726 0.3992 0.1229
C1 C -0.2078(13) 0.9136(3) 0.0368(3)
H3 H -0.3108 0.9254 -0.0112
C2 C -0.0907(12) 0.8176(3) 0.0241(3)
H4 H -0.1231 0.7628 -0.0332
C3 C 0.4756(11) 0.3703(3) 0.2263(3)
C4 C 0.1797(12) 0.3039(3) 0.5556(3)
H5 H 0.0838 0.3486 0.6061
C5 C 0.2691(13) 0.2067(3) 0.5481(3)
C6 C 0.3711(10) 0.2674(3) 0.4098(2)
C7 C 0.4058(11) 0.1370(3) 0.4729(3)
H6 H 0.4596 0.0701 0.4688
C8 C 0.2354(12) 0.3345(3) 0.4857(3)
H7 H 0.1807 0.4014 0.4900
C9 C 0.4114(12) 0.5638(3) 0.1200(3)
H8 H 0.6486 0.5723 0.1144
H9 H 0.3068 0.5116 0.0627
C10 C 0.3647(11) 0.5237(3) 0.1913(2)
C11 C 0.4297(11) 0.2963(3) 0.3341(2)
C12 C 0.4598(12) 0.1698(3) 0.4041(3)
H10 H 0.5571 0.1253 0.3537
C13 C 0.1970(11) 0.6938(3) 0.0722(3)
C14 C 0.0730(11) 0.7991(3) 0.0926(2)
C15 C -0.0154(12) 0.9776(3) 0.1919(3)
H11 H 0.0074 1.0320 0.2494
C16 C -0.1698(12) 0.9930(3) 0.1230(3)
H12 H -0.2533 1.0585 0.1332
C17 C 0.1113(12) 0.8805(3) 0.1780(3)
H13 H 0.2216 0.8701 0.2259
loop_
_geom_bond_atom_site_label_1
_geom_bond_atom_site_label_2
_geom_bond_site_symmetry_1
_geom_bond_site_symmetry_2
Br1 C5 1_555 1_555
S1 C3 1_555 1_555
O1 C13 1_555 1_555
O2 C10 1_555 1_555
N1 H1 1_555 1_555
N2 N3 1_555 1_555
N3 C11 1_555 1_555
N4 H2 1_555 1_555
C1 H3 1_555 1_555
C2 C1 1_555 1_555
H4 C2 1_555 1_555
C3 N2 1_555 1_555
C4 H5 1_555 1_555
C5 C4 1_555 1_555
C6 C8 1_555 1_555
C7 C5 1_555 1_555
H6 C7 1_555 1_555
C8 C4 1_555 1_555
H7 C8 1_555 1_555
C9 N1 1_555 1_555
H8 C9 1_555 1_555
H9 C9 1_555 1_555
C10 N4 1_555 1_555
C11 S1 1_555 1_555
C12 C6 1_555 1_555
H10 C12 1_555 1_555
C13 N1 1_555 1_555
C14 C2 1_555 1_555
C15 H11 1_555 1_555
C16 C1 1_555 1_555
H12 C16 1_555 1_555
C17 C14 1_555 1_555
H13 C17 1_555 1_555
N4 C3 1_555 1_555
C6 C11 1_555 1_555
C7 C12 1_555 1_555
C9 C10 1_555 1_555
C13 C14 1_555 1_555
C15 C16 1_555 1_555
C15 C17 1_555 1_555

#END
