
#######################################################################
#
#                 Cambridge Crystallographic Data Centre
#                                CCDC 
#
#######################################################################
#
# If this CIF has been generated from an entry in the Cambridge 
# Structural Database, then it will include bibliographic, chemical, 
# crystal, experimental, refinement or atomic coordinate data resulting 
# from the CCDC's data processing and validation procedures.
#
#######################################################################

data_ROMJUA
_chemical_formula_moiety         'C19 H17 Br1 O2'
_chemical_name_systematic        
(2R,3R)-1-(4-Bromophenyl)-3-(4-methoxyphenyl)-2-methylpent-4-yn-1-one
_symmetry_cell_setting           orthorhombic
_symmetry_space_group_name_H-M   'P 21 21 21'
_symmetry_Int_Tables_number      19
_space_group_name_Hall           'P 2ac 2ab'
loop_
_symmetry_equiv_pos_site_id
_symmetry_equiv_pos_as_xyz
1 x,y,z
2 1/2-x,-y,1/2+z
3 -x,1/2+y,1/2-z
4 1/2+x,1/2-y,-z
_cell_length_a                   5.5798(14)
_cell_length_b                   15.675(4)
_cell_length_c                   19.082(5)
_cell_angle_alpha                90
_cell_angle_beta                 90
_cell_angle_gamma                90
_cell_volume                     1668.98
_exptl_crystal_colour            colorless
_exptl_crystal_description       rod
_cell_formula_units_Z            4
_exptl_crystal_recrystallization_method isopropanol
loop_
_atom_site_label
_atom_site_type_symbol
_atom_site_fract_x
_atom_site_fract_y
_atom_site_fract_z
Br1 Br 0.80701(11) 0.06104(3) 0.46500(3)
O1 O 0.3113(6) 0.4233(2) 0.3278(2)
O2 O 0.5520(7) 0.6578(2) 0.58722(17)
C1 C 0.6544(8) 0.5547(3) 0.3035(2)
H1 H 0.5035 0.5654 0.2787
C2 C 0.7130(9) 0.4583(3) 0.2966(2)
H2 H 0.8679 0.4469 0.3190
C3 C 0.5212(8) 0.4044(3) 0.3316(2)
C4 C 0.5959(8) 0.3220(3) 0.3650(2)
C5 C 0.4432(9) 0.2518(3) 0.3594(3)
H3 H 0.2993 0.2572 0.3352
C6 C 0.5026(9) 0.1745(3) 0.3892(3)
H4 H 0.4003 0.1279 0.3852
C7 C 0.7176(8) 0.1674(3) 0.4253(2)
C8 C 0.8704(8) 0.2358(3) 0.4329(3)
H5 H 1.0115 0.2306 0.4585
C9 C 0.8095(9) 0.3128(3) 0.4017(2)
H6 H 0.9134 0.3590 0.4053
C10 C 0.7244(13) 0.4307(4) 0.2196(3)
H7 H 0.5737 0.4425 0.1973
H8 H 0.7574 0.3707 0.2170
H9 H 0.8493 0.4618 0.1962
C11 C 0.8444(9) 0.6052(3) 0.2686(2)
C12 C 0.9996(10) 0.6453(3) 0.2423(3)
H10 H 1.1217 0.6769 0.2216
C13 C 0.6223(8) 0.5827(3) 0.3790(2)
C14 C 0.7965(8) 0.5648(3) 0.4296(2)
H11 H 0.9343 0.5353 0.4169
C15 C 0.7667(8) 0.5904(3) 0.4983(2)
H12 H 0.8835 0.5776 0.5314
C16 C 0.5630(8) 0.6353(3) 0.5181(2)
C17 C 0.3894(8) 0.6539(3) 0.4689(3)
H13 H 0.2522 0.6837 0.4818
C18 C 0.4218(9) 0.6275(3) 0.3996(2)
H14 H 0.3050 0.6405 0.3665
C19 C 0.3393(11) 0.6963(3) 0.6114(3)
H15 H 0.3189 0.7506 0.5890
H16 H 0.3488 0.7042 0.6612
H17 H 0.2052 0.6603 0.6005
loop_
_geom_bond_atom_site_label_1
_geom_bond_atom_site_label_2
_geom_bond_site_symmetry_1
_geom_bond_site_symmetry_2
Br1 C7 1_555 1_555
O1 C3 1_555 1_555
O2 C16 1_555 1_555
C1 H1 1_555 1_555
C2 C1 1_555 1_555
H2 C2 1_555 1_555
C3 C2 1_555 1_555
C4 C3 1_555 1_555
C5 C4 1_555 1_555
H3 C5 1_555 1_555
C6 C5 1_555 1_555
H4 C6 1_555 1_555
C7 C6 1_555 1_555
C8 C7 1_555 1_555
H5 C8 1_555 1_555
C9 C4 1_555 1_555
H6 C9 1_555 1_555
C10 C2 1_555 1_555
H7 C10 1_555 1_555
H8 C10 1_555 1_555
H9 C10 1_555 1_555
C11 C1 1_555 1_555
C12 C11 1_555 1_555
H10 C12 1_555 1_555
C13 C1 1_555 1_555
C14 C13 1_555 1_555
H11 C14 1_555 1_555
C15 C14 1_555 1_555
H12 C15 1_555 1_555
C16 C15 1_555 1_555
C17 C16 1_555 1_555
H13 C17 1_555 1_555
C18 C13 1_555 1_555
H14 C18 1_555 1_555
C19 O2 1_555 1_555
H15 C19 1_555 1_555
H16 C19 1_555 1_555
H17 C19 1_555 1_555
C8 C9 1_555 1_555
C17 C18 1_555 1_555

#END
