
#######################################################################
#
#                 Cambridge Crystallographic Data Centre
#                                CCDC 
#
#######################################################################
#
# If this CIF has been generated from an entry in the Cambridge 
# Structural Database, then it will include bibliographic, chemical, 
# crystal, experimental, refinement or atomic coordinate data resulting 
# from the CCDC's data processing and validation procedures.
#
#######################################################################

data_ROMLOV
_chemical_formula_moiety         'C9 H12 N1 O2 1+,Cl2 O2 P1 1-'
_chemical_name_systematic        
'(2,4-Dihydroxybenzylidene)dimethylammonium dichlorophosphinate'
_symmetry_cell_setting           triclinic
_symmetry_space_group_name_H-M   'P -1'
_symmetry_Int_Tables_number      2
_space_group_name_Hall           '-P 1'
loop_
_symmetry_equiv_pos_site_id
_symmetry_equiv_pos_as_xyz
1 x,y,z
2 -x,-y,-z
_cell_length_a                   7.922(4)
_cell_length_b                   8.163(4)
_cell_length_c                   11.035(9)
_cell_angle_alpha                100.021(19)
_cell_angle_beta                 107.035(2)
_cell_angle_gamma                103.02(3)
_cell_volume                     642.311
_exptl_crystal_colour            colorless
_exptl_crystal_description       Prism
_cell_formula_units_Z            2
loop_
_atom_site_label
_atom_site_type_symbol
_atom_site_fract_x
_atom_site_fract_y
_atom_site_fract_z
P1 P 0.07808(7) 0.57775(7) 0.79425(5)
Cl1 Cl -0.01734(10) 0.66505(10) 0.63397(6)
Cl2 Cl 0.00162(13) 0.72157(11) 0.92482(8)
O3 O -0.0294(3) 0.3961(2) 0.76791(18)
O4 O 0.2793(2) 0.6276(3) 0.83673(19)
O1 O 0.1067(2) 0.88448(19) 0.41735(15)
H1 H 0.0823 0.7961 0.3592
O2 O 0.4455(2) 1.1302(2) 0.17313(15)
H2 H 0.5384 1.2072 0.1825
C1 C 0.3561(2) 1.1426(2) 0.52665(18)
N1 N 0.3863(2) 1.2128(2) 0.76201(16)
C2 C 0.2445(3) 1.0094(2) 0.40992(19)
C3 C 0.2758(3) 1.0099(3) 0.29337(19)
H3 H 0.2007 0.9231 0.2179
C4 C 0.3111(3) 1.1237(3) 0.6409(2)
H4 H 0.2087 1.0299 0.6251
C5 C 0.5312(3) 1.2722(3) 0.4014(2)
H5 H 0.6267 1.3596 0.3980
C6 C 0.4190(3) 1.1396(3) 0.28853(19)
C7 C 0.4993(3) 1.2723(3) 0.5167(2)
H6 H 0.5746 1.3609 0.5911
C8 C 0.5515(4) 1.3646(4) 0.8156(2)
H7 H 0.5790 1.4070 0.9081
H8 H 0.5293 1.4545 0.7729
H9 H 0.6541 1.3315 0.8009
C9 C 0.3073(4) 1.1623(4) 0.8600(2)
H10 H 0.2007 1.0624 0.8178
H11 H 0.2720 1.2571 0.8998
H12 H 0.3977 1.1345 0.9261
loop_
_geom_bond_atom_site_label_1
_geom_bond_atom_site_label_2
_geom_bond_site_symmetry_1
_geom_bond_site_symmetry_2
P1 Cl1 1_555 1_555
O1 H1 1_555 1_555
O2 H2 1_555 1_555
C1 C2 1_555 1_555
N1 C4 1_555 1_555
C2 O1 1_555 1_555
C3 C2 1_555 1_555
H3 C3 1_555 1_555
C4 C1 1_555 1_555
H4 C4 1_555 1_555
C5 H5 1_555 1_555
C6 O2 1_555 1_555
C7 C1 1_555 1_555
H6 C7 1_555 1_555
C8 N1 1_555 1_555
H7 C8 1_555 1_555
H8 C8 1_555 1_555
H9 C8 1_555 1_555
C9 N1 1_555 1_555
H10 C9 1_555 1_555
H11 C9 1_555 1_555
H12 C9 1_555 1_555
Cl2 P1 1_555 1_555
O3 P1 1_555 1_555
O4 P1 1_555 1_555
C3 C6 1_555 1_555
C5 C6 1_555 1_555
C5 C7 1_555 1_555

#END
