
#######################################################################
#
#                 Cambridge Crystallographic Data Centre
#                                CCDC 
#
#######################################################################
#
# If this CIF has been generated from an entry in the Cambridge 
# Structural Database, then it will include bibliographic, chemical, 
# crystal, experimental, refinement or atomic coordinate data resulting 
# from the CCDC's data processing and validation procedures.
#
#######################################################################

data_ROMMEM
_chemical_formula_moiety         'C7 H8 N4 S1'
_chemical_name_systematic        'Pyridine-2-carbaldehyde thiosemicarbazone'
_symmetry_cell_setting           orthorhombic
_symmetry_space_group_name_H-M   'P n a 21'
_symmetry_Int_Tables_number      33
_space_group_name_Hall           'P 2c -2n'
loop_
_symmetry_equiv_pos_site_id
_symmetry_equiv_pos_as_xyz
1 x,y,z
2 -x,-y,1/2+z
3 1/2+x,1/2-y,z
4 1/2-x,1/2+y,1/2+z
_cell_length_a                   20.725(2)
_cell_length_b                   4.7857(6)
_cell_length_c                   17.393(2)
_cell_angle_alpha                90
_cell_angle_beta                 90
_cell_angle_gamma                90
_cell_volume                     1725.1
_exptl_crystal_colour            orange
_exptl_crystal_description       block
_cell_formula_units_Z            8
_exptl_crystal_recrystallization_method ethanol
loop_
_atom_site_label
_atom_site_type_symbol
_atom_site_fract_x
_atom_site_fract_y
_atom_site_fract_z
N1 N 0.6201(3) -0.1518(12) 0.5432(3)
N6 N 0.7451(3) 0.5151(13) 0.4275(3)
H4 H 0.7213 0.4881 0.3877
N7 N 0.7334(3) 0.3664(12) 0.4937(3)
N8 N 0.8267(3) 0.7425(15) 0.4879(4)
H5 H 0.8170 0.6506 0.5288
H6 H 0.8580 0.8603 0.4885
S2 S 0.80649(9) 0.8767(4) 0.34251(11)
C8 C 0.7935(3) 0.7027(15) 0.4244(4)
C9 C 0.6886(3) 0.1868(15) 0.4895(4)
H12 H 0.6667 0.1636 0.4432
C10 C 0.6706(3) 0.0160(14) 0.5554(4)
C11 C 0.7028(4) 0.0259(17) 0.6248(4)
H13 H 0.7375 0.1461 0.6317
C12 C 0.6825(4) -0.1454(17) 0.6836(5)
H14 H 0.7030 -0.1408 0.7311
C13 C 0.6313(3) -0.3245(16) 0.6709(4)
H15 H 0.6166 -0.4438 0.7093
C14 C 0.6029(3) -0.3205(17) 0.6003(5)
H16 H 0.5691 -0.4445 0.5914
N2 N 0.5188(3) 0.9637(13) 0.4216(3)
H1 H 0.5464 0.9533 0.4584
N3 N 0.5264(3) 0.8019(12) 0.3566(3)
N4 N 0.4295(3) 1.1564(14) 0.3672(3)
H2 H 0.4376 1.0591 0.3267
H3 H 0.3965 1.2651 0.3682
N5 N 0.6451(3) 0.3132(13) 0.2989(3)
S1 S 0.45768(9) 1.3182(4) 0.50951(10)
C1 C 0.4677(3) 1.1390(15) 0.4274(4)
C2 C 0.5761(3) 0.6438(14) 0.3561(4)
H7 H 0.6046 0.6495 0.3975
C3 C 0.5892(3) 0.4557(14) 0.2926(4)
C4 C 0.5478(3) 0.4143(16) 0.2310(4)
H8 H 0.5097 0.5157 0.2272
C5 C 0.5637(4) 0.2228(17) 0.1758(5)
H9 H 0.5367 0.1944 0.1338
C6 C 0.6199(4) 0.0727(17) 0.1829(5)
H10 H 0.6310 -0.0623 0.1468
C7 C 0.6591(4) 0.1270(17) 0.2447(4)
H11 H 0.6976 0.0283 0.2488
loop_
_geom_bond_atom_site_label_1
_geom_bond_atom_site_label_2
_geom_bond_site_symmetry_1
_geom_bond_site_symmetry_2
N1 C10 1_555 1_555
N2 H1 1_555 1_555
N3 N2 1_555 1_555
N4 H2 1_555 1_555
H3 N4 1_555 1_555
N5 C3 1_555 1_555
N6 H4 1_555 1_555
N7 N6 1_555 1_555
N8 H5 1_555 1_555
H6 N8 1_555 1_555
S1 C1 1_555 1_555
S2 C8 1_555 1_555
C1 N2 1_555 1_555
C2 N3 1_555 1_555
H7 C2 1_555 1_555
C3 C2 1_555 1_555
C4 C3 1_555 1_555
H8 C4 1_555 1_555
C5 C4 1_555 1_555
H9 C5 1_555 1_555
C6 C5 1_555 1_555
H10 C6 1_555 1_555
C7 N5 1_555 1_555
H11 C7 1_555 1_555
C8 N6 1_555 1_555
C9 N7 1_555 1_555
H12 C9 1_555 1_555
C10 C9 1_555 1_555
C11 C10 1_555 1_555
H13 C11 1_555 1_555
C12 C11 1_555 1_555
H14 C12 1_555 1_555
C13 C12 1_555 1_555
H15 C13 1_555 1_555
C14 N1 1_555 1_555
H16 C14 1_555 1_555
N4 C1 1_555 1_555
N8 C8 1_555 1_555
C6 C7 1_555 1_555
C13 C14 1_555 1_555

#END
