
#######################################################################
#
#                 Cambridge Crystallographic Data Centre
#                                CCDC 
#
#######################################################################
#
# If this CIF has been generated from an entry in the Cambridge 
# Structural Database, then it will include bibliographic, chemical, 
# crystal, experimental, refinement or atomic coordinate data resulting 
# from the CCDC's data processing and validation procedures.
#
#######################################################################

data_ROMPAL
_chemical_formula_moiety         'C15 H16 O2'
_chemical_name_systematic        2-(2-(Hydroxymethyl)phenyl)-1-phenylethanol
_symmetry_cell_setting           orthorhombic
_symmetry_space_group_name_H-M   'P b c a'
_symmetry_Int_Tables_number      61
_space_group_name_Hall           '-P 2ac 2ab'
loop_
_symmetry_equiv_pos_site_id
_symmetry_equiv_pos_as_xyz
1 x,y,z
2 1/2-x,-y,1/2+z
3 1/2+x,1/2-y,-z
4 -x,1/2+y,1/2-z
5 -x,-y,-z
6 1/2+x,y,1/2-z
7 1/2-x,1/2+y,z
8 x,1/2-y,1/2+z
_cell_length_a                   8.550(1)
_cell_length_b                   15.8676(18)
_cell_length_c                   18.593(2)
_cell_angle_alpha                90
_cell_angle_beta                 90
_cell_angle_gamma                90
_cell_volume                     2522.47
_exptl_crystal_colour            colorless
_exptl_crystal_description       Block
_cell_formula_units_Z            8
_exptl_crystal_recrystallization_method ethanol
loop_
_atom_site_label
_atom_site_type_symbol
_atom_site_fract_x
_atom_site_fract_y
_atom_site_fract_z
O1 O -0.08023(15) 0.19969(8) 0.31581(6)
C1 C 0.0685(2) 0.11513(10) 0.40226(10)
C2 C 0.03113(17) 0.03032(10) 0.37050(8)
C3 C -0.05662(19) 0.18243(10) 0.39035(9)
C4 C 0.10119(19) 0.00024(11) 0.30772(8)
C5 C -0.01577(17) 0.26096(10) 0.43191(9)
O2 O 0.15538(17) 0.12736(10) 0.24081(8)
C6 C -0.0763(2) -0.02101(11) 0.40534(9)
C7 C 0.0686(2) 0.32636(11) 0.40207(12)
C8 C -0.0560(2) 0.26587(13) 0.50386(11)
C9 C -0.1144(2) -0.09990(12) 0.38015(11)
C10 C 0.0619(2) -0.07976(13) 0.28324(11)
C11 C -0.0437(3) -0.12940(13) 0.31873(12)
C12 C 0.0712(3) 0.39837(14) 0.51474(16)
C13 C 0.1106(3) 0.39491(13) 0.44389(16)
C14 C -0.0117(2) 0.33381(15) 0.54520(14)
C15 C 0.2216(2) 0.05066(14) 0.26765(12)
H1 H -0.1592(18) 0.1606(9) 0.4084(7)
H2 H 0.1713(19) 0.1375(9) 0.3842(8)
H3 H 0.314(2) 0.0640(11) 0.3010(9)
H4 H 0.0803(17) 0.1090(9) 0.4542(9)
H5 H -0.1226(17) 0.0018(10) 0.4494(8)
H6 H 0.111(2) -0.0980(11) 0.2409(10)
H7 H -0.187(2) -0.1344(11) 0.4052(9)
H8 H -0.111(2) 0.2208(11) 0.5256(9)
H9 H 0.261(2) 0.0187(12) 0.2284(10)
H10 H 0.101(2) 0.3201(12) 0.3512(10)
H11 H -0.067(2) -0.1845(13) 0.3011(10)
H12 H -0.037(2) 0.3338(12) 0.5953(11)
H13 H 0.232(3) 0.1551(14) 0.2219(11)
H14 H 0.100(2) 0.4463(13) 0.5457(11)
H15 H 0.171(3) 0.4391(14) 0.4206(11)
H16 H 0.004(3) 0.1787(13) 0.2901(11)
loop_
_geom_bond_atom_site_label_1
_geom_bond_atom_site_label_2
_geom_bond_site_symmetry_1
_geom_bond_site_symmetry_2
O1 C3 1_555 1_555
C1 C2 1_555 1_555
C2 C4 1_555 1_555
C3 C1 1_555 1_555
C4 C10 1_555 1_555
C5 C3 1_555 1_555
O2 C15 1_555 1_555
C6 C2 1_555 1_555
C7 C5 1_555 1_555
C8 C5 1_555 1_555
C9 C6 1_555 1_555
C10 C11 1_555 1_555
C11 C9 1_555 1_555
C12 C13 1_555 1_555
C13 C7 1_555 1_555
C14 C8 1_555 1_555
C15 C4 1_555 1_555
H1 C3 1_555 1_555
H2 C1 1_555 1_555
H3 C15 1_555 1_555
H4 C1 1_555 1_555
H5 C6 1_555 1_555
H6 C10 1_555 1_555
H7 C9 1_555 1_555
H8 C8 1_555 1_555
H9 C15 1_555 1_555
H10 C7 1_555 1_555
H11 C11 1_555 1_555
H12 C14 1_555 1_555
H13 O2 1_555 1_555
H14 C12 1_555 1_555
H15 C13 1_555 1_555
H16 O1 1_555 1_555
C12 C14 1_555 1_555

#END
