
#######################################################################
#
#                 Cambridge Crystallographic Data Centre
#                                CCDC 
#
#######################################################################
#
# If this CIF has been generated from an entry in the Cambridge 
# Structural Database, then it will include bibliographic, chemical, 
# crystal, experimental, refinement or atomic coordinate data resulting 
# from the CCDC's data processing and validation procedures.
#
#######################################################################

data_ROMTUK
_chemical_formula_moiety         'C22 H25 F1 N2 O3'
_chemical_name_systematic        
't-butyl (3-(5-fluoro-2,3-dimethyl-3H-indol-3-yl)-4-methoxyphenyl)carbamate'
_symmetry_cell_setting           monoclinic
_symmetry_space_group_name_H-M   'P 21'
_symmetry_Int_Tables_number      4
_space_group_name_Hall           'P 2yb'
loop_
_symmetry_equiv_pos_site_id
_symmetry_equiv_pos_as_xyz
1 x,y,z
2 -x,1/2+y,-z
_cell_length_a                   6.56930(10)
_cell_length_b                   18.8914(4)
_cell_length_c                   8.6920(2)
_cell_angle_alpha                90
_cell_angle_beta                 104.3160(10)
_cell_angle_gamma                90
_cell_volume                     1045.21
_exptl_crystal_colour            colorless
_exptl_crystal_description       prismatic
_cell_formula_units_Z            2
loop_
_atom_site_label
_atom_site_type_symbol
_atom_site_fract_x
_atom_site_fract_y
_atom_site_fract_z
F1 F 0.4155(6) 0.29739(14) 1.0913(3)
N1 N 0.9024(3) 0.06255(11) 1.0920(2)
N2 N 0.0148(3) -0.00954(12) 0.4369(3)
O1 O 0.7686(3) 0.11806(12) 0.7397(2)
O2 O 0.0068(3) -0.10089(11) 0.6057(2)
O3 O -0.2506(3) -0.08453(9) 0.3801(2)
C1 C 0.7956(4) 0.12658(13) 1.1036(3)
C2 C 0.8747(6) 0.18588(16) 1.1916(4)
H1 H 1.0124 0.1870 1.2530
C3 C 0.7437(8) 0.24331(17) 1.1857(4)
H2 H 0.7925 0.2842 1.2425
C4 C 0.5429(7) 0.23976(18) 1.0962(4)
C5 C 0.4592(6) 0.18158(17) 1.0086(3)
H3 H 0.3200 0.1806 0.9502
C6 C 0.5905(4) 0.12497(13) 1.0115(2)
C7 C 0.5528(3) 0.05291(12) 0.9348(2)
C8 C 0.7754(3) 0.02260(12) 0.9937(2)
C9 C 0.8327(4) -0.04890(14) 0.9501(3)
H4 H 0.9687 -0.0614 1.0148
H5 H 0.8361 -0.0493 0.8403
H6 H 0.7305 -0.0825 0.9667
C10 C 0.4124(4) 0.00950(16) 1.0181(3)
H7 H 0.4765 0.0074 1.1299
H8 H 0.3962 -0.0376 0.9753
H9 H 0.2771 0.0316 1.0008
C11 C 0.4695(3) 0.05367(11) 0.7547(2)
C12 C 0.5826(3) 0.08868(12) 0.6602(3)
C13 C 0.5056(4) 0.09157(14) 0.4973(3)
H10 H 0.5803 0.1158 0.4358
C14 C 0.3185(3) 0.05876(13) 0.4253(2)
H11 H 0.2678 0.0610 0.3156
C15 C 0.2067(3) 0.02272(12) 0.5151(2)
C16 C 0.2819(3) 0.02120(12) 0.6799(2)
H12 H 0.2046 -0.0021 0.7408
C17 C 0.8778(5) 0.16080(18) 0.6567(4)
H13 H 0.9277 0.1325 0.5819
H14 H 0.9950 0.1823 0.7300
H15 H 0.7859 0.1970 0.6012
C18 C -0.0697(3) -0.06858(12) 0.4859(3)
C19 C -0.3675(4) -0.14886(13) 0.4014(3)
C20 C -0.5628(5) -0.14404(19) 0.2646(4)
H16 H -0.6378 -0.1013 0.2744
H17 H -0.6515 -0.1842 0.2674
H18 H -0.5224 -0.1436 0.1658
C21 C -0.2391(6) -0.21233(17) 0.3821(5)
H19 H -0.2012 -0.2094 0.2824
H20 H -0.3197 -0.2545 0.3843
H21 H -0.1140 -0.2137 0.4671
C22 C -0.4294(6) -0.1473(2) 0.5566(4)
H22 H -0.3066 -0.1532 0.6424
H23 H -0.5266 -0.1850 0.5589
H24 H -0.4946 -0.1028 0.5677
H25 H -0.040(4) 0.0041(15) 0.342(4)
loop_
_geom_bond_atom_site_label_1
_geom_bond_atom_site_label_2
_geom_bond_site_symmetry_1
_geom_bond_site_symmetry_2
F1 C4 1_555 1_555
N1 C1 1_555 1_555
N2 C15 1_555 1_555
O1 C12 1_555 1_555
O2 C18 1_555 1_555
O3 C18 1_555 1_555
C1 C2 1_555 1_555
C2 H1 1_555 1_555
C3 C2 1_555 1_555
H2 C3 1_555 1_555
C4 C3 1_555 1_555
C5 C4 1_555 1_555
H3 C5 1_555 1_555
C6 C1 1_555 1_555
C7 C6 1_555 1_555
C8 N1 1_555 1_555
C9 C8 1_555 1_555
H4 C9 1_555 1_555
H5 C9 1_555 1_555
H6 C9 1_555 1_555
C10 C7 1_555 1_555
H7 C10 1_555 1_555
H8 C10 1_555 1_555
H9 C10 1_555 1_555
C11 C7 1_555 1_555
C12 C11 1_555 1_555
C13 C12 1_555 1_555
H10 C13 1_555 1_555
C14 C13 1_555 1_555
H11 C14 1_555 1_555
C15 C14 1_555 1_555
C16 C11 1_555 1_555
H12 C16 1_555 1_555
C17 O1 1_555 1_555
H13 C17 1_555 1_555
H14 C17 1_555 1_555
H15 C17 1_555 1_555
C18 N2 1_555 1_555
C19 O3 1_555 1_555
C20 C19 1_555 1_555
H16 C20 1_555 1_555
H17 C20 1_555 1_555
H18 C20 1_555 1_555
C21 C19 1_555 1_555
H19 C21 1_555 1_555
H20 C21 1_555 1_555
H21 C21 1_555 1_555
C22 C19 1_555 1_555
H22 C22 1_555 1_555
H23 C22 1_555 1_555
H24 C22 1_555 1_555
H25 N2 1_555 1_555
C5 C6 1_555 1_555
C7 C8 1_555 1_555
C15 C16 1_555 1_555

#END
