
#######################################################################
#
#                 Cambridge Crystallographic Data Centre
#                                CCDC 
#
#######################################################################
#
# If this CIF has been generated from an entry in the Cambridge 
# Structural Database, then it will include bibliographic, chemical, 
# crystal, experimental, refinement or atomic coordinate data resulting 
# from the CCDC's data processing and validation procedures.
#
#######################################################################

data_ROMVEV
_chemical_formula_moiety         'C13 H15 Cl1 O1'
_chemical_name_systematic        
1-(4-Chlorophenyl)-4,4-dimethylpent-1-en-3-one
_symmetry_cell_setting           triclinic
_symmetry_space_group_name_H-M   'P -1'
_symmetry_Int_Tables_number      2
_space_group_name_Hall           '-P 1'
loop_
_symmetry_equiv_pos_site_id
_symmetry_equiv_pos_as_xyz
1 x,y,z
2 -x,-y,-z
_cell_length_a                   5.6831(4)
_cell_length_b                   9.9156(6)
_cell_length_c                   11.3731(7)
_cell_angle_alpha                103.4870(10)
_cell_angle_beta                 101.1600(10)
_cell_angle_gamma                103.6970(10)
_cell_volume                     584.124
_exptl_crystal_colour            colorless
_exptl_crystal_description       block
_chemical_melting_point          '360 K'
_cell_formula_units_Z            2
_exptl_crystal_recrystallization_method ethanol
loop_
_atom_site_label
_atom_site_type_symbol
_atom_site_fract_x
_atom_site_fract_y
_atom_site_fract_z
Cl1 Cl 1.79614(7) 1.22580(4) 1.45960(3)
C1 C 0.8701(3) 0.81783(15) 1.07764(13)
H1 H 0.7164 0.8160 1.0994
C2 C 0.8553(3) 0.73017(15) 0.96684(13)
H2 H 1.0047 0.7274 0.9420
C3 C 0.6090(3) 0.63638(15) 0.88112(13)
C4 C 0.6118(3) 0.51705(15) 0.76919(13)
C5 C 0.3442(3) 0.43184(18) 0.69238(15)
H3 H 0.2516 0.3883 0.7452
H4 H 0.3480 0.3550 0.6213
H5 H 0.2609 0.4974 0.6612
C6 C 0.7443(3) 0.41555(16) 0.81908(14)
H6 H 0.6574 0.3762 0.8757
H7 H 0.9188 0.4701 0.8647
H8 H 0.7412 0.3357 0.7487
C7 C 0.7574(3) 0.58705(17) 0.68748(14)
H9 H 0.7492 0.5121 0.6122
H10 H 0.9330 0.6345 0.7350
H11 H 0.6827 0.6593 0.6631
C8 C 1.0991(3) 0.91697(14) 1.16967(13)
C9 C 1.3206(3) 0.96763(15) 1.13599(13)
H12 H 1.3244 0.9365 1.0510
C10 C 1.5339(3) 1.06235(16) 1.22452(14)
H13 H 1.6825 1.0972 1.2005
C11 C 1.5282(3) 1.10569(14) 1.34851(13)
C12 C 1.3137(3) 1.05773(16) 1.38509(14)
H14 H 1.3126 1.0879 1.4706
C13 C 1.0999(3) 0.96487(15) 1.29538(14)
H15 H 0.9506 0.9331 1.3199
O1 O 0.41421(19) 0.65539(12) 0.90060(10)
loop_
_geom_bond_atom_site_label_1
_geom_bond_atom_site_label_2
_geom_bond_site_symmetry_1
_geom_bond_site_symmetry_2
Cl1 C11 1_555 1_555
C1 H1 1_555 1_555
C2 C1 1_555 1_555
H2 C2 1_555 1_555
C3 C2 1_555 1_555
C4 C3 1_555 1_555
C5 C4 1_555 1_555
H3 C5 1_555 1_555
H4 C5 1_555 1_555
H5 C5 1_555 1_555
C6 C4 1_555 1_555
H6 C6 1_555 1_555
H7 C6 1_555 1_555
H8 C6 1_555 1_555
C7 C4 1_555 1_555
H9 C7 1_555 1_555
H10 C7 1_555 1_555
H11 C7 1_555 1_555
C8 C1 1_555 1_555
C9 C8 1_555 1_555
H12 C9 1_555 1_555
C10 C9 1_555 1_555
H13 C10 1_555 1_555
C11 C10 1_555 1_555
C12 C11 1_555 1_555
H14 C12 1_555 1_555
C13 C8 1_555 1_555
H15 C13 1_555 1_555
O1 C3 1_555 1_555
C12 C13 1_555 1_555

#END
