
#######################################################################
#
#                 Cambridge Crystallographic Data Centre
#                                CCDC 
#
#######################################################################
#
# If this CIF has been generated from an entry in the Cambridge 
# Structural Database, then it will include bibliographic, chemical, 
# crystal, experimental, refinement or atomic coordinate data resulting 
# from the CCDC's data processing and validation procedures.
#
#######################################################################

data_ROMVUL
_chemical_formula_moiety         'C21 H14 N2 O5'
_chemical_name_systematic        
(1-(3-Nitrophenyl)-2,3-dihydro-1H-naphtho(1,2-e)(1,3)oxazin-3-ylidine)malonaldehyde
_symmetry_cell_setting           monoclinic
_symmetry_space_group_name_H-M   'P 21/n'
_symmetry_Int_Tables_number      14
_space_group_name_Hall           '-P 2yn'
loop_
_symmetry_equiv_pos_site_id
_symmetry_equiv_pos_as_xyz
1 x,y,z
2 1/2-x,1/2+y,1/2-z
3 -x,-y,-z
4 1/2+x,1/2-y,1/2+z
_cell_length_a                   7.9191(4)
_cell_length_b                   23.3876(11)
_cell_length_c                   9.6199(5)
_cell_angle_alpha                90
_cell_angle_beta                 104.632(2)
_cell_angle_gamma                90
_cell_volume                     1723.91
_exptl_crystal_colour            colorless
_exptl_crystal_description       block
_cell_formula_units_Z            4
_exptl_crystal_recrystallization_method ethanol
loop_
_atom_site_label
_atom_site_type_symbol
_atom_site_fract_x
_atom_site_fract_y
_atom_site_fract_z
O1 O 0.30114(13) 0.16841(5) 0.13932(12)
O2 O 0.8553(2) -0.07387(6) 0.43720(18)
O3 O 0.8486(3) -0.07086(8) 0.6565(2)
O4 O 0.30819(17) 0.00916(5) -0.05620(14)
O5 O -0.14205(16) 0.09772(6) -0.06754(16)
N1 N 0.47317(16) 0.09268(5) 0.11444(13)
H1 H 0.4847 0.0619 0.0690
N2 N 0.8208(2) -0.04987(7) 0.53794(19)
C1 C 0.3180(2) 0.11583(6) 0.08808(16)
C2 C 0.62913(19) 0.11553(6) 0.21612(16)
H2 H 0.7310 0.1063 0.1799
C3 C 0.61165(19) 0.17956(6) 0.21877(16)
C4 C 0.45014(19) 0.20287(6) 0.18043(17)
C5 C 0.4178(2) 0.26167(7) 0.17688(17)
H3 H 0.3042 0.2757 0.1503
C6 C 0.5556(2) 0.29776(7) 0.21305(18)
H4 H 0.5363 0.3370 0.2088
C7 C 0.7285(2) 0.27682(7) 0.25716(17)
C8 C 0.8737(2) 0.31383(8) 0.29883(19)
H5 H 0.8562 0.3532 0.2938
C9 C 1.0376(2) 0.29305(8) 0.3459(2)
H6 H 1.1313 0.3181 0.3739
C10 C 1.0666(2) 0.23391(8) 0.35255(19)
H7 H 1.1796 0.2199 0.3856
C11 C 0.9305(2) 0.19657(7) 0.31089(17)
H8 H 0.9518 0.1574 0.3150
C12 C 0.7579(2) 0.21687(7) 0.26167(16)
C13 C 0.65335(18) 0.08758(6) 0.36265(16)
C14 C 0.6049(2) 0.11392(7) 0.47526(18)
H9 H 0.5557 0.1503 0.4621
C15 C 0.6281(2) 0.08734(8) 0.60702(19)
H10 H 0.5947 0.1060 0.6812
C16 C 0.6998(2) 0.03369(8) 0.62976(18)
H11 H 0.7172 0.0157 0.7184
C17 C 0.7447(2) 0.00769(7) 0.51666(18)
C18 C 0.72429(19) 0.03325(7) 0.38466(17)
H12 H 0.7578 0.0142 0.3110
C19 C 0.1647(2) 0.08978(7) 0.00800(16)
C20 C -0.0008(2) 0.11766(8) -0.00797(18)
H13 H 0.0004 0.1542 0.0307
C21 C 0.1741(2) 0.03622(8) -0.05856(18)
H14 H 0.0691 0.0200 -0.1087
loop_
_geom_bond_atom_site_label_1
_geom_bond_atom_site_label_2
_geom_bond_site_symmetry_1
_geom_bond_site_symmetry_2
O1 C1 1_555 1_555
O2 N2 1_555 1_555
O3 N2 1_555 1_555
O4 C21 1_555 1_555
O5 C20 1_555 1_555
N1 H1 1_555 1_555
N2 C17 1_555 1_555
C1 N1 1_555 1_555
C2 N1 1_555 1_555
H2 C2 1_555 1_555
C3 C2 1_555 1_555
C4 O1 1_555 1_555
C5 C4 1_555 1_555
H3 C5 1_555 1_555
C6 C5 1_555 1_555
H4 C6 1_555 1_555
C7 C6 1_555 1_555
C8 C7 1_555 1_555
H5 C8 1_555 1_555
C9 C8 1_555 1_555
H6 C9 1_555 1_555
C10 C9 1_555 1_555
H7 C10 1_555 1_555
C11 C10 1_555 1_555
H8 C11 1_555 1_555
C12 C3 1_555 1_555
C13 C2 1_555 1_555
C14 C13 1_555 1_555
H9 C14 1_555 1_555
C15 C14 1_555 1_555
H10 C15 1_555 1_555
C16 C15 1_555 1_555
H11 C16 1_555 1_555
C17 C16 1_555 1_555
C18 C13 1_555 1_555
H12 C18 1_555 1_555
C19 C1 1_555 1_555
C20 C19 1_555 1_555
H13 C20 1_555 1_555
C21 C19 1_555 1_555
H14 C21 1_555 1_555
C3 C4 1_555 1_555
C7 C12 1_555 1_555
C11 C12 1_555 1_555
C17 C18 1_555 1_555

#END
