
#######################################################################
#
#                 Cambridge Crystallographic Data Centre
#                                CCDC 
#
#######################################################################
#
# If this CIF has been generated from an entry in the Cambridge 
# Structural Database, then it will include bibliographic, chemical, 
# crystal, experimental, refinement or atomic coordinate data resulting 
# from the CCDC's data processing and validation procedures.
#
#######################################################################

data_ROMVAS
_chemical_formula_moiety         'C22 H28 N2 O3'
_chemical_name_systematic        
't-Butyl (3-(2,3-dimethyl-2,3-dihydro-1H-indol-3-yl)-4-methoxyphenyl)carbamate'
_symmetry_cell_setting           trigonal
_symmetry_space_group_name_H-M   'P 32'
_symmetry_Int_Tables_number      145
_space_group_name_Hall           'P 32'
loop_
_symmetry_equiv_pos_site_id
_symmetry_equiv_pos_as_xyz
1 x,y,z
2 -y,x-y,2/3+z
3 -x+y,-x,1/3+z
_cell_length_a                   11.32080(10)
_cell_length_b                   11.32080(10)
_cell_length_c                   13.7012(2)
_cell_angle_alpha                90
_cell_angle_beta                 90
_cell_angle_gamma                120
_cell_volume                     1520.7
_exptl_crystal_colour            colorless
_exptl_crystal_description       block
_cell_formula_units_Z            3
loop_
_atom_site_label
_atom_site_type_symbol
_atom_site_fract_x
_atom_site_fract_y
_atom_site_fract_z
O1 O 0.44852(17) 0.11456(18) 0.49564(13)
O2 O 0.96801(16) 0.27802(17) 0.78143(13)
O3 O 0.91441(15) 0.14334(15) 0.91592(12)
N1 N 0.74748(18) 0.12108(18) 0.82127(14)
H1 H 0.6971 0.0673 0.8689
N2 N 0.14413(19) -0.30209(19) 0.62150(15)
H2 H 0.0820 -0.3758 0.5914
C1 C 0.3655(3) -0.2079(3) 0.5378(2)
H3 H 0.4059 -0.2289 0.5937
H4 H 0.4366 -0.1281 0.5033
H5 H 0.3244 -0.2862 0.4934
C2 C 0.2561(2) -0.1774(2) 0.57378(17)
H6 H 0.2179 -0.1527 0.5166
C3 C 0.3033(2) -0.0621(2) 0.65338(17)
C4 C 0.2282(2) 0.0194(2) 0.6388(2)
H7 H 0.1301 -0.0442 0.6318
H8 H 0.2627 0.0755 0.5799
H9 H 0.2442 0.0783 0.6955
C5 C 0.2459(2) -0.1443(2) 0.74647(17)
C6 C 0.2575(2) -0.1016(3) 0.84258(19)
H10 H 0.3141 -0.0080 0.8586
C7 C 0.1858(3) -0.1963(3) 0.9154(2)
H11 H 0.1946 -0.1678 0.9815
C8 C 0.1015(3) -0.3322(3) 0.8914(2)
H12 H 0.0544 -0.3966 0.9417
C9 C 0.0847(3) -0.3758(3) 0.7957(2)
H13 H 0.0257 -0.4689 0.7796
C10 C 0.1559(2) -0.2803(2) 0.72357(18)
C11 C 0.4583(2) 0.0352(2) 0.65431(16)
C12 C 0.5383(2) 0.0382(2) 0.73187(16)
H14 H 0.4958 -0.0249 0.7837
C13 C 0.6787(2) 0.1294(2) 0.73749(16)
C14 C 0.7415(2) 0.2219(2) 0.66205(17)
H15 H 0.8360 0.2870 0.6652
C15 C 0.6646(2) 0.2182(2) 0.58164(17)
H16 H 0.7081 0.2802 0.5294
C16 C 0.5257(2) 0.1259(2) 0.57615(17)
C17 C 0.5116(3) 0.2152(3) 0.4217(2)
H17 H 0.5489 0.3061 0.4506
H18 H 0.4438 0.2022 0.3720
H19 H 0.5854 0.2066 0.3915
C18 C 0.8858(2) 0.1897(2) 0.83417(16)
C19 C 1.0576(2) 0.2039(2) 0.94942(18)
C20 C 1.1165(2) 0.3546(2) 0.9692(2)
H20 H 1.1253 0.4023 0.9076
H21 H 1.2066 0.3913 0.9995
H22 H 1.0558 0.3676 1.0133
C21 C 1.0421(3) 0.1281(3) 1.0442(2)
H23 H 0.9774 0.1369 1.0868
H24 H 1.1309 0.1670 1.0768
H25 H 1.0081 0.0315 1.0302
C22 C 1.1402(3) 0.1759(4) 0.8752(3)
H26 H 1.0945 0.0779 0.8614
H27 H 1.2315 0.2061 0.9014
H28 H 1.1480 0.2257 0.8148
loop_
_geom_bond_atom_site_label_1
_geom_bond_atom_site_label_2
_geom_bond_site_symmetry_1
_geom_bond_site_symmetry_2
O1 C16 1_555 1_555
O2 C18 1_555 1_555
O3 C18 1_555 1_555
N1 H1 1_555 1_555
N2 H2 1_555 1_555
C1 H3 1_555 1_555
H4 C1 1_555 1_555
H5 C1 1_555 1_555
C2 N2 1_555 1_555
H6 C2 1_555 1_555
C3 C2 1_555 1_555
C4 C3 1_555 1_555
H7 C4 1_555 1_555
H8 C4 1_555 1_555
H9 C4 1_555 1_555
C5 C3 1_555 1_555
C6 C5 1_555 1_555
H10 C6 1_555 1_555
C7 C6 1_555 1_555
H11 C7 1_555 1_555
C8 C7 1_555 1_555
H12 C8 1_555 1_555
C9 C8 1_555 1_555
H13 C9 1_555 1_555
C10 N2 1_555 1_555
C11 C3 1_555 1_555
C12 C11 1_555 1_555
H14 C12 1_555 1_555
C13 N1 1_555 1_555
C14 C13 1_555 1_555
H15 C14 1_555 1_555
C15 C14 1_555 1_555
H16 C15 1_555 1_555
C16 C11 1_555 1_555
C17 O1 1_555 1_555
H17 C17 1_555 1_555
H18 C17 1_555 1_555
H19 C17 1_555 1_555
C18 N1 1_555 1_555
C19 O3 1_555 1_555
C20 C19 1_555 1_555
H20 C20 1_555 1_555
H21 C20 1_555 1_555
H22 C20 1_555 1_555
C21 C19 1_555 1_555
H23 C21 1_555 1_555
H24 C21 1_555 1_555
H25 C21 1_555 1_555
C22 C19 1_555 1_555
H26 C22 1_555 1_555
H27 C22 1_555 1_555
H28 C22 1_555 1_555
C1 C2 1_555 1_555
C5 C10 1_555 1_555
C9 C10 1_555 1_555
C12 C13 1_555 1_555
C15 C16 1_555 1_555

#END
