
#######################################################################
#
#                 Cambridge Crystallographic Data Centre
#                                CCDC 
#
#######################################################################
#
# If this CIF has been generated from an entry in the Cambridge 
# Structural Database, then it will include bibliographic, chemical, 
# crystal, experimental, refinement or atomic coordinate data resulting 
# from the CCDC's data processing and validation procedures.
#
#######################################################################

data_ROMXAT
_chemical_formula_moiety         'C19 H23 N3 O3'
_chemical_name_systematic        
N-Cyclopentyl-3-(4-hydroxy-6-oxo-1,6-dihydropyrimidin-5-yl)-3-p-tolylpropanamide
_symmetry_cell_setting           monoclinic
_symmetry_space_group_name_H-M   'P 21/c'
_symmetry_Int_Tables_number      14
_space_group_name_Hall           '-P 2ybc'
loop_
_symmetry_equiv_pos_site_id
_symmetry_equiv_pos_as_xyz
1 x,y,z
2 -x,1/2+y,1/2-z
3 -x,-y,-z
4 x,1/2-y,1/2+z
_cell_length_a                   11.6798(10)
_cell_length_b                   14.8279(16)
_cell_length_c                   11.8422(12)
_cell_angle_alpha                90
_cell_angle_beta                 115.022(2)
_cell_angle_gamma                90
_cell_volume                     1858.43
_exptl_crystal_colour            colorless
_exptl_crystal_description       block
_chemical_melting_point          '547-549 K'
_cell_formula_units_Z            4
_exptl_crystal_recrystallization_method ethanol
loop_
_atom_site_label
_atom_site_type_symbol
_atom_site_fract_x
_atom_site_fract_y
_atom_site_fract_z
O1 O 0.51033(15) 0.18524(10) 0.24325(14)
O2 O 0.58111(16) 0.48802(10) 0.17050(14)
H1 H 0.5650 0.5192 0.1084
O3 O 0.36199(16) 0.38438(11) 0.37082(15)
N1 N 0.45054(17) 0.24273(12) 0.04951(16)
H2 H 0.4223 0.1907 0.0181
N2 N 0.47888(17) 0.39142(12) 0.00944(16)
N3 N 0.36553(17) 0.50839(13) 0.26475(16)
H3 H 0.4105 0.5496 0.2520
C1 C 0.5061(2) 0.25152(15) 0.1789(2)
C2 C 0.5537(2) 0.33982(14) 0.22258(19)
C3 C 0.5389(2) 0.40604(15) 0.13651(19)
C4 C 0.4392(2) 0.31040(16) -0.0272(2)
H4 H 0.4004 0.2992 -0.1125
C5 C 0.4234(2) 0.44262(15) 0.3448(2)
C6 C 0.5653(2) 0.44127(15) 0.4011(2)
H5 H 0.5977 0.4429 0.4912
H6 H 0.5957 0.4945 0.3746
C7 C 0.6153(2) 0.35575(14) 0.36151(19)
H7 H 0.5905 0.3047 0.3988
C8 C 0.7589(2) 0.35570(16) 0.4198(2)
C9 C 0.822(3) 0.3612(18) 0.342(3)
H8 H 0.7759 0.3626 0.2559
C11 C 0.952(3) 0.3646(19) 0.392(3)
H10 H 0.9918 0.3698 0.3383
C13 C 1.025(4) 0.361(2) 0.517(3)
C15 C 0.964(2) 0.3535(19) 0.596(2)
H12 H 1.0112 0.3506 0.6818
C17 C 0.833(4) 0.351(2) 0.545(4)
H14 H 0.7942 0.3453 0.5991
C19 C 1.1676(18) 0.3628(15) 0.573(2)
H16 H 1.1995 0.3023 0.5824
H17 H 1.1991 0.3914 0.6534
H18 H 1.1948 0.3960 0.5194
C21 C 0.2281(2) 0.51310(17) 0.1977(2)
H22 H 0.1881 0.5034 0.2546
C22 C 0.1793(3) 0.4455(2) 0.0910(3)
H23 H 0.2334 0.3927 0.1108
H24 H 0.0941 0.4264 0.0743
C23 C 0.1810(3) 0.4946(3) -0.0198(3)
H25 H 0.2484 0.4714 -0.0390
H26 H 0.1014 0.4860 -0.0921
C24 C 0.2015(3) 0.5919(3) 0.0119(3)
H27 H 0.1392 0.6282 -0.0534
H28 H 0.2851 0.6103 0.0221
C25 C 0.1885(3) 0.60299(19) 0.1318(3)
H29 H 0.1018 0.6169 0.1158
H30 H 0.2428 0.6510 0.1816
C10? C 0.838(3) 0.382(2) 0.370(3)
H9? H 0.8043 0.4040 0.2884
C12? C 0.970(3) 0.377(2) 0.437(2)
H11? H 1.0222 0.3923 0.3991
C14? C 1.023(4) 0.350(3) 0.561(3)
C16? C 0.943(3) 0.3240(16) 0.611(2)
H13? H 0.9764 0.3037 0.6925
C18? C 0.813(4) 0.327(2) 0.544(4)
H15? H 0.7611 0.3088 0.5821
C20? C 1.1691(19) 0.3465(18) 0.635(2)
H19? H 1.1905 0.3341 0.7209
H20? H 1.2045 0.4035 0.6277
H21? H 1.2024 0.2998 0.6011
loop_
_geom_bond_atom_site_label_1
_geom_bond_atom_site_label_2
_geom_bond_site_symmetry_1
_geom_bond_site_symmetry_2
O1 C1 1_555 1_555
O2 H1 1_555 1_555
O3 C5 1_555 1_555
N1 H2 1_555 1_555
N2 C3 1_555 1_555
N3 H3 1_555 1_555
C1 N1 1_555 1_555
C2 C1 1_555 1_555
C3 O2 1_555 1_555
C4 N1 1_555 1_555
H4 C4 1_555 1_555
C5 N3 1_555 1_555
C6 C5 1_555 1_555
H5 C6 1_555 1_555
H6 C6 1_555 1_555
C7 C2 1_555 1_555
H7 C7 1_555 1_555
C8 C7 1_555 1_555
C9 C8 1_555 1_555
H8 C9 1_555 1_555
C11 C9 1_555 1_555
H10 C11 1_555 1_555
C13 C11 1_555 1_555
C15 C13 1_555 1_555
H12 C15 1_555 1_555
C17 C8 1_555 1_555
H14 C17 1_555 1_555
C19 C13 1_555 1_555
H16 C19 1_555 1_555
H17 C19 1_555 1_555
H18 C19 1_555 1_555
C21 N3 1_555 1_555
H22 C21 1_555 1_555
C22 C21 1_555 1_555
H23 C22 1_555 1_555
H24 C22 1_555 1_555
C23 C22 1_555 1_555
H25 C23 1_555 1_555
H26 C23 1_555 1_555
C24 C23 1_555 1_555
H27 C24 1_555 1_555
H28 C24 1_555 1_555
C25 C21 1_555 1_555
H29 C25 1_555 1_555
H30 C25 1_555 1_555
N2 C4 1_555 1_555
C2 C3 1_555 1_555
C6 C7 1_555 1_555
C15 C17 1_555 1_555
C24 C25 1_555 1_555

#END
