
#######################################################################
#
#                 Cambridge Crystallographic Data Centre
#                                CCDC 
#
#######################################################################
#
# If this CIF has been generated from an entry in the Cambridge 
# Structural Database, then it will include bibliographic, chemical, 
# crystal, experimental, refinement or atomic coordinate data resulting 
# from the CCDC's data processing and validation procedures.
#
#######################################################################

data_ROMXEX
_chemical_formula_moiety         'C17 H19 N4 1+,Br1 1-'
_chemical_name_systematic        
'1,3-bis((6-Methyl-2-pyridyl)methyl)imidazolium bromide'
_symmetry_cell_setting           monoclinic
_symmetry_space_group_name_H-M   'P 21/c'
_symmetry_Int_Tables_number      14
_space_group_name_Hall           '-P 2ybc'
loop_
_symmetry_equiv_pos_site_id
_symmetry_equiv_pos_as_xyz
1 x,y,z
2 -x,1/2+y,1/2-z
3 -x,-y,-z
4 x,1/2-y,1/2+z
_cell_length_a                   8.2951(4)
_cell_length_b                   12.4992(5)
_cell_length_c                   16.1786(7)
_cell_angle_alpha                90
_cell_angle_beta                 95.7090(10)
_cell_angle_gamma                90
_cell_volume                     1669.11
_exptl_crystal_colour            yellow
_exptl_crystal_description       block
_cell_formula_units_Z            4
_exptl_crystal_recrystallization_method 'methanol/diethyl ether'
loop_
_atom_site_label
_atom_site_type_symbol
_atom_site_fract_x
_atom_site_fract_y
_atom_site_fract_z
Br1 Br 0.25933(3) -0.13979(2) 0.728857(17)
N1 N 0.2300(3) 0.43039(18) 0.55743(13)
N2 N 0.1795(3) 0.32251(18) 0.69967(13)
N3 N 0.3401(3) 0.18620(18) 0.70972(12)
N4 N 0.6655(3) 0.02641(18) 0.63640(13)
C1 C 0.3308(4) 0.4122(3) 0.42228(19)
H1 H 0.4447 0.3965 0.4401
H2 H 0.3231 0.4511 0.3695
H3 H 0.2699 0.3451 0.4151
C2 C 0.2610(3) 0.4796(2) 0.48712(16)
C3 C 0.2275(4) 0.5877(2) 0.47302(19)
H4 H 0.2493 0.6205 0.4223
C4 C 0.1625(4) 0.6461(2) 0.5333(2)
H5 H 0.1389 0.7199 0.5249
C5 C 0.1314(3) 0.5967(2) 0.60658(19)
H6 H 0.0881 0.6358 0.6496
C6 C 0.1653(3) 0.4883(2) 0.61548(16)
C7 C 0.1255(3) 0.4340(2) 0.69380(17)
H7 H 0.1770 0.4740 0.7422
H8 H 0.0068 0.4363 0.6963
C8 C 0.0851(3) 0.2329(2) 0.68219(17)
H9 H -0.0289 0.2316 0.6684
C9 C 0.1843(3) 0.1478(2) 0.68830(17)
H10 H 0.1538 0.0750 0.6796
C10 C 0.3325(3) 0.2922(2) 0.71530(15)
H11 H 0.4222 0.3386 0.7283
C11 C 0.4884(3) 0.1223(2) 0.71751(17)
H12 H 0.4651 0.0515 0.7411
H13 H 0.5704 0.1582 0.7567
C12 C 0.5575(3) 0.1063(2) 0.63500(16)
C13 C 0.5148(3) 0.1686(2) 0.56543(16)
H14 H 0.4382 0.2250 0.5667
C14 C 0.5875(3) 0.1459(2) 0.49366(18)
H15 H 0.5608 0.1865 0.4446
C15 C 0.6987(3) 0.0642(2) 0.49443(17)
H16 H 0.7500 0.0480 0.4460
C16 C 0.7350(3) 0.0057(2) 0.56687(17)
C17 C 0.8531(4) -0.0873(3) 0.5706(2)
H17 H 0.9412 -0.0744 0.6144
H18 H 0.8980 -0.0943 0.5170
H19 H 0.7964 -0.1535 0.5826
loop_
_geom_bond_atom_site_label_1
_geom_bond_atom_site_label_2
_geom_bond_site_symmetry_1
_geom_bond_site_symmetry_2
N1 C2 1_555 1_555
N2 C7 1_555 1_555
N3 C9 1_555 1_555
N4 C12 1_555 1_555
C1 H1 1_555 1_555
H2 C1 1_555 1_555
H3 C1 1_555 1_555
C2 C1 1_555 1_555
C3 C2 1_555 1_555
H4 C3 1_555 1_555
C4 C3 1_555 1_555
H5 C4 1_555 1_555
C5 C4 1_555 1_555
H6 C5 1_555 1_555
C6 N1 1_555 1_555
C7 C6 1_555 1_555
H7 C7 1_555 1_555
H8 C7 1_555 1_555
C8 N2 1_555 1_555
H9 C8 1_555 1_555
C9 C8 1_555 1_555
H10 C9 1_555 1_555
C10 N2 1_555 1_555
H11 C10 1_555 1_555
C11 N3 1_555 1_555
H12 C11 1_555 1_555
H13 C11 1_555 1_555
C12 C11 1_555 1_555
C13 C12 1_555 1_555
H14 C13 1_555 1_555
C14 C13 1_555 1_555
H15 C14 1_555 1_555
C15 C14 1_555 1_555
H16 C15 1_555 1_555
C16 N4 1_555 1_555
C17 C16 1_555 1_555
H17 C17 1_555 1_555
H18 C17 1_555 1_555
H19 C17 1_555 1_555
N3 C10 1_555 1_555
C5 C6 1_555 1_555
C15 C16 1_555 1_555

#END
