
#######################################################################
#
#                 Cambridge Crystallographic Data Centre
#                                CCDC 
#
#######################################################################
#
# If this CIF has been generated from an entry in the Cambridge 
# Structural Database, then it will include bibliographic, chemical, 
# crystal, experimental, refinement or atomic coordinate data resulting 
# from the CCDC's data processing and validation procedures.
#
#######################################################################

data_ROMYAV
_chemical_formula_moiety         'C30 H27 N5 O5'
_chemical_name_systematic        
"Dimethyl 1'-butyl-8,8-dicyano-2'-oxo-1-phenyl-1',2',8,8a-tetrahydro-1H-spiro[imidazo[1,2-a]pyridine-7,3'-indole]-5,6-dicarboxylate"
_symmetry_cell_setting           monoclinic
_symmetry_space_group_name_H-M   'P 21/c'
_symmetry_Int_Tables_number      14
_space_group_name_Hall           '-P 2ybc'
loop_
_symmetry_equiv_pos_site_id
_symmetry_equiv_pos_as_xyz
1 x,y,z
2 -x,1/2+y,1/2-z
3 -x,-y,-z
4 x,1/2-y,1/2+z
_cell_length_a                   11.690(2)
_cell_length_b                   19.175(3)
_cell_length_c                   15.0116(19)
_cell_angle_alpha                90
_cell_angle_beta                 123.788(9)
_cell_angle_gamma                90
_cell_volume                     2796.6
_exptl_crystal_colour            colorless
_exptl_crystal_description       block
_cell_formula_units_Z            4
loop_
_atom_site_label
_atom_site_type_symbol
_atom_site_fract_x
_atom_site_fract_y
_atom_site_fract_z
C1 C 0.3487(6) 0.6742(4) 0.3630(5)
H1 H 0.4017 0.7063 0.4210
H2 H 0.3870 0.6282 0.3851
H3 H 0.2552 0.6739 0.3433
C2 C 0.3521(6) 0.6960(4) 0.2692(5)
H4 H 0.2681 0.6809 0.2037
H5 H 0.3558 0.7465 0.2676
C3 C 0.4653(6) 0.6681(4) 0.2731(5)
H6 H 0.4584 0.6177 0.2721
H7 H 0.5481 0.6812 0.3410
C4 C 0.4833(4) 0.6911(2) 0.1793(3)
H8 H 0.4062 0.6741 0.1111
H9 H 0.4849 0.7416 0.1759
C5 C 0.6170(3) 0.60104(15) 0.1584(2)
C6 C 0.7705(3) 0.58378(15) 0.2062(2)
C7 C 0.8428(3) 0.64271(16) 0.2861(2)
C8 C 0.9798(4) 0.65513(19) 0.3604(3)
H10 H 1.0469 0.6245 0.3688
C9 C 1.0154(4) 0.7152(2) 0.4229(3)
H11 H 1.1075 0.7246 0.4744
C10 C 0.9172(5) 0.7599(2) 0.4097(3)
H12 H 0.9440 0.8001 0.4514
C11 C 0.7783(4) 0.74771(18) 0.3359(3)
H13 H 0.7117 0.7787 0.3273
C12 C 0.7432(3) 0.68781(16) 0.2759(2)
C13 C 0.7926(3) 0.59128(15) 0.1116(2)
C14 C 0.9402(4) 0.59207(19) 0.1533(3)
C15 C 0.7315(4) 0.65696(19) 0.0541(3)
C16 C 0.5378(4) 0.58214(18) -0.1818(3)
H14 H 0.5101 0.5821 -0.1345
C17 C 0.4535(5) 0.6113(2) -0.2823(3)
H15 H 0.3705 0.6316 -0.3015
C18 C 0.4910(7) 0.6106(3) -0.3535(4)
H16 H 0.4331 0.6293 -0.4217
C19 C 0.6137(7) 0.5824(3) -0.3238(4)
H17 H 0.6396 0.5823 -0.3722
C20 C 0.7013(5) 0.5537(2) -0.2228(4)
H18 H 0.7856 0.5350 -0.2034
C21 C 0.6618(4) 0.55334(18) -0.1510(3)
C22 C 0.7271(3) 0.52621(15) 0.0357(2)
H19 H 0.6283 0.5233 0.0056
C23 C 0.8260(4) 0.4620(2) -0.0346(3)
H20 H 0.8510 0.4469 -0.0803
C24 C 0.8542(4) 0.4285(2) 0.0513(3)
H21 H 0.9036 0.3871 0.0765
C25 C 0.8277(3) 0.45889(16) 0.2006(3)
C26 C 0.8753(5) 0.3867(2) 0.2461(3)
C27 C 1.0658(6) 0.3130(3) 0.3414(4)
H22 H 1.0244 0.2787 0.2852
H23 H 1.0461 0.3018 0.3938
H24 H 1.1636 0.3132 0.3747
C28 C 0.8098(3) 0.51112(15) 0.2520(2)
C29 C 0.8229(3) 0.49458(18) 0.3525(3)
C30 C 0.7676(5) 0.5329(2) 0.4745(3)
H25 H 0.8612 0.5385 0.5343
H26 H 0.7362 0.4869 0.4759
H27 H 0.7106 0.5668 0.4788
N1 N 0.6120(3) 0.66234(13) 0.2002(2)
N2 N 0.6829(4) 0.70775(17) 0.0110(3)
N3 N 1.0526(4) 0.5909(2) 0.1825(3)
N4 N 0.7524(3) 0.52386(14) -0.0488(2)
N5 N 0.7981(3) 0.46519(13) 0.0996(2)
O1 O 0.5201(2) 0.56632(11) 0.09285(18)
O2 O 0.7985(4) 0.34107(15) 0.2290(3)
O3 O 1.0101(3) 0.38162(13) 0.2963(2)
O4 O 0.8785(3) 0.44380(14) 0.4066(2)
O5 O 0.7601(3) 0.54243(12) 0.37651(17)
loop_
_geom_bond_atom_site_label_1
_geom_bond_atom_site_label_2
_geom_bond_site_symmetry_1
_geom_bond_site_symmetry_2
C1 H1 1_555 1_555
H2 C1 1_555 1_555
H3 C1 1_555 1_555
C2 C1 1_555 1_555
H4 C2 1_555 1_555
H5 C2 1_555 1_555
C3 C2 1_555 1_555
H6 C3 1_555 1_555
H7 C3 1_555 1_555
C4 C3 1_555 1_555
H8 C4 1_555 1_555
H9 C4 1_555 1_555
C5 C6 1_555 1_555
C6 C7 1_555 1_555
C7 C8 1_555 1_555
C8 H10 1_555 1_555
C9 C8 1_555 1_555
H11 C9 1_555 1_555
C10 C9 1_555 1_555
H12 C10 1_555 1_555
C11 C10 1_555 1_555
H13 C11 1_555 1_555
C12 C7 1_555 1_555
C13 C6 1_555 1_555
C14 C13 1_555 1_555
C15 C13 1_555 1_555
C16 H14 1_555 1_555
C17 C16 1_555 1_555
H15 C17 1_555 1_555
C18 C17 1_555 1_555
H16 C18 1_555 1_555
C19 C18 1_555 1_555
H17 C19 1_555 1_555
C20 C19 1_555 1_555
H18 C20 1_555 1_555
C21 C16 1_555 1_555
C22 C13 1_555 1_555
H19 C22 1_555 1_555
C23 H20 1_555 1_555
C24 C23 1_555 1_555
H21 C24 1_555 1_555
C25 C26 1_555 1_555
C26 O2 1_555 1_555
C27 H22 1_555 1_555
H23 C27 1_555 1_555
H24 C27 1_555 1_555
C28 C6 1_555 1_555
C29 C28 1_555 1_555
C30 H25 1_555 1_555
H26 C30 1_555 1_555
H27 C30 1_555 1_555
N1 C4 1_555 1_555
N2 C15 1_555 1_555
N3 C14 1_555 1_555
N4 C21 1_555 1_555
N5 C22 1_555 1_555
O1 C5 1_555 1_555
O3 C26 1_555 1_555
O4 C29 1_555 1_555
O5 C29 1_555 1_555
C5 N1 1_555 1_555
C11 C12 1_555 1_555
C12 N1 1_555 1_555
C20 C21 1_555 1_555
C22 N4 1_555 1_555
C23 N4 1_555 1_555
C24 N5 1_555 1_555
C25 C28 1_555 1_555
C25 N5 1_555 1_555
C27 O3 1_555 1_555
C30 O5 1_555 1_555

#END
