
#######################################################################
#
#                 Cambridge Crystallographic Data Centre
#                                CCDC 
#
#######################################################################
#
# If this CIF has been generated from an entry in the Cambridge 
# Structural Database, then it will include bibliographic, chemical, 
# crystal, experimental, refinement or atomic coordinate data resulting 
# from the CCDC's data processing and validation procedures.
#
#######################################################################

data_ROMYUP
_chemical_formula_moiety         'C40 H32 Cl1 N5 O5'
_chemical_name_systematic        
"Diethyl 1,5'-dibenzyl-5-chloro-3',3'-dicyano-2-oxo-1,2,4a',5'-tetrahydro-3'H-spiro[indole-3,4'-pyrido[1,2-a]benzimidazole]-1',2'-dicarboxylate"
_symmetry_cell_setting           monoclinic
_symmetry_space_group_name_H-M   'C 2'
_symmetry_Int_Tables_number      5
_space_group_name_Hall           'C 2y'
loop_
_symmetry_equiv_pos_site_id
_symmetry_equiv_pos_as_xyz
1 x,y,z
2 -x,y,-z
3 1/2+x,1/2+y,z
4 1/2-x,1/2+y,-z
_cell_length_a                   19.030(2)
_cell_length_b                   11.569(2)
_cell_length_c                   16.376(2)
_cell_angle_alpha                90
_cell_angle_beta                 102.619(3)
_cell_angle_gamma                90
_cell_volume                     3518.22
_exptl_crystal_colour            yellow
_exptl_crystal_description       block
_cell_formula_units_Z            4
loop_
_atom_site_label
_atom_site_type_symbol
_atom_site_fract_x
_atom_site_fract_y
_atom_site_fract_z
C1 C 0.4681(2) 0.7955(5) 0.6990(3)
H1 H 0.4549 0.7330 0.6632
C2 C 0.4156(3) 0.8578(5) 0.7260(4)
H2 H 0.3674 0.8383 0.7071
C3 C 0.4336(3) 0.9463(5) 0.7794(3)
H3 H 0.3977 0.9882 0.7968
C4 C 0.5031(3) 0.9746(6) 0.8079(3)
H4 H 0.5152 1.0347 0.8462
C5 C 0.5575(3) 0.9144(5) 0.7805(3)
H5 H 0.6054 0.9351 0.8002
C6 C 0.5403(2) 0.8248(4) 0.7246(2)
C7 C 0.59368(18) 0.7595(4) 0.6857(3)
H6 H 0.5899 0.6777 0.6971
H7 H 0.5808 0.7699 0.6255
C8 C 0.6991(2) 0.8824(4) 0.6801(2)
C9 C 0.77992(18) 0.8874(3) 0.7225(2)
C10 C 0.78727(18) 0.7904(3) 0.7851(2)
C11 C 0.84515(19) 0.7482(3) 0.8433(2)
H8 H 0.8909 0.7794 0.8478
C12 C 0.8340(2) 0.6591(3) 0.8947(2)
C13 C 0.7664(2) 0.6111(4) 0.8889(2)
H9 H 0.7604 0.5514 0.9248
C14 C 0.7082(2) 0.6509(4) 0.8305(2)
H10 H 0.6628 0.6185 0.8258
C15 C 0.71941(18) 0.7409(3) 0.7790(2)
C16 C 0.6440(2) 0.6385(5) 0.4854(3)
H11 H 0.6332 0.6959 0.4448
C17 C 0.5966(3) 0.5483(6) 0.4852(4)
H12 H 0.5537 0.5459 0.4450
C18 C 0.6119(3) 0.4633(5) 0.5431(4)
H13 H 0.5801 0.4019 0.5421
C19 C 0.6739(3) 0.4683(4) 0.6027(4)
H14 H 0.6842 0.4105 0.6430
C20 C 0.7223(3) 0.5591(4) 0.6040(3)
H15 H 0.7647 0.5615 0.6450
C21 C 0.7075(2) 0.6443(4) 0.5453(2)
C22 C 0.7580(2) 0.7436(4) 0.5390(2)
H16 H 0.7801 0.7299 0.4918
H17 H 0.7301 0.8143 0.5279
C23 C 0.82426(19) 0.8719(3) 0.6548(2)
H18 H 0.8121 0.9331 0.6128
C24 C 0.8833(3) 0.7137(4) 0.6152(3)
C25 C 0.8993(4) 0.6134(5) 0.5765(3)
H19 H 0.8631 0.5682 0.5444
C26 C 0.9702(5) 0.5836(6) 0.5875(4)
H20 H 0.9825 0.5159 0.5633
C27 C 1.0237(4) 0.6512(7) 0.6334(4)
H21 H 1.0715 0.6289 0.6391
C28 C 1.0079(3) 0.7528(5) 0.6719(3)
H22 H 1.0441 0.7997 0.7023
C29 C 0.9363(2) 0.7802(4) 0.6626(3)
C30 C 0.80018(19) 1.0090(3) 0.7655(2)
C31 C 0.7701(2) 1.1074(4) 0.7105(2)
C32 C 0.7654(2) 1.0125(4) 0.8390(3)
C33 C 0.8821(2) 1.0189(4) 0.7920(2)
C34 C 0.9161(3) 1.1021(4) 0.8551(2)
C35 C 0.8938(3) 1.2540(6) 0.9439(4)
H23 H 0.9275 1.2158 0.9887
H24 H 0.9189 1.3163 0.9227
C36 C 0.8363(5) 1.2993(7) 0.9749(5)
H25 H 0.8045 1.3411 0.9312
H26 H 0.8547 1.3505 1.0207
H27 H 0.8104 1.2373 0.9938
C37 C 0.9256(2) 0.9503(3) 0.7573(2)
C38 C 1.0062(2) 0.9506(4) 0.7898(3)
C39 C 1.1056(4) 0.8533(7) 0.8860(4)
H28 H 1.1162 0.7721 0.8972
H29 H 1.1346 0.8836 0.8490
C40 C 1.1117(4) 0.9157(8) 0.9559(5)
H30 H 1.1070 0.9963 0.9419
H31 H 1.1580 0.9020 0.9919
H32 H 1.0746 0.8937 0.9841
Cl1 Cl 0.90602(6) 0.60615(11) 0.96893(6)
N1 N 0.66895(15) 0.7958(3) 0.71618(19)
N2 N 0.81486(19) 0.7598(3) 0.61436(18)
N3 N 0.90137(16) 0.8761(3) 0.6933(2)
N4 N 0.7357(2) 1.0103(4) 0.8918(3)
N5 N 0.7509(2) 1.1856(4) 0.6709(3)
O1 O 0.66943(14) 0.9439(2) 0.62225(18)
O2 O 1.04737(16) 1.0043(3) 0.7590(2)
O3 O 1.02297(16) 0.8766(3) 0.8526(2)
O4 O 0.97957(17) 1.1103(3) 0.8843(2)
O5 O 0.86671(18) 1.1716(3) 0.87695(18)
loop_
_geom_bond_atom_site_label_1
_geom_bond_atom_site_label_2
_geom_bond_site_symmetry_1
_geom_bond_site_symmetry_2
C1 H1 1_555 1_555
C2 C1 1_555 1_555
H2 C2 1_555 1_555
C3 C2 1_555 1_555
H3 C3 1_555 1_555
C4 C3 1_555 1_555
H4 C4 1_555 1_555
C5 C4 1_555 1_555
H5 C5 1_555 1_555
C6 C1 1_555 1_555
C7 C6 1_555 1_555
H6 C7 1_555 1_555
H7 C7 1_555 1_555
C8 C9 1_555 1_555
C9 C10 1_555 1_555
C10 C11 1_555 1_555
C11 H8 1_555 1_555
C12 C11 1_555 1_555
C13 C12 1_555 1_555
H9 C13 1_555 1_555
C14 C13 1_555 1_555
H10 C14 1_555 1_555
C15 C10 1_555 1_555
C16 H11 1_555 1_555
C17 C16 1_555 1_555
H12 C17 1_555 1_555
C18 C17 1_555 1_555
H13 C18 1_555 1_555
C19 C18 1_555 1_555
H14 C19 1_555 1_555
C20 C19 1_555 1_555
H15 C20 1_555 1_555
C21 C16 1_555 1_555
C22 C21 1_555 1_555
H16 C22 1_555 1_555
H17 C22 1_555 1_555
C23 C9 1_555 1_555
H18 C23 1_555 1_555
C24 C25 1_555 1_555
C25 H19 1_555 1_555
C26 C25 1_555 1_555
H20 C26 1_555 1_555
C27 C26 1_555 1_555
H21 C27 1_555 1_555
C28 C27 1_555 1_555
H22 C28 1_555 1_555
C29 C24 1_555 1_555
C30 C9 1_555 1_555
C31 C30 1_555 1_555
C32 C30 1_555 1_555
C33 C30 1_555 1_555
C34 C33 1_555 1_555
C35 H23 1_555 1_555
H24 C35 1_555 1_555
C36 C35 1_555 1_555
H25 C36 1_555 1_555
H26 C36 1_555 1_555
H27 C36 1_555 1_555
C37 C33 1_555 1_555
C38 C37 1_555 1_555
C39 H28 1_555 1_555
H29 C39 1_555 1_555
C40 C39 1_555 1_555
H30 C40 1_555 1_555
H31 C40 1_555 1_555
H32 C40 1_555 1_555
Cl1 C12 1_555 1_555
N1 C7 1_555 1_555
N2 C22 1_555 1_555
N3 C23 1_555 1_555
N4 C32 1_555 1_555
N5 C31 1_555 1_555
O1 C8 1_555 1_555
O2 C38 1_555 1_555
O3 C38 1_555 1_555
O4 C34 1_555 1_555
O5 C34 1_555 1_555
C5 C6 1_555 1_555
C8 N1 1_555 1_555
C14 C15 1_555 1_555
C15 N1 1_555 1_555
C20 C21 1_555 1_555
C23 N2 1_555 1_555
C24 N2 1_555 1_555
C28 C29 1_555 1_555
C29 N3 1_555 1_555
C35 O5 1_555 1_555
C37 N3 1_555 1_555
C39 O3 1_555 1_555

#END
