
#######################################################################
#
#                 Cambridge Crystallographic Data Centre
#                                CCDC 
#
#######################################################################
#
# If this CIF has been generated from an entry in the Cambridge 
# Structural Database, then it will include bibliographic, chemical, 
# crystal, experimental, refinement or atomic coordinate data resulting 
# from the CCDC's data processing and validation procedures.
#
#######################################################################

data_ROMYEY
_chemical_formula_moiety         'C17 H24 N2 O6'
_chemical_name_systematic        
'Methyl 5-methoxy-2-nitro-4-(3-(piperidin-1-yl)propoxy)benzoate'
_symmetry_cell_setting           monoclinic
_symmetry_space_group_name_H-M   'P 21/n'
_symmetry_Int_Tables_number      14
_space_group_name_Hall           '-P 2yn'
loop_
_symmetry_equiv_pos_site_id
_symmetry_equiv_pos_as_xyz
1 x,y,z
2 1/2-x,1/2+y,1/2-z
3 -x,-y,-z
4 1/2+x,1/2-y,1/2+z
_cell_length_a                   10.073(2)
_cell_length_b                   11.140(2)
_cell_length_c                   16.161(3)
_cell_angle_alpha                90
_cell_angle_beta                 97.23(3)
_cell_angle_gamma                90
_cell_volume                     1799.06
_exptl_crystal_colour            yellow
_exptl_crystal_description       block
_cell_formula_units_Z            4
_exptl_crystal_recrystallization_method methanol
loop_
_atom_site_label
_atom_site_type_symbol
_atom_site_fract_x
_atom_site_fract_y
_atom_site_fract_z
O1 O 1.0523(2) 0.3714(2) 0.40317(15)
O2 O 1.0082(3) 0.1757(2) 0.38640(16)
O3 O 0.7178(3) 0.5462(3) 0.32890(18)
O4 O 0.7681(3) 0.3835(3) 0.39767(17)
O5 O 0.8037(2) 0.4291(2) 0.03763(13)
O6 O 0.9697(2) 0.2550(2) 0.05972(14)
N1 N 0.7693(3) 0.4455(3) 0.33404(18)
N2 N 0.6436(2) 0.7187(2) -0.17424(16)
C1 C 1.1303(4) 0.3499(4) 0.4829(2)
H1 H 1.1646 0.4247 0.5061
H2 H 1.2035 0.2973 0.4756
H3 H 1.0748 0.3134 0.5199
C2 C 0.9964(3) 0.2764(3) 0.3627(2)
C3 C 0.9287(3) 0.3122(3) 0.27838(19)
C4 C 0.9752(3) 0.2621(3) 0.20979(19)
H4 H 1.0391 0.2015 0.2174
C5 C 0.9293(3) 0.2995(3) 0.13026(19)
C6 C 0.8349(3) 0.3941(3) 0.1185(2)
C7 C 0.7857(3) 0.4424(3) 0.18563(19)
H5 H 0.7229 0.5039 0.1782
C8 C 0.8291(3) 0.4000(3) 0.26530(19)
C9 C 1.0556(4) 0.1520(3) 0.0662(2)
H6 H 1.0762 0.1303 0.0118
H7 H 1.0112 0.0863 0.0896
H8 H 1.1368 0.1706 0.1016
C10 C 0.7202(3) 0.5334(3) 0.0212(2)
H9 H 0.7556 0.5999 0.0560
H10 H 0.6301 0.5165 0.0332
C11 C 0.7190(3) 0.5643(3) -0.0687(2)
H11 H 0.6879 0.4957 -0.1027
H12 H 0.8094 0.5827 -0.0796
C12 C 0.6288(3) 0.6713(3) -0.0931(2)
H13 H 0.5364 0.6474 -0.0922
H14 H 0.6488 0.7343 -0.0519
C13 C 0.5908(4) 0.6370(3) -0.2416(2)
H15 H 0.4957 0.6258 -0.2401
H16 H 0.6340 0.5595 -0.2326
C14 C 0.6130(5) 0.6835(4) -0.3253(2)
H17 H 0.5713 0.6294 -0.3679
H18 H 0.7083 0.6848 -0.3293
C15 C 0.5571(4) 0.8070(4) -0.3413(2)
H19 H 0.4602 0.8042 -0.3471
H20 H 0.5837 0.8382 -0.3928
C16 C 0.6085(4) 0.8881(3) -0.2698(2)
H21 H 0.5661 0.9661 -0.2779
H22 H 0.7041 0.8991 -0.2691
C17 C 0.5809(4) 0.8370(3) -0.1868(2)
H23 H 0.6163 0.8905 -0.1421
H24 H 0.4851 0.8299 -0.1860
loop_
_geom_bond_atom_site_label_1
_geom_bond_atom_site_label_2
_geom_bond_site_symmetry_1
_geom_bond_site_symmetry_2
O1 C1 1_555 1_555
O2 C2 1_555 1_555
O3 N1 1_555 1_555
O4 N1 1_555 1_555
O5 C6 1_555 1_555
O6 C5 1_555 1_555
N1 C8 1_555 1_555
N2 C12 1_555 1_555
C1 H1 1_555 1_555
H2 C1 1_555 1_555
H3 C1 1_555 1_555
C2 O1 1_555 1_555
C3 C2 1_555 1_555
C4 C3 1_555 1_555
H4 C4 1_555 1_555
C5 C4 1_555 1_555
C6 C5 1_555 1_555
C7 C6 1_555 1_555
H5 C7 1_555 1_555
C8 C3 1_555 1_555
C9 O6 1_555 1_555
H6 C9 1_555 1_555
H7 C9 1_555 1_555
H8 C9 1_555 1_555
C10 O5 1_555 1_555
H9 C10 1_555 1_555
H10 C10 1_555 1_555
C11 C10 1_555 1_555
H11 C11 1_555 1_555
H12 C11 1_555 1_555
C12 C11 1_555 1_555
H13 C12 1_555 1_555
H14 C12 1_555 1_555
C13 N2 1_555 1_555
H15 C13 1_555 1_555
H16 C13 1_555 1_555
C14 C13 1_555 1_555
H17 C14 1_555 1_555
H18 C14 1_555 1_555
C15 C14 1_555 1_555
H19 C15 1_555 1_555
H20 C15 1_555 1_555
C16 C15 1_555 1_555
H21 C16 1_555 1_555
H22 C16 1_555 1_555
C17 N2 1_555 1_555
H23 C17 1_555 1_555
H24 C17 1_555 1_555
C7 C8 1_555 1_555
C16 C17 1_555 1_555

#END
