
#######################################################################
#
#                 Cambridge Crystallographic Data Centre
#                                CCDC 
#
#######################################################################
#
# If this CIF has been generated from an entry in the Cambridge 
# Structural Database, then it will include bibliographic, chemical, 
# crystal, experimental, refinement or atomic coordinate data resulting 
# from the CCDC's data processing and validation procedures.
#
#######################################################################

data_ROMYUO
_chemical_formula_moiety         'C43 H30 N2 O8'
_chemical_name_systematic        
'Pentane-2,4-diyl bis(2-(1,8-naphthalimido)benzoate)'
_symmetry_cell_setting           triclinic
_symmetry_space_group_name_H-M   'P 1'
_symmetry_Int_Tables_number      1
_space_group_name_Hall           'P 1'
loop_
_symmetry_equiv_pos_site_id
_symmetry_equiv_pos_as_xyz
1 x,y,z
_cell_length_a                   9.2897(7)
_cell_length_b                   10.0849(7)
_cell_length_c                   11.0897(8)
_cell_angle_alpha                103.203(6)
_cell_angle_beta                 111.486(7)
_cell_angle_gamma                107.147(6)
_cell_volume                     855.114
_exptl_crystal_colour            colorless
_exptl_crystal_description       plate
_cell_formula_units_Z            1
loop_
_atom_site_label
_atom_site_type_symbol
_atom_site_fract_x
_atom_site_fract_y
_atom_site_fract_z
C1 C -0.0406(5) 0.5349(4) 0.2678(4)
H1 H -0.1447 0.5103 0.2746
H2 H 0.0282 0.6407 0.3165
H3 H -0.0657 0.5075 0.1713
C2 C 0.0551(4) 0.4505(3) 0.3334(3)
H4 H -0.0149 0.3448 0.2893
C3 C 0.2221(4) 0.4821(3) 0.3269(3)
H5 H 0.2911 0.5880 0.3736
H6 H 0.1986 0.4553 0.2308
C4 C 0.3224(4) 0.3995(3) 0.3906(3)
H7 H 0.3570 0.4319 0.4890
C5 C 0.4762(4) 0.4201(4) 0.3663(3)
H8 H 0.5356 0.3667 0.4091
H9 H 0.4391 0.3817 0.2675
H10 H 0.5507 0.5247 0.4057
O1 O 0.1007(2) 0.5014(2) 0.48349(18)
O2 O -0.1456(3) 0.3224(3) 0.4362(2)
O3 O 0.4598(2) 0.5489(2) 0.8068(2)
O4 O 0.1725(2) 0.8304(2) 0.6826(2)
N1 N 0.3194(3) 0.6924(2) 0.7465(2)
C6 C -0.0133(4) 0.4303(3) 0.5189(3)
C7 C 0.0365(3) 0.4926(3) 0.6709(3)
C8 C 0.1889(3) 0.6094(3) 0.7760(3)
C9 C 0.2212(4) 0.6523(3) 0.9143(3)
H11 H 0.3291 0.7304 0.9851
C10 C 0.0998(4) 0.5817(3) 0.9504(3)
H12 H 0.1235 0.6138 1.0467
C11 C -0.0541(4) 0.4672(3) 0.8478(3)
H13 H -0.1391 0.4185 0.8719
C12 C -0.0847(3) 0.4229(3) 0.7099(3)
H14 H -0.1909 0.3430 0.6387
C13 C 0.4519(3) 0.6475(3) 0.7612(3)
C14 C 0.5754(3) 0.7235(3) 0.7192(3)
C15 C 0.7074(3) 0.6828(3) 0.7298(3)
H15 H 0.7156 0.6038 0.7626
C16 C 0.8284(3) 0.7554(3) 0.6932(3)
H16 H 0.9202 0.7266 0.7014
C17 C 0.8155(3) 0.8666(3) 0.6450(3)
H17 H 0.9003 0.9164 0.6211
C18 C 0.6803(3) 0.9102(3) 0.6291(3)
C19 C 0.6594(3) 1.0220(3) 0.5769(3)
H18 H 0.7399 1.0719 0.5492
C20 C 0.5264(3) 1.0593(3) 0.5640(3)
H19 H 0.5147 1.1352 0.5273
C21 C 0.4059(3) 0.9879(3) 0.6025(3)
H20 H 0.3123 1.0144 0.5927
C22 C 0.4227(3) 0.8791(3) 0.6551(3)
C23 C 0.5595(3) 0.8375(3) 0.6690(3)
C24 C 0.2953(3) 0.8023(3) 0.6943(3)
O5 O 0.2080(2) 0.2392(2) 0.32080(18)
O6 O 0.2111(3) 0.2232(2) 0.5199(2)
O7 O -0.0925(2) 0.0754(2) -0.0006(2)
O8 O 0.2685(2) -0.1024(2) 0.2366(2)
N2 N 0.0849(2) -0.0209(2) 0.1095(2)
C25 C 0.1549(3) 0.1676(3) 0.3949(3)
C26 C 0.0147(3) 0.0157(3) 0.3062(3)
C27 C -0.0230(3) -0.0719(3) 0.1719(3)
C28 C -0.1613(3) -0.2085(3) 0.0974(3)
H21 H -0.1853 -0.2668 0.0053
C29 C -0.2673(4) -0.2621(3) 0.1535(3)
H22 H -0.3643 -0.3569 0.1012
C30 C -0.2299(4) -0.1778(3) 0.2864(3)
H23 H -0.3026 -0.2132 0.3261
C31 C -0.0897(4) -0.0410(3) 0.3629(3)
H24 H -0.0632 0.0152 0.4564
C32 C 0.0403(3) 0.0602(3) 0.0263(3)
C33 C 0.1596(3) 0.1228(3) -0.0253(3)
C34 C 0.1204(3) 0.1984(3) -0.1120(3)
H25 H 0.0160 0.2106 -0.1382
C35 C 0.2339(4) 0.2593(3) -0.1619(3)
H26 H 0.2076 0.3140 -0.2210
C36 C 0.3825(4) 0.2427(3) -0.1245(3)
H27 H 0.4565 0.2820 -0.1618
C37 C 0.4285(3) 0.1668(3) -0.0353(3)
C38 C 0.5813(3) 0.1466(3) 0.0062(3)
H28 H 0.6582 0.1837 -0.0295
C39 C 0.6235(3) 0.0770(3) 0.0976(3)
H29 H 0.7285 0.0658 0.1248
C40 C 0.5118(3) 0.0198(3) 0.1502(3)
H30 H 0.5425 -0.0274 0.2156
C41 C 0.3585(3) 0.0320(3) 0.1078(3)
C42 C 0.3138(3) 0.1056(3) 0.0158(3)
C43 C 0.2395(3) -0.0355(3) 0.1576(3)
loop_
_geom_bond_atom_site_label_1
_geom_bond_atom_site_label_2
_geom_bond_site_symmetry_1
_geom_bond_site_symmetry_2
C1 H1 1_555 1_555
H2 C1 1_555 1_555
H3 C1 1_555 1_555
C2 C1 1_555 1_555
H4 C2 1_555 1_555
C3 C2 1_555 1_555
H5 C3 1_555 1_555
H6 C3 1_555 1_555
C4 C3 1_555 1_555
H7 C4 1_555 1_555
C5 C4 1_555 1_555
H8 C5 1_555 1_555
H9 C5 1_555 1_555
H10 C5 1_555 1_555
O1 C2 1_555 1_555
O2 C6 1_555 1_555
O3 C13 1_555 1_555
O4 C24 1_555 1_555
N1 C8 1_555 1_555
C6 O1 1_555 1_555
C7 C6 1_555 1_555
C8 C7 1_555 1_555
C9 C8 1_555 1_555
H11 C9 1_555 1_555
C10 C9 1_555 1_555
H12 C10 1_555 1_555
C11 C10 1_555 1_555
H13 C11 1_555 1_555
C12 C7 1_555 1_555
H14 C12 1_555 1_555
C13 N1 1_555 1_555
C14 C13 1_555 1_555
C15 C14 1_555 1_555
H15 C15 1_555 1_555
C16 C15 1_555 1_555
H16 C16 1_555 1_555
C17 C16 1_555 1_555
H17 C17 1_555 1_555
C18 C17 1_555 1_555
C19 C18 1_555 1_555
H18 C19 1_555 1_555
C20 C19 1_555 1_555
H19 C20 1_555 1_555
C21 C20 1_555 1_555
H20 C21 1_555 1_555
C22 C21 1_555 1_555
C23 C14 1_555 1_555
C24 N1 1_555 1_555
O5 C4 1_555 1_555
O6 C25 1_555 1_555
O7 C32 1_555 1_555
O8 C43 1_555 1_555
N2 C27 1_555 1_555
C25 O5 1_555 1_555
C26 C25 1_555 1_555
C27 C26 1_555 1_555
C28 C27 1_555 1_555
H21 C28 1_555 1_555
C29 C28 1_555 1_555
H22 C29 1_555 1_555
C30 C29 1_555 1_555
H23 C30 1_555 1_555
C31 C26 1_555 1_555
H24 C31 1_555 1_555
C32 N2 1_555 1_555
C33 C32 1_555 1_555
C34 C33 1_555 1_555
H25 C34 1_555 1_555
C35 C34 1_555 1_555
H26 C35 1_555 1_555
C36 C35 1_555 1_555
H27 C36 1_555 1_555
C37 C36 1_555 1_555
C38 C37 1_555 1_555
H28 C38 1_555 1_555
C39 C38 1_555 1_555
H29 C39 1_555 1_555
C40 C39 1_555 1_555
H30 C40 1_555 1_555
C41 C40 1_555 1_555
C42 C33 1_555 1_555
C43 N2 1_555 1_555
C11 C12 1_555 1_555
C18 C23 1_555 1_555
C22 C23 1_555 1_555
C22 C24 1_555 1_555
C30 C31 1_555 1_555
C37 C42 1_555 1_555
C41 C42 1_555 1_555
C41 C43 1_555 1_555

#END
