
#######################################################################
#
#                 Cambridge Crystallographic Data Centre
#                                CCDC 
#
#######################################################################
#
# If this CIF has been generated from an entry in the Cambridge 
# Structural Database, then it will include bibliographic, chemical, 
# crystal, experimental, refinement or atomic coordinate data resulting 
# from the CCDC's data processing and validation procedures.
#
#######################################################################

data_ROMZEZ
_chemical_formula_moiety         'C44 H32 N4 O6,C2 H6 O1 S1,H2 O1'
_chemical_name_systematic        
"N,N'-bis(2-(1,8-Naphthalimido)benzoyl)-1,2-cyclohexanediamine dimethylsulfoxide solvate monohydrate"
_symmetry_cell_setting           monoclinic
_symmetry_space_group_name_H-M   'C 2'
_symmetry_Int_Tables_number      5
_space_group_name_Hall           'C 2y'
loop_
_symmetry_equiv_pos_site_id
_symmetry_equiv_pos_as_xyz
1 x,y,z
2 -x,y,-z
3 1/2+x,1/2+y,z
4 1/2-x,1/2+y,-z
_cell_length_a                   22.374(4)
_cell_length_b                   9.319(2)
_cell_length_c                   20.515(4)
_cell_angle_alpha                90
_cell_angle_beta                 110.14(3)
_cell_angle_gamma                90
_cell_volume                     4015.9
_exptl_crystal_colour            colorless
_exptl_crystal_description       plate
_cell_formula_units_Z            4
loop_
_atom_site_label
_atom_site_type_symbol
_atom_site_fract_x
_atom_site_fract_y
_atom_site_fract_z
S1 S 0.26183(7) 0.04156(13) 0.18233(7)
O1 O 0.2464(3) 0.1996(5) 0.1685(3)
C1 C 0.3430(2) 0.0309(6) 0.2397(3)
H1 H 0.3709 0.0585 0.2153
H2 H 0.3489 0.0945 0.2782
H3 H 0.3525 -0.0656 0.2564
C2 C 0.2257(2) -0.0160(5) 0.2422(2)
H4 H 0.1803 -0.0177 0.2200
H5 H 0.2406 -0.1104 0.2587
H6 H 0.2370 0.0497 0.2805
O3 O 0.58178(12) 0.3368(3) 0.16090(14)
O4 O 0.55143(12) -0.0680(3) 0.26693(13)
C4 C 0.56846(16) -0.1007(4) 0.15982(18)
C5 C 0.56344(18) -0.2494(4) 0.1609(2)
H7 H 0.5575 -0.2955 0.2001
C6 C 0.56751(18) -0.3306(4) 0.1050(2)
H8 H 0.5639 -0.4332 0.1059
C7 C 0.57604(18) -0.2646(4) 0.0496(2)
H9 H 0.5785 -0.3214 0.0115
C8 C 0.58718(16) -0.0420(5) -0.0115(2)
H10 H 0.5880 -0.0963 -0.0510
C9 C 0.59063(18) 0.1039(5) -0.0130(2)
H11 H 0.5951 0.1511 -0.0527
C10 C 0.58831(17) 0.1855(4) 0.0436(2)
H12 H 0.5908 0.2882 0.0420
C11 C 0.58230(16) 0.1199(4) 0.10122(18)
C12 C 0.57793(15) -0.0321(4) 0.10307(18)
C13 C 0.58143(16) -0.1143(4) 0.04658(19)
C14 C 0.56343(16) -0.0165(4) 0.2182(2)
C15 C 0.57977(16) 0.2056(4) 0.16004(19)
N1 N 0.57443(13) 0.1316(3) 0.21705(14)
C16 C 0.57293(16) 0.2165(4) 0.27570(18)
C17 C 0.51937(15) 0.2957(4) 0.27352(17)
C18 C 0.52226(16) 0.3755(4) 0.33176(19)
H13 H 0.4860 0.4316 0.3310
C19 C 0.57630(16) 0.3751(4) 0.39107(19)
H14 H 0.5770 0.4285 0.4313
C20 C 0.62901(16) 0.2990(4) 0.39176(19)
H15 H 0.6668 0.3002 0.4323
C21 C 0.62791(16) 0.2194(4) 0.33391(19)
H16 H 0.6649 0.1665 0.3344
C22 C 0.45977(16) 0.2919(4) 0.21087(18)
O5 O 0.44325(11) 0.1828(3) 0.17515(13)
C23 C 0.45056(17) 0.7657(4) 0.41224(18)
C24 C 0.51044(16) 0.7480(4) 0.40899(18)
H17 H 0.5263 0.6529 0.4074
C25 C 0.54818(16) 0.8681(4) 0.40802(18)
H18 H 0.5900 0.8551 0.4058
C26 C 0.52607(17) 1.0038(4) 0.41060(17)
H19 H 0.5518 1.0852 0.4090
C27 C 0.44035(18) 1.1650(4) 0.41995(19)
H20 H 0.4655 1.2484 0.4198
C28 C 0.38173(18) 1.1813(4) 0.42587(19)
H21 H 0.3668 1.2758 0.4310
C29 C 0.34403(17) 1.0615(4) 0.42542(18)
H22 H 0.3022 1.0739 0.4278
C30 C 0.36550(16) 0.9255(4) 0.41991(18)
C31 C 0.42682(17) 0.9048(4) 0.41545(18)
C32 C 0.46496(16) 1.0267(4) 0.41507(17)
C33 C 0.41058(17) 0.6389(4) 0.40964(18)
C34 C 0.32397(17) 0.8013(4) 0.41570(18)
O6 O 0.42761(11) 0.5159(3) 0.40671(13)
O7 O 0.26981(12) 0.8121(3) 0.41679(13)
N2 N 0.34856(13) 0.6649(3) 0.41005(14)
C35 C 0.30271(15) 0.5490(4) 0.38942(18)
C36 C 0.28144(15) 0.4984(4) 0.32101(18)
C37 C 0.23462(16) 0.3912(4) 0.30367(19)
H23 H 0.2180 0.3566 0.2568
C38 C 0.21104(17) 0.3361(4) 0.3531(2)
H24 H 0.1792 0.2622 0.3404
C39 C 0.23342(16) 0.3864(4) 0.4201(2)
H25 H 0.2172 0.3474 0.4540
C40 C 0.27978(16) 0.4932(4) 0.43851(19)
H26 H 0.2957 0.5288 0.4853
C41 C 0.30576(16) 0.5595(4) 0.26644(18)
O8 O 0.32622(12) 0.6843(3) 0.27135(13)
N3 N 0.42492(13) 0.4138(3) 0.19772(14)
H27 H 0.4422 0.5040 0.2220
N4 N 0.30285(12) 0.4734(3) 0.21312(14)
H28 H 0.2906 0.3751 0.2176
C42 C 0.36611(16) 0.4247(4) 0.13762(17)
H29 H 0.3476 0.3308 0.1271
C43 C 0.31785(15) 0.5237(4) 0.15297(16)
H30 H 0.3361 0.6178 0.1629
C44 C 0.25701(16) 0.5331(5) 0.08933(17)
H31 H 0.2274 0.5976 0.0985
H32 H 0.2378 0.4397 0.0806
C45 C 0.27076(17) 0.5838(4) 0.02541(19)
H33 H 0.2862 0.6807 0.0325
H34 H 0.2322 0.5827 -0.0141
C46 C 0.31989(17) 0.4890(4) 0.01058(19)
H35 H 0.3296 0.5260 -0.0283
H36 H 0.3029 0.3940 -0.0009
C47 C 0.38028(16) 0.4802(4) 0.07450(17)
H37 H 0.4108 0.4190 0.0651
H38 H 0.3984 0.5745 0.0848
O9 O 0.44891(13) 0.7142(3) 0.23985(14)
H39 H 0.4145 0.7372 0.2574
H40 H 0.4804 0.7916 0.2493
S2? S 0.2958(6) 0.0662(11) 0.2266(5)
O2? O 0.2651(16) 0.199(3) 0.1839(19)
C3? C 0.3181(15) -0.038(3) 0.1697(17)
loop_
_geom_bond_atom_site_label_1
_geom_bond_atom_site_label_2
_geom_bond_site_symmetry_1
_geom_bond_site_symmetry_2
S1 O1 1_555 1_555
C1 S1 1_555 1_555
H1 C1 1_555 1_555
H2 C1 1_555 1_555
H3 C1 1_555 1_555
C2 S1 1_555 1_555
H4 C2 1_555 1_555
H5 C2 1_555 1_555
H6 C2 1_555 1_555
O3 C15 1_555 1_555
O4 C14 1_555 1_555
C4 C5 1_555 1_555
C5 H7 1_555 1_555
C6 C5 1_555 1_555
H8 C6 1_555 1_555
C7 C6 1_555 1_555
H9 C7 1_555 1_555
C8 H10 1_555 1_555
C9 C8 1_555 1_555
H11 C9 1_555 1_555
C10 C9 1_555 1_555
H12 C10 1_555 1_555
C11 C10 1_555 1_555
C12 C4 1_555 1_555
C13 C7 1_555 1_555
C14 C4 1_555 1_555
C15 C11 1_555 1_555
N1 C14 1_555 1_555
C16 N1 1_555 1_555
C17 C16 1_555 1_555
C18 C17 1_555 1_555
H13 C18 1_555 1_555
C19 C18 1_555 1_555
H14 C19 1_555 1_555
C20 C19 1_555 1_555
H15 C20 1_555 1_555
C21 C16 1_555 1_555
H16 C21 1_555 1_555
C22 C17 1_555 1_555
O5 C22 1_555 1_555
C23 C24 1_555 1_555
C24 H17 1_555 1_555
C25 C24 1_555 1_555
H18 C25 1_555 1_555
C26 C25 1_555 1_555
H19 C26 1_555 1_555
C27 H20 1_555 1_555
C28 C27 1_555 1_555
H21 C28 1_555 1_555
C29 C28 1_555 1_555
H22 C29 1_555 1_555
C30 C29 1_555 1_555
C31 C23 1_555 1_555
C32 C26 1_555 1_555
C33 C23 1_555 1_555
C34 C30 1_555 1_555
O6 C33 1_555 1_555
O7 C34 1_555 1_555
N2 C33 1_555 1_555
C35 N2 1_555 1_555
C36 C35 1_555 1_555
C37 C36 1_555 1_555
H23 C37 1_555 1_555
C38 C37 1_555 1_555
H24 C38 1_555 1_555
C39 C38 1_555 1_555
H25 C39 1_555 1_555
C40 C35 1_555 1_555
H26 C40 1_555 1_555
C41 C36 1_555 1_555
O8 C41 1_555 1_555
N3 C22 1_555 1_555
H27 N3 1_555 1_555
N4 C41 1_555 1_555
H28 N4 1_555 1_555
C42 N3 1_555 1_555
H29 C42 1_555 1_555
C43 N4 1_555 1_555
H30 C43 1_555 1_555
C44 C43 1_555 1_555
H31 C44 1_555 1_555
H32 C44 1_555 1_555
C45 C44 1_555 1_555
H33 C45 1_555 1_555
H34 C45 1_555 1_555
C46 C45 1_555 1_555
H35 C46 1_555 1_555
H36 C46 1_555 1_555
C47 C42 1_555 1_555
H37 C47 1_555 1_555
H38 C47 1_555 1_555
O9 H39 1_555 1_555
H40 O9 1_555 1_555
C8 C13 1_555 1_555
C11 C12 1_555 1_555
C12 C13 1_555 1_555
C15 N1 1_555 1_555
C20 C21 1_555 1_555
C27 C32 1_555 1_555
C30 C31 1_555 1_555
C31 C32 1_555 1_555
C34 N2 1_555 1_555
C39 C40 1_555 1_555
C42 C43 1_555 1_555
C46 C47 1_555 1_555

#END
