
#######################################################################
#
#                 Cambridge Crystallographic Data Centre
#                                CCDC 
#
#######################################################################
#
# If this CIF has been generated from an entry in the Cambridge 
# Structural Database, then it will include bibliographic, chemical, 
# crystal, experimental, refinement or atomic coordinate data resulting 
# from the CCDC's data processing and validation procedures.
#
#######################################################################

data_RONCIH
_chemical_formula_moiety         
'C40 H44 N24 O12,C12 H13 N2 1+,Cl1 1-,21(H2 O1)'
_chemical_name_systematic        
"o-Tetramethyl-cucurbit(6)uril 5,5'-dimethyl-2,2'-bipyridin-1-ium clathrate chloride henicosahydrate"
_symmetry_cell_setting           triclinic
_symmetry_space_group_name_H-M   'P -1'
_symmetry_Int_Tables_number      2
_space_group_name_Hall           '-P 1'
loop_
_symmetry_equiv_pos_site_id
_symmetry_equiv_pos_as_xyz
1 x,y,z
2 -x,-y,-z
_cell_length_a                   11.9579(8)
_cell_length_b                   12.9279(9)
_cell_length_c                   24.2210(17)
_cell_angle_alpha                103.167(2)
_cell_angle_beta                 92.927(2)
_cell_angle_gamma                93.684(2)
_cell_volume                     3630.04
_exptl_crystal_colour            colorless
_cell_formula_units_Z            2
loop_
_atom_site_label
_atom_site_type_symbol
_atom_site_fract_x
_atom_site_fract_y
_atom_site_fract_z
Cl1 Cl 1.0901(3) 1.5997(4) 0.44115(19)
O1 O 0.1983(3) 1.3890(4) 0.44564(19)
O2 O 0.6901(5) 0.7903(4) 0.4344(2)
O3 O 0.8968(5) 1.7122(4) 0.4723(2)
O4 O 0.4999(5) 1.3054(4) 0.5293(2)
O5 O 1.0669(5) 1.6183(5) 0.3014(3)
O6 O 0.9926(5) 1.1805(9) 0.1054(3)
O7 O 0.2712(6) 0.6922(7) 0.2667(6)
O8 O 0.8092(6) 1.1303(8) 0.0303(2)
O9 O 0.6813(7) 1.3530(6) 0.6050(3)
O10 O 1.0745(7) 0.9343(15) 0.0664(3)
O11 O 1.1346(7) 1.1598(16) 0.0164(4)
O12 O 0.825(2) 1.3888(9) 0.1166(10)
O13 O 1.0015(12) 1.3649(15) 0.1569(4)
O14 O 0.7071(11) 1.291(2) 0.0390(7)
O15 O 0.476(3) 1.427(2) 0.0269(11)
O16 O 0.1821(13) 0.7226(13) 0.1149(9)
O17 O 0.9803(11) 1.882(2) 0.4541(6)
O18 O 1.139(2) 1.534(2) 0.1755(15)
O19 O 0.599(4) 1.424(3) -0.0220(19)
O20 O 1.2514(19) 1.376(2) 0.0567(7)
O21 O 1.017(3) 1.300(2) -0.0447(11)
C1 C 0.8221(3) 0.9840(3) 0.36056(15)
C2 C 0.9809(3) 0.9622(3) 0.30678(15)
C3 C 0.9888(3) 1.0787(3) 0.34704(14)
C4 C 0.9949(3) 1.0892(3) 0.25141(15)
C5 C 0.8530(3) 1.1643(3) 0.42058(14)
H1 H 0.7929 1.1361 0.4397
H2 H 0.9179 1.1839 0.4475
C6 C 1.0306(3) 1.2582(3) 0.32174(17)
H3 H 1.0619 1.2786 0.2893
H4 H 1.0894 1.2714 0.3521
C7 C 0.7180(3) 1.2994(3) 0.42057(14)
C8 C 0.8994(3) 1.3422(3) 0.39624(15)
H5 H 0.9614 1.3568 0.4256
C9 C 0.8286(3) 1.4392(3) 0.39988(16)
H6 H 0.8617 1.5012 0.4287
C10 C 0.9035(3) 1.3967(3) 0.31098(17)
C11 C 0.6303(3) 1.4702(3) 0.42973(16)
H7 H 0.6622 1.5413 0.4482
H8 H 0.5861 1.4437 0.4568
C12 C 0.7834(3) 1.5473(3) 0.32700(19)
H9 H 0.7927 1.6082 0.3593
H10 H 0.8249 1.5656 0.2967
C13 C 0.4536(3) 1.4221(3) 0.36910(17)
C14 C 0.5760(3) 1.5503(3) 0.34496(17)
H11 H 0.5823 1.6245 0.3667
C15 C 0.4690(3) 1.5252(3) 0.30266(17)
H12 H 0.4257 1.5879 0.3056
C16 C 0.6304(3) 1.5010(3) 0.25187(18)
C17 C 0.2938(3) 1.3990(3) 0.29803(17)
H13 H 0.2548 1.3762 0.3279
H14 H 0.2538 1.4555 0.2877
C18 C 0.4503(4) 1.4707(3) 0.19444(18)
H15 H 0.4971 1.4861 0.1653
H16 H 0.3883 1.5160 0.1968
C19 C 0.2819(3) 1.2060(3) 0.25291(17)
C20 C 0.2965(3) 1.3215(3) 0.19143(16)
H17 H 0.2370 1.3632 0.1806
C21 C 0.2833(3) 1.2057(3) 0.15618(16)
H18 H 0.2121 1.1906 0.1330
C22 C 0.4471(3) 1.2903(3) 0.13291(16)
C23 C 0.2523(3) 1.0308(3) 0.18667(17)
H19 H 0.1887 1.0166 0.1588
H20 H 0.2274 1.0123 0.2209
C24 C 0.3911(4) 1.1106(3) 0.07341(15)
H21 H 0.3186 1.0887 0.0527
H22 H 0.4411 1.1352 0.0479
C25 C 0.3795(3) 0.8912(3) 0.19350(18)
C26 C 0.3649(3) 0.9390(3) 0.10594(15)
H23 H 0.2964 0.9183 0.0808
C27 C 0.4422(3) 0.8453(3) 0.10156(16)
H24 H 0.4102 0.7815 0.0737
C28 C 0.5378(3) 0.9859(3) 0.07363(14)
C29 C 0.4936(3) 0.7350(3) 0.17238(19)
H25 H 0.4543 0.7176 0.2035
H26 H 0.4789 0.6753 0.1398
C30 C 0.6409(3) 0.8250(3) 0.06812(16)
H27 H 0.6135 0.7540 0.0472
H28 H 0.6847 0.8577 0.0431
C31 C 0.6525(3) 0.7691(3) 0.24398(17)
C32 C 0.7013(3) 0.7343(3) 0.14867(15)
C33 C 0.8128(3) 0.7595(3) 0.19091(15)
C34 C 0.8105(3) 0.8807(3) 0.13166(15)
C35 C 0.8328(3) 0.8049(3) 0.29994(16)
H29 H 0.8962 0.7612 0.2964
H30 H 0.7869 0.7850 0.3283
C36 C 0.9763(3) 0.9036(3) 0.19761(15)
H31 H 1.0243 0.8488 0.2034
H32 H 1.0077 0.9359 0.1688
C37 C 1.0796(4) 0.8956(4) 0.3155(2)
H33 H 1.1478 0.9292 0.3062
H34 H 1.0662 0.8254 0.2913
H35 H 1.0865 0.8906 0.3545
C38 C 1.0890(4) 1.1033(4) 0.39087(18)
H36 H 1.0820 1.0574 0.4168
H37 H 1.0909 1.1763 0.4115
H38 H 1.1572 1.0916 0.3719
C39 C 0.6898(4) 0.6236(3) 0.10865(19)
H39 H 0.6818 0.5704 0.1305
H40 H 0.7555 0.6132 0.0875
H41 H 0.6247 0.6175 0.0829
C40 C 0.8920(4) 0.6693(3) 0.1829(2)
H42 H 0.9195 0.6579 0.1456
H43 H 0.8521 0.6051 0.1872
H44 H 0.9541 0.6884 0.2110
N1 N 0.8747(3) 0.9152(2) 0.32020(13)
N2 N 0.8810(2) 1.0810(2) 0.37329(12)
N3 N 0.9783(2) 0.9839(2) 0.25000(12)
N4 N 0.9967(2) 1.1461(2) 0.30653(12)
N5 N 0.8184(2) 1.2591(2) 0.40442(12)
N6 N 0.7207(2) 1.4020(2) 0.41481(13)
N7 N 0.9398(2) 1.3249(2) 0.34001(13)
N8 N 0.8311(3) 1.4580(2) 0.34307(14)
N9 N 0.5566(3) 1.4767(2) 0.38122(13)
N10 N 0.4070(3) 1.4415(3) 0.32025(14)
N11 N 0.6670(3) 1.5283(2) 0.30838(15)
N12 N 0.5154(3) 1.4965(2) 0.24805(14)
N13 N 0.2898(3) 1.3110(3) 0.24952(13)
N14 N 0.2873(2) 1.1430(2) 0.19935(13)
N15 N 0.4061(3) 1.3603(2) 0.17775(14)
N16 N 0.3779(3) 1.1985(3) 0.12136(13)
N17 N 0.3405(3) 0.9632(2) 0.16494(13)
N18 N 0.4483(3) 0.8279(2) 0.15859(14)
N19 N 0.4350(3) 1.0200(2) 0.08938(13)
N20 N 0.5452(3) 0.8873(3) 0.08398(13)
N21 N 0.6126(2) 0.7478(2) 0.18806(14)
N22 N 0.7672(2) 0.7805(2) 0.24623(12)
N23 N 0.7133(2) 0.8168(2) 0.11684(12)
N24 N 0.8653(2) 0.8535(2) 0.17642(12)
O22 O 0.7366(2) 0.9619(2) 0.38248(12)
O23 O 0.6403(2) 1.2511(2) 0.43740(11)
O24 O 0.4112(2) 1.3649(2) 0.39767(12)
O25 O 0.2692(2) 1.1746(2) 0.29612(12)
O26 O 0.3571(2) 0.8847(2) 0.24092(13)
O27 O 0.5950(2) 0.7708(2) 0.28447(12)
O28 O 1.0099(2) 1.1279(2) 0.21027(11)
O29 O 0.9339(2) 1.4068(2) 0.26493(13)
O30 O 0.6908(3) 1.4852(2) 0.21200(13)
O31 O 0.5283(3) 1.3073(2) 0.10739(13)
O32 O 0.6082(2) 1.0354(2) 0.05240(11)
O33 O 0.8429(2) 0.9507(2) 0.10842(12)
C41 C 0.3176(7) -0.0836(7) 0.4722(3)
H45 H 0.2787 -0.0286 0.4952
H46 H 0.3710 -0.1092 0.4958
H47 H 0.2646 -0.1413 0.4533
C42 C 0.3782(4) -0.0394(5) 0.4285(2)
C43 C 0.3702(4) 0.0659(5) 0.42737(17)
H48 H 0.3273 0.1075 0.4534
C44 C 0.4399(5) -0.0960(4) 0.3892(2)
H49 H 0.4455 -0.1680 0.3878
C45 C 0.4255(3) 0.1128(3) 0.38756(15)
H50 H 0.4197 0.1841 0.3875
N25 N 0.4931(3) -0.0521(3) 0.35219(16)
H51 H 0.5333 -0.0912 0.3287
C46 C 0.4871(3) 0.0506(3) 0.34965(15)
C47 C 0.5495(3) 0.0892(3) 0.30648(14)
C48 C 0.5461(3) 0.1918(3) 0.30217(17)
H52 H 0.5038 0.2383 0.3261
N26 N 0.6109(4) 0.0194(3) 0.27293(17)
C49 C 0.6059(4) 0.2258(3) 0.26219(19)
H53 H 0.6037 0.2961 0.2592
C50 C 0.6681(5) 0.0552(4) 0.2342(2)
H54 H 0.7104 0.0076 0.2108
C51 C 0.6690(3) 0.1587(3) 0.22634(15)
C52 C 0.7367(4) 0.1931(4) 0.18206(19)
H55 H 0.7743 0.1340 0.1619
H56 H 0.7913 0.2500 0.2002
H57 H 0.6876 0.2174 0.1559
loop_
_geom_bond_atom_site_label_1
_geom_bond_atom_site_label_2
_geom_bond_site_symmetry_1
_geom_bond_site_symmetry_2
C1 N1 1_555 1_555
C2 C3 1_555 1_555
C3 C38 1_555 1_555
C4 N3 1_555 1_555
C5 H1 1_555 1_555
H2 C5 1_555 1_555
C6 H3 1_555 1_555
H4 C6 1_555 1_555
C7 N5 1_555 1_555
C8 H5 1_555 1_555
C9 C8 1_555 1_555
H6 C9 1_555 1_555
C10 N7 1_555 1_555
C11 H7 1_555 1_555
H8 C11 1_555 1_555
C12 H9 1_555 1_555
H10 C12 1_555 1_555
C13 N9 1_555 1_555
C14 H11 1_555 1_555
C15 C14 1_555 1_555
H12 C15 1_555 1_555
C16 N11 1_555 1_555
C17 H13 1_555 1_555
H14 C17 1_555 1_555
C18 H15 1_555 1_555
H16 C18 1_555 1_555
C19 N13 1_555 1_555
C20 H17 1_555 1_555
C21 C20 1_555 1_555
H18 C21 1_555 1_555
C22 N15 1_555 1_555
C23 H19 1_555 1_555
H20 C23 1_555 1_555
C24 H21 1_555 1_555
H22 C24 1_555 1_555
C25 N17 1_555 1_555
C26 H23 1_555 1_555
C27 C26 1_555 1_555
H24 C27 1_555 1_555
C28 N19 1_555 1_555
C29 H25 1_555 1_555
H26 C29 1_555 1_555
C30 H27 1_555 1_555
H28 C30 1_555 1_555
C31 N21 1_555 1_555
C32 C33 1_555 1_555
C33 C40 1_555 1_555
C34 N23 1_555 1_555
C35 H29 1_555 1_555
H30 C35 1_555 1_555
C36 H31 1_555 1_555
H32 C36 1_555 1_555
C37 C2 1_555 1_555
H33 C37 1_555 1_555
H34 C37 1_555 1_555
H35 C37 1_555 1_555
C38 H36 1_555 1_555
H37 C38 1_555 1_555
H38 C38 1_555 1_555
C39 C32 1_555 1_555
H39 C39 1_555 1_555
H40 C39 1_555 1_555
H41 C39 1_555 1_555
C40 H42 1_555 1_555
H43 C40 1_555 1_555
H44 C40 1_555 1_555
N1 C2 1_555 1_555
N2 C1 1_555 1_555
N3 C2 1_555 1_555
N4 C3 1_555 1_555
N5 C5 1_555 1_555
N6 C7 1_555 1_555
N7 C6 1_555 1_555
N8 C9 1_555 1_555
N9 C11 1_555 1_555
N10 C13 1_555 1_555
N11 C12 1_555 1_555
N12 C15 1_555 1_555
N13 C17 1_555 1_555
N14 C19 1_555 1_555
N15 C18 1_555 1_555
N16 C21 1_555 1_555
N17 C23 1_555 1_555
N18 C25 1_555 1_555
N19 C24 1_555 1_555
N20 C27 1_555 1_555
N21 C29 1_555 1_555
N22 C31 1_555 1_555
N23 C30 1_555 1_555
N24 C33 1_555 1_555
O22 C1 1_555 1_555
O23 C7 1_555 1_555
O24 C13 1_555 1_555
O25 C19 1_555 1_555
O26 C25 1_555 1_555
O27 C31 1_555 1_555
O28 C4 1_555 1_555
O29 C10 1_555 1_555
O30 C16 1_555 1_555
O31 C22 1_555 1_555
O32 C28 1_555 1_555
O33 C34 1_555 1_555
C41 H45 1_555 1_555
H46 C41 1_555 1_555
H47 C41 1_555 1_555
C42 C41 1_555 1_555
C43 C42 1_555 1_555
H48 C43 1_555 1_555
C44 C42 1_555 1_555
H49 C44 1_555 1_555
C45 C43 1_555 1_555
H50 C45 1_555 1_555
N25 C44 1_555 1_555
H51 N25 1_555 1_555
C46 C45 1_555 1_555
C47 C46 1_555 1_555
C48 C47 1_555 1_555
H52 C48 1_555 1_555
N26 C47 1_555 1_555
C49 C48 1_555 1_555
H53 C49 1_555 1_555
C50 N26 1_555 1_555
H54 C50 1_555 1_555
C51 C49 1_555 1_555
C52 C51 1_555 1_555
H55 C52 1_555 1_555
H56 C52 1_555 1_555
H57 C52 1_555 1_555
C3 N2 1_555 1_555
C4 N4 1_555 1_555
C5 N2 1_555 1_555
C6 N4 1_555 1_555
C8 N5 1_555 1_555
C8 N7 1_555 1_555
C9 N6 1_555 1_555
C10 N8 1_555 1_555
C11 N6 1_555 1_555
C12 N8 1_555 1_555
C14 N9 1_555 1_555
C14 N11 1_555 1_555
C15 N10 1_555 1_555
C16 N12 1_555 1_555
C17 N10 1_555 1_555
C18 N12 1_555 1_555
C20 N13 1_555 1_555
C20 N15 1_555 1_555
C21 N14 1_555 1_555
C22 N16 1_555 1_555
C23 N14 1_555 1_555
C24 N16 1_555 1_555
C26 N17 1_555 1_555
C26 N19 1_555 1_555
C27 N18 1_555 1_555
C28 N20 1_555 1_555
C29 N18 1_555 1_555
C30 N20 1_555 1_555
C32 N21 1_555 1_555
C32 N23 1_555 1_555
C33 N22 1_555 1_555
C34 N24 1_555 1_555
C35 N1 1_555 1_555
C35 N22 1_555 1_555
C36 N3 1_555 1_555
C36 N24 1_555 1_555
N25 C46 1_555 1_555
C50 C51 1_555 1_555

#END
