
#######################################################################
#
#                 Cambridge Crystallographic Data Centre
#                                CCDC 
#
#######################################################################
#
# If this CIF has been generated from an entry in the Cambridge 
# Structural Database, then it will include bibliographic, chemical, 
# crystal, experimental, refinement or atomic coordinate data resulting 
# from the CCDC's data processing and validation procedures.
#
#######################################################################

data_RONGOS
_chemical_formula_moiety         'C24 H26 N2 O1'
_chemical_name_systematic        
(6,11b-dimethyl-6a,7a,8,9,10,11,11a,11b-octahydro-7H-benzo[c]carbazol-7-yl)(pyridin-2-yl)methanone
_symmetry_cell_setting           orthorhombic
_symmetry_space_group_name_H-M   'P 21 21 21'
_symmetry_Int_Tables_number      19
_space_group_name_Hall           'P 2ac 2ab'
loop_
_symmetry_equiv_pos_site_id
_symmetry_equiv_pos_as_xyz
1 x,y,z
2 1/2-x,-y,1/2+z
3 1/2+x,1/2-y,-z
4 -x,1/2+y,1/2-z
_cell_length_a                   8.961(3)
_cell_length_b                   11.404(4)
_cell_length_c                   19.425(7)
_cell_angle_alpha                90
_cell_angle_beta                 90
_cell_angle_gamma                90
_cell_volume                     1985.06
_exptl_crystal_colour            colorless
_exptl_crystal_description       block
_cell_formula_units_Z            4
loop_
_atom_site_label
_atom_site_type_symbol
_atom_site_fract_x
_atom_site_fract_y
_atom_site_fract_z
O1 O -0.5264(2) -0.2480(2) -0.16725(11)
N1 N -0.7467(2) -0.27376(18) -0.22276(10)
N2 N -0.8343(4) -0.0977(2) -0.11736(14)
C1 C -0.9099(3) -0.2601(2) -0.23104(12)
H1 H -0.9348 -0.1768 -0.2267
C2 C -1.0122(3) -0.3296(3) -0.18434(14)
H2 H -0.9950 -0.3083 -0.1367
H3 H -0.9933 -0.4129 -0.1895
C3 C -1.1730(3) -0.3012(3) -0.20485(16)
H4 H -1.2403 -0.3501 -0.1783
H5 H -1.1941 -0.2201 -0.1933
C4 C -1.2036(3) -0.3202(4) -0.28148(17)
H6 H -1.3025 -0.2910 -0.2923
H7 H -1.2024 -0.4036 -0.2911
C5 C -1.0894(3) -0.2588(3) -0.32808(15)
H8 H -1.1061 -0.2805 -0.3758
H9 H -1.0992 -0.1744 -0.3240
C6 C -0.9343(3) -0.2973(2) -0.30532(13)
H10 H -0.9334 -0.3832 -0.3061
C7 C -0.7908(3) -0.2558(2) -0.34245(13)
C8 C -0.6744(3) -0.3006(2) -0.28987(12)
H11 H -0.5838 -0.2530 -0.2941
C9 C -0.6330(3) -0.4282(2) -0.29735(14)
C10 C -0.6415(3) -0.4783(3) -0.35897(16)
H12 H -0.6060 -0.5545 -0.3638
C11 C -0.7034(4) -0.4204(3) -0.41941(15)
C12 C -0.6961(5) -0.4741(4) -0.48400(18)
H13 H -0.6450 -0.5446 -0.4887
C13 C -0.7628(6) -0.4248(5) -0.54066(18)
H14 H -0.7564 -0.4616 -0.5833
C14 C -0.8380(5) -0.3221(5) -0.53409(17)
H15 H -0.8847 -0.2894 -0.5723
C15 C -0.8460(4) -0.2655(4) -0.47098(15)
H16 H -0.8975 -0.1950 -0.4673
C16 C -0.7774(3) -0.3136(3) -0.41278(14)
C17 C -0.7800(4) -0.1220(2) -0.34718(17)
H17 H -0.7795 -0.0892 -0.3017
H18 H -0.8642 -0.0922 -0.3722
H19 H -0.6897 -0.1008 -0.3706
C18 C -0.5746(4) -0.4925(3) -0.23595(17)
H20 H -0.4917 -0.4504 -0.2168
H21 H -0.5427 -0.5695 -0.2496
H22 H -0.6520 -0.4991 -0.2020
C19 C -0.6637(3) -0.2385(2) -0.16873(13)
C20 C -0.7401(3) -0.1854(2) -0.10727(13)
C21 C -0.7055(5) -0.2278(4) -0.04295(17)
H23 H -0.6389 -0.2896 -0.0374
C22 C -0.7733(6) -0.1752(5) 0.01354(18)
H24 H -0.7541 -0.2026 0.0577
C23 C -0.8667(5) -0.0847(4) 0.00395(19)
H25 H -0.9117 -0.0477 0.0412
C24 C -0.8942(5) -0.0481(4) -0.0617(2)
H26 H -0.9585 0.0151 -0.0680
loop_
_geom_bond_atom_site_label_1
_geom_bond_atom_site_label_2
_geom_bond_site_symmetry_1
_geom_bond_site_symmetry_2
O1 C19 1_555 1_555
N1 C1 1_555 1_555
N2 C20 1_555 1_555
C1 H1 1_555 1_555
C2 C1 1_555 1_555
H2 C2 1_555 1_555
H3 C2 1_555 1_555
C3 C2 1_555 1_555
H4 C3 1_555 1_555
H5 C3 1_555 1_555
C4 C3 1_555 1_555
H6 C4 1_555 1_555
H7 C4 1_555 1_555
C5 C4 1_555 1_555
H8 C5 1_555 1_555
H9 C5 1_555 1_555
C6 C1 1_555 1_555
H10 C6 1_555 1_555
C7 C6 1_555 1_555
C8 N1 1_555 1_555
H11 C8 1_555 1_555
C9 C8 1_555 1_555
C10 C9 1_555 1_555
H12 C10 1_555 1_555
C11 C10 1_555 1_555
C12 C11 1_555 1_555
H13 C12 1_555 1_555
C13 C12 1_555 1_555
H14 C13 1_555 1_555
C14 C13 1_555 1_555
H15 C14 1_555 1_555
C15 C14 1_555 1_555
H16 C15 1_555 1_555
C16 C7 1_555 1_555
C17 C7 1_555 1_555
H17 C17 1_555 1_555
H18 C17 1_555 1_555
H19 C17 1_555 1_555
C18 C9 1_555 1_555
H20 C18 1_555 1_555
H21 C18 1_555 1_555
H22 C18 1_555 1_555
C19 N1 1_555 1_555
C20 C19 1_555 1_555
C21 C20 1_555 1_555
H23 C21 1_555 1_555
C22 C21 1_555 1_555
H24 C22 1_555 1_555
C23 C22 1_555 1_555
H25 C23 1_555 1_555
C24 N2 1_555 1_555
H26 C24 1_555 1_555
C5 C6 1_555 1_555
C7 C8 1_555 1_555
C11 C16 1_555 1_555
C15 C16 1_555 1_555
C23 C24 1_555 1_555

#END
