
#######################################################################
#
#                 Cambridge Crystallographic Data Centre
#                                CCDC 
#
#######################################################################
#
# If this CIF has been generated from an entry in the Cambridge 
# Structural Database, then it will include bibliographic, chemical, 
# crystal, experimental, refinement or atomic coordinate data resulting 
# from the CCDC's data processing and validation procedures.
#
#######################################################################

data_RONGUY
_chemical_formula_moiety         'C14 H14 N2 O2'
_chemical_name_systematic        
5-(7-hydroxy-2,3-dihydro-1H-inden-1-ylidene)-2,3-dimethyl-3,5-dihydro-4H-imidazol-4-one
_symmetry_cell_setting           orthorhombic
_symmetry_space_group_name_H-M   'A m a 2'
_symmetry_Int_Tables_number      40
_space_group_name_Hall           'A 2 -2a'
loop_
_symmetry_equiv_pos_site_id
_symmetry_equiv_pos_as_xyz
1 x,y,z
2 -x,-y,z
3 1/2+x,-y,z
4 1/2-x,y,z
5 x,1/2+y,1/2+z
6 -x,1/2-y,1/2+z
7 1/2+x,1/2-y,1/2+z
8 1/2-x,1/2+y,1/2+z
_cell_length_a                   6.8074(6)
_cell_length_b                   21.719(2)
_cell_length_c                   7.9131(7)
_cell_angle_alpha                90
_cell_angle_beta                 90
_cell_angle_gamma                90
_cell_volume                     1169.95
_exptl_crystal_colour            yellow
_exptl_crystal_description       rod
_cell_formula_units_Z            4
loop_
_atom_site_label
_atom_site_type_symbol
_atom_site_fract_x
_atom_site_fract_y
_atom_site_fract_z
O1 O 0.7500 1.06809(8) -0.1658(2)
O2 O 0.7500 0.89776(8) 0.3771(3)
H1 H 0.7500 0.9353(17) 0.353(5)
N1 N 0.7500 1.09565(9) 0.1159(3)
N2 N 0.7500 1.00488(9) 0.2434(3)
C1 C 0.7500 1.06390(10) 0.2667(3)
C2 C 0.7500 1.05418(11) -0.0164(3)
C3 C 0.7500 0.99411(10) 0.0690(3)
C4 C 0.7500 0.93830(11) -0.0045(3)
C5 C 0.7500 0.87747(9) 0.0761(3)
C6 C 0.7500 0.85965(10) 0.2466(3)
C7 C 0.7500 0.79676(11) 0.2824(4)
H2 H 0.7500 0.7837 0.3970
C8 C 0.7500 0.75278(11) 0.1559(4)
H3 H 0.7500 0.7103 0.1847
C9 C 0.7500 0.77015(11) -0.0117(4)
H4 H 0.7500 0.7399 -0.0985
C10 C 0.7500 0.83206(11) -0.0518(3)
C11 C 0.7500 1.16210(10) 0.0926(4)
C12 C 0.7500 1.09541(12) 0.4322(3)
C13 C 0.7500 0.85984(12) -0.2246(4)
H5 H 0.6317 0.8472 -0.2886
C14 C 0.7500 0.92940(11) -0.1938(3)
H6 H 0.8681 0.9485 -0.2446
H5C H 0.8683 0.8472 -0.2886
H6C H 0.6319 0.9485 -0.2446
H7? H 0.6317 0.8472 -0.2886
H8? H 0.8681 0.9485 -0.2446
H9? H 0.8795 1.1786 0.1219
H10? H 0.6502 1.1807 0.1658
H11? H 0.7203 1.1717 -0.0257
H12? H 0.7245 1.0653 0.5219
H13? H 0.6473 1.1270 0.4334
H14? H 0.8782 1.1148 0.4510
loop_
_geom_bond_atom_site_label_1
_geom_bond_atom_site_label_2
_geom_bond_site_symmetry_1
_geom_bond_site_symmetry_2
O1 C2 1_555 1_555
O2 H1 1_555 1_555
N1 C1 1_555 1_555
N2 C1 1_555 1_555
C1 C12 1_555 1_555
C2 N1 1_555 1_555
C3 N2 1_555 1_555
C4 C3 1_555 1_555
C5 C4 1_555 1_555
C6 O2 1_555 1_555
C7 C6 1_555 1_555
H2 C7 1_555 1_555
C8 C7 1_555 1_555
H3 C8 1_555 1_555
C9 C8 1_555 1_555
H4 C9 1_555 1_555
C10 C5 1_555 1_555
C11 N1 1_555 1_555
C13 C10 1_555 1_555
H5 C13 1_555 1_555
C14 C4 1_555 1_555
H6 C14 1_555 1_555
H5C C13 1_555 1_555
H6C C14 1_555 1_555
C2 C3 1_555 1_555
C5 C6 1_555 1_555
C9 C10 1_555 1_555
C13 C14 1_555 1_555

#END
