
#######################################################################
#
#                 Cambridge Crystallographic Data Centre
#                                CCDC 
#
#######################################################################
#
# If this CIF has been generated from an entry in the Cambridge 
# Structural Database, then it will include bibliographic, chemical, 
# crystal, experimental, refinement or atomic coordinate data resulting 
# from the CCDC's data processing and validation procedures.
#
#######################################################################

data_RONHIN
_chemical_formula_moiety         'C42 H92 Li4 N4 O6'
_chemical_name_systematic        
"bis(\m-1,1'-(pentane-1,5-diylbis(oxy))bis(N-isopropylpropan-2-amido))-bis(diethyl ether)-tetra-lithium"
_symmetry_cell_setting           orthorhombic
_symmetry_space_group_name_H-M   'P 21 21 21'
_symmetry_Int_Tables_number      19
_space_group_name_Hall           'P 2ac 2ab'
loop_
_symmetry_equiv_pos_site_id
_symmetry_equiv_pos_as_xyz
1 x,y,z
2 1/2-x,-y,1/2+z
3 -x,1/2+y,1/2-z
4 1/2+x,1/2-y,-z
_cell_length_a                   10.8399(9)
_cell_length_b                   12.7510(10)
_cell_length_c                   36.398(3)
_cell_angle_alpha                90
_cell_angle_beta                 90
_cell_angle_gamma                90
_cell_volume                     5030.92
_exptl_crystal_description       chunk
_cell_formula_units_Z            4
loop_
_atom_site_label
_atom_site_type_symbol
_atom_site_fract_x
_atom_site_fract_y
_atom_site_fract_z
C1 C 0.0117(9) 0.1504(8) 0.9159(3)
H1 H -0.052 0.1866 0.9011
H2 H -0.0094 0.1598 0.9422
C2 C 0.0116(11) 0.0373(8) 0.9069(3)
H3 H 0.0307 0.0314 0.8801
C3 C -0.1180(10) -0.0058(10) 0.9123(3)
H4 H -0.1463 0.0104 0.9372
H5 H -0.1172 -0.082 0.9088
H6 H -0.1739 0.0264 0.8944
C4 C 0.1313(10) -0.1217(8) 0.9102(3)
H7 H 0.0488 -0.1562 0.9078
C5 C 0.1890(13) -0.1198(10) 0.8721(3)
H8 H 0.2658 -0.0793 0.8729
H9 H 0.1316 -0.0872 0.8548
H10 H 0.2069 -0.1917 0.8642
C6 C 0.2090(14) -0.1911(10) 0.9343(3)
H11 H 0.1796 -0.1865 0.9597
H12 H 0.2952 -0.1681 0.9332
H13 H 0.2029 -0.2638 0.9258
C7 C 0.4586(10) 0.0241(9) 0.9645(3)
H14 H 0.5492 0.0189 0.9674
H15 H 0.4252 -0.0479 0.9623
C8 C 0.4051(10) 0.0755(9) 0.9976(3)
H16 H 0.4437 0.1459 1.0013
C9 C 0.4383(10) 0.0024(9) 1.0298(3)
H17 H 0.4101 -0.069 1.0243
H18 H 0.3979 0.0274 1.0523
H19 H 0.5279 0.0022 1.0334
C10 C 0.2282(10) 0.1684(8) 1.0186(3)
H20 H 0.2759 0.1604 1.0419
C11 C 0.2469(11) 0.2791(8) 1.0046(3)
H21 H 0.2014 0.2884 0.9816
H22 H 0.335 0.2914 1.0003
H23 H 0.2164 0.3291 1.0229
C12 C 0.0933(10) 0.1508(8) 1.0271(3)
H24 H 0.0841 0.0864 1.0415
H25 H 0.047 0.144 1.0041
H26 H 0.0614 0.2104 1.0411
C13 C 0.5541(11) 0.7265(8) 0.8395(3)
H27 H 0.5072 0.7775 0.8546
H28 H 0.5265 0.7336 0.8137
C14 C 0.6914(10) 0.7509(9) 0.8421(3)
H29 H 0.7149 0.7511 0.8687
C15 C 0.7088(12) 0.8614(9) 0.8273(3)
H30 H 0.6774 0.8652 0.8021
H31 H 0.7967 0.8793 0.8275
H32 H 0.6635 0.9111 0.8428
C16 C 0.8874(10) 0.6669(9) 0.8393(3)
H33 H 0.9165 0.7411 0.8415
C17 C 0.9761(12) 0.6094(12) 0.8152(4)
H34 H 0.9818 0.6449 0.7914
H35 H 0.9471 0.5374 0.8116
H36 H 1.0576 0.6083 0.8269
C18 C 0.8956(12) 0.6165(12) 0.8774(3)
H37 H 0.8663 0.5439 0.8761
H38 H 0.8443 0.656 0.8947
H39 H 0.9815 0.6173 0.8858
C19 C 0.7335(11) 0.3562(9) 0.7994(3)
H40 H 0.7399 0.2788 0.7997
H41 H 0.8181 0.3853 0.7982
C20 C 0.6626(12) 0.3901(9) 0.7663(3)
H42 H 0.5788 0.3575 0.7678
C21 C 0.7257(12) 0.3462(9) 0.7324(3)
H43 H 0.8141 0.3622 0.7334
H44 H 0.6898 0.3781 0.7103
H45 H 0.7141 0.27 0.7315
C22 C 0.5435(12) 0.5295(9) 0.7424(3)
H46 H 0.5482 0.4847 0.7199
C23 C 0.5539(13) 0.6461(10) 0.7309(3)
H47 H 0.6288 0.6561 0.7163
H48 H 0.5577 0.6903 0.7529
H49 H 0.4816 0.6655 0.7162
C24 C 0.4189(11) 0.5154(12) 0.7598(4)
H50 H 0.4085 0.5667 0.7796
H51 H 0.4123 0.4443 0.7698
H52 H 0.3546 0.5261 0.7412
C25 C 0.1258(11) 0.3073(9) 0.9033(3)
H53 H 0.0963 0.3424 0.9259
H54 H 0.0682 0.3245 0.8831
C26 C 0.2516(10) 0.3439(8) 0.8941(3)
H55 H 0.2848 0.2995 0.8741
H56 H 0.3053 0.3341 0.9159
C27 C 0.2582(10) 0.4605(8) 0.8820(3)
H57 H 0.2025 0.4717 0.8608
H58 H 0.2299 0.5059 0.9024
C28 C 0.3876(9) 0.4901(8) 0.8714(3)
H59 H 0.4139 0.4459 0.8505
H60 H 0.4431 0.4748 0.8924
C29 C 0.4021(10) 0.6062(9) 0.8607(3)
H61 H 0.3501 0.6226 0.8391
H62 H 0.3765 0.6521 0.8813
C30 C 0.5017(11) 0.0443(9) 0.9013(3)
H63 H 0.4804 -0.0298 0.8962
H64 H 0.5907 0.0478 0.9074
C31 C 0.4762(13) 0.1092(9) 0.8681(3)
H65 H 0.3857 0.1153 0.8651
H66 H 0.509 0.0723 0.8463
C32 C 0.5319(11) 0.2202(9) 0.8694(3)
H67 H 0.500 0.2597 0.848
H68 H 0.5006 0.2555 0.8918
C33 C 0.6706(12) 0.2290(10) 0.8693(3)
H69 H 0.7038 0.1857 0.849
H70 H 0.7028 0.1999 0.8926
C34 C 0.7181(10) 0.3418(9) 0.8649(3)
H71 H 0.6921 0.3835 0.8865
H72 H 0.8094 0.3407 0.8645
C35 C 0.1515(14) -0.2570(10) 1.0472(3)
H73 H 0.2248 -0.2576 1.0314
H74 H 0.0892 -0.3046 1.037
H75 H 0.174 -0.2802 1.072
C36 C 0.1005(13) -0.1489(11) 1.0489(3)
H76 H 0.0322 -0.1472 1.067
H77 H 0.1656 -0.1005 1.0576
C37 C -0.0652(11) -0.1454(9) 1.0054(4)
H78 H -0.08 -0.2164 1.0155
H79 H -0.0737 -0.1493 0.9784
C38 C -0.1608(11) -0.0712(10) 1.0204(4)
H80 H -0.1474 -0.001 1.0102
H81 H -0.154 -0.0682 1.0472
H82 H -0.2433 -0.096 1.0136
C39 C 1.0275(17) 0.5702(17) 0.7049(5)
H83 H 1.0419 0.5509 0.7306
H84 H 1.0871 0.6239 0.6975
H85 H 1.0375 0.5081 0.6893
C40 C 0.9010(14) 0.6117(12) 0.7008(4)
H86 H 0.8959 0.6528 0.6778
H87 H 0.8426 0.5523 0.6988
C41 C 0.9138(17) 0.7828(18) 0.7331(6)
H88 H 0.9046 0.8077 0.7587
H89 H 1.003 0.7818 0.7273
C42 C 0.859(2) 0.848(2) 0.7113(8)
H90 H 0.7698 0.8392 0.7131
H91 H 0.8859 0.8355 0.686
H92 H 0.8811 0.9202 0.7184
Li1 Li 0.2446(19) 0.0965(14) 0.9362(5)
Li2 Li 0.1392(15) -0.0209(13) 0.9810(5)
Li3 Li 0.6484(18) 0.5403(15) 0.8223(4)
Li4 Li 0.765(2) 0.6239(14) 0.7719(5)
N1 N 0.1107(7) -0.0193(7) 0.9267(2)
N2 N 0.2699(7) 0.0869(6) 0.9927(2)
N3 N 0.7638(7) 0.6687(7) 0.8236(2)
N4 N 0.6464(9) 0.5034(7) 0.7664(2)
O1 O 0.1303(7) 0.1968(5) 0.90870(18)
O2 O 0.4305(7) 0.0821(5) 0.93155(19)
O3 O 0.5295(7) 0.6229(5) 0.85218(19)
O4 O 0.6748(7) 0.3913(6) 0.8326(2)
O5 O 0.0561(7) -0.1134(6) 1.0144(2)
O6 O 0.8652(8) 0.6758(7) 0.7304(2)
loop_
_geom_bond_atom_site_label_1
_geom_bond_atom_site_label_2
_geom_bond_site_symmetry_1
_geom_bond_site_symmetry_2
C1 H1 1_555 1_555
H2 C1 1_555 1_555
C2 C1 1_555 1_555
H3 C2 1_555 1_555
C3 C2 1_555 1_555
H4 C3 1_555 1_555
H5 C3 1_555 1_555
H6 C3 1_555 1_555
C4 H7 1_555 1_555
C5 C4 1_555 1_555
H8 C5 1_555 1_555
H9 C5 1_555 1_555
H10 C5 1_555 1_555
C6 C4 1_555 1_555
H11 C6 1_555 1_555
H12 C6 1_555 1_555
H13 C6 1_555 1_555
C7 H14 1_555 1_555
H15 C7 1_555 1_555
C8 C7 1_555 1_555
H16 C8 1_555 1_555
C9 C8 1_555 1_555
H17 C9 1_555 1_555
H18 C9 1_555 1_555
H19 C9 1_555 1_555
C10 H20 1_555 1_555
C11 C10 1_555 1_555
H21 C11 1_555 1_555
H22 C11 1_555 1_555
H23 C11 1_555 1_555
C12 C10 1_555 1_555
H24 C12 1_555 1_555
H25 C12 1_555 1_555
H26 C12 1_555 1_555
C13 H27 1_555 1_555
H28 C13 1_555 1_555
C14 C13 1_555 1_555
H29 C14 1_555 1_555
C15 C14 1_555 1_555
H30 C15 1_555 1_555
H31 C15 1_555 1_555
H32 C15 1_555 1_555
C16 H33 1_555 1_555
C17 C16 1_555 1_555
H34 C17 1_555 1_555
H35 C17 1_555 1_555
H36 C17 1_555 1_555
C18 C16 1_555 1_555
H37 C18 1_555 1_555
H38 C18 1_555 1_555
H39 C18 1_555 1_555
C19 H40 1_555 1_555
H41 C19 1_555 1_555
C20 C19 1_555 1_555
H42 C20 1_555 1_555
C21 C20 1_555 1_555
H43 C21 1_555 1_555
H44 C21 1_555 1_555
H45 C21 1_555 1_555
C22 H46 1_555 1_555
C23 C22 1_555 1_555
H47 C23 1_555 1_555
H48 C23 1_555 1_555
H49 C23 1_555 1_555
C24 C22 1_555 1_555
H50 C24 1_555 1_555
H51 C24 1_555 1_555
H52 C24 1_555 1_555
C25 H53 1_555 1_555
H54 C25 1_555 1_555
C26 C25 1_555 1_555
H55 C26 1_555 1_555
H56 C26 1_555 1_555
C27 C26 1_555 1_555
H57 C27 1_555 1_555
H58 C27 1_555 1_555
C28 C27 1_555 1_555
H59 C28 1_555 1_555
H60 C28 1_555 1_555
C29 C28 1_555 1_555
H61 C29 1_555 1_555
H62 C29 1_555 1_555
C30 H63 1_555 1_555
H64 C30 1_555 1_555
C31 C30 1_555 1_555
H65 C31 1_555 1_555
H66 C31 1_555 1_555
C32 C31 1_555 1_555
H67 C32 1_555 1_555
H68 C32 1_555 1_555
C33 C32 1_555 1_555
H69 C33 1_555 1_555
H70 C33 1_555 1_555
C34 C33 1_555 1_555
H71 C34 1_555 1_555
H72 C34 1_555 1_555
C35 H73 1_555 1_555
H74 C35 1_555 1_555
H75 C35 1_555 1_555
C36 C35 1_555 1_555
H76 C36 1_555 1_555
H77 C36 1_555 1_555
C37 H78 1_555 1_555
H79 C37 1_555 1_555
C38 C37 1_555 1_555
H80 C38 1_555 1_555
H81 C38 1_555 1_555
H82 C38 1_555 1_555
C39 H83 1_555 1_555
H84 C39 1_555 1_555
H85 C39 1_555 1_555
C40 C39 1_555 1_555
H86 C40 1_555 1_555
H87 C40 1_555 1_555
C41 H88 1_555 1_555
H89 C41 1_555 1_555
C42 C41 1_555 1_555
H90 C42 1_555 1_555
H91 C42 1_555 1_555
H92 C42 1_555 1_555
Li1 N1 1_555 1_555
Li2 N1 1_555 1_555
Li3 N3 1_555 1_555
Li4 N3 1_555 1_555
N1 C2 1_555 1_555
N2 C8 1_555 1_555
N3 C14 1_555 1_555
N4 C20 1_555 1_555
O1 C1 1_555 1_555
O2 C7 1_555 1_555
O3 C13 1_555 1_555
O4 C19 1_555 1_555
O5 C36 1_555 1_555
O6 C40 1_555 1_555
C4 N1 1_555 1_555
C10 N2 1_555 1_555
C16 N3 1_555 1_555
C22 N4 1_555 1_555
C25 O1 1_555 1_555
C29 O3 1_555 1_555
C30 O2 1_555 1_555
C34 O4 1_555 1_555
C37 O5 1_555 1_555
C41 O6 1_555 1_555
Li1 N2 1_555 1_555
Li1 O1 1_555 1_555
Li1 O2 1_555 1_555
Li2 N2 1_555 1_555
Li2 O5 1_555 1_555
Li3 N4 1_555 1_555
Li3 O3 1_555 1_555
Li3 O4 1_555 1_555
Li4 N4 1_555 1_555
Li4 O6 1_555 1_555

#END
