
#######################################################################
#
#                 Cambridge Crystallographic Data Centre
#                                CCDC 
#
#######################################################################
#
# If this CIF has been generated from an entry in the Cambridge 
# Structural Database, then it will include bibliographic, chemical, 
# crystal, experimental, refinement or atomic coordinate data resulting 
# from the CCDC's data processing and validation procedures.
#
#######################################################################

data_RONSAQ
_chemical_formula_moiety         'C51 H45 Br2 N9 O7 P1 1+,C2 F3 O2 1-'
_chemical_name_systematic        
'6-(1-azido-2-((4-bromobenzoyl)oxy)ethyl)-8-(azidomethyl)-3-((benzyloxy)methyl)-7-(((4-bromobenzoyl)oxy)methyl)-9-hydroxy-4-oxo-2-((triphenylphosphoranylidene)amino)-3-aza-1-azoniaspiro[4.4]non-1-ene trifluoroacetate'
_symmetry_cell_setting           monoclinic
_symmetry_space_group_name_H-M   'P 21'
_symmetry_Int_Tables_number      4
_space_group_name_Hall           'P 2yb'
loop_
_symmetry_equiv_pos_site_id
_symmetry_equiv_pos_as_xyz
1 x,y,z
2 -x,1/2+y,-z
_cell_length_a                   15.9946(13)
_cell_length_b                   16.9933(15)
_cell_length_c                   20.6623(17)
_cell_angle_alpha                90
_cell_angle_beta                 104.436(4)
_cell_angle_gamma                90
_cell_volume                     5438.72
_exptl_crystal_colour            colorless
_exptl_crystal_description       needle
_cell_formula_units_Z            4
loop_
_atom_site_label
_atom_site_type_symbol
_atom_site_fract_x
_atom_site_fract_y
_atom_site_fract_z
Br1 Br 0.61034(7) 0.67667(8) 0.32382(5)
Br2 Br 0.77761(8) 0.68721(7) 1.20337(5)
P1 P 0.41386(12) 0.46667(12) 0.66094(10)
O1 O 0.8473(3) 0.5315(3) 0.6203(3)
O2 O 0.7018(4) 0.3029(3) 0.6439(3)
H1 H 0.676(5) 0.312(5) 0.6012(18)
O3 O 0.7618(3) 0.3374(4) 0.8082(3)
O4 O 0.7250(3) 0.5933(3) 0.8781(3)
O5 O 0.605(2) 0.3964(11) 0.8747(13)
O6 O 0.9503(4) 0.6052(4) 0.5953(4)
O7 O 0.5849(4) 0.6115(4) 0.8723(3)
C1 C 0.8868(5) 0.3439(5) 0.6396(4)
H2 H 0.8626 0.2936 0.6203
H3 H 0.8821 0.3820 0.6033
N1 N 0.9791(5) 0.3337(5) 0.6766(4)
N2 N 1.0160(5) 0.2791(6) 0.6575(4)
N3 N 1.0575(6) 0.2307(7) 0.6439(6)
N4 N 0.6174(4) 0.4464(4) 0.6863(3)
H4 H 0.601(4) 0.454(4) 0.6422(15)
N5 N 0.6170(4) 0.3640(4) 0.7696(3)
N6 N 0.4829(4) 0.4102(3) 0.7104(3)
N7 N 0.8491(5) 0.5934(5) 0.8013(4)
N8 N 0.8881(5) 0.6158(5) 0.8578(5)
N9 N 0.9280(6) 0.6411(7) 0.9056(6)
C2 C 0.8380(4) 0.3736(5) 0.6898(4)
H5 H 0.8475 0.3351 0.7269
C3 C 0.7415(5) 0.3768(5) 0.6581(4)
H6 H 0.7311 0.4080 0.6164
C4 C 0.7073(5) 0.4230(5) 0.7107(3)
C5 C 0.7737(5) 0.4905(5) 0.7298(4)
H7 H 0.7558 0.5325 0.6960
C6 C 0.8614(4) 0.4558(5) 0.7208(4)
H8 H 0.9000 0.4482 0.7659
C7 C 0.9062(5) 0.5112(5) 0.6829(5)
H9 H 0.9245 0.5588 0.7093
H10 H 0.9576 0.4857 0.6747
C8 C 0.7022(5) 0.3686(5) 0.7690(4)
C9 C 0.5658(5) 0.4098(5) 0.7183(4)
C10 C 0.7849(5) 0.5290(5) 0.7988(4)
H11 H 0.8082 0.4900 0.8344
C11 C 0.7029(5) 0.5646(5) 0.8097(4)
H12 H 0.6829 0.6078 0.7783
H13 H 0.6572 0.5248 0.8035
C12 C 0.588(3) 0.335(2) 0.8266(14)
H14 H 0.5263 0.3236 0.8136
H15 H 0.6195 0.2876 0.8446
C13 C 0.8772(6) 0.5816(5) 0.5804(5)
C14 C 0.8114(6) 0.6044(5) 0.5202(5)
C15 C 0.7236(6) 0.5940(5) 0.5132(5)
H16 H 0.7045 0.5714 0.5484
C16 C 0.6639(6) 0.6160(5) 0.4560(5)
H17 H 0.6046 0.6081 0.4520
C17 C 0.6919(6) 0.6498(5) 0.4048(5)
C18 C 0.7770(7) 0.6610(6) 0.4096(6)
H18 H 0.7954 0.6834 0.3739
C19 C 0.8365(7) 0.6393(6) 0.4674(6)
H19 H 0.8955 0.6483 0.4711
C20 C 0.6578(6) 0.6139(5) 0.9037(4)
C21 C 0.6888(5) 0.6342(5) 0.9752(4)
C22 C 0.6354(6) 0.6198(6) 1.0168(5)
H20 H 0.5803 0.5986 0.9985
C23 C 0.6597(6) 0.6352(6) 1.0837(5)
H21 H 0.6220 0.6252 1.1110
C24 C 0.7411(6) 0.6657(5) 1.1102(4)
C25 C 0.7967(5) 0.6813(5) 1.0707(4)
H22 H 0.8516 0.7029 1.0894
C26 C 0.7710(5) 0.6648(4) 1.0034(4)
H23 H 0.8090 0.6743 0.9761
C27 C 0.5800(16) 0.3799(16) 0.9337(14)
H24 H 0.6106 0.4145 0.9698
H25 H 0.5939 0.3252 0.9473
C28 C 0.4822(10) 0.3935(13) 0.9198(18)
C29 C 0.4360(12) 0.3345(10) 0.9421(16)
H26 H 0.4624 0.2859 0.9560
C30 C 0.3508(11) 0.3474(9) 0.9437(14)
H27 H 0.3195 0.3075 0.9588
C31 C 0.3117(8) 0.4193(10) 0.9231(12)
H28 H 0.2540 0.4280 0.9242
C32 C 0.3579(11) 0.4783(9) 0.9008(13)
H29 H 0.3314 0.5269 0.8868
C33 C 0.4431(11) 0.4654(11) 0.8992(16)
H30 H 0.4744 0.5053 0.8841
C34 C 0.3830(5) 0.4232(5) 0.5796(4)
C35 C 0.4160(5) 0.3523(5) 0.5682(4)
H31 H 0.4560 0.3268 0.6029
C36 C 0.3914(6) 0.3172(6) 0.5056(5)
H32 H 0.4150 0.2684 0.4979
C37 C 0.3336(7) 0.3533(7) 0.4559(5)
H33 H 0.3173 0.3295 0.4135
C38 C 0.2978(7) 0.4248(8) 0.4662(5)
H34 H 0.2569 0.4495 0.4315
C39 C 0.3234(6) 0.4594(6) 0.5286(4)
H35 H 0.2998 0.5081 0.5363
C40 C 0.3204(4) 0.4711(5) 0.6948(4)
C41 C 0.2674(5) 0.5365(5) 0.6839(4)
H36 H 0.2812 0.5801 0.6606
C42 C 0.1942(6) 0.5371(7) 0.7076(5)
H37 H 0.1590 0.5822 0.7013
C43 C 0.1720(6) 0.4746(7) 0.7394(5)
H38 H 0.1206 0.4756 0.7537
C44 C 0.2240(6) 0.4094(6) 0.7511(5)
H39 H 0.2094 0.3664 0.7747
C45 C 0.2983(5) 0.4072(5) 0.7278(4)
H40 H 0.3333 0.3621 0.7346
C46 C 0.455(2) 0.5621(14) 0.6525(12)
C47 C 0.469(2) 0.5877(14) 0.5919(11)
H41 H 0.4500 0.5565 0.5534
C48 C 0.5093(15) 0.6592(12) 0.5882(10)
H42 H 0.5181 0.6765 0.5473
C49 C 0.5368(13) 0.7052(10) 0.6452(10)
H43 H 0.5643 0.7536 0.6427
C50 C 0.5237(13) 0.6797(11) 0.7058(9)
H44 H 0.5423 0.7108 0.7443
C51 C 0.4830(17) 0.6081(14) 0.7095(10)
H45 H 0.4742 0.5909 0.7505
Br3 Br 0.09392(10) 0.68000(11) -0.19034(6)
Br4 Br 0.22122(8) 0.76622(7) 0.65957(6)
P2 P -0.05537(12) 0.45787(12) 0.16428(10)
O9 O 0.3579(4) 0.5600(4) 0.1054(3)
O10 O 0.2483(4) 0.3144(4) 0.1271(3)
H60 H 0.200(4) 0.323(6) 0.095(3)
O11 O 0.3059(4) 0.3406(4) 0.2902(3)
O12 O 0.2350(3) 0.5919(3) 0.3659(3)
O13 O 0.1209(4) 0.3426(4) 0.3537(3)
O14 O 0.4476(5) 0.6473(5) 0.0779(4)
O15 O 0.0953(4) 0.5738(6) 0.3597(4)
C66 C 0.421(2) 0.380(7) 0.121(3)
H61 H 0.4115 0.4207 0.0867
H62 H 0.4022 0.3294 0.1002
N10 N 0.514(2) 0.376(2) 0.1559(18)
N11 N 0.5596(13) 0.3710(16) 0.1162(11)
N12 N 0.6114(13) 0.368(2) 0.0881(12)
N13 N 0.1495(4) 0.4468(4) 0.1758(3)
H63 H 0.135(5) 0.461(4) 0.1339(18)
N14 N 0.1588(4) 0.3552(4) 0.2536(3)
N15 N 0.0208(4) 0.4001(4) 0.2040(3)
N16 N 0.3634(5) 0.6057(5) 0.2944(4)
N17 N 0.3968(5) 0.6297(5) 0.3520(5)
N18 N 0.4314(5) 0.6568(5) 0.4012(5)
C67 C 0.3747(5) 0.3983(6) 0.1702(5)
H64 H 0.3908 0.3581 0.2058
C68 C 0.2773(5) 0.3925(6) 0.1423(4)
H65 H 0.2597 0.4253 0.1016
C69 C 0.2422(5) 0.4289(5) 0.1984(4)
C70 C 0.3002(5) 0.5024(6) 0.2190(4)
H66 H 0.2754 0.5450 0.1873
C71 C 0.3889(5) 0.4795(6) 0.2052(5)
H67 H 0.4312 0.4727 0.2489
C72 C 0.4217(6) 0.5428(7) 0.1677(5)
H68 H 0.4335 0.5905 0.1951
H69 H 0.4758 0.5257 0.1579
C73 C 0.2431(6) 0.3700(6) 0.2532(4)
C74 C 0.1025(6) 0.4031(5) 0.2072(4)
C75 C 0.3087(5) 0.5350(6) 0.2900(4)
H70 H 0.3370 0.4958 0.3238
C76 C 0.2211(5) 0.5571(6) 0.2999(5)
H71 H 0.1925 0.5949 0.2657
H72 H 0.1845 0.5103 0.2966
C77 C 0.1314(6) 0.3014(5) 0.2976(4)
H73 H 0.0767 0.2768 0.2745
H74 H 0.1746 0.2598 0.3115
C78 C 0.3791(7) 0.6152(7) 0.0656(6)
C79 C 0.3088(7) 0.6310(6) 0.0044(5)
C80 C 0.2277(6) 0.6003(6) -0.0038(5)
H75 H 0.2155 0.5687 0.0301
C81 C 0.1630(7) 0.6150(7) -0.0615(6)
H76 H 0.1075 0.5935 -0.0666
C82 C 0.1807(8) 0.6604(8) -0.1100(6)
C83 C 0.2600(10) 0.6916(8) -0.1042(6)
H77 H 0.2712 0.7220 -0.1391
C84 C 0.3256(8) 0.6784(8) -0.0457(6)
H78 H 0.3803 0.7015 -0.0405
C85 C 0.1643(6) 0.5982(6) 0.3892(5)
C86 C 0.1815(5) 0.6382(5) 0.4550(4)
C87 C 0.1180(5) 0.6356(6) 0.4904(5)
H79 H 0.0670 0.6070 0.4732
C88 C 0.1292(6) 0.6745(6) 0.5504(5)
H80 H 0.0858 0.6736 0.5737
C89 C 0.2046(6) 0.7146(5) 0.5754(4)
C90 C 0.2676(6) 0.7171(5) 0.5420(5)
H81 H 0.3189 0.7449 0.5601
C91 C 0.2566(5) 0.6794(5) 0.4820(4)
H82 H 0.3004 0.6815 0.4590
C92 C 0.0825(10) 0.2951(7) 0.3944(7)
H83 H 0.1199 0.2501 0.4113
H84 H 0.0269 0.2751 0.3683
C93 C 0.0697(9) 0.3435(7) 0.4513(6)
C94 C 0.1311(8) 0.3486(7) 0.5102(7)
H85 H 0.1825 0.3195 0.5167
C95 C 0.1173(8) 0.3973(8) 0.5606(6)
H86 H 0.1606 0.4021 0.6006
C96 C 0.0428(8) 0.4379(8) 0.5532(6)
H87 H 0.0358 0.4724 0.5870
C97 C -0.0212(9) 0.4288(10) 0.4976(8)
H88 H -0.0748 0.4535 0.4937
C98 C -0.0067(11) 0.3811(9) 0.4446(6)
H89 H -0.0504 0.3757 0.4049
C99 C -0.1057(5) 0.4152(5) 0.0848(4)
C100 C -0.0827(6) 0.3410(5) 0.0703(4)
H90 H -0.0388 0.3136 0.1007
C101 C -0.1243(7) 0.3069(6) 0.0107(5)
H91 H -0.1080 0.2563 0.0001
C102 C -0.1893(7) 0.3457(7) -0.0337(4)
H92 H -0.2191 0.3214 -0.0736
C103 C -0.2097(7) 0.4202(6) -0.0185(5)
H93 H -0.2525 0.4478 -0.0496
C104 C -0.1704(6) 0.4556(6) 0.0399(4)
H94 H -0.1866 0.5066 0.0497
C105 C -0.1305(5) 0.4646(5) 0.2150(4)
C106 C -0.2181(5) 0.4590(6) 0.1888(5)
H95 H -0.2397 0.4481 0.1431
C107 C -0.2757(7) 0.4692(7) 0.2292(7)
H96 H -0.3354 0.4648 0.2107
C108 C -0.2453(8) 0.4853(6) 0.2944(7)
H97 H -0.2841 0.4937 0.3213
C109 C -0.1570(9) 0.4897(6) 0.3225(6)
H98 H -0.1360 0.4999 0.3684
C110 C -0.1004(6) 0.4792(6) 0.2828(5)
H99 H -0.0407 0.4819 0.3020
C111 C -0.0195(4) 0.5550(4) 0.1502(4)
C112 C 0.0012(5) 0.6087(5) 0.2034(4)
H100 H -0.0122 0.5968 0.2441
C113 C 0.0413(6) 0.6794(6) 0.1961(5)
H101 H 0.0545 0.7160 0.2313
C114 C 0.0614(6) 0.6949(6) 0.1367(6)
H102 H 0.0907 0.7416 0.1319
C115 C 0.0397(7) 0.6437(6) 0.0841(6)
H103 H 0.0517 0.6563 0.0430
C116 C 0.0003(6) 0.5738(5) 0.0917(5)
H104 H -0.0133 0.5381 0.0558
F1 F 0.6244(5) 0.4407(4) 0.4106(3)
F2 F 0.5165(6) 0.3657(4) 0.3975(3)
F3 F 0.5032(5) 0.4855(4) 0.4175(3)
O16 O 0.5812(3) 0.4638(3) 0.5455(3)
O17 O 0.6050(4) 0.3374(4) 0.5216(3)
C118 C 0.5564(7) 0.4246(6) 0.4339(5)
C119 C 0.5830(5) 0.4070(6) 0.5082(4)
F5 F 0.0976(19) 0.433(3) -0.1101(12)
F6 F 0.010(2) 0.3448(11) -0.1028(10)
F7 F -0.0142(16) 0.463(2) -0.0815(8)
O18 O 0.1010(4) 0.4575(4) 0.0316(3)
O19 O 0.1282(5) 0.3321(4) 0.0111(3)
C120 C 0.0494(8) 0.4080(7) -0.0772(5)
C121 C 0.0982(5) 0.3989(6) -0.0039(5)
O8? O 0.607(2) 0.3637(11) 0.8783(13)
C52? C 0.584(3) 0.319(2) 0.8159(13)
H46? H 0.6111 0.2666 0.8220
H47? H 0.5217 0.3126 0.8003
C53? C 0.5623(16) 0.3406(16) 0.9261(14)
H48? H 0.5998 0.3513 0.9706
H49? H 0.5539 0.2834 0.9225
C54? C 0.4764(11) 0.3775(12) 0.9227(18)
C55? C 0.4087(12) 0.3394(10) 0.9407(16)
H50? H 0.4159 0.2875 0.9569
C56? C 0.3305(10) 0.3779(10) 0.9347(13)
H51? H 0.2848 0.3521 0.9469
C57? C 0.3200(9) 0.4546(9) 0.9107(12)
H52? H 0.2672 0.4807 0.9067
C58? C 0.3877(11) 0.4928(9) 0.8927(13)
H53? H 0.3806 0.5447 0.8765
C59? C 0.4659(11) 0.4542(12) 0.8987(17)
H54? H 0.5117 0.4801 0.8866
C60? C 0.451(3) 0.5661(17) 0.6617(15)
C61? C 0.480(2) 0.5989(17) 0.6097(12)
H55? H 0.4734 0.5711 0.5694
C62? C 0.5179(19) 0.6729(15) 0.6171(12)
H56? H 0.5375 0.6951 0.5819
C63? C 0.5272(15) 0.7141(13) 0.6766(13)
H57? H 0.5531 0.7641 0.6816
C64? C 0.4982(17) 0.6813(15) 0.7287(11)
H58? H 0.5045 0.7091 0.7689
C65? C 0.460(2) 0.6073(17) 0.7212(13)
H59? H 0.4403 0.5851 0.7565
C117? C 0.423(2) 0.381(7) 0.113(3)
H105? H 0.4053 0.3293 0.0940
H106? H 0.4051 0.4204 0.0779
N19? N 0.517(2) 0.383(3) 0.137(2)
N20? N 0.5509(19) 0.322(2) 0.1619(17)
N21? N 0.590(2) 0.266(2) 0.179(2)
H107? H 0.3922 0.3573 0.2050
F4? F -0.0311(11) 0.405(4) -0.0898(11)
F8? F 0.072(3) 0.471(2) -0.1091(18)
F9? F 0.071(3) 0.3494(18) -0.1190(10)
loop_
_geom_bond_atom_site_label_1
_geom_bond_atom_site_label_2
_geom_bond_site_symmetry_1
_geom_bond_site_symmetry_2
Br1 C17 1_555 1_555
Br2 C24 1_555 1_555
P1 N6 1_555 1_555
O1 C7 1_555 1_555
O2 H1 1_555 1_555
O3 C8 1_555 1_555
O4 C11 1_555 1_555
O5 C12 1_555 1_555
O6 C13 1_555 1_555
O7 C20 1_555 1_555
C1 H2 1_555 1_555
H3 C1 1_555 1_555
N1 C1 1_555 1_555
N2 N1 1_555 1_555
N3 N2 1_555 1_555
N4 H4 1_555 1_555
N5 C8 1_555 1_555
N6 C9 1_555 1_555
N7 N8 1_555 1_555
N8 N9 1_555 1_555
C2 C1 1_555 1_555
H5 C2 1_555 1_555
C3 O2 1_555 1_555
H6 C3 1_555 1_555
C4 N4 1_555 1_555
C5 C4 1_555 1_555
H7 C5 1_555 1_555
C6 C2 1_555 1_555
H8 C6 1_555 1_555
C7 C6 1_555 1_555
H9 C7 1_555 1_555
H10 C7 1_555 1_555
C8 C4 1_555 1_555
C9 N4 1_555 1_555
C10 N7 1_555 1_555
H11 C10 1_555 1_555
C11 C10 1_555 1_555
H12 C11 1_555 1_555
H13 C11 1_555 1_555
C12 N5 1_555 1_555
H14 C12 1_555 1_555
H15 C12 1_555 1_555
C13 O1 1_555 1_555
C14 C13 1_555 1_555
C15 C14 1_555 1_555
H16 C15 1_555 1_555
C16 C15 1_555 1_555
H17 C16 1_555 1_555
C17 C16 1_555 1_555
C18 C17 1_555 1_555
H18 C18 1_555 1_555
C19 C14 1_555 1_555
H19 C19 1_555 1_555
C20 O4 1_555 1_555
C21 C20 1_555 1_555
C22 C21 1_555 1_555
H20 C22 1_555 1_555
C23 C22 1_555 1_555
H21 C23 1_555 1_555
C24 C23 1_555 1_555
C25 C24 1_555 1_555
H22 C25 1_555 1_555
C26 C21 1_555 1_555
H23 C26 1_555 1_555
C27 O5 1_555 1_555
H24 C27 1_555 1_555
H25 C27 1_555 1_555
C28 C27 1_555 1_555
C29 C28 1_555 1_555
H26 C29 1_555 1_555
C30 C29 1_555 1_555
H27 C30 1_555 1_555
C31 C30 1_555 1_555
H28 C31 1_555 1_555
C32 C31 1_555 1_555
H29 C32 1_555 1_555
C33 C28 1_555 1_555
H30 C33 1_555 1_555
C34 P1 1_555 1_555
C35 C34 1_555 1_555
H31 C35 1_555 1_555
C36 C35 1_555 1_555
H32 C36 1_555 1_555
C37 C36 1_555 1_555
H33 C37 1_555 1_555
C38 C37 1_555 1_555
H34 C38 1_555 1_555
C39 C34 1_555 1_555
H35 C39 1_555 1_555
C40 P1 1_555 1_555
C41 C40 1_555 1_555
H36 C41 1_555 1_555
C42 C41 1_555 1_555
H37 C42 1_555 1_555
C43 C42 1_555 1_555
H38 C43 1_555 1_555
C44 C43 1_555 1_555
H39 C44 1_555 1_555
C45 C40 1_555 1_555
H40 C45 1_555 1_555
C46 P1 1_555 1_555
C47 C46 1_555 1_555
H41 C47 1_555 1_555
C48 C47 1_555 1_555
H42 C48 1_555 1_555
C49 C48 1_555 1_555
H43 C49 1_555 1_555
C50 C49 1_555 1_555
H44 C50 1_555 1_555
C51 C46 1_555 1_555
H45 C51 1_555 1_555
Br3 C82 1_555 1_555
Br4 C89 1_555 1_555
P2 N15 1_555 1_555
O9 C72 1_555 1_555
O10 H60 1_555 1_555
O11 C73 1_555 1_555
O12 C76 1_555 1_555
O13 C77 1_555 1_555
O14 C78 1_555 1_555
O15 C85 1_555 1_555
C66 H61 1_555 1_555
H62 C66 1_555 1_555
N10 C66 1_555 1_555
N11 N10 1_555 1_555
N12 N11 1_555 1_555
N13 H63 1_555 1_555
N14 C73 1_555 1_555
N15 C74 1_555 1_555
N16 N17 1_555 1_555
N17 N18 1_555 1_555
C67 C66 1_555 1_555
H64 C67 1_555 1_555
C68 O10 1_555 1_555
H65 C68 1_555 1_555
C69 N13 1_555 1_555
C70 C69 1_555 1_555
H66 C70 1_555 1_555
C71 C67 1_555 1_555
H67 C71 1_555 1_555
C72 C71 1_555 1_555
H68 C72 1_555 1_555
H69 C72 1_555 1_555
C73 C69 1_555 1_555
C74 N13 1_555 1_555
C75 N16 1_555 1_555
H70 C75 1_555 1_555
C76 C75 1_555 1_555
H71 C76 1_555 1_555
H72 C76 1_555 1_555
C77 N14 1_555 1_555
H73 C77 1_555 1_555
H74 C77 1_555 1_555
C78 O9 1_555 1_555
C79 C78 1_555 1_555
C80 C79 1_555 1_555
H75 C80 1_555 1_555
C81 C80 1_555 1_555
H76 C81 1_555 1_555
C82 C81 1_555 1_555
C83 C82 1_555 1_555
H77 C83 1_555 1_555
C84 C79 1_555 1_555
H78 C84 1_555 1_555
C85 O12 1_555 1_555
C86 C85 1_555 1_555
C87 C86 1_555 1_555
H79 C87 1_555 1_555
C88 C87 1_555 1_555
H80 C88 1_555 1_555
C89 C88 1_555 1_555
C90 C89 1_555 1_555
H81 C90 1_555 1_555
C91 C86 1_555 1_555
H82 C91 1_555 1_555
C92 O13 1_555 1_555
H83 C92 1_555 1_555
H84 C92 1_555 1_555
C93 C92 1_555 1_555
C94 C93 1_555 1_555
H85 C94 1_555 1_555
C95 C94 1_555 1_555
H86 C95 1_555 1_555
C96 C95 1_555 1_555
H87 C96 1_555 1_555
C97 C96 1_555 1_555
H88 C97 1_555 1_555
C98 C93 1_555 1_555
H89 C98 1_555 1_555
C99 P2 1_555 1_555
C100 C99 1_555 1_555
H90 C100 1_555 1_555
C101 C100 1_555 1_555
H91 C101 1_555 1_555
C102 C101 1_555 1_555
H92 C102 1_555 1_555
C103 C102 1_555 1_555
H93 C103 1_555 1_555
C104 C99 1_555 1_555
H94 C104 1_555 1_555
C105 P2 1_555 1_555
C106 C105 1_555 1_555
H95 C106 1_555 1_555
C107 C106 1_555 1_555
H96 C107 1_555 1_555
C108 C107 1_555 1_555
H97 C108 1_555 1_555
C109 C108 1_555 1_555
H98 C109 1_555 1_555
C110 C105 1_555 1_555
H99 C110 1_555 1_555
C111 P2 1_555 1_555
C112 C111 1_555 1_555
H100 C112 1_555 1_555
C113 C112 1_555 1_555
H101 C113 1_555 1_555
C114 C113 1_555 1_555
H102 C114 1_555 1_555
C115 C114 1_555 1_555
H103 C115 1_555 1_555
C116 C111 1_555 1_555
H104 C116 1_555 1_555
F1 C118 1_555 1_555
F2 C118 1_555 1_555
F3 C118 1_555 1_555
O16 C119 1_555 1_555
O17 C119 1_555 1_555
C118 C119 1_555 1_555
F5 C120 1_555 1_555
F6 C120 1_555 1_555
F7 C120 1_555 1_555
O18 C121 1_555 1_555
O19 C121 1_555 1_555
C120 C121 1_555 1_555
N5 C9 1_555 1_555
C2 C3 1_555 1_555
C3 C4 1_555 1_555
C5 C6 1_555 1_555
C5 C10 1_555 1_555
C18 C19 1_555 1_555
C25 C26 1_555 1_555
C32 C33 1_555 1_555
C38 C39 1_555 1_555
C44 C45 1_555 1_555
C50 C51 1_555 1_555
N14 C74 1_555 1_555
C67 C68 1_555 1_555
C68 C69 1_555 1_555
C70 C71 1_555 1_555
C70 C75 1_555 1_555
C83 C84 1_555 1_555
C90 C91 1_555 1_555
C97 C98 1_555 1_555
C103 C104 1_555 1_555
C109 C110 1_555 1_555
C115 C116 1_555 1_555

#END
