
#######################################################################
#
#                 Cambridge Crystallographic Data Centre
#                                CCDC 
#
#######################################################################
#
# If this CIF has been generated from an entry in the Cambridge 
# Structural Database, then it will include bibliographic, chemical, 
# crystal, experimental, refinement or atomic coordinate data resulting 
# from the CCDC's data processing and validation procedures.
#
#######################################################################

data_RONZOL
_chemical_formula_moiety         'C56 H18 F20 N4 S2'
_chemical_name_systematic        
2,7,12,17-tetrakis(pentafluorophenyl)-5,15-bis(phenylsulfanyl)-4,14,21,23-tetraazapentacyclo[16.2.1.1^3,6^.1^8,11^.1^13,16^]tetracosa-1,3(24),4,6,8,10,12,14,16(22),17,19-undecaene
_symmetry_cell_setting           monoclinic
_symmetry_space_group_name_H-M   'P 21/c'
_symmetry_Int_Tables_number      14
_space_group_name_Hall           '-P 2ybc'
loop_
_symmetry_equiv_pos_site_id
_symmetry_equiv_pos_as_xyz
1 x,y,z
2 -x,1/2+y,1/2-z
3 -x,-y,-z
4 x,1/2-y,1/2+z
_cell_length_a                   11.9072(2)
_cell_length_b                   25.4953(5)
_cell_length_c                   24.1650(4)
_cell_angle_alpha                90
_cell_angle_beta                 99.372(7)
_cell_angle_gamma                90
_cell_volume                     7238.03
_exptl_crystal_colour            violet
_exptl_crystal_description       prism
_cell_formula_units_Z            6
_exptl_crystal_recrystallization_method dichloromethane/methanol
loop_
_atom_site_label
_atom_site_type_symbol
_atom_site_fract_x
_atom_site_fract_y
_atom_site_fract_z
S1 S 0.13448(5) 0.44878(3) 0.40652(2)
S2 S 0.75870(5) 0.13527(2) 0.54329(2)
F1 F 0.29673(13) 0.41545(5) 0.29192(5)
F2 F 0.22037(14) 0.49784(6) 0.22710(6)
F3 F 0.24704(15) 0.59645(6) 0.26852(8)
F4 F 0.34871(16) 0.61225(6) 0.37716(8)
F5 F 0.42664(14) 0.52986(6) 0.44164(6)
F6 F 0.53358(11) 0.14015(5) 0.63627(5)
F7 F 0.64195(11) 0.07606(5) 0.71742(5)
F8 F 0.85763(11) 0.09860(5) 0.76697(5)
F9 F 0.96541(11) 0.18410(5) 0.73537(5)
F10 F 0.85761(10) 0.24849(5) 0.65480(5)
F11 F 0.62232(11) 0.25797(5) 0.30350(5)
F12 F 0.74497(12) 0.20506(5) 0.23847(5)
F13 F 0.97038(12) 0.18673(6) 0.27406(6)
F14 F 1.07022(12) 0.22123(6) 0.37685(6)
F15 F 0.94767(11) 0.27107(5) 0.44385(5)
N1 N 0.55712(15) 0.35603(7) 0.41873(7)
H1 H 0.5314 0.3406 0.4468
N2 N 0.21712(16) 0.40397(7) 0.50525(7)
N3 N 0.47786(14) 0.29830(6) 0.58296(7)
H2 H 0.4831 0.3037 0.5475
N4 N 0.74413(15) 0.21480(7) 0.47013(7)
C1 C 0.64804(18) 0.33835(8) 0.39557(8)
C2 C 0.6632(2) 0.37551(9) 0.35363(9)
H3 H 0.7206 0.3742 0.3306
C3 C 0.58179(19) 0.41333(9) 0.35175(9)
H4 H 0.5733 0.4429 0.3275
C4 C 0.51144(19) 0.40091(8) 0.39251(8)
C5 C 0.4132(2) 0.42526(8) 0.40453(9)
C6 C 0.35838(19) 0.41051(8) 0.44982(8)
C7 C 0.2391(2) 0.42116(9) 0.45755(9)
C8 C 0.4037(2) 0.38279(8) 0.49858(8)
H5 H 0.4784 0.3687 0.5073
C9 C 0.31811(19) 0.37974(8) 0.53197(9)
C10 C 0.32054(19) 0.35875(8) 0.58601(9)
C11 C 0.40045(18) 0.32264(8) 0.61087(9)
C12 C 0.42156(19) 0.30313(8) 0.66667(8)
H6 H 0.3814 0.3129 0.6960
C13 C 0.50878(18) 0.26813(8) 0.67121(8)
H7 H 0.5397 0.2493 0.7041
C14 C 0.54608(18) 0.26445(8) 0.61789(8)
C15 C 0.63218(18) 0.23435(8) 0.60152(8)
C16 C 0.66788(17) 0.23945(8) 0.54872(8)
C17 C 0.72634(18) 0.19925(8) 0.51931(8)
C18 C 0.65291(17) 0.28141(8) 0.51081(8)
H8 H 0.6178 0.3141 0.5161
C19 C 0.69973(17) 0.26610(8) 0.46331(8)
C20 C 0.70849(18) 0.29267(8) 0.41326(8)
C21 C 0.36752(19) 0.47029(8) 0.36811(9)
C22 C 0.3144(2) 0.46417(9) 0.31324(9)
C23 C 0.2734(2) 0.50567(10) 0.27982(9)
C24 C 0.2863(2) 0.55587(10) 0.30086(11)
C25 C 0.3375(2) 0.56382(9) 0.35571(12)
C26 C 0.3768(2) 0.52123(9) 0.38838(10)
C27 C 0.0081(2) 0.44009(10) 0.43609(10)
C28 C -0.0206(2) 0.39287(10) 0.45870(11)
H9 H 0.0279 0.3633 0.4586
C29 C -0.1191(2) 0.38878(11) 0.48129(12)
H10 H -0.1361 0.3570 0.4986
C30 C -0.1933(2) 0.43064(12) 0.47891(12)
H11 H -0.2617 0.4275 0.4941
C31 C -0.1676(2) 0.47676(12) 0.45453(12)
H12 H -0.2201 0.5051 0.4514
C32 C -0.0653(2) 0.48247(10) 0.43433(11)
H13 H -0.0459 0.5151 0.4195
C33 C 0.2343(2) 0.37836(12) 0.62003(12)
C34 C 0.1277(3) 0.35657(11) 0.61550(13)
C35 C 0.0465(3) 0.37545(14) 0.64538(16)
C36 C 0.0725(3) 0.41806(14) 0.68060(15)
C37 C 0.1775(3) 0.44096(12) 0.68567(11)
C38 C 0.2552(4) 0.42082(17) 0.65581(16)
F16 F 0.10035(17) 0.31548(8) 0.58124(10)
F17 F -0.05701(17) 0.35422(8) 0.63973(11)
F18 F -0.00559(19) 0.43726(8) 0.70952(9)
F19 F 0.20243(18) 0.48282(8) 0.71921(7)
F20 F 0.35895(18) 0.44503(7) 0.66110(8)
C39 C 0.69194(18) 0.19651(8) 0.64358(8)
C40 C 0.63903(18) 0.15196(8) 0.66068(8)
C41 C 0.69386(19) 0.11913(8) 0.70170(8)
C42 C 0.80353(19) 0.13020(9) 0.72675(8)
C43 C 0.85877(18) 0.17369(9) 0.71047(8)
C44 C 0.80288(18) 0.20603(8) 0.66933(8)
C45 C 0.8079(2) 0.11112(9) 0.48226(9)
C46 C 0.7394(2) 0.07856(10) 0.44510(10)
H14 H 0.6673 0.0674 0.4527
C47 C 0.7781(3) 0.06238(11) 0.39630(11)
H15 H 0.7322 0.0399 0.3706
C48 C 0.8818(3) 0.07872(11) 0.38536(11)
H16 H 0.9068 0.0679 0.3518
C49 C 0.9499(2) 0.11054(11) 0.42242(10)
H17 H 1.0220 0.1214 0.4145
C50 C 0.9136(2) 0.12689(10) 0.47150(9)
H18 H 0.9609 0.1487 0.4974
C51 C 0.78089(19) 0.26786(8) 0.37568(8)
C52 C 0.73402(19) 0.25032(8) 0.32256(9)
C53 C 0.7961(2) 0.22278(9) 0.28863(8)
C54 C 0.9092(2) 0.21292(9) 0.30669(9)
C55 C 0.9595(2) 0.23027(9) 0.35880(10)
C56 C 0.89531(19) 0.25661(9) 0.39274(9)
S3 S 0.29885(5) 0.17876(2) 0.54577(2)
F26 F 0.15094(12) 0.11851(5) 0.34508(6)
F27 F 0.29331(14) 0.15586(5) 0.27897(6)
F28 F 0.48729(13) 0.10316(6) 0.26981(6)
F29 F 0.53473(13) 0.01174(6) 0.32565(7)
F30 F 0.39602(12) -0.02454(5) 0.39500(6)
F31 F 0.03325(10) 0.19001(5) 0.61865(5)
F32 F 0.13097(12) 0.26027(5) 0.69604(6)
F33 F 0.33622(12) 0.23837(5) 0.75833(5)
F34 F 0.44741(11) 0.14958(5) 0.74089(5)
F35 F 0.34950(11) 0.07845(5) 0.66462(5)
N5 N 0.03429(14) -0.03376(6) 0.41880(7)
H19 H 0.0309 -0.0281 0.4544
N6 N 0.26270(14) 0.09904(7) 0.47212(7)
C63 C -0.03935(18) -0.06578(8) 0.38427(8)
C64 C -0.00340(18) -0.06417(8) 0.33100(8)
H20 H -0.0375 -0.0826 0.2984
C65 C 0.08852(18) -0.03155(8) 0.33468(8)
H21 H 0.1289 -0.0234 0.3050
C66 C 0.11390(18) -0.01181(8) 0.39041(8)
C67 C 0.19354(18) 0.02659(8) 0.41186(8)
C68 C 0.20007(18) 0.05173(8) 0.46403(8)
C69 C 0.14608(18) 0.04158(8) 0.51038(8)
H22 H 0.1002 0.0119 0.5151
C70 C 0.17199(18) 0.08300(8) 0.54835(8)
C71 C 0.24615(17) 0.11761(8) 0.52019(8)
C72 C 0.13166(18) 0.09223(8) 0.59920(8)
C73 C 0.27015(18) 0.04629(8) 0.37306(8)
C74 C 0.24622(19) 0.09203(8) 0.34220(9)
C75 C 0.3192(2) 0.11142(8) 0.30819(9)
C76 C 0.4164(2) 0.08463(9) 0.30312(9)
C77 C 0.4411(2) 0.03855(10) 0.33194(10)
C78 C 0.3685(2) 0.02030(8) 0.36669(9)
C79 C 0.34864(19) 0.20336(9) 0.48518(8)
C80 C 0.2952(2) 0.24636(10) 0.45829(10)
H23 H 0.2341 0.2630 0.4722
C81 C 0.3328(3) 0.26525(11) 0.40984(11)
H24 H 0.2977 0.2951 0.3909
C82 C 0.4210(3) 0.24020(13) 0.38994(11)
H25 H 0.4449 0.2526 0.3567
C83 C 0.4747(2) 0.19778(12) 0.41732(11)
H26 H 0.5357 0.1812 0.4033
C84 C 0.4396(2) 0.17926(10) 0.46554(10)
H27 H 0.4773 0.1503 0.4852
C85 C 0.18851(18) 0.13200(8) 0.64001(8)
C86 C 0.13450(18) 0.17889(8) 0.64899(8)
C87 C 0.18408(19) 0.21529(8) 0.68796(9)
C88 C 0.28891(19) 0.20444(8) 0.71912(8)
C89 C 0.34542(19) 0.15892(9) 0.71045(8)
C90 C 0.29415(18) 0.12321(8) 0.67116(8)
S3B S -0.29885(5) -0.17876(2) 0.45423(2)
F26B F -0.15094(12) -0.11851(5) 0.65492(6)
F27B F -0.29331(14) -0.15586(5) 0.72103(6)
F28B F -0.48729(13) -0.10316(6) 0.73019(6)
F29B F -0.53473(13) -0.01174(6) 0.67435(7)
F30B F -0.39602(12) 0.02454(5) 0.60500(6)
F31B F -0.03325(10) -0.19001(5) 0.38135(5)
F32B F -0.13097(12) -0.26027(5) 0.30396(6)
F33B F -0.33622(12) -0.23837(5) 0.24167(5)
F34B F -0.44741(11) -0.14958(5) 0.25911(5)
F35B F -0.34950(11) -0.07845(5) 0.33538(5)
N5B N -0.03429(14) 0.03376(6) 0.58120(7)
H19B H -0.0309 0.0281 0.5456
N6B N -0.26270(14) -0.09904(7) 0.52788(7)
C63B C 0.03935(18) 0.06578(8) 0.61573(8)
C64B C 0.00340(18) 0.06417(8) 0.66900(8)
H20B H 0.0375 0.0826 0.7016
C65B C -0.08852(18) 0.03155(8) 0.66532(8)
H21B H -0.1289 0.0234 0.6950
C66B C -0.11390(18) 0.01181(8) 0.60959(8)
C67B C -0.19354(18) -0.02659(8) 0.58814(8)
C68B C -0.20007(18) -0.05173(8) 0.53597(8)
C69B C -0.14608(18) -0.04158(8) 0.48962(8)
H22B H -0.1002 -0.0119 0.4849
C70B C -0.17199(18) -0.08300(8) 0.45165(8)
C71B C -0.24615(17) -0.11761(8) 0.47981(8)
C72B C -0.13166(18) -0.09223(8) 0.40080(8)
C73B C -0.27015(18) -0.04629(8) 0.62694(8)
C74B C -0.24622(19) -0.09203(8) 0.65780(9)
C75B C -0.3192(2) -0.11142(8) 0.69181(9)
C76B C -0.4164(2) -0.08463(9) 0.69688(9)
C77B C -0.4411(2) -0.03855(10) 0.66806(10)
C78B C -0.3685(2) -0.02030(8) 0.63331(9)
C79B C -0.34864(19) -0.20336(9) 0.51482(8)
C80B C -0.2952(2) -0.24636(10) 0.54171(10)
H23B H -0.2341 -0.2630 0.5278
C81B C -0.3328(3) -0.26525(11) 0.59016(11)
H24B H -0.2977 -0.2951 0.6091
C82B C -0.4210(3) -0.24020(13) 0.61006(11)
H25B H -0.4449 -0.2526 0.6433
C83B C -0.4747(2) -0.19778(12) 0.58268(11)
H26B H -0.5357 -0.1812 0.5967
C84B C -0.4396(2) -0.17926(10) 0.53446(10)
H27B H -0.4773 -0.1503 0.5148
C85B C -0.18851(18) -0.13200(8) 0.35999(8)
C86B C -0.13450(18) -0.17889(8) 0.35101(8)
C87B C -0.18408(19) -0.21529(8) 0.31204(9)
C88B C -0.28891(19) -0.20444(8) 0.28088(8)
C89B C -0.34542(19) -0.15892(9) 0.28955(8)
C90B C -0.29415(18) -0.12321(8) 0.32884(8)
C57? C 0.2047(14) 0.3647(10) 0.6057(10)
C58? C 0.1027(15) 0.3405(10) 0.5871(10)
C59? C 0.0065(14) 0.3525(8) 0.6104(9)
C60? C 0.0166(15) 0.3883(12) 0.6542(11)
C61? C 0.1177(15) 0.4095(11) 0.6790(10)
C62? C 0.2075(15) 0.3981(9) 0.6506(8)
F21? F 0.0948(10) 0.3066(5) 0.5434(6)
F22? F -0.0935(11) 0.3294(6) 0.5910(7)
F23? F -0.0767(12) 0.3999(7) 0.6779(6)
F24? F 0.1260(14) 0.4458(7) 0.7199(6)
F25? F 0.3050(13) 0.4241(7) 0.6692(6)
loop_
_geom_bond_atom_site_label_1
_geom_bond_atom_site_label_2
_geom_bond_site_symmetry_1
_geom_bond_site_symmetry_2
S1 C7 1_555 1_555
S2 C17 1_555 1_555
F1 C22 1_555 1_555
F2 C23 1_555 1_555
F3 C24 1_555 1_555
F4 C25 1_555 1_555
F5 C26 1_555 1_555
F6 C40 1_555 1_555
F7 C41 1_555 1_555
F8 C42 1_555 1_555
F9 C43 1_555 1_555
F10 C44 1_555 1_555
F11 C52 1_555 1_555
F12 C53 1_555 1_555
F13 C54 1_555 1_555
F14 C55 1_555 1_555
F15 C56 1_555 1_555
N1 H1 1_555 1_555
N2 C7 1_555 1_555
N3 H2 1_555 1_555
N4 C17 1_555 1_555
C1 N1 1_555 1_555
C2 C1 1_555 1_555
H3 C2 1_555 1_555
C3 C2 1_555 1_555
H4 C3 1_555 1_555
C4 N1 1_555 1_555
C5 C4 1_555 1_555
C6 C5 1_555 1_555
C7 C6 1_555 1_555
C8 C6 1_555 1_555
H5 C8 1_555 1_555
C9 N2 1_555 1_555
C10 C9 1_555 1_555
C11 N3 1_555 1_555
C12 C11 1_555 1_555
H6 C12 1_555 1_555
C13 C12 1_555 1_555
H7 C13 1_555 1_555
C14 N3 1_555 1_555
C15 C14 1_555 1_555
C16 C15 1_555 1_555
C17 C16 1_555 1_555
C18 C16 1_555 1_555
H8 C18 1_555 1_555
C19 N4 1_555 1_555
C20 C1 1_555 1_555
C21 C5 1_555 1_555
C22 C21 1_555 1_555
C23 C22 1_555 1_555
C24 C23 1_555 1_555
C25 C24 1_555 1_555
C26 C21 1_555 1_555
C27 S1 1_555 1_555
C28 C27 1_555 1_555
H9 C28 1_555 1_555
C29 C28 1_555 1_555
H10 C29 1_555 1_555
C30 C29 1_555 1_555
H11 C30 1_555 1_555
C31 C30 1_555 1_555
H12 C31 1_555 1_555
C32 C27 1_555 1_555
H13 C32 1_555 1_555
C33 C10 1_555 1_555
C34 C33 1_555 1_555
C35 C34 1_555 1_555
C36 C35 1_555 1_555
C37 C36 1_555 1_555
C38 C33 1_555 1_555
F16 C34 1_555 1_555
F17 C35 1_555 1_555
F18 C36 1_555 1_555
F19 C37 1_555 1_555
F20 C38 1_555 1_555
C39 C15 1_555 1_555
C40 C39 1_555 1_555
C41 C40 1_555 1_555
C42 C41 1_555 1_555
C43 C42 1_555 1_555
C44 C39 1_555 1_555
C45 S2 1_555 1_555
C46 C45 1_555 1_555
H14 C46 1_555 1_555
C47 C46 1_555 1_555
H15 C47 1_555 1_555
C48 C47 1_555 1_555
H16 C48 1_555 1_555
C49 C48 1_555 1_555
H17 C49 1_555 1_555
C50 C45 1_555 1_555
H18 C50 1_555 1_555
C51 C20 1_555 1_555
C52 C51 1_555 1_555
C53 C52 1_555 1_555
C54 C53 1_555 1_555
C55 C54 1_555 1_555
C56 C51 1_555 1_555
S3 C71 1_555 1_555
F26 C74 1_555 1_555
F27 C75 1_555 1_555
F28 C76 1_555 1_555
F29 C77 1_555 1_555
F30 C78 1_555 1_555
F31 C86 1_555 1_555
F32 C87 1_555 1_555
F33 C88 1_555 1_555
F34 C89 1_555 1_555
F35 C90 1_555 1_555
N5 H19 1_555 1_555
N6 C68 1_555 1_555
C63 N5 1_555 1_555
C64 C63 1_555 1_555
H20 C64 1_555 1_555
C65 C64 1_555 1_555
H21 C65 1_555 1_555
C66 N5 1_555 1_555
C67 C66 1_555 1_555
C68 C67 1_555 1_555
C69 C68 1_555 1_555
H22 C69 1_555 1_555
C70 C69 1_555 1_555
C71 N6 1_555 1_555
C72 C70 1_555 1_555
C73 C67 1_555 1_555
C74 C73 1_555 1_555
C75 C74 1_555 1_555
C76 C75 1_555 1_555
C77 C76 1_555 1_555
C78 C73 1_555 1_555
C79 S3 1_555 1_555
C80 C79 1_555 1_555
H23 C80 1_555 1_555
C81 C80 1_555 1_555
H24 C81 1_555 1_555
C82 C81 1_555 1_555
H25 C82 1_555 1_555
C83 C82 1_555 1_555
H26 C83 1_555 1_555
C84 C79 1_555 1_555
H27 C84 1_555 1_555
C85 C72 1_555 1_555
C86 C85 1_555 1_555
C87 C86 1_555 1_555
C88 C87 1_555 1_555
C89 C88 1_555 1_555
C90 C85 1_555 1_555
S3B C71B 1_555 1_555
F26B C74B 1_555 1_555
F27B C75B 1_555 1_555
F28B C76B 1_555 1_555
F29B C77B 1_555 1_555
F30B C78B 1_555 1_555
F31B C86B 1_555 1_555
F32B C87B 1_555 1_555
F33B C88B 1_555 1_555
F34B C89B 1_555 1_555
F35B C90B 1_555 1_555
N5B H19B 1_555 1_555
N6B C68B 1_555 1_555
C63B C72 1_555 1_555
C64B C63B 1_555 1_555
H20B C64B 1_555 1_555
C65B C64B 1_555 1_555
H21B C65B 1_555 1_555
C66B N5B 1_555 1_555
C67B C66B 1_555 1_555
C68B C67B 1_555 1_555
C69B C68B 1_555 1_555
H22B C69B 1_555 1_555
C70B C69B 1_555 1_555
C71B N6B 1_555 1_555
C72B C63 1_555 1_555
C73B C67B 1_555 1_555
C74B C73B 1_555 1_555
C75B C74B 1_555 1_555
C76B C75B 1_555 1_555
C77B C76B 1_555 1_555
C78B C73B 1_555 1_555
C79B S3B 1_555 1_555
C80B C79B 1_555 1_555
H23B C80B 1_555 1_555
C81B C80B 1_555 1_555
H24B C81B 1_555 1_555
C82B C81B 1_555 1_555
H25B C82B 1_555 1_555
C83B C82B 1_555 1_555
H26B C83B 1_555 1_555
C84B C79B 1_555 1_555
H27B C84B 1_555 1_555
C85B C72B 1_555 1_555
C86B C85B 1_555 1_555
C87B C86B 1_555 1_555
C88B C87B 1_555 1_555
C89B C88B 1_555 1_555
C90B C85B 1_555 1_555
C3 C4 1_555 1_555
C8 C9 1_555 1_555
C10 C11 1_555 1_555
C13 C14 1_555 1_555
C18 C19 1_555 1_555
C19 C20 1_555 1_555
C25 C26 1_555 1_555
C31 C32 1_555 1_555
C37 C38 1_555 1_555
C43 C44 1_555 1_555
C49 C50 1_555 1_555
C55 C56 1_555 1_555
C65 C66 1_555 1_555
C70 C71 1_555 1_555
C77 C78 1_555 1_555
C83 C84 1_555 1_555
C89 C90 1_555 1_555
N5B C63B 1_555 1_555
C65B C66B 1_555 1_555
C70B C71B 1_555 1_555
C70B C72B 1_555 1_555
C77B C78B 1_555 1_555
C83B C84B 1_555 1_555
C89B C90B 1_555 1_555

#END
