
#######################################################################
#
#                 Cambridge Crystallographic Data Centre
#                                CCDC 
#
#######################################################################
#
# If this CIF has been generated from an entry in the Cambridge 
# Structural Database, then it will include bibliographic, chemical, 
# crystal, experimental, refinement or atomic coordinate data resulting 
# from the CCDC's data processing and validation procedures.
#
#######################################################################

data_RONZAX
_chemical_formula_moiety         'C22 H14 F3 N3 O2'
_chemical_name_systematic        
1-(1-(4-(trifluoromethyl)phenyl)-11H-6-oxa-2,11,11b-triazadibenzo[cd,g]azulen-11-yl)ethanone
_symmetry_cell_setting           orthorhombic
_symmetry_space_group_name_H-M   'P n a 21'
_symmetry_Int_Tables_number      33
_space_group_name_Hall           'P 2c -2n'
loop_
_symmetry_equiv_pos_site_id
_symmetry_equiv_pos_as_xyz
1 x,y,z
2 -x,-y,1/2+z
3 1/2-x,1/2+y,1/2+z
4 1/2+x,1/2-y,z
_cell_length_a                   17.511(14)
_cell_length_b                   8.066(6)
_cell_length_c                   26.88(2)
_cell_angle_alpha                90
_cell_angle_beta                 90
_cell_angle_gamma                90
_cell_volume                     3796.63
_cell_formula_units_Z            8
loop_
_atom_site_label
_atom_site_type_symbol
_atom_site_fract_x
_atom_site_fract_y
_atom_site_fract_z
F1 F 0.12825(19) 0.8474(6) 0.66413(13)
F2 F 0.2296(2) 0.9893(5) 0.66856(13)
F3 F 0.2350(2) 0.7284(4) 0.67029(18)
O1 O 0.30612(16) 0.9416(4) 1.03286(12)
O2 O 0.36602(18) 0.7445(4) 0.89409(18)
C1 C 0.3061(3) 1.2412(7) 1.0397(3)
H1 H 0.3049 1.2320 1.0742
N1 N 0.30695(15) 0.9621(4) 0.93033(12)
N2 N 0.21321(18) 0.8195(4) 0.98122(14)
C2 C 0.3089(3) 1.3934(8) 1.0183(3)
H2 H 0.3085 1.4881 1.0380
C3 C 0.3051(3) 1.1008(7) 1.0109(2)
C4 C 0.3092(2) 1.1142(6) 0.96002(19)
C5 C 0.2386(2) 0.8708(5) 0.93474(16)
C6 C 0.1864(2) 0.8115(6) 0.90076(16)
C7 C 0.1856(2) 0.8313(5) 0.84670(16)
C8 C 0.2332(2) 0.9464(6) 0.82253(18)
H3 H 0.2644 1.0155 0.8413
C9 C 0.2343(2) 0.9581(5) 0.77118(18)
H4 H 0.2661 1.0350 0.7558
C10 C 0.1882(2) 0.8554(6) 0.74263(15)
C11 C 0.1937(3) 0.8573(8) 0.6874(2)
C12 C 0.2408(2) 0.8493(5) 1.02852(18)
C13 C 0.1469(2) 0.7241(5) 0.9724(3)
C14 C 0.1110(3) 0.6523(6) 1.0143(2)
H5 H 0.0673 0.5884 1.0102
C15 C 0.1403(3) 0.6765(7) 1.0608(2)
H6 H 0.1168 0.6264 1.0879
C16 C 0.2061(3) 0.7766(6) 1.0687(3)
H7 H 0.2253 0.7924 1.1006
N3 N 0.1307(2) 0.7185(4) 0.92407(19)
C17 C 0.3123(3) 1.4074(6) 0.9675(2)
H8 H 0.3143 1.5121 0.9531
C18 C 0.3129(2) 1.2683(5) 0.9373(2)
H9 H 0.3156 1.2779 0.9029
C19 C 0.3714(2) 0.8830(6) 0.91079(16)
C20 C 0.4438(2) 0.9822(5) 0.9109(2)
H10 H 0.4860 0.9112 0.9028
H11 H 0.4516 1.0293 0.9433
H12 H 0.4402 1.0694 0.8867
C21 C 0.1360(2) 0.7348(5) 0.8170(3)
H13 H 0.1022 0.6617 0.8322
C22 C 0.1370(3) 0.7472(5) 0.7668(3)
H14 H 0.1035 0.6835 0.7480
F4 F 0.37888(18) 0.6744(6) 0.53958(14)
F5 F 0.4869(2) 0.7813(4) 0.53496(17)
F6 F 0.4759(3) 0.5229(4) 0.53681(13)
O3 O 0.56342(15) 0.5481(4) 0.17315(11)
O4 O 0.62609(17) 0.7535(3) 0.31362(18)
N4 N 0.56440(16) 0.5383(4) 0.27625(12)
N5 N 0.3899(2) 0.7891(4) 0.27916(18)
N6 N 0.47181(16) 0.6823(4) 0.22404(13)
C23 C 0.5607(3) 0.0985(7) 0.1932(3)
H15 H 0.5587 0.0015 0.1745
C24 C 0.5665(3) 0.0862(7) 0.2452(2)
H16 H 0.5695 -0.0161 0.2611
C25 C 0.5676(3) 0.2321(6) 0.2717(2)
H17 H 0.5693 0.2266 0.3063
C26 C 0.5664(2) 0.3843(7) 0.24975(19)
C27 C 0.4963(2) 0.6307(5) 0.27136(15)
C28 C 0.4439(2) 0.6957(5) 0.30410(17)
C29 C 0.4427(2) 0.6771(5) 0.35886(15)
C30 C 0.4888(2) 0.5642(5) 0.38368(16)
H18 H 0.5205 0.4945 0.3654
C31 C 0.4885(2) 0.5535(5) 0.43503(17)
H19 H 0.5201 0.4778 0.4511
C32 C 0.4407(2) 0.6566(5) 0.46261(16)
C33 C 0.4454(3) 0.6561(7) 0.51774(18)
C34 C 0.4065(3) 0.7767(5) 0.2313(2)
C35 C 0.4994(2) 0.6466(5) 0.17675(17)
C36 C 0.5621(2) 0.3925(6) 0.1975(2)
C37 C 0.7014(2) 0.5156(5) 0.2957(2)
H20 H 0.7444 0.5893 0.2946
H21 H 0.7023 0.4446 0.2670
H22 H 0.7040 0.4493 0.3253
C38 C 0.5580(3) 0.2493(6) 0.1685(3)
H23 H 0.5536 0.2548 0.1341
C39 C 0.4649(3) 0.7136(7) 0.1376(2)
H24 H 0.4833 0.6910 0.1059
C40 C 0.4009(3) 0.8187(7) 0.1433(2)
H25 H 0.3790 0.8677 0.1154
C41 C 0.3709(2) 0.8490(5) 0.18919(19)
H26 H 0.3279 0.9157 0.1928
C42 C 0.3942(3) 0.7753(5) 0.3866(2)
H27 H 0.3613 0.8484 0.3706
C43 C 0.3939(3) 0.7660(6) 0.4392(2)
H28 H 0.3619 0.8344 0.4576
C44 C 0.6293(2) 0.6141(5) 0.29584(16)
loop_
_geom_bond_atom_site_label_1
_geom_bond_atom_site_label_2
_geom_bond_site_symmetry_1
_geom_bond_site_symmetry_2
F1 C11 1_555 1_555
F2 C11 1_555 1_555
F3 C11 1_555 1_555
O1 C3 1_555 1_555
O2 C19 1_555 1_555
C1 H1 1_555 1_555
N1 C4 1_555 1_555
N2 C5 1_555 1_555
C2 C1 1_555 1_555
H2 C2 1_555 1_555
C3 C1 1_555 1_555
C4 C3 1_555 1_555
C5 N1 1_555 1_555
C6 C5 1_555 1_555
C7 C6 1_555 1_555
C8 C7 1_555 1_555
H3 C8 1_555 1_555
C9 C8 1_555 1_555
H4 C9 1_555 1_555
C10 C9 1_555 1_555
C11 C10 1_555 1_555
C12 O1 1_555 1_555
C13 N2 1_555 1_555
C14 C13 1_555 1_555
H5 C14 1_555 1_555
C15 C14 1_555 1_555
H6 C15 1_555 1_555
C16 C12 1_555 1_555
H7 C16 1_555 1_555
N3 C6 1_555 1_555
C17 C2 1_555 1_555
H8 C17 1_555 1_555
C18 C4 1_555 1_555
H9 C18 1_555 1_555
C19 N1 1_555 1_555
C20 C19 1_555 1_555
H10 C20 1_555 1_555
H11 C20 1_555 1_555
H12 C20 1_555 1_555
C21 C7 1_555 1_555
H13 C21 1_555 1_555
C22 C10 1_555 1_555
H14 C22 1_555 1_555
F4 C33 1_555 1_555
F5 C33 1_555 1_555
F6 C33 1_555 1_555
O3 C35 1_555 1_555
O4 C44 1_555 1_555
N4 C26 1_555 1_555
N5 C28 1_555 1_555
N6 C27 1_555 1_555
C23 H15 1_555 1_555
C24 C23 1_555 1_555
H16 C24 1_555 1_555
C25 C24 1_555 1_555
H17 C25 1_555 1_555
C26 C25 1_555 1_555
C27 N4 1_555 1_555
C28 C27 1_555 1_555
C29 C28 1_555 1_555
C30 C29 1_555 1_555
H18 C30 1_555 1_555
C31 C30 1_555 1_555
H19 C31 1_555 1_555
C32 C31 1_555 1_555
C33 C32 1_555 1_555
C34 N5 1_555 1_555
C35 N6 1_555 1_555
C36 O3 1_555 1_555
C37 H20 1_555 1_555
H21 C37 1_555 1_555
H22 C37 1_555 1_555
C38 C23 1_555 1_555
H23 C38 1_555 1_555
C39 C35 1_555 1_555
H24 C39 1_555 1_555
C40 C39 1_555 1_555
H25 C40 1_555 1_555
C41 C34 1_555 1_555
H26 C41 1_555 1_555
C42 C29 1_555 1_555
H27 C42 1_555 1_555
C43 C32 1_555 1_555
H28 C43 1_555 1_555
C44 N4 1_555 1_555
N2 C12 1_555 1_555
C13 N3 1_555 1_555
C15 C16 1_555 1_555
C17 C18 1_555 1_555
C21 C22 1_555 1_555
N6 C34 1_555 1_555
C26 C36 1_555 1_555
C36 C38 1_555 1_555
C37 C44 1_555 1_555
C40 C41 1_555 1_555
C42 C43 1_555 1_555

#END
