
#######################################################################
#
#                 Cambridge Crystallographic Data Centre
#                                CCDC 
#
#######################################################################
#
# If this CIF has been generated from an entry in the Cambridge 
# Structural Database, then it will include bibliographic, chemical, 
# crystal, experimental, refinement or atomic coordinate data resulting 
# from the CCDC's data processing and validation procedures.
#
#######################################################################

data_RONZIF
_chemical_formula_moiety         'C56 H20 F20 N4 S2,H2 O1'
_chemical_name_systematic        
'2,7,12,17-tetrakis(pentafluorophenyl)-5,15-bis(phenylsulfanyl)-4,14,21,23-tetraazapentacyclo[16.2.1.1^3,6^.1^8,11^.1^13,16^]tetracosa-1,3(24),5,7,9,11,13(22),15,17,19-decaene monohydrate'
_symmetry_cell_setting           monoclinic
_symmetry_space_group_name_H-M   'P 21/n'
_symmetry_Int_Tables_number      14
_space_group_name_Hall           '-P 2yn'
loop_
_symmetry_equiv_pos_site_id
_symmetry_equiv_pos_as_xyz
1 x,y,z
2 1/2-x,1/2+y,1/2-z
3 -x,-y,-z
4 1/2+x,1/2-y,1/2+z
_cell_length_a                   17.201(6)
_cell_length_b                   15.424(4)
_cell_length_c                   19.135(7)
_cell_angle_alpha                90
_cell_angle_beta                 111.208(5)
_cell_angle_gamma                90
_cell_volume                     4732.85
_exptl_crystal_colour            brown
_exptl_crystal_description       platelet
_cell_formula_units_Z            4
_chemical_properties_physical    'Air-sensitive, Oxygen-sensitive'
_exptl_crystal_recrystallization_method dichloromethane/methanol
loop_
_atom_site_label
_atom_site_type_symbol
_atom_site_fract_x
_atom_site_fract_y
_atom_site_fract_z
S1 S 0.32359(8) 0.08093(9) 0.26676(7)
S2 S -0.04728(7) -0.04533(8) 0.59470(7)
F1 F 0.26248(15) -0.16946(19) 0.25707(16)
F2 F 0.35227(18) -0.2120(2) 0.17228(17)
F3 F 0.51387(17) -0.16306(18) 0.21361(17)
F4 F 0.59071(15) -0.08203(18) 0.34797(16)
F5 F 0.50303(15) -0.04403(18) 0.43623(15)
F6 F -0.01401(17) 0.1861(2) 0.59849(17)
F7 F -0.10401(18) 0.2123(2) 0.68583(18)
F8 F -0.0514(2) 0.1469(2) 0.82611(19)
F9 F 0.09505(19) 0.0530(2) 0.87981(18)
F10 F 0.17823(16) 0.01722(19) 0.78832(16)
F11 F 0.10698(19) -0.34588(17) 0.43020(18)
F12 F 0.0692(2) -0.5042(2) 0.4633(2)
F13 F 0.1024(3) -0.5505(2) 0.6072(3)
F14 F 0.1659(2) -0.4316(2) 0.7197(2)
F15 F 0.20520(18) -0.2722(2) 0.68684(17)
N1 N 0.2506(2) -0.1295(2) 0.4721(2)
H1 H 0.2334 -0.0785 0.4814
N2 N 0.2986(2) 0.1569(2) 0.3845(2)
H2 H 0.2929 0.2078 0.3624
N3 N 0.2092(2) 0.1292(2) 0.5632(2)
H3 H 0.2094 0.0799 0.5401
N4 N 0.0699(2) -0.1415(2) 0.5675(2)
H4 H 0.0359 -0.1862 0.5539
C1 C 0.2310(3) -0.2070(3) 0.4980(3)
C2 C 0.2765(3) -0.2726(3) 0.4724(3)
H5 H 0.2779 -0.3328 0.4830
C3 C 0.3162(3) -0.2340(3) 0.4313(3)
H6 H 0.3488 -0.2627 0.4075
C4 C 0.3008(3) -0.1415(3) 0.4295(3)
C5 C 0.3311(2) -0.0782(3) 0.3967(3)
C6 C 0.3175(2) 0.0144(3) 0.4051(3)
C7 C 0.3145(3) 0.0803(3) 0.3547(3)
C8 C 0.3040(2) 0.0542(3) 0.4678(2)
H7 H 0.3028 0.0250 0.5111
C9 C 0.2929(3) 0.1425(3) 0.4541(3)
C10 C 0.2821(3) 0.2147(3) 0.4995(3)
C11 C 0.2451(3) 0.2050(3) 0.5514(3)
C12 C 0.2340(3) 0.2667(3) 0.6047(3)
H8 H 0.2544 0.3245 0.6118
C13 C 0.1909(3) 0.2294(3) 0.6418(3)
H9 H 0.1747 0.2567 0.6789
C14 C 0.1723(2) 0.1408(3) 0.6169(2)
C15 C 0.1293(2) 0.0780(3) 0.6379(2)
C16 C 0.1212(2) -0.0105(3) 0.6091(2)
C17 C 0.0515(3) -0.0644(3) 0.5928(3)
C18 C 0.1824(3) -0.0597(3) 0.5914(3)
H10 H 0.2366 -0.0403 0.5965
C19 C 0.1492(3) -0.1394(3) 0.5661(3)
C20 C 0.1840(3) -0.2162(3) 0.5405(3)
C21 C 0.3801(3) -0.1042(3) 0.3502(3)
C22 C 0.3438(3) -0.1490(3) 0.2824(3)
C23 C 0.3890(3) -0.1690(3) 0.2376(3)
C24 C 0.4709(3) -0.1446(3) 0.2580(3)
C25 C 0.5096(3) -0.1036(3) 0.3257(3)
C26 C 0.4646(3) -0.0846(3) 0.3710(3)
C27 C 0.4313(3) 0.1072(3) 0.2900(3)
C28 C 0.4633(3) 0.0936(3) 0.2332(3)
H11 H 0.4293 0.0693 0.1866
C29 C 0.5469(4) 0.1164(4) 0.2462(4)
H12 H 0.5690 0.1073 0.2079
C30 C 0.5956(3) 0.1509(4) 0.3121(4)
H13 H 0.6514 0.1672 0.3199
C31 C 0.5639(3) 0.1627(4) 0.3689(3)
H14 H 0.5986 0.1857 0.4159
C32 C 0.4824(3) 0.1411(3) 0.3573(3)
H15 H 0.4614 0.1498 0.3964
C33 C 0.3025(8) 0.3056(7) 0.4827(13)
C34 C 0.2452(8) 0.3736(7) 0.4622(9)
C35 C 0.2669(8) 0.4543(6) 0.4446(6)
C36 C 0.3455(9) 0.4685(6) 0.4465(7)
C37 C 0.4055(7) 0.4032(7) 0.4661(7)
C38 C 0.3804(7) 0.3232(7) 0.4823(9)
F16 F 0.1670(6) 0.3614(7) 0.4592(8)
F17 F 0.2140(6) 0.5186(3) 0.4257(3)
F18 F 0.3677(5) 0.5481(3) 0.4298(4)
F19 F 0.4830(5) 0.4163(4) 0.4688(4)
F20 F 0.4401(7) 0.2605(6) 0.5026(7)
C39 C 0.0861(3) 0.1021(3) 0.6907(3)
C40 C 0.0139(3) 0.1532(3) 0.6675(3)
C41 C -0.0323(3) 0.1679(3) 0.7123(3)
C42 C -0.0057(3) 0.1337(3) 0.7830(3)
C43 C 0.0674(3) 0.0859(3) 0.8098(3)
C44 C 0.1102(3) 0.0688(3) 0.7628(3)
C45 C -0.0387(3) -0.0820(3) 0.6848(3)
C46 C -0.1028(3) -0.0600(4) 0.7099(3)
H16 H -0.1488 -0.0269 0.6787
C47 C -0.0999(4) -0.0857(5) 0.7790(3)
H17 H -0.1445 -0.0713 0.7949
C48 C -0.0333(4) -0.1322(4) 0.8257(3)
H18 H -0.0326 -0.1501 0.8734
C49 C 0.0311(3) -0.1525(3) 0.8044(3)
H19 H 0.0781 -0.1824 0.8379
C50 C 0.0286(3) -0.1293(3) 0.7325(3)
H20 H 0.0727 -0.1458 0.7165
C51 C 0.1605(3) -0.3030(3) 0.5577(3)
C52 C 0.1249(3) -0.3648(3) 0.5035(3)
C53 C 0.1049(4) -0.4475(4) 0.5195(4)
C54 C 0.1200(4) -0.4696(4) 0.5916(4)
C55 C 0.1510(3) -0.4099(4) 0.6467(4)
C56 C 0.1719(3) -0.3282(4) 0.6306(3)
O1 O -0.0394(4) -0.2854(4) 0.5332(5)
H21 H -0.089(4) -0.251(5) 0.500(4)
H22 H -0.073(5) -0.317(5) 0.559(5)
C57? C 0.3251(10) 0.2945(9) 0.4880(18)
C58? C 0.2830(10) 0.3737(9) 0.4730(11)
C59? C 0.3150(10) 0.4454(8) 0.4520(10)
C60? C 0.3941(12) 0.4435(11) 0.4527(13)
C61? C 0.4426(9) 0.3687(10) 0.4731(9)
C62? C 0.4045(10) 0.2991(11) 0.4907(12)
F21? F 0.2023(8) 0.3780(9) 0.4689(10)
F22? F 0.2748(6) 0.5177(5) 0.4318(6)
F23? F 0.4300(7) 0.5108(7) 0.4329(6)
F24? F 0.5225(5) 0.3632(8) 0.4768(6)
F25? F 0.4533(11) 0.2257(10) 0.5131(12)
loop_
_geom_bond_atom_site_label_1
_geom_bond_atom_site_label_2
_geom_bond_site_symmetry_1
_geom_bond_site_symmetry_2
S1 C7 1_555 1_555
S2 C17 1_555 1_555
F1 C22 1_555 1_555
F2 C23 1_555 1_555
F3 C24 1_555 1_555
F4 C25 1_555 1_555
F5 C26 1_555 1_555
F6 C40 1_555 1_555
F7 C41 1_555 1_555
F8 C42 1_555 1_555
F9 C43 1_555 1_555
F10 C44 1_555 1_555
F11 C52 1_555 1_555
F12 C53 1_555 1_555
F13 C54 1_555 1_555
F14 C55 1_555 1_555
F15 C56 1_555 1_555
N1 H1 1_555 1_555
N2 H2 1_555 1_555
N3 H3 1_555 1_555
N4 H4 1_555 1_555
C1 N1 1_555 1_555
C2 C1 1_555 1_555
H5 C2 1_555 1_555
C3 C2 1_555 1_555
H6 C3 1_555 1_555
C4 N1 1_555 1_555
C5 C4 1_555 1_555
C6 C5 1_555 1_555
C7 N2 1_555 1_555
C8 C6 1_555 1_555
H7 C8 1_555 1_555
C9 N2 1_555 1_555
C10 C9 1_555 1_555
C11 N3 1_555 1_555
C12 C11 1_555 1_555
H8 C12 1_555 1_555
C13 C12 1_555 1_555
H9 C13 1_555 1_555
C14 N3 1_555 1_555
C15 C14 1_555 1_555
C16 C15 1_555 1_555
C17 N4 1_555 1_555
C18 C16 1_555 1_555
H10 C18 1_555 1_555
C19 N4 1_555 1_555
C20 C1 1_555 1_555
C21 C5 1_555 1_555
C22 C21 1_555 1_555
C23 C22 1_555 1_555
C24 C23 1_555 1_555
C25 C24 1_555 1_555
C26 C21 1_555 1_555
C27 S1 1_555 1_555
C28 C27 1_555 1_555
H11 C28 1_555 1_555
C29 C28 1_555 1_555
H12 C29 1_555 1_555
C30 C29 1_555 1_555
H13 C30 1_555 1_555
C31 C30 1_555 1_555
H14 C31 1_555 1_555
C32 C27 1_555 1_555
H15 C32 1_555 1_555
C33 C10 1_555 1_555
C34 C33 1_555 1_555
C35 C34 1_555 1_555
C36 C35 1_555 1_555
C37 C36 1_555 1_555
C38 C33 1_555 1_555
F16 C34 1_555 1_555
F17 C35 1_555 1_555
F18 C36 1_555 1_555
F19 C37 1_555 1_555
F20 C38 1_555 1_555
C39 C15 1_555 1_555
C40 C39 1_555 1_555
C41 C40 1_555 1_555
C42 C41 1_555 1_555
C43 C42 1_555 1_555
C44 C39 1_555 1_555
C45 S2 1_555 1_555
C46 C45 1_555 1_555
H16 C46 1_555 1_555
C47 C46 1_555 1_555
H17 C47 1_555 1_555
C48 C47 1_555 1_555
H18 C48 1_555 1_555
C49 C48 1_555 1_555
H19 C49 1_555 1_555
C50 C45 1_555 1_555
H20 C50 1_555 1_555
C51 C20 1_555 1_555
C52 C51 1_555 1_555
C53 C52 1_555 1_555
C54 C53 1_555 1_555
C55 C54 1_555 1_555
C56 C51 1_555 1_555
O1 H21 1_555 1_555
H22 O1 1_555 1_555
C3 C4 1_555 1_555
C6 C7 1_555 1_555
C8 C9 1_555 1_555
C10 C11 1_555 1_555
C13 C14 1_555 1_555
C16 C17 1_555 1_555
C18 C19 1_555 1_555
C19 C20 1_555 1_555
C25 C26 1_555 1_555
C31 C32 1_555 1_555
C37 C38 1_555 1_555
C43 C44 1_555 1_555
C49 C50 1_555 1_555
C55 C56 1_555 1_555

#END
