
#######################################################################
#
#                 Cambridge Crystallographic Data Centre
#                                CCDC 
#
#######################################################################
#
# If this CIF has been generated from an entry in the Cambridge 
# Structural Database, then it will include bibliographic, chemical, 
# crystal, experimental, refinement or atomic coordinate data resulting 
# from the CCDC's data processing and validation procedures.
#
#######################################################################

data_ROPNOB
_chemical_formula_moiety         'C27 H26 Br1 N1 O7'
_chemical_name_systematic        
"(S,S,S)-1'-t-Butyl 3-ethyl 2-(4-bromobenzoyl)-2',4-dioxospiro[cyclopentane-1,3'-indole]-1',3(2'H)-dicarboxylate"
_symmetry_cell_setting           monoclinic
_symmetry_space_group_name_H-M   'P 21'
_symmetry_Int_Tables_number      4
_space_group_name_Hall           'P 2yb'
loop_
_symmetry_equiv_pos_site_id
_symmetry_equiv_pos_as_xyz
1 x,y,z
2 -x,1/2+y,-z
_cell_length_a                   12.0921(5)
_cell_length_b                   12.0539(5)
_cell_length_c                   18.6826(8)
_cell_angle_alpha                90
_cell_angle_beta                 100.115(4)
_cell_angle_gamma                90
_cell_volume                     2680.79
_cell_formula_units_Z            4
loop_
_atom_site_label
_atom_site_type_symbol
_atom_site_fract_x
_atom_site_fract_y
_atom_site_fract_z
Br1 Br 1.14645(7) 0.6061(2) 0.58393(5)
O1 O 1.0168(4) 0.7335(5) 0.3136(3)
N1 N 0.8866(4) 0.6016(6) 0.2894(3)
C1 C 0.5788(5) 0.3537(6) 0.2959(4)
H1 H 0.5194 0.3955 0.3134
C2 C 0.6964(6) 0.6052(9) 0.2881(4)
C3 C 0.7934(7) 0.6698(7) 0.2961(4)
C4 C 0.7251(6) 0.4864(7) 0.2754(4)
C5 C 0.6657(7) 0.4411(8) 0.2005(4)
H2 H 0.6387 0.5017 0.1680
H3 H 0.7172 0.3964 0.1783
C6 C 0.6974(6) 0.4502(7) 0.4049(4)
C7 C 0.9116(7) 0.6172(8) 0.5298(4)
H4 H 0.9128 0.6789 0.5598
C8 C 0.8094(6) 0.4888(7) 0.4457(4)
C9 C 1.1026(12) 0.9048(10) 0.3377(8)
H5 H 1.0670 0.9097 0.3797
H6 H 1.0525 0.9325 0.2959
H7 H 1.1702 0.9482 0.3456
O2 O 0.9083(4) 0.4101(5) 0.2732(3)
C10 C 1.0083(6) 0.4700(7) 0.4829(4)
H8 H 1.0748 0.4323 0.4812
C11 C 0.6937(6) 0.4021(7) 0.3300(4)
H9 H 0.7486 0.3417 0.3342
C12 C 0.9092(6) 0.4335(7) 0.4422(4)
H10 H 0.9089 0.3718 0.4122
C13 C 0.5925(8) 0.6532(9) 0.2914(6)
H11 H 0.5269 0.6114 0.2848
C14 C 1.1307(7) 0.7865(7) 0.3252(4)
C15 C 0.5700(6) 0.3724(9) 0.2157(5)
C16 C 0.6856(10) 0.8301(9) 0.3129(9)
H12 H 0.6811 0.9062 0.3200
C17 C 1.0091(7) 0.5610(7) 0.5257(4)
C18 C 0.5915(10) 0.7689(10) 0.3054(8)
H13 H 0.5240 0.8032 0.3095
C19 C 0.7889(8) 0.7828(9) 0.3104(6)
H14 H 0.8539 0.8256 0.3181
C20 C 0.8128(7) 0.5816(7) 0.4896(4)
H15 H 0.7468 0.6202 0.4916
O3 O 0.5042(6) 0.3211(8) 0.1753(4)
C21 C 1.1789(11) 0.7753(11) 0.2571(6)
H16 H 1.2290 0.8361 0.2536
H17 H 1.1193 0.7759 0.2157
H18 H 1.2195 0.7067 0.2582
C22 C 0.8511(6) 0.4915(7) 0.2785(4)
C23 C 1.0020(7) 0.6289(7) 0.2987(4)
O4 O 0.6132(5) 0.4656(8) 0.4292(3)
O5 O 1.0725(5) 0.5621(6) 0.2909(5)
C24 C 1.2005(12) 0.7357(16) 0.3925(7)
H19 H 1.2188 0.6604 0.3824
H20 H 1.1585 0.7368 0.4316
H21 H 1.2685 0.7776 0.4061
C25 C 0.5656(6) 0.2329(7) 0.3110(5)
O6 O 0.4644(9) 0.1948(8) 0.2835(8)
C26 C 0.449(2) 0.0755(8) 0.2797(10)
H22 H 0.5157 0.0387 0.2694
H23 H 0.3856 0.0557 0.2424
O7 O 0.6437(15) 0.1706(17) 0.3251(7)
C27 C 0.427(3) 0.045(2) 0.3538(12)
H24 H 0.4158 -0.0340 0.3560
H25 H 0.3611 0.0825 0.3629
H26 H 0.4903 0.0658 0.3898
O10 O -0.2212(4) 0.2955(6) 0.0065(3)
O11 O -0.0892(4) 0.4084(5) 0.1116(3)
C30 C 0.1048(5) 0.3474(6) 0.1269(3)
N2 N -0.0341(5) 0.2848(6) 0.0295(3)
O12 O 0.1969(5) 0.1168(6) 0.2190(5)
O13 O 0.3229(4) 0.4117(7) 0.3578(3)
C31 C -0.1351(6) 0.2645(8) -0.0194(4)
C32 C 0.1182(5) 0.2976(6) 0.2061(4)
H32 H 0.0574 0.3260 0.2295
C33 C 0.2299(5) 0.3447(6) 0.2455(4)
H33 H 0.2892 0.2928 0.2381
C34 C 0.1549(6) 0.2770(7) 0.0756(4)
C35 C 0.0715(6) 0.2399(7) 0.0190(4)
O14 O -0.1344(5) 0.2212(8) -0.0772(4)
C36 C -0.0920(7) 0.1546(7) 0.2016(5)
H34 H -0.0906 0.2186 0.2295
C37 C 0.2483(5) 0.4518(6) 0.2065(4)
C38 C 0.0032(6) 0.1193(7) 0.1812(4)
C39 C -0.0199(6) 0.3537(6) 0.0911(4)
C40 C 0.2657(6) 0.2442(8) 0.0759(5)
H35 H 0.3224 0.2673 0.1132
C41 C 0.0942(7) 0.1704(9) -0.0339(5)
H36 H 0.0372 0.1448 -0.0702
C42 C 0.2327(6) 0.3547(8) 0.3275(4)
C43 C 0.1132(6) 0.1728(7) 0.2049(5)
C44 C 0.1572(6) 0.4626(6) 0.1412(4)
H37 H 0.1881 0.4877 0.0995
H38 H 0.1011 0.5157 0.1505
C45 C 0.2909(7) 0.1786(10) 0.0218(6)
H39 H 0.3652 0.1602 0.0206
C46 C 0.3862(17) 0.3367(17) 0.4752(8)
H40 H 0.3363 0.2747 0.4638
H41 H 0.3990 0.3496 0.5267
H42 H 0.4563 0.3208 0.4600
C47 C 0.2050(8) 0.1389(10) -0.0321(6)
H43 H 0.2224 0.0905 -0.0672
C48 C -0.1927(8) 0.0972(11) 0.1818(6)
H44 H -0.2573 0.1210 0.1978
C49 C 0.3363(11) 0.4342(16) 0.4378(6)
H45 H 0.3844 0.4981 0.4506
H46 H 0.2638 0.4492 0.4512
C50 C -0.0018(9) 0.0238(8) 0.1377(6)
H47 H 0.0630 -0.0022 0.1229
C51 C -0.4059(8) 0.3357(14) 0.0138(6)
H48 H -0.4032 0.2855 0.0539
H49 H -0.4822 0.3437 -0.0107
H50 H -0.3771 0.4067 0.0314
C52 C -0.1954(10) 0.0079(11) 0.1397(7)
C53 C -0.3364(7) 0.2910(10) -0.0378(5)
C54 C -0.3411(10) 0.3617(17) -0.1036(7)
H51 H -0.2956 0.4266 -0.0914
H52 H -0.4174 0.3835 -0.1211
H53 H -0.3133 0.3206 -0.1407
C55 C -0.3675(10) 0.1718(15) -0.0585(10)
H54 H -0.3144 0.1419 -0.0860
H55 H -0.4414 0.1697 -0.0875
H56 H -0.3664 0.1285 -0.0153
O15 O 0.1649(5) 0.3184(7) 0.3595(3)
Br2 Br -0.33213(17) -0.0695(3) 0.11134(14)
O16 O 0.3257(5) 0.5150(5) 0.2218(3)
C56 C -0.1006(12) -0.0312(10) 0.1171(6)
H57 H -0.1038 -0.0943 0.0882
O8? O 0.4597(11) 0.2061(9) 0.3258(9)
O9? O 0.6373(18) 0.1725(19) 0.2964(6)
C28? C 0.441(3) 0.0872(9) 0.3265(11)
H27? H 0.5066 0.0472 0.3171
H28? H 0.3768 0.0663 0.2903
C29? C 0.420(3) 0.064(2) 0.4017(13)
H29? H 0.4053 -0.0141 0.4064
H30? H 0.3558 0.1055 0.4103
H31? H 0.4844 0.0845 0.4366
loop_
_geom_bond_atom_site_label_1
_geom_bond_atom_site_label_2
_geom_bond_site_symmetry_1
_geom_bond_site_symmetry_2
Br1 C17 1_555 1_555
O1 C14 1_555 1_555
N1 C3 1_555 1_555
C1 H1 1_555 1_555
C2 C3 1_555 1_555
C3 C19 1_555 1_555
C4 C2 1_555 1_555
C5 C4 1_555 1_555
H2 C5 1_555 1_555
H3 C5 1_555 1_555
C6 C8 1_555 1_555
C7 H4 1_555 1_555
C8 C12 1_555 1_555
C9 H5 1_555 1_555
H6 C9 1_555 1_555
H7 C9 1_555 1_555
O2 C22 1_555 1_555
C10 H8 1_555 1_555
C11 C1 1_555 1_555
H9 C11 1_555 1_555
C12 C10 1_555 1_555
H10 C12 1_555 1_555
C13 C2 1_555 1_555
H11 C13 1_555 1_555
C14 C9 1_555 1_555
C15 C1 1_555 1_555
C16 H12 1_555 1_555
C17 C7 1_555 1_555
C18 C13 1_555 1_555
H13 C18 1_555 1_555
C19 C16 1_555 1_555
H14 C19 1_555 1_555
C20 C7 1_555 1_555
H15 C20 1_555 1_555
O3 C15 1_555 1_555
C21 C14 1_555 1_555
H16 C21 1_555 1_555
H17 C21 1_555 1_555
H18 C21 1_555 1_555
C22 N1 1_555 1_555
C23 O1 1_555 1_555
O4 C6 1_555 1_555
O5 C23 1_555 1_555
C24 C14 1_555 1_555
H19 C24 1_555 1_555
H20 C24 1_555 1_555
H21 C24 1_555 1_555
C25 C1 1_555 1_555
O6 C25 1_555 1_555
C26 O6 1_555 1_555
H22 C26 1_555 1_555
H23 C26 1_555 1_555
O7 C25 1_555 1_555
C27 C26 1_555 1_555
H24 C27 1_555 1_555
H25 C27 1_555 1_555
H26 C27 1_555 1_555
O10 C31 1_555 1_555
O11 C39 1_555 1_555
C30 C32 1_555 1_555
N2 C31 1_555 1_555
O12 C43 1_555 1_555
O13 C42 1_555 1_555
C31 O14 1_555 1_555
C32 H32 1_555 1_555
C33 C32 1_555 1_555
H33 C33 1_555 1_555
C34 C30 1_555 1_555
C35 N2 1_555 1_555
C36 H34 1_555 1_555
C37 C33 1_555 1_555
C38 C36 1_555 1_555
C39 C30 1_555 1_555
C40 C34 1_555 1_555
H35 C40 1_555 1_555
C41 C35 1_555 1_555
H36 C41 1_555 1_555
C42 C33 1_555 1_555
C43 C32 1_555 1_555
C44 C30 1_555 1_555
H37 C44 1_555 1_555
H38 C44 1_555 1_555
C45 C40 1_555 1_555
H39 C45 1_555 1_555
C46 H40 1_555 1_555
H41 C46 1_555 1_555
H42 C46 1_555 1_555
C47 C41 1_555 1_555
H43 C47 1_555 1_555
C48 C36 1_555 1_555
H44 C48 1_555 1_555
C49 O13 1_555 1_555
H45 C49 1_555 1_555
H46 C49 1_555 1_555
C50 C38 1_555 1_555
H47 C50 1_555 1_555
C51 H48 1_555 1_555
H49 C51 1_555 1_555
H50 C51 1_555 1_555
C52 C48 1_555 1_555
C53 O10 1_555 1_555
C54 C53 1_555 1_555
H51 C54 1_555 1_555
H52 C54 1_555 1_555
H53 C54 1_555 1_555
C55 C53 1_555 1_555
H54 C55 1_555 1_555
H55 C55 1_555 1_555
H56 C55 1_555 1_555
O15 C42 1_555 1_555
Br2 C52 1_555 1_555
O16 C37 1_555 1_555
C56 C50 1_555 1_555
H57 C56 1_555 1_555
N1 C23 1_555 1_555
C4 C11 1_555 1_555
C4 C22 1_555 1_555
C5 C15 1_555 1_555
C6 C11 1_555 1_555
C8 C20 1_555 1_555
C10 C17 1_555 1_555
C16 C18 1_555 1_555
N2 C39 1_555 1_555
C34 C35 1_555 1_555
C37 C44 1_555 1_555
C38 C43 1_555 1_555
C45 C47 1_555 1_555
C46 C49 1_555 1_555
C51 C53 1_555 1_555
C52 C56 1_555 1_555

#END
