
#######################################################################
#
#                 Cambridge Crystallographic Data Centre
#                                CCDC 
#
#######################################################################
#
# If this CIF has been generated from an entry in the Cambridge 
# Structural Database, then it will include bibliographic, chemical, 
# crystal, experimental, refinement or atomic coordinate data resulting 
# from the CCDC's data processing and validation procedures.
#
#######################################################################

data_ROPPUH
_chemical_formula_moiety         'C15 H12 N4'
_chemical_name_systematic        
(4-(Cyano(1-pyrrolidinyl)methylium)phenyl)dicyanomethanide
_symmetry_cell_setting           monoclinic
_symmetry_space_group_name_H-M   'P 21/n'
_symmetry_Int_Tables_number      14
_space_group_name_Hall           '-P 2yn'
loop_
_symmetry_equiv_pos_site_id
_symmetry_equiv_pos_as_xyz
1 x,y,z
2 1/2-x,1/2+y,1/2-z
3 -x,-y,-z
4 1/2+x,1/2-y,1/2+z
_cell_length_a                   6.837(1)
_cell_length_b                   25.080(5)
_cell_length_c                   7.386(1)
_cell_angle_alpha                90
_cell_angle_beta                 92.70(3)
_cell_angle_gamma                90
_cell_volume                     1265.09
_exptl_crystal_colour            'very dark purple'
_exptl_crystal_description       'rectangular plate'
_cell_formula_units_Z            4
loop_
_atom_site_label
_atom_site_type_symbol
_atom_site_fract_x
_atom_site_fract_y
_atom_site_fract_z
N1 N 1.0147(10) 0.3833(3) 0.4356(9)
C1 C 0.8633(12) 0.3901(3) 0.3663(12)
C2 C 0.6730(10) 0.3984(3) 0.2833(11)
C3 C 0.5736(12) 0.3526(3) 0.2208(11)
N2 N 0.4942(9) 0.3145(2) 0.1673(10)
C4 C 0.5901(10) 0.4496(3) 0.2693(11)
C5 C 0.3978(10) 0.4579(3) 0.1911(11)
H1 H 0.3271(10) 0.4271(3) 0.1474(11)
C6 C 0.3198(10) 0.5073(3) 0.1761(12)
H2 H 0.1930(10) 0.5117(3) 0.1163(12)
C7 C 0.4222(9) 0.5541(3) 0.2400(10)
C8 C 0.6127(10) 0.5452(3) 0.3206(10)
H3 H 0.6864(10) 0.5748(3) 0.3703(10)
C9 C 0.6934(10) 0.4956(3) 0.3333(11)
H4 H 0.8254(10) 0.4911(3) 0.3810(11)
C10 C 0.3323(9) 0.6040(3) 0.2221(12)
C11 C 0.1325(12) 0.6052(3) 0.1427(11)
N3 N -0.0240(10) 0.6057(3) 0.0777(10)
N4 N 0.3992(8) 0.6526(2) 0.2637(8)
C12 C 0.2767(9) 0.7018(2) 0.2504(11)
H5 H 0.1613(9) 0.6982(2) 0.3186(11)
H6 H 0.2396(9) 0.7100(2) 0.1266(11)
C13 C 0.4148(11) 0.7444(4) 0.3423(15)
H7 H 0.3799(11) 0.7803(4) 0.3051(15)
H8 H 0.4160(11) 0.7417(4) 0.4734(15)
C14 C 0.6153(13) 0.7267(3) 0.2732(15)
H9 H 0.7262(13) 0.7439(3) 0.3358(15)
H10 H 0.6195(13) 0.7332(3) 0.1440(15)
C17 C 0.6046(9) 0.6661(3) 0.3130(11)
H15 H 0.6924(9) 0.6475(3) 0.2373(11)
H16 H 0.6359(9) 0.6577(3) 0.4379(11)
C15? C 0.5866(45) 0.7253(5) 0.3697(43)
H11? H 0.7072(45) 0.7431(5) 0.3404(43)
H12? H 0.5635(45) 0.7308(5) 0.4969(43)
C16? C 0.4293(27) 0.7473(8) 0.2311(39)
H13? H 0.3794(27) 0.7808(8) 0.2749(39)
H14? H 0.4669(27) 0.7518(8) 0.1071(39)
loop_
_geom_bond_atom_site_label_1
_geom_bond_atom_site_label_2
_geom_bond_site_symmetry_1
_geom_bond_site_symmetry_2
N1 C1 1_555 1_555
C1 C2 1_555 1_555
C2 C3 1_555 1_555
C3 N2 1_555 1_555
C4 C2 1_555 1_555
C5 C4 1_555 1_555
H1 C5 1_555 1_555
C6 C5 1_555 1_555
H2 C6 1_555 1_555
C7 C6 1_555 1_555
C8 C7 1_555 1_555
H3 C8 1_555 1_555
C9 C4 1_555 1_555
H4 C9 1_555 1_555
C10 C7 1_555 1_555
C11 C10 1_555 1_555
N3 C11 1_555 1_555
N4 C10 1_555 1_555
C12 N4 1_555 1_555
H5 C12 1_555 1_555
H6 C12 1_555 1_555
C13 C12 1_555 1_555
H7 C13 1_555 1_555
H8 C13 1_555 1_555
C14 C13 1_555 1_555
H9 C14 1_555 1_555
H10 C14 1_555 1_555
C17 N4 1_555 1_555
H15 C17 1_555 1_555
H16 C17 1_555 1_555
C8 C9 1_555 1_555
C14 C17 1_555 1_555

#END
