
#######################################################################
#
#                 Cambridge Crystallographic Data Centre
#                                CCDC 
#
#######################################################################
#
# If this CIF has been generated from an entry in the Cambridge 
# Structural Database, then it will include bibliographic, chemical, 
# crystal, experimental, refinement or atomic coordinate data resulting 
# from the CCDC's data processing and validation procedures.
#
#######################################################################

data_ROPQAO
_chemical_formula_moiety         'C18 H15 N5'
_chemical_name_systematic        
(Z)-(4-(1,3-Dicyano-3-(diethylamino)-2-propenylium)phenyl)dicyanomethanide
_symmetry_cell_setting           triclinic
_symmetry_space_group_name_H-M   'P -1'
_symmetry_Int_Tables_number      2
_space_group_name_Hall           '-P 1'
loop_
_symmetry_equiv_pos_site_id
_symmetry_equiv_pos_as_xyz
1 x,y,z
2 -x,-y,-z
_cell_length_a                   7.615(4)
_cell_length_b                   7.962(4)
_cell_length_c                   14.740(4)
_cell_angle_alpha                91.45(4)
_cell_angle_beta                 96.93(4)
_cell_angle_gamma                118.03(4)
_cell_volume                     779.666
_exptl_crystal_colour            'metallic green'
_exptl_crystal_description       'square plate'
_cell_formula_units_Z            2
loop_
_atom_site_label
_atom_site_type_symbol
_atom_site_fract_x
_atom_site_fract_y
_atom_site_fract_z
N1 N 0.3662(2) 1.0663(2) 0.79419(9)
N2 N 0.3785(2) 0.5993(2) 0.63328(9)
N3 N 0.2021(2) -0.0096(2) 1.07724(9)
N4 N 0.1201(2) -0.0436(2) 1.28451(9)
N5 N 0.1535(2) 0.3788(2) 1.34754(7)
C1 C 0.3527(2) 0.9159(2) 0.78956(9)
C2 C 0.3573(2) 0.6563(2) 0.70120(9)
C3 C 0.3320(2) 0.7286(2) 0.78539(9)
C4 C 0.2958(2) 0.6230(2) 0.86225(9)
C5 C 0.2805(2) 0.7036(2) 0.94744(9)
H1 H 0.2892(24) 0.8267(24) 0.9486(11)
C6 C 0.2512(2) 0.6061(2) 1.02313(9)
H2 H 0.2446(23) 0.6694(21) 1.0791(11)
C7 C 0.2358(2) 0.4199(2) 1.02199(8)
C8 C 0.2497(2) 0.3398(2) 0.93657(9)
H3 H 0.2418(25) 0.2156(24) 0.9337(11)
C9 C 0.2773(2) 0.4359(2) 0.86003(9)
H4 H 0.2851(25) 0.3792(24) 0.8025(12)
C10 C 0.2091(2) 0.3177(2) 1.10098(9)
C11 C 0.2018(2) 0.1333(2) 1.08927(9)
C12 C 0.1979(2) 0.3885(2) 1.18762(9)
H5 H 0.2155(23) 0.5152(22) 1.1930(11)
C13 C 0.1666(2) 0.2991(2) 1.26864(9)
C14 C 0.1412(2) 0.1072(2) 1.27456(9)
C15 C 0.1718(2) 0.5711(2) 1.35558(9)
H6 H 0.0868(22) 0.5692(20) 1.4009(11)
H7 H 0.1191(24) 0.5963(22) 1.2966(12)
C16 C 0.3879(3) 0.7243(2) 1.38586(12)
H8 H 0.3956(27) 0.8522(27) 1.3902(13)
H9 H 0.4733(28) 0.7241(26) 1.3420(13)
H10 H 0.4346(28) 0.7020(26) 1.4477(14)
C17 C 0.1414(2) 0.2874(2) 1.43450(9)
H11 H 0.2165(25) 0.3932(24) 1.4829(12)
H12 H 0.2119(24) 0.2111(22) 1.4329(11)
C18 C -0.0742(3) 0.1658(2) 1.45069(11)
H13 H -0.0702(28) 0.1232(26) 1.5150(14)
H14 H -0.1414(29) 0.0566(27) 1.4057(14)
H15 H -0.1470(26) 0.2447(25) 1.4462(12)
loop_
_geom_bond_atom_site_label_1
_geom_bond_atom_site_label_2
_geom_bond_site_symmetry_1
_geom_bond_site_symmetry_2
N1 C1 1_555 1_555
N2 C2 1_555 1_555
N3 C11 1_555 1_555
N4 C14 1_555 1_555
N5 C13 1_555 1_555
C1 C3 1_555 1_555
C2 C3 1_555 1_555
C3 C4 1_555 1_555
C4 C5 1_555 1_555
C5 H1 1_555 1_555
C6 C5 1_555 1_555
H2 C6 1_555 1_555
C7 C6 1_555 1_555
C8 C7 1_555 1_555
H3 C8 1_555 1_555
C9 C4 1_555 1_555
H4 C9 1_555 1_555
C10 C7 1_555 1_555
C11 C10 1_555 1_555
C12 C10 1_555 1_555
H5 C12 1_555 1_555
C13 C12 1_555 1_555
C14 C13 1_555 1_555
C15 N5 1_555 1_555
H6 C15 1_555 1_555
H7 C15 1_555 1_555
C16 C15 1_555 1_555
H8 C16 1_555 1_555
H9 C16 1_555 1_555
H10 C16 1_555 1_555
C17 N5 1_555 1_555
H11 C17 1_555 1_555
H12 C17 1_555 1_555
C18 C17 1_555 1_555
H13 C18 1_555 1_555
H14 C18 1_555 1_555
H15 C18 1_555 1_555
C8 C9 1_555 1_555

#END
