
#######################################################################
#
#                 Cambridge Crystallographic Data Centre
#                                CCDC 
#
#######################################################################
#
# If this CIF has been generated from an entry in the Cambridge 
# Structural Database, then it will include bibliographic, chemical, 
# crystal, experimental, refinement or atomic coordinate data resulting 
# from the CCDC's data processing and validation procedures.
#
#######################################################################

data_RORJEP
_chemical_formula_moiety         'C32 H29 F1 N2 O6'
_chemical_name_systematic        
't-Butyl 5-fluoro-3-(3-methoxy-2-(1-methyl-2-oxo-1,2-dihydro-3H-indol-3-ylidene)-3-oxopropyl)-2-oxo-3-phenylindoline-1-carboxylate'
_symmetry_cell_setting           triclinic
_symmetry_space_group_name_H-M   'P -1'
_symmetry_Int_Tables_number      2
_space_group_name_Hall           '-P 1'
loop_
_symmetry_equiv_pos_site_id
_symmetry_equiv_pos_as_xyz
1 x,y,z
2 -x,-y,-z
_cell_length_a                   11.2629(17)
_cell_length_b                   11.9759(19)
_cell_length_c                   12.3346(19)
_cell_angle_alpha                81.629(2)
_cell_angle_beta                 68.063(2)
_cell_angle_gamma                65.327(2)
_cell_volume                     1402.27
_exptl_crystal_colour            yellow
_exptl_crystal_description       block
_cell_formula_units_Z            2
loop_
_atom_site_label
_atom_site_type_symbol
_atom_site_fract_x
_atom_site_fract_y
_atom_site_fract_z
O1 O 0.3923(2) 0.6802(2) -0.00366(15)
O2 O 0.25430(14) 0.68037(15) 0.18452(13)
O3 O 0.74006(17) 0.90636(16) 0.30932(14)
O4 O 0.26274(14) 0.95066(14) 0.31071(11)
O5 O 0.22906(17) 0.90971(19) 0.49876(13)
O6 O 0.39136(15) 0.63580(14) 0.33659(12)
F1 F 0.82657(18) 0.92106(16) -0.05784(13)
N1 N 0.45397(16) 0.70432(16) 0.14492(13)
C1 C 0.58902(18) 0.69773(16) 0.25709(14)
C2 C 0.0407(3) 0.6613(3) 0.2750(3)
H1 H -0.0310 0.6427 0.2676
H2 H 0.0006 0.7420 0.3085
H3 H 0.0837 0.6021 0.3247
C3 C 0.1496(2) 0.6566(3) 0.1554(2)
C4 C 0.3648(2) 0.6864(2) 0.09979(19)
C5 C 0.46383(18) 0.67491(17) 0.25620(15)
C6 C 0.5502(2) 0.77341(16) 0.36677(15)
H4 H 0.5100 0.7326 0.4356
H5 H 0.6356 0.7711 0.3709
C7 C 0.45078(19) 0.90560(16) 0.37245(14)
C8 C 0.4845(2) 1.00346(17) 0.36039(15)
C9 C 0.3967(2) 1.13570(18) 0.37045(16)
C10 C 0.4871(3) 1.1972(2) 0.33134(18)
C11 C 0.4397(4) 1.3235(2) 0.3322(2)
H6 H 0.5009 1.3630 0.3052
C12 C 0.2991(4) 1.3877(3) 0.3743(3)
H7 H 0.2644 1.4731 0.3755
C13 C 0.0882(4) 0.7607(5) 0.0802(3)
H8 H 0.1590 0.7584 0.0058
H9 H 0.0541 0.8380 0.1185
H10 H 0.0129 0.7516 0.0690
C14 C 0.2197(4) 0.5292(4) 0.0999(3)
H11 H 0.2841 0.5305 0.0227
H12 H 0.1502 0.5053 0.0952
H13 H 0.2689 0.4714 0.1466
C15 C 0.54919(19) 0.75862(17) 0.07743(15)
C16 C 0.5655(2) 0.8093(2) -0.03299(18)
H14 H 0.5141 0.8066 -0.0759
C17 C 0.6597(3) 0.8638(2) -0.07727(19)
H15 H 0.6729 0.8988 -0.1510
C18 C 0.7335(2) 0.8661(2) -0.01275(18)
C19 C 0.7204(2) 0.81540(18) 0.09694(16)
H16 H 0.7729 0.8182 0.1387
C20 C 0.62636(18) 0.76038(16) 0.14209(14)
C21 C 0.6323(2) 0.9953(2) 0.32155(17)
N2 N 0.6252(2) 1.11250(18) 0.29858(16)
C22 C 0.2064(3) 1.3317(2) 0.4152(3)
H17 H 0.1112 1.3791 0.4440
C23 C 0.2554(3) 1.2026(2) 0.4133(2)
H18 H 0.1936 1.1637 0.4405
C24 C 0.7469(3) 1.1437(3) 0.2494(2)
H19 H 0.7461 1.1929 0.3047
H20 H 0.7445 1.1890 0.1788
H21 H 0.8301 1.0697 0.2323
C25 C 0.3022(2) 0.92328(17) 0.40343(16)
C26 C 0.1239(2) 0.9602(3) 0.3301(2)
H22 H 0.1160 0.8841 0.3604
H23 H 0.1068 0.9774 0.2576
H24 H 0.0567 1.0253 0.3853
C27 C 0.70357(18) 0.57047(15) 0.26280(15)
C28 C 0.6878(2) 0.50203(18) 0.36462(18)
H25 H 0.6061 0.5324 0.4288
C29 C 0.7906(3) 0.3904(2) 0.3722(2)
H26 H 0.7779 0.3467 0.4414
C30 C 0.9115(3) 0.3429(2) 0.2788(2)
H27 H 0.9814 0.2678 0.2844
C31 C 0.9280(2) 0.4074(2) 0.1775(2)
H28 H 1.0090 0.3753 0.1131
C32 C 0.8252(2) 0.52044(19) 0.16940(18)
H29 H 0.8386 0.5633 0.0997
loop_
_geom_bond_atom_site_label_1
_geom_bond_atom_site_label_2
_geom_bond_site_symmetry_1
_geom_bond_site_symmetry_2
O1 C4 1_555 1_555
O2 C3 1_555 1_555
O3 C21 1_555 1_555
O4 C25 1_555 1_555
O5 C25 1_555 1_555
O6 C5 1_555 1_555
F1 C18 1_555 1_555
N1 C4 1_555 1_555
C1 C5 1_555 1_555
C2 H1 1_555 1_555
H2 C2 1_555 1_555
H3 C2 1_555 1_555
C3 C2 1_555 1_555
C4 O2 1_555 1_555
C5 N1 1_555 1_555
C6 C1 1_555 1_555
H4 C6 1_555 1_555
H5 C6 1_555 1_555
C7 C6 1_555 1_555
C8 C7 1_555 1_555
C9 C8 1_555 1_555
C10 C9 1_555 1_555
C11 C10 1_555 1_555
H6 C11 1_555 1_555
C12 C11 1_555 1_555
H7 C12 1_555 1_555
C13 C3 1_555 1_555
H8 C13 1_555 1_555
H9 C13 1_555 1_555
H10 C13 1_555 1_555
C14 C3 1_555 1_555
H11 C14 1_555 1_555
H12 C14 1_555 1_555
H13 C14 1_555 1_555
C15 N1 1_555 1_555
C16 C15 1_555 1_555
H14 C16 1_555 1_555
C17 C16 1_555 1_555
H15 C17 1_555 1_555
C18 C17 1_555 1_555
C19 C18 1_555 1_555
H16 C19 1_555 1_555
C20 C1 1_555 1_555
C21 C8 1_555 1_555
N2 C10 1_555 1_555
C22 C12 1_555 1_555
H17 C22 1_555 1_555
C23 C9 1_555 1_555
H18 C23 1_555 1_555
C24 N2 1_555 1_555
H19 C24 1_555 1_555
H20 C24 1_555 1_555
H21 C24 1_555 1_555
C25 C7 1_555 1_555
C26 O4 1_555 1_555
H22 C26 1_555 1_555
H23 C26 1_555 1_555
H24 C26 1_555 1_555
C27 C1 1_555 1_555
C28 C27 1_555 1_555
H25 C28 1_555 1_555
C29 C28 1_555 1_555
H26 C29 1_555 1_555
C30 C29 1_555 1_555
H27 C30 1_555 1_555
C31 C30 1_555 1_555
H28 C31 1_555 1_555
C32 C27 1_555 1_555
H29 C32 1_555 1_555
C15 C20 1_555 1_555
C19 C20 1_555 1_555
C21 N2 1_555 1_555
C22 C23 1_555 1_555
C31 C32 1_555 1_555

#END
