
#######################################################################
#
#                 Cambridge Crystallographic Data Centre
#                                CCDC 
#
#######################################################################
#
# If this CIF has been generated from an entry in the Cambridge 
# Structural Database, then it will include bibliographic, chemical, 
# crystal, experimental, refinement or atomic coordinate data resulting 
# from the CCDC's data processing and validation procedures.
#
#######################################################################

data_RORJUF
_chemical_formula_moiety         'C23 H19 N1 O3'
_chemical_name_systematic        
N-methoxy-1-(7-methoxy-2,3-diphenyl-1-benzofuran-4-yl)methanimine
_symmetry_cell_setting           monoclinic
_symmetry_space_group_name_H-M   'P 21/c'
_symmetry_Int_Tables_number      14
_space_group_name_Hall           '-P 2ybc'
loop_
_symmetry_equiv_pos_site_id
_symmetry_equiv_pos_as_xyz
1 x,y,z
2 -x,1/2+y,1/2-z
3 -x,-y,-z
4 x,1/2-y,1/2+z
_cell_length_a                   11.2184(5)
_cell_length_b                   11.0939(5)
_cell_length_c                   15.1186(7)
_cell_angle_alpha                90
_cell_angle_beta                 103.1300(10)
_cell_angle_gamma                90
_cell_volume                     1832.41
_exptl_crystal_colour            colorless
_cell_formula_units_Z            4
loop_
_atom_site_label
_atom_site_type_symbol
_atom_site_fract_x
_atom_site_fract_y
_atom_site_fract_z
O1 O 0.30391(9) 0.74232(11) 0.94203(8)
O2 O 0.91866(8) 0.81941(9) 0.94170(6)
O3 O 1.00387(9) 0.63044(9) 1.06129(6)
N1 N 0.42309(11) 0.70810(12) 0.98610(9)
C1 C 0.22566(14) 0.72322(15) 1.00370(12)
H1 H 0.2323 0.6392 1.0243
H2 H 0.1407 0.7405 0.9728
H3 H 0.2504 0.7769 1.0562
C2 C 0.49820(13) 0.73835(13) 0.93737(10)
H4 H 0.4699 0.7790 0.8812
C3 C 0.62785(13) 0.70935(13) 0.96968(9)
C4 C 0.72089(12) 0.77594(13) 0.94159(9)
C5 C 0.72350(12) 0.88098(12) 0.88513(9)
C6 C 0.84410(13) 0.90366(13) 0.88812(9)
C7 C 0.91029(13) 0.99743(12) 0.85035(9)
C8 C 1.03811(13) 1.00201(14) 0.87567(9)
H5 H 1.0816 0.9440 0.9169
C9 C 1.10204(14) 1.09082(14) 0.84092(10)
H6 H 1.1889 1.0929 0.8584
C10 C 1.04003(14) 1.17636(14) 0.78097(10)
H7 H 1.0842 1.2366 0.7572
C11 C 0.66699(13) 0.61492(13) 1.02997(9)
H8 H 0.6069 0.5683 1.0497
C12 C 0.78995(13) 0.58535(13) 1.06286(9)
H9 H 0.8114 0.5208 1.1047
C13 C 0.88140(13) 0.64945(13) 1.03502(9)
C14 C 0.84237(13) 0.74369(12) 0.97419(9)
C15 C 0.61394(12) 0.94895(13) 0.83679(9)
C16 C 0.55958(13) 0.92360(13) 0.74610(9)
H10 H 0.5953 0.8651 0.7141
C17 C 0.45377(14) 0.98319(14) 0.70234(10)
H11 H 0.4173 0.9655 0.6406
C18 C 0.40127(14) 1.06867(14) 0.74876(10)
H12 H 0.3289 1.1095 0.7188
C19 C 0.45450(13) 1.09447(14) 0.83890(10)
H13 H 0.4186 1.1532 0.8706
C20 C 0.56003(13) 1.03465(13) 0.88287(10)
H14 H 0.5958 1.0522 0.9447
C21 C 0.91307(14) 1.17354(13) 0.75580(10)
H15 H 0.8703 1.2326 0.7152
C22 C 0.84832(13) 1.08480(13) 0.78980(9)
H16 H 0.7615 1.0832 0.7719
C23 C 1.04326(14) 0.53997(14) 1.12954(10)
H17 H 1.0116 0.5591 1.1832
H18 H 1.1329 0.5379 1.1464
H19 H 1.0121 0.4611 1.1056
loop_
_geom_bond_atom_site_label_1
_geom_bond_atom_site_label_2
_geom_bond_site_symmetry_1
_geom_bond_site_symmetry_2
O1 N1 1_555 1_555
O2 C6 1_555 1_555
O3 C13 1_555 1_555
N1 C2 1_555 1_555
C1 O1 1_555 1_555
H1 C1 1_555 1_555
H2 C1 1_555 1_555
H3 C1 1_555 1_555
C2 H4 1_555 1_555
C3 C2 1_555 1_555
C4 C3 1_555 1_555
C5 C4 1_555 1_555
C6 C5 1_555 1_555
C7 C6 1_555 1_555
C8 C7 1_555 1_555
H5 C8 1_555 1_555
C9 C8 1_555 1_555
H6 C9 1_555 1_555
C10 C9 1_555 1_555
H7 C10 1_555 1_555
C11 C3 1_555 1_555
H8 C11 1_555 1_555
C12 C11 1_555 1_555
H9 C12 1_555 1_555
C13 C12 1_555 1_555
C14 O2 1_555 1_555
C15 C5 1_555 1_555
C16 C15 1_555 1_555
H10 C16 1_555 1_555
C17 C16 1_555 1_555
H11 C17 1_555 1_555
C18 C17 1_555 1_555
H12 C18 1_555 1_555
C19 C18 1_555 1_555
H13 C19 1_555 1_555
C20 C15 1_555 1_555
H14 C20 1_555 1_555
C21 C10 1_555 1_555
H15 C21 1_555 1_555
C22 C7 1_555 1_555
H16 C22 1_555 1_555
C23 O3 1_555 1_555
H17 C23 1_555 1_555
H18 C23 1_555 1_555
H19 C23 1_555 1_555
C4 C14 1_555 1_555
C13 C14 1_555 1_555
C19 C20 1_555 1_555
C21 C22 1_555 1_555

#END
