
#######################################################################
#
#                 Cambridge Crystallographic Data Centre
#                                CCDC 
#
#######################################################################
#
# If this CIF has been generated from an entry in the Cambridge 
# Structural Database, then it will include bibliographic, chemical, 
# crystal, experimental, refinement or atomic coordinate data resulting 
# from the CCDC's data processing and validation procedures.
#
#######################################################################

data_RORKAM
_chemical_formula_moiety         'C22 H16 Br1 N1 O2'
_chemical_name_systematic        
1-(6-bromo-2,3-diphenyl-1-benzofuran-4-yl)-N-methoxymethanimine
_symmetry_cell_setting           monoclinic
_symmetry_space_group_name_H-M   'P 21/c'
_symmetry_Int_Tables_number      14
_space_group_name_Hall           '-P 2ybc'
loop_
_symmetry_equiv_pos_site_id
_symmetry_equiv_pos_as_xyz
1 x,y,z
2 -x,1/2+y,1/2-z
3 -x,-y,-z
4 x,1/2-y,1/2+z
_cell_length_a                   17.3636(16)
_cell_length_b                   10.3459(9)
_cell_length_c                   9.9494(10)
_cell_angle_alpha                90
_cell_angle_beta                 92.111(2)
_cell_angle_gamma                90
_cell_volume                     1786.12
_exptl_crystal_colour            colorless
_cell_formula_units_Z            4
loop_
_atom_site_label
_atom_site_type_symbol
_atom_site_fract_x
_atom_site_fract_y
_atom_site_fract_z
Br1 Br 0.422874(12) 0.52683(2) 0.30604(2)
O1 O 0.41059(9) 1.18129(15) 0.35423(16)
O2 O 0.22143(8) 0.72068(15) -0.05069(14)
N1 N 0.39642(11) 1.04807(18) 0.33981(19)
C1 C 0.45212(15) 1.2012(3) 0.4794(2)
H1 H 0.4191 1.1790 0.5538
H2 H 0.4676 1.2921 0.4870
H3 H 0.4981 1.1463 0.4832
C2 C 0.35843(12) 1.0253(2) 0.2300(2)
H4 H 0.3414 1.0947 0.1739
C3 C 0.34141(12) 0.8920(2) 0.1910(2)
C4 C 0.28569(12) 0.8615(2) 0.0881(2)
C5 C 0.22972(12) 0.9328(2) 0.0068(2)
C6 C 0.19309(12) 0.8445(2) -0.0744(2)
C7 C 0.13059(12) 0.8510(2) -0.1775(2)
C8 C 0.11608(13) 0.7446(2) -0.2611(2)
H5 H 0.1465 0.6687 -0.2503
C9 C 0.05752(13) 0.7489(2) -0.3599(2)
H6 H 0.0481 0.6759 -0.4159
C10 C 0.01289(13) 0.8587(2) -0.3772(2)
H7 H -0.0268 0.8617 -0.4455
C11 C 0.27697(12) 0.7321(2) 0.0503(2)
C12 C 0.21211(12) 1.0735(2) 0.0203(2)
C13 C 0.16008(13) 1.1126(2) 0.1164(2)
H8 H 0.1357 1.0497 0.1698
C14 C 0.14373(13) 1.2425(2) 0.1343(2)
H9 H 0.1085 1.2681 0.2000
C15 C 0.17863(12) 1.3346(2) 0.0567(2)
H10 H 0.1676 1.4236 0.0690
C16 C 0.22961(13) 1.2967(2) -0.0389(2)
H11 H 0.2535 1.3601 -0.0924
C17 C 0.24629(13) 1.1667(2) -0.0577(2)
H12 H 0.2812 1.1417 -0.1243
C18 C 0.08487(13) 0.9615(2) -0.1949(2)
H13 H 0.0938 1.0347 -0.1387
C19 C 0.02643(13) 0.9645(2) -0.2941(2)
H14 H -0.0045 1.0398 -0.3052
C20 C 0.31589(12) 0.6296(2) 0.1093(2)
H15 H 0.3080 0.5428 0.0806
C21 C 0.36728(12) 0.6623(2) 0.2133(2)
C22 C 0.38130(12) 0.7897(2) 0.2524(2)
H16 H 0.4187 0.8072 0.3222
loop_
_geom_bond_atom_site_label_1
_geom_bond_atom_site_label_2
_geom_bond_site_symmetry_1
_geom_bond_site_symmetry_2
Br1 C21 1_555 1_555
O1 N1 1_555 1_555
O2 C6 1_555 1_555
N1 C2 1_555 1_555
C1 O1 1_555 1_555
H1 C1 1_555 1_555
H2 C1 1_555 1_555
H3 C1 1_555 1_555
C2 H4 1_555 1_555
C3 C2 1_555 1_555
C4 C3 1_555 1_555
C5 C4 1_555 1_555
C6 C5 1_555 1_555
C7 C6 1_555 1_555
C8 C7 1_555 1_555
H5 C8 1_555 1_555
C9 C8 1_555 1_555
H6 C9 1_555 1_555
C10 C9 1_555 1_555
H7 C10 1_555 1_555
C11 O2 1_555 1_555
C12 C5 1_555 1_555
C13 C12 1_555 1_555
H8 C13 1_555 1_555
C14 C13 1_555 1_555
H9 C14 1_555 1_555
C15 C14 1_555 1_555
H10 C15 1_555 1_555
C16 C15 1_555 1_555
H11 C16 1_555 1_555
C17 C12 1_555 1_555
H12 C17 1_555 1_555
C18 C7 1_555 1_555
H13 C18 1_555 1_555
C19 C10 1_555 1_555
H14 C19 1_555 1_555
C20 C11 1_555 1_555
H15 C20 1_555 1_555
C21 C20 1_555 1_555
C22 C3 1_555 1_555
H16 C22 1_555 1_555
C4 C11 1_555 1_555
C16 C17 1_555 1_555
C18 C19 1_555 1_555
C21 C22 1_555 1_555

#END
