
#######################################################################
#
#                 Cambridge Crystallographic Data Centre
#                                CCDC 
#
#######################################################################
#
# If this CIF has been generated from an entry in the Cambridge 
# Structural Database, then it will include bibliographic, chemical, 
# crystal, experimental, refinement or atomic coordinate data resulting 
# from the CCDC's data processing and validation procedures.
#
#######################################################################

data_RORKEQ
_chemical_formula_moiety         'C44 H30 N2 O4'
_chemical_name_systematic        
N,N'-dimethoxy-1,2,7,8-tetraphenylfuro[3',2':5,6]anthra[2,1-b]furan-6,12-diimine
_symmetry_cell_setting           monoclinic
_symmetry_space_group_name_H-M   'C 2/c'
_symmetry_Int_Tables_number      15
_space_group_name_Hall           '-C 2yn'
loop_
_symmetry_equiv_pos_site_id
_symmetry_equiv_pos_as_xyz
1 x,y,z
2 -x,y,1/2-z
3 1/2+x,1/2+y,z
4 1/2-x,1/2+y,1/2-z
5 -x,-y,-z
6 x,-y,1/2+z
7 1/2-x,1/2-y,-z
8 1/2+x,1/2-y,1/2+z
_cell_length_a                   25.919(3)
_cell_length_b                   11.2554(14)
_cell_length_c                   11.6261(14)
_cell_angle_alpha                90
_cell_angle_beta                 101.271(2)
_cell_angle_gamma                90
_cell_volume                     3326.25
_exptl_crystal_colour            colorless
_cell_formula_units_Z            4
loop_
_atom_site_label
_atom_site_type_symbol
_atom_site_fract_x
_atom_site_fract_y
_atom_site_fract_z
O1 O 0.18654(5) 0.14585(12) 0.39458(11)
O2 O 0.01972(5) 0.36779(13) -0.01938(12)
N1 N 0.04993(7) 0.33383(14) 0.08710(14)
C1 C 0.33602(8) -0.01766(18) 0.23811(19)
H1 H 0.3685 -0.0529 0.2308
C2 C 0.33382(8) 0.0607(2) 0.3282(2)
H2 H 0.3650 0.0797 0.3831
C3 C 0.28641(8) 0.11195(19) 0.33915(18)
H3 H 0.2854 0.1663 0.4012
C4 C 0.24027(7) 0.08461(17) 0.26006(17)
C5 C 0.18985(8) 0.13414(17) 0.27720(16)
C6 C 0.14451(7) 0.16692(17) 0.20494(17)
C7 C 0.10851(7) 0.20061(16) 0.28064(16)
C8 C 0.05582(7) 0.23930(16) 0.26691(16)
C9 C 0.02364(7) 0.27610(15) 0.15294(16)
C10 C 0.03298(7) 0.24679(16) 0.36724(16)
C11 C 0.24273(8) 0.00561(18) 0.16865(18)
H4 H 0.2117 -0.0138 0.1136
C12 C 0.29052(9) -0.0445(2) 0.1584(2)
H5 H 0.2920 -0.0980 0.0959
C13 C 0.13645(7) 0.18293(16) 0.39496(17)
C14 C 0.13485(8) 0.16077(17) 0.07512(17)
C15 C 0.16991(9) 0.2135(2) 0.0131(2)
H6 H 0.1992 0.2574 0.0539
C16 C 0.16204(11) 0.2020(2) -0.1077(2)
H7 H 0.1861 0.2373 -0.1495
C17 C 0.11947(12) 0.1395(3) -0.1674(2)
H8 H 0.1145 0.1312 -0.2501
C18 C 0.08392(10) 0.0887(2) -0.1074(2)
H9 H 0.0541 0.0472 -0.1490
C19 C 0.09185(8) 0.09852(18) 0.01391(18)
H10 H 0.0678 0.0625 0.0552
C20 C 0.06325(7) 0.22518(17) 0.48014(17)
H11 H 0.0473 0.2316 0.5468
C21 C 0.11574(8) 0.19481(17) 0.49500(17)
H12 H 0.1367 0.1826 0.5708
C22 C 0.05308(9) 0.4305(2) -0.08402(19)
H13 H 0.0653 0.5045 -0.0431
H14 H 0.0333 0.4490 -0.1627
H15 H 0.0835 0.3809 -0.0903
O1A O -0.18654(5) 0.14585(12) 0.10542(11)
O2A O -0.01972(5) 0.36779(13) 0.51938(12)
N1A N -0.04993(7) 0.33383(14) 0.41290(14)
C1A C -0.33602(8) -0.01766(18) 0.26189(19)
H1A H -0.3685 -0.0529 0.2692
C2A C -0.33382(8) 0.0607(2) 0.1718(2)
H2A H -0.3650 0.0797 0.1169
C3A C -0.28641(8) 0.11195(19) 0.16085(18)
H3A H -0.2854 0.1663 0.0988
C4A C -0.24027(7) 0.08461(17) 0.23994(17)
C5A C -0.18985(8) 0.13414(17) 0.22280(16)
C6A C -0.14451(7) 0.16692(17) 0.29506(17)
C7A C -0.10851(7) 0.20061(16) 0.21936(16)
C8A C -0.05582(7) 0.23930(16) 0.23309(16)
C9A C -0.02364(7) 0.27610(15) 0.34706(16)
C10A C -0.03298(7) 0.24679(16) 0.13276(16)
C11A C -0.24273(8) 0.00561(18) 0.33135(18)
H4A H -0.2117 -0.0138 0.3864
C12A C -0.29052(9) -0.0445(2) 0.3416(2)
H5A H -0.2920 -0.0980 0.4041
C13A C -0.13645(7) 0.18293(16) 0.10504(17)
C14A C -0.13485(8) 0.16077(17) 0.42488(17)
C15A C -0.16991(9) 0.2135(2) 0.4869(2)
H6A H -0.1992 0.2574 0.4461
C16A C -0.16204(11) 0.2020(2) 0.6077(2)
H7A H -0.1861 0.2373 0.6495
C17A C -0.11947(12) 0.1395(3) 0.6674(2)
H8A H -0.1145 0.1312 0.7501
C18A C -0.08392(10) 0.0887(2) 0.6074(2)
H9A H -0.0541 0.0472 0.6490
C19A C -0.09185(8) 0.09852(18) 0.48609(18)
H10A H -0.0678 0.0625 0.4448
C20A C -0.06325(7) 0.22518(17) 0.01986(17)
H11A H -0.0473 0.2316 -0.0468
C21A C -0.11574(8) 0.19481(17) 0.00500(17)
H12A H -0.1367 0.1826 -0.0708
C22A C -0.05308(9) 0.4305(2) 0.58402(19)
H13A H -0.0653 0.5045 0.5431
H14A H -0.0333 0.4490 0.6627
H15A H -0.0835 0.3809 0.5903
loop_
_geom_bond_atom_site_label_1
_geom_bond_atom_site_label_2
_geom_bond_site_symmetry_1
_geom_bond_site_symmetry_2
O1 C5 1_555 1_555
O2 N1 1_555 1_555
N1 C9 1_555 1_555
C1 H1 1_555 1_555
C2 C1 1_555 1_555
H2 C2 1_555 1_555
C3 C2 1_555 1_555
H3 C3 1_555 1_555
C4 C3 1_555 1_555
C5 C4 1_555 1_555
C6 C5 1_555 1_555
C7 C6 1_555 1_555
C8 C7 1_555 1_555
C9 C8 1_555 1_555
C10 C8 1_555 1_555
C11 C4 1_555 1_555
H4 C11 1_555 1_555
C12 C1 1_555 1_555
H5 C12 1_555 1_555
C13 O1 1_555 1_555
C14 C6 1_555 1_555
C15 C14 1_555 1_555
H6 C15 1_555 1_555
C16 C15 1_555 1_555
H7 C16 1_555 1_555
C17 C16 1_555 1_555
H8 C17 1_555 1_555
C18 C17 1_555 1_555
H9 C18 1_555 1_555
C19 C14 1_555 1_555
H10 C19 1_555 1_555
C20 C10 1_555 1_555
H11 C20 1_555 1_555
C21 C13 1_555 1_555
H12 C21 1_555 1_555
C22 O2 1_555 1_555
H13 C22 1_555 1_555
H14 C22 1_555 1_555
H15 C22 1_555 1_555
O1A C5A 1_555 1_555
O2A N1A 1_555 1_555
N1A C9A 1_555 1_555
C1A H1A 1_555 1_555
C2A C1A 1_555 1_555
H2A C2A 1_555 1_555
C3A C2A 1_555 1_555
H3A C3A 1_555 1_555
C4A C3A 1_555 1_555
C5A C4A 1_555 1_555
C6A C5A 1_555 1_555
C7A C6A 1_555 1_555
C8A C7A 1_555 1_555
C9A C10 1_555 1_555
C10A C9 1_555 1_555
C11A C4A 1_555 1_555
H4A C11A 1_555 1_555
C12A C1A 1_555 1_555
H5A C12A 1_555 1_555
C13A O1A 1_555 1_555
C14A C6A 1_555 1_555
C15A C14A 1_555 1_555
H6A C15A 1_555 1_555
C16A C15A 1_555 1_555
H7A C16A 1_555 1_555
C17A C16A 1_555 1_555
H8A C17A 1_555 1_555
C18A C17A 1_555 1_555
H9A C18A 1_555 1_555
C19A C14A 1_555 1_555
H10A C19A 1_555 1_555
C20A C10A 1_555 1_555
H11A C20A 1_555 1_555
C21A C13A 1_555 1_555
H12A C21A 1_555 1_555
C22A O2A 1_555 1_555
H13A C22A 1_555 1_555
H14A C22A 1_555 1_555
H15A C22A 1_555 1_555
C7 C13 1_555 1_555
C11 C12 1_555 1_555
C18 C19 1_555 1_555
C20 C21 1_555 1_555
C7A C13A 1_555 1_555
C8A C9A 1_555 1_555
C8A C10A 1_555 1_555
C11A C12A 1_555 1_555
C18A C19A 1_555 1_555
C20A C21A 1_555 1_555

#END
