
#######################################################################
#
#                 Cambridge Crystallographic Data Centre
#                                CCDC 
#
#######################################################################
#
# If this CIF has been generated from an entry in the Cambridge 
# Structural Database, then it will include bibliographic, chemical, 
# crystal, experimental, refinement or atomic coordinate data resulting 
# from the CCDC's data processing and validation procedures.
#
#######################################################################

data_RORLAN
_chemical_formula_moiety         'C18 H28 O3'
_chemical_name_systematic        
'Methyl 3-(3,5-di-t-butyl-4-hydroxyphenyl)propanoate'
_symmetry_cell_setting           monoclinic
_symmetry_space_group_name_H-M   'P 21/c'
_symmetry_Int_Tables_number      14
_space_group_name_Hall           '-P 2ybc'
loop_
_symmetry_equiv_pos_site_id
_symmetry_equiv_pos_as_xyz
1 x,y,z
2 -x,1/2+y,1/2-z
3 -x,-y,-z
4 x,1/2-y,1/2+z
_cell_length_a                   5.9191(14)
_cell_length_b                   18.164(4)
_cell_length_c                   16.605(4)
_cell_angle_alpha                90
_cell_angle_beta                 98.343(6)
_cell_angle_gamma                90
_cell_volume                     1766.39
_exptl_crystal_colour            colorless
_exptl_crystal_description       prismatic
_cell_formula_units_Z            4
loop_
_atom_site_label
_atom_site_type_symbol
_atom_site_fract_x
_atom_site_fract_y
_atom_site_fract_z
O1 O 0.2878(3) 0.27812(8) 0.33694(10)
H1 H 0.3618 0.2406 0.3323
O2 O 0.6255(3) 0.64083(9) 0.06254(12)
O3 O 0.9655(3) 0.59379(10) 0.05976(12)
C1 C 0.3321(3) 0.45709(10) 0.24595(11)
H2 H 0.2943 0.5057 0.2556
C2 C 0.2843(3) 0.40351(10) 0.30023(10)
C3 C 0.3436(3) 0.33064(10) 0.28341(11)
C4 C 0.4484(3) 0.31184(10) 0.21592(11)
C5 C 0.4906(3) 0.36922(11) 0.16486(11)
H3 H 0.5606 0.3584 0.1196
C6 C 0.4337(3) 0.44152(10) 0.17805(11)
C7 C 0.4840(4) 0.50247(12) 0.12122(12)
H4 H 0.4429 0.4856 0.0656
H5 H 0.3873 0.5443 0.1289
C8 C 0.7239(4) 0.52749(14) 0.13217(16)
H6 H 0.8192 0.4874 0.1182
H7 H 0.7709 0.5392 0.1891
C9 C 0.7639(4) 0.59316(13) 0.08212(13)
C10 C 1.0221(5) 0.65549(18) 0.01166(19)
H8 H 0.9384 0.6519 -0.0422
H9 H 1.1829 0.6551 0.0087
H10 H 0.9827 0.7005 0.0365
C11 C 0.1727(3) 0.42419(11) 0.37542(11)
C12 C 0.1328(5) 0.50727(13) 0.37994(14)
H11 H 0.0307 0.5228 0.3328
H12 H 0.2758 0.5326 0.3818
H13 H 0.0670 0.5184 0.4281
C13 C -0.0591(4) 0.38666(15) 0.37253(16)
H14 H -0.1565 0.4008 0.3237
H15 H -0.1276 0.4013 0.4190
H16 H -0.0390 0.3342 0.3731
C14 C 0.3312(4) 0.40281(15) 0.45330(12)
H17 H 0.2629 0.4172 0.4999
H18 H 0.4753 0.4273 0.4545
H19 H 0.3545 0.3505 0.4542
C15 C 0.5157(4) 0.23204(11) 0.19761(12)
C16 C 0.3028(4) 0.18252(13) 0.18234(17)
H20 H 0.1991 0.2016 0.1373
H21 H 0.2290 0.1816 0.2301
H22 H 0.3475 0.1335 0.1700
C17 C 0.6896(4) 0.20143(12) 0.26731(14)
H23 H 0.6190 0.1972 0.3156
H24 H 0.8179 0.2342 0.2773
H25 H 0.7404 0.1538 0.2525
C18 C 0.6314(5) 0.22816(13) 0.12084(15)
H26 H 0.6737 0.1782 0.1117
H27 H 0.7656 0.2586 0.1279
H28 H 0.5275 0.2453 0.0749
loop_
_geom_bond_atom_site_label_1
_geom_bond_atom_site_label_2
_geom_bond_site_symmetry_1
_geom_bond_site_symmetry_2
O1 H1 1_555 1_555
O2 C9 1_555 1_555
O3 C9 1_555 1_555
C1 H2 1_555 1_555
C2 C1 1_555 1_555
C3 O1 1_555 1_555
C4 C3 1_555 1_555
C5 C4 1_555 1_555
H3 C5 1_555 1_555
C6 C1 1_555 1_555
C7 C6 1_555 1_555
H4 C7 1_555 1_555
H5 C7 1_555 1_555
C8 C7 1_555 1_555
H6 C8 1_555 1_555
H7 C8 1_555 1_555
C9 C8 1_555 1_555
C10 O3 1_555 1_555
H8 C10 1_555 1_555
H9 C10 1_555 1_555
H10 C10 1_555 1_555
C11 C2 1_555 1_555
C12 C11 1_555 1_555
H11 C12 1_555 1_555
H12 C12 1_555 1_555
H13 C12 1_555 1_555
C13 C11 1_555 1_555
H14 C13 1_555 1_555
H15 C13 1_555 1_555
H16 C13 1_555 1_555
C14 C11 1_555 1_555
H17 C14 1_555 1_555
H18 C14 1_555 1_555
H19 C14 1_555 1_555
C15 C4 1_555 1_555
C16 C15 1_555 1_555
H20 C16 1_555 1_555
H21 C16 1_555 1_555
H22 C16 1_555 1_555
C17 C15 1_555 1_555
H23 C17 1_555 1_555
H24 C17 1_555 1_555
H25 C17 1_555 1_555
C18 C15 1_555 1_555
H26 C18 1_555 1_555
H27 C18 1_555 1_555
H28 C18 1_555 1_555
C2 C3 1_555 1_555
C5 C6 1_555 1_555

#END
