
#######################################################################
#
#                 Cambridge Crystallographic Data Centre
#                                CCDC 
#
#######################################################################
#
# If this CIF has been generated from an entry in the Cambridge 
# Structural Database, then it will include bibliographic, chemical, 
# crystal, experimental, refinement or atomic coordinate data resulting 
# from the CCDC's data processing and validation procedures.
#
#######################################################################

data_ROSCEJ
_chemical_formula_moiety         'C15 H15 N1'
_chemical_name_systematic        3-(4-phenylcyclohex-1-en-1-yl)acrylonitrile
_symmetry_cell_setting           triclinic
_symmetry_space_group_name_H-M   'P -1'
_symmetry_Int_Tables_number      2
_space_group_name_Hall           '-P 1'
loop_
_symmetry_equiv_pos_site_id
_symmetry_equiv_pos_as_xyz
1 x,y,z
2 -x,-y,-z
_cell_length_a                   7.7019(4)
_cell_length_b                   9.4338(5)
_cell_length_c                   10.0092(5)
_cell_angle_alpha                63.0521(8)
_cell_angle_beta                 68.8273(7)
_cell_angle_gamma                71.1657(8)
_cell_volume                     593.339
_exptl_crystal_colour            colorless
_exptl_crystal_description       block
_cell_formula_units_Z            2
loop_
_atom_site_label
_atom_site_type_symbol
_atom_site_fract_x
_atom_site_fract_y
_atom_site_fract_z
N1 N 1.33690(18) 0.10156(16) 1.14798(14)
C1 C 1.28570(19) 0.11235(16) 1.04844(16)
C2 C 1.22645(19) 0.12783(16) 0.92121(15)
H1 H 1.3147 0.0869 0.8460
C3 C 1.04997(18) 0.19843(15) 0.90614(14)
H2 H 0.9629 0.2329 0.9860
C4 C 0.98043(17) 0.22674(15) 0.77703(14)
C5 C 0.80170(19) 0.30175(17) 0.77430(15)
H3 H 0.7261 0.3358 0.8572
C6 C 0.710(2) 0.3368(18) 0.6489(17)
H4 H 0.6372 0.4493 0.6193
H5 H 0.6203 0.2629 0.6896
C7 C 0.8594(3) 0.3146(3) 0.5059(3)
H6 H 0.9281 0.4073 0.4520
C8 C 1.0029(3) 0.1592(3) 0.5535(3)
H7 H 1.0969 0.1468 0.4593
H8 H 0.9368 0.0663 0.6073
C9 C 1.1071(12) 0.1546(10) 0.6597(7)
H9 H 1.1631 0.0407 0.7148
H10 H 1.2123 0.2147 0.5958
C10 C 0.7647(3) 0.3182(3) 0.3920(2)
C11 C 0.7950(3) 0.4316(2) 0.2405(2)
H11 H 0.8776 0.5043 0.2061
C12 C 0.7046(3) 0.4385(2) 0.13947(16)
H12 H 0.7253 0.5160 0.0360
C13 C 0.5838(3) 0.3322(3) 0.1899(2)
H13 H 0.5219 0.3369 0.1208
C14 C 0.5535(3) 0.2188(2) 0.3413(2)
H14 H 0.4709 0.1461 0.3757
C15 C 0.6440(3) 0.2118(2) 0.44235(15)
H15 H 0.6232 0.1343 0.5459
C16? C 0.717(3) 0.338(2) 0.648(2)
H16? H 0.7067 0.4550 0.5822
H17? H 0.5869 0.3144 0.6943
C17? C 0.8355(4) 0.2380(4) 0.5470(3)
H18? H 0.8338 0.1209 0.6136
C18? C 1.0399(4) 0.2631(4) 0.4968(4)
H19? H 1.1193 0.2098 0.4232
H20? H 1.0427 0.3803 0.4434
C19? C 1.1190(15) 0.1918(14) 0.6377(9)
H21? H 1.1580 0.0730 0.6676
H22? H 1.2338 0.2356 0.6090
C20? C 0.7503(4) 0.2831(3) 0.4133(2)
C21? C 0.8070(4) 0.4041(3) 0.2703(3)
H23? H 0.8989 0.4609 0.2549
C22? C 0.7293(4) 0.4421(3) 0.1499(2)
H24? H 0.7680 0.5248 0.0521
C23? C 0.5948(4) 0.3590(3) 0.1724(2)
H25? H 0.5417 0.3850 0.0901
C24? C 0.5381(4) 0.2380(3) 0.3154(3)
H26? H 0.4462 0.1812 0.3308
C25? C 0.6158(4) 0.2001(3) 0.4359(2)
H27? H 0.5771 0.1173 0.5336
loop_
_geom_bond_atom_site_label_1
_geom_bond_atom_site_label_2
_geom_bond_site_symmetry_1
_geom_bond_site_symmetry_2
N1 C1 1_555 1_555
C1 C2 1_555 1_555
C2 H1 1_555 1_555
C3 C2 1_555 1_555
H2 C3 1_555 1_555
C4 C3 1_555 1_555
C5 C4 1_555 1_555
H3 C5 1_555 1_555
C6 C5 1_555 1_555
H4 C6 1_555 1_555
H5 C6 1_555 1_555
C7 C6 1_555 1_555
H6 C7 1_555 1_555
C8 C7 1_555 1_555
H7 C8 1_555 1_555
H8 C8 1_555 1_555
C9 C4 1_555 1_555
H9 C9 1_555 1_555
H10 C9 1_555 1_555
C10 C7 1_555 1_555
C11 C10 1_555 1_555
H11 C11 1_555 1_555
C12 C11 1_555 1_555
H12 C12 1_555 1_555
C13 C12 1_555 1_555
H13 C13 1_555 1_555
C14 C13 1_555 1_555
H14 C14 1_555 1_555
C15 C10 1_555 1_555
H15 C15 1_555 1_555
C8 C9 1_555 1_555
C14 C15 1_555 1_555

#END
