
#######################################################################
#
#                 Cambridge Crystallographic Data Centre
#                                CCDC 
#
#######################################################################
#
# If this CIF has been generated from an entry in the Cambridge 
# Structural Database, then it will include bibliographic, chemical, 
# crystal, experimental, refinement or atomic coordinate data resulting 
# from the CCDC's data processing and validation procedures.
#
#######################################################################

data_ROSMOD
_chemical_formula_moiety         'C6 H6 N12 O12,C6 H4 O2'
_chemical_name_systematic        
'2,4,6,8,10,12-Hexanitro-2,4,6,8,10,12-hexaazatetracyclo[5.5.0.0^3,11^.0^5,9^]dodecane b-benzoquinone'
_symmetry_cell_setting           orthorhombic
_symmetry_space_group_name_H-M   'P n a 21'
_symmetry_Int_Tables_number      33
_space_group_name_Hall           'P 2c -2n'
loop_
_symmetry_equiv_pos_site_id
_symmetry_equiv_pos_as_xyz
1 x,y,z
2 -x,-y,1/2+z
3 1/2+x,1/2-y,z
4 1/2-x,1/2+y,1/2+z
_cell_length_a                   13.178(10)
_cell_length_b                   12.026(9)
_cell_length_c                   13.179(10)
_cell_angle_alpha                90
_cell_angle_beta                 90
_cell_angle_gamma                90
_cell_volume                     2088.59
_exptl_crystal_colour            colorless
_exptl_crystal_description       prismatic
_cell_formula_units_Z            4
loop_
_atom_site_label
_atom_site_type_symbol
_atom_site_fract_x
_atom_site_fract_y
_atom_site_fract_z
N1 N 0.15090(14) 0.43948(14) 0.20439(14)
N2 N 0.14272(18) 0.55320(16) 0.19567(17)
N3 N 0.10582(13) 0.26389(14) 0.23403(14)
N4 N 0.05690(16) 0.20309(16) 0.15490(15)
N5 N 0.14659(13) 0.47575(14) 0.40110(14)
N6 N 0.12321(17) 0.54075(17) 0.49049(17)
N7 N 0.10710(13) 0.29768(15) 0.43112(15)
N8 N 0.05011(15) 0.20161(16) 0.43397(18)
N9 N 0.29899(13) 0.42631(15) 0.31302(15)
N10 N 0.38145(13) 0.50048(16) 0.30676(18)
N11 N 0.25066(13) 0.22679(14) 0.33487(14)
N12 N 0.30025(14) 0.12663(15) 0.34656(17)
O1 O 0.05856(15) 0.59197(14) 0.2089(2)
O2 O 0.21976(16) 0.60325(15) 0.17433(18)
O3 O -0.02893(14) 0.23140(16) 0.13495(16)
O4 O 0.10342(15) 0.12430(15) 0.12246(14)
O5 O 0.03459(17) 0.5466(2) 0.51364(19)
O6 O 0.19327(17) 0.58930(17) 0.52673(17)
O7 O -0.03907(13) 0.21105(14) 0.40955(17)
O8 O 0.09215(16) 0.11802(15) 0.46183(19)
O9 O 0.40327(14) 0.54859(15) 0.38473(16)
O10 O 0.42457(14) 0.50525(17) 0.22589(16)
O11 O 0.32525(15) 0.07968(15) 0.26843(16)
O12 O 0.31818(13) 0.09542(14) 0.43168(16)
C1 C 0.07115(17) 0.37612(17) 0.25468(17)
H1 H 0.0045 0.3904 0.2243
C2 C 0.25003(15) 0.38835(16) 0.22145(18)
H2 H 0.2943 0.3974 0.1623
C3 C 0.21779(15) 0.26328(17) 0.23590(17)
H3 H 0.2456 0.2160 0.1821
C4 C 0.06929(16) 0.39342(16) 0.37431(18)
H4 H 0.0019 0.4161 0.3980
C5 C 0.24560(15) 0.41555(17) 0.40697(16)
H5 H 0.2867 0.4432 0.4636
C6 C 0.21807(15) 0.28952(17) 0.42213(17)
H6 H 0.2483 0.2602 0.4846
O13 O 0.2682(3) 0.36771(19) 0.62626(16)
O14 O 0.2107(2) 0.32021(19) 1.01872(16)
C7 C 0.2569(3) 0.35030(19) 0.71603(19)
C8 C 0.1606(2) 0.3115(2) 0.7567(2)
H7 H 0.1083 0.2936 0.7122
C9 C 0.1457(2) 0.3013(2) 0.8554(2)
H8 H 0.0829 0.2775 0.8791
C10 C 0.2252(2) 0.32655(19) 0.9274(2)
C11 C 0.3236(3) 0.3604(3) 0.8870(2)
H9 H 0.3767 0.3751 0.9315
C12 C 0.3387(2) 0.3704(3) 0.7881(3)
H10 H 0.4025 0.3906 0.7643
loop_
_geom_bond_atom_site_label_1
_geom_bond_atom_site_label_2
_geom_bond_site_symmetry_1
_geom_bond_site_symmetry_2
N1 N2 1_555 1_555
N2 O1 1_555 1_555
N3 N4 1_555 1_555
N4 O3 1_555 1_555
N5 N6 1_555 1_555
N6 O5 1_555 1_555
N7 N8 1_555 1_555
N8 O7 1_555 1_555
N9 N10 1_555 1_555
N10 O9 1_555 1_555
N11 N12 1_555 1_555
N12 O11 1_555 1_555
O2 N2 1_555 1_555
O4 N4 1_555 1_555
O6 N6 1_555 1_555
O8 N8 1_555 1_555
O10 N10 1_555 1_555
O12 N12 1_555 1_555
C1 N1 1_555 1_555
H1 C1 1_555 1_555
C2 N1 1_555 1_555
H2 C2 1_555 1_555
C3 N3 1_555 1_555
H3 C3 1_555 1_555
C4 N5 1_555 1_555
H4 C4 1_555 1_555
C5 N5 1_555 1_555
H5 C5 1_555 1_555
C6 N7 1_555 1_555
H6 C6 1_555 1_555
O13 C7 1_555 1_555
O14 C10 1_555 1_555
C7 C8 1_555 1_555
C8 H7 1_555 1_555
C9 C8 1_555 1_555
H8 C9 1_555 1_555
C10 C9 1_555 1_555
C11 C10 1_555 1_555
H9 C11 1_555 1_555
C12 C7 1_555 1_555
H10 C12 1_555 1_555
N3 C1 1_555 1_555
N7 C4 1_555 1_555
N9 C2 1_555 1_555
N9 C5 1_555 1_555
N11 C3 1_555 1_555
N11 C6 1_555 1_555
C1 C4 1_555 1_555
C2 C3 1_555 1_555
C5 C6 1_555 1_555
C11 C12 1_555 1_555

#END
