
#######################################################################
#
#                 Cambridge Crystallographic Data Centre
#                                CCDC 
#
#######################################################################
#
# If this CIF has been generated from an entry in the Cambridge 
# Structural Database, then it will include bibliographic, chemical, 
# crystal, experimental, refinement or atomic coordinate data resulting 
# from the CCDC's data processing and validation procedures.
#
#######################################################################

data_ROTHUF
_chemical_formula_moiety         'C35 H32 N2 O3'
_chemical_name_systematic        
'(E)-Benzyl 3-(3-benzoyl-9-methyl-1-phenyl-1,2,3,5,6,10b-hexahydropyrazolo[5,1-a]isoquinolin-2-yl)acrylate'
_symmetry_cell_setting           monoclinic
_symmetry_space_group_name_H-M   'P 21'
_symmetry_Int_Tables_number      4
_space_group_name_Hall           'P 2yb'
loop_
_symmetry_equiv_pos_site_id
_symmetry_equiv_pos_as_xyz
1 x,y,z
2 -x,1/2+y,-z
_cell_length_a                   10.48260(10)
_cell_length_b                   8.55070(10)
_cell_length_c                   16.8760(2)
_cell_angle_alpha                90
_cell_angle_beta                 103.4950(10)
_cell_angle_gamma                90
_cell_volume                     1470.89
_exptl_crystal_colour            colorless
_chemical_melting_point          '113-115 deg.C'
_cell_formula_units_Z            2
loop_
_atom_site_label
_atom_site_type_symbol
_atom_site_fract_x
_atom_site_fract_y
_atom_site_fract_z
N1 N 0.6323(3) 0.3344(4) 0.29512(16)
N2 N 0.7646(3) 0.3086(4) 0.28982(16)
O1 O 0.9687(2) 0.4030(4) 0.31494(17)
O2 O 0.9009(5) -0.2133(6) 0.1749(3)
O3 O 1.0759(3) -0.1582(4) 0.2672(2)
C1 C 0.5747(4) 0.1858(5) 0.3143(2)
H1 H 0.6250 0.1447 0.3657
H2 H 0.5758 0.1093 0.2720
C2 C 0.4354(4) 0.2174(6) 0.3196(2)
H3 H 0.3938 0.1198 0.3287
H4 H 0.4358 0.2856 0.3656
C3 C 0.3581(3) 0.2925(5) 0.2431(2)
C4 C 0.2214(4) 0.2813(6) 0.2194(3)
H5 H 0.1772 0.2238 0.2514
C5 C 0.1504(4) 0.3527(7) 0.1503(3)
H6 H 0.0597 0.3415 0.1360
C6 C 0.2121(4) 0.4411(6) 0.1016(3)
C7 C 0.3479(3) 0.4533(5) 0.1247(2)
H7 H 0.3910 0.5129 0.0929
C8 C 0.4211(3) 0.3795(4) 0.1935(2)
C9 C 0.5689(3) 0.3919(4) 0.21261(19)
H8 H 0.5925 0.5021 0.2088
C10 C 0.6332(3) 0.2950(4) 0.15391(18)
H9 H 0.5858 0.1956 0.1424
C11 C 0.7708(3) 0.2605(4) 0.20623(19)
H10 H 0.8324 0.3306 0.1882
C12 C 0.8163(4) 0.0974(5) 0.1994(3)
H11 H 0.7647 0.0391 0.1574
C13 C 0.9117(4) 0.0274(6) 0.2408(3)
H12 H 0.9579 0.0768 0.2879
C14 C 0.9594(4) -0.1273(5) 0.2225(2)
C15 C 0.1340(5) 0.5235(10) 0.0279(3)
H13 H 0.1163 0.4527 -0.0175
H14 H 0.1829 0.6114 0.0155
H15 H 0.0527 0.5592 0.0384
C16 C 0.6368(3) 0.3710(4) 0.0734(2)
C17 C 0.7170(4) 0.4980(5) 0.0700(3)
H16 H 0.7648 0.5428 0.1180
C18 C 0.7267(5) 0.5592(7) -0.0048(4)
H17 H 0.7826 0.6428 -0.0066
C19 C 0.6541(6) 0.4967(7) -0.0756(3)
H18 H 0.6611 0.5367 -0.1256
C20 C 0.5711(6) 0.3750(7) -0.0723(3)
H19 H 0.5196 0.3345 -0.1203
C21 C 0.5626(4) 0.3113(6) 0.0017(2)
H20 H 0.5064 0.2276 0.0030
C22 C 0.8632(3) 0.3988(5) 0.3340(2)
C23 C 0.8437(3) 0.4871(5) 0.4068(2)
C24 C 0.7990(4) 0.4168(6) 0.4690(2)
H21 H 0.7705 0.3135 0.4639
C25 C 0.7968(5) 0.5008(7) 0.5390(2)
H22 H 0.7669 0.4532 0.5808
C26 C 0.8381(4) 0.6527(8) 0.5470(3)
H23 H 0.8372 0.7078 0.5944
C27 C 0.8809(5) 0.7239(7) 0.4853(3)
H24 H 0.9062 0.8284 0.4898
C28 C 0.8864(4) 0.6399(6) 0.4163(3)
H25 H 0.9195 0.6872 0.3756
C29 C 1.1376(5) -0.3017(6) 0.2481(3)
H26 H 1.1539 -0.2957 0.1939
H27 H 1.0814 -0.3910 0.2502
C30 C 1.2621(4) -0.3167(5) 0.3098(3)
C31 C 1.2642(5) -0.4012(7) 0.3795(3)
H28 H 1.1879 -0.4486 0.3868
C32 C 1.3794(10) -0.4160(11) 0.4386(4)
H29 H 1.3808 -0.4743 0.4853
C33 C 1.4881(11) -0.3470(17) 0.4288(9)
H30 H 1.5645 -0.3536 0.4698
C34 C 1.4888(8) -0.2668(16) 0.3595(9)
H31 H 1.5669 -0.2238 0.3524
C35 C 1.3764(6) -0.2483(8) 0.2999(5)
H32 H 1.3771 -0.1904 0.2533
loop_
_geom_bond_atom_site_label_1
_geom_bond_atom_site_label_2
_geom_bond_site_symmetry_1
_geom_bond_site_symmetry_2
N1 N2 1_555 1_555
N2 C11 1_555 1_555
O1 C22 1_555 1_555
O2 C14 1_555 1_555
O3 C14 1_555 1_555
C1 N1 1_555 1_555
H1 C1 1_555 1_555
H2 C1 1_555 1_555
C2 C1 1_555 1_555
H3 C2 1_555 1_555
H4 C2 1_555 1_555
C3 C2 1_555 1_555
C4 C3 1_555 1_555
H5 C4 1_555 1_555
C5 C4 1_555 1_555
H6 C5 1_555 1_555
C6 C5 1_555 1_555
C7 C6 1_555 1_555
H7 C7 1_555 1_555
C8 C3 1_555 1_555
C9 N1 1_555 1_555
H8 C9 1_555 1_555
C10 C9 1_555 1_555
H9 C10 1_555 1_555
C11 C10 1_555 1_555
H10 C11 1_555 1_555
C12 C11 1_555 1_555
H11 C12 1_555 1_555
C13 C12 1_555 1_555
H12 C13 1_555 1_555
C14 C13 1_555 1_555
C15 C6 1_555 1_555
H13 C15 1_555 1_555
H14 C15 1_555 1_555
H15 C15 1_555 1_555
C16 C10 1_555 1_555
C17 C16 1_555 1_555
H16 C17 1_555 1_555
C18 C17 1_555 1_555
H17 C18 1_555 1_555
C19 C18 1_555 1_555
H18 C19 1_555 1_555
C20 C19 1_555 1_555
H19 C20 1_555 1_555
C21 C16 1_555 1_555
H20 C21 1_555 1_555
C22 N2 1_555 1_555
C23 C22 1_555 1_555
C24 C23 1_555 1_555
H21 C24 1_555 1_555
C25 C24 1_555 1_555
H22 C25 1_555 1_555
C26 C25 1_555 1_555
H23 C26 1_555 1_555
C27 C26 1_555 1_555
H24 C27 1_555 1_555
C28 C23 1_555 1_555
H25 C28 1_555 1_555
C29 O3 1_555 1_555
H26 C29 1_555 1_555
H27 C29 1_555 1_555
C30 C29 1_555 1_555
C31 C30 1_555 1_555
H28 C31 1_555 1_555
C32 C31 1_555 1_555
H29 C32 1_555 1_555
C33 C32 1_555 1_555
H30 C33 1_555 1_555
C34 C33 1_555 1_555
H31 C34 1_555 1_555
C35 C30 1_555 1_555
H32 C35 1_555 1_555
C7 C8 1_555 1_555
C8 C9 1_555 1_555
C20 C21 1_555 1_555
C27 C28 1_555 1_555
C34 C35 1_555 1_555

#END
