
#######################################################################
#
#                 Cambridge Crystallographic Data Centre
#                                CCDC 
#
#######################################################################
#
# If this CIF has been generated from an entry in the Cambridge 
# Structural Database, then it will include bibliographic, chemical, 
# crystal, experimental, refinement or atomic coordinate data resulting 
# from the CCDC's data processing and validation procedures.
#
#######################################################################

data_ROTKIW
_chemical_formula_moiety         'C22 H18 F3 N1 O1 S2'
_chemical_name_systematic        
(4-Methyl-1-(trifluoromethyl)-1,4-dihydro-2H-spiro[cyclopenta[b]indole-3,2'-[1,3]dithiolan]-2-yl)(phenyl)methanone
_symmetry_cell_setting           monoclinic
_symmetry_space_group_name_H-M   'P 21/n'
_symmetry_Int_Tables_number      14
_space_group_name_Hall           '-P 2yn'
loop_
_symmetry_equiv_pos_site_id
_symmetry_equiv_pos_as_xyz
1 x,y,z
2 1/2-x,1/2+y,1/2-z
3 -x,-y,-z
4 1/2+x,1/2-y,1/2+z
_cell_length_a                   9.958(2)
_cell_length_b                   14.937(3)
_cell_length_c                   14.131(3)
_cell_angle_alpha                90
_cell_angle_beta                 106.072(3)
_cell_angle_gamma                90
_cell_volume                     2019.73
_exptl_crystal_colour            yellowish
_exptl_crystal_description       bulk
_cell_formula_units_Z            4
loop_
_atom_site_label
_atom_site_type_symbol
_atom_site_fract_x
_atom_site_fract_y
_atom_site_fract_z
C1 C 0.3581(3) 0.63785(17) 0.65831(17)
C2 C 0.4002(3) 0.71859(18) 0.7075(2)
H1 H 0.4688 0.7194 0.7675
C3 C 0.3378(4) 0.7974(2) 0.6653(2)
H2 H 0.3653 0.8515 0.6975
C4 C 0.2355(4) 0.7971(2) 0.5765(2)
H3 H 0.1958 0.8511 0.5501
C5 C 0.1909(3) 0.7191(2) 0.5259(2)
H4 H 0.1212 0.7196 0.4665
C6 C 0.2534(3) 0.63962(17) 0.56669(18)
C7 C 0.3188(2) 0.49818(16) 0.59757(16)
C8 C 0.3959(2) 0.54538(16) 0.67520(16)
C9 C 0.5011(2) 0.48715(16) 0.74392(16)
H5 H 0.5939 0.4993 0.7356
C10 C 0.4548(2) 0.39103(15) 0.70609(16)
H6 H 0.3996 0.3663 0.7476
C11 C 0.3538(2) 0.40117(16) 0.59717(16)
C12 C 0.5055(3) 0.49977(19) 0.84991(19)
C13 C 0.1424(3) 0.5293(2) 0.43298(19)
H7 H 0.0916 0.5812 0.4023
H8 H 0.0778 0.4834 0.4390
H9 H 0.1999 0.5077 0.3934
C14 C 0.2221(5) 0.2678(3) 0.4740(3)
H10 H 0.2175 0.2043 0.4875
H11 H 0.1433 0.2816 0.4180
C15 C 0.3415(5) 0.2830(3) 0.4473(3)
H12 H 0.3169 0.2893 0.3762
H13 H 0.4007 0.2305 0.4643
C16 C 0.5779(3) 0.32764(18) 0.71235(18)
C17 C 0.5501(2) 0.22993(17) 0.69984(17)
C18 C 0.4476(3) 0.18632(18) 0.7320(2)
H14 H 0.3907 0.2190 0.7616
C19 C 0.4294(3) 0.0953(2) 0.7204(3)
H15 H 0.3622 0.0666 0.7438
C20 C 0.5101(4) 0.0467(2) 0.6743(3)
H16 H 0.4963 -0.0146 0.6654
C21 C 0.6114(4) 0.0890(2) 0.6415(3)
H17 H 0.6654 0.0561 0.6097
C22 C 0.6333(3) 0.1793(2) 0.6552(2)
H18 H 0.7041 0.2069 0.6346
N1 N 0.2302(2) 0.55317(14) 0.53030(14)
O1 O 0.69544(19) 0.35684(14) 0.72607(16)
F1 F 0.5498(2) 0.58141(12) 0.88259(12)
F2 F 0.3810(2) 0.48901(12) 0.86727(12)
F3 F 0.5926(2) 0.44215(13) 0.90930(12)
S1 S 0.44061(7) 0.37807(5) 0.50064(5)
S2 S 0.20116(7) 0.32754(5) 0.57658(5)
loop_
_geom_bond_atom_site_label_1
_geom_bond_atom_site_label_2
_geom_bond_site_symmetry_1
_geom_bond_site_symmetry_2
C1 C2 1_555 1_555
C2 H1 1_555 1_555
C3 C2 1_555 1_555
H2 C3 1_555 1_555
C4 C3 1_555 1_555
H3 C4 1_555 1_555
C5 C4 1_555 1_555
H4 C5 1_555 1_555
C6 C1 1_555 1_555
C7 C8 1_555 1_555
C8 C1 1_555 1_555
C9 C8 1_555 1_555
H5 C9 1_555 1_555
C10 C9 1_555 1_555
H6 C10 1_555 1_555
C11 C7 1_555 1_555
C12 C9 1_555 1_555
C13 H7 1_555 1_555
H8 C13 1_555 1_555
H9 C13 1_555 1_555
C14 H10 1_555 1_555
H11 C14 1_555 1_555
C15 C14 1_555 1_555
H12 C15 1_555 1_555
H13 C15 1_555 1_555
C16 C10 1_555 1_555
C17 C16 1_555 1_555
C18 C17 1_555 1_555
H14 C18 1_555 1_555
C19 C18 1_555 1_555
H15 C19 1_555 1_555
C20 C19 1_555 1_555
H16 C20 1_555 1_555
C21 C20 1_555 1_555
H17 C21 1_555 1_555
C22 C17 1_555 1_555
H18 C22 1_555 1_555
N1 C6 1_555 1_555
O1 C16 1_555 1_555
F1 C12 1_555 1_555
F2 C12 1_555 1_555
F3 C12 1_555 1_555
S1 C11 1_555 1_555
S2 C11 1_555 1_555
C5 C6 1_555 1_555
C7 N1 1_555 1_555
C10 C11 1_555 1_555
C13 N1 1_555 1_555
C14 S2 1_555 1_555
C15 S1 1_555 1_555
C21 C22 1_555 1_555

#END
