
#######################################################################
#
#                 Cambridge Crystallographic Data Centre
#                                CCDC 
#
#######################################################################
#
# If this CIF has been generated from an entry in the Cambridge 
# Structural Database, then it will include bibliographic, chemical, 
# crystal, experimental, refinement or atomic coordinate data resulting 
# from the CCDC's data processing and validation procedures.
#
#######################################################################

data_ROVNIB
_chemical_formula_moiety         'C27 H25 Br1 Cl1 N5 O6 S1'
_chemical_name_systematic        
'4-ethyl 2-methyl 5-(4-bromophenyl)-3-(6-chloro-9H-purin-9-yl)-1-((4-methylphenyl)sulfonyl)pyrrolidine-2,4-dicarboxylate unknown solvate'
_symmetry_cell_setting           orthorhombic
_symmetry_space_group_name_H-M   'C 2 2 21'
_symmetry_Int_Tables_number      20
_space_group_name_Hall           'C 2n 2'
loop_
_symmetry_equiv_pos_site_id
_symmetry_equiv_pos_as_xyz
1 x,y,z
2 -x,-y,1/2+z
3 -x,y,1/2-z
4 x,-y,-z
5 1/2+x,1/2+y,z
6 1/2-x,1/2-y,1/2+z
7 1/2-x,1/2+y,1/2-z
8 1/2+x,1/2-y,-z
_cell_length_a                   21.051(4)
_cell_length_b                   28.357(6)
_cell_length_c                   13.136(3)
_cell_angle_alpha                90
_cell_angle_beta                 90
_cell_angle_gamma                90
_cell_volume                     7841.45
_exptl_crystal_colour            colorless
_exptl_crystal_description       block
_cell_formula_units_Z            8
loop_
_atom_site_label
_atom_site_type_symbol
_atom_site_fract_x
_atom_site_fract_y
_atom_site_fract_z
Br1 Br 0.19073(3) 0.22989(3) 0.44906(7)
C1 C 0.7699(3) 0.1361(3) 0.5909(7)
H1 H 0.7906 0.1298 0.6520
C2 C 0.7790(3) 0.1499(2) 0.4194(6)
C3 C 0.7149(3) 0.15434(18) 0.4134(5)
C4 C 0.6185(3) 0.16494(17) 0.3770(4)
H2 H 0.5813 0.1707 0.3408
C5 C 0.6824(2) 0.14815(17) 0.5047(5)
C6 C 0.56461(18) 0.14986(13) 0.5506(3)
H3 H 0.5808 0.1527 0.6202
C7 C 0.51289(19) 0.18674(13) 0.5372(3)
H4 H 0.5024 0.1902 0.4649
C8 C 0.45631(18) 0.16512(13) 0.5947(3)
H5 H 0.4610 0.1710 0.6678
C9 C 0.53060(18) 0.10207(14) 0.5422(3)
H6 H 0.5494 0.0794 0.5896
C10 C 0.5301(2) 0.23422(19) 0.5819(4)
C11 C 0.5129(4) 0.3181(2) 0.5769(6)
H7 H 0.4871 0.3192 0.6380
H8 H 0.5567 0.3238 0.5961
C12 C 0.4937(5) 0.3515(3) 0.5121(7)
H9 H 0.5221 0.3526 0.4549
H10 H 0.4936 0.3815 0.5459
H11 H 0.4515 0.3443 0.4888
C13 C 0.5310(2) 0.08229(15) 0.4347(4)
C14 C 0.5884(3) 0.0347(2) 0.3163(4)
H12 H 0.6122 0.0058 0.3188
H13 H 0.6101 0.0570 0.2735
H14 H 0.5469 0.0286 0.2891
C15 C 0.3491(2) 0.07307(15) 0.5774(4)
C16 C 0.2961(2) 0.08603(17) 0.6313(4)
H15 H 0.2990 0.0955 0.6989
C17 C 0.2379(3) 0.0846(2) 0.5818(6)
H16 H 0.2017 0.0944 0.6164
C18 C 0.2320(3) 0.0688(2) 0.4812(6)
C19 C 0.2855(3) 0.05526(17) 0.4294(5)
H17 H 0.2822 0.0445 0.3627
C20 C 0.3448(2) 0.05752(16) 0.4764(4)
H18 H 0.3812 0.0488 0.4410
C21 C 0.1667(3) 0.0673(2) 0.4285(6)
H19 H 0.1358 0.0543 0.4744
H20 H 0.1693 0.0479 0.3687
H21 H 0.1543 0.0986 0.4095
C22 C 0.39189(19) 0.18305(14) 0.5591(4)
C23 C 0.3520(2) 0.20644(16) 0.6252(4)
H22 H 0.3651 0.2124 0.6916
C24 C 0.2922(3) 0.22119(18) 0.5936(5)
H23 H 0.2654 0.2372 0.6380
C25 C 0.2738(2) 0.21193(17) 0.4970(6)
C26 C 0.3128(2) 0.18871(15) 0.4258(4)
H24 H 0.2994 0.1831 0.3595
C27 C 0.37204(19) 0.17469(15) 0.4595(4)
H25 H 0.3993 0.1593 0.4147
Cl1 Cl 0.82866(8) 0.15698(8) 0.31628(15)
N1 N 0.7062(2) 0.13807(19) 0.5968(4)
N2 N 0.8082(3) 0.1417(3) 0.5099(6)
N3 N 0.61912(16) 0.15543(13) 0.4806(3)
N4 N 0.6748(2) 0.16510(15) 0.3345(3)
N5 N 0.46601(15) 0.11362(11) 0.5736(3)
O1 O 0.50729(18) 0.26976(13) 0.5280(3)
O2 O 0.55876(16) 0.23973(11) 0.6623(3)
O3 O 0.49268(17) 0.09104(12) 0.3706(3)
O4 O 0.58231(14) 0.05450(10) 0.4209(2)
O5 O 0.41426(14) 0.09079(10) 0.7401(2)
O6 O 0.45523(14) 0.02991(9) 0.6195(2)
S1 S 0.42394(5) 0.07421(4) 0.63757(9)
loop_
_geom_bond_atom_site_label_1
_geom_bond_atom_site_label_2
_geom_bond_site_symmetry_1
_geom_bond_site_symmetry_2
Br1 C25 1_555 1_555
C1 H1 1_555 1_555
C2 C3 1_555 1_555
C3 C5 1_555 1_555
C4 H2 1_555 1_555
C5 N1 1_555 1_555
C6 H3 1_555 1_555
C7 C6 1_555 1_555
H4 C7 1_555 1_555
C8 C7 1_555 1_555
H5 C8 1_555 1_555
C9 C6 1_555 1_555
H6 C9 1_555 1_555
C10 C7 1_555 1_555
C11 H7 1_555 1_555
H8 C11 1_555 1_555
C12 C11 1_555 1_555
H9 C12 1_555 1_555
H10 C12 1_555 1_555
H11 C12 1_555 1_555
C13 C9 1_555 1_555
C14 H12 1_555 1_555
H13 C14 1_555 1_555
H14 C14 1_555 1_555
C15 C16 1_555 1_555
C16 H15 1_555 1_555
C17 C16 1_555 1_555
H16 C17 1_555 1_555
C18 C17 1_555 1_555
C19 C18 1_555 1_555
H17 C19 1_555 1_555
C20 C15 1_555 1_555
H18 C20 1_555 1_555
C21 C18 1_555 1_555
H19 C21 1_555 1_555
H20 C21 1_555 1_555
H21 C21 1_555 1_555
C22 C8 1_555 1_555
C23 C22 1_555 1_555
H22 C23 1_555 1_555
C24 C23 1_555 1_555
H23 C24 1_555 1_555
C25 C24 1_555 1_555
C26 C25 1_555 1_555
H24 C26 1_555 1_555
C27 C22 1_555 1_555
H25 C27 1_555 1_555
Cl1 C2 1_555 1_555
N1 C1 1_555 1_555
N2 C1 1_555 1_555
N3 C4 1_555 1_555
N4 C3 1_555 1_555
N5 C8 1_555 1_555
O1 C10 1_555 1_555
O2 C10 1_555 1_555
O3 C13 1_555 1_555
O4 C13 1_555 1_555
O5 S1 1_555 1_555
O6 S1 1_555 1_555
S1 C15 1_555 1_555
C2 N2 1_555 1_555
C4 N4 1_555 1_555
C5 N3 1_555 1_555
C6 N3 1_555 1_555
C9 N5 1_555 1_555
C11 O1 1_555 1_555
C14 O4 1_555 1_555
C19 C20 1_555 1_555
C26 C27 1_555 1_555
N5 S1 1_555 1_555

#END
