
#######################################################################
#
#                 Cambridge Crystallographic Data Centre
#                                CCDC 
#
#######################################################################
#
# If this CIF has been generated from an entry in the Cambridge 
# Structural Database, then it will include bibliographic, chemical, 
# crystal, experimental, refinement or atomic coordinate data resulting 
# from the CCDC's data processing and validation procedures.
#
#######################################################################

data_ROVTON
_chemical_formula_moiety         'C13 H15 N3 O2'
_chemical_name_systematic        
1-(4-methylphenyl)-2-nitroso-2-(tetrahydropyrimidin-2(1H)-ylidene)ethanone
_symmetry_cell_setting           monoclinic
_symmetry_space_group_name_H-M   'P 21/c'
_symmetry_Int_Tables_number      14
_space_group_name_Hall           '-P 2ybc'
loop_
_symmetry_equiv_pos_site_id
_symmetry_equiv_pos_as_xyz
1 x,y,z
2 -x,1/2+y,1/2-z
3 -x,-y,-z
4 x,1/2-y,1/2+z
_cell_length_a                   16.323(3)
_cell_length_b                   6.6421(12)
_cell_length_c                   12.123(2)
_cell_angle_alpha                90
_cell_angle_beta                 109.958(2)
_cell_angle_gamma                90
_cell_volume                     1235.43
_exptl_crystal_colour            red
_exptl_crystal_description       block
_cell_formula_units_Z            4
loop_
_atom_site_label
_atom_site_type_symbol
_atom_site_fract_x
_atom_site_fract_y
_atom_site_fract_z
N1 N 0.31918(18) 0.4981(4) 0.6304(2)
H1 H 0.2837 0.4125 0.5855
N2 N 0.39914(17) 0.5958(4) 0.8160(2)
H2 H 0.4144 0.5736 0.8902
N3 N 0.34344(17) 0.2427(4) 0.9069(2)
O1 O 0.22429(17) 0.1628(4) 0.6128(2)
O2 O 0.40648(16) 0.3420(4) 0.9795(2)
C1 C 0.3473(3) 0.6693(5) 0.5753(3)
H3 H 0.3566 0.6246 0.5042
H4 H 0.3021 0.7713 0.5539
C2 C 0.4348(2) 0.7722(5) 0.7773(3)
H5 H 0.4039 0.8915 0.7878
H6 H 0.4957 0.7874 0.8251
C3 C 0.34492(18) 0.4683(4) 0.7441(3)
C4 C 0.31335(18) 0.2968(4) 0.7940(2)
C5 C 0.2438(2) 0.1661(4) 0.7200(3)
C6 C 0.19560(18) 0.0306(4) 0.7747(2)
C7 C 0.16499(19) 0.0954(5) 0.8623(3)
H7 H 0.1784 0.2241 0.8934
C8 C 0.1143(2) -0.0317(6) 0.9036(3)
H8 H 0.0929 0.0148 0.9609
C9 C 0.0949(2) -0.2272(5) 0.8612(3)
C10 C 0.1259(2) -0.2884(5) 0.7739(3)
H9 H 0.1138 -0.4183 0.7440
C11 C 0.1742(2) -0.1621(4) 0.7299(3)
H10 H 0.1927 -0.2064 0.6696
C12 C 0.0413(3) -0.3667(7) 0.9080(3)
H11 H 0.0101 -0.4599 0.8477
H12 H 0.0005 -0.2892 0.9318
H13 H 0.0791 -0.4396 0.9742
C13 C 0.4271(3) 0.7547(6) 0.6548(4)
H14 H 0.4340 0.8880 0.6264
H15 H 0.4753 0.6733 0.6507
loop_
_geom_bond_atom_site_label_1
_geom_bond_atom_site_label_2
_geom_bond_site_symmetry_1
_geom_bond_site_symmetry_2
N1 H1 1_555 1_555
N2 H2 1_555 1_555
N3 O2 1_555 1_555
O1 C5 1_555 1_555
C1 N1 1_555 1_555
H3 C1 1_555 1_555
H4 C1 1_555 1_555
C2 N2 1_555 1_555
H5 C2 1_555 1_555
H6 C2 1_555 1_555
C3 N1 1_555 1_555
C4 N3 1_555 1_555
C5 C4 1_555 1_555
C6 C5 1_555 1_555
C7 C6 1_555 1_555
H7 C7 1_555 1_555
C8 C7 1_555 1_555
H8 C8 1_555 1_555
C9 C8 1_555 1_555
C10 C9 1_555 1_555
H9 C10 1_555 1_555
C11 C6 1_555 1_555
H10 C11 1_555 1_555
C12 C9 1_555 1_555
H11 C12 1_555 1_555
H12 C12 1_555 1_555
H13 C12 1_555 1_555
C13 C1 1_555 1_555
H14 C13 1_555 1_555
H15 C13 1_555 1_555
N2 C3 1_555 1_555
C2 C13 1_555 1_555
C3 C4 1_555 1_555
C10 C11 1_555 1_555

#END
