
#######################################################################
#
#                 Cambridge Crystallographic Data Centre
#                                CCDC 
#
#######################################################################
#
# If this CIF has been generated from an entry in the Cambridge 
# Structural Database, then it will include bibliographic, chemical, 
# crystal, experimental, refinement or atomic coordinate data resulting 
# from the CCDC's data processing and validation procedures.
#
#######################################################################

data_ROVXOR
_chemical_formula_moiety         'C19 H20 N8 S2,3(H2 O1)'
_chemical_name_systematic        
"2,2'-(Pentane-3,3-diylbis(1H-pyrrole-5,2-diyldiazene-2,1-diyl))bis-1,3-thiazole trihydrate"
_symmetry_cell_setting           tetragonal
_symmetry_space_group_name_H-M   'P -4'
_symmetry_Int_Tables_number      81
_space_group_name_Hall           'P -4'
loop_
_symmetry_equiv_pos_site_id
_symmetry_equiv_pos_as_xyz
1 x,y,z
2 -x,-y,z
3 y,-x,-z
4 -y,x,-z
_cell_length_a                   10.717(3)
_cell_length_b                   10.717(3)
_cell_length_c                   10.514(6)
_cell_angle_alpha                90
_cell_angle_beta                 90
_cell_angle_gamma                90
_cell_volume                     1207.58
_exptl_crystal_colour            red
_exptl_crystal_description       block
_cell_formula_units_Z            2
loop_
_atom_site_label
_atom_site_type_symbol
_atom_site_fract_x
_atom_site_fract_y
_atom_site_fract_z
S1 S 0.39843(10) 0.26197(10) 0.49316(13)
N1 N 0.1345(3) 0.4088(3) 0.1017(3)
H1 H 0.0849 0.3450 0.1168
N2 N 0.2911(3) 0.3655(3) 0.2656(3)
N3 N 0.2232(3) 0.2719(3) 0.2992(3)
N4 N 0.2184(3) 0.1083(3) 0.4465(3)
C1 C 0.0000 0.5000 -0.0732(6)
C2 C -0.0014(4) 0.6198(4) -0.1557(4)
H2 H 0.0035 0.6930 -0.0985
H3 H 0.0743 0.6202 -0.2096
C3 C -0.1149(5) 0.6352(5) -0.2413(5)
H4 H -0.1124 0.5724 -0.3090
H5 H -0.1143 0.7188 -0.2791
H6 H -0.1911 0.6243 -0.1910
C4 C 0.1145(3) 0.5004(3) 0.0118(4)
C5 C 0.2149(4) 0.5834(3) 0.0196(4)
H7 H 0.2256 0.6566 -0.0302
C6 C 0.2965(4) 0.5405(3) 0.1128(4)
H8 H 0.3734 0.5780 0.1366
C7 C 0.2455(3) 0.4334(3) 0.1645(4)
C8 C 0.2720(3) 0.2103(4) 0.4051(4)
C9 C 0.2808(4) 0.0663(4) 0.5524(4)
H9 H 0.2559 -0.0073 0.5961
C10 C 0.3784(4) 0.1346(4) 0.5909(5)
H10 H 0.4294 0.1154 0.6621
S1A S -0.39843(10) 0.73803(10) 0.49316(13)
N1A N -0.1345(3) 0.5912(3) 0.1017(3)
H1A H -0.0849 0.6550 0.1168
N2A N -0.2911(3) 0.6345(3) 0.2656(3)
N3A N -0.2232(3) 0.7281(3) 0.2992(3)
N4A N -0.2184(3) 0.8917(3) 0.4465(3)
C2A C 0.0014(4) 0.3802(4) -0.1557(4)
H2A H -0.0035 0.3070 -0.0985
H3A H -0.0743 0.3798 -0.2096
C3A C 0.1149(5) 0.3648(5) -0.2413(5)
H4A H 0.1124 0.4276 -0.3090
H5A H 0.1143 0.2812 -0.2791
H6A H 0.1911 0.3757 -0.1910
C4A C -0.1145(3) 0.4996(3) 0.0118(4)
C5A C -0.2149(4) 0.4166(3) 0.0196(4)
H7A H -0.2256 0.3434 -0.0302
C6A C -0.2965(4) 0.4595(3) 0.1128(4)
H8A H -0.3734 0.4220 0.1366
C7A C -0.2455(3) 0.5666(3) 0.1645(4)
C8A C -0.2720(3) 0.7897(4) 0.4051(4)
C9A C -0.2808(4) 0.9337(4) 0.5524(4)
H9A H -0.2559 1.0073 0.5961
C10A C -0.3784(4) 0.8654(4) 0.5909(5)
H10A H -0.4294 0.8846 0.6621
O1 O 0.0000 0.0000 0.3061(4)
H11 H 0.0437 0.0337 0.3641
H11A H -0.0437 -0.0337 0.3641
O2 O -0.0092(3) 0.8374(3) 0.0926(3)
H12 H 0.0100 0.8862 0.1532
H13 H 0.0306 0.8602 0.0266
loop_
_geom_bond_atom_site_label_1
_geom_bond_atom_site_label_2
_geom_bond_site_symmetry_1
_geom_bond_site_symmetry_2
S1 C8 1_555 1_555
N1 H1 1_555 1_555
N2 N3 1_555 1_555
N3 C8 1_555 1_555
N4 C8 1_555 1_555
C1 C2 1_555 1_555
C2 H2 1_555 1_555
H3 C2 1_555 1_555
C3 C2 1_555 1_555
H4 C3 1_555 1_555
H5 C3 1_555 1_555
H6 C3 1_555 1_555
C4 N1 1_555 1_555
C5 C4 1_555 1_555
H7 C5 1_555 1_555
C6 C5 1_555 1_555
H8 C6 1_555 1_555
C7 N1 1_555 1_555
C9 N4 1_555 1_555
H9 C9 1_555 1_555
C10 S1 1_555 1_555
H10 C10 1_555 1_555
O1 H11 1_555 1_555
O2 H12 1_555 1_555
H13 O2 1_555 1_555
S1A C8A 1_555 1_555
N1A H1A 1_555 1_555
N2A N3A 1_555 1_555
N3A C8A 1_555 1_555
N4A C8A 1_555 1_555
C2A C1 1_555 1_555
H2A C2A 1_555 1_555
H3A C2A 1_555 1_555
C3A C2A 1_555 1_555
H4A C3A 1_555 1_555
H5A C3A 1_555 1_555
H6A C3A 1_555 1_555
C4A C1 1_555 1_555
C5A C4A 1_555 1_555
H7A C5A 1_555 1_555
C6A C5A 1_555 1_555
H8A C6A 1_555 1_555
C7A N1A 1_555 1_555
C9A N4A 1_555 1_555
H9A C9A 1_555 1_555
C10A S1A 1_555 1_555
H10A C10A 1_555 1_555
H11A O1 1_555 1_555
N2 C7 1_555 1_555
C1 C4 1_555 1_555
C6 C7 1_555 1_555
C9 C10 1_555 1_555
N1A C4A 1_555 1_555
N2A C7A 1_555 1_555
C6A C7A 1_555 1_555
C9A C10A 1_555 1_555

#END
