
#######################################################################
#
#                 Cambridge Crystallographic Data Centre
#                                CCDC 
#
#######################################################################
#
# If this CIF has been generated from an entry in the Cambridge 
# Structural Database, then it will include bibliographic, chemical, 
# crystal, experimental, refinement or atomic coordinate data resulting 
# from the CCDC's data processing and validation procedures.
#
#######################################################################

data_ROWDEO
_chemical_formula_moiety         'C16 H17 Cl1 N1 O4 P1 S1'
_chemical_name_systematic        
'(2R,4R)-6-Chloro-2,4-dimethyl-3-((4-methylphenyl)sulfonyl)-3,4-dihydro-2H-1,3,2-benzoxazaphosphinine 2-oxide'
_symmetry_cell_setting           orthorhombic
_symmetry_space_group_name_H-M   'P 21 21 21'
_symmetry_Int_Tables_number      19
_space_group_name_Hall           'P 2ac 2ab'
loop_
_symmetry_equiv_pos_site_id
_symmetry_equiv_pos_as_xyz
1 x,y,z
2 1/2-x,-y,1/2+z
3 -x,1/2+y,1/2-z
4 1/2+x,1/2-y,-z
_cell_length_a                   6.8821(3)
_cell_length_b                   13.3618(7)
_cell_length_c                   19.0821(9)
_cell_angle_alpha                90
_cell_angle_beta                 90
_cell_angle_gamma                90
_cell_volume                     1754.74
_exptl_crystal_colour            colorless
_exptl_crystal_description       blocks
_cell_formula_units_Z            4
loop_
_atom_site_label
_atom_site_type_symbol
_atom_site_fract_x
_atom_site_fract_y
_atom_site_fract_z
S1 S 0.36067(6) 0.42388(3) 0.226591(19)
P1 P 0.08004(6) 0.56347(3) 0.16611(2)
Cl1 Cl 0.69194(6) 0.58769(3) -0.11385(2)
O1 O 0.12071(15) 0.65134(8) 0.11075(6)
N1 N 0.31043(18) 0.52399(9) 0.17945(7)
O2 O 0.18196(19) 0.39603(10) 0.25991(6)
C1 C 0.4242(2) 0.33154(12) 0.16522(8)
C2 C 0.2018(3) 0.65822(13) -0.01224(9)
C3 C 0.4785(2) 0.58058(12) 0.14981(8)
C4 C 0.5727(2) 0.58453(12) 0.02100(8)
O3 O 0.52882(19) 0.44611(10) 0.26767(6)
C5 C 0.3391(3) 0.64323(13) -0.06460(8)
O4 O -0.05506(17) 0.48667(10) 0.14126(6)
C6 C 0.6638(3) 0.23890(14) 0.10268(10)
C7 C 0.2535(2) 0.63614(11) 0.05619(8)
C8 C 0.4367(2) 0.60011(11) 0.07355(8)
C9 C 0.6184(3) 0.31422(13) 0.15013(9)
C10 C 0.5217(2) 0.60666(12) -0.04777(9)
C11 C 0.2771(3) 0.27652(14) 0.13325(9)
C12 C 0.5154(3) 0.67680(14) 0.19070(9)
C13 C 0.3270(3) 0.20124(15) 0.08675(10)
C14 C 0.0061(3) 0.63014(16) 0.24231(9)
H1 H -0.0959 0.6781 0.2298
H2 H 0.1176 0.6661 0.2619
H3 H -0.0441 0.5829 0.2772
C15 C 0.5209(3) 0.18067(14) 0.07111(9)
C16 C 0.5707(4) 0.09586(16) 0.02251(12)
H4 H 0.7110 0.0956 0.0137
H5 H 0.5012 0.1045 -0.0219
H6 H 0.5325 0.0323 0.0440
H7 H 0.077(3) 0.6836(15) -0.0233(10)
H8 H 0.582(3) 0.5318(13) 0.1514(9)
H9 H 0.630(3) 0.7128(17) 0.1743(11)
H10 H 0.306(3) 0.6555(15) -0.1112(10)
H11 H 0.701(3) 0.5588(14) 0.0315(10)
H12 H 0.398(3) 0.7216(16) 0.1852(11)
H13 H 0.536(3) 0.6582(16) 0.2389(11)
H14 H 0.716(3) 0.3560(16) 0.1678(11)
H15 H 0.143(3) 0.2920(16) 0.1423(11)
H16 H 0.798(4) 0.2257(17) 0.0927(11)
H17 H 0.236(3) 0.1707(16) 0.0659(11)
loop_
_geom_bond_atom_site_label_1
_geom_bond_atom_site_label_2
_geom_bond_site_symmetry_1
_geom_bond_site_symmetry_2
S1 N1 1_555 1_555
P1 O1 1_555 1_555
Cl1 C10 1_555 1_555
O1 C7 1_555 1_555
N1 P1 1_555 1_555
O2 S1 1_555 1_555
C1 S1 1_555 1_555
C2 C5 1_555 1_555
C3 N1 1_555 1_555
C4 C8 1_555 1_555
O3 S1 1_555 1_555
C5 C10 1_555 1_555
O4 P1 1_555 1_555
C6 C9 1_555 1_555
C7 C2 1_555 1_555
C8 C3 1_555 1_555
C9 C1 1_555 1_555
C10 C4 1_555 1_555
C11 C1 1_555 1_555
C12 C3 1_555 1_555
C13 C11 1_555 1_555
C14 P1 1_555 1_555
H1 C14 1_555 1_555
H2 C14 1_555 1_555
H3 C14 1_555 1_555
C15 C6 1_555 1_555
C16 C15 1_555 1_555
H4 C16 1_555 1_555
H5 C16 1_555 1_555
H6 C16 1_555 1_555
H7 C2 1_555 1_555
H8 C3 1_555 1_555
H9 C12 1_555 1_555
H10 C5 1_555 1_555
H11 C4 1_555 1_555
H12 C12 1_555 1_555
H13 C12 1_555 1_555
H14 C9 1_555 1_555
H15 C11 1_555 1_555
H16 C6 1_555 1_555
H17 C13 1_555 1_555
C7 C8 1_555 1_555
C13 C15 1_555 1_555

#END
