
#######################################################################
#
#                 Cambridge Crystallographic Data Centre
#                                CCDC 
#
#######################################################################
#
# If this CIF has been generated from an entry in the Cambridge 
# Structural Database, then it will include bibliographic, chemical, 
# crystal, experimental, refinement or atomic coordinate data resulting 
# from the CCDC's data processing and validation procedures.
#
#######################################################################

data_ROWFOA
_chemical_formula_moiety         'C27 H23 N1 O6'
_chemical_name_systematic        
'dimethyl 9-oxo-3-phenyl-2-(2-phenylvinyl)-1-oxa-3-azaspiro[5.5]undeca-4,7,10-triene-4,5-dicarboxylate'
_symmetry_cell_setting           triclinic
_symmetry_space_group_name_H-M   'P -1'
_symmetry_Int_Tables_number      2
_space_group_name_Hall           '-P 1'
loop_
_symmetry_equiv_pos_site_id
_symmetry_equiv_pos_as_xyz
1 x,y,z
2 -x,-y,-z
_cell_length_a                   10.8084(13)
_cell_length_b                   11.4519(14)
_cell_length_c                   11.9097(13)
_cell_angle_alpha                99.887(4)
_cell_angle_beta                 112.382(3)
_cell_angle_gamma                110.811(4)
_cell_volume                     1191.08
_exptl_crystal_colour            colorless
_exptl_crystal_description       block
_cell_formula_units_Z            2
loop_
_atom_site_label
_atom_site_type_symbol
_atom_site_fract_x
_atom_site_fract_y
_atom_site_fract_z
C1 C -0.04278(19) -0.07150(15) 0.10446(15)
H1 H 0.0471 -0.0568 0.1035
C2 C -0.1604(2) -0.19919(16) 0.04637(17)
H2 H -0.1499 -0.2694 0.0059
C3 C -0.2916(2) -0.22266(17) 0.04822(18)
H3 H -0.3718 -0.3086 0.0081
C4 C -0.3055(2) -0.11879(19) 0.1097(2)
H4 H -0.3944 -0.1349 0.1129
C5 C -0.1881(2) 0.00935(17) 0.16679(19)
H5 H -0.1991 0.0790 0.2076
C6 C -0.05502(17) 0.03539(14) 0.16413(14)
C7 C 0.07087(17) 0.17064(14) 0.21764(14)
H6 H 0.1597 0.1765 0.2193
C8 C 0.07208(17) 0.28429(14) 0.26346(14)
H7 H -0.0112 0.2821 0.2710
C9 C 0.20199(17) 0.41626(13) 0.30366(14)
H8 H 0.2813 0.4026 0.2916
C10 C 0.23096(17) 0.45610(15) 0.52969(14)
C11 C 0.2594(2) 0.35307(17) 0.55696(17)
H9 H 0.3031 0.3169 0.5169
C12 C 0.2229(3) 0.3043(2) 0.6435(2)
H10 H 0.2422 0.2351 0.6623
C13 C 0.1579(3) 0.3572(2) 0.7025(2)
H11 H 0.1315 0.3225 0.7598
C14 C 0.1319(2) 0.4607(2) 0.6773(2)
H12 H 0.0894 0.4973 0.7185
C15 C 0.16859(19) 0.51077(17) 0.59100(16)
H13 H 0.1513 0.5814 0.5741
C16 C 0.36166(16) 0.63490(14) 0.46655(14)
C17 C 0.37538(16) 0.68307(13) 0.37297(14)
C18 C 0.45602(17) 0.71562(14) 0.61077(15)
C19 C 0.5008(3) 0.89000(19) 0.78147(17)
H14 H 0.4719 0.8370 0.8299
H15 H 0.4779 0.9634 0.7936
H16 H 0.6071 0.9238 0.8114
C20 C 0.49605(17) 0.81206(14) 0.39971(16)
C21 C 0.7259(2) 1.00100(17) 0.5575(2)
H17 H 0.7785 0.9924 0.5099
H18 H 0.7946 1.0360 0.6490
H19 H 0.6846 1.0606 0.5359
C22 C 0.26051(16) 0.60120(13) 0.22942(14)
C23 C 0.17423(17) 0.67274(15) 0.17246(15)
H20 H 0.1162 0.6897 0.2076
C24 C 0.17582(18) 0.71296(16) 0.07549(17)
H21 H 0.1192 0.7564 0.0446
C25 C 0.26422(19) 0.69085(17) 0.01602(17)
C26 C 0.33249(19) 0.60520(16) 0.05519(17)
H22 H 0.3772 0.5781 0.0101
C27 C 0.33249(17) 0.56522(14) 0.15288(15)
H23 H 0.3793 0.5123 0.1751
N1 N 0.26590(14) 0.50479(11) 0.43747(12)
O1 O 0.28025(17) 0.74052(16) -0.06357(15)
O2 O 0.14521(11) 0.48012(9) 0.21907(9)
O3 O 0.54927(13) 0.69285(11) 0.68339(11)
O4 O 0.41790(13) 0.80790(10) 0.64408(10)
O5 O 0.60509(13) 0.87128(11) 0.52402(11)
O6 O 0.50370(15) 0.85965(12) 0.31883(13)
loop_
_geom_bond_atom_site_label_1
_geom_bond_atom_site_label_2
_geom_bond_site_symmetry_1
_geom_bond_site_symmetry_2
C1 H1 1_555 1_555
C2 C1 1_555 1_555
H2 C2 1_555 1_555
C3 C2 1_555 1_555
H3 C3 1_555 1_555
C4 C3 1_555 1_555
H4 C4 1_555 1_555
C5 C4 1_555 1_555
H5 C5 1_555 1_555
C6 C1 1_555 1_555
C7 C6 1_555 1_555
H6 C7 1_555 1_555
C8 C7 1_555 1_555
H7 C8 1_555 1_555
C9 C8 1_555 1_555
H8 C9 1_555 1_555
C10 C11 1_555 1_555
C11 H9 1_555 1_555
C12 C11 1_555 1_555
H10 C12 1_555 1_555
C13 C12 1_555 1_555
H11 C13 1_555 1_555
C14 C13 1_555 1_555
H12 C14 1_555 1_555
C15 C10 1_555 1_555
H13 C15 1_555 1_555
C16 C17 1_555 1_555
C17 C20 1_555 1_555
C18 C16 1_555 1_555
C19 H14 1_555 1_555
H15 C19 1_555 1_555
H16 C19 1_555 1_555
C20 O5 1_555 1_555
C21 H17 1_555 1_555
H18 C21 1_555 1_555
H19 C21 1_555 1_555
C22 C17 1_555 1_555
C23 C22 1_555 1_555
H20 C23 1_555 1_555
C24 C23 1_555 1_555
H21 C24 1_555 1_555
C25 C24 1_555 1_555
C26 C25 1_555 1_555
H22 C26 1_555 1_555
C27 C22 1_555 1_555
H23 C27 1_555 1_555
N1 C9 1_555 1_555
O1 C25 1_555 1_555
O2 C9 1_555 1_555
O3 C18 1_555 1_555
O4 C18 1_555 1_555
O5 C21 1_555 1_555
O6 C20 1_555 1_555
C5 C6 1_555 1_555
C10 N1 1_555 1_555
C14 C15 1_555 1_555
C16 N1 1_555 1_555
C19 O4 1_555 1_555
C22 O2 1_555 1_555
C26 C27 1_555 1_555

#END
