
#######################################################################
#
#                 Cambridge Crystallographic Data Centre
#                                CCDC 
#
#######################################################################
#
# If this CIF has been generated from an entry in the Cambridge 
# Structural Database, then it will include bibliographic, chemical, 
# crystal, experimental, refinement or atomic coordinate data resulting 
# from the CCDC's data processing and validation procedures.
#
#######################################################################

data_ROXCAK
_chemical_name_common            
13-(2-Aminobenzyl)-5,6,11,12-tetrahydro-6,12-epiminodibenzo-[b,f][1,5]diazocine
_chemical_formula_moiety         'C21 H20 N4'
_chemical_name_systematic        
2-(8,16,17-Triazatetracyclo[7.7.1.0^2,7^.0^10,15^]heptadeca-2,4,6,10,12,14-hexaen-17-ylmethyl)aniline
_symmetry_cell_setting           monoclinic
_symmetry_space_group_name_H-M   'C c'
_symmetry_Int_Tables_number      9
_space_group_name_Hall           'C -2yc'
loop_
_symmetry_equiv_pos_site_id
_symmetry_equiv_pos_as_xyz
1 x,y,z
2 x,-y,1/2+z
3 1/2+x,1/2+y,z
4 1/2+x,1/2-y,1/2+z
_cell_length_a                   6.9400(5)
_cell_length_b                   32.943(2)
_cell_length_c                   7.1977(6)
_cell_angle_alpha                90
_cell_angle_beta                 92.225(2)
_cell_angle_gamma                90
_cell_volume                     1644.33
_exptl_crystal_colour            bronze
_exptl_crystal_description       Block
_chemical_melting_point          '164-166 deg.C'
_cell_formula_units_Z            4
loop_
_atom_site_label
_atom_site_type_symbol
_atom_site_fract_x
_atom_site_fract_y
_atom_site_fract_z
N1 N 0.50992(19) 0.67198(4) 0.27041(19)
N2 N 0.42099(19) 0.64920(4) 0.56534(18)
N3 N 0.7070(2) 0.68059(5) 0.8651(2)
C1 C 0.3323(2) 0.69098(5) 0.2412(2)
C2 C 0.3023(2) 0.71905(5) 0.0966(2)
H1 H 0.4031 0.7247 0.0150
C3 C 0.1257(3) 0.73869(5) 0.0720(2)
H2 H 0.1067 0.7576 -0.0266
C4 C -0.0238(2) 0.73081(5) 0.1912(2)
H3 H -0.1444 0.7442 0.1744
C5 C 0.0065(2) 0.70297(5) 0.3353(2)
H4 H -0.0950 0.6973 0.4162
C6 C 0.1829(2) 0.68333(5) 0.3626(2)
C7 C 0.2128(2) 0.65292(5) 0.5188(2)
H5 H 0.1478 0.6635 0.6306
N4 N 0.1238(2) 0.61391(4) 0.4658(2)
C8 C 0.2364(2) 0.58701(5) 0.3670(2)
C9 C 0.1660(3) 0.54826(5) 0.3189(2)
H6 H 0.0433 0.5399 0.3587
C10 C 0.2745(3) 0.52231(5) 0.2139(3)
H7 H 0.2258 0.4961 0.1825
C11 C 0.4545(3) 0.53411(5) 0.1536(2)
H8 H 0.5257 0.5167 0.0765
C12 C 0.5285(3) 0.57167(5) 0.2079(2)
H9 H 0.6533 0.5794 0.1713
C13 C 0.4223(2) 0.59825(5) 0.3155(2)
C14 C 0.5148(2) 0.63677(5) 0.3947(2)
H10 H 0.6529 0.6306 0.4282
C15 C 0.4503(2) 0.61991(5) 0.7197(2)
H11 H 0.3850 0.5942 0.6843
H12 H 0.3869 0.6307 0.8303
C16 C 0.6574(2) 0.61079(5) 0.7727(2)
C17 C 0.7777(2) 0.64122(5) 0.8514(2)
C18 C 0.9605(2) 0.63060(5) 0.9266(2)
H13 H 1.0411 0.6508 0.9830
C19 C 1.0237(2) 0.59085(6) 0.9190(2)
H14 H 1.1473 0.5840 0.9712
C20 C 0.9089(3) 0.56083(5) 0.8361(3)
H15 H 0.9541 0.5337 0.8287
C21 C 0.7263(3) 0.57123(5) 0.7641(2)
H16 H 0.6470 0.5508 0.7078
H17 H 0.620(4) 0.6877(8) 0.780(4)
H18 H 0.798(4) 0.6982(8) 0.892(3)
H19 H 0.584(3) 0.6707(6) 0.176(3)
H20 H 0.059(4) 0.6031(8) 0.551(4)
loop_
_geom_bond_atom_site_label_1
_geom_bond_atom_site_label_2
_geom_bond_site_symmetry_1
_geom_bond_site_symmetry_2
N1 C1 1_555 1_555
N2 C7 1_555 1_555
N3 C17 1_555 1_555
C1 C2 1_555 1_555
C2 H1 1_555 1_555
C3 C2 1_555 1_555
H2 C3 1_555 1_555
C4 C3 1_555 1_555
H3 C4 1_555 1_555
C5 C4 1_555 1_555
H4 C5 1_555 1_555
C6 C1 1_555 1_555
C7 C6 1_555 1_555
H5 C7 1_555 1_555
N4 C7 1_555 1_555
C8 N4 1_555 1_555
C9 C8 1_555 1_555
H6 C9 1_555 1_555
C10 C9 1_555 1_555
H7 C10 1_555 1_555
C11 C10 1_555 1_555
H8 C11 1_555 1_555
C12 C11 1_555 1_555
H9 C12 1_555 1_555
C13 C8 1_555 1_555
C14 N1 1_555 1_555
H10 C14 1_555 1_555
C15 N2 1_555 1_555
H11 C15 1_555 1_555
H12 C15 1_555 1_555
C16 C15 1_555 1_555
C17 C16 1_555 1_555
C18 C17 1_555 1_555
H13 C18 1_555 1_555
C19 C18 1_555 1_555
H14 C19 1_555 1_555
C20 C19 1_555 1_555
H15 C20 1_555 1_555
C21 C16 1_555 1_555
H16 C21 1_555 1_555
H17 N3 1_555 1_555
H18 N3 1_555 1_555
H19 N1 1_555 1_555
H20 N4 1_555 1_555
N2 C14 1_555 1_555
C5 C6 1_555 1_555
C12 C13 1_555 1_555
C13 C14 1_555 1_555
C20 C21 1_555 1_555

#END
