
#######################################################################
#
#                 Cambridge Crystallographic Data Centre
#                                CCDC 
#
#######################################################################
#
# If this CIF has been generated from an entry in the Cambridge 
# Structural Database, then it will include bibliographic, chemical, 
# crystal, experimental, refinement or atomic coordinate data resulting 
# from the CCDC's data processing and validation procedures.
#
#######################################################################

data_ROXHOD
_chemical_formula_moiety         
'C42 H63 Mg1 O3 1-,C24 H48 Cl3 Mg2 O6 1+,2(C4 H8 O1)'
_chemical_name_systematic        
'tris(\m~2~-Chloro)-hexakis(tetrahydrofuran)-di-magnesium tris(2,6-di-t-butylphenolato)-magnesium tetrahydrofuran solvate'
_symmetry_cell_setting           triclinic
_symmetry_space_group_name_H-M   'P -1'
_symmetry_Int_Tables_number      2
_space_group_name_Hall           '-P 1'
loop_
_symmetry_equiv_pos_site_id
_symmetry_equiv_pos_as_xyz
1 x,y,z
2 -x,-y,-z
_cell_length_a                   14.3956(4)
_cell_length_b                   15.2219(4)
_cell_length_c                   18.5435(5)
_cell_angle_alpha                88.650(2)
_cell_angle_beta                 74.4520(10)
_cell_angle_gamma                85.197(2)
_cell_volume                     3900.96
_exptl_crystal_colour            colorless
_exptl_crystal_description       block
_cell_formula_units_Z            2
_chemical_properties_physical    'Air-sensitive, Moisture-sensitive'
_exptl_crystal_recrystallization_method tetrahydrofuran/hexane
loop_
_atom_site_label
_atom_site_type_symbol
_atom_site_fract_x
_atom_site_fract_y
_atom_site_fract_z
Cl1 Cl 0.13356(9) 0.85259(7) 0.20340(7)
Cl2 Cl -0.03664(8) 1.02050(8) 0.23038(7)
Cl3 Cl 0.11096(9) 0.99415(8) 0.34662(7)
Mg1 Mg 0.14439(11) 1.01466(10) 0.20795(9)
Mg2 Mg -0.00468(11) 0.89603(10) 0.31300(9)
O1 O 0.1419(2) 1.15055(19) 0.22036(18)
O2 O 0.1590(2) 1.03361(19) 0.09337(17)
O3 O 0.2960(2) 0.9952(2) 0.18561(18)
O4 O 0.0305(2) 0.8014(2) 0.38638(17)
O5 O -0.1276(2) 0.9400(2) 0.39696(18)
O6 O -0.0882(2) 0.8116(2) 0.27646(17)
C1 C 0.3427(4) 0.9221(3) 0.2193(3)
H1 H 0.2943 0.8842 0.2500
H2 H 0.3812 0.9441 0.2510
C2 C 0.1277(4) 0.7541(3) 0.3705(3)
H3 H 0.1783 0.7958 0.3532
H4 H 0.1353 0.7092 0.3311
C3 C -0.0965(4) 0.8113(4) 0.1995(3)
H5 H -0.0386 0.8336 0.1644
H6 H -0.1546 0.8483 0.1950
C4 C 0.3689(3) 1.0242(3) 0.1221(3)
H7 H 0.3981 1.0759 0.1357
H8 H 0.3402 1.0409 0.0804
C5 C 0.1709(5) 0.9633(3) 0.0398(3)
H9 H 0.1153 0.9264 0.0534
H10 H 0.2310 0.9254 0.0372
C6 C 0.1151(4) 1.1129(3) 0.0657(3)
H11 H 0.1569 1.1623 0.0613
H12 H 0.0511 1.1307 0.1000
C7 C 0.2267(4) 1.1995(3) 0.2101(4)
H13 H 0.2614 1.2030 0.1564
H14 H 0.2715 1.1709 0.2375
C8 C -0.1245(5) 0.7316(4) 0.3131(3)
H15 H -0.1764 0.7457 0.3594
H16 H -0.0718 0.6942 0.3265
C9 C 0.1360(4) 0.7106(4) 0.4430(3)
H17 H 0.1657 0.6494 0.4341
H18 H 0.1751 0.7442 0.4674
C10 C 0.4063(4) 0.8732(3) 0.1530(3)
H19 H 0.3689 0.8348 0.1309
H20 H 0.4595 0.8368 0.1664
C11 C -0.1048(4) 0.7167(4) 0.1838(3)
H21 H -0.0403 0.6838 0.1681
H22 H -0.1390 0.7111 0.1446
C12 C 0.0334(4) 0.7118(5) 0.4896(3)
H23 H 0.0032 0.6587 0.4802
H24 H 0.0299 0.7146 0.5435
C13 C 0.0586(4) 1.2043(4) 0.2634(4)
H25 H 0.0217 1.1710 0.3067
H26 H 0.0152 1.2246 0.2320
C14 C 0.4448(4) 0.9474(4) 0.0995(3)
H27 H 0.5080 0.9628 0.1050
H28 H 0.4526 0.9302 0.0469
C15 C -0.0145(4) 0.7921(5) 0.4654(3)
H29 H -0.0847 0.7862 0.4744
H30 H -0.0056 0.8441 0.4932
C16 C 0.1048(4) 1.0887(4) -0.0105(3)
H31 H 0.0381 1.0740 -0.0071
H32 H 0.1213 1.1376 -0.0466
C17 C -0.1283(5) 0.9938(5) 0.4593(4)
H33 H -0.1564 0.9630 0.5068
H34 H -0.0615 1.0063 0.4580
C18 C -0.1629(4) 0.6848(4) 0.2586(3)
H35 H -0.2329 0.7011 0.2661
H36 H -0.1523 0.6200 0.2633
C19 C 0.1760(5) 1.0091(4) -0.0333(3)
H37 H 0.1564 0.9712 -0.0684
H38 H 0.2420 1.0268 -0.0568
C20 C 0.1897(5) 1.2882(4) 0.2406(5)
H39 H 0.2339 1.3107 0.2673
H40 H 0.1847 1.3297 0.1997
C21 C -0.1850(7) 1.0737(5) 0.4545(5)
H41 H -0.1442 1.1188 0.4260
H42 H -0.2184 1.0971 0.5050
C22 C -0.2223(4) 0.9564(4) 0.3841(4)
H43 H -0.2664 0.9127 0.4112
H44 H -0.2180 0.9530 0.3301
C23 C -0.2580(5) 1.0486(5) 0.4138(4)
H45 H -0.3236 1.0490 0.4485
H46 H -0.2600 1.0900 0.3722
C24 C 0.1002(6) 1.2804(5) 0.2890(6)
H47 H 0.0580 1.3351 0.2887
H48 H 0.1060 1.2701 0.3406
Mg3 Mg 0.49708(11) 0.50340(9) 0.25017(8)
O7 O 0.5786(2) 0.40092(19) 0.23485(16)
O8 O 0.3645(2) 0.49624(19) 0.27835(16)
O9 O 0.5468(2) 0.61235(19) 0.23955(16)
C25 C 0.6384(3) 0.3284(3) 0.2220(2)
C26 C 0.5775(3) 0.6935(3) 0.2274(2)
C27 C 0.6371(3) 0.2687(3) 0.1640(2)
C28 C 0.2240(3) 0.4660(3) 0.3754(2)
C29 C 0.6312(3) 0.7188(3) 0.1548(2)
C30 C 0.7204(3) 0.5742(3) 0.1012(3)
H49 H 0.7309 0.5326 0.0597
H50 H 0.6891 0.5455 0.1483
H51 H 0.7828 0.5931 0.1040
C31 C 0.2685(3) 0.4990(3) 0.3033(2)
C32 C 0.2098(3) 0.5349(3) 0.2558(3)
C33 C 0.2546(3) 0.5701(3) 0.1781(2)
C34 C 0.4969(3) 0.7323(3) 0.3671(3)
C35 C 0.5554(3) 0.7549(3) 0.2873(2)
C36 C 0.6554(3) 0.6552(3) 0.0880(2)
C37 C 0.7657(3) 0.2315(3) 0.2518(3)
H52 H 0.8098 0.2183 0.2813
C38 C 0.7363(3) 0.4614(3) 0.3015(3)
H53 H 0.7980 0.4554 0.2628
H54 H 0.7430 0.4973 0.3427
H55 H 0.6862 0.4900 0.2800
C39 C 0.6616(3) 0.8034(3) 0.1447(3)
H56 H 0.6976 0.8203 0.0963
C40 C 0.1229(3) 0.4709(3) 0.3994(3)
H57 H 0.0926 0.4501 0.4480
C41 C 0.7037(3) 0.3083(3) 0.2671(2)
C42 C 0.0659(3) 0.5052(3) 0.3547(3)
H58 H -0.0026 0.5076 0.3724
C43 C 0.5674(3) 0.2868(3) 0.1142(3)
C44 C 0.5807(4) 0.2144(3) 0.0546(3)
H59 H 0.5361 0.2287 0.0236
H60 H 0.5671 0.1576 0.0795
H61 H 0.6474 0.2109 0.0230
C45 C 0.5889(4) 0.8387(3) 0.2733(3)
H62 H 0.5755 0.8797 0.3134
C46 C 0.7073(3) 0.3693(3) 0.3313(3)
C47 C 0.2841(4) 0.4232(3) 0.4261(3)
C48 C 0.5891(4) 0.3734(3) 0.0711(3)
H63 H 0.5842 0.4214 0.1066
H64 H 0.5423 0.3868 0.0417
H65 H 0.6547 0.3674 0.0374
C49 C 0.7094(4) 0.6983(3) 0.0148(3)
H66 H 0.6693 0.7493 0.0036
H67 H 0.7229 0.6555 -0.0261
H68 H 0.7704 0.7177 0.0202
C50 C 0.4618(3) 0.2893(3) 0.1607(3)
H69 H 0.4503 0.3336 0.2003
H70 H 0.4484 0.2313 0.1833
H71 H 0.4191 0.3046 0.1283
C51 C 0.6086(3) 0.3759(3) 0.3902(3)
H72 H 0.5577 0.3958 0.3660
H73 H 0.6095 0.4181 0.4290
H74 H 0.5957 0.3178 0.4129
C52 C 0.3209(4) 0.4989(3) 0.1281(3)
H75 H 0.3702 0.4748 0.1524
H76 H 0.3525 0.5247 0.0798
H77 H 0.2825 0.4515 0.1203
C53 C 0.5624(3) 0.6245(3) 0.0735(3)
H78 H 0.5218 0.6759 0.0638
H79 H 0.5267 0.5929 0.1176
H80 H 0.5797 0.5852 0.0300
C54 C 0.3456(4) 0.3423(3) 0.3883(3)
H81 H 0.3034 0.2981 0.3808
H82 H 0.3859 0.3176 0.4200
H83 H 0.3872 0.3592 0.3397
C55 C 0.5473(4) 0.6524(3) 0.3980(3)
H84 H 0.5550 0.6019 0.3644
H85 H 0.5079 0.6374 0.4479
H86 H 0.6110 0.6670 0.4013
C56 C 0.7819(4) 0.3341(3) 0.3725(3)
H87 H 0.7664 0.2756 0.3930
H88 H 0.7805 0.3743 0.4134
H89 H 0.8466 0.3300 0.3375
C57 C 0.6414(4) 0.8641(3) 0.2025(3)
H90 H 0.6630 0.9217 0.1940
C58 C 0.7653(4) 0.1742(3) 0.1955(3)
H91 H 0.8086 0.1226 0.1863
C59 C 0.1095(3) 0.5357(3) 0.2843(3)
H92 H 0.0697 0.5582 0.2536
C60 C 0.7015(4) 0.1929(3) 0.1529(3)
H93 H 0.7010 0.1528 0.1145
C61 C 0.3937(3) 0.7137(3) 0.3663(3)
H94 H 0.3624 0.7658 0.3477
H95 H 0.3563 0.7001 0.4172
H96 H 0.3966 0.6634 0.3335
C62 C 0.1776(4) 0.6037(4) 0.1376(3)
H97 H 0.1395 0.5551 0.1319
H98 H 0.2097 0.6264 0.0881
H99 H 0.1347 0.6509 0.1671
C63 C 0.4856(4) 0.8087(4) 0.4222(3)
H100 H 0.5496 0.8240 0.4241
H101 H 0.4489 0.7908 0.4721
H102 H 0.4509 0.8600 0.4055
C64 C 0.3482(4) 0.4897(3) 0.4462(3)
H103 H 0.3917 0.5112 0.4002
H104 H 0.3865 0.4607 0.4777
H105 H 0.3072 0.5395 0.4734
C65 C 0.3114(3) 0.6510(3) 0.1821(3)
H106 H 0.2667 0.6990 0.2088
H107 H 0.3428 0.6704 0.1313
H108 H 0.3606 0.6348 0.2088
C66 C 0.2196(4) 0.3932(4) 0.5018(3)
H109 H 0.1779 0.4438 0.5270
H110 H 0.2605 0.3690 0.5332
H111 H 0.1795 0.3478 0.4930
C67 C 0.3608(6) 0.0811(6) 0.3691(6)
H112 H 0.3044 0.1253 0.3786
H113 H 0.3369 0.0216 0.3723
O10 O 0.4240(8) 0.0945(5) 0.2969(4)
C68 C 0.4127(10) 0.0896(8) 0.4223(5)
H114 H 0.3845 0.1408 0.4552
H115 H 0.4100 0.0359 0.4537
C69 C 0.5164(9) 0.1063(8) 0.3103(9)
H116 H 0.5654 0.0599 0.2843
H117 H 0.5383 0.1644 0.2911
C70 C 0.5056(10) 0.1013(14) 0.3846(11)
H118 H 0.5250 0.1562 0.4020
H119 H 0.5486 0.0515 0.3955
O11 O 0.0360(3) 0.3041(3) 0.0263(3)
C71 C -0.0559(5) 0.4114(6) 0.1093(4)
H120 H -0.0655 0.4766 0.1087
H121 H -0.0681 0.3907 0.1618
C72 C -0.1201(5) 0.3701(5) 0.0691(5)
H122 H -0.1806 0.3538 0.1049
H123 H -0.1365 0.4110 0.0312
C73 C 0.0404(5) 0.3804(6) 0.0653(5)
H124 H 0.0680 0.4267 0.0295
H125 H 0.0832 0.3676 0.0988
C74 C -0.0607(5) 0.2905(5) 0.0329(5)
H126 H -0.0791 0.2376 0.0638
H127 H -0.0707 0.2816 -0.0171
loop_
_geom_bond_atom_site_label_1
_geom_bond_atom_site_label_2
_geom_bond_site_symmetry_1
_geom_bond_site_symmetry_2
Cl1 Mg1 1_555 1_555
Cl2 Mg1 1_555 1_555
Cl3 Mg1 1_555 1_555
Mg1 O1 1_555 1_555
Mg2 Cl1 1_555 1_555
O1 C7 1_555 1_555
O2 Mg1 1_555 1_555
O3 Mg1 1_555 1_555
O4 Mg2 1_555 1_555
O5 Mg2 1_555 1_555
O6 Mg2 1_555 1_555
C1 O3 1_555 1_555
H1 C1 1_555 1_555
H2 C1 1_555 1_555
C2 O4 1_555 1_555
H3 C2 1_555 1_555
H4 C2 1_555 1_555
C3 O6 1_555 1_555
H5 C3 1_555 1_555
H6 C3 1_555 1_555
C4 O3 1_555 1_555
H7 C4 1_555 1_555
H8 C4 1_555 1_555
C5 O2 1_555 1_555
H9 C5 1_555 1_555
H10 C5 1_555 1_555
C6 O2 1_555 1_555
H11 C6 1_555 1_555
H12 C6 1_555 1_555
C7 H13 1_555 1_555
H14 C7 1_555 1_555
C8 O6 1_555 1_555
H15 C8 1_555 1_555
H16 C8 1_555 1_555
C9 C2 1_555 1_555
H17 C9 1_555 1_555
H18 C9 1_555 1_555
C10 C1 1_555 1_555
H19 C10 1_555 1_555
H20 C10 1_555 1_555
C11 C3 1_555 1_555
H21 C11 1_555 1_555
H22 C11 1_555 1_555
C12 C9 1_555 1_555
H23 C12 1_555 1_555
H24 C12 1_555 1_555
C13 O1 1_555 1_555
H25 C13 1_555 1_555
H26 C13 1_555 1_555
C14 C4 1_555 1_555
H27 C14 1_555 1_555
H28 C14 1_555 1_555
C15 O4 1_555 1_555
H29 C15 1_555 1_555
H30 C15 1_555 1_555
C16 C6 1_555 1_555
H31 C16 1_555 1_555
H32 C16 1_555 1_555
C17 O5 1_555 1_555
H33 C17 1_555 1_555
H34 C17 1_555 1_555
C18 C8 1_555 1_555
H35 C18 1_555 1_555
H36 C18 1_555 1_555
C19 C5 1_555 1_555
H37 C19 1_555 1_555
H38 C19 1_555 1_555
C20 C7 1_555 1_555
H39 C20 1_555 1_555
H40 C20 1_555 1_555
C21 C17 1_555 1_555
H41 C21 1_555 1_555
H42 C21 1_555 1_555
C22 O5 1_555 1_555
H43 C22 1_555 1_555
H44 C22 1_555 1_555
C23 C21 1_555 1_555
H45 C23 1_555 1_555
H46 C23 1_555 1_555
C24 C13 1_555 1_555
H47 C24 1_555 1_555
H48 C24 1_555 1_555
Mg3 O7 1_555 1_555
O7 C25 1_555 1_555
O8 Mg3 1_555 1_555
O9 Mg3 1_555 1_555
C25 C27 1_555 1_555
C26 O9 1_555 1_555
C27 C43 1_555 1_555
C28 C31 1_555 1_555
C29 C26 1_555 1_555
C30 H49 1_555 1_555
H50 C30 1_555 1_555
H51 C30 1_555 1_555
C31 O8 1_555 1_555
C32 C31 1_555 1_555
C33 C32 1_555 1_555
C34 C35 1_555 1_555
C35 C26 1_555 1_555
C36 C29 1_555 1_555
C37 H52 1_555 1_555
C38 H53 1_555 1_555
H54 C38 1_555 1_555
H55 C38 1_555 1_555
C39 C29 1_555 1_555
H56 C39 1_555 1_555
C40 C28 1_555 1_555
H57 C40 1_555 1_555
C41 C25 1_555 1_555
C42 C40 1_555 1_555
H58 C42 1_555 1_555
C43 C44 1_555 1_555
C44 H59 1_555 1_555
H60 C44 1_555 1_555
H61 C44 1_555 1_555
C45 C35 1_555 1_555
H62 C45 1_555 1_555
C46 C38 1_555 1_555
C47 C28 1_555 1_555
C48 C43 1_555 1_555
H63 C48 1_555 1_555
H64 C48 1_555 1_555
H65 C48 1_555 1_555
C49 C36 1_555 1_555
H66 C49 1_555 1_555
H67 C49 1_555 1_555
H68 C49 1_555 1_555
C50 C43 1_555 1_555
H69 C50 1_555 1_555
H70 C50 1_555 1_555
H71 C50 1_555 1_555
C51 C46 1_555 1_555
H72 C51 1_555 1_555
H73 C51 1_555 1_555
H74 C51 1_555 1_555
C52 C33 1_555 1_555
H75 C52 1_555 1_555
H76 C52 1_555 1_555
H77 C52 1_555 1_555
C53 C36 1_555 1_555
H78 C53 1_555 1_555
H79 C53 1_555 1_555
H80 C53 1_555 1_555
C54 C47 1_555 1_555
H81 C54 1_555 1_555
H82 C54 1_555 1_555
H83 C54 1_555 1_555
C55 C34 1_555 1_555
H84 C55 1_555 1_555
H85 C55 1_555 1_555
H86 C55 1_555 1_555
C56 C46 1_555 1_555
H87 C56 1_555 1_555
H88 C56 1_555 1_555
H89 C56 1_555 1_555
C57 C39 1_555 1_555
H90 C57 1_555 1_555
C58 C37 1_555 1_555
H91 C58 1_555 1_555
C59 C32 1_555 1_555
H92 C59 1_555 1_555
C60 C27 1_555 1_555
H93 C60 1_555 1_555
C61 C34 1_555 1_555
H94 C61 1_555 1_555
H95 C61 1_555 1_555
H96 C61 1_555 1_555
C62 C33 1_555 1_555
H97 C62 1_555 1_555
H98 C62 1_555 1_555
H99 C62 1_555 1_555
C63 C34 1_555 1_555
H100 C63 1_555 1_555
H101 C63 1_555 1_555
H102 C63 1_555 1_555
C64 C47 1_555 1_555
H103 C64 1_555 1_555
H104 C64 1_555 1_555
H105 C64 1_555 1_555
C65 C33 1_555 1_555
H106 C65 1_555 1_555
H107 C65 1_555 1_555
H108 C65 1_555 1_555
C66 C47 1_555 1_555
H109 C66 1_555 1_555
H110 C66 1_555 1_555
H111 C66 1_555 1_555
C67 H112 1_555 1_555
H113 C67 1_555 1_555
O10 C67 1_555 1_555
C68 C67 1_555 1_555
H114 C68 1_555 1_555
H115 C68 1_555 1_555
C69 O10 1_555 1_555
H116 C69 1_555 1_555
H117 C69 1_555 1_555
C70 C68 1_555 1_555
H118 C70 1_555 1_555
H119 C70 1_555 1_555
O11 C73 1_555 1_555
C71 H120 1_555 1_555
H121 C71 1_555 1_555
C72 C71 1_555 1_555
H122 C72 1_555 1_555
H123 C72 1_555 1_555
C73 C71 1_555 1_555
H124 C73 1_555 1_555
H125 C73 1_555 1_555
C74 O11 1_555 1_555
H126 C74 1_555 1_555
H127 C74 1_555 1_555
Cl2 Mg2 1_555 1_555
Cl3 Mg2 1_555 1_555
C10 C14 1_555 1_555
C11 C18 1_555 1_555
C12 C15 1_555 1_555
C16 C19 1_555 1_555
C20 C24 1_555 1_555
C22 C23 1_555 1_555
C30 C36 1_555 1_555
C37 C41 1_555 1_555
C41 C46 1_555 1_555
C42 C59 1_555 1_555
C45 C57 1_555 1_555
C58 C60 1_555 1_555
C69 C70 1_555 1_555
C72 C74 1_555 1_555

#END
