
#######################################################################
#
#                 Cambridge Crystallographic Data Centre
#                                CCDC 
#
#######################################################################
#
# If this CIF has been generated from an entry in the Cambridge 
# Structural Database, then it will include bibliographic, chemical, 
# crystal, experimental, refinement or atomic coordinate data resulting 
# from the CCDC's data processing and validation procedures.
#
#######################################################################

data_ROXWOS
_chemical_formula_moiety         'C25 H21 N3 O5'
_chemical_name_systematic        
6,6-Dimethyl-2-nitro-5a-(2-(4-nitrophenyl)vinyl)-5a,6-dihydro-12H-indolo[2,1-b][1,3]benzoxazine
_symmetry_cell_setting           monoclinic
_symmetry_space_group_name_H-M   'P 21/c'
_symmetry_Int_Tables_number      14
_space_group_name_Hall           '-P 2ybc'
loop_
_symmetry_equiv_pos_site_id
_symmetry_equiv_pos_as_xyz
1 x,y,z
2 -x,1/2+y,1/2-z
3 -x,-y,-z
4 x,1/2-y,1/2+z
_cell_length_a                   14.314(3)
_cell_length_b                   13.075(3)
_cell_length_c                   12.034(2)
_cell_angle_alpha                90
_cell_angle_beta                 109.95(3)
_cell_angle_gamma                90
_cell_volume                     2117.08
_exptl_crystal_colour            colorless
_exptl_crystal_description       block
_cell_formula_units_Z            4
loop_
_atom_site_label
_atom_site_type_symbol
_atom_site_fract_x
_atom_site_fract_y
_atom_site_fract_z
C1 C -0.03403(17) 0.16974(15) 0.61557(19)
C2 C -0.09918(19) 0.24226(17) 0.5474(2)
H1 H -0.0842 0.2795 0.4878
C3 C -0.1874(2) 0.25864(19) 0.5694(3)
H2 H -0.2328 0.3085 0.5244
C4 C -0.2104(2) 0.2045(2) 0.6546(3)
H3 H -0.2709 0.2175 0.6681
C5 C -0.14492(19) 0.13066(18) 0.7210(2)
H4 H -0.1606 0.0927 0.7796
C6 C -0.05697(17) 0.11317(15) 0.70094(19)
C7 C 0.02425(16) 0.03543(14) 0.75374(18)
C8 C -0.00732(18) -0.06686(15) 0.6876(2)
H5 H -0.0688 -0.0910 0.6976
H6 H 0.0453 -0.1177 0.7199
H7 H -0.0185 -0.0568 0.6034
C9 C 0.04956(19) 0.01744(17) 0.88570(19)
H8 H 0.0589 0.0834 0.9268
H9 H 0.1109 -0.0227 0.9159
H10 H -0.0048 -0.0199 0.8995
C10 C 0.10980(16) 0.08440(14) 0.71995(17)
C11 C 0.18750(17) 0.01217(15) 0.70837(19)
H11 H 0.1713 -0.0267 0.6376
C12 C 0.27600(18) -0.00176(15) 0.7880(2)
H12 H 0.2935 0.0394 0.8572
C13 C 0.35011(17) -0.07594(15) 0.77844(19)
C14 C 0.42227(18) -0.11202(17) 0.8806(2)
H13 H 0.4261 -0.0844 0.9550
C15 C 0.48852(17) -0.18735(16) 0.8757(2)
H14 H 0.5365 -0.2128 0.9461
C16 C 0.48363(16) -0.22472(15) 0.76733(19)
C17 C 0.41623(19) -0.18830(18) 0.6640(2)
H15 H 0.4156 -0.2136 0.5897
C18 C 0.3495(2) -0.11429(18) 0.6701(2)
H16 H 0.3022 -0.0890 0.5991
C19 C 0.20377(15) 0.24009(14) 0.78354(18)
C20 C 0.26797(16) 0.29627(15) 0.87665(19)
H17 H 0.2790 0.2761 0.9559
C21 C 0.31582(17) 0.38150(16) 0.8538(2)
H18 H 0.3600 0.4202 0.9167
C22 C 0.29803(17) 0.40906(15) 0.7381(2)
C23 C 0.23500(17) 0.35465(15) 0.6447(2)
H19 H 0.2246 0.3756 0.5658
C24 C 0.18650(16) 0.26877(15) 0.66627(18)
C25 C 0.12073(18) 0.20303(16) 0.56810(19)
H20 H 0.0782 0.2473 0.5040
H21 H 0.1624 0.1607 0.5352
N1 N 0.05823(14) 0.13676(12) 0.60993(15)
N2 N 0.55193(14) -0.30680(13) 0.76058(17)
N3 N 0.34716(17) 0.50046(14) 0.7129(2)
O1 O 0.15718(11) 0.15907(10) 0.81408(12)
O2 O 0.60994(13) -0.34098(12) 0.85341(15)
O3 O 0.54776(14) -0.33757(12) 0.66325(15)
O4 O 0.40562(17) 0.54575(15) 0.7958(2)
O5 O 0.32675(17) 0.52703(15) 0.60938(19)
loop_
_geom_bond_atom_site_label_1
_geom_bond_atom_site_label_2
_geom_bond_site_symmetry_1
_geom_bond_site_symmetry_2
C1 C2 1_555 1_555
C2 H1 1_555 1_555
C3 C2 1_555 1_555
H2 C3 1_555 1_555
C4 C3 1_555 1_555
H3 C4 1_555 1_555
C5 C4 1_555 1_555
H4 C5 1_555 1_555
C6 C1 1_555 1_555
C7 C6 1_555 1_555
C8 C7 1_555 1_555
H5 C8 1_555 1_555
H6 C8 1_555 1_555
H7 C8 1_555 1_555
C9 C7 1_555 1_555
H8 C9 1_555 1_555
H9 C9 1_555 1_555
H10 C9 1_555 1_555
C10 C7 1_555 1_555
C11 C10 1_555 1_555
H11 C11 1_555 1_555
C12 C11 1_555 1_555
H12 C12 1_555 1_555
C13 C12 1_555 1_555
C14 C13 1_555 1_555
H13 C14 1_555 1_555
C15 C14 1_555 1_555
H14 C15 1_555 1_555
C16 C15 1_555 1_555
C17 C16 1_555 1_555
H15 C17 1_555 1_555
C18 C13 1_555 1_555
H16 C18 1_555 1_555
C19 C20 1_555 1_555
C20 H17 1_555 1_555
C21 C20 1_555 1_555
H18 C21 1_555 1_555
C22 C21 1_555 1_555
C23 C22 1_555 1_555
H19 C23 1_555 1_555
C24 C19 1_555 1_555
C25 C24 1_555 1_555
H20 C25 1_555 1_555
H21 C25 1_555 1_555
N1 C1 1_555 1_555
N2 C16 1_555 1_555
N3 C22 1_555 1_555
O1 C10 1_555 1_555
O2 N2 1_555 1_555
O3 N2 1_555 1_555
O4 N3 1_555 1_555
O5 N3 1_555 1_555
C5 C6 1_555 1_555
C10 N1 1_555 1_555
C17 C18 1_555 1_555
C19 O1 1_555 1_555
C23 C24 1_555 1_555
C25 N1 1_555 1_555

#END
