
#######################################################################
#
#                 Cambridge Crystallographic Data Centre
#                                CCDC 
#
#######################################################################
#
# If this CIF has been generated from an entry in the Cambridge 
# Structural Database, then it will include bibliographic, chemical, 
# crystal, experimental, refinement or atomic coordinate data resulting 
# from the CCDC's data processing and validation procedures.
#
#######################################################################

data_ROYFIW
_chemical_formula_moiety         'C48 H44 B1 N3 O1'
_chemical_name_systematic        
9c-((3,5-di-t-butylbenzyl)oxy)-3,6,9-triphenyl-9cH-8b,9b,9d-triaza-9c-boratricyclopenta[cd,gh,kl]phenalene
_symmetry_cell_setting           triclinic
_symmetry_space_group_name_H-M   'P -1'
_symmetry_Int_Tables_number      2
_space_group_name_Hall           '-P 1'
loop_
_symmetry_equiv_pos_site_id
_symmetry_equiv_pos_as_xyz
1 x,y,z
2 -x,-y,-z
_cell_length_a                   10.0454(19)
_cell_length_b                   12.488(3)
_cell_length_c                   15.612(2)
_cell_angle_alpha                71.341(14)
_cell_angle_beta                 74.45(3)
_cell_angle_gamma                83.50(3)
_cell_volume                     1786.81
_exptl_crystal_colour            orange
_exptl_crystal_description       Prism
_cell_formula_units_Z            2
loop_
_atom_site_label
_atom_site_type_symbol
_atom_site_fract_x
_atom_site_fract_y
_atom_site_fract_z
B1 B 0.79472(19) -0.06221(15) 0.25846(12)
O1 O 0.70242(12) 0.00563(9) 0.20478(8)
N1 N 0.77898(14) -0.18825(11) 0.28861(9)
N2 N 0.94107(14) -0.04497(11) 0.20166(9)
N3 N 0.79123(14) -0.03734(11) 0.34725(9)
C1 C 0.69510(16) -0.24799(14) 0.37107(11)
C2 C 0.68535(17) -0.35734(14) 0.36163(11)
H1 H 0.6304 -0.4155 0.4049
C3 C 0.77083(17) -0.36125(14) 0.27795(12)
H2 H 0.7844 -0.4227 0.2549
C4 C 0.83610(17) -0.25389(14) 0.23185(11)
C5 C 0.94929(17) -0.21198(14) 0.15424(11)
C6 C 1.00585(17) -0.10811(14) 0.14439(11)
C7 C 1.13816(18) -0.05845(14) 0.09711(12)
H3 H 1.2044 -0.0807 0.0511
C8 C 1.15003(17) 0.02709(14) 0.13135(12)
H4 H 1.2254 0.0735 0.1122
C9 C 1.02603(17) 0.03298(13) 0.20198(11)
C10 C 0.98839(17) 0.08293(13) 0.27560(11)
C11 C 0.87631(16) 0.03749(13) 0.35235(11)
C12 C 0.84603(17) 0.03170(14) 0.44895(11)
H5 H 0.8841 0.0760 0.4736
C13 C 0.75107(17) -0.05071(14) 0.49849(11)
H6 H 0.7139 -0.0722 0.5627
C14 C 0.71915(16) -0.09793(13) 0.43408(11)
C15 C 0.65626(16) -0.19995(13) 0.44577(11)
C16 C 1.02027(17) -0.27935(14) 0.09150(11)
C17 C 1.06725(18) -0.22659(15) -0.00441(12)
H7 H 1.0542 -0.1489 -0.0287
C18 C 1.1332(2) -0.28935(17) -0.06355(13)
H8 H 1.1640 -0.2535 -0.1272
C19 C 1.1534(2) -0.40478(17) -0.02854(13)
H9 H 1.1963 -0.4466 -0.0687
C20 C 1.10986(19) -0.45804(15) 0.06625(13)
H10 H 1.1244 -0.5356 0.0900
C21 C 1.04471(18) -0.39586(15) 0.12570(12)
H11 H 1.0167 -0.4321 0.1894
C22 C 1.07035(17) 0.17228(14) 0.27884(11)
C23 C 1.21500(18) 0.17063(15) 0.25215(12)
H12 H 1.2630 0.1098 0.2345
C24 C 1.28731(19) 0.25935(16) 0.25184(12)
H13 H 1.3833 0.2584 0.2324
C25 C 1.2178(2) 0.34902(15) 0.28013(12)
H14 H 1.2666 0.4087 0.2789
C26 C 1.07493(19) 0.34948(15) 0.31033(12)
H15 H 1.0281 0.4083 0.3316
C27 C 1.00140(18) 0.26260(14) 0.30900(11)
H16 H 0.9054 0.2644 0.3283
C28 C 0.56678(16) -0.25813(14) 0.53779(11)
C29 C 0.57439(17) -0.37536(14) 0.57855(11)
H17 H 0.6378 -0.4189 0.5472
C30 C 0.48906(18) -0.42780(15) 0.66492(12)
H18 H 0.4945 -0.5059 0.6905
C31 C 0.39551(18) -0.36383(16) 0.71323(12)
H19 H 0.3381 -0.3989 0.7711
C32 C 0.38796(17) -0.24731(15) 0.67487(12)
H20 H 0.3267 -0.2041 0.7077
C33 C 0.47145(17) -0.19513(14) 0.58774(12)
H21 H 0.4641 -0.1171 0.5620
C34 C 0.55895(18) -0.00095(15) 0.24523(12)
H22 H 0.5144 0.0690 0.2156
H23 H 0.5428 -0.0070 0.3107
C35 C 0.49062(18) -0.09946(15) 0.23771(12)
C36 C 0.53587(18) -0.13834(15) 0.16049(12)
H24 H 0.6101 -0.1042 0.1126
C37 C 0.47226(18) -0.22767(15) 0.15327(12)
C38 C 0.35968(18) -0.27623(15) 0.22558(12)
H25 H 0.3154 -0.3351 0.2212
C39 C 0.31168(18) -0.23886(15) 0.30438(12)
C40 C 0.37908(19) -0.15031(15) 0.30899(12)
H26 H 0.3490 -0.1245 0.3609
C41 C 0.52577(19) -0.26961(16) 0.06716(12)
C42 C 0.4989(2) -0.17579(18) -0.01977(12)
H27 H 0.5319 -0.2015 -0.0737
H28 H 0.5467 -0.1092 -0.0287
H29 H 0.4015 -0.1585 -0.0108
C43 C 0.68399(19) -0.29813(15) 0.05076(13)
H30 H 0.7018 -0.3563 0.1043
H31 H 0.7325 -0.2316 0.0411
H32 H 0.7151 -0.3239 -0.0032
C44 C 0.4542(2) -0.3771(2) 0.07642(15)
H33 H 0.4700 -0.4367 0.1299
H34 H 0.4914 -0.4000 0.0213
H35 H 0.3567 -0.3617 0.0838
C45 C 0.19138(18) -0.29356(15) 0.38606(12)
C46 C 0.07255(19) -0.20691(16) 0.39985(13)
H36 H 0.1061 -0.1443 0.4102
H37 H 0.0002 -0.2420 0.4528
H38 H 0.0371 -0.1803 0.3451
C47 C 0.2468(2) -0.33916(15) 0.47528(12)
H39 H 0.2838 -0.2781 0.4857
H40 H 0.3181 -0.3958 0.4675
H41 H 0.1726 -0.3718 0.5279
C48 C 0.1311(2) -0.39246(16) 0.37062(13)
H42 H 0.0567 -0.4241 0.4233
H43 H 0.2021 -0.4496 0.3636
H44 H 0.0972 -0.3651 0.3153
loop_
_geom_bond_atom_site_label_1
_geom_bond_atom_site_label_2
_geom_bond_site_symmetry_1
_geom_bond_site_symmetry_2
B1 O1 1_555 1_555
O1 C34 1_555 1_555
N1 B1 1_555 1_555
N2 B1 1_555 1_555
N3 B1 1_555 1_555
C1 N1 1_555 1_555
C2 C1 1_555 1_555
H1 C2 1_555 1_555
C3 C2 1_555 1_555
H2 C3 1_555 1_555
C4 N1 1_555 1_555
C5 C4 1_555 1_555
C6 N2 1_555 1_555
C7 C6 1_555 1_555
H3 C7 1_555 1_555
C8 C7 1_555 1_555
H4 C8 1_555 1_555
C9 N2 1_555 1_555
C10 C9 1_555 1_555
C11 N3 1_555 1_555
C12 C11 1_555 1_555
H5 C12 1_555 1_555
C13 C12 1_555 1_555
H6 C13 1_555 1_555
C14 N3 1_555 1_555
C15 C1 1_555 1_555
C16 C5 1_555 1_555
C17 C16 1_555 1_555
H7 C17 1_555 1_555
C18 C17 1_555 1_555
H8 C18 1_555 1_555
C19 C18 1_555 1_555
H9 C19 1_555 1_555
C20 C19 1_555 1_555
H10 C20 1_555 1_555
C21 C16 1_555 1_555
H11 C21 1_555 1_555
C22 C10 1_555 1_555
C23 C22 1_555 1_555
H12 C23 1_555 1_555
C24 C23 1_555 1_555
H13 C24 1_555 1_555
C25 C24 1_555 1_555
H14 C25 1_555 1_555
C26 C25 1_555 1_555
H15 C26 1_555 1_555
C27 C22 1_555 1_555
H16 C27 1_555 1_555
C28 C15 1_555 1_555
C29 C28 1_555 1_555
H17 C29 1_555 1_555
C30 C29 1_555 1_555
H18 C30 1_555 1_555
C31 C30 1_555 1_555
H19 C31 1_555 1_555
C32 C31 1_555 1_555
H20 C32 1_555 1_555
C33 C28 1_555 1_555
H21 C33 1_555 1_555
C34 H22 1_555 1_555
H23 C34 1_555 1_555
C35 C34 1_555 1_555
C36 C35 1_555 1_555
H24 C36 1_555 1_555
C37 C36 1_555 1_555
C38 C37 1_555 1_555
H25 C38 1_555 1_555
C39 C38 1_555 1_555
C40 C35 1_555 1_555
H26 C40 1_555 1_555
C41 C37 1_555 1_555
C42 C41 1_555 1_555
H27 C42 1_555 1_555
H28 C42 1_555 1_555
H29 C42 1_555 1_555
C43 C41 1_555 1_555
H30 C43 1_555 1_555
H31 C43 1_555 1_555
H32 C43 1_555 1_555
C44 C41 1_555 1_555
H33 C44 1_555 1_555
H34 C44 1_555 1_555
H35 C44 1_555 1_555
C45 C39 1_555 1_555
C46 C45 1_555 1_555
H36 C46 1_555 1_555
H37 C46 1_555 1_555
H38 C46 1_555 1_555
C47 C45 1_555 1_555
H39 C47 1_555 1_555
H40 C47 1_555 1_555
H41 C47 1_555 1_555
C48 C45 1_555 1_555
H42 C48 1_555 1_555
H43 C48 1_555 1_555
H44 C48 1_555 1_555
C3 C4 1_555 1_555
C5 C6 1_555 1_555
C8 C9 1_555 1_555
C10 C11 1_555 1_555
C13 C14 1_555 1_555
C14 C15 1_555 1_555
C20 C21 1_555 1_555
C26 C27 1_555 1_555
C32 C33 1_555 1_555
C39 C40 1_555 1_555

#END
