
#######################################################################
#
#                 Cambridge Crystallographic Data Centre
#                                CCDC 
#
#######################################################################
#
# If this CIF has been generated from an entry in the Cambridge 
# Structural Database, then it will include bibliographic, chemical, 
# crystal, experimental, refinement or atomic coordinate data resulting 
# from the CCDC's data processing and validation procedures.
#
#######################################################################

data_ROYHEU
_chemical_formula_moiety         'C20 H16 Cl1 F2 N1 O4 S2'
_chemical_name_systematic        
N-(2-(4-chlorophenyl)-2,2-difluoroethyl)-N-(phenylsulfonyl)benzenesulfonamide
_symmetry_cell_setting           orthorhombic
_symmetry_space_group_name_H-M   'P n m a'
_symmetry_Int_Tables_number      62
_space_group_name_Hall           '-P 2ac 2n'
loop_
_symmetry_equiv_pos_site_id
_symmetry_equiv_pos_as_xyz
1 x,y,z
2 1/2-x,-y,1/2+z
3 1/2+x,1/2-y,1/2-z
4 -x,1/2+y,-z
5 -x,-y,-z
6 1/2+x,y,1/2-z
7 1/2-x,1/2+y,1/2+z
8 x,1/2-y,z
_cell_length_a                   11.770(5)
_cell_length_b                   13.289(5)
_cell_length_c                   13.144(5)
_cell_angle_alpha                90
_cell_angle_beta                 90
_cell_angle_gamma                90
_cell_volume                     2055.87
_cell_formula_units_Z            4
loop_
_atom_site_label
_atom_site_type_symbol
_atom_site_fract_x
_atom_site_fract_y
_atom_site_fract_z
C1 C 0.8354(7) 0.8763(4) 0.1074(4)
C2 C 0.7234(8) 0.8914(7) 0.1198(8)
H1 H 0.6923 0.8912 0.1849
C3 C 0.6558(13) 0.9070(10) 0.0382(14)
H2 H 0.5789 0.9202 0.0473
C4 C 0.698(2) 0.9034(9) -0.0532(14)
H3 H 0.6491 0.9084 -0.1084
C5 C 0.816(2) 0.8923(10) -0.0718(8)
H4 H 0.8458 0.8960 -0.1371
C6 C 0.8846(12) 0.8751(7) 0.0143(5)
H5 H 0.9621 0.8633 0.0072
C7 C 0.7948(6) 0.7500 0.3477(5)
H6 H 0.7472 0.6910 0.3391
C8 C 0.7558(7) 0.7500 0.5349(5)
C9 C 0.7148(7) 0.6630(6) 0.5744(6)
H7 H 0.7418 0.6019 0.5498
C10 C 0.6342(7) 0.6630(5) 0.6501(6)
H8 H 0.6072 0.6024 0.6757
C11 C 0.5944(7) 0.7500 0.6869(5)
Cl1 Cl 0.4913(2) 0.7500 0.78179(17)
N1 N 0.8845(5) 0.7500 0.2677(4)
O1 O 0.8912(5) 0.9333(3) 0.2876(3)
O2 O 1.0361(4) 0.8529(4) 0.1834(5)
S1 S 0.92210(12) 0.86028(10) 0.21504(10)
C12 C 0.8434(7) 0.7500 0.4535(6)
F1 F 0.9285(6) 0.6996(5) 0.4716(6)
C1G C 0.8354(7) 0.6237(4) 0.1074(4)
C2G C 0.7234(8) 0.6086(7) 0.1198(8)
H1G H 0.6923 0.6088 0.1849
C3G C 0.6558(13) 0.5930(10) 0.0382(14)
H2G H 0.5789 0.5798 0.0473
C4G C 0.698(2) 0.5966(9) -0.0532(14)
H3G H 0.6491 0.5916 -0.1084
C5G C 0.816(2) 0.6077(10) -0.0718(8)
H4G H 0.8458 0.6040 -0.1371
C6G C 0.8846(12) 0.6249(7) 0.0143(5)
H5G H 0.9621 0.6367 0.0072
H6G H 0.7472 0.8090 0.3391
C9G C 0.7148(7) 0.8370(6) 0.5744(6)
H7G H 0.7418 0.8981 0.5498
C10G C 0.6342(7) 0.8370(5) 0.6501(6)
H8G H 0.6072 0.8976 0.6757
O1G O 0.8912(5) 0.5667(3) 0.2876(3)
O2G O 1.0361(4) 0.6471(4) 0.1834(5)
S1G S 0.92210(12) 0.63972(10) 0.21504(10)
F1G F 0.9285(6) 0.8004(5) 0.4716(6)
H9? H 0.7472 0.6910 0.3391
loop_
_geom_bond_atom_site_label_1
_geom_bond_atom_site_label_2
_geom_bond_site_symmetry_1
_geom_bond_site_symmetry_2
C1 C2 1_555 1_555
C2 H1 1_555 1_555
C3 C2 1_555 1_555
H2 C3 1_555 1_555
C4 C3 1_555 1_555
H3 C4 1_555 1_555
C5 C4 1_555 1_555
H4 C5 1_555 1_555
C6 C1 1_555 1_555
H5 C6 1_555 1_555
C7 H6 1_555 1_555
C8 C9 1_555 1_555
C9 H7 1_555 1_555
C10 C9 1_555 1_555
H8 C10 1_555 1_555
C11 C10 1_555 1_555
Cl1 C11 1_555 1_555
N1 C7 1_555 1_555
O1 S1 1_555 1_555
O2 S1 1_555 1_555
S1 C1 1_555 1_555
C12 C7 1_555 1_555
F1 C12 1_555 1_555
C1G C2G 1_555 1_555
C2G H1G 1_555 1_555
C3G C2G 1_555 1_555
H2G C3G 1_555 1_555
C4G C3G 1_555 1_555
H3G C4G 1_555 1_555
C5G C4G 1_555 1_555
H4G C5G 1_555 1_555
C6G C1G 1_555 1_555
H5G C6G 1_555 1_555
H6G C7 1_555 1_555
C9G C8 1_555 1_555
H7G C9G 1_555 1_555
C10G C11 1_555 1_555
H8G C10G 1_555 1_555
O1G S1G 1_555 1_555
O2G S1G 1_555 1_555
S1G N1 1_555 1_555
F1G C12 1_555 1_555
C5 C6 1_555 1_555
C8 C12 1_555 1_555
N1 S1 1_555 1_555
C1G S1G 1_555 1_555
C5G C6G 1_555 1_555
C9G C10G 1_555 1_555

#END
