
#######################################################################
#
#                 Cambridge Crystallographic Data Centre
#                                CCDC 
#
#######################################################################
#
# If this CIF has been generated from an entry in the Cambridge 
# Structural Database, then it will include bibliographic, chemical, 
# crystal, experimental, refinement or atomic coordinate data resulting 
# from the CCDC's data processing and validation procedures.
#
#######################################################################

data_ROYRAA
_chemical_formula_moiety         'C28 H20 O2'
_chemical_name_systematic        
3,6-Dimethyl-2,7-diphenylisochromeno[7,8,1-def]chromene
_symmetry_cell_setting           triclinic
_symmetry_space_group_name_H-M   'P -1'
_symmetry_Int_Tables_number      2
_space_group_name_Hall           '-P 1'
loop_
_symmetry_equiv_pos_site_id
_symmetry_equiv_pos_as_xyz
1 x,y,z
2 -x,-y,-z
_cell_length_a                   10.5146(3)
_cell_length_b                   11.1198(3)
_cell_length_c                   18.1537(5)
_cell_angle_alpha                73.905(2)
_cell_angle_beta                 80.721(2)
_cell_angle_gamma                89.893(2)
_cell_volume                     2010.6
_cell_formula_units_Z            4
loop_
_atom_site_label
_atom_site_type_symbol
_atom_site_fract_x
_atom_site_fract_y
_atom_site_fract_z
O1 O 0.48276(9) 0.23054(9) 1.16590(6)
O2 O 0.56758(10) 0.27139(9) 0.85231(6)
C1 C 0.7775(2) 0.3443(2) 0.59817(10)
H1 H 0.8557 0.3555 0.5643
C2 C 0.5540(2) 0.2894(2) 0.62671(12)
H2 H 0.4798 0.2644 0.6121
C3 C 0.4594(2) 0.0996(2) 1.39978(11)
H3 H 0.4454 0.0143 1.4245
C4 C 0.4463(2) 0.1846(3) 1.44301(11)
H4 H 0.4242 0.1569 1.4969
C5 C 0.49351(18) 0.14122(18) 1.31947(10)
H5 H 0.5018 0.0834 1.2907
C6 C 0.77246(17) 0.36595(16) 0.67011(9)
H6 H 0.8470 0.3916 0.6841
C7 C 0.54770(18) 0.30880(17) 0.69893(10)
H7 H 0.4696 0.2945 0.7330
C8 C 0.4660(2) 0.3094(2) 1.40630(11)
H8 H 0.4569 0.3668 1.4354
C9 C 0.51545(14) 0.26791(16) 1.28147(9)
C10 C 0.54739(13) 0.31038(14) 1.19561(8)
C11 C 0.65605(15) 0.34930(13) 0.72161(8)
C12 C 0.6686(3) 0.3066(2) 0.57623(11)
H9 H 0.6727 0.2929 0.5277
C13 C 0.70380(18) 0.48839(18) 1.18175(10)
H10 H 0.6641 0.5671 1.1787
H11 H 0.7891 0.5029 1.1518
H12 H 0.7087 0.4464 1.2350
C14 C 0.64672(13) 0.36800(13) 0.79968(8)
C15 C 0.69954(12) 0.46147(13) 0.82069(8)
C16 C 0.62449(13) 0.40809(14) 1.14999(8)
C17 C 0.58403(11) 0.34415(12) 1.03659(8)
C18 C 0.77738(16) 0.57057(16) 0.76310(9)
H13 H 0.8665 0.5637 0.7688
H14 H 0.7467 0.6473 0.7724
H15 H 0.7686 0.5704 0.7113
C19 C 0.72662(12) 0.54932(12) 0.93176(8)
H16 H 0.7723 0.6197 0.8975
C20 C 0.47248(12) 0.16660(13) 0.98085(8)
H17 H 0.4351 0.1075 0.9623
C21 C 0.50728(11) 0.24269(12) 1.08739(8)
C22 C 0.49924(18) 0.35172(19) 1.32635(10)
H18 H 0.5109 0.4373 1.3022
C23 C 0.70801(12) 0.53646(12) 1.01231(9)
H19 H 0.7422 0.5983 1.0300
C24 C 0.67864(11) 0.45998(12) 0.90261(8)
C25 C 0.64030(11) 0.43447(12) 1.06546(8)
C26 C 0.60431(11) 0.35626(12) 0.95607(8)
C27 C 0.54777(12) 0.26466(12) 0.93010(8)
C28 C 0.45196(12) 0.15553(13) 1.06041(8)
H20 H 0.4008 0.0891 1.0950
O3 O 0.06743(9) 0.27380(9) 0.83432(5)
O4 O -0.00701(10) 0.22660(9) 1.14865(5)
C29 C -0.1391(3) 0.1970(2) 1.37756(13)
H21 H -0.2208 0.2222 1.3936
C30 C 0.15861(17) 0.15660(18) 0.67203(9)
H22 H 0.1538 0.0707 0.6957
C31 C 0.1028(2) 0.12430(17) 1.32885(10)
H23 H 0.1855 0.1014 1.3128
C32 C 0.1709(3) 0.4097(2) 0.60020(11)
H24 H 0.1751 0.4954 0.5761
C33 C 0.1652(2) 0.2007(2) 0.59254(11)
H25 H 0.1646 0.1440 0.5633
C34 C 0.14720(13) 0.19474(13) 0.80259(8)
C35 C 0.29500(17) 0.01592(17) 0.81236(9)
H26 H 0.2534 -0.0635 0.8176
H27 H 0.3674 0.0031 0.8394
H28 H 0.3242 0.0571 0.7583
C36 C 0.15907(14) 0.23890(15) 0.71708(8)
C37 C 0.10904(12) 0.03681(13) 1.17662(8)
C38 C 0.01389(15) 0.14459(14) 1.27840(8)
C39 C 0.20088(12) 0.09602(13) 0.84648(8)
C40 C 0.04499(13) 0.12909(13) 1.19944(8)
C41 C 0.1725(3) 0.3264(3) 0.55603(11)
H29 H 0.1783 0.3554 0.5023
C42 C 0.13000(11) 0.04004(11) 1.09438(7)
C43 C -0.10710(19) 0.18366(18) 1.30336(10)
H30 H -0.1671 0.2010 1.2698
C44 C 0.0696(3) 0.1379(2) 1.40264(12)
H31 H 0.1297 0.1227 1.4362
C45 C 0.15779(16) -0.07344(15) 1.23205(9)
H32 H 0.2503 -0.0667 1.2246
H33 H 0.1311 -0.1495 1.2225
H34 H 0.1231 -0.0746 1.2845
C46 C -0.0519(3) 0.1737(3) 1.42731(12)
H35 H -0.0741 0.1818 1.4773
C47 C 0.1633(2) 0.36634(18) 0.67999(10)
H36 H 0.1609 0.4234 0.7092
C48 C 0.21532(12) -0.03409(12) 0.98289(8)
H37 H 0.2587 -0.0953 0.9641
C49 C 0.17406(11) 0.06837(12) 0.93122(8)
C50 C 0.01202(11) 0.23460(12) 1.07063(7)
C51 C 0.08249(10) 0.14413(11) 1.04255(7)
C52 C 0.10280(11) 0.15741(11) 0.96214(7)
C53 C 0.05140(11) 0.25947(12) 0.91301(7)
C54 C -0.01830(12) 0.34558(13) 0.94181(8)
H38 H -0.0523 0.4122 0.9084
C55 C 0.19311(12) -0.04802(12) 1.06350(8)
H39 H 0.2218 -0.1185 1.0967
C56 C -0.03804(12) 0.33290(13) 1.02173(8)
H40 H -0.0851 0.3912 1.0416
loop_
_geom_bond_atom_site_label_1
_geom_bond_atom_site_label_2
_geom_bond_site_symmetry_1
_geom_bond_site_symmetry_2
O1 C10 1_555 1_555
O2 C14 1_555 1_555
C1 H1 1_555 1_555
C2 H2 1_555 1_555
C3 H3 1_555 1_555
C4 C3 1_555 1_555
H4 C4 1_555 1_555
C5 C3 1_555 1_555
H5 C5 1_555 1_555
C6 C1 1_555 1_555
H6 C6 1_555 1_555
C7 C2 1_555 1_555
H7 C7 1_555 1_555
C8 C4 1_555 1_555
H8 C8 1_555 1_555
C9 C5 1_555 1_555
C10 C9 1_555 1_555
C11 C6 1_555 1_555
C12 C1 1_555 1_555
H9 C12 1_555 1_555
C13 H10 1_555 1_555
H11 C13 1_555 1_555
H12 C13 1_555 1_555
C14 C11 1_555 1_555
C15 C14 1_555 1_555
C16 C10 1_555 1_555
C17 C21 1_555 1_555
C18 C15 1_555 1_555
H13 C18 1_555 1_555
H14 C18 1_555 1_555
H15 C18 1_555 1_555
C19 H16 1_555 1_555
C20 H17 1_555 1_555
C21 O1 1_555 1_555
C22 C8 1_555 1_555
H18 C22 1_555 1_555
C23 C19 1_555 1_555
H19 C23 1_555 1_555
C24 C15 1_555 1_555
C25 C16 1_555 1_555
C26 C17 1_555 1_555
C27 O2 1_555 1_555
C28 C20 1_555 1_555
H20 C28 1_555 1_555
O3 C34 1_555 1_555
O4 C40 1_555 1_555
C29 H21 1_555 1_555
C30 H22 1_555 1_555
C31 H23 1_555 1_555
C32 H24 1_555 1_555
C33 C30 1_555 1_555
H25 C33 1_555 1_555
C34 C36 1_555 1_555
C35 H26 1_555 1_555
H27 C35 1_555 1_555
H28 C35 1_555 1_555
C36 C30 1_555 1_555
C37 C40 1_555 1_555
C38 C31 1_555 1_555
C39 C34 1_555 1_555
C40 C38 1_555 1_555
C41 C32 1_555 1_555
H29 C41 1_555 1_555
C42 C37 1_555 1_555
C43 C29 1_555 1_555
H30 C43 1_555 1_555
C44 C31 1_555 1_555
H31 C44 1_555 1_555
C45 C37 1_555 1_555
H32 C45 1_555 1_555
H33 C45 1_555 1_555
H34 C45 1_555 1_555
C46 C29 1_555 1_555
H35 C46 1_555 1_555
C47 C32 1_555 1_555
H36 C47 1_555 1_555
C48 H37 1_555 1_555
C49 C39 1_555 1_555
C50 O4 1_555 1_555
C51 C42 1_555 1_555
C52 C49 1_555 1_555
C53 O3 1_555 1_555
C54 C53 1_555 1_555
H38 C54 1_555 1_555
C55 C42 1_555 1_555
H39 C55 1_555 1_555
C56 C50 1_555 1_555
H40 C56 1_555 1_555
C2 C12 1_555 1_555
C7 C11 1_555 1_555
C9 C22 1_555 1_555
C13 C16 1_555 1_555
C17 C25 1_555 1_555
C19 C24 1_555 1_555
C20 C27 1_555 1_555
C21 C28 1_555 1_555
C23 C25 1_555 1_555
C24 C26 1_555 1_555
C26 C27 1_555 1_555
C33 C41 1_555 1_555
C35 C39 1_555 1_555
C36 C47 1_555 1_555
C38 C43 1_555 1_555
C44 C46 1_555 1_555
C48 C49 1_555 1_555
C48 C55 1_555 1_555
C50 C51 1_555 1_555
C51 C52 1_555 1_555
C52 C53 1_555 1_555
C54 C56 1_555 1_555

#END
