
#######################################################################
#
#                 Cambridge Crystallographic Data Centre
#                                CCDC 
#
#######################################################################
#
# If this CIF has been generated from an entry in the Cambridge 
# Structural Database, then it will include bibliographic, chemical, 
# crystal, experimental, refinement or atomic coordinate data resulting 
# from the CCDC's data processing and validation procedures.
#
#######################################################################

data_ROYZOW
_chemical_compound_source        'Idesia polycarpa'
_chemical_name_common            
'6-hydroxy-2-[[[(1-hydroxy-6-oxo-2-cyclohexen-1-yl)carbonyl]oxy]-methyl]phenyl beta-D-glucopyranoside'
_chemical_formula_moiety         'C20 H24 O11'
_chemical_name_systematic        
'3-hydroxy-2-((3,4,5-trihydroxy-6-(hydroxymethyl)tetrahydro-2H-pyran-2-yl)oxy)benzyl 1-hydroxy-6-oxocyclohex-2-ene-1-carboxylate'
_symmetry_cell_setting           monoclinic
_symmetry_space_group_name_H-M   'P 21'
_symmetry_Int_Tables_number      4
_space_group_name_Hall           'P 2yb'
loop_
_symmetry_equiv_pos_site_id
_symmetry_equiv_pos_as_xyz
1 x,y,z
2 -x,1/2+y,-z
_cell_length_a                   8.4990(2)
_cell_length_b                   7.08380(10)
_cell_length_c                   16.7578(3)
_cell_angle_alpha                90
_cell_angle_beta                 95.3380(10)
_cell_angle_gamma                90
_cell_volume                     1004.53
_exptl_crystal_colour            colorless
_exptl_crystal_description       needle
_cell_formula_units_Z            2
_chemical_properties_physical    Moisture-sensitive
loop_
_atom_site_label
_atom_site_type_symbol
_atom_site_fract_x
_atom_site_fract_y
_atom_site_fract_z
O1 O 0.8664(3) 0.3523(4) 0.66545(16)
C1 C 0.7826(5) 0.3120(6) 0.5881(3)
H1 H 0.6846 0.2441 0.5956
C2 C 0.7435(5) 0.4969(7) 0.5440(2)
H2 H 0.8435 0.5598 0.5360
C3 C 0.6510(5) 0.6257(7) 0.5930(3)
H3 H 0.5498 0.5647 0.6003
C4 C 0.7402(5) 0.6520(6) 0.6749(2)
H4 H 0.8384 0.7206 0.6686
C5 C 0.7804(5) 0.4652(6) 0.7154(2)
H5 H 0.6847 0.4001 0.7291
O2 O 0.8830(3) 0.5034(4) 0.78505(15)
C6 C 0.8491(5) 0.4347(7) 0.8596(2)
C7 C 0.7876(5) 0.5635(6) 0.9102(3)
C8 C 0.7687(6) 0.5102(8) 0.9887(3)
H6 H 0.7316 0.5965 1.0243
C9 C 0.8051(6) 0.3289(9) 1.0131(3)
H7 H 0.7930 0.2935 1.0656
C10 C 0.8594(5) 0.1986(7) 0.9611(3)
H8 H 0.8802 0.0755 0.9782
C11 C 0.8831(5) 0.2507(7) 0.8830(3)
C12 C 0.9443(5) 0.1104(7) 0.8275(3)
H9 H 0.9434 -0.0147 0.8511
H10 H 0.8775 0.1085 0.7773
O3 O 1.1049(3) 0.1622(4) 0.81309(17)
C13 C 1.1675(5) 0.0749(7) 0.7533(3)
C14 C 1.3327(5) 0.1525(7) 0.7417(3)
C15 C 1.3064(6) 0.3493(8) 0.7054(4)
C16 C 1.2841(8) 0.5075(10) 0.7599(5)
H11 H 1.1717 0.5288 0.7613
H12 H 1.3288 0.6204 0.7382
C17 C 1.3601(9) 0.4784(12) 0.8478(5)
H13 H 1.4313 0.5831 0.8613
H14 H 1.2767 0.4845 0.8834
C18 C 1.4458(7) 0.3065(11) 0.8638(4)
H15 H 1.5144 0.3004 0.9103
C19 C 1.4348(5) 0.1602(9) 0.8185(3)
H16 H 1.4936 0.0539 0.8345
C20 C 0.8868(6) 0.1905(7) 0.5423(3)
H17 H 0.8462 0.1904 0.4862
H18 H 0.9919 0.2451 0.5460
O4 O 0.8977(5) 0.0040(6) 0.5696(2)
H19 H 0.967(6) -0.002(11) 0.612(2)
O5 O 0.6651(4) 0.4581(6) 0.46709(16)
H20 H 0.5805 0.4061 0.4722
O6 O 0.6189(4) 0.8042(5) 0.5558(2)
H21 H 0.7017 0.8507 0.5436
O7 O 0.6493(4) 0.7565(5) 0.72819(18)
H22 H 0.6250 0.8594 0.7083
O8 O 0.7465(4) 0.7434(5) 0.8878(2)
H23 H 0.7647 0.7605 0.8411
O9 O 1.1024(4) -0.0469(5) 0.7126(2)
O10 O 1.4074(4) 0.0339(5) 0.68997(17)
H24 H 1.3533 0.0264 0.6469
O11 O 1.3071(6) 0.3667(7) 0.6352(3)
loop_
_geom_bond_atom_site_label_1
_geom_bond_atom_site_label_2
_geom_bond_site_symmetry_1
_geom_bond_site_symmetry_2
O1 C1 1_555 1_555
C1 H1 1_555 1_555
C2 C1 1_555 1_555
H2 C2 1_555 1_555
C3 C2 1_555 1_555
H3 C3 1_555 1_555
C4 C3 1_555 1_555
H4 C4 1_555 1_555
C5 O1 1_555 1_555
H5 C5 1_555 1_555
O2 C5 1_555 1_555
C6 O2 1_555 1_555
C7 C6 1_555 1_555
C8 C7 1_555 1_555
H6 C8 1_555 1_555
C9 C8 1_555 1_555
H7 C9 1_555 1_555
C10 C9 1_555 1_555
H8 C10 1_555 1_555
C11 C6 1_555 1_555
C12 C11 1_555 1_555
H9 C12 1_555 1_555
H10 C12 1_555 1_555
O3 C12 1_555 1_555
C13 O3 1_555 1_555
C14 C13 1_555 1_555
C15 C14 1_555 1_555
C16 C15 1_555 1_555
H11 C16 1_555 1_555
H12 C16 1_555 1_555
C17 C16 1_555 1_555
H13 C17 1_555 1_555
H14 C17 1_555 1_555
C18 C17 1_555 1_555
H15 C18 1_555 1_555
C19 C14 1_555 1_555
H16 C19 1_555 1_555
C20 C1 1_555 1_555
H17 C20 1_555 1_555
H18 C20 1_555 1_555
O4 C20 1_555 1_555
H19 O4 1_555 1_555
O5 C2 1_555 1_555
H20 O5 1_555 1_555
O6 C3 1_555 1_555
H21 O6 1_555 1_555
O7 C4 1_555 1_555
H22 O7 1_555 1_555
O8 C7 1_555 1_555
H23 O8 1_555 1_555
O9 C13 1_555 1_555
O10 C14 1_555 1_555
H24 O10 1_555 1_555
O11 C15 1_555 1_555
C4 C5 1_555 1_555
C10 C11 1_555 1_555
C18 C19 1_555 1_555

#END
