
#######################################################################
#
#                 Cambridge Crystallographic Data Centre
#                                CCDC 
#
#######################################################################
#
# If this CIF has been generated from an entry in the Cambridge 
# Structural Database, then it will include bibliographic, chemical, 
# crystal, experimental, refinement or atomic coordinate data resulting 
# from the CCDC's data processing and validation procedures.
#
#######################################################################

data_ROZMEZ
_chemical_formula_moiety         'C22 H22 Cl2 N2 O5'
_chemical_name_systematic        
'bis(4-Chlorobenzyl) 1-(cyclopentylcarbonyl)-1,2-hydrazinedicarboxylate'
_symmetry_cell_setting           triclinic
_symmetry_space_group_name_H-M   'P -1'
_symmetry_Int_Tables_number      2
_space_group_name_Hall           '-P 1'
loop_
_symmetry_equiv_pos_site_id
_symmetry_equiv_pos_as_xyz
1 x,y,z
2 -x,-y,-z
_cell_length_a                   5.9282(3)
_cell_length_b                   13.3115(8)
_cell_length_c                   15.2091(9)
_cell_angle_alpha                108.433(3)
_cell_angle_beta                 92.646(3)
_cell_angle_gamma                102.348(3)
_cell_volume                     1103.87
_exptl_crystal_colour            colorless
_exptl_crystal_description       cut-prism
_chemical_melting_point          97-98deg.C
_cell_formula_units_Z            2
_exptl_crystal_recrystallization_method 'ethyl acetate/hexane'
loop_
_atom_site_label
_atom_site_type_symbol
_atom_site_fract_x
_atom_site_fract_y
_atom_site_fract_z
Cl1 Cl 0.19856(13) 0.15898(6) 0.96064(4)
Cl2 Cl 0.73137(14) 0.39592(6) 0.96835(4)
C1 C 0.1434(2) 0.15120(13) 0.69668(11)
H1 H 0.2429 0.1712 0.6555
O1 O -0.02443(15) 0.13442(9) 0.52228(7)
O2 O -0.29517(16) 0.10468(9) 0.40302(7)
O3 O 0.63015(15) 0.33385(9) 0.52060(7)
O4 O 0.28593(18) 0.38290(10) 0.53202(9)
O5 O 0.2563(2) 0.26944(17) 0.30709(11)
N1 N 0.08779(18) 0.18565(11) 0.40162(8)
N2 N 0.30908(18) 0.21007(11) 0.44978(9)
H2 H 0.406(3) 0.1766(16) 0.4201(14)
C2 C 0.2328(3) 0.16712(15) 0.78756(13)
H3 H 0.3922 0.1979 0.8079
C3 C 0.0870(3) 0.13770(15) 0.84721(13)
C4 C -0.1466(3) 0.09164(17) 0.81862(13)
H4 H -0.2449 0.0713 0.8600
C5 C -0.2349(3) 0.07565(14) 0.72808(11)
H5 H -0.3940 0.0438 0.7080
C6 C -0.0922(2) 0.10588(11) 0.66655(10)
C7 C -0.2021(2) 0.09142(13) 0.57081(10)
H6 H -0.2697 0.0139 0.5367
H7 H -0.3263 0.1304 0.5758
C8 C -0.0971(2) 0.13836(11) 0.43983(9)
C9 C 0.9083(3) 0.38740(14) 0.71848(12)
H8 H 1.0201 0.3626 0.6809
C10 C 0.9056(3) 0.37781(15) 0.80627(13)
H9 H 1.0146 0.3469 0.8285
C11 C 0.7415(3) 0.41412(15) 0.86050(12)
C12 C 0.5837(4) 0.4613(2) 0.82949(14)
H10 H 0.4736 0.4869 0.8676
C13 C 0.5888(3) 0.47049(17) 0.74161(13)
H11 H 0.4816 0.5028 0.7201
C14 C 0.7495(2) 0.43281(11) 0.68501(10)
C15 C 0.7517(2) 0.43917(13) 0.58849(11)
H12 H 0.6751 0.4959 0.5835
H13 H 0.9127 0.4585 0.5755
C16 C 0.3993(2) 0.31756(12) 0.50343(9)
C17 C 0.0748(3) 0.22566(18) 0.32520(13)
C18 C -0.1665(5) 0.2220(3) 0.2791(2)
H14 H -0.2825 0.2247 0.3241
C19 C -0.2385(6) 0.1156(2) 0.1948(2)
H15 H -0.1011 0.0944 0.1685
H16 H -0.3277 0.0562 0.2133
C20 C -0.3821(11) 0.1401(4) 0.1268(3)
H17 H -0.3484 0.1044 0.0635
H18 H -0.5472 0.1119 0.1301
C21 C -0.3328(10) 0.2580(5) 0.1468(4)
H19 H -0.4762 0.2834 0.1561
H20 H -0.2664 0.2770 0.0946
C22 C -0.1615(6) 0.3106(3) 0.2344(3)
H21 H -0.2075 0.3733 0.2769
H22 H -0.0051 0.3356 0.2192
C23? C -0.1200(13) 0.1777(8) 0.2510(5)
C24? C -0.0674(16) 0.1564(7) 0.1471(4)
C25? C -0.238(3) 0.1985(17) 0.1102(8)
C26? C -0.290(4) 0.2818(18) 0.1804(10)
C27? C -0.2241(16) 0.2752(11) 0.2710(5)
H23? H -0.2276 0.1140 0.2587
H24? H 0.0907 0.1954 0.1442
H25? H -0.0873 0.0783 0.1135
H26? H -0.1784 0.2257 0.0609
H27? H -0.3792 0.1403 0.0830
H28? H -0.4569 0.2774 0.1723
H29? H -0.2064 0.3521 0.1767
H30? H -0.3606 0.2654 0.3042
H31? H -0.1101 0.3417 0.3092
loop_
_geom_bond_atom_site_label_1
_geom_bond_atom_site_label_2
_geom_bond_site_symmetry_1
_geom_bond_site_symmetry_2
Cl1 C3 1_555 1_555
Cl2 C11 1_555 1_555
C1 H1 1_555 1_555
O1 C7 1_555 1_555
O2 C8 1_555 1_555
O3 C15 1_555 1_555
O4 C16 1_555 1_555
O5 C17 1_555 1_555
N1 N2 1_555 1_555
N2 H2 1_555 1_555
C2 C1 1_555 1_555
H3 C2 1_555 1_555
C3 C2 1_555 1_555
C4 C3 1_555 1_555
H4 C4 1_555 1_555
C5 C4 1_555 1_555
H5 C5 1_555 1_555
C6 C1 1_555 1_555
C7 C6 1_555 1_555
H6 C7 1_555 1_555
H7 C7 1_555 1_555
C8 O1 1_555 1_555
C9 H8 1_555 1_555
C10 C9 1_555 1_555
H9 C10 1_555 1_555
C11 C10 1_555 1_555
C12 C11 1_555 1_555
H10 C12 1_555 1_555
C13 C12 1_555 1_555
H11 C13 1_555 1_555
C14 C9 1_555 1_555
C15 C14 1_555 1_555
H12 C15 1_555 1_555
H13 C15 1_555 1_555
C16 O3 1_555 1_555
C17 N1 1_555 1_555
C18 C17 1_555 1_555
H14 C18 1_555 1_555
C19 C18 1_555 1_555
H15 C19 1_555 1_555
H16 C19 1_555 1_555
C20 C19 1_555 1_555
H17 C20 1_555 1_555
H18 C20 1_555 1_555
C21 C20 1_555 1_555
H19 C21 1_555 1_555
H20 C21 1_555 1_555
C22 C18 1_555 1_555
H21 C22 1_555 1_555
H22 C22 1_555 1_555
N1 C8 1_555 1_555
N2 C16 1_555 1_555
C5 C6 1_555 1_555
C13 C14 1_555 1_555
C21 C22 1_555 1_555

#END
