
#######################################################################
#
#                 Cambridge Crystallographic Data Centre
#                                CCDC 
#
#######################################################################
#
# If this CIF has been generated from an entry in the Cambridge 
# Structural Database, then it will include bibliographic, chemical, 
# crystal, experimental, refinement or atomic coordinate data resulting 
# from the CCDC's data processing and validation procedures.
#
#######################################################################

data_ROZMAV
_chemical_formula_moiety         'C40 H44 N24 O12,C9 H9 N2 1+,Cl1 1-,23(H2 O1)'
_chemical_name_systematic        
"\a,\a',\f,\f'-Tetramethylcucurbit(6)uril 2-phenylimidazole clathrate hydrogen chloride tricosahydrate"
_symmetry_cell_setting           triclinic
_symmetry_space_group_name_H-M   'P -1'
_symmetry_Int_Tables_number      2
_space_group_name_Hall           '-P 1'
loop_
_symmetry_equiv_pos_site_id
_symmetry_equiv_pos_as_xyz
1 x,y,z
2 -x,-y,-z
_cell_length_a                   12.1844(13)
_cell_length_b                   12.8088(14)
_cell_length_c                   23.441(3)
_cell_angle_alpha                90.0160(10)
_cell_angle_beta                 102.2460(10)
_cell_angle_gamma                91.9840(10)
_cell_volume                     3572.88
_cell_formula_units_Z            2
_exptl_crystal_recrystallization_method ethanol
loop_
_atom_site_label
_atom_site_type_symbol
_atom_site_fract_x
_atom_site_fract_y
_atom_site_fract_z
O1 O 0.4642(3) 0.1051(3) 0.49658(15)
O2 O -0.1720(3) 0.0875(3) 0.13975(18)
O3 O 0.1818(4) 0.1781(3) 0.36768(17)
O4 O 0.7323(4) 0.8154(4) 0.3743(2)
O5 O -0.3024(3) 0.2021(3) 0.04784(18)
O6 O -0.1204(4) 0.8956(4) 0.09765(17)
O7 O 0.6744(3) 0.7861(3) 0.06782(17)
O8 O 0.1417(3) 0.5441(4) 0.52966(18)
O9 O 0.6909(4) 0.5858(3) 0.0308(2)
O10 O -0.3401(4) 0.4044(4) 0.0780(2)
O11 O 0.8701(4) 0.6695(4) 0.44624(19)
O12 O 0.0596(4) 0.8102(4) 0.4713(2)
O13 O 0.7495(4) 0.1702(4) 0.4362(2)
O14 O 0.0031(4) 0.3586(4) 0.4109(2)
O15 O 0.6771(4) 0.7678(5) 0.1852(2)
O16 O 0.7243(5) 0.9532(4) 0.4619(2)
O17 O -0.5115(4) 0.1040(3) 0.0064(3)
O18 O -0.1818(5) 0.0820(5) 0.2539(3)
O19 O -0.2464(7) -0.1214(7) 0.2723(4)
O20 O 0.2289(5) 0.3041(4) 0.4612(2)
O21 O -0.0871(5) 0.1618(5) 0.3665(3)
O22 O -0.0640(7) 0.9398(6) 0.5334(3)
Cl1 Cl 0.0000 0.0000 0.0000
Cl2 Cl 0.1339(3) 0.7838(3) 0.01444(13)
C1 C 0.4143(3) 0.2329(3) 0.12389(15)
C2 C 0.4421(3) 0.0821(3) 0.18191(15)
C3 C 0.3167(3) 0.0800(3) 0.14362(15)
C4 C 0.3125(3) 0.0771(3) 0.24379(15)
C5 C 0.5133(4) -0.0074(3) 0.17131(18)
H1 H 0.5247 -0.0044 0.1320
H2 H 0.4757 -0.0725 0.1770
H3 H 0.5847 -0.0022 0.1982
C6 C 0.2846(3) -0.0121(3) 0.10272(17)
H4 H 0.2870 -0.0752 0.1249
H5 H 0.3364 -0.0154 0.0772
H6 H 0.2100 -0.0042 0.0800
C7 C 0.2228(3) 0.2116(3) 0.06562(15)
H7 H 0.2540 0.2533 0.0380
H8 H 0.1857 0.1501 0.0450
C8 C 0.1283(3) 0.0808(3) 0.17810(17)
H9 H 0.1046 0.0512 0.2118
H10 H 0.0969 0.0363 0.1447
C9 C 0.1252(3) 0.3753(3) 0.07685(15)
C10 C 0.0496(3) 0.2221(3) 0.10866(15)
H11 H 0.0091 0.1679 0.0821
C11 C -0.0260(3) 0.3137(3) 0.11479(15)
H12 H -0.1014 0.3034 0.0902
C12 C 0.0286(3) 0.2316(3) 0.20515(16)
C13 C -0.0199(3) 0.5025(3) 0.08226(15)
H13 H 0.0192 0.5404 0.0563
H14 H -0.0968 0.4892 0.0614
C14 C -0.1132(3) 0.3673(3) 0.19877(17)
H15 H -0.1837 0.3622 0.1703
H16 H -0.1246 0.3331 0.2341
C15 C 0.0469(3) 0.6568(3) 0.14464(15)
C16 C -0.1021(3) 0.5584(3) 0.16866(15)
H17 H -0.1790 0.5546 0.1452
C17 C -0.0798(3) 0.6599(3) 0.20646(15)
H18 H -0.1433 0.7064 0.1972
C18 C -0.0706(3) 0.5147(3) 0.26758(15)
C19 C 0.0606(3) 0.8116(3) 0.20800(16)
H19 H -0.0026 0.8530 0.2120
H20 H 0.0925 0.8418 0.1770
C20 C -0.0445(3) 0.6870(3) 0.31695(16)
H21 H -0.0911 0.7474 0.3089
H22 H -0.0678 0.6486 0.3483
C21 C 0.2554(3) 0.8228(3) 0.26213(16)
C22 C 0.1208(3) 0.8206(3) 0.32099(15)
C23 C 0.2435(3) 0.8218(3) 0.36099(15)
C24 C 0.1415(3) 0.6720(3) 0.38079(15)
C25 C 0.0518(3) 0.9139(3) 0.32829(17)
H23 H 0.0877 0.9762 0.3171
H24 H 0.0460 0.9198 0.3684
H25 H -0.0220 0.9048 0.3040
C26 C 0.2731(3) 0.9139(3) 0.40307(17)
H26 H 0.2251 0.9113 0.4307
H27 H 0.2627 0.9780 0.3817
H28 H 0.3500 0.9105 0.4234
C27 C 0.4359(3) 0.8231(3) 0.33122(18)
H29 H 0.4643 0.8681 0.3648
H30 H 0.4629 0.8523 0.2983
C28 C 0.3309(3) 0.6908(3) 0.44045(15)
H31 H 0.3649 0.7528 0.4618
H32 H 0.2965 0.6486 0.4667
C29 C 0.5376(3) 0.6729(3) 0.30648(16)
C30 C 0.5111(3) 0.6800(3) 0.40205(15)
H33 H 0.5530 0.7325 0.4294
C31 C 0.5840(3) 0.5861(3) 0.39498(15)
H34 H 0.6577 0.5917 0.4217
C32 C 0.4271(3) 0.5264(3) 0.42960(14)
C33 C 0.6770(3) 0.5368(3) 0.31227(17)
H35 H 0.7462 0.5375 0.3418
H36 H 0.6924 0.5739 0.2786
C34 C 0.5668(3) 0.3958(3) 0.42072(15)
H37 H 0.5252 0.3569 0.4452
H38 H 0.6435 0.4060 0.4426
C35 C 0.6264(3) 0.3946(3) 0.23894(16)
C36 C 0.6563(3) 0.3450(3) 0.33703(15)
H39 H 0.7306 0.3475 0.3633
C37 C 0.6388(3) 0.2465(3) 0.29785(15)
H40 H 0.7058 0.2042 0.3050
C38 C 0.5099(3) 0.2405(3) 0.35871(15)
C39 C 0.6007(3) 0.2233(3) 0.18747(15)
H41 H 0.6501 0.1650 0.1959
H42 H 0.6235 0.2636 0.1566
C40 C 0.5088(3) 0.0861(3) 0.29492(16)
H43 H 0.4797 0.0510 0.3256
H44 H 0.5737 0.0489 0.2892
N1 N 0.4873(3) 0.1829(2) 0.16636(13)
N2 N 0.3143(2) 0.1786(2) 0.11178(12)
N3 N 0.4235(3) 0.0806(2) 0.24135(13)
N4 N 0.2497(3) 0.0804(2) 0.18816(13)
N5 N 0.1399(2) 0.2715(2) 0.08589(13)
N6 N 0.0332(2) 0.4028(2) 0.09643(13)
N7 N 0.0832(2) 0.1839(2) 0.16754(13)
N8 N -0.0288(3) 0.3128(2) 0.17632(13)
N9 N -0.0207(3) 0.5676(2) 0.13242(13)
N10 N 0.0199(3) 0.7064(2) 0.19131(13)
N11 N -0.0840(3) 0.4758(2) 0.21164(13)
N12 N -0.0651(3) 0.6209(2) 0.26522(13)
N13 N 0.1442(3) 0.8182(2) 0.26189(12)
N14 N 0.3153(3) 0.8229(2) 0.31834(13)
N15 N 0.0712(2) 0.7230(2) 0.33679(12)
N16 N 0.2438(3) 0.7223(2) 0.39185(12)
N17 N 0.4804(3) 0.7202(2) 0.34328(13)
N18 N 0.5939(3) 0.5923(2) 0.33481(13)
N19 N 0.4183(3) 0.6322(2) 0.42355(13)
N20 N 0.5179(2) 0.4966(2) 0.40856(12)
N21 N 0.6445(3) 0.4298(2) 0.29546(13)
N22 N 0.6159(3) 0.2883(2) 0.23905(13)
N23 N 0.5674(3) 0.3344(2) 0.36902(12)
N24 N 0.5444(3) 0.1914(2) 0.31383(13)
O23 O 0.4358(2) 0.3142(2) 0.10004(11)
O24 O 0.1842(2) 0.4346(2) 0.05378(11)
O25 O 0.1187(2) 0.6863(2) 0.11849(11)
O26 O 0.2965(2) 0.8272(2) 0.21839(11)
O27 O 0.5372(2) 0.7005(2) 0.25634(12)
O28 O 0.6228(2) 0.4495(2) 0.19597(11)
O29 O 0.2752(2) 0.0700(2) 0.28779(11)
O30 O 0.0299(2) 0.2062(2) 0.25551(12)
O31 O -0.0684(2) 0.4620(2) 0.31105(11)
O32 O 0.1153(2) 0.5935(2) 0.40497(11)
O33 O 0.3667(2) 0.4694(2) 0.45222(12)
O34 O 0.4405(2) 0.2055(2) 0.38497(12)
C41 C 0.4071(4) 0.6950(4) 0.1005(2)
H45 H 0.4157 0.7607 0.0848
C42 C 0.2443(4) 0.4047(3) 0.2923(2)
H46 H 0.2184 0.3693 0.3218
C43 C 0.2226(5) 0.5085(4) 0.2818(2)
H47 H 0.1809 0.5433 0.3044
C44 C 0.3053(4) 0.3549(4) 0.2582(2)
H48 H 0.3201 0.2846 0.2642
C45 C 0.2611(4) 0.5618(4) 0.2387(2)
H49 H 0.2452 0.6319 0.2325
C46 C 0.3449(4) 0.4082(3) 0.2148(2)
H50 H 0.3868 0.3733 0.1924
C47 C 0.3233(3) 0.5126(3) 0.20429(18)
C48 C 0.3639(3) 0.5691(3) 0.15757(17)
C49 C 0.4363(4) 0.6022(4) 0.0803(2)
H51 H 0.4692 0.5925 0.0484
N25 N 0.4084(3) 0.5278(3) 0.11525(16)
H52 H 0.4178 0.4622 0.1112
N26 N 0.3634(3) 0.6730(3) 0.14777(16)
H53 H 0.3388 0.7185 0.1685
O35? O -0.2207(4) -0.0101(6) 0.2640(2)
loop_
_geom_bond_atom_site_label_1
_geom_bond_atom_site_label_2
_geom_bond_site_symmetry_1
_geom_bond_site_symmetry_2
C1 N1 1_555 1_555
C2 C3 1_555 1_555
C3 C6 1_555 1_555
C4 N3 1_555 1_555
C5 C2 1_555 1_555
H1 C5 1_555 1_555
H2 C5 1_555 1_555
H3 C5 1_555 1_555
C6 H4 1_555 1_555
H5 C6 1_555 1_555
H6 C6 1_555 1_555
C7 H7 1_555 1_555
H8 C7 1_555 1_555
C8 H9 1_555 1_555
H10 C8 1_555 1_555
C9 N5 1_555 1_555
C10 H11 1_555 1_555
C11 C10 1_555 1_555
H12 C11 1_555 1_555
C12 N7 1_555 1_555
C13 H13 1_555 1_555
H14 C13 1_555 1_555
C14 H15 1_555 1_555
H16 C14 1_555 1_555
C15 N9 1_555 1_555
C16 H17 1_555 1_555
C17 C16 1_555 1_555
H18 C17 1_555 1_555
C18 N11 1_555 1_555
C19 H19 1_555 1_555
H20 C19 1_555 1_555
C20 H21 1_555 1_555
H22 C20 1_555 1_555
C21 N13 1_555 1_555
C22 C23 1_555 1_555
C23 C26 1_555 1_555
C24 N15 1_555 1_555
C25 C22 1_555 1_555
H23 C25 1_555 1_555
H24 C25 1_555 1_555
H25 C25 1_555 1_555
C26 H26 1_555 1_555
H27 C26 1_555 1_555
H28 C26 1_555 1_555
C27 H29 1_555 1_555
H30 C27 1_555 1_555
C28 H31 1_555 1_555
H32 C28 1_555 1_555
C29 N17 1_555 1_555
C30 H33 1_555 1_555
C31 C30 1_555 1_555
H34 C31 1_555 1_555
C32 N19 1_555 1_555
C33 H35 1_555 1_555
H36 C33 1_555 1_555
C34 H37 1_555 1_555
H38 C34 1_555 1_555
C35 N21 1_555 1_555
C36 H39 1_555 1_555
C37 C36 1_555 1_555
H40 C37 1_555 1_555
C38 N23 1_555 1_555
C39 H41 1_555 1_555
H42 C39 1_555 1_555
C40 H43 1_555 1_555
H44 C40 1_555 1_555
N1 C2 1_555 1_555
N2 C1 1_555 1_555
N3 C2 1_555 1_555
N4 C3 1_555 1_555
N5 C7 1_555 1_555
N6 C9 1_555 1_555
N7 C8 1_555 1_555
N8 C11 1_555 1_555
N9 C13 1_555 1_555
N10 C15 1_555 1_555
N11 C14 1_555 1_555
N12 C17 1_555 1_555
N13 C19 1_555 1_555
N14 C21 1_555 1_555
N15 C20 1_555 1_555
N16 C23 1_555 1_555
N17 C27 1_555 1_555
N18 C29 1_555 1_555
N19 C28 1_555 1_555
N20 C31 1_555 1_555
N21 C33 1_555 1_555
N22 C35 1_555 1_555
N23 C34 1_555 1_555
N24 C37 1_555 1_555
O23 C1 1_555 1_555
O24 C9 1_555 1_555
O25 C15 1_555 1_555
O26 C21 1_555 1_555
O27 C29 1_555 1_555
O28 C35 1_555 1_555
O29 C4 1_555 1_555
O30 C12 1_555 1_555
O31 C18 1_555 1_555
O32 C24 1_555 1_555
O33 C32 1_555 1_555
O34 C38 1_555 1_555
C41 H45 1_555 1_555
C42 H46 1_555 1_555
C43 C42 1_555 1_555
H47 C43 1_555 1_555
C44 C42 1_555 1_555
H48 C44 1_555 1_555
C45 C43 1_555 1_555
H49 C45 1_555 1_555
C46 C44 1_555 1_555
H50 C46 1_555 1_555
C47 C45 1_555 1_555
C48 C47 1_555 1_555
C49 C41 1_555 1_555
H51 C49 1_555 1_555
N25 C48 1_555 1_555
H52 N25 1_555 1_555
N26 C41 1_555 1_555
H53 N26 1_555 1_555
C3 N2 1_555 1_555
C4 N4 1_555 1_555
C7 N2 1_555 1_555
C8 N4 1_555 1_555
C10 N5 1_555 1_555
C10 N7 1_555 1_555
C11 N6 1_555 1_555
C12 N8 1_555 1_555
C13 N6 1_555 1_555
C14 N8 1_555 1_555
C16 N9 1_555 1_555
C16 N11 1_555 1_555
C17 N10 1_555 1_555
C18 N12 1_555 1_555
C19 N10 1_555 1_555
C20 N12 1_555 1_555
C22 N13 1_555 1_555
C22 N15 1_555 1_555
C23 N14 1_555 1_555
C24 N16 1_555 1_555
C27 N14 1_555 1_555
C28 N16 1_555 1_555
C30 N17 1_555 1_555
C30 N19 1_555 1_555
C31 N18 1_555 1_555
C32 N20 1_555 1_555
C33 N18 1_555 1_555
C34 N20 1_555 1_555
C36 N21 1_555 1_555
C36 N23 1_555 1_555
C37 N22 1_555 1_555
C38 N24 1_555 1_555
C39 N1 1_555 1_555
C39 N22 1_555 1_555
C40 N3 1_555 1_555
C40 N24 1_555 1_555
C46 C47 1_555 1_555
C48 N26 1_555 1_555
C49 N25 1_555 1_555

#END
