
#######################################################################
#
#                 Cambridge Crystallographic Data Centre
#                                CCDC 
#
#######################################################################
#
# If this CIF has been generated from an entry in the Cambridge 
# Structural Database, then it will include bibliographic, chemical, 
# crystal, experimental, refinement or atomic coordinate data resulting 
# from the CCDC's data processing and validation procedures.
#
#######################################################################

data_ROZXAG
_chemical_name_common            'DL-Propranolol nitrate'
_chemical_formula_moiety         'C16 H22 N1 O2 1+,N1 O3 1-'
_chemical_name_systematic        
'rac-2-Hydroxy-N-isopropyl-3-(1-naphthyloxy)-1-propanaminium nitrate'
_chemical_properties_biological  'propranolol is a beta-blocker'
_symmetry_cell_setting           triclinic
_symmetry_space_group_name_H-M   'P -1'
_symmetry_Int_Tables_number      2
_space_group_name_Hall           '-P 1'
loop_
_symmetry_equiv_pos_site_id
_symmetry_equiv_pos_as_xyz
1 x,y,z
2 -x,-y,-z
_cell_length_a                   12.0927(3)
_cell_length_b                   13.0776(3)
_cell_length_c                   13.3194(3)
_cell_angle_alpha                69.5390(10)
_cell_angle_beta                 64.6640(10)
_cell_angle_gamma                64.4180(10)
_cell_volume                     1681.69
_exptl_crystal_colour            colorless
_exptl_crystal_description       block
_cell_formula_units_Z            4
loop_
_atom_site_label
_atom_site_type_symbol
_atom_site_fract_x
_atom_site_fract_y
_atom_site_fract_z
C1 C 0.4183(2) -0.0249(2) 0.2188(2)
C2 C 0.5155(3) -0.0931(2) 0.1451(3)
H1 H 0.5712 -0.0619 0.0799
C3 C 0.5308(3) -0.2109(3) 0.1685(3)
H2 H 0.5983 -0.2574 0.1188
C4 C 0.4511(4) -0.2576(3) 0.2603(3)
H3 H 0.4629 -0.3358 0.2735
C5 C 0.2613(5) -0.2342(3) 0.4356(4)
H4 H 0.269 -0.3114 0.4496
C6 C 0.1679(5) -0.1676(4) 0.5085(4)
H5 H 0.111 -0.1991 0.5722
C7 C 0.1539(4) -0.0513(4) 0.4911(3)
H6 H 0.09 -0.007 0.5442
C8 C 0.2337(3) -0.0034(3) 0.3965(3)
H7 H 0.2229 0.0744 0.3841
C9 C 0.3325(3) -0.0702(2) 0.3171(2)
C10 C 0.3486(3) -0.1889(3) 0.3374(3)
C11 C 0.4977(3) 0.1348(2) 0.1274(3)
H8 H 0.4993 0.1508 0.05
H9 H 0.5805 0.0783 0.133
C12 C 0.4744(2) 0.2453(2) 0.1583(2)
H10 H 0.5522 0.2678 0.1145
C13 C 0.4570(3) 0.2224(2) 0.2819(2)
H11 H 0.3803 0.2002 0.3268
H12 H 0.5311 0.1581 0.2977
C14 C 0.4531(5) 0.3030(3) 0.4304(3)
H13 H 0.5469 0.2643 0.4138
C15 C 0.4111(11) 0.2229(7) 0.5142(5)
H14 H 0.3976 0.2369 0.5854
H15 H 0.4746 0.1478 0.5048
H16 H 0.3309 0.226 0.5131
C16 C 0.4384(5) 0.4114(3) 0.4543(4)
H17 H 0.3542 0.4667 0.4548
H18 H 0.504 0.4424 0.3966
H19 H 0.4475 0.3955 0.5269
N1 N 0.4438(3) 0.32404(19) 0.31665(19)
O1 O 0.39520(17) 0.09084(15) 0.20389(18)
O2 O 0.36933(19) 0.33696(17) 0.13294(17)
H20 H 0.3932 0.3702 0.0667
H21 H 0.504(3) 0.350(3) 0.267(3)
H22 H 0.378(3) 0.374(3) 0.311(2)
C17 C 0.1713(2) 0.8868(2) 0.0567(2)
C18 C 0.1690(3) 0.9477(2) 0.1223(3)
H23 H 0.1715 0.9131 0.1957
C19 C 0.1629(3) 1.0647(3) 0.0773(4)
H24 H 0.161 1.1071 0.1218
C20 C 0.1597(3) 1.1158(2) -0.0295(4)
H25 H 0.1536 1.1933 -0.0567
C21 C 0.1700(3) 1.1013(3) -0.2137(3)
H26 H 0.167 1.1779 -0.2439
C22 C 0.1785(4) 1.0386(3) -0.2801(3)
H27 H 0.1833 1.0718 -0.3553
C23 C 0.1803(3) 0.9247(3) -0.2365(3)
H28 H 0.1848 0.8823 -0.2823
C24 C 0.1753(3) 0.8752(2) -0.1270(3)
H29 H 0.1763 0.7991 -0.0985
C25 C 0.1688(2) 0.9374(2) -0.0562(2)
C26 C 0.1656(2) 1.0539(2) -0.0995(3)
C27 C 0.1863(3) 0.7148(2) 0.1992(2)
H30 H 0.1099 0.7514 0.2569
H31 H 0.2624 0.7151 0.2069
C28 C 0.1954(2) 0.59278(19) 0.2110(2)
H32 H 0.2704 0.5608 0.1484
C29 C 0.0753(2) 0.59133(19) 0.2019(2)
H33 H 0.0004 0.6188 0.2654
H34 H 0.0608 0.6433 0.1326
C30 C -0.0106(3) 0.4662(2) 0.1683(2)
H35 H -0.009 0.5161 0.0934
C31 C -0.1437(3) 0.5080(3) 0.2497(3)
H36 H -0.205 0.4998 0.2278
H37 H -0.1656 0.588 0.2491
H38 H -0.1462 0.4631 0.3247
C32 C 0.0297(4) 0.3430(3) 0.1579(3)
H39 H 0.0322 0.2922 0.2298
H40 H 0.1143 0.3225 0.1021
H41 H -0.0315 0.3359 0.1351
N2 N 0.0891(2) 0.47396(17) 0.2014(2)
O3 O 0.17827(19) 0.77395(14) 0.08938(16)
O4 O 0.21657(18) 0.52323(15) 0.31370(15)
H42 H 0.1585 0.5523 0.367
H43 H 0.079(3) 0.442(3) 0.269(3)
H44 H 0.162(3) 0.451(3) 0.149(3)
N3 N 0.3404(2) 0.5284(2) -0.10468(19)
O5 O 0.4453(3) 0.4788(3) -0.0885(2)
O6 O 0.3339(3) 0.6046(2) -0.1920(2)
O7 O 0.2447(3) 0.5037(3) -0.03961(19)
N4 N 0.0504(3) 0.33400(19) 0.48208(19)
O8 O -0.0517(2) 0.4135(2) 0.4795(2)
O9 O 0.1272(3) 0.2999(2) 0.39432(19)
O10 O 0.0766(3) 0.2929(3) 0.5696(2)
loop_
_geom_bond_atom_site_label_1
_geom_bond_atom_site_label_2
_geom_bond_site_symmetry_1
_geom_bond_site_symmetry_2
C1 C2 1_555 1_555
C2 H1 1_555 1_555
C3 C2 1_555 1_555
H2 C3 1_555 1_555
C4 C3 1_555 1_555
H3 C4 1_555 1_555
C5 H4 1_555 1_555
C6 C5 1_555 1_555
H5 C6 1_555 1_555
C7 C6 1_555 1_555
H6 C7 1_555 1_555
C8 C7 1_555 1_555
H7 C8 1_555 1_555
C9 C1 1_555 1_555
C10 C4 1_555 1_555
C11 H8 1_555 1_555
H9 C11 1_555 1_555
C12 C11 1_555 1_555
H10 C12 1_555 1_555
C13 C12 1_555 1_555
H11 C13 1_555 1_555
H12 C13 1_555 1_555
C14 H13 1_555 1_555
C15 C14 1_555 1_555
H14 C15 1_555 1_555
H15 C15 1_555 1_555
H16 C15 1_555 1_555
C16 C14 1_555 1_555
H17 C16 1_555 1_555
H18 C16 1_555 1_555
H19 C16 1_555 1_555
N1 C13 1_555 1_555
O1 C1 1_555 1_555
O2 C12 1_555 1_555
H20 O2 1_555 1_555
H21 N1 1_555 1_555
H22 N1 1_555 1_555
C17 C18 1_555 1_555
C18 H23 1_555 1_555
C19 C18 1_555 1_555
H24 C19 1_555 1_555
C20 C19 1_555 1_555
H25 C20 1_555 1_555
C21 H26 1_555 1_555
C22 C21 1_555 1_555
H27 C22 1_555 1_555
C23 C22 1_555 1_555
H28 C23 1_555 1_555
C24 C23 1_555 1_555
H29 C24 1_555 1_555
C25 C17 1_555 1_555
C26 C20 1_555 1_555
C27 H30 1_555 1_555
H31 C27 1_555 1_555
C28 C27 1_555 1_555
H32 C28 1_555 1_555
C29 C28 1_555 1_555
H33 C29 1_555 1_555
H34 C29 1_555 1_555
C30 H35 1_555 1_555
C31 C30 1_555 1_555
H36 C31 1_555 1_555
H37 C31 1_555 1_555
H38 C31 1_555 1_555
C32 C30 1_555 1_555
H39 C32 1_555 1_555
H40 C32 1_555 1_555
H41 C32 1_555 1_555
N2 C29 1_555 1_555
O3 C17 1_555 1_555
O4 C28 1_555 1_555
H42 O4 1_555 1_555
H43 N2 1_555 1_555
H44 N2 1_555 1_555
N3 O5 1_555 1_555
O6 N3 1_555 1_555
O7 N3 1_555 1_555
N4 O8 1_555 1_555
O9 N4 1_555 1_555
O10 N4 1_555 1_555
C5 C10 1_555 1_555
C8 C9 1_555 1_555
C9 C10 1_555 1_555
C11 O1 1_555 1_555
C14 N1 1_555 1_555
C21 C26 1_555 1_555
C24 C25 1_555 1_555
C25 C26 1_555 1_555
C27 O3 1_555 1_555
C30 N2 1_555 1_555

#END
