
#######################################################################
#
#                 Cambridge Crystallographic Data Centre
#                                CCDC 
#
#######################################################################
#
# If this CIF has been generated from an entry in the Cambridge 
# Structural Database, then it will include bibliographic, chemical, 
# crystal, experimental, refinement or atomic coordinate data resulting 
# from the CCDC's data processing and validation procedures.
#
#######################################################################

data_RUBFUS02
_chemical_compound_source        'Senna obliqua'
_chemical_name_common            Rubrofusarin
_chemical_formula_moiety         'C15 H12 O5'
_chemical_name_systematic        
5,6-Dihydroxy-8-methoxy-2-methyl-4H-naphtho(2,3-b)pyran-4-one
_chemical_properties_biological  
'minimum inhibitory activity against Mycobacteria tuberculosis'
_symmetry_cell_setting           monoclinic
_symmetry_space_group_name_H-M   'P 21/c'
_symmetry_Int_Tables_number      14
_space_group_name_Hall           '-P 2ybc'
loop_
_symmetry_equiv_pos_site_id
_symmetry_equiv_pos_as_xyz
1 x,y,z
2 x,1/2-y,1/2+z
3 -x,-y,-z
4 -x,1/2+y,1/2-z
_cell_length_a                   7.442(7)
_cell_length_b                   22.88(2)
_cell_length_c                   7.023(7)
_cell_angle_alpha                90
_cell_angle_beta                 97.7660(10)
_cell_angle_gamma                90
_cell_volume                     1184.86
_exptl_crystal_colour            orange
_exptl_crystal_description       plate
_chemical_melting_point          212-214deg.C
_cell_formula_units_Z            4
_exptl_crystal_recrystallization_method methanol
loop_
_atom_site_label
_atom_site_type_symbol
_atom_site_fract_x
_atom_site_fract_y
_atom_site_fract_z
C1 C 0.1335(3) 0.17156(10) -0.0054(3)
H1 H 0.1784 0.2113 -0.0206
H2 H 0.0469 0.1717 0.0880
H3 H 0.0733 0.1573 -0.1295
C2 C 0.2881(3) 0.13254(9) 0.0640(3)
O1 O 0.2282(2) 0.07816(6) 0.1018(2)
C3 C 0.4637(3) 0.14776(9) 0.0873(3)
H4 H 0.4968 0.1864 0.0570
C4 C 0.6022(3) 0.10662(9) 0.1571(3)
O2 O 0.7687(2) 0.11883(6) 0.1800(2)
C5 C 0.5385(3) 0.04931(9) 0.2031(3)
C6 C 0.6598(3) 0.00590(9) 0.2769(3)
O3 O 0.83843(19) 0.01782(6) 0.3061(2)
H5 H 0.8561 0.0518 0.2675
C7 C 0.5977(3) -0.04990(9) 0.3238(3)
C8 C 0.7165(3) -0.09595(9) 0.4009(3)
O4 O 0.8993(2) -0.08899(6) 0.4320(2)
H6 H 0.9252 -0.0538 0.4150
C9 C 0.6484(3) -0.14862(9) 0.4447(3)
H7 H 0.7285 -0.1790 0.4938
C10 C 0.4601(3) -0.15844(9) 0.4179(3)
O5 O 0.4109(2) -0.21265(6) 0.4754(2)
C11 C 0.3405(3) -0.11600(9) 0.3445(3)
H8 H 0.2138 -0.1235 0.3275
C12 C 0.4068(3) -0.06102(9) 0.2942(3)
C13 C 0.2851(3) -0.01691(9) 0.2183(3)
H9 H 0.1583 -0.0242 0.1973
C14 C 0.3521(3) 0.03641(9) 0.1754(3)
C15 C 0.2221(3) -0.22379(10) 0.4717(3)
H10 H 0.1716 -0.1963 0.5576
H11 H 0.2046 -0.2639 0.5146
H12 H 0.1601 -0.2188 0.3405
loop_
_geom_bond_atom_site_label_1
_geom_bond_atom_site_label_2
_geom_bond_site_symmetry_1
_geom_bond_site_symmetry_2
C1 H1 1_555 1_555
H2 C1 1_555 1_555
H3 C1 1_555 1_555
C2 C1 1_555 1_555
O1 C2 1_555 1_555
C3 C2 1_555 1_555
H4 C3 1_555 1_555
C4 C3 1_555 1_555
O2 C4 1_555 1_555
C5 C4 1_555 1_555
C6 C5 1_555 1_555
O3 C6 1_555 1_555
H5 O3 1_555 1_555
C7 C6 1_555 1_555
C8 C7 1_555 1_555
O4 C8 1_555 1_555
H6 O4 1_555 1_555
C9 C8 1_555 1_555
H7 C9 1_555 1_555
C10 C9 1_555 1_555
O5 C10 1_555 1_555
C11 C10 1_555 1_555
H8 C11 1_555 1_555
C12 C7 1_555 1_555
C13 C12 1_555 1_555
H9 C13 1_555 1_555
C14 O1 1_555 1_555
C15 O5 1_555 1_555
H10 C15 1_555 1_555
H11 C15 1_555 1_555
H12 C15 1_555 1_555
C5 C14 1_555 1_555
C11 C12 1_555 1_555
C13 C14 1_555 1_555

#END
