
#######################################################################
#
#                 Cambridge Crystallographic Data Centre
#                                CCDC 
#
#######################################################################
#
# If this CIF has been generated from an entry in the Cambridge 
# Structural Database, then it will include bibliographic, chemical, 
# crystal, experimental, refinement or atomic coordinate data resulting 
# from the CCDC's data processing and validation procedures.
#
#######################################################################

data_RUBGEC
_chemical_formula_moiety         'C29 H24 N2 S1'
_chemical_name_systematic        
1-(4-t-Butylphenyl)-2-(2-thienyl)-1H-phenanthro[9,10-d]imidazole
_symmetry_cell_setting           monoclinic
_symmetry_space_group_name_H-M   'P 21/n'
_symmetry_Int_Tables_number      14
_space_group_name_Hall           '-P 2yn'
loop_
_symmetry_equiv_pos_site_id
_symmetry_equiv_pos_as_xyz
1 x,y,z
2 1/2-x,1/2+y,1/2-z
3 -x,-y,-z
4 1/2+x,1/2-y,1/2+z
_cell_length_a                   8.6586(3)
_cell_length_b                   22.4244(8)
_cell_length_c                   12.0588(4)
_cell_angle_alpha                90
_cell_angle_beta                 100.455(3)
_cell_angle_gamma                90
_cell_volume                     2302.51
_cell_formula_units_Z            4
loop_
_atom_site_label
_atom_site_type_symbol
_atom_site_fract_x
_atom_site_fract_y
_atom_site_fract_z
S1 S 0.19192(17) 0.10582(6) 0.52542(11)
N1 N 0.2031(3) -0.01428(13) 0.6207(2)
N2 N -0.0039(3) -0.01146(12) 0.7081(2)
C1 C 0.1877(4) -0.06773(15) 0.6714(3)
C2 C 0.0621(4) -0.06824(15) 0.7261(3)
C3 C -0.1247(4) 0.01441(15) 0.7602(3)
C4 C 0.0871(4) 0.01840(15) 0.6441(3)
C5 C 0.2459(4) -0.17117(16) 0.7264(3)
C6 C 0.1086(4) -0.17154(16) 0.7821(3)
C7 C -0.3930(4) 0.04179(17) 0.7560(3)
H1 H -0.4973 0.0409 0.7196
C8 C 0.2859(4) -0.11969(16) 0.6711(3)
C9 C -0.3546(4) 0.07042(15) 0.8598(3)
C10 C -0.4747(4) 0.10507(18) 0.9148(3)
C11 C 0.0138(4) -0.11960(16) 0.7827(3)
C12 C 0.0612(4) 0.07977(16) 0.6045(3)
C13 C -0.0845(4) 0.04109(18) 0.8649(3)
H2 H 0.0191 0.0403 0.9027
C14 C -0.2802(4) 0.01467(17) 0.7060(3)
H3 H -0.3085 -0.0034 0.6358
C15 C -0.1974(4) 0.06874(19) 0.9129(3)
H4 H -0.1684 0.0869 0.9830
C16 C -0.0249(6) 0.17732(19) 0.5556(4)
H5 H -0.0839 0.2122 0.5477
C17 C 0.4177(4) -0.11898(19) 0.6186(4)
H6 H 0.4421 -0.0851 0.5809
C18 C -0.1176(5) -0.12207(19) 0.8346(3)
H7 H -0.1795 -0.0883 0.8358
C19 C 0.3436(5) -0.2218(2) 0.7264(4)
H8 H 0.3190 -0.2567 0.7608
C20 C 0.0982(5) 0.17170(19) 0.5053(4)
H9 H 0.1304 0.2020 0.4620
C21 C 0.0643(5) -0.22234(19) 0.8347(4)
H10 H 0.1258 -0.2564 0.8365
C22 C -0.0669(6) -0.2241(2) 0.8840(4)
H11 H -0.0945 -0.2591 0.9169
C23 C 0.5101(6) -0.1690(2) 0.6237(5)
H12 H 0.5994 -0.1684 0.5908
C24 C -0.1565(6) -0.1739(2) 0.8842(4)
H13 H -0.2447 -0.1747 0.9183
C25 C 0.4722(6) -0.2201(2) 0.6771(5)
H14 H 0.5357 -0.2537 0.6792
C26 C -0.6409(5) 0.0965(3) 0.8558(5)
H15 H -0.6516 0.1101 0.7793
H16 H -0.7099 0.1189 0.8939
H17 H -0.6676 0.0550 0.8563
C27 C -0.4647(7) 0.0865(3) 1.0383(4)
H18 H -0.5039 0.0466 1.0414
H19 H -0.5267 0.1132 1.0745
H20 H -0.3573 0.0880 1.0764
C28 C -0.4297(8) 0.1717(2) 0.9176(6)
H21 H -0.3256 0.1766 0.9604
H22 H -0.5027 0.1941 0.9521
H23 H -0.4326 0.1857 0.8420
C29 C -0.0684(4) 0.12586(13) 0.6267(3)
H24 H -0.1469 0.1226 0.6697
loop_
_geom_bond_atom_site_label_1
_geom_bond_atom_site_label_2
_geom_bond_site_symmetry_1
_geom_bond_site_symmetry_2
S1 C12 1_555 1_555
N1 C1 1_555 1_555
N2 C2 1_555 1_555
C1 C2 1_555 1_555
C2 C11 1_555 1_555
C3 N2 1_555 1_555
C4 N1 1_555 1_555
C5 C6 1_555 1_555
C6 C11 1_555 1_555
C7 H1 1_555 1_555
C8 C1 1_555 1_555
C9 C7 1_555 1_555
C10 C9 1_555 1_555
C11 C18 1_555 1_555
C12 C4 1_555 1_555
C13 C3 1_555 1_555
H2 C13 1_555 1_555
C14 C3 1_555 1_555
H3 C14 1_555 1_555
C15 C9 1_555 1_555
H4 C15 1_555 1_555
C16 H5 1_555 1_555
C17 C8 1_555 1_555
H6 C17 1_555 1_555
C18 H7 1_555 1_555
C19 C5 1_555 1_555
H8 C19 1_555 1_555
C20 S1 1_555 1_555
H9 C20 1_555 1_555
C21 C6 1_555 1_555
H10 C21 1_555 1_555
C22 C21 1_555 1_555
H11 C22 1_555 1_555
C23 C17 1_555 1_555
H12 C23 1_555 1_555
C24 C18 1_555 1_555
H13 C24 1_555 1_555
C25 C19 1_555 1_555
H14 C25 1_555 1_555
C26 C10 1_555 1_555
H15 C26 1_555 1_555
H16 C26 1_555 1_555
H17 C26 1_555 1_555
C27 C10 1_555 1_555
H18 C27 1_555 1_555
H19 C27 1_555 1_555
H20 C27 1_555 1_555
C28 C10 1_555 1_555
H21 C28 1_555 1_555
H22 C28 1_555 1_555
H23 C28 1_555 1_555
C29 C12 1_555 1_555
H24 C29 1_555 1_555
N2 C4 1_555 1_555
C5 C8 1_555 1_555
C7 C14 1_555 1_555
C13 C15 1_555 1_555
C16 C20 1_555 1_555
C16 C29 1_555 1_555
C22 C24 1_555 1_555
C23 C25 1_555 1_555

#END
