
#######################################################################
#
#                 Cambridge Crystallographic Data Centre
#                                CCDC 
#
#######################################################################
#
# If this CIF has been generated from an entry in the Cambridge 
# Structural Database, then it will include bibliographic, chemical, 
# crystal, experimental, refinement or atomic coordinate data resulting 
# from the CCDC's data processing and validation procedures.
#
#######################################################################

data_RUBQUC
_chemical_name_common            'Teaching Subset: Symmetry'
_chemical_formula_moiety         'C42 H24 O18 S6 6-,6(C1 H6 N3 1+),C1 H4 O1'
_chemical_name_systematic        
'hexakis(Guanidinium) hexakis(4-sulfonatophenyl)benzene methanol solvate'
_symmetry_cell_setting           hexagonal
_symmetry_space_group_name_H-M   'P 6'
_symmetry_Int_Tables_number      168
_space_group_name_Hall           'P 6'
loop_
_symmetry_equiv_pos_site_id
_symmetry_equiv_pos_as_xyz
1 x,y,z
2 -y,x-y,z
3 -x+y,-x,z
4 -x,-y,z
5 y,-x+y,z
6 x-y,x,z
_cell_length_a                   18.723(5)
_cell_length_b                   18.723(5)
_cell_length_c                   10.615(3)
_cell_angle_alpha                90
_cell_angle_beta                 90
_cell_angle_gamma                120
_cell_volume                     3222.56
_exptl_crystal_colour            yellow
_exptl_crystal_description       rod
_cell_formula_units_Z            2
loop_
_atom_site_label
_atom_site_type_symbol
_atom_site_fract_x
_atom_site_fract_y
_atom_site_fract_z
N1 N 0.566(2) -0.024(2) 0.174(3)
H5 H 0.5589 -0.0147 0.0951
H6 H 0.5449 -0.0750 0.2016
N2 N 0.630(2) 0.106(2) 0.175(3)
H7 H 0.6141 0.0966 0.0956
H8 H 0.6597 0.1564 0.2028
N3 N 0.605(2) 0.029(2) 0.382(2)
H9 H 0.5736 -0.0199 0.4136
H10 H 0.6340 0.0718 0.4318
C8 C 0.610(3) 0.0405(19) 0.254(2)
N4 N 0.847(3) 0.362(4) 0.654(4)
H11 H 0.8404 0.3602 0.5720
H12 H 0.8903 0.4048 0.6887
N5 N 0.797(3) 0.285(4) 0.865(4)
H13 H 0.7621 0.2383 0.9034
H14 H 0.8385 0.3238 0.9062
N6 N 0.718(3) 0.229(4) 0.681(5)
H15 H 0.6865 0.1856 0.7253
H16 H 0.7074 0.2319 0.6005
C9 C 0.785(3) 0.295(4) 0.735(5)
S2 S 0.6214(8) 0.0431(9) -0.1644(13)
O4 O 0.604(2) 0.047(3) -0.2978(18)
O5 O 0.6433(15) 0.1194(13) -0.097(3)
O6 O 0.5609(14) -0.0287(14) -0.093(3)
C10 C 0.925(2) 0.005(3) -0.157(4)
C11 C 0.8511(11) 0.0163(16) -0.171(3)
C12 C 0.8363(13) 0.0560(15) -0.073(2)
H17 H 0.8730 0.0761 -0.0031
C13 C 0.7677(15) 0.0662(16) -0.076(2)
H18 H 0.7575 0.0933 -0.0085
C14 C 0.7140(11) 0.0367(16) -0.178(3)
C15 C 0.7288(13) -0.0029(16) -0.277(2)
H19 H 0.6921 -0.0231 -0.3462
C16 C 0.7974(15) -0.0131(16) -0.273(2)
H20 H 0.8075 -0.0402 -0.3408
S2D S 1.0431(9) 0.4217(12) -0.1644(13)
O4D O 1.047(3) 0.443(4) -0.2978(18)
O5D O 1.1194(13) 0.4761(20) -0.097(3)
O6D O 0.9713(14) 0.4104(20) -0.093(3)
C10D C 1.005(3) 0.080(4) -0.157(4)
C11D C 1.0163(16) 0.1652(19) -0.171(3)
C12D C 1.0560(15) 0.2197(20) -0.073(2)
H17D H 1.0761 0.2031 -0.0031
C13D C 1.0662(16) 0.2985(22) -0.076(2)
H18D H 1.0933 0.3358 -0.0085
C14D C 1.0367(16) 0.3227(19) -0.178(3)
C15D C 0.9971(16) 0.2683(21) -0.277(2)
H19D H 0.9769 0.2848 -0.3462
C16D C 0.9869(16) 0.1895(22) -0.273(2)
H20D H 0.9598 0.1523 -0.3408
S2E S 0.5783(12) -0.3786(8) -0.1644(13)
O4E O 0.557(4) -0.396(2) -0.2978(18)
O5E O 0.5239(20) -0.3567(15) -0.097(3)
O6E O 0.5896(20) -0.4391(14) -0.093(3)
C10E C 0.920(4) -0.075(2) -0.157(4)
C11E C 0.8348(19) -0.1489(11) -0.171(3)
C12E C 0.7803(20) -0.1637(13) -0.073(2)
H17E H 0.7969 -0.1270 -0.0031
C13E C 0.7015(22) -0.2323(15) -0.076(2)
H18E H 0.6642 -0.2425 -0.0085
C14E C 0.6773(19) -0.2860(11) -0.178(3)
C15E C 0.7317(21) -0.2712(13) -0.277(2)
H19E H 0.7152 -0.3079 -0.3462
C16E C 0.8105(22) -0.2026(15) -0.273(2)
H20E H 0.8477 -0.1925 -0.3408
S2A S 0.9569(9) -0.4217(12) -0.1644(13)
O4A O 0.953(3) -0.443(4) -0.2978(18)
O5A O 0.8806(13) -0.4761(20) -0.097(3)
O6A O 1.0287(14) -0.4104(20) -0.093(3)
C10A C 0.995(3) -0.080(4) -0.157(4)
C11A C 0.9837(16) -0.1652(19) -0.171(3)
C12A C 0.9440(15) -0.2197(20) -0.073(2)
H17A H 0.9239 -0.2031 -0.0031
C13A C 0.9338(16) -0.2985(22) -0.076(2)
H18A H 0.9067 -0.3358 -0.0085
C14A C 0.9633(16) -0.3227(19) -0.178(3)
C15A C 1.0029(16) -0.2683(21) -0.277(2)
H19A H 1.0231 -0.2848 -0.3462
C16A C 1.0131(16) -0.1895(22) -0.273(2)
H20A H 1.0402 -0.1523 -0.3408
S2B S 1.4217(12) 0.3786(8) -0.1644(13)
O4B O 1.443(4) 0.396(2) -0.2978(18)
O5B O 1.4761(20) 0.3567(15) -0.097(3)
O6B O 1.4104(20) 0.4391(14) -0.093(3)
C10B C 1.080(4) 0.075(2) -0.157(4)
C11B C 1.1652(19) 0.1489(11) -0.171(3)
C12B C 1.2197(20) 0.1637(13) -0.073(2)
H17B H 1.2031 0.1270 -0.0031
C13B C 1.2985(22) 0.2323(15) -0.076(2)
H18B H 1.3358 0.2425 -0.0085
C14B C 1.3227(19) 0.2860(11) -0.178(3)
C15B C 1.2683(21) 0.2712(13) -0.277(2)
H19B H 1.2848 0.3079 -0.3462
C16B C 1.1895(22) 0.2026(15) -0.273(2)
H20B H 1.1523 0.1925 -0.3408
S2C S 1.3786(8) -0.0431(9) -0.1644(13)
O4C O 1.396(2) -0.047(3) -0.2978(18)
O5C O 1.3567(15) -0.1194(13) -0.097(3)
O6C O 1.4391(14) 0.0287(14) -0.093(3)
C10C C 1.075(2) -0.005(3) -0.157(4)
C11C C 1.1489(11) -0.0163(16) -0.171(3)
C12C C 1.1637(13) -0.0560(15) -0.073(2)
H17C H 1.1270 -0.0761 -0.0031
C13C C 1.2323(15) -0.0662(16) -0.076(2)
H18C H 1.2425 -0.0933 -0.0085
C14C C 1.2860(11) -0.0367(16) -0.178(3)
C15C C 1.2712(13) 0.0029(16) -0.277(2)
H19C H 1.3079 0.0231 -0.3462
C16C C 1.2026(15) 0.0131(16) -0.273(2)
H20C H 1.1925 0.0402 -0.3408
S1 S 0.8037(8) 0.2648(8) 0.3225(14)
O1 O 0.7960(19) 0.2800(19) 0.1904(16)
O2 O 0.7295(15) 0.230(2) 0.402(3)
O3 O 0.8526(18) 0.3359(16) 0.404(3)
C1 C 0.960(2) 0.046(2) 0.345(4)
C2 C 0.9169(14) 0.0981(13) 0.332(2)
C3 C 0.8633(14) 0.0918(13) 0.428(2)
H1 H 0.8510 0.0535 0.4946
C4 C 0.8276(15) 0.1414(16) 0.426(2)
H2 H 0.7910 0.1371 0.4916
C5 C 0.8455(17) 0.1975(15) 0.329(3)
C6 C 0.8991(17) 0.2039(14) 0.233(2)
H3 H 0.9114 0.2422 0.1665
C7 C 0.9348(14) 0.1542(15) 0.235(2)
H4 H 0.9714 0.1585 0.1695
S1D S 1.2648(8) 0.4611(11) 0.3225(14)
O1D O 1.2800(19) 0.4840(27) 0.1904(16)
O2D O 1.230(2) 0.5005(25) 0.402(3)
O3D O 1.3359(16) 0.4833(24) 0.404(3)
C1D C 1.046(2) 0.086(3) 0.345(4)
C2D C 1.0981(13) 0.1812(19) 0.332(2)
C3D C 1.0918(13) 0.2285(19) 0.428(2)
H1D H 1.0535 0.2025 0.4946
C4D C 1.1414(16) 0.3138(22) 0.426(2)
H2D H 1.1371 0.3461 0.4916
C5D C 1.1975(15) 0.3520(23) 0.329(3)
C6D C 1.2039(14) 0.3048(22) 0.233(2)
H3D H 1.2422 0.3308 0.1665
C7D C 1.1542(15) 0.2194(21) 0.235(2)
H4D H 1.1585 0.1871 0.1695
S1E S 0.5389(11) -0.1963(8) 0.3225(14)
O1E O 0.5160(27) -0.2040(19) 0.1904(16)
O2E O 0.4995(25) -0.2705(15) 0.402(3)
O3E O 0.5167(24) -0.1474(18) 0.404(3)
C1E C 0.914(3) -0.040(2) 0.345(4)
C2E C 0.8188(19) -0.0831(14) 0.332(2)
C3E C 0.7715(19) -0.1367(14) 0.428(2)
H1E H 0.7975 -0.1490 0.4946
C4E C 0.6862(22) -0.1724(15) 0.426(2)
H2E H 0.6539 -0.2090 0.4916
C5E C 0.6480(23) -0.1545(17) 0.329(3)
C6E C 0.6952(22) -0.1009(17) 0.233(2)
H3E H 0.6692 -0.0886 0.1665
C7E C 0.7806(21) -0.0652(14) 0.235(2)
H4E H 0.8129 -0.0286 0.1695
S1A S 0.7352(8) -0.4611(11) 0.3225(14)
O1A O 0.7200(19) -0.4840(27) 0.1904(16)
O2A O 0.770(2) -0.5005(25) 0.402(3)
O3A O 0.6641(16) -0.4833(24) 0.404(3)
C1A C 0.954(2) -0.086(3) 0.345(4)
C2A C 0.9019(13) -0.1812(19) 0.332(2)
C3A C 0.9082(13) -0.2285(19) 0.428(2)
H1A H 0.9465 -0.2025 0.4946
C4A C 0.8586(16) -0.3138(22) 0.426(2)
H2A H 0.8629 -0.3461 0.4916
C5A C 0.8025(15) -0.3520(23) 0.329(3)
C6A C 0.7961(14) -0.3048(22) 0.233(2)
H3A H 0.7578 -0.3308 0.1665
C7A C 0.8458(15) -0.2194(21) 0.235(2)
H4A H 0.8415 -0.1871 0.1695
S1B S 1.4611(11) 0.1963(8) 0.3225(14)
O1B O 1.4840(27) 0.2040(19) 0.1904(16)
O2B O 1.5005(25) 0.2705(15) 0.402(3)
O3B O 1.4833(24) 0.1474(18) 0.404(3)
C1B C 1.086(3) 0.040(2) 0.345(4)
C2B C 1.1812(19) 0.0831(14) 0.332(2)
C3B C 1.2285(19) 0.1367(14) 0.428(2)
H1B H 1.2025 0.1490 0.4946
C4B C 1.3138(22) 0.1724(15) 0.426(2)
H2B H 1.3461 0.2090 0.4916
C5B C 1.3520(23) 0.1545(17) 0.329(3)
C6B C 1.3048(22) 0.1009(17) 0.233(2)
H3B H 1.3308 0.0886 0.1665
C7B C 1.2194(21) 0.0652(14) 0.235(2)
H4B H 1.1871 0.0286 0.1695
S1C S 1.1963(8) -0.2648(8) 0.3225(14)
O1C O 1.2040(19) -0.2800(19) 0.1904(16)
O2C O 1.2705(15) -0.230(2) 0.402(3)
O3C O 1.1474(18) -0.3359(16) 0.404(3)
C1C C 1.040(2) -0.046(2) 0.345(4)
C2C C 1.0831(14) -0.0981(13) 0.332(2)
C3C C 1.1367(14) -0.0918(13) 0.428(2)
H1C H 1.1490 -0.0535 0.4946
C4C C 1.1724(15) -0.1414(16) 0.426(2)
H2C H 1.2090 -0.1371 0.4916
C5C C 1.1545(17) -0.1975(15) 0.329(3)
C6C C 1.1009(17) -0.2039(14) 0.233(2)
H3C H 1.0886 -0.2422 0.1665
C7C C 1.0652(14) -0.1542(15) 0.235(2)
H4C H 1.0286 -0.1585 0.1695
N7? N 0.794(2) 0.314(2) 0.290(3)
H21? H 0.8437 0.3434 0.2579
H22? H 0.7512 0.2867 0.2407
N8? N 0.721(2) 0.255(2) 0.492(4)
H23? H 0.7300 0.2523 0.5724
H24? H 0.6726 0.2221 0.4587
N9? N 0.852(3) 0.355(3) 0.488(5)
H25? H 0.9002 0.3832 0.4520
H26? H 0.8475 0.3545 0.5708
C17? C 0.784(3) 0.311(3) 0.417(3)
S3? S 0.6278(7) 0.0481(8) 0.3376(13)
O7? O 0.6135(19) 0.049(2) 0.4736(16)
O8? O 0.6454(19) 0.1275(13) 0.285(3)
O9? O 0.5642(16) -0.0272(14) 0.279(3)
C18? C 0.9337(17) 0.014(2) 0.302(4)
C19? C 0.8566(11) 0.0210(15) 0.313(2)
C20? C 0.8009(15) -0.0138(15) 0.412(2)
H27? H 0.8095 -0.0447 0.4752
C21? C 0.7325(13) -0.0033(17) 0.419(2)
H28? H 0.6944 -0.0271 0.4862
C22? C 0.7199(11) 0.0419(17) 0.326(3)
C23? C 0.7756(14) 0.0767(15) 0.228(2)
H29? H 0.7670 0.1077 0.1647
C24? C 0.8440(12) 0.0663(15) 0.221(2)
H30? H 0.8821 0.0901 0.1538
S4? S 0.8057(8) 0.2646(11) 0.8079(14)
O10? O 0.803(3) 0.285(4) 0.9405(19)
O11? O 0.8702(13) 0.3441(21) 0.760(3)
O12? O 0.7208(11) 0.2141(19) 0.765(3)
C25? C 0.969(4) 0.048(4) 0.806(4)
C26? C 0.9279(14) 0.1069(16) 0.808(3)
C27? C 0.9404(15) 0.1585(20) 0.910(2)
H31? H 0.9760 0.1624 0.9764
C28? C 0.9006(16) 0.2043(21) 0.914(2)
H32? H 0.9091 0.2396 0.9838
C29? C 0.8484(15) 0.1986(17) 0.817(3)
C30? C 0.8360(14) 0.1470(19) 0.715(2)
H33? H 0.8003 0.1430 0.6481
C31? C 0.8758(15) 0.1012(20) 0.710(2)
H34? H 0.8673 0.0659 0.6408
N10? N 0.5643(18) -0.0217(19) 0.022(3)
H35? H 0.5326 -0.0734 -0.0014
H36? H 0.5714 -0.0088 0.1023
N11? N 0.6388(19) 0.123(2) 0.010(3)
H37? H 0.6610 0.1736 -0.0193
H38? H 0.6334 0.1138 0.0914
N12? N 0.614(3) 0.055(3) -0.212(3)
H39? H 0.6359 0.1040 -0.2487
H40? H 0.5964 0.0106 -0.2585
C32? C 0.609(3) 0.049(3) -0.083(3)
C33? C 0.6667 0.3333 0.053(4)
H41? H 0.6682 0.3175 -0.0347
H42? H 0.7215 0.3778 0.0774
H43? H 0.6268 0.3525 0.0606
O13? O 0.644(3) 0.263(2) 0.129(4)
H44? H 0.5924 0.2329 0.1291
loop_
_geom_bond_atom_site_label_1
_geom_bond_atom_site_label_2
_geom_bond_site_symmetry_1
_geom_bond_site_symmetry_2
S1 O1 1_555 1_555
O2 S1 1_555 1_555
O3 S1 1_555 1_555
C1 C2 1_555 1_555
C2 C3 1_555 1_555
C3 H1 1_555 1_555
C4 C3 1_555 1_555
H2 C4 1_555 1_555
C5 S1 1_555 1_555
C6 C5 1_555 1_555
H3 C6 1_555 1_555
C7 C2 1_555 1_555
H4 C7 1_555 1_555
N1 H5 1_555 1_555
H6 N1 1_555 1_555
N2 H7 1_555 1_555
H8 N2 1_555 1_555
N3 H9 1_555 1_555
H10 N3 1_555 1_555
C8 N1 1_555 1_555
N4 H11 1_555 1_555
H12 N4 1_555 1_555
N5 H13 1_555 1_555
H14 N5 1_555 1_555
N6 H15 1_555 1_555
H16 N6 1_555 1_555
C9 N4 1_555 1_555
S2 O4 1_555 1_555
O5 S2 1_555 1_555
O6 S2 1_555 1_555
C10 C11 1_555 1_555
C11 C12 1_555 1_555
C12 H17 1_555 1_555
C13 C12 1_555 1_555
H18 C13 1_555 1_555
C14 S2 1_555 1_555
C15 C14 1_555 1_555
H19 C15 1_555 1_555
C16 C11 1_555 1_555
H20 C16 1_555 1_555
S1D O1D 1_555 1_555
O2D S1D 1_555 1_555
O3D S1D 1_555 1_555
C1D C1 1_555 1_555
C2D C1D 1_555 1_555
C3D C2D 1_555 1_555
H1D C3D 1_555 1_555
C4D C3D 1_555 1_555
H2D C4D 1_555 1_555
C5D S1D 1_555 1_555
C6D C5D 1_555 1_555
H3D C6D 1_555 1_555
C7D C2D 1_555 1_555
H4D C7D 1_555 1_555
S1E O1E 1_555 1_555
O2E S1E 1_555 1_555
O3E S1E 1_555 1_555
C1E C1 1_555 1_555
C2E C1E 1_555 1_555
C3E C2E 1_555 1_555
H1E C3E 1_555 1_555
C4E C3E 1_555 1_555
H2E C4E 1_555 1_555
C5E S1E 1_555 1_555
C6E C5E 1_555 1_555
H3E C6E 1_555 1_555
C7E C2E 1_555 1_555
H4E C7E 1_555 1_555
S1A O1A 1_555 1_555
O2A S1A 1_555 1_555
O3A S1A 1_555 1_555
C1A C1E 1_555 1_555
C2A C1A 1_555 1_555
C3A C2A 1_555 1_555
H1A C3A 1_555 1_555
C4A C3A 1_555 1_555
H2A C4A 1_555 1_555
C5A S1A 1_555 1_555
C6A C5A 1_555 1_555
H3A C6A 1_555 1_555
C7A C2A 1_555 1_555
H4A C7A 1_555 1_555
S1B O1B 1_555 1_555
O2B S1B 1_555 1_555
O3B S1B 1_555 1_555
C1B C1D 1_555 1_555
C2B C1B 1_555 1_555
C3B C2B 1_555 1_555
H1B C3B 1_555 1_555
C4B C3B 1_555 1_555
H2B C4B 1_555 1_555
C5B S1B 1_555 1_555
C6B C5B 1_555 1_555
H3B C6B 1_555 1_555
C7B C2B 1_555 1_555
H4B C7B 1_555 1_555
S1C O1C 1_555 1_555
O2C S1C 1_555 1_555
O3C S1C 1_555 1_555
C1C C1A 1_555 1_555
C2C C1C 1_555 1_555
C3C C2C 1_555 1_555
H1C C3C 1_555 1_555
C4C C3C 1_555 1_555
H2C C4C 1_555 1_555
C5C S1C 1_555 1_555
C6C C5C 1_555 1_555
H3C C6C 1_555 1_555
C7C C2C 1_555 1_555
H4C C7C 1_555 1_555
S2D O4D 1_555 1_555
O5D S2D 1_555 1_555
O6D S2D 1_555 1_555
C10D C10 1_555 1_555
C11D C10D 1_555 1_555
C12D C11D 1_555 1_555
H17D C12D 1_555 1_555
C13D C12D 1_555 1_555
H18D C13D 1_555 1_555
C14D S2D 1_555 1_555
C15D C14D 1_555 1_555
H19D C15D 1_555 1_555
C16D C11D 1_555 1_555
H20D C16D 1_555 1_555
S2E O4E 1_555 1_555
O5E S2E 1_555 1_555
O6E S2E 1_555 1_555
C10E C10 1_555 1_555
C11E C10E 1_555 1_555
C12E C11E 1_555 1_555
H17E C12E 1_555 1_555
C13E C12E 1_555 1_555
H18E C13E 1_555 1_555
C14E S2E 1_555 1_555
C15E C14E 1_555 1_555
H19E C15E 1_555 1_555
C16E C11E 1_555 1_555
H20E C16E 1_555 1_555
S2A O4A 1_555 1_555
O5A S2A 1_555 1_555
O6A S2A 1_555 1_555
C10A C10E 1_555 1_555
C11A C10A 1_555 1_555
C12A C11A 1_555 1_555
H17A C12A 1_555 1_555
C13A C12A 1_555 1_555
H18A C13A 1_555 1_555
C14A S2A 1_555 1_555
C15A C14A 1_555 1_555
H19A C15A 1_555 1_555
C16A C11A 1_555 1_555
H20A C16A 1_555 1_555
S2B O4B 1_555 1_555
O5B S2B 1_555 1_555
O6B S2B 1_555 1_555
C10B C10D 1_555 1_555
C11B C10B 1_555 1_555
C12B C11B 1_555 1_555
H17B C12B 1_555 1_555
C13B C12B 1_555 1_555
H18B C13B 1_555 1_555
C14B S2B 1_555 1_555
C15B C14B 1_555 1_555
H19B C15B 1_555 1_555
C16B C11B 1_555 1_555
H20B C16B 1_555 1_555
S2C O4C 1_555 1_555
O5C S2C 1_555 1_555
O6C S2C 1_555 1_555
C10C C10A 1_555 1_555
C11C C10C 1_555 1_555
C12C C11C 1_555 1_555
H17C C12C 1_555 1_555
C13C C12C 1_555 1_555
H18C C13C 1_555 1_555
C14C S2C 1_555 1_555
C15C C14C 1_555 1_555
H19C C15C 1_555 1_555
C16C C11C 1_555 1_555
H20C C16C 1_555 1_555
C4 C5 1_555 1_555
C6 C7 1_555 1_555
N2 C8 1_555 1_555
N3 C8 1_555 1_555
N5 C9 1_555 1_555
N6 C9 1_555 1_555
C13 C14 1_555 1_555
C15 C16 1_555 1_555
C4D C5D 1_555 1_555
C6D C7D 1_555 1_555
C4E C5E 1_555 1_555
C6E C7E 1_555 1_555
C4A C5A 1_555 1_555
C6A C7A 1_555 1_555
C1B C1C 1_555 1_555
C4B C5B 1_555 1_555
C6B C7B 1_555 1_555
C4C C5C 1_555 1_555
C6C C7C 1_555 1_555
C13D C14D 1_555 1_555
C15D C16D 1_555 1_555
C13E C14E 1_555 1_555
C15E C16E 1_555 1_555
C13A C14A 1_555 1_555
C15A C16A 1_555 1_555
C10B C10C 1_555 1_555
C13B C14B 1_555 1_555
C15B C16B 1_555 1_555
C13C C14C 1_555 1_555
C15C C16C 1_555 1_555

#END
