
#######################################################################
#
#                 Cambridge Crystallographic Data Centre
#                                CCDC 
#
#######################################################################
#
# If this CIF has been generated from an entry in the Cambridge 
# Structural Database, then it will include bibliographic, chemical, 
# crystal, experimental, refinement or atomic coordinate data resulting 
# from the CCDC's data processing and validation procedures.
#
#######################################################################

data_RUBQOW
_chemical_formula_moiety         'C12 H12 O18 S6 6-,6(C1 H6 N3 1+)'
_chemical_name_systematic        
'hexakis(Guanidinium) benzene-1,2,3,4,5,6-hexaylhexamethanesulfonate'
_symmetry_cell_setting           monoclinic
_symmetry_space_group_name_H-M   'I 2/m'
_symmetry_Int_Tables_number      12
_space_group_name_Hall           '-I 2y'
loop_
_symmetry_equiv_pos_site_id
_symmetry_equiv_pos_as_xyz
1 x,y,z
2 -x,y,-z
3 1/2+x,1/2+y,1/2+z
4 1/2-x,1/2+y,1/2-z
5 -x,-y,-z
6 x,-y,z
7 1/2-x,1/2-y,1/2-z
8 1/2+x,1/2-y,1/2+z
_cell_length_a                   10.013(2)
_cell_length_b                   21.303(4)
_cell_length_c                   10.071(2)
_cell_angle_alpha                90
_cell_angle_beta                 103.21(3)
_cell_angle_gamma                90
_cell_volume                     2091.37
_exptl_crystal_colour            colorless
_exptl_crystal_description       block
_cell_formula_units_Z            2
loop_
_atom_site_label
_atom_site_type_symbol
_atom_site_fract_x
_atom_site_fract_y
_atom_site_fract_z
S1 S 0.7046(4) 0.0000 0.3939(4)
S2 S 0.7524(3) 0.15124(12) 0.0455(3)
O1 O 0.8415(9) 0.0000 0.4892(9)
O2 O 0.6269(6) 0.0568(3) 0.4042(6)
O3 O 0.7921(6) 0.2094(3) 0.1204(7)
O4 O 0.8634(6) 0.1048(3) 0.0670(7)
O5 O 0.6945(6) 0.1622(3) -0.1008(6)
C1 C 0.6122(12) 0.0000 0.1079(13)
C2 C 0.5571(9) 0.0571(4) 0.0541(10)
C3 C 0.7428(12) 0.0000 0.2306(13)
H1 H 0.7988 0.0375 0.2228
C4 C 0.6219(9) 0.1203(4) 0.1155(9)
H2 H 0.6592 0.1141 0.2145
H3 H 0.5478 0.1519 0.1051
S1A S 0.2954(4) 0.0000 -0.3939(4)
S2A S 0.2476(3) 0.15124(12) -0.0455(3)
O1A O 0.1585(9) 0.0000 -0.4892(9)
O2A O 0.3731(6) 0.0568(3) -0.4042(6)
O3A O 0.2079(6) 0.2094(3) -0.1204(7)
O4A O 0.1366(6) 0.1048(3) -0.0670(7)
O5A O 0.3055(6) 0.1622(3) 0.1008(6)
C1A C 0.3878(12) 0.0000 -0.1079(13)
C2A C 0.4429(9) 0.0571(4) -0.0541(10)
C3A C 0.2572(12) 0.0000 -0.2306(13)
H1A H 0.2012 0.0375 -0.2228
C4A C 0.3781(9) 0.1203(4) -0.1155(9)
H2A H 0.3408 0.1141 -0.2145
H3A H 0.4522 0.1519 -0.1051
S2D S 0.2476(3) -0.15124(12) -0.0455(3)
O2D O 0.3731(6) -0.0568(3) -0.4042(6)
O3D O 0.2079(6) -0.2094(3) -0.1204(7)
O4D O 0.1366(6) -0.1048(3) -0.0670(7)
O5D O 0.3055(6) -0.1622(3) 0.1008(6)
C2D C 0.4429(9) -0.0571(4) -0.0541(10)
H1D H 0.2012 -0.0375 -0.2228
C4D C 0.3781(9) -0.1203(4) -0.1155(9)
H2D H 0.3408 -0.1141 -0.2145
H3D H 0.4522 -0.1519 -0.1051
S2E S 0.7524(3) -0.15124(12) 0.0455(3)
O2E O 0.6269(6) -0.0568(3) 0.4042(6)
O3E O 0.7921(6) -0.2094(3) 0.1204(7)
O4E O 0.8634(6) -0.1048(3) 0.0670(7)
O5E O 0.6945(6) -0.1622(3) -0.1008(6)
C2E C 0.5571(9) -0.0571(4) 0.0541(10)
H1E H 0.7988 -0.0375 0.2228
C4E C 0.6219(9) -0.1203(4) 0.1155(9)
H2E H 0.6592 -0.1141 0.2145
H3E H 0.5478 -0.1519 0.1051
N1 N 0.1635(11) 0.0000 0.1222(11)
H4 H 0.1252 0.0358 0.0904
N2 N 0.3363(8) 0.0535(4) 0.2706(8)
H5 H 0.4113 0.0532 0.3363
H6 H 0.2992 0.0894 0.2382
C5 C 0.2792(14) 0.0000 0.2207(15)
H4E H 0.1252 -0.0358 0.0904
N2E N 0.3363(8) -0.0535(4) 0.2706(8)
H5E H 0.4113 -0.0532 0.3363
H6E H 0.2992 -0.0894 0.2382
N3 N 0.2181(9) 0.1691(4) 0.4821(9)
H7 H 0.2537 0.1344 0.5227
H8 H 0.2542 0.2057 0.5107
N4 N 0.0577(8) 0.2188(4) 0.3209(9)
H9 H 0.0938 0.2552 0.3515
H10 H -0.0141 0.2175 0.2517
N5 N 0.0559(8) 0.1121(4) 0.3350(8)
H11 H 0.0906 0.0771 0.3748
H12 H -0.0158 0.1108 0.2657
C6 C 0.1111(10) 0.1663(5) 0.3790(11)
H13? H 0.7988 0.0375 0.2228
H14? H 0.1260 0.0358 0.0893
loop_
_geom_bond_atom_site_label_1
_geom_bond_atom_site_label_2
_geom_bond_site_symmetry_1
_geom_bond_site_symmetry_2
S1 O1 1_555 1_555
S2 O3 1_555 1_555
O2 S1 1_555 1_555
O4 S2 1_555 1_555
O5 S2 1_555 1_555
C1 C2 1_555 1_555
C2 C4 1_555 1_555
C3 S1 1_555 1_555
H1 C3 1_555 1_555
C4 S2 1_555 1_555
H2 C4 1_555 1_555
H3 C4 1_555 1_555
N1 H4 1_555 1_555
N2 H5 1_555 1_555
H6 N2 1_555 1_555
C5 N1 1_555 1_555
N3 H7 1_555 1_555
H8 N3 1_555 1_555
N4 H9 1_555 1_555
H10 N4 1_555 1_555
N5 H11 1_555 1_555
H12 N5 1_555 1_555
C6 N3 1_555 1_555
S1A O1A 1_555 1_555
S2A O3A 1_555 1_555
O2A S1A 1_555 1_555
O4A S2A 1_555 1_555
O5A S2A 1_555 1_555
C1A C2A 1_555 1_555
C2A C2 1_555 1_555
C3A S1A 1_555 1_555
H1A C3A 1_555 1_555
C4A S2A 1_555 1_555
H2A C4A 1_555 1_555
H3A C4A 1_555 1_555
S2D O3D 1_555 1_555
O2D S1A 1_555 1_555
O4D S2D 1_555 1_555
O5D S2D 1_555 1_555
C2D C1A 1_555 1_555
H1D C3A 1_555 1_555
C4D S2D 1_555 1_555
H2D C4D 1_555 1_555
H3D C4D 1_555 1_555
S2E O3E 1_555 1_555
O2E S1 1_555 1_555
O4E S2E 1_555 1_555
O5E S2E 1_555 1_555
C2E C1 1_555 1_555
H1E C3 1_555 1_555
C4E S2E 1_555 1_555
H2E C4E 1_555 1_555
H3E C4E 1_555 1_555
H4E N1 1_555 1_555
N2E C5 1_555 1_555
H5E N2E 1_555 1_555
H6E N2E 1_555 1_555
C1 C3 1_555 1_555
N2 C5 1_555 1_555
N4 C6 1_555 1_555
N5 C6 1_555 1_555
C1A C3A 1_555 1_555
C2A C4A 1_555 1_555
C2D C4D 1_555 1_555
C2D C2E 1_555 1_555
C2E C4E 1_555 1_555

#END
