
#######################################################################
#
#                 Cambridge Crystallographic Data Centre
#                                CCDC 
#
#######################################################################
#
# If this CIF has been generated from an entry in the Cambridge 
# Structural Database, then it will include bibliographic, chemical, 
# crystal, experimental, refinement or atomic coordinate data resulting 
# from the CCDC's data processing and validation procedures.
#
#######################################################################

data_RUBQIQ
_chemical_formula_moiety         'C30 H18 O12 S4 4-,4(C1 H6 N3 1+),2(C3 H6 O1)'
_chemical_name_systematic        
'tetrakis(Guanidinium) 1,2,4,5-tetrakis(4-sulfonatophenyl)benzene'
_symmetry_cell_setting           triclinic
_symmetry_space_group_name_H-M   'P -1'
_symmetry_Int_Tables_number      2
_space_group_name_Hall           '-P 1'
loop_
_symmetry_equiv_pos_site_id
_symmetry_equiv_pos_as_xyz
1 x,y,z
2 -x,-y,-z
_cell_length_a                   7.3536(14)
_cell_length_b                   12.290(2)
_cell_length_c                   17.228(3)
_cell_angle_alpha                98.787(2)
_cell_angle_beta                 92.441(2)
_cell_angle_gamma                94.135(2)
_cell_volume                     1532.44
_exptl_crystal_colour            colorless
_exptl_crystal_description       plate
_cell_formula_units_Z            1
loop_
_atom_site_label
_atom_site_type_symbol
_atom_site_fract_x
_atom_site_fract_y
_atom_site_fract_z
S1 S 0.47299(14) 0.37373(8) 0.88209(7)
S2 S -0.01208(14) 0.09603(8) 0.13910(6)
O1 O 0.6420(4) 0.4447(2) 0.88669(17)
O2 O 0.4719(4) 0.3015(2) 0.94137(17)
O3 O 0.3121(4) 0.4354(2) 0.88207(18)
O4 O -0.0137(4) 0.2152(2) 0.14010(17)
O5 O -0.1938(4) 0.0387(2) 0.12985(17)
O6 O 0.1120(4) 0.0466(2) 0.08261(17)
C1 C 0.4647(4) 0.28645(19) 0.79017(13)
C2 C 0.5095(4) 0.33015(15) 0.72301(16)
H1 H 0.5368 0.4075 0.7259
C3 C 0.5143(4) 0.2607(2) 0.65154(13)
H2 H 0.5449 0.2906 0.6056
C4 C 0.4744(4) 0.1476(2) 0.64723(13)
C5 C 0.4297(4) 0.10391(15) 0.71439(16)
H3 H 0.4024 0.0266 0.7115
C6 C 0.4248(4) 0.1733(2) 0.78586(13)
H4 H 0.3942 0.1435 0.8318
C7 C 0.4941(7) 0.0717(4) 0.5721(3)
C8 C 0.3938(7) 0.0887(4) 0.5049(3)
H5 H 0.3221 0.1504 0.5081
C9 C 0.3950(7) 0.0186(4) 0.4334(3)
C10 C 0.0828(4) 0.0782(2) 0.23182(14)
C11 C 0.1950(4) 0.16298(17) 0.27631(16)
H6 H 0.2047 0.2342 0.2612
C12 C 0.2929(4) 0.14350(19) 0.34295(16)
H7 H 0.3696 0.2014 0.3734
C13 C 0.2786(4) 0.0392(2) 0.36509(14)
C14 C 0.1664(4) -0.04557(17) 0.32060(16)
H8 H 0.1567 -0.1168 0.3357
C15 C 0.0685(4) -0.02608(18) 0.25396(15)
H9 H -0.0082 -0.0840 0.2235
S1A S 0.52701(14) -0.37373(8) 0.11791(7)
S2A S 1.01208(14) -0.09603(8) 0.86090(6)
O1A O 0.3580(4) -0.4447(2) 0.11331(17)
O2A O 0.5281(4) -0.3015(2) 0.05863(17)
O3A O 0.6879(4) -0.4354(2) 0.11793(18)
O4A O 1.0137(4) -0.2152(2) 0.85990(17)
O5A O 1.1938(4) -0.0387(2) 0.87015(17)
O6A O 0.8880(4) -0.0466(2) 0.91739(17)
C1A C 0.5353(4) -0.28645(19) 0.20983(13)
C2A C 0.4905(4) -0.33015(15) 0.27699(16)
H1A H 0.4632 -0.4075 0.2741
C3A C 0.4857(4) -0.2607(2) 0.34846(13)
H2A H 0.4551 -0.2906 0.3944
C4A C 0.5256(4) -0.1476(2) 0.35277(13)
C5A C 0.5703(4) -0.10391(15) 0.28561(16)
H3A H 0.5976 -0.0266 0.2885
C6A C 0.5752(4) -0.1733(2) 0.21414(13)
H4A H 0.6058 -0.1435 0.1682
C7A C 0.5059(7) -0.0717(4) 0.4279(3)
C8A C 0.6062(7) -0.0887(4) 0.4951(3)
H5A H 0.6779 -0.1504 0.4919
C9A C 0.6050(7) -0.0186(4) 0.5666(3)
C10A C 0.9172(4) -0.0782(2) 0.76818(14)
C11A C 0.8050(4) -0.16298(17) 0.72369(16)
H6A H 0.7953 -0.2342 0.7388
C12A C 0.7071(4) -0.14350(19) 0.65705(16)
H7A H 0.6304 -0.2014 0.6266
C13A C 0.7214(4) -0.0392(2) 0.63491(14)
C14A C 0.8336(4) 0.04557(17) 0.67940(16)
H8A H 0.8433 0.1168 0.6643
C15A C 0.9315(4) 0.02608(18) 0.74604(15)
H9A H 1.0082 0.0840 0.7765
N1 N 0.8044(5) 0.1884(3) 0.9509(2)
H10 H 0.8002 0.1167 0.9509
H11 H 0.7027 0.2221 0.9512
N2 N 0.9703(5) 0.3533(3) 0.9499(2)
H12 H 0.8696 0.3879 0.9501
H13 H 1.0771 0.3904 0.9496
N3 N 1.1149(5) 0.1950(3) 0.9498(2)
H14 H 1.1117 0.1233 0.9498
H15 H 1.2202 0.2336 0.9494
C16 C 0.9610(6) 0.2448(3) 0.9503(3)
N4 N 0.3425(5) 0.6732(3) 0.8752(2)
H16 H 0.3348 0.6007 0.8710
H17 H 0.2426 0.7084 0.8749
N5 N 0.6564(5) 0.6769(3) 0.8824(2)
H18 H 0.6499 0.6044 0.8783
H19 H 0.7636 0.7147 0.8869
N6 N 0.5151(5) 0.8386(3) 0.8878(2)
H20 H 0.4146 0.8734 0.8872
H21 H 0.6224 0.8763 0.8922
C17 C 0.5046(6) 0.7292(3) 0.8819(3)
O7 O 0.6540(10) 0.3056(6) 0.4584(4)
C18 C 0.7507(15) 0.2514(9) 0.4118(6)
C19 C 0.8707(16) 0.1695(10) 0.4376(7)
H22 H 0.8635 0.1705 0.4944
H23 H 0.9970 0.1887 0.4257
H24 H 0.8303 0.0955 0.4097
C20 C 0.7397(16) 0.2657(10) 0.3263(6)
H25 H 0.6548 0.3215 0.3187
H26 H 0.6962 0.1952 0.2939
H27 H 0.8610 0.2896 0.3107
O8? O 0.781(3) 0.3060(19) 0.5085(14)
C21? C 0.826(5) 0.231(3) 0.4545(17)
C22? C 0.903(5) 0.131(3) 0.476(2)
H28? H 0.9132 0.1367 0.5333
H29? H 1.0249 0.1250 0.4552
H30? H 0.8234 0.0658 0.4535
C23? C 0.795(5) 0.258(3) 0.3717(18)
H31? H 0.7466 0.3303 0.3745
H32? H 0.7067 0.2014 0.3417
H33? H 0.9105 0.2580 0.3456
loop_
_geom_bond_atom_site_label_1
_geom_bond_atom_site_label_2
_geom_bond_site_symmetry_1
_geom_bond_site_symmetry_2
S1 O1 1_555 1_555
S2 O4 1_555 1_555
O2 S1 1_555 1_555
O3 S1 1_555 1_555
O5 S2 1_555 1_555
O6 S2 1_555 1_555
C1 S1 1_555 1_555
C2 C1 1_555 1_555
H1 C2 1_555 1_555
C3 C2 1_555 1_555
H2 C3 1_555 1_555
C4 C3 1_555 1_555
C5 C4 1_555 1_555
H3 C5 1_555 1_555
C6 C1 1_555 1_555
H4 C6 1_555 1_555
C7 C4 1_555 1_555
C8 C7 1_555 1_555
H5 C8 1_555 1_555
C9 C8 1_555 1_555
C10 S2 1_555 1_555
C11 C10 1_555 1_555
H6 C11 1_555 1_555
C12 C11 1_555 1_555
H7 C12 1_555 1_555
C13 C9 1_555 1_555
C14 C13 1_555 1_555
H8 C14 1_555 1_555
C15 C10 1_555 1_555
H9 C15 1_555 1_555
N1 H10 1_555 1_555
H11 N1 1_555 1_555
N2 H12 1_555 1_555
H13 N2 1_555 1_555
N3 H14 1_555 1_555
H15 N3 1_555 1_555
C16 N1 1_555 1_555
N4 H16 1_555 1_555
H17 N4 1_555 1_555
N5 H18 1_555 1_555
H19 N5 1_555 1_555
N6 H20 1_555 1_555
H21 N6 1_555 1_555
C17 N4 1_555 1_555
O7 C18 1_555 1_555
C18 C19 1_555 1_555
C19 H22 1_555 1_555
H23 C19 1_555 1_555
H24 C19 1_555 1_555
C20 C18 1_555 1_555
H25 C20 1_555 1_555
H26 C20 1_555 1_555
H27 C20 1_555 1_555
S1A O1A 1_555 1_555
S2A O4A 1_555 1_555
O2A S1A 1_555 1_555
O3A S1A 1_555 1_555
O5A S2A 1_555 1_555
O6A S2A 1_555 1_555
C1A S1A 1_555 1_555
C2A C1A 1_555 1_555
H1A C2A 1_555 1_555
C3A C2A 1_555 1_555
H2A C3A 1_555 1_555
C4A C3A 1_555 1_555
C5A C4A 1_555 1_555
H3A C5A 1_555 1_555
C6A C1A 1_555 1_555
H4A C6A 1_555 1_555
C7A C9 1_555 1_555
C8A C7A 1_555 1_555
H5A C8A 1_555 1_555
C9A C7 1_555 1_555
C10A S2A 1_555 1_555
C11A C10A 1_555 1_555
H6A C11A 1_555 1_555
C12A C11A 1_555 1_555
H7A C12A 1_555 1_555
C13A C9A 1_555 1_555
C14A C13A 1_555 1_555
H8A C14A 1_555 1_555
C15A C10A 1_555 1_555
H9A C15A 1_555 1_555
C5 C6 1_555 1_555
C12 C13 1_555 1_555
C14 C15 1_555 1_555
N2 C16 1_555 1_555
N3 C16 1_555 1_555
N5 C17 1_555 1_555
N6 C17 1_555 1_555
C4A C7A 1_555 1_555
C5A C6A 1_555 1_555
C8A C9A 1_555 1_555
C12A C13A 1_555 1_555
C14A C15A 1_555 1_555

#END
