
#######################################################################
#
#                 Cambridge Crystallographic Data Centre
#                                CCDC 
#
#######################################################################
#
# If this CIF has been generated from an entry in the Cambridge 
# Structural Database, then it will include bibliographic, chemical, 
# crystal, experimental, refinement or atomic coordinate data resulting 
# from the CCDC's data processing and validation procedures.
#
#######################################################################

data_RUBRIQ
_chemical_formula_moiety         'C56 H86 N8 O12 S2,2(C1 H1 Cl3)'
_chemical_name_systematic        
"4,6-bis(2-((t-Butoxycarbonyl)amino)ethoxy)-N,N'-bis(3-amino-5-t-butyl-2-(2-((t-butoxycarbonyl)amino)ethylsulfanyl)phenyl)benzene-1,3-dicarboxamide chloroform solvate"
_symmetry_cell_setting           triclinic
_symmetry_space_group_name_H-M   'P -1'
_symmetry_Int_Tables_number      2
_space_group_name_Hall           '-P 1'
loop_
_symmetry_equiv_pos_site_id
_symmetry_equiv_pos_as_xyz
1 x,y,z
2 -x,-y,-z
_cell_length_a                   13.9237(6)
_cell_length_b                   16.1124(4)
_cell_length_c                   18.4397(9)
_cell_angle_alpha                68.781(5)
_cell_angle_beta                 83.603(6)
_cell_angle_gamma                65.515(5)
_cell_volume                     3505.94
_cell_formula_units_Z            2
loop_
_atom_site_label
_atom_site_type_symbol
_atom_site_fract_x
_atom_site_fract_y
_atom_site_fract_z
S1 S 0.52314(6) 0.34295(6) 0.57075(4)
S2 S 1.06683(6) 0.73775(6) 0.55068(4)
O1 O 0.73012(17) -0.00074(17) 0.57400(13)
O2 O 0.59293(18) 0.06842(17) 0.48538(14)
O3 O 0.7325(2) 0.49356(18) 0.34681(11)
O4 O 0.7256(2) 0.41066(19) 0.58818(12)
O5 O 0.6738(3) 0.2048(3) 0.80808(16)
O6 O 0.6800(2) 0.2497(2) 0.90926(13)
O7 O 0.92220(18) 0.59920(16) 0.57767(11)
O8 O 0.8210(2) 0.44859(19) 0.80601(14)
O9 O 0.8818(3) 0.4727(3) 0.90325(14)
O10 O 0.91397(19) 0.68142(17) 0.33599(12)
O11 O 0.8934(2) 0.7317(2) 0.81986(13)
O12 O 0.7475(2) 0.8747(2) 0.78520(14)
N1 N 0.3947(2) 0.2900(2) 0.48703(17)
H1 H 0.3938 0.2809 0.5360
H2 H 0.3538 0.2752 0.4670
N2 N 0.5741(2) 0.1193(2) 0.58337(17)
H3 H 0.5090 0.1498 0.5669
N3 N 0.66148(19) 0.41881(18) 0.45400(13)
H4 H 0.6616 0.4023 0.5039
N4 N 0.7531(3) 0.3048(3) 0.80202(16)
H5 H 0.7692 0.3336 0.8270
N5 N 0.8647(3) 0.5767(2) 0.78448(15)
H6 H 0.8838 0.6076 0.8054
N6 N 0.95277(19) 0.71083(19) 0.43866(14)
H7 H 0.9550 0.6908 0.4887
N7 N 1.1239(2) 0.9049(2) 0.46336(18)
H8 H 1.1431 0.9526 0.4438
H9 H 1.1343 0.8716 0.5124
N8 N 0.8714(2) 0.8498(2) 0.70186(16)
H10 H 0.8309 0.9072 0.6724
C1 C 0.5297(2) 0.3532(2) 0.47130(17)
C2 C 0.4633(2) 0.3291(2) 0.43959(18)
C3 C 0.4677(2) 0.3377(2) 0.36079(19)
H11 H 0.4226 0.3213 0.3406
C4 C 0.5383(2) 0.3704(2) 0.31268(18)
C5 C 0.6033(2) 0.3982(2) 0.34335(17)
H12 H 0.6494 0.4220 0.3113
C6 C 0.5992(2) 0.3906(2) 0.42103(17)
C7 C 0.6320(3) 0.2272(2) 0.61912(17)
H13 H 0.6892 0.2177 0.5836
H14 H 0.6576 0.2314 0.6640
C8 C 0.6060(3) 0.1377(3) 0.6464(2)
H15 H 0.6676 0.0811 0.6743
H16 H 0.5495 0.1461 0.6825
C9 C 0.6401(3) 0.0580(2) 0.54957(19)
C10 C 0.6520(3) 0.0171(3) 0.4314(2)
C11 C 0.7484(3) 0.0410(4) 0.4036(2)
H17 H 0.7993 0.0118 0.4463
H18 H 0.7269 0.1103 0.3844
H19 H 0.7796 0.0160 0.3627
C12 C 0.5724(4) 0.0607(3) 0.3649(2)
H20 H 0.5125 0.0451 0.3830
H21 H 0.6039 0.0348 0.3245
H22 H 0.5500 0.1301 0.3448
C13 C 0.6818(3) -0.0922(3) 0.4724(3)
H23 H 0.7338 -0.1173 0.5135
H24 H 0.7100 -0.1249 0.4355
H25 H 0.6200 -0.1029 0.4938
C14 C 0.5461(3) 0.3802(3) 0.22640(19)
C15 C 0.6569(4) 0.3111(4) 0.2143(2)
H26 H 0.6683 0.2453 0.2459
H27 H 0.7088 0.3277 0.2290
H28 H 0.6632 0.3169 0.1605
C16 C 0.4641(4) 0.3556(4) 0.1999(2)
H29 H 0.3944 0.3987 0.2072
H30 H 0.4747 0.2896 0.2301
H31 H 0.4717 0.3629 0.1458
C17 C 0.5267(4) 0.4865(3) 0.1762(2)
H32 H 0.4571 0.5291 0.1842
H33 H 0.5327 0.4929 0.1222
H34 H 0.5781 0.5035 0.1910
C18 C 0.7218(2) 0.4690(2) 0.41718(16)
C19 C 0.7729(2) 0.4971(2) 0.46636(15)
C20 C 0.7768(2) 0.4686(2) 0.54847(17)
C21 C 0.8275(2) 0.5010(2) 0.58517(16)
H35 H 0.8305 0.4800 0.6393
C22 C 0.8743(2) 0.5641(2) 0.54337(16)
C23 C 0.8715(2) 0.5956(2) 0.46091(16)
C24 C 0.8221(2) 0.5597(2) 0.42610(15)
H36 H 0.8217 0.5785 0.3721
C25 C 0.6981(3) 0.4023(3) 0.6708(2)
H37 H 0.6900 0.4606 0.6797
H38 H 0.6324 0.3936 0.6821
C26 C 0.7858(3) 0.3169(3) 0.7208(2)
H39 H 0.8503 0.3276 0.7129
H40 H 0.7978 0.2594 0.7091
C27 C 0.6987(3) 0.2495(3) 0.83769(19)
C28 C 0.6336(4) 0.1857(4) 0.9645(2)
C29 C 0.5242(6) 0.2159(8) 0.9360(3)
H41 H 0.4835 0.2829 0.9303
H42 H 0.4923 0.1762 0.9728
H43 H 0.5263 0.2081 0.8866
C30 C 0.7038(8) 0.0839(5) 0.9755(4)
H44 H 0.7723 0.0698 0.9944
H45 H 0.7099 0.0737 0.9268
H46 H 0.6749 0.0416 1.0127
C31 C 0.6256(5) 0.2118(5) 1.0364(3)
H47 H 0.5761 0.2780 1.0259
H48 H 0.6937 0.2046 1.0505
H49 H 0.6020 0.1694 1.0784
C32 C 0.9412(3) 0.5602(2) 0.66186(17)
H50 H 1.0020 0.5679 0.6745
H51 H 0.9567 0.4912 0.6811
C33 C 0.8454(3) 0.6122(3) 0.70128(17)
H52 H 0.8283 0.6815 0.6804
H53 H 0.7853 0.6023 0.6901
C34 C 0.8527(3) 0.4942(3) 0.82960(18)
C35 C 0.8757(6) 0.3858(6) 0.9665(3)
C36 C 0.7563(6) 0.4096(7) 0.9768(3)
H54 H 0.7285 0.4011 0.9358
H55 H 0.7197 0.4757 0.9748
H56 H 0.7465 0.3666 1.0262
C37 C 0.9224(10) 0.3955(9) 1.0347(3)
H57 H 0.8767 0.4552 1.0424
H58 H 0.9911 0.3957 1.0221
H59 H 0.9281 0.3416 1.0815
C38 C 0.9410(8) 0.2914(6) 0.9486(4)
H60 H 0.9071 0.2915 0.9060
H61 H 0.9456 0.2360 0.9938
H62 H 1.0107 0.2883 0.9350
C39 C 0.9151(2) 0.6666(2) 0.40633(17)
C40 C 0.9891(2) 0.7856(2) 0.40170(17)
C41 C 1.0426(2) 0.8049(2) 0.45034(18)
C42 C 1.0767(2) 0.8819(2) 0.41640(19)
C43 C 1.0591(3) 0.9341(2) 0.3376(2)
H63 H 1.0838 0.9830 0.3157
C44 C 1.0055(3) 0.9156(2) 0.28995(19)
C45 C 0.9702(2) 0.8406(2) 0.32288(18)
H64 H 0.9340 0.8277 0.2918
C46 C 0.9549(3) 0.8188(3) 0.58726(19)
H65 H 0.9458 0.8856 0.5589
H66 H 0.8913 0.8125 0.5784
C47 C 0.9707(3) 0.7958(3) 0.6727(2)
H67 H 0.9924 0.7265 0.7004
H68 H 1.0256 0.8141 0.6810
C48 C 0.8421(3) 0.8113(3) 0.77389(18)
C49 C 0.6939(3) 0.8512(3) 0.8590(2)
C50 C 0.6746(5) 0.7606(4) 0.8720(3)
H69 H 0.6332 0.7713 0.8286
H70 H 0.6373 0.7471 0.9189
H71 H 0.7411 0.7064 0.8767
C51 C 0.7583(5) 0.8369(4) 0.9246(3)
H72 H 0.7691 0.8950 0.9153
H73 H 0.8254 0.7834 0.9290
H74 H 0.7222 0.8232 0.9721
C52 C 0.5929(4) 0.9411(4) 0.8447(3)
H75 H 0.5532 0.9495 0.8014
H76 H 0.6092 0.9968 0.8334
H77 H 0.5520 0.9345 0.8903
C53 C 0.9827(3) 0.9783(3) 0.2027(2)
C54 C 0.9840(6) 0.9197(4) 0.1539(2)
H78 H 0.9342 0.8905 0.1730
H79 H 1.0535 0.8697 0.1572
H80 H 0.9651 0.9618 0.1007
C55 C 0.8760(6) 1.0611(5) 0.1928(3)
H81 H 0.8230 1.0357 0.2110
H82 H 0.8612 1.1010 0.1387
H83 H 0.8757 1.0996 0.2223
C56 C 1.0632(5) 1.0211(5) 0.1714(3)
H84 H 1.0629 1.0603 0.2002
H85 H 1.0459 1.0608 0.1174
H86 H 1.1320 0.9696 0.1765
loop_
_geom_bond_atom_site_label_1
_geom_bond_atom_site_label_2
_geom_bond_site_symmetry_1
_geom_bond_site_symmetry_2
S1 C1 1_555 1_555
S2 C41 1_555 1_555
O1 C9 1_555 1_555
O2 C9 1_555 1_555
O3 C18 1_555 1_555
O4 C20 1_555 1_555
O5 C27 1_555 1_555
O6 C27 1_555 1_555
O7 C22 1_555 1_555
O8 C34 1_555 1_555
O9 C34 1_555 1_555
O10 C39 1_555 1_555
O11 C48 1_555 1_555
O12 C48 1_555 1_555
N1 H1 1_555 1_555
H2 N1 1_555 1_555
N2 H3 1_555 1_555
N3 H4 1_555 1_555
N4 H5 1_555 1_555
N5 H6 1_555 1_555
N6 H7 1_555 1_555
N7 H8 1_555 1_555
H9 N7 1_555 1_555
N8 H10 1_555 1_555
C1 C2 1_555 1_555
C2 N1 1_555 1_555
C3 C2 1_555 1_555
H11 C3 1_555 1_555
C4 C3 1_555 1_555
C5 C4 1_555 1_555
H12 C5 1_555 1_555
C6 N3 1_555 1_555
C7 S1 1_555 1_555
H13 C7 1_555 1_555
H14 C7 1_555 1_555
C8 N2 1_555 1_555
H15 C8 1_555 1_555
H16 C8 1_555 1_555
C9 N2 1_555 1_555
C10 O2 1_555 1_555
C11 C10 1_555 1_555
H17 C11 1_555 1_555
H18 C11 1_555 1_555
H19 C11 1_555 1_555
C12 C10 1_555 1_555
H20 C12 1_555 1_555
H21 C12 1_555 1_555
H22 C12 1_555 1_555
C13 C10 1_555 1_555
H23 C13 1_555 1_555
H24 C13 1_555 1_555
H25 C13 1_555 1_555
C14 C4 1_555 1_555
C15 C14 1_555 1_555
H26 C15 1_555 1_555
H27 C15 1_555 1_555
H28 C15 1_555 1_555
C16 C14 1_555 1_555
H29 C16 1_555 1_555
H30 C16 1_555 1_555
H31 C16 1_555 1_555
C17 C14 1_555 1_555
H32 C17 1_555 1_555
H33 C17 1_555 1_555
H34 C17 1_555 1_555
C18 N3 1_555 1_555
C19 C18 1_555 1_555
C20 C19 1_555 1_555
C21 C20 1_555 1_555
H35 C21 1_555 1_555
C22 C21 1_555 1_555
C23 C22 1_555 1_555
C24 C19 1_555 1_555
H36 C24 1_555 1_555
C25 O4 1_555 1_555
H37 C25 1_555 1_555
H38 C25 1_555 1_555
C26 N4 1_555 1_555
H39 C26 1_555 1_555
H40 C26 1_555 1_555
C27 N4 1_555 1_555
C28 O6 1_555 1_555
C29 C28 1_555 1_555
H41 C29 1_555 1_555
H42 C29 1_555 1_555
H43 C29 1_555 1_555
C30 C28 1_555 1_555
H44 C30 1_555 1_555
H45 C30 1_555 1_555
H46 C30 1_555 1_555
C31 C28 1_555 1_555
H47 C31 1_555 1_555
H48 C31 1_555 1_555
H49 C31 1_555 1_555
C32 O7 1_555 1_555
H50 C32 1_555 1_555
H51 C32 1_555 1_555
C33 N5 1_555 1_555
H52 C33 1_555 1_555
H53 C33 1_555 1_555
C34 N5 1_555 1_555
C35 O9 1_555 1_555
C36 C35 1_555 1_555
H54 C36 1_555 1_555
H55 C36 1_555 1_555
H56 C36 1_555 1_555
C37 C35 1_555 1_555
H57 C37 1_555 1_555
H58 C37 1_555 1_555
H59 C37 1_555 1_555
C38 C35 1_555 1_555
H60 C38 1_555 1_555
H61 C38 1_555 1_555
H62 C38 1_555 1_555
C39 N6 1_555 1_555
C40 N6 1_555 1_555
C41 C40 1_555 1_555
C42 N7 1_555 1_555
C43 C42 1_555 1_555
H63 C43 1_555 1_555
C44 C43 1_555 1_555
C45 C40 1_555 1_555
H64 C45 1_555 1_555
C46 S2 1_555 1_555
H65 C46 1_555 1_555
H66 C46 1_555 1_555
C47 N8 1_555 1_555
H67 C47 1_555 1_555
H68 C47 1_555 1_555
C48 N8 1_555 1_555
C49 O12 1_555 1_555
C50 C49 1_555 1_555
H69 C50 1_555 1_555
H70 C50 1_555 1_555
H71 C50 1_555 1_555
C51 C49 1_555 1_555
H72 C51 1_555 1_555
H73 C51 1_555 1_555
H74 C51 1_555 1_555
C52 C49 1_555 1_555
H75 C52 1_555 1_555
H76 C52 1_555 1_555
H77 C52 1_555 1_555
C53 C44 1_555 1_555
C54 C53 1_555 1_555
H78 C54 1_555 1_555
H79 C54 1_555 1_555
H80 C54 1_555 1_555
C55 C53 1_555 1_555
H81 C55 1_555 1_555
H82 C55 1_555 1_555
H83 C55 1_555 1_555
C56 C53 1_555 1_555
H84 C56 1_555 1_555
H85 C56 1_555 1_555
H86 C56 1_555 1_555
C1 C6 1_555 1_555
C5 C6 1_555 1_555
C7 C8 1_555 1_555
C23 C24 1_555 1_555
C23 C39 1_555 1_555
C25 C26 1_555 1_555
C32 C33 1_555 1_555
C41 C42 1_555 1_555
C44 C45 1_555 1_555
C46 C47 1_555 1_555

#END
