
#######################################################################
#
#                 Cambridge Crystallographic Data Centre
#                                CCDC 
#
#######################################################################
#
# If this CIF has been generated from an entry in the Cambridge 
# Structural Database, then it will include bibliographic, chemical, 
# crystal, experimental, refinement or atomic coordinate data resulting 
# from the CCDC's data processing and validation procedures.
#
#######################################################################

data_RUBROX
_chemical_formula_moiety         'C19 H13 O9 S3 3-,3.67(C9 H12),3(C1 H6 N3 1+)'
_chemical_name_systematic        
"tris(Guanidinium) 4,4',4''-methanetriyltribenzenesulfonate mesitylene solvate"
_symmetry_cell_setting           hexagonal
_symmetry_space_group_name_H-M   'P 63'
_symmetry_Int_Tables_number      173
_space_group_name_Hall           'P 6c'
loop_
_symmetry_equiv_pos_site_id
_symmetry_equiv_pos_as_xyz
1 x,y,z
2 -y,x-y,z
3 -x+y,-x,z
4 -x,-y,1/2+z
5 y,-x+y,1/2+z
6 x-y,x,1/2+z
_cell_length_a                   21.464(3)
_cell_length_b                   21.464(3)
_cell_length_c                   7.5364(12)
_cell_angle_alpha                90
_cell_angle_beta                 90
_cell_angle_gamma                120
_cell_volume                     3006.88
_exptl_crystal_colour            colorless
_exptl_crystal_description       needle
_cell_formula_units_Z            2
loop_
_atom_site_label
_atom_site_type_symbol
_atom_site_fract_x
_atom_site_fract_y
_atom_site_fract_z
S1 S 0.84723(7) 0.65171(7) 0.2961(5)
O1 O 0.92218(17) 0.67045(18) 0.3001(13)
O2 O 0.8268(4) 0.6753(4) 0.4559(7)
O3 O 0.8268(5) 0.6753(5) 0.1387(9)
C1 C 0.7947(6) 0.5587(5) 0.3487(13)
C2 C 0.7299(7) 0.5187(8) 0.2590(13)
H1 H 0.7148 0.5414 0.1750
C3 C 0.6874(6) 0.4454(8) 0.2923(16)
H2 H 0.6431 0.4181 0.2310
C4 C 0.7096(7) 0.4123(5) 0.4152(18)
C5 C 0.7743(6) 0.4523(6) 0.5049(15)
H3 H 0.7895 0.4296 0.5889
C6 C 0.8169(5) 0.5256(6) 0.4716(13)
H4 H 0.8611 0.5529 0.5329
C7 C 0.6667 0.3333 0.493(4)
H5 H 0.6667 0.3333 0.6255
S1A S 0.34829(7) 0.19552(10) 0.2961(5)
O1A O 0.32955(18) 0.25173(25) 0.3001(13)
O2A O 0.3247(4) 0.1515(6) 0.4559(7)
O3A O 0.3247(5) 0.1515(7) 0.1387(9)
C1A C 0.4413(5) 0.2360(8) 0.3487(13)
C2A C 0.4813(8) 0.2112(11) 0.2590(13)
H1A H 0.4586 0.1734 0.1750
C3A C 0.5546(8) 0.2420(10) 0.2923(16)
H2A H 0.5819 0.2250 0.2310
C4A C 0.5877(5) 0.2973(9) 0.4152(18)
C5A C 0.5477(6) 0.3220(8) 0.5049(15)
H3A H 0.5704 0.3599 0.5889
C6A C 0.4744(6) 0.2913(8) 0.4716(13)
H4A H 0.4471 0.3082 0.5329
S1B S 0.80448(10) 0.15277(7) 0.2961(5)
O1B O 0.74827(25) 0.07782(17) 0.3001(13)
O2B O 0.8485(6) 0.1732(4) 0.4559(7)
O3B O 0.8485(7) 0.1732(5) 0.1387(9)
C1B C 0.7640(8) 0.2053(6) 0.3487(13)
C2B C 0.7888(11) 0.2701(7) 0.2590(13)
H1B H 0.8266 0.2852 0.1750
C3B C 0.7580(10) 0.3126(6) 0.2923(16)
H2B H 0.7750 0.3569 0.2310
C4B C 0.7027(9) 0.2904(7) 0.4152(18)
C5B C 0.6780(8) 0.2257(6) 0.5049(15)
H3B H 0.6401 0.2105 0.5889
C6B C 0.7087(8) 0.1831(5) 0.4716(13)
H4B H 0.6918 0.1389 0.5329
C8 C 0.9085(9) 0.3753(8) -0.211(5)
C9 C 0.9722(9) 0.4366(9) -0.215(4)
H6 H 1.0137 0.4336 -0.2451
C10 C 0.9819(7) 0.5074(8) -0.177(3)
C11 C 0.9240(8) 0.5097(8) -0.139(2)
H7 H 0.9287 0.5556 -0.1186
C12 C 0.8553(8) 0.4495(9) -0.127(2)
C13 C 0.8483(8) 0.3811(8) -0.156(3)
H8 H 0.8030 0.3389 -0.1381
C14 C 0.8913(18) 0.3004(12) -0.214(7)
H9 H 0.9344 0.2982 -0.2461
H10 H 0.8535 0.2738 -0.3022
H11 H 0.8745 0.2790 -0.0968
C15 C 1.0539(8) 0.5723(8) -0.216(4)
H12 H 1.0875 0.5567 -0.2555
H13 H 1.0727 0.6017 -0.1091
H14 H 1.0486 0.6009 -0.3104
C16 C 0.7922(8) 0.4587(10) -0.075(2)
H15 H 0.8087 0.5100 -0.0596
H16 H 0.7714 0.4332 0.0362
H17 H 0.7557 0.4390 -0.1689
C17 C 0.9621(3) 0.7188(3) 0.7877(18)
N1 N 0.9983(6) 0.7379(5) 0.6448(10)
H18 H 0.9761 0.7254 0.5417
H19 H 1.0455 0.7636 0.6489
N2 N 0.8899(2) 0.6795(2) 0.7971(15)
H20 H 0.8641 0.6651 0.6992
H21 H 0.8684 0.6683 0.9011
N3 N 0.9946(6) 0.7341(6) 0.9487(11)
H22 H 1.0419 0.7578 0.9558
H23 H 0.9685 0.7204 1.0460
C18? C 0.7997(9) 0.5579(8) 0.258(2)
C19? C 0.7324(10) 0.5164(11) 0.335(2)
H24? H 0.7148 0.5376 0.4174
C20? C 0.6907(9) 0.4440(11) 0.292(2)
H25? H 0.6446 0.4157 0.3445
C21? C 0.7163(10) 0.4131(8) 0.172(3)
C22? C 0.7837(10) 0.4545(9) 0.095(2)
H26? H 0.8013 0.4334 0.0126
C23? C 0.8254(7) 0.5269(9) 0.1381(19)
H27? H 0.8714 0.5553 0.0855
C24? C 0.6667 0.3333 0.135(6)
C25? C 0.9046(12) 0.3730(8) 0.789(4)
C26? C 0.9746(10) 0.4294(11) 0.812(3)
H28? H 1.0111 0.4200 0.8514
C27? C 0.9912(8) 0.4996(9) 0.776(3)
C28? C 0.9378(8) 0.5134(7) 0.718(3)
H29? H 0.9491 0.5613 0.6931
C29? C 0.8678(7) 0.4569(8) 0.695(3)
C30? C 0.8512(9) 0.3868(7) 0.731(3)
H30? H 0.8034 0.3482 0.7158
C31? C 0.899(3) 0.3005(16) 0.765(8)
H31? H 0.8483 0.2637 0.7478
H32? H 0.9177 0.2888 0.8703
H33? H 0.9268 0.3019 0.6606
C32? C 1.0644(11) 0.5600(13) 0.831(4)
H34? H 1.0944 0.5399 0.8689
H35? H 1.0591 0.5869 0.9288
H36? H 1.0873 0.5923 0.7298
C33? C 0.8133(10) 0.4706(13) 0.600(3)
H37? H 0.8321 0.5225 0.5905
H38? H 0.7681 0.4485 0.6671
H39? H 0.8044 0.4495 0.4808
C34? C 0.9470(6) 0.8939(9) 0.863(2)
C35? C 0.9488(6) 0.8689(8) 1.032(2)
H40? H 0.9060 0.8314 1.0837
C36? C 1.0131(7) 0.8987(8) 1.1259(18)
C37? C 1.0757(6) 0.9535(8) 1.051(2)
H41? H 1.1197 0.9739 1.1146
C38? C 1.0740(7) 0.9785(7) 0.882(2)
C39? C 1.0097(8) 0.9487(8) 0.7879(18)
H42? H 1.0085 0.9658 0.6723
C40? C 0.8730(12) 0.8525(18) 0.782(5)
H43? H 0.8737 0.8715 0.6631
H44? H 0.8385 0.8577 0.8565
H45? H 0.8587 0.8016 0.7729
C41? C 1.010(2) 0.8770(16) 1.318(2)
H46? H 0.9616 0.8386 1.3466
H47? H 1.0234 0.9186 1.3943
H48? H 1.0444 0.8597 1.3364
C42? C 1.1441(9) 1.0411(11) 0.823(4)
H49? H 1.1387 1.0561 0.7041
H50? H 1.1811 1.0270 0.8210
H51? H 1.1585 1.0811 0.9063
H52? H 0.6667 0.3333 0.0024
loop_
_geom_bond_atom_site_label_1
_geom_bond_atom_site_label_2
_geom_bond_site_symmetry_1
_geom_bond_site_symmetry_2
S1 O1 1_555 1_555
O2 S1 1_555 1_555
O3 S1 1_555 1_555
C1 S1 1_555 1_555
C2 C1 1_555 1_555
H1 C2 1_555 1_555
C3 C2 1_555 1_555
H2 C3 1_555 1_555
C4 C3 1_555 1_555
C5 C4 1_555 1_555
H3 C5 1_555 1_555
C6 C1 1_555 1_555
H4 C6 1_555 1_555
C7 C4 1_555 1_555
H5 C7 1_555 1_555
C8 C9 1_555 1_555
C9 H6 1_555 1_555
C10 C9 1_555 1_555
C11 C10 1_555 1_555
H7 C11 1_555 1_555
C12 C11 1_555 1_555
C13 C8 1_555 1_555
H8 C13 1_555 1_555
C14 C8 1_555 1_555
H9 C14 1_555 1_555
H10 C14 1_555 1_555
H11 C14 1_555 1_555
C15 C10 1_555 1_555
H12 C15 1_555 1_555
H13 C15 1_555 1_555
H14 C15 1_555 1_555
C16 C12 1_555 1_555
H15 C16 1_555 1_555
H16 C16 1_555 1_555
H17 C16 1_555 1_555
C17 N1 1_555 1_555
N1 H18 1_555 1_555
H19 N1 1_555 1_555
N2 C17 1_555 1_555
H20 N2 1_555 1_555
H21 N2 1_555 1_555
N3 C17 1_555 1_555
H22 N3 1_555 1_555
H23 N3 1_555 1_555
S1A O1A 1_555 1_555
O2A S1A 1_555 1_555
O3A S1A 1_555 1_555
C1A S1A 1_555 1_555
C2A C1A 1_555 1_555
H1A C2A 1_555 1_555
C3A C2A 1_555 1_555
H2A C3A 1_555 1_555
C4A C7 1_555 1_555
C5A C4A 1_555 1_555
H3A C5A 1_555 1_555
C6A C1A 1_555 1_555
H4A C6A 1_555 1_555
S1B O1B 1_555 1_555
O2B S1B 1_555 1_555
O3B S1B 1_555 1_555
C1B S1B 1_555 1_555
C2B C1B 1_555 1_555
H1B C2B 1_555 1_555
C3B C2B 1_555 1_555
H2B C3B 1_555 1_555
C4B C7 1_555 1_555
C5B C4B 1_555 1_555
H3B C5B 1_555 1_555
C6B C1B 1_555 1_555
H4B C6B 1_555 1_555
C5 C6 1_555 1_555
C12 C13 1_555 1_555
C3A C4A 1_555 1_555
C5A C6A 1_555 1_555
C3B C4B 1_555 1_555
C5B C6B 1_555 1_555

#END
