
#######################################################################
#
#                 Cambridge Crystallographic Data Centre
#                                CCDC 
#
#######################################################################
#
# If this CIF has been generated from an entry in the Cambridge 
# Structural Database, then it will include bibliographic, chemical, 
# crystal, experimental, refinement or atomic coordinate data resulting 
# from the CCDC's data processing and validation procedures.
#
#######################################################################

data_RUBSEO
_chemical_formula_moiety         'C26 H22 Br2 O3'
_chemical_name_systematic        
(4-Bromophenyl)(1-(4-bromophenyl)-3-(3-methoxyphenyl)-4-methyl-6-oxabicyclo[3.1.0]hex-2-yl)methanone
_symmetry_cell_setting           monoclinic
_symmetry_space_group_name_H-M   'P 21'
_symmetry_Int_Tables_number      4
_space_group_name_Hall           'P 2yb'
loop_
_symmetry_equiv_pos_site_id
_symmetry_equiv_pos_as_xyz
1 x,y,z
2 -x,1/2+y,-z
_cell_length_a                   12.6680(12)
_cell_length_b                   5.5599(4)
_cell_length_c                   16.7246(15)
_cell_angle_alpha                90
_cell_angle_beta                 111.072(3)
_cell_angle_gamma                90
_cell_volume                     1099.19
_exptl_crystal_colour            colorless
_exptl_crystal_description       block
_cell_formula_units_Z            2
_exptl_crystal_recrystallization_method methanol/dichloromethane
loop_
_atom_site_label
_atom_site_type_symbol
_atom_site_fract_x
_atom_site_fract_y
_atom_site_fract_z
Br1 Br 0.24189(5) 0.70481(12) -0.06236(4)
Br2 Br 1.09737(6) 0.46776(15) 0.08910(5)
C1 C 0.8478(5) 0.5441(11) 0.3429(4)
C2 C 0.8846(5) 0.4301(13) 0.4278(4)
H1 H 0.9485 0.312 0.4443
C3 C 0.7860(6) 0.3881(13) 0.4547(4)
H2 H 0.7589 0.2193 0.4399
C4 C 0.6947(5) 0.5623(11) 0.3981(4)
H3 H 0.7109 0.7221 0.4275
C5 C 0.7205(5) 0.5915(11) 0.3130(4)
H4 H 0.7013 0.7569 0.2885
C6 C 0.9066(5) 0.5222(11) 0.2807(4)
C7 C 0.9733(6) 0.3221(12) 0.2818(4)
H5 H 0.9793 0.1956 0.3214
C8 C 1.0309(6) 0.3060(13) 0.2256(4)
H6 H 1.0775 0.1708 0.2272
C9 C 1.0201(5) 0.4880(14) 0.1673(4)
C10 C 0.9538(5) 0.6875(15) 0.1642(4)
H7 H 0.9472 0.8116 0.1236
C11 C 0.8971(5) 0.7041(15) 0.2209(4)
H8 H 0.8513 0.8406 0.2191
C12 C 0.8150(6) 0.4259(16) 0.5510(4)
H9 H 0.8341 0.5952 0.5653
H10 H 0.8797 0.3246 0.583
H11 H 0.7496 0.382 0.5662
C13 C 0.5722(5) 0.5041(11) 0.3848(4)
C14 C 0.4883(5) 0.6649(12) 0.3370(4)
H12 H 0.5082 0.8019 0.3115
C15 C 0.3755(6) 0.6243(12) 0.3266(4)
C16 C 0.3069(6) 0.9257(14) 0.2191(4)
H13 H 0.3403 0.836 0.1836
H14 H 0.3587 1.0539 0.2498
H15 H 0.2349 0.9965 0.1825
C17 C 0.3465(6) 0.4288(13) 0.3666(4)
H16 H 0.2701 0.4039 0.3613
C18 C 0.4297(6) 0.2718(13) 0.4137(4)
H17 H 0.4102 0.1382 0.4411
C19 C 0.5424(6) 0.3062(12) 0.4220(4)
H18 H 0.5985 0.1936 0.4531
C20 C 0.6567(5) 0.3997(10) 0.2486(4)
C21 C 0.5593(5) 0.4774(12) 0.1710(3)
C22 C 0.4675(5) 0.3214(11) 0.1389(4)
H19 H 0.4699 0.1695 0.1655
C23 C 0.3736(5) 0.3834(11) 0.0694(4)
H20 H 0.3113 0.276 0.0483
C24 C 0.3711(5) 0.6078(11) 0.0302(4)
C25 C 0.4632(5) 0.7610(11) 0.0590(4)
H21 H 0.4628 0.9084 0.0301
C26 C 0.5562(4) 0.6979(13) 0.1303(3)
H22 H 0.6182 0.8056 0.1516
O1 O 0.9074(3) 0.6856(10) 0.4194(3)
O2 O 0.6801(4) 0.1874(9) 0.2616(3)
O3 O 0.2877(4) 0.7681(9) 0.2789(3)
loop_
_geom_bond_atom_site_label_1
_geom_bond_atom_site_label_2
_geom_bond_site_symmetry_1
_geom_bond_site_symmetry_2
Br1 C24 1_555 1_555
Br2 C9 1_555 1_555
C1 C2 1_555 1_555
C2 H1 1_555 1_555
C3 C2 1_555 1_555
H2 C3 1_555 1_555
C4 C3 1_555 1_555
H3 C4 1_555 1_555
C5 C1 1_555 1_555
H4 C5 1_555 1_555
C6 C1 1_555 1_555
C7 C6 1_555 1_555
H5 C7 1_555 1_555
C8 C7 1_555 1_555
H6 C8 1_555 1_555
C9 C8 1_555 1_555
C10 C9 1_555 1_555
H7 C10 1_555 1_555
C11 C6 1_555 1_555
H8 C11 1_555 1_555
C12 C3 1_555 1_555
H9 C12 1_555 1_555
H10 C12 1_555 1_555
H11 C12 1_555 1_555
C13 C4 1_555 1_555
C14 C13 1_555 1_555
H12 C14 1_555 1_555
C15 C14 1_555 1_555
C16 H13 1_555 1_555
H14 C16 1_555 1_555
H15 C16 1_555 1_555
C17 C15 1_555 1_555
H16 C17 1_555 1_555
C18 C17 1_555 1_555
H17 C18 1_555 1_555
C19 C13 1_555 1_555
H18 C19 1_555 1_555
C20 C5 1_555 1_555
C21 C20 1_555 1_555
C22 C21 1_555 1_555
H19 C22 1_555 1_555
C23 C22 1_555 1_555
H20 C23 1_555 1_555
C24 C23 1_555 1_555
C25 C24 1_555 1_555
H21 C25 1_555 1_555
C26 C21 1_555 1_555
H22 C26 1_555 1_555
O1 C1 1_555 1_555
O2 C20 1_555 1_555
O3 C15 1_555 1_555
C2 O1 1_555 1_555
C4 C5 1_555 1_555
C10 C11 1_555 1_555
C16 O3 1_555 1_555
C18 C19 1_555 1_555
C25 C26 1_555 1_555

#END
