
#######################################################################
#
#                 Cambridge Crystallographic Data Centre
#                                CCDC 
#
#######################################################################
#
# If this CIF has been generated from an entry in the Cambridge 
# Structural Database, then it will include bibliographic, chemical, 
# crystal, experimental, refinement or atomic coordinate data resulting 
# from the CCDC's data processing and validation procedures.
#
#######################################################################

data_RUBTAL
_chemical_formula_moiety         'C39 H32 N4,2(C1 H1 Cl3)'
_chemical_name_systematic        
"3,3'-(3,5-Di-t-butylhepta-3,4-diene-1,6-diyne-1,7-diyl)bis(1,10-phenanthroline) chloroform solvate"
_symmetry_cell_setting           monoclinic
_symmetry_space_group_name_H-M   'C 2'
_symmetry_Int_Tables_number      5
_space_group_name_Hall           'C 2y'
loop_
_symmetry_equiv_pos_site_id
_symmetry_equiv_pos_as_xyz
1 x,y,z
2 -x,y,-z
3 1/2+x,1/2+y,z
4 1/2-x,1/2+y,-z
_cell_length_a                   33.005(7)
_cell_length_b                   5.7867(11)
_cell_length_c                   10.1428(19)
_cell_angle_alpha                90
_cell_angle_beta                 92.629(9)
_cell_angle_gamma                90
_cell_volume                     1935.13
_exptl_crystal_colour            colorless
_exptl_crystal_description       needle
_cell_formula_units_Z            2
_exptl_crystal_recrystallization_method Hexane/Chloroform
loop_
_atom_site_label
_atom_site_type_symbol
_atom_site_fract_x
_atom_site_fract_y
_atom_site_fract_z
Cl1 Cl 0.31172(2) -0.12905(11) 0.87695(7)
Cl2 Cl 0.27730(2) 0.32000(11) 0.91596(6)
Cl3 Cl 0.36063(2) 0.23059(16) 1.00073(6)
C1 C 0.32204(7) 0.1682(4) 0.8802(2)
H1 H 0.3309 0.2165 0.7935
N1 N 0.31449(5) 0.2239(4) 0.56850(17)
N2 N 0.37040(6) 0.5192(4) 0.68591(17)
C2 C 0.35871(6) 0.5549(4) 0.55697(19)
C3 C 0.32969(6) 0.3961(4) 0.4944(2)
C4 C 0.52713(6) 1.4032(4) 0.7888(2)
C5 C 0.44204(7) 1.0060(4) 0.7462(2)
C6 C 0.28817(6) 0.0814(4) 0.5098(2)
H2 H 0.2777 -0.0368 0.5601
C7 C 0.49760(6) 1.2624(4) 0.87066(19)
C8 C 0.39656(7) 0.6653(4) 0.7413(2)
H3 H 0.4050 0.6392 0.8288
C9 C 0.46787(6) 1.1179(4) 0.8026(2)
C10 C 0.41281(6) 0.8593(4) 0.6771(2)
C11 C 0.31814(6) 0.4269(4) 0.3595(2)
C12 C 0.37364(6) 0.7396(4) 0.48300(19)
C13 C 0.5000 1.2608(5) 1.0000
C14 C 0.40094(6) 0.8936(4) 0.5472(2)
H4 H 0.4110 1.0190 0.5015
C15 C 0.55745(7) 1.2312(5) 0.7340(3)
H5 H 0.5716 1.1531 0.8059
H6 H 0.5766 1.3127 0.6828
H7 H 0.5432 1.1200 0.6792
C16 C 0.54963(7) 1.5810(4) 0.8758(2)
H8 H 0.5305 1.6888 0.9093
H9 H 0.5688 1.6622 0.8246
H10 H 0.5637 1.5037 0.9481
C17 C 0.36061(6) 0.7661(4) 0.3469(2)
H11 H 0.3704 0.8892 0.2987
C18 C 0.27497(6) 0.0962(5) 0.3770(2)
H12 H 0.2563 -0.0092 0.3407
C19 C 0.29010(6) 0.2687(5) 0.3018(2)
H13 H 0.2820 0.2818 0.2131
C20 C 0.50438(8) 1.5261(5) 0.6754(2)
H14 H 0.4896 1.4148 0.6220
H15 H 0.5234 1.6054 0.6225
H16 H 0.4858 1.6357 0.7100
C21 C 0.33442(6) 0.6157(4) 0.2875(2)
H17 H 0.3268 0.6349 0.1987
N1A N 0.68551(5) 0.2239(4) 1.43150(17)
N2A N 0.62960(6) 0.5192(4) 1.31409(17)
C2A C 0.64129(6) 0.5549(4) 1.44303(19)
C3A C 0.67031(6) 0.3961(4) 1.5056(2)
C4A C 0.47287(6) 1.4032(4) 1.2112(2)
C5A C 0.55796(7) 1.0060(4) 1.2538(2)
C6A C 0.71183(6) 0.0814(4) 1.4902(2)
H2A H 0.7223 -0.0368 1.4399
C7A C 0.50240(6) 1.2624(4) 1.12934(19)
C8A C 0.60344(7) 0.6653(4) 1.2587(2)
H3A H 0.5950 0.6392 1.1712
C9A C 0.53213(6) 1.1179(4) 1.1974(2)
C10A C 0.58719(6) 0.8593(4) 1.3229(2)
C11A C 0.68186(6) 0.4269(4) 1.6405(2)
C12A C 0.62636(6) 0.7396(4) 1.51700(19)
C14A C 0.59906(6) 0.8936(4) 1.4528(2)
H4A H 0.5890 1.0190 1.4985
C15A C 0.44255(7) 1.2312(5) 1.2660(3)
H5A H 0.4284 1.1531 1.1941
H6A H 0.4234 1.3127 1.3172
H7A H 0.4568 1.1200 1.3208
C16A C 0.45037(7) 1.5810(4) 1.1242(2)
H8A H 0.4695 1.6888 1.0907
H9A H 0.4312 1.6622 1.1754
H10A H 0.4363 1.5037 1.0519
C17A C 0.63939(6) 0.7661(4) 1.6531(2)
H11A H 0.6296 0.8892 1.7013
C18A C 0.72503(6) 0.0962(5) 1.6230(2)
H12A H 0.7437 -0.0092 1.6593
C19A C 0.70990(6) 0.2687(5) 1.6982(2)
H13A H 0.7180 0.2818 1.7869
C20A C 0.49562(8) 1.5261(5) 1.3246(2)
H14A H 0.5104 1.4148 1.3780
H15A H 0.4766 1.6054 1.3775
H16A H 0.5142 1.6357 1.2900
C21A C 0.66558(6) 0.6157(4) 1.7125(2)
H17A H 0.6732 0.6349 1.8013
loop_
_geom_bond_atom_site_label_1
_geom_bond_atom_site_label_2
_geom_bond_site_symmetry_1
_geom_bond_site_symmetry_2
Cl1 C1 1_555 1_555
Cl2 C1 1_555 1_555
Cl3 C1 1_555 1_555
C1 H1 1_555 1_555
N1 C3 1_555 1_555
N2 C2 1_555 1_555
C2 C3 1_555 1_555
C3 C11 1_555 1_555
C4 C7 1_555 1_555
C5 C9 1_555 1_555
C6 N1 1_555 1_555
H2 C6 1_555 1_555
C7 C9 1_555 1_555
C8 N2 1_555 1_555
H3 C8 1_555 1_555
C10 C5 1_555 1_555
C11 C19 1_555 1_555
C12 C2 1_555 1_555
C13 C7 1_555 1_555
C14 C10 1_555 1_555
H4 C14 1_555 1_555
C15 C4 1_555 1_555
H5 C15 1_555 1_555
H6 C15 1_555 1_555
H7 C15 1_555 1_555
C16 C4 1_555 1_555
H8 C16 1_555 1_555
H9 C16 1_555 1_555
H10 C16 1_555 1_555
C17 C12 1_555 1_555
H11 C17 1_555 1_555
C18 C6 1_555 1_555
H12 C18 1_555 1_555
C19 C18 1_555 1_555
H13 C19 1_555 1_555
C20 C4 1_555 1_555
H14 C20 1_555 1_555
H15 C20 1_555 1_555
H16 C20 1_555 1_555
C21 C11 1_555 1_555
H17 C21 1_555 1_555
N1A C3A 1_555 1_555
N2A C2A 1_555 1_555
C2A C3A 1_555 1_555
C3A C11A 1_555 1_555
C4A C7A 1_555 1_555
C5A C9A 1_555 1_555
C6A N1A 1_555 1_555
H2A C6A 1_555 1_555
C7A C13 1_555 1_555
C8A N2A 1_555 1_555
H3A C8A 1_555 1_555
C9A C7A 1_555 1_555
C10A C5A 1_555 1_555
C11A C19A 1_555 1_555
C12A C2A 1_555 1_555
C14A C10A 1_555 1_555
H4A C14A 1_555 1_555
C15A C4A 1_555 1_555
H5A C15A 1_555 1_555
H6A C15A 1_555 1_555
H7A C15A 1_555 1_555
C16A C4A 1_555 1_555
H8A C16A 1_555 1_555
H9A C16A 1_555 1_555
H10A C16A 1_555 1_555
C17A C12A 1_555 1_555
H11A C17A 1_555 1_555
C18A C6A 1_555 1_555
H12A C18A 1_555 1_555
C19A C18A 1_555 1_555
H13A C19A 1_555 1_555
C20A C4A 1_555 1_555
H14A C20A 1_555 1_555
H15A C20A 1_555 1_555
H16A C20A 1_555 1_555
C21A C11A 1_555 1_555
H17A C21A 1_555 1_555
C8 C10 1_555 1_555
C12 C14 1_555 1_555
C17 C21 1_555 1_555
C8A C10A 1_555 1_555
C12A C14A 1_555 1_555
C17A C21A 1_555 1_555

#END
