
#######################################################################
#
#                 Cambridge Crystallographic Data Centre
#                                CCDC 
#
#######################################################################
#
# If this CIF has been generated from an entry in the Cambridge 
# Structural Database, then it will include bibliographic, chemical, 
# crystal, experimental, refinement or atomic coordinate data resulting 
# from the CCDC's data processing and validation procedures.
#
#######################################################################

data_RUBWOC
_chemical_formula_moiety         'C14 H12 Br1 F1 O2 S1'
_chemical_name_systematic        
1-Bromo-4-(1-fluoro-2-(phenylsulfonyl)ethyl)benzene
_symmetry_cell_setting           triclinic
_symmetry_space_group_name_H-M   'P -1'
_symmetry_Int_Tables_number      2
_space_group_name_Hall           '-P 1'
loop_
_symmetry_equiv_pos_site_id
_symmetry_equiv_pos_as_xyz
1 x,y,z
2 -x,-y,-z
_cell_length_a                   5.7504(10)
_cell_length_b                   10.7595(18)
_cell_length_c                   11.1873(18)
_cell_angle_alpha                85.696(4)
_cell_angle_beta                 89.177(4)
_cell_angle_gamma                84.614(4)
_cell_volume                     687.156
_exptl_crystal_colour            colorless
_exptl_crystal_description       prismatic
_cell_formula_units_Z            2
loop_
_atom_site_label
_atom_site_type_symbol
_atom_site_fract_x
_atom_site_fract_y
_atom_site_fract_z
S1 S 0.5257(4) 0.30163(14) 0.44917(13)
O1 O 0.6544(9) 0.2821(4) 0.5572(4)
O2 O 0.2888(10) 0.3498(4) 0.4550(4)
C1 C 0.5482(10) 0.1594(5) 0.3765(4)
C2 C 0.3766(11) 0.1356(5) 0.3013(5)
H1 H 0.2461 0.1929 0.2890
C3 C 0.3965(12) 0.0281(6) 0.2443(6)
H2 H 0.2812 0.0125 0.1915
C4 C 0.5888(13) -0.0585(5) 0.2648(6)
H3 H 0.6013 -0.1329 0.2270
C5 C 0.7594(12) -0.0339(6) 0.3406(6)
H4 H 0.8892 -0.0915 0.3537
C6 C 0.7415(11) 0.0754(5) 0.3980(5)
H5 H 0.8573 0.0921 0.4501
Br1 Br 1.1607(12) 0.8369(5) -0.0412(4)
C7 C 0.725(2) 0.4028(9) 0.3695(8)
H6 H 0.7894 0.4542 0.4261
H7 H 0.8540 0.3509 0.3365
C8 C 0.6095(17) 0.4863(8) 0.2700(7)
H8 H 0.4837 0.5392 0.3062
C9 C 0.7568(12) 0.5701(6) 0.2006(5)
C10 C 0.9541(15) 0.6105(8) 0.2502(6)
H9 H 0.9965 0.5833 0.3284
C11 C 1.0880(14) 0.6917(9) 0.1830(8)
H10 H 1.2200 0.7188 0.2162
C12 C 1.0246(14) 0.7324(7) 0.0661(7)
C13 C 0.8273(13) 0.6919(6) 0.0165(5)
H11 H 0.7849 0.7191 -0.0617
C14 C 0.6934(11) 0.6107(7) 0.0837(5)
H12 H 0.5614 0.5837 0.0505
F1 F 0.5042(12) 0.4114(6) 0.1923(6)
Br2? Br 1.2212(17) 0.8398(7) -0.0305(6)
C15? C 0.563(4) 0.4185(16) 0.3292(17)
H13? H 0.4964 0.3947 0.2560
H14? H 0.4845 0.4983 0.3486
C16? C 0.795(3) 0.4278(16) 0.3142(18)
H15? H 0.8667 0.4372 0.3915
C17? C 0.852(2) 0.5397(10) 0.2198(10)
C18? C 0.994(3) 0.6262(13) 0.2587(10)
H16? H 1.0321 0.6246 0.3393
C19? C 1.079(3) 0.7152(12) 0.1769(14)
H17? H 1.1737 0.7730 0.2029
C20? C 1.022(3) 0.7176(10) 0.0564(13)
C21? C 0.880(2) 0.6310(11) 0.0176(9)
H18? H 0.8422 0.6327 -0.0631
C22? C 0.795(2) 0.5421(10) 0.0993(11)
H19? H 0.7006 0.4843 0.0733
F2? F 0.899(2) 0.3150(10) 0.2632(11)
loop_
_geom_bond_atom_site_label_1
_geom_bond_atom_site_label_2
_geom_bond_site_symmetry_1
_geom_bond_site_symmetry_2
S1 O1 1_555 1_555
O2 S1 1_555 1_555
C1 S1 1_555 1_555
C2 C1 1_555 1_555
H1 C2 1_555 1_555
C3 C2 1_555 1_555
H2 C3 1_555 1_555
C4 C3 1_555 1_555
H3 C4 1_555 1_555
C5 C4 1_555 1_555
H4 C5 1_555 1_555
C6 C1 1_555 1_555
H5 C6 1_555 1_555
Br1 C12 1_555 1_555
C7 S1 1_555 1_555
H6 C7 1_555 1_555
H7 C7 1_555 1_555
C8 C7 1_555 1_555
H8 C8 1_555 1_555
C9 C8 1_555 1_555
C10 C9 1_555 1_555
H9 C10 1_555 1_555
C11 C10 1_555 1_555
H10 C11 1_555 1_555
C12 C11 1_555 1_555
C13 C12 1_555 1_555
H11 C13 1_555 1_555
C14 C9 1_555 1_555
H12 C14 1_555 1_555
F1 C8 1_555 1_555
C5 C6 1_555 1_555
C13 C14 1_555 1_555

#END
