
#######################################################################
#
#                 Cambridge Crystallographic Data Centre
#                                CCDC 
#
#######################################################################
#
# If this CIF has been generated from an entry in the Cambridge 
# Structural Database, then it will include bibliographic, chemical, 
# crystal, experimental, refinement or atomic coordinate data resulting 
# from the CCDC's data processing and validation procedures.
#
#######################################################################

data_RUCDOK
_chemical_formula_moiety         'C36 H32 B3 N3 O7,C1 H1 Cl3'
_chemical_name_systematic        
"3,4,7,8,11,12-Hexamethoxy-6,10-diphenyl-5,6,9,10-tetrahydrobis[1,2]azaborinino[6',5',4',3':4,5;6'',5'',4'',3'':8,9]triphenyleno[1,12-cde][1,2]azaborinin-2(1H)-ol chloroform solvate"
_symmetry_cell_setting           monoclinic
_symmetry_space_group_name_H-M   'P 21/c'
_symmetry_Int_Tables_number      14
_space_group_name_Hall           '-P 2ybc'
loop_
_symmetry_equiv_pos_site_id
_symmetry_equiv_pos_as_xyz
1 x,y,z
2 -x,1/2+y,1/2-z
3 -x,-y,-z
4 x,1/2-y,1/2+z
_cell_length_a                   13.0661(11)
_cell_length_b                   12.1247(9)
_cell_length_c                   22.3242(17)
_cell_angle_alpha                90
_cell_angle_beta                 98.251(6)
_cell_angle_gamma                90
_cell_volume                     3500.05
_exptl_crystal_colour            colorless
_exptl_crystal_description       block
_cell_formula_units_Z            4
loop_
_atom_site_label
_atom_site_type_symbol
_atom_site_fract_x
_atom_site_fract_y
_atom_site_fract_z
B1 B 1.0164(11) 0.1642(10) 0.0416(6)
B2 B 1.0085(11) 0.6792(10) 0.1438(5)
B3 B 0.6374(11) 0.4975(11) -0.0722(6)
C1 C 1.0362(9) 0.2786(8) 0.0736(4)
C2 C 1.1185(9) 0.2968(8) 0.1202(4)
C3 C 1.1305(8) 0.4007(8) 0.1472(4)
C4 C 1.0607(8) 0.4860(8) 0.1267(4)
C5 C 0.9797(8) 0.4722(8) 0.0798(4)
C6 C 0.9026(8) 0.5579(8) 0.0641(4)
C7 C 0.9131(8) 0.6606(8) 0.0951(4)
C8 C 0.8318(9) 0.7362(9) 0.0803(5)
C9 C 0.7470(9) 0.7150(9) 0.0379(5)
C10 C 0.7406(8) 0.6153(8) 0.0072(4)
C11 C 0.8154(8) 0.5340(8) 0.0189(4)
C12 C 0.8050(9) 0.4266(8) -0.0116(5)
C13 C 0.7181(9) 0.4091(8) -0.0562(4)
C14 C 0.7066(9) 0.3013(8) -0.0819(4)
C15 C 0.7766(9) 0.2157(9) -0.0625(4)
C16 C 0.8641(9) 0.2384(9) -0.0203(5)
C17 C 0.8799(9) 0.3453(8) 0.0068(4)
C18 C 0.9663(9) 0.3636(8) 0.0524(4)
C19 C 1.2866(9) 0.2184(9) 0.1455(6)
H1 H 1.3056 0.2112 0.1048
H2 H 1.3199 0.1596 0.1714
H3 H 1.3095 0.2903 0.1624
C20 C 1.1894(9) 0.3781(9) 0.2522(4)
H4 H 1.1252 0.4093 0.2629
H5 H 1.2472 0.3976 0.2833
H6 H 1.1832 0.2977 0.2494
C21 C 1.0373(8) 0.7762(8) 0.1845(5)
C22 C 1.0639(9) 0.7625(10) 0.2491(5)
H7 H 1.0615 0.6897 0.2646
C23 C 1.0923(10) 0.8454(10) 0.2902(6)
H8 H 1.1064 0.8304 0.3324
C24 C 1.1001(10) 0.9538(11) 0.2675(6)
H9 H 1.1199 1.0128 0.2947
C25 C 1.0790(9) 0.9742(10) 0.2066(5)
H10 H 1.0833 1.047 0.1915
C26 C 1.0514(10) 0.8871(9) 0.1672(5)
H11 H 1.041 0.9032 0.1252
C27 C 0.8254(9) 0.9348(8) 0.0838(5)
H12 H 0.8525 0.9286 0.0453
H13 H 0.8635 0.9922 0.1087
H14 H 0.7519 0.9544 0.0761
C28 C 0.5977(11) 0.7922(11) 0.0684(6)
H15 H 0.5679 0.7185 0.0713
H16 H 0.5421 0.8454 0.0563
H17 H 0.6355 0.8133 0.1078
C29 C 0.5410(9) 0.5005(8) -0.1203(5)
C30 C 0.5395(11) 0.5002(11) -0.1841(6)
H18 H 0.6048 0.4991 -0.198
C31 C 0.4537(11) 0.5012(12) -0.2279(6)
H19 H 0.4613 0.5028 -0.2696
C32 C 0.3586(11) 0.4998(11) -0.2106(6)
H20 H 0.2987 0.4988 -0.2403
C33 C 0.3484(11) 0.4997(10) -0.1478(6)
H21 H 0.2822 0.4987 -0.1349
C34 C 0.4388(10) 0.5012(9) -0.1061(6)
H22 H 0.4311 0.5029 -0.0644
C35 C 0.6418(12) 0.2460(12) -0.1805(5)
H23 H 0.6852 0.3021 -0.196
H24 H 0.577 0.2384 -0.2082
H25 H 0.6784 0.1753 -0.1771
C36 C 0.6744(8) 0.0568(9) -0.0654(5)
H26 H 0.6637 0.0857 -0.0258
H27 H 0.6875 -0.0227 -0.0622
H28 H 0.6125 0.0705 -0.0948
N1 N 0.9298(7) 0.1533(7) -0.0033(4)
H29 H 0.9176 0.0889 -0.0211
N2 N 1.0741(7) 0.5868(6) 0.1537(3)
H30 H 1.1301 0.5951 0.1804
N3 N 0.6566(7) 0.5972(7) -0.0359(4)
H31 H 0.6103 0.6503 -0.0423
O1 O 1.0777(6) 0.0707(6) 0.0562(3)
H32 H 1.0941 0.0669 0.0939
O2 O 1.1765(6) 0.2097(5) 0.1423(3)
O3 O 1.2080(6) 0.4222(5) 0.1943(3)
O4 O 0.8373(6) 0.8317(5) 0.1151(3)
O5 O 0.6671(6) 0.7911(5) 0.0241(3)
O6 O 0.6201(6) 0.2780(6) -0.1232(3)
O7 O 0.7605(6) 0.1102(6) -0.0847(3)
C37 C 0.6307(10) 0.2076(14) 0.1335(7)
H33 H 0.6183 0.2762 0.1563
Cl1 Cl 0.7181(4) 0.2362(4) 0.08378(19)
Cl2 Cl 0.6771(5) 0.1057(4) 0.1844(2)
Cl3 Cl 0.5134(4) 0.1658(4) 0.0899(3)
C38? C 0.632(3) 0.222(4) 0.1333(14)
H34? H 0.6005 0.2862 0.1523
Cl4? Cl 0.764(2) 0.220(3) 0.1607(14)
Cl5? Cl 0.572(2) 0.104(2) 0.1548(13)
Cl6? Cl 0.615(2) 0.244(3) 0.0550(12)
loop_
_geom_bond_atom_site_label_1
_geom_bond_atom_site_label_2
_geom_bond_site_symmetry_1
_geom_bond_site_symmetry_2
B1 C1 1_555 1_555
B2 C7 1_555 1_555
B3 C13 1_555 1_555
C1 C2 1_555 1_555
C2 C3 1_555 1_555
C3 C4 1_555 1_555
C4 C5 1_555 1_555
C5 C6 1_555 1_555
C6 C7 1_555 1_555
C7 C8 1_555 1_555
C8 C9 1_555 1_555
C9 C10 1_555 1_555
C10 C11 1_555 1_555
C11 C6 1_555 1_555
C12 C11 1_555 1_555
C13 C12 1_555 1_555
C14 C13 1_555 1_555
C15 C14 1_555 1_555
C16 C15 1_555 1_555
C17 C12 1_555 1_555
C18 C1 1_555 1_555
C19 H1 1_555 1_555
H2 C19 1_555 1_555
H3 C19 1_555 1_555
C20 H4 1_555 1_555
H5 C20 1_555 1_555
H6 C20 1_555 1_555
C21 B2 1_555 1_555
C22 C21 1_555 1_555
H7 C22 1_555 1_555
C23 C22 1_555 1_555
H8 C23 1_555 1_555
C24 C23 1_555 1_555
H9 C24 1_555 1_555
C25 C24 1_555 1_555
H10 C25 1_555 1_555
C26 C21 1_555 1_555
H11 C26 1_555 1_555
C27 H12 1_555 1_555
H13 C27 1_555 1_555
H14 C27 1_555 1_555
C28 H15 1_555 1_555
H16 C28 1_555 1_555
H17 C28 1_555 1_555
C29 B3 1_555 1_555
C30 C29 1_555 1_555
H18 C30 1_555 1_555
C31 C30 1_555 1_555
H19 C31 1_555 1_555
C32 C31 1_555 1_555
H20 C32 1_555 1_555
C33 C32 1_555 1_555
H21 C33 1_555 1_555
C34 C29 1_555 1_555
H22 C34 1_555 1_555
C35 H23 1_555 1_555
H24 C35 1_555 1_555
H25 C35 1_555 1_555
C36 H26 1_555 1_555
H27 C36 1_555 1_555
H28 C36 1_555 1_555
N1 B1 1_555 1_555
H29 N1 1_555 1_555
N2 B2 1_555 1_555
H30 N2 1_555 1_555
N3 B3 1_555 1_555
H31 N3 1_555 1_555
O1 B1 1_555 1_555
H32 O1 1_555 1_555
O2 C2 1_555 1_555
O3 C3 1_555 1_555
O4 C8 1_555 1_555
O5 C9 1_555 1_555
O6 C14 1_555 1_555
O7 C15 1_555 1_555
C37 H33 1_555 1_555
Cl1 C37 1_555 1_555
Cl2 C37 1_555 1_555
Cl3 C37 1_555 1_555
C4 N2 1_555 1_555
C5 C18 1_555 1_555
C10 N3 1_555 1_555
C16 C17 1_555 1_555
C16 N1 1_555 1_555
C17 C18 1_555 1_555
C19 O2 1_555 1_555
C20 O3 1_555 1_555
C25 C26 1_555 1_555
C27 O4 1_555 1_555
C28 O5 1_555 1_555
C33 C34 1_555 1_555
C35 O6 1_555 1_555
C36 O7 1_555 1_555

#END
