
#######################################################################
#
#                 Cambridge Crystallographic Data Centre
#                                CCDC 
#
#######################################################################
#
# If this CIF has been generated from an entry in the Cambridge 
# Structural Database, then it will include bibliographic, chemical, 
# crystal, experimental, refinement or atomic coordinate data resulting 
# from the CCDC's data processing and validation procedures.
#
#######################################################################

data_RUCGAZ
_chemical_formula_moiety         'C24 H17 N1 O1'
_chemical_name_systematic        (3,5-Diphenylpyridin-2-yl)(phenyl)methanone
_symmetry_cell_setting           monoclinic
_symmetry_space_group_name_H-M   'P 21/n'
_symmetry_Int_Tables_number      14
_space_group_name_Hall           '-P 2yn'
loop_
_symmetry_equiv_pos_site_id
_symmetry_equiv_pos_as_xyz
1 x,y,z
2 1/2-x,1/2+y,1/2-z
3 -x,-y,-z
4 1/2+x,1/2-y,1/2+z
_cell_length_a                   9.5489(5)
_cell_length_b                   9.6991(5)
_cell_length_c                   19.1473(10)
_cell_angle_alpha                90
_cell_angle_beta                 97.465(2)
_cell_angle_gamma                90
_cell_volume                     1758.31
_exptl_crystal_colour            colorless
_exptl_crystal_description       block
_cell_formula_units_Z            4
loop_
_atom_site_label
_atom_site_type_symbol
_atom_site_fract_x
_atom_site_fract_y
_atom_site_fract_z
O1 O 0.41539(11) 0.18516(11) 0.14042(5)
N1 N 0.34350(12) 0.39151(11) 0.00670(6)
C1 C 0.46220(15) 0.40398(14) -0.20501(7)
H1 H 0.5277 0.4455 -0.1696
C2 C 0.47639(16) 0.42339(15) -0.27529(7)
H2 H 0.5527 0.4766 -0.2879
C3 C 0.38031(15) 0.36587(14) -0.32726(7)
H3 H 0.3902 0.3798 -0.3755
C4 C 0.26999(15) 0.28808(15) -0.30883(7)
H4 H 0.2029 0.2495 -0.3445
C5 C 0.25659(15) 0.26603(14) -0.23863(7)
H5 H 0.1813 0.2109 -0.2264
C6 C 0.35249(14) 0.32394(13) -0.18581(7)
C7 C 0.35596(15) 0.40626(13) -0.06145(7)
H6 H 0.3785 0.4952 -0.0775
C8 C 0.33809(13) 0.29983(13) -0.11064(7)
C9 C 0.30572(13) 0.17042(13) -0.08585(7)
H7 H 0.2917 0.0951 -0.1177
C10 C 0.29353(13) 0.14968(13) -0.01497(7)
C11 C 0.31463(13) 0.26469(13) 0.02922(7)
C12 C 0.26140(13) 0.01055(13) 0.01131(6)
C13 C 0.33574(14) -0.10385(13) -0.00795(7)
H8 H 0.4073 -0.0925 -0.0376
C14 C 0.30600(16) -0.23387(14) 0.01591(8)
H9 H 0.3581 -0.3112 0.0030
C15 C 0.20116(18) -0.25201(15) 0.05827(8)
H10 H 0.1812 -0.3415 0.0746
C16 C 0.12525(17) -0.13954(15) 0.07691(8)
H11 H 0.0519 -0.1520 0.1055
C17 C 0.15579(15) -0.00873(14) 0.05408(7)
H12 H 0.1043 0.0684 0.0677
C18 C 0.32151(14) 0.25405(13) 0.10844(7)
C19 C 0.21768(14) 0.33131(13) 0.14436(7)
C20 C 0.10127(15) 0.39571(14) 0.10690(8)
H13 H 0.0865 0.3906 0.0569
C21 C 0.00676(17) 0.46741(16) 0.14248(9)
H14 H -0.0729 0.5112 0.1169
C22 C 0.02821(18) 0.47529(16) 0.21510(9)
H15 H -0.0358 0.5260 0.2392
C23 C 0.14166(18) 0.41008(17) 0.25262(9)
H16 H 0.1553 0.4148 0.3026
C24 C 0.23549(16) 0.33791(15) 0.21778(7)
H17 H 0.3132 0.2921 0.2440
loop_
_geom_bond_atom_site_label_1
_geom_bond_atom_site_label_2
_geom_bond_site_symmetry_1
_geom_bond_site_symmetry_2
O1 C18 1_555 1_555
N1 C7 1_555 1_555
C1 H1 1_555 1_555
C2 C1 1_555 1_555
H2 C2 1_555 1_555
C3 C2 1_555 1_555
H3 C3 1_555 1_555
C4 C3 1_555 1_555
H4 C4 1_555 1_555
C5 C4 1_555 1_555
H5 C5 1_555 1_555
C6 C1 1_555 1_555
C7 H6 1_555 1_555
C8 C6 1_555 1_555
C9 C8 1_555 1_555
H7 C9 1_555 1_555
C10 C9 1_555 1_555
C11 N1 1_555 1_555
C12 C10 1_555 1_555
C13 C12 1_555 1_555
H8 C13 1_555 1_555
C14 C13 1_555 1_555
H9 C14 1_555 1_555
C15 C14 1_555 1_555
H10 C15 1_555 1_555
C16 C15 1_555 1_555
H11 C16 1_555 1_555
C17 C12 1_555 1_555
H12 C17 1_555 1_555
C18 C11 1_555 1_555
C19 C18 1_555 1_555
C20 C19 1_555 1_555
H13 C20 1_555 1_555
C21 C20 1_555 1_555
H14 C21 1_555 1_555
C22 C21 1_555 1_555
H15 C22 1_555 1_555
C23 C22 1_555 1_555
H16 C23 1_555 1_555
C24 C19 1_555 1_555
H17 C24 1_555 1_555
C5 C6 1_555 1_555
C7 C8 1_555 1_555
C10 C11 1_555 1_555
C16 C17 1_555 1_555
C23 C24 1_555 1_555

#END
