
#######################################################################
#
#                 Cambridge Crystallographic Data Centre
#                                CCDC 
#
#######################################################################
#
# If this CIF has been generated from an entry in the Cambridge 
# Structural Database, then it will include bibliographic, chemical, 
# crystal, experimental, refinement or atomic coordinate data resulting 
# from the CCDC's data processing and validation procedures.
#
#######################################################################

data_RUCJUV04
_chemical_name_common            Indiplon
_chemical_formula_moiety         'C20 H16 N4 O2 S1'
_chemical_name_systematic        
N-Methyl-N-(3-(3-(2-thienylcarbonyl)pyrazolo[1,5-a]pyrimidin-7-yl)phenyl)acetamide
_symmetry_cell_setting           monoclinic
_symmetry_space_group_name_H-M   'P 21/c'
_symmetry_Int_Tables_number      14
_space_group_name_Hall           '-P 2ybc'
loop_
_symmetry_equiv_pos_site_id
_symmetry_equiv_pos_as_xyz
1 x,y,z
2 -x,1/2+y,1/2-z
3 -x,-y,-z
4 x,1/2-y,1/2+z
_cell_length_a                   9.0734(13)
_cell_length_b                   29.666(6)
_cell_length_c                   6.8422(19)
_cell_angle_alpha                90
_cell_angle_beta                 99.446(2)
_cell_angle_gamma                90
_cell_volume                     1816.75
_exptl_crystal_colour            'light yellow'
_exptl_crystal_description       plate
_cell_formula_units_Z            4
loop_
_atom_site_label
_atom_site_type_symbol
_atom_site_fract_x
_atom_site_fract_y
_atom_site_fract_z
S1 S 0.16148(9) 0.37013(3) 0.44051(11)
O1 O 0.16619(19) 0.27455(7) 0.4838(3)
O2 O -0.2904(2) 0.00902(6) 1.1027(3)
N1 N -0.1637(2) 0.18707(6) 0.5762(3)
N2 N -0.2718(2) 0.21880(6) 0.5884(3)
N3 N -0.3092(2) 0.29871(6) 0.5843(3)
N4 N -0.3615(3) 0.05093(7) 0.8315(3)
C1 C 0.0395(3) 0.33906(9) 0.5554(4)
C2 C -0.0476(3) 0.36643(9) 0.6512(4)
H1 H -0.1210 0.3556 0.7240
C3 C -0.0152(3) 0.41273(9) 0.6287(5)
H2 H -0.0640 0.4365 0.6856
C4 C 0.0937(3) 0.41923(10) 0.5164(5)
H3 H 0.1279 0.4481 0.4840
C5 C 0.0519(3) 0.29001(9) 0.5343(4)
C6 C -0.0671(2) 0.25841(8) 0.5631(3)
C7 C -0.0442(3) 0.21178(8) 0.5611(4)
H4 H 0.0498 0.1988 0.5497
C8 C -0.4184(2) 0.20936(7) 0.5995(3)
C9 C -0.5086(2) 0.24624(8) 0.6048(3)
H5 H -0.6109 0.2423 0.6151
C10 C -0.4505(2) 0.28966(8) 0.5951(3)
H6 H -0.5169 0.3144 0.5963
C11 C -0.2182(2) 0.26289(7) 0.5808(3)
C12 C -0.4724(2) 0.16254(7) 0.6047(3)
C13 C -0.3889(3) 0.12879(8) 0.7139(4)
H7 H -0.2900 0.1348 0.7786
C14 C -0.4511(3) 0.08657(8) 0.7273(4)
C15 C -0.5949(3) 0.07720(8) 0.6324(4)
H8 H -0.6376 0.0483 0.6457
C16 C -0.6757(3) 0.11005(8) 0.5185(4)
H9 H -0.7728 0.1035 0.4492
C17 C -0.6153(3) 0.15256(8) 0.5051(3)
H10 H -0.6716 0.1751 0.4273
C18 C -0.2751(4) 0.02221(10) 0.7165(5)
H11 H -0.1728 0.0190 0.7881
H12 H -0.2728 0.0361 0.5870
H13 H -0.3221 -0.0076 0.6978
C19 C -0.3615(3) 0.04225(9) 1.0222(4)
C20 C -0.4443(3) 0.07395(10) 1.1360(4)
H14 H -0.4346 0.0638 1.2738
H15 H -0.5502 0.0744 1.0763
H16 H -0.4024 0.1043 1.1322
loop_
_geom_bond_atom_site_label_1
_geom_bond_atom_site_label_2
_geom_bond_site_symmetry_1
_geom_bond_site_symmetry_2
S1 C1 1_555 1_555
O1 C5 1_555 1_555
O2 C19 1_555 1_555
N1 N2 1_555 1_555
N2 C8 1_555 1_555
N3 C10 1_555 1_555
N4 C14 1_555 1_555
C1 C2 1_555 1_555
C2 H1 1_555 1_555
C3 C2 1_555 1_555
H2 C3 1_555 1_555
C4 S1 1_555 1_555
H3 C4 1_555 1_555
C5 C1 1_555 1_555
C6 C5 1_555 1_555
C7 N1 1_555 1_555
H4 C7 1_555 1_555
C8 C9 1_555 1_555
C9 H5 1_555 1_555
C10 C9 1_555 1_555
H6 C10 1_555 1_555
C11 N2 1_555 1_555
C12 C8 1_555 1_555
C13 C12 1_555 1_555
H7 C13 1_555 1_555
C14 C13 1_555 1_555
C15 C14 1_555 1_555
H8 C15 1_555 1_555
C16 C15 1_555 1_555
H9 C16 1_555 1_555
C17 C12 1_555 1_555
H10 C17 1_555 1_555
C18 N4 1_555 1_555
H11 C18 1_555 1_555
H12 C18 1_555 1_555
H13 C18 1_555 1_555
C19 N4 1_555 1_555
C20 C19 1_555 1_555
H14 C20 1_555 1_555
H15 C20 1_555 1_555
H16 C20 1_555 1_555
N3 C11 1_555 1_555
C3 C4 1_555 1_555
C6 C7 1_555 1_555
C6 C11 1_555 1_555
C16 C17 1_555 1_555

#END
