
#######################################################################
#
#                 Cambridge Crystallographic Data Centre
#                                CCDC 
#
#######################################################################
#
# If this CIF has been generated from an entry in the Cambridge 
# Structural Database, then it will include bibliographic, chemical, 
# crystal, experimental, refinement or atomic coordinate data resulting 
# from the CCDC's data processing and validation procedures.
#
#######################################################################

data_RUCMEJ
_chemical_formula_moiety         'C20 H16 Cl4 N2'
_chemical_name_systematic        
3,3,6,6-tetrachloro-3a,6a-dimethyl-2,5-diphenyl-3,3a,6,6a-tetrahydropyrrolo[3,2-b]pyrrole
_symmetry_cell_setting           orthorhombic
_symmetry_space_group_name_H-M   'P b c a'
_symmetry_Int_Tables_number      61
_space_group_name_Hall           '-P 2ac 2ab'
loop_
_symmetry_equiv_pos_site_id
_symmetry_equiv_pos_as_xyz
1 x,y,z
2 1/2-x,-y,1/2+z
3 1/2+x,1/2-y,-z
4 -x,1/2+y,1/2-z
5 -x,-y,-z
6 1/2+x,y,1/2-z
7 1/2-x,1/2+y,z
8 x,1/2-y,1/2+z
_cell_length_a                   11.2813(6)
_cell_length_b                   14.1148(7)
_cell_length_c                   24.5832(14)
_cell_angle_alpha                90
_cell_angle_beta                 90
_cell_angle_gamma                90
_cell_volume                     3914.46
_exptl_crystal_colour            colorless
_exptl_crystal_description       block
_cell_formula_units_Z            8
loop_
_atom_site_label
_atom_site_type_symbol
_atom_site_fract_x
_atom_site_fract_y
_atom_site_fract_z
Cl1 Cl 0.83344(5) 0.85593(4) 0.68798(3)
Cl2 Cl 0.90103(5) 0.81388(4) 0.57688(3)
Cl3 Cl 0.97267(5) 0.44437(3) 0.68442(2)
Cl4 Cl 1.16904(4) 0.55261(4) 0.72786(2)
N1 N 0.83930(14) 0.61620(11) 0.67864(7)
N2 N 1.06484(14) 0.67549(11) 0.61777(8)
C1 C 1.00438(18) 0.72140(14) 0.66416(9)
C2 C 0.88681(19) 0.76488(13) 0.64314(9)
C3 C 0.80090(17) 0.68205(13) 0.64809(9)
C4 C 0.95807(17) 0.63886(14) 0.70026(9)
C5 C 1.04258(17) 0.55741(13) 0.68366(9)
C6 C 1.08432(17) 0.58826(14) 0.62766(9)
C7 C 0.68195(18) 0.67756(14) 0.62284(9)
C8 C 0.6249(2) 0.75675(16) 0.60171(10)
H1 H 0.6649(19) 0.8162(16) 0.6015(10)
C9 C 0.5139(2) 0.74810(19) 0.57862(12)
H2 H 0.479(2) 0.8011(17) 0.5658(10)
C10 C 0.4580(2) 0.6617(2) 0.57644(12)
H3 H 0.385(2) 0.6579(17) 0.5606(12)
C11 C 0.5138(2) 0.58250(19) 0.59731(11)
H4 H 0.478(2) 0.5219(17) 0.5965(11)
C12 C 0.6251(2) 0.59003(16) 0.62027(10)
H5 H 0.6644(17) 0.5395(14) 0.6358(9)
C13 C 1.14411(18) 0.52578(15) 0.58804(9)
C14 C 1.2040(2) 0.44379(16) 0.60355(11)
H6 H 1.205(2) 0.4268(15) 0.6411(11)
C15 C 1.2593(2) 0.38797(17) 0.56491(11)
H7 H 1.298(2) 0.3311(17) 0.5744(10)
C16 C 1.2553(2) 0.41267(19) 0.51115(12)
H8 H 1.290(2) 0.3737(18) 0.4860(12)
C17 C 1.1956(3) 0.4934(2) 0.49517(13)
H9 H 1.193(2) 0.5115(18) 0.4603(13)
C18 C 1.1406(2) 0.54975(18) 0.53321(11)
H10 H 1.102(2) 0.6043(17) 0.5233(10)
C19 C 0.9475(2) 0.65561(19) 0.76118(10)
H11 H 0.9274(18) 0.5978(15) 0.7798(10)
H12 H 1.023(2) 0.6761(15) 0.7770(10)
H13 H 0.890(2) 0.7056(16) 0.7676(10)
C20 C 1.0894(2) 0.79216(18) 0.68979(12)
H14 H 1.161(2) 0.7623(18) 0.6977(11)
H15 H 1.060(2) 0.8173(17) 0.7252(12)
H16 H 1.103(2) 0.8444(17) 0.6655(11)
loop_
_geom_bond_atom_site_label_1
_geom_bond_atom_site_label_2
_geom_bond_site_symmetry_1
_geom_bond_site_symmetry_2
Cl1 C2 1_555 1_555
Cl2 C2 1_555 1_555
Cl3 C5 1_555 1_555
Cl4 C5 1_555 1_555
N1 C3 1_555 1_555
N2 C1 1_555 1_555
C1 C2 1_555 1_555
C2 C3 1_555 1_555
C3 C7 1_555 1_555
C4 N1 1_555 1_555
C5 C4 1_555 1_555
C6 N2 1_555 1_555
C7 C8 1_555 1_555
C8 H1 1_555 1_555
C9 C8 1_555 1_555
H2 C9 1_555 1_555
C10 C9 1_555 1_555
H3 C10 1_555 1_555
C11 C10 1_555 1_555
H4 C11 1_555 1_555
C12 C7 1_555 1_555
H5 C12 1_555 1_555
C13 C6 1_555 1_555
C14 C13 1_555 1_555
H6 C14 1_555 1_555
C15 C14 1_555 1_555
H7 C15 1_555 1_555
C16 C15 1_555 1_555
H8 C16 1_555 1_555
C17 C16 1_555 1_555
H9 C17 1_555 1_555
C18 C13 1_555 1_555
H10 C18 1_555 1_555
C19 C4 1_555 1_555
H11 C19 1_555 1_555
H12 C19 1_555 1_555
H13 C19 1_555 1_555
C20 C1 1_555 1_555
H14 C20 1_555 1_555
H15 C20 1_555 1_555
H16 C20 1_555 1_555
C1 C4 1_555 1_555
C5 C6 1_555 1_555
C11 C12 1_555 1_555
C17 C18 1_555 1_555

#END
