
#######################################################################
#
#                 Cambridge Crystallographic Data Centre
#                                CCDC 
#
#######################################################################
#
# If this CIF has been generated from an entry in the Cambridge 
# Structural Database, then it will include bibliographic, chemical, 
# crystal, experimental, refinement or atomic coordinate data resulting 
# from the CCDC's data processing and validation procedures.
#
#######################################################################

data_RUCMIN
_chemical_formula_moiety         'C18 H26 Cl2 N2'
_chemical_name_systematic        
2,4-di-t-butyl-3,4-dichloro-6,7,8,9-tetrahydro-4H-pyrrolo[3,2-c]indole
_symmetry_cell_setting           triclinic
_symmetry_space_group_name_H-M   'P -1'
_symmetry_Int_Tables_number      2
_space_group_name_Hall           '-P 1'
loop_
_symmetry_equiv_pos_site_id
_symmetry_equiv_pos_as_xyz
1 x,y,z
2 -x,-y,-z
_cell_length_a                   9.3474(7)
_cell_length_b                   9.8657(7)
_cell_length_c                   12.3923(9)
_cell_angle_alpha                66.695(7)
_cell_angle_beta                 69.579(7)
_cell_angle_gamma                62.115(7)
_cell_volume                     908.594
_exptl_crystal_colour            'light yellow'
_exptl_crystal_description       block
_cell_formula_units_Z            2
loop_
_atom_site_label
_atom_site_type_symbol
_atom_site_fract_x
_atom_site_fract_y
_atom_site_fract_z
Cl1 Cl -0.10771(9) 0.78850(10) 0.43424(7)
Cl2 Cl 0.44080(10) 0.41780(10) 0.40930(8)
N1 N 0.0080(3) 0.8473(3) 0.1995(2)
N2 N 0.2197(3) 0.4460(3) 0.1784(2)
C1 C 0.0753(3) 0.7669(3) 0.3114(2)
C2 C 0.1593(3) 0.5934(3) 0.3127(2)
C3 C 0.3045(3) 0.4692(3) 0.3220(2)
C4 C 0.3376(3) 0.3805(3) 0.2365(2)
C5 C 0.0891(3) 0.5728(3) 0.2309(2)
C6 C 0.0242(3) 0.7422(3) 0.1550(2)
C7 C -0.0503(4) 0.7774(4) 0.0548(3)
H1 H 0.0316 0.7236 -0.0043
H2 H -0.0921 0.8915 0.0161
C8 C -0.1919(4) 0.7174(4) 0.1077(3)
H3 H -0.2821 0.7860 0.1546
H4 H -0.2324 0.7240 0.0429
C9 C -0.1379(4) 0.5460(4) 0.1871(3)
H5 H -0.0570 0.4758 0.1382
H6 H -0.2326 0.5154 0.2222
C10 C -0.0631(4) 0.5244(4) 0.2873(3)
H7 H -0.0295 0.4139 0.3357
H8 H -0.1447 0.5907 0.3389
C11 C 0.1739(4) 0.8549(3) 0.3151(3)
C12 C 0.0704(4) 1.0356(4) 0.2857(3)
H9 H 0.0530 1.0743 0.2052
H10 H 0.1280 1.0896 0.2930
H11 H -0.0344 1.0557 0.3406
C13 C 0.2144(4) 0.7997(4) 0.4386(3)
H12 H 0.2897 0.8432 0.4343
H13 H 0.2644 0.6851 0.4637
H14 H 0.1147 0.8360 0.4953
C14 C 0.3321(4) 0.8248(4) 0.2184(3)
H15 H 0.3042 0.8546 0.1424
H16 H 0.4023 0.7135 0.2388
H17 H 0.3889 0.8874 0.2134
C15 C 0.4898(4) 0.2364(4) 0.2119(3)
C16 C 0.4765(4) 0.1918(4) 0.1120(3)
H18 H 0.3777 0.1712 0.1350
H19 H 0.5709 0.0979 0.0983
H20 H 0.4724 0.2784 0.0397
C17 C 0.6467(4) 0.2728(5) 0.1707(4)
H21 H 0.6350 0.3658 0.1028
H22 H 0.7404 0.1833 0.1487
H23 H 0.6627 0.2920 0.2350
C18 C 0.4999(4) 0.0953(4) 0.3264(3)
H24 H 0.5098 0.1219 0.3894
H25 H 0.5946 0.0025 0.3108
H26 H 0.4016 0.0736 0.3503
loop_
_geom_bond_atom_site_label_1
_geom_bond_atom_site_label_2
_geom_bond_site_symmetry_1
_geom_bond_site_symmetry_2
Cl1 C1 1_555 1_555
Cl2 C3 1_555 1_555
N1 C1 1_555 1_555
N2 C4 1_555 1_555
C1 C2 1_555 1_555
C2 C3 1_555 1_555
C3 C4 1_555 1_555
C4 C15 1_555 1_555
C5 N2 1_555 1_555
C6 N1 1_555 1_555
C7 C6 1_555 1_555
H1 C7 1_555 1_555
H2 C7 1_555 1_555
C8 C7 1_555 1_555
H3 C8 1_555 1_555
H4 C8 1_555 1_555
C9 C8 1_555 1_555
H5 C9 1_555 1_555
H6 C9 1_555 1_555
C10 C5 1_555 1_555
H7 C10 1_555 1_555
H8 C10 1_555 1_555
C11 C1 1_555 1_555
C12 C11 1_555 1_555
H9 C12 1_555 1_555
H10 C12 1_555 1_555
H11 C12 1_555 1_555
C13 C11 1_555 1_555
H12 C13 1_555 1_555
H13 C13 1_555 1_555
H14 C13 1_555 1_555
C14 C11 1_555 1_555
H15 C14 1_555 1_555
H16 C14 1_555 1_555
H17 C14 1_555 1_555
C15 C16 1_555 1_555
C16 H18 1_555 1_555
H19 C16 1_555 1_555
H20 C16 1_555 1_555
C17 C15 1_555 1_555
H21 C17 1_555 1_555
H22 C17 1_555 1_555
H23 C17 1_555 1_555
C18 C15 1_555 1_555
H24 C18 1_555 1_555
H25 C18 1_555 1_555
H26 C18 1_555 1_555
C2 C5 1_555 1_555
C5 C6 1_555 1_555
C9 C10 1_555 1_555

#END
