
#######################################################################
#
#                 Cambridge Crystallographic Data Centre
#                                CCDC 
#
#######################################################################
#
# If this CIF has been generated from an entry in the Cambridge 
# Structural Database, then it will include bibliographic, chemical, 
# crystal, experimental, refinement or atomic coordinate data resulting 
# from the CCDC's data processing and validation procedures.
#
#######################################################################

data_RUCPAI
_chemical_formula_moiety         'C25 H21 N2 O2 1+,B1 F4 1-'
_chemical_name_systematic        
'3,5-dimethyl-1-(4-nitrophenyl)-2,4-diphenylpyridinium tetrafluoroborate'
_symmetry_cell_setting           monoclinic
_symmetry_space_group_name_H-M   'P 21/c'
_symmetry_Int_Tables_number      14
_space_group_name_Hall           '-P 2ybc'
loop_
_symmetry_equiv_pos_site_id
_symmetry_equiv_pos_as_xyz
1 x,y,z
2 -x,1/2+y,1/2-z
3 -x,-y,-z
4 x,1/2-y,1/2+z
_cell_length_a                   12.3471(4)
_cell_length_b                   13.3272(4)
_cell_length_c                   13.9786(5)
_cell_angle_alpha                90
_cell_angle_beta                 98.588(2)
_cell_angle_gamma                90
_cell_volume                     2274.42
_exptl_crystal_colour            colorless
_cell_formula_units_Z            4
loop_
_atom_site_label
_atom_site_type_symbol
_atom_site_fract_x
_atom_site_fract_y
_atom_site_fract_z
F1 F 0.50234(9) 0.08199(7) 0.10517(7)
F2 F 0.49102(10) 0.25061(7) 0.09000(8)
F3 F 0.34984(9) 0.16382(9) 0.13763(9)
F4 F 0.50847(10) 0.18054(8) 0.23934(8)
B1 B 0.46263(17) 0.16867(13) 0.14386(14)
O1 O 1.02079(11) 0.74026(10) 0.06361(11)
O2 O 0.99625(11) 0.87517(10) -0.02186(11)
N1 N 0.56913(11) 0.88222(9) 0.17416(10)
N2 N 0.96866(12) 0.81569(11) 0.03671(12)
C1 C 0.04230(15) 0.90379(16) 0.30018(15)
H1 H -0.0295 0.9028 0.3170
C2 C 0.11459(17) 0.82687(15) 0.32973(15)
H2 H 0.0926 0.7734 0.3674
C3 C 0.21896(15) 0.82746(13) 0.30462(14)
H3 H 0.2683 0.7744 0.3252
C4 C 0.25161(14) 0.90528(12) 0.24955(12)
C5 C 0.36327(13) 0.90183(11) 0.22113(12)
C6 C 0.45430(14) 0.93862(12) 0.28390(12)
C7 C 0.55864(13) 0.92775(11) 0.25947(11)
C8 C 0.67540(13) 0.86768(11) 0.14339(12)
C9 C 0.73945(14) 0.78709(12) 0.17990(12)
H4 H 0.7169 0.7444 0.2276
C10 C 0.83715(14) 0.77037(12) 0.14509(13)
H5 H 0.8829 0.7155 0.1681
C11 C 0.86684(13) 0.83506(12) 0.07615(12)
C12 C 0.07459(15) 0.98210(15) 0.24612(14)
H6 H 0.0251 1.0352 0.2261
C13 C 0.17942(15) 0.98333(14) 0.22095(13)
H7 H 0.2016 1.0375 0.1842
C14 C 0.37795(13) 0.85744(11) 0.13313(12)
C15 C 0.48214(13) 0.84910(11) 0.11222(11)
H8 H 0.4936 0.8193 0.0528
C16 C 0.28479(14) 0.81650(12) 0.06212(12)
H9 H 0.3110 0.8006 0.0011
H10 H 0.2263 0.8667 0.0505
H11 H 0.2564 0.7555 0.0886
C17 C 0.43871(15) 0.99118(14) 0.37602(13)
H12 H 0.4333 0.9413 0.4266
H13 H 0.3713 1.0311 0.3651
H14 H 0.5013 1.0354 0.3965
C18 C 0.66044(13) 0.96398(12) 0.32032(12)
C19 C 0.71858(14) 1.04422(12) 0.28807(13)
H15 H 0.6932 1.0750 0.2275
C20 C 0.81278(14) 1.07871(12) 0.34417(13)
H16 H 0.8524 1.1329 0.3219
C21 C 0.84968(14) 1.03475(13) 0.43267(13)
H17 H 0.9142 1.0590 0.4714
C22 C 0.79233(15) 0.95530(13) 0.46476(13)
H18 H 0.8178 0.9249 0.5254
C23 C 0.69803(15) 0.91996(13) 0.40873(13)
H19 H 0.6591 0.8654 0.4310
C24 C 0.70568(14) 0.93219(12) 0.07474(12)
H20 H 0.6597 0.9866 0.0509
C25 C 0.80416(14) 0.91625(12) 0.04133(13)
H21 H 0.8280 0.9604 -0.0047
loop_
_geom_bond_atom_site_label_1
_geom_bond_atom_site_label_2
_geom_bond_site_symmetry_1
_geom_bond_site_symmetry_2
F1 B1 1_555 1_555
F2 B1 1_555 1_555
F3 B1 1_555 1_555
F4 B1 1_555 1_555
O1 N2 1_555 1_555
O2 N2 1_555 1_555
N1 C7 1_555 1_555
N2 C11 1_555 1_555
C1 H1 1_555 1_555
C2 C1 1_555 1_555
H2 C2 1_555 1_555
C3 C2 1_555 1_555
H3 C3 1_555 1_555
C4 C3 1_555 1_555
C5 C4 1_555 1_555
C6 C5 1_555 1_555
C7 C6 1_555 1_555
C8 N1 1_555 1_555
C9 C8 1_555 1_555
H4 C9 1_555 1_555
C10 C9 1_555 1_555
H5 C10 1_555 1_555
C11 C10 1_555 1_555
C12 C1 1_555 1_555
H6 C12 1_555 1_555
C13 C4 1_555 1_555
H7 C13 1_555 1_555
C14 C5 1_555 1_555
C15 N1 1_555 1_555
H8 C15 1_555 1_555
C16 C14 1_555 1_555
H9 C16 1_555 1_555
H10 C16 1_555 1_555
H11 C16 1_555 1_555
C17 C6 1_555 1_555
H12 C17 1_555 1_555
H13 C17 1_555 1_555
H14 C17 1_555 1_555
C18 C7 1_555 1_555
C19 C18 1_555 1_555
H15 C19 1_555 1_555
C20 C19 1_555 1_555
H16 C20 1_555 1_555
C21 C20 1_555 1_555
H17 C21 1_555 1_555
C22 C21 1_555 1_555
H18 C22 1_555 1_555
C23 C18 1_555 1_555
H19 C23 1_555 1_555
C24 C8 1_555 1_555
H20 C24 1_555 1_555
C25 C11 1_555 1_555
H21 C25 1_555 1_555
C12 C13 1_555 1_555
C14 C15 1_555 1_555
C22 C23 1_555 1_555
C24 C25 1_555 1_555

#END
