
#######################################################################
#
#                 Cambridge Crystallographic Data Centre
#                                CCDC 
#
#######################################################################
#
# If this CIF has been generated from an entry in the Cambridge 
# Structural Database, then it will include bibliographic, chemical, 
# crystal, experimental, refinement or atomic coordinate data resulting 
# from the CCDC's data processing and validation procedures.
#
#######################################################################

data_RUCRAJ
_chemical_formula_moiety         'C12 H11 F3 N2 O2'
_chemical_name_systematic        
2-(4-Methoxyphenyl)-6-(trifluoromethyl)-4,5-dihydropyridazin-3(2H)-one
_symmetry_cell_setting           monoclinic
_symmetry_space_group_name_H-M   'P 21/n'
_symmetry_Int_Tables_number      14
_space_group_name_Hall           '-P 2yn'
loop_
_symmetry_equiv_pos_site_id
_symmetry_equiv_pos_as_xyz
1 x,y,z
2 1/2-x,1/2+y,1/2-z
3 -x,-y,-z
4 1/2+x,1/2-y,1/2+z
_cell_length_a                   12.695(2)
_cell_length_b                   6.8410(11)
_cell_length_c                   14.491(2)
_cell_angle_alpha                90
_cell_angle_beta                 102.175(2)
_cell_angle_gamma                90
_cell_volume                     1230.19
_exptl_crystal_colour            colorless
_exptl_crystal_description       needle
_cell_formula_units_Z            4
loop_
_atom_site_label
_atom_site_type_symbol
_atom_site_fract_x
_atom_site_fract_y
_atom_site_fract_z
C1 C 0.9138(3) 0.3993(5) 0.1891(2)
C2 C 0.8706(3) 0.2125(5) 0.1845(2)
H1 H 0.8585 0.1444 0.1277
C3 C 0.8454(3) 0.1266(5) 0.2633(2)
H2 H 0.8154 0.0020 0.2595
C4 C 0.8650(2) 0.2267(4) 0.3477(2)
C5 C 0.9078(3) 0.4120(4) 0.3529(2)
H3 H 0.9205 0.4791 0.4100
C6 C 0.9322(3) 0.4993(5) 0.2738(2)
H4 H 0.9608 0.6249 0.2777
C7 C 0.8734(3) -0.0439(5) 0.4624(2)
C8 C 0.8345(3) -0.1143(6) 0.5457(3)
H5 H 0.8838 -0.2131 0.5776
H6 H 0.7647 -0.1756 0.5245
C9 C 0.8246(4) 0.0424(7) 0.6138(3)
H7 H 0.8953 0.0758 0.6507
H8 H 0.7806 -0.0027 0.6568
C10 C 0.7742(3) 0.2176(5) 0.5615(2)
C11 C 0.7167(3) 0.3591(7) 0.6115(3)
C12 C 0.9889(4) 0.6537(6) 0.1110(3)
H9 H 0.9446 0.7544 0.1292
H10 H 1.0031 0.6837 0.0501
H11 H 1.0557 0.6463 0.1566
F1 F 0.6438(2) 0.2761(4) 0.6504(2)
F2 F 0.7826(2) 0.4534(5) 0.6794(2)
F3 F 0.6652(2) 0.4994(4) 0.55736(19)
N1 N 0.8386(2) 0.1422(4) 0.43086(17)
N2 N 0.7832(2) 0.2656(4) 0.47950(18)
O1 O 0.9346(2) 0.4717(4) 0.10698(15)
O2 O 0.9289(2) -0.1396(3) 0.42030(16)
loop_
_geom_bond_atom_site_label_1
_geom_bond_atom_site_label_2
_geom_bond_site_symmetry_1
_geom_bond_site_symmetry_2
C1 C2 1_555 1_555
C2 H1 1_555 1_555
C3 C2 1_555 1_555
H2 C3 1_555 1_555
C4 C3 1_555 1_555
C5 C4 1_555 1_555
H3 C5 1_555 1_555
C6 C1 1_555 1_555
H4 C6 1_555 1_555
C7 C8 1_555 1_555
C8 H5 1_555 1_555
H6 C8 1_555 1_555
C9 C8 1_555 1_555
H7 C9 1_555 1_555
H8 C9 1_555 1_555
C10 C9 1_555 1_555
C11 C10 1_555 1_555
C12 H9 1_555 1_555
H10 C12 1_555 1_555
H11 C12 1_555 1_555
F1 C11 1_555 1_555
F2 C11 1_555 1_555
F3 C11 1_555 1_555
N1 C4 1_555 1_555
N2 C10 1_555 1_555
O1 C1 1_555 1_555
O2 C7 1_555 1_555
C5 C6 1_555 1_555
C7 N1 1_555 1_555
C12 O1 1_555 1_555
N1 N2 1_555 1_555

#END
