
#######################################################################
#
#                 Cambridge Crystallographic Data Centre
#                                CCDC 
#
#######################################################################
#
# If this CIF has been generated from an entry in the Cambridge 
# Structural Database, then it will include bibliographic, chemical, 
# crystal, experimental, refinement or atomic coordinate data resulting 
# from the CCDC's data processing and validation procedures.
#
#######################################################################

data_RUCSUF
_chemical_formula_moiety         'C26 H23 N2 O2 1+,B1 F4 1-'
_chemical_name_systematic        
'3-Ethyl-5-methyl-1-(4-nitrophenyl)-2,4-diphenylpyridinium tetrafluoroborate'
_symmetry_cell_setting           monoclinic
_symmetry_space_group_name_H-M   'P 21/c'
_symmetry_Int_Tables_number      14
_space_group_name_Hall           '-P 2ybc'
loop_
_symmetry_equiv_pos_site_id
_symmetry_equiv_pos_as_xyz
1 x,y,z
2 -x,1/2+y,1/2-z
3 -x,-y,-z
4 x,1/2-y,1/2+z
_cell_length_a                   12.2068(19)
_cell_length_b                   13.731(2)
_cell_length_c                   14.626(2)
_cell_angle_alpha                90
_cell_angle_beta                 99.027(3)
_cell_angle_gamma                90
_cell_volume                     2421.12
_exptl_crystal_colour            colorless
_exptl_crystal_description       prism
_cell_formula_units_Z            4
loop_
_atom_site_label
_atom_site_type_symbol
_atom_site_fract_x
_atom_site_fract_y
_atom_site_fract_z
C1 C 0.3651(2) 0.8414(2) 0.0778(2)
C2 C 0.3400(2) 0.7817(2) 0.1467(2)
H1 H 0.3869 0.7286 0.1681
C3 C 0.2454(2) 0.8002(2) 0.1845(2)
H2 H 0.2266 0.7609 0.2332
C4 C 0.1790(2) 0.87673(19) 0.15000(18)
C5 C 0.2048(2) 0.9369(2) 0.0815(2)
H3 H 0.1577 0.9898 0.0597
C6 C 0.3006(2) 0.9191(2) 0.0449(2)
H4 H 0.3212 0.9600 -0.0020
C7 C 0.0628(2) 0.92865(19) 0.26518(18)
C8 C 0.1664(2) 0.9643(2) 0.32258(19)
C9 C 0.2157(3) 1.0491(2) 0.2968(2)
H5 H 0.1842 1.0827 0.2422
C10 C 0.3103(3) 1.0845(2) 0.3505(2)
H6 H 0.3452 1.1414 0.3317
C11 C 0.3543(3) 1.0377(2) 0.4310(2)
H7 H 0.4179 1.0637 0.4689
C12 C 0.3065(3) 0.9531(2) 0.4568(2)
H8 H 0.3378 0.9203 0.5119
C13 C 0.2128(2) 0.9160(2) 0.4023(2)
H9 H 0.1803 0.8573 0.4197
C14 C -0.0421(2) 0.93463(19) 0.29058(18)
C15 C -0.0550(2) 0.9800(2) 0.38216(19)
H10 H 0.0136 0.9688 0.4269
H11 H -0.1170 0.9479 0.4066
C16 C -0.0773(3) 1.0880(2) 0.3740(2)
H12 H -0.0844 1.1145 0.4350
H13 H -0.1462 1.0994 0.3311
H14 H -0.0156 1.1203 0.3506
C17 C -0.1349(2) 0.9020(2) 0.22919(19)
C18 C -0.2477(2) 0.9042(2) 0.2560(2)
C19 C -0.2796(3) 0.8292(3) 0.3100(2)
H15 H -0.2292 0.7782 0.3304
C20 C -0.3848(4) 0.8289(4) 0.3339(3)
H16 H -0.4063 0.7778 0.3712
C21 C -0.4584(3) 0.9023(4) 0.3039(3)
H17 H -0.5308 0.9018 0.3202
C22 C -0.4272(3) 0.9762(4) 0.2503(3)
H18 H -0.4782 1.0268 0.2296
C23 C -0.3218(3) 0.9777(3) 0.2259(2)
H19 H -0.3008 1.0291 0.1888
C24 C -0.1218(2) 0.8642(2) 0.14235(18)
C25 C -0.2163(2) 0.8266(2) 0.0729(2)
H20 H -0.2860 0.8348 0.0973
H21 H -0.2045 0.7574 0.0613
H22 H -0.2198 0.8631 0.0150
C26 C -0.0169(2) 0.8591(2) 0.12132(18)
H23 H -0.0064 0.8334 0.0630
N1 N 0.4644(2) 0.8199(2) 0.0349(2)
N2 N 0.07239(17) 0.88944(16) 0.18061(15)
O1 O 0.4898(2) 0.8768(2) -0.0218(2)
O2 O 0.5153(2) 0.7463(2) 0.0584(2)
B1 B 0.0424(3) 0.8267(3) 0.8730(2)
F1 F 0.14929(19) 0.8389(2) 0.85538(16)
F2 F 0.0428(2) 0.75928(14) 0.94221(14)
F3 F 0.00208(19) 0.91341(14) 0.89984(14)
F4 F -0.0211(2) 0.79456(16) 0.79285(14)
loop_
_geom_bond_atom_site_label_1
_geom_bond_atom_site_label_2
_geom_bond_site_symmetry_1
_geom_bond_site_symmetry_2
C1 C2 1_555 1_555
C2 H1 1_555 1_555
C3 C2 1_555 1_555
H2 C3 1_555 1_555
C4 C3 1_555 1_555
C5 C4 1_555 1_555
H3 C5 1_555 1_555
C6 C1 1_555 1_555
H4 C6 1_555 1_555
C7 C8 1_555 1_555
C8 C9 1_555 1_555
C9 H5 1_555 1_555
C10 C9 1_555 1_555
H6 C10 1_555 1_555
C11 C10 1_555 1_555
H7 C11 1_555 1_555
C12 C11 1_555 1_555
H8 C12 1_555 1_555
C13 C8 1_555 1_555
H9 C13 1_555 1_555
C14 C7 1_555 1_555
C15 C14 1_555 1_555
H10 C15 1_555 1_555
H11 C15 1_555 1_555
C16 C15 1_555 1_555
H12 C16 1_555 1_555
H13 C16 1_555 1_555
H14 C16 1_555 1_555
C17 C14 1_555 1_555
C18 C17 1_555 1_555
C19 C18 1_555 1_555
H15 C19 1_555 1_555
C20 C19 1_555 1_555
H16 C20 1_555 1_555
C21 C20 1_555 1_555
H17 C21 1_555 1_555
C22 C21 1_555 1_555
H18 C22 1_555 1_555
C23 C18 1_555 1_555
H19 C23 1_555 1_555
C24 C17 1_555 1_555
C25 C24 1_555 1_555
H20 C25 1_555 1_555
H21 C25 1_555 1_555
H22 C25 1_555 1_555
C26 C24 1_555 1_555
H23 C26 1_555 1_555
N1 C1 1_555 1_555
N2 C4 1_555 1_555
O1 N1 1_555 1_555
O2 N1 1_555 1_555
B1 F1 1_555 1_555
F2 B1 1_555 1_555
F3 B1 1_555 1_555
F4 B1 1_555 1_555
C5 C6 1_555 1_555
C7 N2 1_555 1_555
C12 C13 1_555 1_555
C22 C23 1_555 1_555
C26 N2 1_555 1_555

#END
