
#######################################################################
#
#                 Cambridge Crystallographic Data Centre
#                                CCDC 
#
#######################################################################
#
# If this CIF has been generated from an entry in the Cambridge 
# Structural Database, then it will include bibliographic, chemical, 
# crystal, experimental, refinement or atomic coordinate data resulting 
# from the CCDC's data processing and validation procedures.
#
#######################################################################

data_RUCSOY
_chemical_formula_moiety         'C22 H24 N2 O4'
_chemical_name_systematic        
'Diethyl 1,2,3,6-tetrahydro-1,3-diphenyl-4,5-pyrimidinedicarboxylate'
_symmetry_cell_setting           triclinic
_symmetry_space_group_name_H-M   'P -1'
_symmetry_Int_Tables_number      2
_space_group_name_Hall           '-P 1'
loop_
_symmetry_equiv_pos_site_id
_symmetry_equiv_pos_as_xyz
1 x,y,z
2 -x,-y,-z
_cell_length_a                   9.2322(3)
_cell_length_b                   10.6070(2)
_cell_length_c                   11.0640(3)
_cell_angle_alpha                75.441(2)
_cell_angle_beta                 82.0290(10)
_cell_angle_gamma                75.0370(10)
_cell_volume                     1009.95
_chemical_melting_point          '85-86 deg.C'
_cell_formula_units_Z            2
loop_
_atom_site_label
_atom_site_type_symbol
_atom_site_fract_x
_atom_site_fract_y
_atom_site_fract_z
O1 O 0.24060(11) 0.94923(10) 0.13416(8)
O2 O 0.03453(11) 1.06376(9) 0.22690(9)
O3 O 0.11155(12) 0.57261(10) 0.26814(9)
O4 O 0.02680(16) 0.78627(11) 0.17456(12)
N1 N 0.20524(13) 0.89856(10) 0.44677(9)
N2 N 0.27130(12) 0.67140(10) 0.55712(9)
C1 C 0.26573(13) 1.01082(11) 0.43848(11)
C2 C 0.21581(15) 1.08868(13) 0.52703(12)
H1 H 0.1434 1.0670 0.5908
C3 C 0.27400(17) 1.19799(15) 0.52000(15)
H2 H 0.2411 1.2493 0.5797
C4 C 0.38054(17) 1.23181(16) 0.42517(16)
H3 H 0.4183 1.3064 0.4201
C5 C 0.43054(16) 1.15432(16) 0.33814(14)
H4 H 0.5024 1.1769 0.2741
C6 C 0.37514(15) 1.04345(14) 0.34492(13)
H5 H 0.4112 0.9906 0.2867
C7 C 0.31829(13) 0.57817(12) 0.66830(11)
C8 C 0.39353(16) 0.44676(14) 0.66362(14)
H6 H 0.4077 0.4203 0.5880
C9 C 0.4471(2) 0.35570(17) 0.77016(17)
H7 H 0.4972 0.2688 0.7652
C10 C 0.4275(2) 0.39166(19) 0.88337(17)
H8 H 0.4636 0.3298 0.9547
C11 C 0.3536(2) 0.52026(19) 0.88944(15)
H9 H 0.3405 0.5455 0.9656
C12 C 0.29801(17) 0.61304(15) 0.78406(13)
H10 H 0.2468 0.6993 0.7905
C13 C 0.18998(17) 0.80571(12) 0.56732(11)
H11 H 0.2302 0.8324 0.6310
H12 H 0.0846 0.8073 0.5917
C14 C 0.20834(16) 0.62291(13) 0.46816(12)
H13 H 0.1222 0.5882 0.5090
H14 H 0.2830 0.5504 0.4411
C15 C 0.16078(14) 0.73364(12) 0.35592(11)
C16 C 0.17502(13) 0.85973(12) 0.34564(11)
C17 C 0.13951(14) 0.96958(12) 0.22904(11)
C18 C 0.09366(15) 0.70388(13) 0.25671(12)
C19 C 0.2097(2) 1.04380(18) 0.01478(13)
H15 H 0.2341 1.1275 0.0147
H16 H 0.1039 1.0621 0.0014
C20 C 0.3017(3) 0.9847(3) -0.08487(17)
H17 H 0.4062 0.9703 -0.0728
H18 H 0.2802 1.0444 -0.1646
H19 H 0.2790 0.9007 -0.0825
C21 C 0.0429(2) 0.53372(16) 0.17647(16)
H20 H 0.0664 0.5836 0.0928
H21 H -0.0655 0.5529 0.1935
C22 C 0.1033(2) 0.38873(18) 0.18548(19)
H22 H 0.2100 0.3713 0.1647
H23 H 0.0565 0.3601 0.1282
H24 H 0.0828 0.3405 0.2694
loop_
_geom_bond_atom_site_label_1
_geom_bond_atom_site_label_2
_geom_bond_site_symmetry_1
_geom_bond_site_symmetry_2
O1 C17 1_555 1_555
O2 C17 1_555 1_555
O3 C18 1_555 1_555
O4 C18 1_555 1_555
N1 C1 1_555 1_555
N2 C7 1_555 1_555
C1 C2 1_555 1_555
C2 H1 1_555 1_555
C3 C2 1_555 1_555
H2 C3 1_555 1_555
C4 C3 1_555 1_555
H3 C4 1_555 1_555
C5 C4 1_555 1_555
H4 C5 1_555 1_555
C6 C1 1_555 1_555
H5 C6 1_555 1_555
C7 C8 1_555 1_555
C8 H6 1_555 1_555
C9 C8 1_555 1_555
H7 C9 1_555 1_555
C10 C9 1_555 1_555
H8 C10 1_555 1_555
C11 C10 1_555 1_555
H9 C11 1_555 1_555
C12 C7 1_555 1_555
H10 C12 1_555 1_555
C13 N1 1_555 1_555
H11 C13 1_555 1_555
H12 C13 1_555 1_555
C14 N2 1_555 1_555
H13 C14 1_555 1_555
H14 C14 1_555 1_555
C15 C14 1_555 1_555
C16 N1 1_555 1_555
C17 C16 1_555 1_555
C18 C15 1_555 1_555
C19 O1 1_555 1_555
H15 C19 1_555 1_555
H16 C19 1_555 1_555
C20 C19 1_555 1_555
H17 C20 1_555 1_555
H18 C20 1_555 1_555
H19 C20 1_555 1_555
C21 O3 1_555 1_555
H20 C21 1_555 1_555
H21 C21 1_555 1_555
C22 C21 1_555 1_555
H22 C22 1_555 1_555
H23 C22 1_555 1_555
H24 C22 1_555 1_555
N2 C13 1_555 1_555
C5 C6 1_555 1_555
C11 C12 1_555 1_555
C15 C16 1_555 1_555

#END
