
#######################################################################
#
#                 Cambridge Crystallographic Data Centre
#                                CCDC 
#
#######################################################################
#
# If this CIF has been generated from an entry in the Cambridge 
# Structural Database, then it will include bibliographic, chemical, 
# crystal, experimental, refinement or atomic coordinate data resulting 
# from the CCDC's data processing and validation procedures.
#
#######################################################################

data_RUCSIT
_chemical_formula_moiety         'C17 H16 Cl1 N3 O1'
_chemical_name_systematic        
5-(4-Chlorophenyl)-1-(4-methoxyphenyl)-4-methyl-1H-imidazol-2-amine
_symmetry_cell_setting           triclinic
_symmetry_space_group_name_H-M   'P -1'
_symmetry_Int_Tables_number      2
_space_group_name_Hall           '-P 1'
loop_
_symmetry_equiv_pos_site_id
_symmetry_equiv_pos_as_xyz
1 x,y,z
2 -x,-y,-z
_cell_length_a                   8.6811(5)
_cell_length_b                   13.1015(8)
_cell_length_c                   15.2298(9)
_cell_angle_alpha                66.740(6)
_cell_angle_beta                 82.416(5)
_cell_angle_gamma                77.876(5)
_cell_volume                     1553.57
_exptl_crystal_colour            yellow
_exptl_crystal_description       block
_cell_formula_units_Z            4
_exptl_crystal_recrystallization_method tetrahydrofuran
loop_
_atom_site_label
_atom_site_type_symbol
_atom_site_fract_x
_atom_site_fract_y
_atom_site_fract_z
Cl1 Cl 0.14587(12) 0.70606(9) 1.12804(5)
O1 O -0.19565(16) 0.89168(13) 0.60854(11)
N1 N 0.2908(2) 1.22474(16) 0.51586(13)
H1 H 0.365(2) 1.248(2) 0.4734(14)
H2 H 0.229(2) 1.1944(19) 0.4973(16)
N2 N 0.26108(18) 1.09110(14) 0.67514(12)
N3 N 0.45240(19) 1.19276(15) 0.64196(12)
C1 C -0.0118(2) 1.09746(18) 0.64800(16)
H3 H -0.0386 1.1693 0.6528
C2 C -0.1275(2) 1.04974(18) 0.63150(16)
H4 H -0.2334 1.0887 0.6252
C3 C -0.0889(2) 0.94535(17) 0.62425(14)
C4 C 0.0664(2) 0.88953(18) 0.63250(15)
H5 H 0.0938 0.8183 0.6267
C5 C 0.1810(2) 0.93746(18) 0.64914(15)
H6 H 0.2872 0.8990 0.6549
C6 C 0.1416(2) 1.04158(17) 0.65750(14)
C7 C -0.3576(2) 0.9447(2) 0.60745(19)
H7 H -0.3708 1.0187 0.5547
H8 H -0.3896 0.9543 0.6683
H9 H -0.4233 0.8975 0.5986
C8 C 0.3369(2) 1.17138(17) 0.60734(14)
C9 C 0.4538(2) 1.12069(19) 0.73838(15)
C10 C 0.3383(2) 1.05703(18) 0.76064(14)
C11 C 0.2901(3) 0.97122(19) 0.85045(15)
C12 C 0.1320(3) 0.9709(2) 0.88123(17)
H10 H 0.0533 1.0277 0.8435
C13 C 0.0882(3) 0.8895(3) 0.96560(18)
H11 H -0.0202 0.8895 0.9855
C14 C 0.2020(4) 0.8081(2) 1.02106(17)
C15 C 0.3588(3) 0.8060(2) 0.99327(17)
H12 H 0.4366 0.7495 1.0321
C16 C 0.4026(3) 0.8872(2) 0.90798(16)
H13 H 0.5112 0.8858 0.8882
C17 C 0.5665(3) 1.1241(2) 0.80269(17)
H14 H 0.6716 1.0852 0.7907
H15 H 0.5307 1.0867 0.8696
H16 H 0.5712 1.2028 0.7901
Cl2 Cl 0.13549(8) 0.24800(6) 1.14329(4)
O2 O -0.21608(15) 0.39147(12) 0.62743(11)
N4 N 0.3160(2) 0.69010(17) 0.50819(13)
H17 H 0.384(2) 0.7244(19) 0.4644(14)
H18 H 0.257(3) 0.6555(19) 0.4944(17)
N5 N 0.26572(18) 0.58449(14) 0.67293(11)
N6 N 0.43841(19) 0.70221(14) 0.63333(12)
C18 C -0.0139(2) 0.57419(18) 0.68660(14)
H19 H -0.0357 0.6322 0.7114
C19 C -0.1363(2) 0.52793(18) 0.67612(15)
H20 H -0.2417 0.5534 0.6943
C20 C -0.1043(2) 0.44421(17) 0.63893(14)
C21 C 0.0495(2) 0.40803(18) 0.61136(15)
H21 H 0.0711 0.3518 0.5846
C22 C 0.1709(2) 0.45398(18) 0.62290(14)
H22 H 0.2763 0.4290 0.6045
C23 C 0.1395(2) 0.53676(17) 0.66139(14)
C24 C -0.3765(2) 0.4292(2) 0.65217(19)
H23 H -0.4088 0.5084 0.6108
H24 H -0.3862 0.4219 0.7192
H25 H -0.4443 0.3832 0.6435
C25 C 0.3420(2) 0.66074(17) 0.60095(14)
C26 C 0.4213(2) 0.65129(18) 0.73269(15)
C27 C 0.3161(2) 0.57917(18) 0.75957(14)
C28 C 0.2692(2) 0.49918(19) 0.85293(15)
C29 C 0.2630(3) 0.3885(2) 0.86640(16)
H26 H 0.2867 0.3655 0.8135
C30 C 0.2229(3) 0.3113(2) 0.95512(16)
H27 H 0.2189 0.2362 0.9632
C31 C 0.1887(3) 0.3451(2) 1.03213(15)
C32 C 0.1937(3) 0.4538(2) 1.02144(16)
H28 H 0.1701 0.4760 1.0747
C33 C 0.2336(3) 0.5304(2) 0.93206(15)
H29 H 0.2367 0.6055 0.9245
C34 C 0.5154(3) 0.6770(2) 0.79378(17)
H30 H 0.6209 0.6863 0.7631
H31 H 0.5246 0.6148 0.8565
H32 H 0.4627 0.7468 0.8020
loop_
_geom_bond_atom_site_label_1
_geom_bond_atom_site_label_2
_geom_bond_site_symmetry_1
_geom_bond_site_symmetry_2
Cl1 C14 1_555 1_555
O1 C3 1_555 1_555
N1 H1 1_555 1_555
H2 N1 1_555 1_555
N2 C6 1_555 1_555
N3 C8 1_555 1_555
C1 H3 1_555 1_555
C2 C1 1_555 1_555
H4 C2 1_555 1_555
C3 C2 1_555 1_555
C4 C3 1_555 1_555
H5 C4 1_555 1_555
C5 C4 1_555 1_555
H6 C5 1_555 1_555
C6 C1 1_555 1_555
C7 O1 1_555 1_555
H7 C7 1_555 1_555
H8 C7 1_555 1_555
H9 C7 1_555 1_555
C8 N1 1_555 1_555
C9 N3 1_555 1_555
C10 N2 1_555 1_555
C11 C10 1_555 1_555
C12 C11 1_555 1_555
H10 C12 1_555 1_555
C13 C12 1_555 1_555
H11 C13 1_555 1_555
C14 C13 1_555 1_555
C15 C14 1_555 1_555
H12 C15 1_555 1_555
C16 C11 1_555 1_555
H13 C16 1_555 1_555
C17 C9 1_555 1_555
H14 C17 1_555 1_555
H15 C17 1_555 1_555
H16 C17 1_555 1_555
Cl2 C31 1_555 1_555
O2 C20 1_555 1_555
N4 H17 1_555 1_555
H18 N4 1_555 1_555
N5 C23 1_555 1_555
N6 C25 1_555 1_555
C18 H19 1_555 1_555
C19 C18 1_555 1_555
H20 C19 1_555 1_555
C20 C19 1_555 1_555
C21 C20 1_555 1_555
H21 C21 1_555 1_555
C22 C21 1_555 1_555
H22 C22 1_555 1_555
C23 C18 1_555 1_555
C24 O2 1_555 1_555
H23 C24 1_555 1_555
H24 C24 1_555 1_555
H25 C24 1_555 1_555
C25 N4 1_555 1_555
C26 N6 1_555 1_555
C27 N5 1_555 1_555
C28 C27 1_555 1_555
C29 C28 1_555 1_555
H26 C29 1_555 1_555
C30 C29 1_555 1_555
H27 C30 1_555 1_555
C31 C30 1_555 1_555
C32 C31 1_555 1_555
H28 C32 1_555 1_555
C33 C28 1_555 1_555
H29 C33 1_555 1_555
C34 C26 1_555 1_555
H30 C34 1_555 1_555
H31 C34 1_555 1_555
H32 C34 1_555 1_555
N2 C8 1_555 1_555
C5 C6 1_555 1_555
C9 C10 1_555 1_555
C15 C16 1_555 1_555
N5 C25 1_555 1_555
C22 C23 1_555 1_555
C26 C27 1_555 1_555
C32 C33 1_555 1_555

#END
