
#######################################################################
#
#                 Cambridge Crystallographic Data Centre
#                                CCDC 
#
#######################################################################
#
# If this CIF has been generated from an entry in the Cambridge 
# Structural Database, then it will include bibliographic, chemical, 
# crystal, experimental, refinement or atomic coordinate data resulting 
# from the CCDC's data processing and validation procedures.
#
#######################################################################

data_RUCTAM
_chemical_formula_moiety         'C25 H20 N1 O1 1+,B1 F4 1-'
_chemical_name_systematic        
'1,2-Dimethyl-3,4-diphenyl[1]benzofuro[2,3-c]pyridin-2-ium tetrafluoroborate'
_symmetry_cell_setting           monoclinic
_symmetry_space_group_name_H-M   'P 21/n'
_symmetry_Int_Tables_number      14
_space_group_name_Hall           '-P 2yn'
loop_
_symmetry_equiv_pos_site_id
_symmetry_equiv_pos_as_xyz
1 x,y,z
2 1/2-x,1/2+y,1/2-z
3 -x,-y,-z
4 1/2+x,1/2-y,1/2+z
_cell_length_a                   10.720(3)
_cell_length_b                   18.331(4)
_cell_length_c                   12.174(3)
_cell_angle_alpha                90
_cell_angle_beta                 110.527(6)
_cell_angle_gamma                90
_cell_volume                     2240.4
_exptl_crystal_colour            colorless
_exptl_crystal_description       prism
_cell_formula_units_Z            4
loop_
_atom_site_label
_atom_site_type_symbol
_atom_site_fract_x
_atom_site_fract_y
_atom_site_fract_z
C1 C 0.3113(4) 0.3440(2) 0.5863(3)
H1 H 0.3884 0.3493 0.5614
H2 H 0.2525 0.3863 0.5596
H3 H 0.3416 0.3409 0.6720
C2 C 0.2819(3) 0.23360(17) 0.4630(3)
C3 C 0.3969(3) 0.26042(19) 0.4319(3)
C4 C 0.5225(3) 0.2320(2) 0.4843(4)
H4 H 0.5390 0.1953 0.5428
C5 C 0.6269(4) 0.2585(3) 0.4492(6)
H5 H 0.7143 0.2394 0.4840
C6 C 0.6020(6) 0.3117(3) 0.3653(6)
H6 H 0.6729 0.3294 0.3431
C7 C 0.4769(6) 0.3396(3) 0.3129(5)
H7 H 0.4608 0.3763 0.2543
C8 C 0.3748(4) 0.3140(2) 0.3460(4)
H8 H 0.2877 0.3332 0.3097
C9 C 0.2176(3) 0.16919(16) 0.4161(3)
C10 C 0.2646(3) 0.12020(17) 0.3408(3)
C11 C 0.3329(4) 0.05629(19) 0.3880(3)
H9 H 0.3526 0.0455 0.4686
C12 C 0.3723(4) 0.0087(2) 0.3189(4)
H10 H 0.4198 -0.0343 0.3525
C13 C 0.3433(4) 0.0228(2) 0.2020(4)
H11 H 0.3691 -0.0106 0.1543
C14 C 0.2765(5) 0.0859(3) 0.1542(4)
H12 H 0.2571 0.0962 0.0735
C15 C 0.2373(4) 0.1346(2) 0.2237(3)
H13 H 0.1914 0.1781 0.1901
C16 C 0.1020(3) 0.15178(17) 0.4395(3)
C17 C -0.0004(3) 0.09644(17) 0.3990(3)
C18 C -0.0248(3) 0.03655(18) 0.3228(3)
H14 H 0.0383 0.0219 0.2884
C19 C -0.1437(4) -0.0006(2) 0.2993(4)
H15 H -0.1622 -0.0414 0.2479
C20 C -0.2369(4) 0.0204(2) 0.3494(4)
H16 H -0.3179 -0.0061 0.3304
C21 C -0.2145(4) 0.0784(2) 0.4258(4)
H17 H -0.2774 0.0924 0.4607
C22 C -0.0953(3) 0.11528(19) 0.4489(3)
C23 C 0.0613(3) 0.19835(19) 0.5105(3)
C24 C 0.1265(3) 0.26055(18) 0.5599(3)
C25 C 0.0768(4) 0.3108(2) 0.6329(3)
H18 H -0.0034 0.2901 0.6416
H19 H 0.1458 0.3167 0.7104
H20 H 0.0557 0.3584 0.5942
N1 N 0.2372(2) 0.27634(15) 0.5342(2)
O1 O -0.0582(2) 0.17634(13) 0.5195(2)
B1 B 0.4480(11) 0.1664(6) 0.7717(10)
F1 F 0.3638(9) 0.2162(6) 0.7925(10)
F2 F 0.4021(15) 0.1255(8) 0.6746(10)
F3 F 0.5148(9) 0.1256(3) 0.8682(5)
F4 F 0.5394(7) 0.2098(5) 0.7476(6)
B2? B 0.4370(13) 0.1610(7) 0.7841(12)
F5? F 0.3950(11) 0.2309(5) 0.7924(11)
F6? F 0.3628(14) 0.1327(8) 0.6800(12)
F7? F 0.4139(10) 0.1156(4) 0.8669(6)
F8? F 0.5694(5) 0.1637(5) 0.8117(9)
loop_
_geom_bond_atom_site_label_1
_geom_bond_atom_site_label_2
_geom_bond_site_symmetry_1
_geom_bond_site_symmetry_2
C1 H1 1_555 1_555
H2 C1 1_555 1_555
H3 C1 1_555 1_555
C2 C3 1_555 1_555
C3 C4 1_555 1_555
C4 H4 1_555 1_555
C5 C4 1_555 1_555
H5 C5 1_555 1_555
C6 C5 1_555 1_555
H6 C6 1_555 1_555
C7 C6 1_555 1_555
H7 C7 1_555 1_555
C8 C3 1_555 1_555
H8 C8 1_555 1_555
C9 C2 1_555 1_555
C10 C9 1_555 1_555
C11 C10 1_555 1_555
H9 C11 1_555 1_555
C12 C11 1_555 1_555
H10 C12 1_555 1_555
C13 C12 1_555 1_555
H11 C13 1_555 1_555
C14 C13 1_555 1_555
H12 C14 1_555 1_555
C15 C10 1_555 1_555
H13 C15 1_555 1_555
C16 C9 1_555 1_555
C17 C16 1_555 1_555
C18 C17 1_555 1_555
H14 C18 1_555 1_555
C19 C18 1_555 1_555
H15 C19 1_555 1_555
C20 C19 1_555 1_555
H16 C20 1_555 1_555
C21 C20 1_555 1_555
H17 C21 1_555 1_555
C22 C17 1_555 1_555
C23 C16 1_555 1_555
C24 C23 1_555 1_555
C25 C24 1_555 1_555
H18 C25 1_555 1_555
H19 C25 1_555 1_555
H20 C25 1_555 1_555
N1 C1 1_555 1_555
O1 C22 1_555 1_555
B1 F1 1_555 1_555
F2 B1 1_555 1_555
F3 B1 1_555 1_555
F4 B1 1_555 1_555
C2 N1 1_555 1_555
C7 C8 1_555 1_555
C14 C15 1_555 1_555
C21 C22 1_555 1_555
C23 O1 1_555 1_555
C24 N1 1_555 1_555

#END
