
#######################################################################
#
#                 Cambridge Crystallographic Data Centre
#                                CCDC 
#
#######################################################################
#
# If this CIF has been generated from an entry in the Cambridge 
# Structural Database, then it will include bibliographic, chemical, 
# crystal, experimental, refinement or atomic coordinate data resulting 
# from the CCDC's data processing and validation procedures.
#
#######################################################################

data_RUCWAP
_chemical_formula_moiety         'C13 H12 O4'
_chemical_name_systematic        
'Methyl 3,6-dimethyl-1-oxo-1H-isochromene-4-carboxylate'
_symmetry_cell_setting           monoclinic
_symmetry_space_group_name_H-M   'P 21/n'
_symmetry_Int_Tables_number      14
_space_group_name_Hall           '-P 2yn'
loop_
_symmetry_equiv_pos_site_id
_symmetry_equiv_pos_as_xyz
1 x,y,z
2 1/2-x,1/2+y,1/2-z
3 -x,-y,-z
4 1/2+x,1/2-y,1/2+z
_cell_length_a                   10.5408(12)
_cell_length_b                   14.0223(15)
_cell_length_c                   15.5670(17)
_cell_angle_alpha                90
_cell_angle_beta                 95.216(2)
_cell_angle_gamma                90
_cell_volume                     2291.37
_exptl_crystal_colour            colorless
_exptl_crystal_description       prismatic
_cell_formula_units_Z            8
loop_
_atom_site_label
_atom_site_type_symbol
_atom_site_fract_x
_atom_site_fract_y
_atom_site_fract_z
O1 O 0.2137(2) 0.37553(19) 1.12247(11)
O2 O 0.34023(15) 0.38197(12) 1.01888(9)
O3 O 0.22817(17) 0.40043(14) 0.72045(10)
O4 O 0.40869(16) 0.33051(13) 0.76649(9)
C1 C 0.2193(2) 0.37741(19) 1.04587(15)
C2 C 0.3647(2) 0.37877(14) 0.93391(13)
C3 C 0.26921(19) 0.37039(13) 0.87034(12)
C4 C 0.13777(19) 0.37032(13) 0.89197(12)
C5 C 0.1152(2) 0.37434(15) 0.97941(13)
C6 C -0.0088(2) 0.37637(17) 1.00388(17)
H1 H -0.0221 0.3795 1.0621
C7 C -0.1097(2) 0.37388(18) 0.94390(17)
H2 H -0.1918 0.3759 0.9611
C8 C -0.0915(2) 0.36831(16) 0.85590(16)
C9 C 0.0310(2) 0.36676(15) 0.83172(14)
H3 H 0.0431 0.3632 0.7734
C10 C -0.2031(2) 0.3653(2) 0.78899(18)
H4 H -0.1736 0.3545 0.7333
H5 H -0.2479 0.4249 0.7887
H6 H -0.2594 0.3146 0.8022
C11 C 0.5039(2) 0.38919(18) 0.92916(15)
H7 H 0.5386 0.3298 0.9114
H8 H 0.5437 0.4065 0.9849
H9 H 0.5195 0.4379 0.8881
C12 C 0.2971(2) 0.36828(14) 0.77913(12)
C13 C 0.4458(3) 0.3352(2) 0.67992(15)
H10 H 0.3828 0.3039 0.6413
H11 H 0.5266 0.3042 0.6775
H12 H 0.4529 0.4008 0.6631
O5 O 0.78806(16) 0.88053(13) 0.38534(10)
O6 O 0.63464(14) 0.88973(10) 0.28089(9)
O7 O 0.65797(17) 0.94210(14) -0.01270(10)
O8 O 0.52014(16) 0.83380(11) 0.02340(9)
C14 C 0.7621(2) 0.88445(14) 0.30867(13)
C15 C 0.5897(2) 0.89141(14) 0.19560(13)
C16 C 0.66853(19) 0.88855(13) 0.13251(12)
C17 C 0.80538(19) 0.88659(12) 0.15502(12)
C18 C 0.84995(19) 0.88461(13) 0.24272(12)
C19 C 0.9799(2) 0.88392(15) 0.26803(14)
H13 H 1.0084 0.8823 0.3263
C20 C 1.0663(2) 0.88566(15) 0.20716(14)
H14 H 1.1531 0.8864 0.2245
C21 C 1.0246(2) 0.88630(15) 0.11938(14)
C22 C 0.8958(2) 0.88641(14) 0.09467(13)
H15 H 0.8682 0.8864 0.0362
C23 C 1.1195(2) 0.8875(2) 0.05337(17)
H16 H 1.0763 0.8987 -0.0027
H17 H 1.1626 0.8271 0.0536
H18 H 1.1806 0.9373 0.0669
C24 C 0.4487(2) 0.89958(19) 0.18902(17)
H19 H 0.4201 0.9345 0.1378
H20 H 0.4232 0.9325 0.2387
H21 H 0.4116 0.8370 0.1863
C25 C 0.6178(2) 0.89256(15) 0.04065(13)
C26 C 0.4597(3) 0.8358(2) -0.06346(16)
H22 H 0.4269 0.8986 -0.0763
H23 H 0.3911 0.7906 -0.0688
H24 H 0.5210 0.8197 -0.1031
loop_
_geom_bond_atom_site_label_1
_geom_bond_atom_site_label_2
_geom_bond_site_symmetry_1
_geom_bond_site_symmetry_2
O1 C1 1_555 1_555
O2 C1 1_555 1_555
O3 C12 1_555 1_555
O4 C12 1_555 1_555
C1 C5 1_555 1_555
C2 O2 1_555 1_555
C3 C2 1_555 1_555
C4 C3 1_555 1_555
C5 C4 1_555 1_555
C6 C5 1_555 1_555
H1 C6 1_555 1_555
C7 C6 1_555 1_555
H2 C7 1_555 1_555
C8 C7 1_555 1_555
C9 C4 1_555 1_555
H3 C9 1_555 1_555
C10 C8 1_555 1_555
H4 C10 1_555 1_555
H5 C10 1_555 1_555
H6 C10 1_555 1_555
C11 C2 1_555 1_555
H7 C11 1_555 1_555
H8 C11 1_555 1_555
H9 C11 1_555 1_555
C12 C3 1_555 1_555
C13 O4 1_555 1_555
H10 C13 1_555 1_555
H11 C13 1_555 1_555
H12 C13 1_555 1_555
O5 C14 1_555 1_555
O6 C14 1_555 1_555
O7 C25 1_555 1_555
O8 C25 1_555 1_555
C14 C18 1_555 1_555
C15 O6 1_555 1_555
C16 C15 1_555 1_555
C17 C16 1_555 1_555
C18 C17 1_555 1_555
C19 C18 1_555 1_555
H13 C19 1_555 1_555
C20 C19 1_555 1_555
H14 C20 1_555 1_555
C21 C20 1_555 1_555
C22 C17 1_555 1_555
H15 C22 1_555 1_555
C23 C21 1_555 1_555
H16 C23 1_555 1_555
H17 C23 1_555 1_555
H18 C23 1_555 1_555
C24 C15 1_555 1_555
H19 C24 1_555 1_555
H20 C24 1_555 1_555
H21 C24 1_555 1_555
C25 C16 1_555 1_555
C26 O8 1_555 1_555
H22 C26 1_555 1_555
H23 C26 1_555 1_555
H24 C26 1_555 1_555
C8 C9 1_555 1_555
C21 C22 1_555 1_555

#END
