
#######################################################################
#
#                 Cambridge Crystallographic Data Centre
#                                CCDC 
#
#######################################################################
#
# If this CIF has been generated from an entry in the Cambridge 
# Structural Database, then it will include bibliographic, chemical, 
# crystal, experimental, refinement or atomic coordinate data resulting 
# from the CCDC's data processing and validation procedures.
#
#######################################################################

data_RUCYUL
_chemical_formula_moiety         'C25 H20 N2 O1'
_chemical_name_systematic        
N,N-Dimethyl-3,4-diphenylpyrrolo[2,1,5-cd]indolizine-1-carboxamide
_symmetry_cell_setting           monoclinic
_symmetry_space_group_name_H-M   'P 21/c'
_symmetry_Int_Tables_number      14
_space_group_name_Hall           '-P 2ybc'
loop_
_symmetry_equiv_pos_site_id
_symmetry_equiv_pos_as_xyz
1 x,y,z
2 -x,1/2+y,1/2-z
3 -x,-y,-z
4 x,1/2-y,1/2+z
_cell_length_a                   15.088(2)
_cell_length_b                   11.5081(18)
_cell_length_c                   11.5902(17)
_cell_angle_alpha                90
_cell_angle_beta                 108.704(3)
_cell_angle_gamma                90
_cell_volume                     1906.17
_exptl_crystal_colour            yellow
_cell_formula_units_Z            4
_exptl_crystal_recrystallization_method 'petroleum ether/chloroform'
_exptl_crystal_preparation       Luminescent
loop_
_atom_site_label
_atom_site_type_symbol
_atom_site_fract_x
_atom_site_fract_y
_atom_site_fract_z
C1 C 0.35771(11) 0.61824(13) 1.10059(14)
C2 C 0.35512(12) 0.59188(14) 0.98178(15)
H1 H 0.3981 0.6173 0.9450
C3 C 0.21859(11) 0.46120(13) 0.82046(15)
C4 C 0.14228(11) 0.41448(13) 0.84977(15)
C5 C 0.10800(13) 0.43541(15) 1.06061(17)
H2 H 0.0523 0.3941 1.0442
C6 C 0.14779(13) 0.48947(17) 1.17289(18)
H3 H 0.1173 0.4824 1.2307
C7 C 0.23059(13) 0.55365(15) 1.20381(16)
H4 H 0.2535 0.5895 1.2795
C8 C 0.27716(11) 0.52075(13) 0.92684(15)
C9 C 0.27789(11) 0.56307(13) 1.12012(15)
C10 C 0.15298(12) 0.44446(13) 0.97403(15)
C11 C 0.41948(12) 0.69417(14) 1.19694(16)
C12 C 0.54363(16) 0.8346(2) 1.2689(2)
H5 H 0.4991 0.8738 1.2987
H6 H 0.5714 0.8894 1.2283
H7 H 0.5915 0.8004 1.3360
C13 C 0.54085(15) 0.7100(3) 1.0945(2)
H8 H 0.5303 0.6288 1.0762
H9 H 0.6069 0.7245 1.1271
H10 H 0.5149 0.7545 1.0213
C14 C 0.24202(11) 0.45166(14) 0.70757(15)
C15 C 0.22742(13) 0.34962(15) 0.63915(17)
H11 H 0.1988 0.2865 0.6628
C16 C 0.25488(14) 0.34116(18) 0.53687(17)
H12 H 0.2446 0.2725 0.4922
C17 C 0.29697(14) 0.43276(19) 0.50060(18)
H13 H 0.3156 0.4264 0.4318
C18 C 0.31168(14) 0.53478(17) 0.56650(17)
H14 H 0.3402 0.5974 0.5419
C19 C 0.28436(12) 0.54432(16) 0.66828(16)
H15 H 0.2943 0.6137 0.7116
C20 C 0.05799(12) 0.35741(14) 0.76726(16)
C21 C 0.01433(13) 0.39951(16) 0.65088(17)
H16 H 0.0410 0.4614 0.6223
C22 C -0.06778(14) 0.35156(18) 0.57662(18)
H17 H -0.0958 0.3811 0.4987
C23 C -0.10846(15) 0.26033(18) 0.6170(2)
H18 H -0.1641 0.2283 0.5671
C24 C -0.06658(15) 0.21713(17) 0.7311(2)
H19 H -0.0938 0.1551 0.7587
C25 C 0.01600(14) 0.26455(16) 0.80610(17)
H20 H 0.0438 0.2339 0.8836
N1 N 0.23535(9) 0.50554(11) 1.01284(12)
N2 N 0.49615(10) 0.74356(14) 1.18330(13)
O1 O 0.39632(9) 0.71514(12) 1.28760(12)
loop_
_geom_bond_atom_site_label_1
_geom_bond_atom_site_label_2
_geom_bond_site_symmetry_1
_geom_bond_site_symmetry_2
C1 C2 1_555 1_555
C2 H1 1_555 1_555
C3 C4 1_555 1_555
C4 C10 1_555 1_555
C5 H2 1_555 1_555
C6 C5 1_555 1_555
H3 C6 1_555 1_555
C7 C6 1_555 1_555
H4 C7 1_555 1_555
C8 C2 1_555 1_555
C9 C1 1_555 1_555
C10 C5 1_555 1_555
C11 C1 1_555 1_555
C12 H5 1_555 1_555
H6 C12 1_555 1_555
H7 C12 1_555 1_555
C13 H8 1_555 1_555
H9 C13 1_555 1_555
H10 C13 1_555 1_555
C14 C3 1_555 1_555
C15 C14 1_555 1_555
H11 C15 1_555 1_555
C16 C15 1_555 1_555
H12 C16 1_555 1_555
C17 C16 1_555 1_555
H13 C17 1_555 1_555
C18 C17 1_555 1_555
H14 C18 1_555 1_555
C19 C14 1_555 1_555
H15 C19 1_555 1_555
C20 C4 1_555 1_555
C21 C20 1_555 1_555
H16 C21 1_555 1_555
C22 C21 1_555 1_555
H17 C22 1_555 1_555
C23 C22 1_555 1_555
H18 C23 1_555 1_555
C24 C23 1_555 1_555
H19 C24 1_555 1_555
C25 C20 1_555 1_555
H20 C25 1_555 1_555
N1 C8 1_555 1_555
N2 C11 1_555 1_555
O1 C11 1_555 1_555
C3 C8 1_555 1_555
C7 C9 1_555 1_555
C9 N1 1_555 1_555
C10 N1 1_555 1_555
C12 N2 1_555 1_555
C13 N2 1_555 1_555
C18 C19 1_555 1_555
C24 C25 1_555 1_555

#END
