
#######################################################################
#
#                 Cambridge Crystallographic Data Centre
#                                CCDC 
#
#######################################################################
#
# If this CIF has been generated from an entry in the Cambridge 
# Structural Database, then it will include bibliographic, chemical, 
# crystal, experimental, refinement or atomic coordinate data resulting 
# from the CCDC's data processing and validation procedures.
#
#######################################################################

data_RUCYAR
_chemical_formula_moiety         'C18 H24 O6'
_chemical_name_systematic        
8-(3-Ethoxy-2-hydroxy-3-methylbutyl)-5,7-dimethoxy-2H-chromen-2-one
_symmetry_cell_setting           orthorhombic
_symmetry_space_group_name_H-M   'P 21 21 21'
_symmetry_Int_Tables_number      19
_space_group_name_Hall           'P 2ac 2ab'
loop_
_symmetry_equiv_pos_site_id
_symmetry_equiv_pos_as_xyz
1 x,y,z
2 1/2-x,-y,1/2+z
3 1/2+x,1/2-y,-z
4 -x,1/2+y,1/2-z
_cell_length_a                   6.8035(11)
_cell_length_b                   9.6710(10)
_cell_length_c                   26.398(3)
_cell_angle_alpha                90
_cell_angle_beta                 90
_cell_angle_gamma                90
_cell_volume                     1736.9
_cell_formula_units_Z            4
loop_
_atom_site_label
_atom_site_type_symbol
_atom_site_fract_x
_atom_site_fract_y
_atom_site_fract_z
O1 O -0.6932(3) -0.51758(14) -0.11120(5)
O2 O -0.6475(2) -0.56589(15) 0.07084(5)
O3 O -0.6803(2) -0.95526(14) -0.03732(5)
C1 C -0.6838(3) -0.5924(2) -0.06759(7)
C2 C -0.6913(3) -0.7350(2) -0.07435(7)
O4 O -0.6745(3) -1.16761(16) -0.00805(7)
C3 C -0.6675(3) -0.7586(2) 0.01817(7)
O5 O -0.6817(3) -0.85037(17) -0.23094(5)
C4 C -0.6788(3) -0.81382(19) -0.03061(7)
O6 O -0.4235(3) -0.70539(18) -0.16487(6)
H1 H -0.4960 -0.6397 -0.1588
C5 C -0.6693(3) -0.53128(19) -0.01991(8)
H2 H -0.6641 -0.4356 -0.0168
C6 C -0.6627(3) -0.6144(2) 0.02270(7)
C7 C -0.6754(3) -1.0462(2) 0.00267(8)
C8 C -0.6663(3) -0.8516(2) 0.06050(7)
H3 H -0.6622 -0.8168 0.0933
C9 C -0.7165(3) -0.8018(2) -0.12581(7)
H4 H -0.7949 -0.7414 -0.1471
H5 H -0.7880 -0.8879 -0.1218
C10 C -0.6821(5) -0.3704(2) -0.10741(9)
H6 H -0.7892 -0.3371 -0.0871
H7 H -0.6899 -0.3305 -0.1406
H8 H -0.5598 -0.3447 -0.0919
C11 C -0.6708(4) -0.9884(2) 0.05290(8)
H9 H -0.6711 -1.0474 0.0807
C12 C -0.6453(4) -0.4193(2) 0.07731(9)
H10 H -0.6391 -0.3977 0.1128
H11 H -0.7628 -0.3804 0.0631
H12 H -0.5326 -0.3813 0.0605
C13 C -0.5437(4) -0.9216(2) -0.19964(8)
C14 C -0.3453(5) -0.9323(3) -0.22648(10)
H13 H -0.3087 -0.8431 -0.2394
H14 H -0.3551 -0.9967 -0.2540
H15 H -0.2475 -0.9636 -0.2029
C15 C -0.8801(5) -0.8268(4) -0.30302(11)
H16 H -0.9916 -0.8097 -0.2816
H17 H -0.9226 -0.8719 -0.3335
H18 H -0.8181 -0.7407 -0.3114
C16 C -0.6151(5) -1.0656(3) -0.18456(10)
H19 H -0.5908 -1.1291 -0.2118
H20 H -0.7534 -1.0625 -0.1775
H21 H -0.5458 -1.0957 -0.1549
C17 C -0.5220(3) -0.8313(2) -0.15230(8)
H22 H -0.4384 -0.8816 -0.1283
C18 C -0.7389(6) -0.9162(4) -0.27616(12)
H23 H -0.7993 -1.0047 -0.2686
H24 H -0.6247 -0.9326 -0.2973
loop_
_geom_bond_atom_site_label_1
_geom_bond_atom_site_label_2
_geom_bond_site_symmetry_1
_geom_bond_site_symmetry_2
O1 C1 1_555 1_555
O2 C6 1_555 1_555
O3 C4 1_555 1_555
C1 C2 1_555 1_555
C2 C4 1_555 1_555
O4 C7 1_555 1_555
C3 C4 1_555 1_555
O5 C13 1_555 1_555
O6 H1 1_555 1_555
C5 C1 1_555 1_555
H2 C5 1_555 1_555
C6 C3 1_555 1_555
C7 O3 1_555 1_555
C8 C3 1_555 1_555
H3 C8 1_555 1_555
C9 C2 1_555 1_555
H4 C9 1_555 1_555
H5 C9 1_555 1_555
C10 O1 1_555 1_555
H6 C10 1_555 1_555
H7 C10 1_555 1_555
H8 C10 1_555 1_555
C11 C7 1_555 1_555
H9 C11 1_555 1_555
C12 O2 1_555 1_555
H10 C12 1_555 1_555
H11 C12 1_555 1_555
H12 C12 1_555 1_555
C13 C14 1_555 1_555
C14 H13 1_555 1_555
H14 C14 1_555 1_555
H15 C14 1_555 1_555
C15 H16 1_555 1_555
H17 C15 1_555 1_555
H18 C15 1_555 1_555
C16 C13 1_555 1_555
H19 C16 1_555 1_555
H20 C16 1_555 1_555
H21 C16 1_555 1_555
C17 O6 1_555 1_555
H22 C17 1_555 1_555
C18 O5 1_555 1_555
H23 C18 1_555 1_555
H24 C18 1_555 1_555
C5 C6 1_555 1_555
C8 C11 1_555 1_555
C9 C17 1_555 1_555
C13 C17 1_555 1_555
C15 C18 1_555 1_555

#END
