
#######################################################################
#
#                 Cambridge Crystallographic Data Centre
#                                CCDC 
#
#######################################################################
#
# If this CIF has been generated from an entry in the Cambridge 
# Structural Database, then it will include bibliographic, chemical, 
# crystal, experimental, refinement or atomic coordinate data resulting 
# from the CCDC's data processing and validation procedures.
#
#######################################################################

data_RUDBID
_chemical_formula_moiety         'C20 H34 O6,0.5(C4 H10 O1),0.25(H2 O1)'
_chemical_name_systematic        
'(+)-8,17-Dihydroxy-13-methoxy-9,13,17-trimethyl-6,18-dioxatricyclo[12.3.1.0^3,7^]octadecan-5-one diethyl ether solvate hydrate'
_symmetry_cell_setting           monoclinic
_symmetry_space_group_name_H-M   'C 2'
_symmetry_Int_Tables_number      5
_space_group_name_Hall           'C 2y'
loop_
_symmetry_equiv_pos_site_id
_symmetry_equiv_pos_as_xyz
1 x,y,z
2 -x,y,-z
3 1/2+x,1/2+y,z
4 1/2-x,1/2+y,-z
_cell_length_a                   25.5096(11)
_cell_length_b                   8.8909(4)
_cell_length_c                   21.5975(11)
_cell_angle_alpha                90
_cell_angle_beta                 113.549(6)
_cell_angle_gamma                90
_cell_volume                     4490.44
_exptl_crystal_colour            colorless
_exptl_crystal_description       block
_cell_formula_units_Z            8
loop_
_atom_site_label
_atom_site_type_symbol
_atom_site_fract_x
_atom_site_fract_y
_atom_site_fract_z
O1 O 0.10499(8) 0.4560(2) 0.64692(10)
H1 H 0.1148 0.4035 0.6827
C1 C 0.22493(10) 0.6019(3) 0.69899(12)
C2 C 0.18541(10) 0.7109(3) 0.64867(12)
H2 H 0.2050 0.8076 0.6496
H3 H 0.1510 0.7303 0.6579
O2 O 0.20478(7) 0.2747(2) 0.46783(10)
O3 O 0.12070(6) 0.47108(19) 0.46124(8)
O4 O 0.00478(7) 0.5241(2) 0.43720(9)
H4 H -0.0300 0.5156 0.4099
C3 C 0.16957(9) 0.6312(3) 0.58064(12)
H5 H 0.1993 0.6568 0.5631
C4 C 0.17673(9) 0.4633(3) 0.60127(12)
H6 H 0.1922 0.4073 0.5720
C5 C 0.12258(10) 0.3844(3) 0.59891(13)
H7 H 0.0919 0.4030 0.5531
C6 C 0.12817(10) 0.2132(3) 0.60902(14)
H8 H 0.1592 0.1928 0.6544
C7 C 0.14474(10) 0.1365(3) 0.55533(14)
H9 H 0.1802 0.1838 0.5562
H10 H 0.1533 0.0293 0.5676
C8 C 0.09832(10) 0.1459(3) 0.48286(14)
H11 H 0.0696 0.0664 0.4773
H12 H 0.0787 0.2441 0.4773
C9 C 0.11989(10) 0.1289(3) 0.42660(14)
H13 H 0.0867 0.1020 0.3847
H14 H 0.1465 0.0424 0.4383
C10 C 0.15031(10) 0.2630(3) 0.41019(14)
C11 C 0.11719(10) 0.4128(3) 0.39739(12)
H15 H 0.1369 0.4858 0.3786
C12 C 0.05502(10) 0.4023(3) 0.34778(12)
H16 H 0.0345 0.3289 0.3644
H17 H 0.0529 0.3673 0.3033
C13 C 0.02714(10) 0.5571(3) 0.34039(11)
H18 H -0.0141 0.5487 0.3112
H19 H 0.0446 0.6264 0.3182
C14 C 0.03441(9) 0.6220(3) 0.40902(11)
C15 C 0.09850(9) 0.6197(3) 0.45582(11)
H20 H 0.1192 0.6850 0.4353
C16 C 0.11130(9) 0.6782(3) 0.52725(11)
H21 H 0.1093 0.7894 0.5258
H22 H 0.0811 0.6415 0.5414
C17 C 0.23973(10) 0.3993(3) 0.46892(15)
H23 H 0.2435 0.4060 0.4256
H24 H 0.2776 0.3864 0.5055
H25 H 0.2222 0.4918 0.4764
C18 C 0.16180(11) 0.2237(3) 0.34772(15)
H26 H 0.1825 0.3065 0.3377
H27 H 0.1254 0.2076 0.3091
H28 H 0.1848 0.1318 0.3564
C19 C 0.00981(10) 0.7803(3) 0.40084(12)
H29 H -0.0299 0.7792 0.3676
H30 H 0.0324 0.8478 0.3853
H31 H 0.0110 0.8159 0.4443
C20 C 0.07232(12) 0.1470(4) 0.60798(16)
H32 H 0.0662 0.1827 0.6475
H33 H 0.0747 0.0369 0.6091
H34 H 0.0403 0.1790 0.5667
O5 O 0.25811(9) 0.6253(3) 0.75595(10)
O6 O 0.21963(7) 0.4640(2) 0.67078(9)
O7 O -0.10003(10) 0.9997(3) 0.23901(11)
O8 O -0.03698(8) 0.8426(2) 0.22643(9)
O9 O -0.07814(8) 0.8388(2) 0.08811(9)
H35 H -0.1055 0.7836 0.0876
O10 O 0.13916(8) 0.6492(2) 0.27067(9)
O11 O 0.10119(7) 0.8460(2) 0.16657(8)
O12 O 0.06072(8) 0.9082(2) 0.02666(9)
H36 H 0.0308 0.9596 0.0052
C21 C -0.06172(12) 0.9776(4) 0.22087(13)
C22 C -0.03388(13) 1.0912(3) 0.19138(15)
H37 H -0.0235 1.1838 0.2191
H38 H -0.0597 1.1180 0.1446
C23 C 0.01932(12) 1.0103(3) 0.19290(12)
H39 H 0.0516 1.0339 0.2369
C24 C 0.00354(11) 0.8428(3) 0.19396(12)
H40 H 0.0385 0.7852 0.2226
C25 C -0.02498(10) 0.7651(3) 0.12557(12)
H41 H 0.0002 0.7808 0.1006
C26 C -0.03260(12) 0.5952(3) 0.13017(12)
H42 H -0.0555 0.5782 0.1579
C27 C 0.02524(11) 0.5160(3) 0.16549(12)
H43 H 0.0451 0.5608 0.2109
H44 H 0.0181 0.4088 0.1718
C28 C 0.06518(11) 0.5241(3) 0.12829(13)
H45 H 0.0603 0.6233 0.1059
H46 H 0.0535 0.4462 0.0926
C29 C 0.12876(12) 0.5020(3) 0.17373(14)
H47 H 0.1488 0.4755 0.1443
H48 H 0.1319 0.4141 0.2031
C30 C 0.16152(11) 0.6335(3) 0.21939(13)
C31 C 0.15700(11) 0.7841(3) 0.18235(13)
H49 H 0.1855 0.8546 0.2145
C32 C 0.16898(11) 0.7764(4) 0.11833(14)
H50 H 0.2084 0.7396 0.1297
H51 H 0.1420 0.7056 0.0856
C33 C 0.16198(11) 0.9325(3) 0.08728(13)
H52 H 0.1663 0.9261 0.0438
H53 H 0.1926 0.9988 0.1177
C34 C 0.10356(11) 1.0022(3) 0.07510(12)
C35 C 0.09548(11) 0.9962(3) 0.14225(12)
H54 H 0.1261 1.0585 0.1763
C36 C 0.03741(11) 1.0573(3) 0.13580(12)
H55 H 0.0079 1.0226 0.0923
H56 H 0.0385 1.1685 0.1344
C37 C 0.16254(13) 0.7669(4) 0.31788(14)
H57 H 0.1594 0.8620 0.2937
H58 H 0.2029 0.7455 0.3455
H59 H 0.1415 0.7746 0.3471
C38 C 0.22507(13) 0.5892(4) 0.25289(17)
H60 H 0.2476 0.6755 0.2778
H61 H 0.2384 0.5584 0.2180
H62 H 0.2297 0.5055 0.2842
C39 C 0.09932(16) 1.1604(4) 0.04762(16)
H63 H 0.1067 1.1589 0.0065
H64 H 0.1276 1.2247 0.0815
H65 H 0.0609 1.2001 0.0372
C40 C -0.06589(13) 0.5279(4) 0.05997(14)
H66 H -0.1044 0.5714 0.0406
H67 H -0.0686 0.4187 0.0638
H68 H -0.0459 0.5508 0.0306
C41 C 0.1916(4) 0.5621(11) 0.8968(4)
O13 O 0.1810(3) 0.4246(9) 0.8874(4)
C42 C 0.199(2) 0.348(4) 0.9481(15)
C43 C 0.1792(5) 0.6838(14) 0.8459(6)
C44 C 0.1972(15) 0.177(4) 0.9375(19)
O14 O 0.1317(3) 0.3079(8) 0.7613(3)
H69? H 0.0058 0.5607 0.4740
H70? H -0.0820 0.8562 0.0478
H71? H 0.0738 0.8731 -0.0009
O15? O 0.2259(4) 0.6040(11) 0.9618(5)
C45? C 0.1610(6) 0.6144(18) 0.8249(6)
C46? C 0.2078(6) 0.0565(18) 0.9247(7)
C47? C 0.2595(5) -0.0059(14) 0.9806(5)
H72? H 0.0689 0.4677 0.6289
loop_
_geom_bond_atom_site_label_1
_geom_bond_atom_site_label_2
_geom_bond_site_symmetry_1
_geom_bond_site_symmetry_2
O1 H1 1_555 1_555
C1 C2 1_555 1_555
C2 H2 1_555 1_555
H3 C2 1_555 1_555
O2 C10 1_555 1_555
O3 C11 1_555 1_555
O4 H4 1_555 1_555
C3 C2 1_555 1_555
H5 C3 1_555 1_555
C4 C3 1_555 1_555
H6 C4 1_555 1_555
C5 O1 1_555 1_555
H7 C5 1_555 1_555
C6 C5 1_555 1_555
H8 C6 1_555 1_555
C7 C6 1_555 1_555
H9 C7 1_555 1_555
H10 C7 1_555 1_555
C8 C7 1_555 1_555
H11 C8 1_555 1_555
H12 C8 1_555 1_555
C9 C8 1_555 1_555
H13 C9 1_555 1_555
H14 C9 1_555 1_555
C10 C9 1_555 1_555
C11 C10 1_555 1_555
H15 C11 1_555 1_555
C12 C11 1_555 1_555
H16 C12 1_555 1_555
H17 C12 1_555 1_555
C13 C12 1_555 1_555
H18 C13 1_555 1_555
H19 C13 1_555 1_555
C14 O4 1_555 1_555
C15 O3 1_555 1_555
H20 C15 1_555 1_555
C16 C3 1_555 1_555
H21 C16 1_555 1_555
H22 C16 1_555 1_555
C17 O2 1_555 1_555
H23 C17 1_555 1_555
H24 C17 1_555 1_555
H25 C17 1_555 1_555
C18 C10 1_555 1_555
H26 C18 1_555 1_555
H27 C18 1_555 1_555
H28 C18 1_555 1_555
C19 C14 1_555 1_555
H29 C19 1_555 1_555
H30 C19 1_555 1_555
H31 C19 1_555 1_555
C20 C6 1_555 1_555
H32 C20 1_555 1_555
H33 C20 1_555 1_555
H34 C20 1_555 1_555
O5 C1 1_555 1_555
O6 C1 1_555 1_555
O7 C21 1_555 1_555
O8 C21 1_555 1_555
O9 H35 1_555 1_555
O10 C30 1_555 1_555
O11 C31 1_555 1_555
O12 H36 1_555 1_555
C21 C22 1_555 1_555
C22 H37 1_555 1_555
H38 C22 1_555 1_555
C23 C22 1_555 1_555
H39 C23 1_555 1_555
C24 O8 1_555 1_555
H40 C24 1_555 1_555
C25 O9 1_555 1_555
H41 C25 1_555 1_555
C26 C25 1_555 1_555
H42 C26 1_555 1_555
C27 C26 1_555 1_555
H43 C27 1_555 1_555
H44 C27 1_555 1_555
C28 C27 1_555 1_555
H45 C28 1_555 1_555
H46 C28 1_555 1_555
C29 C28 1_555 1_555
H47 C29 1_555 1_555
H48 C29 1_555 1_555
C30 C29 1_555 1_555
C31 C30 1_555 1_555
H49 C31 1_555 1_555
C32 C31 1_555 1_555
H50 C32 1_555 1_555
H51 C32 1_555 1_555
C33 C32 1_555 1_555
H52 C33 1_555 1_555
H53 C33 1_555 1_555
C34 O12 1_555 1_555
C35 O11 1_555 1_555
H54 C35 1_555 1_555
C36 C23 1_555 1_555
H55 C36 1_555 1_555
H56 C36 1_555 1_555
C37 O10 1_555 1_555
H57 C37 1_555 1_555
H58 C37 1_555 1_555
H59 C37 1_555 1_555
C38 C30 1_555 1_555
H60 C38 1_555 1_555
H61 C38 1_555 1_555
H62 C38 1_555 1_555
C39 C34 1_555 1_555
H63 C39 1_555 1_555
H64 C39 1_555 1_555
H65 C39 1_555 1_555
C40 C26 1_555 1_555
H66 C40 1_555 1_555
H67 C40 1_555 1_555
H68 C40 1_555 1_555
C41 O13 1_555 1_555
O13 C42 1_555 1_555
C42 C44 1_555 1_555
C43 C41 1_555 1_555
C4 C5 1_555 1_555
C4 O6 1_555 1_555
C13 C14 1_555 1_555
C14 C15 1_555 1_555
C15 C16 1_555 1_555
C23 C24 1_555 1_555
C24 C25 1_555 1_555
C33 C34 1_555 1_555
C34 C35 1_555 1_555
C35 C36 1_555 1_555

#END
