
#######################################################################
#
#                 Cambridge Crystallographic Data Centre
#                                CCDC 
#
#######################################################################
#
# If this CIF has been generated from an entry in the Cambridge 
# Structural Database, then it will include bibliographic, chemical, 
# crystal, experimental, refinement or atomic coordinate data resulting 
# from the CCDC's data processing and validation procedures.
#
#######################################################################

data_RUDFUT
_chemical_formula_moiety         'C21 H22 O6'
_chemical_name_systematic        
4-(((2-(4-Methoxyphenyl)-4,4a,6,8a-tetrahydropyrano[3,2-d][1,3]dioxin-6-yl)oxy)methyl)phenol
_symmetry_cell_setting           triclinic
_symmetry_space_group_name_H-M   'P 1'
_symmetry_Int_Tables_number      1
_space_group_name_Hall           'P 1'
loop_
_symmetry_equiv_pos_site_id
_symmetry_equiv_pos_as_xyz
1 x,y,z
_cell_length_a                   6.325(2)
_cell_length_b                   7.807(3)
_cell_length_c                   18.393(6)
_cell_angle_alpha                97.383(12)
_cell_angle_beta                 99.805(13)
_cell_angle_gamma                93.472(14)
_cell_volume                     884.382
_exptl_crystal_colour            colorless
_exptl_crystal_description       block
_cell_formula_units_Z            2
loop_
_atom_site_label
_atom_site_type_symbol
_atom_site_fract_x
_atom_site_fract_y
_atom_site_fract_z
C1 C 0.7688(8) 0.3568(7) -0.1628(2)
H1 H 0.7717 0.4808 -0.1669
H2 H 0.7777 0.2912 -0.2112
H3 H 0.8915 0.3358 -0.1256
C2 C 0.5341(7) 0.3775(5) -0.0718(2)
C3 C 0.6717(7) 0.5089(6) -0.0254(2)
H4 H 0.801 0.5508 -0.0394
C4 C 0.6161(7) 0.5766(5) 0.0413(2)
H5 H 0.7094 0.6655 0.0733
C5 C 0.4274(7) 0.5183(5) 0.0630(2)
C6 C 0.2956(7) 0.3862(5) 0.0168(2)
H6 H 0.167 0.3438 0.0311
C7 C 0.3485(7) 0.3141(5) -0.0502(2)
H7 H 0.2578 0.222 -0.0811
C8 C 0.3699(6) 0.6012(5) 0.1348(2)
H8 H 0.3702 0.7291 0.1343
C9 C 0.0912(7) 0.6212(6) 0.2063(2)
H9 H -0.0544 0.5724 0.2096
H10 H 0.0865 0.7469 0.2038
C10 C 0.2537(6) 0.5910(5) 0.2736(2)
H11 H 0.2506 0.4644 0.2775
C11 C 0.4782(7) 0.6584(5) 0.2645(2)
H12 H 0.4792 0.7853 0.2611
C12 C 0.6380(7) 0.6317(5) 0.3312(2)
H13 H 0.784 0.6174 0.3275
C13 C 0.5721(7) 0.6284(6) 0.3957(2)
H14 H 0.6761 0.617 0.4383
C14 C 0.3414(7) 0.6418(5) 0.4053(2)
H15 H 0.283 0.53 0.4183
C15 C 0.1315(7) 0.7748(6) 0.4869(2)
H16 H 0.0816 0.655 0.4921
H17 H 0.0242 0.817 0.449
C16 C 0.1520(7) 0.8908(5) 0.5610(2)
C17 C 0.3404(7) 0.9149(6) 0.6135(2)
H18 H 0.4636 0.8599 0.6027
C18 C 0.3520(7) 1.0189(6) 0.6819(2)
H19 H 0.4819 1.0348 0.7175
C19 C 0.1707(7) 1.0992(6) 0.6975(2)
C20 C -0.0181(7) 1.0739(6) 0.6465(2)
H20 H -0.1419 1.1273 0.6578
C21 C -0.0283(7) 0.9703(6) 0.5784(2)
H21 H -0.1593 0.9536 0.5433
O1 O 0.5709(5) 0.3015(4) -0.14024(14)
O2 O 0.1610(4) 0.5353(3) 0.14089(14)
O3 O 0.5281(4) 0.5694(4) 0.19649(14)
O4 O 0.2056(4) 0.6841(3) 0.34004(13)
O5 O 0.3365(4) 0.7757(4) 0.46355(15)
O6 O 0.1741(5) 1.2075(5) 0.76317(17)
H22 H 0.3006 1.2239 0.7873
C22 C 1.2484(7) -0.3157(7) -0.2003(3)
H23 H 1.3685 -0.2301 -0.1772
H24 H 1.2575 -0.3509 -0.2527
H25 H 1.2555 -0.4173 -0.174
C23 C 1.0169(7) -0.1693(5) -0.1264(2)
C24 C 1.1609(7) -0.1742(5) -0.0606(2)
H26 H 1.29 -0.2301 -0.0612
C25 C 1.1114(7) -0.0949(5) 0.0065(2)
H27 H 1.2102 -0.0959 0.0515
C26 C 0.9231(7) -0.0152(5) 0.0091(2)
C27 C 0.7798(7) -0.0145(6) -0.0570(2)
H28 H 0.6488 0.0384 -0.0561
C28 C 0.8265(7) -0.0908(6) -0.1246(2)
H29 H 0.7277 -0.089 -0.1696
C29 C 0.8731(7) 0.0780(5) 0.0808(2)
H30 H 0.8826 0.2057 0.0789
C30 C 0.5973(7) 0.1123(6) 0.1527(2)
H31 H 0.4488 0.0714 0.1565
H32 H 0.6031 0.2385 0.1505
C31 C 0.7564(6) 0.0738(5) 0.2191(2)
H33 H 0.7487 -0.0542 0.2201
C32 C 0.9811(6) 0.1359(5) 0.2100(2)
H34 H 0.986 0.2624 0.2057
C33 C 1.1419(7) 0.1079(5) 0.2772(2)
H35 H 1.2898 0.1024 0.2742
C34 C 1.0745(7) 0.0912(5) 0.3404(2)
H36 H 1.1776 0.0746 0.3824
C35 C 0.8436(7) 0.0972(5) 0.3492(2)
H37 H 0.7839 -0.0214 0.3542
C36 C 0.6309(7) 0.1992(6) 0.4370(2)
H38 H 0.5873 0.0775 0.4412
H39 H 0.5211 0.2394 0.3992
C37 C 0.6451(6) 0.3109(5) 0.5112(2)
C38 C 0.8355(7) 0.4077(5) 0.5477(2)
H40 H 0.9628 0.3982 0.527
C39 C 0.8408(7) 0.5182(6) 0.6141(2)
H41 H 0.9705 0.585 0.6378
C40 C 0.6564(7) 0.5306(5) 0.6455(2)
C41 C 0.4677(7) 0.4326(6) 0.6107(2)
H42 H 0.3424 0.4394 0.6327
C42 C 0.4606(7) 0.3239(6) 0.5437(2)
H43 H 0.33 0.2584 0.5199
O7 O 1.0495(5) -0.2410(4) -0.19584(14)
O8 O 0.6594(4) 0.0214(4) 0.08718(14)
O9 O 1.0265(4) 0.0419(4) 0.14234(14)
O10 O 0.7127(4) 0.1588(4) 0.28789(14)
O11 O 0.8371(4) 0.2098(4) 0.41428(14)
O12 O 0.6526(5) 0.6388(4) 0.71065(16)
H44 H 0.7772 0.6853 0.7283
loop_
_geom_bond_atom_site_label_1
_geom_bond_atom_site_label_2
_geom_bond_site_symmetry_1
_geom_bond_site_symmetry_2
C1 H1 1_555 1_555
H2 C1 1_555 1_555
H3 C1 1_555 1_555
C2 C3 1_555 1_555
C3 H4 1_555 1_555
C4 C3 1_555 1_555
H5 C4 1_555 1_555
C5 C4 1_555 1_555
C6 C5 1_555 1_555
H6 C6 1_555 1_555
C7 C2 1_555 1_555
H7 C7 1_555 1_555
C8 C5 1_555 1_555
H8 C8 1_555 1_555
C9 H9 1_555 1_555
H10 C9 1_555 1_555
C10 C9 1_555 1_555
H11 C10 1_555 1_555
C11 C10 1_555 1_555
H12 C11 1_555 1_555
C12 C11 1_555 1_555
H13 C12 1_555 1_555
C13 C12 1_555 1_555
H14 C13 1_555 1_555
C14 C13 1_555 1_555
H15 C14 1_555 1_555
C15 H16 1_555 1_555
H17 C15 1_555 1_555
C16 C15 1_555 1_555
C17 C16 1_555 1_555
H18 C17 1_555 1_555
C18 C17 1_555 1_555
H19 C18 1_555 1_555
C19 C18 1_555 1_555
C20 C19 1_555 1_555
H20 C20 1_555 1_555
C21 C16 1_555 1_555
H21 C21 1_555 1_555
O1 C1 1_555 1_555
O2 C8 1_555 1_555
O3 C8 1_555 1_555
O4 C10 1_555 1_555
O5 C14 1_555 1_555
O6 C19 1_555 1_555
H22 O6 1_555 1_555
C22 H23 1_555 1_555
H24 C22 1_555 1_555
H25 C22 1_555 1_555
C23 C24 1_555 1_555
C24 H26 1_555 1_555
C25 C24 1_555 1_555
H27 C25 1_555 1_555
C26 C25 1_555 1_555
C27 C26 1_555 1_555
H28 C27 1_555 1_555
C28 C23 1_555 1_555
H29 C28 1_555 1_555
C29 C26 1_555 1_555
H30 C29 1_555 1_555
C30 H31 1_555 1_555
H32 C30 1_555 1_555
C31 C30 1_555 1_555
H33 C31 1_555 1_555
C32 C31 1_555 1_555
H34 C32 1_555 1_555
C33 C32 1_555 1_555
H35 C33 1_555 1_555
C34 C33 1_555 1_555
H36 C34 1_555 1_555
C35 C34 1_555 1_555
H37 C35 1_555 1_555
C36 H38 1_555 1_555
H39 C36 1_555 1_555
C37 C36 1_555 1_555
C38 C37 1_555 1_555
H40 C38 1_555 1_555
C39 C38 1_555 1_555
H41 C39 1_555 1_555
C40 C39 1_555 1_555
C41 C40 1_555 1_555
H42 C41 1_555 1_555
C42 C37 1_555 1_555
H43 C42 1_555 1_555
O7 C22 1_555 1_555
O8 C29 1_555 1_555
O9 C29 1_555 1_555
O10 C31 1_555 1_555
O11 C35 1_555 1_555
O12 C40 1_555 1_555
H44 O12 1_555 1_555
C2 O1 1_555 1_555
C6 C7 1_555 1_555
C9 O2 1_555 1_555
C11 O3 1_555 1_555
C14 O4 1_555 1_555
C15 O5 1_555 1_555
C20 C21 1_555 1_555
C23 O7 1_555 1_555
C27 C28 1_555 1_555
C30 O8 1_555 1_555
C32 O9 1_555 1_555
C35 O10 1_555 1_555
C36 O11 1_555 1_555
C41 C42 1_555 1_555

#END
