
#######################################################################
#
#                 Cambridge Crystallographic Data Centre
#                                CCDC 
#
#######################################################################
#
# If this CIF has been generated from an entry in the Cambridge 
# Structural Database, then it will include bibliographic, chemical, 
# crystal, experimental, refinement or atomic coordinate data resulting 
# from the CCDC's data processing and validation procedures.
#
#######################################################################

data_RUDFON
_chemical_formula_moiety         'C19 H22 O4'
_chemical_name_systematic        
'Ethyl 2-((3aR*,4S*,5aR*,10bR*)-3a-hydroxy-1,2,3,3a,4,5,5a,6-octahydropentaleno[6a,1-a]inden-4-yl)-2-oxoacetate'
_symmetry_cell_setting           monoclinic
_symmetry_space_group_name_H-M   'I 2/a'
_symmetry_Int_Tables_number      15
_space_group_name_Hall           '-I 2ya'
loop_
_symmetry_equiv_pos_site_id
_symmetry_equiv_pos_as_xyz
1 x,y,z
2 1/2-x,y,-z
3 1/2+x,1/2+y,1/2+z
4 -x,1/2+y,1/2-z
5 -x,-y,-z
6 1/2+x,-y,z
7 1/2-x,1/2-y,1/2-z
8 x,1/2-y,1/2+z
_cell_length_a                   25.637(4)
_cell_length_b                   7.2326(9)
_cell_length_c                   19.198(3)
_cell_angle_alpha                90
_cell_angle_beta                 112.832(19)
_cell_angle_gamma                90
_cell_volume                     3280.82
_exptl_crystal_colour            colorless
_exptl_crystal_description       block
_cell_formula_units_Z            8
loop_
_atom_site_label
_atom_site_type_symbol
_atom_site_fract_x
_atom_site_fract_y
_atom_site_fract_z
O1 O 0.14699(8) 0.2422(2) 0.44853(11)
H1 H 0.1643 0.2904 0.4252
O2 O 0.16011(11) 0.5431(3) 0.64002(12)
O3 O 0.26594(10) 0.4066(3) 0.59408(14)
O4 O 0.22086(9) 0.2173(3) 0.64505(13)
C1 C 0.09467(17) 0.7713(4) 0.35722(19)
H2 H 0.0716 0.8738 0.3293
H3 H 0.1319 0.8177 0.3885
C2 C 0.09876(12) 0.6258(4) 0.30450(17)
C3 C 0.11565(14) 0.6433(6) 0.2440(2)
H4 H 0.1273 0.7574 0.2329
C4 C 0.11491(16) 0.4913(7) 0.2009(2)
H5 H 0.1272 0.5016 0.1614
C5 C 0.09602(17) 0.3222(6) 0.21599(19)
H6 H 0.0947 0.2206 0.1857
C6 C 0.07915(14) 0.3039(5) 0.27568(16)
H7 H 0.0668 0.1902 0.2860
C7 C 0.08079(12) 0.4573(4) 0.32037(15)
C8 C 0.06545(12) 0.4655(4) 0.38838(15)
C9 C 0.06711(13) 0.6758(4) 0.40591(16)
H8 H 0.0286 0.7226 0.3927
C10 C 0.10102(13) 0.6950(4) 0.49105(17)
H9 H 0.1189 0.8154 0.5033
H10 H 0.0769 0.6776 0.5190
C11 C 0.14498(13) 0.5421(3) 0.50866(15)
H11 H 0.1735 0.5787 0.4891
C12 C 0.11116(12) 0.3751(3) 0.46156(15)
C13 C 0.07634(13) 0.2682(4) 0.49739(17)
H12 H 0.0975 0.1638 0.5264
H13 H 0.0656 0.3477 0.5303
C14 C 0.02501(15) 0.2041(5) 0.4311(2)
H14 H -0.0056 0.1721 0.4468
H15 H 0.0339 0.0977 0.4070
C15 C 0.00948(14) 0.3684(4) 0.3789(2)
H16 H -0.0148 0.4520 0.3921
H17 H -0.0104 0.3287 0.3270
C16 C 0.17429(13) 0.4927(4) 0.58996(17)
C17 C 0.22617(14) 0.3666(4) 0.60976(16)
C18 C 0.26608(18) 0.0780(5) 0.6649(3)
H18 H 0.3017 0.1366 0.6713
H19 H 0.2705 0.0183 0.7121
C19 C 0.2514(4) -0.0539(13) 0.6063(5)
H20 H 0.2121 -0.0849 0.5904
H21 H 0.2739 -0.1631 0.6243
H22 H 0.2583 -0.0035 0.5644
H23? H 0.2870 0.0955 0.6329
H24? H 0.2920 0.0983 0.7168
C20? C 0.2471(7) -0.1012(17) 0.6577(10)
H25? H 0.2242 -0.1179 0.6867
H26? H 0.2788 -0.1838 0.6759
H27? H 0.2249 -0.1271 0.6055
loop_
_geom_bond_atom_site_label_1
_geom_bond_atom_site_label_2
_geom_bond_site_symmetry_1
_geom_bond_site_symmetry_2
O1 H1 1_555 1_555
O2 C16 1_555 1_555
O3 C17 1_555 1_555
O4 C17 1_555 1_555
C1 H2 1_555 1_555
H3 C1 1_555 1_555
C2 C1 1_555 1_555
C3 C2 1_555 1_555
H4 C3 1_555 1_555
C4 C3 1_555 1_555
H5 C4 1_555 1_555
C5 C4 1_555 1_555
H6 C5 1_555 1_555
C6 C5 1_555 1_555
H7 C6 1_555 1_555
C7 C2 1_555 1_555
C8 C7 1_555 1_555
C9 C1 1_555 1_555
H8 C9 1_555 1_555
C10 C9 1_555 1_555
H9 C10 1_555 1_555
H10 C10 1_555 1_555
C11 C10 1_555 1_555
H11 C11 1_555 1_555
C12 O1 1_555 1_555
C13 C12 1_555 1_555
H12 C13 1_555 1_555
H13 C13 1_555 1_555
C14 C13 1_555 1_555
H14 C14 1_555 1_555
H15 C14 1_555 1_555
C15 C8 1_555 1_555
H16 C15 1_555 1_555
H17 C15 1_555 1_555
C16 C11 1_555 1_555
C17 C16 1_555 1_555
C18 O4 1_555 1_555
H18 C18 1_555 1_555
H19 C18 1_555 1_555
C19 C18 1_555 1_555
H20 C19 1_555 1_555
H21 C19 1_555 1_555
H22 C19 1_555 1_555
C6 C7 1_555 1_555
C8 C9 1_555 1_555
C8 C12 1_555 1_555
C11 C12 1_555 1_555
C14 C15 1_555 1_555

#END
