
#######################################################################
#
#                 Cambridge Crystallographic Data Centre
#                                CCDC 
#
#######################################################################
#
# If this CIF has been generated from an entry in the Cambridge 
# Structural Database, then it will include bibliographic, chemical, 
# crystal, experimental, refinement or atomic coordinate data resulting 
# from the CCDC's data processing and validation procedures.
#
#######################################################################

data_RUDREP
_chemical_formula_moiety         'C16 H26 O5 Si1'
_chemical_name_systematic        
"6'-methyl-5-(2-(trimethylsilyl)vinyl)hexahydro-3H,3'H-spiro[furan-2,2'-furo[3,2-b]furan]-6'-carboxylic acid"
_symmetry_cell_setting           orthorhombic
_symmetry_space_group_name_H-M   'P 21 21 21'
_symmetry_Int_Tables_number      19
_space_group_name_Hall           'P 2ac 2ab'
loop_
_symmetry_equiv_pos_site_id
_symmetry_equiv_pos_as_xyz
1 x,y,z
2 1/2-x,-y,1/2+z
3 -x,1/2+y,1/2-z
4 1/2+x,1/2-y,-z
_cell_length_a                   9.5991(4)
_cell_length_b                   12.4646(6)
_cell_length_c                   14.7191(7)
_cell_angle_alpha                90
_cell_angle_beta                 90
_cell_angle_gamma                90
_cell_volume                     1761.12
_exptl_crystal_colour            colorless
_exptl_crystal_description       block
_chemical_melting_point          '437-439 K'
_cell_formula_units_Z            4
_exptl_crystal_recrystallization_method 'pentane/diethyl ether'
loop_
_atom_site_label
_atom_site_type_symbol
_atom_site_fract_x
_atom_site_fract_y
_atom_site_fract_z
Si1 Si 0.50401(7) 0.40816(5) 0.62000(4)
O1 O 0.85593(19) 0.51823(14) 0.77054(12)
C1 C 0.9673(2) 0.56189(17) 0.77111(14)
C2 C 0.9943(2) 0.67636(16) 0.74029(14)
C3 C 0.8583(2) 0.51406(17) 0.46951(15)
H1 H 0.8084 0.5213 0.4117
C4 C 1.1028(2) 0.67780(16) 0.66392(14)
H2 H 1.1978 0.6782 0.6882
O2 O 1.08354(18) 0.51659(14) 0.80165(13)
H3 H 1.0678(11) 0.450(3) 0.814(2)
C5 C 0.3516(3) 0.3386(3) 0.5668(2)
H4 H 0.3231 0.3771 0.5135
H5 H 0.2759 0.3361 0.6093
H6 H 0.3778 0.2668 0.5503
C6 C 0.5850(3) 0.3196(2) 0.7061(2)
H7 H 0.6198 0.2561 0.6771
H8 H 0.5167 0.3001 0.7508
H9 H 0.6605 0.3568 0.7351
C7 C 0.4439(4) 0.5330(2) 0.6765(2)
H10 H 0.4027 0.5798 0.6323
H11 H 0.5218 0.5682 0.7045
H12 H 0.3761 0.5154 0.7221
C8 C 1.0416(3) 0.74384(19) 0.82178(16)
H13 H 1.1272 0.7154 0.8453
H14 H 0.9714 0.7416 0.8682
H15 H 1.0557 0.8167 0.8028
C9 C 1.0718(2) 0.77979(16) 0.61108(16)
H16 H 1.1393 0.8363 0.6254
O3 O 1.08202(15) 0.59080(11) 0.60228(9)
C10 C 0.9976(3) 0.45778(17) 0.45249(16)
H17 H 1.0222 0.4113 0.5029
H18 H 0.9948 0.4158 0.3971
C11 C 1.0993(3) 0.55071(19) 0.44411(16)
H19 H 1.1936 0.5289 0.4590
H20 H 1.0979 0.5814 0.3836
C12 C 1.0831(3) 0.74548(18) 0.51257(16)
H21 H 1.0204 0.7869 0.4745
H22 H 1.1775 0.7542 0.4904
O4 O 0.89526(15) 0.62027(12) 0.50263(10)
O5 O 0.93143(16) 0.81154(11) 0.63675(11)
C13 C 1.0416(2) 0.62808(17) 0.51387(14)
C14 C 0.6290(3) 0.44789(19) 0.52903(17)
H23 H 0.5925 0.4570 0.4710
C15 C 0.7629(2) 0.46433(18) 0.53842(17)
H24 H 0.8029 0.4431 0.5931
C16 C 0.8703(2) 0.72839(18) 0.69270(16)
H25 H 0.8209 0.6765 0.6557
H26 H 0.8061 0.7588 0.7366
loop_
_geom_bond_atom_site_label_1
_geom_bond_atom_site_label_2
_geom_bond_site_symmetry_1
_geom_bond_site_symmetry_2
Si1 C5 1_555 1_555
O1 C1 1_555 1_555
C1 C2 1_555 1_555
C2 C4 1_555 1_555
C3 H1 1_555 1_555
C4 H2 1_555 1_555
O2 C1 1_555 1_555
H3 O2 1_555 1_555
C5 H4 1_555 1_555
H5 C5 1_555 1_555
H6 C5 1_555 1_555
C6 Si1 1_555 1_555
H7 C6 1_555 1_555
H8 C6 1_555 1_555
H9 C6 1_555 1_555
C7 Si1 1_555 1_555
H10 C7 1_555 1_555
H11 C7 1_555 1_555
H12 C7 1_555 1_555
C8 C2 1_555 1_555
H13 C8 1_555 1_555
H14 C8 1_555 1_555
H15 C8 1_555 1_555
C9 C4 1_555 1_555
H16 C9 1_555 1_555
O3 C4 1_555 1_555
C10 C3 1_555 1_555
H17 C10 1_555 1_555
H18 C10 1_555 1_555
C11 C10 1_555 1_555
H19 C11 1_555 1_555
H20 C11 1_555 1_555
C12 C9 1_555 1_555
H21 C12 1_555 1_555
H22 C12 1_555 1_555
O4 C3 1_555 1_555
O5 C9 1_555 1_555
C13 O3 1_555 1_555
C14 Si1 1_555 1_555
H23 C14 1_555 1_555
C15 C3 1_555 1_555
H24 C15 1_555 1_555
C16 C2 1_555 1_555
H25 C16 1_555 1_555
H26 C16 1_555 1_555
C11 C13 1_555 1_555
C12 C13 1_555 1_555
O4 C13 1_555 1_555
O5 C16 1_555 1_555
C14 C15 1_555 1_555

#END
