
#######################################################################
#
#                 Cambridge Crystallographic Data Centre
#                                CCDC 
#
#######################################################################
#
# If this CIF has been generated from an entry in the Cambridge 
# Structural Database, then it will include bibliographic, chemical, 
# crystal, experimental, refinement or atomic coordinate data resulting 
# from the CCDC's data processing and validation procedures.
#
#######################################################################

data_RUDVAP
_chemical_formula_moiety         'C21 H21 N1 O2 S1,0.25(C1 H2 Cl2)'
_chemical_name_systematic        
'4-methyl-N-((4-methylphenyl)(phenyl)methyl)benzenesulfonamide dichloromethane solvate'
_symmetry_cell_setting           monoclinic
_symmetry_space_group_name_H-M   'P 21'
_symmetry_Int_Tables_number      4
_space_group_name_Hall           'P 2yb'
loop_
_symmetry_equiv_pos_site_id
_symmetry_equiv_pos_as_xyz
1 x,y,z
2 -x,1/2+y,-z
_cell_length_a                   9.6551(6)
_cell_length_b                   18.2180(10)
_cell_length_c                   12.0682(6)
_cell_angle_alpha                90
_cell_angle_beta                 105.377(3)
_cell_angle_gamma                90
_cell_volume                     2046.76
_exptl_crystal_colour            colorless
_exptl_crystal_description       prism
_cell_formula_units_Z            4
loop_
_atom_site_label
_atom_site_type_symbol
_atom_site_fract_x
_atom_site_fract_y
_atom_site_fract_z
C1 C 0.2322(9) 0.0564(15) 0.7450(8)
C2 C 0.3551(11) 0.0150(15) 0.7518(9)
H1 H 0.4441 0.0322 0.7941
C3 C 0.3452(13) -0.0502(16) 0.6970(11)
H2 H 0.4272 -0.0780 0.7014
C4 C 0.2048(16) -0.0766(16) 0.6306(11)
C5 C 0.2062(17) -0.1472(16) 0.5605(13)
H3 H 0.3024 -0.1660 0.5768
H4 H 0.1722 -0.1364 0.4800
H5 H 0.1448 -0.1833 0.5810
C6 C 0.0913(12) -0.0363(15) 0.6270(10)
H6 H 0.0016 -0.0524 0.5845
C7 C 0.1020(11) 0.0298(15) 0.6852(8)
H7 H 0.0192 0.0564 0.6835
C8 C 0.1831(12) 0.2186(15) 0.6021(7)
H8 H 0.0923 0.2252 0.6227
C9 C 0.1506(11) 0.1597(15) 0.5066(7)
C10 C 0.2556(12) 0.1147(15) 0.4874(8)
H9 H 0.3500 0.1187 0.5318
C11 C 0.2173(14) 0.0625(15) 0.3994(9)
H10 H 0.2891 0.0321 0.3867
C12 C 0.0838(18) 0.0537(16) 0.3323(11)
H11 H 0.0616 0.0185 0.2745
C13 C -0.0181(17) 0.0995(16) 0.3538(10)
H12 H -0.1121 0.0948 0.3087
C14 C 0.0101(11) 0.1515(15) 0.4373(8)
H13 H -0.0632 0.1813 0.4484
C15 C 0.2198(10) 0.2942(15) 0.5660(8)
C16 C 0.2706(14) 0.3034(16) 0.4657(11)
H14 H 0.2788 0.2630 0.4207
C17 C 0.3076(15) 0.3732(16) 0.4361(13)
H15 H 0.3372 0.3801 0.3695
C18 C 0.3000(11) 0.4323(16) 0.5063(10)
C19 C 0.3427(14) 0.5078(16) 0.4710(12)
H16 H 0.3748 0.5031 0.4025
H17 H 0.4188 0.5276 0.5317
H18 H 0.2613 0.5401 0.4565
C20 C 0.2468(12) 0.4230(16) 0.5988(10)
H19 H 0.2368 0.4634 0.6432
C21 C 0.2083(11) 0.3559(16) 0.6272(8)
H20 H 0.1725 0.3514 0.6912
N1 N 0.2825(8) 0.1993(15) 0.7049(6)
H21 H 0.3674 0.2176 0.7175
O1 O 0.1198(7) 0.1642(15) 0.8250(6)
O2 O 0.3790(6) 0.1476(14) 0.8951(5)
S1 S 0.2507(2) 0.1445(14) 0.80409(18)
C22 C 0.2578(10) 0.7937(15) 0.2450(7)
C23 C 0.3812(12) 0.8357(16) 0.2555(10)
H22 H 0.4711 0.8204 0.2990
C24 C 0.3608(14) 0.9034(16) 0.1955(13)
H23 H 0.4407 0.9327 0.1988
C25 C 0.2258(14) 0.9286(16) 0.1315(10)
C26 C 0.2101(16) 0.9988(17) 0.0625(13)
H24 H 0.3026 1.0213 0.0732
H25 H 0.1473 1.0318 0.0878
H26 H 0.1703 0.9878 -0.0175
C27 C 0.1101(12) 0.8862(16) 0.1296(10)
H27 H 0.0190 0.9024 0.0902
C28 C 0.1243(11) 0.8204(16) 0.1842(10)
H28 H 0.0427 0.7924 0.1809
C29 C 0.2640(9) 0.6395(15) 0.1077(6)
H29 H 0.3650 0.6540 0.1359
C30 C 0.1939(11) 0.6891(15) 0.0058(8)
C31 C 0.2759(13) 0.7430(16) -0.0291(11)
H30 H 0.3731 0.7471 0.0080
C32 C 0.214(2) 0.7910(17) -0.1194(13)
H31 H 0.2688 0.8259 -0.1448
C33 C 0.0720(19) 0.7848(17) -0.1677(11)
H32 H 0.0296 0.8184 -0.2246
C34 C -0.0140(15) 0.7330(16) -0.1395(10)
H33 H -0.1110 0.7305 -0.1781
C35 C 0.0475(13) 0.6827(15) -0.0497(9)
H34 H -0.0083 0.6465 -0.0285
C36 C 0.2597(8) 0.5588(15) 0.0718(7)
C37 C 0.2221(13) 0.5036(16) 0.1330(10)
H35 H 0.1894 0.5144 0.1971
C38 C 0.2321(14) 0.4290(16) 0.1000(11)
H36 H 0.2065 0.3918 0.1435
C39 C 0.2767(12) 0.4114(16) 0.0097(10)
C40 C 0.2871(16) 0.3297(16) -0.0275(13)
H37 H 0.2567 0.2978 0.0248
H38 H 0.3846 0.3186 -0.0264
H39 H 0.2263 0.3226 -0.1038
C41 C 0.3131(14) 0.4678(17) -0.0510(11)
H40 H 0.3434 0.4570 -0.1162
C42 C 0.3070(13) 0.5395(16) -0.0200(10)
H41 H 0.3360 0.5759 -0.0630
N2 N 0.1952(7) 0.6491(15) 0.2032(5)
H42 H 0.1181 0.6259 0.2043
O3 O 0.4241(6) 0.6884(15) 0.3464(5)
O4 O 0.1858(7) 0.7027(15) 0.3861(5)
S2 S 0.2723(2) 0.7058(14) 0.30626(19)
C43 C 0.5443 0.1815 0.3217
H43 H 0.5101 0.1735 0.3894
H44 H 0.6448 0.1951 0.3486
Cl1 Cl 0.4606(7) 0.2505(14) 0.2561(6)
Cl2 Cl 0.5366(8) 0.0991(14) 0.2527(5)
loop_
_geom_bond_atom_site_label_1
_geom_bond_atom_site_label_2
_geom_bond_site_symmetry_1
_geom_bond_site_symmetry_2
C1 C2 1_555 1_555
C2 H1 1_555 1_555
C3 C2 1_555 1_555
H2 C3 1_555 1_555
C4 C3 1_555 1_555
C5 C4 1_555 1_555
H3 C5 1_555 1_555
H4 C5 1_555 1_555
H5 C5 1_555 1_555
C6 C4 1_555 1_555
H6 C6 1_555 1_555
C7 C1 1_555 1_555
H7 C7 1_555 1_555
C8 H8 1_555 1_555
C9 C8 1_555 1_555
C10 C9 1_555 1_555
H9 C10 1_555 1_555
C11 C10 1_555 1_555
H10 C11 1_555 1_555
C12 C11 1_555 1_555
H11 C12 1_555 1_555
C13 C12 1_555 1_555
H12 C13 1_555 1_555
C14 C9 1_555 1_555
H13 C14 1_555 1_555
C15 C8 1_555 1_555
C16 C15 1_555 1_555
H14 C16 1_555 1_555
C17 C16 1_555 1_555
H15 C17 1_555 1_555
C18 C17 1_555 1_555
C19 C18 1_555 1_555
H16 C19 1_555 1_555
H17 C19 1_555 1_555
H18 C19 1_555 1_555
C20 C18 1_555 1_555
H19 C20 1_555 1_555
C21 C15 1_555 1_555
H20 C21 1_555 1_555
N1 C8 1_555 1_555
H21 N1 1_555 1_555
O1 S1 1_555 1_555
O2 S1 1_555 1_555
S1 C1 1_555 1_555
C22 C23 1_555 1_555
C23 H22 1_555 1_555
C24 C23 1_555 1_555
H23 C24 1_555 1_555
C25 C24 1_555 1_555
C26 C25 1_555 1_555
H24 C26 1_555 1_555
H25 C26 1_555 1_555
H26 C26 1_555 1_555
C27 C25 1_555 1_555
H27 C27 1_555 1_555
C28 C22 1_555 1_555
H28 C28 1_555 1_555
C29 H29 1_555 1_555
C30 C29 1_555 1_555
C31 C30 1_555 1_555
H30 C31 1_555 1_555
C32 C31 1_555 1_555
H31 C32 1_555 1_555
C33 C32 1_555 1_555
H32 C33 1_555 1_555
C34 C33 1_555 1_555
H33 C34 1_555 1_555
C35 C30 1_555 1_555
H34 C35 1_555 1_555
C36 C29 1_555 1_555
C37 C36 1_555 1_555
H35 C37 1_555 1_555
C38 C37 1_555 1_555
H36 C38 1_555 1_555
C39 C38 1_555 1_555
C40 C39 1_555 1_555
H37 C40 1_555 1_555
H38 C40 1_555 1_555
H39 C40 1_555 1_555
C41 C39 1_555 1_555
H40 C41 1_555 1_555
C42 C36 1_555 1_555
H41 C42 1_555 1_555
N2 C29 1_555 1_555
H42 N2 1_555 1_555
O3 S2 1_555 1_555
O4 S2 1_555 1_555
S2 C22 1_555 1_555
C43 H43 1_555 1_555
H44 C43 1_555 1_555
Cl1 C43 1_555 1_555
Cl2 C43 1_555 1_555
C6 C7 1_555 1_555
C13 C14 1_555 1_555
C20 C21 1_555 1_555
N1 S1 1_555 1_555
C27 C28 1_555 1_555
C34 C35 1_555 1_555
C41 C42 1_555 1_555
N2 S2 1_555 1_555

#END
