
#######################################################################
#
#                 Cambridge Crystallographic Data Centre
#                                CCDC 
#
#######################################################################
#
# If this CIF has been generated from an entry in the Cambridge 
# Structural Database, then it will include bibliographic, chemical, 
# crystal, experimental, refinement or atomic coordinate data resulting 
# from the CCDC's data processing and validation procedures.
#
#######################################################################

data_RUFCIF
_chemical_formula_moiety         'C13 H11 N3 O1'
_chemical_name_systematic        N'-((E)-3-Pyridylmethylidene)benzohydrazide
_symmetry_cell_setting           orthorhombic
_symmetry_space_group_name_H-M   'P 21 21 21'
_symmetry_Int_Tables_number      19
_space_group_name_Hall           'P 2ac 2ab'
loop_
_symmetry_equiv_pos_site_id
_symmetry_equiv_pos_as_xyz
1 x,y,z
2 1/2-x,-y,1/2+z
3 -x,1/2+y,1/2-z
4 1/2+x,1/2-y,-z
_cell_length_a                   7.6193(13)
_cell_length_b                   10.6291(17)
_cell_length_c                   13.530(2)
_cell_angle_alpha                90
_cell_angle_beta                 90
_cell_angle_gamma                90
_cell_volume                     1095.74
_exptl_crystal_colour            yellow
_exptl_crystal_description       block
_cell_formula_units_Z            4
_exptl_crystal_recrystallization_method methanol
loop_
_atom_site_label
_atom_site_type_symbol
_atom_site_fract_x
_atom_site_fract_y
_atom_site_fract_z
N1 N 0.1276(5) 0.7488(3) 0.4106(3)
H1 H 0.1551 0.8129 0.3750
N2 N 0.1085(5) 0.7596(4) 0.5111(3)
N3 N 0.1881(5) 1.0185(4) 0.7966(3)
O1 O 0.0701(5) 0.5389(3) 0.4181(2)
C1 C 0.1015(7) 0.6334(4) 0.3688(4)
C2 C 0.1109(6) 0.6291(4) 0.2602(3)
C3 C 0.0535(7) 0.7257(4) 0.2001(4)
H2 H 0.0107 0.7992 0.2285
C4 C 0.0588(7) 0.7150(5) 0.0986(4)
H3 H 0.0175 0.7805 0.0594
C5 C 0.1247(7) 0.6078(5) 0.0548(4)
H4 H 0.1301 0.6013 -0.0137
C6 C 0.1826(7) 0.5105(4) 0.1136(4)
H5 H 0.2268 0.4376 0.0848
C7 C 0.1748(6) 0.5212(4) 0.2156(4)
H6 H 0.2132 0.4547 0.2547
C8 C 0.1525(6) 0.8640(5) 0.5499(3)
H7 H 0.1941 0.9288 0.5101
C9 C 0.1968(6) 0.9926(4) 0.6998(3)
H8 H 0.2460 1.0533 0.6588
C10 C 0.1383(6) 0.8825(4) 0.6558(4)
C11 C 0.0676(6) 0.7933(4) 0.7186(4)
H9 H 0.0272 0.7173 0.6933
C12 C 0.0567(7) 0.8168(5) 0.8183(4)
H10 H 0.0094 0.7572 0.8610
C13 C 0.1173(6) 0.9306(5) 0.8537(4)
H11 H 0.1080 0.9465 0.9211
loop_
_geom_bond_atom_site_label_1
_geom_bond_atom_site_label_2
_geom_bond_site_symmetry_1
_geom_bond_site_symmetry_2
N1 H1 1_555 1_555
N2 N1 1_555 1_555
N3 C9 1_555 1_555
O1 C1 1_555 1_555
C1 N1 1_555 1_555
C2 C1 1_555 1_555
C3 C2 1_555 1_555
H2 C3 1_555 1_555
C4 C3 1_555 1_555
H3 C4 1_555 1_555
C5 C4 1_555 1_555
H4 C5 1_555 1_555
C6 C5 1_555 1_555
H5 C6 1_555 1_555
C7 C2 1_555 1_555
H6 C7 1_555 1_555
C8 N2 1_555 1_555
H7 C8 1_555 1_555
C9 H8 1_555 1_555
C10 C8 1_555 1_555
C11 C10 1_555 1_555
H9 C11 1_555 1_555
C12 C11 1_555 1_555
H10 C12 1_555 1_555
C13 N3 1_555 1_555
H11 C13 1_555 1_555
C6 C7 1_555 1_555
C9 C10 1_555 1_555
C12 C13 1_555 1_555

#END
