
#######################################################################
#
#                 Cambridge Crystallographic Data Centre
#                                CCDC 
#
#######################################################################
#
# If this CIF has been generated from an entry in the Cambridge 
# Structural Database, then it will include bibliographic, chemical, 
# crystal, experimental, refinement or atomic coordinate data resulting 
# from the CCDC's data processing and validation procedures.
#
#######################################################################

data_RUFFAA
_chemical_formula_moiety         '2(C4 H7 N2 1+),C4 H2 O4 2-,2(H2 O1)'
_chemical_name_systematic        'bis(2-Methylimidazolium) fumarate dihydrate'
_symmetry_cell_setting           monoclinic
_symmetry_space_group_name_H-M   'P 21/n'
_symmetry_Int_Tables_number      14
_space_group_name_Hall           '-P 2yn'
loop_
_symmetry_equiv_pos_site_id
_symmetry_equiv_pos_as_xyz
1 x,y,z
2 1/2-x,1/2+y,1/2-z
3 -x,-y,-z
4 1/2+x,1/2-y,1/2+z
_cell_length_a                   8.3912(8)
_cell_length_b                   7.3195(7)
_cell_length_c                   14.2475(13)
_cell_angle_alpha                90
_cell_angle_beta                 106.624(2)
_cell_angle_gamma                90
_cell_volume                     838.497
_exptl_crystal_colour            colorless
_exptl_crystal_description       plate
_cell_formula_units_Z            2
loop_
_atom_site_label
_atom_site_type_symbol
_atom_site_fract_x
_atom_site_fract_y
_atom_site_fract_z
C1 C 0.5386(2) 0.0238(2) 0.37212(12)
C2 C 0.5606(2) 0.0086(2) 0.48028(11)
H1 H 0.6685 0.0117 0.5220
O1 O 0.66885(18) 0.0373(2) 0.34674(9)
O2 O 0.39407(17) 0.0221(2) 0.31492(8)
C1B C 0.4614(2) -0.0238(2) 0.62788(12)
C2B C 0.4394(2) -0.0086(2) 0.51972(11)
H1B H 0.3315 -0.0117 0.4780
O1B O 0.33115(18) -0.0373(2) 0.65326(9)
O2B O 0.60593(17) -0.0221(2) 0.68508(8)
C3 C 0.6978(3) 0.1228(2) 0.10113(13)
C4 C 0.4614(3) 0.2353(3) 0.11177(14)
H2 H 0.3750 0.2682 0.1372
C5 C 0.4689(3) 0.2673(3) 0.02039(14)
H3 H 0.3895 0.3266 -0.0294
C6 C 0.8635(3) 0.0358(3) 0.12642(17)
H4 H 0.9432 0.1142 0.1698
H5 H 0.8958 0.0159 0.0678
H6 H 0.8593 -0.0791 0.1581
N1 N 0.6039(2) 0.1456(2) 0.16080(11)
H7 H 0.633(2) 0.101(3) 0.2268(16)
N2 N 0.6165(2) 0.1953(2) 0.01497(11)
H8 H 0.654(3) 0.191(3) -0.0380(18)
O3 O 0.2028(3) 0.3054(3) 0.34768(13)
H9 H 0.172(5) 0.371(6) 0.301(3)
H10 H 0.256(5) 0.221(5) 0.335(3)
loop_
_geom_bond_atom_site_label_1
_geom_bond_atom_site_label_2
_geom_bond_site_symmetry_1
_geom_bond_site_symmetry_2
C1 C2 1_555 1_555
C2 H1 1_555 1_555
C3 C6 1_555 1_555
C4 H2 1_555 1_555
C5 C4 1_555 1_555
H3 C5 1_555 1_555
C6 H4 1_555 1_555
H5 C6 1_555 1_555
H6 C6 1_555 1_555
N1 C3 1_555 1_555
H7 N1 1_555 1_555
N2 C3 1_555 1_555
H8 N2 1_555 1_555
O1 C1 1_555 1_555
O2 C1 1_555 1_555
O3 H9 1_555 1_555
H10 O3 1_555 1_555
C1B C2B 1_555 1_555
C2B C2 1_555 1_555
H1B C2B 1_555 1_555
O1B C1B 1_555 1_555
O2B C1B 1_555 1_555
C4 N1 1_555 1_555
C5 N2 1_555 1_555

#END
