
#######################################################################
#
#                 Cambridge Crystallographic Data Centre
#                                CCDC 
#
#######################################################################
#
# If this CIF has been generated from an entry in the Cambridge 
# Structural Database, then it will include bibliographic, chemical, 
# crystal, experimental, refinement or atomic coordinate data resulting 
# from the CCDC's data processing and validation procedures.
#
#######################################################################

data_RUFGUV01
_chemical_name_common            
2,2'-(Cyclohexane-1,2-diylbis(nitrilomethylylidene))bis(4-bromophenol)
_chemical_formula_moiety         'C20 H20 Br2 N2 O2'
_chemical_name_systematic        
(R,R)-4,4'-dibromo-2,2'-[cyclohexane-1,2-diylbis(nitrilomethanylylidene)]diphenol
_symmetry_cell_setting           monoclinic
_symmetry_space_group_name_H-M   'P 21'
_symmetry_Int_Tables_number      4
_space_group_name_Hall           'P 2yb'
loop_
_symmetry_equiv_pos_site_id
_symmetry_equiv_pos_as_xyz
1 x,y,z
2 -x,1/2+y,-z
_cell_length_a                   5.9082(5)
_cell_length_b                   18.8626(15)
_cell_length_c                   9.0088(7)
_cell_angle_alpha                90
_cell_angle_beta                 91.867(2)
_cell_angle_gamma                90
_cell_volume                     1003.44
_exptl_crystal_colour            yellow
_exptl_crystal_description       block
_cell_formula_units_Z            2
loop_
_atom_site_label
_atom_site_type_symbol
_atom_site_fract_x
_atom_site_fract_y
_atom_site_fract_z
Br1 Br 0.25215(12) 0.33723(3) -0.33161(7)
Br2 Br 0.27364(11) -0.23777(3) -0.33104(7)
O1 O 0.7141(7) 0.1204(3) 0.0604(6)
H1 H 0.6245 0.1070 0.1252
O2 O -0.2482(8) -0.0312(3) 0.0322(6)
H2 H -0.1588 -0.0127 0.0955
N1 N 0.3538(9) 0.1159(3) 0.2147(5)
N2 N 0.1109(9) -0.0185(2) 0.2097(5)
C1 C 0.2247(11) 0.0899(5) 0.3390(7)
H3 H 0.0634 0.1054 0.3257
C2 C 0.3242(15) 0.1210(4) 0.4830(7)
H4 H 0.4888 0.1111 0.4893
H5 H 0.3038 0.1731 0.4816
C3 C 0.2143(15) 0.0908(5) 0.6200(10)
H6 H 0.2893 0.1107 0.7106
H7 H 0.0525 0.1045 0.6194
C4 C 0.2344(16) 0.0103(5) 0.6219(10)
H8 H 0.1588 -0.0089 0.7097
H9 H 0.3961 -0.0035 0.6288
C5 C 0.1241(15) -0.0204(4) 0.4802(7)
H10 H 0.1385 -0.0727 0.4818
H11 H -0.0392 -0.0085 0.4763
C6 C 0.2343(11) 0.0086(5) 0.3428(8)
H12 H 0.3957 -0.0073 0.3416
C7 C 0.2650(10) 0.1629(4) 0.1295(7)
H13 H 0.1164 0.1795 0.1471
C8 C 0.3885(9) 0.1916(3) 0.0051(6)
C9 C 0.6051(10) 0.1676(3) -0.0268(7)
C10 C 0.7125(11) 0.1940(5) -0.1518(7)
H14 H 0.8586 0.1771 -0.1751
C11 C 0.6082(11) 0.2443(3) -0.2412(6)
H15 H 0.6819 0.2623 -0.3255
C12 C 0.3947(9) 0.2685(3) -0.2071(5)
C13 C 0.2877(10) 0.2432(3) -0.0852(7)
H16 H 0.1428 0.2612 -0.0622
C14 C 0.2091(10) -0.0645(4) 0.1293(7)
H17 H 0.3597 -0.0784 0.1555
C15 C 0.0974(10) -0.0959(3) -0.0004(6)
C16 C -0.1247(10) -0.0773(3) -0.0454(6)
C17 C -0.2241(12) -0.1068(4) -0.1734(7)
H18 H -0.3742 -0.0939 -0.2032
C18 C -0.1054(10) -0.1550(3) -0.2579(6)
H19 H -0.1728 -0.1752 -0.3452
C19 C 0.1098(10) -0.1725(3) -0.2129(5)
C20 C 0.2136(9) -0.1450(3) -0.0861(6)
H20 H 0.3628 -0.1592 -0.0572
loop_
_geom_bond_atom_site_label_1
_geom_bond_atom_site_label_2
_geom_bond_site_symmetry_1
_geom_bond_site_symmetry_2
Br1 C12 1_555 1_555
Br2 C19 1_555 1_555
O1 H1 1_555 1_555
O2 H2 1_555 1_555
N1 C1 1_555 1_555
N2 C6 1_555 1_555
C1 H3 1_555 1_555
C2 C1 1_555 1_555
H4 C2 1_555 1_555
H5 C2 1_555 1_555
C3 C2 1_555 1_555
H6 C3 1_555 1_555
H7 C3 1_555 1_555
C4 C3 1_555 1_555
H8 C4 1_555 1_555
H9 C4 1_555 1_555
C5 C4 1_555 1_555
H10 C5 1_555 1_555
H11 C5 1_555 1_555
C6 C1 1_555 1_555
H12 C6 1_555 1_555
C7 N1 1_555 1_555
H13 C7 1_555 1_555
C8 C7 1_555 1_555
C9 O1 1_555 1_555
C10 C9 1_555 1_555
H14 C10 1_555 1_555
C11 C10 1_555 1_555
H15 C11 1_555 1_555
C12 C11 1_555 1_555
C13 C8 1_555 1_555
H16 C13 1_555 1_555
C14 N2 1_555 1_555
H17 C14 1_555 1_555
C15 C14 1_555 1_555
C16 O2 1_555 1_555
C17 C16 1_555 1_555
H18 C17 1_555 1_555
C18 C17 1_555 1_555
H19 C18 1_555 1_555
C19 C18 1_555 1_555
C20 C15 1_555 1_555
H20 C20 1_555 1_555
C5 C6 1_555 1_555
C8 C9 1_555 1_555
C12 C13 1_555 1_555
C15 C16 1_555 1_555
C19 C20 1_555 1_555

#END
