
#######################################################################
#
#                 Cambridge Crystallographic Data Centre
#                                CCDC 
#
#######################################################################
#
# If this CIF has been generated from an entry in the Cambridge 
# Structural Database, then it will include bibliographic, chemical, 
# crystal, experimental, refinement or atomic coordinate data resulting 
# from the CCDC's data processing and validation procedures.
#
#######################################################################

data_RUFHAD
_chemical_formula_moiety         'C25 H27 N3 O6'
_chemical_name_systematic        
"Diethyl 1-benzyl-3'-ethoxy-2-oxo-1,2-dihydrospiro[indole-3,4'-pyrazole]-1',5'(5'H)-dicarboxylate"
_symmetry_cell_setting           monoclinic
_symmetry_space_group_name_H-M   'P 21/c'
_symmetry_Int_Tables_number      14
_space_group_name_Hall           '-P 2ybc'
loop_
_symmetry_equiv_pos_site_id
_symmetry_equiv_pos_as_xyz
1 x,y,z
2 -x,1/2+y,1/2-z
3 -x,-y,-z
4 x,1/2-y,1/2+z
_cell_length_a                   13.228(5)
_cell_length_b                   9.602(3)
_cell_length_c                   17.978(6)
_cell_angle_alpha                90
_cell_angle_beta                 97.418(7)
_cell_angle_gamma                90
_cell_volume                     2264.37
_exptl_crystal_colour            colorless
_exptl_crystal_description       Prism
_cell_formula_units_Z            4
loop_
_atom_site_label
_atom_site_type_symbol
_atom_site_fract_x
_atom_site_fract_y
_atom_site_fract_z
O1 O 0.07419(7) 0.31280(9) 0.97033(5)
O2 O 0.31093(6) 0.24473(8) 0.91045(4)
O3 O 0.38755(6) 0.16612(8) 1.18031(4)
O4 O 0.29034(6) 0.34256(8) 1.21753(4)
O5 O 0.36022(7) 0.61915(9) 1.12656(5)
O6 O 0.19144(7) 0.65535(9) 1.09576(5)
N1 N 0.10985(7) 0.49125(10) 0.89135(5)
N2 N 0.35139(8) 0.24335(10) 1.03999(5)
N3 N 0.32598(8) 0.33058(10) 1.09833(5)
C1 C -0.06717(10) 0.53103(12) 0.71291(7)
H1 H -0.1186 0.5861 0.7308
C2 C -0.07038(10) 0.50727(13) 0.63646(7)
H2 H -0.1237 0.5463 0.6023
C3 C 0.00397(10) 0.42678(13) 0.60989(7)
H3 H 0.0018 0.4099 0.5576
C4 C 0.08167(10) 0.37095(13) 0.66006(7)
H4 H 0.1329 0.3158 0.6420
C5 C 0.08542(9) 0.39475(12) 0.73663(7)
H5 H 0.1391 0.3561 0.7706
C6 C 0.01071(9) 0.47500(12) 0.76359(6)
C7 C 0.01032(9) 0.50244(13) 0.84679(6)
H6 H -0.0168 0.5972 0.8531
H7 H -0.0366 0.4355 0.8664
C8 C 0.19303(9) 0.58108(12) 0.88587(6)
C9 C 0.19867(10) 0.68837(12) 0.83563(6)
H8 H 0.1423 0.7120 0.7996
C10 C 0.29052(10) 0.76059(13) 0.83996(7)
H9 H 0.2969 0.8348 0.8060
C11 C 0.37261(10) 0.72700(12) 0.89251(6)
H10 H 0.4344 0.7779 0.8940
C12 C 0.36514(9) 0.61859(12) 0.94343(6)
H11 H 0.4214 0.5949 0.9796
C13 C 0.27443(9) 0.54678(12) 0.94002(6)
C14 C 0.24279(9) 0.42423(12) 0.98492(6)
C15 C 0.13139(9) 0.39887(12) 0.94929(6)
C16 C 0.30669(9) 0.29486(12) 0.97916(6)
C17 C 0.36391(9) 0.11206(12) 0.90556(6)
H12 H 0.3477 0.0746 0.8541
H13 H 0.3384 0.0448 0.9405
C18 C 0.47802(9) 0.12420(13) 0.92405(6)
H14 H 0.5029 0.1990 0.8941
H15 H 0.5100 0.0360 0.9126
H16 H 0.4954 0.1454 0.9775
C19 C 0.33142(9) 0.28170(12) 1.17010(6)
C20 C 0.40231(10) 0.11211(14) 1.25680(6)
H17 H 0.3357 0.0903 1.2736
H18 H 0.4377 0.1818 1.2914
C21 C 0.46525(10) -0.01664(13) 1.25597(7)
H19 H 0.4275 -0.0868 1.2239
H20 H 0.4804 -0.0530 1.3071
H21 H 0.5291 0.0053 1.2363
C22 C 0.24926(9) 0.43502(12) 1.07184(6)
H22 H 0.1823 0.4068 1.0873
C23 C 0.27643(10) 0.57974(12) 1.10211(6)
C24 C 0.20187(12) 0.80238(13) 1.11644(8)
H23 H 0.2542 0.8127 1.1607
H24 H 0.1363 0.8375 1.1301
C25 C 0.23195(11) 0.88630(14) 1.05257(7)
H25 H 0.3001 0.8580 1.0426
H26 H 0.2326 0.9854 1.0657
H27 H 0.1829 0.8704 1.0077
loop_
_geom_bond_atom_site_label_1
_geom_bond_atom_site_label_2
_geom_bond_site_symmetry_1
_geom_bond_site_symmetry_2
O1 C15 1_555 1_555
O2 C16 1_555 1_555
O3 C19 1_555 1_555
O4 C19 1_555 1_555
O5 C23 1_555 1_555
O6 C23 1_555 1_555
N1 C7 1_555 1_555
N2 N3 1_555 1_555
N3 C19 1_555 1_555
C1 H1 1_555 1_555
C2 C1 1_555 1_555
H2 C2 1_555 1_555
C3 C2 1_555 1_555
H3 C3 1_555 1_555
C4 C3 1_555 1_555
H4 C4 1_555 1_555
C5 C4 1_555 1_555
H5 C5 1_555 1_555
C6 C1 1_555 1_555
C7 C6 1_555 1_555
H6 C7 1_555 1_555
H7 C7 1_555 1_555
C8 N1 1_555 1_555
C9 C8 1_555 1_555
H8 C9 1_555 1_555
C10 C9 1_555 1_555
H9 C10 1_555 1_555
C11 C10 1_555 1_555
H10 C11 1_555 1_555
C12 C11 1_555 1_555
H11 C12 1_555 1_555
C13 C8 1_555 1_555
C14 C13 1_555 1_555
C15 N1 1_555 1_555
C16 N2 1_555 1_555
C17 O2 1_555 1_555
H12 C17 1_555 1_555
H13 C17 1_555 1_555
C18 C17 1_555 1_555
H14 C18 1_555 1_555
H15 C18 1_555 1_555
H16 C18 1_555 1_555
C20 O3 1_555 1_555
H17 C20 1_555 1_555
H18 C20 1_555 1_555
C21 C20 1_555 1_555
H19 C21 1_555 1_555
H20 C21 1_555 1_555
H21 C21 1_555 1_555
C22 N3 1_555 1_555
H22 C22 1_555 1_555
C23 C22 1_555 1_555
C24 O6 1_555 1_555
H23 C24 1_555 1_555
H24 C24 1_555 1_555
C25 C24 1_555 1_555
H25 C25 1_555 1_555
H26 C25 1_555 1_555
H27 C25 1_555 1_555
C5 C6 1_555 1_555
C12 C13 1_555 1_555
C14 C15 1_555 1_555
C14 C16 1_555 1_555
C14 C22 1_555 1_555

#END
