
#######################################################################
#
#                 Cambridge Crystallographic Data Centre
#                                CCDC 
#
#######################################################################
#
# If this CIF has been generated from an entry in the Cambridge 
# Structural Database, then it will include bibliographic, chemical, 
# crystal, experimental, refinement or atomic coordinate data resulting 
# from the CCDC's data processing and validation procedures.
#
#######################################################################

data_RUFHIL
_chemical_formula_moiety         'C29 H31 N1 O3'
_chemical_name_systematic        
2-((4-(Benzyloxy)-1-methyl-1H-indol-3-yl)(5,5-dimethyltetrahydrofuran-2-yl)methyl)phenol
_symmetry_cell_setting           monoclinic
_symmetry_space_group_name_H-M   'P 21/c'
_symmetry_Int_Tables_number      14
_space_group_name_Hall           '-P 2ybc'
loop_
_symmetry_equiv_pos_site_id
_symmetry_equiv_pos_as_xyz
1 x,y,z
2 -x,1/2+y,1/2-z
3 -x,-y,-z
4 x,1/2-y,1/2+z
_cell_length_a                   13.186(3)
_cell_length_b                   14.909(3)
_cell_length_c                   12.985(3)
_cell_angle_alpha                90
_cell_angle_beta                 110.29(3)
_cell_angle_gamma                90
_cell_volume                     2394.32
_exptl_crystal_colour            colorless
_exptl_crystal_description       block
_cell_formula_units_Z            4
loop_
_atom_site_label
_atom_site_type_symbol
_atom_site_fract_x
_atom_site_fract_y
_atom_site_fract_z
O1 O 0.6994(3) 0.01037(19) 0.5656(2)
O2 O 0.6198(2) -0.28984(18) 0.4115(2)
O3 O 0.5817(2) -0.1285(2) 0.3091(2)
H1 H 0.5772 -0.1776 0.3357
C1 C 0.7224(3) -0.2796(2) 0.5002(3)
H2 H 0.7158 -0.3048 0.5673
N1 N 0.9729(3) -0.1671(3) 0.7870(3)
C2 C 0.7452(3) -0.1781(3) 0.5174(3)
H3 H 0.6783 -0.1506 0.5192
C3 C 0.9187(4) 0.0716(3) 0.8232(3)
H4 H 0.9421 0.1211 0.8689
C4 C 0.9366(3) -0.0799(3) 0.7800(3)
C5 C 0.7902(3) 0.0098(3) 0.6569(3)
C6 C 0.8284(4) 0.0810(3) 0.7279(4)
H5 H 0.7933 0.1361 0.7119
C7 C 0.8469(3) -0.0723(3) 0.6810(3)
C8 C 0.7710(4) -0.1319(3) 0.4230(3)
C9 C 0.6558(3) 0.1652(3) 0.5013(3)
C10 C 0.7999(4) -0.3366(3) 0.4665(4)
H6 H 0.8608 -0.3556 0.5297
H7 H 0.8264 -0.3050 0.4157
C11 C 0.9744(4) -0.0073(3) 0.8524(3)
H8 H 1.0341 -0.0126 0.9166
C12 C 0.6145(4) 0.2472(3) 0.5154(4)
H9 H 0.5732 0.2516 0.5606
C13 C 1.0617(4) -0.2044(4) 0.8782(4)
H10 H 1.0714 -0.2664 0.8639
H11 H 1.0454 -0.1996 0.9445
H12 H 1.1269 -0.1719 0.8864
C14 C 0.7133(4) 0.1588(3) 0.4285(4)
H13 H 0.7393 0.1036 0.4152
C15 C 0.7105(4) -0.0630(3) 0.2436(4)
H14 H 0.6546 -0.0475 0.1795
C16 C 0.6881(4) -0.1096(3) 0.3266(4)
C17 C 0.8764(4) -0.1088(3) 0.4344(4)
H15 H 0.9328 -0.1249 0.4980
C18 C 0.8305(4) -0.1589(3) 0.6274(3)
C19 C 0.6188(4) -0.3714(3) 0.3486(3)
C20 C 0.7307(4) 0.2359(3) 0.3764(4)
H16 H 0.7715 0.2328 0.3307
C21 C 0.9076(4) -0.2127(3) 0.6964(4)
H17 H 0.9152 -0.2733 0.6838
C22 C 0.7279(3) -0.4171(3) 0.4105(4)
H18 H 0.7562 -0.4476 0.3603
H19 H 0.7213 -0.4597 0.4643
C23 C 0.6332(4) 0.3231(3) 0.4638(4)
H20 H 0.6086 0.3787 0.4775
C24 C 0.6252(4) 0.0842(3) 0.5511(4)
H21 H 0.6211 0.1003 0.6219
H22 H 0.5537 0.0647 0.5046
C25 C 0.8992(4) -0.0618(3) 0.3516(4)
H23 H 0.9698 -0.0455 0.3605
C26 C 0.8156(4) -0.0401(4) 0.2569(4)
H24 H 0.8302 -0.0096 0.2011
C27 C 0.6103(5) -0.3444(4) 0.2328(4)
H25 H 0.6730 -0.3102 0.2358
H26 H 0.5466 -0.3087 0.2004
H27 H 0.6061 -0.3973 0.1893
C28 C 0.6888(5) 0.3153(4) 0.3919(4)
H28 H 0.6976 0.3656 0.3534
C29 C 0.5228(4) -0.4286(3) 0.3486(4)
H29 H 0.4567 -0.3982 0.3085
H30 H 0.5263 -0.4383 0.4228
H31 H 0.5251 -0.4853 0.3143
loop_
_geom_bond_atom_site_label_1
_geom_bond_atom_site_label_2
_geom_bond_site_symmetry_1
_geom_bond_site_symmetry_2
O1 C5 1_555 1_555
O2 C1 1_555 1_555
O3 H1 1_555 1_555
C1 H2 1_555 1_555
N1 C4 1_555 1_555
C2 C1 1_555 1_555
H3 C2 1_555 1_555
C3 H4 1_555 1_555
C4 C7 1_555 1_555
C5 C6 1_555 1_555
C6 C3 1_555 1_555
H5 C6 1_555 1_555
C7 C5 1_555 1_555
C8 C2 1_555 1_555
C9 C12 1_555 1_555
C10 C1 1_555 1_555
H6 C10 1_555 1_555
H7 C10 1_555 1_555
C11 C3 1_555 1_555
H8 C11 1_555 1_555
C12 H9 1_555 1_555
C13 N1 1_555 1_555
H10 C13 1_555 1_555
H11 C13 1_555 1_555
H12 C13 1_555 1_555
C14 C9 1_555 1_555
H13 C14 1_555 1_555
C15 H14 1_555 1_555
C16 O3 1_555 1_555
C17 C8 1_555 1_555
H15 C17 1_555 1_555
C18 C2 1_555 1_555
C19 O2 1_555 1_555
C20 C14 1_555 1_555
H16 C20 1_555 1_555
C21 N1 1_555 1_555
H17 C21 1_555 1_555
C22 C10 1_555 1_555
H18 C22 1_555 1_555
H19 C22 1_555 1_555
C23 C12 1_555 1_555
H20 C23 1_555 1_555
C24 O1 1_555 1_555
H21 C24 1_555 1_555
H22 C24 1_555 1_555
C25 C17 1_555 1_555
H23 C25 1_555 1_555
C26 C15 1_555 1_555
H24 C26 1_555 1_555
C27 C19 1_555 1_555
H25 C27 1_555 1_555
H26 C27 1_555 1_555
H27 C27 1_555 1_555
C28 C20 1_555 1_555
H28 C28 1_555 1_555
C29 C19 1_555 1_555
H29 C29 1_555 1_555
H30 C29 1_555 1_555
H31 C29 1_555 1_555
C4 C11 1_555 1_555
C7 C18 1_555 1_555
C8 C16 1_555 1_555
C9 C24 1_555 1_555
C15 C16 1_555 1_555
C18 C21 1_555 1_555
C19 C22 1_555 1_555
C23 C28 1_555 1_555
C25 C26 1_555 1_555

#END
