
#######################################################################
#
#                 Cambridge Crystallographic Data Centre
#                                CCDC 
#
#######################################################################
#
# If this CIF has been generated from an entry in the Cambridge 
# Structural Database, then it will include bibliographic, chemical, 
# crystal, experimental, refinement or atomic coordinate data resulting 
# from the CCDC's data processing and validation procedures.
#
#######################################################################

data_RUFHEH
_chemical_formula_moiety         'C23 H22 N4 O4'
_chemical_name_systematic        
"Ethyl 1-benzyl-5'-cyano-3'-ethoxy-2-oxo-1,2-dihydrospiro[indole-3,4'-pyrazole]-1'(5'H)-carboxylate"
_symmetry_cell_setting           triclinic
_symmetry_space_group_name_H-M   'P -1'
_symmetry_Int_Tables_number      2
_space_group_name_Hall           '-P 1'
loop_
_symmetry_equiv_pos_site_id
_symmetry_equiv_pos_as_xyz
1 x,y,z
2 -x,-y,-z
_cell_length_a                   8.8803(18)
_cell_length_b                   11.094(2)
_cell_length_c                   11.201(2)
_cell_angle_alpha                79.42(3)
_cell_angle_beta                 79.41(3)
_cell_angle_gamma                77.65(3)
_cell_volume                     1047.57
_cell_formula_units_Z            2
loop_
_atom_site_label
_atom_site_type_symbol
_atom_site_fract_x
_atom_site_fract_y
_atom_site_fract_z
O1 O 0.48754(14) 0.04311(11) 0.12343(11)
O2 O 0.48361(13) 0.32018(11) 0.20132(10)
O3 O 0.42513(16) 0.32787(13) -0.29555(12)
O4 O 0.26322(17) 0.46842(13) -0.18469(12)
N1 N 0.74197(16) 0.03220(12) 0.14846(12)
N2 N 0.40388(15) 0.37745(12) 0.01029(12)
N3 N 0.45715(16) 0.33698(14) -0.10419(13)
N4 N 0.8199(2) 0.27424(18) -0.27003(16)
C1 C 0.7592(2) -0.07866(16) 0.24137(16)
H1 H 0.8556 -0.1345 0.2170
H2 H 0.6739 -0.1219 0.2457
C2 C 0.7608(2) -0.04795(16) 0.36697(16)
C3 C 0.8536(2) -0.12553(19) 0.44528(18)
H3 H 0.9195 -0.1961 0.4195
C4 C 0.8506(3) -0.1005(2) 0.56192(19)
H4 H 0.9133 -0.1548 0.6144
C5 C 0.7557(3) 0.0041(2) 0.60095(19)
H5 H 0.7532 0.0207 0.6798
C6 C 0.6654(3) 0.0833(2) 0.5236(2)
H6 H 0.6021 0.1551 0.5490
C7 C 0.6669(3) 0.0575(2) 0.40710(19)
H7 H 0.6038 0.1120 0.3551
C8 C 0.85206(19) 0.11169(15) 0.11327(15)
C9 C 1.0025(2) 0.08875(18) 0.13822(17)
H8 H 1.0444 0.0135 0.1827
C10 C 1.0894(2) 0.1820(2) 0.09456(18)
H9 H 1.1922 0.1684 0.1084
C11 C 1.0264(2) 0.29470(19) 0.03100(18)
H10 H 1.0861 0.3567 0.0046
C12 C 0.8745(2) 0.31632(17) 0.00616(16)
H11 H 0.8318 0.3921 -0.0368
C13 C 0.78849(18) 0.22298(15) 0.04656(14)
C14 C 0.62541(18) 0.21544(14) 0.03180(14)
C15 C 0.6062(2) 0.08590(15) 0.10568(14)
C16 C 0.49576(18) 0.31240(15) 0.08279(15)
C17 C 0.3426(2) 0.39724(19) 0.25355(18)
H12 H 0.2521 0.3659 0.2444
H13 H 0.3347 0.4823 0.2110
C18 C 0.3481(3) 0.3945(2) 0.38616(19)
H14 H 0.2550 0.4451 0.4219
H15 H 0.4374 0.4264 0.3944
H16 H 0.3555 0.3101 0.4277
C19 C 0.58671(19) 0.22978(15) -0.10093(15)
H17 H 0.5513 0.1551 -0.1115
C20 C 0.7175(2) 0.25398(17) -0.19715(17)
C21 C 0.3819(2) 0.37474(18) -0.20331(17)
C22 C 0.1518(6) 0.4973(5) -0.2756(4)
H18 H 0.1666 0.4292 -0.3224
H19 H 0.0449 0.5112 -0.2343
C23 C 0.1871(6) 0.6110(4) -0.3563(5)
H20 H 0.1184 0.6348 -0.4170
H21 H 0.2932 0.5956 -0.3964
H22 H 0.1729 0.6771 -0.3083
C24? C 0.2216(8) 0.5499(8) -0.2996(6)
H23? H 0.3042 0.5374 -0.3685
H24? H 0.1973 0.6374 -0.2900
C25? C 0.0794(9) 0.5038(9) -0.3142(8)
H25? H 0.0388 0.5503 -0.3863
H26? H 0.0015 0.5149 -0.2433
H27? H 0.1071 0.4169 -0.3224
loop_
_geom_bond_atom_site_label_1
_geom_bond_atom_site_label_2
_geom_bond_site_symmetry_1
_geom_bond_site_symmetry_2
O1 C15 1_555 1_555
O2 C16 1_555 1_555
O3 C21 1_555 1_555
O4 C21 1_555 1_555
N1 C1 1_555 1_555
N2 N3 1_555 1_555
N3 C19 1_555 1_555
N4 C20 1_555 1_555
C1 H1 1_555 1_555
H2 C1 1_555 1_555
C2 C1 1_555 1_555
C3 C2 1_555 1_555
H3 C3 1_555 1_555
C4 C3 1_555 1_555
H4 C4 1_555 1_555
C5 C4 1_555 1_555
H5 C5 1_555 1_555
C6 C5 1_555 1_555
H6 C6 1_555 1_555
C7 C2 1_555 1_555
H7 C7 1_555 1_555
C8 N1 1_555 1_555
C9 C8 1_555 1_555
H8 C9 1_555 1_555
C10 C9 1_555 1_555
H9 C10 1_555 1_555
C11 C10 1_555 1_555
H10 C11 1_555 1_555
C12 C11 1_555 1_555
H11 C12 1_555 1_555
C13 C8 1_555 1_555
C14 C13 1_555 1_555
C15 N1 1_555 1_555
C16 N2 1_555 1_555
C17 O2 1_555 1_555
H12 C17 1_555 1_555
H13 C17 1_555 1_555
C18 C17 1_555 1_555
H14 C18 1_555 1_555
H15 C18 1_555 1_555
H16 C18 1_555 1_555
C19 C14 1_555 1_555
H17 C19 1_555 1_555
C20 C19 1_555 1_555
C21 N3 1_555 1_555
C22 O4 1_555 1_555
H18 C22 1_555 1_555
H19 C22 1_555 1_555
C23 C22 1_555 1_555
H20 C23 1_555 1_555
H21 C23 1_555 1_555
H22 C23 1_555 1_555
C6 C7 1_555 1_555
C12 C13 1_555 1_555
C14 C15 1_555 1_555
C14 C16 1_555 1_555

#END
