
#######################################################################
#
#                 Cambridge Crystallographic Data Centre
#                                CCDC 
#
#######################################################################
#
# If this CIF has been generated from an entry in the Cambridge 
# Structural Database, then it will include bibliographic, chemical, 
# crystal, experimental, refinement or atomic coordinate data resulting 
# from the CCDC's data processing and validation procedures.
#
#######################################################################

data_RUFJOS
_chemical_formula_moiety         'C13 H13 N5 O6,2(C3 H7 N1 O1)'
_chemical_name_systematic        
"2,2'-(Pyridine-2,6-diylbis(carbonylhydrazono))-bis(propanoic acid) N,N-dimethylformamide solvate"
_symmetry_cell_setting           monoclinic
_symmetry_space_group_name_H-M   'C 2/c'
_symmetry_Int_Tables_number      15
_space_group_name_Hall           '-C 2yn'
loop_
_symmetry_equiv_pos_site_id
_symmetry_equiv_pos_as_xyz
1 x,y,z
2 -x,y,1/2-z
3 1/2+x,1/2+y,z
4 1/2-x,1/2+y,1/2-z
5 -x,-y,-z
6 x,-y,1/2+z
7 1/2-x,1/2-y,-z
8 1/2+x,1/2-y,1/2+z
_cell_length_a                   19.5743(17)
_cell_length_b                   10.4041(11)
_cell_length_c                   11.7924(12)
_cell_angle_alpha                90
_cell_angle_beta                 107.6840(10)
_cell_angle_gamma                90
_cell_volume                     2288.07
_exptl_crystal_colour            colorless
_exptl_crystal_description       block
_cell_formula_units_Z            4
_exptl_crystal_recrystallization_method DMF
loop_
_atom_site_label
_atom_site_type_symbol
_atom_site_fract_x
_atom_site_fract_y
_atom_site_fract_z
N1 N 0.5000 0.2225(3) 0.7500
N2 N 0.56173(12) 0.3597(2) 0.6173(2)
H1 H 0.5454 0.3894 0.6721
N3 N 0.58981(11) 0.4428(2) 0.55325(18)
O1 O 0.58033(11) 0.18075(19) 0.52026(18)
O2 O 0.62171(12) 0.76940(19) 0.54017(18)
O3 O 0.64206(11) 0.60873(17) 0.43031(16)
H2 H 0.6570 0.6669 0.3972
C1 C 0.55919(15) 0.2310(3) 0.5960(2)
C2 C 0.52726(14) 0.1563(2) 0.6765(2)
C3 C 0.52768(15) 0.0235(3) 0.6730(2)
H3 H 0.5462 -0.0199 0.6199
C4 C 0.5000 -0.0427(4) 0.7500
H4 H 0.5000 -0.1320 0.7500
C5 C 0.62039(14) 0.6566(3) 0.5162(2)
C6 C 0.59176(14) 0.5610(3) 0.5853(2)
C7 C 0.56634(16) 0.6134(3) 0.6825(3)
H5 H 0.5151 0.6058 0.6610
H6 H 0.5797 0.7023 0.6950
H7 H 0.5878 0.5660 0.7544
N2A N 0.43827(12) 0.3597(2) 0.8827(2)
H1A H 0.4546 0.3894 0.8279
N3A N 0.41019(11) 0.4428(2) 0.94675(18)
O1A O 0.41967(11) 0.18075(19) 0.97974(18)
O2A O 0.37829(12) 0.76940(19) 0.95983(18)
O3A O 0.35794(11) 0.60873(17) 1.06969(16)
H2A H 0.3430 0.6669 1.1028
C1A C 0.44081(15) 0.2310(3) 0.9040(2)
C2A C 0.47274(14) 0.1563(2) 0.8235(2)
C3A C 0.47232(15) 0.0235(3) 0.8270(2)
H3A H 0.4538 -0.0199 0.8801
C5A C 0.37961(14) 0.6566(3) 0.9838(2)
C6A C 0.40824(14) 0.5610(3) 0.9147(2)
C7A C 0.43366(16) 0.6134(3) 0.8175(3)
H5A H 0.4849 0.6058 0.8390
H6A H 0.4203 0.7023 0.8050
H7A H 0.4122 0.5660 0.7456
N4 N 0.71491(12) 1.0005(2) 0.3217(2)
O4 O 0.69084(11) 0.78824(19) 0.32604(17)
C8 C 0.69523(15) 0.8983(3) 0.3682(3)
H8 H 0.6836 0.9088 0.4385
C9 C 0.73224(17) 0.9912(3) 0.2111(3)
H9 H 0.7245 0.9046 0.1818
H10 H 0.7816 1.0141 0.2246
H11 H 0.7021 1.0486 0.1536
C10 C 0.7204(2) 1.1255(3) 0.3783(3)
H12 H 0.6987 1.1220 0.4412
H13 H 0.6961 1.1884 0.3206
H14 H 0.7700 1.1488 0.4106
loop_
_geom_bond_atom_site_label_1
_geom_bond_atom_site_label_2
_geom_bond_site_symmetry_1
_geom_bond_site_symmetry_2
N1 C2 1_555 1_555
N2 H1 1_555 1_555
N3 N2 1_555 1_555
N4 C8 1_555 1_555
O1 C1 1_555 1_555
O2 C5 1_555 1_555
O3 H2 1_555 1_555
O4 C8 1_555 1_555
C1 N2 1_555 1_555
C2 C1 1_555 1_555
C3 C2 1_555 1_555
H3 C3 1_555 1_555
C4 C3 1_555 1_555
H4 C4 1_555 1_555
C5 O3 1_555 1_555
C6 N3 1_555 1_555
C7 C6 1_555 1_555
H5 C7 1_555 1_555
H6 C7 1_555 1_555
H7 C7 1_555 1_555
C8 H8 1_555 1_555
C9 N4 1_555 1_555
H9 C9 1_555 1_555
H10 C9 1_555 1_555
H11 C9 1_555 1_555
C10 N4 1_555 1_555
H12 C10 1_555 1_555
H13 C10 1_555 1_555
H14 C10 1_555 1_555
N2A H1A 1_555 1_555
N3A N2A 1_555 1_555
O1A C1A 1_555 1_555
O2A C5A 1_555 1_555
O3A H2A 1_555 1_555
C1A N2A 1_555 1_555
C2A N1 1_555 1_555
C3A C4 1_555 1_555
H3A C3A 1_555 1_555
C5A O3A 1_555 1_555
C6A N3A 1_555 1_555
C7A C6A 1_555 1_555
H5A C7A 1_555 1_555
H6A C7A 1_555 1_555
H7A C7A 1_555 1_555
C5 C6 1_555 1_555
C1A C2A 1_555 1_555
C2A C3A 1_555 1_555
C5A C6A 1_555 1_555

#END
