
#######################################################################
#
#                 Cambridge Crystallographic Data Centre
#                                CCDC 
#
#######################################################################
#
# If this CIF has been generated from an entry in the Cambridge 
# Structural Database, then it will include bibliographic, chemical, 
# crystal, experimental, refinement or atomic coordinate data resulting 
# from the CCDC's data processing and validation procedures.
#
#######################################################################

data_RUFNEN
_chemical_formula_moiety         'C14 H18 O4'
_chemical_name_systematic        
9,11a-dimethyl-2,3,4,5,5a,11a-hexahydro-6H,7H-pyrano[3',4':5,6]pyrano[2,3-b]oxepin-7-one
_symmetry_cell_setting           triclinic
_symmetry_space_group_name_H-M   'P -1'
_symmetry_Int_Tables_number      2
_space_group_name_Hall           '-P 1'
loop_
_symmetry_equiv_pos_site_id
_symmetry_equiv_pos_as_xyz
1 x,y,z
2 -x,-y,-z
_cell_length_a                   6.9853(5)
_cell_length_b                   7.1516(5)
_cell_length_c                   12.7164(7)
_cell_angle_alpha                79.339(5)
_cell_angle_beta                 80.647(5)
_cell_angle_gamma                88.762(5)
_cell_volume                     615.973
_exptl_crystal_colour            colorless
_exptl_crystal_description       plate
_cell_formula_units_Z            2
loop_
_atom_site_label
_atom_site_type_symbol
_atom_site_fract_x
_atom_site_fract_y
_atom_site_fract_z
O1 O 0.84547(12) 0.40035(11) -0.10971(6)
O2 O 0.80495(13) 0.68275(11) -0.06218(7)
O3 O 0.62010(12) 0.12057(11) 0.19422(6)
O4 O 0.51508(12) 0.10131(12) 0.37562(7)
C1 C 0.78310(16) 0.51219(16) -0.03205(10)
C2 C 0.70120(16) 0.41724(16) 0.07402(9)
C3 C 0.68622(16) 0.22310(16) 0.09517(9)
C4 C 0.74542(17) 0.11464(16) 0.01136(10)
H1 H 0.7287 -0.0197 0.0255
C5 C 0.82455(17) 0.20613(16) -0.08701(9)
C6 C 0.9017(2) 0.11951(18) -0.18296(10)
H2 H 0.8374 0.1762 -0.2442
H3 H 0.8767 -0.0180 -0.1655
H4 H 1.0417 0.1433 -0.2024
C7 C 0.63156(17) 0.53494(16) 0.15894(10)
H5 H 0.5563 0.6444 0.1279
H6 H 0.7441 0.5849 0.1838
C8 C 0.50457(16) 0.41226(16) 0.25429(9)
H7 H 0.3836 0.3808 0.2283
C9 C 0.60933(17) 0.22420(16) 0.28565(9)
C10 C 0.81487(18) 0.24436(19) 0.30648(10)
H8 H 0.8633 0.1190 0.3357
H9 H 0.8159 0.3290 0.3588
H10 H 0.8983 0.2980 0.2383
C11 C 0.44280(17) 0.51415(17) 0.35053(10)
H11 H 0.5395 0.4891 0.4002
H12 H 0.4410 0.6531 0.3235
C12 C 0.24202(18) 0.44885(19) 0.41336(10)
H13 H 0.2034 0.5295 0.4686
H14 H 0.1471 0.4697 0.3625
C13 C 0.23041(19) 0.2403(2) 0.46990(10)
H15 H 0.3045 0.2255 0.5310
H16 H 0.0932 0.2080 0.5009
C14 C 0.30683(17) 0.09837(18) 0.39785(10)
H17 H 0.2609 -0.0311 0.4341
H18 H 0.2551 0.1297 0.3287
loop_
_geom_bond_atom_site_label_1
_geom_bond_atom_site_label_2
_geom_bond_site_symmetry_1
_geom_bond_site_symmetry_2
O1 C1 1_555 1_555
O2 C1 1_555 1_555
O3 C3 1_555 1_555
O4 C9 1_555 1_555
C1 C2 1_555 1_555
C2 C3 1_555 1_555
C3 C4 1_555 1_555
C4 H1 1_555 1_555
C5 O1 1_555 1_555
C6 C5 1_555 1_555
H2 C6 1_555 1_555
H3 C6 1_555 1_555
H4 C6 1_555 1_555
C7 C2 1_555 1_555
H5 C7 1_555 1_555
H6 C7 1_555 1_555
C8 C7 1_555 1_555
H7 C8 1_555 1_555
C9 O3 1_555 1_555
C10 C9 1_555 1_555
H8 C10 1_555 1_555
H9 C10 1_555 1_555
H10 C10 1_555 1_555
C11 C8 1_555 1_555
H11 C11 1_555 1_555
H12 C11 1_555 1_555
C12 C11 1_555 1_555
H13 C12 1_555 1_555
H14 C12 1_555 1_555
C13 C12 1_555 1_555
H15 C13 1_555 1_555
H16 C13 1_555 1_555
C14 O4 1_555 1_555
H17 C14 1_555 1_555
H18 C14 1_555 1_555
C4 C5 1_555 1_555
C8 C9 1_555 1_555
C13 C14 1_555 1_555

#END
