
#######################################################################
#
#                 Cambridge Crystallographic Data Centre
#                                CCDC 
#
#######################################################################
#
# If this CIF has been generated from an entry in the Cambridge 
# Structural Database, then it will include bibliographic, chemical, 
# crystal, experimental, refinement or atomic coordinate data resulting 
# from the CCDC's data processing and validation procedures.
#
#######################################################################

data_RUFPIT
_chemical_formula_moiety         'C14 H16 O5'
_chemical_name_systematic        
1-methyl-3a,4',5',6,7,8b-hexahydro-1H,3'H-spiro[cyclopenta[b]furo[3,4-d]pyran-4,2'-furan]-3,8-dione
_symmetry_cell_setting           monoclinic
_symmetry_space_group_name_H-M   'P 21'
_symmetry_Int_Tables_number      4
_space_group_name_Hall           'P 2yb'
loop_
_symmetry_equiv_pos_site_id
_symmetry_equiv_pos_as_xyz
1 x,y,z
2 -x,1/2+y,-z
_cell_length_a                   12.4927(4)
_cell_length_b                   6.17535(17)
_cell_length_c                   16.8213(5)
_cell_angle_alpha                90
_cell_angle_beta                 104.242(3)
_cell_angle_gamma                90
_cell_volume                     1257.82
_exptl_crystal_colour            yellow
_exptl_crystal_description       needle
_cell_formula_units_Z            4
loop_
_atom_site_label
_atom_site_type_symbol
_atom_site_fract_x
_atom_site_fract_y
_atom_site_fract_z
O1 O 0.26992(13) 0.0597(3) -0.10429(10)
O2 O 0.28778(12) -0.2311(2) -0.01406(10)
O3 O 0.04032(13) -0.1344(3) 0.03930(11)
O4 O 0.14626(14) 0.0791(3) 0.13339(11)
O5 O 0.50714(14) 0.2345(3) 0.18163(11)
C1 C 0.21254(18) -0.0617(4) -0.05754(15)
C2 C 0.17975(18) 0.0957(3) 0.00195(15)
H1 H 0.1343 0.2134 -0.0308
C3 C 0.27849(17) 0.2010(4) 0.06228(14)
H2 H 0.3004 0.3401 0.0402
C4 C 0.37230(18) 0.0434(4) 0.08141(14)
C5 C 0.4768(2) 0.0710(4) 0.14095(14)
C6 C 0.54319(19) -0.1350(4) 0.14302(15)
H3 H 0.5586 -0.2021 0.1981
H4 H 0.6143 -0.1044 0.1292
C7 C 0.47136(19) -0.2858(4) 0.07860(15)
H5 H 0.5085 -0.3221 0.0347
H6 H 0.4533 -0.4213 0.1040
C8 C 0.37051(18) -0.1520(4) 0.04634(13)
C9 C 0.12242(19) -0.1816(4) -0.11852(15)
H7 H 0.0561 -0.0900 -0.1380
H8 H 0.1012 -0.3168 -0.0947
C10 C 0.1797(2) -0.2289(4) -0.18758(16)
H9 H 0.2263 -0.3602 -0.1757
H10 H 0.1253 -0.2467 -0.2410
C11 C 0.2492(2) -0.0267(4) -0.18652(15)
H11 H 0.3196 -0.0632 -0.2004
H12 H 0.2091 0.0803 -0.2268
C12 C 0.11382(19) -0.0031(3) 0.05723(15)
C13 C 0.23396(19) 0.2395(4) 0.13948(15)
H13 H 0.2940 0.2119 0.1900
C14 C 0.1867(2) 0.4640(4) 0.14350(18)
H14 H 0.1330 0.4959 0.0917
H15 H 0.2465 0.5709 0.1526
H16 H 0.1502 0.4706 0.1887
O6 O 0.29646(14) 0.6740(3) 0.56773(10)
O7 O 0.27691(13) 0.3807(3) 0.47840(10)
O8 O -0.00403(15) 0.4670(3) 0.39429(13)
O9 O 0.06278(15) 0.6740(3) 0.30853(12)
O10 O 0.40487(16) 0.8405(3) 0.29770(12)
C15 C 0.21838(19) 0.5496(4) 0.51356(15)
C16 C 0.15582(19) 0.7009(4) 0.44764(14)
H17 H 0.1229 0.8185 0.4750
C17 C 0.2284(2) 0.8081(4) 0.39669(15)
H18 H 0.2595 0.9485 0.4217
C18 C 0.31807(19) 0.6549(4) 0.39007(14)
C19 C 0.3981(2) 0.6829(4) 0.34073(15)
C20 C 0.4734(2) 0.4869(4) 0.35292(17)
H19 H 0.5503 0.5290 0.3795
H20 H 0.4720 0.4172 0.2997
C21 C 0.4274(2) 0.3320(4) 0.40860(16)
H21 H 0.3999 0.1959 0.3796
H22 H 0.4842 0.2970 0.4593
C22 C 0.33478(19) 0.4609(4) 0.42722(14)
C23 C 0.1537(2) 0.4289(4) 0.56539(17)
H23 H 0.0938 0.5197 0.5766
H24 H 0.1218 0.2928 0.5385
C24 C 0.2424(2) 0.3838(5) 0.64332(17)
H25 H 0.2785 0.2426 0.6399
H26 H 0.2108 0.3832 0.6918
C25 C 0.3239(2) 0.5691(6) 0.64809(17)
H27 H 0.3171 0.6731 0.6914
H28 H 0.4006 0.5133 0.6609
C26 C 0.0632(2) 0.5959(4) 0.38369(16)
C27 C 0.1459(2) 0.8447(4) 0.31382(15)
H29 H 0.1840 0.8266 0.2685
C28 C 0.0893(3) 1.0627(5) 0.30627(18)
H30 H 0.0333 1.0702 0.2541
H31 H 0.1440 1.1775 0.3081
H32 H 0.0538 1.0818 0.3517
loop_
_geom_bond_atom_site_label_1
_geom_bond_atom_site_label_2
_geom_bond_site_symmetry_1
_geom_bond_site_symmetry_2
O1 C1 1_555 1_555
O2 C1 1_555 1_555
O3 C12 1_555 1_555
O4 C12 1_555 1_555
O5 C5 1_555 1_555
C1 C2 1_555 1_555
C2 H1 1_555 1_555
C3 C2 1_555 1_555
H2 C3 1_555 1_555
C4 C3 1_555 1_555
C5 C4 1_555 1_555
C6 C5 1_555 1_555
H3 C6 1_555 1_555
H4 C6 1_555 1_555
C7 C6 1_555 1_555
H5 C7 1_555 1_555
H6 C7 1_555 1_555
C8 O2 1_555 1_555
C9 C1 1_555 1_555
H7 C9 1_555 1_555
H8 C9 1_555 1_555
C10 C9 1_555 1_555
H9 C10 1_555 1_555
H10 C10 1_555 1_555
C11 O1 1_555 1_555
H11 C11 1_555 1_555
H12 C11 1_555 1_555
C12 C2 1_555 1_555
C13 O4 1_555 1_555
H13 C13 1_555 1_555
C14 C13 1_555 1_555
H14 C14 1_555 1_555
H15 C14 1_555 1_555
H16 C14 1_555 1_555
O6 C15 1_555 1_555
O7 C15 1_555 1_555
O8 C26 1_555 1_555
O9 C26 1_555 1_555
O10 C19 1_555 1_555
C15 C16 1_555 1_555
C16 H17 1_555 1_555
C17 C16 1_555 1_555
H18 C17 1_555 1_555
C18 C17 1_555 1_555
C19 C18 1_555 1_555
C20 C19 1_555 1_555
H19 C20 1_555 1_555
H20 C20 1_555 1_555
C21 C20 1_555 1_555
H21 C21 1_555 1_555
H22 C21 1_555 1_555
C22 O7 1_555 1_555
C23 C15 1_555 1_555
H23 C23 1_555 1_555
H24 C23 1_555 1_555
C24 C23 1_555 1_555
H25 C24 1_555 1_555
H26 C24 1_555 1_555
C25 O6 1_555 1_555
H27 C25 1_555 1_555
H28 C25 1_555 1_555
C26 C16 1_555 1_555
C27 O9 1_555 1_555
H29 C27 1_555 1_555
C28 C27 1_555 1_555
H30 C28 1_555 1_555
H31 C28 1_555 1_555
H32 C28 1_555 1_555
C3 C13 1_555 1_555
C4 C8 1_555 1_555
C7 C8 1_555 1_555
C10 C11 1_555 1_555
C17 C27 1_555 1_555
C18 C22 1_555 1_555
C21 C22 1_555 1_555
C24 C25 1_555 1_555

#END
