
#######################################################################
#
#                 Cambridge Crystallographic Data Centre
#                                CCDC 
#
#######################################################################
#
# If this CIF has been generated from an entry in the Cambridge 
# Structural Database, then it will include bibliographic, chemical, 
# crystal, experimental, refinement or atomic coordinate data resulting 
# from the CCDC's data processing and validation procedures.
#
#######################################################################

data_RUFQIU
_chemical_formula_moiety         'C10 H29 B10 N1'
_chemical_name_systematic        
1-(1-(diisopropylamino)ethyl)-1,2-dicarba-closo-dodecaborane(11)
_symmetry_cell_setting           monoclinic
_symmetry_space_group_name_H-M   'P 21/c'
_symmetry_Int_Tables_number      14
_space_group_name_Hall           '-P 2ybc'
loop_
_symmetry_equiv_pos_site_id
_symmetry_equiv_pos_as_xyz
1 x,y,z
2 -x,1/2+y,1/2-z
3 -x,-y,-z
4 x,1/2-y,1/2+z
_cell_length_a                   10.778(2)
_cell_length_b                   12.052(3)
_cell_length_c                   14.175(3)
_cell_angle_alpha                90
_cell_angle_beta                 111.069(14)
_cell_angle_gamma                90
_cell_volume                     1718.19
_exptl_crystal_colour            colorless
_exptl_crystal_description       block
_cell_formula_units_Z            4
loop_
_atom_site_label
_atom_site_type_symbol
_atom_site_fract_x
_atom_site_fract_y
_atom_site_fract_z
N1 N 0.8062(3) 0.2231(2) 1.0439(2)
C1 C 0.5785(3) 0.2252(3) 0.9080(3)
C2 C 0.5324(4) 0.3381(3) 0.9512(3)
H1 H 0.6083 0.3917 1.0043
C3 C 0.7316(4) 0.2065(4) 0.9377(3)
H2 H 0.7606 0.2666 0.9038
C4 C 0.7581(4) 0.1013(4) 0.8892(3)
H3 H 0.8522 0.0922 0.9066
H4 H 0.7158 0.1064 0.8171
H5 H 0.7231 0.0387 0.9134
C5 C 0.8223(4) 0.1284(4) 1.1108(3)
H6 H 0.7431 0.0824 1.0795
C6 C 0.9410(4) 0.0513(4) 1.1261(3)
H7 H 0.9418 0.0283 1.0615
H8 H 0.9336 -0.0128 1.1640
H9 H 1.0220 0.0899 1.1624
C7 C 0.8178(4) 0.1638(4) 1.2126(3)
H10 H 0.7418 0.2105 1.2021
H11 H 0.8973 0.2041 1.2496
H12 H 0.8114 0.0993 1.2503
C8 C 0.9235(4) 0.2964(4) 1.0684(4)
H13 H 0.9761 0.2816 1.1396
C9 C 1.0172(4) 0.2752(4) 1.0119(3)
H14 H 1.0406 0.1980 1.0167
H15 H 1.0962 0.3190 1.0413
H16 H 0.9741 0.2952 0.9422
C10 C 0.8860(5) 0.4175(4) 1.0643(4)
H17 H 0.8280 0.4288 1.1014
H18 H 0.8414 0.4394 0.9952
H19 H 0.9649 0.4614 1.0938
B1 B 0.5209(5) 0.3378(4) 0.8282(4)
H20 H 0.5833 0.3872 0.7974
B2 B 0.4706(4) 0.2021(4) 0.7872(3)
H21 H 0.4996 0.1622 0.7285
B3 B 0.4595(5) 0.1254(4) 0.8905(4)
H22 H 0.4808 0.0360 0.8990
B4 B 0.5027(4) 0.2143(4) 0.9944(3)
H23 H 0.5538 0.1838 1.0718
B5 B 0.3972(4) 0.3999(4) 0.8647(4)
H24 H 0.3785 0.4898 0.8577
B6 B 0.3536(5) 0.3107(4) 0.7595(4)
H25 H 0.3048 0.3422 0.6821
B7 B 0.3141(5) 0.1796(4) 0.7967(4)
H26 H 0.2391 0.1254 0.7436
B8 B 0.3351(5) 0.1859(4) 0.9270(4)
H27 H 0.2745 0.1363 0.9594
B9 B 0.3860(4) 0.3238(4) 0.9686(4)
H28 H 0.3600 0.3645 1.0284
B10 B 0.2681(5) 0.3014(4) 0.8443(4)
H29 H 0.1634 0.3266 0.8225
loop_
_geom_bond_atom_site_label_1
_geom_bond_atom_site_label_2
_geom_bond_site_symmetry_1
_geom_bond_site_symmetry_2
N1 C3 1_555 1_555
C1 C2 1_555 1_555
C2 H1 1_555 1_555
C3 C1 1_555 1_555
H2 C3 1_555 1_555
C4 C3 1_555 1_555
H3 C4 1_555 1_555
H4 C4 1_555 1_555
H5 C4 1_555 1_555
C5 N1 1_555 1_555
H6 C5 1_555 1_555
C6 C5 1_555 1_555
H7 C6 1_555 1_555
H8 C6 1_555 1_555
H9 C6 1_555 1_555
C7 C5 1_555 1_555
H10 C7 1_555 1_555
H11 C7 1_555 1_555
H12 C7 1_555 1_555
C8 N1 1_555 1_555
H13 C8 1_555 1_555
C9 C8 1_555 1_555
H14 C9 1_555 1_555
H15 C9 1_555 1_555
H16 C9 1_555 1_555
C10 C8 1_555 1_555
H17 C10 1_555 1_555
H18 C10 1_555 1_555
H19 C10 1_555 1_555
B1 C1 1_555 1_555
H20 B1 1_555 1_555
B2 C1 1_555 1_555
H21 B2 1_555 1_555
B3 C1 1_555 1_555
H22 B3 1_555 1_555
B4 C1 1_555 1_555
H23 B4 1_555 1_555
B5 C2 1_555 1_555
H24 B5 1_555 1_555
B6 B1 1_555 1_555
H25 B6 1_555 1_555
B7 B2 1_555 1_555
H26 B7 1_555 1_555
B8 B3 1_555 1_555
H27 B8 1_555 1_555
B9 C2 1_555 1_555
H28 B9 1_555 1_555
B10 B5 1_555 1_555
H29 B10 1_555 1_555
C2 B1 1_555 1_555
C2 B4 1_555 1_555
B1 B2 1_555 1_555
B1 B5 1_555 1_555
B2 B3 1_555 1_555
B2 B6 1_555 1_555
B3 B4 1_555 1_555
B3 B7 1_555 1_555
B4 B8 1_555 1_555
B4 B9 1_555 1_555
B5 B6 1_555 1_555
B5 B9 1_555 1_555
B6 B7 1_555 1_555
B6 B10 1_555 1_555
B7 B8 1_555 1_555
B7 B10 1_555 1_555
B8 B9 1_555 1_555
B8 B10 1_555 1_555
B9 B10 1_555 1_555

#END
