
#######################################################################
#
#                 Cambridge Crystallographic Data Centre
#                                CCDC 
#
#######################################################################
#
# If this CIF has been generated from an entry in the Cambridge 
# Structural Database, then it will include bibliographic, chemical, 
# crystal, experimental, refinement or atomic coordinate data resulting 
# from the CCDC's data processing and validation procedures.
#
#######################################################################

data_RUFXIA
_chemical_formula_moiety         'C19 H26 N2 2+,2(Cl1 O4 1-)'
_chemical_name_systematic        
'1-(Dimethylethylammoniophenyl-4-yl)-2-(1-ethylpyridinium-4-yl)ethylene diperchlorate'
_symmetry_cell_setting           orthorhombic
_symmetry_space_group_name_H-M   'I b c a'
_symmetry_Int_Tables_number      73
_space_group_name_Hall           '-I 2b 2c'
loop_
_symmetry_equiv_pos_site_id
_symmetry_equiv_pos_as_xyz
1 x,y,z
2 1/2+x,1/2+y,1/2+z
3 1/2-x,-y,1/2+z
4 -x,1/2+y,1/2-z
5 1/2+x,1/2-y,-z
6 -x,1/2-y,z
7 1/2-x,y,-z
8 x,-y,1/2-z
9 -x,-y,-z
10 1/2-x,1/2-y,1/2-z
11 1/2+x,y,1/2-z
12 x,1/2-y,1/2+z
13 1/2-x,1/2+y,z
14 x,1/2+y,-z
15 1/2+x,-y,z
16 -x,y,1/2+z
_cell_length_a                   12.7541(13)
_cell_length_b                   21.640(2)
_cell_length_c                   31.975(3)
_cell_angle_alpha                90
_cell_angle_beta                 90
_cell_angle_gamma                90
_cell_volume                     8825.06
_exptl_crystal_colour            orange
_exptl_crystal_description       block
_cell_formula_units_Z            16
loop_
_atom_site_label
_atom_site_type_symbol
_atom_site_fract_x
_atom_site_fract_y
_atom_site_fract_z
Cl1 Cl 0.0809(4) 0.4436(2) 0.16161(9)
O1 O 0.0710(10) 0.3881(4) 0.1854(4)
O2 O 0.0768(10) 0.4311(6) 0.1185(2)
O3 O 0.1719(9) 0.4757(5) 0.1716(3)
O4 O -0.0108(9) 0.4823(4) 0.1696(2)
N1 N 0.0726(8) -0.0865(5) 0.0818(3)
N2 N 0.1969(10) -0.3535(7) -0.2009(5)
C1 C 0.1672(13) -0.2944(10) -0.2051(5)
H1 H 0.1641 -0.2765 -0.2322
C2 C 0.1422(11) -0.2610(7) -0.1722(5)
H2 H 0.1151 -0.2207 -0.1768
C3 C 0.1531(8) -0.2812(8) -0.1312(4)
C4 C 0.1779(14) -0.3413(8) -0.1273(5)
H3 H 0.1764 -0.3594 -0.1002
C5 C 0.2053(13) -0.3782(7) -0.1611(5)
H4 H 0.2294 -0.4193 -0.1570
C6 C 0.1279(8) -0.2392(6) -0.0991(4)
H5 H 0.1027 -0.1996 -0.1070
C7 C 0.1364(5) -0.2507(4) -0.0611(3)
H6 H 0.1557 -0.2913 -0.0529
C8 C 0.1161(5) -0.1992(4) -0.0247(3)
C9 C 0.1224(5) -0.2255(4) 0.0149(3)
H7 H 0.1360 -0.2684 0.0181
C10 C 0.1084(8) -0.1879(6) 0.0496(3)
H8 H 0.1142 -0.2056 0.0767
C11 C 0.0861(8) -0.1252(6) 0.0461(3)
C12 C 0.0849(10) -0.0973(6) 0.0076(4)
H9 H 0.0804 -0.0537 0.0042
C13 C 0.0914(12) -0.1425(9) -0.0300(4)
H10 H 0.0768 -0.1278 -0.0574
C14 C 0.1815(14) -0.0772(13) 0.0979(8)
H11 H 0.2104 -0.1169 0.1070
H12 H 0.1799 -0.0485 0.1216
H13 H 0.2255 -0.0600 0.0756
C15 C 0.0336(18) -0.0229(8) 0.0739(5)
H14 H -0.0408 -0.0246 0.0663
H15 H 0.0737 -0.0043 0.0510
H16 H 0.0421 0.0020 0.0993
C16 C 0.0118(19) -0.1141(12) 0.1154(8)
H17 H 0.0090 -0.0852 0.1394
H18 H 0.0467 -0.1525 0.1249
C17 C -0.1008(19) -0.1293(11) 0.1010(8)
H19 H -0.1445 -0.1384 0.1255
H20 H -0.0994 -0.1653 0.0824
H21 H -0.1300 -0.0938 0.0860
C22 C 0.2265(14) -0.3919(8) -0.2366(5)
H33 H 0.2664 -0.4281 -0.2263
H34 H 0.2734 -0.3678 -0.2551
C23 C 0.129(2) -0.4156(11) -0.2630(7)
H35 H 0.1537 -0.4400 -0.2868
H36 H 0.0887 -0.3800 -0.2733
H37 H 0.0838 -0.4412 -0.2453
Cl2? Cl 0.2500 0.0777(4) 0.0000
Cl3? Cl 0.1865(13) 0.0980(12) -0.0008(5)
Cl4? Cl 0.0000 0.2500 0.3111(5)
Cl5? Cl 0.0000 0.2500 0.3394(19)
C18? C 0.112(3) -0.1140(13) 0.1217(7)
H22? H 0.1363 -0.1562 0.1166
H23? H 0.0546 -0.1148 0.1423
H24? H 0.1696 -0.0889 0.1326
C19? C -0.0378(18) -0.068(2) 0.0903(14)
H25? H -0.0775 -0.1045 0.0996
H26? H -0.0694 -0.0517 0.0647
H27? H -0.0391 -0.0366 0.1122
C20? C 0.132(2) -0.0282(10) 0.0763(9)
H28? H 0.1465 -0.0098 0.1041
H29? H 0.0893 0.0015 0.0601
C21? C 0.238(2) -0.040(2) 0.0530(13)
H30? H 0.2721 -0.0001 0.0472
H31? H 0.2245 -0.0615 0.0267
H32? H 0.2841 -0.0650 0.0707
loop_
_geom_bond_atom_site_label_1
_geom_bond_atom_site_label_2
_geom_bond_site_symmetry_1
_geom_bond_site_symmetry_2
Cl1 O1 1_555 1_555
O2 Cl1 1_555 1_555
O3 Cl1 1_555 1_555
O4 Cl1 1_555 1_555
N1 C11 1_555 1_555
N2 C1 1_555 1_555
C1 H1 1_555 1_555
C2 C1 1_555 1_555
H2 C2 1_555 1_555
C3 C2 1_555 1_555
C4 C3 1_555 1_555
H3 C4 1_555 1_555
C5 N2 1_555 1_555
H4 C5 1_555 1_555
C6 C3 1_555 1_555
H5 C6 1_555 1_555
C7 C6 1_555 1_555
H6 C7 1_555 1_555
C8 C7 1_555 1_555
C9 C8 1_555 1_555
H7 C9 1_555 1_555
C10 C9 1_555 1_555
H8 C10 1_555 1_555
C11 C10 1_555 1_555
C12 C11 1_555 1_555
H9 C12 1_555 1_555
C13 C8 1_555 1_555
H10 C13 1_555 1_555
C14 N1 1_555 1_555
H11 C14 1_555 1_555
H12 C14 1_555 1_555
H13 C14 1_555 1_555
C15 N1 1_555 1_555
H14 C15 1_555 1_555
H15 C15 1_555 1_555
H16 C15 1_555 1_555
C16 N1 1_555 1_555
H17 C16 1_555 1_555
H18 C16 1_555 1_555
C17 C16 1_555 1_555
H19 C17 1_555 1_555
H20 C17 1_555 1_555
H21 C17 1_555 1_555
C22 N2 1_555 1_555
H33 C22 1_555 1_555
H34 C22 1_555 1_555
C23 C22 1_555 1_555
H35 C23 1_555 1_555
H36 C23 1_555 1_555
H37 C23 1_555 1_555
C4 C5 1_555 1_555
C12 C13 1_555 1_555

#END
