
#######################################################################
#
#                 Cambridge Crystallographic Data Centre
#                                CCDC 
#
#######################################################################
#
# If this CIF has been generated from an entry in the Cambridge 
# Structural Database, then it will include bibliographic, chemical, 
# crystal, experimental, refinement or atomic coordinate data resulting 
# from the CCDC's data processing and validation procedures.
#
#######################################################################

data_RUFXAS
_chemical_formula_moiety         'C15 H16 N1 1+,Cl1 O4 1-,0.5(C6 H6)'
_chemical_name_systematic        
'1-Phenyl-2-(1-ethylpyridinium-4-yl)ethylene perchlorate benzene solvate'
_symmetry_cell_setting           triclinic
_symmetry_space_group_name_H-M   'P -1'
_symmetry_Int_Tables_number      2
_space_group_name_Hall           '-P 1'
loop_
_symmetry_equiv_pos_site_id
_symmetry_equiv_pos_as_xyz
1 x,y,z
2 -x,-y,-z
_cell_length_a                   8.5664(4)
_cell_length_b                   10.3172(5)
_cell_length_c                   10.7450(5)
_cell_angle_alpha                92.138(2)
_cell_angle_beta                 106.674(2)
_cell_angle_gamma                110.424(2)
_cell_volume                     842.488
_exptl_crystal_colour            yellowish
_exptl_crystal_description       block
_cell_formula_units_Z            2
_exptl_crystal_recrystallization_method benzene/acetonitrile
loop_
_atom_site_label
_atom_site_type_symbol
_atom_site_fract_x
_atom_site_fract_y
_atom_site_fract_z
Cl1 Cl 0.81645(6) 1.24224(5) 0.27080(4)
O1 O 0.8928(2) 1.38892(15) 0.31710(17)
O2 O 0.9054(2) 1.20821(16) 0.18772(14)
O3 O 0.6338(2) 1.2053(2) 0.1932(2)
O4 O 0.8300(4) 1.1658(2) 0.37833(18)
N1 N 0.2163(3) 0.9217(3) 0.3036(2)
C1 C 0.3028(3) 0.9584(3) 0.2139(3)
C2 C 0.3201(3) 0.8583(4) 0.13580(19)
C3 C 0.2492(3) 0.7162(3) 0.1472(2)
C4 C 0.1645(3) 0.6824(2) 0.2427(3)
C5 C 0.1488(4) 0.7850(4) 0.3183(3)
C6 C 0.2692(2) 0.6137(2) 0.06144(18)
C7 C 0.2054(2) 0.4756(2) 0.06130(18)
C8 C 0.2262(3) 0.3710(3) -0.0218(3)
C9 C 0.1681(3) 0.2312(4) 0.0011(2)
C10 C 0.1822(4) 0.1267(3) -0.0760(3)
C11 C 0.2521(4) 0.1592(3) -0.1784(3)
C12 C 0.3100(3) 0.2977(4) -0.2025(3)
C13 C 0.2978(3) 0.4032(3) -0.1246(3)
C14 C 0.1987(3) 1.0320(3) 0.3845(2)
H1 H 0.350(3) 1.055(3) 0.209(2)
H2 H 0.382(3) 0.887(2) 0.077(2)
H3 H 0.110(3) 0.588(3) 0.255(2)
H4 H 0.097(3) 0.774(3) 0.380(2)
H5 H 0.336(3) 0.654(2) 0.000(2)
H6 H 0.138(3) 0.437(3) 0.119(2)
H7 H 0.121(3) 0.214(3) 0.068(2)
H8 H 0.142(3) 0.031(3) -0.061(2)
H9 H 0.264(3) 0.092(2) -0.229(2)
H10 H 0.355(3) 0.319(2) -0.270(2)
H11 H 0.335(3) 0.491(3) -0.146(2)
H12 H 0.167(3) 1.093(3) 0.325(3)
H13 H 0.100(3) 0.987(3) 0.411(2)
C29 C 0.3682(3) 1.1086(3) 0.4968(2)
H27 H 0.469(3) 1.147(3) 0.466(2)
H28 H 0.388(3) 1.047(3) 0.555(2)
H29 H 0.354(3) 1.181(3) 0.540(3)
C30 C -0.3459(3) 0.5005(2) -0.5190(2)
C31 C -0.3392(3) 0.5717(2) -0.4041(2)
C32 C -0.5062(3) 0.4297(2) -0.6148(2)
H30 H -0.238(3) 0.503(2) -0.529(2)
H31 H -0.230(3) 0.625(2) -0.339(2)
H32 H -0.507(3) 0.380(3) -0.690(2)
C30A C -0.6541(3) 0.4995(2) -0.4810(2)
C31A C -0.6608(3) 0.4283(2) -0.5959(2)
C32A C -0.4938(3) 0.5703(2) -0.3852(2)
H30A H -0.762(3) 0.497(2) -0.471(2)
H31A H -0.770(3) 0.375(2) -0.661(2)
H32A H -0.493(3) 0.620(3) -0.310(2)
N2? N 0.237(3) 0.938(3) 0.277(2)
C15? C 0.307(5) 0.922(4) 0.189(4)
H14? H 0.3732 1.0018 0.1586
C16? C 0.288(3) 0.799(4) 0.141(2)
H15? H 0.3359 0.7896 0.0735
C17? C 0.205(3) 0.686(2) 0.184(3)
C18? C 0.138(3) 0.700(3) 0.280(3)
H16? H 0.0754 0.6225 0.3140
C19? C 0.164(5) 0.828(5) 0.322(5)
H17? H 0.1244 0.8415 0.3943
C20? C 0.194(2) 0.5543(18) 0.1178(15)
H18? H 0.1324 0.4714 0.1464
C21? C 0.260(3) 0.535(2) 0.022(2)
H19? H 0.3254 0.6196 -0.0023
C22? C 0.251(3) 0.401(3) -0.057(3)
C23? C 0.194(4) 0.290(5) -0.003(3)
H20? H 0.1623 0.3002 0.0735
C24? C 0.179(5) 0.162(4) -0.051(3)
H21? H 0.1319 0.0822 -0.0121
C25? C 0.227(5) 0.152(4) -0.148(4)
H22? H 0.2100 0.0614 -0.1858
C26? C 0.294(5) 0.248(6) -0.195(4)
H23? H 0.3429 0.2370 -0.2613
C27? C 0.299(5) 0.373(5) -0.155(4)
H24? H 0.3418 0.4467 -0.2012
C28? C 0.240(3) 1.079(3) 0.359(2)
H25? H 0.2752 1.1599 0.3127
H26? H 0.1205 1.0625 0.3627
loop_
_geom_bond_atom_site_label_1
_geom_bond_atom_site_label_2
_geom_bond_site_symmetry_1
_geom_bond_site_symmetry_2
Cl1 O1 1_555 1_555
O2 Cl1 1_555 1_555
O3 Cl1 1_555 1_555
O4 Cl1 1_555 1_555
N1 C1 1_555 1_555
C1 C2 1_555 1_555
C2 C3 1_555 1_555
C3 C4 1_555 1_555
C4 C5 1_555 1_555
C5 N1 1_555 1_555
C6 C3 1_555 1_555
C7 C6 1_555 1_555
C8 C7 1_555 1_555
C9 C8 1_555 1_555
C10 C9 1_555 1_555
C11 C10 1_555 1_555
C12 C11 1_555 1_555
C13 C8 1_555 1_555
C14 N1 1_555 1_555
H1 C1 1_555 1_555
H2 C2 1_555 1_555
H3 C4 1_555 1_555
H4 C5 1_555 1_555
H5 C6 1_555 1_555
H6 C7 1_555 1_555
H7 C9 1_555 1_555
H8 C10 1_555 1_555
H9 C11 1_555 1_555
H10 C12 1_555 1_555
H11 C13 1_555 1_555
H12 C14 1_555 1_555
H13 C14 1_555 1_555
C29 C14 1_555 1_555
C30 C31 1_555 1_555
C31 H31 1_555 1_555
C32 C30 1_555 1_555
H27 C29 1_555 1_555
H28 C29 1_555 1_555
H29 C29 1_555 1_555
H30 C30 1_555 1_555
H32 C32 1_555 1_555
C30A C31A 1_555 1_555
C31A C32 1_555 1_555
C32A C31 1_555 1_555
H30A C30A 1_555 1_555
H31A C31A 1_555 1_555
H32A C32A 1_555 1_555
C12 C13 1_555 1_555
C30A C32A 1_555 1_555

#END
