
#######################################################################
#
#                 Cambridge Crystallographic Data Centre
#                                CCDC 
#
#######################################################################
#
# If this CIF has been generated from an entry in the Cambridge 
# Structural Database, then it will include bibliographic, chemical, 
# crystal, experimental, refinement or atomic coordinate data resulting 
# from the CCDC's data processing and validation procedures.
#
#######################################################################

data_RUGFEE
_chemical_formula_moiety         'C54 H68 N4 O4,4(C2 H6 O1)'
_chemical_name_systematic        
"Dicyclohexyl-1,1'-dispiro-10,20-(9,19-di(1,4)-2,6-dimethylbenzena-1,11-di(1,4)3,5-dimethylbenzena-3,7,13,17-tetraoxo-2,8,12,18-tetra-azacycloicosaphane) bis(ethanol) clathrate ethanol solvate"
_symmetry_cell_setting           triclinic
_symmetry_space_group_name_H-M   'P -1'
_symmetry_Int_Tables_number      2
_space_group_name_Hall           '-P 1'
loop_
_symmetry_equiv_pos_site_id
_symmetry_equiv_pos_as_xyz
1 x,y,z
2 -x,-y,-z
_cell_length_a                   9.492(1)
_cell_length_b                   13.286(1)
_cell_length_c                   13.366(1)
_cell_angle_alpha                99.06(1)
_cell_angle_beta                 109.00(1)
_cell_angle_gamma                98.84(1)
_cell_volume                     1535.5
_exptl_crystal_colour            colorless
_exptl_crystal_description       plates
_cell_formula_units_Z            1
_exptl_crystal_recrystallization_method dichloromethane/EtOH
loop_
_atom_site_label
_atom_site_type_symbol
_atom_site_fract_x
_atom_site_fract_y
_atom_site_fract_z
O1 O 0.1402(3) 0.4212(2) 0.9405(2)
O2 O -0.1525(2) 0.1851(2) 0.1649(2)
N1 N 0.1733(3) 0.4726(2) 0.7961(2)
N2 N 0.0766(2) 0.1892(2) 0.1484(2)
C1 C 0.1910(4) 0.6729(2) 0.9837(3)
C2 C 0.0708(3) 0.5809(2) 0.9038(2)
C3 C 0.1319(3) 0.4843(2) 0.8832(2)
C4 C 0.2194(3) 0.3828(2) 0.7541(2)
C5 C 0.1087(3) 0.2918(2) 0.6947(2)
C6 C 0.1543(3) 0.2102(2) 0.6447(2)
C7 C 0.3044(3) 0.2147(2) 0.6511(2)
C8 C 0.4113(3) 0.3059(2) 0.7135(2)
C9 C 0.3717(3) 0.3895(2) 0.7659(2)
C10 C 0.3424(3) 0.1263(2) 0.5823(2)
C11 C 0.5151(3) 0.1339(2) 0.6115(2)
C12 C 0.5965(3) 0.1142(2) 0.7234(2)
C13 C 0.5216(4) 0.0109(3) 0.7369(3)
C14 C 0.3526(4) 0.0035(2) 0.7119(2)
C15 C 0.2748(3) 0.0190(2) 0.5980(2)
C16 C 0.2738(3) 0.1376(2) 0.4639(2)
C17 C 0.1714(3) 0.0581(2) 0.3795(2)
C18 C 0.1081(3) 0.0722(2) 0.2741(2)
C19 C 0.1477(3) 0.1693(2) 0.2541(2)
C20 C 0.2530(3) 0.2507(2) 0.3356(2)
C21 C 0.3146(3) 0.2327(2) 0.4383(2)
C22 C -0.0695(3) 0.1990(2) 0.1128(2)
C23 C 0.1260(3) 0.7709(2) 0.9947(2)
C24 C -0.0556(4) 0.2825(3) 0.6842(3)
C25 C 0.4918(4) 0.4864(2) 0.8323(3)
C26 C -0.0013(4) -0.0171(2) 0.1858(2)
C27 C 0.2959(5) 0.3571(3) 0.3138(3)
H1 H 0.1716 0.5251 0.7609
H2 H 0.1314 0.1951 0.1051
H3 H 0.2732 0.6875 0.9575
H4 H 0.2311 0.6556 1.0531
H5 H 0.0269 0.6008 0.8363
H6 H -0.0086 0.5651 0.9323
H7 H 0.0782 0.1479 0.6039
H8 H 0.5161 0.3112 0.7200
H9 H 0.5617 0.2019 0.6076
H10 H 0.5297 0.0835 0.5580
H11 H 0.5944 0.1696 0.7781
H12 H 0.7013 0.1145 0.7332
H13 H 0.5697 0.0035 0.8098
H14 H 0.5352 -0.0451 0.6885
H15 H 0.3387 0.0563 0.7635
H16 H 0.3071 -0.0634 0.7190
H17 H 0.2851 -0.0356 0.5462
H18 H 0.1679 0.0139 0.5842
H19 H 0.1427 -0.0086 0.3949
H20 H 0.3897 0.2876 0.4943
H21 H 0.2016 0.8281 1.0471
H22 H 0.0426 0.7556 1.0196
H23 H -0.1140 0.2149 0.6414
H24 H -0.0634 0.2918 0.7548
H25 H -0.0943 0.3355 0.6491
H26 H 0.5896 0.4762 0.8320
H27 H 0.4685 0.5449 0.8011
H28 H 0.4943 0.4998 0.9057
H29 H -0.0338 0.0048 0.1184
H30 H 0.0471 -0.0747 0.1781
H31 H -0.0884 -0.0384 0.2053
H32 H 0.3675 0.4039 0.3790
H33 H 0.3421 0.3494 0.2597
H34 H 0.2067 0.3850 0.2875
C23A C -0.1260(3) 0.2291(2) 0.0053(2)
C1A C -0.1910(4) 0.3271(2) 0.0163(3)
C2A C -0.0708(3) 0.4191(2) 0.0962(2)
C3A C -0.1319(3) 0.5157(2) 0.1168(2)
O1A O -0.1402(3) 0.5788(2) 0.0595(2)
N1A N -0.1733(3) 0.5274(2) 0.2039(2)
C4A C -0.2194(3) 0.6172(2) 0.2459(2)
C5A C -0.1087(3) 0.7082(2) 0.3053(2)
C6A C -0.1543(3) 0.7898(2) 0.3553(2)
C7A C -0.3044(3) 0.7853(2) 0.3489(2)
C8A C -0.4113(3) 0.6941(2) 0.2865(2)
C9A C -0.3717(3) 0.6105(2) 0.2341(2)
C25A C -0.4918(4) 0.5136(2) 0.1677(3)
H26A H -0.5896 0.5238 0.1680
H27A H -0.4685 0.4551 0.1989
H28A H -0.4943 0.5002 0.0943
H8A H -0.5161 0.6888 0.2800
C10A C -0.3424(3) 0.8737(2) 0.4177(2)
C11A C -0.5151(3) 0.8661(2) 0.3885(2)
C12A C -0.5965(3) 0.8858(2) 0.2766(2)
C13A C -0.5216(4) 0.9891(3) 0.2631(3)
C14A C -0.3526(4) 0.9965(2) 0.2881(2)
C15A C -0.2748(3) 0.9810(2) 0.4020(2)
C16A C -0.2738(3) 0.8624(2) 0.5361(2)
C17A C -0.1714(3) 0.9419(2) 0.6205(2)
C18A C -0.1081(3) 0.9278(2) 0.7259(2)
C19A C -0.1477(3) 0.8307(2) 0.7459(2)
N2A N -0.0766(2) 0.8108(2) 0.8516(2)
C22A C 0.0695(3) 0.8010(2) 0.8872(2)
O2A O 0.1525(2) 0.8149(2) 0.8351(2)
H2A H -0.1314 0.8049 0.8949
C20A C -0.2530(3) 0.7493(2) 0.6644(2)
C21A C -0.3146(3) 0.7673(2) 0.5617(2)
H20A H -0.3897 0.7124 0.5057
C27A C -0.2959(5) 0.6429(3) 0.6862(3)
H32A H -0.3675 0.5961 0.6210
H33A H -0.3421 0.6506 0.7403
H34A H -0.2067 0.6150 0.7125
C26A C 0.0013(4) 1.0171(2) 0.8142(2)
H29A H 0.0338 0.9952 0.8816
H30A H -0.0471 1.0747 0.8219
H31A H 0.0884 1.0384 0.7947
H19A H -0.1427 1.0086 0.6051
H17A H -0.2851 1.0356 0.4538
H18A H -0.1679 0.9861 0.4158
H15A H -0.3387 0.9437 0.2365
H16A H -0.3071 1.0634 0.2810
H13A H -0.5697 0.9965 0.1902
H14A H -0.5352 1.0451 0.3115
H11A H -0.5944 0.8304 0.2219
H12A H -0.7013 0.8855 0.2668
H9A H -0.5617 0.7981 0.3924
H10A H -0.5297 0.9165 0.4420
H7A H -0.0782 0.8521 0.3961
C24A C 0.0556(4) 0.7175(3) 0.3158(3)
H23A H 0.1140 0.7851 0.3586
H24A H 0.0634 0.7082 0.2452
H25A H 0.0943 0.6645 0.3509
H1A H -0.1716 0.4749 0.2391
H5A H -0.0269 0.3992 0.1637
H6A H 0.0086 0.4349 0.0677
H3A H -0.2732 0.3125 0.0425
H4A H -0.2311 0.3444 -0.0531
H21A H -0.2016 0.1719 -0.0471
H22A H -0.0426 0.2444 -0.0196
O3 O 0.2519(3) 0.2613(2) 1.0189(2)
C28 C 0.3637(4) 0.2292(3) 0.9853(3)
C29 C 0.4156(5) 0.1447(3) 1.0381(4)
H35 H 0.2235 0.3108 0.9898
H36 H 0.4479 0.2871 1.0021
H37 H 0.3214 0.2040 0.9079
H38 H 0.4933 0.1234 1.0138
H39 H 0.4565 0.1689 1.1156
H40 H 0.3309 0.0865 1.0181
O4 O -0.1980(7) 0.3465(3) 0.2956(4)
C30 C -0.2036(15) 0.3286(6) 0.3899(6)
C31 C -0.2405(14) 0.4151(11) 0.4461(8)
H41 H -0.1838 0.2923 0.2604
H42 H -0.1080 0.3166 0.4341
H43 H -0.2822 0.2681 0.3772
H44 H -0.2464 0.4047 0.5142
H45 H -0.1611 0.4751 0.4587
H46 H -0.3364 0.4263 0.4014
loop_
_geom_bond_atom_site_label_1
_geom_bond_atom_site_label_2
_geom_bond_site_symmetry_1
_geom_bond_site_symmetry_2
O1 C3 1_555 1_555
O2 C22 1_555 1_555
N1 C3 1_555 1_555
N2 C19 1_555 1_555
C1 C2 1_555 1_555
C2 C3 1_555 1_555
C4 N1 1_555 1_555
C5 C4 1_555 1_555
C6 C5 1_555 1_555
C7 C6 1_555 1_555
C8 C7 1_555 1_555
C9 C4 1_555 1_555
C10 C7 1_555 1_555
C11 C10 1_555 1_555
C12 C11 1_555 1_555
C13 C12 1_555 1_555
C14 C13 1_555 1_555
C15 C10 1_555 1_555
C16 C10 1_555 1_555
C17 C16 1_555 1_555
C18 C17 1_555 1_555
C19 C18 1_555 1_555
C20 C19 1_555 1_555
C21 C16 1_555 1_555
C22 N2 1_555 1_555
C23 C1 1_555 1_555
C24 C5 1_555 1_555
C25 C9 1_555 1_555
C26 C18 1_555 1_555
C27 C20 1_555 1_555
H1 N1 1_555 1_555
H2 N2 1_555 1_555
H3 C1 1_555 1_555
H4 C1 1_555 1_555
H5 C2 1_555 1_555
H6 C2 1_555 1_555
H7 C6 1_555 1_555
H8 C8 1_555 1_555
H9 C11 1_555 1_555
H10 C11 1_555 1_555
H11 C12 1_555 1_555
H12 C12 1_555 1_555
H13 C13 1_555 1_555
H14 C13 1_555 1_555
H15 C14 1_555 1_555
H16 C14 1_555 1_555
H17 C15 1_555 1_555
H18 C15 1_555 1_555
H19 C17 1_555 1_555
H20 C21 1_555 1_555
H21 C23 1_555 1_555
H22 C23 1_555 1_555
H23 C24 1_555 1_555
H24 C24 1_555 1_555
H25 C24 1_555 1_555
H26 C25 1_555 1_555
H27 C25 1_555 1_555
H28 C25 1_555 1_555
H29 C26 1_555 1_555
H30 C26 1_555 1_555
H31 C26 1_555 1_555
H32 C27 1_555 1_555
H33 C27 1_555 1_555
H34 C27 1_555 1_555
O3 C28 1_555 1_555
C28 C29 1_555 1_555
C29 H38 1_555 1_555
H35 O3 1_555 1_555
H36 C28 1_555 1_555
H37 C28 1_555 1_555
H39 C29 1_555 1_555
H40 C29 1_555 1_555
O4 C30 1_555 1_555
C30 C31 1_555 1_555
C31 H44 1_555 1_555
H41 O4 1_555 1_555
H42 C30 1_555 1_555
H43 C30 1_555 1_555
H45 C31 1_555 1_555
H46 C31 1_555 1_555
C23A C22 1_555 1_555
C1A C23A 1_555 1_555
C2A C1A 1_555 1_555
C3A C2A 1_555 1_555
O1A C3A 1_555 1_555
N1A C3A 1_555 1_555
C4A N1A 1_555 1_555
C5A C4A 1_555 1_555
C6A C5A 1_555 1_555
C7A C6A 1_555 1_555
C8A C7A 1_555 1_555
C9A C4A 1_555 1_555
C25A C9A 1_555 1_555
H26A C25A 1_555 1_555
H27A C25A 1_555 1_555
H28A C25A 1_555 1_555
H8A C8A 1_555 1_555
C10A C7A 1_555 1_555
C11A C10A 1_555 1_555
C12A C11A 1_555 1_555
C13A C12A 1_555 1_555
C14A C13A 1_555 1_555
C15A C10A 1_555 1_555
C16A C10A 1_555 1_555
C17A C16A 1_555 1_555
C18A C17A 1_555 1_555
C19A C18A 1_555 1_555
N2A C19A 1_555 1_555
C22A C23 1_555 1_555
O2A C22A 1_555 1_555
H2A N2A 1_555 1_555
C20A C19A 1_555 1_555
C21A C16A 1_555 1_555
H20A C21A 1_555 1_555
C27A C20A 1_555 1_555
H32A C27A 1_555 1_555
H33A C27A 1_555 1_555
H34A C27A 1_555 1_555
C26A C18A 1_555 1_555
H29A C26A 1_555 1_555
H30A C26A 1_555 1_555
H31A C26A 1_555 1_555
H19A C17A 1_555 1_555
H17A C15A 1_555 1_555
H18A C15A 1_555 1_555
H15A C14A 1_555 1_555
H16A C14A 1_555 1_555
H13A C13A 1_555 1_555
H14A C13A 1_555 1_555
H11A C12A 1_555 1_555
H12A C12A 1_555 1_555
H9A C11A 1_555 1_555
H10A C11A 1_555 1_555
H7A C6A 1_555 1_555
C24A C5A 1_555 1_555
H23A C24A 1_555 1_555
H24A C24A 1_555 1_555
H25A C24A 1_555 1_555
H1A N1A 1_555 1_555
H5A C2A 1_555 1_555
H6A C2A 1_555 1_555
H3A C1A 1_555 1_555
H4A C1A 1_555 1_555
H21A C23A 1_555 1_555
H22A C23A 1_555 1_555
C8 C9 1_555 1_555
C14 C15 1_555 1_555
C20 C21 1_555 1_555
C8A C9A 1_555 1_555
C14A C15A 1_555 1_555
N2A C22A 1_555 1_555
C20A C21A 1_555 1_555

#END
