
#######################################################################
#
#                 Cambridge Crystallographic Data Centre
#                                CCDC 
#
#######################################################################
#
# If this CIF has been generated from an entry in the Cambridge 
# Structural Database, then it will include bibliographic, chemical, 
# crystal, experimental, refinement or atomic coordinate data resulting 
# from the CCDC's data processing and validation procedures.
#
#######################################################################

data_RUGFAA
_chemical_formula_moiety         'C54 H68 N4 O4,6(C2 H6 O1 S1)'
_chemical_name_systematic        
"Dicyclohexyl-1,1'-dispiro-10,20-(9,19-di(1,4)-2,6-dimethylbenzena-1,11-di(1,4)3,5-dimethylbenzena-3,7,13,17-tetraoxo-2,8,12,18-tetra-azacycloicosaphane) bis(dimethylsulfoxide) clathrate dimethylsulfoxide solvate"
_symmetry_cell_setting           monoclinic
_symmetry_space_group_name_H-M   'P 21/n'
_symmetry_Int_Tables_number      14
_space_group_name_Hall           '-P 2yn'
loop_
_symmetry_equiv_pos_site_id
_symmetry_equiv_pos_as_xyz
1 x,y,z
2 1/2-x,1/2+y,1/2-z
3 -x,-y,-z
4 1/2+x,1/2-y,1/2+z
_cell_length_a                   14.081(2)
_cell_length_b                   13.159(3)
_cell_length_c                   19.185(3)
_cell_angle_alpha                90
_cell_angle_beta                 93.70(1)
_cell_angle_gamma                90
_cell_volume                     3547.42
_exptl_crystal_colour            colorless
_exptl_crystal_description       plates
_cell_formula_units_Z            2
loop_
_atom_site_label
_atom_site_type_symbol
_atom_site_fract_x
_atom_site_fract_y
_atom_site_fract_z
O1 O 0.7509(2) 0.4431(2) 0.2485(2)
O2 O 0.1674(2) 0.5552(2) 0.4820(2)
N1 N 0.6407(2) 0.4511(2) 0.3298(2)
N2 N 0.1125(2) 0.7087(2) 0.4454(2)
C1 C 0.8781(3) 0.4050(3) 0.3795(2)
C2 C 0.7833(3) 0.3550(3) 0.3572(2)
C3 C 0.7235(3) 0.4197(3) 0.3063(2)
C4 C 0.5699(3) 0.5111(3) 0.2928(2)
C5 C 0.4826(3) 0.4641(3) 0.2727(2)
C6 C 0.4095(3) 0.5244(3) 0.2430(2)
C7 C 0.4193(3) 0.6278(3) 0.2318(2)
C8 C 0.5082(3) 0.6707(3) 0.2502(2)
C9 C 0.5834(3) 0.6143(3) 0.2805(2)
C10 C 0.3339(3) 0.6904(3) 0.2020(2)
C11 C 0.2864(3) 0.6335(3) 0.1382(2)
C12 C 0.2048(3) 0.6906(3) 0.1005(2)
C13 C 0.2359(4) 0.7947(3) 0.0774(2)
C14 C 0.2818(3) 0.8536(3) 0.1381(2)
C15 C 0.3638(3) 0.7955(3) 0.1748(2)
C16 C 0.2671(2) 0.7018(3) 0.2625(2)
C17 C 0.2835(3) 0.7772(3) 0.3133(2)
C18 C 0.2310(3) 0.7826(3) 0.3727(2)
C19 C 0.1600(3) 0.7098(3) 0.3816(2)
C20 C 0.1382(3) 0.6380(3) 0.3297(2)
C21 C 0.1924(2) 0.6337(3) 0.2721(2)
C22 C 0.1212(3) 0.6328(3) 0.4921(2)
C23 C 0.9301(3) 0.3533(3) 0.4413(2)
C24 C 0.4684(3) 0.3527(3) 0.2846(2)
C25 C 0.6761(3) 0.6645(3) 0.3029(3)
C26 C 0.2504(3) 0.8654(3) 0.4262(2)
C27 C 0.0559(3) 0.5661(3) 0.3355(2)
H1 H 0.6283 0.4327 0.3735
H2 H 0.0750 0.7617 0.4548
H3 H 0.8668 0.4746 0.3914
H4 H 0.9178 0.4044 0.3407
H5 H 0.7484 0.3433 0.3979
H6 H 0.7950 0.2903 0.3363
H7 H 0.3500 0.4923 0.2290
H8 H 0.5177 0.7418 0.2418
H9 H 0.2626 0.5698 0.1541
H10 H 0.3337 0.6192 0.1057
H11 H 0.1541 0.6984 0.1312
H12 H 0.1807 0.6525 0.0605
H13 H 0.1821 0.8312 0.0568
H14 H 0.2812 0.7868 0.0424
H15 H 0.2348 0.8678 0.1708
H16 H 0.3050 0.9172 0.1215
H17 H 0.4124 0.7859 0.1426
H18 H 0.3907 0.8346 0.2135
H19 H 0.3323 0.8267 0.3072
H20 H 0.1789 0.5821 0.2375
H21 H 0.9932 0.3808 0.4481
H22 H 0.9356 0.2820 0.4317
H23 H 0.5254 0.3231 0.3058
H24 H 0.4170 0.3426 0.3144
H25 H 0.4531 0.3209 0.2402
H26 H 0.7197 0.6145 0.3224
H27 H 0.7023 0.6957 0.2632
H28 H 0.6654 0.7154 0.3373
H29 H 0.2082 0.8579 0.4632
H30 H 0.3151 0.8604 0.4449
H31 H 0.2404 0.9306 0.4044
H32 H 0.0255 0.5788 0.3780
H33 H 0.0109 0.5762 0.2964
H34 H 0.0788 0.4974 0.3354
C23B C 0.0699(3) 0.6467(3) 0.5587(2)
C1B C 0.1219(3) 0.5950(3) 0.6205(2)
C2B C 0.2167(3) 0.6450(3) 0.6428(2)
C3B C 0.2765(3) 0.5803(3) 0.6937(2)
O1B O 0.2491(2) 0.5569(2) 0.7515(2)
N1B N 0.3593(2) 0.5489(2) 0.6702(2)
C4B C 0.4301(3) 0.4889(3) 0.7072(2)
C5B C 0.5174(3) 0.5359(3) 0.7273(2)
C6B C 0.5905(3) 0.4756(3) 0.7570(2)
C7B C 0.5807(3) 0.3722(3) 0.7682(2)
C8B C 0.4918(3) 0.3293(3) 0.7498(2)
C9B C 0.4166(3) 0.3857(3) 0.7195(2)
C25B C 0.3239(3) 0.3355(3) 0.6971(3)
H26B H 0.2803 0.3855 0.6776
H27B H 0.2977 0.3043 0.7368
H28B H 0.3346 0.2846 0.6627
H8B H 0.4823 0.2582 0.7582
C10B C 0.6661(3) 0.3096(3) 0.7980(2)
C11B C 0.7136(3) 0.3665(3) 0.8618(2)
C12B C 0.7952(3) 0.3094(3) 0.8995(2)
C13B C 0.7641(4) 0.2053(3) 0.9226(2)
C14B C 0.7182(3) 0.1464(3) 0.8619(2)
C15B C 0.6362(3) 0.2045(3) 0.8252(2)
C16B C 0.7329(2) 0.2982(3) 0.7375(2)
C17B C 0.7165(3) 0.2228(3) 0.6867(2)
C18B C 0.7690(3) 0.2174(3) 0.6273(2)
C19B C 0.8400(3) 0.2902(3) 0.6184(2)
N2B N 0.8875(2) 0.2913(2) 0.5546(2)
C22B C 0.8788(3) 0.3672(3) 0.5079(2)
O2B O 0.8326(2) 0.4448(2) 0.5180(2)
H2B H 0.9250 0.2383 0.5452
C20B C 0.8618(3) 0.3620(3) 0.6703(2)
C21B C 0.8076(2) 0.3663(3) 0.7279(2)
H20B H 0.8211 0.4179 0.7625
C27B C 0.9441(3) 0.4339(3) 0.6645(2)
H32B H 0.9745 0.4212 0.6220
H33B H 0.9891 0.4238 0.7036
H34B H 0.9212 0.5026 0.6646
C26B C 0.7496(3) 0.1346(3) 0.5738(2)
H29B H 0.7918 0.1421 0.5368
H30B H 0.6849 0.1396 0.5551
H31B H 0.7596 0.0694 0.5956
H19B H 0.6677 0.1733 0.6928
H17B H 0.5876 0.2141 0.8574
H18B H 0.6093 0.1654 0.7865
H15B H 0.7652 0.1322 0.8292
H16B H 0.6950 0.0828 0.8785
H13B H 0.8179 0.1688 0.9432
H14B H 0.7188 0.2132 0.9576
H11B H 0.8459 0.3016 0.8688
H12B H 0.8193 0.3475 0.9395
H9B H 0.7374 0.4302 0.8459
H10B H 0.6663 0.3808 0.8943
H7B H 0.6500 0.5077 0.7710
C24B C 0.5316(3) 0.6473(3) 0.7154(2)
H23B H 0.4746 0.6769 0.6942
H24B H 0.5830 0.6574 0.6856
H25B H 0.5469 0.6791 0.7598
H1B H 0.3717 0.5673 0.6265
H5B H 0.2516 0.6567 0.6021
H6B H 0.2050 0.7097 0.6637
H3B H 0.1332 0.5254 0.6086
H4B H 0.0822 0.5956 0.6593
H21B H 0.0068 0.6192 0.5519
H22B H 0.0644 0.7180 0.5683
S1 S 0.5975(1) 0.3379(1) 0.5169(1)
O3 O 0.5599(2) 0.3790(3) 0.4481(2)
C28 C 0.6208(3) 0.4396(3) 0.5743(3)
C29 C 0.4944(6) 0.2900(7) 0.5544(3)
H35 H 0.6772 0.4741 0.5617
H36 H 0.5680 0.4859 0.5711
H37 H 0.6300 0.4149 0.6214
H38 H 0.4711 0.2317 0.5286
H39 H 0.5088 0.2713 0.6023
H40 H 0.4468 0.3423 0.5520
S2 S -0.1027(1) 0.8981(1) 0.4471(1)
O4 O -0.0107(3) 0.8694(3) 0.4810(2)
C30 C -0.0869(5) 1.0051(4) 0.3940(3)
C31 C -0.1236(6) 0.8055(5) 0.3793(4)
H41 H -0.0751 1.0638 0.4230
H42 H -0.0338 0.9942 0.3660
H43 H -0.1434 1.0157 0.3642
H44 H -0.1336 0.7400 0.3996
H45 H -0.1787 0.8243 0.3501
H46 H -0.0691 0.8028 0.3518
S3 S 0.9720(2) 0.5209(3) 0.1127(2)
O5 O 1.0297(5) 0.4510(6) 0.1589(5)
C32 C 0.8596(7) 0.4557(7) 0.0881(6)
C33 C 0.9150(8) 0.6059(6) 0.1658(6)
H47 H 0.8708 0.4006 0.0568
H48 H 0.8344 0.4294 0.1298
H49 H 0.8149 0.5023 0.0658
H50 H 0.9611 0.6529 0.1859
H51 H 0.8668 0.6424 0.1385
H52 H 0.8863 0.5695 0.2024
S4? S -0.0572(8) 0.8986(7) 0.3988(5)
S5? S 0.9358(7) 0.4730(6) 0.1462(6)
H53? H -0.1086 1.0181 0.3464
H54? H -0.1388 1.0139 0.4236
H55? H -0.0367 1.0515 0.4079
H56? H -0.1498 0.8161 0.3324
H57? H -0.0897 0.7422 0.3818
H58? H -0.1741 0.8036 0.4106
H59? H 0.8612 0.3866 0.0721
H60? H 0.7994 0.4690 0.1071
H61? H 0.8680 0.5008 0.0497
H62? H 0.9610 0.6285 0.2015
H63? H 0.9207 0.6456 0.1244
H64? H 0.8521 0.6138 0.1818
loop_
_geom_bond_atom_site_label_1
_geom_bond_atom_site_label_2
_geom_bond_site_symmetry_1
_geom_bond_site_symmetry_2
O1 C3 1_555 1_555
O2 C22 1_555 1_555
N1 C3 1_555 1_555
N2 C19 1_555 1_555
C1 C2 1_555 1_555
C2 C3 1_555 1_555
C4 N1 1_555 1_555
C5 C4 1_555 1_555
C6 C5 1_555 1_555
C7 C6 1_555 1_555
C8 C7 1_555 1_555
C9 C4 1_555 1_555
C10 C7 1_555 1_555
C11 C10 1_555 1_555
C12 C11 1_555 1_555
C13 C12 1_555 1_555
C14 C13 1_555 1_555
C15 C10 1_555 1_555
C16 C10 1_555 1_555
C17 C16 1_555 1_555
C18 C17 1_555 1_555
C19 C18 1_555 1_555
C20 C19 1_555 1_555
C21 C16 1_555 1_555
C22 N2 1_555 1_555
C23 C1 1_555 1_555
C24 C5 1_555 1_555
C25 C9 1_555 1_555
C26 C18 1_555 1_555
C27 C20 1_555 1_555
H1 N1 1_555 1_555
H2 N2 1_555 1_555
H3 C1 1_555 1_555
H4 C1 1_555 1_555
H5 C2 1_555 1_555
H6 C2 1_555 1_555
H7 C6 1_555 1_555
H8 C8 1_555 1_555
H9 C11 1_555 1_555
H10 C11 1_555 1_555
H11 C12 1_555 1_555
H12 C12 1_555 1_555
H13 C13 1_555 1_555
H14 C13 1_555 1_555
H15 C14 1_555 1_555
H16 C14 1_555 1_555
H17 C15 1_555 1_555
H18 C15 1_555 1_555
H19 C17 1_555 1_555
H20 C21 1_555 1_555
H21 C23 1_555 1_555
H22 C23 1_555 1_555
H23 C24 1_555 1_555
H24 C24 1_555 1_555
H25 C24 1_555 1_555
H26 C25 1_555 1_555
H27 C25 1_555 1_555
H28 C25 1_555 1_555
H29 C26 1_555 1_555
H30 C26 1_555 1_555
H31 C26 1_555 1_555
H32 C27 1_555 1_555
H33 C27 1_555 1_555
H34 C27 1_555 1_555
S1 O3 1_555 1_555
C28 S1 1_555 1_555
C29 S1 1_555 1_555
H35 C28 1_555 1_555
H36 C28 1_555 1_555
H37 C28 1_555 1_555
H38 C29 1_555 1_555
H39 C29 1_555 1_555
H40 C29 1_555 1_555
S2 O4 1_555 1_555
C30 S2 1_555 1_555
C31 S2 1_555 1_555
H41 C30 1_555 1_555
H42 C30 1_555 1_555
H43 C30 1_555 1_555
H44 C31 1_555 1_555
H45 C31 1_555 1_555
H46 C31 1_555 1_555
S3 O5 1_555 1_555
C32 S3 1_555 1_555
C33 S3 1_555 1_555
H47 C32 1_555 1_555
H48 C32 1_555 1_555
H49 C32 1_555 1_555
H50 C33 1_555 1_555
H51 C33 1_555 1_555
H52 C33 1_555 1_555
C23B C22 1_555 1_555
C1B C23B 1_555 1_555
C2B C1B 1_555 1_555
C3B C2B 1_555 1_555
O1B C3B 1_555 1_555
N1B C3B 1_555 1_555
C4B N1B 1_555 1_555
C5B C4B 1_555 1_555
C6B C5B 1_555 1_555
C7B C6B 1_555 1_555
C8B C7B 1_555 1_555
C9B C4B 1_555 1_555
C25B C9B 1_555 1_555
H26B C25B 1_555 1_555
H27B C25B 1_555 1_555
H28B C25B 1_555 1_555
H8B C8B 1_555 1_555
C10B C7B 1_555 1_555
C11B C10B 1_555 1_555
C12B C11B 1_555 1_555
C13B C12B 1_555 1_555
C14B C13B 1_555 1_555
C15B C10B 1_555 1_555
C16B C10B 1_555 1_555
C17B C16B 1_555 1_555
C18B C17B 1_555 1_555
C19B C18B 1_555 1_555
N2B C19B 1_555 1_555
C22B C23 1_555 1_555
O2B C22B 1_555 1_555
H2B N2B 1_555 1_555
C20B C19B 1_555 1_555
C21B C16B 1_555 1_555
H20B C21B 1_555 1_555
C27B C20B 1_555 1_555
H32B C27B 1_555 1_555
H33B C27B 1_555 1_555
H34B C27B 1_555 1_555
C26B C18B 1_555 1_555
H29B C26B 1_555 1_555
H30B C26B 1_555 1_555
H31B C26B 1_555 1_555
H19B C17B 1_555 1_555
H17B C15B 1_555 1_555
H18B C15B 1_555 1_555
H15B C14B 1_555 1_555
H16B C14B 1_555 1_555
H13B C13B 1_555 1_555
H14B C13B 1_555 1_555
H11B C12B 1_555 1_555
H12B C12B 1_555 1_555
H9B C11B 1_555 1_555
H10B C11B 1_555 1_555
H7B C6B 1_555 1_555
C24B C5B 1_555 1_555
H23B C24B 1_555 1_555
H24B C24B 1_555 1_555
H25B C24B 1_555 1_555
H1B N1B 1_555 1_555
H5B C2B 1_555 1_555
H6B C2B 1_555 1_555
H3B C1B 1_555 1_555
H4B C1B 1_555 1_555
H21B C23B 1_555 1_555
H22B C23B 1_555 1_555
C8 C9 1_555 1_555
C14 C15 1_555 1_555
C20 C21 1_555 1_555
C8B C9B 1_555 1_555
C14B C15B 1_555 1_555
N2B C22B 1_555 1_555
C20B C21B 1_555 1_555

#END
