
#######################################################################
#
#                 Cambridge Crystallographic Data Centre
#                                CCDC 
#
#######################################################################
#
# If this CIF has been generated from an entry in the Cambridge 
# Structural Database, then it will include bibliographic, chemical, 
# crystal, experimental, refinement or atomic coordinate data resulting 
# from the CCDC's data processing and validation procedures.
#
#######################################################################

data_RUGJUZ
_chemical_formula_moiety         'C4 H4 N4 O4'
_chemical_name_systematic        1-Methyl-4,5-dinitro-1H-imidazole
_symmetry_cell_setting           orthorhombic
_symmetry_space_group_name_H-M   'P n a 21'
_symmetry_Int_Tables_number      33
_space_group_name_Hall           'P 2c -2n'
loop_
_symmetry_equiv_pos_site_id
_symmetry_equiv_pos_as_xyz
1 x,y,z
2 -x,-y,1/2+z
3 1/2-x,1/2+y,1/2+z
4 1/2+x,1/2-y,z
_cell_length_a                   8.412(2)
_cell_length_b                   12.646(3)
_cell_length_c                   6.563(1)
_cell_angle_alpha                90
_cell_angle_beta                 90
_cell_angle_gamma                90
_cell_volume                     698.16
_exptl_crystal_colour            colorless
_exptl_crystal_description       block
_cell_formula_units_Z            4
_exptl_crystal_recrystallization_method methanol
loop_
_atom_site_label
_atom_site_type_symbol
_atom_site_fract_x
_atom_site_fract_y
_atom_site_fract_z
C1 C 0.2730(4) 0.7411(2) 0.2853(6)
H1 H 0.3251 0.7751 0.1789
C2 C 0.1370(3) 0.7145(2) 0.5486(5)
C3 C 0.1843(3) 0.61741(19) 0.4808(5)
C4 C 0.3530(4) 0.5610(3) 0.1731(6)
H2 H 0.3955 0.5988 0.0585
H3 H 0.2780 0.5092 0.1262
H4 H 0.4377 0.5264 0.2447
N1 N 0.2728(2) 0.63562(17) 0.3106(4)
N2 N 0.1915(4) 0.79129(19) 0.4271(5)
N3 N 0.1551(3) 0.51403(18) 0.5576(4)
N4 N 0.0529(3) 0.7419(2) 0.7316(5)
O1 O 0.2496(3) 0.44510(19) 0.5115(6)
O2 O 0.0370(3) 0.5008(2) 0.6601(5)
O3 O 0.0716(4) 0.6874(3) 0.8832(5)
O4 O -0.0300(3) 0.8211(2) 0.7273(6)
loop_
_geom_bond_atom_site_label_1
_geom_bond_atom_site_label_2
_geom_bond_site_symmetry_1
_geom_bond_site_symmetry_2
C1 H1 1_555 1_555
C2 C3 1_555 1_555
C3 N1 1_555 1_555
C4 H2 1_555 1_555
H3 C4 1_555 1_555
H4 C4 1_555 1_555
N1 C1 1_555 1_555
N2 C1 1_555 1_555
N3 C3 1_555 1_555
N4 C2 1_555 1_555
O1 N3 1_555 1_555
O2 N3 1_555 1_555
O3 N4 1_555 1_555
O4 N4 1_555 1_555
C2 N2 1_555 1_555
C4 N1 1_555 1_555

#END
