
#######################################################################
#
#                 Cambridge Crystallographic Data Centre
#                                CCDC 
#
#######################################################################
#
# If this CIF has been generated from an entry in the Cambridge 
# Structural Database, then it will include bibliographic, chemical, 
# crystal, experimental, refinement or atomic coordinate data resulting 
# from the CCDC's data processing and validation procedures.
#
#######################################################################

data_RUGKEK
_chemical_formula_moiety         'C8 H4 F1 N3 O3'
_chemical_name_systematic        7-Fluoro-6-nitroquinazolin-4(3H)-one
_symmetry_cell_setting           triclinic
_symmetry_space_group_name_H-M   'P -1'
_symmetry_Int_Tables_number      2
_space_group_name_Hall           '-P 1'
loop_
_symmetry_equiv_pos_site_id
_symmetry_equiv_pos_as_xyz
1 x,y,z
2 -x,-y,-z
_cell_length_a                   5.6360(11)
_cell_length_b                   8.409(2)
_cell_length_c                   8.674(2)
_cell_angle_alpha                79.38(3)
_cell_angle_beta                 89.23(3)
_cell_angle_gamma                83.83(3)
_cell_volume                     401.697
_exptl_crystal_colour            colorless
_exptl_crystal_description       block
_cell_formula_units_Z            2
_exptl_crystal_recrystallization_method 'acetic acid'
loop_
_atom_site_label
_atom_site_type_symbol
_atom_site_fract_x
_atom_site_fract_y
_atom_site_fract_z
F1 F 0.1138(3) 0.4301(2) -0.33786(16)
N1 N 0.1677(3) 0.1637(2) 0.3773(2)
H1 H 0.1629 0.1209 0.4752
O1 O -0.1399(3) 0.0293(2) 0.32253(18)
C1 C 0.3360(4) 0.2651(3) 0.3291(3)
H2 H 0.4402 0.2828 0.4049
N2 N 0.3644(3) 0.3390(2) 0.1878(2)
C2 C 0.0044(4) 0.1261(3) 0.2775(2)
O2 O -0.2795(5) 0.3272(3) -0.3951(2)
C3 C 0.0261(4) 0.2086(2) 0.1159(2)
N3 N -0.2740(4) 0.2376(3) -0.2685(2)
O3 O -0.4036(3) 0.1313(2) -0.2327(2)
C4 C -0.1305(4) 0.1862(3) 0.0011(3)
H3 H -0.2523 0.1200 0.0276
C5 C -0.1046(4) 0.2618(3) -0.1509(3)
C6 C 0.0818(4) 0.3590(3) -0.1903(2)
C7 C 0.2349(4) 0.3832(3) -0.0789(3)
H4 H 0.3567 0.4491 -0.1068
C8 C 0.2091(4) 0.3091(2) 0.0771(2)
loop_
_geom_bond_atom_site_label_1
_geom_bond_atom_site_label_2
_geom_bond_site_symmetry_1
_geom_bond_site_symmetry_2
F1 C6 1_555 1_555
N1 H1 1_555 1_555
O1 C2 1_555 1_555
C1 N1 1_555 1_555
H2 C1 1_555 1_555
N2 C1 1_555 1_555
C2 N1 1_555 1_555
O2 N3 1_555 1_555
C3 C2 1_555 1_555
N3 O3 1_555 1_555
C4 C3 1_555 1_555
H3 C4 1_555 1_555
C5 N3 1_555 1_555
C6 C5 1_555 1_555
C7 C6 1_555 1_555
H4 C7 1_555 1_555
C8 N2 1_555 1_555
C3 C8 1_555 1_555
C4 C5 1_555 1_555
C7 C8 1_555 1_555

#END
