
#######################################################################
#
#                 Cambridge Crystallographic Data Centre
#                                CCDC 
#
#######################################################################
#
# If this CIF has been generated from an entry in the Cambridge 
# Structural Database, then it will include bibliographic, chemical, 
# crystal, experimental, refinement or atomic coordinate data resulting 
# from the CCDC's data processing and validation procedures.
#
#######################################################################

data_RUGLIP
_chemical_name_common            5'-Bromo-1,1':3',1''-terphenyl
_chemical_formula_moiety         'C18 H13 Br1'
_chemical_name_systematic        1-Bromo-3,5-diphenylbenzene
_symmetry_cell_setting           monoclinic
_symmetry_space_group_name_H-M   'P 21'
_symmetry_Int_Tables_number      4
_space_group_name_Hall           'P 2yb'
loop_
_symmetry_equiv_pos_site_id
_symmetry_equiv_pos_as_xyz
1 x,y,z
2 -x,1/2+y,-z
_cell_length_a                   11.0782(12)
_cell_length_b                   7.7495(8)
_cell_length_c                   16.7782(17)
_cell_angle_alpha                90
_cell_angle_beta                 107.441(1)
_cell_angle_gamma                90
_cell_volume                     1374.2
_exptl_crystal_colour            colorless
_exptl_crystal_description       block
_cell_formula_units_Z            4
_exptl_crystal_recrystallization_method dichloromethane
loop_
_atom_site_label
_atom_site_type_symbol
_atom_site_fract_x
_atom_site_fract_y
_atom_site_fract_z
Br1 Br 0.21282(3) 0.79871(5) 0.29748(2)
C19 C 0.3980(3) 0.7771(4) 0.03861(19)
C20 C 0.4802(3) 0.8546(4) 0.0009(2)
H14 H 0.5522 0.9104 0.0338
C21 C 0.4564(3) 0.8499(4) -0.0852(2)
H15 H 0.5125 0.9019 -0.1094
C22 C 0.3502(3) 0.7685(5) -0.1344(2)
H16 H 0.3344 0.7654 -0.1920
C23 C 0.2669(3) 0.6914(4) -0.0988(2)
H17 H 0.1948 0.6369 -0.1324
C24 C 0.2907(3) 0.6950(4) -0.0130(2)
H18 H 0.2344 0.6420 0.0107
C25 C 0.4238(3) 0.7824(4) 0.13106(18)
C26 C 0.3245(3) 0.7809(5) 0.16629(19)
H19 H 0.2412 0.7743 0.1321
C27 C 0.3501(3) 0.7894(5) 0.25135(19)
C28 C 0.4727(3) 0.7964(5) 0.30482(18)
H20 H 0.4875 0.8016 0.3623
C29 C 0.5735(3) 0.7955(5) 0.27097(18)
C30 C 0.5467(3) 0.7882(5) 0.18430(18)
H21 H 0.6135 0.7871 0.1614
C31 C 0.7054(3) 0.8081(5) 0.32689(19)
C32 C 0.7968(3) 0.9055(5) 0.3053(2)
H22 H 0.7755 0.9609 0.2538
C33 C 0.9172(3) 0.9211(6) 0.3584(3)
H23 H 0.9761 0.9888 0.3433
C34 C 0.9512(4) 0.8367(6) 0.4342(3)
H24 H 1.0332 0.8467 0.4701
C35 C 0.8638(4) 0.7381(6) 0.4565(3)
H25 H 0.8865 0.6809 0.5075
C36 C 0.7424(4) 0.7236(5) 0.4036(2)
H26 H 0.6841 0.6561 0.4194
Br2 Br -0.04494(4) 0.42942(6) 0.31148(2)
C1 C 0.4329(3) 0.2381(4) 0.3577(2)
C2 C 0.4454(3) 0.1460(5) 0.4312(2)
H1 H 0.3732 0.1084 0.4434
C3 C 0.5632(4) 0.1100(5) 0.4859(2)
H2 H 0.5697 0.0484 0.5346
C4 C 0.6707(4) 0.1645(6) 0.4690(3)
H3 H 0.7498 0.1392 0.5060
C5 C 0.6613(4) 0.2561(5) 0.3976(2)
H4 H 0.7342 0.2928 0.3860
C6 C 0.5430(3) 0.2944(6) 0.3424(2)
H5 H 0.5375 0.3587 0.2947
C7 C 0.3069(3) 0.2758(5) 0.29839(19)
C8 C 0.2064(3) 0.3218(5) 0.3282(2)
H6 H 0.2173 0.3294 0.3852
C9 C 0.0902(3) 0.3555(4) 0.2707(2)
C10 C 0.0688(3) 0.3457(4) 0.1861(2)
H7 H -0.0110 0.3693 0.1496
C11 C 0.1686(3) 0.2998(5) 0.15494(18)
C12 C 0.2857(3) 0.2664(4) 0.21181(19)
H8 H 0.3527 0.2366 0.1919
C13 C 0.1478(3) 0.2884(5) 0.06339(18)
C14 C 0.2206(3) 0.1799(4) 0.0303(2)
H9 H 0.2843 0.1142 0.0661
C15 C 0.1998(3) 0.1679(5) -0.0555(2)
H10 H 0.2501 0.0958 -0.0765
C16 C 0.1048(3) 0.2626(5) -0.1094(2)
H11 H 0.0896 0.2526 -0.1668
C17 C 0.0325(3) 0.3720(5) -0.0781(2)
H12 H -0.0309 0.4375 -0.1143
C18 C 0.0537(3) 0.3850(4) 0.0076(2)
H13 H 0.0041 0.4595 0.0281
loop_
_geom_bond_atom_site_label_1
_geom_bond_atom_site_label_2
_geom_bond_site_symmetry_1
_geom_bond_site_symmetry_2
Br1 C27 1_555 1_555
Br2 C9 1_555 1_555
C1 C2 1_555 1_555
C2 H1 1_555 1_555
C3 C2 1_555 1_555
H2 C3 1_555 1_555
C4 C3 1_555 1_555
H3 C4 1_555 1_555
C5 C4 1_555 1_555
H4 C5 1_555 1_555
C6 C1 1_555 1_555
H5 C6 1_555 1_555
C7 C1 1_555 1_555
C8 C7 1_555 1_555
H6 C8 1_555 1_555
C9 C8 1_555 1_555
C10 C9 1_555 1_555
H7 C10 1_555 1_555
C11 C10 1_555 1_555
C12 C7 1_555 1_555
H8 C12 1_555 1_555
C13 C11 1_555 1_555
C14 C13 1_555 1_555
H9 C14 1_555 1_555
C15 C14 1_555 1_555
H10 C15 1_555 1_555
C16 C15 1_555 1_555
H11 C16 1_555 1_555
C17 C16 1_555 1_555
H12 C17 1_555 1_555
C18 C13 1_555 1_555
H13 C18 1_555 1_555
C19 C20 1_555 1_555
C20 H14 1_555 1_555
C21 C20 1_555 1_555
H15 C21 1_555 1_555
C22 C21 1_555 1_555
H16 C22 1_555 1_555
C23 C22 1_555 1_555
H17 C23 1_555 1_555
C24 C19 1_555 1_555
H18 C24 1_555 1_555
C25 C19 1_555 1_555
C26 C25 1_555 1_555
H19 C26 1_555 1_555
C27 C26 1_555 1_555
C28 C27 1_555 1_555
H20 C28 1_555 1_555
C29 C28 1_555 1_555
C30 C25 1_555 1_555
H21 C30 1_555 1_555
C31 C29 1_555 1_555
C32 C31 1_555 1_555
H22 C32 1_555 1_555
C33 C32 1_555 1_555
H23 C33 1_555 1_555
C34 C33 1_555 1_555
H24 C34 1_555 1_555
C35 C34 1_555 1_555
H25 C35 1_555 1_555
C36 C31 1_555 1_555
H26 C36 1_555 1_555
C5 C6 1_555 1_555
C11 C12 1_555 1_555
C17 C18 1_555 1_555
C23 C24 1_555 1_555
C29 C30 1_555 1_555
C35 C36 1_555 1_555

#END
