
#######################################################################
#
#                 Cambridge Crystallographic Data Centre
#                                CCDC 
#
#######################################################################
#
# If this CIF has been generated from an entry in the Cambridge 
# Structural Database, then it will include bibliographic, chemical, 
# crystal, experimental, refinement or atomic coordinate data resulting 
# from the CCDC's data processing and validation procedures.
#
#######################################################################

data_RUGRIV
_chemical_name_common            N'-Cinnamoylbenzohydrazide
_chemical_formula_moiety         'C16 H14 N2 O2'
_chemical_name_systematic        N'-[(2E)-3-Phenylprop-2-enoyl]benzohydrazide
_symmetry_cell_setting           monoclinic
_symmetry_space_group_name_H-M   'P 21/c'
_symmetry_Int_Tables_number      14
_space_group_name_Hall           '-P 2ybc'
loop_
_symmetry_equiv_pos_site_id
_symmetry_equiv_pos_as_xyz
1 x,y,z
2 -x,1/2+y,1/2-z
3 -x,-y,-z
4 x,1/2-y,1/2+z
_cell_length_a                   15.9696(7)
_cell_length_b                   10.4563(5)
_cell_length_c                   8.3162(2)
_cell_angle_alpha                90
_cell_angle_beta                 102.072(3)
_cell_angle_gamma                90
_cell_volume                     1357.95
_exptl_crystal_colour            'light red'
_exptl_crystal_description       block
_chemical_melting_point          '482-483 K'
_cell_formula_units_Z            4
_exptl_crystal_recrystallization_method ethanol
loop_
_atom_site_label
_atom_site_type_symbol
_atom_site_fract_x
_atom_site_fract_y
_atom_site_fract_z
O1 O 0.20786(9) 0.62832(14) 0.42536(16)
O2 O 0.36866(9) 0.61547(14) 0.11169(15)
N1 N 0.25365(10) 0.74825(18) 0.2337(2)
H1 H 0.2442(14) 0.779(2) 0.132(3)
N2 N 0.33940(11) 0.73943(18) 0.3148(2)
H2 H 0.3532(14) 0.774(2) 0.410(3)
C1 C -0.04530(13) 0.6129(2) 0.1175(2)
C2 C -0.07212(14) 0.6812(2) -0.0287(3)
H3 H -0.0322 0.7330 -0.0692
C3 C -0.15601(14) 0.6745(2) -0.1150(3)
H4 H -0.1733 0.7219 -0.2138
C4 C -0.21495(13) 0.5991(2) -0.0583(3)
H5 H -0.2725 0.5948 -0.1177
C5 C -0.18951(14) 0.5302(2) 0.0851(3)
H6 H -0.2297 0.4782 0.1244
C6 C -0.10529(13) 0.5366(2) 0.1725(2)
H7 H -0.0884 0.4885 0.2709
C7 C 0.04268(13) 0.6196(2) 0.2143(2)
H8 H 0.0550 0.5693 0.3115
C8 C 0.10735(12) 0.6886(2) 0.1809(2)
H9 H 0.0983 0.7412 0.0857
C9 C 0.19296(12) 0.6835(2) 0.2911(2)
C10 C 0.39296(12) 0.66689(19) 0.2472(2)
C11 C 0.48306(12) 0.65355(19) 0.3422(2)
C12 C 0.52237(13) 0.7406(2) 0.4602(2)
H10 H 0.4913 0.8126 0.4859
C13 C 0.60701(13) 0.7227(2) 0.5409(2)
H11 H 0.6338 0.7826 0.6213
C14 C 0.65253(14) 0.6170(2) 0.5038(2)
H12 H 0.7105 0.6050 0.5582
C15 C 0.61300(13) 0.5296(2) 0.3873(2)
H13 H 0.6438 0.4569 0.3631
C16 C 0.52891(13) 0.5473(2) 0.3060(2)
H14 H 0.5024 0.4873 0.2255
loop_
_geom_bond_atom_site_label_1
_geom_bond_atom_site_label_2
_geom_bond_site_symmetry_1
_geom_bond_site_symmetry_2
O1 C9 1_555 1_555
O2 C10 1_555 1_555
N1 H1 1_555 1_555
N2 N1 1_555 1_555
H2 N2 1_555 1_555
C1 C2 1_555 1_555
C2 H3 1_555 1_555
C3 C2 1_555 1_555
H4 C3 1_555 1_555
C4 C3 1_555 1_555
H5 C4 1_555 1_555
C5 C4 1_555 1_555
H6 C5 1_555 1_555
C6 C1 1_555 1_555
H7 C6 1_555 1_555
C7 C1 1_555 1_555
H8 C7 1_555 1_555
C8 C7 1_555 1_555
H9 C8 1_555 1_555
C9 N1 1_555 1_555
C10 N2 1_555 1_555
C11 C10 1_555 1_555
C12 C11 1_555 1_555
H10 C12 1_555 1_555
C13 C12 1_555 1_555
H11 C13 1_555 1_555
C14 C13 1_555 1_555
H12 C14 1_555 1_555
C15 C14 1_555 1_555
H13 C15 1_555 1_555
C16 C11 1_555 1_555
H14 C16 1_555 1_555
C5 C6 1_555 1_555
C8 C9 1_555 1_555
C15 C16 1_555 1_555

#END
