
#######################################################################
#
#                 Cambridge Crystallographic Data Centre
#                                CCDC 
#
#######################################################################
#
# If this CIF has been generated from an entry in the Cambridge 
# Structural Database, then it will include bibliographic, chemical, 
# crystal, experimental, refinement or atomic coordinate data resulting 
# from the CCDC's data processing and validation procedures.
#
#######################################################################

data_RUGSOD
_chemical_formula_moiety         'C23 H16 I1 N1 O1'
_chemical_name_systematic        2-(6-iodoquinolin-8-yl)-1,2-diphenylethanone
_symmetry_cell_setting           triclinic
_symmetry_space_group_name_H-M   'P -1'
_symmetry_Int_Tables_number      2
_space_group_name_Hall           '-P 1'
loop_
_symmetry_equiv_pos_site_id
_symmetry_equiv_pos_as_xyz
1 x,y,z
2 -x,-y,-z
_cell_length_a                   6.6749(3)
_cell_length_b                   9.4393(5)
_cell_length_c                   15.0974(8)
_cell_angle_alpha                79.626(2)
_cell_angle_beta                 85.796(3)
_cell_angle_gamma                77.639(3)
_cell_volume                     913.394
_exptl_crystal_colour            white
_exptl_crystal_description       rod
_cell_formula_units_Z            2
loop_
_atom_site_label
_atom_site_type_symbol
_atom_site_fract_x
_atom_site_fract_y
_atom_site_fract_z
I1 I 0.82228(3) 0.033004(18) 0.623841(11)
O1 O 0.3635(3) 0.6308(2) 0.72991(13)
N1 N 0.7027(3) 0.7169(2) 0.56591(13)
C1 C 0.4955(4) 0.8003(3) 0.79445(15)
C2 C 0.6559(4) 0.8295(3) 0.83853(16)
H1 H 0.7855 0.7636 0.8418
C3 C 0.7891(4) 0.4713(3) 0.83277(15)
C4 C 0.5159(4) 0.6651(3) 0.75231(15)
C5 C 0.7431(3) 0.4841(3) 0.66520(14)
C6 C 0.7889(4) 0.2606(3) 0.60201(16)
C7 C 0.7803(3) 0.3367(3) 0.51557(15)
H2 H 0.7933 0.2859 0.4659
C8 C 0.6930(4) 0.7910(3) 0.48311(16)
H3 H 0.6732 0.8951 0.4756
C9 C 0.7518(3) 0.4910(3) 0.50137(15)
C10 C 1.0457(4) 0.3575(3) 0.94324(18)
H4 H 1.1823 0.3421 0.9623
C11 C 0.7308(3) 0.5689(3) 0.74323(14)
H5 H 0.8300 0.6363 0.7286
C12 C 0.7399(4) 0.5771(3) 0.41368(15)
H6 H 0.7526 0.5311 0.3620
C13 C 0.9900(4) 0.4478(3) 0.86146(16)
H7 H 1.0885 0.4934 0.8251
C14 C 0.7704(4) 0.3330(3) 0.67738(15)
H8 H 0.7769 0.2774 0.7365
C15 C 0.7316(3) 0.5668(3) 0.57612(14)
C16 C 0.3050(4) 0.8995(3) 0.79040(17)
H9 H 0.1950 0.8801 0.7611
C17 C 0.7099(4) 0.7265(3) 0.40448(16)
H10 H 0.7005 0.7861 0.3465
C18 C 0.9034(5) 0.2898(3) 0.99715(18)
H11 H 0.9422 0.2285 1.0529
C19 C 0.6241(5) 0.9556(3) 0.87746(18)
H12 H 0.7328 0.9744 0.9079
C20 C 0.6476(4) 0.4032(3) 0.88740(17)
H13 H 0.5105 0.4187 0.8689
C21 C 0.7051(5) 0.3127(3) 0.96893(18)
H14 H 0.6072 0.2664 1.0053
C22 C 0.2771(5) 1.0242(3) 0.8286(2)
H15 H 0.1481 1.0908 0.8252
C23 C 0.4389(5) 1.0539(3) 0.87287(19)
H16 H 0.4201 1.1403 0.8990
loop_
_geom_bond_atom_site_label_1
_geom_bond_atom_site_label_2
_geom_bond_site_symmetry_1
_geom_bond_site_symmetry_2
I1 C6 1_555 1_555
O1 C4 1_555 1_555
N1 C8 1_555 1_555
C1 C2 1_555 1_555
C2 H1 1_555 1_555
C3 C11 1_555 1_555
C4 C1 1_555 1_555
C5 C11 1_555 1_555
C6 C7 1_555 1_555
C7 H2 1_555 1_555
C8 H3 1_555 1_555
C9 C7 1_555 1_555
C10 H4 1_555 1_555
C11 C4 1_555 1_555
H5 C11 1_555 1_555
C12 C9 1_555 1_555
H6 C12 1_555 1_555
C13 C3 1_555 1_555
H7 C13 1_555 1_555
C14 C5 1_555 1_555
H8 C14 1_555 1_555
C15 N1 1_555 1_555
C16 C1 1_555 1_555
H9 C16 1_555 1_555
C17 C8 1_555 1_555
H10 C17 1_555 1_555
C18 C10 1_555 1_555
H11 C18 1_555 1_555
C19 C2 1_555 1_555
H12 C19 1_555 1_555
C20 C3 1_555 1_555
H13 C20 1_555 1_555
C21 C18 1_555 1_555
H14 C21 1_555 1_555
C22 C16 1_555 1_555
H15 C22 1_555 1_555
C23 C19 1_555 1_555
H16 C23 1_555 1_555
C5 C15 1_555 1_555
C6 C14 1_555 1_555
C9 C15 1_555 1_555
C10 C13 1_555 1_555
C12 C17 1_555 1_555
C20 C21 1_555 1_555
C22 C23 1_555 1_555

#END
