
#######################################################################
#
#                 Cambridge Crystallographic Data Centre
#                                CCDC 
#
#######################################################################
#
# If this CIF has been generated from an entry in the Cambridge 
# Structural Database, then it will include bibliographic, chemical, 
# crystal, experimental, refinement or atomic coordinate data resulting 
# from the CCDC's data processing and validation procedures.
#
#######################################################################

data_RUHCOM
_chemical_name_common            
'6,10-Diethyl(1,2,3)trithiolo(h)benzopentathiepine 8-oxide'
_chemical_formula_moiety         'C10 H10 O1 S8'
_chemical_name_systematic        
'anti-6,10-Diethyl[1,2,3]trithiolo[4,5-h]benzopentathiepin 8-oxide'
_symmetry_cell_setting           monoclinic
_symmetry_space_group_name_H-M   'P 21/n'
_symmetry_Int_Tables_number      14
_space_group_name_Hall           '-P 2yn'
loop_
_symmetry_equiv_pos_site_id
_symmetry_equiv_pos_as_xyz
1 x,y,z
2 1/2-x,1/2+y,1/2-z
3 -x,-y,-z
4 1/2+x,1/2-y,1/2+z
_cell_length_a                   18.077(3)
_cell_length_b                   36.560(5)
_cell_length_c                   4.717(7)
_cell_angle_alpha                90
_cell_angle_beta                 91.17(4)
_cell_angle_gamma                90
_cell_volume                     3116.79
_exptl_crystal_colour            yellow
_exptl_crystal_description       prismatic
_chemical_melting_point          134.0-135.5deg.C(dec.)
_cell_formula_units_Z            8
_exptl_crystal_recrystallization_method hexane/dichloromethane
loop_
_atom_site_label
_atom_site_type_symbol
_atom_site_fract_x
_atom_site_fract_y
_atom_site_fract_z
S1 S 0.5869(2) 0.0473(1) 0.4131(9)
S2 S 0.5931(2) -0.0086(1) 0.3007(9)
S3 S 0.7033(2) -0.0038(1) 0.1699(8)
S4 S 0.9230(2) 0.06843(10) 0.7599(8)
S5 S 0.9602(2) 0.1116(1) 0.5278(9)
S6 S 0.9489(2) 0.1557(1) 0.793(1)
S7 S 0.8368(2) 0.1636(1) 0.797(1)
S8 S 0.7984(2) 0.12088(10) 1.0277(8)
O1 O 0.5911(6) -0.0295(3) 0.566(2)
C1 C 0.7328(6) 0.0309(3) 0.403(3)
C2 C 0.8082(7) 0.0359(3) 0.468(3)
C3 C 0.8277(6) 0.0640(3) 0.655(3)
C4 C 0.7737(6) 0.0874(3) 0.772(3)
C5 C 0.6997(6) 0.0832(3) 0.696(3)
C6 C 0.6794(6) 0.0544(3) 0.513(3)
C7 C 0.8644(7) 0.0100(4) 0.356(3)
C8 C 0.8826(9) -0.0219(4) 0.546(4)
C9 C 0.6397(6) 0.1079(3) 0.806(3)
C10 C 0.6248(7) 0.1404(4) 0.615(3)
H1 H 0.8469 0.0005 0.1755
H2 H 0.9095 0.0233 0.3204
H3 H 0.8386 -0.0360 0.5848
H4 H 0.9009 -0.0132 0.7310
H5 H 0.9187 -0.0378 0.4733
H6 H 0.6537 0.1169 0.9931
H7 H 0.5947 0.0941 0.8276
H8 H 0.6094 0.1319 0.4277
H9 H 0.5867 0.1557 0.6836
H10 H 0.6686 0.1546 0.5926
S9 S 0.3239(2) 0.1115(1) 1.3219(9)
S10 S 0.4348(2) 0.1041(1) 1.2087(9)
S11 S 0.4483(2) 0.16018(10) 1.1142(9)
S12 S 0.2526(2) 0.23854(9) 0.4548(8)
S13 S 0.2132(2) 0.28221(9) 0.6800(10)
S14 S 0.1008(2) 0.27596(10) 0.6659(10)
S15 S 0.0840(2) 0.2318(1) 0.9251(8)
S16 S 0.1197(2) 0.18857(9) 0.6965(8)
O2 O 0.4381(6) 0.0842(3) 0.943(2)
C11 C 0.3583(6) 0.1699(3) 0.987(3)
C12 C 0.3443(6) 0.1982(3) 0.805(3)
C13 C 0.2704(6) 0.2051(3) 0.711(3)
C14 C 0.2130(5) 0.1823(3) 0.820(3)
C15 C 0.2284(6) 0.1532(3) 1.004(3)
C16 C 0.2999(6) 0.1474(3) 1.092(3)
C17 C 0.4052(6) 0.2237(3) 0.713(3)
C18 C 0.4132(6) 0.2575(4) 0.889(3)
C19 C 0.1667(6) 0.1294(4) 1.123(3)
C20 C 0.1501(7) 0.0968(4) 0.943(3)
H11 H 0.4516 0.2107 0.7139
H12 H 0.3953 0.2310 0.5174
H13 H 0.4251 0.2509 1.0813
H14 H 0.3686 0.2711 0.8854
H15 H 0.4524 0.2728 0.8219
H16 H 0.1223 0.1436 1.1415
H17 H 0.1810 0.1211 1.3107
H18 H 0.1347 0.1046 0.7567
H19 H 0.1933 0.0820 0.9265
H20 H 0.1116 0.0823 1.0206
loop_
_geom_bond_atom_site_label_1
_geom_bond_atom_site_label_2
_geom_bond_site_symmetry_1
_geom_bond_site_symmetry_2
S1 S2 1_555 1_555
S2 S3 1_555 1_555
S3 C1 1_555 1_555
S4 S5 1_555 1_555
S5 S6 1_555 1_555
S6 S7 1_555 1_555
S7 S8 1_555 1_555
S8 C4 1_555 1_555
O1 S2 1_555 1_555
C1 C2 1_555 1_555
C2 C3 1_555 1_555
C3 S4 1_555 1_555
C4 C3 1_555 1_555
C5 C4 1_555 1_555
C6 S1 1_555 1_555
C7 C2 1_555 1_555
C8 C7 1_555 1_555
C9 C5 1_555 1_555
C10 C9 1_555 1_555
H1 C7 1_555 1_555
H2 C7 1_555 1_555
H3 C8 1_555 1_555
H4 C8 1_555 1_555
H5 C8 1_555 1_555
H6 C9 1_555 1_555
H7 C9 1_555 1_555
H8 C10 1_555 1_555
H9 C10 1_555 1_555
H10 C10 1_555 1_555
S9 S10 1_555 1_555
S10 S11 1_555 1_555
S11 C11 1_555 1_555
S12 S13 1_555 1_555
S13 S14 1_555 1_555
S14 S15 1_555 1_555
S15 S16 1_555 1_555
S16 C14 1_555 1_555
O2 S10 1_555 1_555
C11 C12 1_555 1_555
C12 C13 1_555 1_555
C13 S12 1_555 1_555
C14 C13 1_555 1_555
C15 C14 1_555 1_555
C16 S9 1_555 1_555
C17 C12 1_555 1_555
C18 C17 1_555 1_555
C19 C15 1_555 1_555
C20 C19 1_555 1_555
H11 C17 1_555 1_555
H12 C17 1_555 1_555
H13 C18 1_555 1_555
H14 C18 1_555 1_555
H15 C18 1_555 1_555
H16 C19 1_555 1_555
H17 C19 1_555 1_555
H18 C20 1_555 1_555
H19 C20 1_555 1_555
H20 C20 1_555 1_555
C1 C6 1_555 1_555
C5 C6 1_555 1_555
C11 C16 1_555 1_555
C15 C16 1_555 1_555

#END
