
#######################################################################
#
#                 Cambridge Crystallographic Data Centre
#                                CCDC 
#
#######################################################################
#
# If this CIF has been generated from an entry in the Cambridge 
# Structural Database, then it will include bibliographic, chemical, 
# crystal, experimental, refinement or atomic coordinate data resulting 
# from the CCDC's data processing and validation procedures.
#
#######################################################################

data_RUHCUS
_chemical_name_common            
'6,10-Diethyl(1,2,3)trithiolo(h)benzopentathiepin 7-oxide'
_chemical_formula_moiety         'C10 H10 O1 S8'
_chemical_name_systematic        
'syn-6,10-Diethyl[1,2,3]trithiolo[4,5-h]benzopentathiepin 7-oxide'
_symmetry_cell_setting           monoclinic
_symmetry_space_group_name_H-M   'P 21/n'
_symmetry_Int_Tables_number      14
_space_group_name_Hall           '-P 2yn'
loop_
_symmetry_equiv_pos_site_id
_symmetry_equiv_pos_as_xyz
1 x,y,z
2 1/2-x,1/2+y,1/2-z
3 -x,-y,-z
4 1/2+x,1/2-y,1/2+z
_cell_length_a                   11.260(5)
_cell_length_b                   8.090(8)
_cell_length_c                   17.241(5)
_cell_angle_alpha                90
_cell_angle_beta                 96.94(3)
_cell_angle_gamma                90
_cell_volume                     1559.03
_exptl_crystal_colour            yellow
_exptl_crystal_description       prismatic
_chemical_melting_point          107.5-109.5deg.C(dec.)
_cell_formula_units_Z            4
_exptl_crystal_recrystallization_method hexane/dichloromethane
loop_
_atom_site_label
_atom_site_type_symbol
_atom_site_fract_x
_atom_site_fract_y
_atom_site_fract_z
S1 S -0.1870(2) -0.0368(3) 0.7831(2)
S2 S -0.2437(3) 0.0506(4) 0.8875(2)
S3 S -0.0971(2) 0.1921(4) 0.9258(2)
S4 S 0.1180(2) 0.6085(3) 0.7364(2)
S5 S 0.2839(2) 0.5167(3) 0.7281(2)
S6 S 0.2915(3) 0.4899(4) 0.6102(2)
S7 S 0.1793(2) 0.2973(3) 0.5792(2)
S8 S 0.0114(2) 0.3869(3) 0.5867(2)
O1 O -0.0968(7) -0.1659(9) 0.7964(5)
C1 C -0.0659(8) 0.249(1) 0.8329(6)
C2 C 0.0044(7) 0.390(1) 0.8234(5)
C3 C 0.0322(8) 0.427(1) 0.7477(6)
C4 C -0.0134(7) 0.331(1) 0.6833(5)
C5 C -0.0831(7) 0.193(1) 0.6942(6)
C6 C -0.1084(8) 0.154(1) 0.7693(6)
C7 C 0.0498(8) 0.493(1) 0.8942(6)
C8 C 0.1622(9) 0.423(1) 0.9392(7)
C9 C -0.1343(10) 0.082(1) 0.6242(6)
C10 C -0.046(1) -0.050(1) 0.6059(6)
H1 H 0.0639 0.6006 0.8782
H2 H -0.0115 0.4917 0.9278
H3 H 0.2230 0.4263 0.9064
H4 H 0.1828 0.4961 0.9829
H5 H 0.1475 0.3178 0.9562
H6 H -0.1508 0.1513 0.5792
H7 H -0.2054 0.0317 0.6357
H8 H 0.0247 -0.0003 0.5934
H9 H -0.0296 -0.1197 0.6501
H10 H -0.0818 -0.1137 0.5627
loop_
_geom_bond_atom_site_label_1
_geom_bond_atom_site_label_2
_geom_bond_site_symmetry_1
_geom_bond_site_symmetry_2
S1 S2 1_555 1_555
S2 S3 1_555 1_555
S3 C1 1_555 1_555
S4 S5 1_555 1_555
S5 S6 1_555 1_555
S6 S7 1_555 1_555
S7 S8 1_555 1_555
S8 C4 1_555 1_555
O1 S1 1_555 1_555
C1 C2 1_555 1_555
C2 C3 1_555 1_555
C3 S4 1_555 1_555
C4 C3 1_555 1_555
C5 C4 1_555 1_555
C6 S1 1_555 1_555
C7 C2 1_555 1_555
C8 C7 1_555 1_555
C9 C5 1_555 1_555
C10 C9 1_555 1_555
H1 C7 1_555 1_555
H2 C7 1_555 1_555
H3 C8 1_555 1_555
H4 C8 1_555 1_555
H5 C8 1_555 1_555
H6 C9 1_555 1_555
H7 C9 1_555 1_555
H8 C10 1_555 1_555
H9 C10 1_555 1_555
H10 C10 1_555 1_555
C1 C6 1_555 1_555
C5 C6 1_555 1_555

#END
