
#######################################################################
#
#                 Cambridge Crystallographic Data Centre
#                                CCDC 
#
#######################################################################
#
# If this CIF has been generated from an entry in the Cambridge 
# Structural Database, then it will include bibliographic, chemical, 
# crystal, experimental, refinement or atomic coordinate data resulting 
# from the CCDC's data processing and validation procedures.
#
#######################################################################

data_RUHDOP
_chemical_name_common            'bis(Flavone) dapsone'
_chemical_formula_moiety         '2(C15 H10 O2),C12 H12 N2 O2 S1'
_chemical_name_systematic        
"bis(2-Phenyl-4H-chromen-4-one) 4,4'-sulfonyldianiline"
_symmetry_cell_setting           triclinic
_symmetry_space_group_name_H-M   'P -1'
_symmetry_Int_Tables_number      2
_space_group_name_Hall           '-P 1'
loop_
_symmetry_equiv_pos_site_id
_symmetry_equiv_pos_as_xyz
1 x,y,z
2 -x,-y,-z
_cell_length_a                   11.4461(14)
_cell_length_b                   11.5142(14)
_cell_length_c                   27.130(4)
_cell_angle_alpha                102.158(8)
_cell_angle_beta                 94.726(8)
_cell_angle_gamma                91.906(7)
_cell_volume                     3478.75
_exptl_crystal_colour            colorless
_exptl_crystal_description       block
_cell_formula_units_Z            4
loop_
_atom_site_label
_atom_site_type_symbol
_atom_site_fract_x
_atom_site_fract_y
_atom_site_fract_z
S1 S 0.53432(6) 0.39039(6) 0.15635(3)
O1 O 0.54284(15) 0.44896(15) 0.20870(8)
O2 O 0.55362(16) 0.46030(14) 0.11930(8)
N1 N 0.0774(2) 0.1275(2) 0.09542(15)
H1 H 0.0493 0.1144 0.0643
H2 H 0.0391 0.1021 0.1173
C1 C 0.1848(3) 0.1897(3) 0.11034(19)
C2 C 0.2473(3) 0.2310(3) 0.07590(15)
H3 H 0.2179 0.2167 0.0421
C3 C 0.3508(3) 0.2919(3) 0.09098(13)
H4 H 0.3925 0.3182 0.0671
C4 C 0.3969(2) 0.3164(2) 0.14078(11)
C5 C 0.63368(18) 0.27772(19) 0.14949(10)
C6 C 0.6738(2) 0.2302(2) 0.18992(10)
H5 H 0.6490 0.2599 0.2217
C7 C 0.7499(2) 0.1400(2) 0.18391(11)
H6 H 0.7775 0.1099 0.2117
C8 C 0.7859(2) 0.0936(2) 0.13649(12)
N2 N 0.8634(2) 0.00414(19) 0.13019(10)
H7 H 0.8900 -0.0235 0.1558
H8 H 0.8853 -0.0242 0.1007
C9 C 0.2305(3) 0.2139(2) 0.16150(16)
H9 H 0.1889 0.1877 0.1855
C10 C 0.3368(2) 0.2765(2) 0.17593(11)
H10 H 0.3677 0.2916 0.2096
C11 C 0.6694(2) 0.2325(2) 0.10208(10)
H11 H 0.6420 0.2635 0.0745
C12 C 0.7454(2) 0.1418(2) 0.09573(10)
H12 H 0.7701 0.1123 0.0639
S2 S 0.10674(5) 0.79794(5) 0.37634(3)
O3 O 0.07282(14) 0.84802(14) 0.33324(8)
O4 O 0.13588(15) 0.87592(14) 0.42502(8)
N3 N -0.28323(16) 0.46541(17) 0.39554(8)
H13 H -0.3203 0.4776 0.4223
H14 H -0.2928 0.4046 0.3815
C13 C -0.19180(19) 0.5436(2) 0.39143(10)
C14 C -0.1584(2) 0.6417(2) 0.42931(10)
H15 H -0.1989 0.6568 0.4581
C15 C -0.0664(2) 0.7178(2) 0.42524(10)
H16 H -0.0442 0.7827 0.4516
C16 C -0.00711(18) 0.69886(18) 0.38276(9)
C17 C 0.22609(18) 0.71116(18) 0.36105(10)
C18 C 0.2487(2) 0.6758(2) 0.31117(11)
H17 H 0.1994 0.6976 0.2860
C19 C 0.3421(2) 0.6093(2) 0.29811(10)
H18 H 0.3549 0.5852 0.2641
C20 C 0.4183(2) 0.57703(19) 0.33487(11)
N4 N 0.51327(18) 0.51332(17) 0.32196(8)
H19 H 0.5598 0.4937 0.3451
H20 H 0.5268 0.4926 0.2907
C21 C -0.13358(19) 0.52536(19) 0.34820(10)
H21 H -0.1557 0.4603 0.3219
C22 C -0.04287(18) 0.60291(19) 0.34367(9)
H22 H -0.0052 0.5907 0.3140
C23 C 0.2994(2) 0.67692(19) 0.39798(9)
H23 H 0.2842 0.6983 0.4318
C24 C 0.3944(2) 0.6116(2) 0.38504(10)
H24 H 0.4436 0.5901 0.4103
O5 O 0.44499(12) 0.00730(12) 0.30862(6)
O6 O 0.72890(15) 0.23633(15) 0.32123(8)
C25 C 0.0730(2) 0.2096(3) 0.29800(10)
H25 H -0.0054 0.2282 0.2950
C26 C 0.1602(3) 0.2976(2) 0.30659(11)
H26 H 0.1407 0.3764 0.3096
C27 C 0.2762(2) 0.2709(2) 0.31078(9)
H27 H 0.3344 0.3317 0.3164
C28 C 0.30761(19) 0.15348(18) 0.30671(8)
C29 C 0.43136(19) 0.12455(18) 0.31081(8)
C30 C 0.5564(2) -0.03458(19) 0.31018(8)
C31 C 0.6553(2) 0.03895(19) 0.31487(9)
C32 C 0.7644(2) -0.0122(2) 0.31620(10)
H28 H 0.8327 0.0359 0.3193
C33 C 0.7719(2) -0.1311(3) 0.31299(10)
H29 H 0.8449 -0.1642 0.3138
C34 C 0.2178(2) 0.06610(19) 0.29836(9)
H30 H 0.2362 -0.0129 0.2958
C35 C 0.1026(2) 0.0935(2) 0.29386(10)
H31 H 0.0439 0.0331 0.2880
C36 C 0.5630(2) -0.1555(2) 0.30708(10)
H32 H 0.4952 -0.2042 0.3041
C37 C 0.6711(3) -0.2024(2) 0.30854(11)
H33 H 0.6766 -0.2836 0.3065
C38 C 0.6433(2) 0.1658(2) 0.31771(9)
C39 C 0.5244(2) 0.20121(19) 0.31546(9)
H34 H 0.5112 0.2812 0.3173
O7 O 0.63809(15) 0.37230(14) 0.48295(7)
O8 O 0.36652(13) 0.12698(12) 0.43430(6)
C40 C 0.6948(3) 0.0020(3) 0.45383(11)
H35 H 0.7684 -0.0283 0.4580
C41 C 0.5972(3) -0.0747(2) 0.43787(10)
H36 H 0.6056 -0.1564 0.4315
C42 C 0.4886(2) -0.0318(2) 0.43140(9)
H37 H 0.4229 -0.0834 0.4206
C43 C 0.4783(2) 0.0892(2) 0.44110(8)
C44 C 0.3472(2) 0.24516(19) 0.44579(8)
C45 C 0.2217(2) 0.2666(2) 0.43928(8)
C46 C 0.1370(2) 0.1741(2) 0.43236(9)
H38 H 0.1599 0.0965 0.4301
C47 C 0.0195(2) 0.1960(3) 0.42880(11)
H39 H -0.0366 0.1335 0.4243
C48 C -0.0149(3) 0.3102(3) 0.43193(12)
H40 H -0.0943 0.3249 0.4294
C49 C 0.6837(2) 0.1222(3) 0.46349(10)
H41 H 0.7496 0.1734 0.4744
C50 C 0.5736(2) 0.1685(2) 0.45700(8)
C51 C 0.0675(3) 0.4028(3) 0.43869(11)
H42 H 0.0439 0.4801 0.4411
C52 C 0.1845(3) 0.3815(2) 0.44196(9)
H43 H 0.2399 0.4445 0.4460
C53 C 0.4360(2) 0.32704(19) 0.46184(9)
H44 H 0.4191 0.4070 0.4692
C54 C 0.5554(2) 0.2962(2) 0.46805(9)
O9 O -0.07945(19) 0.8582(2) 0.03334(8)
O10 O 0.17971(15) 0.63626(15) 0.05566(6)
C55 C 0.5675(4) 0.8103(5) 0.03853(15)
H45 H 0.6473 0.8251 0.0370
C56 C 0.4952(4) 0.9018(4) 0.04480(14)
H46 H 0.5258 0.9792 0.0481
C57 C 0.3765(3) 0.8809(3) 0.04630(11)
H47 H 0.3271 0.9440 0.0499
C58 C 0.3303(2) 0.7659(3) 0.04246(9)
C59 C 0.2046(2) 0.7440(2) 0.04499(9)
C60 C 0.1198(3) 0.8168(2) 0.03739(10)
H48 H 0.1407 0.8887 0.0292
C61 C -0.0006(3) 0.7902(3) 0.04120(10)
C62 C -0.0242(3) 0.6754(3) 0.05442(10)
C63 C -0.1374(3) 0.6359(4) 0.06085(12)
H49 H -0.1999 0.6842 0.0576
C64 C -0.1571(4) 0.5268(5) 0.07187(13)
H50 H -0.2328 0.5016 0.0762
C65 C 0.0656(3) 0.6023(3) 0.06004(9)
C66 C -0.0654(4) 0.4537(3) 0.07658(12)
H51 H -0.0799 0.3793 0.0837
C67 C 0.0467(3) 0.4905(3) 0.07078(10)
H52 H 0.1089 0.4417 0.0739
C68 C 0.4060(3) 0.6749(3) 0.03679(12)
H53 H 0.3772 0.5973 0.0345
C69 C 0.5247(3) 0.6978(4) 0.03443(14)
H54 H 0.5750 0.6354 0.0300
O11 O 0.17982(14) 0.64513(12) 0.18729(6)
O12 O -0.10250(19) 0.85072(18) 0.19804(8)
C70 C -0.1352(3) 0.4930(3) 0.21201(11)
H55 H -0.2054 0.4570 0.2176
C71 C -0.1306(2) 0.6091(3) 0.20797(10)
H56 H -0.1979 0.6522 0.2109
C72 C -0.0255(2) 0.6640(2) 0.19954(9)
C73 C 0.0729(2) 0.5979(2) 0.19551(9)
C74 C 0.1916(2) 0.7619(2) 0.18435(8)
C75 C 0.3124(2) 0.7986(2) 0.17955(9)
C76 C 0.3987(3) 0.7172(2) 0.17313(10)
H57 H 0.3790 0.6371 0.1707
C77 C 0.5130(3) 0.7527(3) 0.17032(11)
H58 H 0.5698 0.6964 0.1658
C78 C 0.5444(3) 0.8703(3) 0.17403(11)
H59 H 0.6221 0.8945 0.1726
C79 C -0.0359(3) 0.4295(2) 0.20781(11)
H60 H -0.0399 0.3502 0.2104
C80 C 0.0694(2) 0.4802(2) 0.19990(10)
H61 H 0.1365 0.4367 0.1976
C81 C 0.0978(3) 0.8294(2) 0.18702(10)
H62 H 0.1079 0.9076 0.1835
C82 C -0.0169(3) 0.7875(2) 0.19502(10)
C83 C 0.4590(3) 0.9517(3) 0.17996(11)
H63 H 0.4793 1.0316 0.1821
C84 C 0.3445(3) 0.9177(2) 0.18275(10)
H64 H 0.2880 0.9743 0.1868
loop_
_geom_bond_atom_site_label_1
_geom_bond_atom_site_label_2
_geom_bond_site_symmetry_1
_geom_bond_site_symmetry_2
S1 O1 1_555 1_555
O2 S1 1_555 1_555
N1 H1 1_555 1_555
H2 N1 1_555 1_555
C1 N1 1_555 1_555
C2 C1 1_555 1_555
H3 C2 1_555 1_555
C3 C2 1_555 1_555
H4 C3 1_555 1_555
C4 S1 1_555 1_555
C5 S1 1_555 1_555
C6 C5 1_555 1_555
H5 C6 1_555 1_555
C7 C6 1_555 1_555
H6 C7 1_555 1_555
C8 C7 1_555 1_555
N2 C8 1_555 1_555
H7 N2 1_555 1_555
H8 N2 1_555 1_555
C9 C1 1_555 1_555
H9 C9 1_555 1_555
C10 C4 1_555 1_555
H10 C10 1_555 1_555
C11 C5 1_555 1_555
H11 C11 1_555 1_555
C12 C8 1_555 1_555
H12 C12 1_555 1_555
S2 O3 1_555 1_555
O4 S2 1_555 1_555
N3 H13 1_555 1_555
H14 N3 1_555 1_555
C13 N3 1_555 1_555
C14 C13 1_555 1_555
H15 C14 1_555 1_555
C15 C14 1_555 1_555
H16 C15 1_555 1_555
C16 S2 1_555 1_555
C17 S2 1_555 1_555
C18 C17 1_555 1_555
H17 C18 1_555 1_555
C19 C18 1_555 1_555
H18 C19 1_555 1_555
C20 C19 1_555 1_555
N4 C20 1_555 1_555
H19 N4 1_555 1_555
H20 N4 1_555 1_555
C21 C13 1_555 1_555
H21 C21 1_555 1_555
C22 C16 1_555 1_555
H22 C22 1_555 1_555
C23 C17 1_555 1_555
H23 C23 1_555 1_555
C24 C20 1_555 1_555
H24 C24 1_555 1_555
O5 C29 1_555 1_555
O6 C38 1_555 1_555
C25 H25 1_555 1_555
C26 C25 1_555 1_555
H26 C26 1_555 1_555
C27 C26 1_555 1_555
H27 C27 1_555 1_555
C28 C27 1_555 1_555
C29 C28 1_555 1_555
C30 O5 1_555 1_555
C31 C30 1_555 1_555
C32 C31 1_555 1_555
H28 C32 1_555 1_555
C33 C32 1_555 1_555
H29 C33 1_555 1_555
C34 C28 1_555 1_555
H30 C34 1_555 1_555
C35 C25 1_555 1_555
H31 C35 1_555 1_555
C36 C30 1_555 1_555
H32 C36 1_555 1_555
C37 C33 1_555 1_555
H33 C37 1_555 1_555
C38 C31 1_555 1_555
C39 C29 1_555 1_555
H34 C39 1_555 1_555
O7 C54 1_555 1_555
O8 C43 1_555 1_555
C40 H35 1_555 1_555
C41 C40 1_555 1_555
H36 C41 1_555 1_555
C42 C41 1_555 1_555
H37 C42 1_555 1_555
C43 C42 1_555 1_555
C44 O8 1_555 1_555
C45 C44 1_555 1_555
C46 C45 1_555 1_555
H38 C46 1_555 1_555
C47 C46 1_555 1_555
H39 C47 1_555 1_555
C48 C47 1_555 1_555
H40 C48 1_555 1_555
C49 C40 1_555 1_555
H41 C49 1_555 1_555
C50 C43 1_555 1_555
C51 C48 1_555 1_555
H42 C51 1_555 1_555
C52 C45 1_555 1_555
H43 C52 1_555 1_555
C53 C44 1_555 1_555
H44 C53 1_555 1_555
C54 C50 1_555 1_555
O9 C61 1_555 1_555
O10 C59 1_555 1_555
C55 H45 1_555 1_555
C56 C55 1_555 1_555
H46 C56 1_555 1_555
C57 C56 1_555 1_555
H47 C57 1_555 1_555
C58 C57 1_555 1_555
C59 C58 1_555 1_555
C60 C59 1_555 1_555
H48 C60 1_555 1_555
C61 C60 1_555 1_555
C62 C61 1_555 1_555
C63 C62 1_555 1_555
H49 C63 1_555 1_555
C64 C63 1_555 1_555
H50 C64 1_555 1_555
C65 O10 1_555 1_555
C66 C64 1_555 1_555
H51 C66 1_555 1_555
C67 C65 1_555 1_555
H52 C67 1_555 1_555
C68 C58 1_555 1_555
H53 C68 1_555 1_555
C69 C55 1_555 1_555
H54 C69 1_555 1_555
O11 C73 1_555 1_555
O12 C82 1_555 1_555
C70 H55 1_555 1_555
C71 C70 1_555 1_555
H56 C71 1_555 1_555
C72 C71 1_555 1_555
C73 C72 1_555 1_555
C74 O11 1_555 1_555
C75 C74 1_555 1_555
C76 C75 1_555 1_555
H57 C76 1_555 1_555
C77 C76 1_555 1_555
H58 C77 1_555 1_555
C78 C77 1_555 1_555
H59 C78 1_555 1_555
C79 C70 1_555 1_555
H60 C79 1_555 1_555
C80 C73 1_555 1_555
H61 C80 1_555 1_555
C81 C74 1_555 1_555
H62 C81 1_555 1_555
C82 C72 1_555 1_555
C83 C78 1_555 1_555
H63 C83 1_555 1_555
C84 C75 1_555 1_555
H64 C84 1_555 1_555
C3 C4 1_555 1_555
C9 C10 1_555 1_555
C11 C12 1_555 1_555
C15 C16 1_555 1_555
C21 C22 1_555 1_555
C23 C24 1_555 1_555
C34 C35 1_555 1_555
C36 C37 1_555 1_555
C38 C39 1_555 1_555
C49 C50 1_555 1_555
C51 C52 1_555 1_555
C53 C54 1_555 1_555
C62 C65 1_555 1_555
C66 C67 1_555 1_555
C68 C69 1_555 1_555
C79 C80 1_555 1_555
C81 C82 1_555 1_555
C83 C84 1_555 1_555

#END
