
#######################################################################
#
#                 Cambridge Crystallographic Data Centre
#                                CCDC 
#
#######################################################################
#
# If this CIF has been generated from an entry in the Cambridge 
# Structural Database, then it will include bibliographic, chemical, 
# crystal, experimental, refinement or atomic coordinate data resulting 
# from the CCDC's data processing and validation procedures.
#
#######################################################################

data_RUHJIN
_chemical_formula_moiety         'C76 H137 N15 O18,C1 H4 O1,2(H2 O1)'
_chemical_name_systematic        
'N-t-Butoxycarbonyl-L-valyl-L-alanyl-L-leucyl-\a-aminoisobutyryl-L-valyl-L-alanyl-L-leucyl-(6-aminohexanoyl)-D-valyl-D-alanyl-D-leucyl-\a-aminoisobutyryl-D-valyl-D-alanyl-D-leucine methyl ester methanol solvate dihydrate'
_symmetry_cell_setting           tetragonal
_symmetry_space_group_name_H-M   'P 41'
_symmetry_Int_Tables_number      76
_space_group_name_Hall           'P 4w'
loop_
_symmetry_equiv_pos_site_id
_symmetry_equiv_pos_as_xyz
1 x,y,z
2 -y,x,1/4+z
3 -x,-y,1/2+z
4 y,-x,3/4+z
_cell_length_a                   10.094(6)
_cell_length_b                   10.094(6)
_cell_length_c                   93.383(12)
_cell_angle_alpha                90
_cell_angle_beta                 90
_cell_angle_gamma                90
_cell_volume                     9514.69
_exptl_crystal_colour            colorless
_exptl_crystal_description       'square plates'
_cell_formula_units_Z            4
_exptl_crystal_recrystallization_method methanol/water
loop_
_atom_site_label
_atom_site_type_symbol
_atom_site_fract_x
_atom_site_fract_y
_atom_site_fract_z
C1 C -0.1432(13) 0.4557(13) 0.21159(12)
C2 C -0.0992(15) 0.4910(14) 0.22659(12)
H1 H -0.1443(15) 0.4346(14) 0.23327(12)
H2 H -0.0053(15) 0.4774(14) 0.22737(12)
H3 H -0.1196(15) 0.5819(14) 0.22867(12)
C3 C -0.2880(14) 0.4570(16) 0.20995(18)
H4 H -0.3105(14) 0.4354(16) 0.20024(18)
H5 H -0.3295(14) 0.3949(16) 0.21631(18)
H6 H -0.3185(14) 0.5448(16) 0.21212(18)
C4 C -0.0721(14) 0.5453(13) 0.20062(13)
H7 H -0.1010(14) 0.5238(13) 0.19111(13)
H8 H -0.0925(14) 0.6363(13) 0.20264(13)
H9 H 0.0218(14) 0.5318(13) 0.20135(13)
O1 O -0.09285(78) 0.31645(83) 0.21008(8)
C5 C -0.1079(11) 0.2466(12) 0.19775(12)
O2 O -0.16184(77) 0.29059(78) 0.18696(8)
N1 N -0.05441(88) 0.12543(96) 0.19945(9)
H10 H -0.03877(88) 0.09073(96) 0.20817(9)
C6 C -0.0242(11) 0.0531(11) 0.18635(11)
H11 H 0.0260(11) 0.1110(11) 0.18027(11)
C7 C -0.1447(12) 0.0083(11) 0.17800(13)
O3 O -0.15237(78) 0.02412(82) 0.16472(7)
C8 C 0.0660(13) -0.0672(14) 0.19005(14)
H12 H 0.0232(13) -0.1151(14) 0.19763(14)
C9 C 0.0797(16) -0.1629(15) 0.17777(14)
H13 H 0.1342(16) -0.2373(15) 0.18030(14)
H14 H -0.0067(16) -0.1936(15) 0.17505(14)
H15 H 0.1193(16) -0.1163(15) 0.16990(14)
C10 C 0.1996(14) -0.0176(14) 0.19549(15)
H16 H 0.2547(14) -0.0921(14) 0.19778(15)
H17 H 0.2422(14) 0.0354(14) 0.18829(15)
H18 H 0.1858(14) 0.0349(14) 0.20394(15)
N2 N -0.24567(99) -0.0512(10) 0.18514(10)
H19 H -0.24551(99) -0.0557(10) 0.19477(10)
C11 C -0.3564(12) -0.1015(13) 0.17726(12)
H20 H -0.3210(12) -0.1552(13) 0.16968(12)
C12 C -0.4335(12) 0.0106(14) 0.16976(14)
O4 O -0.47542(80) -0.00080(79) 0.15767(8)
C13 C -0.4403(14) -0.1856(15) 0.18592(15)
H21 H -0.3903(14) -0.2586(15) 0.18968(15)
H22 H -0.4737(14) -0.1330(15) 0.19369(15)
H23 H -0.5131(14) -0.2187(15) 0.18035(15)
N3 N -0.45786(89) 0.1197(12) 0.17777(9)
H24 H -0.43262(89) 0.1232(12) 0.18701(9)
C14 C -0.5252(12) 0.2315(12) 0.17172(11)
H25 H -0.6071(12) 0.1988(12) 0.16788(11)
C15 C -0.4491(13) 0.2941(12) 0.15895(12)
O5 O -0.50968(81) 0.33430(83) 0.14853(8)
C16 C -0.5593(14) 0.3299(15) 0.18327(14)
H26 H -0.4779(14) 0.3675(15) 0.18669(14)
H27 H -0.5971(14) 0.2799(15) 0.19100(14)
C17 C -0.6569(19) 0.4085(25) 0.18301(24)
H28 H -0.6190(19) 0.4643(25) 0.17577(24)
C18 C -0.6675(16) 0.5028(18) 0.19534(21)
H29 H -0.5832(16) 0.5336(18) 0.19874(21)
H30 H -0.7243(16) 0.5773(18) 0.19357(21)
H31 H -0.7071(16) 0.4465(18) 0.20243(21)
C19 C -0.7861(14) 0.3833(17) 0.17649(17)
H32 H -0.7813(14) 0.3333(17) 0.16776(17)
H33 H -0.8236(14) 0.3292(17) 0.18390(17)
H34 H -0.8408(14) 0.4600(17) 0.17505(17)
N4 N -0.3175(11) 0.30592(94) 0.16065(9)
H35 H -0.2803(11) 0.27787(94) 0.16887(9)
C20 C -0.2324(12) 0.3626(12) 0.14926(12)
C21 C -0.2625(11) 0.2808(14) 0.13542(12)
O6 O -0.27949(78) 0.34219(75) 0.12407(8)
C22 C -0.0883(12) 0.3401(14) 0.15341(12)
H36 H -0.0680(12) 0.3906(14) 0.16184(12)
H37 H -0.0756(12) 0.2475(14) 0.15536(12)
H38 H -0.0308(12) 0.3668(14) 0.14574(12)
C23 C -0.2616(13) 0.5069(13) 0.14776(13)
H39 H -0.2418(13) 0.5543(13) 0.15641(13)
H40 H -0.2103(13) 0.5426(13) 0.14002(13)
H41 H -0.3542(13) 0.5156(13) 0.14561(13)
N5 N -0.26004(92) 0.15154(94) 0.13648(9)
H42 H -0.24433(92) 0.11355(94) 0.14503(9)
C24 C -0.2836(12) 0.0680(11) 0.12423(11)
H43 H -0.2218(12) 0.0946(11) 0.11696(11)
C25 C -0.4197(13) 0.0886(13) 0.11785(12)
O7 O -0.44099(85) 0.09409(86) 0.10499(8)
C26 C -0.2531(14) -0.0750(12) 0.12823(14)
H44 H -0.3017(14) -0.0951(12) 0.13680(14)
C27 C -0.2997(14) -0.1719(14) 0.11688(14)
H45 H -0.2809(14) -0.2622(14) 0.11936(14)
H46 H -0.3936(14) -0.1606(14) 0.11580(14)
H47 H -0.2564(14) -0.1503(14) 0.10803(14)
C28 C -0.1085(14) -0.0952(14) 0.13143(15)
H48 H -0.0843(14) -0.0348(14) 0.13893(15)
H49 H -0.0910(14) -0.1844(14) 0.13446(15)
H50 H -0.0575(14) -0.0759(14) 0.12301(15)
N6 N -0.52224(89) 0.09189(86) 0.12722(9)
H51 H -0.50602(89) 0.08887(86) 0.13669(9)
C29 C -0.6552(13) 0.1066(12) 0.12234(12)
H52 H -0.6738(13) 0.0349(12) 0.11588(12)
C30 C -0.6785(12) 0.2361(14) 0.11442(12)
O8 O -0.75674(86) 0.24222(83) 0.10446(9)
C31 C -0.7516(11) 0.0976(14) 0.13486(13)
H53 H -0.7411(11) 0.0145(14) 0.13973(13)
H54 H -0.7322(11) 0.1689(14) 0.14134(13)
H55 H -0.8412(11) 0.1058(14) 0.13152(13)
N7 N -0.61624(88) 0.34190(93) 0.11970(9)
H56 H -0.55870(88) 0.33295(93) 0.12700(9)
C32 C -0.6440(11) 0.4742(12) 0.11358(10)
H57 H -0.7346(11) 0.4793(12) 0.11052(10)
C33 C -0.5527(13) 0.5082(12) 0.10101(12)
O9 O -0.59930(77) 0.57910(81) 0.09114(7)
C34 C -0.6192(12) 0.5841(11) 0.12491(11)
H58 H -0.6214(12) 0.6693(11) 0.12035(11)
H59 H -0.5317(12) 0.5709(11) 0.12867(11)
C35 C -0.7129(16) 0.5810(15) 0.13754(14)
H60 H -0.7094(16) 0.4942(15) 0.14174(14)
C36 C -0.6684(18) 0.6822(18) 0.14835(15)
H61 H -0.7295(18) 0.6830(18) 0.15623(15)
H62 H -0.5824(18) 0.6559(18) 0.15170(15)
H63 H -0.6632(18) 0.7693(18) 0.14425(15)
C37 C -0.8547(17) 0.6056(19) 0.13325(18)
H64 H -0.8816(17) 0.5424(19) 0.12613(18)
H65 H -0.9103(17) 0.5970(19) 0.14154(18)
H66 H -0.8628(17) 0.6935(19) 0.12944(18)
N8 N -0.4289(11) 0.47249(98) 0.10121(10)
H67 H -0.4044(11) 0.40512(98) 0.10694(10)
C38 C -0.3272(13) 0.5332(12) 0.09221(12)
H68 H -0.2494(13) 0.5459(12) 0.09796(12)
H69 H -0.3582(13) 0.6188(12) 0.08925(12)
C39 C -0.2873(12) 0.4558(13) 0.07940(13)
H70 H -0.2257(12) 0.5060(13) 0.07375(13)
H71 H -0.3657(12) 0.4433(13) 0.07374(13)
C40 C -0.2256(14) 0.3242(15) 0.08197(15)
H72 H -0.1976(14) 0.2860(15) 0.07306(15)
H73 H -0.2936(14) 0.2681(15) 0.08583(15)
C41 C -0.1066(13) 0.3265(13) 0.09238(13)
H74 H -0.0636(13) 0.2417(13) 0.09184(13)
H75 H -0.1385(13) 0.3377(13) 0.10199(13)
C42 C 0.0001(12) 0.4284(13) 0.08901(11)
H76 H 0.0604(12) 0.4351(13) 0.09693(11)
H77 H -0.0456(12) 0.5114(13) 0.08821(11)
C43 C 0.0716(13) 0.4061(12) 0.07530(13)
O10 O 0.02294(78) 0.44352(82) 0.06348(8)
N9 N 0.1875(10) 0.34251(92) 0.07553(9)
H78 H 0.2231(10) 0.31885(92) 0.08399(9)
C44 C 0.2605(11) 0.3052(11) 0.06251(12)
H79 H 0.2063(11) 0.2452(11) 0.05711(12)
C45 C 0.2898(12) 0.4249(13) 0.05322(14)
O11 O 0.27260(73) 0.42180(73) 0.04019(7)
C46 C 0.3902(15) 0.2298(13) 0.06634(13)
H80 H 0.4373(15) 0.2815(13) 0.07330(13)
C47 C 0.4749(13) 0.2097(15) 0.05370(14)
H81 H 0.5548(13) 0.1643(15) 0.05635(14)
H82 H 0.4277(13) 0.1582(15) 0.04673(14)
H83 H 0.4968(13) 0.2946(15) 0.04970(14)
C48 C 0.3506(15) 0.0961(13) 0.07307(14)
H84 H 0.4279(15) 0.0474(13) 0.07593(14)
H85 H 0.2961(15) 0.1129(13) 0.08130(14)
H86 H 0.3013(15) 0.0454(13) 0.06619(14)
N10 N 0.34403(84) 0.53217(95) 0.05997(9)
H87 H 0.35325(84) 0.53435(95) 0.06955(9)
C49 C 0.3809(12) 0.6474(13) 0.05125(12)
H88 H 0.4411(12) 0.6173(13) 0.04399(12)
C50 C 0.2600(12) 0.7087(11) 0.04369(12)
O12 O 0.26658(75) 0.74649(80) 0.03105(7)
C51 C 0.4535(12) 0.7491(12) 0.06010(11)
H89 H 0.5317(12) 0.7119(12) 0.06435(11)
H90 H 0.4774(12) 0.8243(12) 0.05436(11)
H91 H 0.3935(12) 0.7765(12) 0.06751(11)
N11 N 0.1471(10) 0.71406(88) 0.05123(9)
H92 H 0.1452(10) 0.69011(88) 0.06051(9)
C52 C 0.0265(11) 0.7593(11) 0.04391(11)
H93 H 0.0455(11) 0.8439(11) 0.03968(11)
C53 C -0.0244(11) 0.6684(12) 0.03242(10)
O13 O -0.06861(75) 0.71741(78) 0.02138(7)
C54 C -0.0831(11) 0.7847(12) 0.05507(12)
H94 H -0.0890(11) 0.7056(12) 0.06073(12)
H95 H -0.1658(11) 0.7958(12) 0.05014(12)
C55 C -0.0631(14) 0.9018(15) 0.06525(12)
H96 H 0.0191(14) 0.8907(15) 0.07028(12)
C56 C -0.1726(16) 0.9100(16) 0.07649(15)
H97 H -0.1604(16) 0.9839(16) 0.08283(15)
H98 H -0.2548(16) 0.9198(16) 0.07143(15)
H99 H -0.1743(16) 0.8294(16) 0.08195(15)
C57 C -0.0574(16) 1.0328(14) 0.05714(15)
H100 H 0.0137(16) 1.0325(14) 0.05030(15)
H101 H -0.1402(16) 1.0443(14) 0.05224(15)
H102 H -0.0448(16) 1.1042(14) 0.06379(15)
N12 N -0.01744(91) 0.53738(85) 0.03493(9)
H103 H 0.02089(91) 0.50630(85) 0.04296(9)
C58 C -0.0655(13) 0.4426(13) 0.02446(12)
C59 C 0.0134(15) 0.4559(13) 0.01023(13)
O14 O -0.03453(89) 0.42388(93) -0.00120(9)
C60 C -0.0305(12) 0.3018(11) 0.03037(12)
H104 H -0.0789(12) 0.2862(11) 0.03906(12)
H105 H -0.0538(12) 0.2358(11) 0.02341(12)
H106 H 0.0628(12) 0.2974(11) 0.03229(12)
C61 C -0.2104(12) 0.4565(14) 0.02182(14)
H107 H -0.2286(12) 0.5436(14) 0.01820(14)
H108 H -0.2355(12) 0.3917(14) 0.01481(14)
H109 H -0.2599(12) 0.4423(14) 0.03046(14)
N13 N 0.1373(11) 0.50141(91) 0.01128(9)
H110 H 0.1702(11) 0.52059(91) 0.02000(9)
C62 C 0.2242(12) 0.5257(12) -0.00134(11)
H111 H 0.2097(12) 0.4540(12) -0.00791(11)
C63 C 0.1878(11) 0.6556(12) -0.00872(13)
O15 O 0.17236(88) 0.66213(88) -0.02174(8)
C64 C 0.3675(13) 0.5198(14) 0.00364(13)
H112 H 0.3759(13) 0.5772(14) 0.01178(13)
C65 C 0.4604(13) 0.5674(14) -0.00817(13)
H113 H 0.4358(13) 0.6565(14) -0.01060(13)
H114 H 0.5511(13) 0.5659(14) -0.00506(13)
H115 H 0.4504(13) 0.5116(14) -0.01642(13)
C66 C 0.4042(13) 0.3740(14) 0.00826(14)
H116 H 0.3459(13) 0.3467(14) 0.01583(14)
H117 H 0.3935(13) 0.3160(14) 0.00020(14)
H118 H 0.4942(13) 0.3702(14) 0.01155(14)
N14 N 0.18396(82) 0.76330(95) 0.00007(9)
H119 H 0.18871(82) 0.75259(95) 0.00962(9)
C67 C 0.1670(13) 0.8973(12) -0.00595(12)
H120 H 0.2273(13) 0.9069(12) -0.01383(12)
C68 C 0.0293(13) 0.9212(11) -0.01135(12)
O16 O 0.00972(80) 0.99342(78) -0.02213(8)
C69 C 0.2049(14) 0.9958(13) 0.00500(14)
H121 H 0.1972(14) 1.0842(13) 0.00130(14)
H122 H 0.1455(14) 0.9850(13) 0.01294(14)
H123 H 0.2942(14) 0.9806(13) 0.00812(14)
N15 N -0.07172(95) 0.87446(92) -0.00365(9)
H124 H -0.05560(95) 0.83381(92) 0.00475(9)
C70 C -0.2099(11) 0.8882(11) -0.00857(11)
H125 H -0.2225(11) 0.9764(11) -0.01217(11)
C71 C -0.2425(14) 0.7884(15) -0.02032(13)
O17 O -0.3024(11) 0.8111(11) -0.03072(10)
C72 C -0.3028(11) 0.8672(12) 0.00364(11)
H126 H -0.2915(11) 0.7779(12) 0.00694(11)
H127 H -0.3920(11) 0.8758(12) 0.00017(11)
C73 C -0.2939(12) 0.9587(14) 0.01624(12)
H128 H -0.2035(12) 0.9596(14) 0.01945(12)
C74 C -0.3862(14) 0.9089(14) 0.02823(12)
H129 H -0.3608(14) 0.8208(14) 0.03098(12)
H130 H -0.3814(14) 0.9663(14) 0.03640(12)
H131 H -0.4753(14) 0.9078(14) 0.02463(12)
C75 C -0.3363(15) 1.0990(14) 0.01262(14)
H132 H -0.2816(15) 1.1373(14) 0.00530(14)
H133 H -0.4262(15) 1.0944(14) 0.00930(14)
H134 H -0.3323(15) 1.1529(14) 0.02108(14)
O18 O -0.19607(89) 0.67089(99) -0.01691(9)
C76 C -0.2151(14) 0.5616(14) -0.02673(13)
H135 H -0.1761(14) 0.4820(14) -0.02301(13)
H136 H -0.3089(14) 0.5491(14) -0.02781(13)
H137 H -0.1767(14) 0.5817(14) -0.03588(13)
O19 O 0.12156(95) 0.43934(93) -0.04039(8)
O20 O -0.0613(13) 1.2569(10) -0.02691(11)
O21 O -0.8255(10) 0.7176(11) 0.08618(10)
C77 C -0.8306(24) 0.8234(21) 0.09660(17)
loop_
_geom_bond_atom_site_label_1
_geom_bond_atom_site_label_2
_geom_bond_site_symmetry_1
_geom_bond_site_symmetry_2
C1 C2 1_555 1_555
C2 H1 1_555 1_555
H2 C2 1_555 1_555
H3 C2 1_555 1_555
C3 C1 1_555 1_555
H4 C3 1_555 1_555
H5 C3 1_555 1_555
H6 C3 1_555 1_555
C4 C1 1_555 1_555
H7 C4 1_555 1_555
H8 C4 1_555 1_555
H9 C4 1_555 1_555
O1 C1 1_555 1_555
C5 O1 1_555 1_555
O2 C5 1_555 1_555
N1 C5 1_555 1_555
H10 N1 1_555 1_555
C6 N1 1_555 1_555
H11 C6 1_555 1_555
C7 C6 1_555 1_555
O3 C7 1_555 1_555
C8 C6 1_555 1_555
H12 C8 1_555 1_555
C9 C8 1_555 1_555
H13 C9 1_555 1_555
H14 C9 1_555 1_555
H15 C9 1_555 1_555
C10 C8 1_555 1_555
H16 C10 1_555 1_555
H17 C10 1_555 1_555
H18 C10 1_555 1_555
N2 C7 1_555 1_555
H19 N2 1_555 1_555
C11 N2 1_555 1_555
H20 C11 1_555 1_555
C12 C11 1_555 1_555
O4 C12 1_555 1_555
C13 C11 1_555 1_555
H21 C13 1_555 1_555
H22 C13 1_555 1_555
H23 C13 1_555 1_555
N3 C12 1_555 1_555
H24 N3 1_555 1_555
C14 N3 1_555 1_555
H25 C14 1_555 1_555
C15 C14 1_555 1_555
O5 C15 1_555 1_555
C16 C14 1_555 1_555
H26 C16 1_555 1_555
H27 C16 1_555 1_555
C17 C16 1_555 1_555
H28 C17 1_555 1_555
C18 C17 1_555 1_555
H29 C18 1_555 1_555
H30 C18 1_555 1_555
H31 C18 1_555 1_555
C19 C17 1_555 1_555
H32 C19 1_555 1_555
H33 C19 1_555 1_555
H34 C19 1_555 1_555
N4 C15 1_555 1_555
H35 N4 1_555 1_555
C20 N4 1_555 1_555
C21 C20 1_555 1_555
O6 C21 1_555 1_555
C22 C20 1_555 1_555
H36 C22 1_555 1_555
H37 C22 1_555 1_555
H38 C22 1_555 1_555
C23 C20 1_555 1_555
H39 C23 1_555 1_555
H40 C23 1_555 1_555
H41 C23 1_555 1_555
N5 C21 1_555 1_555
H42 N5 1_555 1_555
C24 N5 1_555 1_555
H43 C24 1_555 1_555
C25 C24 1_555 1_555
O7 C25 1_555 1_555
C26 C24 1_555 1_555
H44 C26 1_555 1_555
C27 C26 1_555 1_555
H45 C27 1_555 1_555
H46 C27 1_555 1_555
H47 C27 1_555 1_555
C28 C26 1_555 1_555
H48 C28 1_555 1_555
H49 C28 1_555 1_555
H50 C28 1_555 1_555
N6 C25 1_555 1_555
H51 N6 1_555 1_555
C29 N6 1_555 1_555
H52 C29 1_555 1_555
C30 C29 1_555 1_555
O8 C30 1_555 1_555
C31 C29 1_555 1_555
H53 C31 1_555 1_555
H54 C31 1_555 1_555
H55 C31 1_555 1_555
N7 C30 1_555 1_555
H56 N7 1_555 1_555
C32 N7 1_555 1_555
H57 C32 1_555 1_555
C33 C32 1_555 1_555
O9 C33 1_555 1_555
C34 C32 1_555 1_555
H58 C34 1_555 1_555
H59 C34 1_555 1_555
C35 C34 1_555 1_555
H60 C35 1_555 1_555
C36 C35 1_555 1_555
H61 C36 1_555 1_555
H62 C36 1_555 1_555
H63 C36 1_555 1_555
C37 C35 1_555 1_555
H64 C37 1_555 1_555
H65 C37 1_555 1_555
H66 C37 1_555 1_555
N8 C33 1_555 1_555
H67 N8 1_555 1_555
C38 N8 1_555 1_555
H68 C38 1_555 1_555
H69 C38 1_555 1_555
C39 C38 1_555 1_555
H70 C39 1_555 1_555
H71 C39 1_555 1_555
C40 C39 1_555 1_555
H72 C40 1_555 1_555
H73 C40 1_555 1_555
C41 C40 1_555 1_555
H74 C41 1_555 1_555
H75 C41 1_555 1_555
C42 C41 1_555 1_555
H76 C42 1_555 1_555
H77 C42 1_555 1_555
C43 C42 1_555 1_555
O10 C43 1_555 1_555
N9 C43 1_555 1_555
H78 N9 1_555 1_555
C44 N9 1_555 1_555
H79 C44 1_555 1_555
C45 C44 1_555 1_555
O11 C45 1_555 1_555
C46 C44 1_555 1_555
H80 C46 1_555 1_555
C47 C46 1_555 1_555
H81 C47 1_555 1_555
H82 C47 1_555 1_555
H83 C47 1_555 1_555
C48 C46 1_555 1_555
H84 C48 1_555 1_555
H85 C48 1_555 1_555
H86 C48 1_555 1_555
N10 C45 1_555 1_555
H87 N10 1_555 1_555
C49 N10 1_555 1_555
H88 C49 1_555 1_555
C50 C49 1_555 1_555
O12 C50 1_555 1_555
C51 C49 1_555 1_555
H89 C51 1_555 1_555
H90 C51 1_555 1_555
H91 C51 1_555 1_555
N11 C50 1_555 1_555
H92 N11 1_555 1_555
C52 N11 1_555 1_555
H93 C52 1_555 1_555
C53 C52 1_555 1_555
O13 C53 1_555 1_555
C54 C52 1_555 1_555
H94 C54 1_555 1_555
H95 C54 1_555 1_555
C55 C54 1_555 1_555
H96 C55 1_555 1_555
C56 C55 1_555 1_555
H97 C56 1_555 1_555
H98 C56 1_555 1_555
H99 C56 1_555 1_555
C57 C55 1_555 1_555
H100 C57 1_555 1_555
H101 C57 1_555 1_555
H102 C57 1_555 1_555
N12 C53 1_555 1_555
H103 N12 1_555 1_555
C58 N12 1_555 1_555
C59 C58 1_555 1_555
O14 C59 1_555 1_555
C60 C58 1_555 1_555
H104 C60 1_555 1_555
H105 C60 1_555 1_555
H106 C60 1_555 1_555
C61 C58 1_555 1_555
H107 C61 1_555 1_555
H108 C61 1_555 1_555
H109 C61 1_555 1_555
N13 C59 1_555 1_555
H110 N13 1_555 1_555
C62 N13 1_555 1_555
H111 C62 1_555 1_555
C63 C62 1_555 1_555
O15 C63 1_555 1_555
C64 C62 1_555 1_555
H112 C64 1_555 1_555
C65 C64 1_555 1_555
H113 C65 1_555 1_555
H114 C65 1_555 1_555
H115 C65 1_555 1_555
C66 C64 1_555 1_555
H116 C66 1_555 1_555
H117 C66 1_555 1_555
H118 C66 1_555 1_555
N14 C63 1_555 1_555
H119 N14 1_555 1_555
C67 N14 1_555 1_555
H120 C67 1_555 1_555
C68 C67 1_555 1_555
O16 C68 1_555 1_555
C69 C67 1_555 1_555
H121 C69 1_555 1_555
H122 C69 1_555 1_555
H123 C69 1_555 1_555
N15 C68 1_555 1_555
H124 N15 1_555 1_555
C70 N15 1_555 1_555
H125 C70 1_555 1_555
C71 C70 1_555 1_555
O17 C71 1_555 1_555
C72 C70 1_555 1_555
H126 C72 1_555 1_555
H127 C72 1_555 1_555
C73 C72 1_555 1_555
H128 C73 1_555 1_555
C74 C73 1_555 1_555
H129 C74 1_555 1_555
H130 C74 1_555 1_555
H131 C74 1_555 1_555
C75 C73 1_555 1_555
H132 C75 1_555 1_555
H133 C75 1_555 1_555
H134 C75 1_555 1_555
O18 C71 1_555 1_555
C76 O18 1_555 1_555
H135 C76 1_555 1_555
H136 C76 1_555 1_555
H137 C76 1_555 1_555
O21 C77 1_555 1_555

#END
