
#######################################################################
#
#                 Cambridge Crystallographic Data Centre
#                                CCDC 
#
#######################################################################
#
# If this CIF has been generated from an entry in the Cambridge 
# Structural Database, then it will include bibliographic, chemical, 
# crystal, experimental, refinement or atomic coordinate data resulting 
# from the CCDC's data processing and validation procedures.
#
#######################################################################

data_RUHLIQ
_chemical_compound_source        'liverwort Plagiochila cristata'
_chemical_name_common            
1,1,3a,7-Tetramethyldecahydro-1H-cyclopropa[a]naphthalen-7-ol
_chemical_formula_moiety         'C15 H26 O1'
_chemical_name_systematic        (-)-Maaliol
_symmetry_cell_setting           orthorhombic
_symmetry_space_group_name_H-M   'P 21 21 21'
_symmetry_Int_Tables_number      19
_space_group_name_Hall           'P 2ac 2ab'
loop_
_symmetry_equiv_pos_site_id
_symmetry_equiv_pos_as_xyz
1 x,y,z
2 1/2-x,-y,1/2+z
3 -x,1/2+y,1/2-z
4 1/2+x,1/2-y,-z
_cell_length_a                   6.3930(6)
_cell_length_b                   12.1787(12)
_cell_length_c                   17.1488(17)
_cell_angle_alpha                90
_cell_angle_beta                 90
_cell_angle_gamma                90
_cell_volume                     1335.18
_exptl_crystal_colour            colorless
_exptl_crystal_description       'long rod'
_chemical_melting_point          '95.3-97.0 deg.C'
_cell_formula_units_Z            4
_exptl_crystal_recrystallization_method hexane
loop_
_atom_site_label
_atom_site_type_symbol
_atom_site_fract_x
_atom_site_fract_y
_atom_site_fract_z
O1 O 0.2585(2) 0.28800(11) 0.97621(6)
H1 H 0.168(3) 0.295(2) 1.0056(14)
C1 C 0.4205(2) 0.48316(13) 0.78358(10)
H2 H 0.4267 0.5144 0.7310
H3 H 0.5301 0.5182 0.8148
C2 C 0.4642(2) 0.36017(13) 0.77891(9)
H4 H 0.3641 0.3257 0.7432
H5 H 0.6052 0.3482 0.7582
C3 C 0.4463(2) 0.30735(13) 0.85895(10)
H6 H 0.4715 0.2283 0.8540
H7 H 0.5551 0.3377 0.8930
C4 C 0.2341(2) 0.32531(11) 0.89678(8)
C5 C 0.18772(19) 0.44979(9) 0.89902(7)
H8 H 0.2991 0.4817 0.9321
C6 C -0.0150(2) 0.47718(10) 0.94032(7)
H9 H -0.1165 0.4159 0.9430
C7 C -0.1127(2) 0.58944(12) 0.92832(8)
H10 H -0.2672 0.5881 0.9248
C8 C -0.0108(3) 0.66988(12) 0.87302(10)
H11 H 0.0119 0.7391 0.9009
H12 H -0.1084 0.6848 0.8302
C9 C 0.1983(3) 0.63276(12) 0.83791(10)
H13 H 0.3109 0.6508 0.8745
H14 H 0.2236 0.6741 0.7898
C10 C 0.2076(2) 0.50948(11) 0.81949(8)
C11 C -0.0295(2) 0.55850(11) 1.00720(8)
C12 C -0.1917(3) 0.53301(15) 1.06887(9)
H15 H -0.2343 0.6005 1.0943
H16 H -0.1325 0.4833 1.1072
H17 H -0.3124 0.4989 1.0446
C13 C 0.1636(3) 0.61406(16) 1.03951(11)
H18 H 0.1232 0.6802 1.0672
H19 H 0.2569 0.6331 0.9970
H20 H 0.2345 0.5645 1.0751
C14 C 0.0329(2) 0.48253(14) 0.76105(8)
H21 H 0.0568 0.4102 0.7390
H22 H 0.0327 0.5368 0.7196
H23 H -0.1011 0.4836 0.7876
C15 C 0.0664(2) 0.25390(11) 0.85875(9)
H24 H -0.0684 0.2700 0.8820
H25 H 0.1000 0.1771 0.8668
H26 H 0.0612 0.2693 0.8033
loop_
_geom_bond_atom_site_label_1
_geom_bond_atom_site_label_2
_geom_bond_site_symmetry_1
_geom_bond_site_symmetry_2
O1 H1 1_555 1_555
C1 H2 1_555 1_555
H3 C1 1_555 1_555
C2 C1 1_555 1_555
H4 C2 1_555 1_555
H5 C2 1_555 1_555
C3 C2 1_555 1_555
H6 C3 1_555 1_555
H7 C3 1_555 1_555
C4 O1 1_555 1_555
C5 C4 1_555 1_555
H8 C5 1_555 1_555
C6 C5 1_555 1_555
H9 C6 1_555 1_555
C7 C6 1_555 1_555
H10 C7 1_555 1_555
C8 C7 1_555 1_555
H11 C8 1_555 1_555
H12 C8 1_555 1_555
C9 C8 1_555 1_555
H13 C9 1_555 1_555
H14 C9 1_555 1_555
C10 C1 1_555 1_555
C11 C6 1_555 1_555
C12 C11 1_555 1_555
H15 C12 1_555 1_555
H16 C12 1_555 1_555
H17 C12 1_555 1_555
C13 C11 1_555 1_555
H18 C13 1_555 1_555
H19 C13 1_555 1_555
H20 C13 1_555 1_555
C14 C10 1_555 1_555
H21 C14 1_555 1_555
H22 C14 1_555 1_555
H23 C14 1_555 1_555
C15 C4 1_555 1_555
H24 C15 1_555 1_555
H25 C15 1_555 1_555
H26 C15 1_555 1_555
C3 C4 1_555 1_555
C5 C10 1_555 1_555
C7 C11 1_555 1_555
C9 C10 1_555 1_555

#END
