
#######################################################################
#
#                 Cambridge Crystallographic Data Centre
#                                CCDC 
#
#######################################################################
#
# If this CIF has been generated from an entry in the Cambridge 
# Structural Database, then it will include bibliographic, chemical, 
# crystal, experimental, refinement or atomic coordinate data resulting 
# from the CCDC's data processing and validation procedures.
#
#######################################################################

data_RUHQUI
_chemical_formula_moiety         'C42 H94 N6 O2 Si4 Sr2'
_chemical_name_systematic        
(\m~2~-5-((2-(dimethylamino)ethyl)imino)-2,2,6,6-tetramethylhept-3-en-3-olato)-(N,N-bis(trimethylsilyl)amino)-di-strontium
_symmetry_cell_setting           monoclinic
_symmetry_space_group_name_H-M   'C 2/c'
_symmetry_Int_Tables_number      15
_space_group_name_Hall           '-C 2yn'
loop_
_symmetry_equiv_pos_site_id
_symmetry_equiv_pos_as_xyz
1 x,y,z
2 -x,y,1/2-z
3 1/2+x,1/2+y,z
4 1/2-x,1/2+y,1/2-z
5 -x,-y,-z
6 x,-y,1/2+z
7 1/2-x,1/2-y,-z
8 1/2+x,1/2-y,1/2+z
_cell_length_a                   27.4008(4)
_cell_length_b                   10.9381(2)
_cell_length_c                   21.1771(3)
_cell_angle_alpha                90
_cell_angle_beta                 117.6220(10)
_cell_angle_gamma                90
_cell_volume                     5623.65
_exptl_crystal_colour            silver
_exptl_crystal_description       block
_cell_formula_units_Z            4
_chemical_properties_physical    
'Air-sensitive, Moisture-sensitive, Hygroscopic'
_exptl_crystal_recrystallization_method toluene
loop_
_atom_site_label
_atom_site_type_symbol
_atom_site_fract_x
_atom_site_fract_y
_atom_site_fract_z
Sr1 Sr 0.061225(7) 0.837788(16) 0.229489(9)
Si1 Si 0.19153(2) 0.72845(6) 0.25270(3)
Si2 Si 0.09550(2) 0.57319(5) 0.15705(3)
O1 O 0.03937(6) 0.82664(13) 0.33072(7)
N1 N 0.07900(8) 1.05282(16) 0.28864(10)
N2 N 0.06603(8) 1.01790(17) 0.14504(10)
N3 N 0.12416(7) 0.69148(16) 0.21311(10)
C1 C 0.23840(11) 0.6150(3) 0.32080(15)
H1 H 0.2713 0.6024 0.3146
H2 H 0.2190 0.5370 0.3144
H3 H 0.2492 0.6464 0.3688
C2 C 0.20200(10) 0.8765(2) 0.30318(14)
H4 H 0.2412 0.8975 0.3268
H5 H 0.1891 0.8670 0.3390
H6 H 0.1811 0.9418 0.2699
C3 C 0.22119(10) 0.7499(3) 0.18904(15)
H7 H 0.2575 0.7107 0.2086
H8 H 0.2250 0.8374 0.1824
H9 H 0.1966 0.7126 0.1431
C4 C 0.03892(10) 0.5040(2) 0.17273(14)
H10 H 0.0338 0.4182 0.1577
H11 H 0.0046 0.5490 0.1451
H12 H 0.0491 0.5089 0.2235
C5 C 0.14237(10) 0.4418(2) 0.16594(15)
H13 H 0.1271 0.3954 0.1213
H14 H 0.1457 0.3883 0.2048
H15 H 0.1788 0.4731 0.1764
C6 C 0.06584(10) 0.6223(2) 0.06082(13)
H16 H 0.0720 0.5579 0.0332
H17 H 0.0839 0.6978 0.0577
H18 H 0.0262 0.6367 0.0416
C7 C 0.08928(8) 0.84164(19) 0.38442(11)
C8 C 0.11260(9) 0.7290(2) 0.43292(12)
C9 C 0.11450(11) 0.6238(2) 0.38637(15)
H19 H 0.0776 0.6104 0.3468
H20 H 0.1271 0.5492 0.4151
H21 H 0.1400 0.6446 0.3674
C10 C 0.07394(11) 0.6960(2) 0.46412(13)
H22 H 0.0367 0.6829 0.4253
H23 H 0.0734 0.7628 0.4946
H24 H 0.0869 0.6210 0.4924
C11 C 0.17054(11) 0.7486(3) 0.49450(16)
H25 H 0.1829 0.6739 0.5231
H26 H 0.1698 0.8162 0.5245
H27 H 0.1960 0.7684 0.4753
C12 C 0.12007(8) 0.9458(2) 0.39744(11)
H28 H 0.1548 0.9436 0.4390
C13 C 0.10763(9) 1.06023(19) 0.35702(12)
C14 C 0.13284(10) 1.1795(2) 0.40027(13)
C15 C 0.08709(11) 1.2712(2) 0.38984(15)
H29 H 0.1036 1.3455 0.4174
H30 H 0.0624 1.2345 0.4063
H31 H 0.0661 1.2920 0.3392
C16 C 0.17416(12) 1.2353(3) 0.37804(17)
H32 H 0.1899 1.3100 0.4055
H33 H 0.1552 1.2549 0.3271
H34 H 0.2037 1.1764 0.3874
C17 C 0.16444(13) 1.1554(3) 0.48085(15)
H35 H 0.1796 1.2324 0.5059
H36 H 0.1945 1.0977 0.4908
H37 H 0.1393 1.1207 0.4973
C18 C 0.06327(11) 1.1547(2) 0.23805(12)
H38 H 0.0786 1.2320 0.2641
H39 H 0.0226 1.1621 0.2125
C19 C 0.08508(11) 1.1330(2) 0.18471(13)
H40 H 0.0735 1.2017 0.1504
H41 H 0.1258 1.1327 0.2104
C20 C 0.00804(10) 1.0263(2) 0.09152(13)
H42 H -0.0037 0.9485 0.0658
H43 H 0.0036 1.0919 0.0578
H44 H -0.0146 1.0440 0.1152
C21 C 0.09933(11) 0.9910(2) 0.10811(14)
H45 H 0.0985 1.0615 0.0791
H46 H 0.0841 0.9194 0.0773
H47 H 0.1375 0.9742 0.1435
Sr1A Sr -0.061225(7) 0.837788(16) 0.270511(9)
Si1A Si -0.19153(2) 0.72845(6) 0.24730(3)
Si2A Si -0.09550(2) 0.57319(5) 0.34295(3)
O1A O -0.03937(6) 0.82664(13) 0.16928(7)
N1A N -0.07900(8) 1.05282(16) 0.21136(10)
N2A N -0.06603(8) 1.01790(17) 0.35496(10)
N3A N -0.12416(7) 0.69148(16) 0.28689(10)
C1A C -0.23840(11) 0.6150(3) 0.17920(15)
H1A H -0.2713 0.6024 0.1854
H2A H -0.2190 0.5370 0.1856
H3A H -0.2492 0.6464 0.1312
C2A C -0.20200(10) 0.8765(2) 0.19682(14)
H4A H -0.2412 0.8975 0.1732
H5A H -0.1891 0.8670 0.1610
H6A H -0.1811 0.9418 0.2301
C3A C -0.22119(10) 0.7499(3) 0.31096(15)
H7A H -0.2575 0.7107 0.2914
H8A H -0.2250 0.8374 0.3176
H9A H -0.1966 0.7126 0.3569
C4A C -0.03892(10) 0.5040(2) 0.32727(14)
H10A H -0.0338 0.4182 0.3423
H11A H -0.0046 0.5490 0.3549
H12A H -0.0491 0.5089 0.2765
C5A C -0.14237(10) 0.4418(2) 0.33406(15)
H13A H -0.1271 0.3954 0.3787
H14A H -0.1457 0.3883 0.2952
H15A H -0.1788 0.4731 0.3236
C6A C -0.06584(10) 0.6223(2) 0.43918(13)
H16A H -0.0720 0.5579 0.4668
H17A H -0.0839 0.6978 0.4423
H18A H -0.0262 0.6367 0.4584
C7A C -0.08928(8) 0.84164(19) 0.11558(11)
C8A C -0.11260(9) 0.7290(2) 0.06708(12)
C9A C -0.11450(11) 0.6238(2) 0.11363(15)
H19A H -0.0776 0.6104 0.1532
H20A H -0.1271 0.5492 0.0849
H21A H -0.1400 0.6446 0.1326
C10A C -0.07394(11) 0.6960(2) 0.03588(13)
H22A H -0.0367 0.6829 0.0747
H23A H -0.0734 0.7628 0.0054
H24A H -0.0869 0.6210 0.0076
C11A C -0.17054(11) 0.7486(3) 0.00550(16)
H25A H -0.1829 0.6739 -0.0231
H26A H -0.1698 0.8162 -0.0245
H27A H -0.1960 0.7684 0.0247
C12A C -0.12007(8) 0.9458(2) 0.10256(11)
H28A H -0.1548 0.9436 0.0610
C13A C -0.10763(9) 1.06023(19) 0.14298(12)
C14A C -0.13284(10) 1.1795(2) 0.09973(13)
C15A C -0.08709(11) 1.2712(2) 0.11016(15)
H29A H -0.1036 1.3455 0.0826
H30A H -0.0624 1.2345 0.0937
H31A H -0.0661 1.2920 0.1608
C16A C -0.17416(12) 1.2353(3) 0.12196(17)
H32A H -0.1899 1.3100 0.0945
H33A H -0.1552 1.2549 0.1729
H34A H -0.2037 1.1764 0.1126
C17A C -0.16444(13) 1.1554(3) 0.01915(15)
H35A H -0.1796 1.2324 -0.0059
H36A H -0.1945 1.0977 0.0092
H37A H -0.1393 1.1207 0.0027
C18A C -0.06327(11) 1.1547(2) 0.26195(12)
H38A H -0.0786 1.2320 0.2359
H39A H -0.0226 1.1621 0.2875
C19A C -0.08508(11) 1.1330(2) 0.31529(13)
H40A H -0.0735 1.2017 0.3496
H41A H -0.1258 1.1327 0.2896
C20A C -0.00804(10) 1.0263(2) 0.40848(13)
H42A H 0.0037 0.9485 0.4342
H43A H -0.0036 1.0919 0.4422
H44A H 0.0146 1.0440 0.3848
C21A C -0.09933(11) 0.9910(2) 0.39189(14)
H45A H -0.0985 1.0615 0.4209
H46A H -0.0841 0.9194 0.4227
H47A H -0.1375 0.9742 0.3565
loop_
_geom_bond_atom_site_label_1
_geom_bond_atom_site_label_2
_geom_bond_site_symmetry_1
_geom_bond_site_symmetry_2
Sr1 O1 1_555 1_555
Si1 N3 1_555 1_555
Si2 N3 1_555 1_555
O1 C7 1_555 1_555
N1 Sr1 1_555 1_555
N2 Sr1 1_555 1_555
N3 Sr1 1_555 1_555
C1 Si1 1_555 1_555
H1 C1 1_555 1_555
H2 C1 1_555 1_555
H3 C1 1_555 1_555
C2 Si1 1_555 1_555
H4 C2 1_555 1_555
H5 C2 1_555 1_555
H6 C2 1_555 1_555
C3 Si1 1_555 1_555
H7 C3 1_555 1_555
H8 C3 1_555 1_555
H9 C3 1_555 1_555
C4 Si2 1_555 1_555
H10 C4 1_555 1_555
H11 C4 1_555 1_555
H12 C4 1_555 1_555
C5 Si2 1_555 1_555
H13 C5 1_555 1_555
H14 C5 1_555 1_555
H15 C5 1_555 1_555
C6 Si2 1_555 1_555
H16 C6 1_555 1_555
H17 C6 1_555 1_555
H18 C6 1_555 1_555
C7 C8 1_555 1_555
C8 C9 1_555 1_555
C9 H19 1_555 1_555
H20 C9 1_555 1_555
H21 C9 1_555 1_555
C10 C8 1_555 1_555
H22 C10 1_555 1_555
H23 C10 1_555 1_555
H24 C10 1_555 1_555
C11 C8 1_555 1_555
H25 C11 1_555 1_555
H26 C11 1_555 1_555
H27 C11 1_555 1_555
C12 C7 1_555 1_555
H28 C12 1_555 1_555
C13 N1 1_555 1_555
C14 C13 1_555 1_555
C15 C14 1_555 1_555
H29 C15 1_555 1_555
H30 C15 1_555 1_555
H31 C15 1_555 1_555
C16 C14 1_555 1_555
H32 C16 1_555 1_555
H33 C16 1_555 1_555
H34 C16 1_555 1_555
C17 C14 1_555 1_555
H35 C17 1_555 1_555
H36 C17 1_555 1_555
H37 C17 1_555 1_555
C18 N1 1_555 1_555
H38 C18 1_555 1_555
H39 C18 1_555 1_555
C19 N2 1_555 1_555
H40 C19 1_555 1_555
H41 C19 1_555 1_555
C20 N2 1_555 1_555
H42 C20 1_555 1_555
H43 C20 1_555 1_555
H44 C20 1_555 1_555
C21 N2 1_555 1_555
H45 C21 1_555 1_555
H46 C21 1_555 1_555
H47 C21 1_555 1_555
Sr1A O1 1_555 1_555
Si1A N3A 1_555 1_555
Si2A N3A 1_555 1_555
O1A Sr1 1_555 1_555
N1A Sr1A 1_555 1_555
N2A Sr1A 1_555 1_555
N3A Sr1A 1_555 1_555
C1A Si1A 1_555 1_555
H1A C1A 1_555 1_555
H2A C1A 1_555 1_555
H3A C1A 1_555 1_555
C2A Si1A 1_555 1_555
H4A C2A 1_555 1_555
H5A C2A 1_555 1_555
H6A C2A 1_555 1_555
C3A Si1A 1_555 1_555
H7A C3A 1_555 1_555
H8A C3A 1_555 1_555
H9A C3A 1_555 1_555
C4A Si2A 1_555 1_555
H10A C4A 1_555 1_555
H11A C4A 1_555 1_555
H12A C4A 1_555 1_555
C5A Si2A 1_555 1_555
H13A C5A 1_555 1_555
H14A C5A 1_555 1_555
H15A C5A 1_555 1_555
C6A Si2A 1_555 1_555
H16A C6A 1_555 1_555
H17A C6A 1_555 1_555
H18A C6A 1_555 1_555
C7A O1A 1_555 1_555
C8A C7A 1_555 1_555
C9A C8A 1_555 1_555
H19A C9A 1_555 1_555
H20A C9A 1_555 1_555
H21A C9A 1_555 1_555
C10A C8A 1_555 1_555
H22A C10A 1_555 1_555
H23A C10A 1_555 1_555
H24A C10A 1_555 1_555
C11A C8A 1_555 1_555
H25A C11A 1_555 1_555
H26A C11A 1_555 1_555
H27A C11A 1_555 1_555
C12A C7A 1_555 1_555
H28A C12A 1_555 1_555
C13A N1A 1_555 1_555
C14A C13A 1_555 1_555
C15A C14A 1_555 1_555
H29A C15A 1_555 1_555
H30A C15A 1_555 1_555
H31A C15A 1_555 1_555
C16A C14A 1_555 1_555
H32A C16A 1_555 1_555
H33A C16A 1_555 1_555
H34A C16A 1_555 1_555
C17A C14A 1_555 1_555
H35A C17A 1_555 1_555
H36A C17A 1_555 1_555
H37A C17A 1_555 1_555
C18A N1A 1_555 1_555
H38A C18A 1_555 1_555
H39A C18A 1_555 1_555
C19A N2A 1_555 1_555
H40A C19A 1_555 1_555
H41A C19A 1_555 1_555
C20A N2A 1_555 1_555
H42A C20A 1_555 1_555
H43A C20A 1_555 1_555
H44A C20A 1_555 1_555
C21A N2A 1_555 1_555
H45A C21A 1_555 1_555
H46A C21A 1_555 1_555
H47A C21A 1_555 1_555
C12 C13 1_555 1_555
C18 C19 1_555 1_555
Sr1A O1A 1_555 1_555
C12A C13A 1_555 1_555
C18A C19A 1_555 1_555

#END
