
#######################################################################
#
#                 Cambridge Crystallographic Data Centre
#                                CCDC 
#
#######################################################################
#
# If this CIF has been generated from an entry in the Cambridge 
# Structural Database, then it will include bibliographic, chemical, 
# crystal, experimental, refinement or atomic coordinate data resulting 
# from the CCDC's data processing and validation procedures.
#
#######################################################################

data_RUHQOB
_chemical_formula_moiety         'C54 H48 B1 N3 Si1'
_chemical_name_systematic        
(4-(2-(7-Azaindol-1-yl)pyridin-5-yl)phenyl)(4-(dimesitylboryl)phenyl)diphenylsilane
_symmetry_cell_setting           triclinic
_symmetry_space_group_name_H-M   'P -1'
_symmetry_Int_Tables_number      2
_space_group_name_Hall           '-P 1'
loop_
_symmetry_equiv_pos_site_id
_symmetry_equiv_pos_as_xyz
1 x,y,z
2 -x,-y,-z
_cell_length_a                   7.9606(6)
_cell_length_b                   21.5444(16)
_cell_length_c                   25.4876(19)
_cell_angle_alpha                86.199(1)
_cell_angle_beta                 85.778(1)
_cell_angle_gamma                85.319(1)
_cell_volume                     4336.88
_exptl_crystal_colour            white
_chemical_melting_point          '230-231 deg.C'
_cell_formula_units_Z            4
_exptl_crystal_preparation       luminescent
loop_
_atom_site_label
_atom_site_type_symbol
_atom_site_fract_x
_atom_site_fract_y
_atom_site_fract_z
Si1 Si 0.12251(11) 0.69879(5) 0.27639(3)
B1 B -0.3020(4) 0.69707(16) 0.07878(12)
C1 C -0.0121(8) 0.7317(4) 0.3326(3)
C2 C -0.0085(8) 0.7842(4) 0.3572(3)
H1 H 0.0735 0.8124 0.3448
C3 C -0.1181(11) 0.7997(5) 0.3997(3)
H2 H -0.1118 0.8381 0.4156
C4 C -0.2330(11) 0.7605(5) 0.4186(3)
H3 H -0.3063 0.7711 0.4483
C5 C -0.2471(10) 0.7065(5) 0.3965(3)
H4 H -0.3311 0.6794 0.4095
C6 C -0.1320(14) 0.6910(5) 0.3527(4)
H5 H -0.1372 0.6525 0.3371
C7 C 0.2722(4) 0.62855(16) 0.28630(12)
C8 C 0.2342(5) 0.5792(2) 0.32169(16)
H6 H 0.1281 0.5806 0.3414
C9 C 0.3475(6) 0.5285(2) 0.32871(18)
H7 H 0.3190 0.4958 0.3539
C10 C 0.5002(5) 0.52358(18) 0.30060(16)
H8 H 0.5760 0.4875 0.3050
C11 C 0.5411(4) 0.57205(17) 0.26587(14)
H9 H 0.6476 0.5702 0.2463
C12 C 0.4288(4) 0.62357(15) 0.25905(12)
H10 H 0.4600 0.6568 0.2348
C13 C -0.0100(3) 0.69241(13) 0.21959(10)
C14 C -0.1643(3) 0.72767(13) 0.21647(11)
H11 H -0.2071 0.7516 0.2452
C15 C -0.2557(3) 0.72861(13) 0.17269(11)
H12 H -0.3580 0.7545 0.1714
C16 C -0.2031(3) 0.69276(12) 0.13009(10)
C17 C -0.0520(3) 0.65575(12) 0.13391(10)
H13 H -0.0135 0.6295 0.1063
C18 C 0.0432(3) 0.65640(12) 0.17715(10)
H14 H 0.1475 0.6317 0.1779
C19 C -0.4016(3) 0.76138(13) 0.06434(10)
C20 C -0.3237(3) 0.81824(13) 0.05958(11)
C21 C -0.4162(4) 0.87403(14) 0.04773(11)
H15 H -0.3598 0.9114 0.0437
C22 C -0.5872(4) 0.87706(15) 0.04162(14)
C23 C -0.6642(4) 0.82191(15) 0.04681(13)
H16 H -0.7822 0.8231 0.0429
C24 C -0.5766(3) 0.76467(14) 0.05749(11)
C25 C -0.1373(3) 0.82101(14) 0.06648(13)
H17 H -0.1080 0.8644 0.0617
H18 H -0.0711 0.7961 0.0403
H19 H -0.1120 0.8043 0.1020
C26 C -0.6869(5) 0.93889(16) 0.03010(18)
H20 H -0.8059 0.9318 0.0276
H21 H -0.6420 0.9584 -0.0033
H22 H -0.6771 0.9665 0.0586
C27 C -0.6715(4) 0.70675(15) 0.06373(14)
H23 H -0.7901 0.7176 0.0568
H24 H -0.6647 0.6882 0.0998
H25 H -0.6215 0.6767 0.0387
C28 C -0.2905(3) 0.63873(14) 0.04433(11)
C29 C -0.2350(4) 0.64298(15) -0.00940(12)
C30 C -0.2071(4) 0.58935(17) -0.03763(12)
H26 H -0.1655 0.5931 -0.0735
C31 C -0.2377(4) 0.53161(17) -0.01540(14)
C32 C -0.3010(4) 0.52722(15) 0.03688(14)
H27 H -0.3278 0.4877 0.0526
C33 C -0.3260(4) 0.57912(14) 0.06672(12)
C34 C -0.2015(4) 0.70458(16) -0.03827(12)
H28 H -0.1517 0.6973 -0.0739
H29 H -0.1231 0.7259 -0.0191
H30 H -0.3080 0.7306 -0.0406
C35 C -0.2038(5) 0.47289(16) -0.04598(14)
H31 H -0.1860 0.4846 -0.0837
H32 H -0.3009 0.4475 -0.0401
H33 H -0.1028 0.4488 -0.0338
C36 C -0.4004(4) 0.56942(14) 0.12287(11)
H34 H -0.4715 0.6068 0.1326
H35 H -0.3089 0.5618 0.1467
H36 H -0.4689 0.5334 0.1256
C37 C 0.2682(10) 0.7748(3) 0.2523(2)
C38 C 0.3924(10) 0.7885(3) 0.2849(2)
H37 H 0.3998 0.7674 0.3187
C39 C 0.5054(7) 0.8332(3) 0.2679(2)
H38 H 0.5897 0.8425 0.2900
C40 C 0.4944(6) 0.8643(2) 0.2181(2)
C41 C 0.3703(7) 0.8506(3) 0.1854(2)
H39 H 0.3629 0.8717 0.1516
C42 C 0.2572(8) 0.8058(4) 0.2025(2)
H40 H 0.1730 0.7965 0.1803
C43 C 0.6225(18) 0.9096(8) 0.1985(5)
C44 C 0.5990(8) 0.9517(3) 0.1557(3)
H41 H 0.4943 0.9529 0.1399
N1 N 0.7117(7) 0.9910(2) 0.1347(2)
C45 C 0.8580(9) 0.9890(3) 0.1557(3)
C46 C 0.891(3) 0.9488(10) 0.1947(8)
H42 H 0.9998 0.9480 0.2080
C47 C 0.7827(9) 0.9079(3) 0.2179(3)
H43 H 0.8145 0.8794 0.2461
N2 N 0.974(3) 1.0290(6) 0.1308(6)
C48 C 0.9451(18) 1.0673(7) 0.0863(5)
H44 H 0.8408 1.0719 0.0701
C49 C 1.075(3) 1.0957(9) 0.0694(6)
H45 H 1.0836 1.1217 0.0379
C50 C 1.2054(14) 1.0824(4) 0.1059(5)
C51 C 1.3679(14) 1.0961(7) 0.1120(6)
H46 H 1.4213 1.1250 0.0877
C52 C 1.4512(9) 1.0688(3) 0.1522(3)
H47 H 1.5653 1.0766 0.1559
C53 C 1.3675(11) 1.0284(4) 0.1888(4)
H48 H 1.4259 1.0116 0.2184
N3 N 1.2119(8) 1.0120(3) 0.1848(3)
C54 C 1.133(3) 1.0366(10) 0.1447(9)
Si2 Si 0.35469(10) 1.30424(4) 0.21438(3)
B2 B 0.8027(4) 1.31305(16) 0.40564(13)
C55 C 0.4955(4) 1.28752(15) 0.15451(11)
C56 C 0.5512(4) 1.22696(17) 0.14498(13)
H49 H 0.5049 1.1938 0.1663
C57 C 0.6745(5) 1.2130(2) 0.10470(16)
H50 H 0.7135 1.1709 0.0993
C58 C 0.7379(6) 1.2601(3) 0.07341(16)
H51 H 0.8177 1.2506 0.0449
C59 C 0.6892(6) 1.3202(2) 0.08213(17)
H52 H 0.7392 1.3529 0.0613
C60 C 0.5659(5) 1.33368(18) 0.12163(14)
H53 H 0.5283 1.3760 0.1264
C61 C 0.2113(4) 1.37670(14) 0.20532(11)
C62 C 0.0393(4) 1.37711(16) 0.20006(13)
H54 H -0.0100 1.3385 0.1996
C63 C -0.0627(4) 1.43184(18) 0.19541(16)
H55 H -0.1803 1.4305 0.1920
C64 C 0.0050(5) 1.48782(17) 0.19572(15)
H56 H -0.0649 1.5255 0.1919
C65 C 0.1737(5) 1.48958(16) 0.20152(14)
H57 H 0.2207 1.5286 0.2024
C66 C 0.2759(4) 1.43506(15) 0.20615(12)
H58 H 0.3931 1.4371 0.2100
C67 C 0.4966(3) 1.31423(12) 0.26823(10)
C68 C 0.6548(4) 1.28168(13) 0.26914(11)
H59 H 0.6972 1.2591 0.2396
C69 C 0.7518(3) 1.28146(13) 0.31209(11)
H60 H 0.8564 1.2568 0.3121
C70 C 0.7001(3) 1.31663(12) 0.35547(11)
C71 C 0.5472(3) 1.35242(12) 0.35289(11)
H61 H 0.5110 1.3789 0.3805
C72 C 0.4460(3) 1.35048(12) 0.31109(11)
H62 H 0.3401 1.3743 0.3115
C73 C 0.8978(3) 1.24878(13) 0.42303(10)
C74 C 0.8149(4) 1.19279(14) 0.42872(11)
C75 C 0.9008(4) 1.13755(15) 0.44561(13)
H63 H 0.8416 1.1008 0.4505
C76 C 1.0690(4) 1.13379(16) 0.45565(14)
C77 C 1.1507(4) 1.18838(16) 0.44880(12)
H64 H 1.2674 1.1867 0.4548
C78 C 1.0699(3) 1.24492(14) 0.43371(10)
C79 C 0.6306(4) 1.19008(15) 0.41926(14)
H65 H 0.5919 1.1501 0.4340
H66 H 0.6164 1.1940 0.3813
H67 H 0.5640 1.2243 0.4363
C80 C 1.1565(12) 1.0669(6) 0.4637(9)
H68 H 1.1322 1.0418 0.4349
H69 H 1.1136 1.0475 0.4974
H70 H 1.2789 1.0693 0.4639
C81 C 1.1696(4) 1.30150(14) 0.42769(12)
H71 H 1.2848 1.2900 0.4379
H72 H 1.1157 1.3335 0.4504
H73 H 1.1732 1.3180 0.3909
C82 C 0.811(2) 1.3781(5) 0.4354(5)
C83 C 0.753(2) 1.3800(4) 0.4877(5)
C84 C 0.7361(16) 1.4360(5) 0.5116(4)
H74 H 0.6960 1.4373 0.5476
C85 C 0.7779(12) 1.4901(4) 0.4833(4)
C86 C 0.8363(16) 1.4882(5) 0.4310(4)
H75 H 0.8651 1.5255 0.4116
C87 C 0.853(2) 1.4322(6) 0.4071(4)
C88 C 0.7289(14) 1.3191(6) 0.5217(4)
H76 H 0.6416 1.2966 0.5077
H77 H 0.6942 1.3290 0.5581
H78 H 0.8356 1.2930 0.5211
C89 C 0.752(2) 1.5530(6) 0.5097(5)
H79 H 0.6338 1.5601 0.5229
H80 H 0.7813 1.5868 0.4839
H81 H 0.8250 1.5520 0.5392
C90 C 0.922(3) 1.4387(11) 0.3616(9)
H82 H 0.8804 1.4088 0.3392
H83 H 1.0445 1.4310 0.3630
H84 H 0.8947 1.4812 0.3471
C100 C 0.2251(3) 1.23702(13) 0.23492(11)
C101 C 0.1139(4) 1.21413(14) 0.20211(12)
H96 H 0.1136 1.2299 0.1664
C102 C 0.0051(4) 1.16960(14) 0.21966(13)
H97 H -0.0686 1.1556 0.1961
C103 C 0.0016(4) 1.14472(13) 0.27176(14)
C104 C 0.1158(4) 1.16529(13) 0.30429(12)
H98 H 0.1194 1.1481 0.3395
C105 C 0.2240(3) 1.21027(13) 0.28631(12)
H99 H 0.2999 1.2234 0.3097
C106 C -0.1341(8) 1.1001(4) 0.3016(3)
C107 C -0.2930(10) 1.1002(4) 0.2851(3)
H100 H -0.3266 1.1275 0.2563
C108 C -0.4037(9) 1.0612(3) 0.3099(2)
H101 H -0.5146 1.0612 0.2985
C109 C -0.3555(8) 1.0220(3) 0.3512(2)
N4 N -0.1966(7) 1.0219(2) 0.36762(19)
C110 C -0.0860(7) 1.0610(3) 0.3428(2)
H102 H 0.0249 1.0609 0.3543
N5 N -0.4583(8) 0.9805(3) 0.3819(3)
C111 C -0.4266(10) 0.9561(4) 0.4317(3)
H103 H -0.3363 0.9664 0.4510
C112 C -0.5404(10) 0.9157(4) 0.4493(3)
H104 H -0.5453 0.8927 0.4824
C113 C -0.649(4) 0.9144(14) 0.4098(8)
C114 C -0.7931(9) 0.8819(3) 0.4029(3)
H105 H -0.8375 0.8542 0.4300
C115 C -0.8653(9) 0.8918(3) 0.3561(3)
H106 H -0.9608 0.8702 0.3500
C116 C -0.8000(9) 0.9337(3) 0.3168(3)
H107 H -0.8548 0.9398 0.2848
N6 N -0.6674(7) 0.9653(3) 0.3215(3)
C117 C -0.5981(10) 0.9550(4) 0.3673(3)
C91? C 0.780(3) 1.3672(8) 0.4393(8)
C92? C 0.724(3) 1.3626(7) 0.4951(8)
C93? C 0.701(2) 1.4154(6) 0.5247(6)
H85? H 0.6562 1.4111 0.5602
C94? C 0.740(2) 1.4741(7) 0.5036(7)
C95? C 0.802(2) 1.4810(8) 0.4527(6)
H86? H 0.8299 1.5212 0.4391
C96? C 0.826(3) 1.4298(9) 0.4179(7)
C97? C 0.6511(15) 1.3070(7) 0.5191(6)
H87? H 0.6189 1.3129 0.5564
H88? H 0.7343 1.2710 0.5162
H89? H 0.5509 1.2995 0.5011
C98? C 0.718(3) 1.5314(8) 0.5365(7)
H90? H 0.7548 1.5200 0.5719
H91? H 0.5983 1.5468 0.5390
H92? H 0.7855 1.5641 0.5196
C99? C 0.907(4) 1.4317(16) 0.3481(13)
H93? H 0.9713 1.4685 0.3400
H94? H 0.8124 1.4337 0.3254
H95? H 0.9813 1.3939 0.3418
C118? C -0.3472(11) 1.0214(4) 0.3264(3)
C119? C -0.2760(14) 1.1024(5) 0.2701(4)
C120? C -0.6489(9) 1.0012(4) 0.3467(4)
C121? C -0.7399(10) 0.9569(4) 0.3743(3)
C122? C -0.630(4) 0.9075(12) 0.3928(8)
C123? C -0.6359(10) 0.8518(4) 0.4206(3)
C124? C -0.4863(10) 0.8156(3) 0.4282(3)
C125? C -0.3334(10) 0.8367(4) 0.4083(3)
C126? C -0.4631(9) 0.9253(3) 0.3762(2)
C127? C -0.0293(11) 0.6871(5) 0.3391(3)
C128? C 0.0119(9) 0.7034(3) 0.3873(2)
C129? C 0.2444(12) 0.7564(5) 0.2696(4)
C130? C 0.3741(11) 0.7612(4) 0.3036(3)
C131? C 0.4945(12) 0.8039(4) 0.2924(3)
C132? C -0.0869(10) 0.6938(4) 0.4335(3)
C133? C 0.4902(15) 0.8455(5) 0.2482(5)
C134? C 0.3580(9) 0.8422(4) 0.2152(3)
C135? C 0.2408(13) 0.7995(5) 0.2262(4)
C136? C 0.6293(9) 0.8861(3) 0.2327(3)
C137? C 0.6671(19) 0.9052(9) 0.1807(6)
C138? C 0.8006(10) 0.9433(4) 0.1676(3)
C139? C 0.899(2) 0.9570(9) 0.2090(8)
C140? C 0.7354(8) 0.9041(3) 0.2680(3)
C141? C 1.1622(8) 0.9945(3) 0.2313(3)
C142? C 1.2795(14) 1.0311(5) 0.2110(4)
C143? C -0.2374(10) 0.6683(4) 0.4314(3)
C144? C 1.2308(12) 1.0561(4) 0.1593(4)
C145? C 1.2933(18) 1.0951(9) 0.1182(8)
C146? C 1.2027(18) 1.1109(5) 0.0761(5)
C147? C 1.050(4) 1.0872(13) 0.0762(9)
C148? C 1.075(3) 1.0342(15) 0.1513(13)
C149? C -0.2889(9) 0.6512(4) 0.3860(3)
C150? C -0.1854(11) 0.6595(4) 0.3403(3)
C151? C 1.170(2) 1.0823(7) 0.4887(8)
C152? C -0.1069(14) 1.1007(6) 0.2831(4)
C153? C -0.0779(11) 1.0524(4) 0.3239(3)
C154? C -0.1913(11) 1.0113(4) 0.3456(4)
H108? H -0.3116 1.1345 0.2450
H109? H -0.6957 1.0382 0.3291
H110? H -0.8594 0.9594 0.3801
H111? H -0.7409 0.8377 0.4346
H112? H -0.4890 0.7761 0.4471
H113? H -0.2340 0.8102 0.4135
H114? H 0.1146 0.7225 0.3890
H115? H 0.3788 0.7346 0.3348
H116? H 0.5825 0.8048 0.3155
H117? H -0.0507 0.7047 0.4661
H118? H 0.3501 0.8701 0.1849
H119? H 0.1523 0.7991 0.2032
H120? H 0.6028 0.8926 0.1538
H121? H 0.8241 0.9593 0.1324
H122? H 0.7138 0.8901 0.3038
H123? H 1.1649 0.9717 0.2645
H124? H 1.3780 1.0396 0.2273
H125? H -0.3074 0.6626 0.4629
H126? H 1.4008 1.1108 0.1197
H127? H 1.2439 1.1374 0.0476
H128? H 0.9840 1.1009 0.0473
H129? H -0.3943 0.6337 0.3851
H130? H -0.2206 0.6461 0.3083
H131? H 1.1308 1.0839 0.5259
H132? H 1.2907 1.0893 0.4844
H133? H 1.1529 1.0413 0.4764
H134? H 0.0310 1.0484 0.3372
H135? H -0.1635 0.9790 0.3714
N7? N 0.8658(7) 0.9393(3) 0.2573(2)
N8? N 1.0344(7) 0.9942(2) 0.1969(2)
N9? N 0.981(2) 1.0473(7) 0.1117(6)
N10? N -0.3935(10) 1.0634(4) 0.2892(3)
N11? N -0.4781(8) 0.9836(3) 0.3483(3)
N12? N -0.3165(7) 0.8923(2) 0.3822(2)
loop_
_geom_bond_atom_site_label_1
_geom_bond_atom_site_label_2
_geom_bond_site_symmetry_1
_geom_bond_site_symmetry_2
Si1 C1 1_555 1_555
Si2 C55 1_555 1_555
B1 C16 1_555 1_555
B2 C70 1_555 1_555
C1 C2 1_555 1_555
C2 H1 1_555 1_555
C3 C2 1_555 1_555
H2 C3 1_555 1_555
C4 C3 1_555 1_555
H3 C4 1_555 1_555
C5 C4 1_555 1_555
H4 C5 1_555 1_555
C6 C1 1_555 1_555
H5 C6 1_555 1_555
C7 Si1 1_555 1_555
C8 C7 1_555 1_555
H6 C8 1_555 1_555
C9 C8 1_555 1_555
H7 C9 1_555 1_555
C10 C9 1_555 1_555
H8 C10 1_555 1_555
C11 C10 1_555 1_555
H9 C11 1_555 1_555
C12 C7 1_555 1_555
H10 C12 1_555 1_555
C13 Si1 1_555 1_555
C14 C13 1_555 1_555
H11 C14 1_555 1_555
C15 C14 1_555 1_555
H12 C15 1_555 1_555
C16 C15 1_555 1_555
C17 C16 1_555 1_555
H13 C17 1_555 1_555
C18 C13 1_555 1_555
H14 C18 1_555 1_555
C19 B1 1_555 1_555
C20 C19 1_555 1_555
C21 C20 1_555 1_555
H15 C21 1_555 1_555
C22 C21 1_555 1_555
C23 C22 1_555 1_555
H16 C23 1_555 1_555
C24 C19 1_555 1_555
C25 C20 1_555 1_555
H17 C25 1_555 1_555
H18 C25 1_555 1_555
H19 C25 1_555 1_555
C26 C22 1_555 1_555
H20 C26 1_555 1_555
H21 C26 1_555 1_555
H22 C26 1_555 1_555
C27 C24 1_555 1_555
H23 C27 1_555 1_555
H24 C27 1_555 1_555
H25 C27 1_555 1_555
C28 B1 1_555 1_555
C29 C28 1_555 1_555
C30 C29 1_555 1_555
H26 C30 1_555 1_555
C31 C30 1_555 1_555
C32 C31 1_555 1_555
H27 C32 1_555 1_555
C33 C28 1_555 1_555
C34 C29 1_555 1_555
H28 C34 1_555 1_555
H29 C34 1_555 1_555
H30 C34 1_555 1_555
C35 C31 1_555 1_555
H31 C35 1_555 1_555
H32 C35 1_555 1_555
H33 C35 1_555 1_555
C36 C33 1_555 1_555
H34 C36 1_555 1_555
H35 C36 1_555 1_555
H36 C36 1_555 1_555
C37 Si1 1_555 1_555
C38 C37 1_555 1_555
H37 C38 1_555 1_555
C39 C38 1_555 1_555
H38 C39 1_555 1_555
C40 C39 1_555 1_555
C41 C40 1_555 1_555
H39 C41 1_555 1_555
C42 C37 1_555 1_555
H40 C42 1_555 1_555
C43 C40 1_555 1_555
C44 C43 1_555 1_555
H41 C44 1_555 1_555
N1 C44 1_555 1_555
C45 N1 1_555 1_555
C46 C45 1_555 1_555
H42 C46 1_555 1_555
C47 C43 1_555 1_555
H43 C47 1_555 1_555
N2 C45 1_555 1_555
C48 N2 1_555 1_555
H44 C48 1_555 1_555
C49 C48 1_555 1_555
H45 C49 1_555 1_555
C50 C49 1_555 1_555
C51 C50 1_555 1_555
H46 C51 1_555 1_555
C52 C51 1_555 1_555
H47 C52 1_555 1_555
C53 C52 1_555 1_555
H48 C53 1_555 1_555
N3 C53 1_555 1_555
C54 N2 1_555 1_555
C55 C56 1_555 1_555
C56 H49 1_555 1_555
C57 C56 1_555 1_555
H50 C57 1_555 1_555
C58 C57 1_555 1_555
H51 C58 1_555 1_555
C59 C58 1_555 1_555
H52 C59 1_555 1_555
C60 C55 1_555 1_555
H53 C60 1_555 1_555
C61 Si2 1_555 1_555
C62 C61 1_555 1_555
H54 C62 1_555 1_555
C63 C62 1_555 1_555
H55 C63 1_555 1_555
C64 C63 1_555 1_555
H56 C64 1_555 1_555
C65 C64 1_555 1_555
H57 C65 1_555 1_555
C66 C61 1_555 1_555
H58 C66 1_555 1_555
C67 Si2 1_555 1_555
C68 C67 1_555 1_555
H59 C68 1_555 1_555
C69 C68 1_555 1_555
H60 C69 1_555 1_555
C70 C69 1_555 1_555
C71 C70 1_555 1_555
H61 C71 1_555 1_555
C72 C67 1_555 1_555
H62 C72 1_555 1_555
C73 B2 1_555 1_555
C74 C73 1_555 1_555
C75 C74 1_555 1_555
H63 C75 1_555 1_555
C76 C75 1_555 1_555
C77 C76 1_555 1_555
H64 C77 1_555 1_555
C78 C73 1_555 1_555
C79 C74 1_555 1_555
H65 C79 1_555 1_555
H66 C79 1_555 1_555
H67 C79 1_555 1_555
C80 C76 1_555 1_555
H68 C80 1_555 1_555
H69 C80 1_555 1_555
H70 C80 1_555 1_555
C81 C78 1_555 1_555
H71 C81 1_555 1_555
H72 C81 1_555 1_555
H73 C81 1_555 1_555
C82 B2 1_555 1_555
C83 C82 1_555 1_555
C84 C83 1_555 1_555
H74 C84 1_555 1_555
C85 C84 1_555 1_555
C86 C85 1_555 1_555
H75 C86 1_555 1_555
C87 C82 1_555 1_555
C88 C83 1_555 1_555
H76 C88 1_555 1_555
H77 C88 1_555 1_555
H78 C88 1_555 1_555
C89 C85 1_555 1_555
H79 C89 1_555 1_555
H80 C89 1_555 1_555
H81 C89 1_555 1_555
C90 C87 1_555 1_555
H82 C90 1_555 1_555
H83 C90 1_555 1_555
H84 C90 1_555 1_555
C100 Si2 1_555 1_555
C101 C100 1_555 1_555
H96 C101 1_555 1_555
C102 C101 1_555 1_555
H97 C102 1_555 1_555
C103 C102 1_555 1_555
C104 C103 1_555 1_555
H98 C104 1_555 1_555
C105 C100 1_555 1_555
H99 C105 1_555 1_555
C106 C103 1_555 1_555
C107 C106 1_555 1_555
H100 C107 1_555 1_555
C108 C107 1_555 1_555
H101 C108 1_555 1_555
C109 C108 1_555 1_555
N4 C109 1_555 1_555
C110 C106 1_555 1_555
H102 C110 1_555 1_555
N5 C109 1_555 1_555
C111 N5 1_555 1_555
H103 C111 1_555 1_555
C112 C111 1_555 1_555
H104 C112 1_555 1_555
C113 C112 1_555 1_555
C114 C113 1_555 1_555
H105 C114 1_555 1_555
C115 C114 1_555 1_555
H106 C115 1_555 1_555
C116 C115 1_555 1_555
H107 C116 1_555 1_555
N6 C116 1_555 1_555
C117 N5 1_555 1_555
C5 C6 1_555 1_555
C11 C12 1_555 1_555
C17 C18 1_555 1_555
C23 C24 1_555 1_555
C32 C33 1_555 1_555
C41 C42 1_555 1_555
C46 C47 1_555 1_555
C50 C54 1_555 1_555
N3 C54 1_555 1_555
C59 C60 1_555 1_555
C65 C66 1_555 1_555
C71 C72 1_555 1_555
C77 C78 1_555 1_555
C86 C87 1_555 1_555
C104 C105 1_555 1_555
N4 C110 1_555 1_555
C113 C117 1_555 1_555
N6 C117 1_555 1_555

#END
