
#######################################################################
#
#                 Cambridge Crystallographic Data Centre
#                                CCDC 
#
#######################################################################
#
# If this CIF has been generated from an entry in the Cambridge 
# Structural Database, then it will include bibliographic, chemical, 
# crystal, experimental, refinement or atomic coordinate data resulting 
# from the CCDC's data processing and validation procedures.
#
#######################################################################

data_RUHRET
_chemical_formula_moiety         'C42 H86 N6 O4 Sr2'
_chemical_name_systematic        
bis(\m-1-(dimethylamino)-2-methylpropan-2-olato)-bis(5-((2-(dimethylamino)ethyl)imino)-2,2,6,6-tetramethylhept-3-en-3-olato)-di-strontium
_symmetry_cell_setting           triclinic
_symmetry_space_group_name_H-M   'P -1'
_symmetry_Int_Tables_number      2
_space_group_name_Hall           '-P 1'
loop_
_symmetry_equiv_pos_site_id
_symmetry_equiv_pos_as_xyz
1 x,y,z
2 -x,-y,-z
_cell_length_a                   10.376(2)
_cell_length_b                   11.101(2)
_cell_length_c                   11.759(2)
_cell_angle_alpha                93.93(3)
_cell_angle_beta                 113.63(3)
_cell_angle_gamma                90.26(3)
_cell_volume                     1237.2
_exptl_crystal_colour            colorless
_exptl_crystal_description       block
_cell_formula_units_Z            1
_chemical_properties_physical    'Air-sensitive, Moisture-sensitive'
_exptl_crystal_recrystallization_method toluene
loop_
_atom_site_label
_atom_site_type_symbol
_atom_site_fract_x
_atom_site_fract_y
_atom_site_fract_z
Sr1 Sr 0.45531(7) 0.34004(6) 0.02754(7)
O1 O 0.5418(5) 0.4516(4) -0.1029(4)
N1 N 0.5946(6) 0.2043(5) -0.0888(6)
C1 C 0.5828(8) 0.3999(7) -0.1957(7)
C2 C 0.5705(8) 0.2608(6) -0.2043(7)
H1 H 0.4751 0.2352 -0.2660
H2 H 0.6386 0.2284 -0.2372
C3 C 0.4874(9) 0.4407(7) -0.3232(7)
H3 H 0.3893 0.4187 -0.3412
H4 H 0.5141 0.4011 -0.3873
H5 H 0.4979 0.5286 -0.3229
C4 C 0.7337(8) 0.4447(7) -0.1699(8)
H6 H 0.7358 0.5326 -0.1733
H7 H 0.7630 0.4064 -0.2329
H8 H 0.7980 0.4235 -0.0871
C5 C 0.7408(8) 0.2170(8) -0.0004(8)
H9 H 0.8017 0.1860 -0.0406
H10 H 0.7540 0.1711 0.0715
H11 H 0.7651 0.3025 0.0274
C6 C 0.5559(9) 0.0749(7) -0.1164(9)
H12 H 0.6134 0.0363 -0.1563
H13 H 0.4562 0.0646 -0.1724
H14 H 0.5723 0.0377 -0.0388
O2 O 0.5934(5) 0.2199(5) 0.1919(5)
N2 N 0.2861(6) 0.2179(5) 0.1058(5)
N3 N 0.1882(7) 0.3084(6) -0.1481(6)
C7 C 0.5842(7) 0.2160(6) 0.2962(7)
C8 C 0.4596(7) 0.2138(6) 0.3139(7)
H15 H 0.4712 0.2202 0.3985
C9 C 0.3161(7) 0.2034(6) 0.2247(7)
C10 C 0.7280(7) 0.2112(6) 0.4077(7)
C11 C 0.2028(7) 0.1750(7) 0.2772(7)
C12 C 0.8168(8) 0.3226(8) 0.4107(9)
H16 H 0.9132 0.3153 0.4724
H17 H 0.7761 0.3951 0.4332
H18 H 0.8180 0.3287 0.3284
C13 C 0.8002(9) 0.0981(8) 0.3843(8)
H19 H 0.8055 0.0993 0.3030
H20 H 0.7460 0.0260 0.3853
H21 H 0.8955 0.0967 0.4496
C14 C 0.7192(8) 0.2068(8) 0.5339(7)
H22 H 0.6658 0.1337 0.5338
H23 H 0.6717 0.2782 0.5495
H24 H 0.8143 0.2058 0.5995
C15 C 0.2635(9) 0.1730(9) 0.4196(8)
H25 H 0.1875 0.1553 0.4460
H26 H 0.3080 0.2520 0.4581
H27 H 0.3337 0.1106 0.4456
C16 C 0.1327(9) 0.0491(7) 0.2270(8)
H28 H 0.0618 0.0341 0.2602
H29 H 0.2043 -0.0123 0.2530
H30 H 0.0876 0.0452 0.1359
C17 C 0.0958(8) 0.2757(8) 0.2469(9)
H31 H 0.0573 0.2855 0.1573
H32 H 0.1426 0.3516 0.2927
H33 H 0.0193 0.2542 0.2713
C18 C 0.1482(8) 0.1868(8) 0.0077(7)
H34 H 0.0800 0.1744 0.0456
H35 H 0.1531 0.1098 -0.0379
C19 C 0.0968(8) 0.2828(7) -0.0826(8)
H36 H 0.0017 0.2578 -0.1454
H37 H 0.0877 0.3584 -0.0370
C20 C 0.1428(11) 0.4216(8) -0.2098(9)
H38 H 0.2001 0.4392 -0.2560
H39 H 0.1546 0.4881 -0.1468
H40 H 0.0435 0.4125 -0.2674
C21 C 0.1772(9) 0.2116(9) -0.2412(8)
H41 H 0.2123 0.1373 -0.2002
H42 H 0.2333 0.2336 -0.2872
H43 H 0.0784 0.1983 -0.2991
Sr1A Sr 0.54469(7) 0.65996(6) -0.02754(7)
O1A O 0.4582(5) 0.5484(4) 0.1029(4)
N1A N 0.4054(6) 0.7957(5) 0.0888(6)
C1A C 0.4172(8) 0.6001(7) 0.1957(7)
C2A C 0.4295(8) 0.7392(6) 0.2043(7)
H1A H 0.5249 0.7648 0.2660
H2A H 0.3614 0.7716 0.2372
C3A C 0.5126(9) 0.5593(7) 0.3232(7)
H3A H 0.6107 0.5813 0.3412
H4A H 0.4859 0.5989 0.3873
H5A H 0.5021 0.4714 0.3229
C4A C 0.2663(8) 0.5553(7) 0.1699(8)
H6A H 0.2642 0.4674 0.1733
H7A H 0.2370 0.5936 0.2329
H8A H 0.2020 0.5765 0.0871
C5A C 0.2592(8) 0.7830(8) 0.0004(8)
H9A H 0.1983 0.8140 0.0406
H10A H 0.2460 0.8289 -0.0715
H11A H 0.2349 0.6975 -0.0274
C6A C 0.4441(9) 0.9251(7) 0.1164(9)
H12A H 0.3866 0.9637 0.1563
H13A H 0.5438 0.9354 0.1724
H14A H 0.4277 0.9623 0.0388
O2A O 0.4066(5) 0.7801(5) -0.1919(5)
N2A N 0.7139(6) 0.7821(5) -0.1058(5)
N3A N 0.8118(7) 0.6916(6) 0.1481(6)
C7A C 0.4158(7) 0.7840(6) -0.2962(7)
C8A C 0.5404(7) 0.7862(6) -0.3139(7)
H15A H 0.5288 0.7798 -0.3985
C9A C 0.6839(7) 0.7966(6) -0.2247(7)
C10A C 0.2720(7) 0.7888(6) -0.4077(7)
C11A C 0.7972(7) 0.8250(7) -0.2772(7)
C12A C 0.1832(8) 0.6774(8) -0.4107(9)
H16A H 0.0868 0.6847 -0.4724
H17A H 0.2239 0.6049 -0.4332
H18A H 0.1820 0.6713 -0.3284
C13A C 0.1998(9) 0.9019(8) -0.3843(8)
H19A H 0.1945 0.9007 -0.3030
H20A H 0.2540 0.9740 -0.3853
H21A H 0.1045 0.9033 -0.4496
C14A C 0.2808(8) 0.7932(8) -0.5339(7)
H22A H 0.3342 0.8663 -0.5338
H23A H 0.3283 0.7218 -0.5495
H24A H 0.1857 0.7942 -0.5995
C15A C 0.7365(9) 0.8270(9) -0.4196(8)
H25A H 0.8125 0.8447 -0.4460
H26A H 0.6920 0.7480 -0.4581
H27A H 0.6663 0.8894 -0.4456
C16A C 0.8673(9) 0.9509(7) -0.2270(8)
H28A H 0.9382 0.9659 -0.2602
H29A H 0.7957 1.0123 -0.2530
H30A H 0.9124 0.9548 -0.1359
C17A C 0.9042(8) 0.7243(8) -0.2469(9)
H31A H 0.9427 0.7145 -0.1573
H32A H 0.8574 0.6484 -0.2927
H33A H 0.9807 0.7458 -0.2713
C18A C 0.8518(8) 0.8132(8) -0.0077(7)
H34A H 0.9200 0.8256 -0.0456
H35A H 0.8469 0.8902 0.0379
C19A C 0.9032(8) 0.7172(7) 0.0826(8)
H36A H 0.9983 0.7422 0.1454
H37A H 0.9123 0.6416 0.0370
C20A C 0.8572(11) 0.5784(8) 0.2098(9)
H38A H 0.7999 0.5608 0.2560
H39A H 0.8454 0.5119 0.1468
H40A H 0.9565 0.5875 0.2674
C21A C 0.8228(9) 0.7884(9) 0.2412(8)
H41A H 0.7877 0.8627 0.2002
H42A H 0.7667 0.7664 0.2872
H43A H 0.9216 0.8017 0.2991
loop_
_geom_bond_atom_site_label_1
_geom_bond_atom_site_label_2
_geom_bond_site_symmetry_1
_geom_bond_site_symmetry_2
Sr1 O1 1_555 1_555
O1 C1 1_555 1_555
N1 Sr1 1_555 1_555
C1 C2 1_555 1_555
C2 N1 1_555 1_555
H1 C2 1_555 1_555
H2 C2 1_555 1_555
C3 C1 1_555 1_555
H3 C3 1_555 1_555
H4 C3 1_555 1_555
H5 C3 1_555 1_555
C4 C1 1_555 1_555
H6 C4 1_555 1_555
H7 C4 1_555 1_555
H8 C4 1_555 1_555
C5 N1 1_555 1_555
H9 C5 1_555 1_555
H10 C5 1_555 1_555
H11 C5 1_555 1_555
C6 N1 1_555 1_555
H12 C6 1_555 1_555
H13 C6 1_555 1_555
H14 C6 1_555 1_555
O2 Sr1 1_555 1_555
N2 Sr1 1_555 1_555
N3 Sr1 1_555 1_555
C7 O2 1_555 1_555
C8 C7 1_555 1_555
H15 C8 1_555 1_555
C9 N2 1_555 1_555
C10 C7 1_555 1_555
C11 C9 1_555 1_555
C12 C10 1_555 1_555
H16 C12 1_555 1_555
H17 C12 1_555 1_555
H18 C12 1_555 1_555
C13 C10 1_555 1_555
H19 C13 1_555 1_555
H20 C13 1_555 1_555
H21 C13 1_555 1_555
C14 C10 1_555 1_555
H22 C14 1_555 1_555
H23 C14 1_555 1_555
H24 C14 1_555 1_555
C15 C11 1_555 1_555
H25 C15 1_555 1_555
H26 C15 1_555 1_555
H27 C15 1_555 1_555
C16 C11 1_555 1_555
H28 C16 1_555 1_555
H29 C16 1_555 1_555
H30 C16 1_555 1_555
C17 C11 1_555 1_555
H31 C17 1_555 1_555
H32 C17 1_555 1_555
H33 C17 1_555 1_555
C18 N2 1_555 1_555
H34 C18 1_555 1_555
H35 C18 1_555 1_555
C19 N3 1_555 1_555
H36 C19 1_555 1_555
H37 C19 1_555 1_555
C20 N3 1_555 1_555
H38 C20 1_555 1_555
H39 C20 1_555 1_555
H40 C20 1_555 1_555
C21 N3 1_555 1_555
H41 C21 1_555 1_555
H42 C21 1_555 1_555
H43 C21 1_555 1_555
Sr1A O1 1_555 1_555
O1A Sr1 1_555 1_555
N1A Sr1A 1_555 1_555
C1A O1A 1_555 1_555
C2A N1A 1_555 1_555
H1A C2A 1_555 1_555
H2A C2A 1_555 1_555
C3A C1A 1_555 1_555
H3A C3A 1_555 1_555
H4A C3A 1_555 1_555
H5A C3A 1_555 1_555
C4A C1A 1_555 1_555
H6A C4A 1_555 1_555
H7A C4A 1_555 1_555
H8A C4A 1_555 1_555
C5A N1A 1_555 1_555
H9A C5A 1_555 1_555
H10A C5A 1_555 1_555
H11A C5A 1_555 1_555
C6A N1A 1_555 1_555
H12A C6A 1_555 1_555
H13A C6A 1_555 1_555
H14A C6A 1_555 1_555
O2A Sr1A 1_555 1_555
N2A Sr1A 1_555 1_555
N3A Sr1A 1_555 1_555
C7A O2A 1_555 1_555
C8A C7A 1_555 1_555
H15A C8A 1_555 1_555
C9A N2A 1_555 1_555
C10A C7A 1_555 1_555
C11A C9A 1_555 1_555
C12A C10A 1_555 1_555
H16A C12A 1_555 1_555
H17A C12A 1_555 1_555
H18A C12A 1_555 1_555
C13A C10A 1_555 1_555
H19A C13A 1_555 1_555
H20A C13A 1_555 1_555
H21A C13A 1_555 1_555
C14A C10A 1_555 1_555
H22A C14A 1_555 1_555
H23A C14A 1_555 1_555
H24A C14A 1_555 1_555
C15A C11A 1_555 1_555
H25A C15A 1_555 1_555
H26A C15A 1_555 1_555
H27A C15A 1_555 1_555
C16A C11A 1_555 1_555
H28A C16A 1_555 1_555
H29A C16A 1_555 1_555
H30A C16A 1_555 1_555
C17A C11A 1_555 1_555
H31A C17A 1_555 1_555
H32A C17A 1_555 1_555
H33A C17A 1_555 1_555
C18A N2A 1_555 1_555
H34A C18A 1_555 1_555
H35A C18A 1_555 1_555
C19A N3A 1_555 1_555
H36A C19A 1_555 1_555
H37A C19A 1_555 1_555
C20A N3A 1_555 1_555
H38A C20A 1_555 1_555
H39A C20A 1_555 1_555
H40A C20A 1_555 1_555
C21A N3A 1_555 1_555
H41A C21A 1_555 1_555
H42A C21A 1_555 1_555
H43A C21A 1_555 1_555
C8 C9 1_555 1_555
C18 C19 1_555 1_555
Sr1A O1A 1_555 1_555
C1A C2A 1_555 1_555
C8A C9A 1_555 1_555
C18A C19A 1_555 1_555

#END
