
#######################################################################
#
#                 Cambridge Crystallographic Data Centre
#                                CCDC 
#
#######################################################################
#
# If this CIF has been generated from an entry in the Cambridge 
# Structural Database, then it will include bibliographic, chemical, 
# crystal, experimental, refinement or atomic coordinate data resulting 
# from the CCDC's data processing and validation procedures.
#
#######################################################################

data_RUHRAP
_chemical_formula_moiety         'C44 H98 N6 O2 Si4 Sr2,C7 H8'
_chemical_name_systematic        
'bis(\m~2~-5-((3-(dimethylamino)propyl)imino)-2,2,6,6-tetramethylhept-3-en-3-olato)-bis(N,N-bis(trimethylsilyl)amino)-di-strontium toluene solvate'
_symmetry_cell_setting           triclinic
_symmetry_space_group_name_H-M   'P -1'
_symmetry_Int_Tables_number      2
_space_group_name_Hall           '-P 1'
loop_
_symmetry_equiv_pos_site_id
_symmetry_equiv_pos_as_xyz
1 x,y,z
2 -x,-y,-z
_cell_length_a                   11.057(2)
_cell_length_b                   13.137(3)
_cell_length_c                   13.669(3)
_cell_angle_alpha                103.31(3)
_cell_angle_beta                 109.53(3)
_cell_angle_gamma                111.14(3)
_cell_volume                     1600.35
_exptl_crystal_colour            colorless
_exptl_crystal_description       block
_cell_formula_units_Z            1
_chemical_properties_physical    
'Air-sensitive, Moisture-sensitive, Hygroscopic'
_exptl_crystal_recrystallization_method toluene
loop_
_atom_site_label
_atom_site_type_symbol
_atom_site_fract_x
_atom_site_fract_y
_atom_site_fract_z
C23 C 0.0950(8) 0.9839(9) 0.9595(6)
C24 C 0.0338(9) 0.9064(8) 1.0067(7)
H50 H 0.0543 0.8426 1.0098
C25 C -0.0561(8) 0.9277(7) 1.0475(6)
H51 H -0.0942 0.8789 1.0828
C26 C 0.1746(16) 0.9605(15) 0.9259(12)
H52 H 0.1712 0.9833 0.8620
H53 H 0.1418 0.8749 0.9014
H54 H 0.2750 1.0045 0.9873
C23A C -0.0950(8) 1.0161(9) 1.0405(6)
C24A C -0.0338(9) 1.0936(8) 0.9933(7)
H50A H -0.0543 1.1574 0.9902
C25A C 0.0561(8) 1.0723(7) 0.9525(6)
H51A H 0.0942 1.1211 0.9172
C26A C -0.1746(16) 1.0395(15) 1.0741(12)
H52A H -0.1712 1.0167 1.1380
H53A H -0.1418 1.1251 1.0986
H54A H -0.2750 0.9955 1.0127
Sr1 Sr 0.52959(3) 0.86259(3) 0.45247(3)
O1 O 0.3422(3) 0.9201(2) 0.4613(2)
N1 N 0.4866(3) 0.8333(3) 0.6215(3)
N2 N 0.7040(4) 0.7674(3) 0.5496(3)
C1 C 0.2323(4) 0.8174(3) 0.4343(3)
C2 C 0.2372(4) 0.7449(3) 0.4917(3)
H1 H 0.1548 0.6679 0.4566
C3 C 0.3545(4) 0.7713(3) 0.6015(3)
C4 C 0.6178(5) 0.8790(4) 0.7278(3)
H2 H 0.5923 0.8916 0.7909
H3 H 0.6906 0.9573 0.7390
C5 C 0.6875(5) 0.7978(4) 0.7338(4)
H4 H 0.7494 0.8184 0.8144
H5 H 0.6090 0.7146 0.7016
C6 C 0.7799(5) 0.8040(4) 0.6725(4)
H6 H 0.8594 0.8870 0.7060
H7 H 0.8260 0.7534 0.6873
C7 C 0.0917(4) 0.7828(3) 0.3307(3)
C8 C 0.1219(5) 0.7738(4) 0.2280(3)
H8 H 0.1412 0.7066 0.2085
H9 H 0.2072 0.8476 0.2465
H10 H 0.0367 0.7614 0.1634
C9 C 0.0502(4) 0.8818(4) 0.3551(4)
H11 H -0.0355 0.8647 0.2880
H12 H 0.1321 0.9581 0.3741
H13 H 0.0275 0.8859 0.4189
C10 C -0.0392(4) 0.6653(4) 0.3007(4)
H14 H -0.0172 0.5997 0.2811
H15 H -0.1251 0.6518 0.2359
H16 H -0.0591 0.6691 0.3657
C11 C 0.2948(5) 0.7096(4) 0.6727(4)
C12 C 0.1559(6) 0.7153(6) 0.6644(5)
H17 H 0.1215 0.6778 0.7108
H18 H 0.0801 0.6731 0.5853
H19 H 0.1771 0.7986 0.6917
C13 C 0.3986(6) 0.7539(5) 0.7968(4)
H20 H 0.4175 0.8344 0.8373
H21 H 0.4907 0.7556 0.8044
H22 H 0.3548 0.7005 0.8290
C14 C 0.2536(6) 0.5783(4) 0.6145(5)
H23 H 0.3414 0.5727 0.6196
H24 H 0.1828 0.5466 0.5347
H25 H 0.2104 0.5321 0.6521
C15 C 0.8061(5) 0.7768(4) 0.5023(4)
H26 H 0.8868 0.8585 0.5397
H27 H 0.7554 0.7563 0.4209
H28 H 0.8447 0.7219 0.5145
C16 C 0.5905(5) 0.6413(4) 0.4969(4)
H29 H 0.5482 0.6136 0.4143
H30 H 0.5137 0.6337 0.5199
H31 H 0.6343 0.5931 0.5216
Si1 Si 0.54008(13) 0.80575(10) 0.19698(9)
Si2 Si 0.33838(14) 0.57676(10) 0.18334(10)
N3 N 0.4571(4) 0.7244(3) 0.2569(3)
C17 C 0.2278(6) 0.5172(4) 0.2552(5)
H32 H 0.2910 0.5164 0.3249
H33 H 0.1493 0.4361 0.2044
H34 H 0.1854 0.5682 0.2738
C18 C 0.4291(7) 0.4807(5) 0.1677(5)
H35 H 0.4787 0.4994 0.1217
H36 H 0.3551 0.3966 0.1305
H37 H 0.5006 0.4965 0.2426
C19 C 0.2044(6) 0.5377(5) 0.0355(4)
H38 H 0.1562 0.5872 0.0373
H39 H 0.1311 0.4536 0.0019
H40 H 0.2560 0.5520 -0.0100
C20 C 0.6071(6) 0.7332(4) 0.1071(4)
H41 H 0.6824 0.7185 0.1543
H42 H 0.6484 0.7858 0.0733
H43 H 0.5254 0.6574 0.0470
C21 C 0.4246(7) 0.8550(5) 0.1061(4)
H44 H 0.3528 0.7883 0.0331
H45 H 0.4868 0.9206 0.0938
H46 H 0.3738 0.8820 0.1438
C22 C 0.7073(5) 0.9477(4) 0.3113(4)
H47 H 0.6772 0.9985 0.3506
H48 H 0.7620 0.9899 0.2769
H49 H 0.7695 0.9282 0.3655
Sr1A Sr 0.47041(3) 1.13741(3) 0.54753(3)
O1A O 0.6578(3) 1.0799(2) 0.5387(2)
N1A N 0.5134(3) 1.1667(3) 0.3785(3)
N2A N 0.2960(4) 1.2326(3) 0.4504(3)
C1A C 0.7677(4) 1.1826(3) 0.5657(3)
C2A C 0.7628(4) 1.2551(3) 0.5083(3)
H1A H 0.8452 1.3321 0.5434
C3A C 0.6455(4) 1.2287(3) 0.3985(3)
C4A C 0.3822(5) 1.1210(4) 0.2722(3)
H2A H 0.4077 1.1084 0.2091
H3A H 0.3094 1.0427 0.2610
C5A C 0.3125(5) 1.2022(4) 0.2662(4)
H4A H 0.2506 1.1816 0.1856
H5A H 0.3910 1.2854 0.2984
C6A C 0.2201(5) 1.1960(4) 0.3275(4)
H6A H 0.1406 1.1130 0.2940
H7A H 0.1740 1.2466 0.3127
C7A C 0.9083(4) 1.2172(3) 0.6693(3)
C8A C 0.8781(5) 1.2262(4) 0.7720(3)
H8A H 0.8588 1.2934 0.7915
H9A H 0.7928 1.1524 0.7535
H10A H 0.9633 1.2386 0.8366
C9A C 0.9498(4) 1.1182(4) 0.6449(4)
H11A H 1.0355 1.1353 0.7120
H12A H 0.8679 1.0419 0.6259
H13A H 0.9725 1.1141 0.5811
C10A C 1.0392(4) 1.3347(4) 0.6993(4)
H14A H 1.0172 1.4003 0.7189
H15A H 1.1251 1.3482 0.7641
H16A H 1.0591 1.3309 0.6343
C11A C 0.7052(5) 1.2904(4) 0.3273(4)
C12A C 0.8441(6) 1.2847(6) 0.3356(5)
H17A H 0.8785 1.3222 0.2892
H18A H 0.9199 1.3269 0.4147
H19A H 0.8229 1.2014 0.3083
C13A C 0.6014(6) 1.2461(5) 0.2032(4)
H20A H 0.5825 1.1656 0.1627
H21A H 0.5093 1.2444 0.1956
H22A H 0.6452 1.2995 0.1710
C14A C 0.7464(6) 1.4217(4) 0.3855(5)
H23A H 0.6586 1.4273 0.3804
H24A H 0.8172 1.4534 0.4653
H25A H 0.7896 1.4679 0.3479
C15A C 0.1939(5) 1.2232(4) 0.4977(4)
H26A H 0.1132 1.1415 0.4603
H27A H 0.2446 1.2437 0.5791
H28A H 0.1553 1.2781 0.4855
C16A C 0.4095(5) 1.3587(4) 0.5031(4)
H29A H 0.4518 1.3864 0.5857
H30A H 0.4863 1.3663 0.4801
H31A H 0.3657 1.4069 0.4784
Si1A Si 0.45992(13) 1.19425(10) 0.80302(9)
Si2A Si 0.66162(14) 1.42324(10) 0.81666(10)
N3A N 0.5429(4) 1.2756(3) 0.7431(3)
C17A C 0.7722(6) 1.4828(4) 0.7448(5)
H32A H 0.7090 1.4836 0.6751
H33A H 0.8507 1.5639 0.7956
H34A H 0.8146 1.4318 0.7262
C18A C 0.5709(7) 1.5193(5) 0.8323(5)
H35A H 0.5213 1.5006 0.8783
H36A H 0.6449 1.6034 0.8695
H37A H 0.4994 1.5035 0.7574
C19A C 0.7956(6) 1.4623(5) 0.9645(4)
H38A H 0.8438 1.4128 0.9627
H39A H 0.8689 1.5464 0.9981
H40A H 0.7440 1.4480 1.0100
C20A C 0.3929(6) 1.2668(4) 0.8929(4)
H41A H 0.3176 1.2815 0.8457
H42A H 0.3516 1.2142 0.9267
H43A H 0.4746 1.3426 0.9530
C21A C 0.5754(7) 1.1450(5) 0.8939(4)
H44A H 0.6472 1.2117 0.9669
H45A H 0.5132 1.0794 0.9062
H46A H 0.6262 1.1180 0.8562
C22A C 0.2927(5) 1.0523(4) 0.6887(4)
H47A H 0.3228 1.0015 0.6494
H48A H 0.2380 1.0101 0.7231
H49A H 0.2305 1.0718 0.6345
loop_
_geom_bond_atom_site_label_1
_geom_bond_atom_site_label_2
_geom_bond_site_symmetry_1
_geom_bond_site_symmetry_2
Sr1 O1 1_555 1_555
O1 C1 1_555 1_555
N1 Sr1 1_555 1_555
N2 Sr1 1_555 1_555
C1 C2 1_555 1_555
C2 H1 1_555 1_555
C3 N1 1_555 1_555
C4 N1 1_555 1_555
H2 C4 1_555 1_555
H3 C4 1_555 1_555
C5 C4 1_555 1_555
H4 C5 1_555 1_555
H5 C5 1_555 1_555
C6 N2 1_555 1_555
H6 C6 1_555 1_555
H7 C6 1_555 1_555
C7 C1 1_555 1_555
C8 C7 1_555 1_555
H8 C8 1_555 1_555
H9 C8 1_555 1_555
H10 C8 1_555 1_555
C9 C7 1_555 1_555
H11 C9 1_555 1_555
H12 C9 1_555 1_555
H13 C9 1_555 1_555
C10 C7 1_555 1_555
H14 C10 1_555 1_555
H15 C10 1_555 1_555
H16 C10 1_555 1_555
C11 C3 1_555 1_555
C12 C11 1_555 1_555
H17 C12 1_555 1_555
H18 C12 1_555 1_555
H19 C12 1_555 1_555
C13 C11 1_555 1_555
H20 C13 1_555 1_555
H21 C13 1_555 1_555
H22 C13 1_555 1_555
C14 C11 1_555 1_555
H23 C14 1_555 1_555
H24 C14 1_555 1_555
H25 C14 1_555 1_555
C15 N2 1_555 1_555
H26 C15 1_555 1_555
H27 C15 1_555 1_555
H28 C15 1_555 1_555
C16 N2 1_555 1_555
H29 C16 1_555 1_555
H30 C16 1_555 1_555
H31 C16 1_555 1_555
Si1 N3 1_555 1_555
Si2 N3 1_555 1_555
N3 Sr1 1_555 1_555
C17 Si2 1_555 1_555
H32 C17 1_555 1_555
H33 C17 1_555 1_555
H34 C17 1_555 1_555
C18 Si2 1_555 1_555
H35 C18 1_555 1_555
H36 C18 1_555 1_555
H37 C18 1_555 1_555
C19 Si2 1_555 1_555
H38 C19 1_555 1_555
H39 C19 1_555 1_555
H40 C19 1_555 1_555
C20 Si1 1_555 1_555
H41 C20 1_555 1_555
H42 C20 1_555 1_555
H43 C20 1_555 1_555
C21 Si1 1_555 1_555
H44 C21 1_555 1_555
H45 C21 1_555 1_555
H46 C21 1_555 1_555
C22 Si1 1_555 1_555
H47 C22 1_555 1_555
H48 C22 1_555 1_555
H49 C22 1_555 1_555
C23 C24 1_555 1_555
C24 H50 1_555 1_555
C25 C24 1_555 1_555
H51 C25 1_555 1_555
C26 C23 1_555 1_555
H52 C26 1_555 1_555
H53 C26 1_555 1_555
H54 C26 1_555 1_555
Sr1A O1 1_555 1_555
O1A Sr1 1_555 1_555
N1A Sr1A 1_555 1_555
N2A Sr1A 1_555 1_555
C1A O1A 1_555 1_555
C2A C1A 1_555 1_555
H1A C2A 1_555 1_555
C3A N1A 1_555 1_555
C4A N1A 1_555 1_555
H2A C4A 1_555 1_555
H3A C4A 1_555 1_555
C5A C4A 1_555 1_555
H4A C5A 1_555 1_555
H5A C5A 1_555 1_555
C6A N2A 1_555 1_555
H6A C6A 1_555 1_555
H7A C6A 1_555 1_555
C7A C1A 1_555 1_555
C8A C7A 1_555 1_555
H8A C8A 1_555 1_555
H9A C8A 1_555 1_555
H10A C8A 1_555 1_555
C9A C7A 1_555 1_555
H11A C9A 1_555 1_555
H12A C9A 1_555 1_555
H13A C9A 1_555 1_555
C10A C7A 1_555 1_555
H14A C10A 1_555 1_555
H15A C10A 1_555 1_555
H16A C10A 1_555 1_555
C11A C3A 1_555 1_555
C12A C11A 1_555 1_555
H17A C12A 1_555 1_555
H18A C12A 1_555 1_555
H19A C12A 1_555 1_555
C13A C11A 1_555 1_555
H20A C13A 1_555 1_555
H21A C13A 1_555 1_555
H22A C13A 1_555 1_555
C14A C11A 1_555 1_555
H23A C14A 1_555 1_555
H24A C14A 1_555 1_555
H25A C14A 1_555 1_555
C15A N2A 1_555 1_555
H26A C15A 1_555 1_555
H27A C15A 1_555 1_555
H28A C15A 1_555 1_555
C16A N2A 1_555 1_555
H29A C16A 1_555 1_555
H30A C16A 1_555 1_555
H31A C16A 1_555 1_555
Si1A N3A 1_555 1_555
Si2A N3A 1_555 1_555
N3A Sr1A 1_555 1_555
C17A Si2A 1_555 1_555
H32A C17A 1_555 1_555
H33A C17A 1_555 1_555
H34A C17A 1_555 1_555
C18A Si2A 1_555 1_555
H35A C18A 1_555 1_555
H36A C18A 1_555 1_555
H37A C18A 1_555 1_555
C19A Si2A 1_555 1_555
H38A C19A 1_555 1_555
H39A C19A 1_555 1_555
H40A C19A 1_555 1_555
C20A Si1A 1_555 1_555
H41A C20A 1_555 1_555
H42A C20A 1_555 1_555
H43A C20A 1_555 1_555
C21A Si1A 1_555 1_555
H44A C21A 1_555 1_555
H45A C21A 1_555 1_555
H46A C21A 1_555 1_555
C22A Si1A 1_555 1_555
H47A C22A 1_555 1_555
H48A C22A 1_555 1_555
H49A C22A 1_555 1_555
C23A C25 1_555 1_555
C24A C23A 1_555 1_555
H50A C24A 1_555 1_555
C25A C23 1_555 1_555
H51A C25A 1_555 1_555
C26A C23A 1_555 1_555
H52A C26A 1_555 1_555
H53A C26A 1_555 1_555
H54A C26A 1_555 1_555
C2 C3 1_555 1_555
C5 C6 1_555 1_555
Sr1A O1A 1_555 1_555
C2A C3A 1_555 1_555
C5A C6A 1_555 1_555
C24A C25A 1_555 1_555

#END
