
#######################################################################
#
#                 Cambridge Crystallographic Data Centre
#                                CCDC 
#
#######################################################################
#
# If this CIF has been generated from an entry in the Cambridge 
# Structural Database, then it will include bibliographic, chemical, 
# crystal, experimental, refinement or atomic coordinate data resulting 
# from the CCDC's data processing and validation procedures.
#
#######################################################################

data_RUHYEZ
_chemical_formula_moiety         'C19 H15 F3 O5 S1'
_chemical_name_systematic        
2,4-Dibenzyl-3-trifluoromethanesulfonato-2,5-dihydrofuran-5-one
_symmetry_cell_setting           orthorhombic
_symmetry_space_group_name_H-M   'P 21 21 21'
_symmetry_Int_Tables_number      19
_space_group_name_Hall           'P 2ac 2ab'
loop_
_symmetry_equiv_pos_site_id
_symmetry_equiv_pos_as_xyz
1 x,y,z
2 1/2-x,-y,1/2+z
3 -x,1/2+y,1/2-z
4 1/2+x,1/2-y,-z
_cell_length_a                   7.0114(8)
_cell_length_b                   7.4934(7)
_cell_length_c                   34.767(3)
_cell_angle_alpha                90
_cell_angle_beta                 90
_cell_angle_gamma                90
_cell_volume                     1826.63
_exptl_crystal_colour            colorless
_exptl_crystal_description       plate
_chemical_melting_point          64.2-67.7deg.C
_cell_formula_units_Z            4
loop_
_atom_site_label
_atom_site_type_symbol
_atom_site_fract_x
_atom_site_fract_y
_atom_site_fract_z
S1 S 0.35860(5) 0.54808(4) 0.966416(8)
F1 F 0.27757(11) 0.36019(8) 1.025955(17)
F2 F 0.20058(11) 0.23584(8) 0.972295(18)
F3 F 0.03026(11) 0.45068(9) 0.994650(19)
O1 O -0.14557(12) 0.86565(10) 0.91027(2)
O2 O -0.01133(14) 1.13060(11) 0.89661(2)
O3 O 0.24862(12) 0.56280(10) 0.92680(2)
O4 O 0.34912(15) 0.71086(10) 0.98679(2)
O5 O 0.53104(13) 0.45719(12) 0.95864(2)
C1 C 0.00801(19) 0.97540(15) 0.90383(3)
C2 C 0.18650(19) 0.87214(16) 0.90874(3)
C3 C 0.13099(19) 0.71184(15) 0.91934(3)
C4 C -0.08120(19) 0.68771(15) 0.92024(3)
C5 C 0.3791(2) 0.95008(18) 0.90217(3)
C6 C 0.41466(18) 1.01157(15) 0.86104(3)
C7 C 0.32027(19) 0.93441(16) 0.83011(3)
C8 C 0.3616(2) 0.98619(16) 0.79272(3)
C9 C 0.4986(2) 1.11421(17) 0.78583(4)
C10 C 0.5940(2) 1.19239(18) 0.81644(4)
C11 C 0.5508(2) 1.14126(17) 0.85382(4)
C12 C 0.2061(2) 0.38711(15) 0.99123(3)
C13 C -0.1592(2) 0.54982(17) 0.89212(3)
C14 C -0.09184(18) 0.57260(15) 0.85157(3)
C15 C -0.1835(2) 0.69091(16) 0.82696(4)
C16 C -0.1232(2) 0.71194(17) 0.78931(3)
C17 C 0.0292(2) 0.61340(17) 0.77563(3)
C18 C 0.1227(2) 0.49682(17) 0.79984(3)
C19 C 0.06225(19) 0.47563(16) 0.83745(3)
H1 H -0.1306(17) 0.6650(12) 0.9455(3)
H2 H 0.3917(18) 1.0476(16) 0.9204(3)
H3 H 0.479(2) 0.8661(17) 0.9100(3)
H4 H 0.2261(18) 0.8488(15) 0.8339(3)
H5 H 0.2946(16) 0.9333(13) 0.7724(3)
H6 H 0.521(2) 1.1484(17) 0.7603(3)
H7 H 0.682(2) 1.2801(18) 0.8131(4)
H8 H 0.6105(19) 1.1943(15) 0.8745(3)
H9 H -0.1294(18) 0.4359(15) 0.9010(3)
H10 H -0.2990(18) 0.5539(15) 0.8932(3)
H11 H -0.286(2) 0.7581(15) 0.8357(3)
H12 H -0.1894(19) 0.7977(15) 0.7721(4)
H13 H 0.0730(18) 0.6258(15) 0.7495(3)
H14 H 0.219(2) 0.4315(16) 0.7905(3)
H15 H 0.1169(17) 0.3962(14) 0.8523(3)
loop_
_geom_bond_atom_site_label_1
_geom_bond_atom_site_label_2
_geom_bond_site_symmetry_1
_geom_bond_site_symmetry_2
S1 O3 1_555 1_555
F1 C12 1_555 1_555
F2 C12 1_555 1_555
F3 C12 1_555 1_555
O1 C1 1_555 1_555
O2 C1 1_555 1_555
O3 C3 1_555 1_555
O4 S1 1_555 1_555
O5 S1 1_555 1_555
C1 C2 1_555 1_555
C2 C3 1_555 1_555
C3 C4 1_555 1_555
C4 O1 1_555 1_555
C5 C2 1_555 1_555
C6 C5 1_555 1_555
C7 C6 1_555 1_555
C8 C7 1_555 1_555
C9 C8 1_555 1_555
C10 C9 1_555 1_555
C11 C6 1_555 1_555
C12 S1 1_555 1_555
C13 C4 1_555 1_555
C14 C13 1_555 1_555
C15 C14 1_555 1_555
C16 C15 1_555 1_555
C17 C16 1_555 1_555
C18 C17 1_555 1_555
C19 C14 1_555 1_555
H1 C4 1_555 1_555
H2 C5 1_555 1_555
H3 C5 1_555 1_555
H4 C7 1_555 1_555
H5 C8 1_555 1_555
H6 C9 1_555 1_555
H7 C10 1_555 1_555
H8 C11 1_555 1_555
H9 C13 1_555 1_555
H10 C13 1_555 1_555
H11 C15 1_555 1_555
H12 C16 1_555 1_555
H13 C17 1_555 1_555
H14 C18 1_555 1_555
H15 C19 1_555 1_555
C10 C11 1_555 1_555
C18 C19 1_555 1_555

#END
