
#######################################################################
#
#                 Cambridge Crystallographic Data Centre
#                                CCDC 
#
#######################################################################
#
# If this CIF has been generated from an entry in the Cambridge 
# Structural Database, then it will include bibliographic, chemical, 
# crystal, experimental, refinement or atomic coordinate data resulting 
# from the CCDC's data processing and validation procedures.
#
#######################################################################

data_RUJFEH
_chemical_formula_moiety         'C24 H22 N2 O1'
_chemical_name_systematic        
2-(2-(2-Methylaminobenzyl)benzoyl)-1-methyl-1H-indole
_symmetry_cell_setting           monoclinic
_symmetry_space_group_name_H-M   'P 21/c'
_symmetry_Int_Tables_number      14
_space_group_name_Hall           '-P 2ybc'
loop_
_symmetry_equiv_pos_site_id
_symmetry_equiv_pos_as_xyz
1 x,y,z
2 -x,1/2+y,1/2-z
3 -x,-y,-z
4 x,1/2-y,1/2+z
_cell_length_a                   12.5320(3)
_cell_length_b                   7.2444(2)
_cell_length_c                   21.1770(7)
_cell_angle_alpha                90
_cell_angle_beta                 96.382(3)
_cell_angle_gamma                90
_cell_volume                     1910.68
_exptl_crystal_colour            colorless
_exptl_crystal_description       'rectangular block'
_chemical_melting_point          397K
_cell_formula_units_Z            4
loop_
_atom_site_label
_atom_site_type_symbol
_atom_site_fract_x
_atom_site_fract_y
_atom_site_fract_z
O1 O 0.86589(9) 0.6626(2) 0.53916(7)
N1 N 0.91886(9) 0.3465(2) 0.61853(6)
C1 C 0.90972(12) 0.1845(2) 0.65101(7)
C2 C 0.98913(14) 0.0597(3) 0.67504(8)
H1 H 1.06156(14) 0.0788(3) 0.67003(8)
C3 C 0.9570(2) -0.0926(3) 0.70629(9)
H2 H 1.0049(2) -0.1990(3) 0.72127(9)
C4 C 0.8481(2) -0.1226(3) 0.71476(10)
H3 H 0.8296(2) -0.2400(3) 0.73389(10)
C5 C 0.7705(2) -0.0015(3) 0.69104(9)
H4 H 0.6945(2) -0.0396(3) 0.69566(9)
C6 C 0.80027(12) 0.1545(2) 0.65747(7)
C7 C 0.74286(12) 0.3014(2) 0.62617(7)
H5 H 0.66836(12) 0.3202(2) 0.61798(7)
C8 C 0.81630(11) 0.4178(2) 0.60261(7)
C9 C 0.79462(11) 0.5807(2) 0.56281(7)
C10 C 0.68025(10) 0.6442(2) 0.54971(7)
C11 C 0.62265(13) 0.6801(2) 0.60140(8)
H6 H 0.65526(13) 0.6599(2) 0.64503(8)
C12 C 0.51920(13) 0.7511(2) 0.59161(9)
H7 H 0.48053(13) 0.7797(2) 0.62803(9)
C13 C 0.47256(12) 0.7831(2) 0.53094(9)
H8 H 0.40455(12) 0.8396(2) 0.52316(9)
C14 C 0.52880(11) 0.7467(2) 0.47952(8)
H9 H 0.49556(11) 0.7803(2) 0.43585(8)
C15 C 0.63330(10) 0.6782(2) 0.48779(7)
C16 C 0.68702(12) 0.6336(2) 0.42844(7)
H10 H 0.65318(12) 0.5210(2) 0.41047(7)
H11 H 0.75748(12) 0.6010(2) 0.44077(7)
C17 C 0.67978(12) 0.7870(2) 0.38006(7)
C18 C 0.6118(2) 0.7702(3) 0.32375(8)
H12 H 0.5701(2) 0.6401(3) 0.31680(8)
C19 C 0.6020(2) 0.9084(4) 0.27854(9)
H13 H 0.5510(2) 0.8993(4) 0.23984(9)
C20 C 0.6621(2) 1.0651(4) 0.28890(9)
H14 H 0.6605(2) 1.1791(4) 0.26107(9)
C21 C 0.73063(15) 1.0883(3) 0.34441(9)
H15 H 0.77056(15) 1.1990(3) 0.35427(9)
C22 C 0.74035(12) 0.9501(2) 0.39134(7)
N2 N 0.80695(12) 0.9700(2) 0.44658(7)
H16 H 0.81439(12) 0.8804(2) 0.47433(7)
C23 C 0.8687(2) 1.1319(3) 0.46326(11)
H17 H 0.8239(2) 1.2388(3) 0.46121(11)
H18 H 0.9031(2) 1.1188(3) 0.50431(11)
H19 H 0.9252(2) 1.1598(3) 0.43026(11)
C24 C 1.02110(12) 0.4265(3) 0.60643(9)
H20 H 1.07830(12) 0.3595(3) 0.63145(9)
H21 H 1.02090(12) 0.5595(3) 0.61685(9)
H22 H 1.02590(12) 0.4395(3) 0.56475(9)
loop_
_geom_bond_atom_site_label_1
_geom_bond_atom_site_label_2
_geom_bond_site_symmetry_1
_geom_bond_site_symmetry_2
O1 C9 1_555 1_555
N1 C1 1_555 1_555
C1 C2 1_555 1_555
C2 H1 1_555 1_555
C3 C2 1_555 1_555
H2 C3 1_555 1_555
C4 C3 1_555 1_555
H3 C4 1_555 1_555
C5 C4 1_555 1_555
H4 C5 1_555 1_555
C6 C1 1_555 1_555
C7 C6 1_555 1_555
H5 C7 1_555 1_555
C8 N1 1_555 1_555
C9 C8 1_555 1_555
C10 C9 1_555 1_555
C11 C10 1_555 1_555
H6 C11 1_555 1_555
C12 C11 1_555 1_555
H7 C12 1_555 1_555
C13 C12 1_555 1_555
H8 C13 1_555 1_555
C14 C13 1_555 1_555
H9 C14 1_555 1_555
C15 C10 1_555 1_555
C16 C15 1_555 1_555
H10 C16 1_555 1_555
H11 C16 1_555 1_555
C17 C16 1_555 1_555
C18 C17 1_555 1_555
H12 C18 1_555 1_555
C19 C18 1_555 1_555
H13 C19 1_555 1_555
C20 C19 1_555 1_555
H14 C20 1_555 1_555
C21 C20 1_555 1_555
H15 C21 1_555 1_555
C22 C17 1_555 1_555
N2 C22 1_555 1_555
H16 N2 1_555 1_555
C23 N2 1_555 1_555
H17 C23 1_555 1_555
H18 C23 1_555 1_555
H19 C23 1_555 1_555
C24 N1 1_555 1_555
H20 C24 1_555 1_555
H21 C24 1_555 1_555
H22 C24 1_555 1_555
C5 C6 1_555 1_555
C7 C8 1_555 1_555
C14 C15 1_555 1_555
C21 C22 1_555 1_555

#END
