
#######################################################################
#
#                 Cambridge Crystallographic Data Centre
#                                CCDC 
#
#######################################################################
#
# If this CIF has been generated from an entry in the Cambridge 
# Structural Database, then it will include bibliographic, chemical, 
# crystal, experimental, refinement or atomic coordinate data resulting 
# from the CCDC's data processing and validation procedures.
#
#######################################################################

data_RUJFUX
_chemical_formula_moiety         'C28 H20 N2 O4 S2'
_chemical_name_systematic        N,N'-Diphenylsulfonyl-2,2'-bi-indolyl
_symmetry_cell_setting           monoclinic
_symmetry_space_group_name_H-M   'P 21/n'
_symmetry_Int_Tables_number      14
_space_group_name_Hall           '-P 2yn'
loop_
_symmetry_equiv_pos_site_id
_symmetry_equiv_pos_as_xyz
1 x,y,z
2 1/2-x,1/2+y,1/2-z
3 -x,-y,-z
4 1/2+x,1/2-y,1/2+z
_cell_length_a                   10.9749(4)
_cell_length_b                   17.6600(10)
_cell_length_c                   12.2337(6)
_cell_angle_alpha                90
_cell_angle_beta                 94.157(3)
_cell_angle_gamma                90
_cell_volume                     2364.86
_exptl_crystal_colour            colorless
_exptl_crystal_description       'rectangular block'
_chemical_melting_point          501K
_cell_formula_units_Z            4
loop_
_atom_site_label
_atom_site_type_symbol
_atom_site_fract_x
_atom_site_fract_y
_atom_site_fract_z
S1 S 0.30209(5) 0.02138(3) 0.22065(5)
O1 O 0.39488(15) -0.01630(10) 0.28697(14)
O2 O 0.2879(2) 0.10084(9) 0.2287(2)
S2 S 0.01753(5) 0.15723(3) 0.38006(4)
O3 O 0.0379(2) 0.23368(9) 0.41211(14)
O4 O 0.09690(15) 0.09895(9) 0.42120(13)
N1 N 0.0228(2) 0.15670(9) 0.24371(15)
C1 C 0.0247(2) 0.08975(12) 0.1792(2)
C2 C -0.0181(2) 0.10638(13) 0.0756(2)
H1 H -0.0395(2) 0.06819(13) 0.0187(2)
C3 C -0.0535(2) 0.18423(13) 0.0703(2)
C4 C -0.1069(2) 0.2294(2) -0.0144(2)
H2 H -0.1395(2) 0.2048(2) -0.0835(2)
C5 C -0.1361(2) 0.3032(2) 0.0090(2)
H3 H -0.1793(2) 0.3383(2) -0.0470(2)
C6 C -0.1088(3) 0.33298(15) 0.1133(3)
H4 H -0.1196(3) 0.38944(15) 0.1281(3)
C7 C -0.0543(2) 0.29004(13) 0.1983(2)
H5 H -0.0205(2) 0.31556(13) 0.2725(2)
C8 C -0.0287(2) 0.21490(12) 0.1752(2)
N2 N 0.1702(2) -0.01716(9) 0.25142(15)
C9 C 0.0524(2) 0.01320(12) 0.2216(2)
C10 C -0.0311(2) -0.04088(13) 0.2341(2)
H6 H -0.1196(2) -0.03250(13) 0.2197(2)
C11 C 0.0292(2) -0.10917(12) 0.2706(2)
C12 C -0.0133(2) -0.18154(14) 0.2969(2)
H7 H -0.0990(2) -0.19262(14) 0.2897(2)
C13 C 0.0709(3) -0.23681(14) 0.3261(2)
H8 H 0.0403(3) -0.28821(14) 0.3375(2)
C14 C 0.1951(2) -0.22096(13) 0.3319(2)
H9 H 0.2396(2) -0.26316(13) 0.3544(2)
C15 C 0.2393(2) -0.15015(12) 0.3107(2)
H10 H 0.3191(2) -0.13721(12) 0.3212(2)
C16 C 0.1544(2) -0.09435(11) 0.2788(2)
C17 C -0.1344(2) 0.13138(13) 0.4010(2)
C18 C -0.1576(2) 0.05935(14) 0.4390(2)
H11 H -0.0808(2) 0.02335(14) 0.4547(2)
C19 C -0.2770(3) 0.0387(2) 0.4552(2)
H12 H -0.2998(3) -0.0147(2) 0.4832(2)
C20 C -0.3707(3) 0.0893(2) 0.4322(2)
H13 H -0.4592(3) 0.0736(2) 0.4384(2)
C21 C -0.3468(3) 0.1610(2) 0.3950(3)
H14 H -0.4190(3) 0.1942(2) 0.3763(3)
C22 C -0.2280(3) 0.1831(2) 0.3793(2)
H15 H -0.2008(3) 0.2358(2) 0.3582(2)
C23 C 0.3177(2) -0.0034(2) 0.0830(2)
C24 C 0.3354(3) -0.0785(2) 0.0560(2)
H16 H 0.3394(3) -0.1237(2) 0.1164(2)
C25 C 0.3522(3) -0.0983(3) -0.0518(3)
H17 H 0.3597(3) -0.1637(3) -0.0653(3)
C26 C 0.3550(3) -0.0420(3) -0.1289(3)
H18 H 0.3600(3) -0.0433(3) -0.2203(3)
C27 C 0.3393(3) 0.0318(3) -0.1033(3)
H19 H 0.3406(3) 0.0796(3) -0.1474(3)
C28 C 0.3183(3) 0.0541(2) 0.0057(3)
H20 H 0.3007(3) 0.1124(2) 0.0211(3)
loop_
_geom_bond_atom_site_label_1
_geom_bond_atom_site_label_2
_geom_bond_site_symmetry_1
_geom_bond_site_symmetry_2
S1 O1 1_555 1_555
O2 S1 1_555 1_555
S2 O3 1_555 1_555
O4 S2 1_555 1_555
N1 S2 1_555 1_555
C1 N1 1_555 1_555
C2 C1 1_555 1_555
H1 C2 1_555 1_555
C3 C2 1_555 1_555
C4 C3 1_555 1_555
H2 C4 1_555 1_555
C5 C4 1_555 1_555
H3 C5 1_555 1_555
C6 C5 1_555 1_555
H4 C6 1_555 1_555
C7 C6 1_555 1_555
H5 C7 1_555 1_555
C8 N1 1_555 1_555
N2 S1 1_555 1_555
C9 C1 1_555 1_555
C10 C9 1_555 1_555
H6 C10 1_555 1_555
C11 C10 1_555 1_555
C12 C11 1_555 1_555
H7 C12 1_555 1_555
C13 C12 1_555 1_555
H8 C13 1_555 1_555
C14 C13 1_555 1_555
H9 C14 1_555 1_555
C15 C14 1_555 1_555
H10 C15 1_555 1_555
C16 N2 1_555 1_555
C17 S2 1_555 1_555
C18 C17 1_555 1_555
H11 C18 1_555 1_555
C19 C18 1_555 1_555
H12 C19 1_555 1_555
C20 C19 1_555 1_555
H13 C20 1_555 1_555
C21 C20 1_555 1_555
H14 C21 1_555 1_555
C22 C17 1_555 1_555
H15 C22 1_555 1_555
C23 S1 1_555 1_555
C24 C23 1_555 1_555
H16 C24 1_555 1_555
C25 C24 1_555 1_555
H17 C25 1_555 1_555
C26 C25 1_555 1_555
H18 C26 1_555 1_555
C27 C26 1_555 1_555
H19 C27 1_555 1_555
C28 C23 1_555 1_555
H20 C28 1_555 1_555
C3 C8 1_555 1_555
C7 C8 1_555 1_555
N2 C9 1_555 1_555
C11 C16 1_555 1_555
C15 C16 1_555 1_555
C21 C22 1_555 1_555
C27 C28 1_555 1_555

#END
