
#######################################################################
#
#                 Cambridge Crystallographic Data Centre
#                                CCDC 
#
#######################################################################
#
# If this CIF has been generated from an entry in the Cambridge 
# Structural Database, then it will include bibliographic, chemical, 
# crystal, experimental, refinement or atomic coordinate data resulting 
# from the CCDC's data processing and validation procedures.
#
#######################################################################

data_RUJFAF
_chemical_formula_moiety         'C25 H19 Cl1 N4 O1 S1'
_chemical_name_systematic        
2-(1-benzyl-3-phenyl-1H-pyrazol-5-yl)-5-((4-chlorobenzyl)sulfanyl)-1,3,4-oxadiazole
_symmetry_cell_setting           monoclinic
_symmetry_space_group_name_H-M   'P 21/c'
_symmetry_Int_Tables_number      14
_space_group_name_Hall           '-P 2ybc'
loop_
_symmetry_equiv_pos_site_id
_symmetry_equiv_pos_as_xyz
1 x,y,z
2 -x,1/2+y,1/2-z
3 -x,-y,-z
4 x,1/2-y,1/2+z
_cell_length_a                   16.896(3)
_cell_length_b                   11.464(2)
_cell_length_c                   12.210(2)
_cell_angle_alpha                90
_cell_angle_beta                 110.201(3)
_cell_angle_gamma                90
_cell_volume                     2219.55
_exptl_crystal_colour            colorless
_exptl_crystal_description       block
_cell_formula_units_Z            4
_exptl_crystal_recrystallization_method Dichloromethane/ethanol
loop_
_atom_site_label
_atom_site_type_symbol
_atom_site_fract_x
_atom_site_fract_y
_atom_site_fract_z
C1 C -0.18257(12) 0.18745(16) 0.39080(17)
C2 C -0.22486(14) 0.1346(2) 0.28492(19)
H1 H -0.1944 0.0983 0.2441
C3 C -0.31204(15) 0.1352(2) 0.2391(2)
H2 H -0.3396 0.0988 0.1680
C4 C -0.35804(15) 0.1889(2) 0.2976(2)
H3 H -0.4167 0.1888 0.2668
C5 C -0.31674(16) 0.2428(2) 0.4021(2)
H4 H -0.3476 0.2805 0.4415
C6 C -0.22992(14) 0.24155(19) 0.4493(2)
H5 H -0.2028 0.2773 0.5209
C7 C -0.09029(12) 0.18399(16) 0.44091(16)
C8 C -0.03303(12) 0.12466(16) 0.40185(15)
H6 H -0.0454 0.0786 0.3354
C9 C 0.04493(12) 0.14822(15) 0.48144(15)
C10 C 0.12676(12) 0.11268(16) 0.48247(15)
C11 C 0.21194(13) 0.03189(17) 0.41272(17)
C12 C 0.09427(14) 0.26702(17) 0.66962(16)
H7 H 0.0723 0.3386 0.6903
H8 H 0.1456 0.2861 0.6548
C13 C 0.11511(15) 0.18371(17) 0.77075(16)
C14 C 0.05164(19) 0.1320(2) 0.8009(2)
H9 H -0.0045 0.1469 0.7572
C15 C 0.0717(3) 0.0580(2) 0.8960(3)
H10 H 0.0288 0.0226 0.9155
C16 C 0.1541(4) 0.0363(3) 0.9618(3)
H11 H 0.1672 -0.0122 1.0268
C17 C 0.2168(3) 0.0866(3) 0.9313(3)
H12 H 0.2729 0.0710 0.9751
C18 C 0.19796(18) 0.1604(2) 0.83597(19)
H13 H 0.2412 0.1941 0.8160
C19 C 0.35264(15) -0.0302(2) 0.3717(2)
H14 H 0.3712 -0.0519 0.4535
H15 H 0.3782 -0.0843 0.3327
C20 C 0.38501(14) 0.0902(2) 0.3626(2)
C21 C 0.36481(16) 0.1471(3) 0.2564(2)
H16 H 0.3287 0.1112 0.1896
C22 C 0.39672(18) 0.2549(3) 0.2476(3)
H17 H 0.3818 0.2921 0.1756
C23 C 0.45070(16) 0.3074(3) 0.3453(3)
C24 C 0.47051(16) 0.2547(3) 0.4518(2)
H18 H 0.5062 0.2915 0.5184
C25 C 0.43722(14) 0.1465(2) 0.4598(2)
H19 H 0.4504 0.1111 0.5325
Cl1 Cl 0.49536(6) 0.44128(8) 0.33328(11)
N1 N -0.04974(11) 0.24240(14) 0.53950(14)
N2 N 0.03265(10) 0.21997(13) 0.56299(13)
N3 N 0.20105(10) 0.13317(15) 0.55517(14)
N4 N 0.25799(11) 0.07995(16) 0.50860(15)
O1 O 0.12790(8) 0.04740(11) 0.38915(11)
S1 S 0.23901(4) -0.04724(6) 0.31046(5)
loop_
_geom_bond_atom_site_label_1
_geom_bond_atom_site_label_2
_geom_bond_site_symmetry_1
_geom_bond_site_symmetry_2
C1 C2 1_555 1_555
C2 H1 1_555 1_555
C3 C2 1_555 1_555
H2 C3 1_555 1_555
C4 C3 1_555 1_555
H3 C4 1_555 1_555
C5 C4 1_555 1_555
H4 C5 1_555 1_555
C6 C1 1_555 1_555
H5 C6 1_555 1_555
C7 C1 1_555 1_555
C8 C7 1_555 1_555
H6 C8 1_555 1_555
C9 C8 1_555 1_555
C10 C9 1_555 1_555
C11 N4 1_555 1_555
C12 H7 1_555 1_555
H8 C12 1_555 1_555
C13 C12 1_555 1_555
C14 C13 1_555 1_555
H9 C14 1_555 1_555
C15 C14 1_555 1_555
H10 C15 1_555 1_555
C16 C15 1_555 1_555
H11 C16 1_555 1_555
C17 C16 1_555 1_555
H12 C17 1_555 1_555
C18 C13 1_555 1_555
H13 C18 1_555 1_555
C19 H14 1_555 1_555
H15 C19 1_555 1_555
C20 C19 1_555 1_555
C21 C20 1_555 1_555
H16 C21 1_555 1_555
C22 C21 1_555 1_555
H17 C22 1_555 1_555
C23 C22 1_555 1_555
C24 C23 1_555 1_555
H18 C24 1_555 1_555
C25 C20 1_555 1_555
H19 C25 1_555 1_555
Cl1 C23 1_555 1_555
N1 C7 1_555 1_555
N2 C9 1_555 1_555
N3 C10 1_555 1_555
N4 N3 1_555 1_555
O1 C10 1_555 1_555
S1 C11 1_555 1_555
C5 C6 1_555 1_555
C11 O1 1_555 1_555
C12 N2 1_555 1_555
C17 C18 1_555 1_555
C19 S1 1_555 1_555
C24 C25 1_555 1_555
N1 N2 1_555 1_555

#END
