
#######################################################################
#
#                 Cambridge Crystallographic Data Centre
#                                CCDC 
#
#######################################################################
#
# If this CIF has been generated from an entry in the Cambridge 
# Structural Database, then it will include bibliographic, chemical, 
# crystal, experimental, refinement or atomic coordinate data resulting 
# from the CCDC's data processing and validation procedures.
#
#######################################################################

data_RUJFIL
_chemical_formula_moiety         'C30 H28 N2 O8'
_chemical_name_systematic        
3-(2-Dimethoxyfumaroyl)-3'-(2-dimethoxymaleoyl)-1-methyl-2-(1-methyl-1H-indole-2-yl)-1H-indole
_symmetry_cell_setting           monoclinic
_symmetry_space_group_name_H-M   'P 21/c'
_symmetry_Int_Tables_number      14
_space_group_name_Hall           '-P 2ybc'
loop_
_symmetry_equiv_pos_site_id
_symmetry_equiv_pos_as_xyz
1 x,y,z
2 -x,1/2+y,1/2-z
3 -x,-y,-z
4 x,1/2-y,1/2+z
_cell_length_a                   11.2310(10)
_cell_length_b                   26.676(2)
_cell_length_c                   9.1108(7)
_cell_angle_alpha                90
_cell_angle_beta                 93.575(9)
_cell_angle_gamma                90
_cell_volume                     2724.27
_exptl_crystal_colour            colorless
_exptl_crystal_description       'rectangular block'
_chemical_melting_point          458K
_cell_formula_units_Z            4
loop_
_atom_site_label
_atom_site_type_symbol
_atom_site_fract_x
_atom_site_fract_y
_atom_site_fract_z
N1 N 0.23008(12) 0.48964(5) 0.92096(15)
C1 C 0.28295(15) 0.44838(6) 0.8624(2)
C2 C 0.3168(2) 0.45943(6) 0.7237(2)
C3 C 0.2856(2) 0.51057(6) 0.6951(2)
C4 C 0.3023(2) 0.54386(8) 0.5790(2)
H1 H 0.3411(2) 0.53083(8) 0.5011(2)
C5 C 0.2642(2) 0.59233(8) 0.5908(3)
H2 H 0.2759(2) 0.61420(8) 0.5003(3)
C6 C 0.2065(2) 0.60837(8) 0.7127(3)
H3 H 0.1758(2) 0.64359(8) 0.7208(3)
C7 C 0.1880(2) 0.57715(7) 0.8300(2)
H4 H 0.1468(2) 0.58949(7) 0.9193(2)
C8 C 0.23083(15) 0.52807(6) 0.8198(2)
C9 C 0.1783(2) 0.49235(7) 1.0631(2)
H5 H 0.1583(17) 0.45921(11) 1.0944(11)
H6 H 0.1075(10) 0.5126(6) 1.0548(6)
H7 H 0.2349(7) 0.5070(7) 1.1338(6)
C10 C 0.4046(4) 0.4219(2) 0.6604(4)
C11 C 0.3778(4) 0.3989(2) 0.5297(5)
H8 H 0.4395(4) 0.3706(2) 0.5215(6)
C12 C 0.2577(2) 0.41229(11) 0.4533(3)
O1 O 0.2073(2) 0.44844(6) 0.4077(2)
O2 O 0.2325(2) 0.36590(7) 0.4120(2)
C13 C 0.1318(3) 0.36024(11) 0.3090(3)
H9 H 0.0611(5) 0.3715(10) 0.3530(11)
H10 H 0.1230(16) 0.3256(2) 0.2821(24)
H11 H 0.1438(12) 0.3798(8) 0.2228(13)
C14 C 0.5288(2) 0.40578(9) 0.7307(2)
O3 O 0.57426(14) 0.43872(6) 0.7987(2)
O4 O 0.5720(2) 0.35968(7) 0.7299(2)
C15 C 0.6776(3) 0.35090(12) 0.8234(5)
H12 H 0.7401(9) 0.3728(8) 0.7954(22)
H13 H 0.7025(16) 0.3167(3) 0.8135(26)
H14 H 0.6610(8) 0.3573(11) 0.9238(6)
N2 N 0.39319(13) 0.39706(5) 1.0505(2)
C16 C 0.30286(14) 0.40094(6) 0.9424(2)
C17 C 0.25413(14) 0.35399(6) 0.9130(2)
C18 C 0.32112(15) 0.31902(6) 1.0061(2)
C19 C 0.3166(2) 0.26718(7) 1.0319(2)
H15 H 0.2569(2) 0.24439(7) 0.9805(2)
C20 C 0.3961(2) 0.24610(8) 1.1352(3)
H16 H 0.3956(2) 0.20943(8) 1.1587(3)
C21 C 0.4804(2) 0.27523(9) 1.2164(3)
H17 H 0.5390(2) 0.25914(9) 1.2989(3)
C22 C 0.4865(2) 0.32631(8) 1.1958(2)
H18 H 0.5460(2) 0.34737(8) 1.2595(2)
C23 C 0.4062(2) 0.34736(7) 1.0906(2)
C24 C 0.4655(2) 0.43788(8) 1.1146(3)
H19 H 0.4505(13) 0.4679(2) 1.0583(13)
H20 H 0.5485(2) 0.4292(3) 1.1136(20)
H21 H 0.4453(12) 0.4434(5) 1.2142(8)
C25 C 0.14846(15) 0.34416(6) 0.8154(2)
C26 C 0.1209(2) 0.29937(7) 0.7561(2)
H22 H 0.1735(2) 0.26982(7) 0.7803(2)
C27 C 0.0083(2) 0.28872(7) 0.6715(2)
O5 O -0.07652(14) 0.31604(6) 0.6564(2)
O6 O 0.00905(15) 0.24244(6) 0.6152(2)
C28 C -0.0982(2) 0.22695(11) 0.5334(3)
H23 H -0.1643(4) 0.2291(7) 0.5951(7)
H24 H -0.0895(7) 0.1930(3) 0.5009(18)
H25 H -0.1125(9) 0.2484(5) 0.4497(12)
C29 C 0.0622(2) 0.38718(6) 0.7952(2)
O7 O 0.00378(13) 0.40201(5) 0.8924(2)
O8 O 0.06198(12) 0.40684(5) 0.66231(14)
C30 C -0.0169(2) 0.44917(8) 0.6349(3)
H26 H -0.0197(12) 0.4576(4) 0.5324(4)
H27 H 0.0123(8) 0.4773(2) 0.6921(14)
H28 H -0.0955(4) 0.4406(2) 0.6623(17)
C31? C 0.3394(4) 0.42496(14) 0.5994(5)
C32? C 0.4358(4) 0.3971(2) 0.6061(6)
loop_
_geom_bond_atom_site_label_1
_geom_bond_atom_site_label_2
_geom_bond_site_symmetry_1
_geom_bond_site_symmetry_2
N1 C1 1_555 1_555
C1 C2 1_555 1_555
C2 C3 1_555 1_555
C3 C4 1_555 1_555
C4 H1 1_555 1_555
C5 C4 1_555 1_555
H2 C5 1_555 1_555
C6 C5 1_555 1_555
H3 C6 1_555 1_555
C7 C6 1_555 1_555
H4 C7 1_555 1_555
C8 N1 1_555 1_555
C9 N1 1_555 1_555
H5 C9 1_555 1_555
H6 C9 1_555 1_555
H7 C9 1_555 1_555
C10 C2 1_555 1_555
C11 C10 1_555 1_555
H8 C11 1_555 1_555
C12 C11 1_555 1_555
O1 C12 1_555 1_555
O2 C12 1_555 1_555
C13 O2 1_555 1_555
H9 C13 1_555 1_555
H10 C13 1_555 1_555
H11 C13 1_555 1_555
C14 C10 1_555 1_555
O3 C14 1_555 1_555
O4 C14 1_555 1_555
C15 O4 1_555 1_555
H12 C15 1_555 1_555
H13 C15 1_555 1_555
H14 C15 1_555 1_555
N2 C16 1_555 1_555
C16 C1 1_555 1_555
C17 C16 1_555 1_555
C18 C17 1_555 1_555
C19 C18 1_555 1_555
H15 C19 1_555 1_555
C20 C19 1_555 1_555
H16 C20 1_555 1_555
C21 C20 1_555 1_555
H17 C21 1_555 1_555
C22 C21 1_555 1_555
H18 C22 1_555 1_555
C23 N2 1_555 1_555
C24 N2 1_555 1_555
H19 C24 1_555 1_555
H20 C24 1_555 1_555
H21 C24 1_555 1_555
C25 C17 1_555 1_555
C26 C25 1_555 1_555
H22 C26 1_555 1_555
C27 C26 1_555 1_555
O5 C27 1_555 1_555
O6 C27 1_555 1_555
C28 O6 1_555 1_555
H23 C28 1_555 1_555
H24 C28 1_555 1_555
H25 C28 1_555 1_555
C29 C25 1_555 1_555
O7 C29 1_555 1_555
O8 C29 1_555 1_555
C30 O8 1_555 1_555
H26 C30 1_555 1_555
H27 C30 1_555 1_555
H28 C30 1_555 1_555
C3 C8 1_555 1_555
C7 C8 1_555 1_555
C18 C23 1_555 1_555
C22 C23 1_555 1_555

#END
