
#######################################################################
#
#                 Cambridge Crystallographic Data Centre
#                                CCDC 
#
#######################################################################
#
# If this CIF has been generated from an entry in the Cambridge 
# Structural Database, then it will include bibliographic, chemical, 
# crystal, experimental, refinement or atomic coordinate data resulting 
# from the CCDC's data processing and validation procedures.
#
#######################################################################

data_RUJKIS
_chemical_name_common            
'2,8,14,20-tetrakis(2-phenylethyl)calix(4)resorcinarene dimethyl sulfoxide solvate'
_chemical_formula_moiety         'C60 H56 O8,5(C2 H6 O1 S1)'
_chemical_name_systematic        
'2,8,14,20-tetrakis(2-phenylethyl)-4,6,10,12,16,18,22,24-octahydroxycalix(4)arene dimethyl sulfoxide solvate'
_symmetry_cell_setting           monoclinic
_symmetry_space_group_name_H-M   'P 21/c'
_symmetry_Int_Tables_number      14
_space_group_name_Hall           '-P 2ybc'
loop_
_symmetry_equiv_pos_site_id
_symmetry_equiv_pos_as_xyz
1 x,y,z
2 -x,1/2+y,1/2-z
3 -x,-y,-z
4 x,1/2-y,1/2+z
_cell_length_a                   24.244(2)
_cell_length_b                   12.5220(12)
_cell_length_c                   22.712(3)
_cell_angle_alpha                90
_cell_angle_beta                 104.676(6)
_cell_angle_gamma                90
_cell_volume                     6670.03
_exptl_crystal_colour            colorless
_exptl_crystal_description       plate
_cell_formula_units_Z            4
_exptl_crystal_recrystallization_method 
'Re-crystallisation from solvent: dimethyl sulfoxide/water'
loop_
_atom_site_label
_atom_site_type_symbol
_atom_site_fract_x
_atom_site_fract_y
_atom_site_fract_z
O1 O 0.7184(2) 0.5264(4) 0.1166(2)
H1 H 0.7407 0.5638 0.1022
O2 O 0.8182(2) 0.2500(4) 0.0391(2)
H2 H 0.8257 0.3016 0.0188
O3 O 0.8901(2) 0.0747(4) 0.0797(2)
H3 H 0.8641 0.1132 0.0586
O4 O 0.9729(2) 0.0085(4) 0.2888(2)
H4 H 1.0018 0.0055 0.2748
O5 O 0.96865(19) 0.1518(4) 0.3776(2)
H5 H 0.9665 0.1037 0.3514
O6 O 0.8599(2) 0.4179(4) 0.4409(2)
H6 H 0.8270 0.4445 0.4317
O7 O 0.7515(2) 0.5314(3) 0.4107(2)
H7 H 0.7502 0.5983 0.4125
O8 O 0.6665(2) 0.6068(4) 0.2015(2)
H8 H 0.6816 0.5951 0.1726
C1 C 0.6568(3) 0.3797(5) 0.1697(3)
H9 H 0.6362 0.4408 0.1453
C2 C 0.7029(3) 0.3452(6) 0.1387(3)
C3 C 0.7174(3) 0.2383(6) 0.1329(3)
H10 H 0.6997 0.1859 0.1521
C4 C 0.7560(3) 0.2035(5) 0.1011(3)
C5 C 0.7815(3) 0.2830(6) 0.0725(3)
C6 C 0.7696(3) 0.3908(5) 0.0787(3)
H11 H 0.7882 0.4442 0.0610
C7 C 0.7305(3) 0.4191(6) 0.1110(3)
C8 C 0.7733(3) 0.0871(5) 0.0987(3)
H12 H 0.7829 0.0760 0.0588
C9 C 0.8282(3) 0.0664(5) 0.1492(3)
C10 C 0.8259(3) 0.0519(5) 0.2094(3)
H13 H 0.7898 0.0563 0.2184
C11 C 0.8734(3) 0.0313(5) 0.2569(3)
C12 C 0.9259(3) 0.0267(5) 0.2425(3)
C13 C 0.9304(3) 0.0397(5) 0.1837(3)
H14 H 0.9665 0.0331 0.1749
C14 C 0.8818(3) 0.0627(6) 0.1368(3)
C15 C 0.8689(3) 0.0180(5) 0.3224(3)
H15 H 0.9056 -0.0151 0.3455
C16 C 0.8645(3) 0.1270(5) 0.3531(3)
C17 C 0.8133(3) 0.1702(5) 0.3569(3)
H16 H 0.7794 0.1323 0.3383
C18 C 0.8081(3) 0.2657(5) 0.3862(3)
C19 C 0.8593(3) 0.3212(6) 0.4108(3)
C20 C 0.9115(3) 0.2818(6) 0.4072(3)
H17 H 0.9454 0.3208 0.4244
C21 C 0.9143(3) 0.1848(6) 0.3783(3)
C22 C 0.7518(3) 0.3093(5) 0.3920(3)
H18 H 0.7601 0.3511 0.4308
C23 C 0.7270(3) 0.3883(5) 0.3411(3)
C24 C 0.7046(3) 0.3550(6) 0.2822(3)
H19 H 0.7042 0.2805 0.2741
C25 C 0.6826(3) 0.4230(6) 0.2339(3)
C26 C 0.6856(3) 0.5323(6) 0.2467(3)
C27 C 0.7081(3) 0.5683(6) 0.3055(3)
H20 H 0.7099 0.6429 0.3134
C28 C 0.7279(3) 0.4988(6) 0.3521(3)
C29 C 0.6124(3) 0.2927(5) 0.1679(3)
H21 H 0.6289 0.2370 0.1981
H22 H 0.6029 0.2589 0.1271
C30 C 0.5577(3) 0.3346(6) 0.1812(4)
H23 H 0.5670 0.3659 0.2226
H24 H 0.5420 0.3923 0.1520
C31 C 0.5123(3) 0.2495(6) 0.1771(3)
C32 C 0.4895(3) 0.2272(6) 0.2262(4)
H25 H 0.5019 0.2670 0.2627
C33 C 0.4489(4) 0.1479(7) 0.2224(4)
H26 H 0.4336 0.1342 0.2563
C34 C 0.4309(3) 0.0901(8) 0.1712(4)
H27 H 0.4035 0.0350 0.1693
C35 C 0.4521(4) 0.1107(7) 0.1216(4)
H28 H 0.4397 0.0697 0.0855
C36 C 0.4921(3) 0.1924(7) 0.1246(4)
H29 H 0.5055 0.2085 0.0897
C37 C 0.7266(3) 0.0062(5) 0.1019(3)
H30 H 0.7434 -0.0663 0.1073
H31 H 0.7120 0.0224 0.1378
C38 C 0.6774(3) 0.0075(6) 0.0455(3)
H32 H 0.6919 -0.0097 0.0096
H33 H 0.6610 0.0803 0.0397
C39 C 0.6302(3) -0.0723(6) 0.0491(3)
C40 C 0.5789(4) -0.0440(6) 0.0558(3)
H34 H 0.5704 0.0298 0.0574
C41 C 0.5380(4) -0.1172(8) 0.0606(3)
H35 H 0.5022 -0.0932 0.0651
C42 C 0.5485(4) -0.2241(8) 0.0588(3)
H36 H 0.5204 -0.2750 0.0622
C43 C 0.6017(4) -0.2566(7) 0.0519(4)
H37 H 0.6099 -0.3305 0.0502
C44 C 0.6422(4) -0.1822(7) 0.0475(3)
H38 H 0.6784 -0.2051 0.0433
C45 C 0.8216(3) -0.0590(5) 0.3278(3)
H39 H 0.7847 -0.0313 0.3030
H40 H 0.8194 -0.0610 0.3707
C46 C 0.8298(3) -0.1731(5) 0.3071(3)
H41 H 0.7945 -0.2141 0.3049
H42 H 0.8357 -0.1702 0.2655
C47 C 0.8795(3) -0.2322(6) 0.3480(3)
C48 C 0.9331(4) -0.2299(6) 0.3377(4)
H43 H 0.9392 -0.1899 0.3044
C49 C 0.9779(4) -0.2847(7) 0.3749(5)
H44 H 1.0146 -0.2823 0.3672
C50 C 0.9691(4) -0.3447(7) 0.4247(4)
H45 H 0.9997 -0.3829 0.4504
C51 C 0.9167(4) -0.3469(6) 0.4353(4)
H46 H 0.9106 -0.3867 0.4687
C52 C 0.8725(4) -0.2920(6) 0.3982(4)
H47 H 0.8360 -0.2942 0.4066
C53 C 0.7089(3) 0.2228(5) 0.3981(3)
H48 H 0.7279 0.1708 0.4296
H49 H 0.6963 0.1841 0.3590
C54 C 0.6566(3) 0.2701(5) 0.4155(3)
H50 H 0.6697 0.3137 0.4528
H51 H 0.6362 0.3180 0.3824
C55 C 0.6165(3) 0.1874(5) 0.4262(3)
C56 C 0.6172(3) 0.1503(6) 0.4837(3)
H52 H 0.6428 0.1811 0.5181
C57 C 0.5816(3) 0.0698(6) 0.4918(4)
H53 H 0.5831 0.0451 0.5317
C58 C 0.5434(3) 0.0240(6) 0.4422(4)
H54 H 0.5181 -0.0309 0.4478
C59 C 0.5427(3) 0.0593(6) 0.3849(3)
H55 H 0.5173 0.0270 0.3508
C60 C 0.5777(3) 0.1397(6) 0.3756(3)
H56 H 0.5760 0.1634 0.3354
S1 S 0.82531(10) 0.74619(17) 0.12105(10)
O9 O 0.8082(3) 0.6366(4) 0.0981(2)
C61 C 0.8336(4) 0.8177(6) 0.0563(3)
H57 H 0.8629 0.7833 0.0401
H58 H 0.8450 0.8914 0.0680
H59 H 0.7973 0.8180 0.0251
C62 C 0.8980(4) 0.7405(6) 0.1614(4)
H60 H 0.9025 0.6912 0.1958
H61 H 0.9109 0.8119 0.1766
H62 H 0.9208 0.7154 0.1342
S2 S 1.09561(9) -0.06348(17) 0.22514(9)
O10 O 1.0725(2) 0.0014(4) 0.2695(2)
C63 C 1.1606(3) 0.0024(6) 0.2244(4)
H63 H 1.1521 0.0730 0.2057
H64 H 1.1815 -0.0401 0.2010
H65 H 1.1839 0.0106 0.2663
C64 C 1.1275(4) -0.1796(6) 0.2650(3)
H66 H 1.1544 -0.1584 0.3031
H67 H 1.1478 -0.2191 0.2397
H68 H 1.0978 -0.2251 0.2740
S3 S 0.91578(11) 0.4390(2) 0.01486(11)
O11 O 0.8520(2) 0.4224(4) -0.0082(2)
C65 C 0.9283(4) 0.4450(8) 0.0917(4)
H69 H 0.8993 0.4896 0.1026
H70 H 0.9661 0.4759 0.1088
H71 H 0.9269 0.3729 0.1080
C66 C 0.9271(4) 0.5725(7) -0.0019(4)
H72 H 0.9201 0.5812 -0.0461
H73 H 0.9665 0.5925 0.0177
H74 H 0.9009 0.6184 0.0132
S4 S 0.71043(10) 0.67845(17) -0.09895(10)
O12 O 0.7251(3) 0.7766(5) -0.0621(3)
C67 C 0.7348(4) 0.5699(7) -0.0508(4)
H75 H 0.7765 0.5677 -0.0406
H76 H 0.7195 0.5035 -0.0714
H77 H 0.7219 0.5776 -0.0134
C68 C 0.6373(4) 0.6570(8) -0.1080(4)
H78 H 0.6281 0.6651 -0.0686
H79 H 0.6273 0.5846 -0.1236
H80 H 0.6155 0.7092 -0.1369
S5 S 0.64477(14) -0.0035(2) 0.22107(17)
O13 O 0.6764(5) 0.0379(9) 0.2820(4)
C69 C 0.5749(3) -0.0193(7) 0.2262(3)
H81 H 0.5514 -0.0465 0.1875
H82 H 0.5599 0.0497 0.2353
H83 H 0.5740 -0.0701 0.2588
C70 C 0.6646(3) -0.1394(5) 0.2193(3)
H84 H 0.6449 -0.1707 0.1800
H85 H 0.6539 -0.1782 0.2522
H86 H 0.7059 -0.1444 0.2246
S6? S 0.6532(3) -0.0199(5) 0.2641(3)
O14? O 0.6839(8) 0.0683(14) 0.2427(9)
H87? H 0.5565 -0.0789 0.2417
H88? H 0.5692 -0.0270 0.1821
H89? H 0.5582 0.0482 0.2349
H90? H 0.6452 -0.2012 0.2313
H91? H 0.7055 -0.1542 0.2273
H92? H 0.6490 -0.1253 0.1758
loop_
_geom_bond_atom_site_label_1
_geom_bond_atom_site_label_2
_geom_bond_site_symmetry_1
_geom_bond_site_symmetry_2
O1 H1 1_555 1_555
O2 H2 1_555 1_555
O3 H3 1_555 1_555
O4 H4 1_555 1_555
O5 H5 1_555 1_555
O6 H6 1_555 1_555
O7 H7 1_555 1_555
O8 H8 1_555 1_555
C1 H9 1_555 1_555
C2 C1 1_555 1_555
C3 C2 1_555 1_555
H10 C3 1_555 1_555
C4 C3 1_555 1_555
C5 O2 1_555 1_555
C6 C5 1_555 1_555
H11 C6 1_555 1_555
C7 O1 1_555 1_555
C8 C4 1_555 1_555
H12 C8 1_555 1_555
C9 C8 1_555 1_555
C10 C9 1_555 1_555
H13 C10 1_555 1_555
C11 C10 1_555 1_555
C12 O4 1_555 1_555
C13 C12 1_555 1_555
H14 C13 1_555 1_555
C14 O3 1_555 1_555
C15 C11 1_555 1_555
H15 C15 1_555 1_555
C16 C15 1_555 1_555
C17 C16 1_555 1_555
H16 C17 1_555 1_555
C18 C17 1_555 1_555
C19 O6 1_555 1_555
C20 C19 1_555 1_555
H17 C20 1_555 1_555
C21 O5 1_555 1_555
C22 C18 1_555 1_555
H18 C22 1_555 1_555
C23 C22 1_555 1_555
C24 C23 1_555 1_555
H19 C24 1_555 1_555
C25 C1 1_555 1_555
C26 O8 1_555 1_555
C27 C26 1_555 1_555
H20 C27 1_555 1_555
C28 O7 1_555 1_555
C29 C1 1_555 1_555
H21 C29 1_555 1_555
H22 C29 1_555 1_555
C30 C29 1_555 1_555
H23 C30 1_555 1_555
H24 C30 1_555 1_555
C31 C30 1_555 1_555
C32 C31 1_555 1_555
H25 C32 1_555 1_555
C33 C32 1_555 1_555
H26 C33 1_555 1_555
C34 C33 1_555 1_555
H27 C34 1_555 1_555
C35 C34 1_555 1_555
H28 C35 1_555 1_555
C36 C31 1_555 1_555
H29 C36 1_555 1_555
C37 C8 1_555 1_555
H30 C37 1_555 1_555
H31 C37 1_555 1_555
C38 C37 1_555 1_555
H32 C38 1_555 1_555
H33 C38 1_555 1_555
C39 C38 1_555 1_555
C40 C39 1_555 1_555
H34 C40 1_555 1_555
C41 C40 1_555 1_555
H35 C41 1_555 1_555
C42 C41 1_555 1_555
H36 C42 1_555 1_555
C43 C42 1_555 1_555
H37 C43 1_555 1_555
C44 C39 1_555 1_555
H38 C44 1_555 1_555
C45 C15 1_555 1_555
H39 C45 1_555 1_555
H40 C45 1_555 1_555
C46 C45 1_555 1_555
H41 C46 1_555 1_555
H42 C46 1_555 1_555
C47 C46 1_555 1_555
C48 C47 1_555 1_555
H43 C48 1_555 1_555
C49 C48 1_555 1_555
H44 C49 1_555 1_555
C50 C49 1_555 1_555
H45 C50 1_555 1_555
C51 C50 1_555 1_555
H46 C51 1_555 1_555
C52 C47 1_555 1_555
H47 C52 1_555 1_555
C53 C22 1_555 1_555
H48 C53 1_555 1_555
H49 C53 1_555 1_555
C54 C53 1_555 1_555
H50 C54 1_555 1_555
H51 C54 1_555 1_555
C55 C54 1_555 1_555
C56 C55 1_555 1_555
H52 C56 1_555 1_555
C57 C56 1_555 1_555
H53 C57 1_555 1_555
C58 C57 1_555 1_555
H54 C58 1_555 1_555
C59 C58 1_555 1_555
H55 C59 1_555 1_555
C60 C55 1_555 1_555
H56 C60 1_555 1_555
S1 O9 1_555 1_555
C61 S1 1_555 1_555
H57 C61 1_555 1_555
H58 C61 1_555 1_555
H59 C61 1_555 1_555
C62 S1 1_555 1_555
H60 C62 1_555 1_555
H61 C62 1_555 1_555
H62 C62 1_555 1_555
S2 O10 1_555 1_555
C63 S2 1_555 1_555
H63 C63 1_555 1_555
H64 C63 1_555 1_555
H65 C63 1_555 1_555
C64 S2 1_555 1_555
H66 C64 1_555 1_555
H67 C64 1_555 1_555
H68 C64 1_555 1_555
S3 O11 1_555 1_555
C65 S3 1_555 1_555
H69 C65 1_555 1_555
H70 C65 1_555 1_555
H71 C65 1_555 1_555
C66 S3 1_555 1_555
H72 C66 1_555 1_555
H73 C66 1_555 1_555
H74 C66 1_555 1_555
S4 O12 1_555 1_555
C67 S4 1_555 1_555
H75 C67 1_555 1_555
H76 C67 1_555 1_555
H77 C67 1_555 1_555
C68 S4 1_555 1_555
H78 C68 1_555 1_555
H79 C68 1_555 1_555
H80 C68 1_555 1_555
S5 O13 1_555 1_555
C69 S5 1_555 1_555
H81 C69 1_555 1_555
H82 C69 1_555 1_555
H83 C69 1_555 1_555
C70 S5 1_555 1_555
H84 C70 1_555 1_555
H85 C70 1_555 1_555
H86 C70 1_555 1_555
C2 C7 1_555 1_555
C4 C5 1_555 1_555
C6 C7 1_555 1_555
C9 C14 1_555 1_555
C11 C12 1_555 1_555
C13 C14 1_555 1_555
C16 C21 1_555 1_555
C18 C19 1_555 1_555
C20 C21 1_555 1_555
C23 C28 1_555 1_555
C24 C25 1_555 1_555
C25 C26 1_555 1_555
C27 C28 1_555 1_555
C35 C36 1_555 1_555
C43 C44 1_555 1_555
C51 C52 1_555 1_555
C59 C60 1_555 1_555

#END
