
#######################################################################
#
#                 Cambridge Crystallographic Data Centre
#                                CCDC 
#
#######################################################################
#
# If this CIF has been generated from an entry in the Cambridge 
# Structural Database, then it will include bibliographic, chemical, 
# crystal, experimental, refinement or atomic coordinate data resulting 
# from the CCDC's data processing and validation procedures.
#
#######################################################################

data_RUJKIR
_chemical_formula_moiety         'C16 H16 N4 O1,0.5(C1 H4 O1)'
_chemical_name_systematic        
'3-(2-Aminoethyl)-2-anilinoquinazolin-4(3H)-one methanol solvate'
_symmetry_cell_setting           monoclinic
_symmetry_space_group_name_H-M   'C 2/c'
_symmetry_Int_Tables_number      15
_space_group_name_Hall           '-C 2yn'
loop_
_symmetry_equiv_pos_site_id
_symmetry_equiv_pos_as_xyz
1 x,y,z
2 -x,y,1/2-z
3 1/2+x,1/2+y,z
4 1/2-x,1/2+y,1/2-z
5 -x,-y,-z
6 x,-y,1/2+z
7 1/2-x,1/2-y,-z
8 1/2+x,1/2-y,1/2+z
_cell_length_a                   19.5972(11)
_cell_length_b                   12.2035(7)
_cell_length_c                   12.8681(8)
_cell_angle_alpha                90
_cell_angle_beta                 103.3010(10)
_cell_angle_gamma                90
_cell_volume                     2994.91
_exptl_crystal_colour            colorless
_exptl_crystal_description       block
_chemical_melting_point          433-434K
_cell_formula_units_Z            8
_exptl_crystal_recrystallization_method methanol/chloroform
loop_
_atom_site_label
_atom_site_type_symbol
_atom_site_fract_x
_atom_site_fract_y
_atom_site_fract_z
O2 O 0.5495(3) 0.4637(6) 0.7850(7)
H17 H 0.5856 0.4244 0.8006
C17 C 0.4883(4) 0.3949(6) 0.7344(11)
O2A O 0.4505(3) 0.4637(6) 0.7150(7)
H17A H 0.4144 0.4244 0.6994
C17A C 0.5117(4) 0.3949(6) 0.7656(11)
O1 O 0.68958(7) 0.41303(12) 0.81309(11)
N1 N 0.73674(8) 0.41620(12) 0.66714(11)
N2 N 0.84958(8) 0.34284(13) 0.67038(11)
N3 N 0.77752(9) 0.40366(13) 0.51241(12)
H1 H 0.7345 0.4239 0.4817
N4 N 0.63136(9) 0.37965(16) 0.44490(14)
H2 H 0.6131 0.4263 0.3939
H3 H 0.6131 0.3143 0.4284
C1 C 0.80430(10) 0.34133(14) 0.83148(13)
C2 C 0.81360(11) 0.31401(16) 0.93932(14)
H4 H 0.7782 0.3290 0.9746
C3 C 0.87449(12) 0.26533(18) 0.99341(15)
H5 H 0.8804 0.2465 1.0650
C4 C 0.92707(11) 0.24457(19) 0.94030(15)
H6 H 0.9684 0.2115 0.9767
C5 C 0.91908(11) 0.27202(19) 0.83510(16)
H7 H 0.9552 0.2579 0.8011
C6 C 0.85720(10) 0.32115(15) 0.77791(13)
C7 C 0.73916(10) 0.39143(15) 0.77321(14)
C8 C 0.79099(10) 0.38642(15) 0.61962(14)
C9 C 0.82431(10) 0.39287(14) 0.44502(14)
C10 C 0.79487(10) 0.36669(15) 0.33875(14)
H8 H 0.7472 0.3515 0.3175
C11 C 0.83579(12) 0.36311(17) 0.26507(15)
H9 H 0.8154 0.3462 0.1942
C12 C 0.90627(13) 0.38417(19) 0.29508(18)
H10 H 0.9338 0.3820 0.2451
C13 C 0.93592(12) 0.40868(19) 0.40098(18)
H11 H 0.9838 0.4225 0.4220
C14 C 0.89551(11) 0.41293(17) 0.47595(16)
H12 H 0.9161 0.4292 0.5468
C15 C 0.67613(10) 0.48235(17) 0.61029(15)
H13 H 0.6922 0.5335 0.5634
H14 H 0.6587 0.5248 0.6624
C16 C 0.61626(11) 0.41579(18) 0.54480(17)
H15 H 0.6080 0.3524 0.5857
H16 H 0.5739 0.4599 0.5298
H18? H 0.4553 0.3937 0.7792
H19? H 0.5037 0.3216 0.7254
H20? H 0.4662 0.4250 0.6660
loop_
_geom_bond_atom_site_label_1
_geom_bond_atom_site_label_2
_geom_bond_site_symmetry_1
_geom_bond_site_symmetry_2
O1 C7 1_555 1_555
N1 C7 1_555 1_555
N2 C6 1_555 1_555
N3 H1 1_555 1_555
N4 H2 1_555 1_555
H3 N4 1_555 1_555
C1 C2 1_555 1_555
C2 H4 1_555 1_555
C3 C2 1_555 1_555
H5 C3 1_555 1_555
C4 C3 1_555 1_555
H6 C4 1_555 1_555
C5 C4 1_555 1_555
H7 C5 1_555 1_555
C6 C1 1_555 1_555
C7 C1 1_555 1_555
C8 N1 1_555 1_555
C9 N3 1_555 1_555
C10 C9 1_555 1_555
H8 C10 1_555 1_555
C11 C10 1_555 1_555
H9 C11 1_555 1_555
C12 C11 1_555 1_555
H10 C12 1_555 1_555
C13 C12 1_555 1_555
H11 C13 1_555 1_555
C14 C9 1_555 1_555
H12 C14 1_555 1_555
C15 N1 1_555 1_555
H13 C15 1_555 1_555
H14 C15 1_555 1_555
C16 N4 1_555 1_555
H15 C16 1_555 1_555
H16 C16 1_555 1_555
O2 H17 1_555 1_555
C17 O2 1_555 1_555
O2A C17 1_555 1_555
H17A O2A 1_555 1_555
C17A O2 1_555 1_555
N2 C8 1_555 1_555
N3 C8 1_555 1_555
C5 C6 1_555 1_555
C13 C14 1_555 1_555
C15 C16 1_555 1_555
C17 C17A 1_555 1_555
O2A C17A 1_555 1_555

#END
