
#######################################################################
#
#                 Cambridge Crystallographic Data Centre
#                                CCDC 
#
#######################################################################
#
# If this CIF has been generated from an entry in the Cambridge 
# Structural Database, then it will include bibliographic, chemical, 
# crystal, experimental, refinement or atomic coordinate data resulting 
# from the CCDC's data processing and validation procedures.
#
#######################################################################

data_RUJKUD
_chemical_name_common            'Cinnamyl 2-oxo-2H-chromene-3-carboxylate'
_chemical_formula_moiety         'C19 H14 O4'
_chemical_name_systematic        
'3-Phenylprop-2-en-1-yl 2-oxo-2H-chromene-3-carboxylate'
_symmetry_cell_setting           monoclinic
_symmetry_space_group_name_H-M   'P 21/n'
_symmetry_Int_Tables_number      14
_space_group_name_Hall           '-P 2yn'
loop_
_symmetry_equiv_pos_site_id
_symmetry_equiv_pos_as_xyz
1 x,y,z
2 1/2-x,1/2+y,1/2-z
3 -x,-y,-z
4 1/2+x,1/2-y,1/2+z
_cell_length_a                   5.7026(11)
_cell_length_b                   8.2969(17)
_cell_length_c                   31.693(6)
_cell_angle_alpha                90
_cell_angle_beta                 92.96(3)
_cell_angle_gamma                90
_cell_volume                     1497.52
_exptl_crystal_colour            colorless
_exptl_crystal_description       block
_cell_formula_units_Z            4
_exptl_crystal_recrystallization_method 'ethyl acetate/petroleum ether'
loop_
_atom_site_label
_atom_site_type_symbol
_atom_site_fract_x
_atom_site_fract_y
_atom_site_fract_z
O1 O -0.2090(3) 0.32886(19) 0.02988(4)
O2 O -0.1217(3) 0.2749(2) 0.09679(5)
O3 O 0.4778(3) 0.0109(2) 0.06191(4)
O4 O 0.2725(3) 0.09462(19) 0.11589(4)
C1 C -0.1652(4) 0.3240(3) -0.01256(6)
C2 C -0.3243(4) 0.4004(3) -0.04038(7)
H1 H -0.4552 0.4528 -0.0306
C3 C -0.2838(5) 0.3967(3) -0.08278(7)
H2 H -0.3886 0.4483 -0.1018
C4 C -0.0916(4) 0.3184(3) -0.09790(7)
H3 H -0.0674 0.3179 -0.1267
C5 C 0.0644(4) 0.2410(3) -0.07000(6)
H4 H 0.1928 0.1867 -0.0801
C6 C 0.0297(3) 0.2440(2) -0.02644(6)
C7 C 0.1821(4) 0.1682(3) 0.00463(6)
H5 H 0.3137 0.1139 -0.0041
C8 C 0.1425(3) 0.1722(2) 0.04622(6)
C9 C -0.0628(4) 0.2578(3) 0.06115(6)
C10 C 0.3154(4) 0.0854(3) 0.07502(6)
C11 C 0.4328(4) 0.0061(3) 0.14417(6)
H6 H 0.5829 0.0613 0.1468
H7 H 0.4586 -0.1009 0.1329
C12 C 0.3306(4) -0.0062(3) 0.18634(6)
H8 H 0.4147 -0.0667 0.2067
C13 C 0.1334(4) 0.0596(3) 0.19788(6)
H9 H 0.0479 0.1190 0.1775
C14 C 0.0349(4) 0.0481(2) 0.24006(6)
C15 C -0.1666(4) 0.1337(3) 0.24838(7)
H10 H -0.2359 0.1990 0.2274
C16 C -0.2664(4) 0.1240(3) 0.28701(7)
H11 H -0.4015 0.1826 0.2918
C17 C -0.1661(4) 0.0276(3) 0.31857(7)
H12 H -0.2350 0.0190 0.3444
C18 C 0.0363(5) -0.0556(3) 0.31136(7)
H13 H 0.1065 -0.1187 0.3327
C19 C 0.1365(4) -0.0463(3) 0.27266(6)
H14 H 0.2733 -0.1036 0.2682
loop_
_geom_bond_atom_site_label_1
_geom_bond_atom_site_label_2
_geom_bond_site_symmetry_1
_geom_bond_site_symmetry_2
O1 C1 1_555 1_555
O2 C9 1_555 1_555
O3 C10 1_555 1_555
O4 C10 1_555 1_555
C1 C2 1_555 1_555
C2 H1 1_555 1_555
C3 C2 1_555 1_555
H2 C3 1_555 1_555
C4 C3 1_555 1_555
H3 C4 1_555 1_555
C5 C4 1_555 1_555
H4 C5 1_555 1_555
C6 C1 1_555 1_555
C7 C6 1_555 1_555
H5 C7 1_555 1_555
C8 C7 1_555 1_555
C9 O1 1_555 1_555
C10 C8 1_555 1_555
C11 O4 1_555 1_555
H6 C11 1_555 1_555
H7 C11 1_555 1_555
C12 C11 1_555 1_555
H8 C12 1_555 1_555
C13 C12 1_555 1_555
H9 C13 1_555 1_555
C14 C13 1_555 1_555
C15 C14 1_555 1_555
H10 C15 1_555 1_555
C16 C15 1_555 1_555
H11 C16 1_555 1_555
C17 C16 1_555 1_555
H12 C17 1_555 1_555
C18 C17 1_555 1_555
H13 C18 1_555 1_555
C19 C14 1_555 1_555
H14 C19 1_555 1_555
C5 C6 1_555 1_555
C8 C9 1_555 1_555
C18 C19 1_555 1_555

#END
