
#######################################################################
#
#                 Cambridge Crystallographic Data Centre
#                                CCDC 
#
#######################################################################
#
# If this CIF has been generated from an entry in the Cambridge 
# Structural Database, then it will include bibliographic, chemical, 
# crystal, experimental, refinement or atomic coordinate data resulting 
# from the CCDC's data processing and validation procedures.
#
#######################################################################

data_RUJKUE
_chemical_formula_moiety         'C21 H22 O5,C1 H4 O1'
_chemical_name_systematic        
'2-hydroxy-8-methoxy-3-methyl-1-(((2-methylbut-3-en-2-yl)oxy)methyl)-9H-xanthen-9-one methanol solvate'
_chemical_properties_biological  'tested binding affinity for 5-HT/D receptors'
_symmetry_cell_setting           triclinic
_symmetry_space_group_name_H-M   'P -1'
_symmetry_Int_Tables_number      2
_space_group_name_Hall           '-P 1'
loop_
_symmetry_equiv_pos_site_id
_symmetry_equiv_pos_as_xyz
1 x,y,z
2 -x,-y,-z
_cell_length_a                   7.2746(7)
_cell_length_b                   12.0963(12)
_cell_length_c                   12.4067(14)
_cell_angle_alpha                65.4510(10)
_cell_angle_beta                 88.499(2)
_cell_angle_gamma                80.902(2)
_cell_volume                     979.609
_cell_formula_units_Z            2
loop_
_atom_site_label
_atom_site_type_symbol
_atom_site_fract_x
_atom_site_fract_y
_atom_site_fract_z
O1 O 0.3021(2) 0.73060(14) 0.31334(13)
O2 O 0.1899(3) 0.62012(15) 0.66211(15)
O3 O 0.2398(3) 0.24364(15) 0.54971(14)
H1 H 0.2165 0.2217 0.6199
O4 O 0.2110(3) 0.84294(15) 0.63829(14)
O5 O 0.2049(3) 0.25853(14) 0.74524(13)
C1 C 0.3110(3) 0.5339(2) 0.32279(19)
H2 H 0.3386 0.5661 0.2431
C2 C 0.2936(3) 0.4130(2) 0.3799(2)
C3 C 0.2570(3) 0.3651(2) 0.50164(19)
C4 C 0.2382(3) 0.43817(19) 0.56453(18)
C5 C 0.2376(3) 0.8756(2) 0.5218(2)
C6 C 0.2549(4) 0.9941(2) 0.4445(2)
H3 H 0.2485 1.0552 0.4721
C7 C 0.2820(4) 1.0220(2) 0.3255(2)
H4 H 0.2902 1.1026 0.2734
C8 C 0.2968(4) 0.9330(2) 0.2838(2)
H5 H 0.3164 0.9523 0.2040
C9 C 0.2879(3) 0.6093(2) 0.38236(18)
C10 C 0.2520(3) 0.56569(19) 0.50214(18)
C11 C 0.2499(3) 0.7803(2) 0.48167(19)
C12 C 0.2822(3) 0.8135(2) 0.3620(2)
C13 C 0.2277(3) 0.6527(2) 0.55773(19)
C14 C 0.3112(4) 0.3304(2) 0.3167(2)
H6 H 0.3419 0.3752 0.2360
H7 H 0.1952 0.3015 0.3180
H8 H 0.4078 0.2613 0.3555
C15 C 0.2026(4) 0.1967(2) 0.8733(2)
C16 C 0.3770(4) 0.2096(2) 0.9256(2)
H9 H 0.4879 0.1946 0.8913
C17 C 0.3888(6) 0.2398(3) 1.0144(3)
H10 H 0.2817 0.2557 1.0516
H11 H 0.5043 0.2454 1.0404
C18 C 0.2083(5) 0.0629(2) 0.8947(2)
H12 H 0.1026 0.0560 0.8546
H13 H 0.2052 0.0132 0.9783
H14 H 0.3208 0.0350 0.8648
C19 C 0.0241(5) 0.2429(3) 0.9172(2)
H15 H 0.0188 0.3286 0.8995
H16 H 0.0206 0.1969 1.0014
H17 H -0.0806 0.2328 0.8787
C20 C 0.2031(4) 0.3884(2) 0.69634(19)
H18 H 0.2984 0.4063 0.7371
H19 H 0.0833 0.4289 0.7083
C21 C 0.2130(4) 0.9332(3) 0.6842(2)
H20 H 0.3317 0.9607 0.6715
H21 H 0.1924 0.8976 0.7676
H22 H 0.1164 1.0019 0.6443
O6 O 0.1318(9) 0.6674(3) 0.8667(3)
H23 H 0.1246 0.6707 0.7996
C22 C 0.2294(8) 0.5640(5) 0.9354(4)
H24 H 0.3585 0.5653 0.9177
H25 H 0.1886 0.4982 0.9232
H26 H 0.2137 0.5514 1.0166
loop_
_geom_bond_atom_site_label_1
_geom_bond_atom_site_label_2
_geom_bond_site_symmetry_1
_geom_bond_site_symmetry_2
O1 C9 1_555 1_555
O2 C13 1_555 1_555
O3 H1 1_555 1_555
O4 C5 1_555 1_555
O5 C15 1_555 1_555
C1 H2 1_555 1_555
C2 C1 1_555 1_555
C3 O3 1_555 1_555
C4 C3 1_555 1_555
C5 C6 1_555 1_555
C6 H3 1_555 1_555
C7 C6 1_555 1_555
H4 C7 1_555 1_555
C8 C7 1_555 1_555
H5 C8 1_555 1_555
C9 C1 1_555 1_555
C10 C4 1_555 1_555
C11 C5 1_555 1_555
C12 O1 1_555 1_555
C13 C10 1_555 1_555
C14 C2 1_555 1_555
H6 C14 1_555 1_555
H7 C14 1_555 1_555
H8 C14 1_555 1_555
C15 C16 1_555 1_555
C16 H9 1_555 1_555
C17 C16 1_555 1_555
H10 C17 1_555 1_555
H11 C17 1_555 1_555
C18 C15 1_555 1_555
H12 C18 1_555 1_555
H13 C18 1_555 1_555
H14 C18 1_555 1_555
C19 C15 1_555 1_555
H15 C19 1_555 1_555
H16 C19 1_555 1_555
H17 C19 1_555 1_555
C20 O5 1_555 1_555
H18 C20 1_555 1_555
H19 C20 1_555 1_555
C21 O4 1_555 1_555
H20 C21 1_555 1_555
H21 C21 1_555 1_555
H22 C21 1_555 1_555
O6 H23 1_555 1_555
C22 O6 1_555 1_555
H24 C22 1_555 1_555
H25 C22 1_555 1_555
H26 C22 1_555 1_555
C2 C3 1_555 1_555
C4 C20 1_555 1_555
C8 C12 1_555 1_555
C9 C10 1_555 1_555
C11 C12 1_555 1_555
C11 C13 1_555 1_555

#END
