
#######################################################################
#
#                 Cambridge Crystallographic Data Centre
#                                CCDC 
#
#######################################################################
#
# If this CIF has been generated from an entry in the Cambridge 
# Structural Database, then it will include bibliographic, chemical, 
# crystal, experimental, refinement or atomic coordinate data resulting 
# from the CCDC's data processing and validation procedures.
#
#######################################################################

data_RUJNEQ
_chemical_formula_moiety         'C14 H9 Cl1 N2 O1'
_chemical_name_systematic        
2-(4-Chlorophenyl)imidazo[1,2-a]pyridine-3-carbaldehyde
_symmetry_cell_setting           orthorhombic
_symmetry_space_group_name_H-M   'P n a 21'
_symmetry_Int_Tables_number      33
_space_group_name_Hall           'P 2c -2n'
loop_
_symmetry_equiv_pos_site_id
_symmetry_equiv_pos_as_xyz
1 x,y,z
2 -x,-y,1/2+z
3 1/2-x,1/2+y,1/2+z
4 1/2+x,1/2-y,z
_cell_length_a                   21.3367(13)
_cell_length_b                   7.2391(4)
_cell_length_c                   15.1748(10)
_cell_angle_alpha                90
_cell_angle_beta                 90
_cell_angle_gamma                90
_cell_volume                     2343.88
_exptl_crystal_colour            yellow
_exptl_crystal_description       block
_cell_formula_units_Z            8
_exptl_crystal_recrystallization_method 'ethyl acetate/petroleum ether'
loop_
_atom_site_label
_atom_site_type_symbol
_atom_site_fract_x
_atom_site_fract_y
_atom_site_fract_z
Cl1 Cl 0.38891(3) 0.69710(12) 0.18830(6)
O2 O 0.76678(8) 0.5045(3) 0.22142(13)
N1 N 0.73924(8) 0.6319(3) 0.39935(13)
N2 N 0.64367(8) 0.7006(3) 0.45277(14)
C1 C 0.57814(10) 0.6745(3) 0.32064(17)
C2 C 0.63898(10) 0.6637(3) 0.36576(16)
C4 C 0.83204(12) 0.6244(4) 0.48197(19)
H1 H 0.8750 0.6038 0.4857
C6 C 0.70483(10) 0.6813(3) 0.47280(16)
C8 C 0.69729(10) 0.6195(3) 0.32942(16)
C13 C 0.51455(11) 0.7437(4) 0.1929(2)
H4 H 0.5110 0.7846 0.1350
C14 C 0.71397(11) 0.5482(3) 0.24447(17)
H5 H 0.6819 0.5340 0.2035
C15 C 0.52395(11) 0.6241(3) 0.36600(18)
H6 H 0.5268 0.5846 0.4242
C18 C 0.73559(11) 0.7049(4) 0.55341(19)
H9 H 0.7133 0.7401 0.6033
C19 C 0.80304(10) 0.6045(3) 0.40399(19)
H10 H 0.8257 0.5727 0.3539
C21 C 0.57237(11) 0.7353(4) 0.23404(18)
H12 H 0.6080 0.7709 0.2032
C23 C 0.46599(12) 0.6322(4) 0.32548(19)
H14 H 0.4300 0.5988 0.3561
C26 C 0.79878(12) 0.6758(4) 0.5579(2)
H17 H 0.8197 0.6899 0.6112
C28 C 0.46229(12) 0.6899(4) 0.23968(19)
Cl2 Cl 0.86516(3) 1.12252(11) 0.50704(6)
O1 O 0.48266(8) 1.0458(3) 0.48167(13)
N3 N 0.60866(9) 1.2130(3) 0.24891(14)
N4 N 0.51184(8) 1.1689(3) 0.30384(13)
C3 C 0.61298(10) 1.1699(3) 0.33495(17)
C5 C 0.79144(11) 1.1336(4) 0.45777(19)
C7 C 0.67494(10) 1.1586(3) 0.37871(17)
C9 C 0.54724(10) 1.2129(3) 0.23030(16)
C10 C 0.78521(11) 1.0860(4) 0.37049(19)
H2 H 0.8198 1.0467 0.3382
C11 C 0.55419(10) 1.1401(3) 0.37297(16)
C12 C 0.72678(10) 1.0975(3) 0.33157(17)
H3 H 0.7221 1.0638 0.2728
C16 C 0.44781(11) 1.1572(3) 0.30118(19)
H7 H 0.4251 1.1274 0.3515
C17 C 0.51591(12) 1.2473(4) 0.15048(19)
H8 H 0.5384 1.2786 0.1001
C20 C 0.45240(12) 1.2345(4) 0.14768(19)
H11 H 0.4314 1.2554 0.0949
C22 C 0.74146(11) 1.1959(4) 0.5060(2)
H13 H 0.7466 1.2286 0.5649
C24 C 0.53638(11) 1.0703(3) 0.45701(17)
H15 H 0.5683 1.0410 0.4963
C25 C 0.68309(11) 1.2097(4) 0.46614(18)
H16 H 0.6491 1.2536 0.4983
C27 C 0.41833(12) 1.1899(4) 0.22393(19)
H18 H 0.3749 1.1827 0.2212
loop_
_geom_bond_atom_site_label_1
_geom_bond_atom_site_label_2
_geom_bond_site_symmetry_1
_geom_bond_site_symmetry_2
Cl1 C28 1_555 1_555
Cl2 C5 1_555 1_555
O1 C24 1_555 1_555
O2 C14 1_555 1_555
N1 C6 1_555 1_555
N2 C2 1_555 1_555
N3 C3 1_555 1_555
C1 C2 1_555 1_555
N4 C9 1_555 1_555
C2 C8 1_555 1_555
C3 C7 1_555 1_555
C4 H1 1_555 1_555
C5 C10 1_555 1_555
C6 N2 1_555 1_555
C7 C12 1_555 1_555
C8 N1 1_555 1_555
C9 N3 1_555 1_555
C10 H2 1_555 1_555
C11 N4 1_555 1_555
C12 C10 1_555 1_555
H3 C12 1_555 1_555
C13 H4 1_555 1_555
C14 C8 1_555 1_555
H5 C14 1_555 1_555
C15 C1 1_555 1_555
H6 C15 1_555 1_555
C16 N4 1_555 1_555
H7 C16 1_555 1_555
C17 C9 1_555 1_555
H8 C17 1_555 1_555
C18 C6 1_555 1_555
H9 C18 1_555 1_555
C19 N1 1_555 1_555
H10 C19 1_555 1_555
C20 C17 1_555 1_555
H11 C20 1_555 1_555
C21 C1 1_555 1_555
H12 C21 1_555 1_555
C22 C5 1_555 1_555
H13 C22 1_555 1_555
C23 C15 1_555 1_555
H14 C23 1_555 1_555
C24 C11 1_555 1_555
H15 C24 1_555 1_555
C25 C7 1_555 1_555
H16 C25 1_555 1_555
C26 C4 1_555 1_555
H17 C26 1_555 1_555
C27 C16 1_555 1_555
H18 C27 1_555 1_555
C28 C13 1_555 1_555
C3 C11 1_555 1_555
C4 C19 1_555 1_555
C13 C21 1_555 1_555
C18 C26 1_555 1_555
C20 C27 1_555 1_555
C22 C25 1_555 1_555
C23 C28 1_555 1_555

#END
