
#######################################################################
#
#                 Cambridge Crystallographic Data Centre
#                                CCDC 
#
#######################################################################
#
# If this CIF has been generated from an entry in the Cambridge 
# Structural Database, then it will include bibliographic, chemical, 
# crystal, experimental, refinement or atomic coordinate data resulting 
# from the CCDC's data processing and validation procedures.
#
#######################################################################

data_RUJPES
_chemical_name_common            
1,1'-(Methylenebis(sulfonylethane-1,1-diyl))dibenzene
_chemical_formula_moiety         'C17 H20 O4 S2'
_chemical_name_systematic        
1-Phenyl-1-[(1-phenylethyl)sulfonylmethylsulfonyl]ethane
_symmetry_cell_setting           orthorhombic
_symmetry_space_group_name_H-M   'P b c a'
_symmetry_Int_Tables_number      61
_space_group_name_Hall           '-P 2ac 2ab'
loop_
_symmetry_equiv_pos_site_id
_symmetry_equiv_pos_as_xyz
1 x,y,z
2 1/2-x,-y,1/2+z
3 -x,1/2+y,1/2-z
4 1/2+x,1/2-y,-z
5 -x,-y,-z
6 1/2+x,y,1/2-z
7 x,1/2-y,1/2+z
8 1/2-x,1/2+y,z
_cell_length_a                   16.662(3)
_cell_length_b                   19.270(4)
_cell_length_c                   22.094(4)
_cell_angle_alpha                90
_cell_angle_beta                 90
_cell_angle_gamma                90
_cell_volume                     7093.87
_exptl_crystal_colour            'light yellow'
_exptl_crystal_description       block
_cell_formula_units_Z            16
loop_
_atom_site_label
_atom_site_type_symbol
_atom_site_fract_x
_atom_site_fract_y
_atom_site_fract_z
S1 S 0.42601(4) 0.14356(4) 0.65021(3)
S2 S 0.43044(5) 0.28236(4) 0.71302(4)
O1 O 0.50929(13) 0.14107(13) 0.66501(12)
O2 O 0.40126(15) 0.11824(12) 0.59213(9)
O3 O 0.39709(17) 0.25589(12) 0.76788(9)
O4 O 0.51574(14) 0.28768(13) 0.70805(14)
C1 C 0.2418(2) 0.0672(2) 0.65607(16)
H1 H 0.2706 0.0376 0.6309
C2 C 0.1600(3) 0.0728(3) 0.6496(2)
H2 H 0.1340 0.0469 0.6200
C3 C 0.1172(3) 0.1152(3) 0.6855(3)
H3 H 0.0619 0.1186 0.6805
C4 C 0.1543(2) 0.1535(2) 0.7294(2)
H4 H 0.1244 0.1825 0.7544
C5 C 0.2375(2) 0.14881(17) 0.73661(16)
H5 H 0.2631 0.1750 0.7662
C6 C 0.28160(17) 0.10547(14) 0.69983(12)
C7 C 0.37104(17) 0.09921(14) 0.70854(12)
H6 H 0.3846 0.1210 0.7473
C8 C 0.4035(2) 0.02521(17) 0.70958(16)
H7 H 0.3753 -0.0013 0.7396
H8 H 0.4597 0.0261 0.7192
H9 H 0.3960 0.0042 0.6706
C9 C 0.39327(17) 0.23133(14) 0.65224(12)
H10 H 0.4088 0.2534 0.6145
H11 H 0.3351 0.2316 0.6541
C10 C 0.3892(2) 0.36687(17) 0.69637(16)
H12 H 0.4176 0.3848 0.6608
C11 C 0.4098(3) 0.4138(2) 0.7492(2)
H13 H 0.3917 0.4601 0.7407
H14 H 0.4669 0.4141 0.7551
H15 H 0.3840 0.3970 0.7851
C12 C 0.30164(19) 0.36350(15) 0.68054(15)
C13 C 0.2783(2) 0.3767(2) 0.62202(18)
H16 H 0.3168 0.3885 0.5933
C14 C 0.1986(4) 0.3726(3) 0.6053(3)
H17 H 0.1825 0.3822 0.5659
C15 C 0.1430(3) 0.3535(3) 0.6495(5)
H18 H 0.0892 0.3485 0.6393
C16 C 0.1663(4) 0.3425(3) 0.7057(4)
H19 H 0.1279 0.3318 0.7348
C17 C 0.2446(3) 0.34631(19) 0.7224(2)
H20 H 0.2594 0.3372 0.7622
S3 S 0.91769(4) 0.01716(4) 0.58927(3)
S4 S 0.95474(4) 0.14921(4) 0.52137(3)
O5 O 0.99638(12) -0.01180(13) 0.58338(9)
O6 O 0.90029(12) 0.05709(11) 0.64260(8)
O7 O 1.03467(12) 0.13461(14) 0.54114(11)
O8 O 0.94424(13) 0.17500(12) 0.46090(9)
C18 C 0.7175(2) -0.03355(18) 0.52485(15)
H21 H 0.7416 -0.0530 0.4909
C19 C 0.6381(2) -0.0121(2) 0.52199(19)
H22 H 0.6089 -0.0180 0.4865
C20 C 0.6028(2) 0.0175(2) 0.5712(2)
H23 H 0.5498 0.0324 0.5691
C21 C 0.6446(2) 0.02539(19) 0.62323(18)
H24 H 0.6202 0.0459 0.6566
C22 C 0.72306(19) 0.00328(17) 0.62717(14)
H25 H 0.7509 0.0081 0.6634
C23 C 0.76090(17) -0.02629(15) 0.57724(13)
C24 C 0.84634(17) -0.05169(15) 0.58011(13)
H26 H 0.8581 -0.0748 0.5416
C25 C 0.8621(2) -0.10406(19) 0.63070(16)
H27 H 0.8535 -0.0823 0.6692
H28 H 0.9166 -0.1201 0.6282
H29 H 0.8262 -0.1427 0.6264
C26 C 0.89830(16) 0.07083(16) 0.52489(11)
H30 H 0.9092 0.0441 0.4886
H31 H 0.8417 0.0825 0.5246
C27 C 0.90765(19) 0.20848(18) 0.57385(14)
H32 H 0.9089 0.1869 0.6140
C28 C 0.9598(3) 0.2734(3) 0.5763(2)
H33 H 0.9649 0.2925 0.5364
H34 H 1.0120 0.2615 0.5916
H35 H 0.9354 0.3070 0.6026
C29 C 0.82128(19) 0.22151(16) 0.55802(14)
C30 C 0.7612(2) 0.18929(19) 0.59077(16)
H36 H 0.7748 0.1587 0.6217
C31 C 0.6814(2) 0.2018(2) 0.5783(2)
H37 H 0.6419 0.1802 0.6013
C32 C 0.6603(3) 0.2448(2) 0.5333(2)
H38 H 0.6063 0.2530 0.5256
C33 C 0.7169(3) 0.2765(2) 0.4991(2)
H39 H 0.7016 0.3052 0.4674
C34 C 0.7977(3) 0.26611(18) 0.51137(16)
H40 H 0.8364 0.2889 0.4884
loop_
_geom_bond_atom_site_label_1
_geom_bond_atom_site_label_2
_geom_bond_site_symmetry_1
_geom_bond_site_symmetry_2
S1 O1 1_555 1_555
S2 O3 1_555 1_555
S3 O5 1_555 1_555
S4 O7 1_555 1_555
O2 S1 1_555 1_555
O4 S2 1_555 1_555
O6 S3 1_555 1_555
O8 S4 1_555 1_555
C1 H1 1_555 1_555
C2 C1 1_555 1_555
H2 C2 1_555 1_555
C3 C2 1_555 1_555
H3 C3 1_555 1_555
C4 C3 1_555 1_555
H4 C4 1_555 1_555
C5 C4 1_555 1_555
H5 C5 1_555 1_555
C6 C1 1_555 1_555
C7 S1 1_555 1_555
H6 C7 1_555 1_555
C8 C7 1_555 1_555
H7 C8 1_555 1_555
H8 C8 1_555 1_555
H9 C8 1_555 1_555
C9 S1 1_555 1_555
H10 C9 1_555 1_555
H11 C9 1_555 1_555
C10 S2 1_555 1_555
H12 C10 1_555 1_555
C11 C10 1_555 1_555
H13 C11 1_555 1_555
H14 C11 1_555 1_555
H15 C11 1_555 1_555
C12 C10 1_555 1_555
C13 C12 1_555 1_555
H16 C13 1_555 1_555
C14 C13 1_555 1_555
H17 C14 1_555 1_555
C15 C14 1_555 1_555
H18 C15 1_555 1_555
C16 C15 1_555 1_555
H19 C16 1_555 1_555
C17 C12 1_555 1_555
H20 C17 1_555 1_555
C18 H21 1_555 1_555
C19 C18 1_555 1_555
H22 C19 1_555 1_555
C20 C19 1_555 1_555
H23 C20 1_555 1_555
C21 C20 1_555 1_555
H24 C21 1_555 1_555
C22 C21 1_555 1_555
H25 C22 1_555 1_555
C23 C18 1_555 1_555
C24 S3 1_555 1_555
H26 C24 1_555 1_555
C25 C24 1_555 1_555
H27 C25 1_555 1_555
H28 C25 1_555 1_555
H29 C25 1_555 1_555
C26 S3 1_555 1_555
H30 C26 1_555 1_555
H31 C26 1_555 1_555
C27 S4 1_555 1_555
H32 C27 1_555 1_555
C28 C27 1_555 1_555
H33 C28 1_555 1_555
H34 C28 1_555 1_555
H35 C28 1_555 1_555
C29 C27 1_555 1_555
C30 C29 1_555 1_555
H36 C30 1_555 1_555
C31 C30 1_555 1_555
H37 C31 1_555 1_555
C32 C31 1_555 1_555
H38 C32 1_555 1_555
C33 C32 1_555 1_555
H39 C33 1_555 1_555
C34 C29 1_555 1_555
H40 C34 1_555 1_555
S2 C9 1_555 1_555
S4 C26 1_555 1_555
C5 C6 1_555 1_555
C6 C7 1_555 1_555
C16 C17 1_555 1_555
C22 C23 1_555 1_555
C23 C24 1_555 1_555
C33 C34 1_555 1_555

#END
