
#######################################################################
#
#                 Cambridge Crystallographic Data Centre
#                                CCDC 
#
#######################################################################
#
# If this CIF has been generated from an entry in the Cambridge 
# Structural Database, then it will include bibliographic, chemical, 
# crystal, experimental, refinement or atomic coordinate data resulting 
# from the CCDC's data processing and validation procedures.
#
#######################################################################

data_RUJQET
_chemical_formula_moiety         'C16 H12 Cl2 N3 1+,C7 H4 Cl1 O2 1-'
_chemical_name_systematic        
'7-Chloro-4-[(E)-(3-chlorobenzylidene)hydrazinyl]-1\l^4^-quinolinium 3-chlorobenzoate'
_symmetry_cell_setting           triclinic
_symmetry_space_group_name_H-M   'P -1'
_symmetry_Int_Tables_number      2
_space_group_name_Hall           '-P 1'
loop_
_symmetry_equiv_pos_site_id
_symmetry_equiv_pos_as_xyz
1 x,y,z
2 -x,-y,-z
_cell_length_a                   8.8777(2)
_cell_length_b                   10.7064(3)
_cell_length_c                   11.9807(3)
_cell_angle_alpha                112.5318(12)
_cell_angle_beta                 91.6382(15)
_cell_angle_gamma                97.4362(15)
_cell_volume                     1039.17
_exptl_crystal_colour            yellow
_exptl_crystal_description       block
_chemical_melting_point          '463-465 K'
_cell_formula_units_Z            2
_exptl_crystal_recrystallization_method ethanol
loop_
_atom_site_label
_atom_site_type_symbol
_atom_site_fract_x
_atom_site_fract_y
_atom_site_fract_z
Cl1 Cl -0.20629(7) -0.15682(6) 0.12224(5)
Cl2 Cl 0.85051(7) 0.10932(6) 1.02577(5)
N1 N 0.0669(2) -0.2783(2) 0.43607(18)
H1 H -0.007(3) -0.349(3) 0.417(2)
N2 N 0.3644(2) 0.08652(19) 0.57378(17)
H2 H 0.3580 0.1499 0.5448
N3 N 0.4690(2) 0.1101(2) 0.67007(17)
C1 C 0.1764(3) -0.2566(2) 0.5229(2)
H3 H 0.1815 -0.3246 0.5550
C2 C 0.2826(3) -0.1393(2) 0.5677(2)
H4 H 0.3619 -0.1290 0.6269
C3 C 0.2724(2) -0.0350(2) 0.5250(2)
C4 C 0.1584(2) -0.0590(2) 0.4281(2)
C5 C 0.1406(3) 0.0354(2) 0.3736(2)
H5 H 0.2070 0.1203 0.4012
C6 C 0.0291(3) 0.0063(2) 0.2819(2)
H6 H 0.0173 0.0709 0.2469
C7 C -0.0678(3) -0.1204(2) 0.2400(2)
C8 C -0.0558(3) -0.2149(2) 0.2900(2)
H7 H -0.1226 -0.2996 0.2607
C9 C 0.0570(2) -0.1842(2) 0.3852(2)
C10 C 0.5321(3) 0.2345(2) 0.7240(2)
H8 H 0.5072 0.3008 0.6948
C11 C 0.6420(3) 0.2766(2) 0.8300(2)
C12 C 0.6897(3) 0.1816(2) 0.8718(2)
H9 H 0.6519 0.0869 0.8313
C13 C 0.7928(3) 0.2280(2) 0.9730(2)
C14 C 0.8501(3) 0.3651(3) 1.0350(2)
H10 H 0.9208 0.3945 1.1043
C15 C 0.8015(3) 0.4585(3) 0.9931(2)
H11 H 0.8388 0.5532 1.0346
C16 C 0.6988(3) 0.4153(3) 0.8908(2)
H12 H 0.6673 0.4803 0.8625
Cl3 Cl 0.12274(6) 0.37851(6) 0.30843(6)
O1 O 0.67939(19) 0.66372(16) 0.43847(15)
O2 O 0.84256(18) 0.51324(17) 0.36860(16)
C17 C 0.7100(3) 0.5460(2) 0.3827(2)
C18 C 0.5784(3) 0.4312(2) 0.3217(2)
C19 C 0.4291(3) 0.4533(2) 0.3442(2)
H13 H 0.4091 0.5382 0.4019
C20 C 0.3100(3) 0.3500(2) 0.2816(2)
C21 C 0.3357(3) 0.2254(2) 0.1967(2)
H14 H 0.2526 0.1564 0.1535
C22 C 0.4848(3) 0.2028(3) 0.1756(2)
H15 H 0.5041 0.1175 0.1183
C23 C 0.6058(3) 0.3051(2) 0.2385(2)
H16 H 0.7077 0.2889 0.2245
loop_
_geom_bond_atom_site_label_1
_geom_bond_atom_site_label_2
_geom_bond_site_symmetry_1
_geom_bond_site_symmetry_2
Cl1 C7 1_555 1_555
Cl2 C13 1_555 1_555
N1 H1 1_555 1_555
N2 H2 1_555 1_555
N3 N2 1_555 1_555
C1 N1 1_555 1_555
H3 C1 1_555 1_555
C2 C1 1_555 1_555
H4 C2 1_555 1_555
C3 N2 1_555 1_555
C4 C3 1_555 1_555
C5 C4 1_555 1_555
H5 C5 1_555 1_555
C6 C5 1_555 1_555
H6 C6 1_555 1_555
C7 C6 1_555 1_555
C8 C7 1_555 1_555
H7 C8 1_555 1_555
C9 N1 1_555 1_555
C10 N3 1_555 1_555
H8 C10 1_555 1_555
C11 C10 1_555 1_555
C12 C11 1_555 1_555
H9 C12 1_555 1_555
C13 C12 1_555 1_555
C14 C13 1_555 1_555
H10 C14 1_555 1_555
C15 C14 1_555 1_555
H11 C15 1_555 1_555
C16 C11 1_555 1_555
H12 C16 1_555 1_555
Cl3 C20 1_555 1_555
O1 C17 1_555 1_555
O2 C17 1_555 1_555
C17 C18 1_555 1_555
C18 C19 1_555 1_555
C19 H13 1_555 1_555
C20 C19 1_555 1_555
C21 C20 1_555 1_555
H14 C21 1_555 1_555
C22 C21 1_555 1_555
H15 C22 1_555 1_555
C23 C18 1_555 1_555
H16 C23 1_555 1_555
C2 C3 1_555 1_555
C4 C9 1_555 1_555
C8 C9 1_555 1_555
C15 C16 1_555 1_555
C22 C23 1_555 1_555

#END
