
#######################################################################
#
#                 Cambridge Crystallographic Data Centre
#                                CCDC 
#
#######################################################################
#
# If this CIF has been generated from an entry in the Cambridge 
# Structural Database, then it will include bibliographic, chemical, 
# crystal, experimental, refinement or atomic coordinate data resulting 
# from the CCDC's data processing and validation procedures.
#
#######################################################################

data_RUJVEZ
_chemical_formula_moiety         'C36 H35 N3 O7'
_chemical_name_systematic        
'dimethyl 5-cyano-5-(2,2-dimethylpropanoyl)-1-(4-methylphenyl)-4-(4-nitrophenyl)-6-(2-phenylvinyl)-1,4,5,6-tetrahydropyridine-2,3-dicarboxylate unknown solvate'
_symmetry_cell_setting           monoclinic
_symmetry_space_group_name_H-M   'P 21/c'
_symmetry_Int_Tables_number      14
_space_group_name_Hall           '-P 2ybc'
loop_
_symmetry_equiv_pos_site_id
_symmetry_equiv_pos_as_xyz
1 x,y,z
2 -x,1/2+y,1/2-z
3 -x,-y,-z
4 x,1/2-y,1/2+z
_cell_length_a                   12.9560(16)
_cell_length_b                   21.000(3)
_cell_length_c                   13.8171(18)
_cell_angle_alpha                90
_cell_angle_beta                 91.115(4)
_cell_angle_gamma                90
_cell_volume                     3758.59
_exptl_crystal_colour            colorless
_exptl_crystal_description       block
_cell_formula_units_Z            4
loop_
_atom_site_label
_atom_site_type_symbol
_atom_site_fract_x
_atom_site_fract_y
_atom_site_fract_z
C1 C 0.3696(3) 0.20651(17) 0.3299(3)
H1 H 0.3250 0.1935 0.3780
C2 C 0.4312(4) 0.2600(2) 0.3460(5)
H2 H 0.4310 0.2814 0.4048
C3 C 0.4941(4) 0.2806(2) 0.2691(6)
H3 H 0.5334 0.3174 0.2766
C4 C 0.4979(4) 0.2478(3) 0.1858(5)
H4 H 0.5393 0.2617 0.1358
C5 C 0.4400(3) 0.1935(2) 0.1756(3)
H5 H 0.4457 0.1696 0.1192
C6 C 0.3729(2) 0.17293(14) 0.2467(2)
C7 C 0.3083(2) 0.11656(13) 0.22694(19)
H6 H 0.3315 0.0886 0.1799
C8 C 0.22145(17) 0.10173(11) 0.26883(16)
H7 H 0.1974 0.1289 0.3165
C9 C 0.15896(16) 0.04400(10) 0.24466(14)
H8 H 0.1948 0.0198 0.1948
C10 C 0.05686(16) 0.11252(11) 0.13392(15)
C11 C 0.01644(19) 0.17078(12) 0.15318(17)
H9 H -0.0120 0.1789 0.2132
C12 C 0.0177(2) 0.21757(12) 0.0838(2)
H10 H -0.0119 0.2569 0.0966
C13 C 0.0626(2) 0.20696(13) -0.0053(2)
C14 C 0.0633(3) 0.25861(18) -0.0817(3)
H11 H 0.1200 0.2870 -0.0689
H12 H -0.0004 0.2819 -0.0802
H13 H 0.0708 0.2396 -0.1443
C15 C 0.1032(2) 0.14876(14) -0.02276(19)
H14 H 0.1335 0.1409 -0.0821
C16 C 0.10064(19) 0.10060(12) 0.04570(16)
H15 H 0.1282 0.0607 0.0323
C17 C -0.02797(16) 0.02426(11) 0.21678(14)
C18 C -0.12396(17) 0.04879(11) 0.16513(17)
C19 C -0.2707(2) 0.11314(14) 0.1823(2)
H16 H -0.2553 0.1455 0.1357
H17 H -0.3105 0.1312 0.2334
H18 H -0.3094 0.0797 0.1513
C20 C -0.02658(16) -0.03111(10) 0.26604(14)
C21 C -0.12258(18) -0.06724(11) 0.27258(16)
C22 C -0.1975(2) -0.16452(14) 0.3199(2)
H19 H -0.2512 -0.1409 0.3507
H20 H -0.1805 -0.2013 0.3582
H21 H -0.2210 -0.1778 0.2567
C23 C 0.16655(19) -0.16011(12) 0.28724(18)
H22 H 0.1665 -0.1650 0.3541
C24 C 0.2117(2) -0.20614(12) 0.23100(19)
H23 H 0.2423 -0.2418 0.2594
C25 C 0.21071(19) -0.19846(12) 0.13277(18)
C26 C 0.16673(19) -0.14636(12) 0.08908(17)
H24 H 0.1672 -0.1419 0.0221
C27 C 0.12170(18) -0.10060(11) 0.14628(15)
H25 H 0.0912 -0.0651 0.1173
C28 C 0.12116(16) -0.10662(10) 0.24572(15)
C29 C 0.07157(16) -0.05691(10) 0.30965(15)
H26 H 0.0543 -0.0777 0.3707
C30 C 0.14552(15) 0.00016(10) 0.33455(14)
C31 C 0.09453(17) 0.03960(12) 0.40888(16)
C32 C 0.25422(16) -0.02494(11) 0.36514(16)
C33 C 0.29037(18) -0.03139(15) 0.46973(17)
C34 C 0.3199(2) 0.03638(18) 0.5048(2)
H27 H 0.3690 0.0545 0.4616
H28 H 0.3497 0.0340 0.5688
H29 H 0.2592 0.0626 0.5057
C35 C 0.2083(2) -0.05939(18) 0.53547(19)
H30 H 0.1463 -0.0345 0.5300
H31 H 0.2332 -0.0588 0.6013
H32 H 0.1938 -0.1025 0.5163
C36 C 0.3859(2) -0.0755(2) 0.4723(2)
H33 H 0.3662 -0.1173 0.4510
H34 H 0.4134 -0.0777 0.5373
H35 H 0.4375 -0.0588 0.4303
N1 N 0.05696(13) 0.06236(9) 0.20597(12)
N2 N 0.2566(2) -0.24767(12) 0.0725(2)
N3 N 0.05451(16) 0.07163(11) 0.46195(15)
O1 O -0.14638(13) 0.03595(8) 0.08360(11)
O2 O -0.17616(11) 0.08773(8) 0.22194(11)
O3 O -0.20681(13) -0.04919(9) 0.24639(14)
O4 O -0.10726(12) -0.12482(8) 0.31108(12)
O5 O 0.2505(2) -0.24217(12) -0.01560(19)
O6 O 0.2994(3) -0.29230(13) 0.1128(2)
O7 O 0.30898(12) -0.03991(8) 0.29984(12)
loop_
_geom_bond_atom_site_label_1
_geom_bond_atom_site_label_2
_geom_bond_site_symmetry_1
_geom_bond_site_symmetry_2
C1 H1 1_555 1_555
C2 C1 1_555 1_555
H2 C2 1_555 1_555
C3 C2 1_555 1_555
H3 C3 1_555 1_555
C4 C3 1_555 1_555
H4 C4 1_555 1_555
C5 C4 1_555 1_555
H5 C5 1_555 1_555
C6 C1 1_555 1_555
C7 C6 1_555 1_555
H6 C7 1_555 1_555
C8 C7 1_555 1_555
H7 C8 1_555 1_555
C9 C8 1_555 1_555
H8 C9 1_555 1_555
C10 C11 1_555 1_555
C11 H9 1_555 1_555
C12 C11 1_555 1_555
H10 C12 1_555 1_555
C13 C12 1_555 1_555
C14 C13 1_555 1_555
H11 C14 1_555 1_555
H12 C14 1_555 1_555
H13 C14 1_555 1_555
C15 C13 1_555 1_555
H14 C15 1_555 1_555
C16 C10 1_555 1_555
H15 C16 1_555 1_555
C17 C18 1_555 1_555
C18 O1 1_555 1_555
C19 H16 1_555 1_555
H17 C19 1_555 1_555
H18 C19 1_555 1_555
C20 C17 1_555 1_555
C21 C20 1_555 1_555
C22 H19 1_555 1_555
H20 C22 1_555 1_555
H21 C22 1_555 1_555
C23 H22 1_555 1_555
C24 C23 1_555 1_555
H23 C24 1_555 1_555
C25 C24 1_555 1_555
C26 C25 1_555 1_555
H24 C26 1_555 1_555
C27 C26 1_555 1_555
H25 C27 1_555 1_555
C28 C23 1_555 1_555
C29 C20 1_555 1_555
H26 C29 1_555 1_555
C30 C9 1_555 1_555
C31 C30 1_555 1_555
C32 C30 1_555 1_555
C33 C32 1_555 1_555
C34 C33 1_555 1_555
H27 C34 1_555 1_555
H28 C34 1_555 1_555
H29 C34 1_555 1_555
C35 C33 1_555 1_555
H30 C35 1_555 1_555
H31 C35 1_555 1_555
H32 C35 1_555 1_555
C36 C33 1_555 1_555
H33 C36 1_555 1_555
H34 C36 1_555 1_555
H35 C36 1_555 1_555
N1 C9 1_555 1_555
N2 C25 1_555 1_555
N3 C31 1_555 1_555
O2 C18 1_555 1_555
O3 C21 1_555 1_555
O4 C21 1_555 1_555
O5 N2 1_555 1_555
O6 N2 1_555 1_555
O7 C32 1_555 1_555
C5 C6 1_555 1_555
C10 N1 1_555 1_555
C15 C16 1_555 1_555
C17 N1 1_555 1_555
C19 O2 1_555 1_555
C22 O4 1_555 1_555
C27 C28 1_555 1_555
C28 C29 1_555 1_555
C29 C30 1_555 1_555

#END
