
#######################################################################
#
#                 Cambridge Crystallographic Data Centre
#                                CCDC 
#
#######################################################################
#
# If this CIF has been generated from an entry in the Cambridge 
# Structural Database, then it will include bibliographic, chemical, 
# crystal, experimental, refinement or atomic coordinate data resulting 
# from the CCDC's data processing and validation procedures.
#
#######################################################################

data_RUJVUP
_chemical_formula_moiety         'C32 H29 N3 O7'
_chemical_name_systematic        
'3-ethyl 5-methyl 3-cyano-1-(4-methoxyphenyl)-4-(4-nitrophenyl)-2-(2-phenylvinyl)-1,2,3,4-tetrahydropyridine-3,5-dicarboxylate'
_symmetry_cell_setting           orthorhombic
_symmetry_space_group_name_H-M   'P b c a'
_symmetry_Int_Tables_number      61
_space_group_name_Hall           '-P 2ac 2ab'
loop_
_symmetry_equiv_pos_site_id
_symmetry_equiv_pos_as_xyz
1 x,y,z
2 1/2-x,-y,1/2+z
3 -x,1/2+y,1/2-z
4 1/2+x,1/2-y,-z
5 -x,-y,-z
6 1/2+x,y,1/2-z
7 x,1/2-y,1/2+z
8 1/2-x,1/2+y,z
_cell_length_a                   12.1099(13)
_cell_length_b                   19.485(2)
_cell_length_c                   24.188(3)
_cell_angle_alpha                90
_cell_angle_beta                 90
_cell_angle_gamma                90
_cell_volume                     5707.43
_exptl_crystal_colour            colorless
_exptl_crystal_description       block
_cell_formula_units_Z            8
loop_
_atom_site_label
_atom_site_type_symbol
_atom_site_fract_x
_atom_site_fract_y
_atom_site_fract_z
C1 C -0.32699(18) 0.93332(12) 0.36074(11)
H1 H -0.3609 0.9207 0.3937
C2 C -0.3896(2) 0.96102(13) 0.31892(13)
H2 H -0.4650 0.9675 0.3239
C3 C -0.3412(3) 0.97906(12) 0.27015(13)
H3 H -0.3838 0.9971 0.2417
C4 C -0.2296(3) 0.97059(12) 0.26308(10)
H4 H -0.1966 0.9836 0.2300
C5 C -0.16622(19) 0.94287(11) 0.30488(9)
H5 H -0.0907 0.9369 0.2997
C6 C -0.21466(16) 0.92390(10) 0.35466(8)
C7 C -0.14944(16) 0.89055(10) 0.39824(8)
H6 H -0.1843 0.8562 0.4184
C8 C -0.04617(15) 0.90464(9) 0.41152(7)
H7 H -0.0129 0.9430 0.3958
C9 C 0.01953(14) 0.86175(9) 0.45070(7)
H8 H -0.0289 0.8256 0.4650
C10 C -0.09978(15) 0.88012(9) 0.55444(7)
H9 H -0.1417 0.8749 0.5225
C11 C -0.14952(16) 0.87270(10) 0.60563(8)
H10 H -0.2241 0.8615 0.6079
C12 C -0.08932(18) 0.88176(9) 0.65297(7)
C13 C -0.2434(2) 0.85645(14) 0.71038(10)
H11 H -0.2878 0.8912 0.6931
H12 H -0.2627 0.8530 0.7488
H13 H -0.2563 0.8132 0.6926
C14 C 0.02095(19) 0.89874(10) 0.64918(8)
H14 H 0.0614 0.9065 0.6812
C15 C 0.07175(16) 0.90427(9) 0.59850(7)
H15 H 0.1468 0.9141 0.5965
C16 C 0.01117(14) 0.89513(8) 0.55029(7)
C17 C 0.15608(14) 0.93818(8) 0.48956(7)
H16 H 0.1751 0.9699 0.5167
C18 C 0.22177(14) 0.93347(8) 0.44499(7)
C19 C 0.30840(15) 0.98436(8) 0.43557(8)
C20 C 0.4157(2) 1.07310(12) 0.47514(11)
H17 H 0.4824 1.0527 0.4613
H18 H 0.4299 1.0940 0.5104
H19 H 0.3904 1.1074 0.4496
C21 C 0.20540(14) 0.87994(8) 0.40047(7)
H20 H 0.1753 0.9032 0.3679
C22 C 0.31312(14) 0.84554(8) 0.38326(7)
C23 C 0.39292(15) 0.82800(9) 0.42209(7)
H21 H 0.3794 0.8364 0.4593
C24 C 0.49130(15) 0.79860(9) 0.40661(7)
H22 H 0.5438 0.7864 0.4329
C25 C 0.51004(16) 0.78773(9) 0.35127(8)
C26 C 0.43294(18) 0.80341(10) 0.31163(8)
H23 H 0.4471 0.7949 0.2745
C27 C 0.33437(16) 0.83199(9) 0.32801(7)
H24 H 0.2811 0.8424 0.3016
C28 C 0.11868(14) 0.82617(8) 0.41986(7)
C29 C 0.16669(15) 0.77639(9) 0.45882(7)
C30 C 0.06804(15) 0.78936(10) 0.36948(8)
C31 C -0.0488(2) 0.69885(13) 0.34081(11)
H25 H -0.1036 0.7308 0.3268
H26 H -0.0023 0.6844 0.3103
C32 C -0.1025(3) 0.64003(15) 0.36546(17)
H27 H -0.0485 0.6054 0.3734
H28 H -0.1564 0.6220 0.3402
H29 H -0.1383 0.6537 0.3991
N1 N 0.20174(15) 0.73886(9) 0.49008(7)
N2 N 0.61851(18) 0.76071(10) 0.33459(9)
N3 N 0.06373(12) 0.89987(7) 0.49789(6)
O1 O 0.33241(11) 1.02091(7) 0.48127(5)
O2 O 0.35498(12) 0.99341(7) 0.39225(6)
O3 O 0.06800(13) 0.81283(9) 0.32410(6)
O4 O 0.01879(12) 0.73211(7) 0.38416(6)
O5 O -0.13014(15) 0.87416(8) 0.70547(6)
O6 O 0.6316(2) 0.74602(14) 0.28689(9)
O7 O 0.68882(15) 0.75327(10) 0.36947(9)
loop_
_geom_bond_atom_site_label_1
_geom_bond_atom_site_label_2
_geom_bond_site_symmetry_1
_geom_bond_site_symmetry_2
C1 H1 1_555 1_555
C2 C1 1_555 1_555
H2 C2 1_555 1_555
C3 C2 1_555 1_555
H3 C3 1_555 1_555
C4 C3 1_555 1_555
H4 C4 1_555 1_555
C5 C4 1_555 1_555
H5 C5 1_555 1_555
C6 C1 1_555 1_555
C7 C6 1_555 1_555
H6 C7 1_555 1_555
C8 C7 1_555 1_555
H7 C8 1_555 1_555
C9 C8 1_555 1_555
H8 C9 1_555 1_555
C10 H9 1_555 1_555
C11 C10 1_555 1_555
H10 C11 1_555 1_555
C12 C11 1_555 1_555
C13 H11 1_555 1_555
H12 C13 1_555 1_555
H13 C13 1_555 1_555
C14 C12 1_555 1_555
H14 C14 1_555 1_555
C15 C14 1_555 1_555
H15 C15 1_555 1_555
C16 C10 1_555 1_555
C17 H16 1_555 1_555
C18 C17 1_555 1_555
C19 C18 1_555 1_555
C20 H17 1_555 1_555
H18 C20 1_555 1_555
H19 C20 1_555 1_555
C21 C18 1_555 1_555
H20 C21 1_555 1_555
C22 C21 1_555 1_555
C23 C22 1_555 1_555
H21 C23 1_555 1_555
C24 C23 1_555 1_555
H22 C24 1_555 1_555
C25 C24 1_555 1_555
C26 C25 1_555 1_555
H23 C26 1_555 1_555
C27 C22 1_555 1_555
H24 C27 1_555 1_555
C28 C9 1_555 1_555
C29 C28 1_555 1_555
C30 C28 1_555 1_555
C31 H25 1_555 1_555
H26 C31 1_555 1_555
C32 C31 1_555 1_555
H27 C32 1_555 1_555
H28 C32 1_555 1_555
H29 C32 1_555 1_555
N1 C29 1_555 1_555
N2 C25 1_555 1_555
N3 C9 1_555 1_555
O1 C19 1_555 1_555
O2 C19 1_555 1_555
O3 C30 1_555 1_555
O4 C30 1_555 1_555
O5 C12 1_555 1_555
O6 N2 1_555 1_555
O7 N2 1_555 1_555
C5 C6 1_555 1_555
C13 O5 1_555 1_555
C15 C16 1_555 1_555
C16 N3 1_555 1_555
C17 N3 1_555 1_555
C20 O1 1_555 1_555
C21 C28 1_555 1_555
C26 C27 1_555 1_555
C31 O4 1_555 1_555

#END
