
#######################################################################
#
#                 Cambridge Crystallographic Data Centre
#                                CCDC 
#
#######################################################################
#
# If this CIF has been generated from an entry in the Cambridge 
# Structural Database, then it will include bibliographic, chemical, 
# crystal, experimental, refinement or atomic coordinate data resulting 
# from the CCDC's data processing and validation procedures.
#
#######################################################################

data_RUKGUB
_chemical_formula_moiety         'C18 H13 Cl3 N2 O1'
_chemical_name_systematic        
3,3,3-trichloro-2-phenyl-1-(1-phenyl-1H-imidazol-2-yl)propan-1-one
_symmetry_cell_setting           orthorhombic
_symmetry_space_group_name_H-M   'P 21 21 21'
_symmetry_Int_Tables_number      19
_space_group_name_Hall           'P 2ac 2ab'
loop_
_symmetry_equiv_pos_site_id
_symmetry_equiv_pos_as_xyz
1 x,y,z
2 1/2+x,1/2-y,-z
3 -x,1/2+y,1/2-z
4 1/2-x,-y,1/2+z
_cell_length_a                   8.5247(3)
_cell_length_b                   9.7490(4)
_cell_length_c                   20.5673(7)
_cell_angle_alpha                90
_cell_angle_beta                 90
_cell_angle_gamma                90
_cell_volume                     1709.29
_exptl_crystal_colour            colorless
_exptl_crystal_description       plate
_cell_formula_units_Z            4
loop_
_atom_site_label
_atom_site_type_symbol
_atom_site_fract_x
_atom_site_fract_y
_atom_site_fract_z
Cl1 Cl 1.03701(5) 0.05668(4) 0.03609(2)
Cl2 Cl 0.83607(6) -0.10358(4) 0.11859(2)
Cl3 Cl 1.07760(5) 0.07005(4) 0.17403(2)
O1 O 0.74963(15) 0.11653(14) 0.22397(6)
N1 N 0.49960(16) 0.28032(15) 0.10920(7)
N2 N 0.46267(15) 0.27526(14) 0.21649(6)
C1 C 0.71056(18) 0.17005(16) 0.17329(8)
C2 C 0.81444(18) 0.17385(15) 0.11231(7)
C3 C 0.93486(18) 0.05622(15) 0.11152(7)
C4 C 0.56020(18) 0.24144(16) 0.16569(7)
C5 C 0.3596(2) 0.34065(19) 0.12408(8)
C6 C 0.33571(19) 0.33978(18) 0.19009(8)
C7 C 0.48692(18) 0.25362(16) 0.28515(7)
C8 C 0.39803(19) 0.15577(17) 0.31699(8)
C9 C 0.4214(2) 0.13571(17) 0.38335(8)
C10 C 0.5320(2) 0.21313(18) 0.41638(8)
C11 C 0.6189(2) 0.3116(2) 0.38389(9)
C12 C 0.5959(2) 0.33257(19) 0.31766(8)
C13 C 0.88817(17) 0.31477(16) 0.10420(7)
C14 C 0.93549(19) 0.39281(17) 0.15752(7)
C15 C 1.0045(2) 0.52106(18) 0.14860(9)
C16 C 1.0287(2) 0.57117(18) 0.08623(9)
C17 C 0.9822(2) 0.49369(18) 0.03300(9)
C18 C 0.9109(2) 0.36714(16) 0.04173(8)
H1 H 0.757(2) 0.162(2) 0.0760(10)
H2 H 0.248(3) 0.378(2) 0.2198(10)
H3 H 0.293(3) 0.380(2) 0.0917(10)
H4 H 0.325(3) 0.102(2) 0.2948(11)
H5 H 0.362(3) 0.067(3) 0.4041(11)
H6 H 0.549(3) 0.200(2) 0.4624(10)
H7 H 0.704(3) 0.369(3) 0.4075(11)
H8 H 0.662(3) 0.398(2) 0.2957(11)
H9 H 0.922(3) 0.358(2) 0.1996(11)
H10 H 1.039(3) 0.577(2) 0.1859(11)
H11 H 1.074(3) 0.655(3) 0.0818(12)
H12 H 1.008(3) 0.523(2) -0.0103(12)
H13 H 0.878(3) 0.312(2) 0.0034(11)
loop_
_geom_bond_atom_site_label_1
_geom_bond_atom_site_label_2
_geom_bond_site_symmetry_1
_geom_bond_site_symmetry_2
Cl1 C3 1_555 1_555
Cl2 C3 1_555 1_555
Cl3 C3 1_555 1_555
O1 C1 1_555 1_555
N1 C4 1_555 1_555
N2 C4 1_555 1_555
C1 C2 1_555 1_555
C2 C3 1_555 1_555
C4 C1 1_555 1_555
C5 N1 1_555 1_555
C6 N2 1_555 1_555
C7 N2 1_555 1_555
C8 C7 1_555 1_555
C9 C8 1_555 1_555
C10 C9 1_555 1_555
C11 C10 1_555 1_555
C12 C7 1_555 1_555
C13 C2 1_555 1_555
C14 C13 1_555 1_555
C15 C14 1_555 1_555
C16 C15 1_555 1_555
C17 C16 1_555 1_555
C18 C13 1_555 1_555
H1 C2 1_555 1_555
H2 C6 1_555 1_555
H3 C5 1_555 1_555
H4 C8 1_555 1_555
H5 C9 1_555 1_555
H6 C10 1_555 1_555
H7 C11 1_555 1_555
H8 C12 1_555 1_555
H9 C14 1_555 1_555
H10 C15 1_555 1_555
H11 C16 1_555 1_555
H12 C17 1_555 1_555
H13 C18 1_555 1_555
C5 C6 1_555 1_555
C11 C12 1_555 1_555
C17 C18 1_555 1_555

#END
