
#######################################################################
#
#                 Cambridge Crystallographic Data Centre
#                                CCDC 
#
#######################################################################
#
# If this CIF has been generated from an entry in the Cambridge 
# Structural Database, then it will include bibliographic, chemical, 
# crystal, experimental, refinement or atomic coordinate data resulting 
# from the CCDC's data processing and validation procedures.
#
#######################################################################

data_RUKGOT
_chemical_formula_moiety         'C15 H8 N4'
_chemical_name_systematic        8,8,9,9-Tetracyano-4,7-indanoquinodimethane
_symmetry_cell_setting           monoclinic
_symmetry_space_group_name_H-M   'C 2/c'
_symmetry_Int_Tables_number      15
_space_group_name_Hall           '-C 2yn'
loop_
_symmetry_equiv_pos_site_id
_symmetry_equiv_pos_as_xyz
1 x,y,z
2 -x,y,1/2-z
3 1/2+x,1/2+y,z
4 1/2-x,1/2+y,1/2-z
5 -x,-y,-z
6 x,-y,1/2+z
7 1/2-x,1/2-y,-z
8 1/2+x,1/2-y,1/2+z
_cell_length_a                   17.210(4)
_cell_length_b                   8.549(1)
_cell_length_c                   17.827(3)
_cell_angle_alpha                90
_cell_angle_beta                 108.82(2)
_cell_angle_gamma                90
_cell_volume                     2482.63
_chemical_melting_point          194-195deg.C
_cell_formula_units_Z            8
_exptl_crystal_recrystallization_method 'ethyl acetate'
loop_
_atom_site_label
_atom_site_type_symbol
_atom_site_fract_x
_atom_site_fract_y
_atom_site_fract_z
N1 N 0.8898(2) 0.4013(4) 0.2189(2)
N2 N 1.0457(3) 0.1392(4) 0.4082(2)
N3 N 0.5005(3) 0.0916(6) 0.4186(3)
N4 N 0.7002(3) -0.1559(4) 0.5836(2)
C1 C 0.8362(3) 0.2003(3) 0.3714(2)
C2 C 0.7533(3) 0.2518(3) 0.3387(2)
C3 C 0.6930(3) 0.2056(3) 0.3686(2)
C4 C 0.7121(3) 0.0931(3) 0.4343(2)
C5 C 0.7961(3) 0.0445(3) 0.4668(2)
C6 C 0.8548(3) 0.0922(3) 0.4381(2)
C7 C 0.7182(3) 0.3636(4) 0.2699(2)
C8 C 0.6319(4) 0.3848(6) 0.2669(3)
C9 C 0.6121(3) 0.2762(4) 0.3256(2)
C10 C 0.8994(3) 0.2410(3) 0.3433(2)
C11 C 0.6549(3) 0.0349(3) 0.4654(2)
C12 C 0.8915(3) 0.3338(4) 0.2747(2)
C13 C 0.9807(3) 0.1854(4) 0.3798(2)
C14 C 0.5699(5) 0.0681(5) 0.4385(2)
C15 C 0.6801(2) -0.0725(4) 0.5312(2)
H1 H 0.8106(3) -0.0258(3) 0.5111(2)
H2 H 0.9096(3) 0.0536(3) 0.4622(2)
H3 H 0.7198(3) 0.3188(4) 0.2211(2)
H4 H 0.7485(3) 0.4598(4) 0.2794(2)
H5 H 0.5948(4) 0.3682(6) 0.2143(3)
H6 H 0.6252(4) 0.4903(6) 0.2822(3)
H7 H 0.5895(3) 0.3300(4) 0.3611(2)
H8 H 0.5739(3) 0.1978(4) 0.2974(2)
loop_
_geom_bond_atom_site_label_1
_geom_bond_atom_site_label_2
_geom_bond_site_symmetry_1
_geom_bond_site_symmetry_2
N1 C12 1_555 1_555
N2 C13 1_555 1_555
N3 C14 1_555 1_555
N4 C15 1_555 1_555
C1 C2 1_555 1_555
C2 C3 1_555 1_555
C3 C4 1_555 1_555
C4 C5 1_555 1_555
C5 C6 1_555 1_555
C6 C1 1_555 1_555
C7 C2 1_555 1_555
C8 C7 1_555 1_555
C9 C3 1_555 1_555
C10 C1 1_555 1_555
C11 C4 1_555 1_555
C12 C10 1_555 1_555
C13 C10 1_555 1_555
C14 C11 1_555 1_555
C15 C11 1_555 1_555
H1 C5 1_555 1_555
H2 C6 1_555 1_555
H3 C7 1_555 1_555
H4 C7 1_555 1_555
H5 C8 1_555 1_555
H6 C8 1_555 1_555
H7 C9 1_555 1_555
H8 C9 1_555 1_555
C8 C9 1_555 1_555

#END
