
#######################################################################
#
#                 Cambridge Crystallographic Data Centre
#                                CCDC 
#
#######################################################################
#
# If this CIF has been generated from an entry in the Cambridge 
# Structural Database, then it will include bibliographic, chemical, 
# crystal, experimental, refinement or atomic coordinate data resulting 
# from the CCDC's data processing and validation procedures.
#
#######################################################################

data_RUKHEM
_chemical_formula_moiety         'C22 H19 Br1 N2 O2 S1'
_chemical_name_systematic        
N-(3-bromobenzyl)-1-(methylsulfonyl)-3-phenyl-1H-indol-2-amine
_symmetry_cell_setting           triclinic
_symmetry_space_group_name_H-M   'P -1'
_symmetry_Int_Tables_number      2
_space_group_name_Hall           '-P 1'
loop_
_symmetry_equiv_pos_site_id
_symmetry_equiv_pos_as_xyz
1 x,y,z
2 -x,-y,-z
_cell_length_a                   10.845(3)
_cell_length_b                   11.530(3)
_cell_length_c                   16.538(4)
_cell_angle_alpha                72.117(4)
_cell_angle_beta                 80.875(4)
_cell_angle_gamma                77.827(4)
_cell_volume                     1913.98
_exptl_crystal_colour            colorless
_exptl_crystal_description       block
_cell_formula_units_Z            4
loop_
_atom_site_label
_atom_site_type_symbol
_atom_site_fract_x
_atom_site_fract_y
_atom_site_fract_z
Br1 Br 0.57116(7) 0.15843(5) 0.48438(5)
S1 S 0.69545(11) 0.48446(10) 0.16157(7)
N1 N 0.6277(3) 0.6293(3) 0.1503(2)
O1 O 0.7767(3) 0.4525(3) 0.2262(2)
C1 C 0.6032(4) 0.6942(4) 0.2127(3)
N2 N 0.6641(3) 0.6508(3) 0.2850(2)
H1 H 0.7455 0.6331 0.2826
C2 C 0.5210(4) 0.7992(4) 0.1858(3)
O2 O 0.7459(3) 0.4755(4) 0.0799(2)
C3 C 0.4858(4) 0.8018(4) 0.1051(3)
C4 C 0.4147(4) 0.8919(4) 0.0464(3)
H2 H 0.3702 0.9634 0.0593
C5 C 0.4109(5) 0.8745(5) -0.0306(3)
H3 H 0.3619 0.9342 -0.0703
C6 C 0.4778(5) 0.7707(5) -0.0511(3)
H4 H 0.4747 0.7621 -0.1048
C7 C 0.5499(5) 0.6782(5) 0.0067(3)
H5 H 0.5933 0.6062 -0.0060
C8 C 0.5538(4) 0.6986(4) 0.0830(3)
C9 C 0.4814(4) 0.8989(4) 0.2254(3)
C10 C 0.3565(4) 0.9560(4) 0.2294(3)
H6 H 0.2965 0.9261 0.2106
C11 C 0.3195(5) 1.0568(5) 0.2608(3)
H7 H 0.2351 1.0954 0.2621
C12 C 0.4061(6) 1.1002(5) 0.2902(3)
H8 H 0.3812 1.1683 0.3116
C13 C 0.5296(5) 1.0426(4) 0.2879(3)
H9 H 0.5890 1.0709 0.3085
C14 C 0.5668(5) 0.9436(4) 0.2556(3)
H10 H 0.6515 0.9058 0.2540
C15 C 0.5867(4) 0.6356(4) 0.3662(3)
H11 H 0.5295 0.7128 0.3657
H12 H 0.6413 0.6181 0.4112
C16 C 0.5104(4) 0.5345(4) 0.3865(3)
C17 C 0.3853(4) 0.5604(5) 0.3729(3)
H13 H 0.3470 0.6420 0.3506
C18 C 0.3167(5) 0.4687(7) 0.3915(3)
H14 H 0.2312 0.4880 0.3828
C19 C 0.3719(5) 0.3478(6) 0.4230(3)
H15 H 0.3253 0.2843 0.4350
C20 C 0.4967(5) 0.3230(4) 0.4363(3)
C21 C 0.5663(4) 0.4148(4) 0.4185(3)
H16 H 0.6514 0.3959 0.4281
C22 C 0.5687(6) 0.4050(5) 0.1969(4)
H17 H 0.5991 0.3180 0.2054
H18 H 0.5090 0.4338 0.1549
H19 H 0.5281 0.4192 0.2498
Br2 Br 0.07636(7) 0.82948(6) -0.17505(4)
S2 S 0.19322(10) 0.48280(10) 0.15142(7)
N3 N 0.1293(3) 0.5329(3) 0.2343(2)
O3 O 0.2387(3) 0.3554(3) 0.1830(2)
N4 N 0.1666(4) 0.7439(3) 0.1802(2)
H20 H 0.2479 0.7312 0.1707
O4 O 0.2799(3) 0.5603(4) 0.1054(2)
C23 C 0.1061(4) 0.6567(4) 0.2375(3)
C24 C 0.0224(4) 0.6673(4) 0.3061(3)
C25 C -0.0124(4) 0.5485(4) 0.3463(3)
C26 C -0.0868(4) 0.5035(4) 0.4215(3)
H21 H -0.1306 0.5562 0.4532
C27 C -0.0943(4) 0.3817(4) 0.4478(3)
H22 H -0.1444 0.3514 0.4980
C28 C -0.0309(5) 0.3019(4) 0.4030(3)
H23 H -0.0400 0.2192 0.4224
C29 C 0.0465(5) 0.3420(4) 0.3294(3)
H24 H 0.0917 0.2880 0.2991
C30 C 0.0537(4) 0.4663(4) 0.3029(3)
C31 C -0.0179(4) 0.7737(4) 0.3394(3)
C32 C -0.1436(4) 0.8060(4) 0.3677(3)
H25 H -0.2031 0.7623 0.3619
C33 C -0.1821(5) 0.9010(5) 0.4040(3)
H26 H -0.2669 0.9205 0.4235
C34 C -0.0966(5) 0.9674(5) 0.4117(3)
H27 H -0.1225 1.0323 0.4362
C35 C 0.0274(5) 0.9374(5) 0.3828(3)
H28 H 0.0865 0.9822 0.3875
C36 C 0.0658(4) 0.8413(4) 0.3467(3)
H29 H 0.1507 0.8223 0.3270
C37 C 0.0921(4) 0.8584(4) 0.1355(3)
H30 H 0.1483 0.9170 0.1062
H31 H 0.0345 0.8927 0.1769
C38 C 0.0168(4) 0.8438(4) 0.0717(3)
C39 C -0.1091(5) 0.8359(5) 0.0925(4)
H32 H -0.1484 0.8399 0.1461
C40 C -0.1764(5) 0.8223(5) 0.0342(4)
H33 H -0.2617 0.8161 0.0490
C41 C -0.1233(6) 0.8176(5) -0.0435(4)
H34 H -0.1708 0.8084 -0.0826
C42 C 0.0026(5) 0.8265(4) -0.0648(3)
C43 C 0.0716(4) 0.8395(4) -0.0076(3)
H35 H 0.1569 0.8455 -0.0225
C44 C 0.0665(4) 0.5040(5) 0.0933(3)
H36 H 0.0957 0.4767 0.0432
H37 H 0.0295 0.5901 0.0768
H38 H 0.0040 0.4568 0.1278
loop_
_geom_bond_atom_site_label_1
_geom_bond_atom_site_label_2
_geom_bond_site_symmetry_1
_geom_bond_site_symmetry_2
Br1 C20 1_555 1_555
S1 N1 1_555 1_555
N1 C1 1_555 1_555
O1 S1 1_555 1_555
C1 N2 1_555 1_555
N2 H1 1_555 1_555
C2 C1 1_555 1_555
O2 S1 1_555 1_555
C3 C2 1_555 1_555
C4 C3 1_555 1_555
H2 C4 1_555 1_555
C5 C4 1_555 1_555
H3 C5 1_555 1_555
C6 C5 1_555 1_555
H4 C6 1_555 1_555
C7 C6 1_555 1_555
H5 C7 1_555 1_555
C8 N1 1_555 1_555
C9 C2 1_555 1_555
C10 C9 1_555 1_555
H6 C10 1_555 1_555
C11 C10 1_555 1_555
H7 C11 1_555 1_555
C12 C11 1_555 1_555
H8 C12 1_555 1_555
C13 C12 1_555 1_555
H9 C13 1_555 1_555
C14 C9 1_555 1_555
H10 C14 1_555 1_555
C15 N2 1_555 1_555
H11 C15 1_555 1_555
H12 C15 1_555 1_555
C16 C15 1_555 1_555
C17 C16 1_555 1_555
H13 C17 1_555 1_555
C18 C17 1_555 1_555
H14 C18 1_555 1_555
C19 C18 1_555 1_555
H15 C19 1_555 1_555
C20 C19 1_555 1_555
C21 C16 1_555 1_555
H16 C21 1_555 1_555
C22 S1 1_555 1_555
H17 C22 1_555 1_555
H18 C22 1_555 1_555
H19 C22 1_555 1_555
Br2 C42 1_555 1_555
S2 N3 1_555 1_555
N3 C23 1_555 1_555
O3 S2 1_555 1_555
N4 H20 1_555 1_555
O4 S2 1_555 1_555
C23 N4 1_555 1_555
C24 C23 1_555 1_555
C25 C24 1_555 1_555
C26 C25 1_555 1_555
H21 C26 1_555 1_555
C27 C26 1_555 1_555
H22 C27 1_555 1_555
C28 C27 1_555 1_555
H23 C28 1_555 1_555
C29 C28 1_555 1_555
H24 C29 1_555 1_555
C30 N3 1_555 1_555
C31 C24 1_555 1_555
C32 C31 1_555 1_555
H25 C32 1_555 1_555
C33 C32 1_555 1_555
H26 C33 1_555 1_555
C34 C33 1_555 1_555
H27 C34 1_555 1_555
C35 C34 1_555 1_555
H28 C35 1_555 1_555
C36 C31 1_555 1_555
H29 C36 1_555 1_555
C37 N4 1_555 1_555
H30 C37 1_555 1_555
H31 C37 1_555 1_555
C38 C37 1_555 1_555
C39 C38 1_555 1_555
H32 C39 1_555 1_555
C40 C39 1_555 1_555
H33 C40 1_555 1_555
C41 C40 1_555 1_555
H34 C41 1_555 1_555
C42 C41 1_555 1_555
C43 C38 1_555 1_555
H35 C43 1_555 1_555
C44 S2 1_555 1_555
H36 C44 1_555 1_555
H37 C44 1_555 1_555
H38 C44 1_555 1_555
C3 C8 1_555 1_555
C7 C8 1_555 1_555
C13 C14 1_555 1_555
C20 C21 1_555 1_555
C25 C30 1_555 1_555
C29 C30 1_555 1_555
C35 C36 1_555 1_555
C42 C43 1_555 1_555

#END
