
#######################################################################
#
#                 Cambridge Crystallographic Data Centre
#                                CCDC 
#
#######################################################################
#
# If this CIF has been generated from an entry in the Cambridge 
# Structural Database, then it will include bibliographic, chemical, 
# crystal, experimental, refinement or atomic coordinate data resulting 
# from the CCDC's data processing and validation procedures.
#
#######################################################################

data_RUKKUF
_chemical_formula_moiety         'C18 H20 O2'
_chemical_name_systematic        
3'-phenylhexahydro-1'H,2H-spiro[cyclopentane-1,2'-pentalene]-1',2-dione
_symmetry_cell_setting           monoclinic
_symmetry_space_group_name_H-M   'P 21'
_symmetry_Int_Tables_number      4
_space_group_name_Hall           'P 2yb'
loop_
_symmetry_equiv_pos_site_id
_symmetry_equiv_pos_as_xyz
1 x,y,z
2 -x,1/2+y,-z
_cell_length_a                   11.4872(8)
_cell_length_b                   10.2566(5)
_cell_length_c                   13.2057(9)
_cell_angle_alpha                90
_cell_angle_beta                 112.740(8)
_cell_angle_gamma                90
_cell_volume                     1434.95
_exptl_crystal_colour            'light colorless'
_exptl_crystal_description       block
_cell_formula_units_Z            4
loop_
_atom_site_label
_atom_site_type_symbol
_atom_site_fract_x
_atom_site_fract_y
_atom_site_fract_z
O1 O 0.6746(4) -1.0692(4) 0.2182(3)
O2 O 0.3596(3) -0.9166(4) 0.0855(3)
C1 C 0.6076(3) -0.9948(3) 0.2422(3)
C2 C 0.5434(4) -1.0146(5) 0.3159(4)
H1 H 0.4705 -1.0719 0.2812
C3 C 0.6269(5) -1.0687(6) 0.4336(5)
H2 H 0.6241 -1.1631 0.4361
H3 H 0.7140 -1.0403 0.4571
C4 C 0.5392(4) -0.8677(4) 0.4661(3)
H4 H 0.6158 -0.8167 0.4988
H5 H 0.4731 -0.8286 0.4846
C5 C 0.4977(4) -0.8793(4) 0.3366(3)
H6 H 0.4058 -0.8720 0.2992
C6 C 0.5632(4) -0.7833(4) 0.2897(3)
H7 H 0.6493 -0.7740 0.3448
C7 C 0.5751(3) -0.8580(4) 0.1915(3)
C8 C 0.6698(4) -0.7992(4) 0.1505(4)
H8 H 0.7152 -0.8672 0.1300
H9 H 0.7303 -0.7456 0.2070
C9 C 0.5936(5) -0.7168(7) 0.0511(4)
H10 H 0.5861 -0.6280 0.0733
H11 H 0.6340 -0.7150 -0.0012
C10 C 0.4660(5) -0.7794(6) 0.0012(4)
H12 H 0.4599 -0.8314 -0.0620
H13 H 0.4005 -0.7134 -0.0224
C11 C 0.4513(3) -0.8644(5) 0.0883(3)
C12 C 0.5093(3) -0.6475(3) 0.2663(2)
C13 C 0.5944(3) -0.5440(4) 0.2985(3)
H14 H 0.6799 -0.5613 0.3362
C14 C 0.5547(4) -0.4165(4) 0.2758(3)
H15 H 0.6130 -0.3488 0.2968
C15 C 0.4269(4) -0.3900(4) 0.2215(3)
H16 H 0.3995 -0.3041 0.2070
C16 C 0.3408(4) -0.4902(4) 0.1891(3)
H17 H 0.2554 -0.4719 0.1524
C17 C 0.3815(3) -0.6195(4) 0.2112(3)
H18 H 0.3230 -0.6871 0.1891
C18 C 0.5607(10) -1.0056(9) 0.5024(8)
H19 H 0.4811 -1.0489 0.4895
H20 H 0.6134 -1.0108 0.5800
O3 O -0.0972(4) -0.3119(3) -0.2198(3)
O4 O -0.2651(2) -0.6286(3) -0.2521(2)
C20 C -0.1016(3) -0.4175(3) -0.2623(3)
C21 C -0.1549(3) -0.4441(3) -0.3841(3)
H27 H -0.2473 -0.4468 -0.4124
C22 C -0.1109(4) -0.3451(4) -0.4497(3)
H28 H -0.1758 -0.3309 -0.5221
H29 H -0.0891 -0.2623 -0.4115
C23 C 0.0046(4) -0.4097(4) -0.4571(3)
H30 H 0.0784 -0.3972 -0.3899
H31 H 0.0218 -0.3753 -0.5183
C24 C -0.0326(4) -0.5538(4) -0.4746(3)
H32 H 0.0416 -0.6087 -0.4554
H33 H -0.0875 -0.5702 -0.5504
C25 C -0.1020(3) -0.5791(3) -0.3977(2)
H34 H -0.1696 -0.6435 -0.4287
C26 C -0.0082(3) -0.6195(3) -0.2810(2)
H35 H 0.0740 -0.5831 -0.2725
C27 C -0.0510(3) -0.5439(3) -0.1993(3)
C28 C -0.1614(3) -0.6119(3) -0.1811(3)
C29 C -0.1192(4) -0.6521(4) -0.0624(3)
H36 H -0.1451 -0.7408 -0.0564
H37 H -0.1543 -0.5945 -0.0232
C30 C 0.0241(4) -0.6415(4) -0.0168(3)
H38 H 0.0621 -0.7217 -0.0281
H39 H 0.0576 -0.6214 0.0611
C31 C 0.0479(4) -0.5292(4) -0.0829(3)
H40 H 0.0388 -0.4458 -0.0521
H41 H 0.1323 -0.5349 -0.0827
C32 C 0.0115(3) -0.7651(3) -0.2621(2)
C33 C 0.1331(3) -0.8135(4) -0.2187(3)
H42 H 0.2009 -0.7566 -0.2027
C34 C 0.1554(4) -0.9464(4) -0.1984(3)
H43 H 0.2379 -0.9769 -0.1673
C35 C 0.0563(4) -1.0331(3) -0.2242(3)
H44 H 0.0716 -1.1218 -0.2111
C36 C -0.0655(4) -0.9866(3) -0.2695(3)
H45 H -0.1330 -1.0443 -0.2877
C37 C -0.0884(3) -0.8533(3) -0.2882(3)
H46 H -0.1710 -0.8229 -0.3184
H21? H 0.5817 -1.1348 0.4564
H22? H 0.7049 -1.1059 0.4344
H23? H 0.5671 -0.7805 0.4930
H24? H 0.4734 -0.8957 0.4902
C19? C 0.6497(13) -0.9659(13) 0.4978(10)
H25? H 0.7235 -0.9214 0.4962
H26? H 0.6695 -0.9949 0.5726
loop_
_geom_bond_atom_site_label_1
_geom_bond_atom_site_label_2
_geom_bond_site_symmetry_1
_geom_bond_site_symmetry_2
O1 C1 1_555 1_555
O2 C11 1_555 1_555
C1 C2 1_555 1_555
C2 H1 1_555 1_555
C3 C2 1_555 1_555
H2 C3 1_555 1_555
H3 C3 1_555 1_555
C4 H4 1_555 1_555
H5 C4 1_555 1_555
C5 C2 1_555 1_555
H6 C5 1_555 1_555
C6 C5 1_555 1_555
H7 C6 1_555 1_555
C7 C1 1_555 1_555
C8 C7 1_555 1_555
H8 C8 1_555 1_555
H9 C8 1_555 1_555
C9 C8 1_555 1_555
H10 C9 1_555 1_555
H11 C9 1_555 1_555
C10 C9 1_555 1_555
H12 C10 1_555 1_555
H13 C10 1_555 1_555
C11 C7 1_555 1_555
C12 C6 1_555 1_555
C13 C12 1_555 1_555
H14 C13 1_555 1_555
C14 C13 1_555 1_555
H15 C14 1_555 1_555
C15 C14 1_555 1_555
H16 C15 1_555 1_555
C16 C15 1_555 1_555
H17 C16 1_555 1_555
C17 C12 1_555 1_555
H18 C17 1_555 1_555
C18 C3 1_555 1_555
H19 C18 1_555 1_555
H20 C18 1_555 1_555
O3 C20 1_555 1_555
O4 C28 1_555 1_555
C20 C21 1_555 1_555
C21 H27 1_555 1_555
C22 C21 1_555 1_555
H28 C22 1_555 1_555
H29 C22 1_555 1_555
C23 C22 1_555 1_555
H30 C23 1_555 1_555
H31 C23 1_555 1_555
C24 C23 1_555 1_555
H32 C24 1_555 1_555
H33 C24 1_555 1_555
C25 C21 1_555 1_555
H34 C25 1_555 1_555
C26 C25 1_555 1_555
H35 C26 1_555 1_555
C27 C20 1_555 1_555
C28 C27 1_555 1_555
C29 C28 1_555 1_555
H36 C29 1_555 1_555
H37 C29 1_555 1_555
C30 C29 1_555 1_555
H38 C30 1_555 1_555
H39 C30 1_555 1_555
C31 C27 1_555 1_555
H40 C31 1_555 1_555
H41 C31 1_555 1_555
C32 C26 1_555 1_555
C33 C32 1_555 1_555
H42 C33 1_555 1_555
C34 C33 1_555 1_555
H43 C34 1_555 1_555
C35 C34 1_555 1_555
H44 C35 1_555 1_555
C36 C35 1_555 1_555
H45 C36 1_555 1_555
C37 C32 1_555 1_555
H46 C37 1_555 1_555
C4 C5 1_555 1_555
C4 C18 1_555 1_555
C6 C7 1_555 1_555
C10 C11 1_555 1_555
C16 C17 1_555 1_555
C24 C25 1_555 1_555
C26 C27 1_555 1_555
C30 C31 1_555 1_555
C36 C37 1_555 1_555

#END
