
#######################################################################
#
#                 Cambridge Crystallographic Data Centre
#                                CCDC 
#
#######################################################################
#
# If this CIF has been generated from an entry in the Cambridge 
# Structural Database, then it will include bibliographic, chemical, 
# crystal, experimental, refinement or atomic coordinate data resulting 
# from the CCDC's data processing and validation procedures.
#
#######################################################################

data_RUKLAM
_chemical_formula_moiety         'C16 H17 Cl1 O2'
_chemical_name_systematic        
4-(4-chlorophenyl)-2-methylspiro[4.4]nonane-1,6-dione
_symmetry_cell_setting           orthorhombic
_symmetry_space_group_name_H-M   'P 21 21 21'
_symmetry_Int_Tables_number      19
_space_group_name_Hall           'P 2ac 2ab'
loop_
_symmetry_equiv_pos_site_id
_symmetry_equiv_pos_as_xyz
1 x,y,z
2 1/2-x,-y,1/2+z
3 1/2+x,1/2-y,-z
4 -x,1/2+y,1/2-z
_cell_length_a                   12.6183(6)
_cell_length_b                   11.0140(5)
_cell_length_c                   10.1521(4)
_cell_angle_alpha                90
_cell_angle_beta                 90
_cell_angle_gamma                90
_cell_volume                     1410.92
_exptl_crystal_colour            'light colorless'
_exptl_crystal_description       block
_cell_formula_units_Z            4
loop_
_atom_site_label
_atom_site_type_symbol
_atom_site_fract_x
_atom_site_fract_y
_atom_site_fract_z
Cl1 Cl 0.65434(8) 0.58504(9) 0.08346(7)
O1 O 0.5972(2) 0.9152(2) 0.9237(2)
O2 O 0.6530(2) 0.63353(19) 0.7653(2)
C1 C 0.5324(2) 0.8240(3) 0.5974(3)
H1 H 0.5065 0.9048 0.5732
C2 C 0.4440(2) 0.7634(3) 0.6773(3)
H2 H 0.3759 0.7740 0.6344
H3 H 0.4575 0.6772 0.6877
C3 C 0.4459(2) 0.8280(3) 0.8107(3)
H4 H 0.4016 0.9008 0.8039
C4 C 0.5596(3) 0.8685(2) 0.8263(3)
C5 C 0.6222(2) 0.8437(2) 0.7001(3)
C6 C 0.6880(2) 0.7279(3) 0.7263(2)
C7 C 0.8017(3) 0.7546(4) 0.6967(5)
H5 H 0.8481 0.7102 0.7557
H6 H 0.8188 0.7331 0.6065
C8 C 0.7066(3) 0.9392(3) 0.6670(3)
H7 H 0.6912 1.0154 0.7109
H8 H 0.7097 0.9533 0.5728
C9 C 0.5646(2) 0.7624(3) 0.4706(3)
C10 C 0.5775(2) 0.8305(3) 0.3566(3)
H9 H 0.5671 0.9140 0.3601
C11 C 0.6053(3) 0.7772(3) 0.2373(3)
H10 H 0.6125 0.8241 0.1616
C12 C 0.6219(3) 0.6544(3) 0.2335(3)
C13 C 0.6113(3) 0.5838(3) 0.3439(3)
H11 H 0.6235 0.5006 0.3400
C14 C 0.5824(3) 0.6380(3) 0.4608(3)
H12 H 0.5745 0.5900 0.5355
C15 C 0.4073(3) 0.7543(4) 0.9279(4)
H13 H 0.4501 0.6828 0.9370
H14 H 0.3348 0.7312 0.9142
H15 H 0.4126 0.8024 1.0065
C16 C 0.8115(5) 0.8852(6) 0.7173(9)
H16 H 0.8711 0.9176 0.6681
H17 H 0.8215 0.9035 0.8099
H18? H 0.8327 0.6908 0.6433
H19? H 0.8424 0.7630 0.7772
H20? H 0.6795 0.9951 0.6014
H21? H 0.7246 0.9851 0.7454
C17? C 0.7976(8) 0.8792(9) 0.6180(11)
H22? H 0.8608 0.9269 0.6343
H23? H 0.7913 0.8649 0.5241
loop_
_geom_bond_atom_site_label_1
_geom_bond_atom_site_label_2
_geom_bond_site_symmetry_1
_geom_bond_site_symmetry_2
Cl1 C12 1_555 1_555
O1 C4 1_555 1_555
O2 C6 1_555 1_555
C1 H1 1_555 1_555
C2 C1 1_555 1_555
H2 C2 1_555 1_555
H3 C2 1_555 1_555
C3 C2 1_555 1_555
H4 C3 1_555 1_555
C4 C3 1_555 1_555
C5 C1 1_555 1_555
C6 C5 1_555 1_555
C7 C6 1_555 1_555
H5 C7 1_555 1_555
H6 C7 1_555 1_555
C8 C5 1_555 1_555
H7 C8 1_555 1_555
H8 C8 1_555 1_555
C9 C1 1_555 1_555
C10 C9 1_555 1_555
H9 C10 1_555 1_555
C11 C10 1_555 1_555
H10 C11 1_555 1_555
C12 C11 1_555 1_555
C13 C12 1_555 1_555
H11 C13 1_555 1_555
C14 C9 1_555 1_555
H12 C14 1_555 1_555
C15 C3 1_555 1_555
H13 C15 1_555 1_555
H14 C15 1_555 1_555
H15 C15 1_555 1_555
C16 C7 1_555 1_555
H16 C16 1_555 1_555
H17 C16 1_555 1_555
C4 C5 1_555 1_555
C8 C16 1_555 1_555
C13 C14 1_555 1_555

#END
