
#######################################################################
#
#                 Cambridge Crystallographic Data Centre
#                                CCDC 
#
#######################################################################
#
# If this CIF has been generated from an entry in the Cambridge 
# Structural Database, then it will include bibliographic, chemical, 
# crystal, experimental, refinement or atomic coordinate data resulting 
# from the CCDC's data processing and validation procedures.
#
#######################################################################

data_RUKPOE
_chemical_formula_moiety         'C80 H92 N6 O24'
_chemical_name_systematic        
7,10,13,16,23,26,29,32,44,47,50,53,60,63,66,69,80,83,86,89,96,99,102,105-tetracosaoxa-5,34,42,71,78,107-hexaazatetradecacyclo[36.36.36.0^2,37^.0^4,35^.0^6,33^.0^17,22^.0^39,74^.0^41,72^.0^43,70^.0^54,59^.0^75,110^.0^77,108^.0^79,106^.0^90,95^]decahecta-2,4(35),5,17,19,21,33,36,39,41(72),42,54,56,58,70,73,75,77(108),78,90,92,94,106,109-tetracosaene
_symmetry_cell_setting           hexagonal
_symmetry_space_group_name_H-M   'P 63/m'
_symmetry_Int_Tables_number      176
_space_group_name_Hall           '-P 6c'
loop_
_symmetry_equiv_pos_site_id
_symmetry_equiv_pos_as_xyz
1 x,y,z
2 x-y,x,1/2+z
3 -y,x-y,z
4 -x,-y,1/2+z
5 -x+y,-x,z
6 y,-x+y,1/2+z
7 -x,-y,-z
8 -x+y,-x,1/2-z
9 y,-x+y,-z
10 x,y,1/2-z
11 x-y,x,-z
12 -y,x-y,1/2-z
_cell_length_a                   16.510(4)
_cell_length_b                   16.510(4)
_cell_length_c                   16.634(4)
_cell_angle_alpha                90
_cell_angle_beta                 90
_cell_angle_gamma                120
_cell_volume                     3926.64
_exptl_crystal_colour            colorless
_exptl_crystal_description       block
_cell_formula_units_Z            2
loop_
_atom_site_label
_atom_site_type_symbol
_atom_site_fract_x
_atom_site_fract_y
_atom_site_fract_z
O1 O 0.0388(3) 0.3459(3) 0.0859(3)
O2 O -0.1145(3) 0.5128(2) 0.1711(2)
O3 O 0.1980(3) 0.3732(3) 0.1740(2)
O4 O -0.1204(3) 0.3651(3) 0.0572(3)
N1 N -0.0728(2) 0.6680(2) 0.1649(2)
C1 C 0.0000 1.0000 0.1719(4)
H1 H 0.0000 1.0000 0.1130
C2 C -0.0183(2) 0.9076(2) 0.2071(2)
C3 C -0.0344(2) 0.8291(3) 0.1648(2)
C4 C -0.0908(3) 0.5954(3) 0.2065(3)
C5 C -0.0987(5) 0.3415(4) 0.1321(4)
C6 C -0.1196(5) 0.5125(4) 0.0823(4)
C7 C -0.1757(5) 0.4082(5) 0.0565(6)
C8 C -0.0524(2) 0.7480(3) 0.2080(2)
C9 C -0.0478(4) 0.2877(4) 0.1198(3)
H2 H -0.0401 0.2642 0.1709
H3 H -0.0840 0.2348 0.0846
C10 C 0.0925(5) 0.3017(5) 0.0687(4)
H4 H 0.0868 0.2852 0.0122
H5 H 0.0694 0.2449 0.1001
C11 C 0.1920(5) 0.3676(5) 0.0889(4)
H6 H 0.2317 0.3448 0.0678
H7 H 0.2119 0.4288 0.0660
C12 C 0.2807(4) 0.4402(4) 0.2079(4)
C13 C 0.3596(4) 0.5025(5) 0.1668(5)
H8 H 0.3610 0.5002 0.1110
C14 C 0.4375(4) 0.5691(5) 0.2086(5)
H9 H 0.4896 0.6137 0.1806
O1B O 0.6541(3) 1.6929(4) 0.0859(3)
O2B O 0.4872(2) 1.3727(4) 0.1711(2)
O3B O 0.6268(3) 1.8248(4) 0.1740(2)
O4B O 0.6349(3) 1.5145(4) 0.0572(3)
N1B N 0.3320(2) 1.2592(3) 0.1649(2)
C2B C 0.0924(2) 1.0741(3) 0.2071(2)
C3B C 0.1709(3) 1.1365(4) 0.1648(2)
C4B C 0.4046(3) 1.3138(4) 0.2065(3)
C5B C 0.6585(4) 1.5598(6) 0.1321(4)
C6B C 0.4875(4) 1.3679(6) 0.0823(4)
C7B C 0.5918(5) 1.4161(7) 0.0565(6)
C8B C 0.2520(3) 1.1996(4) 0.2080(2)
C9B C 0.7123(4) 1.6645(6) 0.1198(3)
H2B H 0.7358 1.6957 0.1709
H3B H 0.7652 1.6812 0.0846
C10B C 0.6983(5) 1.7908(7) 0.0687(4)
H4B H 0.7148 1.8016 0.0122
H5B H 0.7551 1.8245 0.1001
C11B C 0.6324(5) 1.8244(7) 0.0889(4)
H6B H 0.6552 1.8869 0.0678
H7B H 0.5712 1.7831 0.0660
C12B C 0.5598(4) 1.8405(6) 0.2079(4)
C13B C 0.4975(5) 1.8571(6) 0.1668(5)
H8B H 0.4998 1.8608 0.1110
C14B C 0.4309(5) 1.8684(6) 0.2086(5)
H9B H 0.3863 1.8759 0.1806
O1D O -0.6929(4) 0.9612(3) 0.0859(3)
O2D O -0.3727(4) 1.1145(3) 0.1711(2)
O3D O -0.8248(4) 0.8020(3) 0.1740(2)
O4D O -0.5145(4) 1.1204(3) 0.0572(3)
N1D N -0.2592(3) 1.0728(2) 0.1649(2)
C2D C -0.0741(3) 1.0183(2) 0.2071(2)
C3D C -0.1365(4) 1.0344(2) 0.1648(2)
C4D C -0.3138(4) 1.0908(3) 0.2065(3)
C5D C -0.5598(6) 1.0987(5) 0.1321(4)
C6D C -0.3679(6) 1.1196(5) 0.0823(4)
C7D C -0.4161(7) 1.1757(5) 0.0565(6)
C8D C -0.1996(4) 1.0524(2) 0.2080(2)
C9D C -0.6645(6) 1.0478(4) 0.1198(3)
H2D H -0.6957 1.0401 0.1709
H3D H -0.6812 1.0840 0.0846
C10D C -0.7908(7) 0.9075(5) 0.0687(4)
H4D H -0.8016 0.9132 0.0122
H5D H -0.8245 0.9306 0.1001
C11D C -0.8244(7) 0.8080(5) 0.0889(4)
H6D H -0.8869 0.7683 0.0678
H7D H -0.7831 0.7881 0.0660
C12D C -0.8405(6) 0.7193(4) 0.2079(4)
C13D C -0.8571(6) 0.6404(4) 0.1668(5)
H8D H -0.8608 0.6390 0.1110
C14D C -0.8684(6) 0.5625(4) 0.2086(5)
H9D H -0.8759 0.5104 0.1806
O1G O -0.6929(4) 0.9612(3) 0.4141(3)
O2G O -0.3727(4) 1.1145(3) 0.3289(2)
O3G O -0.8248(4) 0.8020(3) 0.3260(2)
O4G O -0.5145(4) 1.1204(3) 0.4428(3)
N1G N -0.2592(3) 1.0728(2) 0.3351(2)
C1G C 0.0000 1.0000 0.3281(4)
H1G H 0.0000 1.0000 0.3870
C2G C -0.0741(3) 1.0183(2) 0.2929(2)
C3G C -0.1365(4) 1.0344(2) 0.3352(2)
C4G C -0.3138(4) 1.0908(3) 0.2935(3)
C5G C -0.5598(6) 1.0987(5) 0.3679(4)
C6G C -0.3679(6) 1.1196(5) 0.4177(4)
C7G C -0.4161(7) 1.1757(5) 0.4435(6)
C8G C -0.1996(4) 1.0524(2) 0.2920(2)
C9G C -0.6645(6) 1.0478(4) 0.3802(3)
H2G H -0.6957 1.0401 0.3291
H3G H -0.6812 1.0840 0.4154
C10G C -0.7908(7) 0.9075(5) 0.4313(4)
H4G H -0.8016 0.9132 0.4878
H5G H -0.8245 0.9306 0.3999
C11G C -0.8244(7) 0.8080(5) 0.4111(4)
H6G H -0.8869 0.7683 0.4322
H7G H -0.7831 0.7881 0.4340
C12G C -0.8405(6) 0.7193(4) 0.2921(4)
C13G C -0.8571(6) 0.6404(4) 0.3332(5)
H8G H -0.8608 0.6390 0.3890
C14G C -0.8684(6) 0.5625(4) 0.2914(5)
H9G H -0.8759 0.5104 0.3194
O1I O 0.0388(3) 0.3459(3) 0.4141(3)
O2I O -0.1145(3) 0.5128(2) 0.3289(2)
O3I O 0.1980(3) 0.3732(3) 0.3260(2)
O4I O -0.1204(3) 0.3651(3) 0.4428(3)
N1I N -0.0728(2) 0.6680(2) 0.3351(2)
C2I C -0.0183(2) 0.9076(2) 0.2929(2)
C3I C -0.0344(2) 0.8291(3) 0.3352(2)
C4I C -0.0908(3) 0.5954(3) 0.2935(3)
C5I C -0.0987(5) 0.3415(4) 0.3679(4)
C6I C -0.1196(5) 0.5125(4) 0.4177(4)
C7I C -0.1757(5) 0.4082(5) 0.4435(6)
C8I C -0.0524(2) 0.7480(3) 0.2920(2)
C9I C -0.0478(4) 0.2877(4) 0.3802(3)
H2I H -0.0401 0.2642 0.3291
H3I H -0.0840 0.2348 0.4154
C10I C 0.0925(5) 0.3017(5) 0.4313(4)
H4I H 0.0868 0.2852 0.4878
H5I H 0.0694 0.2449 0.3999
C11I C 0.1920(5) 0.3676(5) 0.4111(4)
H6I H 0.2317 0.3448 0.4322
H7I H 0.2119 0.4288 0.4340
C12I C 0.2807(4) 0.4402(4) 0.2921(4)
C13I C 0.3596(4) 0.5025(5) 0.3332(5)
H8I H 0.3610 0.5002 0.3890
C14I C 0.4375(4) 0.5691(5) 0.2914(5)
H9I H 0.4896 0.6137 0.3194
O1K O 0.6541(3) 1.6929(4) 0.4141(3)
O2K O 0.4872(2) 1.3727(4) 0.3289(2)
O3K O 0.6268(3) 1.8248(4) 0.3260(2)
O4K O 0.6349(3) 1.5145(4) 0.4428(3)
N1K N 0.3320(2) 1.2592(3) 0.3351(2)
C2K C 0.0924(2) 1.0741(3) 0.2929(2)
C3K C 0.1709(3) 1.1365(4) 0.3352(2)
C4K C 0.4046(3) 1.3138(4) 0.2935(3)
C5K C 0.6585(4) 1.5598(6) 0.3679(4)
C6K C 0.4875(4) 1.3679(6) 0.4177(4)
C7K C 0.5918(5) 1.4161(7) 0.4435(6)
C8K C 0.2520(3) 1.1996(4) 0.2920(2)
C9K C 0.7123(4) 1.6645(6) 0.3802(3)
H2K H 0.7358 1.6957 0.3291
H3K H 0.7652 1.6812 0.4154
C10K C 0.6983(5) 1.7908(7) 0.4313(4)
H4K H 0.7148 1.8016 0.4878
H5K H 0.7551 1.8245 0.3999
C11K C 0.6324(5) 1.8244(7) 0.4111(4)
H6K H 0.6552 1.8869 0.4322
H7K H 0.5712 1.7831 0.4340
C12K C 0.5598(4) 1.8405(6) 0.2921(4)
C13K C 0.4975(5) 1.8571(6) 0.3332(5)
H8K H 0.4998 1.8608 0.3890
C14K C 0.4309(5) 1.8684(6) 0.2914(5)
H9K H 0.3863 1.8759 0.3194
loop_
_geom_bond_atom_site_label_1
_geom_bond_atom_site_label_2
_geom_bond_site_symmetry_1
_geom_bond_site_symmetry_2
O1 C9 1_555 1_555
O2 C4 1_555 1_555
O3 C11 1_555 1_555
O4 C5 1_555 1_555
N1 C4 1_555 1_555
C1 H1 1_555 1_555
C2 C1 1_555 1_555
C3 C2 1_555 1_555
C4 C4I 1_555 1_555
C5 C9 1_555 1_555
C6 O2 1_555 1_555
C7 O4 1_555 1_555
C8 N1 1_555 1_555
C9 H2 1_555 1_555
H3 C9 1_555 1_555
C10 O1 1_555 1_555
H4 C10 1_555 1_555
H5 C10 1_555 1_555
C11 C10 1_555 1_555
H6 C11 1_555 1_555
H7 C11 1_555 1_555
C12 O3 1_555 1_555
C13 C12 1_555 1_555
H8 C13 1_555 1_555
C14 C13 1_555 1_555
H9 C14 1_555 1_555
O1B C9B 1_555 1_555
O2B C4B 1_555 1_555
O3B C11B 1_555 1_555
O4B C5B 1_555 1_555
N1B C4B 1_555 1_555
C2B C1 1_555 1_555
C3B C2B 1_555 1_555
C4B C4K 1_555 1_555
C5B C9B 1_555 1_555
C6B O2B 1_555 1_555
C7B O4B 1_555 1_555
C8B N1B 1_555 1_555
C9B H2B 1_555 1_555
H3B C9B 1_555 1_555
C10B O1B 1_555 1_555
H4B C10B 1_555 1_555
H5B C10B 1_555 1_555
C11B C10B 1_555 1_555
H6B C11B 1_555 1_555
H7B C11B 1_555 1_555
C12B O3B 1_555 1_555
C13B C12B 1_555 1_555
H8B C13B 1_555 1_555
C14B C13B 1_555 1_555
H9B C14B 1_555 1_555
O1D C9D 1_555 1_555
O2D C4D 1_555 1_555
O3D C11D 1_555 1_555
O4D C5D 1_555 1_555
N1D C4D 1_555 1_555
C2D C1 1_555 1_555
C3D C2D 1_555 1_555
C4D C4G 1_555 1_555
C5D C9D 1_555 1_555
C6D O2D 1_555 1_555
C7D O4D 1_555 1_555
C8D N1D 1_555 1_555
C9D H2D 1_555 1_555
H3D C9D 1_555 1_555
C10D O1D 1_555 1_555
H4D C10D 1_555 1_555
H5D C10D 1_555 1_555
C11D C10D 1_555 1_555
H6D C11D 1_555 1_555
H7D C11D 1_555 1_555
C12D O3D 1_555 1_555
C13D C12D 1_555 1_555
H8D C13D 1_555 1_555
C14D C13D 1_555 1_555
H9D C14D 1_555 1_555
O1G C9G 1_555 1_555
O2G C4G 1_555 1_555
O3G C11G 1_555 1_555
O4G C5G 1_555 1_555
N1G C4G 1_555 1_555
C1G H1G 1_555 1_555
C2G C2D 1_555 1_555
C3G C2G 1_555 1_555
C5G C9G 1_555 1_555
C6G O2G 1_555 1_555
C7G O4G 1_555 1_555
C8G C8D 1_555 1_555
C9G H2G 1_555 1_555
H3G C9G 1_555 1_555
C10G O1G 1_555 1_555
H4G C10G 1_555 1_555
H5G C10G 1_555 1_555
C11G C10G 1_555 1_555
H6G C11G 1_555 1_555
H7G C11G 1_555 1_555
C12G C12D 1_555 1_555
C13G C12G 1_555 1_555
H8G C13G 1_555 1_555
C14G C14D 1_555 1_555
H9G C14G 1_555 1_555
O1I C9I 1_555 1_555
O2I C4I 1_555 1_555
O3I C11I 1_555 1_555
O4I C5I 1_555 1_555
N1I C4I 1_555 1_555
C2I C2 1_555 1_555
C3I C2I 1_555 1_555
C5I C9I 1_555 1_555
C6I O2I 1_555 1_555
C7I O4I 1_555 1_555
C8I C8 1_555 1_555
C9I H2I 1_555 1_555
H3I C9I 1_555 1_555
C10I O1I 1_555 1_555
H4I C10I 1_555 1_555
H5I C10I 1_555 1_555
C11I C10I 1_555 1_555
H6I C11I 1_555 1_555
H7I C11I 1_555 1_555
C12I C12 1_555 1_555
C13I C12I 1_555 1_555
H8I C13I 1_555 1_555
C14I C14 1_555 1_555
H9I C14I 1_555 1_555
O1K C9K 1_555 1_555
O2K C4K 1_555 1_555
O3K C11K 1_555 1_555
O4K C5K 1_555 1_555
N1K C4K 1_555 1_555
C2K C2B 1_555 1_555
C3K C2K 1_555 1_555
C5K C9K 1_555 1_555
C6K O2K 1_555 1_555
C7K O4K 1_555 1_555
C8K C8B 1_555 1_555
C9K H2K 1_555 1_555
H3K C9K 1_555 1_555
C10K O1K 1_555 1_555
H4K C10K 1_555 1_555
H5K C10K 1_555 1_555
C11K C10K 1_555 1_555
H6K C11K 1_555 1_555
H7K C11K 1_555 1_555
C12K C12B 1_555 1_555
C13K C12K 1_555 1_555
H8K C13K 1_555 1_555
C14K C14B 1_555 1_555
H9K C14K 1_555 1_555
C3 C8 1_555 1_555
C6 C7 1_555 1_555
C3B C8B 1_555 1_555
C6B C7B 1_555 1_555
C3D C8D 1_555 1_555
C6D C7D 1_555 1_555
O3G C12G 1_555 1_555
N1G C8G 1_555 1_555
C1G C2G 1_555 1_555
C1G C2I 1_555 1_555
C1G C2K 1_555 1_555
C3G C8G 1_555 1_555
C6G C7G 1_555 1_555
C13G C14G 1_555 1_555
O3I C12I 1_555 1_555
N1I C8I 1_555 1_555
C3I C8I 1_555 1_555
C6I C7I 1_555 1_555
C13I C14I 1_555 1_555
O3K C12K 1_555 1_555
N1K C8K 1_555 1_555
C3K C8K 1_555 1_555
C6K C7K 1_555 1_555
C13K C14K 1_555 1_555

#END
