
#######################################################################
#
#                 Cambridge Crystallographic Data Centre
#                                CCDC 
#
#######################################################################
#
# If this CIF has been generated from an entry in the Cambridge 
# Structural Database, then it will include bibliographic, chemical, 
# crystal, experimental, refinement or atomic coordinate data resulting 
# from the CCDC's data processing and validation procedures.
#
#######################################################################

data_RUKRUM
_chemical_formula_moiety         'C56 H70 O6 Si1'
_chemical_name_systematic        
'bis(Adamantan-2-yl) 9-((t-butyl(diphenyl)silyl)oxy)-7-(4-methoxyphenyl)-1,2,3,4,4a,6,7,8-octahydro-5H-benzo[7]annulene-5,5-dicarboxylate'
_symmetry_cell_setting           triclinic
_symmetry_space_group_name_H-M   'P -1'
_symmetry_Int_Tables_number      2
_space_group_name_Hall           '-P 1'
loop_
_symmetry_equiv_pos_site_id
_symmetry_equiv_pos_as_xyz
1 x,y,z
2 -x,-y,-z
_cell_length_a                   12.6391(10)
_cell_length_b                   14.6059(11)
_cell_length_c                   15.1308(12)
_cell_angle_alpha                118.732(2)
_cell_angle_beta                 91.087(2)
_cell_angle_gamma                98.099(2)
_cell_volume                     2412.77
_exptl_crystal_colour            colorless
_exptl_crystal_description       prismatic
_cell_formula_units_Z            2
loop_
_atom_site_label
_atom_site_type_symbol
_atom_site_fract_x
_atom_site_fract_y
_atom_site_fract_z
Si1 Si 0.29304(5) 0.25481(5) 1.18668(4)
O1 O 0.17178(12) 0.25745(12) 1.14597(11)
O2 O 0.18390(13) 0.34455(12) 0.88311(13)
O3 O 0.24743(12) 0.20004(12) 0.77327(12)
O4 O 0.02604(12) 0.20474(11) 0.69078(11)
O5 O -0.06268(14) 0.05935(14) 0.68762(13)
O6 O 0.31660(16) -0.33279(14) 0.69691(15)
C1 C 0.07674(17) 0.16946(17) 0.82352(16)
C2 C 0.10996(18) 0.06479(16) 0.80654(16)
H1 H 0.0448 0.0137 0.7907
H2 H 0.1489 0.0385 0.7469
C3 C 0.17824(18) 0.06571(16) 0.89155(16)
H3 H 0.2422 0.1203 0.9108
C4 C 0.11715(18) 0.09346(17) 0.98576(17)
H4 H 0.0433 0.0572 0.9644
H5 H 0.1493 0.0680 1.0267
C5 C 0.11816(17) 0.21015(17) 1.04919(16)
C6 C 0.07162(17) 0.26857(17) 1.01918(16)
C7 C 0.00764(17) 0.21618(17) 0.91554(16)
H6 H -0.0416 0.1555 0.9109
C8 C -0.06348(19) 0.29066(19) 0.91046(18)
H7 H -0.0199 0.3458 0.9022
H8 H -0.1171 0.2512 0.8526
C9 C -0.1186(2) 0.3405(2) 1.0072(2)
H9 H -0.1708 0.3796 0.9996
H10 H -0.1567 0.2850 1.0182
C10 C -0.0387(2) 0.4146(2) 1.0983(2)
H11 H -0.0640 0.4127 1.1576
H12 H -0.0349 0.4864 1.1101
C11 C 0.07387(19) 0.38556(18) 1.08481(18)
H13 H 0.1144 0.4231 1.0547
H14 H 0.1106 0.4086 1.1508
C12 C 0.21462(19) -0.04095(17) 0.84810(16)
C13 C 0.3143(2) -0.05249(19) 0.81119(19)
H15 H 0.3606 0.0072 0.8198
C14 C 0.3468(2) -0.1499(2) 0.76207(19)
H16 H 0.4137 -0.1556 0.7373
C15 C 0.2793(2) -0.23818(19) 0.75011(18)
C16 C 0.1814(2) -0.2298(2) 0.7877(2)
H17 H 0.1363 -0.2895 0.7806
C17 C 0.1497(2) -0.13027(19) 0.83687(19)
H18 H 0.0832 -0.1246 0.8625
C18 C 0.2500(3) -0.4266(2) 0.6785(2)
H19 H 0.2366 -0.4242 0.7417
H20 H 0.2845 -0.4860 0.6384
H21 H 0.1831 -0.4339 0.6426
C19 C 0.17392(17) 0.25038(18) 0.83244(16)
C20 C 0.34080(18) 0.26280(18) 0.76165(19)
H22 H 0.3556 0.3337 0.8211
C21 C 0.32088(19) 0.27104(19) 0.6672(2)
H23 H 0.2588 0.3063 0.6729
C22 C 0.4213(2) 0.3376(2) 0.6589(3)
H24 H 0.4104 0.3462 0.5999
H25 H 0.4346 0.4073 0.7184
C23 C 0.5178(2) 0.2824(2) 0.6497(3)
H26 H 0.5819 0.3247 0.6439
C24 C 0.4963(3) 0.1729(3) 0.5556(3)
H27 H 0.4854 0.1801 0.4957
H28 H 0.5578 0.1378 0.5488
C25 C 0.3965(2) 0.1064(2) 0.5644(2)
H29 H 0.3831 0.0359 0.5043
C26 C 0.4143(2) 0.0960(2) 0.6590(2)
H30 H 0.3515 0.0535 0.6648
H31 H 0.4753 0.0607 0.6537
C27 C 0.43502(19) 0.2057(2) 0.7526(2)
H32 H 0.4458 0.1986 0.8132
C28 C 0.5349(2) 0.2723(2) 0.7444(3)
H33 H 0.5479 0.3421 0.8039
H34 H 0.5970 0.2389 0.7406
C29 C 0.3000(2) 0.1614(2) 0.5738(2)
H35 H 0.2875 0.1678 0.5137
H36 H 0.2364 0.1194 0.5792
C30 C 0.00464(19) 0.13687(18) 0.72635(17)
C31 C -0.03408(18) 0.17544(18) 0.59407(16)
H37 H -0.0421 0.0986 0.5498
C32 C -0.14429(19) 0.2068(2) 0.60929(19)
H38 H -0.1852 0.1730 0.6434
C33 C -0.1353(2) 0.3266(2) 0.6709(2)
H39 H -0.2065 0.3453 0.6788
H40 H -0.0995 0.3519 0.7378
C34 C -0.0724(3) 0.3782(2) 0.6179(2)
H41 H -0.0669 0.4553 0.6579
C35 C -0.1278(3) 0.3392(2) 0.5121(2)
H42 H -0.1990 0.3579 0.5176
H43 H -0.0867 0.3725 0.4786
C36 C -0.1363(2) 0.2198(2) 0.45083(19)
H44 H -0.1724 0.1945 0.3833
C37 C -0.0248(2) 0.1924(2) 0.44104(18)
H45 H 0.0161 0.2256 0.4073
H46 H -0.0292 0.1163 0.4004
C38 C 0.03157(18) 0.23079(19) 0.54560(17)
H47 H 0.1038 0.2126 0.5391
C39 C 0.0391(2) 0.3499(2) 0.6085(2)
H48 H 0.0747 0.3745 0.6754
H49 H 0.0814 0.3845 0.5767
C40 C -0.1998(2) 0.1665(3) 0.5029(2)
H50 H -0.2043 0.0903 0.4633
H51 H -0.2722 0.1823 0.5080
C41 C 0.39446(18) 0.29675(17) 1.11929(16)
C42 C 0.37064(19) 0.35335(18) 1.07163(18)
H52 H 0.3004 0.3641 1.0668
C43 C 0.4483(2) 0.3940(2) 1.0313(2)
H53 H 0.4301 0.4314 0.9996
C44 C 0.5527(2) 0.3795(2) 1.0379(2)
H54 H 0.6053 0.4075 1.0111
C45 C 0.5788(2) 0.3238(2) 1.0840(2)
H55 H 0.6492 0.3132 1.0882
C46 C 0.50114(19) 0.2834(2) 1.12398(18)
H56 H 0.5202 0.2459 1.1553
C47 C 0.30969(19) 0.12123(18) 1.16724(18)
C48 C 0.3625(2) 0.0548(2) 1.0883(2)
H57 H 0.3888 0.0770 1.0434
C49 C 0.3777(2) -0.0435(2) 1.0734(3)
H58 H 0.4131 -0.0862 1.0191
C50 C 0.3408(3) -0.0776(2) 1.1383(3)
H59 H 0.3529 -0.1425 1.1298
C51 C 0.2861(3) -0.0162(3) 1.2155(3)
H60 H 0.2594 -0.0399 1.2592
C52 C 0.2701(2) 0.0815(2) 1.2294(2)
H61 H 0.2316 0.1220 1.2821
C53 C 0.30912(19) 0.35889(19) 1.32522(17)
C54 C 0.4069(2) 0.3500(3) 1.3802(2)
H62 H 0.4704 0.3604 1.3500
H63 H 0.3976 0.2810 1.3747
H64 H 0.4140 0.4031 1.4504
C55 C 0.2080(2) 0.3492(2) 1.3767(2)
H65 H 0.2160 0.4067 1.4450
H66 H 0.1981 0.2831 1.3772
H67 H 0.1467 0.3517 1.3400
C56 C 0.3280(3) 0.4680(2) 1.3336(2)
H68 H 0.2682 0.4750 1.2986
H69 H 0.3925 0.4764 1.3038
H70 H 0.3354 0.5213 1.4037
loop_
_geom_bond_atom_site_label_1
_geom_bond_atom_site_label_2
_geom_bond_site_symmetry_1
_geom_bond_site_symmetry_2
Si1 O1 1_555 1_555
O1 C5 1_555 1_555
O2 C19 1_555 1_555
O3 C19 1_555 1_555
O4 C30 1_555 1_555
O5 C30 1_555 1_555
O6 C15 1_555 1_555
C1 C2 1_555 1_555
C2 H1 1_555 1_555
H2 C2 1_555 1_555
C3 C2 1_555 1_555
H3 C3 1_555 1_555
C4 C3 1_555 1_555
H4 C4 1_555 1_555
H5 C4 1_555 1_555
C5 C4 1_555 1_555
C6 C5 1_555 1_555
C7 C1 1_555 1_555
H6 C7 1_555 1_555
C8 C7 1_555 1_555
H7 C8 1_555 1_555
H8 C8 1_555 1_555
C9 C8 1_555 1_555
H9 C9 1_555 1_555
H10 C9 1_555 1_555
C10 C9 1_555 1_555
H11 C10 1_555 1_555
H12 C10 1_555 1_555
C11 C6 1_555 1_555
H13 C11 1_555 1_555
H14 C11 1_555 1_555
C12 C3 1_555 1_555
C13 C12 1_555 1_555
H15 C13 1_555 1_555
C14 C13 1_555 1_555
H16 C14 1_555 1_555
C15 C14 1_555 1_555
C16 C15 1_555 1_555
H17 C16 1_555 1_555
C17 C12 1_555 1_555
H18 C17 1_555 1_555
C18 O6 1_555 1_555
H19 C18 1_555 1_555
H20 C18 1_555 1_555
H21 C18 1_555 1_555
C19 C1 1_555 1_555
C20 O3 1_555 1_555
H22 C20 1_555 1_555
C21 C20 1_555 1_555
H23 C21 1_555 1_555
C22 C21 1_555 1_555
H24 C22 1_555 1_555
H25 C22 1_555 1_555
C23 C22 1_555 1_555
H26 C23 1_555 1_555
C24 C23 1_555 1_555
H27 C24 1_555 1_555
H28 C24 1_555 1_555
C25 C24 1_555 1_555
H29 C25 1_555 1_555
C26 C25 1_555 1_555
H30 C26 1_555 1_555
H31 C26 1_555 1_555
C27 C20 1_555 1_555
H32 C27 1_555 1_555
C28 C23 1_555 1_555
H33 C28 1_555 1_555
H34 C28 1_555 1_555
C29 C21 1_555 1_555
H35 C29 1_555 1_555
H36 C29 1_555 1_555
C30 C1 1_555 1_555
C31 O4 1_555 1_555
H37 C31 1_555 1_555
C32 C31 1_555 1_555
H38 C32 1_555 1_555
C33 C32 1_555 1_555
H39 C33 1_555 1_555
H40 C33 1_555 1_555
C34 C33 1_555 1_555
H41 C34 1_555 1_555
C35 C34 1_555 1_555
H42 C35 1_555 1_555
H43 C35 1_555 1_555
C36 C35 1_555 1_555
H44 C36 1_555 1_555
C37 C36 1_555 1_555
H45 C37 1_555 1_555
H46 C37 1_555 1_555
C38 C31 1_555 1_555
H47 C38 1_555 1_555
C39 C34 1_555 1_555
H48 C39 1_555 1_555
H49 C39 1_555 1_555
C40 C32 1_555 1_555
H50 C40 1_555 1_555
H51 C40 1_555 1_555
C41 Si1 1_555 1_555
C42 C41 1_555 1_555
H52 C42 1_555 1_555
C43 C42 1_555 1_555
H53 C43 1_555 1_555
C44 C43 1_555 1_555
H54 C44 1_555 1_555
C45 C44 1_555 1_555
H55 C45 1_555 1_555
C46 C41 1_555 1_555
H56 C46 1_555 1_555
C47 Si1 1_555 1_555
C48 C47 1_555 1_555
H57 C48 1_555 1_555
C49 C48 1_555 1_555
H58 C49 1_555 1_555
C50 C49 1_555 1_555
H59 C50 1_555 1_555
C51 C50 1_555 1_555
H60 C51 1_555 1_555
C52 C47 1_555 1_555
H61 C52 1_555 1_555
C53 Si1 1_555 1_555
C54 C53 1_555 1_555
H62 C54 1_555 1_555
H63 C54 1_555 1_555
H64 C54 1_555 1_555
C55 C53 1_555 1_555
H65 C55 1_555 1_555
H66 C55 1_555 1_555
H67 C55 1_555 1_555
C56 C53 1_555 1_555
H68 C56 1_555 1_555
H69 C56 1_555 1_555
H70 C56 1_555 1_555
C6 C7 1_555 1_555
C10 C11 1_555 1_555
C16 C17 1_555 1_555
C25 C29 1_555 1_555
C26 C27 1_555 1_555
C27 C28 1_555 1_555
C36 C40 1_555 1_555
C37 C38 1_555 1_555
C38 C39 1_555 1_555
C45 C46 1_555 1_555
C51 C52 1_555 1_555

#END
