
#######################################################################
#
#                 Cambridge Crystallographic Data Centre
#                                CCDC 
#
#######################################################################
#
# If this CIF has been generated from an entry in the Cambridge 
# Structural Database, then it will include bibliographic, chemical, 
# crystal, experimental, refinement or atomic coordinate data resulting 
# from the CCDC's data processing and validation procedures.
#
#######################################################################

data_RUKSIB
_chemical_formula_moiety         'C43 H52 O5 Si1'
_chemical_name_systematic        
'Adamantan-2-yl 4-((t-butyl(diphenyl)silyl)oxy)-1-formyl-6-(4-methoxyphenyl)-3-methylcyclohept-3-ene-1-carboxylate'
_symmetry_cell_setting           monoclinic
_symmetry_space_group_name_H-M   'P 21/n'
_symmetry_Int_Tables_number      14
_space_group_name_Hall           '-P 2yn'
loop_
_symmetry_equiv_pos_site_id
_symmetry_equiv_pos_as_xyz
1 x,y,z
2 1/2-x,1/2+y,1/2-z
3 -x,-y,-z
4 1/2+x,1/2-y,1/2+z
_cell_length_a                   17.8087(17)
_cell_length_b                   9.8394(10)
_cell_length_c                   23.122(2)
_cell_angle_alpha                90
_cell_angle_beta                 111.454(2)
_cell_angle_gamma                90
_cell_volume                     3770.87
_exptl_crystal_colour            colorless
_exptl_crystal_description       prismatic
_cell_formula_units_Z            4
loop_
_atom_site_label
_atom_site_type_symbol
_atom_site_fract_x
_atom_site_fract_y
_atom_site_fract_z
Si1 Si 0.28516(7) 0.50843(12) 0.04638(6)
O1 O 0.5275(18) 0.902(3) 0.3544(11)
O2 O 0.3977(2) 1.0213(4) 0.17012(17)
O3 O 0.51722(18) 0.9193(3) 0.19656(14)
O4 O 0.36025(16) 0.5198(3) 0.11309(13)
C1 C 0.4727(3) 0.7132(5) 0.2573(2)
H1 H 0.5309 0.7237 0.2745
H2 H 0.4576 0.6613 0.2870
C2 C 0.4512(3) 0.6306(4) 0.19874(19)
C3 C 0.3758(3) 0.5966(4) 0.1663(2)
C4 C 0.3049(3) 0.6293(4) 0.1847(2)
H3 H 0.3143 0.5886 0.2249
H4 H 0.2573 0.5866 0.1550
C5 C 0.2869(2) 0.7814(4) 0.18837(19)
H5 H 0.2961 0.8230 0.1530
C6 C 0.3462(3) 0.8520(5) 0.2455(2)
H6 H 0.3431 0.8079 0.2821
H7 H 0.3284 0.9452 0.2456
C7 C 0.4349(3) 0.8547(5) 0.25188(19)
C8 C 0.4783(4) 0.9356(7) 0.3113(3)
H8 H 0.4611 1.0248 0.3114
C9 C 0.5190(3) 0.5853(5) 0.1794(3)
H9 H 0.5003 0.5143 0.1490
H10 H 0.5626 0.5518 0.2150
H11 H 0.5374 0.6608 0.1618
C10 C 0.4455(3) 0.9411(5) 0.2009(2)
C11 C 0.5410(3) 1.0067(5) 0.1548(2)
H12 H 0.4927 1.0326 0.1194
C12 C 0.5819(3) 1.1322(5) 0.1879(3)
H13 H 0.5457 1.1826 0.2034
C13 C 0.6582(4) 1.0933(8) 0.2413(3)
H14 H 0.6852 1.1746 0.2626
H15 H 0.6446 1.0378 0.2708
C14 C 0.7141(3) 1.0151(9) 0.2176(3)
H16 H 0.7629 0.9888 0.2525
C15 C 0.7367(3) 1.1063(7) 0.1726(3)
H17 H 0.7626 1.1885 0.1938
H18 H 0.7742 1.0590 0.1580
C16 C 0.6623(3) 1.1417(5) 0.1190(3)
H19 H 0.6765 1.1982 0.0896
C17 C 0.6192(4) 1.0170(6) 0.0866(3)
H20 H 0.6538 0.9659 0.0705
H21 H 0.5710 1.0428 0.0519
C18 C 0.5960(4) 0.9284(6) 0.1319(3)
H22 H 0.5685 0.8463 0.1105
C19 C 0.6705(4) 0.8897(7) 0.1844(3)
H23 H 0.7055 0.8379 0.1690
H24 H 0.6566 0.8328 0.2133
C20 C 0.6048(4) 1.2202(6) 0.1422(3)
H25 H 0.5566 1.2448 0.1073
H26 H 0.6306 1.3031 0.1626
O5 O -0.0506(4) 0.8719(9) 0.1372(4)
C21 C 0.19412(14) 0.8077(3) 0.17566(11)
C22 C 0.14103(14) 0.8391(2) 0.11612(12)
H27 H 0.1600 0.8471 0.0838
C23 C 0.05959(15) 0.8584(3) 0.10495(14)
H28 H 0.0241 0.8793 0.0651
C24 C 0.03124(16) 0.8463(3) 0.15331(16)
C25 C 0.08434(18) 0.8150(3) 0.21284(15)
H29 H 0.0654 0.8069 0.2452
C26 C 0.16578(18) 0.7957(3) 0.22402(12)
H30 H 0.2013 0.7747 0.2639
C27 C -0.09262(19) 0.8381(5) 0.1736(2)
H31 H -0.0908 0.7415 0.1795
H32 H -0.1477 0.8667 0.1538
H33 H -0.0691 0.8824 0.2131
C28 C 0.24921(18) 0.6833(3) 0.01818(12)
C29 C 0.29983(17) 0.7925(3) 0.04203(14)
H34 H 0.3512 0.7770 0.0712
C30 C 0.2762(4) 0.9233(5) 0.0237(2)
H35 H 0.3109 0.9953 0.0413
C31 C 0.2016(4) 0.9480(7) -0.0202(3)
H36 H 0.1847 1.0367 -0.0317
C32 C 0.1524(4) 0.8416(8) -0.0469(3)
H37 H 0.1029 0.8576 -0.0785
C33 C 0.1752(3) 0.7097(6) -0.0275(2)
H38 H 0.1403 0.6382 -0.0455
C34 C 0.20855(18) 0.3941(3) 0.06329(15)
C35 C 0.12613(19) 0.4202(4) 0.0407(2)
H39 H 0.1063 0.5003 0.0192
C36 C 0.07337(19) 0.3264(5) 0.0502(2)
H40 H 0.0182 0.3439 0.0351
C37 C 0.1030(2) 0.2066(4) 0.0822(2)
H41 H 0.0677 0.1439 0.0886
C38 C 0.1854(3) 0.1805(4) 0.1048(2)
H42 H 0.2053 0.1004 0.1263
C39 C 0.2382(2) 0.2743(4) 0.09536(14)
H43 H 0.2933 0.2568 0.1105
C40 C 0.3297(2) 0.4276(4) -0.00772(16)
C41 C 0.3924(2) 0.5230(4) -0.0157(2)
H44 H 0.4180 0.4798 -0.0409
H45 H 0.4322 0.5441 0.0243
H46 H 0.3666 0.6052 -0.0355
C42 C 0.2634(4) 0.4032(12) -0.0707(3)
H47 H 0.2867 0.3666 -0.0989
H48 H 0.2370 0.4875 -0.0868
H49 H 0.2249 0.3400 -0.0662
C43 C 0.3731(4) 0.2952(6) 0.0190(3)
H50 H 0.3344 0.2278 0.0194
H51 H 0.4103 0.3105 0.0606
H52 H 0.4022 0.2641 -0.0062
O6? O 0.5455(18) 0.945(3) 0.3385(12)
H53? H 0.2902 0.8236 0.1526
H54? H 0.4422 0.9826 0.3271
C44? C -0.08669(17) 0.8333(6) 0.1458(2)
H55? H -0.0953 0.9265 0.1328
H56? H -0.1341 0.7987 0.1512
H57? H -0.0758 0.7807 0.1148
C45? C 0.19942(17) 0.3987(3) 0.04266(15)
C46? C 0.12011(16) 0.4201(5) 0.0030(2)
H58? H 0.1076 0.4924 -0.0248
C47? C 0.05942(17) 0.3336(6) 0.0051(2)
H59? H 0.0064 0.3479 -0.0214
C48? C 0.0781(2) 0.2256(5) 0.0467(2)
H60? H 0.0375 0.1677 0.0481
C49? C 0.1574(2) 0.2041(4) 0.08631(19)
H61? H 0.1698 0.1319 0.1142
C50? C 0.21805(19) 0.2907(3) 0.08429(14)
H62? H 0.2711 0.2763 0.1108
C51? C 0.05148(18) 0.8170(3) 0.19556(16)
O7? O -0.0236(2) 0.8250(4) 0.19986(19)
C52? C 0.1164(2) 0.7877(4) 0.24982(14)
H63? H 0.1082 0.7764 0.2870
C53? C 0.19348(19) 0.7754(4) 0.24850(11)
H64? H 0.2369 0.7558 0.2848
C54? C 0.20570(15) 0.7924(3) 0.19290(11)
C55? C 0.14081(14) 0.8217(2) 0.13864(12)
H65? H 0.1490 0.8330 0.1014
C56? C 0.06370(15) 0.8340(3) 0.13997(14)
H66? H 0.0203 0.8536 0.1037
loop_
_geom_bond_atom_site_label_1
_geom_bond_atom_site_label_2
_geom_bond_site_symmetry_1
_geom_bond_site_symmetry_2
Si1 O4 1_555 1_555
O1 C8 1_555 1_555
O2 C10 1_555 1_555
O3 C10 1_555 1_555
O4 C3 1_555 1_555
C1 H1 1_555 1_555
H2 C1 1_555 1_555
C2 C1 1_555 1_555
C3 C2 1_555 1_555
C4 C3 1_555 1_555
H3 C4 1_555 1_555
H4 C4 1_555 1_555
C5 C4 1_555 1_555
H5 C5 1_555 1_555
C6 C5 1_555 1_555
H6 C6 1_555 1_555
H7 C6 1_555 1_555
C7 C1 1_555 1_555
C8 C7 1_555 1_555
H8 C8 1_555 1_555
C9 C2 1_555 1_555
H9 C9 1_555 1_555
H10 C9 1_555 1_555
H11 C9 1_555 1_555
C10 C7 1_555 1_555
C11 O3 1_555 1_555
H12 C11 1_555 1_555
C12 C11 1_555 1_555
H13 C12 1_555 1_555
C13 C12 1_555 1_555
H14 C13 1_555 1_555
H15 C13 1_555 1_555
C14 C13 1_555 1_555
H16 C14 1_555 1_555
C15 C14 1_555 1_555
H17 C15 1_555 1_555
H18 C15 1_555 1_555
C16 C15 1_555 1_555
H19 C16 1_555 1_555
C17 C16 1_555 1_555
H20 C17 1_555 1_555
H21 C17 1_555 1_555
C18 C11 1_555 1_555
H22 C18 1_555 1_555
C19 C14 1_555 1_555
H23 C19 1_555 1_555
H24 C19 1_555 1_555
C20 C12 1_555 1_555
H25 C20 1_555 1_555
H26 C20 1_555 1_555
O5 C24 1_555 1_555
C21 C5 1_555 1_555
C22 C21 1_555 1_555
H27 C22 1_555 1_555
C23 C22 1_555 1_555
H28 C23 1_555 1_555
C24 C23 1_555 1_555
C25 C24 1_555 1_555
H29 C25 1_555 1_555
C26 C21 1_555 1_555
H30 C26 1_555 1_555
C27 O5 1_555 1_555
H31 C27 1_555 1_555
H32 C27 1_555 1_555
H33 C27 1_555 1_555
C28 Si1 1_555 1_555
C29 C28 1_555 1_555
H34 C29 1_555 1_555
C30 C29 1_555 1_555
H35 C30 1_555 1_555
C31 C30 1_555 1_555
H36 C31 1_555 1_555
C32 C31 1_555 1_555
H37 C32 1_555 1_555
C33 C28 1_555 1_555
H38 C33 1_555 1_555
C34 Si1 1_555 1_555
C35 C34 1_555 1_555
H39 C35 1_555 1_555
C36 C35 1_555 1_555
H40 C36 1_555 1_555
C37 C36 1_555 1_555
H41 C37 1_555 1_555
C38 C37 1_555 1_555
H42 C38 1_555 1_555
C39 C34 1_555 1_555
H43 C39 1_555 1_555
C40 Si1 1_555 1_555
C41 C40 1_555 1_555
H44 C41 1_555 1_555
H45 C41 1_555 1_555
H46 C41 1_555 1_555
C42 C40 1_555 1_555
H47 C42 1_555 1_555
H48 C42 1_555 1_555
H49 C42 1_555 1_555
C43 C40 1_555 1_555
H50 C43 1_555 1_555
H51 C43 1_555 1_555
H52 C43 1_555 1_555
C6 C7 1_555 1_555
C16 C20 1_555 1_555
C17 C18 1_555 1_555
C18 C19 1_555 1_555
C25 C26 1_555 1_555
C32 C33 1_555 1_555
C38 C39 1_555 1_555

#END
