
#######################################################################
#
#                 Cambridge Crystallographic Data Centre
#                                CCDC 
#
#######################################################################
#
# If this CIF has been generated from an entry in the Cambridge 
# Structural Database, then it will include bibliographic, chemical, 
# crystal, experimental, refinement or atomic coordinate data resulting 
# from the CCDC's data processing and validation procedures.
#
#######################################################################

data_RUKWUP
_chemical_formula_moiety         '2(C40 H43 N1 Si3),C1 H4 O1,C4 H10 O1'
_chemical_name_systematic        
'bis(1-(bis(Trimethylsilyl)amino)-pentaphenyl-silole) methanol diethyl ether solvate'
_symmetry_cell_setting           triclinic
_symmetry_space_group_name_H-M   'P -1'
_symmetry_Int_Tables_number      2
_space_group_name_Hall           '-P 1'
loop_
_symmetry_equiv_pos_site_id
_symmetry_equiv_pos_as_xyz
1 x,y,z
2 -x,-y,-z
_cell_length_a                   12.496(2)
_cell_length_b                   15.048(2)
_cell_length_c                   22.683(3)
_cell_angle_alpha                107.900
_cell_angle_beta                 97.940
_cell_angle_gamma                92.100
_cell_volume                     4005.75
_exptl_crystal_colour            yellow
_exptl_crystal_description       rectangle
_chemical_melting_point          140deg.C
_cell_formula_units_Z            2
loop_
_atom_site_label
_atom_site_type_symbol
_atom_site_fract_x
_atom_site_fract_y
_atom_site_fract_z
C41 C -0.07800(86) 0.48264(64) 0.10569(46)
C42 C -0.12418(84) 0.44828(54) 0.04489(40)
O1 O -0.17493(40) 0.50954(27) 0.01925(22)
C43 C -0.22262(74) 0.48074(53) -0.04019(34)
C44 C -0.27240(66) 0.54646(47) -0.06499(33)
H44 H -0.0426 0.4337 0.1174
H45 H -0.0269 0.5360 0.1146
H46 H -0.1365 0.5001 0.1291
H47 H -0.0688 0.4236 0.0205
H48 H -0.1755 0.3970 0.0411
H49 H -0.2758 0.4306 -0.0443
H50 H -0.1690 0.4545 -0.0655
H51 H -0.3040 0.5160 -0.1080
H52 H -0.3282 0.5719 -0.0411
H53 H -0.2200 0.5961 -0.0627
O2 O 0.84244(81) 0.03449(46) 0.50320(38)
C45 C 0.9787(20) 0.00232(10) 0.51585(29)
C45A C 1.0213(20) -0.00232(10) 0.48415(29)
O2A O 1.15756(81) -0.03449(46) 0.49680(38)
Si4 Si -0.56745(8) 0.23040(7) -0.28239(4)
Si5 Si -0.56938(9) 0.42384(8) -0.29333(6)
Si6 Si -0.49348(9) 0.26813(9) -0.39672(5)
N2 N -0.54270(22) 0.30551(20) -0.32449(13)
C46 C -0.70194(27) 0.23229(24) -0.25468(16)
C47 C -0.68251(27) 0.23043(23) -0.19451(16)
C48 C -0.56552(28) 0.24659(24) -0.16417(15)
C49 C -0.49166(27) 0.25468(23) -0.20114(15)
C50 C -0.80671(27) 0.23723(24) -0.29162(16)
C51 C -0.81770(29) 0.21175(27) -0.35683(17)
C52 C -0.91261(32) 0.22149(29) -0.39298(19)
C53 C -0.99806(32) 0.25899(28) -0.36514(20)
C54 C -0.98923(32) 0.28561(29) -0.30118(20)
C55 C -0.89527(30) 0.27536(26) -0.26448(18)
C56 C -0.76699(27) 0.20947(25) -0.15941(16)
C57 C -0.82310(28) 0.12179(25) -0.18107(17)
C58 C -0.89966(30) 0.09714(29) -0.14924(19)
C59 C -0.92171(30) 0.16012(31) -0.09558(19)
C60 C -0.86837(31) 0.24848(31) -0.07352(18)
C61 C -0.79052(30) 0.27335(28) -0.10519(17)
C62 C -0.53685(28) 0.26242(28) -0.09509(17)
C63 C -0.55522(32) 0.19456(33) -0.06767(20)
C64 C -0.52525(37) 0.21633(41) -0.00219(22)
C65 C -0.47932(41) 0.30219(43) 0.03310(23)
C66 C -0.46054(43) 0.36887(38) 0.00662(21)
C67 C -0.48897(35) 0.34914(30) -0.05739(18)
C68 C -0.37255(27) 0.26488(25) -0.18395(16)
C69 C -0.31627(31) 0.21275(28) -0.15057(17)
C70 C -0.20469(32) 0.22035(33) -0.13888(19)
C71 C -0.14640(33) 0.28161(35) -0.15863(20)
C72 C -0.19935(32) 0.33470(33) -0.19129(20)
C73 C -0.31146(30) 0.32546(28) -0.20440(17)
C74 C -0.54543(29) 0.10492(25) -0.32269(15)
C75 C -0.63191(31) 0.03551(26) -0.34740(16)
C76 C -0.61440(37) -0.05746(29) -0.37501(18)
C77 C -0.51064(40) -0.08397(30) -0.37921(19)
C78 C -0.42385(36) -0.01799(29) -0.35447(19)
C79 C -0.44084(32) 0.07535(27) -0.32583(17)
C80 C -0.45055(39) 0.50474(33) -0.29031(26)
C81 C -0.69186(37) 0.45091(36) -0.33891(26)
C82 C -0.59511(45) 0.45388(31) -0.21074(22)
C83 C -0.56109(39) 0.15535(35) -0.45113(19)
C84 C -0.34427(33) 0.26072(34) -0.38331(21)
C85 C -0.52052(40) 0.35080(38) -0.44273(23)
H54 H -0.7576 0.1872 -0.3770
H55 H -0.9182 0.2022 -0.4378
H56 H -1.0630 0.2673 -0.3902
H57 H -1.0496 0.3111 -0.2816
H58 H -0.8907 0.2946 -0.2197
H59 H -0.8076 0.0774 -0.2189
H60 H -0.9380 0.0360 -0.1652
H61 H -0.9735 0.1428 -0.0727
H62 H -0.8848 0.2932 -0.0362
H63 H -0.7534 0.3350 -0.0899
H64 H -0.5872 0.1333 -0.0928
H65 H -0.5383 0.1702 0.0179
H66 H -0.4599 0.3154 0.0776
H67 H -0.4265 0.4293 0.0321
H68 H -0.4772 0.3967 -0.0764
H69 H -0.3564 0.1708 -0.1355
H70 H -0.1677 0.1817 -0.1174
H71 H -0.0687 0.2884 -0.1492
H72 H -0.1589 0.3785 -0.2046
H73 H -0.3479 0.3607 -0.2288
H74 H -0.7046 0.0532 -0.3449
H75 H -0.6751 -0.1036 -0.3918
H76 H -0.4986 -0.1484 -0.3984
H77 H -0.3516 -0.0360 -0.3584
H78 H -0.3795 0.1204 -0.3072
H79 H -0.3883 0.4898 -0.2664
H80 H -0.4367 0.4970 -0.3321
H81 H -0.4649 0.5685 -0.2708
H82 H -0.7524 0.4090 -0.3399
H83 H -0.7073 0.5144 -0.3196
H84 H -0.6791 0.4430 -0.3809
H85 H -0.6564 0.4149 -0.2091
H86 H -0.5326 0.4437 -0.1847
H87 H -0.6099 0.5185 -0.1960
H88 H -0.5512 0.1076 -0.4314
H89 H -0.6372 0.1611 -0.4611
H90 H -0.5295 0.1387 -0.4889
H91 H -0.3279 0.2177 -0.3603
H92 H -0.3186 0.2392 -0.4229
H93 H -0.3093 0.3216 -0.3596
H94 H -0.4881 0.4119 -0.4176
H95 H -0.4897 0.3307 -0.4807
H96 H -0.5973 0.3532 -0.4529
Si1 Si -0.01151(8) 0.21915(7) 0.28242(4)
Si2 Si 0.02798(9) 0.42829(7) 0.33088(5)
Si3 Si 0.18866(9) 0.31164(8) 0.38081(6)
N1 N 0.06862(22) 0.31691(19) 0.33121(13)
C1 C -0.04187(28) 0.19848(24) 0.19540(16)
C2 C -0.14923(28) 0.17548(24) 0.17766(16)
C3 C -0.21563(27) 0.18636(24) 0.22972(16)
C4 C -0.15964(27) 0.21609(23) 0.28897(16)
C5 C 0.03963(29) 0.19071(27) 0.15303(17)
C6 C 0.12313(31) 0.26063(30) 0.16705(20)
C7 C 0.20014(34) 0.25659(37) 0.12803(25)
C8 C 0.19558(37) 0.18087(42) 0.07509(23)
C9 C 0.11716(37) 0.10921(39) 0.06162(20)
C10 C 0.03931(33) 0.11356(31) 0.09993(18)
C11 C -0.20430(28) 0.14475(26) 0.11099(16)
C12 C -0.19311(34) 0.20278(30) 0.07487(18)
C13 C -0.24155(42) 0.17569(38) 0.01253(21)
C14 C -0.29957(43) 0.09132(40) -0.01387(21)
C15 C -0.31275(38) 0.03328(34) 0.02142(21)
C16 C -0.26549(32) 0.06002(28) 0.08390(18)
C17 C -0.33510(28) 0.16490(27) 0.21325(16)
C18 C -0.39986(31) 0.21722(32) 0.18383(19)
C19 C -0.51073(36) 0.19603(43) 0.16935(22)
C20 C -0.55809(37) 0.12316(45) 0.18279(23)
C21 C -0.49540(38) 0.06965(39) 0.21145(21)
C22 C -0.38474(32) 0.09094(30) 0.22659(18)
C23 C -0.20342(28) 0.24863(24) 0.34850(16)
C24 C -0.30235(32) 0.28851(26) 0.35358(19)
C25 C -0.33597(37) 0.32500(28) 0.41126(21)
C26 C -0.27180(41) 0.32233(29) 0.46530(21)
C27 C -0.17428(39) 0.28398(30) 0.46179(19)
C28 C -0.13937(32) 0.24780(27) 0.40402(17)
C29 C 0.04238(29) 0.10616(24) 0.28666(16)
C30 C -0.00777(32) 0.04811(26) 0.31379(18)
C31 C 0.03082(39) -0.03752(29) 0.31275(21)
C32 C 0.11855(40) -0.06688(31) 0.28440(24)
C33 C 0.16878(35) -0.01171(30) 0.25642(22)
C34 C 0.13073(31) 0.07323(27) 0.25662(18)
C35 C -0.08095(34) 0.41931(29) 0.26406(19)
C36 C -0.02614(36) 0.49050(29) 0.40383(20)
C37 C 0.14307(36) 0.50047(30) 0.31912(25)
C38 C 0.22882(45) 0.42409(33) 0.44425(26)
C39 C 0.30345(34) 0.28604(37) 0.33606(26)
C40 C 0.17789(39) 0.22397(34) 0.42262(22)
H1 H 0.1276 0.3125 0.2049
H2 H 0.2555 0.3069 0.1369
H3 H 0.2482 0.1777 0.0476
H4 H 0.1162 0.0553 0.0253
H5 H -0.0164 0.0632 0.0899
H6 H -0.1510 0.2619 0.0937
H7 H -0.2346 0.2170 -0.0119
H8 H -0.3304 0.0718 -0.0575
H9 H -0.3555 -0.0257 0.0032
H10 H -0.2743 0.0204 0.1092
H11 H -0.3665 0.2689 0.1746
H12 H -0.5553 0.2330 0.1498
H13 H -0.6351 0.1081 0.1720
H14 H -0.5288 0.0177 0.2203
H15 H -0.3408 0.0542 0.2466
H16 H -0.3476 0.2900 0.3161
H17 H -0.4036 0.3532 0.4137
H18 H -0.2958 0.3466 0.5052
H19 H -0.1299 0.2820 0.4994
H20 H -0.0705 0.2217 0.4021
H21 H -0.0705 0.0676 0.3329
H22 H -0.0047 -0.0765 0.3319
H23 H 0.1455 -0.1257 0.2847
H24 H 0.2303 -0.0326 0.2365
H25 H 0.1649 0.1110 0.2361
H26 H -0.0563 0.3875 0.2254
H27 H -0.1439 0.3845 0.2681
H28 H -0.0991 0.4808 0.2642
H29 H -0.0849 0.4521 0.4090
H30 H 0.0306 0.5026 0.4391
H31 H -0.0516 0.5487 0.4011
H32 H 0.1687 0.4667 0.2811
H33 H 0.1187 0.5588 0.3158
H34 H 0.2009 0.5127 0.3539
H35 H 0.1718 0.4399 0.4690
H36 H 0.2937 0.4182 0.4704
H37 H 0.2420 0.4725 0.4261
H38 H 0.2853 0.2279 0.3027
H39 H 0.3161 0.3355 0.3188
H40 H 0.3677 0.2813 0.3631
H41 H 0.1192 0.2368 0.4464
H42 H 0.1642 0.1623 0.3926
H43 H 0.2444 0.2275 0.4504
loop_
_geom_bond_atom_site_label_1
_geom_bond_atom_site_label_2
_geom_bond_site_symmetry_1
_geom_bond_site_symmetry_2
Si1 N1 1_555 1_555
Si2 N1 1_555 1_555
Si3 N1 1_555 1_555
C1 Si1 1_555 1_555
C2 C1 1_555 1_555
C3 C2 1_555 1_555
C4 Si1 1_555 1_555
C5 C1 1_555 1_555
C6 C5 1_555 1_555
C7 C6 1_555 1_555
C8 C7 1_555 1_555
C9 C8 1_555 1_555
C10 C5 1_555 1_555
C11 C2 1_555 1_555
C12 C11 1_555 1_555
C13 C12 1_555 1_555
C14 C13 1_555 1_555
C15 C14 1_555 1_555
C16 C11 1_555 1_555
C17 C3 1_555 1_555
C18 C17 1_555 1_555
C19 C18 1_555 1_555
C20 C19 1_555 1_555
C21 C20 1_555 1_555
C22 C17 1_555 1_555
C23 C4 1_555 1_555
C24 C23 1_555 1_555
C25 C24 1_555 1_555
C26 C25 1_555 1_555
C27 C26 1_555 1_555
C28 C23 1_555 1_555
C29 Si1 1_555 1_555
C30 C29 1_555 1_555
C31 C30 1_555 1_555
C32 C31 1_555 1_555
C33 C32 1_555 1_555
C34 C29 1_555 1_555
C35 Si2 1_555 1_555
C36 Si2 1_555 1_555
C37 Si2 1_555 1_555
C38 Si3 1_555 1_555
C39 Si3 1_555 1_555
C40 Si3 1_555 1_555
C41 C42 1_555 1_555
C42 O1 1_555 1_555
O1 C43 1_555 1_555
C43 C44 1_555 1_555
C44 H51 1_555 1_555
O2 C45 1_555 1_555
C45 C45A 1_555 1_555
Si4 N2 1_555 1_555
Si5 N2 1_555 1_555
Si6 N2 1_555 1_555
C46 Si4 1_555 1_555
C47 C46 1_555 1_555
C48 C47 1_555 1_555
C49 Si4 1_555 1_555
C50 C46 1_555 1_555
C51 C50 1_555 1_555
C52 C51 1_555 1_555
C53 C52 1_555 1_555
C54 C53 1_555 1_555
C55 C50 1_555 1_555
C56 C47 1_555 1_555
C57 C56 1_555 1_555
C58 C57 1_555 1_555
C59 C58 1_555 1_555
C60 C59 1_555 1_555
C61 C56 1_555 1_555
C62 C48 1_555 1_555
C63 C62 1_555 1_555
C64 C63 1_555 1_555
C65 C64 1_555 1_555
C66 C65 1_555 1_555
C67 C62 1_555 1_555
C68 C49 1_555 1_555
C69 C68 1_555 1_555
C70 C69 1_555 1_555
C71 C70 1_555 1_555
C72 C71 1_555 1_555
C73 C68 1_555 1_555
C74 Si4 1_555 1_555
C75 C74 1_555 1_555
C76 C75 1_555 1_555
C77 C76 1_555 1_555
C78 C77 1_555 1_555
C79 C74 1_555 1_555
C80 Si5 1_555 1_555
C81 Si5 1_555 1_555
C82 Si5 1_555 1_555
C83 Si6 1_555 1_555
C84 Si6 1_555 1_555
C85 Si6 1_555 1_555
H1 C6 1_555 1_555
H2 C7 1_555 1_555
H3 C8 1_555 1_555
H4 C9 1_555 1_555
H5 C10 1_555 1_555
H6 C12 1_555 1_555
H7 C13 1_555 1_555
H8 C14 1_555 1_555
H9 C15 1_555 1_555
H10 C16 1_555 1_555
H11 C18 1_555 1_555
H12 C19 1_555 1_555
H13 C20 1_555 1_555
H14 C21 1_555 1_555
H15 C22 1_555 1_555
H16 C24 1_555 1_555
H17 C25 1_555 1_555
H18 C26 1_555 1_555
H19 C27 1_555 1_555
H20 C28 1_555 1_555
H21 C30 1_555 1_555
H22 C31 1_555 1_555
H23 C32 1_555 1_555
H24 C33 1_555 1_555
H25 C34 1_555 1_555
H26 C35 1_555 1_555
H27 C35 1_555 1_555
H28 C35 1_555 1_555
H29 C36 1_555 1_555
H30 C36 1_555 1_555
H31 C36 1_555 1_555
H32 C37 1_555 1_555
H33 C37 1_555 1_555
H34 C37 1_555 1_555
H35 C38 1_555 1_555
H36 C38 1_555 1_555
H37 C38 1_555 1_555
H38 C39 1_555 1_555
H39 C39 1_555 1_555
H40 C39 1_555 1_555
H41 C40 1_555 1_555
H42 C40 1_555 1_555
H43 C40 1_555 1_555
H44 C41 1_555 1_555
H45 C41 1_555 1_555
H46 C41 1_555 1_555
H47 C42 1_555 1_555
H48 C42 1_555 1_555
H49 C43 1_555 1_555
H50 C43 1_555 1_555
H52 C44 1_555 1_555
H53 C44 1_555 1_555
H54 C51 1_555 1_555
H55 C52 1_555 1_555
H56 C53 1_555 1_555
H57 C54 1_555 1_555
H58 C55 1_555 1_555
H59 C57 1_555 1_555
H60 C58 1_555 1_555
H61 C59 1_555 1_555
H62 C60 1_555 1_555
H63 C61 1_555 1_555
H64 C63 1_555 1_555
H65 C64 1_555 1_555
H66 C65 1_555 1_555
H67 C66 1_555 1_555
H68 C67 1_555 1_555
H69 C69 1_555 1_555
H70 C70 1_555 1_555
H71 C71 1_555 1_555
H72 C72 1_555 1_555
H73 C73 1_555 1_555
H74 C75 1_555 1_555
H75 C76 1_555 1_555
H76 C77 1_555 1_555
H77 C78 1_555 1_555
H78 C79 1_555 1_555
H79 C80 1_555 1_555
H80 C80 1_555 1_555
H81 C80 1_555 1_555
H82 C81 1_555 1_555
H83 C81 1_555 1_555
H84 C81 1_555 1_555
H85 C82 1_555 1_555
H86 C82 1_555 1_555
H87 C82 1_555 1_555
H88 C83 1_555 1_555
H89 C83 1_555 1_555
H90 C83 1_555 1_555
H91 C84 1_555 1_555
H92 C84 1_555 1_555
H93 C84 1_555 1_555
H94 C85 1_555 1_555
H95 C85 1_555 1_555
H96 C85 1_555 1_555
C45A O2A 1_555 1_555
C3 C4 1_555 1_555
C9 C10 1_555 1_555
C15 C16 1_555 1_555
C21 C22 1_555 1_555
C27 C28 1_555 1_555
C33 C34 1_555 1_555
C48 C49 1_555 1_555
C54 C55 1_555 1_555
C60 C61 1_555 1_555
C66 C67 1_555 1_555
C72 C73 1_555 1_555
C78 C79 1_555 1_555

#END
