
#######################################################################
#
#                 Cambridge Crystallographic Data Centre
#                                CCDC 
#
#######################################################################
#
# If this CIF has been generated from an entry in the Cambridge 
# Structural Database, then it will include bibliographic, chemical, 
# crystal, experimental, refinement or atomic coordinate data resulting 
# from the CCDC's data processing and validation procedures.
#
#######################################################################

data_RUKWIF
_chemical_formula_moiety         'C22 H18 B2 N6'
_chemical_name_systematic        
1,1'-bis(Pyridin-2-yl)-1,1',3,3'-tetrahydro-2,2'-bi-1,3,2-benzodiazaborole
_symmetry_cell_setting           monoclinic
_symmetry_space_group_name_H-M   'P 21/n'
_symmetry_Int_Tables_number      14
_space_group_name_Hall           '-P 2yn'
loop_
_symmetry_equiv_pos_site_id
_symmetry_equiv_pos_as_xyz
1 x,y,z
2 1/2-x,1/2+y,1/2-z
3 -x,-y,-z
4 1/2+x,1/2-y,1/2+z
_cell_length_a                   11.382(7)
_cell_length_b                   9.981(6)
_cell_length_c                   34.66(2)
_cell_angle_alpha                90
_cell_angle_beta                 91.279(9)
_cell_angle_gamma                90
_cell_volume                     3936.52
_exptl_crystal_colour            colorless
_exptl_crystal_description       block
_cell_formula_units_Z            8
loop_
_atom_site_label
_atom_site_type_symbol
_atom_site_fract_x
_atom_site_fract_y
_atom_site_fract_z
N1 N 0.68246(19) 1.1302(2) 0.18285(6)
H1 H 0.6214 1.1831 0.1791
N2 N 0.81603(18) 0.9601(2) 0.17735(6)
N3 N 1.00235(19) 0.8633(2) 0.16668(6)
N4 N 0.48251(19) 0.9586(2) 0.13261(6)
H2 H 0.4493 0.9784 0.1546
N5 N 0.61816(18) 0.9177(2) 0.08649(6)
N6 N 0.7239(2) 0.7980(2) 0.03963(7)
B1 B 0.7044(3) 1.0115(3) 0.16113(9)
B2 B 0.6064(3) 0.9600(3) 0.12666(9)
C1 C 0.7707(2) 1.1513(2) 0.21075(7)
C2 C 0.7844(2) 1.2525(3) 0.23824(8)
H3 H 0.7291 1.3235 0.2397
C3 C 0.8812(2) 1.2472(3) 0.26351(8)
H4 H 0.8919 1.3150 0.2825
C4 C 0.9623(2) 1.1430(3) 0.26120(8)
H5 H 1.0276 1.1414 0.2788
C5 C 0.9504(2) 1.0417(3) 0.23393(7)
H6 H 1.0057 0.9706 0.2330
C6 C 0.8548(2) 1.0470(2) 0.20791(7)
C7 C 0.8850(2) 0.8532(2) 0.16287(7)
C8 C 0.8298(2) 0.7448(3) 0.14420(8)
H7 H 0.7467 0.7363 0.1440
C9 C 0.8984(2) 0.6503(3) 0.12609(8)
H8 H 0.8628 0.5789 0.1120
C10 C 1.0201(2) 0.6611(3) 0.12883(8)
H9 H 1.0695 0.5988 0.1164
C11 C 1.0664(2) 0.7653(3) 0.15023(8)
H10 H 1.1494 0.7688 0.1537
C12 C 0.4210(2) 0.9216(3) 0.09866(8)
C13 C 0.3011(2) 0.9125(3) 0.09033(9)
H11 H 0.2452 0.9270 0.1098
C14 C 0.2652(3) 0.8818(3) 0.05282(9)
H12 H 0.1837 0.8739 0.0467
C15 C 0.3469(3) 0.8624(3) 0.02389(9)
H13 H 0.3200 0.8452 -0.0018
C16 C 0.4672(3) 0.8678(3) 0.03209(8)
H14 H 0.5226 0.8521 0.0125
C17 C 0.5043(2) 0.8970(2) 0.06991(8)
C18 C 0.7242(2) 0.8974(3) 0.06584(7)
C19 C 0.8198(2) 0.9787(3) 0.07378(8)
H15 H 0.8156 1.0488 0.0922
C20 C 0.9218(3) 0.9550(3) 0.05402(8)
H16 H 0.9898 1.0075 0.0594
C21 C 0.9251(3) 0.8545(3) 0.02641(9)
H17 H 0.9942 0.8377 0.0123
C22 C 0.8249(3) 0.7801(3) 0.02021(8)
H18 H 0.8263 0.7119 0.0011
N7 N 0.19927(19) 0.0657(2) 0.18624(6)
H19 H 0.1414 0.0091 0.1816
N8 N 0.32318(18) 0.2461(2) 0.18340(6)
N9 N 0.50247(19) 0.3540(2) 0.16990(6)
N10 N -0.00895(18) 0.2375(2) 0.13903(6)
H20 H -0.0420 0.2002 0.1591
N11 N 0.12653(18) 0.3139(2) 0.09647(6)
N12 N 0.23507(19) 0.4686(2) 0.06000(6)
B3 B 0.2151(3) 0.1896(3) 0.16652(9)
B4 B 0.1158(3) 0.2476(3) 0.13362(9)
C23 C 0.2889(2) 0.0469(3) 0.21413(7)
C24 C 0.3070(2) -0.0560(3) 0.24089(7)
H21 H 0.2559 -0.1312 0.2415
C25 C 0.4027(2) -0.0450(3) 0.26670(8)
H22 H 0.4172 -0.1142 0.2850
C26 C 0.4770(2) 0.0656(3) 0.26601(7)
H23 H 0.5404 0.0711 0.2842
C27 C 0.4607(2) 0.1683(3) 0.23926(7)
H24 H 0.5119 0.2435 0.2390
C28 C 0.3664(2) 0.1574(2) 0.21271(7)
C29 C 0.3846(2) 0.3617(2) 0.17085(7)
C30 C 0.3221(2) 0.4749(2) 0.15822(7)
H25 H 0.2395 0.4803 0.1613
C31 C 0.3825(2) 0.5787(3) 0.14124(7)
H26 H 0.3414 0.6544 0.1312
C32 C 0.5049(2) 0.5711(3) 0.13895(8)
H27 H 0.5486 0.6401 0.1270
C33 C 0.5602(2) 0.4601(3) 0.15459(7)
H28 H 0.6436 0.4576 0.1547
C34 C -0.0699(2) 0.2954(2) 0.10782(7)
C35 C -0.1905(2) 0.3078(3) 0.10031(8)
H29 H -0.2460 0.2763 0.1183
C36 C -0.2273(2) 0.3676(3) 0.06581(8)
H30 H -0.3089 0.3775 0.0602
C37 C -0.1456(2) 0.4132(3) 0.03923(8)
H31 H -0.1727 0.4511 0.0155
C38 C -0.0253(2) 0.4041(3) 0.04692(8)
H32 H 0.0297 0.4382 0.0292
C39 C 0.0124(2) 0.3439(2) 0.08116(7)
C40 C 0.2323(2) 0.3497(3) 0.07789(7)
C41 C 0.3281(2) 0.2622(3) 0.08020(7)
H33 H 0.3216 0.1779 0.0927
C42 C 0.4326(2) 0.3014(3) 0.06389(8)
H34 H 0.4995 0.2444 0.0652
C43 C 0.4383(2) 0.4252(3) 0.04564(8)
H35 H 0.5092 0.4554 0.0346
C44 C 0.3381(2) 0.5030(3) 0.04399(8)
H36 H 0.3417 0.5862 0.0307
loop_
_geom_bond_atom_site_label_1
_geom_bond_atom_site_label_2
_geom_bond_site_symmetry_1
_geom_bond_site_symmetry_2
N1 H1 1_555 1_555
N2 B1 1_555 1_555
N3 C7 1_555 1_555
N4 H2 1_555 1_555
N5 B2 1_555 1_555
N6 C18 1_555 1_555
B1 N1 1_555 1_555
B2 N4 1_555 1_555
C1 N1 1_555 1_555
C2 C1 1_555 1_555
H3 C2 1_555 1_555
C3 C2 1_555 1_555
H4 C3 1_555 1_555
C4 C3 1_555 1_555
H5 C4 1_555 1_555
C5 C4 1_555 1_555
H6 C5 1_555 1_555
C6 N2 1_555 1_555
C7 N2 1_555 1_555
C8 C7 1_555 1_555
H7 C8 1_555 1_555
C9 C8 1_555 1_555
H8 C9 1_555 1_555
C10 C9 1_555 1_555
H9 C10 1_555 1_555
C11 N3 1_555 1_555
H10 C11 1_555 1_555
C12 N4 1_555 1_555
C13 C12 1_555 1_555
H11 C13 1_555 1_555
C14 C13 1_555 1_555
H12 C14 1_555 1_555
C15 C14 1_555 1_555
H13 C15 1_555 1_555
C16 C15 1_555 1_555
H14 C16 1_555 1_555
C17 N5 1_555 1_555
C18 N5 1_555 1_555
C19 C18 1_555 1_555
H15 C19 1_555 1_555
C20 C19 1_555 1_555
H16 C20 1_555 1_555
C21 C20 1_555 1_555
H17 C21 1_555 1_555
C22 N6 1_555 1_555
H18 C22 1_555 1_555
N7 H19 1_555 1_555
N8 B3 1_555 1_555
N9 C29 1_555 1_555
N10 H20 1_555 1_555
N11 B4 1_555 1_555
N12 C40 1_555 1_555
B3 N7 1_555 1_555
B4 N10 1_555 1_555
C23 N7 1_555 1_555
C24 C23 1_555 1_555
H21 C24 1_555 1_555
C25 C24 1_555 1_555
H22 C25 1_555 1_555
C26 C25 1_555 1_555
H23 C26 1_555 1_555
C27 C26 1_555 1_555
H24 C27 1_555 1_555
C28 N8 1_555 1_555
C29 N8 1_555 1_555
C30 C29 1_555 1_555
H25 C30 1_555 1_555
C31 C30 1_555 1_555
H26 C31 1_555 1_555
C32 C31 1_555 1_555
H27 C32 1_555 1_555
C33 N9 1_555 1_555
H28 C33 1_555 1_555
C34 N10 1_555 1_555
C35 C34 1_555 1_555
H29 C35 1_555 1_555
C36 C35 1_555 1_555
H30 C36 1_555 1_555
C37 C36 1_555 1_555
H31 C37 1_555 1_555
C38 C37 1_555 1_555
H32 C38 1_555 1_555
C39 N11 1_555 1_555
C40 N11 1_555 1_555
C41 C40 1_555 1_555
H33 C41 1_555 1_555
C42 C41 1_555 1_555
H34 C42 1_555 1_555
C43 C42 1_555 1_555
H35 C43 1_555 1_555
C44 N12 1_555 1_555
H36 C44 1_555 1_555
B1 B2 1_555 1_555
C1 C6 1_555 1_555
C5 C6 1_555 1_555
C10 C11 1_555 1_555
C12 C17 1_555 1_555
C16 C17 1_555 1_555
C21 C22 1_555 1_555
B3 B4 1_555 1_555
C23 C28 1_555 1_555
C27 C28 1_555 1_555
C32 C33 1_555 1_555
C34 C39 1_555 1_555
C38 C39 1_555 1_555
C43 C44 1_555 1_555

#END
