
#######################################################################
#
#                 Cambridge Crystallographic Data Centre
#                                CCDC 
#
#######################################################################
#
# If this CIF has been generated from an entry in the Cambridge 
# Structural Database, then it will include bibliographic, chemical, 
# crystal, experimental, refinement or atomic coordinate data resulting 
# from the CCDC's data processing and validation procedures.
#
#######################################################################

data_RUKXUS
_chemical_formula_moiety         'C26 H19 N5 O1 S1'
_chemical_name_systematic        
2-(1-Benzyl-3-phenyl-1H-pyrazol-5-yl)-5-(4-cyanobenzylthio)-1,3,4-oxadiazole
_symmetry_cell_setting           monoclinic
_symmetry_space_group_name_H-M   'P 21/c'
_symmetry_Int_Tables_number      14
_space_group_name_Hall           '-P 2ybc'
loop_
_symmetry_equiv_pos_site_id
_symmetry_equiv_pos_as_xyz
1 x,y,z
2 -x,1/2+y,1/2-z
3 -x,-y,-z
4 x,1/2-y,1/2+z
_cell_length_a                   16.784(4)
_cell_length_b                   11.527(2)
_cell_length_c                   12.257(3)
_cell_angle_alpha                90
_cell_angle_beta                 110.047(4)
_cell_angle_gamma                90
_cell_volume                     2227.68
_exptl_crystal_colour            colorless
_exptl_crystal_description       block
_cell_formula_units_Z            4
_exptl_crystal_recrystallization_method dichloromethane
loop_
_atom_site_label
_atom_site_type_symbol
_atom_site_fract_x
_atom_site_fract_y
_atom_site_fract_z
C1 C 0.68958(14) 0.81061(16) 0.57372(18)
C2 C 0.73471(16) 0.75434(19) 0.6767(2)
H1 H 0.7057 0.7160 0.7185
C3 C 0.82190(19) 0.7550(2) 0.7171(2)
H2 H 0.8513 0.7160 0.7855
C4 C 0.86607(18) 0.8122(3) 0.6582(3)
H3 H 0.9250 0.8141 0.6873
C5 C 0.82229(17) 0.8669(2) 0.5556(3)
H4 H 0.8518 0.9049 0.5143
C6 C 0.73490(16) 0.8660(2) 0.5133(2)
H5 H 0.7060 0.9028 0.4434
C7 C 0.59678(14) 0.81387(15) 0.53188(17)
C8 C 0.54061(13) 0.87458(16) 0.43849(16)
H6 H 0.5544 0.9215 0.3858
C9 C 0.46114(13) 0.85104(15) 0.44032(16)
C10 C 0.38013(14) 0.88832(16) 0.36262(16)
C11 C 0.29732(15) 0.97115(17) 0.21241(18)
C12 C 0.40786(15) 0.73228(16) 0.57666(18)
H7 H 0.4285 0.6600 0.6171
H8 H 0.3565 0.7153 0.5120
C13 C 0.38697(15) 0.81468(17) 0.65824(18)
C14 C 0.30415(19) 0.8410(2) 0.6434(2)
H9 H 0.2606 0.8092 0.5814
C15 C 0.2850(3) 0.9147(3) 0.7202(3)
H10 H 0.2287 0.9320 0.7096
C16 C 0.3476(4) 0.9615(3) 0.8106(3)
H11 H 0.3342 1.0100 0.8625
C17 C 0.4311(3) 0.9377(2) 0.8261(2)
H12 H 0.4741 0.9711 0.8875
C18 C 0.45104(19) 0.8638(2) 0.7500(2)
H13 H 0.5074 0.8473 0.7607
C19 C 0.15880(17) 1.0395(2) 0.0371(2)
H14 H 0.1396 1.0629 0.0999
H15 H 0.1349 1.0936 -0.0264
C20 C 0.12419(15) 0.9202(2) -0.0031(2)
C21 C 0.14354(19) 0.8622(3) -0.0903(2)
H16 H 0.1803 0.8962 -0.1231
C22 C 0.1089(2) 0.7551(3) -0.1286(3)
H17 H 0.1228 0.7168 -0.1865
C23 C 0.05462(18) 0.7051(3) -0.0819(3)
C24 C 0.03637(19) 0.7605(3) 0.0055(3)
H18 H 0.0000 0.7258 0.0385
C25 C 0.07119(17) 0.8667(3) 0.0447(2)
H19 H 0.0586 0.9030 0.1046
C26 C 0.0143(2) 0.5954(4) -0.1247(4)
N1 N 0.55383(12) 0.75506(14) 0.58873(15)
N2 N 0.47163(12) 0.77841(13) 0.53174(14)
N3 N 0.30451(12) 0.86886(15) 0.36219(15)
N4 N 0.24893(12) 0.92378(16) 0.26207(16)
N5 N -0.0203(2) 0.5123(3) -0.1613(4)
O1 O 0.38117(9) 0.95383(10) 0.26987(11)
S1 S 0.27309(4) 1.05174(5) 0.08638(6)
loop_
_geom_bond_atom_site_label_1
_geom_bond_atom_site_label_2
_geom_bond_site_symmetry_1
_geom_bond_site_symmetry_2
C1 C2 1_555 1_555
C2 H1 1_555 1_555
C3 C2 1_555 1_555
H2 C3 1_555 1_555
C4 C3 1_555 1_555
H3 C4 1_555 1_555
C5 C4 1_555 1_555
H4 C5 1_555 1_555
C6 C1 1_555 1_555
H5 C6 1_555 1_555
C7 C1 1_555 1_555
C8 C7 1_555 1_555
H6 C8 1_555 1_555
C9 C8 1_555 1_555
C10 C9 1_555 1_555
C11 N4 1_555 1_555
C12 H7 1_555 1_555
H8 C12 1_555 1_555
C13 C12 1_555 1_555
C14 C13 1_555 1_555
H9 C14 1_555 1_555
C15 C14 1_555 1_555
H10 C15 1_555 1_555
C16 C15 1_555 1_555
H11 C16 1_555 1_555
C17 C16 1_555 1_555
H12 C17 1_555 1_555
C18 C13 1_555 1_555
H13 C18 1_555 1_555
C19 H14 1_555 1_555
H15 C19 1_555 1_555
C20 C19 1_555 1_555
C21 C20 1_555 1_555
H16 C21 1_555 1_555
C22 C21 1_555 1_555
H17 C22 1_555 1_555
C23 C22 1_555 1_555
C24 C23 1_555 1_555
H18 C24 1_555 1_555
C25 C20 1_555 1_555
H19 C25 1_555 1_555
C26 C23 1_555 1_555
N1 C7 1_555 1_555
N2 C9 1_555 1_555
N3 C10 1_555 1_555
N4 N3 1_555 1_555
N5 C26 1_555 1_555
O1 C10 1_555 1_555
S1 C11 1_555 1_555
C5 C6 1_555 1_555
C11 O1 1_555 1_555
C12 N2 1_555 1_555
C17 C18 1_555 1_555
C19 S1 1_555 1_555
C24 C25 1_555 1_555
N1 N2 1_555 1_555

#END
