
#######################################################################
#
#                 Cambridge Crystallographic Data Centre
#                                CCDC 
#
#######################################################################
#
# If this CIF has been generated from an entry in the Cambridge 
# Structural Database, then it will include bibliographic, chemical, 
# crystal, experimental, refinement or atomic coordinate data resulting 
# from the CCDC's data processing and validation procedures.
#
#######################################################################

data_RUKYAZ
_chemical_formula_moiety         'C25 H19 F1 N4 O1 S1'
_chemical_name_systematic        
2-(1-Benzyl-3-phenyl-1H-pyrazol-5-yl)-5-(4-fluorobenzylthio)-1,3,4-oxadiazole
_symmetry_cell_setting           monoclinic
_symmetry_space_group_name_H-M   'P 21/c'
_symmetry_Int_Tables_number      14
_space_group_name_Hall           '-P 2ybc'
loop_
_symmetry_equiv_pos_site_id
_symmetry_equiv_pos_as_xyz
1 x,y,z
2 -x,1/2+y,1/2-z
3 -x,-y,-z
4 x,1/2-y,1/2+z
_cell_length_a                   16.681(15)
_cell_length_b                   11.406(10)
_cell_length_c                   12.404(12)
_cell_angle_alpha                90
_cell_angle_beta                 110.890(15)
_cell_angle_gamma                90
_cell_volume                     2204.9
_exptl_crystal_colour            colorless
_exptl_crystal_description       block
_cell_formula_units_Z            4
_exptl_crystal_recrystallization_method dichloromethane/ethanol
loop_
_atom_site_label
_atom_site_type_symbol
_atom_site_fract_x
_atom_site_fract_y
_atom_site_fract_z
C1 C -0.20346(14) 0.19284(18) -0.08119(19)
C2 C -0.24984(16) 0.2509(2) -0.1824(2)
H1 H -0.2210 0.2902 -0.2233
C3 C -0.33836(19) 0.2512(3) -0.2231(3)
H2 H -0.3688 0.2921 -0.2900
C4 C -0.38145(19) 0.1913(3) -0.1650(3)
H3 H -0.4411 0.1894 -0.1939
C5 C -0.33671(19) 0.1340(3) -0.0640(3)
H4 H -0.3662 0.0949 -0.0238
C6 C -0.24776(16) 0.1343(2) -0.0217(2)
H5 H -0.2177 0.0952 0.0466
C7 C -0.10910(13) 0.18815(16) -0.03936(18)
C8 C -0.05209(13) 0.12609(16) 0.05461(17)
H6 H -0.0658 0.0792 0.1069
C9 C 0.02808(13) 0.14938(15) 0.05289(17)
C10 C 0.11050(14) 0.11188(16) 0.13178(17)
C11 C 0.19515(15) 0.02722(18) 0.28166(19)
C12 C 0.08167(14) 0.26960(17) -0.08106(19)
H7 H 0.1337 0.2865 -0.0161
H8 H 0.0608 0.3429 -0.1209
C13 C 0.10287(14) 0.18754(16) -0.16197(17)
C14 C 0.18664(16) 0.1596(2) -0.1447(2)
H9 H 0.2308 0.1900 -0.0816
C15 C 0.2055(2) 0.0856(3) -0.2219(3)
H10 H 0.2623 0.0672 -0.2105
C16 C 0.1403(3) 0.0398(2) -0.3151(3)
H11 H 0.1528 -0.0099 -0.3664
C17 C 0.0569(2) 0.0675(2) -0.3318(2)
H12 H 0.0128 0.0367 -0.3946
C18 C 0.03824(16) 0.14050(19) -0.25646(19)
H13 H -0.0187 0.1588 -0.2688
C19 C 0.33598(17) -0.0417(3) 0.4587(3)
H14 H 0.3602 -0.0978 0.5207
H15 H 0.3562 -0.0624 0.3970
C20 C 0.36904(16) 0.0781(3) 0.5023(2)
C21 C 0.42144(18) 0.1375(4) 0.4579(3)
H16 H 0.4355 0.1036 0.3988
C22 C 0.4537(2) 0.2459(4) 0.4985(4)
H17 H 0.4893 0.2855 0.4677
C23 C 0.4324(2) 0.2946(4) 0.5850(5)
C24 C 0.3797(2) 0.2405(4) 0.6301(3)
H18 H 0.3645 0.2763 0.6874
C25 C 0.34929(19) 0.1321(4) 0.5897(3)
H19 H 0.3142 0.0931 0.6218
F1 F 0.46645(14) 0.4043(2) 0.6279(3)
N1 N -0.06601(11) 0.24702(14) -0.09512(15)
N2 N 0.01750(11) 0.22302(13) -0.03777(14)
N3 N 0.18696(12) 0.13200(16) 0.13301(15)
N4 N 0.24368(12) 0.07570(17) 0.23356(17)
O1 O 0.11027(9) 0.04604(11) 0.22370(12)
S1 S 0.22049(4) -0.05563(6) 0.40586(6)
loop_
_geom_bond_atom_site_label_1
_geom_bond_atom_site_label_2
_geom_bond_site_symmetry_1
_geom_bond_site_symmetry_2
C1 C2 1_555 1_555
C2 H1 1_555 1_555
C3 C2 1_555 1_555
H2 C3 1_555 1_555
C4 C3 1_555 1_555
H3 C4 1_555 1_555
C5 C4 1_555 1_555
H4 C5 1_555 1_555
C6 C1 1_555 1_555
H5 C6 1_555 1_555
C7 C1 1_555 1_555
C8 C7 1_555 1_555
H6 C8 1_555 1_555
C9 C8 1_555 1_555
C10 C9 1_555 1_555
C11 N4 1_555 1_555
C12 H7 1_555 1_555
H8 C12 1_555 1_555
C13 C12 1_555 1_555
C14 C13 1_555 1_555
H9 C14 1_555 1_555
C15 C14 1_555 1_555
H10 C15 1_555 1_555
C16 C15 1_555 1_555
H11 C16 1_555 1_555
C17 C16 1_555 1_555
H12 C17 1_555 1_555
C18 C13 1_555 1_555
H13 C18 1_555 1_555
C19 H14 1_555 1_555
H15 C19 1_555 1_555
C20 C19 1_555 1_555
C21 C20 1_555 1_555
H16 C21 1_555 1_555
C22 C21 1_555 1_555
H17 C22 1_555 1_555
C23 C22 1_555 1_555
C24 C23 1_555 1_555
H18 C24 1_555 1_555
C25 C20 1_555 1_555
H19 C25 1_555 1_555
F1 C23 1_555 1_555
N1 C7 1_555 1_555
N2 C9 1_555 1_555
N3 C10 1_555 1_555
N4 N3 1_555 1_555
O1 C10 1_555 1_555
S1 C11 1_555 1_555
C5 C6 1_555 1_555
C11 O1 1_555 1_555
C12 N2 1_555 1_555
C17 C18 1_555 1_555
C19 S1 1_555 1_555
C24 C25 1_555 1_555
N1 N2 1_555 1_555

#END
