
#######################################################################
#
#                 Cambridge Crystallographic Data Centre
#                                CCDC 
#
#######################################################################
#
# If this CIF has been generated from an entry in the Cambridge 
# Structural Database, then it will include bibliographic, chemical, 
# crystal, experimental, refinement or atomic coordinate data resulting 
# from the CCDC's data processing and validation procedures.
#
#######################################################################

data_RUKZEC
_chemical_formula_moiety         'C16 H14 B1 N1'
_chemical_name_systematic        N-(Borabenzene)-4-phenylpyridine
_symmetry_cell_setting           monoclinic
_symmetry_space_group_name_H-M   'P 21/c'
_symmetry_Int_Tables_number      14
_space_group_name_Hall           '-P 2ybc'
loop_
_symmetry_equiv_pos_site_id
_symmetry_equiv_pos_as_xyz
1 x,y,z
2 -x,1/2+y,1/2-z
3 -x,-y,-z
4 x,1/2-y,1/2+z
_cell_length_a                   7.04920(10)
_cell_length_b                   16.4895(6)
_cell_length_c                   10.4136(4)
_cell_angle_alpha                90
_cell_angle_beta                 95.672(2)
_cell_angle_gamma                90
_cell_volume                     1204.53
_exptl_crystal_colour            orange
_exptl_crystal_description       plate
_cell_formula_units_Z            4
loop_
_atom_site_label
_atom_site_type_symbol
_atom_site_fract_x
_atom_site_fract_y
_atom_site_fract_z
N1 N 0.1125(3) 0.4539(1) 0.2816(2)
C1 C -0.0852(3) 0.3958(2) 0.4623(2)
C2 C -0.2338(3) 0.3470(2) 0.4953(2)
C3 C -0.3496(4) 0.3036(2) 0.4022(3)
C4 C -0.3209(3) 0.3079(2) 0.2717(3)
C5 C -0.1802(3) 0.3555(2) 0.2270(3)
C6 C 0.2904(3) 0.4468(2) 0.3435(2)
C7 C 0.4401(4) 0.4920(2) 0.3094(2)
C8 C 0.4137(3) 0.5471(1) 0.2083(2)
C9 C 0.2301(3) 0.5532(2) 0.1449(2)
C10 C 0.0854(4) 0.5071(2) 0.1825(2)
C11 C 0.5704(3) 0.5978(2) 0.1677(2)
C12 C 0.7000(3) 0.6354(2) 0.2609(3)
C13 C 0.8424(4) 0.6850(2) 0.2238(3)
C14 C 0.8631(3) 0.6976(2) 0.0946(3)
C15 C 0.7375(3) 0.6596(2) 0.0012(3)
C16 C 0.5925(3) 0.6107(2) 0.0377(2)
B1 B -0.0536(4) 0.4017(2) 0.3238(3)
H1 H -0.4531(38) 0.2703(17) 0.4293(26)
H2 H 0.9690(37) 0.7349(16) 0.0671(25)
H3 H -0.2602(32) 0.3418(15) 0.5893(25)
H4 H 0.3022(35) 0.4064(16) 0.4136(25)
H5 H 0.7545(35) 0.6675(16) -0.0913(27)
H6 H 0.5051(36) 0.5846(16) -0.0279(25)
H7 H -0.0086(39) 0.4266(18) 0.5316(27)
H8 H 0.9292(37) 0.7142(16) 0.2917(27)
H9 H 0.5589(36) 0.4855(15) 0.3499(24)
H10 H -0.1613(39) 0.3558(17) 0.1327(28)
H11 H 0.2103(35) 0.5907(16) 0.0793(25)
H12 H 0.6809(37) 0.6284(16) 0.3520(27)
H13 H -0.0480(38) 0.5113(16) 0.1417(25)
H14 H -0.4088(39) 0.2752(17) 0.2097(28)
loop_
_geom_bond_atom_site_label_1
_geom_bond_atom_site_label_2
_geom_bond_site_symmetry_1
_geom_bond_site_symmetry_2
N1 C6 1_555 1_555
C1 C2 1_555 1_555
C2 C3 1_555 1_555
C3 C4 1_555 1_555
C4 C5 1_555 1_555
C5 B1 1_555 1_555
C6 C7 1_555 1_555
C7 C8 1_555 1_555
C8 C9 1_555 1_555
C9 C10 1_555 1_555
C10 N1 1_555 1_555
C11 C8 1_555 1_555
C12 C11 1_555 1_555
C13 C12 1_555 1_555
C14 C13 1_555 1_555
C15 C14 1_555 1_555
C16 C11 1_555 1_555
B1 N1 1_555 1_555
H1 C3 1_555 1_555
H2 C14 1_555 1_555
H3 C2 1_555 1_555
H4 C6 1_555 1_555
H5 C15 1_555 1_555
H6 C16 1_555 1_555
H7 C1 1_555 1_555
H8 C13 1_555 1_555
H9 C7 1_555 1_555
H10 C5 1_555 1_555
H11 C9 1_555 1_555
H12 C12 1_555 1_555
H13 C10 1_555 1_555
H14 C4 1_555 1_555
C1 B1 1_555 1_555
C15 C16 1_555 1_555

#END
