
#######################################################################
#
#                 Cambridge Crystallographic Data Centre
#                                CCDC 
#
#######################################################################
#
# If this CIF has been generated from an entry in the Cambridge 
# Structural Database, then it will include bibliographic, chemical, 
# crystal, experimental, refinement or atomic coordinate data resulting 
# from the CCDC's data processing and validation procedures.
#
#######################################################################

data_RULHUD
_chemical_formula_moiety         'C12 H13 N1 O4'
_chemical_name_systematic        
7,8-dimethoxy-3-(methylamino)-2H-chromen-2-one
_symmetry_cell_setting           monoclinic
_symmetry_space_group_name_H-M   'C 2/c'
_symmetry_Int_Tables_number      15
_space_group_name_Hall           '-C 2yn'
loop_
_symmetry_equiv_pos_site_id
_symmetry_equiv_pos_as_xyz
1 x,y,z
2 -x,y,1/2-z
3 1/2+x,1/2+y,z
4 1/2-x,1/2+y,1/2-z
5 -x,-y,-z
6 x,-y,1/2+z
7 1/2-x,1/2-y,-z
8 1/2+x,1/2-y,1/2+z
_cell_length_a                   23.444(5)
_cell_length_b                   6.9509(14)
_cell_length_c                   17.543(4)
_cell_angle_alpha                90
_cell_angle_beta                 127.51(3)
_cell_angle_gamma                90
_cell_volume                     2267.7
_exptl_crystal_colour            colorless
_exptl_crystal_description       Prism
_cell_formula_units_Z            8
loop_
_atom_site_label
_atom_site_type_symbol
_atom_site_fract_x
_atom_site_fract_y
_atom_site_fract_z
O1 O 0.19782(6) 0.46545(15) 0.35113(8)
O2 O 0.31694(6) 0.49410(15) 0.36108(7)
O3 O 0.44568(6) 0.56502(16) 0.52883(8)
O4 O 0.08128(7) 0.4207(2) 0.25767(9)
N1 N 0.07191(8) 0.4295(2) 0.40419(11)
H1 H 0.0346 0.4143 0.3455
C1 C 0.38859(9) 0.54929(19) 0.53099(11)
C2 C 0.26216(8) 0.49778(19) 0.43978(10)
C3 C 0.26543(9) 0.50858(19) 0.52202(11)
C4 C 0.32229(9) 0.5171(2) 0.44304(10)
C5 C 0.33275(9) 0.5418(2) 0.60858(11)
H2 H 0.3369 0.5509 0.6646
C6 C 0.13700(9) 0.4534(2) 0.42396(12)
C7 C 0.39322(9) 0.5615(2) 0.61399(11)
H3 H 0.4375 0.5832 0.6731
C8 C 0.20020(9) 0.4833(2) 0.51083(12)
H4 H 0.2015 0.4876 0.5648
C9 C 0.13506(9) 0.4450(2) 0.33881(12)
C10 C 0.51572(10) 0.5780(3) 0.61827(12)
H5 H 0.5509 0.5844 0.6069
H6 H 0.5247 0.4666 0.6565
H7 H 0.5188 0.6916 0.6517
C11 C 0.06337(11) 0.4287(3) 0.47859(15)
H8 H 0.0145 0.3972 0.4514
H9 H 0.0748 0.5537 0.5078
H10 H 0.0950 0.3348 0.5263
C12 C 0.29736(14) 0.6608(3) 0.30446(14)
H11 H 0.2960 0.6325 0.2498
H12 H 0.3320 0.7605 0.3420
H13 H 0.2507 0.7031 0.2829
loop_
_geom_bond_atom_site_label_1
_geom_bond_atom_site_label_2
_geom_bond_site_symmetry_1
_geom_bond_site_symmetry_2
O1 C2 1_555 1_555
O2 C4 1_555 1_555
O3 C1 1_555 1_555
O4 C9 1_555 1_555
N1 H1 1_555 1_555
C1 C4 1_555 1_555
C2 C3 1_555 1_555
C3 C5 1_555 1_555
C4 C2 1_555 1_555
C5 H2 1_555 1_555
C6 N1 1_555 1_555
C7 C1 1_555 1_555
H3 C7 1_555 1_555
C8 C3 1_555 1_555
H4 C8 1_555 1_555
C9 O1 1_555 1_555
C10 O3 1_555 1_555
H5 C10 1_555 1_555
H6 C10 1_555 1_555
H7 C10 1_555 1_555
C11 N1 1_555 1_555
H8 C11 1_555 1_555
H9 C11 1_555 1_555
H10 C11 1_555 1_555
C12 O2 1_555 1_555
H11 C12 1_555 1_555
H12 C12 1_555 1_555
H13 C12 1_555 1_555
C5 C7 1_555 1_555
C6 C8 1_555 1_555
C6 C9 1_555 1_555

#END
