
#######################################################################
#
#                 Cambridge Crystallographic Data Centre
#                                CCDC 
#
#######################################################################
#
# If this CIF has been generated from an entry in the Cambridge 
# Structural Database, then it will include bibliographic, chemical, 
# crystal, experimental, refinement or atomic coordinate data resulting 
# from the CCDC's data processing and validation procedures.
#
#######################################################################

data_RULHIR
_chemical_name_common            
(4aS$*!,8aS$*!)-ethyl-4a-hydroxy-7-oxo-4a,7,8,8a-tetrahydro-4
_chemical_formula_moiety         'C11 H13 N1 O5'
_chemical_name_systematic        
'ethyl 4a-hydroxy-7-oxo-4a,7,8,8a-tetrahydro-4H-1,2-benzoxazine-3-carboxylate'
_symmetry_cell_setting           monoclinic
_symmetry_space_group_name_H-M   'P 21/c'
_symmetry_Int_Tables_number      14
_space_group_name_Hall           '-P 2ybc'
loop_
_symmetry_equiv_pos_site_id
_symmetry_equiv_pos_as_xyz
1 x,y,z
2 -x,1/2+y,1/2-z
3 -x,-y,-z
4 x,1/2-y,1/2+z
_cell_length_a                   11.542(6)
_cell_length_b                   9.880(3)
_cell_length_c                   9.996(3)
_cell_angle_alpha                90
_cell_angle_beta                 104.510(5)
_cell_angle_gamma                90
_cell_volume                     1103.54
_exptl_crystal_colour            colorless
_exptl_crystal_description       platelet
_cell_formula_units_Z            4
_exptl_crystal_recrystallization_method n-hexane/dichloromethane
loop_
_atom_site_label
_atom_site_type_symbol
_atom_site_fract_x
_atom_site_fract_y
_atom_site_fract_z
O1 O 0.10038(8) 0.86212(10) 0.08593(9)
N1 N -0.02375(10) 0.86190(11) 0.06732(11)
O2 O 0.11301(10) 1.12472(10) 0.23109(10)
O3 O -0.25562(9) 0.85888(10) 0.00833(10)
C1 C -0.06849(12) 0.89954(13) 0.16631(13)
C2 C -0.20258(12) 0.89640(14) 0.13685(14)
O4 O 0.34889(10) 0.69810(12) 0.51490(11)
C3 C 0.12302(12) 0.99672(13) 0.29863(13)
O5 O -0.25333(9) 0.92619(11) 0.22445(11)
C4 C 0.17698(12) 0.88988(14) 0.22259(13)
C5 C -0.00135(13) 0.94793(14) 0.30627(13)
C6 C 0.27865(13) 0.92250(15) 0.50768(14)
C7 C 0.28497(12) 0.78621(15) 0.45000(14)
C8 C 0.20390(13) 1.01686(15) 0.44076(14)
C9 C 0.20475(13) 0.76018(14) 0.30664(14)
C10 C -0.38654(13) 0.85393(18) -0.02439(16)
C11 C -0.43026(16) 0.8196(2) -0.17391(18)
H1 H 0.2014(19) 1.102(2) 0.483(2)
H2 H -0.0431(19) 1.021(2) 0.338(2)
H3 H 0.2420(19) 0.695(2) 0.259(2)
H4 H 0.2501(19) 0.926(2) 0.200(2)
H5 H 0.0037(19) 0.875(2) 0.373(2)
H6 H 0.130(2) 0.722(2) 0.319(2)
H7 H 0.328(2) 0.940(2) 0.597(2)
H8 H -0.517(2) 0.816(3) -0.198(2)
H9 H -0.4090(19) 0.786(2) 0.033(2)
H10 H -0.4132(19) 0.941(2) -0.001(2)
H11 H 0.102(2) 1.117(2) 0.141(3)
H12 H -0.409(2) 0.892(3) -0.233(3)
H13 H -0.397(2) 0.727(3) -0.196(2)
loop_
_geom_bond_atom_site_label_1
_geom_bond_atom_site_label_2
_geom_bond_site_symmetry_1
_geom_bond_site_symmetry_2
O1 N1 1_555 1_555
N1 C1 1_555 1_555
O2 C3 1_555 1_555
O3 C2 1_555 1_555
C1 C2 1_555 1_555
C2 O5 1_555 1_555
O4 C7 1_555 1_555
C3 C4 1_555 1_555
C4 O1 1_555 1_555
C5 C1 1_555 1_555
C6 C7 1_555 1_555
C7 C9 1_555 1_555
C8 C3 1_555 1_555
C9 C4 1_555 1_555
C10 O3 1_555 1_555
C11 C10 1_555 1_555
H1 C8 1_555 1_555
H2 C5 1_555 1_555
H3 C9 1_555 1_555
H4 C4 1_555 1_555
H5 C5 1_555 1_555
H6 C9 1_555 1_555
H7 C6 1_555 1_555
H8 C11 1_555 1_555
H9 C10 1_555 1_555
H10 C10 1_555 1_555
H11 O2 1_555 1_555
H12 C11 1_555 1_555
H13 C11 1_555 1_555
C3 C5 1_555 1_555
C6 C8 1_555 1_555

#END
