
#######################################################################
#
#                 Cambridge Crystallographic Data Centre
#                                CCDC 
#
#######################################################################
#
# If this CIF has been generated from an entry in the Cambridge 
# Structural Database, then it will include bibliographic, chemical, 
# crystal, experimental, refinement or atomic coordinate data resulting 
# from the CCDC's data processing and validation procedures.
#
#######################################################################

data_RULNAP
_chemical_formula_moiety         'C22 H20 N2 O4 S2'
_chemical_name_systematic        
N-(methyl(oxido)phenyl-\l^6^-sulfanylidene)-N'-((4-methylphenyl)sulfonyl)-2-oxo-2-phenylethanimidamide
_symmetry_cell_setting           triclinic
_symmetry_space_group_name_H-M   'P -1'
_symmetry_Int_Tables_number      2
_space_group_name_Hall           '-P 1'
loop_
_symmetry_equiv_pos_site_id
_symmetry_equiv_pos_as_xyz
1 x,y,z
2 -x,-y,-z
_cell_length_a                   9.0038(2)
_cell_length_b                   10.6600(2)
_cell_length_c                   11.8108(3)
_cell_angle_alpha                75.2664(11)
_cell_angle_beta                 76.0323(11)
_cell_angle_gamma                75.5364(11)
_cell_volume                     1042.26
_exptl_crystal_colour            colorless
_exptl_crystal_description       block
_cell_formula_units_Z            2
loop_
_atom_site_label
_atom_site_type_symbol
_atom_site_fract_x
_atom_site_fract_y
_atom_site_fract_z
C1 C 0.4134(8) 0.1825(7) 0.2363(5)
H1 H 0.3301 0.2056 0.1925
H2 H 0.4567 0.0894 0.2446
H3 H 0.4933 0.2316 0.1943
C2 C 0.3516(6) 0.2147(5) 0.3568(5)
C3 C 0.2066(7) 0.2926(7) 0.3811(5)
H4 H 0.1477 0.3252 0.3213
C4 C 0.1448(7) 0.3246(6) 0.4924(5)
H5 H 0.047 0.3796 0.5054
C5 C 0.2282(5) 0.2750(4) 0.5839(4)
C6 C 0.3774(6) 0.1975(6) 0.5592(5)
H6 H 0.4376 0.1649 0.6181
C7 C 0.4348(7) 0.1694(6) 0.4479(5)
H7 H 0.5343 0.1175 0.4332
C8 C 0.3191(5) 0.2552(4) 0.8787(4)
C9 C 0.2394(6) 0.1456(5) 0.9623(4)
C10 C 0.0978(5) 0.1854(4) 1.0486(4)
C11 C 0.0494(6) 0.3139(5) 1.0656(4)
H8 H 0.1071 0.3778 1.0229
C12 C -0.0871(6) 0.3471(5) 1.1476(5)
H9 H -0.1189 0.4327 1.1614
C13 C -0.1739(6) 0.2529(6) 1.2075(5)
H10 H -0.2673 0.2755 1.2593
C14 C -0.1224(6) 0.1247(5) 1.1906(5)
H11 H -0.1811 0.0612 1.2326
C15 C 0.0116(6) 0.0889(5) 1.1145(4)
H12 H 0.0461 0.0014 1.1059
C16 C 0.6937(6) 0.3335(6) 0.9302(5)
H13 H 0.7787 0.3749 0.8843
H14 H 0.7311 0.2398 0.9521
H15 H 0.6506 0.369 1.0009
C17 C 0.6464(5) 0.3013(5) 0.7160(4)
C18 C 0.6613(7) 0.3872(6) 0.6046(5)
H16 H 0.6188 0.4773 0.5958
C19 C 0.7419(7) 0.3321(8) 0.5083(5)
H17 H 0.7536 0.3865 0.4328
C20 C 0.8049(7) 0.2013(8) 0.5198(7)
H18 H 0.8593 0.1682 0.4524
C21 C 0.7897(7) 0.1158(7) 0.6300(5)
H19 H 0.8334 0.0261 0.6367
C22 C 0.7093(6) 0.1650(6) 0.7293(5)
H20 H 0.6968 0.109 0.8039
N1 N 0.2884(4) 0.3225(4) 0.7756(3)
N2 N 0.4368(5) 0.2719(4) 0.9246(3)
O1 O 0.0352(4) 0.4302(3) 0.7119(3)
O2 O 0.0759(4) 0.1927(3) 0.7945(3)
O3 O 0.4908(4) 0.5042(4) 0.8132(3)
O4 O 0.3030(4) 0.0317(4) 0.9560(4)
S1 S 0.14088(13) 0.30513(12) 0.72604(10)
S2 S 0.54949(14) 0.36427(13) 0.84533(11)
loop_
_geom_bond_atom_site_label_1
_geom_bond_atom_site_label_2
_geom_bond_site_symmetry_1
_geom_bond_site_symmetry_2
C1 H1 1_555 1_555
H2 C1 1_555 1_555
H3 C1 1_555 1_555
C2 C1 1_555 1_555
C3 C2 1_555 1_555
H4 C3 1_555 1_555
C4 C3 1_555 1_555
H5 C4 1_555 1_555
C5 C4 1_555 1_555
C6 C5 1_555 1_555
H6 C6 1_555 1_555
C7 C2 1_555 1_555
H7 C7 1_555 1_555
C8 C9 1_555 1_555
C9 C10 1_555 1_555
C10 C11 1_555 1_555
C11 H8 1_555 1_555
C12 C11 1_555 1_555
H9 C12 1_555 1_555
C13 C12 1_555 1_555
H10 C13 1_555 1_555
C14 C13 1_555 1_555
H11 C14 1_555 1_555
C15 C10 1_555 1_555
H12 C15 1_555 1_555
C16 H13 1_555 1_555
H14 C16 1_555 1_555
H15 C16 1_555 1_555
C17 C18 1_555 1_555
C18 H16 1_555 1_555
C19 C18 1_555 1_555
H17 C19 1_555 1_555
C20 C19 1_555 1_555
H18 C20 1_555 1_555
C21 C20 1_555 1_555
H19 C21 1_555 1_555
C22 C17 1_555 1_555
H20 C22 1_555 1_555
N1 C8 1_555 1_555
N2 C8 1_555 1_555
O1 S1 1_555 1_555
O2 S1 1_555 1_555
O3 S2 1_555 1_555
O4 C9 1_555 1_555
S1 C5 1_555 1_555
S2 C16 1_555 1_555
C6 C7 1_555 1_555
C14 C15 1_555 1_555
C17 S2 1_555 1_555
C21 C22 1_555 1_555
N1 S1 1_555 1_555
N2 S2 1_555 1_555

#END
