
#######################################################################
#
#                 Cambridge Crystallographic Data Centre
#                                CCDC 
#
#######################################################################
#
# If this CIF has been generated from an entry in the Cambridge 
# Structural Database, then it will include bibliographic, chemical, 
# crystal, experimental, refinement or atomic coordinate data resulting 
# from the CCDC's data processing and validation procedures.
#
#######################################################################

data_RULPAP
_chemical_formula_moiety         'C25 H30 N4 O2'
_chemical_name_systematic        
N,N'-bis(2-Cyanoethyl)-3,4:9,10-dibenzo-1,12-diaza-5,8-dioxacyclopentadecane
_symmetry_cell_setting           orthorhombic
_symmetry_space_group_name_H-M   'P b c a'
_symmetry_Int_Tables_number      61
_space_group_name_Hall           '-P 2ac 2ab'
loop_
_symmetry_equiv_pos_site_id
_symmetry_equiv_pos_as_xyz
1 x,y,z
2 1/2-x,-y,1/2+z
3 1/2+x,1/2-y,-z
4 -x,1/2+y,1/2-z
5 -x,-y,-z
6 1/2+x,y,1/2-z
7 1/2-x,1/2+y,z
8 x,1/2-y,1/2+z
_cell_length_a                   18.143(3)
_cell_length_b                   11.206(2)
_cell_length_c                   22.274(5)
_cell_angle_alpha                90
_cell_angle_beta                 90
_cell_angle_gamma                90
_cell_volume                     4528.54
_exptl_crystal_colour            colorless
_cell_formula_units_Z            8
loop_
_atom_site_label
_atom_site_type_symbol
_atom_site_fract_x
_atom_site_fract_y
_atom_site_fract_z
O1 O 0.4649(2) 0.3389(2) 0.1553(1)
O2 O 0.4878(1) 0.5265(2) 0.0704(1)
N1 N 0.3759(2) 0.4597(3) 0.2577(1)
N2 N 0.3485(2) 0.7352(3) 0.1206(1)
N3 N 0.1903(3) 0.2945(5) 0.3822(2)
N4 N 0.2725(3) 0.9642(4) 0.0085(3)
C1 C 0.4359(2) 0.2397(3) 0.1820(2)
C2 C 0.4243(2) 0.1325(4) 0.1527(2)
C3 C 0.3980(2) 0.0350(4) 0.1846(2)
C4 C 0.3825(2) 0.0452(4) 0.2451(2)
C5 C 0.3926(2) 0.1536(4) 0.2733(2)
C6 C 0.4187(2) 0.2530(3) 0.2436(2)
C7 C 0.4311(2) 0.3697(4) 0.2749(2)
C8 C 0.3987(3) 0.5822(3) 0.2697(2)
C9 C 0.3604(3) 0.6740(4) 0.2296(2)
C10 C 0.3758(3) 0.6456(4) 0.1643(2)
C11 C 0.3799(2) 0.7062(4) 0.0610(2)
C12 C 0.4619(2) 0.7306(4) 0.0570(2)
C13 C 0.4864(3) 0.8457(4) 0.0473(2)
C14 C 0.5606(3) 0.8716(4) 0.0391(2)
C15 C 0.6112(3) 0.7799(4) 0.0408(2)
C16 C 0.5890(2) 0.6639(4) 0.0518(2)
C17 C 0.5144(2) 0.6391(4) 0.0602(2)
C18 C 0.5400(2) 0.4351(3) 0.0838(2)
C19 C 0.4997(2) 0.3233(4) 0.0979(2)
C20 C 0.3023(3) 0.4316(4) 0.2780(2)
C21 C 0.2888(3) 0.4456(4) 0.3471(2)
C22 C 0.2332(3) 0.3626(5) 0.3677(2)
C23 C 0.2676(2) 0.7361(4) 0.1165(2)
C24 C 0.2357(3) 0.8593(4) 0.1069(2)
C25 C 0.2571(3) 0.9177(5) 0.0511
loop_
_geom_bond_atom_site_label_1
_geom_bond_atom_site_label_2
_geom_bond_site_symmetry_1
_geom_bond_site_symmetry_2
O1 C1 1_555 1_555
O2 C17 1_555 1_555
N1 C7 1_555 1_555
N2 C10 1_555 1_555
N3 C22 1_555 1_555
N4 C25 1_555 1_555
C1 C2 1_555 1_555
C2 C3 1_555 1_555
C3 C4 1_555 1_555
C4 C5 1_555 1_555
C5 C6 1_555 1_555
C6 C1 1_555 1_555
C7 C6 1_555 1_555
C8 N1 1_555 1_555
C9 C8 1_555 1_555
C10 C9 1_555 1_555
C11 N2 1_555 1_555
C12 C11 1_555 1_555
C13 C12 1_555 1_555
C14 C13 1_555 1_555
C15 C14 1_555 1_555
C16 C15 1_555 1_555
C17 C12 1_555 1_555
C18 O2 1_555 1_555
C19 O1 1_555 1_555
C20 N1 1_555 1_555
C21 C20 1_555 1_555
C22 C21 1_555 1_555
C23 N2 1_555 1_555
C24 C23 1_555 1_555
C25 C24 1_555 1_555
C16 C17 1_555 1_555
C18 C19 1_555 1_555

#END
