
#######################################################################
#
#                 Cambridge Crystallographic Data Centre
#                                CCDC 
#
#######################################################################
#
# If this CIF has been generated from an entry in the Cambridge 
# Structural Database, then it will include bibliographic, chemical, 
# crystal, experimental, refinement or atomic coordinate data resulting 
# from the CCDC's data processing and validation procedures.
#
#######################################################################

data_RULQAQ
_chemical_formula_moiety         'C16 H17 N2 O1 P1 S2'
_chemical_name_systematic        
1-(2-Methylphenyl)-2-(4-methoxyphenyl)-1,3,2-diazaphospholidin-4-thione-2-sulfide
_chemical_properties_biological  'herbicidal activity'
_symmetry_cell_setting           monoclinic
_symmetry_space_group_name_H-M   'P 21/n'
_symmetry_Int_Tables_number      14
_space_group_name_Hall           '-P 2yn'
loop_
_symmetry_equiv_pos_site_id
_symmetry_equiv_pos_as_xyz
1 x,y,z
2 1/2-x,1/2+y,1/2-z
3 -x,-y,-z
4 1/2+x,1/2-y,1/2+z
_cell_length_a                   9.549(2)
_cell_length_b                   7.954(5)
_cell_length_c                   23.039(8)
_cell_angle_alpha                90
_cell_angle_beta                 96.30(2)
_cell_angle_gamma                90
_cell_volume                     1739.31
_exptl_crystal_colour            colorless
_chemical_melting_point          149-150deg.C
_cell_formula_units_Z            4
loop_
_atom_site_label
_atom_site_type_symbol
_atom_site_fract_x
_atom_site_fract_y
_atom_site_fract_z
P1 P 0.9514(2) 0.0334(3) 0.1401(1)
S1 S 1.0581(3) 0.2230(3) 0.1215(1)
N1 N 1.0297(6) -0.1233(8) 0.1765(3)
C1 C 0.9738(8) -0.165(1) 0.2303(4)
C2 C 0.8586(7) -0.044(1) 0.2386(4)
N2 N 0.8435(6) 0.0622(7) 0.1942(3)
S2 S 0.7657(2) -0.0468(3) 0.2946(1)
C3 C 1.1507(8) -0.208(1) 0.1586(4)
C4 C 1.1326(9) -0.324(1) 0.1135(4)
C5 C 1.2430(1) -0.412(1) 0.0972(5)
C6 C 1.3757(9) -0.377(1) 0.1252(5)
C7 C 1.3982(8) -0.267(1) 0.1690(5)
C8 C 1.2840(1) -0.177(1) 0.1869(4)
C9 C 1.3082(9) -0.054(1) 0.2315(5)
C10 C 0.8338(8) -0.044(1) 0.0811(3)
C11 C 0.7643(9) -0.196(1) 0.0865(4)
C12 C 0.6757(9) -0.255(1) 0.0415(4)
C13 C 0.6496(8) -0.168(1) -0.0092(4)
C14 C 0.7172(9) -0.017(1) -0.0161(4)
C15 C 0.8107(8) 0.041(1) 0.0299(4)
O1 O 0.5568(6) -0.2401(8) -0.0509(3)
C16 C 0.5270(1) -0.157(1) -0.1039(4)
H1 H 0.859 0.167 0.208
loop_
_geom_bond_atom_site_label_1
_geom_bond_atom_site_label_2
_geom_bond_site_symmetry_1
_geom_bond_site_symmetry_2
P1 S1 1_555 1_555
N1 P1 1_555 1_555
C1 N1 1_555 1_555
C2 C1 1_555 1_555
N2 P1 1_555 1_555
S2 C2 1_555 1_555
C3 N1 1_555 1_555
C4 C3 1_555 1_555
C5 C4 1_555 1_555
C6 C5 1_555 1_555
C7 C6 1_555 1_555
C8 C3 1_555 1_555
C9 C8 1_555 1_555
C10 P1 1_555 1_555
C11 C10 1_555 1_555
C12 C11 1_555 1_555
C13 C12 1_555 1_555
C14 C13 1_555 1_555
C15 C10 1_555 1_555
O1 C13 1_555 1_555
C16 O1 1_555 1_555
H1 N2 1_555 1_555
C2 N2 1_555 1_555
C7 C8 1_555 1_555
C14 C15 1_555 1_555

#END
