
#######################################################################
#
#                 Cambridge Crystallographic Data Centre
#                                CCDC 
#
#######################################################################
#
# If this CIF has been generated from an entry in the Cambridge 
# Structural Database, then it will include bibliographic, chemical, 
# crystal, experimental, refinement or atomic coordinate data resulting 
# from the CCDC's data processing and validation procedures.
#
#######################################################################

data_RUMGIQ
_chemical_formula_moiety         'C156 H86,3(C7 H8)'
_chemical_name_systematic        
"13',28'-bis(9,9'-spirobi(fluorene)-2-yl)tetraspiro[fluorene-9,11'-tetrafluoreno(2,3-a:3',2'-c:2'',3''-h:3''',2'''-j)anthracene-15',9''-fluorene-26',9'''-fluorene-30',9''''-fluorene] toluene solvate"
_symmetry_cell_setting           orthorhombic
_symmetry_space_group_name_H-M   'P b c n'
_symmetry_Int_Tables_number      60
_space_group_name_Hall           '-P 2n 2ab'
loop_
_symmetry_equiv_pos_site_id
_symmetry_equiv_pos_as_xyz
1 x,y,z
2 1/2-x,1/2-y,1/2+z
3 1/2+x,1/2-y,-z
4 -x,y,1/2-z
5 -x,-y,-z
6 1/2+x,1/2+y,1/2-z
7 1/2-x,1/2+y,z
8 x,-y,1/2+z
_cell_length_a                   19.256(4)
_cell_length_b                   28.344(6)
_cell_length_c                   21.979(4)
_cell_angle_alpha                90
_cell_angle_beta                 90
_cell_angle_gamma                90
_cell_volume                     11996
_exptl_crystal_colour            colorless
_exptl_crystal_description       block
_cell_formula_units_Z            4
_exptl_crystal_recrystallization_method toluene
loop_
_atom_site_label
_atom_site_type_symbol
_atom_site_fract_x
_atom_site_fract_y
_atom_site_fract_z
C1 C 0.30517(18) 0.09395(15) 0.10455(16)
C2 C 0.36438(18) 0.09607(14) 0.13957(16)
H1 H 0.4018 0.0749 0.1323
C3 C 0.36876(17) 0.12964(14) 0.18580(16)
C4 C 0.31307(18) 0.16038(14) 0.19565(16)
H2 H 0.3158 0.1827 0.2278
C5 C 0.25404(19) 0.15899(14) 0.15962(16)
H3 H 0.2171 0.1806 0.1661
C6 C 0.24999(18) 0.12527(15) 0.11389(16)
C7 C 0.19441(18) 0.11323(15) 0.07045(17)
C8 C 0.12985(19) 0.13402(16) 0.06089(18)
H4 H 0.1159 0.1609 0.0836
C9 C 0.0863(2) 0.11451(17) 0.01734(18)
H5 H 0.0417 0.1278 0.0106
C10 C 0.1072(2) 0.07566(17) -0.01659(19)
H6 H 0.0770 0.0633 -0.0468
C11 C 0.1717(2) 0.05456(16) -0.00717(18)
H7 H 0.1855 0.0276 -0.0299
C12 C 0.21501(19) 0.07422(15) 0.03648(17)
C13 C 0.28867(18) 0.05883(15) 0.05374(17)
C14 C 0.29877(19) 0.00838(15) 0.07575(18)
C15 C 0.2668(2) -0.01435(17) 0.12403(19)
H8 H 0.2295 0.0002 0.1452
C16 C 0.2903(2) -0.05875(19) 0.1410(2)
H9 H 0.2690 -0.0746 0.1741
C17 C 0.3444(2) -0.08008(18) 0.1101(2)
H10 H 0.3603 -0.1103 0.1225
C18 C 0.3755(2) -0.05793(18) 0.0614(2)
H11 H 0.4124 -0.0728 0.0400
C19 C 0.3522(2) -0.01370(16) 0.04394(18)
C20 C 0.3768(2) 0.01874(17) -0.00363(18)
C21 C 0.4280(2) 0.0131(2) -0.0490(2)
H12 H 0.4528 -0.0157 -0.0530
C22 C 0.4409(2) 0.0504(2) -0.0872(2)
H13 H 0.4748 0.0471 -0.1182
C23 C 0.4057(2) 0.0928(2) -0.0815(2)
H14 H 0.4165 0.1181 -0.1081
C24 C 0.3544(2) 0.09871(18) -0.03690(19)
H15 H 0.3298 0.1276 -0.0332
C25 C 0.34063(19) 0.06121(16) 0.00151(17)
C26 C 0.43466(18) 0.13292(14) 0.22135(16)
C27 C 0.49654(18) 0.13907(13) 0.18738(16)
C28 C 0.49709(18) 0.15813(14) 0.12509(16)
C29 C 0.55364(18) 0.14819(14) 0.08584(16)
C30 C 0.55247(19) 0.16558(15) 0.02594(16)
H16 H 0.5864 0.1552 -0.0025
C31 C 0.50261(19) 0.19749(15) 0.00811(17)
C32 C 0.49373(19) 0.22557(15) -0.04778(17)
C33 C 0.5231(2) 0.22053(17) -0.10558(18)
H17 H 0.5530 0.1949 -0.1148
C34 C 0.5070(2) 0.25446(18) -0.14928(18)
H18 H 0.5267 0.2519 -0.1888
C35 C 0.4633(2) 0.29166(18) -0.13650(19)
H19 H 0.4545 0.3149 -0.1667
C36 C 0.4318(2) 0.29554(16) -0.07993(19)
H20 H 0.4007 0.3207 -0.0714
C37 C 0.44688(19) 0.26187(15) -0.03603(17)
C38 C 0.41902(19) 0.25840(15) 0.02897(18)
C39 C 0.45367(18) 0.21308(15) 0.05111(17)
C40 C 0.44865(18) 0.19241(14) 0.10755(16)
H21 H 0.4125 0.2014 0.1346
C41 C 0.4427(2) 0.29899(16) 0.06965(18)
C42 C 0.5098(2) 0.31222(17) 0.08335(19)
H22 H 0.5482 0.2966 0.0651
C43 C 0.5201(3) 0.34881(18) 0.1244(2)
H23 H 0.5659 0.3587 0.1343
C44 C 0.4641(3) 0.37068(19) 0.1505(2)
H24 H 0.4719 0.3954 0.1789
C45 C 0.3958(3) 0.35775(19) 0.1368(2)
H25 H 0.3576 0.3738 0.1548
C46 C 0.3853(2) 0.32073(17) 0.09613(19)
C47 C 0.3221(2) 0.29773(18) 0.0741(2)
C48 C 0.2523(2) 0.3059(2) 0.0863(2)
H26 H 0.2384 0.3306 0.1130
C49 C 0.2034(3) 0.2772(2) 0.0586(3)
H27 H 0.1556 0.2821 0.0674
C50 C 0.2215(2) 0.2421(2) 0.0192(2)
H28 H 0.1864 0.2236 0.0003
C51 C 0.2917(2) 0.23321(18) 0.0066(2)
H29 H 0.3051 0.2087 -0.0204
C52 C 0.3407(2) 0.26118(16) 0.03457(18)
C53 C 0.56162(18) 0.12827(14) 0.21474(16)
C54 C 0.61877(17) 0.11376(14) 0.17405(16)
C55 C 0.61406(18) 0.12282(14) 0.11049(16)
C56 C 0.66965(18) 0.11108(15) 0.07185(16)
H30 H 0.6667 0.1179 0.0296
C57 C 0.72811(18) 0.08983(14) 0.09478(16)
C58 C 0.79362(19) 0.07677(15) 0.06563(17)
C59 C 0.8179(2) 0.08298(16) 0.00630(18)
H31 H 0.7890 0.0967 -0.0239
C60 C 0.8846(2) 0.06892(17) -0.00777(19)
H32 H 0.9016 0.0732 -0.0479
C61 C 0.9274(2) 0.04844(16) 0.03623(18)
H33 H 0.9731 0.0389 0.0257
C62 C 0.90351(19) 0.04191(15) 0.09501(17)
H34 H 0.9323 0.0278 0.1251
C63 C 0.83660(18) 0.05642(14) 0.10904(16)
C64 C 0.79859(18) 0.05182(14) 0.17012(16)
C65 C 0.73055(18) 0.07732(14) 0.15647(16)
C66 C 0.67766(18) 0.08870(14) 0.19545(16)
H35 H 0.6804 0.0798 0.2370
C67 C 0.79335(19) -0.00062(15) 0.18563(17)
C68 C 0.7552(2) -0.03535(16) 0.15698(19)
H36 H 0.7222 -0.0276 0.1265
C69 C 0.7665(3) -0.08193(18) 0.1738(2)
H37 H 0.7407 -0.1065 0.1549
C70 C 0.8151(3) -0.09266(19) 0.2180(2)
H38 H 0.8233 -0.1248 0.2280
C71 C 0.8519(3) -0.05799(19) 0.2480(2)
H39 H 0.8843 -0.0660 0.2789
C72 C 0.8407(2) -0.01139(17) 0.23218(19)
C73 C 0.87110(19) 0.03276(16) 0.25553(18)
C74 C 0.9187(2) 0.0415(2) 0.30187(19)
H40 H 0.9374 0.0163 0.3250
C75 C 0.9382(2) 0.0870(2) 0.31365(19)
H41 H 0.9711 0.0932 0.3449
C76 C 0.9105(2) 0.12424(19) 0.28060(19)
H42 H 0.9240 0.1557 0.2898
C77 C 0.86322(19) 0.11591(16) 0.23427(18)
H43 H 0.8444 0.1414 0.2115
C78 C 0.84402(18) 0.07011(15) 0.22187(16)
C1C C 0.69483(18) 0.09395(15) 0.39545(16)
C2C C 0.63562(18) 0.09607(14) 0.36043(16)
H1C H 0.5982 0.0749 0.3677
C3C C 0.63124(17) 0.12964(14) 0.31420(16)
C4C C 0.68693(18) 0.16038(14) 0.30435(16)
H2C H 0.6842 0.1827 0.2722
C5C C 0.74596(19) 0.15899(14) 0.34038(16)
H3C H 0.7829 0.1806 0.3339
C6C C 0.75001(18) 0.12527(15) 0.38611(16)
C7C C 0.80559(18) 0.11323(15) 0.42955(17)
C8C C 0.87015(19) 0.13402(16) 0.43911(18)
H4C H 0.8841 0.1609 0.4164
C9C C 0.9137(2) 0.11451(17) 0.48266(18)
H5C H 0.9583 0.1278 0.4894
C10C C 0.8928(2) 0.07566(17) 0.51659(19)
H6C H 0.9230 0.0633 0.5468
C11C C 0.8283(2) 0.05456(16) 0.50717(18)
H7C H 0.8145 0.0276 0.5299
C12C C 0.78499(19) 0.07422(15) 0.46352(17)
C13C C 0.71133(18) 0.05883(15) 0.44626(17)
C14C C 0.70123(19) 0.00838(15) 0.42425(18)
C15C C 0.7332(2) -0.01435(17) 0.37597(19)
H8C H 0.7705 0.0002 0.3548
C16C C 0.7097(2) -0.05875(19) 0.3590(2)
H9C H 0.7310 -0.0746 0.3259
C17C C 0.6556(2) -0.08008(18) 0.3899(2)
H10C H 0.6397 -0.1103 0.3775
C18C C 0.6245(2) -0.05793(18) 0.4386(2)
H11C H 0.5876 -0.0728 0.4600
C19C C 0.6478(2) -0.01370(16) 0.45606(18)
C20C C 0.6232(2) 0.01874(17) 0.50363(18)
C21C C 0.5720(2) 0.0131(2) 0.5490(2)
H12C H 0.5472 -0.0157 0.5530
C22C C 0.5591(2) 0.0504(2) 0.5872(2)
H13C H 0.5252 0.0471 0.6182
C23C C 0.5943(2) 0.0928(2) 0.5815(2)
H14C H 0.5835 0.1181 0.6081
C24C C 0.6456(2) 0.09871(18) 0.53690(19)
H15C H 0.6702 0.1276 0.5332
C25C C 0.65937(19) 0.06121(16) 0.49849(17)
C26C C 0.56534(18) 0.13292(14) 0.27865(16)
C27C C 0.50346(18) 0.13907(13) 0.31262(16)
C28C C 0.50291(18) 0.15813(14) 0.37491(16)
C29C C 0.44636(18) 0.14819(14) 0.41416(16)
C30C C 0.44753(19) 0.16558(15) 0.47406(16)
H16C H 0.4136 0.1552 0.5025
C31C C 0.49739(19) 0.19749(15) 0.49189(17)
C32C C 0.50627(19) 0.22557(15) 0.54778(17)
C33C C 0.4769(2) 0.22053(17) 0.60558(18)
H17C H 0.4470 0.1949 0.6148
C34C C 0.4930(2) 0.25446(18) 0.64928(18)
H18C H 0.4733 0.2519 0.6888
C35C C 0.5367(2) 0.29166(18) 0.63650(19)
H19C H 0.5455 0.3149 0.6667
C36C C 0.5682(2) 0.29554(16) 0.57993(19)
H20C H 0.5993 0.3207 0.5714
C37C C 0.55312(19) 0.26187(15) 0.53603(17)
C38C C 0.58098(19) 0.25840(15) 0.47103(18)
C39C C 0.54633(18) 0.21308(15) 0.44889(17)
C40C C 0.55135(18) 0.19241(14) 0.39245(16)
H21C H 0.5875 0.2014 0.3654
C41C C 0.5573(2) 0.29899(16) 0.43035(18)
C42C C 0.4902(2) 0.31222(17) 0.41665(19)
H22C H 0.4518 0.2966 0.4349
C43C C 0.4799(3) 0.34881(18) 0.3756(2)
H23C H 0.4341 0.3587 0.3657
C44C C 0.5359(3) 0.37068(19) 0.3495(2)
H24C H 0.5281 0.3954 0.3211
C45C C 0.6042(3) 0.35775(19) 0.3632(2)
H25C H 0.6424 0.3738 0.3452
C46C C 0.6147(2) 0.32073(17) 0.40387(19)
C47C C 0.6779(2) 0.29773(18) 0.4259(2)
C48C C 0.7477(2) 0.3059(2) 0.4137(2)
H26C H 0.7616 0.3306 0.3870
C49C C 0.7966(3) 0.2772(2) 0.4414(3)
H27C H 0.8444 0.2821 0.4326
C50C C 0.7785(2) 0.2421(2) 0.4808(2)
H28C H 0.8136 0.2236 0.4997
C51C C 0.7083(2) 0.23321(18) 0.4934(2)
H29C H 0.6949 0.2087 0.5204
C52C C 0.6593(2) 0.26118(16) 0.46543(18)
C53C C 0.43838(18) 0.12827(14) 0.28526(16)
C54C C 0.38123(17) 0.11376(14) 0.32595(16)
C55C C 0.38594(18) 0.12282(14) 0.38951(16)
C56C C 0.33035(18) 0.11108(15) 0.42815(16)
H30C H 0.3333 0.1179 0.4704
C57C C 0.27189(18) 0.08983(14) 0.40522(16)
C58C C 0.20638(19) 0.07677(15) 0.43437(17)
C59C C 0.1821(2) 0.08298(16) 0.49370(18)
H31C H 0.2110 0.0967 0.5239
C60C C 0.1154(2) 0.06892(17) 0.50777(19)
H32C H 0.0984 0.0732 0.5479
C61C C 0.0726(2) 0.04844(16) 0.46377(18)
H33C H 0.0269 0.0389 0.4743
C62C C 0.09649(19) 0.04191(15) 0.40499(17)
H34C H 0.0677 0.0278 0.3749
C63C C 0.16340(18) 0.05642(14) 0.39096(16)
C64C C 0.20141(18) 0.05182(14) 0.32988(16)
C65C C 0.26945(18) 0.07732(14) 0.34353(16)
C66C C 0.32234(18) 0.08870(14) 0.30455(16)
H35C H 0.3196 0.0798 0.2630
C67C C 0.20665(19) -0.00062(15) 0.31437(17)
C68C C 0.2448(2) -0.03535(16) 0.34302(19)
H36C H 0.2778 -0.0276 0.3735
C69C C 0.2335(3) -0.08193(18) 0.3262(2)
H37C H 0.2593 -0.1065 0.3451
C70C C 0.1849(3) -0.09266(19) 0.2820(2)
H38C H 0.1767 -0.1248 0.2720
C71C C 0.1481(3) -0.05799(19) 0.2520(2)
H39C H 0.1157 -0.0660 0.2211
C72C C 0.1593(2) -0.01139(17) 0.26782(19)
C73C C 0.12890(19) 0.03276(16) 0.24447(18)
C74C C 0.0813(2) 0.0415(2) 0.19813(19)
H40C H 0.0626 0.0163 0.1750
C75C C 0.0618(2) 0.0870(2) 0.18635(19)
H41C H 0.0289 0.0932 0.1551
C76C C 0.0895(2) 0.12424(19) 0.21940(19)
H42C H 0.0760 0.1557 0.2102
C77C C 0.13678(19) 0.11591(16) 0.26573(18)
H43C H 0.1556 0.1414 0.2885
C78C C 0.15598(18) 0.07011(15) 0.27813(16)
C79 C 0.4365(5) 0.2639(4) 0.2621(5)
H44 H 0.4384 0.2827 0.2247
H45 H 0.4539 0.2321 0.2539
H46 H 0.4652 0.2788 0.2935
C80 C 0.3676(6) 0.2613(5) 0.2825(6)
C81 C 0.3448(6) 0.2398(4) 0.3391(5)
H47 H 0.3788 0.2293 0.3673
C82 C 0.2787(8) 0.2344(5) 0.3528(6)
H48 H 0.2673 0.2184 0.3894
C83 C 0.2253(7) 0.2507(6) 0.3172(7)
H49 H 0.1780 0.2467 0.3283
C84 C 0.2451(7) 0.2735(5) 0.2636(7)
H50 H 0.2094 0.2870 0.2394
C85 C 0.3116(8) 0.2777(7) 0.2433(7)
H51 H 0.3213 0.2911 0.2046
C86? C 0.5000 0.1342(6) -0.2500
H52? H 0.4520 0.1457 -0.2502
H53? H 0.5242 0.1457 -0.2863
H54? H 0.5238 0.1457 -0.2135
H55? H 0.5480 0.1457 -0.2498
H56? H 0.4758 0.1457 -0.2137
H57? H 0.4762 0.1457 -0.2865
C87? C 0.5000 0.0866(6) -0.2500
C88? C 0.4396(7) 0.0569(5) -0.2502(8)
H58? H 0.3956 0.0721 -0.2488
C89? C 0.4396(7) 0.0119(5) -0.2523(6)
H59? H 0.3967 -0.0044 -0.2554
C90? C 0.5000 -0.0134(7) -0.2500
H60? H 0.5000 -0.0469 -0.2500
C91? C 0.1715(6) 0.2798(6) 0.2569(7)
H61? H 0.1773 0.2893 0.2144
H62? H 0.1506 0.3058 0.2799
H63? H 0.1411 0.2521 0.2590
C92? C 0.2363(6) 0.2687(5) 0.2819(7)
C93? C 0.2986(6) 0.2803(5) 0.2505(6)
H64? H 0.2954 0.2961 0.2125
C94? C 0.3601(7) 0.2700(6) 0.2721(7)
H65? H 0.3995 0.2802 0.2496
C95? C 0.3713(7) 0.2455(5) 0.3252(6)
H66? H 0.4165 0.2374 0.3390
C96? C 0.3116(8) 0.2333(5) 0.3572(6)
H67? H 0.3167 0.2175 0.3951
C97? C 0.2459(8) 0.2429(5) 0.3371(6)
H68? H 0.2067 0.2324 0.3596
C98? C 0.5000 0.0010(9) -0.2500
H69? H 0.5480 -0.0106 -0.2513
H70? H 0.4747 -0.0106 -0.2857
H71? H 0.4773 -0.0106 -0.2130
H72? H 0.4520 -0.0106 -0.2487
H73? H 0.5253 -0.0106 -0.2143
H74? H 0.5227 -0.0106 -0.2870
C99? C 0.5000 0.0486(8) -0.2500
C100? C 0.4412(10) 0.0796(7) -0.2485(12)
H75? H 0.3970 0.0647 -0.2487
C101? C 0.4406(9) 0.1241(7) -0.2468(9)
H76? H 0.3973 0.1400 -0.2432
C102? C 0.5000 0.1502(10) -0.2500
H77? H 0.5000 0.1837 -0.2500
loop_
_geom_bond_atom_site_label_1
_geom_bond_atom_site_label_2
_geom_bond_site_symmetry_1
_geom_bond_site_symmetry_2
C1 C2 1_555 1_555
C2 H1 1_555 1_555
C3 C2 1_555 1_555
C4 C3 1_555 1_555
H2 C4 1_555 1_555
C5 C4 1_555 1_555
H3 C5 1_555 1_555
C6 C1 1_555 1_555
C7 C6 1_555 1_555
C8 C7 1_555 1_555
H4 C8 1_555 1_555
C9 C8 1_555 1_555
H5 C9 1_555 1_555
C10 C9 1_555 1_555
H6 C10 1_555 1_555
C11 C10 1_555 1_555
H7 C11 1_555 1_555
C12 C7 1_555 1_555
C13 C1 1_555 1_555
C14 C13 1_555 1_555
C15 C14 1_555 1_555
H8 C15 1_555 1_555
C16 C15 1_555 1_555
H9 C16 1_555 1_555
C17 C16 1_555 1_555
H10 C17 1_555 1_555
C18 C17 1_555 1_555
H11 C18 1_555 1_555
C19 C14 1_555 1_555
C20 C19 1_555 1_555
C21 C20 1_555 1_555
H12 C21 1_555 1_555
C22 C21 1_555 1_555
H13 C22 1_555 1_555
C23 C22 1_555 1_555
H14 C23 1_555 1_555
C24 C23 1_555 1_555
H15 C24 1_555 1_555
C25 C13 1_555 1_555
C26 C3 1_555 1_555
C27 C26 1_555 1_555
C28 C27 1_555 1_555
C29 C28 1_555 1_555
C30 C29 1_555 1_555
H16 C30 1_555 1_555
C31 C30 1_555 1_555
C32 C31 1_555 1_555
C33 C32 1_555 1_555
H17 C33 1_555 1_555
C34 C33 1_555 1_555
H18 C34 1_555 1_555
C35 C34 1_555 1_555
H19 C35 1_555 1_555
C36 C35 1_555 1_555
H20 C36 1_555 1_555
C37 C32 1_555 1_555
C38 C37 1_555 1_555
C39 C31 1_555 1_555
C40 C28 1_555 1_555
H21 C40 1_555 1_555
C41 C38 1_555 1_555
C42 C41 1_555 1_555
H22 C42 1_555 1_555
C43 C42 1_555 1_555
H23 C43 1_555 1_555
C44 C43 1_555 1_555
H24 C44 1_555 1_555
C45 C44 1_555 1_555
H25 C45 1_555 1_555
C46 C41 1_555 1_555
C47 C46 1_555 1_555
C48 C47 1_555 1_555
H26 C48 1_555 1_555
C49 C48 1_555 1_555
H27 C49 1_555 1_555
C50 C49 1_555 1_555
H28 C50 1_555 1_555
C51 C50 1_555 1_555
H29 C51 1_555 1_555
C52 C38 1_555 1_555
C53 C27 1_555 1_555
C54 C53 1_555 1_555
C55 C29 1_555 1_555
C56 C55 1_555 1_555
H30 C56 1_555 1_555
C57 C56 1_555 1_555
C58 C57 1_555 1_555
C59 C58 1_555 1_555
H31 C59 1_555 1_555
C60 C59 1_555 1_555
H32 C60 1_555 1_555
C61 C60 1_555 1_555
H33 C61 1_555 1_555
C62 C61 1_555 1_555
H34 C62 1_555 1_555
C63 C58 1_555 1_555
C64 C63 1_555 1_555
C65 C57 1_555 1_555
C66 C54 1_555 1_555
H35 C66 1_555 1_555
C67 C64 1_555 1_555
C68 C67 1_555 1_555
H36 C68 1_555 1_555
C69 C68 1_555 1_555
H37 C69 1_555 1_555
C70 C69 1_555 1_555
H38 C70 1_555 1_555
C71 C70 1_555 1_555
H39 C71 1_555 1_555
C72 C67 1_555 1_555
C73 C72 1_555 1_555
C74 C73 1_555 1_555
H40 C74 1_555 1_555
C75 C74 1_555 1_555
H41 C75 1_555 1_555
C76 C75 1_555 1_555
H42 C76 1_555 1_555
C77 C76 1_555 1_555
H43 C77 1_555 1_555
C78 C64 1_555 1_555
C79 H44 1_555 1_555
H45 C79 1_555 1_555
H46 C79 1_555 1_555
C80 C79 1_555 1_555
C81 C80 1_555 1_555
H47 C81 1_555 1_555
C82 C81 1_555 1_555
H48 C82 1_555 1_555
C83 C82 1_555 1_555
H49 C83 1_555 1_555
C84 C83 1_555 1_555
H50 C84 1_555 1_555
C85 C80 1_555 1_555
H51 C85 1_555 1_555
C1C C2C 1_555 1_555
C2C H1C 1_555 1_555
C3C C2C 1_555 1_555
C4C C3C 1_555 1_555
H2C C4C 1_555 1_555
C5C C4C 1_555 1_555
H3C C5C 1_555 1_555
C6C C1C 1_555 1_555
C7C C6C 1_555 1_555
C8C C7C 1_555 1_555
H4C C8C 1_555 1_555
C9C C8C 1_555 1_555
H5C C9C 1_555 1_555
C10C C9C 1_555 1_555
H6C C10C 1_555 1_555
C11C C10C 1_555 1_555
H7C C11C 1_555 1_555
C12C C7C 1_555 1_555
C13C C1C 1_555 1_555
C14C C13C 1_555 1_555
C15C C14C 1_555 1_555
H8C C15C 1_555 1_555
C16C C15C 1_555 1_555
H9C C16C 1_555 1_555
C17C C16C 1_555 1_555
H10C C17C 1_555 1_555
C18C C17C 1_555 1_555
H11C C18C 1_555 1_555
C19C C14C 1_555 1_555
C20C C19C 1_555 1_555
C21C C20C 1_555 1_555
H12C C21C 1_555 1_555
C22C C21C 1_555 1_555
H13C C22C 1_555 1_555
C23C C22C 1_555 1_555
H14C C23C 1_555 1_555
C24C C23C 1_555 1_555
H15C C24C 1_555 1_555
C25C C13C 1_555 1_555
C26C C53 1_555 1_555
C27C C26C 1_555 1_555
C28C C27C 1_555 1_555
C29C C28C 1_555 1_555
C30C C29C 1_555 1_555
H16C C30C 1_555 1_555
C31C C30C 1_555 1_555
C32C C31C 1_555 1_555
C33C C32C 1_555 1_555
H17C C33C 1_555 1_555
C34C C33C 1_555 1_555
H18C C34C 1_555 1_555
C35C C34C 1_555 1_555
H19C C35C 1_555 1_555
C36C C35C 1_555 1_555
H20C C36C 1_555 1_555
C37C C32C 1_555 1_555
C38C C37C 1_555 1_555
C39C C31C 1_555 1_555
C40C C28C 1_555 1_555
H21C C40C 1_555 1_555
C41C C38C 1_555 1_555
C42C C41C 1_555 1_555
H22C C42C 1_555 1_555
C43C C42C 1_555 1_555
H23C C43C 1_555 1_555
C44C C43C 1_555 1_555
H24C C44C 1_555 1_555
C45C C44C 1_555 1_555
H25C C45C 1_555 1_555
C46C C41C 1_555 1_555
C47C C46C 1_555 1_555
C48C C47C 1_555 1_555
H26C C48C 1_555 1_555
C49C C48C 1_555 1_555
H27C C49C 1_555 1_555
C50C C49C 1_555 1_555
H28C C50C 1_555 1_555
C51C C50C 1_555 1_555
H29C C51C 1_555 1_555
C52C C38C 1_555 1_555
C53C C26 1_555 1_555
C54C C53C 1_555 1_555
C55C C29C 1_555 1_555
C56C C55C 1_555 1_555
H30C C56C 1_555 1_555
C57C C56C 1_555 1_555
C58C C57C 1_555 1_555
C59C C58C 1_555 1_555
H31C C59C 1_555 1_555
C60C C59C 1_555 1_555
H32C C60C 1_555 1_555
C61C C60C 1_555 1_555
H33C C61C 1_555 1_555
C62C C61C 1_555 1_555
H34C C62C 1_555 1_555
C63C C58C 1_555 1_555
C64C C63C 1_555 1_555
C65C C57C 1_555 1_555
C66C C54C 1_555 1_555
H35C C66C 1_555 1_555
C67C C64C 1_555 1_555
C68C C67C 1_555 1_555
H36C C68C 1_555 1_555
C69C C68C 1_555 1_555
H37C C69C 1_555 1_555
C70C C69C 1_555 1_555
H38C C70C 1_555 1_555
C71C C70C 1_555 1_555
H39C C71C 1_555 1_555
C72C C67C 1_555 1_555
C73C C72C 1_555 1_555
C74C C73C 1_555 1_555
H40C C74C 1_555 1_555
C75C C74C 1_555 1_555
H41C C75C 1_555 1_555
C76C C75C 1_555 1_555
H42C C76C 1_555 1_555
C77C C76C 1_555 1_555
H43C C77C 1_555 1_555
C78C C64C 1_555 1_555
C5 C6 1_555 1_555
C11 C12 1_555 1_555
C12 C13 1_555 1_555
C18 C19 1_555 1_555
C20 C25 1_555 1_555
C24 C25 1_555 1_555
C36 C37 1_555 1_555
C38 C39 1_555 1_555
C39 C40 1_555 1_555
C45 C46 1_555 1_555
C47 C52 1_555 1_555
C51 C52 1_555 1_555
C54 C55 1_555 1_555
C62 C63 1_555 1_555
C64 C65 1_555 1_555
C65 C66 1_555 1_555
C71 C72 1_555 1_555
C73 C78 1_555 1_555
C77 C78 1_555 1_555
C84 C85 1_555 1_555
C3C C26C 1_555 1_555
C5C C6C 1_555 1_555
C11C C12C 1_555 1_555
C12C C13C 1_555 1_555
C18C C19C 1_555 1_555
C20C C25C 1_555 1_555
C24C C25C 1_555 1_555
C27C C53C 1_555 1_555
C36C C37C 1_555 1_555
C38C C39C 1_555 1_555
C39C C40C 1_555 1_555
C45C C46C 1_555 1_555
C47C C52C 1_555 1_555
C51C C52C 1_555 1_555
C54C C55C 1_555 1_555
C62C C63C 1_555 1_555
C64C C65C 1_555 1_555
C65C C66C 1_555 1_555
C71C C72C 1_555 1_555
C73C C78C 1_555 1_555
C77C C78C 1_555 1_555

#END
