
#######################################################################
#
#                 Cambridge Crystallographic Data Centre
#                                CCDC 
#
#######################################################################
#
# If this CIF has been generated from an entry in the Cambridge 
# Structural Database, then it will include bibliographic, chemical, 
# crystal, experimental, refinement or atomic coordinate data resulting 
# from the CCDC's data processing and validation procedures.
#
#######################################################################

data_RUMHUD
_chemical_formula_moiety         'C16 H20 N2 O4'
_chemical_name_systematic        
"Diethyl 2,2'-(3-methyl-1H-benzimidazol-1-yl-2-ylidene)diacetate"
_symmetry_cell_setting           monoclinic
_symmetry_space_group_name_H-M   'P 21/n'
_symmetry_Int_Tables_number      14
_space_group_name_Hall           '-P 2yn'
loop_
_symmetry_equiv_pos_site_id
_symmetry_equiv_pos_as_xyz
1 x,y,z
2 1/2-x,1/2+y,1/2-z
3 -x,-y,-z
4 1/2+x,1/2-y,1/2+z
_cell_length_a                   10.741(11)
_cell_length_b                   8.772(9)
_cell_length_c                   17.121(17)
_cell_angle_alpha                90
_cell_angle_beta                 100.321(13)
_cell_angle_gamma                90
_cell_volume                     1587.04
_exptl_crystal_colour            colorless
_exptl_crystal_description       plate
_chemical_melting_point          '101-105 deg.C'
_cell_formula_units_Z            4
loop_
_atom_site_label
_atom_site_type_symbol
_atom_site_fract_x
_atom_site_fract_y
_atom_site_fract_z
C1 C 0.0452(5) 0.2354(5) 0.5864(3)
N1 N 0.1542(4) 0.2907(4) 0.6322(2)
C2 C 0.2181(5) 0.3831(5) 0.5839(3)
C3 C 0.3293(5) 0.4643(5) 0.6020(3)
H1 H 0.3784 0.4640 0.6540
C4 C 0.3665(5) 0.5477(6) 0.5400(3)
H2 H 0.4423 0.6058 0.5501
C5 C 0.2945(5) 0.5463(6) 0.4646(3)
H3 H 0.3233 0.6023 0.4238
C6 C 0.1812(5) 0.4659(5) 0.4461(3)
H4 H 0.1313 0.4668 0.3943
C7 C 0.1457(5) 0.3843(5) 0.5081(3)
N2 N 0.0388(4) 0.2937(4) 0.5107(2)
C8 C -0.0561(5) 0.2503(5) 0.4428(3)
H5 H -0.0606 0.1389 0.4390
H6 H -0.0330 0.2920 0.3942
H7 H -0.1387 0.2906 0.4493
C9 C -0.0506(5) 0.1430(5) 0.6054(3)
H8 H -0.1324 0.1546 0.5738
C10 C -0.0382(5) 0.0339(5) 0.6668(3)
O1 O 0.0580(3) -0.0054(4) 0.71443(19)
O2 O -0.1522(3) -0.0378(3) 0.66801(19)
C11 C -0.1506(5) -0.1536(6) 0.7289(3)
H9 H -0.1226 -0.1088 0.7823
H10 H -0.0917 -0.2369 0.7214
C12 C -0.2825(6) -0.2134(7) 0.7213(4)
H11 H -0.3393 -0.1305 0.7305
H12 H -0.2848 -0.2941 0.7606
H13 H -0.3100 -0.2548 0.6678
C13 C 0.1859(5) 0.2936(5) 0.7183(3)
H14 H 0.2785 0.3063 0.7347
H15 H 0.1618 0.1952 0.7397
C14 C 0.1185(5) 0.4223(6) 0.7529(3)
O3 O 0.0538(3) 0.5187(4) 0.71557(19)
O4 O 0.1440(3) 0.4144(4) 0.83247(17)
C15 C 0.0883(5) 0.5359(6) 0.8755(3)
H16 H -0.0038 0.5193 0.8716
H17 H 0.1018 0.6370 0.8528
C16 C 0.1537(6) 0.5276(6) 0.9602(3)
H18 H 0.1403 0.4266 0.9817
H19 H 0.1191 0.6057 0.9912
H20 H 0.2446 0.5450 0.9632
loop_
_geom_bond_atom_site_label_1
_geom_bond_atom_site_label_2
_geom_bond_site_symmetry_1
_geom_bond_site_symmetry_2
C1 N1 1_555 1_555
N1 C2 1_555 1_555
C2 C3 1_555 1_555
C3 H1 1_555 1_555
C4 C3 1_555 1_555
H2 C4 1_555 1_555
C5 C4 1_555 1_555
H3 C5 1_555 1_555
C6 C5 1_555 1_555
H4 C6 1_555 1_555
C7 C2 1_555 1_555
N2 C1 1_555 1_555
C8 N2 1_555 1_555
H5 C8 1_555 1_555
H6 C8 1_555 1_555
H7 C8 1_555 1_555
C9 C1 1_555 1_555
H8 C9 1_555 1_555
C10 C9 1_555 1_555
O1 C10 1_555 1_555
O2 C10 1_555 1_555
C11 O2 1_555 1_555
H9 C11 1_555 1_555
H10 C11 1_555 1_555
C12 C11 1_555 1_555
H11 C12 1_555 1_555
H12 C12 1_555 1_555
H13 C12 1_555 1_555
C13 N1 1_555 1_555
H14 C13 1_555 1_555
H15 C13 1_555 1_555
C14 C13 1_555 1_555
O3 C14 1_555 1_555
O4 C14 1_555 1_555
C15 O4 1_555 1_555
H16 C15 1_555 1_555
H17 C15 1_555 1_555
C16 C15 1_555 1_555
H18 C16 1_555 1_555
H19 C16 1_555 1_555
H20 C16 1_555 1_555
C6 C7 1_555 1_555
C7 N2 1_555 1_555

#END
