
#######################################################################
#
#                 Cambridge Crystallographic Data Centre
#                                CCDC 
#
#######################################################################
#
# If this CIF has been generated from an entry in the Cambridge 
# Structural Database, then it will include bibliographic, chemical, 
# crystal, experimental, refinement or atomic coordinate data resulting 
# from the CCDC's data processing and validation procedures.
#
#######################################################################

data_RUMMOC
_chemical_formula_moiety         'C21 H24 N6'
_chemical_name_systematic        
1,3,5-tris(2-pyridinylmethyl)-1,3,5-triazinane
_symmetry_cell_setting           triclinic
_symmetry_space_group_name_H-M   'P -1'
_symmetry_Int_Tables_number      2
_space_group_name_Hall           '-P 1'
loop_
_symmetry_equiv_pos_site_id
_symmetry_equiv_pos_as_xyz
1 x,y,z
2 -x,-y,-z
_cell_length_a                   10.0590(3)
_cell_length_b                   10.0802(3)
_cell_length_c                   10.5680(4)
_cell_angle_alpha                88.1730(10)
_cell_angle_beta                 82.2380(10)
_cell_angle_gamma                61.5410(10)
_cell_volume                     932.791
_exptl_crystal_colour            colorless
_exptl_crystal_description       irregular
_cell_formula_units_Z            2
loop_
_atom_site_label
_atom_site_type_symbol
_atom_site_fract_x
_atom_site_fract_y
_atom_site_fract_z
C1 C 0.76890(14) 0.00797(13) 0.13187(12)
H1 H 0.8094 0.0311 0.0483
H2 H 0.6783 -0.0023 0.1198
N1 N 0.72287(11) 0.13241(11) 0.22242(10)
C2 C 0.84376(14) 0.17500(14) 0.22580(13)
H3 H 0.8775 0.1943 0.1380
H4 H 0.9326 0.0901 0.2578
C3 C 0.78913(14) 0.31397(13) 0.31039(12)
N2 N 0.88075(12) 0.30722(12) 0.39382(12)
C4 C 0.83280(16) 0.42904(15) 0.47139(15)
H5 H 0.8974 0.4254 0.5308
C5 C 0.69590(16) 0.55887(15) 0.47014(14)
H6 H 0.6659 0.6414 0.5281
C6 C 0.60370(16) 0.56543(15) 0.38219(15)
H7 H 0.5090 0.6536 0.3776
C7 C 0.65087(15) 0.44223(14) 0.30089(14)
H8 H 0.5894 0.4450 0.2390
C8 C 0.67109(13) 0.09497(12) 0.34654(11)
H9 H 0.5794 0.0839 0.3409
H10 H 0.6420 0.1785 0.4091
N3 N 0.79022(11) -0.04600(10) 0.39156(9)
C9 C 0.73653(14) -0.08363(13) 0.51571(11)
H11 H 0.8112 -0.1876 0.5347
H12 H 0.6385 -0.0826 0.5105
C10 C 0.71372(13) 0.02127(12) 0.62463(11)
N4 N 0.61018(12) 0.03137(12) 0.72336(10)
C11 C 0.59205(16) 0.11696(15) 0.82550(13)
H13 H 0.5191 0.1249 0.8961
C12 C 0.67284(15) 0.19412(14) 0.83428(12)
H14 H 0.6563 0.2529 0.9090
C13 C 0.77844(14) 0.18364(14) 0.73145(13)
H15 H 0.8359 0.2356 0.7340
C14 C 0.79927(14) 0.09634(14) 0.62481(12)
H16 H 0.8709 0.0878 0.5528
C15 C 0.82826(13) -0.16738(12) 0.29928(11)
H17 H 0.7362 -0.1776 0.2929
H18 H 0.9065 -0.2639 0.3287
N5 N 0.88599(11) -0.13646(10) 0.17406(9)
C16 C 0.91967(14) -0.25755(13) 0.08128(11)
H19 H 0.9401 -0.2265 -0.0059
H20 H 0.8293 -0.2732 0.0847
C17 C 1.05540(13) -0.40423(13) 0.10704(11)
N6 N 1.19336(12) -0.41984(12) 0.06208(11)
C18 C 1.31514(16) -0.54817(17) 0.08792(16)
H21 H 1.4137 -0.5606 0.0567
C19 C 1.30650(16) -0.66321(16) 0.15684(14)
H22 H 1.3964 -0.7513 0.1731
C20 C 1.16409(16) -0.64683(14) 0.20135(13)
H23 H 1.1534 -0.7237 0.2487
C21 C 1.03683(15) -0.51575(14) 0.17555(12)
H24 H 0.9373 -0.5021 0.2045
loop_
_geom_bond_atom_site_label_1
_geom_bond_atom_site_label_2
_geom_bond_site_symmetry_1
_geom_bond_site_symmetry_2
C1 H1 1_555 1_555
H2 C1 1_555 1_555
N1 C1 1_555 1_555
C2 N1 1_555 1_555
H3 C2 1_555 1_555
H4 C2 1_555 1_555
C3 C2 1_555 1_555
N2 C3 1_555 1_555
C4 N2 1_555 1_555
H5 C4 1_555 1_555
C5 C4 1_555 1_555
H6 C5 1_555 1_555
C6 C5 1_555 1_555
H7 C6 1_555 1_555
C7 C3 1_555 1_555
H8 C7 1_555 1_555
C8 N1 1_555 1_555
H9 C8 1_555 1_555
H10 C8 1_555 1_555
N3 C8 1_555 1_555
C9 N3 1_555 1_555
H11 C9 1_555 1_555
H12 C9 1_555 1_555
C10 C9 1_555 1_555
N4 C10 1_555 1_555
C11 N4 1_555 1_555
H13 C11 1_555 1_555
C12 C11 1_555 1_555
H14 C12 1_555 1_555
C13 C12 1_555 1_555
H15 C13 1_555 1_555
C14 C10 1_555 1_555
H16 C14 1_555 1_555
C15 N3 1_555 1_555
H17 C15 1_555 1_555
H18 C15 1_555 1_555
N5 C1 1_555 1_555
C16 N5 1_555 1_555
H19 C16 1_555 1_555
H20 C16 1_555 1_555
C17 C16 1_555 1_555
N6 C17 1_555 1_555
C18 N6 1_555 1_555
H21 C18 1_555 1_555
C19 C18 1_555 1_555
H22 C19 1_555 1_555
C20 C19 1_555 1_555
H23 C20 1_555 1_555
C21 C17 1_555 1_555
H24 C21 1_555 1_555
C6 C7 1_555 1_555
C13 C14 1_555 1_555
C15 N5 1_555 1_555
C20 C21 1_555 1_555

#END
