
#######################################################################
#
#                 Cambridge Crystallographic Data Centre
#                                CCDC 
#
#######################################################################
#
# If this CIF has been generated from an entry in the Cambridge 
# Structural Database, then it will include bibliographic, chemical, 
# crystal, experimental, refinement or atomic coordinate data resulting 
# from the CCDC's data processing and validation procedures.
#
#######################################################################

data_RUMPUM
_chemical_formula_moiety         'C28 H31 N3 O3'
_chemical_name_systematic        
4-amino-3',6'-bis(diethylamino)-3H-spiro[2-benzofuran-1,9'-xanthen]-3-one
_symmetry_cell_setting           orthorhombic
_symmetry_space_group_name_H-M   'P 21 21 21'
_symmetry_Int_Tables_number      19
_space_group_name_Hall           'P 2ac 2ab'
loop_
_symmetry_equiv_pos_site_id
_symmetry_equiv_pos_as_xyz
1 x,y,z
2 1/2-x,-y,1/2+z
3 -x,1/2+y,1/2-z
4 1/2+x,1/2-y,-z
_cell_length_a                   12.122(2)
_cell_length_b                   13.002(3)
_cell_length_c                   15.716(3)
_cell_angle_alpha                90
_cell_angle_beta                 90
_cell_angle_gamma                90
_cell_volume                     2477
_exptl_crystal_colour            red
_exptl_crystal_description       block
_cell_formula_units_Z            4
loop_
_atom_site_label
_atom_site_type_symbol
_atom_site_fract_x
_atom_site_fract_y
_atom_site_fract_z
C1 C 0.5732(5) 0.6722(5) 0.2451(4)
C2 C 0.5807(5) 0.5930(5) 0.1827(4)
C3 C 0.5261(5) 0.4989(5) 0.1836(6)
C4 C 0.5487(8) 0.4357(7) 0.1149(7)
H1 H 0.5149 0.3716 0.1120
C5 C 0.6204(8) 0.4651(6) 0.0502(6)
H2 H 0.6327 0.4204 0.0049
C6 C 0.6743(5) 0.5600(5) 0.0513(4)
H3 H 0.7220 0.5798 0.0080
C7 C 0.6525(5) 0.6243(4) 0.1215(3)
C8 C 0.6993(4) 0.7283(4) 0.1406(3)
C9 C 0.6727(4) 0.8092(4) 0.0765(3)
C10 C 0.5645(4) 0.8278(4) 0.0504(4)
H4 H 0.5085 0.7857 0.0710
C11 C 0.5376(4) 0.9059(4) -0.0047(3)
H5 H 0.4642 0.9159 -0.0199
C12 C 0.6201(4) 0.9716(4) -0.0387(3)
C13 C 0.7267(5) 0.9524(4) -0.0127(3)
H6 H 0.7834 0.9937 -0.0335
C14 C 0.7519(4) 0.8743(4) 0.0429(3)
C15 C 0.8922(4) 0.7945(4) 0.1238(3)
C16 C 1.0034(4) 0.7965(4) 0.1437(3)
H7 H 1.0493 0.8447 0.1180
C17 C 1.0473(4) 0.7266(5) 0.2022(4)
C18 C 0.9739(5) 0.6595(4) 0.2420(4)
H8 H 0.9997 0.6145 0.2835
C19 C 0.8634(4) 0.6591(4) 0.2205(3)
H9 H 0.8165 0.6118 0.2464
C20 C 0.8204(4) 0.7277(4) 0.1613(3)
C21 C 0.6799(5) 1.1136(5) -0.1309(3)
H10 H 0.6554 1.1379 -0.1861
H11 H 0.7460 1.0728 -0.1397
C22 C 0.7095(8) 1.2066(6) -0.0759(5)
H12 H 0.6452 1.2488 -0.0683
H13 H 0.7662 1.2458 -0.1035
H14 H 0.7354 1.1835 -0.0215
C23 C 0.4787(5) 1.0801(5) -0.1073(4)
H15 H 0.4345 1.0197 -0.1194
H16 H 0.4756 1.1242 -0.1570
C24 C 0.4279(7) 1.1356(6) -0.0348(5)
H17 H 0.4297 1.0927 0.0149
H18 H 0.3528 1.1523 -0.0484
H19 H 0.4684 1.1977 -0.0240
C25 C 1.2406(6) 0.7869(7) 0.1655(6)
H20 H 1.3128 0.7549 0.1668
H21 H 1.2154 0.7897 0.1069
C26 C 1.2453(8) 0.8864(9) 0.2006(6)
H22 H 1.1720 0.9135 0.2058
H23 H 1.2880 0.9302 0.1641
H24 H 1.2792 0.8833 0.2557
C27 C 1.2130(8) 0.6182(8) 0.2566(6)
H25 H 1.1653 0.5586 0.2520
H26 H 1.2859 0.6039 0.2340
C28 C 1.2134(8) 0.6650(8) 0.3391(6)
H27 H 1.2591 0.7253 0.3381
H28 H 1.2420 0.6171 0.3801
H29 H 1.1395 0.6839 0.3545
N1 N 0.4606(5) 0.4700(5) 0.2491(5)
H30 H 0.4309 0.4100 0.2492
H31 H 0.4487 0.5117 0.2906
N2 N 0.5941(4) 1.0474(4) -0.0947(3)
N3 N 1.1577(6) 0.7254(6) 0.2212(5)
O1 O 0.8622(3) 0.8657(3) 0.0638(2)
O2 O 0.6373(3) 0.7527(3) 0.2224(2)
O3 O 0.5177(4) 0.6778(4) 0.3103(3)
loop_
_geom_bond_atom_site_label_1
_geom_bond_atom_site_label_2
_geom_bond_site_symmetry_1
_geom_bond_site_symmetry_2
C1 C2 1_555 1_555
C2 C3 1_555 1_555
C3 C4 1_555 1_555
C4 H1 1_555 1_555
C5 C4 1_555 1_555
H2 C5 1_555 1_555
C6 C5 1_555 1_555
H3 C6 1_555 1_555
C7 C2 1_555 1_555
C8 C7 1_555 1_555
C9 C8 1_555 1_555
C10 C9 1_555 1_555
H4 C10 1_555 1_555
C11 C10 1_555 1_555
H5 C11 1_555 1_555
C12 C11 1_555 1_555
C13 C12 1_555 1_555
H6 C13 1_555 1_555
C14 C9 1_555 1_555
C15 C16 1_555 1_555
C16 H7 1_555 1_555
C17 C16 1_555 1_555
C18 C17 1_555 1_555
H8 C18 1_555 1_555
C19 C18 1_555 1_555
H9 C19 1_555 1_555
C20 C8 1_555 1_555
C21 H10 1_555 1_555
H11 C21 1_555 1_555
C22 C21 1_555 1_555
H12 C22 1_555 1_555
H13 C22 1_555 1_555
H14 C22 1_555 1_555
C23 H15 1_555 1_555
H16 C23 1_555 1_555
C24 C23 1_555 1_555
H17 C24 1_555 1_555
H18 C24 1_555 1_555
H19 C24 1_555 1_555
C25 H20 1_555 1_555
H21 C25 1_555 1_555
C26 C25 1_555 1_555
H22 C26 1_555 1_555
H23 C26 1_555 1_555
H24 C26 1_555 1_555
C27 H25 1_555 1_555
H26 C27 1_555 1_555
C28 C27 1_555 1_555
H27 C28 1_555 1_555
H28 C28 1_555 1_555
H29 C28 1_555 1_555
N1 C3 1_555 1_555
H30 N1 1_555 1_555
H31 N1 1_555 1_555
N2 C12 1_555 1_555
N3 C17 1_555 1_555
O1 C14 1_555 1_555
O2 C1 1_555 1_555
O3 C1 1_555 1_555
C6 C7 1_555 1_555
C8 O2 1_555 1_555
C13 C14 1_555 1_555
C15 C20 1_555 1_555
C15 O1 1_555 1_555
C19 C20 1_555 1_555
C21 N2 1_555 1_555
C23 N2 1_555 1_555
C25 N3 1_555 1_555
C27 N3 1_555 1_555

#END
