
#######################################################################
#
#                 Cambridge Crystallographic Data Centre
#                                CCDC 
#
#######################################################################
#
# If this CIF has been generated from an entry in the Cambridge 
# Structural Database, then it will include bibliographic, chemical, 
# crystal, experimental, refinement or atomic coordinate data resulting 
# from the CCDC's data processing and validation procedures.
#
#######################################################################

data_RUNBIN
_chemical_formula_moiety         'C10 H16 O4,H2 O1'
_chemical_name_systematic        
'5,6-dihydroxy-3,6-dimethylhexahydro-1-benzofuran-2(3H)-one monohydrate'
_symmetry_cell_setting           orthorhombic
_symmetry_space_group_name_H-M   'P 21 21 21'
_symmetry_Int_Tables_number      19
_space_group_name_Hall           'P 2ac 2ab'
loop_
_symmetry_equiv_pos_site_id
_symmetry_equiv_pos_as_xyz
1 x,y,z
2 1/2+x,1/2-y,-z
3 -x,1/2+y,1/2-z
4 1/2-x,-y,1/2+z
_cell_length_a                   6.25100(10)
_cell_length_b                   6.83710(10)
_cell_length_c                   25.0510(4)
_cell_angle_alpha                90
_cell_angle_beta                 90
_cell_angle_gamma                90
_cell_volume                     1070.65
_exptl_crystal_colour            colorless
_exptl_crystal_description       prism
_cell_formula_units_Z            4
loop_
_atom_site_label
_atom_site_type_symbol
_atom_site_fract_x
_atom_site_fract_y
_atom_site_fract_z
O1 O 0.59021(13) 0.91597(13) 0.74640(3)
H1 H 0.6951 0.9199 0.7673
O2 O 0.05465(16) 0.71210(15) 0.54905(4)
O3 O 0.73025(13) 1.26569(12) 0.69288(3)
H2 H 0.6544 1.3184 0.7165
O4 O 0.37959(16) 0.64509(13) 0.58072(3)
C1 C 0.66564(19) 0.91267(18) 0.69229(5)
C2 C 0.5298(2) 0.75884(17) 0.66375(5)
H3 H 0.5659 0.6283 0.6783
H4 H 0.3771 0.7841 0.6717
C3 C 0.5597(2) 0.75501(17) 0.60336(5)
H5 H 0.6984 0.6909 0.5939
C4 C 0.2263(2) 0.77034(19) 0.56427(5)
C5 C 0.9029(2) 0.86474(18) 0.69090(5)
H6 H 0.9836 0.9707 0.7079
H7 H 0.9495 0.8505 0.6537
H8 H 0.9286 0.7422 0.7101
C6 C 0.6116(2) 1.11246(16) 0.66763(4)
H9 H 0.4557 1.1382 0.6733
C7 C 0.65680(19) 1.11899(17) 0.60778(4)
H10 H 0.8129 1.1074 0.6020
H11 H 0.6107 1.2474 0.5936
C8 C 0.5433(2) 0.95710(17) 0.57675(5)
H12 H 0.6095 0.9484 0.5405
C9 C 0.3016(2) 0.98004(18) 0.56992(5)
H13 H 0.2417 1.0341 0.6039
C10 C 0.2268(2) 1.1095(2) 0.52391(5)
H14 H 0.3006 1.0707 0.4911
H15 H 0.2597 1.2464 0.5320
H16 H 0.0721 1.0943 0.5191
O5 O 0.86264(15) 0.87791(14) 0.83343(4)
H17 H 0.854(3) 0.946(2) 0.8605(5)
H18 H 0.9895(17) 0.851(3) 0.8295(7)
loop_
_geom_bond_atom_site_label_1
_geom_bond_atom_site_label_2
_geom_bond_site_symmetry_1
_geom_bond_site_symmetry_2
O1 H1 1_555 1_555
O2 C4 1_555 1_555
O3 H2 1_555 1_555
O4 C3 1_555 1_555
C1 O1 1_555 1_555
C2 C1 1_555 1_555
H3 C2 1_555 1_555
H4 C2 1_555 1_555
C3 C2 1_555 1_555
H5 C3 1_555 1_555
C4 O4 1_555 1_555
C5 C1 1_555 1_555
H6 C5 1_555 1_555
H7 C5 1_555 1_555
H8 C5 1_555 1_555
C6 O3 1_555 1_555
H9 C6 1_555 1_555
C7 C6 1_555 1_555
H10 C7 1_555 1_555
H11 C7 1_555 1_555
C8 C3 1_555 1_555
H12 C8 1_555 1_555
C9 C4 1_555 1_555
H13 C9 1_555 1_555
C10 C9 1_555 1_555
H14 C10 1_555 1_555
H15 C10 1_555 1_555
H16 C10 1_555 1_555
O5 H17 1_555 1_555
H18 O5 1_555 1_555
C1 C6 1_555 1_555
C7 C8 1_555 1_555
C8 C9 1_555 1_555

#END
