
#######################################################################
#
#                 Cambridge Crystallographic Data Centre
#                                CCDC 
#
#######################################################################
#
# If this CIF has been generated from an entry in the Cambridge 
# Structural Database, then it will include bibliographic, chemical, 
# crystal, experimental, refinement or atomic coordinate data resulting 
# from the CCDC's data processing and validation procedures.
#
#######################################################################

data_RUNFAI
_chemical_formula_moiety         'C26 H29 N2 O5 P1 S1'
_chemical_name_systematic        
'Diethyl (2-(((4-methylphenyl)sulfonyl)amino)-3-phenyl-1,2-dihydro-1-isoquinolinyl)phosphonate'
_symmetry_cell_setting           monoclinic
_symmetry_space_group_name_H-M   'P 21/n'
_symmetry_Int_Tables_number      14
_space_group_name_Hall           '-P 2yn'
loop_
_symmetry_equiv_pos_site_id
_symmetry_equiv_pos_as_xyz
1 x,y,z
2 1/2-x,1/2+y,1/2-z
3 -x,-y,-z
4 1/2+x,1/2-y,1/2+z
_cell_length_a                   12.437(8)
_cell_length_b                   16.194(10)
_cell_length_c                   12.962(8)
_cell_angle_alpha                90
_cell_angle_beta                 95.778(8)
_cell_angle_gamma                90
_cell_volume                     2597.35
_exptl_crystal_colour            colorless
_exptl_crystal_description       prism
_cell_formula_units_Z            4
loop_
_atom_site_label
_atom_site_type_symbol
_atom_site_fract_x
_atom_site_fract_y
_atom_site_fract_z
S1 S -0.03138(5) 0.18988(4) 0.32242(5)
P1 P 0.25800(5) 0.00140(4) 0.48450(5)
N1 N 0.00761(15) 0.10570(13) 0.38611(15)
H1 H -0.0354(18) 0.0765(14) 0.4098(17)
N2 N 0.09413(14) 0.05884(11) 0.35808(14)
O1 O 0.18120(14) -0.03869(12) 0.54549(15)
O2 O 0.31268(15) -0.05800(11) 0.41152(15)
O3 O 0.35463(15) 0.04595(12) 0.54808(15)
O4 O 0.06333(15) 0.22518(11) 0.28662(17)
O5 O -0.09266(16) 0.23436(13) 0.39117(17)
C1 C 0.20062(17) 0.08648(15) 0.40535(18)
H2 H 0.1882 0.1321 0.4524
C2 C 0.27283(18) 0.11868(15) 0.3277(2)
C3 C 0.3534(2) 0.17600(17) 0.3539(3)
H3 H 0.3632 0.1963 0.4214
C4 C 0.4188(2) 0.2034(2) 0.2827(3)
H4 H 0.4726 0.2420 0.3013
C5 C 0.4044(2) 0.1729(2) 0.1822(3)
H5 H 0.4483 0.1916 0.1331
C6 C 0.3261(2) 0.11579(19) 0.1549(2)
H6 H 0.3179 0.0953 0.0875
C7 C 0.25749(19) 0.08738(16) 0.2276(2)
C8 C 0.1686(2) 0.03070(17) 0.20042(19)
H7 H 0.1674 0.0008 0.1391
C9 C 0.08843(18) 0.02015(14) 0.26081(18)
C10 C -0.00333(18) -0.03682(14) 0.23669(18)
C11 C -0.04322(19) -0.08316(16) 0.3127(2)
H8 H -0.0140 -0.0772 0.3812
C12 C -0.1266(2) -0.13884(18) 0.2886(3)
H9 H -0.1526 -0.1702 0.3408
C13 C -0.1708(2) -0.1480(2) 0.1880(3)
H10 H -0.2270 -0.1851 0.1718
C14 C -0.1314(3) -0.1020(2) 0.1120(3)
H11 H -0.1603 -0.1086 0.0435
C15 C -0.0499(2) -0.04627(18) 0.1354(2)
H12 H -0.0254 -0.0143 0.0829
C16 C 0.2773(3) -0.1417(2) 0.3889(3)
H13 H 0.2855 -0.1544 0.3170
H14 H 0.2013 -0.1468 0.3990
C17 C 0.3396(4) -0.1999(2) 0.4556(4)
H15 H 0.4151 -0.1878 0.4558
H16 H 0.3257 -0.2550 0.4302
H17 H 0.3191 -0.1956 0.5248
C18 C 0.4223(3) 0.0059(2) 0.6297(3)
H18 H 0.4897 -0.0105 0.6040
H19 H 0.3865 -0.0434 0.6513
C19 C 0.4445(3) 0.0603(3) 0.7172(3)
H20 H 0.4707 0.1122 0.6940
H21 H 0.4983 0.0358 0.7661
H22 H 0.3795 0.0692 0.7497
C20 C -0.1209(2) 0.16381(16) 0.2135(2)
C21 C -0.0884(3) 0.16776(19) 0.1148(2)
H23 H -0.0177 0.1819 0.1046
C22 C -0.1641(4) 0.1500(2) 0.0306(2)
H24 H -0.1430 0.1524 -0.0361
C23 C -0.2693(3) 0.1292(2) 0.0437(3)
C24 C -0.2972(2) 0.1241(2) 0.1433(3)
H25 H -0.3672 0.1085 0.1540
C25 C -0.2245(2) 0.1414(2) 0.2277(2)
H26 H -0.2458 0.1378 0.2944
C26 C -0.3505(4) 0.1121(3) -0.0486(3)
H27 H -0.3266 0.1375 -0.1092
H28 H -0.4194 0.1344 -0.0360
H29 H -0.3569 0.0536 -0.0592
loop_
_geom_bond_atom_site_label_1
_geom_bond_atom_site_label_2
_geom_bond_site_symmetry_1
_geom_bond_site_symmetry_2
S1 N1 1_555 1_555
P1 O1 1_555 1_555
N1 H1 1_555 1_555
N2 N1 1_555 1_555
O2 P1 1_555 1_555
O3 P1 1_555 1_555
O4 S1 1_555 1_555
O5 S1 1_555 1_555
C1 P1 1_555 1_555
H2 C1 1_555 1_555
C2 C1 1_555 1_555
C3 C2 1_555 1_555
H3 C3 1_555 1_555
C4 C3 1_555 1_555
H4 C4 1_555 1_555
C5 C4 1_555 1_555
H5 C5 1_555 1_555
C6 C5 1_555 1_555
H6 C6 1_555 1_555
C7 C2 1_555 1_555
C8 C7 1_555 1_555
H7 C8 1_555 1_555
C9 N2 1_555 1_555
C10 C9 1_555 1_555
C11 C10 1_555 1_555
H8 C11 1_555 1_555
C12 C11 1_555 1_555
H9 C12 1_555 1_555
C13 C12 1_555 1_555
H10 C13 1_555 1_555
C14 C13 1_555 1_555
H11 C14 1_555 1_555
C15 C10 1_555 1_555
H12 C15 1_555 1_555
C16 O2 1_555 1_555
H13 C16 1_555 1_555
H14 C16 1_555 1_555
C17 C16 1_555 1_555
H15 C17 1_555 1_555
H16 C17 1_555 1_555
H17 C17 1_555 1_555
C18 O3 1_555 1_555
H18 C18 1_555 1_555
H19 C18 1_555 1_555
C19 C18 1_555 1_555
H20 C19 1_555 1_555
H21 C19 1_555 1_555
H22 C19 1_555 1_555
C20 S1 1_555 1_555
C21 C20 1_555 1_555
H23 C21 1_555 1_555
C22 C21 1_555 1_555
H24 C22 1_555 1_555
C23 C22 1_555 1_555
C24 C23 1_555 1_555
H25 C24 1_555 1_555
C25 C20 1_555 1_555
H26 C25 1_555 1_555
C26 C23 1_555 1_555
H27 C26 1_555 1_555
H28 C26 1_555 1_555
H29 C26 1_555 1_555
N2 C1 1_555 1_555
C6 C7 1_555 1_555
C8 C9 1_555 1_555
C14 C15 1_555 1_555
C24 C25 1_555 1_555

#END
