
#######################################################################
#
#                 Cambridge Crystallographic Data Centre
#                                CCDC 
#
#######################################################################
#
# If this CIF has been generated from an entry in the Cambridge 
# Structural Database, then it will include bibliographic, chemical, 
# crystal, experimental, refinement or atomic coordinate data resulting 
# from the CCDC's data processing and validation procedures.
#
#######################################################################

data_RUNGEN01
_chemical_name_common            sinoracutine
_chemical_formula_moiety         'C17 H17 N1 O3'
_chemical_name_systematic        
11-Hydroxy-10-methoxy-3-methyl-1,2,3,3a-tetrahydro-4H-benzo[6,7]indeno[1,7a-b]pyrrol-4-one
_symmetry_cell_setting           orthorhombic
_symmetry_space_group_name_H-M   'P b c a'
_symmetry_Int_Tables_number      61
_space_group_name_Hall           '-P 2ac 2ab'
loop_
_symmetry_equiv_pos_site_id
_symmetry_equiv_pos_as_xyz
1 x,y,z
2 1/2-x,-y,1/2+z
3 -x,1/2+y,1/2-z
4 1/2+x,1/2-y,-z
5 -x,-y,-z
6 1/2+x,y,1/2-z
7 x,1/2-y,1/2+z
8 1/2-x,1/2+y,z
_cell_length_a                   14.888(3)
_cell_length_b                   10.331(2)
_cell_length_c                   17.724(4)
_cell_angle_alpha                90
_cell_angle_beta                 90
_cell_angle_gamma                90
_cell_volume                     2726.09
_cell_formula_units_Z            8
_exptl_crystal_recrystallization_method acetone
loop_
_atom_site_label
_atom_site_type_symbol
_atom_site_fract_x
_atom_site_fract_y
_atom_site_fract_z
O1 O 0.73897(8) 0.54129(12) 0.46831(7)
O2 O 0.72989(8) 0.38293(12) 0.57986(7)
O3 O 0.63767(10) -0.05974(13) 0.72274(8)
N1 N 0.70149(10) 0.21370(14) 0.68811(8)
C1 C 0.52651(12) 0.37835(18) 0.42048(10)
H1 H 0.4810 0.3783 0.3829
C2 C 0.60023(12) 0.46003(17) 0.41239(10)
H2 H 0.6054 0.5147 0.3695
C3 C 0.66586(11) 0.46053(16) 0.46755(9)
C4 C 0.66102(11) 0.37506(16) 0.53007(9)
C5 C 0.57329(11) 0.21108(16) 0.60812(10)
C6 C 0.49861(12) 0.11156(18) 0.60020(11)
C7 C 0.42661(13) 0.13311(19) 0.54805(12)
H3 H 0.3717 0.0871 0.5531
C8 C 0.43742(12) 0.21899(19) 0.49189(11)
H4 H 0.3900 0.2295 0.4565
C9 C 0.51818(11) 0.29680(17) 0.48258(10)
C10 C 0.58731(11) 0.29216(16) 0.53743(9)
C11 C 0.55614(12) 0.30433(17) 0.67771(10)
H5 H 0.5587 0.3960 0.6617
H6 H 0.4965 0.2873 0.7004
C12 C 0.63144(13) 0.27458(18) 0.73458(10)
H7 H 0.6539 0.3549 0.7585
H8 H 0.6102 0.2148 0.7744
C13 C 0.65219(12) 0.12711(16) 0.63772(10)
H9 H 0.6912 0.0971 0.5952
C14 C 0.60374(13) 0.01187(17) 0.67543(10)
C15 C 0.51409(14) 0.00694(19) 0.64407(11)
H10 H 0.4720 -0.0604 0.6531
C16 C 0.75035(13) 0.62503(17) 0.40493(10)
H11 H 0.8063 0.6741 0.4106
H12 H 0.6995 0.6851 0.4020
H13 H 0.7530 0.5733 0.3586
C17 C 0.77712(14) 0.1570(2) 0.73022(12)
H14 H 0.7561(16) 0.100(2) 0.7695(14)
H15 H 0.8150(16) 0.228(2) 0.7518(14)
H16 H 0.8153(17) 0.109(2) 0.6939(14)
H17 H 0.7233(19) 0.323(3) 0.6198(18)
loop_
_geom_bond_atom_site_label_1
_geom_bond_atom_site_label_2
_geom_bond_site_symmetry_1
_geom_bond_site_symmetry_2
O1 C3 1_555 1_555
O2 C4 1_555 1_555
O3 C14 1_555 1_555
N1 C12 1_555 1_555
C1 H1 1_555 1_555
C2 C1 1_555 1_555
H2 C2 1_555 1_555
C3 C2 1_555 1_555
C4 C3 1_555 1_555
C5 C6 1_555 1_555
C6 C7 1_555 1_555
C7 H3 1_555 1_555
C8 C7 1_555 1_555
H4 C8 1_555 1_555
C9 C1 1_555 1_555
C10 C4 1_555 1_555
C11 C5 1_555 1_555
H5 C11 1_555 1_555
H6 C11 1_555 1_555
C12 C11 1_555 1_555
H7 C12 1_555 1_555
H8 C12 1_555 1_555
C13 N1 1_555 1_555
H9 C13 1_555 1_555
C14 C13 1_555 1_555
C15 C6 1_555 1_555
H10 C15 1_555 1_555
C16 O1 1_555 1_555
H11 C16 1_555 1_555
H12 C16 1_555 1_555
H13 C16 1_555 1_555
C17 N1 1_555 1_555
H14 C17 1_555 1_555
H15 C17 1_555 1_555
H16 C17 1_555 1_555
H17 O2 1_555 1_555
C5 C10 1_555 1_555
C5 C13 1_555 1_555
C8 C9 1_555 1_555
C9 C10 1_555 1_555
C14 C15 1_555 1_555

#END
