
#######################################################################
#
#                 Cambridge Crystallographic Data Centre
#                                CCDC 
#
#######################################################################
#
# If this CIF has been generated from an entry in the Cambridge 
# Structural Database, then it will include bibliographic, chemical, 
# crystal, experimental, refinement or atomic coordinate data resulting 
# from the CCDC's data processing and validation procedures.
#
#######################################################################

data_RUNJOB
_chemical_formula_moiety         'C23 H19 Br1 N2'
_chemical_name_systematic        
1-(4-bromophenyl)-2-(diphenylmethyl)-5-methyl-1H-imidazole
_symmetry_cell_setting           triclinic
_symmetry_space_group_name_H-M   'P -1'
_symmetry_Int_Tables_number      2
_space_group_name_Hall           '-P 1'
loop_
_symmetry_equiv_pos_site_id
_symmetry_equiv_pos_as_xyz
1 x,y,z
2 -x,-y,-z
_cell_length_a                   6.4726(3)
_cell_length_b                   8.9058(4)
_cell_length_c                   17.1414(8)
_cell_angle_alpha                78.595(4)
_cell_angle_beta                 79.298(4)
_cell_angle_gamma                86.710(4)
_cell_volume                     951.516
_exptl_crystal_colour            colorless
_exptl_crystal_description       block
_cell_formula_units_Z            2
loop_
_atom_site_label
_atom_site_type_symbol
_atom_site_fract_x
_atom_site_fract_y
_atom_site_fract_z
Br1 Br 0.98484(5) 0.67269(5) 0.16749(2)
N1 N 0.4340(4) 0.1612(3) 0.14057(15)
N2 N 0.2401(4) -0.0455(3) 0.16664(16)
C1 C 0.4796(5) 0.3955(4) 0.18859(19)
H1 H 0.3373 0.3957 0.2111
C2 C 0.6044(5) 0.5127(4) 0.19426(19)
H2 H 0.5465 0.5919 0.2201
C3 C 0.8141(5) 0.5107(4) 0.16146(19)
C4 C 0.9023(5) 0.3940(4) 0.1229(2)
H3 H 1.0448 0.3937 0.1007
C5 C 0.7764(5) 0.2775(4) 0.1177(2)
H4 H 0.8347 0.1979 0.0924
C6 C 0.5648(4) 0.2788(3) 0.14988(18)
C7 C 0.3702(5) 0.1508(4) 0.06866(18)
C8 C 0.2534(5) 0.0248(4) 0.0871(2)
H5 H 0.1889 -0.0108 0.0503
C9 C 0.4303(6) 0.2663(4) -0.0080(2)
H6 H 0.3734 0.3652 0.0000
H7 H 0.3751 0.2367 -0.0508
H8 H 0.5808 0.2708 -0.0220
C10 C 0.3507(4) 0.0392(4) 0.19746(18)
C11 C 0.3785(4) 0.0170(4) 0.28450(18)
H9 H 0.5118 0.0640 0.2844
C12 C 0.3977(5) -0.1518(4) 0.32337(18)
C13 C 0.2313(5) -0.2506(4) 0.33562(19)
H10 H 0.1059 -0.2140 0.3190
C14 C 0.2496(5) -0.4022(4) 0.3721(2)
H11 H 0.1376 -0.4674 0.3793
C15 C 0.4326(6) -0.4568(4) 0.3976(2)
H12 H 0.4445 -0.5588 0.4226
C16 C 0.5978(6) -0.3613(5) 0.3865(2)
H13 H 0.7219 -0.3984 0.4040
C17 C 0.5810(5) -0.2102(4) 0.3495(2)
H14 H 0.6948 -0.1464 0.3419
C18 C 0.2070(5) 0.0978(3) 0.33656(18)
C19 C 0.2373(5) 0.1199(4) 0.4116(2)
H15 H 0.3636 0.0883 0.4289
C20 C 0.0829(6) 0.1880(4) 0.4607(2)
H16 H 0.1061 0.2012 0.5108
C21 C -0.1043(6) 0.2366(4) 0.4369(2)
H17 H -0.2082 0.2823 0.4704
C22 C -0.1355(6) 0.2165(5) 0.3630(2)
H18 H -0.2611 0.2501 0.3458
C23 C 0.0172(5) 0.1467(4) 0.3134(2)
H19 H -0.0083 0.1325 0.2638
loop_
_geom_bond_atom_site_label_1
_geom_bond_atom_site_label_2
_geom_bond_site_symmetry_1
_geom_bond_site_symmetry_2
Br1 C3 1_555 1_555
N1 C6 1_555 1_555
N2 C8 1_555 1_555
C1 H1 1_555 1_555
C2 C1 1_555 1_555
H2 C2 1_555 1_555
C3 C2 1_555 1_555
C4 C3 1_555 1_555
H3 C4 1_555 1_555
C5 C4 1_555 1_555
H4 C5 1_555 1_555
C6 C1 1_555 1_555
C7 N1 1_555 1_555
C8 C7 1_555 1_555
H5 C8 1_555 1_555
C9 C7 1_555 1_555
H6 C9 1_555 1_555
H7 C9 1_555 1_555
H8 C9 1_555 1_555
C10 N1 1_555 1_555
C11 C10 1_555 1_555
H9 C11 1_555 1_555
C12 C11 1_555 1_555
C13 C12 1_555 1_555
H10 C13 1_555 1_555
C14 C13 1_555 1_555
H11 C14 1_555 1_555
C15 C14 1_555 1_555
H12 C15 1_555 1_555
C16 C15 1_555 1_555
H13 C16 1_555 1_555
C17 C12 1_555 1_555
H14 C17 1_555 1_555
C18 C11 1_555 1_555
C19 C18 1_555 1_555
H15 C19 1_555 1_555
C20 C19 1_555 1_555
H16 C20 1_555 1_555
C21 C20 1_555 1_555
H17 C21 1_555 1_555
C22 C21 1_555 1_555
H18 C22 1_555 1_555
C23 C18 1_555 1_555
H19 C23 1_555 1_555
N2 C10 1_555 1_555
C5 C6 1_555 1_555
C16 C17 1_555 1_555
C22 C23 1_555 1_555

#END
