
#######################################################################
#
#                 Cambridge Crystallographic Data Centre
#                                CCDC 
#
#######################################################################
#
# If this CIF has been generated from an entry in the Cambridge 
# Structural Database, then it will include bibliographic, chemical, 
# crystal, experimental, refinement or atomic coordinate data resulting 
# from the CCDC's data processing and validation procedures.
#
#######################################################################

data_RUNPEV
_chemical_formula_moiety         'C19 H30 O2 Si2'
_chemical_name_systematic        
rac-3,7-bis(Trimethylsilanyl)-1,4a,5,8a,9,9a-hexahydro-4H-cyclopenta(b)naphthalene-2,6-dione
_symmetry_cell_setting           triclinic
_symmetry_space_group_name_H-M   'P -1'
_symmetry_Int_Tables_number      2
_space_group_name_Hall           '-P 1'
loop_
_symmetry_equiv_pos_site_id
_symmetry_equiv_pos_as_xyz
1 x,y,z
2 -x,-y,-z
_cell_length_a                   6.8483(5)
_cell_length_b                   14.531(2)
_cell_length_c                   22.560(2)
_cell_angle_alpha                106.602(6)
_cell_angle_beta                 93.405(5)
_cell_angle_gamma                101.127(5)
_cell_volume                     2095.26
_exptl_crystal_colour            colorless
_exptl_crystal_description       prism
_chemical_melting_point          125-127deg.C
_cell_formula_units_Z            4
loop_
_atom_site_label
_atom_site_type_symbol
_atom_site_fract_x
_atom_site_fract_y
_atom_site_fract_z
Si1 Si -0.2791(2) -0.4024(1) 0.40499(8)
Si2 Si 0.6347(2) 0.1523(1) 0.38141(7)
O1 O -0.2570(6) -0.1857(3) 0.4732(2)
O2 O 0.8058(5) 0.0082(3) 0.2602(2)
C1 C -0.1486(7) -0.2900(4) 0.3866(2)
C2 C -0.1679(8) -0.1919(4) 0.4278(3)
C3 C -0.0789(9) -0.1035(4) 0.4101(3)
C4 C 0.1043(7) -0.1115(4) 0.3768(2)
C5 C 0.1920(8) -0.0191(4) 0.3596(3)
C6 C 0.3547(7) -0.0330(3) 0.3191(2)
C7 C 0.5340(7) 0.0268(3) 0.3236(2)
C8 C 0.6413(8) -0.0236(4) 0.2728(2)
C9 C 0.513(1) -0.1232(5) 0.2391(2)
C10 C 0.3152(8) -0.1284(4) 0.2655(2)
C11 C 0.2379(9) -0.2168(4) 0.2872(3)
C12 C 0.0560(8) -0.2036(4) 0.3207(2)
C13 C -0.0454(8) -0.2906(4) 0.3386(3)
C14 C -0.1712(9) -0.4070(4) 0.4808(3)
C15 C -0.5487(9) -0.4054(4) 0.4043(3)
C16 C -0.2401(9) -0.5118(4) 0.3446(3)
C17 C 0.7139(9) 0.1381(4) 0.4573(2)
C18 C 0.4396(8) 0.2255(3) 0.3907(2)
C19 C 0.8497(8) 0.2173(4) 0.3528(3)
H1 H -0.056(6) -0.050(3) 0.442(2)
H2 H -0.175(6) -0.095(3) 0.385(2)
H3 H 0.215(5) -0.121(3) 0.402(2)
H4 H 0.246(6) 0.035(3) 0.397(2)
H5 H 0.096(6) -0.007(3) 0.338(2)
H6 H 0.591(6) -0.178(3) 0.243(2)
H7 H 0.514(7) -0.136(3) 0.204(2)
H8 H 0.213(6) -0.116(3) 0.237(2)
H9 H 0.336(6) -0.226(3) 0.313(2)
H10 H 0.217(6) -0.279(3) 0.257(2)
H11 H -0.040(6) -0.193(3) 0.295(2)
H12 H -0.026(6) -0.346(3) 0.314(2)
H13 H -0.1874 -0.3411 0.5167
H14 H -0.0125 -0.4065 0.4788
H15 H -0.2468 -0.4718 0.4907
H16 H -0.6056 -0.4062 0.3577
H17 H -0.5674 -0.3398 0.4386
H18 H -0.6201 -0.4708 0.4141
H19 H -0.0817 -0.5093 0.3453
H20 H -0.3041 -0.5113 0.2995
H21 H -0.3172 -0.5767 0.3556
H22 H 0.8282 0.0956 0.4520
H23 H 0.5830 0.0994 0.4732
H24 H 0.7695 0.2104 0.4906
H25 H 0.3144 0.1854 0.4078
H26 H 0.3944 0.2324 0.3464
H27 H 0.5000 0.2963 0.4247
H28 H 0.8021 0.2251 0.3083
H29 H 0.9667 0.1750 0.3479
H30 H 0.9076 0.2895 0.3867
Si3 Si 0.0547(2) -0.1860(1) 0.06396(7)
Si4 Si 0.5318(3) 0.4764(1) 0.13438(8)
O3 O 0.4674(6) -0.0945(3) 0.0372(2)
O4 O 0.1957(7) 0.5155(3) 0.2225(2)
C20 C 0.2212(8) -0.0614(4) 0.1030(3)
C21 C 0.4105(9) -0.0354(4) 0.0799(3)
C22 C 0.5467(9) 0.0656(4) 0.1117(3)
C23 C 0.4189(8) 0.1415(4) 0.1350(3)
C24 C 0.5444(9) 0.2451(5) 0.1655(3)
C25 C 0.4170(8) 0.3165(4) 0.1906(2)
C26 C 0.4032(8) 0.4006(4) 0.1806(2)
C27 C 0.248(1) 0.4366(4) 0.2160(3)
C28 C 0.162(2) 0.3629(7) 0.2488(5)
C29 C 0.271(1) 0.2838(4) 0.2331(3)
C30 C 0.1525(9) 0.1806(4) 0.2029(3)
C31 C 0.2843(8) 0.1085(4) 0.1798(2)
C32 C 0.1697(9) 0.0065(4) 0.1511(3)
C33 C -0.0122(9) -0.1974(4) -0.0194(3)
C34 C 0.1777(9) -0.2837(4) 0.0719(3)
C35 C -0.1751(9) -0.1957(4) 0.1033(3)
C36 C 0.345(1) 0.4844(5) 0.0752(3)
C37 C 0.731(1) 0.4264(5) 0.0966(4)
C38 C 0.646(1) 0.5987(5) 0.1851(3)
H31 H 0.649(6) 0.094(3) 0.088(2)
H32 H 0.629(6) 0.054(3) 0.145(2)
H33 H 0.320(5) 0.144(3) 0.099(2)
H34 H 0.617(6) 0.265(3) 0.140(2)
H35 H 0.639(6) 0.249(3) 0.199(2)
H36 H 0.007(6) 0.343(3) 0.234(2)
H37 H 0.13(1) 0.380(5) 0.270(3)
H38 H 0.368(6) 0.277(3) 0.267(2)
H39 H 0.057(6) 0.189(3) 0.172(2)
H40 H 0.049(5) 0.155(3) 0.224(2)
H41 H 0.361(6) 0.103(3) 0.212(2)
H42 H 0.030(6) -0.013(3) 0.162(2)
H43 H 0.1226 -0.1892 -0.0417
H44 H -0.0915 -0.1398 -0.0218
H45 H -0.1098 -0.2693 -0.0415
H46 H 0.2141 -0.2738 0.1215
H47 H 0.3180 -0.2767 0.0507
H48 H 0.0824 -0.3547 0.0495
H49 H -0.2512 -0.1382 0.0973
H50 H -0.1370 -0.1867 0.1510
H51 H -0.2717 -0.2676 0.0791
H52 H 0.2354 0.5184 0.0976
H53 H 0.2839 0.4106 0.0447
H54 H 0.4273 0.5286 0.0484
H55 H 0.6637 0.3523 0.064
H56 H 0.8398 0.4212 0.1309
H57 H 0.8048 0.4702 0.0687
H58 H 0.7504 0.5954 0.2203
H59 H 0.5245 0.6329 0.2057
H60 H 0.7176 0.6434 0.1572
loop_
_geom_bond_atom_site_label_1
_geom_bond_atom_site_label_2
_geom_bond_site_symmetry_1
_geom_bond_site_symmetry_2
Si1 C1 1_555 1_555
Si2 C7 1_555 1_555
O1 C2 1_555 1_555
O2 C8 1_555 1_555
C1 C2 1_555 1_555
C2 C3 1_555 1_555
C3 C4 1_555 1_555
C4 C5 1_555 1_555
C5 C6 1_555 1_555
C6 C7 1_555 1_555
C7 C8 1_555 1_555
C8 C9 1_555 1_555
C9 C10 1_555 1_555
C10 C6 1_555 1_555
C11 C10 1_555 1_555
C12 C4 1_555 1_555
C13 C1 1_555 1_555
C14 Si1 1_555 1_555
C15 Si1 1_555 1_555
C16 Si1 1_555 1_555
C17 Si2 1_555 1_555
C18 Si2 1_555 1_555
C19 Si2 1_555 1_555
Si3 C20 1_555 1_555
Si4 C26 1_555 1_555
O3 C21 1_555 1_555
O4 C27 1_555 1_555
C20 C21 1_555 1_555
C21 C22 1_555 1_555
C22 C23 1_555 1_555
C23 C24 1_555 1_555
C24 C25 1_555 1_555
C25 C26 1_555 1_555
C26 C27 1_555 1_555
C27 C28 1_555 1_555
C28 C29 1_555 1_555
C29 C25 1_555 1_555
C30 C29 1_555 1_555
C31 C23 1_555 1_555
C32 C20 1_555 1_555
C33 Si3 1_555 1_555
C34 Si3 1_555 1_555
C35 Si3 1_555 1_555
C36 Si4 1_555 1_555
C37 Si4 1_555 1_555
C38 Si4 1_555 1_555
H1 C3 1_555 1_555
H2 C3 1_555 1_555
H3 C4 1_555 1_555
H4 C5 1_555 1_555
H5 C5 1_555 1_555
H6 C9 1_555 1_555
H7 C9 1_555 1_555
H8 C10 1_555 1_555
H9 C11 1_555 1_555
H10 C11 1_555 1_555
H11 C12 1_555 1_555
H12 C13 1_555 1_555
H13 C14 1_555 1_555
H14 C14 1_555 1_555
H15 C14 1_555 1_555
H16 C15 1_555 1_555
H17 C15 1_555 1_555
H18 C15 1_555 1_555
H19 C16 1_555 1_555
H20 C16 1_555 1_555
H21 C16 1_555 1_555
H22 C17 1_555 1_555
H23 C17 1_555 1_555
H24 C17 1_555 1_555
H25 C18 1_555 1_555
H26 C18 1_555 1_555
H27 C18 1_555 1_555
H28 C19 1_555 1_555
H29 C19 1_555 1_555
H30 C19 1_555 1_555
H31 C22 1_555 1_555
H32 C22 1_555 1_555
H33 C23 1_555 1_555
H34 C24 1_555 1_555
H35 C24 1_555 1_555
H36 C28 1_555 1_555
H37 C28 1_555 1_555
H38 C29 1_555 1_555
H39 C30 1_555 1_555
H40 C30 1_555 1_555
H41 C31 1_555 1_555
H42 C32 1_555 1_555
H43 C33 1_555 1_555
H44 C33 1_555 1_555
H45 C33 1_555 1_555
H46 C34 1_555 1_555
H47 C34 1_555 1_555
H48 C34 1_555 1_555
H49 C35 1_555 1_555
H50 C35 1_555 1_555
H51 C35 1_555 1_555
H52 C36 1_555 1_555
H53 C36 1_555 1_555
H54 C36 1_555 1_555
H55 C37 1_555 1_555
H56 C37 1_555 1_555
H57 C37 1_555 1_555
H58 C38 1_555 1_555
H59 C38 1_555 1_555
H60 C38 1_555 1_555
C11 C12 1_555 1_555
C12 C13 1_555 1_555
C30 C31 1_555 1_555
C31 C32 1_555 1_555

#END
