
#######################################################################
#
#                 Cambridge Crystallographic Data Centre
#                                CCDC 
#
#######################################################################
#
# If this CIF has been generated from an entry in the Cambridge 
# Structural Database, then it will include bibliographic, chemical, 
# crystal, experimental, refinement or atomic coordinate data resulting 
# from the CCDC's data processing and validation procedures.
#
#######################################################################

data_RUNPOH
_chemical_formula_moiety         'C18 H23 N1 O2'
_chemical_name_systematic        2-(octylamino)-1,4-naphthoquinone
_symmetry_cell_setting           triclinic
_symmetry_space_group_name_H-M   'P -1'
_symmetry_Int_Tables_number      2
_space_group_name_Hall           '-P 1'
loop_
_symmetry_equiv_pos_site_id
_symmetry_equiv_pos_as_xyz
1 x,y,z
2 -x,-y,-z
_cell_length_a                   5.3227(12)
_cell_length_b                   8.589(2)
_cell_length_c                   18.567(4)
_cell_angle_alpha                100.614(11)
_cell_angle_beta                 90.244(11)
_cell_angle_gamma                102.259(11)
_cell_volume                     814.443
_exptl_crystal_colour            orange
_exptl_crystal_description       block
_cell_formula_units_Z            2
loop_
_atom_site_label
_atom_site_type_symbol
_atom_site_fract_x
_atom_site_fract_y
_atom_site_fract_z
O1 O 1.3489(4) 0.5260(3) 0.57886(14)
O2 O 0.4236(5) 0.1735(3) 0.62040(15)
N1 N 1.1281(5) 0.2830(3) 0.47034(16)
H1 H 1.2744 0.3461 0.4666
C1 C 1.0033(6) 0.3088(4) 0.53191(19)
C2 C 1.1391(6) 0.4444(4) 0.5904(2)
C3 C 0.7646(6) 0.2217(4) 0.5438(2)
H2 H 0.6811 0.1385 0.5067
C4 C 1.2134(6) 0.1391(4) 0.3495(2)
H3 H 1.3654 0.1112 0.3680
H4 H 1.2665 0.2433 0.3346
C5 C 1.1390(7) 0.5970(5) 0.7167(2)
H5 H 1.3018 0.6568 0.7101
C6 C 1.0158(6) 0.4770(4) 0.6607(2)
C7 C 1.0267(6) 0.1531(4) 0.40964(18)
H6 H 0.8690 0.1719 0.3900
H7 H 0.9848 0.0515 0.4272
C8 C 1.0978(7) 0.0124(4) 0.2835(2)
H8 H 1.0385 -0.0904 0.2993
H9 H 0.9487 0.0428 0.2646
C9 C 0.6398(7) 0.2538(5) 0.6110(2)
C10 C 0.7737(7) 0.3860(4) 0.6712(2)
C11 C 0.6588(8) 0.4186(6) 0.7366(3)
H10 H 0.4964 0.3587 0.7435
C12 C 1.0251(9) 0.6297(5) 0.7820(2)
H11 H 1.1095 0.7118 0.8195
C13 C 1.2786(8) -0.0113(5) 0.2224(2)
H12 H 1.3488 0.0933 0.2095
H13 H 1.4209 -0.0500 0.2403
C14 C 0.7840(10) 0.5401(6) 0.7920(3)
H14 H 0.7060 0.5620 0.8364
C15 C 1.1608(9) -0.1273(5) 0.1542(2)
H15 H 1.0304 -0.0830 0.1333
H16 H 1.0753 -0.2286 0.1678
C16 C 1.3492(11) -0.1637(7) 0.0955(3)
H17 H 1.4414 -0.0618 0.0839
H18 H 1.4742 -0.2133 0.1156
C17 C 1.2340(14) -0.2700(9) 0.0274(3)
H19 H 1.1179 -0.2173 0.0053
H20 H 1.1326 -0.3694 0.0391
C18 C 1.4237(18) -0.3118(11) -0.0268(4)
H21 H 1.3351 -0.3815 -0.0699
H22 H 1.5222 -0.2144 -0.0397
H23 H 1.5369 -0.3667 -0.0059
loop_
_geom_bond_atom_site_label_1
_geom_bond_atom_site_label_2
_geom_bond_site_symmetry_1
_geom_bond_site_symmetry_2
O1 C2 1_555 1_555
O2 C9 1_555 1_555
N1 H1 1_555 1_555
C1 N1 1_555 1_555
C2 C1 1_555 1_555
C3 C1 1_555 1_555
H2 C3 1_555 1_555
C4 H3 1_555 1_555
H4 C4 1_555 1_555
C5 H5 1_555 1_555
C6 C2 1_555 1_555
C7 N1 1_555 1_555
H6 C7 1_555 1_555
H7 C7 1_555 1_555
C8 C4 1_555 1_555
H8 C8 1_555 1_555
H9 C8 1_555 1_555
C9 C3 1_555 1_555
C10 C6 1_555 1_555
C11 C10 1_555 1_555
H10 C11 1_555 1_555
C12 C5 1_555 1_555
H11 C12 1_555 1_555
C13 C8 1_555 1_555
H12 C13 1_555 1_555
H13 C13 1_555 1_555
C14 C11 1_555 1_555
H14 C14 1_555 1_555
C15 C13 1_555 1_555
H15 C15 1_555 1_555
H16 C15 1_555 1_555
C16 C15 1_555 1_555
H17 C16 1_555 1_555
H18 C16 1_555 1_555
C17 C16 1_555 1_555
H19 C17 1_555 1_555
H20 C17 1_555 1_555
C18 C17 1_555 1_555
H21 C18 1_555 1_555
H22 C18 1_555 1_555
H23 C18 1_555 1_555
C4 C7 1_555 1_555
C5 C6 1_555 1_555
C9 C10 1_555 1_555
C12 C14 1_555 1_555

#END
