
#######################################################################
#
#                 Cambridge Crystallographic Data Centre
#                                CCDC 
#
#######################################################################
#
# If this CIF has been generated from an entry in the Cambridge 
# Structural Database, then it will include bibliographic, chemical, 
# crystal, experimental, refinement or atomic coordinate data resulting 
# from the CCDC's data processing and validation procedures.
#
#######################################################################

data_RUPMOG
_chemical_name_common            
6-(2,4-Difluorophenyl)-3-(3-ethynylphenyl)-2H-benzo[e][1,3]oxazine-2,4(3H)-dione
_chemical_formula_moiety         'C22 H11 F2 N1 O3'
_chemical_name_systematic        
6-(2,4-Difluorophenyl)-3-(3-ethynylphenyl)-2H-1,3-benzoxazine-2,4(3H)-dione
_chemical_properties_biological  'osteoclast-inhibitory activity'
_symmetry_cell_setting           monoclinic
_symmetry_space_group_name_H-M   'C 2/c'
_symmetry_Int_Tables_number      15
_space_group_name_Hall           '-C 2yn'
loop_
_symmetry_equiv_pos_site_id
_symmetry_equiv_pos_as_xyz
1 x,y,z
2 -x,y,1/2-z
3 1/2+x,1/2+y,z
4 1/2-x,1/2+y,1/2-z
5 -x,-y,-z
6 x,-y,1/2+z
7 1/2-x,1/2-y,-z
8 1/2+x,1/2-y,1/2+z
_cell_length_a                   19.917(2)
_cell_length_b                   6.2274(7)
_cell_length_c                   28.200(2)
_cell_angle_alpha                90
_cell_angle_beta                 104.992(6)
_cell_angle_gamma                90
_cell_volume                     3378.62
_exptl_crystal_colour            colorless
_exptl_crystal_description       prism
_chemical_melting_point          '195-196 deg.C'
_cell_formula_units_Z            8
_chemical_properties_physical    Deliquescent
_exptl_crystal_recrystallization_method ethanol
loop_
_atom_site_label
_atom_site_type_symbol
_atom_site_fract_x
_atom_site_fract_y
_atom_site_fract_z
C1 C -0.0033(2) 0.2904(6) 0.14475(12)
C2 C -0.0424(2) 0.1125(6) 0.12565(13)
H1 H -0.0542 0.0051 0.1460
C3 C -0.0631(2) 0.1008(7) 0.07574(14)
C4 C -0.0503(3) 0.2575(8) 0.04547(14)
H2 H -0.0679 0.2471 0.0109
C5 C -0.0109(3) 0.4326(8) 0.06682(14)
H3 H -0.0012 0.5425 0.0462
C6 C 0.0151(2) 0.4534(6) 0.11793(12)
C7 C 0.0593(2) 0.6410(6) 0.13910(12)
C8 C 0.0958(2) 0.7548(6) 0.11025(12)
H4 H 0.0938 0.7038 0.0782
C9 C 0.1342(2) 0.9368(6) 0.12672(12)
H5 H 0.1576 1.0115 0.1063
C10 C 0.1379(2) 1.0079(6) 0.17397(11)
C11 C 0.1059(2) 0.8959(6) 0.20425(11)
C12 C 0.0655(2) 0.7168(6) 0.18664(11)
H6 H 0.0417 0.6451 0.2072
C13 C 0.1869(2) 1.2660(7) 0.23588(12)
C14 C 0.1152(2) 0.9700(6) 0.25497(12)
C15 C 0.1765(2) 1.2200(6) 0.31841(11)
C16 C 0.1566(2) 1.4190(6) 0.33172(13)
H7 H 0.1298 1.5132 0.3077
C17 C 0.1764(2) 1.4790(7) 0.38062(14)
H8 H 0.1638 1.6164 0.3901
C18 C 0.2142(2) 1.3411(6) 0.41550(14)
H9 H 0.2268 1.3834 0.4490
C19 C 0.2341(2) 1.1422(6) 0.40251(12)
C20 C 0.2157(2) 1.0819(6) 0.35290(11)
H10 H 0.2300 0.9472 0.3431
C21 C 0.2747(2) 0.9981(7) 0.43866(13)
C22 C 0.3073(3) 0.8808(8) 0.46847(15)
H11 H 0.3315 0.7663 0.4956
F1 F 0.01724(12) 0.3005(3) 0.19468(7)
F2 F -0.10102(15) -0.0745(4) 0.05508(8)
N1 N 0.15694(16) 1.1519(5) 0.26743(9)
O1 O 0.17442(14) 1.1929(4) 0.18875(8)
O2 O 0.22203(15) 1.4214(5) 0.24730(9)
O3 O 0.08992(14) 0.8806(4) 0.28488(8)
loop_
_geom_bond_atom_site_label_1
_geom_bond_atom_site_label_2
_geom_bond_site_symmetry_1
_geom_bond_site_symmetry_2
C1 C2 1_555 1_555
C2 H1 1_555 1_555
C3 C2 1_555 1_555
C4 C3 1_555 1_555
H2 C4 1_555 1_555
C5 C4 1_555 1_555
H3 C5 1_555 1_555
C6 C1 1_555 1_555
C7 C6 1_555 1_555
C8 C7 1_555 1_555
H4 C8 1_555 1_555
C9 C8 1_555 1_555
H5 C9 1_555 1_555
C10 C9 1_555 1_555
C11 C10 1_555 1_555
C12 C7 1_555 1_555
H6 C12 1_555 1_555
C13 N1 1_555 1_555
C14 C11 1_555 1_555
C15 C16 1_555 1_555
C16 H7 1_555 1_555
C17 C16 1_555 1_555
H8 C17 1_555 1_555
C18 C17 1_555 1_555
H9 C18 1_555 1_555
C19 C18 1_555 1_555
C20 C15 1_555 1_555
H10 C20 1_555 1_555
C21 C19 1_555 1_555
C22 C21 1_555 1_555
H11 C22 1_555 1_555
F1 C1 1_555 1_555
F2 C3 1_555 1_555
N1 C14 1_555 1_555
O1 C10 1_555 1_555
O2 C13 1_555 1_555
O3 C14 1_555 1_555
C5 C6 1_555 1_555
C11 C12 1_555 1_555
C13 O1 1_555 1_555
C15 N1 1_555 1_555
C19 C20 1_555 1_555

#END
