
#######################################################################
#
#                 Cambridge Crystallographic Data Centre
#                                CCDC 
#
#######################################################################
#
# If this CIF has been generated from an entry in the Cambridge 
# Structural Database, then it will include bibliographic, chemical, 
# crystal, experimental, refinement or atomic coordinate data resulting 
# from the CCDC's data processing and validation procedures.
#
#######################################################################

data_RUPPEZ
_chemical_formula_moiety         'C98 F42,C7 H8'
_chemical_name_systematic        
'2,5,11,22,30,43,54,63,68,70,74,79,82,84-tetradecakis(Trifluoromethyl)-C~s~-C84fullerene toluene solvate'
_symmetry_cell_setting           orthorhombic
_symmetry_space_group_name_H-M   'P b c n'
_symmetry_Int_Tables_number      60
_space_group_name_Hall           '-P 2n 2ab'
loop_
_symmetry_equiv_pos_site_id
_symmetry_equiv_pos_as_xyz
1 x,y,z
2 1/2-x,1/2-y,1/2+z
3 -x,y,1/2-z
4 1/2+x,1/2-y,-z
5 -x,-y,-z
6 1/2+x,1/2+y,1/2-z
7 x,-y,1/2+z
8 1/2-x,1/2+y,z
_cell_length_a                   29.598(2)
_cell_length_b                   20.2650(10)
_cell_length_c                   24.133(2)
_cell_angle_alpha                90
_cell_angle_beta                 90
_cell_angle_gamma                90
_cell_volume                     14475.1
_exptl_crystal_colour            orange
_exptl_crystal_description       needle
_cell_formula_units_Z            8
loop_
_atom_site_label
_atom_site_type_symbol
_atom_site_fract_x
_atom_site_fract_y
_atom_site_fract_z
F1 F 1.03239(19) 0.3177(3) 0.3117(3)
F2 F 1.0356(2) 0.3922(3) 0.3740(4)
F3 F 1.06133(16) 0.2952(3) 0.3897(2)
F4 F 1.0506(2) 0.2816(3) 0.5562(3)
F5 F 1.02191(18) 0.3761(3) 0.5744(3)
F6 F 1.04990(17) 0.3576(4) 0.4941(3)
F7 F 0.9191(3) 0.4972(2) 0.3124(3)
F8 F 0.9727(2) 0.4300(3) 0.2956(3)
F9 F 0.9152(2) 0.4305(3) 0.2435(2)
F10 F 0.89603(19) 0.4731(4) 0.6339(3)
F11 F 0.9564(3) 0.4753(4) 0.5859(3)
F12 F 0.9490(3) 0.4068(3) 0.6531(3)
F13 F 0.81076(9) 0.15036(14) 0.71825(9)
F14 F 0.88340(10) 0.14912(18) 0.71810(10)
F15 F 0.84639(12) 0.06411(14) 0.69337(10)
F16 F 0.81073(8) 0.15725(12) 0.18469(9)
F17 F 0.85090(12) 0.07305(13) 0.20721(10)
F18 F 0.88322(9) 0.16303(16) 0.18505(10)
F19 F 0.84093(12) 0.28347(14) 0.18089(10)
F20 F 0.85079(16) 0.38217(15) 0.20506(12)
F21 F 0.78501(11) 0.3417(3) 0.20518(13)
F22 F 0.84168(12) 0.27454(15) 0.72508(11)
F23 F 0.85226(15) 0.37410(17) 0.70193(12)
F24 F 0.78610(11) 0.3348(2) 0.70269(12)
F25 F 0.75968(11) 0.05188(13) 0.66086(9)
F26 F 0.78492(11) -0.03062(12) 0.61449(11)
F27 F 0.71914(10) 0.00442(16) 0.59938(11)
F28 F 0.77490(10) -0.02874(11) 0.29192(10)
F29 F 0.76587(11) 0.05531(12) 0.23958(9)
F30 F 0.71405(9) 0.02760(17) 0.29594(11)
F31 F 0.63776(12) 0.08114(18) 0.49834(17)
F32 F 0.63511(14) 0.17632(16) 0.5384(2)
F33 F 0.66518(11) 0.0950(3) 0.58008(13)
F34 F 0.65739(11) 0.1385(2) 0.31809(11)
F35 F 0.65093(11) 0.05994(14) 0.37693(16)
F36 F 0.62482(10) 0.15481(19) 0.39618(15)
F37 F 0.63604(11) 0.27662(16) 0.35480(16)
F38 F 0.67658(10) 0.36021(16) 0.33219(12)
F39 F 0.64232(11) 0.35974(17) 0.41005(12)
F40 F 0.65692(11) 0.29597(19) 0.58434(12)
F41 F 0.66424(12) 0.38239(15) 0.53509(17)
F42 F 0.62503(10) 0.30132(17) 0.50543(12)
C1 C 0.98490(13) 0.2466(2) 0.48023(18)
C2 C 0.96854(14) 0.1899(2) 0.50781(16)
C3 C 0.94854(13) 0.1347(2) 0.48050(16)
C4 C 0.94860(13) 0.1354(2) 0.42142(16)
C5 C 0.96837(13) 0.1914(2) 0.39523(16)
C6 C 0.98468(13) 0.2473(2) 0.42429(18)
C7 C 0.98015(14) 0.3107(2) 0.39001(18)
C8 C 0.95469(14) 0.3629(2) 0.42399(18)
C9 C 0.95456(14) 0.3617(2) 0.48383(18)
C10 C 0.98014(14) 0.3093(2) 0.51600(18)
C11 C 0.95045(13) 0.2810(2) 0.56276(17)
C12 C 0.95132(13) 0.2118(2) 0.56047(17)
C13 C 0.92001(13) 0.1751(2) 0.58802(15)
C14 C 0.90434(13) 0.1140(2) 0.56490(16)
C15 C 0.91574(13) 0.09509(19) 0.51044(15)
C16 C 0.88359(13) 0.05540(18) 0.48047(15)
C17 C 0.88368(13) 0.05606(18) 0.41979(15)
C18 C 0.91549(13) 0.09679(19) 0.39088(15)
C19 C 0.90390(13) 0.11749(19) 0.33688(15)
C20 C 0.91925(13) 0.1793(2) 0.31550(16)
C21 C 0.95088(13) 0.2153(2) 0.34344(17)
C22 C 0.95003(14) 0.2850(2) 0.34229(18)
C23 C 0.91413(13) 0.3173(2) 0.31803(16)
C24 C 0.90528(14) 0.3887(2) 0.33600(16)
C25 C 0.92191(14) 0.3989(2) 0.39638(18)
C26 C 0.88681(14) 0.42930(19) 0.42623(17)
C27 C 0.88702(14) 0.4284(2) 0.48340(17)
C28 C 0.92187(14) 0.3972(2) 0.51247(17)
C29 C 0.90575(14) 0.3846(2) 0.57259(16)
C30 C 0.91445(13) 0.3128(2) 0.58863(16)
C31 C 0.88082(13) 0.2734(2) 0.61664(15)
C32 C 0.88528(13) 0.2059(2) 0.61878(15)
C33 C 0.84778(13) 0.1548(2) 0.62947(14)
C34 C 0.86199(13) 0.10050(18) 0.58931(14)
C35 C 0.83165(13) 0.06312(18) 0.56121(15)
C36 C 0.84332(13) 0.03785(18) 0.50822(15)
C37 C 0.80192(13) 0.02629(17) 0.47890(15)
C38 C 0.80182(13) 0.02721(17) 0.42158(14)
C39 C 0.84315(13) 0.03954(17) 0.39224(14)
C40 C 0.83117(13) 0.06621(17) 0.33937(14)
C41 C 0.86160(13) 0.10482(18) 0.31264(14)
C42 C 0.84716(13) 0.16083(19) 0.27367(14)
C43 C 0.88454(13) 0.2116(2) 0.28590(15)
C44 C 0.88012(13) 0.2793(2) 0.28902(15)
C45 C 0.83328(13) 0.30667(19) 0.27689(15)
C46 C 0.82196(13) 0.36229(18) 0.31698(15)
C47 C 0.85438(14) 0.39916(19) 0.34351(16)
C48 C 0.84496(14) 0.42443(18) 0.39652(17)
C49 C 0.80388(13) 0.41289(17) 0.42446(16)
C50 C 0.80386(13) 0.41190(18) 0.48489(16)
C51 C 0.84499(14) 0.42314(18) 0.51325(16)
C52 C 0.85441(14) 0.39549(19) 0.56547(16)
C53 C 0.82241(13) 0.35769(18) 0.59159(15)
C54 C 0.83376(13) 0.30064(19) 0.63009(15)
C55 C 0.79731(12) 0.25040(19) 0.61194(14)
C56 C 0.80210(13) 0.18276(19) 0.60999(14)
C57 C 0.77070(13) 0.14533(18) 0.57743(14)
C58 C 0.78055(13) 0.07148(18) 0.56707(14)
C59 C 0.76518(13) 0.05256(17) 0.50888(14)
C60 C 0.73143(12) 0.08344(17) 0.48083(14)
C61 C 0.73129(12) 0.08481(17) 0.42181(14)
C62 C 0.76501(13) 0.05451(17) 0.39247(14)
C63 C 0.77997(13) 0.07553(17) 0.33475(14)
C64 C 0.77034(12) 0.14964(17) 0.32597(13)
C65 C 0.80156(12) 0.18804(19) 0.29421(13)
C66 C 0.79682(12) 0.25551(19) 0.29346(13)
C67 C 0.76395(12) 0.28635(17) 0.32661(13)
C68 C 0.78029(13) 0.35182(18) 0.34230(14)
C69 C 0.77015(13) 0.37655(18) 0.39540(15)
C70 C 0.73595(12) 0.34243(18) 0.42601(14)
C71 C 0.73601(12) 0.34169(18) 0.48221(15)
C72 C 0.77019(13) 0.37486(17) 0.51387(14)
C73 C 0.78041(12) 0.34791(18) 0.56599(15)
C74 C 0.76452(12) 0.28210(18) 0.57997(14)
C75 C 0.73357(12) 0.24681(18) 0.54790(14)
C76 C 0.73633(12) 0.17793(18) 0.54720(14)
C77 C 0.70608(12) 0.14131(17) 0.50520(14)
C78 C 0.69893(12) 0.18343(19) 0.45200(14)
C79 C 0.70576(12) 0.14333(18) 0.39794(14)
C80 C 0.73592(12) 0.18084(18) 0.35685(14)
C81 C 0.73317(12) 0.25013(17) 0.35753(13)
C82 C 0.70651(12) 0.28889(18) 0.40100(14)
C83 C 0.69719(12) 0.24802(19) 0.45271(14)
C84 C 0.70604(12) 0.28740(18) 0.50574(14)
C85 C 1.02692(17) 0.3341(3) 0.3681(2)
C86 C 1.02631(15) 0.3334(3) 0.5384(2)
C87 C 0.92661(16) 0.4410(2) 0.29672(18)
C88 C 0.92664(15) 0.4363(2) 0.61319(18)
C89 C 0.84712(15) 0.1294(2) 0.69098(16)
C90 C 0.84747(15) 0.1383(2) 0.21183(16)
C91 C 0.82721(15) 0.3282(2) 0.21554(16)
C92 C 0.82843(15) 0.3212(2) 0.69150(16)
C93 C 0.76067(14) 0.02426(19) 0.61134(15)
C94 C 0.75875(14) 0.03162(18) 0.28989(15)
C95 C 0.66028(13) 0.12271(18) 0.53136(16)
C96 C 0.65885(13) 0.12414(18) 0.37243(14)
C97 C 0.66398(13) 0.3210(2) 0.37424(16)
C98 C 0.66257(13) 0.31705(19) 0.53333(16)
C99 C 0.5259(5) 0.4801(8) 0.6056(11)
C100 C 0.4960(5) 0.5239(7) 0.5807(7)
H1 H 0.4961 0.5294 0.5416
C101 C 0.4658(5) 0.5596(8) 0.6131(10)
H2 H 0.4453 0.5895 0.5961
C102 C 0.4656(9) 0.5516(15) 0.6703(10)
H3 H 0.4449 0.5760 0.6924
C103 C 0.4955(12) 0.5078(17) 0.6951(7)
H4 H 0.4953 0.5023 0.7342
C104 C 0.5257(9) 0.4721(13) 0.6628(11)
H5 H 0.5461 0.4422 0.6798
C105 C 0.5571(4) 0.4404(6) 0.5793(8)
H6 H 0.5484 0.4346 0.5405
H7 H 0.5582 0.3973 0.5977
H8 H 0.5870 0.4612 0.5812
F43? F 1.0466(3) 0.2961(5) 0.3431(5)
F44? F 1.0193(3) 0.3954(5) 0.3406(4)
F45? F 1.0519(2) 0.3595(5) 0.4138(3)
F46? F 1.0592(3) 0.2986(7) 0.5253(6)
F47? F 1.0268(3) 0.3364(9) 0.5965(4)
F48? F 1.0363(3) 0.3975(4) 0.5261(4)
F49? F 0.9490(4) 0.4917(4) 0.3260(3)
F50? F 0.9495(3) 0.4209(4) 0.2600(3)
F51? F 0.8919(2) 0.4802(3) 0.2737(3)
F52? F 0.9106(4) 0.4966(4) 0.6041(6)
F53? F 0.9697(2) 0.4377(6) 0.6115(4)
F54? F 0.9164(4) 0.4233(5) 0.6677(3)
F55? F 0.6501(7) 0.0596(11) 0.5255(11)
F56? F 0.6243(5) 0.1554(14) 0.5123(10)
F57? F 0.6566(7) 0.1370(13) 0.5868(7)
F58? F 0.6627(5) 0.0942(13) 0.3265(7)
F59? F 0.6366(6) 0.0833(10) 0.4079(7)
F60? F 0.6320(6) 0.1755(9) 0.3677(12)
F61? F 0.6560(6) 0.2992(11) 0.3225(6)
F62? F 0.6623(7) 0.3842(9) 0.3722(10)
F63? F 0.6242(4) 0.3040(9) 0.4010(5)
F64? F 0.6366(6) 0.2768(8) 0.5547(9)
F65? F 0.6753(5) 0.3592(8) 0.5731(6)
F66? F 0.6404(5) 0.3573(8) 0.4966(6)
H9? H 0.4290 0.7919 0.6935
C106? C 0.4578(6) 0.7841(9) 0.7097(7)
H10? H 0.4656 0.8761 0.7424
C107? C 0.4796(6) 0.8341(7) 0.7387(8)
C108? C 0.5203(7) 0.7111(8) 0.7280(10)
C109? C 0.4580(5) 0.7612(9) 0.7430(8)
H11? H 0.4292 0.7533 0.7269
C110? C 0.4783(5) 0.8227(8) 0.7377(5)
H12? H 0.4635 0.8568 0.7178
C111? C 0.4782(7) 0.7226(8) 0.7043(7)
H13? H 0.4633 0.6884 0.6845
C112? C 0.480(2) 0.648(3) 0.672(2)
H14? H 0.4511 0.6263 0.6749
H15? H 0.5036 0.6207 0.6896
H16? H 0.4881 0.6547 0.6328
loop_
_geom_bond_atom_site_label_1
_geom_bond_atom_site_label_2
_geom_bond_site_symmetry_1
_geom_bond_site_symmetry_2
F1 C85 1_555 1_555
F2 C85 1_555 1_555
F3 C85 1_555 1_555
F4 C86 1_555 1_555
F5 C86 1_555 1_555
F6 C86 1_555 1_555
F7 C87 1_555 1_555
F8 C87 1_555 1_555
F9 C87 1_555 1_555
F10 C88 1_555 1_555
F11 C88 1_555 1_555
F12 C88 1_555 1_555
F13 C89 1_555 1_555
F14 C89 1_555 1_555
F15 C89 1_555 1_555
F16 C90 1_555 1_555
F17 C90 1_555 1_555
F18 C90 1_555 1_555
F19 C91 1_555 1_555
F20 C91 1_555 1_555
F21 C91 1_555 1_555
F22 C92 1_555 1_555
F23 C92 1_555 1_555
F24 C92 1_555 1_555
F25 C93 1_555 1_555
F26 C93 1_555 1_555
F27 C93 1_555 1_555
F28 C94 1_555 1_555
F29 C94 1_555 1_555
F30 C94 1_555 1_555
F31 C95 1_555 1_555
F32 C95 1_555 1_555
F33 C95 1_555 1_555
F34 C96 1_555 1_555
F35 C96 1_555 1_555
F36 C96 1_555 1_555
F37 C97 1_555 1_555
F38 C97 1_555 1_555
F39 C97 1_555 1_555
F40 C98 1_555 1_555
F41 C98 1_555 1_555
F42 C98 1_555 1_555
C1 C2 1_555 1_555
C2 C3 1_555 1_555
C3 C4 1_555 1_555
C4 C5 1_555 1_555
C5 C6 1_555 1_555
C6 C1 1_555 1_555
C7 C6 1_555 1_555
C8 C7 1_555 1_555
C9 C8 1_555 1_555
C10 C1 1_555 1_555
C11 C10 1_555 1_555
C12 C2 1_555 1_555
C13 C12 1_555 1_555
C14 C13 1_555 1_555
C15 C3 1_555 1_555
C16 C15 1_555 1_555
C17 C16 1_555 1_555
C18 C4 1_555 1_555
C19 C18 1_555 1_555
C20 C19 1_555 1_555
C21 C5 1_555 1_555
C22 C7 1_555 1_555
C23 C22 1_555 1_555
C24 C23 1_555 1_555
C25 C8 1_555 1_555
C26 C25 1_555 1_555
C27 C26 1_555 1_555
C28 C9 1_555 1_555
C29 C28 1_555 1_555
C30 C11 1_555 1_555
C31 C30 1_555 1_555
C32 C13 1_555 1_555
C33 C32 1_555 1_555
C34 C14 1_555 1_555
C35 C34 1_555 1_555
C36 C16 1_555 1_555
C37 C36 1_555 1_555
C38 C37 1_555 1_555
C39 C17 1_555 1_555
C40 C39 1_555 1_555
C41 C19 1_555 1_555
C42 C41 1_555 1_555
C43 C20 1_555 1_555
C44 C23 1_555 1_555
C45 C44 1_555 1_555
C46 C45 1_555 1_555
C47 C24 1_555 1_555
C48 C26 1_555 1_555
C49 C48 1_555 1_555
C50 C49 1_555 1_555
C51 C27 1_555 1_555
C52 C29 1_555 1_555
C53 C52 1_555 1_555
C54 C31 1_555 1_555
C55 C54 1_555 1_555
C56 C33 1_555 1_555
C57 C56 1_555 1_555
C58 C35 1_555 1_555
C59 C37 1_555 1_555
C60 C59 1_555 1_555
C61 C60 1_555 1_555
C62 C38 1_555 1_555
C63 C40 1_555 1_555
C64 C63 1_555 1_555
C65 C42 1_555 1_555
C66 C45 1_555 1_555
C67 C66 1_555 1_555
C68 C46 1_555 1_555
C69 C49 1_555 1_555
C70 C69 1_555 1_555
C71 C70 1_555 1_555
C72 C50 1_555 1_555
C73 C53 1_555 1_555
C74 C55 1_555 1_555
C75 C74 1_555 1_555
C76 C57 1_555 1_555
C77 C60 1_555 1_555
C78 C77 1_555 1_555
C79 C61 1_555 1_555
C80 C64 1_555 1_555
C81 C67 1_555 1_555
C82 C70 1_555 1_555
C83 C78 1_555 1_555
C84 C71 1_555 1_555
C85 C7 1_555 1_555
C86 C10 1_555 1_555
C87 C24 1_555 1_555
C88 C29 1_555 1_555
C89 C33 1_555 1_555
C90 C42 1_555 1_555
C91 C45 1_555 1_555
C92 C54 1_555 1_555
C93 C58 1_555 1_555
C94 C63 1_555 1_555
C95 C77 1_555 1_555
C96 C79 1_555 1_555
C97 C82 1_555 1_555
C98 C84 1_555 1_555
C99 C100 1_555 1_555
C100 H1 1_555 1_555
C101 C100 1_555 1_555
H2 C101 1_555 1_555
C102 C101 1_555 1_555
H3 C102 1_555 1_555
C103 C102 1_555 1_555
H4 C103 1_555 1_555
C104 C99 1_555 1_555
H5 C104 1_555 1_555
C105 C99 1_555 1_555
H6 C105 1_555 1_555
H7 C105 1_555 1_555
H8 C105 1_555 1_555
C9 C10 1_555 1_555
C11 C12 1_555 1_555
C14 C15 1_555 1_555
C17 C18 1_555 1_555
C20 C21 1_555 1_555
C21 C22 1_555 1_555
C24 C25 1_555 1_555
C27 C28 1_555 1_555
C29 C30 1_555 1_555
C31 C32 1_555 1_555
C33 C34 1_555 1_555
C35 C36 1_555 1_555
C38 C39 1_555 1_555
C40 C41 1_555 1_555
C42 C43 1_555 1_555
C43 C44 1_555 1_555
C46 C47 1_555 1_555
C47 C48 1_555 1_555
C50 C51 1_555 1_555
C51 C52 1_555 1_555
C53 C54 1_555 1_555
C55 C56 1_555 1_555
C57 C58 1_555 1_555
C58 C59 1_555 1_555
C61 C62 1_555 1_555
C62 C63 1_555 1_555
C64 C65 1_555 1_555
C65 C66 1_555 1_555
C67 C68 1_555 1_555
C68 C69 1_555 1_555
C71 C72 1_555 1_555
C72 C73 1_555 1_555
C73 C74 1_555 1_555
C75 C76 1_555 1_555
C75 C84 1_555 1_555
C76 C77 1_555 1_555
C78 C79 1_555 1_555
C79 C80 1_555 1_555
C80 C81 1_555 1_555
C81 C82 1_555 1_555
C82 C83 1_555 1_555
C83 C84 1_555 1_555
C103 C104 1_555 1_555

#END
