
#######################################################################
#
#                 Cambridge Crystallographic Data Centre
#                                CCDC 
#
#######################################################################
#
# If this CIF has been generated from an entry in the Cambridge 
# Structural Database, then it will include bibliographic, chemical, 
# crystal, experimental, refinement or atomic coordinate data resulting 
# from the CCDC's data processing and validation procedures.
#
#######################################################################

data_RUPQAW
_chemical_formula_moiety         'C102 F54,0.57(C7 H8)'
_chemical_name_systematic        
'7,10,13,15,18,24,27,32,34,39,45,52,57,60,63,68,79,82-octadecakis(Trifluoromethyl)-C~s~-C84fullerene toluene solvate'
_symmetry_cell_setting           monoclinic
_symmetry_space_group_name_H-M   'P 21/c'
_symmetry_Int_Tables_number      14
_space_group_name_Hall           '-P 2ybc'
loop_
_symmetry_equiv_pos_site_id
_symmetry_equiv_pos_as_xyz
1 x,y,z
2 -x,1/2+y,1/2-z
3 -x,-y,-z
4 x,1/2-y,1/2+z
_cell_length_a                   20.959(2)
_cell_length_b                   15.6250(10)
_cell_length_c                   24.592(2)
_cell_angle_alpha                90
_cell_angle_beta                 92.184(9)
_cell_angle_gamma                90
_cell_volume                     8047.65
_exptl_crystal_colour            yellow
_exptl_crystal_description       plate
_cell_formula_units_Z            4
loop_
_atom_site_label
_atom_site_type_symbol
_atom_site_fract_x
_atom_site_fract_y
_atom_site_fract_z
F1 F 0.8731(9) 0.8741(11) 0.0442(6)
F2 F 0.8750(10) 0.7774(11) -0.0214(8)
F3 F 0.9489(10) 0.7773(9) 0.0395(7)
F4 F 0.8197(10) 0.6273(12) -0.0896(7)
F5 F 0.7544(10) 0.7317(11) -0.0678(7)
F6 F 0.7174(9) 0.6182(9) -0.0945(6)
F7 F 0.7486(11) 0.3477(14) -0.0843(7)
F8 F 0.8462(17) 0.3718(17) -0.0792(7)
F9 F 0.7823(10) 0.4685(15) -0.0994(7)
F10 F 0.9582(12) 0.2575(14) 0.0548(9)
F11 F 0.9593(9) 0.3354(12) -0.0060(8)
F12 F 0.8893(11) 0.2407(13) -0.0045(8)
F13 F 1.0400(10) 0.438(2) 0.0572(9)
F14 F 1.0507(11) 0.3703(13) 0.1295(11)
F15 F 1.0738(12) 0.5034(18) 0.1095(11)
F16 F 0.7427(9) 0.8953(9) 0.0451(6)
F17 F 0.6875(11) 0.9092(8) 0.1153(6)
F18 F 0.7888(11) 0.9281(12) 0.1171(6)
F19 F 0.5640(9) 0.7156(11) 0.0278(7)
F20 F 0.6302(11) 0.7202(12) -0.0392(6)
F21 F 0.6297(10) 0.8148(13) 0.0226(6)
F22 F 0.6119(14) 0.2694(13) -0.0195(8)
F23 F 0.6526(12) 0.1732(15) 0.0360(9)
F24 F 0.7001(12) 0.2191(13) -0.0216(9)
F25 F 0.7820(12) 0.1019(14) 0.1188(10)
F26 F 0.8639(12) 0.1353(16) 0.0973(13)
F27 F 0.7966(12) 0.1400(11) 0.0452(9)
F28 F 1.0722(10) 0.4779(12) 0.2337(11)
F29 F 1.0440(11) 0.4298(18) 0.3095(10)
F30 F 1.0429(9) 0.3533(10) 0.2397(9)
F31 F 0.7395(10) 0.9244(12) 0.2174(7)
F32 F 0.7899(12) 0.8845(12) 0.2921(9)
F33 F 0.6872(10) 0.8717(10) 0.2824(7)
F34 F 0.5272(9) 0.2956(12) 0.0599(7)
F35 F 0.4892(9) 0.4206(15) 0.0478(8)
F36 F 0.4893(10) 0.3534(12) 0.1267(8)
F37 F 0.8292(14) 0.1313(16) 0.2910(10)
F38 F 0.7618(11) 0.0961(12) 0.2197(11)
F39 F 0.8529(12) 0.1163(10) 0.2206(9)
F40 F 0.9715(14) 0.317(2) 0.3308(11)
F41 F 0.9061(13) 0.2659(14) 0.3716(9)
F42 F 0.9438(13) 0.2265(14) 0.2955(8)
F43 F 0.9651(11) 0.7083(11) 0.3356(7)
F44 F 1.0261(9) 0.6087(11) 0.3282(7)
F45 F 0.9577(11) 0.6057(12) 0.3895(9)
F46 F 0.6423(8) 0.7648(12) 0.3533(8)
F47 F 0.5752(10) 0.7822(15) 0.2851(8)
F48 F 0.5631(9) 0.6818(14) 0.3396(7)
F49 F 0.9153(9) 0.4470(11) 0.4202(6)
F50 F 0.8306(10) 0.4102(14) 0.4390(6)
F51 F 0.8415(12) 0.5355(13) 0.4367(6)
F52 F 0.6444(10) 0.5955(11) 0.4118(6)
F53 F 0.6262(13) 0.4652(15) 0.4161(9)
F54 F 0.7201(11) 0.5118(12) 0.4386(9)
C1 C 0.8231(15) 0.577(2) 0.0122(9)
C2 C 0.8382(17) 0.492(2) 0.0140(12)
C3 C 0.8889(16) 0.4479(15) 0.0452(13)
C4 C 0.9238(14) 0.5028(13) 0.0685(12)
C5 C 0.9188(10) 0.589(2) 0.0755(12)
C6 C 0.8629(12) 0.6360(13) 0.0490(9)
C7 C 0.8465(13) 0.7191(18) 0.0629(12)
C8 C 0.7745(12) 0.7285(18) 0.0591(11)
C9 C 0.7390(12) 0.6889(16) 0.0378(11)
C10 C 0.7671(15) 0.6107(16) -0.0035(7)
C11 C 0.7134(16) 0.549(3) 0.0063(11)
C12 C 0.7212(16) 0.4598(18) 0.0061(10)
C13 C 0.7875(15) 0.4284(17) -0.0022(10)
C14 C 0.8152(14) 0.3460(15) 0.0375(10)
C15 C 0.8733(11) 0.3614(14) 0.0519(8)
C16 C 0.8726(18) 0.347(2) 0.1151(12)
C17 C 0.9187(19) 0.392(2) 0.1459(13)
C18 C 0.9687(17) 0.4719(14) 0.1166(13)
C19 C 0.9636(12) 0.5452(15) 0.1578(10)
C20 C 0.9417(12) 0.6214(18) 0.1281(13)
C21 C 0.9128(13) 0.6846(16) 0.1564(10)
C22 C 0.8668(13) 0.7315(15) 0.1277(10)
C23 C 0.8152(17) 0.7678(17) 0.1496(11)
C24 C 0.7585(19) 0.7843(17) 0.1138(16)
C25 C 0.7009(13) 0.7408(14) 0.1384(10)
C26 C 0.6596(17) 0.6848(17) 0.1110(13)
C27 C 0.6725(14) 0.6758(16) 0.0451(8)
C28 C 0.6616(17) 0.584(2) 0.0239(14)
C29 C 0.6188(13) 0.5390(15) 0.0599(12)
C30 C 0.6209(15) 0.442(2) 0.0630(13)
C31 C 0.6777(15) 0.413(2) 0.0278(12)
C32 C 0.6968(14) 0.3100(18) 0.0520(11)
C33 C 0.7678(11) 0.3077(14) 0.0523(9)
C34 C 0.7864(15) 0.251(2) 0.1070(12)
C35 C 0.8372(16) 0.2940(14) 0.1410(8)
C36 C 0.8386(15) 0.2917(18) 0.2023(12)
C37 C 0.8840(14) 0.3413(15) 0.2353(9)
C38 C 0.9190(14) 0.3944(15) 0.2033(11)
C39 C 0.9596(19) 0.4646(18) 0.2421(12)
C40 C 0.9586(15) 0.553(2) 0.2144(15)
C41 C 0.9339(16) 0.610(2) 0.2392(12)
C42 C 0.9016(16) 0.6877(19) 0.2136(10)
C43 C 0.8531(15) 0.7253(16) 0.2381(8)
C44 C 0.8157(16) 0.7663(16) 0.2077(11)
C45 C 0.7535(16) 0.7615(19) 0.2338(9)
C46 C 0.6966(15) 0.7378(19) 0.2052(12)
C47 C 0.6480(10) 0.6916(18) 0.2175(9)
C48 C 0.6168(14) 0.6446(17) 0.1904(13)
C49 C 0.6135(12) 0.6392(16) 0.1378(12)
C50 C 0.5939(14) 0.553(2) 0.1118(9)
C51 C 0.5743(15) 0.4861(18) 0.1396(12)
C52 C 0.5813(9) 0.390(2) 0.1004(12)
C53 C 0.6267(15) 0.346(2) 0.1310(13)
C54 C 0.6796(19) 0.295(2) 0.1069(13)
C55 C 0.7293(15) 0.2560(18) 0.1347(16)
C56 C 0.720(2) 0.252(2) 0.1963(13)
C57 C 0.7832(19) 0.2365(18) 0.2251(13)
C58 C 0.7622(19) 0.2858(15) 0.2776(10)
C59 C 0.7977(16) 0.3365(15) 0.3055(10)
C60 C 0.8784(14) 0.3428(15) 0.2920(11)
C61 C 0.8792(16) 0.444(2) 0.3102(11)
C62 C 0.9160(13) 0.4935(19) 0.2918(12)
C63 C 0.9134(13) 0.5852(15) 0.2981(11)
C64 C 0.8558(19) 0.6140(17) 0.3088(11)
C65 C 0.8319(16) 0.6829(16) 0.2864(11)
C66 C 0.7676(15) 0.691(2) 0.2853(10)
C67 C 0.7213(14) 0.6519(18) 0.3007(7)
C68 C 0.648(2) 0.6537(18) 0.2840(9)
C69 C 0.6188(13) 0.5795(13) 0.2751(13)
C70 C 0.5921(13) 0.568(2) 0.2199(14)
C71 C 0.5831(13) 0.486(2) 0.1974(9)
C72 C 0.6026(14) 0.4130(18) 0.2222(10)
C73 C 0.6307(16) 0.337(2) 0.1951(13)
C74 C 0.6788(16) 0.286(2) 0.2221(8)
C75 C 0.7005(14) 0.2965(18) 0.2754(12)
C76 C 0.6772(15) 0.3640(18) 0.3048(11)
C77 C 0.709(2) 0.414(2) 0.3363(12)
C78 C 0.784(2) 0.398(2) 0.3387(12)
C79 C 0.8341(14) 0.468(2) 0.3506(13)
C80 C 0.8060(15) 0.5590(19) 0.3330(10)
C81 C 0.7389(14) 0.575(2) 0.3288(10)
C82 C 0.6898(14) 0.5067(18) 0.3462(9)
C83 C 0.6332(14) 0.5086(16) 0.3000(13)
C84 C 0.6300(12) 0.4283(14) 0.2814(11)
C85 C 0.8815(15) 0.780(2) 0.0323(14)
C86 C 0.7657(19) 0.642(2) -0.0725(11)
C87 C 0.7928(17) 0.3960(18) -0.0652(15)
C88 C 0.9142(18) 0.3021(19) 0.0239(13)
C89 C 1.0359(17) 0.443(2) 0.1100(16)
C90 C 0.7426(16) 0.880(2) 0.0910(13)
C91 C 0.6242(15) 0.7297(17) 0.0132(10)
C92 C 0.671(2) 0.244(3) 0.0096(17)
C93 C 0.806(2) 0.165(2) 0.0908(18)
C94 C 1.031(2) 0.433(3) 0.2564(13)
C95 C 0.744(2) 0.8653(18) 0.2628(15)
C96 C 0.5349(9) 0.3670(15) 0.0954(10)
C97 C 0.806(2) 0.144(2) 0.2421(13)
C98 C 0.9135(16) 0.2814(18) 0.3212(14)
C99 C 0.9659(18) 0.6265(18) 0.3332(13)
C100 C 0.6097(16) 0.711(3) 0.3060(13)
C101 C 0.8468(15) 0.4696(16) 0.4121(8)
C102 C 0.669(2) 0.519(3) 0.4042(13)
C103? C 0.553(4) 0.989(5) 0.196(4)
C104? C 0.578(4) 1.083(6) 0.255(4)
C105? C 0.561(3) 1.194(5) 0.314(3)
C106? C 0.593(2) 1.022(3) 0.333(2)
loop_
_geom_bond_atom_site_label_1
_geom_bond_atom_site_label_2
_geom_bond_site_symmetry_1
_geom_bond_site_symmetry_2
F1 C85 1_555 1_555
F2 C85 1_555 1_555
F3 C85 1_555 1_555
F4 C86 1_555 1_555
F5 C86 1_555 1_555
F6 C86 1_555 1_555
F7 C87 1_555 1_555
F8 C87 1_555 1_555
F9 C87 1_555 1_555
F10 C88 1_555 1_555
F11 C88 1_555 1_555
F12 C88 1_555 1_555
F13 C89 1_555 1_555
F14 C89 1_555 1_555
F15 C89 1_555 1_555
F16 C90 1_555 1_555
F17 C90 1_555 1_555
F18 C90 1_555 1_555
F19 C91 1_555 1_555
F20 C91 1_555 1_555
F21 C91 1_555 1_555
F22 C92 1_555 1_555
F23 C92 1_555 1_555
F24 C92 1_555 1_555
F25 C93 1_555 1_555
F26 C93 1_555 1_555
F27 C93 1_555 1_555
F28 C94 1_555 1_555
F29 C94 1_555 1_555
F30 C94 1_555 1_555
F31 C95 1_555 1_555
F32 C95 1_555 1_555
F33 C95 1_555 1_555
F34 C96 1_555 1_555
F35 C96 1_555 1_555
F36 C96 1_555 1_555
F37 C97 1_555 1_555
F38 C97 1_555 1_555
F39 C97 1_555 1_555
F40 C98 1_555 1_555
F41 C98 1_555 1_555
F42 C98 1_555 1_555
F43 C99 1_555 1_555
F44 C99 1_555 1_555
F45 C99 1_555 1_555
F46 C100 1_555 1_555
F47 C100 1_555 1_555
F48 C100 1_555 1_555
F49 C101 1_555 1_555
F50 C101 1_555 1_555
F51 C101 1_555 1_555
F52 C102 1_555 1_555
F53 C102 1_555 1_555
F54 C102 1_555 1_555
C1 C2 1_555 1_555
C2 C3 1_555 1_555
C3 C4 1_555 1_555
C4 C5 1_555 1_555
C5 C6 1_555 1_555
C6 C1 1_555 1_555
C7 C6 1_555 1_555
C8 C7 1_555 1_555
C9 C8 1_555 1_555
C10 C1 1_555 1_555
C11 C10 1_555 1_555
C12 C11 1_555 1_555
C13 C2 1_555 1_555
C14 C13 1_555 1_555
C15 C3 1_555 1_555
C16 C15 1_555 1_555
C17 C16 1_555 1_555
C18 C4 1_555 1_555
C19 C18 1_555 1_555
C20 C5 1_555 1_555
C21 C20 1_555 1_555
C22 C7 1_555 1_555
C23 C22 1_555 1_555
C24 C8 1_555 1_555
C25 C24 1_555 1_555
C26 C25 1_555 1_555
C27 C9 1_555 1_555
C28 C11 1_555 1_555
C29 C28 1_555 1_555
C30 C29 1_555 1_555
C31 C12 1_555 1_555
C32 C31 1_555 1_555
C33 C14 1_555 1_555
C34 C33 1_555 1_555
C35 C16 1_555 1_555
C36 C35 1_555 1_555
C37 C36 1_555 1_555
C38 C17 1_555 1_555
C39 C38 1_555 1_555
C40 C19 1_555 1_555
C41 C40 1_555 1_555
C42 C21 1_555 1_555
C43 C42 1_555 1_555
C44 C23 1_555 1_555
C45 C44 1_555 1_555
C46 C25 1_555 1_555
C47 C46 1_555 1_555
C48 C47 1_555 1_555
C49 C26 1_555 1_555
C50 C29 1_555 1_555
C51 C50 1_555 1_555
C52 C30 1_555 1_555
C53 C52 1_555 1_555
C54 C32 1_555 1_555
C55 C34 1_555 1_555
C56 C55 1_555 1_555
C57 C36 1_555 1_555
C58 C57 1_555 1_555
C59 C58 1_555 1_555
C60 C37 1_555 1_555
C61 C60 1_555 1_555
C62 C39 1_555 1_555
C63 C41 1_555 1_555
C64 C63 1_555 1_555
C65 C43 1_555 1_555
C66 C45 1_555 1_555
C67 C66 1_555 1_555
C68 C47 1_555 1_555
C69 C68 1_555 1_555
C70 C48 1_555 1_555
C71 C51 1_555 1_555
C72 C71 1_555 1_555
C73 C53 1_555 1_555
C74 C56 1_555 1_555
C75 C58 1_555 1_555
C76 C75 1_555 1_555
C77 C76 1_555 1_555
C78 C59 1_555 1_555
C79 C61 1_555 1_555
C80 C64 1_555 1_555
C81 C67 1_555 1_555
C82 C77 1_555 1_555
C83 C69 1_555 1_555
C84 C72 1_555 1_555
C85 C7 1_555 1_555
C86 C10 1_555 1_555
C87 C13 1_555 1_555
C88 C15 1_555 1_555
C89 C18 1_555 1_555
C90 C24 1_555 1_555
C91 C27 1_555 1_555
C92 C32 1_555 1_555
C93 C34 1_555 1_555
C94 C39 1_555 1_555
C95 C45 1_555 1_555
C96 C52 1_555 1_555
C97 C57 1_555 1_555
C98 C60 1_555 1_555
C99 C63 1_555 1_555
C100 C68 1_555 1_555
C101 C79 1_555 1_555
C102 C82 1_555 1_555
C9 C10 1_555 1_555
C12 C13 1_555 1_555
C14 C15 1_555 1_555
C17 C18 1_555 1_555
C19 C20 1_555 1_555
C21 C22 1_555 1_555
C23 C24 1_555 1_555
C26 C27 1_555 1_555
C27 C28 1_555 1_555
C30 C31 1_555 1_555
C32 C33 1_555 1_555
C34 C35 1_555 1_555
C37 C38 1_555 1_555
C39 C40 1_555 1_555
C41 C42 1_555 1_555
C43 C44 1_555 1_555
C45 C46 1_555 1_555
C48 C49 1_555 1_555
C49 C50 1_555 1_555
C51 C52 1_555 1_555
C53 C54 1_555 1_555
C54 C55 1_555 1_555
C56 C57 1_555 1_555
C59 C60 1_555 1_555
C61 C62 1_555 1_555
C62 C63 1_555 1_555
C64 C65 1_555 1_555
C65 C66 1_555 1_555
C67 C68 1_555 1_555
C69 C70 1_555 1_555
C70 C71 1_555 1_555
C72 C73 1_555 1_555
C73 C74 1_555 1_555
C74 C75 1_555 1_555
C76 C84 1_555 1_555
C77 C78 1_555 1_555
C78 C79 1_555 1_555
C79 C80 1_555 1_555
C80 C81 1_555 1_555
C81 C82 1_555 1_555
C82 C83 1_555 1_555
C83 C84 1_555 1_555

#END
