
#######################################################################
#
#                 Cambridge Crystallographic Data Centre
#                                CCDC 
#
#######################################################################
#
# If this CIF has been generated from an entry in the Cambridge 
# Structural Database, then it will include bibliographic, chemical, 
# crystal, experimental, refinement or atomic coordinate data resulting 
# from the CCDC's data processing and validation procedures.
#
#######################################################################

data_RUPQOJ
_chemical_formula_moiety         'C17 H26 O4'
_chemical_name_systematic        
8-Hydroxy-3-isopropyl-3a,7a-dimethyldecahydro-6H-oxireno[1,8a]azuleno[5,6-b]furan-6-one
_symmetry_cell_setting           monoclinic
_symmetry_space_group_name_H-M   'P 21'
_symmetry_Int_Tables_number      4
_space_group_name_Hall           'P 2yb'
loop_
_symmetry_equiv_pos_site_id
_symmetry_equiv_pos_as_xyz
1 x,y,z
2 -x,1/2+y,-z
_cell_length_a                   6.6601(14)
_cell_length_b                   11.827(3)
_cell_length_c                   9.660(2)
_cell_angle_alpha                90
_cell_angle_beta                 97.035(3)
_cell_angle_gamma                90
_cell_volume                     755.18
_exptl_crystal_colour            colorless
_exptl_crystal_description       plate
_chemical_melting_point          '146-147 deg.C'
_cell_formula_units_Z            2
loop_
_atom_site_label
_atom_site_type_symbol
_atom_site_fract_x
_atom_site_fract_y
_atom_site_fract_z
O1 O 1.5866(2) 0.55075(14) 0.76265(15)
O2 O 1.3512(2) 0.55313(11) 0.90787(13)
O3 O 0.85282(18) 0.40807(11) 1.08659(13)
O4 O 1.2594(2) 0.16182(10) 0.88981(14)
H1 H 1.2183 0.1023 0.9244
C1 C 1.4701(3) 0.49938(16) 0.82505(18)
C2 C 1.4330(3) 0.37354(15) 0.82832(19)
H2 H 1.5464 0.3346 0.8849
H3 H 1.4173 0.3417 0.7329
C3 C 1.2368(2) 0.36088(14) 0.89481(16)
C4 C 1.0534(3) 0.35984(17) 0.78229(18)
H4 H 1.0537 0.2899 0.7279
H5 H 1.0603 0.4250 0.7204
H6 H 0.9289 0.3639 0.8266
C5 C 1.2470(2) 0.25336(14) 0.98453(17)
H7 H 1.3750 0.2554 1.0504
C6 C 1.0699(3) 0.23661(13) 1.06971(18)
H8 H 0.9479 0.2163 1.0055
H9 H 1.1014 0.1724 1.1345
C7 C 1.0233(2) 0.33944(13) 1.15289(17)
C8 C 0.8387(3) 0.35096(16) 1.21887(18)
H10 H 0.7459 0.2849 1.2229
C9 C 0.8753(3) 0.43071(16) 1.34035(19)
H11 H 0.8955 0.3886 1.4295
H12 H 0.7599 0.4833 1.3421
C10 C 1.0697(3) 0.49577(15) 1.31585(18)
H13 H 1.0279 0.5606 1.2523
C11 C 1.1793(3) 0.54535(16) 1.45183(17)
H14 H 1.2309 0.4810 1.5133
C12 C 1.0311(3) 0.61396(17) 1.5285(2)
H15 H 1.1028 0.6450 1.6148
H16 H 0.9214 0.5647 1.5510
H17 H 0.9747 0.6760 1.4687
C13 C 1.3594(3) 0.62068(17) 1.4291(2)
H18 H 1.4224 0.6495 1.5192
H19 H 1.3124 0.6842 1.3686
H20 H 1.4586 0.5765 1.3850
C14 C 1.1911(2) 0.41091(13) 1.23299(16)
C15 C 1.3202(2) 0.33064(14) 1.33339(17)
H21 H 1.3946 0.2784 1.2795
H22 H 1.2318 0.2875 1.3879
H23 H 1.4162 0.3750 1.3965
C16 C 1.3249(3) 0.47007(14) 1.13287(17)
H24 H 1.3512 0.5487 1.1651
H25 H 1.4568 0.4306 1.1395
C17 C 1.2335(3) 0.47281(13) 0.98038(18)
H26 H 1.0908 0.5004 0.9748
loop_
_geom_bond_atom_site_label_1
_geom_bond_atom_site_label_2
_geom_bond_site_symmetry_1
_geom_bond_site_symmetry_2
O1 C1 1_555 1_555
O2 C1 1_555 1_555
O3 C7 1_555 1_555
O4 H1 1_555 1_555
C1 C2 1_555 1_555
C2 H2 1_555 1_555
H3 C2 1_555 1_555
C3 C2 1_555 1_555
C4 C3 1_555 1_555
H4 C4 1_555 1_555
H5 C4 1_555 1_555
H6 C4 1_555 1_555
C5 O4 1_555 1_555
H7 C5 1_555 1_555
C6 C5 1_555 1_555
H8 C6 1_555 1_555
H9 C6 1_555 1_555
C7 C6 1_555 1_555
C8 O3 1_555 1_555
H10 C8 1_555 1_555
C9 C8 1_555 1_555
H11 C9 1_555 1_555
H12 C9 1_555 1_555
C10 C9 1_555 1_555
H13 C10 1_555 1_555
C11 C10 1_555 1_555
H14 C11 1_555 1_555
C12 C11 1_555 1_555
H15 C12 1_555 1_555
H16 C12 1_555 1_555
H17 C12 1_555 1_555
C13 C11 1_555 1_555
H18 C13 1_555 1_555
H19 C13 1_555 1_555
H20 C13 1_555 1_555
C14 C7 1_555 1_555
C15 C14 1_555 1_555
H21 C15 1_555 1_555
H22 C15 1_555 1_555
H23 C15 1_555 1_555
C16 C14 1_555 1_555
H24 C16 1_555 1_555
H25 C16 1_555 1_555
C17 O2 1_555 1_555
H26 C17 1_555 1_555
C3 C5 1_555 1_555
C3 C17 1_555 1_555
C7 C8 1_555 1_555
C10 C14 1_555 1_555
C16 C17 1_555 1_555

#END
