
#######################################################################
#
#                 Cambridge Crystallographic Data Centre
#                                CCDC 
#
#######################################################################
#
# If this CIF has been generated from an entry in the Cambridge 
# Structural Database, then it will include bibliographic, chemical, 
# crystal, experimental, refinement or atomic coordinate data resulting 
# from the CCDC's data processing and validation procedures.
#
#######################################################################

data_RUPQEA
_chemical_formula_moiety         '0.76(C96 F36 O1),0.24(C96 F36),C7 H8'
_chemical_name_systematic        
'((2,5,11,22,30,43,54,63,68,74,79,82-dodecakis(Trifluoromethyl)-C~s~-C84fullerene epoxide) (2,5,11,22,30,43,54,63,68,74,79,82-dodecakis(trifluoromethyl)-C~s~-C84fullerene)) toluene solvate'
_symmetry_cell_setting           triclinic
_symmetry_space_group_name_H-M   'P -1'
_symmetry_Int_Tables_number      2
_space_group_name_Hall           '-P 1'
loop_
_symmetry_equiv_pos_site_id
_symmetry_equiv_pos_as_xyz
1 x,y,z
2 -x,-y,-z
_cell_length_a                   13.2610(10)
_cell_length_b                   13.4570(10)
_cell_length_c                   21.503(2)
_cell_angle_alpha                94.761(10)
_cell_angle_beta                 103.344(10)
_cell_angle_gamma                115.854(10)
_cell_volume                     3285.24
_exptl_crystal_colour            orange
_exptl_crystal_description       block
_cell_formula_units_Z            2
_exptl_crystal_recrystallization_method toluene
loop_
_atom_site_label
_atom_site_type_symbol
_atom_site_fract_x
_atom_site_fract_y
_atom_site_fract_z
C97 C 0.9247(15) 0.7116(13) 0.2456(10)
C98 C 0.8545(9) 0.7703(12) 0.2397(9)
H1 H 0.8165 0.7786 0.1988
C99 C 0.8477(17) 0.8098(15) 0.2939(13)
H2 H 0.7946 0.8390 0.2802
C100 C 0.870(2) 0.830(2) 0.3499(11)
H3 H 0.8487 0.8683 0.3794
C101 C 0.9528(14) 0.7653(13) 0.3589(10)
H4 H 0.9881 0.7666 0.4029
C102 C 0.9780(10) 0.7122(12) 0.3145(10)
H5 H 1.0264 0.6773 0.3261
C103 C 0.9395(14) 0.6659(13) 0.2002(10)
H6 H 1.0171 0.7143 0.1959
H7 H 0.8789 0.6529 0.1598
H8 H 0.9346 0.5934 0.2080
F1 F 0.0526(5) 0.3941(6) 0.0263(3)
F2 F -0.0687(5) 0.2274(6) 0.0156(3)
F3 F 0.0440(5) 0.2675(6) -0.0395(3)
F4 F 0.3393(5) 0.2372(5) -0.0742(3)
F5 F 0.2129(5) 0.0726(7) -0.0828(3)
F6 F 0.1642(6) 0.1981(6) -0.0801(3)
F7 F 0.0956(6) 0.5380(7) 0.1390(6)
F8 F 0.2610(13) 0.6766(11) 0.1971(6)
F9 F 0.2340(10) 0.6105(10) 0.0984(6)
F10 F 0.5505(14) 0.4253(17) -0.0180(7)
F11 F 0.5910(16) 0.2839(15) -0.0166(10)
F12 F 0.7203(16) 0.4555(18) 0.0488(11)
F13 F 0.1623(8) 0.5953(8) 0.2924(4)
F14 F 0.1190(6) 0.4984(6) 0.3644(4)
F15 F 0.2847(7) 0.6356(6) 0.3830(4)
F16 F 0.8741(5) 0.3202(5) 0.1848(3)
F17 F 0.7713(5) 0.2733(8) 0.0895(4)
F18 F 0.7710(6) 0.1484(7) 0.1409(4)
F19 F 0.0453(5) 0.3126(6) 0.4187(3)
F20 F -0.0642(5) 0.2776(6) 0.3228(3)
F21 F -0.0686(6) 0.1435(7) 0.3683(4)
F22 F 0.6937(6) -0.0208(5) 0.1989(3)
F23 F 0.5242(7) -0.1656(6) 0.1694(4)
F24 F 0.5841(6) -0.0640(6) 0.1033(4)
F25 F 0.8989(4) 0.5777(6) 0.4595(3)
F26 F 0.9250(4) 0.4986(5) 0.3810(4)
F27 F 0.8974(5) 0.4192(6) 0.4630(4)
F28 F 0.1005(5) 0.1581(7) 0.4728(3)
F29 F 0.1215(6) 0.0078(7) 0.4763(4)
F30 F 0.2616(6) 0.1677(7) 0.5272(4)
F31 F 0.6305(8) -0.0550(7) 0.3927(5)
F32 F 0.4841(6) -0.1895(7) 0.3378(5)
F33 F 0.6189(10) -0.1016(9) 0.3002(6)
F34 F 0.7871(8) 0.1700(11) 0.4555(5)
F35 F 0.7752(12) 0.2841(12) 0.5233(6)
F36 F 0.6606(9) 0.0962(19) 0.5090(8)
C1 C 0.2568(6) 0.3617(8) 0.0795(5)
C2 C 0.1288(6) 0.2802(7) 0.0724(4)
C3 C 0.1087(7) 0.1579(8) 0.0651(4)
C4 C 0.1780(7) 0.1199(8) 0.0425(4)
C5 C 0.2816(7) 0.1978(8) 0.0194(5)
C6 C 0.3301(6) 0.3230(8) 0.0536(4)
C7 C 0.4491(7) 0.3859(8) 0.0755(4)
C8 C 0.5002(7) 0.4799(9) 0.1282(5)
C9 C 0.4340(7) 0.5198(7) 0.1502(5)
C10 C 0.3112(8) 0.4631(8) 0.1271(5)
C11 C 0.2549(8) 0.4944(8) 0.1724(5)
C12 C 0.1613(7) 0.3932(9) 0.1885(6)
C13 C 0.1011(9) 0.2947(11) 0.1369(5)
C14 C 0.0454(7) 0.1899(10) 0.1496(6)
C15 C 0.0598(7) 0.1077(9) 0.1136(5)
C16 C 0.0798(7) 0.0239(8) 0.1421(5)
C17 C 0.1511(7) -0.0159(7) 0.1160(5)
C18 C 0.1971(7) 0.0326(9) 0.0666(5)
C19 C 0.3065(8) 0.0493(8) 0.0639(5)
C20 C 0.3692(7) 0.1530(8) 0.0468(4)
C21 C 0.4909(8) 0.2205(10) 0.0765(5)
C22 C 0.5439(7) 0.3479(9) 0.0771(5)
C23 C 0.6334(7) 0.4126(8) 0.1436(5)
C24 C 0.6067(7) 0.4945(7) 0.1720(5)
C25 C 0.6338(7) 0.5307(7) 0.2376(6)
C26 C 0.5632(8) 0.5731(7) 0.2630(6)
C27 C 0.4648(7) 0.5673(7) 0.2176(6)
C28 C 0.3620(8) 0.5525(8) 0.2326(6)
C29 C 0.3581(8) 0.5406(8) 0.2951(6)
C30 C 0.2460(9) 0.4717(9) 0.3123(6)
C31 C 0.1556(8) 0.3811(10) 0.2536(6)
C32 C 0.0896(8) 0.2780(11) 0.2641(6)
C33 C 0.0373(7) 0.1788(10) 0.2127(7)
C34 C 0.0397(7) 0.0873(10) 0.2406(6)
C35 C 0.0693(7) 0.0112(8) 0.2059(6)
C36 C 0.1276(8) -0.0398(8) 0.2458(7)
C37 C 0.2009(10) -0.0788(8) 0.2226(7)
C38 C 0.2134(7) -0.0674(8) 0.1603(6)
C39 C 0.3164(9) -0.0620(8) 0.1440(6)
C40 C 0.3690(9) 0.0083(8) 0.1014(5)
C41 C 0.4926(8) 0.0651(9) 0.1266(5)
C42 C 0.5533(7) 0.1720(9) 0.1189(5)
C43 C 0.6707(7) 0.2449(9) 0.1685(5)
C44 C 0.6916(7) 0.3701(10) 0.1880(6)
C45 C 0.7243(7) 0.4047(10) 0.2541(5)
C46 C 0.6995(7) 0.4894(8) 0.2805(6)
C47 C 0.7003(7) 0.4906(8) 0.3472(6)
C48 C 0.6295(8) 0.5276(8) 0.3702(6)
C49 C 0.5592(8) 0.5662(8) 0.3283(6)
C50 C 0.4546(9) 0.5466(8) 0.3435(5)
C51 C 0.4112(8) 0.4738(9) 0.3863(5)
C52 C 0.2900(9) 0.4185(10) 0.3641(5)
C53 C 0.2253(8) 0.3114(11) 0.3749(5)
C54 C 0.0972(7) 0.2394(10) 0.3298(5)
C55 C 0.0760(8) 0.1193(9) 0.3101(6)
C56 C 0.1329(8) 0.0718(10) 0.3463(6)
C57 C 0.1503(9) -0.0158(9) 0.3146(7)
C58 C 0.2491(9) -0.0126(11) 0.3604(7)
C59 C 0.3145(9) -0.0535(9) 0.3347(7)
C60 C 0.2913(9) -0.0855(8) 0.2689(7)
C61 C 0.3989(11) -0.0680(9) 0.2565(7)
C62 C 0.4071(8) -0.0575(7) 0.1965(7)
C63 C 0.5301(8) 0.0139(9) 0.1847(5)
C64 C 0.6050(7) 0.1098(9) 0.2473(6)
C65 C 0.6712(8) 0.2132(10) 0.2357(6)
C66 C 0.7112(7) 0.3087(10) 0.2835(5)
C67 C 0.7015(6) 0.3043(8) 0.3438(5)
C68 C 0.7337(7) 0.4200(10) 0.3902(5)
C69 C 0.6601(10) 0.4033(12) 0.4375(6)
C70 C 0.5951(8) 0.4698(9) 0.4240(6)
C71 C 0.4740(8) 0.4286(9) 0.4221(5)
C72 C 0.4115(8) 0.3205(10) 0.4356(5)
C73 C 0.2869(8) 0.2597(10) 0.4113(5)
C74 C 0.2210(8) 0.1322(9) 0.4123(5)
C75 C 0.3018(10) 0.0833(11) 0.4137(7)
C76 C 0.4150(11) 0.1309(11) 0.4352(5)
C77 C 0.4902(8) 0.0947(10) 0.4137(6)
C78 C 0.4397(9) 0.0023(10) 0.3660(6)
C79 C 0.5005(9) -0.0166(9) 0.3183(6)
C80 C 0.5910(8) 0.0998(9) 0.3102(6)
C81 C 0.6397(8) 0.1994(10) 0.3589(6)
C82 C 0.6119(7) 0.1919(8) 0.4248(5)
C83 C 0.5916(8) 0.2928(11) 0.4475(5)
C84 C 0.4774(9) 0.2543(12) 0.4523(5)
C85 C 0.0378(9) 0.2897(9) 0.0177(6)
C86 C 0.2481(9) 0.1799(12) -0.0520(6)
C87 C 0.2110(12) 0.5814(11) 0.1509(7)
C88 C 0.6004(10) 0.3791(15) 0.0243(7)
C89 C 0.2006(11) 0.5474(12) 0.3381(8)
C90 C 0.7691(9) 0.2383(13) 0.1457(7)
C91 C 0.0009(9) 0.2398(12) 0.3584(7)
C92 C 0.5857(11) -0.0577(12) 0.1661(8)
C93 C 0.8587(8) 0.4754(9) 0.4216(6)
C94 C 0.1721(11) 0.1125(13) 0.4715(6)
C95 C 0.5556(13) -0.0913(14) 0.3364(9)
C96 C 0.7060(11) 0.1792(14) 0.4769(7)
O1 O 0.6881(8) 0.5028(10) 0.4824(5)
F37? F 0.303(3) 0.678(3) 0.141(2)
F38? F 0.124(3) 0.536(3) 0.0935(17)
F39? F 0.195(3) 0.622(3) 0.2035(17)
F40? F 0.7006(17) 0.384(3) 0.0332(10)
F41? F 0.636(3) 0.493(2) 0.0227(14)
F42? F 0.550(3) 0.323(3) -0.0351(13)
F43? F 0.681(2) 0.173(3) 0.5291(14)
F44? F 0.694(5) 0.064(4) 0.456(2)
F45? F 0.802(3) 0.245(4) 0.498(2)
loop_
_geom_bond_atom_site_label_1
_geom_bond_atom_site_label_2
_geom_bond_site_symmetry_1
_geom_bond_site_symmetry_2
F1 C85 1_555 1_555
F2 C85 1_555 1_555
F3 C85 1_555 1_555
F4 C86 1_555 1_555
F5 C86 1_555 1_555
F6 C86 1_555 1_555
F7 C87 1_555 1_555
F8 C87 1_555 1_555
F9 C87 1_555 1_555
F10 C88 1_555 1_555
F11 C88 1_555 1_555
F12 C88 1_555 1_555
F13 C89 1_555 1_555
F14 C89 1_555 1_555
F15 C89 1_555 1_555
F16 C90 1_555 1_555
F17 C90 1_555 1_555
F18 C90 1_555 1_555
F19 C91 1_555 1_555
F20 C91 1_555 1_555
F21 C91 1_555 1_555
F22 C92 1_555 1_555
F23 C92 1_555 1_555
F24 C92 1_555 1_555
F25 C93 1_555 1_555
F26 C93 1_555 1_555
F27 C93 1_555 1_555
F28 C94 1_555 1_555
F29 C94 1_555 1_555
F30 C94 1_555 1_555
F31 C95 1_555 1_555
F32 C95 1_555 1_555
F33 C95 1_555 1_555
F34 C96 1_555 1_555
F35 C96 1_555 1_555
F36 C96 1_555 1_555
C1 C2 1_555 1_555
C2 C3 1_555 1_555
C3 C4 1_555 1_555
C4 C5 1_555 1_555
C5 C6 1_555 1_555
C6 C1 1_555 1_555
C7 C6 1_555 1_555
C8 C7 1_555 1_555
C9 C8 1_555 1_555
C10 C1 1_555 1_555
C11 C10 1_555 1_555
C12 C11 1_555 1_555
C13 C2 1_555 1_555
C14 C13 1_555 1_555
C15 C3 1_555 1_555
C16 C15 1_555 1_555
C17 C16 1_555 1_555
C18 C4 1_555 1_555
C19 C18 1_555 1_555
C20 C5 1_555 1_555
C21 C20 1_555 1_555
C22 C7 1_555 1_555
C23 C22 1_555 1_555
C24 C8 1_555 1_555
C25 C24 1_555 1_555
C26 C25 1_555 1_555
C27 C9 1_555 1_555
C28 C11 1_555 1_555
C29 C28 1_555 1_555
C30 C29 1_555 1_555
C31 C12 1_555 1_555
C32 C31 1_555 1_555
C33 C14 1_555 1_555
C34 C33 1_555 1_555
C35 C16 1_555 1_555
C36 C35 1_555 1_555
C37 C36 1_555 1_555
C38 C17 1_555 1_555
C39 C38 1_555 1_555
C40 C19 1_555 1_555
C41 C40 1_555 1_555
C42 C21 1_555 1_555
C43 C42 1_555 1_555
C44 C23 1_555 1_555
C45 C44 1_555 1_555
C46 C25 1_555 1_555
C47 C46 1_555 1_555
C48 C47 1_555 1_555
C49 C26 1_555 1_555
C50 C29 1_555 1_555
C51 C50 1_555 1_555
C52 C30 1_555 1_555
C53 C52 1_555 1_555
C54 C32 1_555 1_555
C55 C34 1_555 1_555
C56 C55 1_555 1_555
C57 C36 1_555 1_555
C58 C57 1_555 1_555
C59 C58 1_555 1_555
C60 C37 1_555 1_555
C61 C60 1_555 1_555
C62 C39 1_555 1_555
C63 C41 1_555 1_555
C64 C63 1_555 1_555
C65 C43 1_555 1_555
C66 C45 1_555 1_555
C67 C66 1_555 1_555
C68 C47 1_555 1_555
C69 C68 1_555 1_555
C70 C48 1_555 1_555
C71 C51 1_555 1_555
C72 C71 1_555 1_555
C73 C53 1_555 1_555
C74 C56 1_555 1_555
C75 C58 1_555 1_555
C76 C75 1_555 1_555
C77 C76 1_555 1_555
C78 C59 1_555 1_555
C79 C61 1_555 1_555
C80 C64 1_555 1_555
C81 C67 1_555 1_555
C82 C77 1_555 1_555
C83 C69 1_555 1_555
C84 C72 1_555 1_555
C85 C2 1_555 1_555
C86 C5 1_555 1_555
C87 C11 1_555 1_555
C88 C22 1_555 1_555
C89 C30 1_555 1_555
C90 C43 1_555 1_555
C91 C54 1_555 1_555
C92 C63 1_555 1_555
C93 C68 1_555 1_555
C94 C74 1_555 1_555
C95 C79 1_555 1_555
C96 C82 1_555 1_555
O1 C69 1_555 1_555
C97 C98 1_555 1_555
C98 H1 1_555 1_555
C99 C98 1_555 1_555
H2 C99 1_555 1_555
C100 C99 1_555 1_555
H3 C100 1_555 1_555
C101 C100 1_555 1_555
H4 C101 1_555 1_555
C102 C97 1_555 1_555
H5 C102 1_555 1_555
C103 C97 1_555 1_555
H6 C103 1_555 1_555
H7 C103 1_555 1_555
H8 C103 1_555 1_555
C9 C10 1_555 1_555
C12 C13 1_555 1_555
C14 C15 1_555 1_555
C17 C18 1_555 1_555
C19 C20 1_555 1_555
C21 C22 1_555 1_555
C23 C24 1_555 1_555
C26 C27 1_555 1_555
C27 C28 1_555 1_555
C30 C31 1_555 1_555
C32 C33 1_555 1_555
C34 C35 1_555 1_555
C37 C38 1_555 1_555
C39 C40 1_555 1_555
C41 C42 1_555 1_555
C43 C44 1_555 1_555
C45 C46 1_555 1_555
C48 C49 1_555 1_555
C49 C50 1_555 1_555
C51 C52 1_555 1_555
C53 C54 1_555 1_555
C54 C55 1_555 1_555
C56 C57 1_555 1_555
C59 C60 1_555 1_555
C61 C62 1_555 1_555
C62 C63 1_555 1_555
C64 C65 1_555 1_555
C65 C66 1_555 1_555
C67 C68 1_555 1_555
C69 C70 1_555 1_555
C70 C71 1_555 1_555
C70 O1 1_555 1_555
C72 C73 1_555 1_555
C73 C74 1_555 1_555
C74 C75 1_555 1_555
C76 C84 1_555 1_555
C77 C78 1_555 1_555
C78 C79 1_555 1_555
C79 C80 1_555 1_555
C80 C81 1_555 1_555
C81 C82 1_555 1_555
C82 C83 1_555 1_555
C83 C84 1_555 1_555
C101 C102 1_555 1_555

#END
