
#######################################################################
#
#                 Cambridge Crystallographic Data Centre
#                                CCDC 
#
#######################################################################
#
# If this CIF has been generated from an entry in the Cambridge 
# Structural Database, then it will include bibliographic, chemical, 
# crystal, experimental, refinement or atomic coordinate data resulting 
# from the CCDC's data processing and validation procedures.
#
#######################################################################

data_RUPTIH01
_chemical_formula_moiety         'C29 H21 B1 F2 N2 O1'
_chemical_name_systematic        
4-(1,1-difluoro-1H-11,1-[1,3,2]oxazaborinino[3,4-a]quinolin-3-yl)-N,N-diphenylaniline
_symmetry_cell_setting           monoclinic
_symmetry_space_group_name_H-M   'P 21/c'
_symmetry_Int_Tables_number      14
_space_group_name_Hall           '-P 2ybc'
loop_
_symmetry_equiv_pos_site_id
_symmetry_equiv_pos_as_xyz
1 x,y,z
2 -x,1/2+y,1/2-z
3 -x,-y,-z
4 x,1/2-y,1/2+z
_cell_length_a                   17.097(15)
_cell_length_b                   8.764(7)
_cell_length_c                   17.682(16)
_cell_angle_alpha                90
_cell_angle_beta                 117.686(9)
_cell_angle_gamma                90
_cell_volume                     2346.1
_exptl_crystal_colour            colorless
_exptl_crystal_description       Prism
_cell_formula_units_Z            4
loop_
_atom_site_label
_atom_site_type_symbol
_atom_site_fract_x
_atom_site_fract_y
_atom_site_fract_z
B1 B 0.3476(2) 0.6145(4) 0.2560(2)
O1 O 0.42673(14) 0.6593(3) 0.33091(13)
N1 N 0.80392(16) 0.7543(3) 0.65427(15)
N2 N 0.34795(15) 0.6726(3) 0.17043(15)
F1 F 0.34111(13) 0.4574(2) 0.25141(12)
F2 F 0.27756(13) 0.6753(2) 0.26444(12)
C1 C 0.7319(3) 0.9652(5) 0.7924(3)
H1 H 0.6891 1.0358 0.7871
C2 C 0.9801(3) 0.5852(5) 0.6152(2)
H2 H 0.9868 0.5039 0.5849
C3 C 0.3595(3) 0.7554(5) 0.0237(2)
H3 H 0.3644 0.7817 -0.0249
C4 C 0.7904(3) 0.9119(5) 0.8712(3)
H4 H 0.7886 0.9492 0.9196
C5 C 0.1180(2) 0.6190(5) 0.0049(2)
H5 H 0.0642 0.5879 0.0007
C6 C 0.8515(3) 0.8041(5) 0.8791(2)
H6 H 0.8907 0.7669 0.9328
C7 C 0.4310(3) 0.7592(6) 0.1001(2)
H7 H 0.4850 0.7893 0.1042
C8 C 1.0390(2) 0.8032(5) 0.7032(2)
H8 H 1.0859 0.8693 0.7334
C9 C 0.9004(2) 0.6084(4) 0.6144(2)
H9 H 0.8541 0.5409 0.5848
C10 C 1.0502(3) 0.6813(5) 0.6603(2)
H10 H 1.1045 0.6640 0.6617
C11 C 0.7364(2) 0.9138(4) 0.7200(2)
H11 H 0.6975 0.9523 0.6666
C12 C 0.8551(2) 0.7508(4) 0.8079(2)
H12 H 0.8962 0.6763 0.8137
C13 C 0.1221(3) 0.6629(5) -0.0687(2)
H13 H 0.0715 0.6622 -0.1212
C14 C 0.9582(2) 0.8279(4) 0.70163(19)
H14 H 0.9512 0.9108 0.7307
C15 C 0.7983(2) 0.8061(4) 0.72728(19)
C16 C 0.8877(2) 0.7300(4) 0.65692(18)
C17 C 0.2005(2) 0.7068(4) -0.0633(2)
H15 H 0.2039 0.7339 -0.1126
C18 C 0.5778(2) 0.7203(4) 0.41426(18)
C19 C 0.5018(2) 0.7261(5) 0.2554(2)
H16 H 0.5554 0.7497 0.2564
C20 C 0.5767(2) 0.6668(4) 0.48825(19)
H17 H 0.5253 0.6231 0.4843
C21 C 0.1913(2) 0.6201(4) 0.0836(2)
H18 H 0.1870 0.5889 0.1318
C22 C 0.2769(2) 0.7117(4) 0.01618(19)
C23 C 0.27204(19) 0.6683(3) 0.09072(19)
C24 C 0.72836(19) 0.8011(4) 0.50160(18)
H19 H 0.7792 0.8480 0.5062
C25 C 0.4255(2) 0.7178(4) 0.17565(19)
C26 C 0.65481(19) 0.7891(4) 0.42246(19)
H20 H 0.6568 0.8272 0.3743
C27 C 0.6503(2) 0.6777(4) 0.56698(19)
H21 H 0.6485 0.6405 0.6154
C28 C 0.72709(19) 0.7441(4) 0.57413(18)
C29 C 0.50077(19) 0.7016(4) 0.33004(18)
loop_
_geom_bond_atom_site_label_1
_geom_bond_atom_site_label_2
_geom_bond_site_symmetry_1
_geom_bond_site_symmetry_2
B1 O1 1_555 1_555
O1 C29 1_555 1_555
N1 C15 1_555 1_555
N2 B1 1_555 1_555
F1 B1 1_555 1_555
F2 B1 1_555 1_555
C1 H1 1_555 1_555
C2 H2 1_555 1_555
C3 H3 1_555 1_555
C4 C1 1_555 1_555
H4 C4 1_555 1_555
C5 H5 1_555 1_555
C6 C4 1_555 1_555
H6 C6 1_555 1_555
C7 C3 1_555 1_555
H7 C7 1_555 1_555
C8 H8 1_555 1_555
C9 C2 1_555 1_555
H9 C9 1_555 1_555
C10 C2 1_555 1_555
H10 C10 1_555 1_555
C11 C1 1_555 1_555
H11 C11 1_555 1_555
C12 C6 1_555 1_555
H12 C12 1_555 1_555
C13 C5 1_555 1_555
H13 C13 1_555 1_555
C14 C8 1_555 1_555
H14 C14 1_555 1_555
C15 C11 1_555 1_555
C16 N1 1_555 1_555
C17 C13 1_555 1_555
H15 C17 1_555 1_555
C18 C20 1_555 1_555
C19 H16 1_555 1_555
C20 H17 1_555 1_555
C21 C5 1_555 1_555
H18 C21 1_555 1_555
C22 C3 1_555 1_555
C23 N2 1_555 1_555
C24 H19 1_555 1_555
C25 N2 1_555 1_555
C26 C18 1_555 1_555
H20 C26 1_555 1_555
C27 C20 1_555 1_555
H21 C27 1_555 1_555
C28 N1 1_555 1_555
C29 C18 1_555 1_555
C7 C25 1_555 1_555
C8 C10 1_555 1_555
C9 C16 1_555 1_555
C12 C15 1_555 1_555
C14 C16 1_555 1_555
C17 C22 1_555 1_555
C19 C25 1_555 1_555
C19 C29 1_555 1_555
C21 C23 1_555 1_555
C22 C23 1_555 1_555
C24 C26 1_555 1_555
C24 C28 1_555 1_555
C27 C28 1_555 1_555

#END
