
#######################################################################
#
#                 Cambridge Crystallographic Data Centre
#                                CCDC 
#
#######################################################################
#
# If this CIF has been generated from an entry in the Cambridge 
# Structural Database, then it will include bibliographic, chemical, 
# crystal, experimental, refinement or atomic coordinate data resulting 
# from the CCDC's data processing and validation procedures.
#
#######################################################################

data_RUQFOY
_chemical_formula_moiety         'C20 H16 O4'
_chemical_name_systematic        'Dimethyl benzo(a)heptalene-6,7-dicarboxylate'
_symmetry_cell_setting           triclinic
_symmetry_space_group_name_H-M   'P -1'
_symmetry_Int_Tables_number      2
_space_group_name_Hall           '-P 1'
loop_
_symmetry_equiv_pos_site_id
_symmetry_equiv_pos_as_xyz
1 x,y,z
2 -x,-y,-z
_cell_length_a                   9.000(2)
_cell_length_b                   11.215(4)
_cell_length_c                   8.885(1)
_cell_angle_alpha                96.93(2)
_cell_angle_beta                 115.13(1)
_cell_angle_gamma                95.04(3)
_cell_volume                     796.279
_exptl_crystal_colour            yellow
_chemical_melting_point          420-421K
_cell_formula_units_Z            2
loop_
_atom_site_label
_atom_site_type_symbol
_atom_site_fract_x
_atom_site_fract_y
_atom_site_fract_z
O1 O 0.5110(2) 0.1279(2) 0.1088(2)
O2 O 0.2377(2) 0.0605(2) -0.0519(2)
O3 O 0.4568(2) 0.3898(2) 0.0867(2)
O4 O 0.7246(2) 0.4022(2) 0.1358(2)
C1 C 0.3330(3) 0.2831(2) -0.6518(3)
C2 C 0.1719(4) 0.2888(2) -0.7660(3)
C3 C 0.0388(4) 0.2442(3) -0.7381(3)
C4 C 0.0681(3) 0.1945(2) -0.5945(3)
C5 C 0.2298(3) 0.1912(2) -0.4742(3)
C6 C 0.2552(3) 0.1431(2) -0.3204(3)
C7 C 0.3803(3) 0.1816(2) -0.1646(3)
C8 C 0.5216(3) 0.2794(2) -0.1177(3)
C9 C 0.6006(3) 0.2967(2) -0.2153(3)
C10 C 0.7391(3) 0.3942(2) -0.1740(3)
C11 C 0.8810(3) 0.3748(2) -0.1833(3)
C12 C 0.9213(3) 0.2607(3) -0.2369(3)
C13 C 0.8120(3) 0.1663(3) -0.3498(3)
C14 C 0.6346(3) 0.1644(2) -0.4429(3)
C15 C 0.5386(3) 0.2253(2) -0.3884(3)
C16 C 0.3649(3) 0.2338(2) -0.5058(3)
C17 C 0.3867(3) 0.1217(2) -0.0199(3)
C18 C 0.2386(4) -0.0081(3) 0.0783(4)
C19 C 0.5629(3) 0.3619(2) 0.0439(3)
C20 C 0.7692(4) 0.4837(3) 0.2939(4)
H1 H 0.431(3) 0.312(3) -0.679(3)
H2 H 0.156(4) 0.319(3) -0.889(4)
H3 H -0.074(3) 0.250(2) -0.811(3)
H4 H -0.019(3) 0.166(3) -0.564(3)
H5 H 0.165(3) 0.081(2) -0.326(3)
H6 H 0.728(3) 0.481(2) -0.118(3)
H7 H 0.972(3) 0.443(2) -0.152(3)
H8 H 1.043(3) 0.253(2) -0.190(3)
H9 H 0.859(3) 0.096(2) -0.386(3)
H10 H 0.581(3) 0.118(2) -0.562(3)
H11 H 0.095(4) -0.043(3) 0.034(4)
H12 H 0.338(5) -0.064(4) 0.119(5)
H13 H 0.272(3) 0.048(3) 0.186(4)
H14 H 0.901(4) 0.500(3) 0.344(4)
H15 H 0.739(4) 0.441(3) 0.371(4)
H16 H 0.707(5) 0.556(4) 0.275(5)
loop_
_geom_bond_atom_site_label_1
_geom_bond_atom_site_label_2
_geom_bond_site_symmetry_1
_geom_bond_site_symmetry_2
O1 C17 1_555 1_555
O2 C17 1_555 1_555
O3 C19 1_555 1_555
O4 C19 1_555 1_555
C1 C2 1_555 1_555
C2 C3 1_555 1_555
C3 C4 1_555 1_555
C4 C5 1_555 1_555
C5 C6 1_555 1_555
C6 C7 1_555 1_555
C7 C8 1_555 1_555
C8 C9 1_555 1_555
C9 C10 1_555 1_555
C10 C11 1_555 1_555
C11 C12 1_555 1_555
C12 C13 1_555 1_555
C13 C14 1_555 1_555
C14 C15 1_555 1_555
C15 C9 1_555 1_555
C16 C1 1_555 1_555
C17 C7 1_555 1_555
C18 O2 1_555 1_555
C19 C8 1_555 1_555
C20 O4 1_555 1_555
H1 C1 1_555 1_555
H2 C2 1_555 1_555
H3 C3 1_555 1_555
H4 C4 1_555 1_555
H5 C6 1_555 1_555
H6 C10 1_555 1_555
H7 C11 1_555 1_555
H8 C12 1_555 1_555
H9 C13 1_555 1_555
H10 C14 1_555 1_555
H11 C18 1_555 1_555
H12 C18 1_555 1_555
H13 C18 1_555 1_555
H14 C20 1_555 1_555
H15 C20 1_555 1_555
H16 C20 1_555 1_555
C5 C16 1_555 1_555
C15 C16 1_555 1_555

#END
