
#######################################################################
#
#                 Cambridge Crystallographic Data Centre
#                                CCDC 
#
#######################################################################
#
# If this CIF has been generated from an entry in the Cambridge 
# Structural Database, then it will include bibliographic, chemical, 
# crystal, experimental, refinement or atomic coordinate data resulting 
# from the CCDC's data processing and validation procedures.
#
#######################################################################

data_RUQTIH
_chemical_formula_moiety         'C19 H23 F1 N1 O1 1+,Cl1 1-,0.5(C1 H2 Cl2)'
_chemical_name_systematic        
'4-(3-Fluorophenyl)-4-hydroxy-1-(2-phenylethyl)piperidinium chloride dichloromethane solvate'
_chemical_properties_biological  'antileukemia activity'
_symmetry_cell_setting           monoclinic
_symmetry_space_group_name_H-M   'P 21/n'
_symmetry_Int_Tables_number      14
_space_group_name_Hall           '-P 2yn'
loop_
_symmetry_equiv_pos_site_id
_symmetry_equiv_pos_as_xyz
1 x,y,z
2 1/2-x,1/2+y,1/2-z
3 -x,-y,-z
4 1/2+x,1/2-y,1/2+z
_cell_length_a                   11.320(6)
_cell_length_b                   25.870(6)
_cell_length_c                   14.204(2)
_cell_angle_alpha                90
_cell_angle_beta                 104.447(19)
_cell_angle_gamma                90
_cell_volume                     4028.09
_exptl_crystal_colour            colorless
_exptl_crystal_description       column
_cell_formula_units_Z            8
_exptl_crystal_recrystallization_method petroleum/dichloromethane
loop_
_atom_site_label
_atom_site_type_symbol
_atom_site_fract_x
_atom_site_fract_y
_atom_site_fract_z
F1 F -0.1071(3) 0.28347(14) 0.6027(3)
N1 N 0.1814(3) 0.06498(12) 0.9650(2)
O1 O 0.1664(3) 0.14754(11) 0.7696(3)
C1 C 0.4857(5) -0.0028(2) 1.2209(4)
H1 H 0.5081 0.0319 1.2242
C2 C 0.5706(5) -0.0386(3) 1.2659(4)
H2 H 0.6486 -0.0277 1.2977
C3 C 0.5429(6) -0.0885(3) 1.2649(5)
H3 H 0.6001 -0.1128 1.2958
C4 C 0.4292(7) -0.1027(2) 1.2174(6)
H4 H 0.4078 -0.1374 1.2155
C5 C 0.3434(5) -0.0670(2) 1.1715(5)
H5 H 0.2655 -0.0779 1.1397
C6 C 0.3720(4) -0.01553(18) 1.1722(3)
C7 C 0.2828(5) 0.0236(2) 1.1215(3)
H6 H 0.3078 0.0575 1.1488
H7 H 0.2036 0.0161 1.1330
C8 C 0.2713(4) 0.02513(15) 1.0143(3)
H8 H 0.3503 0.0327 1.0026
H9 H 0.2456 -0.0086 0.9867
C9 C 0.2350(4) 0.11828(14) 0.9715(3)
H10 H 0.3000 0.1190 0.9381
H11 H 0.2699 0.1270 1.0392
C10 C 0.1397(4) 0.15763(14) 0.9269(3)
H12 H 0.1781 0.1913 0.9292
H13 H 0.0798 0.1595 0.9651
C11 C 0.0748(3) 0.14493(13) 0.8214(3)
C12 C 0.0257(3) 0.08979(12) 0.8180(3)
H14 H -0.0379 0.0885 0.8529
H15 H -0.0106 0.0804 0.7510
C13 C 0.1226(3) 0.05129(14) 0.8616(3)
H16 H 0.0868 0.0171 0.8589
H17 H 0.1838 0.0507 0.8245
C14 C -0.0264(3) 0.18321(14) 0.7833(3)
C15 C -0.0219(4) 0.21574(16) 0.7065(3)
H18 H 0.0416 0.2135 0.6759
C16 C -0.1136(5) 0.25125(19) 0.6772(4)
C17 C -0.2078(5) 0.25708(19) 0.7190(4)
H19 H -0.2671 0.2821 0.6969
C18 C -0.2136(4) 0.22547(18) 0.7941(4)
H20 H -0.2776 0.2284 0.8240
C19 C -0.1228(4) 0.18863(16) 0.8258(3)
H21 H -0.1272 0.1670 0.8772
H45 H 0.123(3) 0.0659(12) 0.994(2)
H47 H 0.149(4) 0.1324(16) 0.722(3)
F2 F -0.1125(4) 0.27162(16) 0.1316(4)
N2 N 0.2151(3) 0.03767(12) 0.4306(3)
O2 O 0.1483(3) 0.12037(11) 0.2314(3)
C20 C 0.3299(6) -0.1332(3) 0.4514(5)
H22 H 0.2972 -0.1271 0.3855
C21 C 0.4035(7) -0.1767(3) 0.4800(6)
H23 H 0.4166 -0.2001 0.4339
C22 C 0.4552(6) -0.1842(2) 0.5756(6)
H24 H 0.5044 -0.2130 0.5953
C23 C 0.4363(6) -0.1504(3) 0.6432(5)
H25 H 0.4738 -0.1552 0.7087
C24 C 0.3601(6) -0.1085(2) 0.6131(4)
H26 H 0.3461 -0.0856 0.6597
C25 C 0.3051(4) -0.09948(17) 0.5180(4)
C26 C 0.2247(4) -0.05379(17) 0.4871(4)
H27 H 0.1922 -0.0426 0.5409
H28 H 0.1565 -0.0636 0.4339
C27 C 0.2918(4) -0.00972(15) 0.4554(3)
H29 H 0.3633 -0.0016 0.5070
H30 H 0.3196 -0.0203 0.3990
C28 C 0.1084(3) 0.03030(14) 0.3457(3)
H31 H 0.0605 0.0010 0.3576
H32 H 0.1369 0.0229 0.2881
C29 C 0.0295(3) 0.07806(14) 0.3286(3)
H33 H -0.0051 0.0833 0.3839
H34 H -0.0373 0.0728 0.2716
C30 C 0.0999(3) 0.12625(14) 0.3140(3)
C31 C 0.2111(4) 0.13177(14) 0.3994(3)
H35 H 0.2602 0.1606 0.3875
H36 H 0.1844 0.1394 0.4578
C32 C 0.2886(3) 0.08319(14) 0.4157(3)
H37 H 0.3217 0.0772 0.3599
H38 H 0.3563 0.0877 0.4724
C33 C 0.0171(4) 0.17350(16) 0.3043(4)
C34 C -0.0324(5) 0.1876(2) 0.3795(4)
H39 H -0.0143 0.1685 0.4368
C35 C -0.1093(6) 0.2303(3) 0.3710(6)
H40 H -0.1419 0.2396 0.4225
C36 C -0.1365(6) 0.2579(2) 0.2883(7)
H41 H -0.1892 0.2860 0.2812
C37 C -0.0859(5) 0.2440(2) 0.2162(6)
C38 C -0.0112(4) 0.20180(17) 0.2202(4)
H42 H 0.0192 0.1927 0.1674
H46 H 0.187(3) 0.0443(13) 0.480(2)
H48 H 0.095(4) 0.1118(16) 0.193(3)
Cl1 Cl 0.95794(10) 0.07596(4) 0.05400(8)
Cl2 Cl 0.11064(10) 0.06608(5) 0.60063(8)
C39 C 0.6995(6) 0.1460(3) 0.1020(8)
H43 H 0.7770 0.1338 0.0930
H44 H 0.7150 0.1620 0.1657
Cl3 Cl 0.6106(3) 0.09676(11) 0.0998(2)
Cl4 Cl 0.6421(4) 0.19297(15) 0.0142(3)
loop_
_geom_bond_atom_site_label_1
_geom_bond_atom_site_label_2
_geom_bond_site_symmetry_1
_geom_bond_site_symmetry_2
F1 C16 1_555 1_555
N1 C8 1_555 1_555
O1 C11 1_555 1_555
C1 H1 1_555 1_555
C2 C1 1_555 1_555
H2 C2 1_555 1_555
C3 C2 1_555 1_555
H3 C3 1_555 1_555
C4 C3 1_555 1_555
H4 C4 1_555 1_555
C5 C4 1_555 1_555
H5 C5 1_555 1_555
C6 C1 1_555 1_555
C7 C6 1_555 1_555
H6 C7 1_555 1_555
H7 C7 1_555 1_555
C8 C7 1_555 1_555
H8 C8 1_555 1_555
H9 C8 1_555 1_555
C9 N1 1_555 1_555
H10 C9 1_555 1_555
H11 C9 1_555 1_555
C10 C9 1_555 1_555
H12 C10 1_555 1_555
H13 C10 1_555 1_555
C11 C10 1_555 1_555
C12 C11 1_555 1_555
H14 C12 1_555 1_555
H15 C12 1_555 1_555
C13 N1 1_555 1_555
H16 C13 1_555 1_555
H17 C13 1_555 1_555
C14 C11 1_555 1_555
C15 C14 1_555 1_555
H18 C15 1_555 1_555
C16 C15 1_555 1_555
C17 C16 1_555 1_555
H19 C17 1_555 1_555
C18 C17 1_555 1_555
H20 C18 1_555 1_555
C19 C14 1_555 1_555
H21 C19 1_555 1_555
F2 C37 1_555 1_555
N2 C27 1_555 1_555
O2 C30 1_555 1_555
C20 H22 1_555 1_555
C21 C20 1_555 1_555
H23 C21 1_555 1_555
C22 C21 1_555 1_555
H24 C22 1_555 1_555
C23 C22 1_555 1_555
H25 C23 1_555 1_555
C24 C23 1_555 1_555
H26 C24 1_555 1_555
C25 C20 1_555 1_555
C26 C25 1_555 1_555
H27 C26 1_555 1_555
H28 C26 1_555 1_555
C27 C26 1_555 1_555
H29 C27 1_555 1_555
H30 C27 1_555 1_555
C28 N2 1_555 1_555
H31 C28 1_555 1_555
H32 C28 1_555 1_555
C29 C28 1_555 1_555
H33 C29 1_555 1_555
H34 C29 1_555 1_555
C30 C29 1_555 1_555
C31 C30 1_555 1_555
H35 C31 1_555 1_555
H36 C31 1_555 1_555
C32 N2 1_555 1_555
H37 C32 1_555 1_555
H38 C32 1_555 1_555
C33 C30 1_555 1_555
C34 C33 1_555 1_555
H39 C34 1_555 1_555
C35 C34 1_555 1_555
H40 C35 1_555 1_555
C36 C35 1_555 1_555
H41 C36 1_555 1_555
C37 C36 1_555 1_555
C38 C33 1_555 1_555
H42 C38 1_555 1_555
C39 H43 1_555 1_555
H44 C39 1_555 1_555
Cl3 C39 1_555 1_555
Cl4 C39 1_555 1_555
H45 N1 1_555 1_555
H46 N2 1_555 1_555
H47 O1 1_555 1_555
H48 O2 1_555 1_555
C5 C6 1_555 1_555
C12 C13 1_555 1_555
C18 C19 1_555 1_555
C24 C25 1_555 1_555
C31 C32 1_555 1_555
C37 C38 1_555 1_555

#END
