
#######################################################################
#
#                 Cambridge Crystallographic Data Centre
#                                CCDC 
#
#######################################################################
#
# If this CIF has been generated from an entry in the Cambridge 
# Structural Database, then it will include bibliographic, chemical, 
# crystal, experimental, refinement or atomic coordinate data resulting 
# from the CCDC's data processing and validation procedures.
#
#######################################################################

data_RURBUC
_chemical_formula_moiety         'C24 H18 F5 N3 O4,C3 H6 O1'
_chemical_name_systematic        
'5-Benzyl-3-((1,3-dioxo-1,3-dihydro-2H-isoindol-2-yl)acetyl)-2-iminio-4-oxo-1-(2,2,3,3,3-pentafluoropropyl)pyrrolidin-3-ide acetone solvate'
_symmetry_cell_setting           monoclinic
_symmetry_space_group_name_H-M   'P 21/c'
_symmetry_Int_Tables_number      14
_space_group_name_Hall           '-P 2ybc'
loop_
_symmetry_equiv_pos_site_id
_symmetry_equiv_pos_as_xyz
1 x,y,z
2 -x,1/2+y,1/2-z
3 -x,-y,-z
4 x,1/2-y,1/2+z
_cell_length_a                   7.2146(14)
_cell_length_b                   14.240(3)
_cell_length_c                   25.340(5)
_cell_angle_alpha                90
_cell_angle_beta                 97.58(3)
_cell_angle_gamma                90
_cell_volume                     2580.58
_exptl_crystal_colour            colorless
_exptl_crystal_description       rod
_cell_formula_units_Z            4
loop_
_atom_site_label
_atom_site_type_symbol
_atom_site_fract_x
_atom_site_fract_y
_atom_site_fract_z
F1 F 0.2476(2) 0.02688(13) 0.39865(7)
F2 F 0.4417(3) 0.07935(13) 0.34685(8)
F3 F 0.5991(3) 0.05818(16) 0.44772(9)
F4 F 0.7123(3) -0.03878(19) 0.39568(8)
F5 F 0.5209(3) -0.08730(16) 0.44809(8)
N1 N 0.1818(3) -0.06071(18) 0.29923(10)
N2 N -0.2988(3) 0.05137(19) 0.09568(10)
N3 N 0.3210(3) 0.00961(19) 0.22986(11)
H1 H 0.4357 0.0004 0.2468
H2 H 0.3053 0.0375 0.1982
O1 O -0.3055(3) -0.05328(17) 0.25890(9)
O2 O 0.0517(3) 0.06013(16) 0.14731(9)
O3 O -0.4181(3) 0.19937(17) 0.10830(9)
O4 O -0.1855(3) -0.08100(17) 0.05819(10)
C1 C -0.1325(4) -0.0470(2) 0.26234(12)
C2 C -0.0059(4) -0.0892(2) 0.30990(12)
H3 H -0.0336 -0.0617 0.3426
C3 C -0.0286(4) -0.1965(2) 0.31145(12)
H4 H 0.0490 -0.2210 0.3421
H5 H -0.1561 -0.2114 0.3151
C4 C 0.0232(4) -0.2433(2) 0.26208(12)
C5 C 0.2076(5) -0.2724(2) 0.26044(14)
H6 H 0.2983 -0.2655 0.2915
C6 C 0.2611(5) -0.3111(3) 0.21458(14)
H7 H 0.3883 -0.3305 0.2141
C7 C 0.1321(6) -0.3219(3) 0.16964(14)
H8 H 0.1692 -0.3489 0.1379
C8 C -0.0514(6) -0.2935(3) 0.17059(15)
H9 H -0.1415 -0.3006 0.1394
C9 C -0.1053(5) -0.2544(2) 0.21686(14)
H10 H -0.2326 -0.2350 0.2173
C10 C 0.3487(4) -0.0791(2) 0.33625(12)
H11 H 0.4518 -0.0903 0.3167
H12 H 0.3302 -0.1347 0.3563
C11 C 0.3957(4) 0.0015(2) 0.37390(12)
C12 C 0.5593(4) -0.0166(2) 0.41723(13)
C13 C -0.0644(4) 0.0272(2) 0.17433(12)
C14 C -0.2705(4) 0.0209(2) 0.15069(12)
H13 H -0.3124 -0.0428 0.1528
H14 H -0.3439 0.0593 0.1712
C15 C -0.3666(4) 0.1397(2) 0.07886(13)
C16 C -0.2483(4) -0.0024(2) 0.05374(13)
C17 C -0.2881(4) 0.0580(2) 0.00536(12)
C18 C -0.2602(4) 0.0415(2) -0.04723(13)
H15 H -0.2092 -0.0168 -0.0578
C19 C -0.3090(5) 0.1127(3) -0.08370(14)
H16 H -0.2884 0.1042 -0.1201
C20 C -0.3870(5) 0.1959(3) -0.06869(14)
H17 H -0.4243 0.2427 -0.0952
C21 C -0.4127(5) 0.2133(2) -0.01592(13)
H18 H -0.4638 0.2715 -0.0053
C22 C -0.3608(4) 0.1424(2) 0.02032(13)
C23 C 0.1740(4) -0.0181(2) 0.25180(11)
C24 C -0.0152(4) -0.0087(2) 0.22704(12)
O5 O 0.0929(4) 0.8500(2) 0.44026(11)
C25 C -0.0140(5) 0.8116(3) 0.46694(13)
C26 C -0.1153(6) 0.7244(3) 0.44976(15)
H19 H -0.2439 0.7389 0.4377
H20 H -0.1082 0.6815 0.4792
H21 H -0.0596 0.6962 0.4212
C27 C -0.0489(6) 0.8508(3) 0.51912(16)
H22 H 0.0025 0.9130 0.5232
H23 H 0.0094 0.8115 0.5473
H24 H -0.1811 0.8533 0.5206
loop_
_geom_bond_atom_site_label_1
_geom_bond_atom_site_label_2
_geom_bond_site_symmetry_1
_geom_bond_site_symmetry_2
F1 C11 1_555 1_555
F2 C11 1_555 1_555
F3 C12 1_555 1_555
F4 C12 1_555 1_555
F5 C12 1_555 1_555
N1 C2 1_555 1_555
N2 C14 1_555 1_555
N3 H1 1_555 1_555
H2 N3 1_555 1_555
O1 C1 1_555 1_555
O2 C13 1_555 1_555
O3 C15 1_555 1_555
O4 C16 1_555 1_555
C1 C2 1_555 1_555
C2 H3 1_555 1_555
C3 C2 1_555 1_555
H4 C3 1_555 1_555
H5 C3 1_555 1_555
C4 C3 1_555 1_555
C5 C4 1_555 1_555
H6 C5 1_555 1_555
C6 C5 1_555 1_555
H7 C6 1_555 1_555
C7 C6 1_555 1_555
H8 C7 1_555 1_555
C8 C7 1_555 1_555
H9 C8 1_555 1_555
C9 C4 1_555 1_555
H10 C9 1_555 1_555
C10 N1 1_555 1_555
H11 C10 1_555 1_555
H12 C10 1_555 1_555
C11 C10 1_555 1_555
C12 C11 1_555 1_555
C13 C14 1_555 1_555
C14 H13 1_555 1_555
H14 C14 1_555 1_555
C15 N2 1_555 1_555
C16 N2 1_555 1_555
C17 C16 1_555 1_555
C18 C17 1_555 1_555
H15 C18 1_555 1_555
C19 C18 1_555 1_555
H16 C19 1_555 1_555
C20 C19 1_555 1_555
H17 C20 1_555 1_555
C21 C20 1_555 1_555
H18 C21 1_555 1_555
C22 C15 1_555 1_555
C23 N1 1_555 1_555
C24 C1 1_555 1_555
O5 C25 1_555 1_555
C25 C26 1_555 1_555
C26 H19 1_555 1_555
H20 C26 1_555 1_555
H21 C26 1_555 1_555
C27 C25 1_555 1_555
H22 C27 1_555 1_555
H23 C27 1_555 1_555
H24 C27 1_555 1_555
N3 C23 1_555 1_555
C8 C9 1_555 1_555
C13 C24 1_555 1_555
C17 C22 1_555 1_555
C21 C22 1_555 1_555
C23 C24 1_555 1_555

#END
