
#######################################################################
#
#                 Cambridge Crystallographic Data Centre
#                                CCDC 
#
#######################################################################
#
# If this CIF has been generated from an entry in the Cambridge 
# Structural Database, then it will include bibliographic, chemical, 
# crystal, experimental, refinement or atomic coordinate data resulting 
# from the CCDC's data processing and validation procedures.
#
#######################################################################

data_RURBOW
_chemical_formula_moiety         'C15 H13 F1 N2 O3'
_chemical_name_systematic        
9a-Benzyl-3-fluoro-7-methylene-1,7,8,9a-tetrahydropyrazino[2,1-c][1,4]oxazine-6,9-dione
_symmetry_cell_setting           triclinic
_symmetry_space_group_name_H-M   'P -1'
_symmetry_Int_Tables_number      2
_space_group_name_Hall           '-P 1'
loop_
_symmetry_equiv_pos_site_id
_symmetry_equiv_pos_as_xyz
1 x,y,z
2 -x,-y,-z
_cell_length_a                   10.599(2)
_cell_length_b                   11.296(2)
_cell_length_c                   18.369(4)
_cell_angle_alpha                100.47(3)
_cell_angle_beta                 96.53(3)
_cell_angle_gamma                108.27(3)
_cell_volume                     2019.01
_exptl_crystal_colour            colorless
_exptl_crystal_description       prism
_cell_formula_units_Z            6
loop_
_atom_site_label
_atom_site_type_symbol
_atom_site_fract_x
_atom_site_fract_y
_atom_site_fract_z
F1 F 0.9603(2) 0.8115(2) 0.19523(11)
O1 O 0.8232(3) 1.0510(3) 0.49076(13)
O2 O 0.7376(2) 1.1354(2) 0.21506(13)
O3 O 0.9542(2) 0.8580(2) 0.31530(12)
N1 N 0.8047(3) 1.0208(2) 0.29095(14)
N2 N 0.7452(3) 1.1576(2) 0.41365(15)
H1 H 0.7355 1.2106 0.4539
C1 C 0.7939(3) 1.0647(3) 0.42712(17)
C2 C 0.8037(3) 0.9703(3) 0.35932(17)
C3 C 0.7489(3) 1.1096(3) 0.27696(17)
C4 C 0.7085(3) 1.1787(3) 0.34210(18)
C5 C 0.6840(3) 0.8425(3) 0.34748(19)
H2 H 0.6953 0.7796 0.3084
H3 H 0.6861 0.8121 0.3930
C6 C 0.5472(3) 0.8556(3) 0.32640(18)
C7 C 0.4940(3) 0.8421(3) 0.25138(19)
H4 H 0.5429 0.8218 0.2129
C8 C 0.3704(4) 0.8578(3) 0.2315(2)
H5 H 0.3349 0.8498 0.1797
C9 C 0.2996(4) 0.8850(3) 0.2874(2)
H6 H 0.2141 0.8954 0.2740
C10 C 0.3506(4) 0.8975(3) 0.3622(2)
H7 H 0.3008 0.9161 0.4006
C11 C 0.4743(3) 0.8828(3) 0.3811(2)
H8 H 0.5099 0.8917 0.4330
C12 C 0.8514(3) 0.9551(3) 0.23226(18)
H9 H 0.8342 0.9653 0.1817
C13 C 0.9181(3) 0.8807(3) 0.24808(18)
C14 C 0.9383(3) 0.9493(3) 0.37723(18)
H10 H 1.0112 1.0293 0.3859
H11 H 0.9416 0.9177 0.4223
C15 C 0.6487(4) 1.2624(4) 0.3336(2)
H12 H 0.6291 1.3110 0.3767
H13 H 0.6247 1.2750 0.2844
F2 F 0.8657(2) 0.3471(2) -0.03501(13)
O4 O 0.5160(2) 0.4362(2) 0.19942(12)
O5 O 0.3891(2) 0.3151(2) -0.10214(12)
O6 O 0.8067(2) 0.3817(3) 0.07515(14)
N3 N 0.5401(3) 0.3472(2) 0.00456(14)
N4 N 0.3651(3) 0.3975(3) 0.09270(14)
H14 H 0.3142 0.4322 0.1195
C16 C 0.4810(3) 0.3979(3) 0.13008(18)
C17 C 0.5676(3) 0.3426(3) 0.08424(18)
C18 C 0.4163(3) 0.3332(3) -0.03321(18)
C19 C 0.3158(3) 0.3473(3) 0.01495(18)
C20 C 0.5454(4) 0.2029(3) 0.0913(2)
H15 H 0.6012 0.1697 0.0618
H16 H 0.5748 0.2040 0.1429
C21 C 0.4010(3) 0.1134(3) 0.0663(2)
C22 C 0.3150(4) 0.0940(4) 0.1184(2)
H17 H 0.3483 0.1376 0.1703
C23 C 0.1825(5) 0.0128(4) 0.0961(3)
H18 H 0.1239 0.0010 0.1324
C24 C 0.1343(4) -0.0513(4) 0.0219(3)
H19 H 0.0421 -0.1076 0.0066
C25 C 0.2177(4) -0.0351(3) -0.0306(2)
H20 H 0.1842 -0.0807 -0.0822
C26 C 0.3510(4) 0.0481(3) -0.0082(2)
H21 H 0.4089 0.0603 -0.0447
C27 C 0.6437(3) 0.3391(3) -0.03689(18)
H22 H 0.6262 0.3216 -0.0909
C28 C 0.7647(3) 0.3561(3) 0.0005(2)
C29 C 0.7155(3) 0.4263(4) 0.11644(19)
H23 H 0.7280 0.5133 0.1139
H24 H 0.7363 0.4246 0.1684
C30 C 0.1868(3) 0.3243(3) -0.0147(2)
H25 H 0.1260 0.3420 0.0172
H26 H 0.1551 0.2901 -0.0678
F3 F -0.1630(2) 0.6266(2) 0.38689(13)
O7 O 0.2014(2) 0.4843(3) 0.17792(13)
O8 O 0.3086(2) 0.6578(2) 0.47630(12)
O9 O -0.0972(2) 0.5626(2) 0.28318(13)
N5 N 0.1563(3) 0.5851(2) 0.36664(14)
N6 N 0.3462(3) 0.5342(2) 0.28857(14)
H27 H 0.4137 0.5303 0.2637
C31 C 0.2258(3) 0.5115(3) 0.24748(17)
C32 C 0.1094(3) 0.5089(3) 0.28899(17)
C33 C 0.2788(3) 0.6059(3) 0.40867(18)
C34 C 0.3765(3) 0.5640(3) 0.36788(17)
C35 C 0.0279(3) 0.3659(3) 0.2869(2)
H28 H -0.0499 0.3624 0.3097
H29 H -0.0033 0.3190 0.2354
C36 C 0.1112(3) 0.3032(3) 0.32742(19)
C37 C 0.1209(4) 0.3134(3) 0.4050(2)
H30 H 0.0680 0.3549 0.4319
C38 C 0.2058(4) 0.2648(3) 0.4437(2)
H31 H 0.2110 0.2724 0.4970
C39 C 0.2823(4) 0.2058(3) 0.4058(2)
H32 H 0.3423 0.1735 0.4327
C40 C 0.2731(4) 0.1928(3) 0.3293(2)
H33 H 0.3261 0.1509 0.3028
C41 C 0.1868(4) 0.2406(3) 0.2903(2)
H34 H 0.1797 0.2298 0.2367
C42 C 0.0551(3) 0.6187(3) 0.40047(19)
H35 H 0.0700 0.6520 0.4539
C43 C -0.0601(3) 0.6035(3) 0.35771(19)
C44 C 0.0196(3) 0.5675(3) 0.24812(19)
H36 H 0.0704 0.6550 0.2493
H37 H -0.0097 0.5215 0.1964
C45 C 0.4890(3) 0.5596(3) 0.4048(2)
H38 H 0.5527 0.5356 0.3775
H39 H 0.5070 0.5804 0.4589
loop_
_geom_bond_atom_site_label_1
_geom_bond_atom_site_label_2
_geom_bond_site_symmetry_1
_geom_bond_site_symmetry_2
F1 C13 1_555 1_555
O1 C1 1_555 1_555
O2 C3 1_555 1_555
O3 C13 1_555 1_555
N1 C2 1_555 1_555
N2 H1 1_555 1_555
C1 N2 1_555 1_555
C2 C1 1_555 1_555
C3 N1 1_555 1_555
C4 N2 1_555 1_555
C5 C2 1_555 1_555
H2 C5 1_555 1_555
H3 C5 1_555 1_555
C6 C5 1_555 1_555
C7 C6 1_555 1_555
H4 C7 1_555 1_555
C8 C7 1_555 1_555
H5 C8 1_555 1_555
C9 C8 1_555 1_555
H6 C9 1_555 1_555
C10 C9 1_555 1_555
H7 C10 1_555 1_555
C11 C6 1_555 1_555
H8 C11 1_555 1_555
C12 N1 1_555 1_555
H9 C12 1_555 1_555
C13 C12 1_555 1_555
C14 O3 1_555 1_555
H10 C14 1_555 1_555
H11 C14 1_555 1_555
C15 C4 1_555 1_555
H12 C15 1_555 1_555
H13 C15 1_555 1_555
F2 C28 1_555 1_555
O4 C16 1_555 1_555
O5 C18 1_555 1_555
O6 C28 1_555 1_555
N3 C17 1_555 1_555
N4 H14 1_555 1_555
C16 N4 1_555 1_555
C17 C16 1_555 1_555
C18 N3 1_555 1_555
C19 N4 1_555 1_555
C20 C17 1_555 1_555
H15 C20 1_555 1_555
H16 C20 1_555 1_555
C21 C20 1_555 1_555
C22 C21 1_555 1_555
H17 C22 1_555 1_555
C23 C22 1_555 1_555
H18 C23 1_555 1_555
C24 C23 1_555 1_555
H19 C24 1_555 1_555
C25 C24 1_555 1_555
H20 C25 1_555 1_555
C26 C21 1_555 1_555
H21 C26 1_555 1_555
C27 N3 1_555 1_555
H22 C27 1_555 1_555
C28 C27 1_555 1_555
C29 O6 1_555 1_555
H23 C29 1_555 1_555
H24 C29 1_555 1_555
C30 C19 1_555 1_555
H25 C30 1_555 1_555
H26 C30 1_555 1_555
F3 C43 1_555 1_555
O7 C31 1_555 1_555
O8 C33 1_555 1_555
O9 C43 1_555 1_555
N5 C32 1_555 1_555
N6 H27 1_555 1_555
C31 N6 1_555 1_555
C32 C31 1_555 1_555
C33 N5 1_555 1_555
C34 N6 1_555 1_555
C35 C32 1_555 1_555
H28 C35 1_555 1_555
H29 C35 1_555 1_555
C36 C35 1_555 1_555
C37 C36 1_555 1_555
H30 C37 1_555 1_555
C38 C37 1_555 1_555
H31 C38 1_555 1_555
C39 C38 1_555 1_555
H32 C39 1_555 1_555
C40 C39 1_555 1_555
H33 C40 1_555 1_555
C41 C36 1_555 1_555
H34 C41 1_555 1_555
C42 N5 1_555 1_555
H35 C42 1_555 1_555
C43 C42 1_555 1_555
C44 O9 1_555 1_555
H36 C44 1_555 1_555
H37 C44 1_555 1_555
C45 C34 1_555 1_555
H38 C45 1_555 1_555
H39 C45 1_555 1_555
C2 C14 1_555 1_555
C3 C4 1_555 1_555
C10 C11 1_555 1_555
C17 C29 1_555 1_555
C18 C19 1_555 1_555
C25 C26 1_555 1_555
C32 C44 1_555 1_555
C33 C34 1_555 1_555
C40 C41 1_555 1_555

#END
