
#######################################################################
#
#                 Cambridge Crystallographic Data Centre
#                                CCDC 
#
#######################################################################
#
# If this CIF has been generated from an entry in the Cambridge 
# Structural Database, then it will include bibliographic, chemical, 
# crystal, experimental, refinement or atomic coordinate data resulting 
# from the CCDC's data processing and validation procedures.
#
#######################################################################

data_RURCOX
_chemical_formula_moiety         'C14 H20 O5'
_chemical_name_systematic        
(1R*,5S*,6R*,8S*)-6,8-Diacetyl-2,2-dimethoxybicyclo[3.2.1]octan-3-one
_symmetry_cell_setting           monoclinic
_symmetry_space_group_name_H-M   'P 21/c'
_symmetry_Int_Tables_number      14
_space_group_name_Hall           '-P 2ybc'
loop_
_symmetry_equiv_pos_site_id
_symmetry_equiv_pos_as_xyz
1 x,y,z
2 -x,1/2+y,1/2-z
3 -x,-y,-z
4 x,1/2-y,1/2+z
_cell_length_a                   9.6987(8)
_cell_length_b                   12.0088(10)
_cell_length_c                   12.3008(10)
_cell_angle_alpha                90
_cell_angle_beta                 99.746(2)
_cell_angle_gamma                90
_cell_volume                     1411.99
_exptl_crystal_colour            colorless
_exptl_crystal_description       columnar
_cell_formula_units_Z            4
loop_
_atom_site_label
_atom_site_type_symbol
_atom_site_fract_x
_atom_site_fract_y
_atom_site_fract_z
O1 O 0.82411(14) 0.69381(12) 0.25072(11)
O2 O 0.74753(16) 0.52046(11) 0.17957(12)
O3 O 0.63056(19) 0.51839(13) 0.35592(13)
O4 O 0.25461(19) 0.77224(17) -0.01822(15)
O5 O 0.68679(18) 0.91786(14) 0.30980(14)
C1 C 0.70750(19) 0.62614(15) 0.21177(14)
C2 C 0.6221(2) 0.60467(16) 0.30550(15)
C3 C 0.5344(2) 0.70005(18) 0.33234(15)
C4 C 0.4642(2) 0.76564(15) 0.23113(15)
C5 C 0.57224(19) 0.80445(14) 0.16243(14)
C6 C 0.61848(19) 0.69215(14) 0.11938(14)
C7 C 0.4771(2) 0.63378(15) 0.08149(15)
C8 C 0.3729(2) 0.68762(15) 0.14815(16)
C9 C 0.2564(2) 0.75280(17) 0.07771(19)
C10 C 0.1429(3) 0.7956(3) 0.1354(3)
C11 C 0.6831(2) 0.88524(16) 0.21663(18)
C12 C 0.7795(3) 0.9308(2) 0.1452(3)
C13 C 0.9138(3) 0.6574(3) 0.3477(2)
C14 C 0.8308(3) 0.5190(2) 0.0953(2)
H1 H 0.4731 0.6772 0.3734
H2 H 0.6011 0.7503 0.3786
H3 H 0.4097 0.8272 0.2565
H4 H 0.5238 0.8408 0.1021
H5 H 0.6737 0.6992 0.0616
H6 H 0.4851 0.5564 0.0948
H7 H 0.4437 0.6466 0.0005
H8 H 0.3297 0.6303 0.1859
H9 H 0.0925 0.7422 0.1295
H10 H 0.0736 0.8428 0.0937
H11 H 0.1653 0.8056 0.2056
H12 H 0.7438 0.9913 0.1102
H13 H 0.8204 0.8790 0.1147
H14 H 0.8468 0.9724 0.1797
H15 H 0.9930 0.6985 0.3551
H16 H 0.9271 0.5894 0.3484
H17 H 0.8807 0.6821 0.4122
H18 H 0.9085 0.5662 0.1102
H19 H 0.7804 0.5361 0.0224
H20 H 0.8672 0.4525 0.0925
loop_
_geom_bond_atom_site_label_1
_geom_bond_atom_site_label_2
_geom_bond_site_symmetry_1
_geom_bond_site_symmetry_2
O1 C1 1_555 1_555
O2 C1 1_555 1_555
O3 C2 1_555 1_555
O4 C9 1_555 1_555
O5 C11 1_555 1_555
C1 C2 1_555 1_555
C2 C3 1_555 1_555
C3 C4 1_555 1_555
C4 C5 1_555 1_555
C5 C6 1_555 1_555
C6 C1 1_555 1_555
C7 C6 1_555 1_555
C8 C4 1_555 1_555
C9 C8 1_555 1_555
C10 C9 1_555 1_555
C11 C5 1_555 1_555
C12 C11 1_555 1_555
C13 O1 1_555 1_555
C14 O2 1_555 1_555
H1 C3 1_555 1_555
H2 C3 1_555 1_555
H3 C4 1_555 1_555
H4 C5 1_555 1_555
H5 C6 1_555 1_555
H6 C7 1_555 1_555
H7 C7 1_555 1_555
H8 C8 1_555 1_555
H9 C10 1_555 1_555
H10 C10 1_555 1_555
H11 C10 1_555 1_555
H12 C12 1_555 1_555
H13 C12 1_555 1_555
H14 C12 1_555 1_555
H15 C13 1_555 1_555
H16 C13 1_555 1_555
H17 C13 1_555 1_555
H18 C14 1_555 1_555
H19 C14 1_555 1_555
H20 C14 1_555 1_555
C7 C8 1_555 1_555

#END
