
#######################################################################
#
#                 Cambridge Crystallographic Data Centre
#                                CCDC 
#
#######################################################################
#
# If this CIF has been generated from an entry in the Cambridge 
# Structural Database, then it will include bibliographic, chemical, 
# crystal, experimental, refinement or atomic coordinate data resulting 
# from the CCDC's data processing and validation procedures.
#
#######################################################################

data_RURDEO
_chemical_formula_moiety         'C19 H26 O7'
_chemical_name_systematic        
(3aR*,4R*,7S*,7aS*)-5-(5,5-dimethyl-1,3-dioxan-2-yl)-9,9-dimethoxy-4-methyl-3a,4,7,7a-tetrahydro-4,7-ethano-2-benzofuran-3,8(1H)-dione
_symmetry_cell_setting           orthorhombic
_symmetry_space_group_name_H-M   'P b c a'
_symmetry_Int_Tables_number      61
_space_group_name_Hall           '-P 2ac 2ab'
loop_
_symmetry_equiv_pos_site_id
_symmetry_equiv_pos_as_xyz
1 x,y,z
2 1/2-x,-y,1/2+z
3 -x,1/2+y,1/2-z
4 1/2+x,1/2-y,-z
5 -x,-y,-z
6 1/2+x,y,1/2-z
7 x,1/2-y,1/2+z
8 1/2-x,1/2+y,z
_cell_length_a                   10.4798(4)
_cell_length_b                   12.3312(5)
_cell_length_c                   27.6022(12)
_cell_angle_alpha                90
_cell_angle_beta                 90
_cell_angle_gamma                90
_cell_volume                     3566.99
_exptl_crystal_colour            colorless
_exptl_crystal_description       columnar
_cell_formula_units_Z            8
loop_
_atom_site_label
_atom_site_type_symbol
_atom_site_fract_x
_atom_site_fract_y
_atom_site_fract_z
O1 O 0.20231(9) 0.11635(8) 0.39026(3)
O2 O 0.05687(9) 0.11228(8) 0.45397(3)
O3 O -0.24293(10) -0.13450(8) 0.38847(4)
O4 O -0.04588(10) -0.19824(9) 0.38274(4)
O5 O -0.17014(10) 0.25390(8) 0.28060(4)
O6 O -0.05025(9) 0.04460(8) 0.24259(3)
O7 O 0.08795(9) 0.16213(8) 0.27778(4)
C1 C -0.12188(13) -0.06458(11) 0.32335(5)
H1 H -0.1200 -0.1087 0.2930
C2 C -0.24700(13) 0.00012(11) 0.32590(5)
H2 H -0.2914 -0.0010 0.2938
C3 C -0.21595(13) 0.11810(11) 0.34103(5)
H3 H -0.2949 0.1601 0.3489
C4 C -0.14167(13) 0.16950(11) 0.30009(5)
C5 C -0.02315(12) 0.10109(11) 0.28588(5)
C6 C -0.00248(12) 0.01152(11) 0.32525(5)
C7 C -0.01123(13) 0.06891(11) 0.37428(5)
C8 C -0.12162(13) 0.11926(11) 0.38264(5)
H4 H -0.1399 0.1536 0.4127
C9 C -0.12728(13) -0.13916(11) 0.36705(5)
C10 C -0.32697(14) -0.05907(12) 0.36425(5)
H5 H -0.3626 -0.0066 0.3878
H6 H -0.3985 -0.0983 0.3487
C11 C 0.09531(12) 0.06280(11) 0.41051(5)
H7 H 0.1171 -0.0149 0.4168
C12 C 0.30961(13) 0.10835(12) 0.42221(5)
H8 H 0.3833 0.1467 0.4078
H9 H 0.3333 0.0312 0.4262
C13 C 0.27966(13) 0.15744(12) 0.47181(5)
C14 C 0.15621(13) 0.10421(12) 0.48981(5)
H10 H 0.1726 0.0269 0.4972
H11 H 0.1281 0.1402 0.5200
C15 C 0.11957(13) -0.05228(11) 0.31519(5)
H12 H 0.1931 -0.0032 0.3166
H13 H 0.1145 -0.0852 0.2829
H14 H 0.1295 -0.1093 0.3396
C16 C -0.06833(15) 0.11029(13) 0.20023(5)
H15 H -0.0866 0.0636 0.1724
H16 H 0.0093 0.1523 0.1939
H17 H -0.1401 0.1599 0.2055
C17 C 0.10498(14) 0.26429(11) 0.30186(5)
H18 H 0.1869 0.2960 0.2922
H19 H 0.1040 0.2531 0.3370
H20 H 0.0356 0.3136 0.2928
C18 C 0.26253(16) 0.28012(12) 0.46721(6)
H21 H 0.3422 0.3128 0.4557
H22 H 0.2405 0.3106 0.4989
H23 H 0.1939 0.2956 0.4441
C19 C 0.39057(14) 0.13160(13) 0.50586(5)
H24 H 0.4684 0.1664 0.4938
H25 H 0.4032 0.0529 0.5072
H26 H 0.3711 0.1590 0.5384
loop_
_geom_bond_atom_site_label_1
_geom_bond_atom_site_label_2
_geom_bond_site_symmetry_1
_geom_bond_site_symmetry_2
O1 C11 1_555 1_555
O2 C11 1_555 1_555
O3 C9 1_555 1_555
O4 C9 1_555 1_555
O5 C4 1_555 1_555
O6 C5 1_555 1_555
O7 C5 1_555 1_555
C1 H1 1_555 1_555
C2 C1 1_555 1_555
H2 C2 1_555 1_555
C3 C2 1_555 1_555
H3 C3 1_555 1_555
C4 C3 1_555 1_555
C5 C4 1_555 1_555
C6 C1 1_555 1_555
C7 C6 1_555 1_555
C8 C3 1_555 1_555
H4 C8 1_555 1_555
C9 C1 1_555 1_555
C10 O3 1_555 1_555
H5 C10 1_555 1_555
H6 C10 1_555 1_555
C11 C7 1_555 1_555
H7 C11 1_555 1_555
C12 O1 1_555 1_555
H8 C12 1_555 1_555
H9 C12 1_555 1_555
C13 C12 1_555 1_555
C14 O2 1_555 1_555
H10 C14 1_555 1_555
H11 C14 1_555 1_555
C15 C6 1_555 1_555
H12 C15 1_555 1_555
H13 C15 1_555 1_555
H14 C15 1_555 1_555
C16 O6 1_555 1_555
H15 C16 1_555 1_555
H16 C16 1_555 1_555
H17 C16 1_555 1_555
C17 O7 1_555 1_555
H18 C17 1_555 1_555
H19 C17 1_555 1_555
H20 C17 1_555 1_555
C18 C13 1_555 1_555
H21 C18 1_555 1_555
H22 C18 1_555 1_555
H23 C18 1_555 1_555
C19 C13 1_555 1_555
H24 C19 1_555 1_555
H25 C19 1_555 1_555
H26 C19 1_555 1_555
C2 C10 1_555 1_555
C5 C6 1_555 1_555
C7 C8 1_555 1_555
C13 C14 1_555 1_555

#END
