
#######################################################################
#
#                 Cambridge Crystallographic Data Centre
#                                CCDC 
#
#######################################################################
#
# If this CIF has been generated from an entry in the Cambridge 
# Structural Database, then it will include bibliographic, chemical, 
# crystal, experimental, refinement or atomic coordinate data resulting 
# from the CCDC's data processing and validation procedures.
#
#######################################################################

data_RURVEH
_chemical_formula_moiety         'C10 H16 O4'
_chemical_name_systematic        
(3aS,4S,5R,7aR)-2,2,7-Trimethyl-3a,4,5,7a-tetrahydro-1,3-benzodioxole-4,5-diol
_symmetry_cell_setting           orthorhombic
_symmetry_space_group_name_H-M   'P 21 21 21'
_symmetry_Int_Tables_number      19
_space_group_name_Hall           'P 2ac 2ab'
loop_
_symmetry_equiv_pos_site_id
_symmetry_equiv_pos_as_xyz
1 x,y,z
2 1/2+x,1/2-y,-z
3 -x,1/2+y,1/2-z
4 1/2-x,-y,1/2+z
_cell_length_a                   6.1230(13)
_cell_length_b                   7.5163(17)
_cell_length_c                   23.347(5)
_cell_angle_alpha                90
_cell_angle_beta                 90
_cell_angle_gamma                90
_cell_volume                     1074.48
_exptl_crystal_colour            colorless
_exptl_crystal_description       parallelepiped
_chemical_melting_point          '385-386 K'
_cell_formula_units_Z            4
_exptl_crystal_recrystallization_method 'ethyl acetate/hexanes'
loop_
_atom_site_label
_atom_site_type_symbol
_atom_site_fract_x
_atom_site_fract_y
_atom_site_fract_z
O1 O 0.1718(2) 0.02424(17) 0.83031(6)
C1 C 0.2609(3) 0.1964(3) 0.81761(8)
H1 H 0.3868 0.1850 0.7919
O2 O 0.4078(3) 0.0973(2) 0.90222(7)
C2 C 0.3342(3) 0.2591(3) 0.87622(8)
H2 H 0.4583 0.3403 0.8719
H3 H -0.026(5) 0.337(4) 0.7201(12)
H4 H -0.197(5) 0.545(4) 0.8006(10)
O3 O 0.0349(3) 0.2538(2) 0.73585(6)
O4 O -0.2609(3) 0.4552(2) 0.80767(7)
C3 C 0.1596(4) 0.3484(3) 0.91126(8)
C4 C -0.0366(3) 0.3793(3) 0.88973(8)
H5 H -0.1387 0.4344 0.9133
C5 C 0.4527(6) -0.1837(4) 0.85765(13)
H6 H 0.5376 -0.2248 0.8896
H7 H 0.5475 -0.1307 0.8297
H8 H 0.3769 -0.2824 0.8407
C6 C 0.2898(4) -0.0479(3) 0.87792(9)
C7 C 0.0914(3) 0.3159(3) 0.79142(8)
H9 H 0.1557 0.4347 0.7873
C8 C -0.1064(3) 0.3320(2) 0.83012(9)
H10 H -0.1771 0.2152 0.8317
C9 C 0.2246(5) 0.3979(4) 0.97104(10)
H11 H 0.1042 0.4554 0.9898
H12 H 0.3471 0.4775 0.9698
H13 H 0.2639 0.2925 0.9919
C10 C 0.1246(6) -0.1199(4) 0.91968(12)
H14 H 0.1985 -0.1646 0.9530
H15 H 0.0437 -0.2145 0.9019
H16 H 0.0263 -0.0266 0.9308
loop_
_geom_bond_atom_site_label_1
_geom_bond_atom_site_label_2
_geom_bond_site_symmetry_1
_geom_bond_site_symmetry_2
O1 C1 1_555 1_555
C1 H1 1_555 1_555
O2 C2 1_555 1_555
C2 C1 1_555 1_555
H2 C2 1_555 1_555
H3 O3 1_555 1_555
H4 O4 1_555 1_555
O3 C7 1_555 1_555
O4 C8 1_555 1_555
C3 C2 1_555 1_555
C4 C3 1_555 1_555
H5 C4 1_555 1_555
C5 H6 1_555 1_555
H7 C5 1_555 1_555
H8 C5 1_555 1_555
C6 O1 1_555 1_555
C7 C1 1_555 1_555
H9 C7 1_555 1_555
C8 C4 1_555 1_555
H10 C8 1_555 1_555
C9 C3 1_555 1_555
H11 C9 1_555 1_555
H12 C9 1_555 1_555
H13 C9 1_555 1_555
C10 C6 1_555 1_555
H14 C10 1_555 1_555
H15 C10 1_555 1_555
H16 C10 1_555 1_555
O2 C6 1_555 1_555
C5 C6 1_555 1_555
C7 C8 1_555 1_555

#END
