
#######################################################################
#
#                 Cambridge Crystallographic Data Centre
#                                CCDC 
#
#######################################################################
#
# If this CIF has been generated from an entry in the Cambridge 
# Structural Database, then it will include bibliographic, chemical, 
# crystal, experimental, refinement or atomic coordinate data resulting 
# from the CCDC's data processing and validation procedures.
#
#######################################################################

data_RURYOS
_chemical_formula_moiety         
'C23 H28 N3 Na1 O5,C23 H29 N3 Na1 O5 1+,Cl1 O4 1-'
_chemical_name_systematic        
"(2,6-(N'-(5-Cyano-2-hydroxyphenyl)-2,5,11,14-tetraoxa-8-azapentadeca-1,15-diyl)pyridine)-(2,6-(N'-(5-cyanophenyl-2-olato)-2,5,11,14-tetraoxa-8-azapentadeca-1,15-diyl)pyridine)-di-sodium perchlorate"
_symmetry_cell_setting           triclinic
_symmetry_space_group_name_H-M   'P -1'
_symmetry_Int_Tables_number      2
_space_group_name_Hall           '-P 1'
loop_
_symmetry_equiv_pos_site_id
_symmetry_equiv_pos_as_xyz
1 x,y,z
2 -x,-y,-z
_cell_length_a                   9.400(9)
_cell_length_b                   11.467(10)
_cell_length_c                   12.281(11)
_cell_angle_alpha                77.22(7)
_cell_angle_beta                 87.73(7)
_cell_angle_gamma                86.39(7)
_cell_volume                     1287.96
_exptl_crystal_colour            colorless
_exptl_crystal_description       plate
_cell_formula_units_Z            1
_exptl_crystal_recrystallization_method ethanol
loop_
_atom_site_label
_atom_site_type_symbol
_atom_site_fract_x
_atom_site_fract_y
_atom_site_fract_z
Cl1 Cl -0.0663(7) 1.3852(6) 0.3951(6)
O6 O 0.0738(13) 1.3749(21) 0.4332(16)
O7 O -0.1399(29) 1.4828(24) 0.4252(30)
O8 O -0.1332(20) 1.2793(20) 0.4436(27)
O9 O -0.0637(27) 1.3993(32) 0.2790(9)
Na1 Na 0.4296(4) 0.9271(3) 0.2595(3)
N1 N 0.4123(9) 1.1571(8) 0.2205(7)
C1 C 0.2868(11) 1.2218(10) 0.2152(8)
C2 C 0.1618(11) 1.1546(10) 0.2643(8)
O1 O 0.1861(7) 1.0300(7) 0.2687(6)
C3 C 0.0707(11) 0.9602(11) 0.3162(11)
C4 C 0.0887(13) 0.8453(12) 0.2838(13)
O2 O 0.2226(8) 0.7925(7) 0.3116(8)
C5 C 0.2493(13) 0.6774(11) 0.2812(12)
C6 C 0.3846(12) 0.6248(10) 0.3361(11)
N2 N 0.5068(9) 0.6972(7) 0.2942(7)
C7 C 0.6156(12) 0.6748(10) 0.3775(9)
C8 C 0.5781(13) 0.7365(11) 0.4746(9)
O3 O 0.5609(8) 0.8636(7) 0.4351(6)
C9 C 0.6861(13) 0.9225(11) 0.4468(10)
C10 C 0.6744(11) 1.0437(10) 0.3743(10)
O4 O 0.6724(7) 1.0323(6) 0.2609(6)
C11 C 0.6660(11) 1.1428(10) 0.1809(10)
C12 C 0.5265(11) 1.2154(10) 0.1803(8)
C13 C 0.5193(13) 1.3380(10) 0.1339(9)
C14 C 0.3909(14) 1.3999(10) 0.1270(11)
C15 C 0.2738(13) 1.3430(10) 0.1675(10)
C16 C 0.5588(11) 0.6656(9) 0.1892(9)
C17 C 0.6755(10) 0.7369(8) 0.1258(8)
C18 C 0.8078(11) 0.6818(9) 0.1134(8)
C19 C 0.9145(10) 0.7425(10) 0.0491(8)
C20 C 1.0449(13) 0.6787(12) 0.0302(10)
N3 N 1.1493(12) 0.6286(12) 0.0121(11)
C21 C 0.8904(11) 0.8622(9) -0.0005(8)
C22 C 0.7592(10) 0.9203(9) 0.0098(8)
C23 C 0.6510(10) 0.8584(9) 0.0718(8)
O5 O 0.5217(7) 0.9114(6) 0.0779(6)
H1 H 0.0791 1.1851 0.2214
H2 H 0.1444 1.1662 0.3388
H3 H -0.0185 1.0021 0.2930
H4 H 0.0733 0.9446 0.3962
H5 H 0.0805 0.8603 0.2041
H6 H 0.0161 0.7928 0.3179
H7 H 0.2613 0.6886 0.2016
H8 H 0.1712 0.6271 0.3057
H9 H 0.4040 0.5456 0.3233
H10 H 0.3716 0.6182 0.4151
H11 H 0.6273 0.5900 0.4068
H12 H 0.7035 0.7039 0.3426
H13 H 0.6504 0.7167 0.5297
H14 H 0.4897 0.7074 0.5086
H15 H 0.7683 0.8793 0.4233
H16 H 0.6964 0.9256 0.5235
H17 H 0.7533 1.0889 0.3849
H18 H 0.5877 1.0845 0.3932
H19 H 0.6867 1.1284 0.1076
H20 H 0.7397 1.1895 0.1982
H21 H 0.6047 1.3776 0.1062
H22 H 0.3827 1.4834 0.0914
H23 H 0.1825 1.3856 0.1666
H24 H 0.4790 0.6762 0.1409
H25 H 0.5896 0.5823 0.2044
H26 H 0.8258 0.5997 0.1507
H27 H 0.9658 0.9055 -0.0430
H28 H 0.7430 1.0036 -0.0244
H29 H 0.5242 0.9959 0.0301
O10? O 0.0353(22) 1.3076(19) 0.4581(18)
O11? O -0.1406(25) 1.4512(24) 0.4659(21)
O12? O -0.1626(23) 1.3238(22) 0.3500(24)
O13? O 0.0027(28) 1.4655(22) 0.3097(20)
loop_
_geom_bond_atom_site_label_1
_geom_bond_atom_site_label_2
_geom_bond_site_symmetry_1
_geom_bond_site_symmetry_2
Na1 N1 1_555 1_555
N1 C1 1_555 1_555
C1 C2 1_555 1_555
C2 O1 1_555 1_555
O1 Na1 1_555 1_555
C3 O1 1_555 1_555
C4 C3 1_555 1_555
O2 Na1 1_555 1_555
C5 O2 1_555 1_555
C6 C5 1_555 1_555
N2 Na1 1_555 1_555
C7 N2 1_555 1_555
C8 C7 1_555 1_555
O3 Na1 1_555 1_555
C9 O3 1_555 1_555
C10 C9 1_555 1_555
O4 Na1 1_555 1_555
C11 O4 1_555 1_555
C12 N1 1_555 1_555
C13 C12 1_555 1_555
C14 C13 1_555 1_555
C15 C1 1_555 1_555
C16 N2 1_555 1_555
C17 C16 1_555 1_555
C18 C17 1_555 1_555
C19 C18 1_555 1_555
C20 C19 1_555 1_555
N3 C20 1_555 1_555
C21 C19 1_555 1_555
C22 C21 1_555 1_555
C23 C17 1_555 1_555
O5 Na1 1_555 1_555
Cl1 O6 1_555 1_555
O7 Cl1 1_555 1_555
O8 Cl1 1_555 1_555
O9 Cl1 1_555 1_555
H1 C2 1_555 1_555
H2 C2 1_555 1_555
H3 C3 1_555 1_555
H4 C3 1_555 1_555
H5 C4 1_555 1_555
H6 C4 1_555 1_555
H7 C5 1_555 1_555
H8 C5 1_555 1_555
H9 C6 1_555 1_555
H10 C6 1_555 1_555
H11 C7 1_555 1_555
H12 C7 1_555 1_555
H13 C8 1_555 1_555
H14 C8 1_555 1_555
H15 C9 1_555 1_555
H16 C9 1_555 1_555
H17 C10 1_555 1_555
H18 C10 1_555 1_555
H19 C11 1_555 1_555
H20 C11 1_555 1_555
H21 C13 1_555 1_555
H22 C14 1_555 1_555
H23 C15 1_555 1_555
H24 C16 1_555 1_555
H25 C16 1_555 1_555
H26 C18 1_555 1_555
H27 C21 1_555 1_555
H28 C22 1_555 1_555
H29 O5 1_555 1_555
C4 O2 1_555 1_555
C6 N2 1_555 1_555
C8 O3 1_555 1_555
C10 O4 1_555 1_555
C11 C12 1_555 1_555
C14 C15 1_555 1_555
C22 C23 1_555 1_555
C23 O5 1_555 1_555

#END
