
#######################################################################
#
#                 Cambridge Crystallographic Data Centre
#                                CCDC 
#
#######################################################################
#
# If this CIF has been generated from an entry in the Cambridge 
# Structural Database, then it will include bibliographic, chemical, 
# crystal, experimental, refinement or atomic coordinate data resulting 
# from the CCDC's data processing and validation procedures.
#
#######################################################################

data_RUSBIS
_chemical_formula_moiety         'C42 H36 F18 N6 S3,C4 H12 N1 1+,H2 O1,Cl1 1-'
_chemical_name_systematic        
"Tetramethylammonium chloride 1,1',1''-((2,4,6-triethylbenzene-1,3,5-triyl)tris(methylene))tris(3-(3,5-bis(trifluoromethyl)phenyl)(thiourea)) monohydrate"
_symmetry_cell_setting           monoclinic
_symmetry_space_group_name_H-M   'C 2/c'
_symmetry_Int_Tables_number      15
_space_group_name_Hall           '-C 2yn'
loop_
_symmetry_equiv_pos_site_id
_symmetry_equiv_pos_as_xyz
1 x,y,z
2 -x,y,1/2-z
3 1/2+x,1/2+y,z
4 1/2-x,1/2+y,1/2-z
5 -x,-y,-z
6 x,-y,1/2+z
7 1/2-x,1/2-y,-z
8 1/2+x,1/2-y,1/2+z
_cell_length_a                   20.3759(13)
_cell_length_b                   35.024(4)
_cell_length_c                   16.9047(10)
_cell_angle_alpha                90
_cell_angle_beta                 98.951(6)
_cell_angle_gamma                90
_cell_volume                     11917
_cell_formula_units_Z            8
loop_
_atom_site_label
_atom_site_type_symbol
_atom_site_fract_x
_atom_site_fract_y
_atom_site_fract_z
S1 S 0.18457(10) 0.17183(8) 0.27528(12)
S2 S 0.41639(14) 0.38129(7) -0.01319(14)
S3 S 0.54432(14) 0.10531(10) -0.0437(2)
F1 F 0.4320(3) 0.1921(2) 0.6354(3)
N1 N 0.2949(3) 0.20162(18) 0.3629(3)
H1 H 0.3329 0.2117 0.3600
N2 N 0.4209(3) 0.31894(17) 0.0726(3)
H2 H 0.4394 0.3056 0.1127
N3 N 0.2921(3) 0.19794(19) 0.2298(3)
H3 H 0.3323 0.2061 0.2409
N4 N 0.4896(3) 0.36479(16) 0.1293(4)
H4 H 0.5007 0.3466 0.1630
N5 N 0.5019(3) 0.1590(2) 0.0441(4)
H5 H 0.492(5) 0.166(2) 0.093(3)
C1 C 0.3111(3) 0.2072(2) 0.0944(4)
C2 C 0.4062(3) 0.2339(2) 0.0031(4)
F2 F 0.3644(3) 0.1881(2) 0.7152(4)
C3 C 0.4006(3) 0.1943(2) 0.0173(4)
C4 C 0.3543(3) 0.1810(2) 0.0624(4)
C5 C 0.3623(3) 0.2594(2) 0.0340(4)
F3 F 0.0931(3) 0.1759(3) 0.4965(5)
F4 F 0.1298(3) 0.1738(3) 0.6194(5)
C6 C 0.3158(3) 0.2466(2) 0.0792(4)
C7 C 0.2786(3) 0.1986(2) 0.4405(4)
N6 N 0.5933(3) 0.1276(2) 0.1061(5)
H6 H 0.572(5) 0.138(3) 0.144(5)
C8 C 0.2584(3) 0.1907(2) 0.2908(4)
F5 F 0.1080(4) 0.2238(2) 0.5700(6)
C9 C 0.3309(4) 0.2015(3) 0.5036(4)
H7 H 0.3741 0.2047 0.4935
C10 C 0.2695(4) 0.2742(2) 0.1128(5)
H8 H 0.2315 0.2599 0.1252
H9 H 0.2531 0.2926 0.0717
C11 C 0.4580(3) 0.2491(2) -0.0424(4)
H10 H 0.4982 0.2340 -0.0297
H11 H 0.4686 0.2752 -0.0261
C12 C 0.2034(3) 0.1943(2) 0.5351(4)
C13 C 0.3181(4) 0.1996(3) 0.5823(4)
C14 C 0.2134(3) 0.1960(2) 0.4560(4)
H12 H 0.1777 0.1954 0.4144
C15 C 0.2634(4) 0.1925(2) 0.1455(4)
H13 H 0.2216 0.2061 0.1336
H14 H 0.2550 0.1656 0.1347
C16 C 0.4421(4) 0.3549(2) 0.0656(5)
F6 F 0.3847(5) 0.2405(3) 0.6712(6)
C17 C 0.5228(4) 0.3992(2) 0.1489(5)
C18 C 0.3682(4) 0.3011(2) 0.0159(4)
H15 H 0.3780 0.3041 -0.0381
H16 H 0.3263 0.3137 0.0189
C19 C 0.1346(4) 0.1904(3) 0.5502(5)
C20 C 0.3006(4) 0.2958(3) 0.1880(5)
H17 H 0.3319 0.3142 0.1741
H18 H 0.3231 0.2782 0.2264
H19 H 0.2664 0.3088 0.2108
C21 C 0.4337(4) 0.2478(3) -0.1342(5)
H20 H 0.4666 0.2593 -0.1617
H21 H 0.3927 0.2617 -0.1465
H22 H 0.4267 0.2218 -0.1512
C22 C 0.4451(4) 0.1669(3) -0.0164(5)
H23 H 0.4213 0.1435 -0.0320
H24 H 0.4596 0.1779 -0.0635
C23 C 0.5464(4) 0.1309(2) 0.0363(6)
C24 C 0.3488(4) 0.1381(2) 0.0767(5)
H25 H 0.3371 0.1339 0.1295
H26 H 0.3917 0.1262 0.0754
C25 C 0.2551(4) 0.1963(3) 0.5982(5)
H27 H 0.2469 0.1954 0.6507
F7 F 0.7735(6) 0.0974(4) -0.0575(9)
C26 C 0.2962(4) 0.1188(2) 0.0133(6)
H28 H 0.3029 0.1267 -0.0393
H29 H 0.2525 0.1263 0.0221
H30 H 0.3005 0.0916 0.0178
C27 C 0.3749(4) 0.2046(4) 0.6488(5)
C28 C 0.6530(4) 0.1064(3) 0.1159(7)
F8 F 0.7475(7) 0.0184(3) 0.2915(8)
C29 C 0.5814(5) 0.3970(3) 0.2037(6)
H31 H 0.5983 0.3736 0.2233
F9 F 0.6777(5) 0.3999(4) 0.3431(8)
C30 C 0.4977(7) 0.4344(2) 0.1216(6)
H32 H 0.4580 0.4363 0.0863
C31 C 0.6905(4) 0.1015(3) 0.0551(8)
H33 H 0.6763 0.1118 0.0046
C32 C 0.7333(6) 0.0709(3) 0.2031(8)
C33 C 0.4950(10) 0.5068(4) 0.1186(9)
C34 C 0.6135(6) 0.4310(4) 0.2281(7)
C35 C 0.7495(6) 0.0809(3) 0.0699(11)
C36 C 0.7860(8) 0.0761(6) -0.0005(15)
F10 F 0.7851(8) 0.0407(4) -0.0236(10)
F11 F 0.7399(8) 0.0730(4) 0.3404(7)
C37 C 0.6738(5) 0.0914(3) 0.1911(8)
H34 H 0.6490 0.0949 0.2324
C38 C 0.5345(8) 0.4675(4) 0.1496(9)
F12 F 0.8229(7) 0.0554(4) 0.3009(10)
C39 C 0.7700(7) 0.0659(4) 0.1444(11)
H35 H 0.8094 0.0521 0.1544
F13 F 0.5406(8) 0.5279(4) 0.1049(11)
F14 F 0.4510(7) 0.5038(3) 0.0509(10)
F15 F 0.8516(5) 0.0787(6) 0.0259(10)
F16 F 0.6943(9) 0.4575(4) 0.3270(10)
C40 C 0.5912(9) 0.4647(4) 0.1979(10)
H36 H 0.6164 0.4866 0.2114
F17 F 0.4544(10) 0.5175(4) 0.1656(10)
C41 C 0.6755(10) 0.4289(6) 0.2876(13)
F18 F 0.7280(7) 0.4126(6) 0.2580(9)
C42 C 0.7570(8) 0.0553(5) 0.2851(10)
Cl2 Cl 0.5000 0.15165(11) 0.2500
O1 O 0.4251(3) 0.21959(17) 0.3136(4)
H37 H 0.4490 0.1992 0.2959
H38 H 0.4393 0.2402 0.2925
C43 C 0.4925(10) 0.3313(5) -0.2081(10)
H39 H 0.4473 0.3227 -0.2208
H40 H 0.5043 0.3337 -0.1511
H41 H 0.5214 0.3131 -0.2278
C44 C 0.5243(8) 0.3717(6) -0.3149(10)
H42 H 0.5717 0.3692 -0.3029
H43 H 0.5134 0.3950 -0.3439
H44 H 0.5062 0.3505 -0.3469
C45 C 0.4397(6) 0.3944(5) -0.2418(11)
H45 H 0.4031 0.3850 -0.2795
H46 H 0.4468 0.4209 -0.2522
H47 H 0.4298 0.3915 -0.1884
C46 C 0.5537(8) 0.3916(5) -0.1755(10)
H48 H 0.5399 0.3857 -0.1251
H49 H 0.5548 0.4188 -0.1822
H50 H 0.5972 0.3813 -0.1765
N7 N 0.5000 0.3725(3) -0.2500
C43A C 0.5075(10) 0.3313(5) -0.2919(10)
H39A H 0.5527 0.3227 -0.2792
H40A H 0.4957 0.3337 -0.3489
H41A H 0.4786 0.3131 -0.2722
C44A C 0.4757(8) 0.3717(6) -0.1851(10)
H42A H 0.4283 0.3692 -0.1971
H43A H 0.4866 0.3950 -0.1561
H44A H 0.4938 0.3505 -0.1531
C45A C 0.5603(6) 0.3944(5) -0.2582(11)
H45A H 0.5969 0.3850 -0.2205
H46A H 0.5532 0.4209 -0.2478
H47A H 0.5702 0.3915 -0.3116
C46A C 0.4463(8) 0.3916(5) -0.3245(10)
H48A H 0.4601 0.3857 -0.3749
H49A H 0.4452 0.4188 -0.3178
H50A H 0.4028 0.3813 -0.3235
N8 N 0.4111(12) 0.0686(7) -0.2394(15)
C47 C 0.391(2) 0.1144(10) -0.245(3)
H51 H 0.3632 0.1202 -0.2061
H52 H 0.3683 0.1201 -0.2977
H53 H 0.4311 0.1295 -0.2346
C48 C 0.3893(16) 0.0494(8) -0.1662(17)
H54 H 0.4060 0.0637 -0.1189
H55 H 0.4066 0.0238 -0.1611
H56 H 0.3417 0.0486 -0.1728
C49 C 0.3667(17) 0.0498(10) -0.3118(18)
H57 H 0.3332 0.0676 -0.3347
H58 H 0.3458 0.0275 -0.2942
H59 H 0.3935 0.0427 -0.3514
C50 C 0.4794(16) 0.0638(8) -0.256(3)
H60 H 0.4795 0.0464 -0.2997
H61 H 0.5067 0.0537 -0.2090
H62 H 0.4966 0.0880 -0.2692
N8A N 0.5889(12) 0.0686(7) -0.2606(15)
C47A C 0.609(2) 0.1144(10) -0.255(3)
H51A H 0.6368 0.1202 -0.2939
H52A H 0.6317 0.1201 -0.2023
H53A H 0.5689 0.1295 -0.2654
C48A C 0.6107(16) 0.0494(8) -0.3338(17)
H54A H 0.5940 0.0637 -0.3811
H55A H 0.5934 0.0238 -0.3389
H56A H 0.6583 0.0486 -0.3272
C49A C 0.6333(17) 0.0498(10) -0.1882(18)
H57A H 0.6668 0.0676 -0.1653
H58A H 0.6542 0.0275 -0.2058
H59A H 0.6065 0.0427 -0.1486
C50A C 0.5206(16) 0.0638(8) -0.244(3)
H60A H 0.5205 0.0464 -0.2003
H61A H 0.4933 0.0537 -0.2910
H62A H 0.5034 0.0880 -0.2308
Cl1 Cl 0.5000 0.29083(7) 0.2500
loop_
_geom_bond_atom_site_label_1
_geom_bond_atom_site_label_2
_geom_bond_site_symmetry_1
_geom_bond_site_symmetry_2
S1 C8 1_555 1_555
S2 C16 1_555 1_555
S3 C23 1_555 1_555
F1 C27 1_555 1_555
N1 H1 1_555 1_555
N2 H2 1_555 1_555
N3 H3 1_555 1_555
N4 H4 1_555 1_555
N5 H5 1_555 1_555
C1 C4 1_555 1_555
C2 C3 1_555 1_555
F2 C27 1_555 1_555
C3 C4 1_555 1_555
C4 C24 1_555 1_555
C5 C2 1_555 1_555
F3 C19 1_555 1_555
F4 C19 1_555 1_555
C6 C1 1_555 1_555
C7 N1 1_555 1_555
N6 H6 1_555 1_555
C8 N1 1_555 1_555
F5 C19 1_555 1_555
C9 C7 1_555 1_555
H7 C9 1_555 1_555
C10 C6 1_555 1_555
H8 C10 1_555 1_555
H9 C10 1_555 1_555
C11 C2 1_555 1_555
H10 C11 1_555 1_555
H11 C11 1_555 1_555
C12 C14 1_555 1_555
C13 C9 1_555 1_555
C14 C7 1_555 1_555
H12 C14 1_555 1_555
C15 N3 1_555 1_555
H13 C15 1_555 1_555
H14 C15 1_555 1_555
C16 N2 1_555 1_555
F6 C27 1_555 1_555
C17 N4 1_555 1_555
C18 N2 1_555 1_555
H15 C18 1_555 1_555
H16 C18 1_555 1_555
C19 C12 1_555 1_555
C20 C10 1_555 1_555
H17 C20 1_555 1_555
H18 C20 1_555 1_555
H19 C20 1_555 1_555
C21 C11 1_555 1_555
H20 C21 1_555 1_555
H21 C21 1_555 1_555
H22 C21 1_555 1_555
C22 N5 1_555 1_555
H23 C22 1_555 1_555
H24 C22 1_555 1_555
C23 N5 1_555 1_555
C24 H25 1_555 1_555
H26 C24 1_555 1_555
C25 C12 1_555 1_555
H27 C25 1_555 1_555
F7 C36 1_555 1_555
C26 C24 1_555 1_555
H28 C26 1_555 1_555
H29 C26 1_555 1_555
H30 C26 1_555 1_555
C27 C13 1_555 1_555
C28 N6 1_555 1_555
F8 C42 1_555 1_555
C29 C17 1_555 1_555
H31 C29 1_555 1_555
F9 C41 1_555 1_555
C30 C17 1_555 1_555
H32 C30 1_555 1_555
C31 C28 1_555 1_555
H33 C31 1_555 1_555
C32 C37 1_555 1_555
C33 C38 1_555 1_555
C34 C29 1_555 1_555
C35 C31 1_555 1_555
C36 C35 1_555 1_555
F10 C36 1_555 1_555
F11 C42 1_555 1_555
C37 C28 1_555 1_555
H34 C37 1_555 1_555
C38 C30 1_555 1_555
F12 C42 1_555 1_555
C39 C32 1_555 1_555
H35 C39 1_555 1_555
F13 C33 1_555 1_555
F14 C33 1_555 1_555
F15 C36 1_555 1_555
F16 C41 1_555 1_555
C40 C34 1_555 1_555
H36 C40 1_555 1_555
F17 C33 1_555 1_555
C41 C34 1_555 1_555
F18 C41 1_555 1_555
C42 C32 1_555 1_555
O1 H37 1_555 1_555
H38 O1 1_555 1_555
C43 H39 1_555 1_555
H40 C43 1_555 1_555
H41 C43 1_555 1_555
C44 H42 1_555 1_555
H42 C45A 1_555 1_555
H43 C44 1_555 1_555
H44 C44 1_555 1_555
C45 H45 1_555 1_555
H45 C46A 1_555 1_555
H46 C45 1_555 1_555
H47 C45 1_555 1_555
C46 H48 1_555 1_555
H49 C46 1_555 1_555
H50 C46 1_555 1_555
N7 C43 1_555 1_555
N8 C47 1_555 1_555
C47 H51 1_555 1_555
H52 C47 1_555 1_555
H53 C47 1_555 1_555
C48 N8 1_555 1_555
H54 C48 1_555 1_555
H55 C48 1_555 1_555
H56 C48 1_555 1_555
C49 N8 1_555 1_555
H57 C49 1_555 1_555
H58 C49 1_555 1_555
H59 C49 1_555 1_555
C50 N8 1_555 1_555
H60 C50 1_555 1_555
H61 C50 1_555 1_555
H62 C50 1_555 1_555
C43A C43 1_555 1_555
H39A C43A 1_555 1_555
H40A C43A 1_555 1_555
H41A C43 1_555 1_555
C44A C43 1_555 1_555
H42A C45 1_555 1_555
H43A C44A 1_555 1_555
H44A C43 1_555 1_555
C45A C44 1_555 1_555
H45A C46 1_555 1_555
H46A C45A 1_555 1_555
H47A C44 1_555 1_555
C46A C44 1_555 1_555
H48A C46A 1_555 1_555
H49A C46A 1_555 1_555
H50A C46A 1_555 1_555
N8A C47A 1_555 1_555
C47A H51A 1_555 1_555
H52A C47A 1_555 1_555
H53A C47A 1_555 1_555
C48A N8A 1_555 1_555
H54A C48A 1_555 1_555
H55A C48A 1_555 1_555
H56A C48A 1_555 1_555
C49A N8A 1_555 1_555
H57A C49A 1_555 1_555
H58A C49A 1_555 1_555
H59A C49A 1_555 1_555
C50A C50 1_555 1_555
H60A C50 1_555 1_555
H61A C50 1_555 1_555
H62A C50 1_555 1_555
N3 C8 1_555 1_555
N4 C16 1_555 1_555
C1 C15 1_555 1_555
C3 C22 1_555 1_555
C5 C6 1_555 1_555
C5 C18 1_555 1_555
N6 C23 1_555 1_555
C13 C25 1_555 1_555
C35 C39 1_555 1_555
C38 C40 1_555 1_555
H41 C43A 1_555 1_555
C44 N7 1_555 1_555
C44 C43A 1_555 1_555
H44 C43A 1_555 1_555
C45 N7 1_555 1_555
C45 C44A 1_555 1_555
C45 C46A 1_555 1_555
H47 C44A 1_555 1_555
C46 N7 1_555 1_555
C46 C44A 1_555 1_555
C46 C45A 1_555 1_555
N7 C43A 1_555 1_555
N7 C44A 1_555 1_555
N7 C45A 1_555 1_555
N7 C46A 1_555 1_555
H60 C50A 1_555 1_555
H61 C50A 1_555 1_555
H62 C50A 1_555 1_555
C43A H41A 1_555 1_555
C44A H42A 1_555 1_555
C44A H44A 1_555 1_555
C45A H45A 1_555 1_555
C45A H47A 1_555 1_555
N8A C50A 1_555 1_555
C50A H60A 1_555 1_555
C50A H61A 1_555 1_555
C50A H62A 1_555 1_555

#END
