
#######################################################################
#
#                 Cambridge Crystallographic Data Centre
#                                CCDC 
#
#######################################################################
#
# If this CIF has been generated from an entry in the Cambridge 
# Structural Database, then it will include bibliographic, chemical, 
# crystal, experimental, refinement or atomic coordinate data resulting 
# from the CCDC's data processing and validation procedures.
#
#######################################################################

data_RUSCOZ
_chemical_formula_moiety         'C18 H12 N4 O2'
_chemical_name_systematic        
3-(4-(1H-imidazol-1-yl)phenyl)-2-(4-nitrophenyl)acrylonitrile
_symmetry_cell_setting           monoclinic
_symmetry_space_group_name_H-M   'P 21/c'
_symmetry_Int_Tables_number      14
_space_group_name_Hall           '-P 2ybc'
loop_
_symmetry_equiv_pos_site_id
_symmetry_equiv_pos_as_xyz
1 x,y,z
2 -x,1/2+y,1/2-z
3 -x,-y,-z
4 x,1/2-y,1/2+z
_cell_length_a                   7.1792(16)
_cell_length_b                   16.512(4)
_cell_length_c                   12.771(3)
_cell_angle_alpha                90
_cell_angle_beta                 101.557(3)
_cell_angle_gamma                90
_cell_volume                     1483.22
_exptl_crystal_colour            red
_exptl_crystal_description       block
_cell_formula_units_Z            4
loop_
_atom_site_label
_atom_site_type_symbol
_atom_site_fract_x
_atom_site_fract_y
_atom_site_fract_z
N1 N 0.33343(18) 0.36839(7) 0.53687(9)
C1 C 0.2512(2) 0.49937(9) 0.03244(11)
C2 C 0.1639(2) 0.65848(9) -0.23484(11)
C3 C 0.2711(2) 0.47837(9) 0.23353(10)
C4 C 0.2517(2) 0.52940(9) -0.15944(11)
H1 H 0.2917 0.4765 -0.1669
C5 C 0.3390(2) 0.36047(9) 0.34742(11)
H2 H 0.3709 0.3059 0.3557
C6 C 0.3103(2) 0.40518(9) 0.43461(10)
C7 C 0.2195(2) 0.55534(8) -0.06072(11)
C8 C 0.2614(2) 0.48643(9) 0.42196(11)
H3 H 0.2416 0.5167 0.4802
C9 C 0.2475(2) 0.52285(9) 0.13288(11)
H4 H 0.2257 0.5780 0.1395
C10 C 0.2421(2) 0.52205(9) 0.32260(11)
H5 H 0.2091 0.5765 0.3147
C11 C 0.3203(2) 0.39658(9) 0.24824(11)
H6 H 0.3408 0.3661 0.1904
N2 N 0.1372(2) 0.71310(10) -0.32681(11)
C12 C 0.1554(2) 0.63447(9) -0.05281(11)
H7 H 0.1308 0.6527 0.0120
C13 C 0.2251(2) 0.58088(10) -0.24634(11)
H8 H 0.2484 0.5632 -0.3117
O1 O 0.0835(2) 0.78255(8) -0.31500(10)
O2 O 0.1702(2) 0.68742(9) -0.41145(10)
C14 C 0.1280(2) 0.68607(9) -0.13928(12)
H9 H 0.0859 0.7388 -0.1331
N3 N 0.3111(3) 0.35246(9) -0.02129(11)
C15 C 0.2850(2) 0.41644(10) 0.00623(11)
N4 N 0.4589(2) 0.29296(8) 0.67745(10)
C16 C 0.4684(2) 0.31340(9) 0.57988(12)
H10 H 0.5579 0.2926 0.5436
C17 C 0.2306(3) 0.38325(10) 0.61467(12)
H11 H 0.1281 0.4184 0.6103
C18 C 0.3083(3) 0.33654(10) 0.69857(12)
H12 H 0.2653 0.3342 0.7625
loop_
_geom_bond_atom_site_label_1
_geom_bond_atom_site_label_2
_geom_bond_site_symmetry_1
_geom_bond_site_symmetry_2
N1 C6 1_555 1_555
C1 C7 1_555 1_555
C2 N2 1_555 1_555
C3 C9 1_555 1_555
C4 H1 1_555 1_555
C5 H2 1_555 1_555
C6 C5 1_555 1_555
C7 C4 1_555 1_555
C8 C6 1_555 1_555
H3 C8 1_555 1_555
C9 C1 1_555 1_555
H4 C9 1_555 1_555
C10 C3 1_555 1_555
H5 C10 1_555 1_555
C11 C3 1_555 1_555
H6 C11 1_555 1_555
N2 O1 1_555 1_555
C12 C7 1_555 1_555
H7 C12 1_555 1_555
C13 C2 1_555 1_555
H8 C13 1_555 1_555
O2 N2 1_555 1_555
C14 C2 1_555 1_555
H9 C14 1_555 1_555
N3 C15 1_555 1_555
C15 C1 1_555 1_555
N4 C16 1_555 1_555
C16 N1 1_555 1_555
H10 C16 1_555 1_555
C17 N1 1_555 1_555
H11 C17 1_555 1_555
C18 N4 1_555 1_555
H12 C18 1_555 1_555
C4 C13 1_555 1_555
C5 C11 1_555 1_555
C8 C10 1_555 1_555
C12 C14 1_555 1_555
C17 C18 1_555 1_555

#END
