
#######################################################################
#
#                 Cambridge Crystallographic Data Centre
#                                CCDC 
#
#######################################################################
#
# If this CIF has been generated from an entry in the Cambridge 
# Structural Database, then it will include bibliographic, chemical, 
# crystal, experimental, refinement or atomic coordinate data resulting 
# from the CCDC's data processing and validation procedures.
#
#######################################################################

data_RUSDIT
_chemical_formula_moiety         'C25 H22 O6'
_chemical_name_systematic        
'Dimethyl 10-oxo-8,9-diphenyl-4-oxatricyclo[5.2.1.0^2,6^]dec-8-ene-1,7-dicarboxylate'
_symmetry_cell_setting           monoclinic
_symmetry_space_group_name_H-M   'C 2/c'
_symmetry_Int_Tables_number      15
_space_group_name_Hall           '-C 2yn'
loop_
_symmetry_equiv_pos_site_id
_symmetry_equiv_pos_as_xyz
1 x,y,z
2 -x,y,1/2-z
3 1/2+x,1/2+y,z
4 1/2-x,1/2+y,1/2-z
5 -x,-y,-z
6 x,-y,1/2+z
7 1/2-x,1/2-y,-z
8 1/2+x,1/2-y,1/2+z
_cell_length_a                   38.180(3)
_cell_length_b                   8.3440(6)
_cell_length_c                   14.4486(9)
_cell_angle_alpha                90
_cell_angle_beta                 108.2870(10)
_cell_angle_gamma                90
_cell_volume                     4370.48
_exptl_crystal_colour            colorless
_cell_formula_units_Z            8
_exptl_crystal_recrystallization_method dichloromethane/n-hexane
loop_
_atom_site_label
_atom_site_type_symbol
_atom_site_fract_x
_atom_site_fract_y
_atom_site_fract_z
O1 O 0.13826(3) -0.16711(15) 0.11176(8)
O2 O 0.19459(3) 0.03714(13) 0.41772(7)
O3 O 0.16519(2) 0.26831(11) 0.41429(6)
O4 O 0.01745(2) -0.00403(13) 0.12244(8)
O5 O 0.03163(2) 0.25672(11) 0.13427(7)
O6 O 0.08561(2) 0.17148(10) 0.34280(6)
C1 C 0.15733(5) -0.1773(3) 0.21319(15)
H1 H 0.1809 -0.1231 0.2287
H2 H 0.1616 -0.2885 0.2332
C2 C 0.13247(3) -0.09536(14) 0.26536(8)
H3 H 0.1325 -0.1556 0.3236
C3 C 0.09379(3) -0.10096(13) 0.18676(8)
H4 H 0.0769 -0.1662 0.2101
C4 C 0.10001(5) -0.1794(2) 0.09907(17)
H5 H 0.0925 -0.2910 0.0948
H6 H 0.0858 -0.1253 0.0397
C5 C 0.13893(3) 0.08675(13) 0.28863(7)
C6 C 0.13951(3) 0.17742(12) 0.19676(7)
C7 C 0.10527(3) 0.17495(12) 0.13187(7)
C8 C 0.08075(3) 0.07634(13) 0.17558(7)
C9 C 0.16948(3) 0.12463(15) 0.38054(7)
C10 C 0.19375(4) 0.3228(2) 0.50056(10)
H7 H 0.1986 0.2410 0.5497
H8 H 0.1857 0.4186 0.5246
H9 H 0.2158 0.3448 0.4845
C11 C 0.03969(3) 0.10212(16) 0.14038(8)
C12 C -0.00720(4) 0.2977(2) 0.09716(15)
H10 H -0.0170 0.2637 0.0305
H11 H -0.0100 0.4116 0.1009
H12 H -0.0202 0.2450 0.1355
C13 C 0.09895(3) 0.12700(13) 0.28324(7)
C14 C 0.17390(3) 0.23863(13) 0.18185(7)
C15 C 0.19473(3) 0.36002(16) 0.23796(9)
H13 H 0.1875 0.4056 0.2878
C16 C 0.22659(4) 0.41453(19) 0.22003(11)
H14 H 0.2405 0.4958 0.2583
C17 C 0.23743(3) 0.34945(19) 0.14673(10)
H15 H 0.2586 0.3863 0.1350
C18 C 0.21699(3) 0.23010(18) 0.09092(10)
H16 H 0.2243 0.1859 0.0408
C19 C 0.18554(3) 0.17405(15) 0.10782(8)
H17 H 0.1720 0.0921 0.0692
C20 C 0.09224(3) 0.24815(13) 0.03406(7)
C21 C 0.10763(3) 0.39113(14) 0.01508(9)
H18 H 0.1264 0.4396 0.0643
C22 C 0.09537(4) 0.46137(16) -0.07542(10)
H19 H 0.1061 0.5562 -0.0870
C23 C 0.06727(3) 0.39218(17) -0.14928(10)
H20 H 0.0592 0.4398 -0.2105
C24 C 0.05135(3) 0.25259(17) -0.13175(9)
H21 H 0.0322 0.2063 -0.1811
C25 C 0.06367(3) 0.18062(15) -0.04105(8)
H22 H 0.0527 0.0859 -0.0300
C26? C 0.15899(17) -0.1773(7) 0.2246(4)
C27? C 0.10485(16) -0.1845(6) 0.1013(3)
H23? H 0.1730 -0.0992 0.2009
H24? H 0.1761 -0.2424 0.2741
H25? H 0.0853 -0.2552 0.0642
H26? H 0.1094 -0.1047 0.0575
O7? O 0.13786(10) -0.2739(4) 0.1477(3)
loop_
_geom_bond_atom_site_label_1
_geom_bond_atom_site_label_2
_geom_bond_site_symmetry_1
_geom_bond_site_symmetry_2
O1 C1 1_555 1_555
O2 C9 1_555 1_555
O3 C9 1_555 1_555
O4 C11 1_555 1_555
O5 C11 1_555 1_555
O6 C13 1_555 1_555
C1 H1 1_555 1_555
H2 C1 1_555 1_555
C2 C1 1_555 1_555
H3 C2 1_555 1_555
C3 C2 1_555 1_555
H4 C3 1_555 1_555
C4 O1 1_555 1_555
H5 C4 1_555 1_555
H6 C4 1_555 1_555
C5 C2 1_555 1_555
C6 C5 1_555 1_555
C7 C6 1_555 1_555
C8 C3 1_555 1_555
C9 C5 1_555 1_555
C10 O3 1_555 1_555
H7 C10 1_555 1_555
H8 C10 1_555 1_555
H9 C10 1_555 1_555
C11 C8 1_555 1_555
C12 O5 1_555 1_555
H10 C12 1_555 1_555
H11 C12 1_555 1_555
H12 C12 1_555 1_555
C13 C5 1_555 1_555
C14 C6 1_555 1_555
C15 C14 1_555 1_555
H13 C15 1_555 1_555
C16 C15 1_555 1_555
H14 C16 1_555 1_555
C17 C16 1_555 1_555
H15 C17 1_555 1_555
C18 C17 1_555 1_555
H16 C18 1_555 1_555
C19 C14 1_555 1_555
H17 C19 1_555 1_555
C20 C7 1_555 1_555
C21 C20 1_555 1_555
H18 C21 1_555 1_555
C22 C21 1_555 1_555
H19 C22 1_555 1_555
C23 C22 1_555 1_555
H20 C23 1_555 1_555
C24 C23 1_555 1_555
H21 C24 1_555 1_555
C25 C20 1_555 1_555
H22 C25 1_555 1_555
C3 C4 1_555 1_555
C7 C8 1_555 1_555
C8 C13 1_555 1_555
C18 C19 1_555 1_555
C24 C25 1_555 1_555

#END
