
#######################################################################
#
#                 Cambridge Crystallographic Data Centre
#                                CCDC 
#
#######################################################################
#
# If this CIF has been generated from an entry in the Cambridge 
# Structural Database, then it will include bibliographic, chemical, 
# crystal, experimental, refinement or atomic coordinate data resulting 
# from the CCDC's data processing and validation procedures.
#
#######################################################################

data_RUSFAN
_chemical_formula_moiety         'C40 H28 I2 O2'
_chemical_name_systematic        
15,16-bis(Iodomethyl)-14c,16a-dimethyl-9-phenyl-14c,15,16,16a-tetrahydrodiindeno[2,1-a:1',2'-j]fluoranthene-1,14-dione
_symmetry_cell_setting           monoclinic
_symmetry_space_group_name_H-M   'P 21/c'
_symmetry_Int_Tables_number      14
_space_group_name_Hall           '-P 2ybc'
loop_
_symmetry_equiv_pos_site_id
_symmetry_equiv_pos_as_xyz
1 x,y,z
2 -x,1/2+y,1/2-z
3 -x,-y,-z
4 x,1/2-y,1/2+z
_cell_length_a                   11.0096(9)
_cell_length_b                   11.9610(10)
_cell_length_c                   23.520(2)
_cell_angle_alpha                90
_cell_angle_beta                 96.074(1)
_cell_angle_gamma                90
_cell_volume                     3079.86
_exptl_crystal_colour            yellow
_chemical_melting_point          'decomposes at 215deg.C'
_cell_formula_units_Z            4
_exptl_crystal_recrystallization_method dichloromethane/hexanes
loop_
_atom_site_label
_atom_site_type_symbol
_atom_site_fract_x
_atom_site_fract_y
_atom_site_fract_z
I1 I 1.07544(3) 0.93293(2) 0.244765(13)
I2 I 1.15994(3) 0.60287(3) 0.426946(17)
O1 O 0.6859(3) 0.5989(2) 0.23921(15)
O2 O 1.2200(3) 0.8816(3) 0.40341(18)
C1 C 0.7798(3) 0.8415(3) 0.30526(16)
C2 C 0.8922(3) 0.7675(3) 0.29929(15)
H1 H 0.8586 0.6919 0.2940
C3 C 0.9734(3) 0.7620(3) 0.35753(16)
H2 H 0.9264 0.7167 0.3822
C4 C 0.9932(4) 0.8761(3) 0.38948(16)
C5 C 1.1228(4) 0.9290(3) 0.39484(17)
C6 C 1.1051(4) 1.0521(3) 0.39626(17)
C7 C 1.1909(4) 1.1345(4) 0.41160(19)
H3 H 1.2731 1.1163 0.4196
C8 C 1.1527(4) 1.2434(4) 0.41487(19)
H4 H 1.2098 1.3002 0.4225
C9 C 1.0303(5) 1.2685(4) 0.40687(18)
H5 H 1.0053 1.3419 0.4114
C10 C 0.9429(4) 1.1867(3) 0.39213(17)
H6 H 0.8603 1.2046 0.3881
C11 C 0.9810(4) 1.0775(3) 0.38351(16)
C12 C 0.9145(3) 0.9736(3) 0.36423(15)
C13 C 0.8195(3) 0.9609(3) 0.32386(15)
C14 C 0.7485(3) 1.0406(3) 0.28552(16)
C15 C 0.7373(3) 1.1561(3) 0.28234(17)
H7 H 0.7809 1.2013 0.3094
C16 C 0.6590(4) 1.2040(3) 0.23757(18)
H8 H 0.6528 1.2815 0.2357
C17 C 0.5917(3) 1.1417(3) 0.19669(18)
H9 H 0.5409 1.1770 0.1681
C18 C 0.5996(3) 1.0241(3) 0.19807(17)
C19 C 0.5314(3) 0.9486(3) 0.15883(17)
C20 C 0.5525(3) 0.8359(3) 0.16502(17)
C21 C 0.5009(4) 0.7400(3) 0.12987(18)
C22 C 0.4254(4) 0.7351(4) 0.0785(2)
H10 H 0.3937 0.8002 0.0611
C23 C 0.3983(5) 0.6320(5) 0.0537(2)
H11 H 0.3491 0.6282 0.0191
C24 C 0.4437(5) 0.5333(5) 0.0799(2)
H12 H 0.4232 0.4646 0.0630
C25 C 0.5184(4) 0.5371(4) 0.1306(2)
H13 H 0.5493 0.4718 0.1481
C26 C 0.5464(4) 0.6401(3) 0.15485(19)
C27 C 0.6320(4) 0.6660(3) 0.20706(18)
C28 C 0.6351(3) 0.7907(3) 0.21125(17)
C29 C 0.6981(3) 0.8608(3) 0.24992(16)
C30 C 0.6793(3) 0.9774(3) 0.24226(16)
C31 C 0.6988(4) 0.7905(3) 0.34850(18)
H14 H 0.6232 0.8309 0.3469
H15 H 0.7405 0.7955 0.3864
H16 H 0.6824 0.7135 0.3391
C32 C 0.9559(4) 0.7882(3) 0.24609(16)
H17 H 0.8934 0.7948 0.2139
H18 H 1.0037 0.7223 0.2395
C33 C 1.0882(4) 0.6919(4) 0.35048(19)
H19 H 1.1513 0.7410 0.3389
H20 H 1.0688 0.6381 0.3200
C34 C 0.9690(5) 0.8593(4) 0.45276(18)
H21 H 0.9755 0.9299 0.4723
H22 H 1.0280 0.8082 0.4710
H23 H 0.8884 0.8295 0.4541
C35 C 0.4314(4) 0.9939(3) 0.11656(17)
C36 C 0.3124(4) 0.9753(4) 0.12626(19)
H24 H 0.2956 0.9345 0.1582
C37 C 0.2164(4) 1.0167(4) 0.0888(2)
H25 H 0.1360 1.0026 0.0953
C38 C 0.2414(4) 1.0791(4) 0.0418(2)
H26 H 0.1777 1.1078 0.0169
C39 C 0.3605(5) 1.0986(5) 0.0320(2)
H27 H 0.3773 1.1396 0.0002
C40 C 0.4561(4) 1.0573(4) 0.0695(2)
H28 H 0.5365 1.0719 0.0631
loop_
_geom_bond_atom_site_label_1
_geom_bond_atom_site_label_2
_geom_bond_site_symmetry_1
_geom_bond_site_symmetry_2
I1 C32 1_555 1_555
I2 C33 1_555 1_555
O1 C27 1_555 1_555
O2 C5 1_555 1_555
C1 C2 1_555 1_555
C2 H1 1_555 1_555
C3 C2 1_555 1_555
H2 C3 1_555 1_555
C4 C3 1_555 1_555
C5 C4 1_555 1_555
C6 C5 1_555 1_555
C7 C6 1_555 1_555
H3 C7 1_555 1_555
C8 C7 1_555 1_555
H4 C8 1_555 1_555
C9 C8 1_555 1_555
H5 C9 1_555 1_555
C10 C9 1_555 1_555
H6 C10 1_555 1_555
C11 C6 1_555 1_555
C12 C4 1_555 1_555
C13 C1 1_555 1_555
C14 C13 1_555 1_555
C15 C14 1_555 1_555
H7 C15 1_555 1_555
C16 C15 1_555 1_555
H8 C16 1_555 1_555
C17 C16 1_555 1_555
H9 C17 1_555 1_555
C18 C17 1_555 1_555
C19 C18 1_555 1_555
C20 C19 1_555 1_555
C21 C20 1_555 1_555
C22 C21 1_555 1_555
H10 C22 1_555 1_555
C23 C22 1_555 1_555
H11 C23 1_555 1_555
C24 C23 1_555 1_555
H12 C24 1_555 1_555
C25 C24 1_555 1_555
H13 C25 1_555 1_555
C26 C21 1_555 1_555
C27 C26 1_555 1_555
C28 C20 1_555 1_555
C29 C1 1_555 1_555
C30 C14 1_555 1_555
C31 C1 1_555 1_555
H14 C31 1_555 1_555
H15 C31 1_555 1_555
H16 C31 1_555 1_555
C32 C2 1_555 1_555
H17 C32 1_555 1_555
H18 C32 1_555 1_555
C33 C3 1_555 1_555
H19 C33 1_555 1_555
H20 C33 1_555 1_555
C34 C4 1_555 1_555
H21 C34 1_555 1_555
H22 C34 1_555 1_555
H23 C34 1_555 1_555
C35 C19 1_555 1_555
C36 C35 1_555 1_555
H24 C36 1_555 1_555
C37 C36 1_555 1_555
H25 C37 1_555 1_555
C38 C37 1_555 1_555
H26 C38 1_555 1_555
C39 C38 1_555 1_555
H27 C39 1_555 1_555
C40 C35 1_555 1_555
H28 C40 1_555 1_555
C10 C11 1_555 1_555
C11 C12 1_555 1_555
C12 C13 1_555 1_555
C18 C30 1_555 1_555
C25 C26 1_555 1_555
C27 C28 1_555 1_555
C28 C29 1_555 1_555
C29 C30 1_555 1_555
C39 C40 1_555 1_555

#END
