
#######################################################################
#
#                 Cambridge Crystallographic Data Centre
#                                CCDC 
#
#######################################################################
#
# If this CIF has been generated from an entry in the Cambridge 
# Structural Database, then it will include bibliographic, chemical, 
# crystal, experimental, refinement or atomic coordinate data resulting 
# from the CCDC's data processing and validation procedures.
#
#######################################################################

data_RUSFUH
_chemical_formula_moiety         'C42 H42 S2'
_chemical_name_systematic        6,13-bis(5-Hexylthiophene-2-yl)pentacene
_symmetry_cell_setting           triclinic
_symmetry_space_group_name_H-M   'P -1'
_symmetry_Int_Tables_number      2
_space_group_name_Hall           '-P 1'
loop_
_symmetry_equiv_pos_site_id
_symmetry_equiv_pos_as_xyz
1 x,y,z
2 -x,-y,-z
_cell_length_a                   7.7299(13)
_cell_length_b                   9.2123(15)
_cell_length_c                   12.422(2)
_cell_angle_alpha                69.112(2)
_cell_angle_beta                 81.845(2)
_cell_angle_gamma                85.655(2)
_cell_volume                     817.777
_exptl_crystal_colour            black
_exptl_crystal_description       block
_chemical_melting_point          'above 300deg.C'
_cell_formula_units_Z            1
_exptl_crystal_preparation       fluorescent
loop_
_atom_site_label
_atom_site_type_symbol
_atom_site_fract_x
_atom_site_fract_y
_atom_site_fract_z
C1 C 0.8753(2) 0.39802(17) -0.00700(13)
C2 C 0.7455(2) 0.30226(18) -0.01232(14)
H1 H 0.7662 0.2523 -0.0662
C3 C 0.5888(2) 0.27972(17) 0.05938(14)
C4 C 0.4566(2) 0.1836(2) 0.05301(16)
H2 H 0.4760 0.1335 -0.0009
C5 C 0.3038(3) 0.1643(2) 0.12394(18)
H3 H 0.2201 0.1002 0.1192
C6 C 0.2705(2) 0.2415(2) 0.20571(18)
H4 H 0.1642 0.2285 0.2532
C7 C 0.3905(2) 0.3334(2) 0.21546(17)
H5 H 0.3662 0.3824 0.2699
C8 C 0.5556(2) 0.35669(18) 0.14298(14)
C9 C 0.6813(2) 0.45010(18) 0.15050(14)
H6 H 0.6589 0.4986 0.2053
C10 C 0.8429(2) 0.47481(17) 0.07798(13)
C11 C 0.9678(2) 0.57445(17) 0.08413(13)
C12 C 0.9337(2) 0.65163(18) 0.17199(14)
C13 C 0.9373(3) 0.5897(2) 0.28836(15)
H7 H 0.9648 0.4856 0.3271
C14 C 0.8947(2) 0.6992(2) 0.34578(15)
H8 H 0.8923 0.6735 0.4255
C15 C 0.8583(2) 0.84348(19) 0.27356(14)
C16 C 0.8050(3) 0.9911(2) 0.29674(15)
H9 H 0.6950 1.0292 0.2662
H10 H 0.8918 1.0684 0.2540
C17 C 0.7839(2) 0.9777(2) 0.42301(15)
H11 H 0.8936 0.9414 0.4545
H12 H 0.6962 0.9017 0.4668
C18 C 0.7296(3) 1.1330(2) 0.43640(16)
H13 H 0.8198 1.2070 0.3938
H14 H 0.6233 1.1705 0.4009
C19 C 0.6985(2) 1.1302(2) 0.56002(16)
H15 H 0.8064 1.0986 0.5945
H16 H 0.6123 1.0528 0.6040
C20 C 0.6357(3) 1.2849(3) 0.5704(2)
H17 H 0.7210 1.3628 0.5258
H18 H 0.5267 1.3159 0.5372
C21 C 0.6078(4) 1.2806(4) 0.6942(3)
H19 H 0.5243 1.2031 0.7392
H20 H 0.5648 1.3804 0.6959
H21 H 0.7167 1.2555 0.7264
S1 S 0.87626(6) 0.84657(5) 0.13271(4)
C1A C 1.1247(2) 0.60198(17) 0.00700(13)
C2A C 1.2545(2) 0.69774(18) 0.01232(14)
H1A H 1.2338 0.7477 0.0662
C3A C 1.4112(2) 0.72028(17) -0.05938(14)
C4A C 1.5434(2) 0.8164(2) -0.05301(16)
H2A H 1.5240 0.8665 0.0009
C5A C 1.6962(3) 0.8357(2) -0.12394(18)
H3A H 1.7799 0.8998 -0.1192
C6A C 1.7295(2) 0.7585(2) -0.20571(18)
H4A H 1.8358 0.7715 -0.2532
C7A C 1.6095(2) 0.6666(2) -0.21546(17)
H5A H 1.6338 0.6176 -0.2699
C8A C 1.4444(2) 0.64331(18) -0.14298(14)
C9A C 1.3187(2) 0.54990(18) -0.15050(14)
H6A H 1.3411 0.5014 -0.2053
C10A C 1.1571(2) 0.52519(17) -0.07798(13)
C11A C 1.0322(2) 0.42555(17) -0.08413(13)
C12A C 1.0663(2) 0.34837(18) -0.17199(14)
C13A C 1.0627(3) 0.4103(2) -0.28836(15)
H7A H 1.0352 0.5144 -0.3271
C14A C 1.1053(2) 0.3008(2) -0.34578(15)
H8A H 1.1077 0.3265 -0.4255
C15A C 1.1417(2) 0.15652(19) -0.27356(14)
C16A C 1.1950(3) 0.0089(2) -0.29674(15)
H9A H 1.3050 -0.0292 -0.2662
H10A H 1.1082 -0.0684 -0.2540
C17A C 1.2161(2) 0.0223(2) -0.42301(15)
H11A H 1.1064 0.0586 -0.4545
H12A H 1.3038 0.0983 -0.4668
C18A C 1.2704(3) -0.1330(2) -0.43640(16)
H13A H 1.1802 -0.2070 -0.3938
H14A H 1.3767 -0.1705 -0.4009
C19A C 1.3015(2) -0.1302(2) -0.56002(16)
H15A H 1.1936 -0.0986 -0.5945
H16A H 1.3877 -0.0528 -0.6040
C20A C 1.3643(3) -0.2849(3) -0.5704(2)
H17A H 1.2790 -0.3628 -0.5258
H18A H 1.4733 -0.3159 -0.5372
C21A C 1.3922(4) -0.2806(4) -0.6942(3)
H19A H 1.4757 -0.2031 -0.7392
H20A H 1.4352 -0.3804 -0.6959
H21A H 1.2833 -0.2555 -0.7264
S1A S 1.12374(6) 0.15343(5) -0.13271(4)
loop_
_geom_bond_atom_site_label_1
_geom_bond_atom_site_label_2
_geom_bond_site_symmetry_1
_geom_bond_site_symmetry_2
C1 C2 1_555 1_555
C2 H1 1_555 1_555
C3 C2 1_555 1_555
C4 C3 1_555 1_555
H2 C4 1_555 1_555
C5 C4 1_555 1_555
H3 C5 1_555 1_555
C6 C5 1_555 1_555
H4 C6 1_555 1_555
C7 C6 1_555 1_555
H5 C7 1_555 1_555
C8 C3 1_555 1_555
C9 C8 1_555 1_555
H6 C9 1_555 1_555
C10 C1 1_555 1_555
C11 C10 1_555 1_555
C12 C11 1_555 1_555
C13 C12 1_555 1_555
H7 C13 1_555 1_555
C14 C13 1_555 1_555
H8 C14 1_555 1_555
C15 C14 1_555 1_555
C16 C15 1_555 1_555
H9 C16 1_555 1_555
H10 C16 1_555 1_555
C17 C16 1_555 1_555
H11 C17 1_555 1_555
H12 C17 1_555 1_555
C18 C17 1_555 1_555
H13 C18 1_555 1_555
H14 C18 1_555 1_555
C19 C18 1_555 1_555
H15 C19 1_555 1_555
H16 C19 1_555 1_555
C20 C19 1_555 1_555
H17 C20 1_555 1_555
H18 C20 1_555 1_555
C21 C20 1_555 1_555
H19 C21 1_555 1_555
H20 C21 1_555 1_555
H21 C21 1_555 1_555
S1 C12 1_555 1_555
C1A C11 1_555 1_555
C2A C1A 1_555 1_555
H1A C2A 1_555 1_555
C3A C2A 1_555 1_555
C4A C3A 1_555 1_555
H2A C4A 1_555 1_555
C5A C4A 1_555 1_555
H3A C5A 1_555 1_555
C6A C5A 1_555 1_555
H4A C6A 1_555 1_555
C7A C6A 1_555 1_555
H5A C7A 1_555 1_555
C8A C3A 1_555 1_555
C9A C8A 1_555 1_555
H6A C9A 1_555 1_555
C10A C1A 1_555 1_555
C11A C1 1_555 1_555
C12A C11A 1_555 1_555
C13A C12A 1_555 1_555
H7A C13A 1_555 1_555
C14A C13A 1_555 1_555
H8A C14A 1_555 1_555
C15A C14A 1_555 1_555
C16A C15A 1_555 1_555
H9A C16A 1_555 1_555
H10A C16A 1_555 1_555
C17A C16A 1_555 1_555
H11A C17A 1_555 1_555
H12A C17A 1_555 1_555
C18A C17A 1_555 1_555
H13A C18A 1_555 1_555
H14A C18A 1_555 1_555
C19A C18A 1_555 1_555
H15A C19A 1_555 1_555
H16A C19A 1_555 1_555
C20A C19A 1_555 1_555
H17A C20A 1_555 1_555
H18A C20A 1_555 1_555
C21A C20A 1_555 1_555
H19A C21A 1_555 1_555
H20A C21A 1_555 1_555
H21A C21A 1_555 1_555
S1A C12A 1_555 1_555
C7 C8 1_555 1_555
C9 C10 1_555 1_555
C15 S1 1_555 1_555
C7A C8A 1_555 1_555
C9A C10A 1_555 1_555
C10A C11A 1_555 1_555
C15A S1A 1_555 1_555

#END
