
#######################################################################
#
#                 Cambridge Crystallographic Data Centre
#                                CCDC 
#
#######################################################################
#
# If this CIF has been generated from an entry in the Cambridge 
# Structural Database, then it will include bibliographic, chemical, 
# crystal, experimental, refinement or atomic coordinate data resulting 
# from the CCDC's data processing and validation procedures.
#
#######################################################################

data_RUSHOC
_chemical_formula_moiety         'C14 H13 N1 O1 S1'
_chemical_name_systematic        (S)-(+)-N-(Benzylidene)-p-toluenesulfinamide
_symmetry_cell_setting           triclinic
_symmetry_space_group_name_H-M   'P -1'
_symmetry_Int_Tables_number      2
_space_group_name_Hall           '-P 1'
loop_
_symmetry_equiv_pos_site_id
_symmetry_equiv_pos_as_xyz
1 x,y,z
2 -x,-y,-z
_cell_length_a                   10.558(1)
_cell_length_b                   13.036(2)
_cell_length_c                   4.6683(7)
_cell_angle_alpha                95.17(1)
_cell_angle_beta                 98.90(1)
_cell_angle_gamma                80.24(1)
_cell_volume                     624.246
_exptl_crystal_colour            'light yellow'
_chemical_melting_point          77-78deg.C
_cell_formula_units_Z            2
_exptl_crystal_recrystallization_method n-pentane
loop_
_atom_site_label
_atom_site_type_symbol
_atom_site_fract_x
_atom_site_fract_y
_atom_site_fract_z
S1 S 0.26885(8) 0.30643(8) 0.7255(2)
O1 O 0.4088(2) 0.3021(2) 0.7196(6)
N1 N 0.2125(2) 0.3989(2) 0.9769(6)
C1 C 0.2900(3) 0.4600(3) 1.0960(7)
C2 C 0.2550(3) 0.5425(3) 1.3114(7)
C3 C 0.3482(3) 0.6009(3) 1.4530(8)
C4 C 0.3177(4) 0.6782(3) 1.663(1)
C5 C 0.1944(4) 0.6989(3) 1.7375(8)
C6 C 0.1001(3) 0.6430(3) 1.5964(8)
C7 C 0.1303(3) 0.5652(3) 1.3886(7)
C8 C 0.2540(3) 0.1996(3) 0.9287(7)
C9 C 0.3628(3) 0.1361(3) 1.0419(9)
C10 C 0.3500(4) 0.0537(4) 1.195(1)
C11 C 0.2299(4) 0.0338(3) 1.2398(8)
C12 C 0.1232(4) 0.0981(3) 1.1219(9)
C13 C 0.1321(3) 0.1810(3) 0.9651(8)
C14 C 0.2198(6) -0.0566(4) 1.409(1)
H1 H 0.4337 0.5867 1.4058
H2 H 0.3811 0.7188 1.7552
H3 H 0.1736 0.7520 1.8849
H4 H 0.0133 0.6596 1.6401
H5 H 0.0661 0.5253 1.2985
H6 H 0.4460 0.1488 1.0162
H7 H 0.4261 0.0080 1.2720
H8 H 0.0404 0.0842 1.1472
H9 H 0.0560 0.2260 0.8855
H10 H 0.3747 0.4502 1.0429
H12 H 0.2487 -0.1219 1.3037
H14 H 0.2702 -0.0547 1.5936
H16 H 0.1307 -0.0569 1.4316
H11? H 0.3026 -0.0981 1.4572
H13? H 0.1830 -0.0338 1.5805
H15? H 0.1641 -0.1016 1.2911
loop_
_geom_bond_atom_site_label_1
_geom_bond_atom_site_label_2
_geom_bond_site_symmetry_1
_geom_bond_site_symmetry_2
S1 O1 1_555 1_555
N1 S1 1_555 1_555
C1 N1 1_555 1_555
C2 C1 1_555 1_555
C3 C2 1_555 1_555
C4 C3 1_555 1_555
C5 C4 1_555 1_555
C6 C5 1_555 1_555
C7 C2 1_555 1_555
C8 S1 1_555 1_555
C9 C8 1_555 1_555
C10 C9 1_555 1_555
C11 C10 1_555 1_555
C12 C11 1_555 1_555
C13 C8 1_555 1_555
C14 C11 1_555 1_555
H1 C3 1_555 1_555
H2 C4 1_555 1_555
H3 C5 1_555 1_555
H4 C6 1_555 1_555
H5 C7 1_555 1_555
H6 C9 1_555 1_555
H7 C10 1_555 1_555
H8 C12 1_555 1_555
H9 C13 1_555 1_555
H10 C1 1_555 1_555
H12 C14 1_555 1_555
H14 C14 1_555 1_555
H16 C14 1_555 1_555
C6 C7 1_555 1_555
C12 C13 1_555 1_555

#END
