
#######################################################################
#
#                 Cambridge Crystallographic Data Centre
#                                CCDC 
#
#######################################################################
#
# If this CIF has been generated from an entry in the Cambridge 
# Structural Database, then it will include bibliographic, chemical, 
# crystal, experimental, refinement or atomic coordinate data resulting 
# from the CCDC's data processing and validation procedures.
#
#######################################################################

data_RUSJUM
_chemical_formula_moiety         
'C33 H36 Cl1 N2 P1 2+,2(C24 B1 F20 1-),C6 H5 Br1'
_chemical_name_systematic        
'2-(chloro(diphenyl)phosphonio)-1,3-dimesityl-4,5-dihydro-1H-imidazol-3-ium bis(tetrakis(pentafluorophenyl)borate) bromobenzene solvate'
_symmetry_cell_setting           orthorhombic
_symmetry_space_group_name_H-M   'P b c a'
_symmetry_Int_Tables_number      61
_space_group_name_Hall           '-P 2ac 2ab'
loop_
_symmetry_equiv_pos_site_id
_symmetry_equiv_pos_as_xyz
1 x,y,z
2 1/2+x,1/2-y,-z
3 -x,1/2+y,1/2-z
4 1/2-x,-y,1/2+z
5 -x,-y,-z
6 1/2-x,1/2+y,z
7 x,1/2-y,1/2+z
8 1/2+x,y,1/2-z
_cell_length_a                   22.0938(9)
_cell_length_b                   18.0209(7)
_cell_length_c                   40.6613(17)
_cell_angle_alpha                90
_cell_angle_beta                 90
_cell_angle_gamma                90
_cell_volume                     16189.3
_exptl_crystal_colour            yellow
_exptl_crystal_description       block
_cell_formula_units_Z            8
loop_
_atom_site_label
_atom_site_type_symbol
_atom_site_fract_x
_atom_site_fract_y
_atom_site_fract_z
C1 C 0.96532(15) 0.65863(17) 0.12678(8)
C2 C 0.88554(17) 0.65482(19) 0.16318(9)
H1 H 0.8444 0.6761 0.1610
H2 H 0.8956 0.6498 0.1868
C3 C 0.89034(16) 0.58044(18) 0.14544(9)
H3 H 0.8927 0.5388 0.1613
H4 H 0.8555 0.5725 0.1306
C4 C 0.92870(16) 0.78102(18) 0.14947(9)
C5 C 0.88949(17) 0.8202(2) 0.12896(10)
C6 C 0.88433(18) 0.8959(2) 0.13391(11)
H5 H 0.8584 0.9239 0.1200
C7 C 0.91617(18) 0.9319(2) 0.15872(12)
C8 C 0.95359(18) 0.8906(2) 0.17886(10)
H6 H 0.9756 0.9151 0.1957
C9 C 0.96003(17) 0.81401(19) 0.17525(9)
C10 C 0.8544(2) 0.7820(2) 0.10186(11)
H7 H 0.8357 0.8194 0.0876
H8 H 0.8228 0.7507 0.1116
H9 H 0.8820 0.7511 0.0888
C11 C 0.9103(2) 1.0150(2) 0.16349(15)
H10 H 0.9226 1.0281 0.1859
H11 H 0.8681 1.0298 0.1600
H12 H 0.9363 1.0407 0.1477
C12 C 0.99979(19) 0.7709(2) 0.19843(10)
H13 H 0.9825 0.7727 0.2206
H14 H 1.0404 0.7928 0.1987
H15 H 1.0024 0.7192 0.1911
C13 C 0.95746(16) 0.51432(18) 0.07665(9)
C14 C 0.98504(17) 0.4558(2) 0.06012(10)
H16 H 0.9760 0.4480 0.0375
C15 C 1.02544(18) 0.4084(2) 0.07576(10)
C16 C 1.03737(17) 0.41944(18) 0.10909(10)
H17 H 1.0638 0.3862 0.1202
C17 C 1.01146(16) 0.47800(18) 0.12661(9)
C18 C 0.90820(17) 0.5579(2) 0.05970(9)
H18 H 0.8705 0.5292 0.0599
H19 H 0.9201 0.5680 0.0369
H20 H 0.9019 0.6050 0.0713
C19 C 1.0549(2) 0.3454(2) 0.05720(12)
H21 H 1.0488 0.3525 0.0335
H22 H 1.0367 0.2983 0.0640
H23 H 1.0984 0.3447 0.0620
C20 C 1.02401(18) 0.4867(2) 0.16285(9)
H24 H 1.0181 0.5386 0.1692
H25 H 1.0659 0.4720 0.1675
H26 H 0.9963 0.4550 0.1754
C21 C 1.04869(15) 0.78607(18) 0.10913(8)
C22 C 1.01523(16) 0.83716(19) 0.09054(9)
H27 H 0.9850 0.8205 0.0757
C23 C 1.02686(18) 0.91212(19) 0.09412(10)
H28 H 1.0044 0.9474 0.0818
C24 C 1.07096(18) 0.9355(2) 0.11553(9)
H29 H 1.0783 0.9871 0.1181
C25 C 1.10484(18) 0.8852(2) 0.13346(10)
H30 H 1.1354 0.9023 0.1480
C26 C 1.09409(16) 0.80966(19) 0.13014(9)
H31 H 1.1175 0.7747 0.1421
C27 C 1.09416(15) 0.62982(17) 0.11417(8)
C28 C 1.12137(16) 0.58674(19) 0.08993(9)
H32 H 1.1059 0.5869 0.0681
C29 C 1.17097(17) 0.5439(2) 0.09780(9)
H33 H 1.1898 0.5144 0.0813
C30 C 1.19343(18) 0.5435(2) 0.12952(10)
H34 H 1.2280 0.5145 0.1347
C31 C 1.16552(17) 0.58567(19) 0.15383(9)
H35 H 1.1810 0.5849 0.1756
C32 C 1.11575(17) 0.62840(18) 0.14661(9)
H36 H 1.0963 0.6565 0.1633
C33 C 0.97404(15) 0.52631(17) 0.10923(8)
N1 N 0.93131(13) 0.70115(15) 0.14566(7)
N2 N 0.94767(12) 0.58843(14) 0.12663(7)
P1 P 1.03382(4) 0.69002(4) 0.10363(2)
Cl1 Cl 1.01277(4) 0.67736(5) 0.05685(2)
C34 C 0.71874(15) 0.63682(18) -0.00292(8)
C35 C 0.68347(15) 0.67157(18) -0.02665(9)
C36 C 0.69676(17) 0.74032(19) -0.03978(9)
C37 C 0.74763(18) 0.77810(19) -0.03014(9)
C38 C 0.78433(16) 0.74709(19) -0.00659(9)
C39 C 0.76914(16) 0.67907(19) 0.00629(9)
C40 C 0.64861(15) 0.50974(17) -0.00116(8)
C41 C 0.65754(15) 0.48665(18) -0.03335(8)
C42 C 0.62111(16) 0.43682(19) -0.04984(8)
C43 C 0.57234(17) 0.4064(2) -0.03393(10)
C44 C 0.56094(16) 0.4268(2) -0.00179(10)
C45 C 0.59817(16) 0.47737(18) 0.01345(8)
C46 C 0.75719(15) 0.49812(18) 0.01913(8)
C47 C 0.81007(16) 0.49628(19) 0.00085(8)
C48 C 0.85215(16) 0.4393(2) 0.00268(9)
C49 C 0.84186(18) 0.3792(2) 0.02232(9)
C50 C 0.78930(17) 0.37622(18) 0.04040(9)
C51 C 0.74916(16) 0.43495(19) 0.03868(8)
C52 C 0.68202(15) 0.59387(17) 0.05335(8)
C53 C 0.62965(15) 0.63596(18) 0.05649(9)
C54 C 0.61139(16) 0.6710(2) 0.08499(9)
C55 C 0.64757(17) 0.66658(19) 0.11247(9)
C56 C 0.70082(17) 0.62832(19) 0.11067(9)
C57 C 0.71690(16) 0.59326(18) 0.08165(8)
B1 B 0.70154(17) 0.5599(2) 0.01715(9)
F1 F 0.63213(9) 0.64009(11) -0.03800(5)
F2 F 0.65995(11) 0.77013(12) -0.06269(6)
F3 F 0.76052(11) 0.84469(12) -0.04331(6)
F4 F 0.83363(10) 0.78357(12) 0.00393(6)
F5 F 0.80613(9) 0.65275(11) 0.03037(5)
F6 F 0.70595(9) 0.51296(11) -0.05032(5)
F7 F 0.63371(10) 0.41641(12) -0.08097(5)
F8 F 0.53740(11) 0.35639(13) -0.04934(6)
F9 F 0.51397(10) 0.39625(13) 0.01446(6)
F10 F 0.58392(9) 0.49182(12) 0.04527(5)
F11 F 0.82470(9) 0.55166(11) -0.01998(5)
F12 F 0.90480(10) 0.44405(13) -0.01424(5)
F13 F 0.88268(11) 0.32336(12) 0.02400(6)
F14 F 0.77732(11) 0.31668(11) 0.05927(5)
F15 F 0.69882(9) 0.42889(10) 0.05698(5)
F16 F 0.59311(9) 0.64398(11) 0.03010(5)
F17 F 0.55906(10) 0.70908(13) 0.08624(6)
F18 F 0.63050(11) 0.69884(12) 0.14084(5)
F19 F 0.73814(10) 0.62539(12) 0.13708(5)
F20 F 0.77121(9) 0.55795(11) 0.08258(5)
C58 C 0.81194(15) 0.42935(17) 0.20128(8)
C59 C 0.78256(16) 0.43782(18) 0.17145(8)
C60 C 0.80387(18) 0.40999(19) 0.14186(9)
C61 C 0.85769(18) 0.37202(19) 0.14106(9)
C62 C 0.88835(17) 0.36043(19) 0.16998(10)
C63 C 0.86469(16) 0.38749(18) 0.19890(9)
C64 C 0.76341(15) 0.37539(17) 0.25322(8)
C65 C 0.71224(16) 0.34059(18) 0.24061(8)
C66 C 0.69173(16) 0.27153(19) 0.25061(9)
C67 C 0.72325(18) 0.23353(18) 0.27426(9)
C68 C 0.77465(17) 0.26412(18) 0.28698(9)
C69 C 0.79397(16) 0.33322(18) 0.27657(8)
C70 C 0.83714(15) 0.49697(17) 0.26101(8)
C71 C 0.89176(15) 0.52758(18) 0.25137(9)
C72 C 0.93203(16) 0.5618(2) 0.27243(10)
C73 C 0.91826(17) 0.5681(2) 0.30524(10)
C74 C 0.86293(17) 0.54249(18) 0.31601(9)
C75 C 0.82484(15) 0.50810(17) 0.29420(8)
C76 C 0.73190(15) 0.51944(17) 0.23612(8)
C77 C 0.74165(15) 0.58463(18) 0.21842(8)
C78 C 0.70345(17) 0.64443(18) 0.21751(9)
C79 C 0.65116(17) 0.64307(19) 0.23599(9)
C80 C 0.63894(16) 0.5814(2) 0.25481(9)
C81 C 0.67890(15) 0.52139(18) 0.25409(8)
B2 B 0.78589(17) 0.45544(19) 0.23770(9)
F21 F 0.72950(9) 0.47487(11) 0.16935(5)
F22 F 0.77225(12) 0.42049(12) 0.11403(5)
F23 F 0.87974(12) 0.34693(12) 0.11240(5)
F24 F 0.94079(10) 0.32249(12) 0.17004(6)
F25 F 0.89671(9) 0.37290(11) 0.22659(5)
F26 F 0.67982(9) 0.37434(11) 0.21686(5)
F27 F 0.64125(10) 0.24183(12) 0.23738(6)
F28 F 0.70397(12) 0.16668(11) 0.28465(6)
F29 F 0.80700(12) 0.22677(11) 0.30965(6)
F30 F 0.84584(9) 0.35723(10) 0.29061(5)
F31 F 0.90997(9) 0.52552(12) 0.21943(5)
F32 F 0.98489(10) 0.58885(15) 0.26133(7)
F33 F 0.95780(10) 0.59872(14) 0.32640(6)
F34 F 0.84677(10) 0.55169(11) 0.34769(5)
F35 F 0.77178(9) 0.48419(10) 0.30688(5)
F36 F 0.79384(9) 0.59131(10) 0.20088(5)
F37 F 0.71693(11) 0.70519(10) 0.19953(5)
F38 F 0.61349(11) 0.70146(12) 0.23647(6)
F39 F 0.58981(10) 0.57982(13) 0.27406(6)
F40 F 0.66205(9) 0.46382(11) 0.27363(5)
C82 C 1.18075(12) 0.31185(16) 0.13447(8)
C83 C 1.16350(14) 0.34473(15) 0.16394(8)
H37 H 1.1866 0.3845 0.1728
C84 C 1.11245(16) 0.31945(18) 0.18048(6)
H38 H 1.1007 0.3419 0.2006
C85 C 1.07866(13) 0.26129(19) 0.16756(9)
H39 H 1.0438 0.2440 0.1789
C86 C 1.09592(15) 0.22840(15) 0.13810(9)
H40 H 1.0728 0.1886 0.1293
C87 C 1.14696(16) 0.25368(16) 0.12155(7)
H41 H 1.1588 0.2312 0.1014
Br1 Br 1.24768(3) 0.34777(4) 0.11137(2)
loop_
_geom_bond_atom_site_label_1
_geom_bond_atom_site_label_2
_geom_bond_site_symmetry_1
_geom_bond_site_symmetry_2
C1 N1 1_555 1_555
C2 H1 1_555 1_555
H2 C2 1_555 1_555
C3 C2 1_555 1_555
H3 C3 1_555 1_555
H4 C3 1_555 1_555
C4 C5 1_555 1_555
C5 C6 1_555 1_555
C6 H5 1_555 1_555
C7 C6 1_555 1_555
C8 C7 1_555 1_555
H6 C8 1_555 1_555
C9 C4 1_555 1_555
C10 C5 1_555 1_555
H7 C10 1_555 1_555
H8 C10 1_555 1_555
H9 C10 1_555 1_555
C11 C7 1_555 1_555
H10 C11 1_555 1_555
H11 C11 1_555 1_555
H12 C11 1_555 1_555
C12 C9 1_555 1_555
H13 C12 1_555 1_555
H14 C12 1_555 1_555
H15 C12 1_555 1_555
C13 C14 1_555 1_555
C14 H16 1_555 1_555
C15 C14 1_555 1_555
C16 C15 1_555 1_555
H17 C16 1_555 1_555
C17 C16 1_555 1_555
C18 C13 1_555 1_555
H18 C18 1_555 1_555
H19 C18 1_555 1_555
H20 C18 1_555 1_555
C19 C15 1_555 1_555
H21 C19 1_555 1_555
H22 C19 1_555 1_555
H23 C19 1_555 1_555
C20 C17 1_555 1_555
H24 C20 1_555 1_555
H25 C20 1_555 1_555
H26 C20 1_555 1_555
C21 C22 1_555 1_555
C22 H27 1_555 1_555
C23 C22 1_555 1_555
H28 C23 1_555 1_555
C24 C23 1_555 1_555
H29 C24 1_555 1_555
C25 C24 1_555 1_555
H30 C25 1_555 1_555
C26 C21 1_555 1_555
H31 C26 1_555 1_555
C27 C28 1_555 1_555
C28 H32 1_555 1_555
C29 C28 1_555 1_555
H33 C29 1_555 1_555
C30 C29 1_555 1_555
H34 C30 1_555 1_555
C31 C30 1_555 1_555
H35 C31 1_555 1_555
C32 C27 1_555 1_555
H36 C32 1_555 1_555
C33 C13 1_555 1_555
N1 C2 1_555 1_555
N2 C1 1_555 1_555
P1 C1 1_555 1_555
Cl1 P1 1_555 1_555
C34 C35 1_555 1_555
C35 C36 1_555 1_555
C36 C37 1_555 1_555
C37 C38 1_555 1_555
C38 C39 1_555 1_555
C39 C34 1_555 1_555
C40 C41 1_555 1_555
C41 C42 1_555 1_555
C42 C43 1_555 1_555
C43 C44 1_555 1_555
C44 C45 1_555 1_555
C45 C40 1_555 1_555
C46 C47 1_555 1_555
C47 C48 1_555 1_555
C48 C49 1_555 1_555
C49 C50 1_555 1_555
C50 C51 1_555 1_555
C51 C46 1_555 1_555
C52 C53 1_555 1_555
C53 C54 1_555 1_555
C54 C55 1_555 1_555
C55 C56 1_555 1_555
C56 C57 1_555 1_555
C57 C52 1_555 1_555
B1 C34 1_555 1_555
F1 C35 1_555 1_555
F2 C36 1_555 1_555
F3 C37 1_555 1_555
F4 C38 1_555 1_555
F5 C39 1_555 1_555
F6 C41 1_555 1_555
F7 C42 1_555 1_555
F8 C43 1_555 1_555
F9 C44 1_555 1_555
F10 C45 1_555 1_555
F11 C47 1_555 1_555
F12 C48 1_555 1_555
F13 C49 1_555 1_555
F14 C50 1_555 1_555
F15 C51 1_555 1_555
F16 C53 1_555 1_555
F17 C54 1_555 1_555
F18 C55 1_555 1_555
F19 C56 1_555 1_555
F20 C57 1_555 1_555
C58 C59 1_555 1_555
C59 C60 1_555 1_555
C60 C61 1_555 1_555
C61 C62 1_555 1_555
C62 C63 1_555 1_555
C63 C58 1_555 1_555
C64 C65 1_555 1_555
C65 C66 1_555 1_555
C66 C67 1_555 1_555
C67 C68 1_555 1_555
C68 C69 1_555 1_555
C69 C64 1_555 1_555
C70 C71 1_555 1_555
C71 C72 1_555 1_555
C72 C73 1_555 1_555
C73 C74 1_555 1_555
C74 C75 1_555 1_555
C75 C70 1_555 1_555
C76 C77 1_555 1_555
C77 C78 1_555 1_555
C78 C79 1_555 1_555
C79 C80 1_555 1_555
C80 C81 1_555 1_555
C81 C76 1_555 1_555
B2 C58 1_555 1_555
F21 C59 1_555 1_555
F22 C60 1_555 1_555
F23 C61 1_555 1_555
F24 C62 1_555 1_555
F25 C63 1_555 1_555
F26 C65 1_555 1_555
F27 C66 1_555 1_555
F28 C67 1_555 1_555
F29 C68 1_555 1_555
F30 C69 1_555 1_555
F31 C71 1_555 1_555
F32 C72 1_555 1_555
F33 C73 1_555 1_555
F34 C74 1_555 1_555
F35 C75 1_555 1_555
F36 C77 1_555 1_555
F37 C78 1_555 1_555
F38 C79 1_555 1_555
F39 C80 1_555 1_555
F40 C81 1_555 1_555
C82 C83 1_555 1_555
C83 H37 1_555 1_555
C84 C83 1_555 1_555
H38 C84 1_555 1_555
C85 C84 1_555 1_555
H39 C85 1_555 1_555
C86 C85 1_555 1_555
H40 C86 1_555 1_555
C87 C82 1_555 1_555
H41 C87 1_555 1_555
Br1 C82 1_555 1_555
C3 N2 1_555 1_555
C4 N1 1_555 1_555
C8 C9 1_555 1_555
C17 C33 1_555 1_555
C21 P1 1_555 1_555
C25 C26 1_555 1_555
C27 P1 1_555 1_555
C31 C32 1_555 1_555
C33 N2 1_555 1_555
C40 B1 1_555 1_555
C46 B1 1_555 1_555
C52 B1 1_555 1_555
C64 B2 1_555 1_555
C70 B2 1_555 1_555
C76 B2 1_555 1_555
C86 C87 1_555 1_555

#END
