
#######################################################################
#
#                 Cambridge Crystallographic Data Centre
#                                CCDC 
#
#######################################################################
#
# If this CIF has been generated from an entry in the Cambridge 
# Structural Database, then it will include bibliographic, chemical, 
# crystal, experimental, refinement or atomic coordinate data resulting 
# from the CCDC's data processing and validation procedures.
#
#######################################################################

data_RUSJEW
_chemical_formula_moiety         
'C25 H36 F2 N2 P1 1+,C24 B1 F20 1-,0.63(C1 H2 Cl2)'
_chemical_name_systematic        
'2-(diethyl(difluoro)phosphoranyl)-1,3-dimesityl-4,5-dihydro-1H-imidazol-3-ium tetrakis(pentafluorophenyl)borate dichloromethane solvate'
_symmetry_cell_setting           tetragonal
_symmetry_space_group_name_H-M   'P 41 21 2'
_symmetry_Int_Tables_number      92
_space_group_name_Hall           'P 4abw 2nw'
loop_
_symmetry_equiv_pos_site_id
_symmetry_equiv_pos_as_xyz
1 x,y,z
2 -x,-y,1/2+z
3 1/2+x,1/2-y,3/4-z
4 1/2-x,1/2+y,1/4-z
5 -y,-x,1/2-z
6 y,x,-z
7 1/2+y,1/2-x,3/4+z
8 1/2-y,1/2+x,1/4+z
_cell_length_a                   17.997(5)
_cell_length_b                   17.997(5)
_cell_length_c                   30.605(5)
_cell_angle_alpha                90
_cell_angle_beta                 90
_cell_angle_gamma                90
_cell_volume                     9912.71
_exptl_crystal_colour            colorless
_exptl_crystal_description       block
_cell_formula_units_Z            8
loop_
_atom_site_label
_atom_site_type_symbol
_atom_site_fract_x
_atom_site_fract_y
_atom_site_fract_z
C26 C 0.31518(18) 0.56468(17) 0.41643(10)
C27 C 0.25302(18) 0.55446(17) 0.44263(10)
C28 C 0.2369(2) 0.59609(19) 0.47921(12)
C29 C 0.2841(2) 0.65170(19) 0.49171(12)
C30 C 0.3463(2) 0.66467(19) 0.46694(12)
C31 C 0.36113(18) 0.62156(18) 0.43093(12)
C32 C 0.40219(17) 0.52838(18) 0.34523(10)
C33 C 0.39932(19) 0.59736(19) 0.32423(11)
C34 C 0.4546(2) 0.6237(2) 0.29655(12)
C35 C 0.5158(2) 0.5806(2) 0.28792(12)
C36 C 0.51971(18) 0.5113(2) 0.30597(11)
C37 C 0.46360(18) 0.48678(19) 0.33367(11)
C38 C 0.26497(17) 0.49334(17) 0.34127(10)
C39 C 0.20815(18) 0.54242(17) 0.33297(10)
C40 C 0.15969(17) 0.53683(19) 0.29761(11)
C41 C 0.16799(17) 0.4802(2) 0.26808(10)
C42 C 0.22311(18) 0.42887(18) 0.27487(11)
C43 C 0.26929(17) 0.43635(17) 0.31044(10)
C44 C 0.35163(17) 0.42845(18) 0.40600(10)
C45 C 0.30801(17) 0.36569(18) 0.41163(10)
C46 C 0.32718(19) 0.30628(17) 0.43777(10)
C47 C 0.3936(2) 0.30730(18) 0.46009(10)
C48 C 0.43856(18) 0.36874(19) 0.45665(10)
C49 C 0.41606(18) 0.42699(17) 0.43080(10)
F3 F 0.20453(9) 0.49940(10) 0.43301(6)
F4 F 0.17647(12) 0.57972(11) 0.50382(7)
F5 F 0.27052(13) 0.69307(12) 0.52763(7)
F6 F 0.39498(13) 0.71941(11) 0.47933(7)
F7 F 0.42538(11) 0.63821(11) 0.41005(7)
F8 F 0.34096(11) 0.64232(10) 0.33148(7)
F9 F 0.44768(14) 0.69202(12) 0.27817(7)
F10 F 0.56985(13) 0.60585(14) 0.26167(7)
F11 F 0.57868(11) 0.46744(13) 0.29743(7)
F12 F 0.47316(10) 0.41635(11) 0.34863(6)
F13 F 0.19567(11) 0.60181(10) 0.35942(6)
F14 F 0.10582(11) 0.58841(11) 0.29139(7)
F15 F 0.12293(11) 0.47695(12) 0.23306(6)
F16 F 0.23396(11) 0.37394(11) 0.24559(6)
F17 F 0.32416(10) 0.38508(10) 0.31416(6)
F18 F 0.46270(10) 0.48635(10) 0.43001(6)
F19 F 0.50358(11) 0.37129(11) 0.47873(6)
F20 F 0.41293(12) 0.24974(11) 0.48570(6)
F21 F 0.28091(12) 0.24799(10) 0.44208(7)
F22 F 0.24207(10) 0.35904(10) 0.39072(6)
B1 B 0.3326(2) 0.5040(2) 0.37720(13)
C1 C 0.50342(16) 0.16549(16) 0.11563(10)
C2 C 0.51768(19) 0.1255(2) 0.04471(11)
H1 H 0.4995 0.0781 0.0341
H2 H 0.5580 0.1421 0.0261
C3 C 0.4561(2) 0.1823(2) 0.04616(12)
H3 H 0.4673 0.2246 0.0276
H4 H 0.4091 0.1608 0.0372
C4 C 0.5842(2) 0.1237(3) 0.20585(12)
H5 H 0.5796 0.0725 0.1964
H6 H 0.6332 0.1405 0.1971
C5 C 0.4692(2) 0.2476(2) 0.20692(13)
H7 H 0.5048 0.2690 0.2271
H8 H 0.4556 0.2865 0.1865
C6 C 0.4028(3) 0.2296(3) 0.23210(19)
H9 H 0.3844 0.2737 0.2460
H10 H 0.4150 0.1933 0.2540
H11 H 0.3655 0.2099 0.2130
C7 C 0.59985(18) 0.06852(17) 0.10282(10)
C8 C 0.5787(2) -0.00418(19) 0.11315(11)
C9 C 0.6350(2) -0.05416(19) 0.12305(12)
H12 H 0.6227 -0.1026 0.1308
C10 C 0.7096(2) -0.0332(2) 0.12166(12)
C11 C 0.72763(19) 0.03937(19) 0.11061(11)
H13 H 0.7773 0.0534 0.1098
C12 C 0.67340(19) 0.09156(18) 0.10074(10)
C13 C 0.4986(2) -0.0290(2) 0.11332(13)
H14 H 0.4965 -0.0822 0.1153
H15 H 0.4749 -0.0130 0.0868
H16 H 0.4735 -0.0076 0.1380
C14 C 0.7703(2) -0.0895(2) 0.13194(16)
H17 H 0.7992 -0.0987 0.1062
H18 H 0.7480 -0.1351 0.1416
H19 H 0.8018 -0.0703 0.1546
C15 C 0.69407(19) 0.17004(19) 0.08825(12)
H20 H 0.6729 0.1818 0.0603
H21 H 0.7472 0.1743 0.0867
H22 H 0.6753 0.2039 0.1098
C16 C 0.40190(19) 0.25936(19) 0.10765(11)
C17 C 0.3312(2) 0.2362(2) 0.12067(12)
C18 C 0.2819(2) 0.2919(2) 0.13196(13)
H23 H 0.2347 0.2786 0.1415
C19 C 0.2998(2) 0.3668(2) 0.12961(12)
C20 C 0.3708(2) 0.3867(2) 0.11615(13)
H24 H 0.3833 0.4368 0.1146
C21 C 0.4240(2) 0.3335(2) 0.10486(12)
C22 C 0.3093(2) 0.1562(2) 0.12151(15)
H25 H 0.3152 0.1352 0.0929
H26 H 0.2583 0.1520 0.1304
H27 H 0.3402 0.1299 0.1418
C23 C 0.2427(3) 0.4261(2) 0.13989(15)
H28 H 0.2553 0.4499 0.1669
H29 H 0.1945 0.4036 0.1424
H30 H 0.2420 0.4623 0.1168
C24 C 0.5000(2) 0.3570(2) 0.08999(16)
H31 H 0.5044 0.3495 0.0591
H32 H 0.5369 0.3280 0.1049
H33 H 0.5072 0.4087 0.0966
N1 N 0.54182(14) 0.12008(14) 0.09041(9)
N2 N 0.45480(16) 0.20380(15) 0.09283(9)
F1 F 0.58101(12) 0.23901(13) 0.16140(7)
F2 F 0.45131(11) 0.11302(11) 0.18062(6)
P1 P 0.51751(5) 0.17714(5) 0.17619(3)
C25 C 0.5815(14) 0.1245(19) 0.2548(5)
H34 H 0.6220 0.0957 0.2662
H35 H 0.5353 0.1036 0.2645
H36 H 0.5856 0.1748 0.2650
C50? C 0.5586(4) 0.0704(6) 0.2380(4)
H37? H 0.6005 0.0460 0.2510
H38? H 0.5274 0.0342 0.2240
H39? H 0.5308 0.0958 0.2603
loop_
_geom_bond_atom_site_label_1
_geom_bond_atom_site_label_2
_geom_bond_site_symmetry_1
_geom_bond_site_symmetry_2
C1 N1 1_555 1_555
C2 H1 1_555 1_555
H2 C2 1_555 1_555
C3 C2 1_555 1_555
H3 C3 1_555 1_555
H4 C3 1_555 1_555
C4 H5 1_555 1_555
H6 C4 1_555 1_555
C5 H7 1_555 1_555
H8 C5 1_555 1_555
C6 C5 1_555 1_555
H9 C6 1_555 1_555
H10 C6 1_555 1_555
H11 C6 1_555 1_555
C7 C8 1_555 1_555
C8 C9 1_555 1_555
C9 H12 1_555 1_555
C10 C9 1_555 1_555
C11 C10 1_555 1_555
H13 C11 1_555 1_555
C12 C7 1_555 1_555
C13 C8 1_555 1_555
H14 C13 1_555 1_555
H15 C13 1_555 1_555
H16 C13 1_555 1_555
C14 C10 1_555 1_555
H17 C14 1_555 1_555
H18 C14 1_555 1_555
H19 C14 1_555 1_555
C15 C12 1_555 1_555
H20 C15 1_555 1_555
H21 C15 1_555 1_555
H22 C15 1_555 1_555
C16 C17 1_555 1_555
C17 C18 1_555 1_555
C18 H23 1_555 1_555
C19 C18 1_555 1_555
C20 C19 1_555 1_555
H24 C20 1_555 1_555
C21 C16 1_555 1_555
C22 C17 1_555 1_555
H25 C22 1_555 1_555
H26 C22 1_555 1_555
H27 C22 1_555 1_555
C23 C19 1_555 1_555
H28 C23 1_555 1_555
H29 C23 1_555 1_555
H30 C23 1_555 1_555
C24 C21 1_555 1_555
H31 C24 1_555 1_555
H32 C24 1_555 1_555
H33 C24 1_555 1_555
N1 C2 1_555 1_555
N2 C1 1_555 1_555
F1 P1 1_555 1_555
F2 P1 1_555 1_555
P1 C1 1_555 1_555
C25 C4 1_555 1_555
H34 C25 1_555 1_555
H35 C25 1_555 1_555
H36 C25 1_555 1_555
C26 C27 1_555 1_555
C27 C28 1_555 1_555
C28 C29 1_555 1_555
C29 C30 1_555 1_555
C30 C31 1_555 1_555
C31 C26 1_555 1_555
C32 C33 1_555 1_555
C33 C34 1_555 1_555
C34 C35 1_555 1_555
C35 C36 1_555 1_555
C36 C37 1_555 1_555
C37 C32 1_555 1_555
C38 C39 1_555 1_555
C39 C40 1_555 1_555
C40 C41 1_555 1_555
C41 C42 1_555 1_555
C42 C43 1_555 1_555
C43 C38 1_555 1_555
C44 C45 1_555 1_555
C45 C46 1_555 1_555
C46 C47 1_555 1_555
C47 C48 1_555 1_555
C48 C49 1_555 1_555
C49 C44 1_555 1_555
F3 C27 1_555 1_555
F4 C28 1_555 1_555
F5 C29 1_555 1_555
F6 C30 1_555 1_555
F7 C31 1_555 1_555
F8 C33 1_555 1_555
F9 C34 1_555 1_555
F10 C35 1_555 1_555
F11 C36 1_555 1_555
F12 C37 1_555 1_555
F13 C39 1_555 1_555
F14 C40 1_555 1_555
F15 C41 1_555 1_555
F16 C42 1_555 1_555
F17 C43 1_555 1_555
F18 C49 1_555 1_555
F19 C48 1_555 1_555
F20 C47 1_555 1_555
F21 C46 1_555 1_555
F22 C45 1_555 1_555
B1 C26 1_555 1_555
C3 N2 1_555 1_555
C4 P1 1_555 1_555
C5 P1 1_555 1_555
C7 N1 1_555 1_555
C11 C12 1_555 1_555
C16 N2 1_555 1_555
C20 C21 1_555 1_555
C32 B1 1_555 1_555
C38 B1 1_555 1_555
C44 B1 1_555 1_555

#END
