
#######################################################################
#
#                 Cambridge Crystallographic Data Centre
#                                CCDC 
#
#######################################################################
#
# If this CIF has been generated from an entry in the Cambridge 
# Structural Database, then it will include bibliographic, chemical, 
# crystal, experimental, refinement or atomic coordinate data resulting 
# from the CCDC's data processing and validation procedures.
#
#######################################################################

data_RUSPOK
_chemical_formula_moiety         'C46 H56 O4'
_chemical_name_systematic        
2,2,14,14-Tetramethyl-5,11,17,23-tetrapropyl-6,10:18,22-bis(methylenedioxy)-exo-calix(4)arene
_symmetry_cell_setting           monoclinic
_symmetry_space_group_name_H-M   'P 21/n'
_symmetry_Int_Tables_number      14
_space_group_name_Hall           '-P 2yn'
loop_
_symmetry_equiv_pos_site_id
_symmetry_equiv_pos_as_xyz
1 x,y,z
2 1/2-x,1/2+y,1/2-z
3 -x,-y,-z
4 1/2+x,1/2-y,1/2+z
_cell_length_a                   9.54450(20)
_cell_length_b                   14.6401(3)
_cell_length_c                   14.1061(3)
_cell_angle_alpha                90
_cell_angle_beta                 101.6940(14)
_cell_angle_gamma                90
_cell_volume                     1930.17
_exptl_crystal_colour            white
_chemical_melting_point          'above 300deg.C'
_cell_formula_units_Z            2
loop_
_atom_site_label
_atom_site_type_symbol
_atom_site_fract_x
_atom_site_fract_y
_atom_site_fract_z
C1 C 0.28748(22) 0.86091(14) 0.27579(14)
C2 C 0.42436(22) 0.91625(14) 0.27338(14)
C3 C 0.52335(24) 0.88650(14) 0.21948(14)
C4 C 0.63800(22) 0.93971(14) 0.20556(14)
C5 C 0.65455(23) 1.02504(14) 0.24949(14)
C6 C 0.56199(22) 1.05726(14) 0.30656(14)
C7 C 0.44696(22) 1.00221(15) 0.31654(14)
C8 C 0.58757(22) 1.14872(13) 0.35712(14)
C9 C 0.69933(23) 1.14405(13) 0.45011(14)
C10 C 0.84555(24) 1.14853(13) 0.44965(15)
O1 O 0.89091(15) 1.16460(9) 0.36241(10)
C11 C 0.89011(25) 1.08878(16) 0.29954(16)
O2 O 0.76319(16) 1.08201(10) 0.22919(10)
C12 C 0.94915(23) 1.14426(14) 0.53413(16)
C13 C 0.90314(24) 1.13648(15) 0.62116(15)
C14 C 0.24039(23) 0.86680(14) 0.37333(15)
C15 C 0.65942(22) 1.13641(13) 0.53922(15)
C16 C 1.10765(24) 1.15487(17) 0.53386(16)
C17 C 1.1562(3) 1.25463(18) 0.54477(18)
C18 C 1.3138(3) 1.26647(20) 0.55125(20)
C19 C 0.73581(24) 0.90669(15) 0.14106(16)
C20 C 0.6913(3) 0.93779(17) 0.03696(18)
C21 C 0.7836(4) 0.90115(21) -0.02835(21)
C22 C 0.1716(3) 0.89760(17) 0.19210(15)
C23 C 0.30742(25) 0.75805(16) 0.25727(16)
H1 H 0.511 0.827 0.191
H2 H 0.380 1.025 0.353
H3 H 0.499 1.169 0.373
H4 H 0.618 1.192 0.314
H5 H 0.900 1.034 0.338
H6 H 0.970 1.094 0.268
H7 H 0.974 1.133 0.680
H8 H 0.559 1.132 0.540
H9 H 1.125 1.130 0.474
H10 H 1.163 1.122 0.587
H11 H 1.131 1.280 0.602
H12 H 1.105 1.286 0.489
H13 H 1.338 1.330 0.558
H14 H 1.365 1.234 0.607
H15 H 1.339 1.243 0.494
H16 H 0.831 0.929 0.166
H17 H 0.737 0.841 0.141
H18 H 0.595 0.918 0.013
H19 H 0.695 1.003 0.036
H20 H 0.746 0.920 -0.094
H21 H 0.785 0.836 -0.025
H22 H 0.879 0.924 -0.008
H23 H 0.146 0.959 0.206
H24 H 0.088 0.859 0.184
H25 H 0.208 0.897 0.134
H26 H 0.387 0.735 0.304
H27 H 0.325 0.750 0.193
H28 H 0.222 0.726 0.264
C14B C 0.75961(23) 1.13320(14) 0.62667(15)
C1B C 0.71252(22) 1.13909(14) 0.72421(14)
C2B C 0.57564(22) 1.08375(14) 0.72662(14)
C3B C 0.47665(24) 1.11350(14) 0.78052(14)
C4B C 0.36200(22) 1.06029(14) 0.79444(14)
C5B C 0.34545(23) 0.97496(14) 0.75051(14)
C6B C 0.43801(22) 0.94274(14) 0.69344(14)
C7B C 0.55304(22) 0.99779(15) 0.68346(14)
H2B H 0.620 0.975 0.647
C8B C 0.41243(22) 0.85128(13) 0.64288(14)
C9B C 0.30067(23) 0.85595(13) 0.54989(14)
C10B C 0.15445(24) 0.85147(13) 0.55035(15)
O1B O 0.10909(15) 0.83540(9) 0.63759(10)
C11B C 0.10989(25) 0.91122(16) 0.70046(16)
O2B O 0.23681(16) 0.91799(10) 0.77081(10)
H5B H 0.100 0.966 0.662
H6B H 0.030 0.906 0.732
C12B C 0.05085(23) 0.85574(14) 0.46587(16)
C13B C 0.09686(24) 0.86352(15) 0.37884(15)
C15B C 0.34058(22) 0.86359(13) 0.46078(15)
H8B H 0.441 0.868 0.460
H7B H 0.026 0.867 0.320
C16B C -0.10765(24) 0.84513(17) 0.46614(16)
C17B C -0.1562(3) 0.74537(18) 0.45523(18)
C18B C -0.3138(3) 0.73353(20) 0.44875(20)
H13B H -0.338 0.670 0.442
H14B H -0.365 0.766 0.393
H15B H -0.339 0.757 0.506
H11B H -0.131 0.720 0.398
H12B H -0.105 0.714 0.511
H9B H -0.125 0.870 0.526
H10B H -0.163 0.878 0.413
H3B H 0.501 0.831 0.627
H4B H 0.382 0.808 0.686
C19B C 0.26419(24) 1.09331(15) 0.85894(16)
C20B C 0.3087(3) 1.06221(17) 0.96304(18)
C21B C 0.2164(4) 1.09885(21) 1.02835(21)
H20B H 0.254 1.080 1.094
H21B H 0.215 1.164 1.025
H22B H 0.121 1.076 1.008
H18B H 0.405 1.082 0.987
H19B H 0.305 0.997 0.964
H16B H 0.169 1.071 0.834
H17B H 0.263 1.159 0.859
H1B H 0.489 1.173 0.809
C22B C 0.8284(3) 1.10240(17) 0.80790(15)
H23B H 0.854 1.041 0.794
H24B H 0.912 1.141 0.816
H25B H 0.792 1.103 0.866
C23B C 0.69258(25) 1.24195(16) 0.74273(16)
H26B H 0.613 1.265 0.696
H27B H 0.675 1.250 0.807
H28B H 0.778 1.274 0.736
loop_
_geom_bond_atom_site_label_1
_geom_bond_atom_site_label_2
_geom_bond_site_symmetry_1
_geom_bond_site_symmetry_2
C1 C2 1_555 1_555
C2 C3 1_555 1_555
C3 C4 1_555 1_555
C4 C5 1_555 1_555
C5 C6 1_555 1_555
C6 C7 1_555 1_555
C7 C2 1_555 1_555
C8 C6 1_555 1_555
C9 C8 1_555 1_555
C10 C9 1_555 1_555
O1 C10 1_555 1_555
C11 O1 1_555 1_555
O2 C5 1_555 1_555
C12 C10 1_555 1_555
C13 C12 1_555 1_555
C14 C1 1_555 1_555
C15 C9 1_555 1_555
C16 C12 1_555 1_555
C17 C16 1_555 1_555
C18 C17 1_555 1_555
C19 C4 1_555 1_555
C20 C19 1_555 1_555
C21 C20 1_555 1_555
C22 C1 1_555 1_555
C23 C1 1_555 1_555
H1 C3 1_555 1_555
H2 C7 1_555 1_555
H3 C8 1_555 1_555
H4 C8 1_555 1_555
H5 C11 1_555 1_555
H6 C11 1_555 1_555
H7 C13 1_555 1_555
H8 C15 1_555 1_555
H9 C16 1_555 1_555
H10 C16 1_555 1_555
H11 C17 1_555 1_555
H12 C17 1_555 1_555
H13 C18 1_555 1_555
H14 C18 1_555 1_555
H15 C18 1_555 1_555
H16 C19 1_555 1_555
H17 C19 1_555 1_555
H18 C20 1_555 1_555
H19 C20 1_555 1_555
H20 C21 1_555 1_555
H21 C21 1_555 1_555
H22 C21 1_555 1_555
H23 C22 1_555 1_555
H24 C22 1_555 1_555
H25 C22 1_555 1_555
H26 C23 1_555 1_555
H27 C23 1_555 1_555
H28 C23 1_555 1_555
C14B C13 1_555 1_555
C1B C14B 1_555 1_555
C2B C1B 1_555 1_555
C3B C2B 1_555 1_555
C4B C3B 1_555 1_555
C5B C4B 1_555 1_555
C6B C5B 1_555 1_555
C7B C2B 1_555 1_555
H2B C7B 1_555 1_555
C8B C6B 1_555 1_555
C9B C8B 1_555 1_555
C10B C9B 1_555 1_555
O1B C10B 1_555 1_555
C11B O1B 1_555 1_555
O2B C5B 1_555 1_555
H5B C11B 1_555 1_555
H6B C11B 1_555 1_555
C12B C10B 1_555 1_555
C13B C14 1_555 1_555
C15B C14 1_555 1_555
H8B C15B 1_555 1_555
H7B C13B 1_555 1_555
C16B C12B 1_555 1_555
C17B C16B 1_555 1_555
C18B C17B 1_555 1_555
H13B C18B 1_555 1_555
H14B C18B 1_555 1_555
H15B C18B 1_555 1_555
H11B C17B 1_555 1_555
H12B C17B 1_555 1_555
H9B C16B 1_555 1_555
H10B C16B 1_555 1_555
H3B C8B 1_555 1_555
H4B C8B 1_555 1_555
C19B C4B 1_555 1_555
C20B C19B 1_555 1_555
C21B C20B 1_555 1_555
H20B C21B 1_555 1_555
H21B C21B 1_555 1_555
H22B C21B 1_555 1_555
H18B C20B 1_555 1_555
H19B C20B 1_555 1_555
H16B C19B 1_555 1_555
H17B C19B 1_555 1_555
H1B C3B 1_555 1_555
C22B C1B 1_555 1_555
H23B C22B 1_555 1_555
H24B C22B 1_555 1_555
H25B C22B 1_555 1_555
C23B C1B 1_555 1_555
H26B C23B 1_555 1_555
H27B C23B 1_555 1_555
H28B C23B 1_555 1_555
C11 O2 1_555 1_555
C15 C14B 1_555 1_555
C6B C7B 1_555 1_555
C9B C15B 1_555 1_555
C11B O2B 1_555 1_555
C12B C13B 1_555 1_555

#END
