
#######################################################################
#
#                 Cambridge Crystallographic Data Centre
#                                CCDC 
#
#######################################################################
#
# If this CIF has been generated from an entry in the Cambridge 
# Structural Database, then it will include bibliographic, chemical, 
# crystal, experimental, refinement or atomic coordinate data resulting 
# from the CCDC's data processing and validation procedures.
#
#######################################################################

data_RUSYIP
_chemical_formula_moiety         'C26 H29 N1'
_chemical_name_systematic        
N-(2,2'',4,4'',6,6''-hexamethyl-1,1':3',1''-terphenyl-2'-yl)ethanimine
_symmetry_cell_setting           monoclinic
_symmetry_space_group_name_H-M   'P 21/c'
_symmetry_Int_Tables_number      14
_space_group_name_Hall           '-P 2ybc'
loop_
_symmetry_equiv_pos_site_id
_symmetry_equiv_pos_as_xyz
1 x,y,z
2 -x,1/2+y,1/2-z
3 -x,-y,-z
4 x,1/2-y,1/2+z
_cell_length_a                   8.9279(12)
_cell_length_b                   12.9314(17)
_cell_length_c                   36.699(5)
_cell_angle_alpha                90
_cell_angle_beta                 94.951(3)
_cell_angle_gamma                90
_cell_volume                     4221.1
_exptl_crystal_colour            colorless
_exptl_crystal_description       block
_cell_formula_units_Z            8
_chemical_properties_physical    Moisture-sensitive
_exptl_crystal_recrystallization_method n-pentane
loop_
_atom_site_label
_atom_site_type_symbol
_atom_site_fract_x
_atom_site_fract_y
_atom_site_fract_z
N1 N 0.4061(2) 0.05363(18) 0.66778(6)
C1 C 0.3700(3) -0.0354(2) 0.67706(8)
H1 H 0.2716 -0.0598 0.6698
C2 C 0.2942(3) 0.1186(2) 0.64997(7)
C3 C 0.3180(3) 0.1572(2) 0.61526(8)
C4 C 0.2165(3) 0.2269(2) 0.59881(8)
H2 H 0.2325 0.2537 0.5753
C5 C 0.0921(3) 0.2587(2) 0.61576(8)
H3 H 0.0234 0.3068 0.6041
C6 C 0.0688(3) 0.2197(2) 0.64984(8)
H4 H -0.0169 0.2413 0.6615
C7 C 0.1681(3) 0.1495(2) 0.66742(7)
C8 C 0.1404(3) 0.1108(2) 0.70465(7)
C9 C 0.2259(3) 0.1486(2) 0.73552(8)
C10 C 0.2030(3) 0.1108(2) 0.76987(8)
H5 H 0.2618 0.1371 0.7906
C11 C 0.0961(3) 0.0354(2) 0.77470(8)
C12 C 0.0103(3) 0.0000(2) 0.74414(8)
H6 H -0.0642 -0.0510 0.7471
C13 C 0.0287(3) 0.0364(2) 0.70913(8)
C14 C -0.0722(3) -0.0022(2) 0.67707(8)
H7 H -0.1494 0.0499 0.6702
H8 H -0.1207 -0.0666 0.6838
H9 H -0.0125 -0.0149 0.6563
C15 C 0.0729(4) -0.0062(3) 0.81225(8)
H10 H 0.1382 -0.0662 0.8175
H11 H -0.0323 -0.0269 0.8131
H12 H 0.0977 0.0477 0.8306
C16 C 0.3420(3) 0.2317(2) 0.73141(9)
H13 H 0.4140 0.2080 0.7145
H14 H 0.3952 0.2465 0.7553
H15 H 0.2921 0.2947 0.7217
C17 C 0.4497(3) 0.1204(2) 0.59620(7)
C18 C 0.4316(3) 0.0399(2) 0.57077(8)
C19 C 0.5556(3) 0.0048(2) 0.55383(8)
H16 H 0.5425 -0.0489 0.5362
C20 C 0.6970(3) 0.0460(2) 0.56194(8)
C21 C 0.7125(3) 0.1264(2) 0.58677(8)
H17 H 0.8090 0.1564 0.5922
C22 C 0.5924(3) 0.1647(2) 0.60401(8)
C23 C 0.6128(3) 0.2519(2) 0.63124(8)
H18 H 0.5455 0.3091 0.6234
H19 H 0.7173 0.2760 0.6327
H20 H 0.5891 0.2274 0.6553
C24 C 0.8315(3) 0.0051(3) 0.54422(9)
H21 H 0.8136 -0.0671 0.5370
H22 H 0.9209 0.0092 0.5616
H23 H 0.8473 0.0466 0.5225
C25 C 0.2797(3) -0.0108(2) 0.56251(9)
H24 H 0.2467 -0.0410 0.5850
H25 H 0.2875 -0.0654 0.5443
H26 H 0.2065 0.0410 0.5530
C26 C 0.4758(3) -0.1043(2) 0.69900(8)
H27 H 0.4848 -0.1700 0.6861
H28 H 0.4377 -0.1172 0.7228
H29 H 0.5746 -0.0711 0.7026
N2 N 0.5427(2) 0.67716(18) 0.61901(6)
C27 C 0.5643(3) 0.7680(2) 0.60785(8)
H30 H 0.5016 0.7939 0.5877
C28 C 0.4330(3) 0.6150(2) 0.59868(7)
C29 C 0.3093(3) 0.5812(2) 0.61672(7)
C30 C 0.2067(3) 0.5148(2) 0.59823(8)
H31 H 0.1222 0.4913 0.6099
C31 C 0.2259(3) 0.4825(2) 0.56291(8)
H32 H 0.1548 0.4370 0.5506
C32 C 0.3474(3) 0.5162(2) 0.54560(8)
H33 H 0.3594 0.4937 0.5214
C33 C 0.4533(3) 0.5830(2) 0.56305(7)
C34 C 0.5858(3) 0.6199(2) 0.54441(7)
C35 C 0.7293(3) 0.5801(2) 0.55497(7)
C36 C 0.8535(3) 0.6206(2) 0.53931(8)
H34 H 0.9503 0.5928 0.5462
C37 C 0.8401(3) 0.6996(2) 0.51409(8)
C38 C 0.6964(3) 0.7356(2) 0.50307(8)
H35 H 0.6850 0.7889 0.4852
C39 C 0.5699(3) 0.6962(2) 0.51727(7)
C40 C 0.4164(3) 0.7366(2) 0.50349(8)
H36 H 0.3637 0.6844 0.4878
H37 H 0.4278 0.8000 0.4894
H38 H 0.3582 0.7516 0.5243
C41 C 0.9782(3) 0.7448(3) 0.49892(9)
H39 H 1.0331 0.7875 0.5177
H40 H 0.9476 0.7874 0.4775
H41 H 1.0433 0.6886 0.4918
C42 C 0.7495(3) 0.4945(2) 0.58287(8)
H42 H 0.7278 0.5209 0.6069
H43 H 0.8533 0.4692 0.5841
H44 H 0.6805 0.4377 0.5757
C43 C 0.2853(3) 0.6183(2) 0.65425(7)
C44 C 0.1851(3) 0.6998(2) 0.65827(8)
C45 C 0.1614(3) 0.7330(2) 0.69335(8)
H45 H 0.0917 0.7872 0.6963
C46 C 0.2361(3) 0.6895(2) 0.72404(8)
C47 C 0.3335(3) 0.6082(2) 0.71940(8)
H46 H 0.3837 0.5764 0.7404
C48 C 0.3599(3) 0.5717(2) 0.68491(8)
C49 C 0.4658(3) 0.4831(2) 0.68052(8)
H47 H 0.4103 0.4249 0.6687
H48 H 0.5109 0.4616 0.7046
H49 H 0.5451 0.5049 0.6653
C50 C 0.2118(3) 0.7299(2) 0.76150(8)
H50 H 0.2527 0.8000 0.7642
H51 H 0.2630 0.6847 0.7801
H52 H 0.1039 0.7311 0.7646
C51 C 0.1025(3) 0.7504(2) 0.62535(8)
H53 H 0.1751 0.7735 0.6085
H54 H 0.0458 0.8100 0.6332
H55 H 0.0331 0.7005 0.6129
C52 C 0.6846(3) 0.8354(2) 0.62530(8)
H56 H 0.7608 0.8477 0.6081
H57 H 0.7314 0.8015 0.6473
H58 H 0.6411 0.9016 0.6320
loop_
_geom_bond_atom_site_label_1
_geom_bond_atom_site_label_2
_geom_bond_site_symmetry_1
_geom_bond_site_symmetry_2
N1 C1 1_555 1_555
C1 H1 1_555 1_555
C2 N1 1_555 1_555
C3 C2 1_555 1_555
C4 C3 1_555 1_555
H2 C4 1_555 1_555
C5 C4 1_555 1_555
H3 C5 1_555 1_555
C6 C5 1_555 1_555
H4 C6 1_555 1_555
C7 C2 1_555 1_555
C8 C7 1_555 1_555
C9 C8 1_555 1_555
C10 C9 1_555 1_555
H5 C10 1_555 1_555
C11 C10 1_555 1_555
C12 C11 1_555 1_555
H6 C12 1_555 1_555
C13 C8 1_555 1_555
C14 C13 1_555 1_555
H7 C14 1_555 1_555
H8 C14 1_555 1_555
H9 C14 1_555 1_555
C15 C11 1_555 1_555
H10 C15 1_555 1_555
H11 C15 1_555 1_555
H12 C15 1_555 1_555
C16 C9 1_555 1_555
H13 C16 1_555 1_555
H14 C16 1_555 1_555
H15 C16 1_555 1_555
C17 C3 1_555 1_555
C18 C17 1_555 1_555
C19 C18 1_555 1_555
H16 C19 1_555 1_555
C20 C19 1_555 1_555
C21 C20 1_555 1_555
H17 C21 1_555 1_555
C22 C17 1_555 1_555
C23 C22 1_555 1_555
H18 C23 1_555 1_555
H19 C23 1_555 1_555
H20 C23 1_555 1_555
C24 C20 1_555 1_555
H21 C24 1_555 1_555
H22 C24 1_555 1_555
H23 C24 1_555 1_555
C25 C18 1_555 1_555
H24 C25 1_555 1_555
H25 C25 1_555 1_555
H26 C25 1_555 1_555
C26 C1 1_555 1_555
H27 C26 1_555 1_555
H28 C26 1_555 1_555
H29 C26 1_555 1_555
N2 C27 1_555 1_555
C27 H30 1_555 1_555
C28 N2 1_555 1_555
C29 C28 1_555 1_555
C30 C29 1_555 1_555
H31 C30 1_555 1_555
C31 C30 1_555 1_555
H32 C31 1_555 1_555
C32 C31 1_555 1_555
H33 C32 1_555 1_555
C33 C28 1_555 1_555
C34 C33 1_555 1_555
C35 C34 1_555 1_555
C36 C35 1_555 1_555
H34 C36 1_555 1_555
C37 C36 1_555 1_555
C38 C37 1_555 1_555
H35 C38 1_555 1_555
C39 C34 1_555 1_555
C40 C39 1_555 1_555
H36 C40 1_555 1_555
H37 C40 1_555 1_555
H38 C40 1_555 1_555
C41 C37 1_555 1_555
H39 C41 1_555 1_555
H40 C41 1_555 1_555
H41 C41 1_555 1_555
C42 C35 1_555 1_555
H42 C42 1_555 1_555
H43 C42 1_555 1_555
H44 C42 1_555 1_555
C43 C29 1_555 1_555
C44 C43 1_555 1_555
C45 C44 1_555 1_555
H45 C45 1_555 1_555
C46 C45 1_555 1_555
C47 C46 1_555 1_555
H46 C47 1_555 1_555
C48 C43 1_555 1_555
C49 C48 1_555 1_555
H47 C49 1_555 1_555
H48 C49 1_555 1_555
H49 C49 1_555 1_555
C50 C46 1_555 1_555
H50 C50 1_555 1_555
H51 C50 1_555 1_555
H52 C50 1_555 1_555
C51 C44 1_555 1_555
H53 C51 1_555 1_555
H54 C51 1_555 1_555
H55 C51 1_555 1_555
C52 C27 1_555 1_555
H56 C52 1_555 1_555
H57 C52 1_555 1_555
H58 C52 1_555 1_555
C6 C7 1_555 1_555
C12 C13 1_555 1_555
C21 C22 1_555 1_555
C32 C33 1_555 1_555
C38 C39 1_555 1_555
C47 C48 1_555 1_555

#END
