
#######################################################################
#
#                 Cambridge Crystallographic Data Centre
#                                CCDC 
#
#######################################################################
#
# If this CIF has been generated from an entry in the Cambridge 
# Structural Database, then it will include bibliographic, chemical, 
# crystal, experimental, refinement or atomic coordinate data resulting 
# from the CCDC's data processing and validation procedures.
#
#######################################################################

data_RUTGAQ
_chemical_formula_moiety         'C15 H16 O6'
_chemical_name_systematic        
3a,8,9a-trihydroxy-2,3,3-trimethyl-2,3,3a,9a-tetrahydronaphtho[2,3-b]furan-4,9-dione
_symmetry_cell_setting           monoclinic
_symmetry_space_group_name_H-M   'P 21'
_symmetry_Int_Tables_number      4
_space_group_name_Hall           'P 2yb'
loop_
_symmetry_equiv_pos_site_id
_symmetry_equiv_pos_as_xyz
1 x,y,z
2 -x,1/2+y,-z
_cell_length_a                   7.7816(2)
_cell_length_b                   6.33270(10)
_cell_length_c                   13.4381(3)
_cell_angle_alpha                90
_cell_angle_beta                 93.4560(10)
_cell_angle_gamma                90
_cell_volume                     661.006
_exptl_crystal_colour            colorless
_exptl_crystal_description       prism
_cell_formula_units_Z            2
loop_
_atom_site_label
_atom_site_type_symbol
_atom_site_fract_x
_atom_site_fract_y
_atom_site_fract_z
O1 O 0.1084(2) 0.3251(4) 0.41668(12)
O2 O -0.1387(2) 0.5315(4) 0.42088(13)
H1 H -0.0925 0.6186 0.4589
O3 O -0.1697(3) 0.1260(4) 0.32969(13)
O4 O 0.0263(3) 0.8667(4) 0.18023(14)
O5 O 0.1103(3) 0.7898(3) 0.37306(12)
H2 H 0.0167 0.8429 0.3827
O6 O -0.3512(3) 0.0452(4) 0.16578(17)
H3 H -0.3119 0.0228 0.2228
C1 C -0.2838(3) 0.2234(5) 0.13177(19)
C2 C -0.1732(3) 0.3542(4) 0.19110(15)
C3 C -0.1244(3) 0.2935(4) 0.29436(15)
C4 C -0.0168(3) 0.4454(4) 0.36157(14)
C5 C 0.2789(3) 0.4091(5) 0.40457(17)
H4 H 0.3018 0.5207 0.4541
C6 C 0.4093(4) 0.2362(6) 0.4232(2)
H5 H 0.3907 0.1689 0.4856
H6 H 0.5231 0.2952 0.4254
H7 H 0.3973 0.1341 0.3704
C7 C -0.3280(4) 0.2796(6) 0.03337(19)
H8 H -0.3991 0.1918 -0.0064
C8 C -0.2669(4) 0.4644(6) -0.00534(18)
H9 H -0.2991 0.5014 -0.0708
C9 C -0.1597(3) 0.5943(5) 0.05098(18)
H10 H -0.1192 0.7181 0.0235
C10 C -0.1106(3) 0.5418(5) 0.14971(16)
C11 C 0.0015(3) 0.6897(4) 0.20866(16)
C12 C 0.0867(3) 0.6170(4) 0.30813(14)
C13 C 0.2656(3) 0.5103(4) 0.30004(15)
C14 C 0.2641(3) 0.3437(5) 0.21742(18)
H11 H 0.2432 0.4110 0.1538
H12 H 0.1749 0.2426 0.2273
H13 H 0.3735 0.2732 0.2193
C15 C 0.4107(3) 0.6681(5) 0.2853(2)
H14 H 0.5196 0.5966 0.2920
H15 H 0.4077 0.7775 0.3347
H16 H 0.3959 0.7294 0.2200
loop_
_geom_bond_atom_site_label_1
_geom_bond_atom_site_label_2
_geom_bond_site_symmetry_1
_geom_bond_site_symmetry_2
O1 C4 1_555 1_555
O2 H1 1_555 1_555
O3 C3 1_555 1_555
O4 C11 1_555 1_555
O5 H2 1_555 1_555
O6 H3 1_555 1_555
C1 O6 1_555 1_555
C2 C1 1_555 1_555
C3 C2 1_555 1_555
C4 O2 1_555 1_555
C5 O1 1_555 1_555
H4 C5 1_555 1_555
C6 C5 1_555 1_555
H5 C6 1_555 1_555
H6 C6 1_555 1_555
H7 C6 1_555 1_555
C7 C1 1_555 1_555
H8 C7 1_555 1_555
C8 C7 1_555 1_555
H9 C8 1_555 1_555
C9 C8 1_555 1_555
H10 C9 1_555 1_555
C10 C2 1_555 1_555
C11 C10 1_555 1_555
C12 O5 1_555 1_555
C13 C5 1_555 1_555
C14 C13 1_555 1_555
H11 C14 1_555 1_555
H12 C14 1_555 1_555
H13 C14 1_555 1_555
C15 C13 1_555 1_555
H14 C15 1_555 1_555
H15 C15 1_555 1_555
H16 C15 1_555 1_555
C3 C4 1_555 1_555
C4 C12 1_555 1_555
C9 C10 1_555 1_555
C11 C12 1_555 1_555
C12 C13 1_555 1_555

#END
