
#######################################################################
#
#                 Cambridge Crystallographic Data Centre
#                                CCDC 
#
#######################################################################
#
# If this CIF has been generated from an entry in the Cambridge 
# Structural Database, then it will include bibliographic, chemical, 
# crystal, experimental, refinement or atomic coordinate data resulting 
# from the CCDC's data processing and validation procedures.
#
#######################################################################

data_RUTJOH
_chemical_formula_moiety         'C24 H26 B1 N1 O4 S1'
_chemical_name_systematic        
'((1-((4-methylphenyl)sulfonyl)-4,4-diphenylpyrrolidin-2-yl)methyl)boronic acid'
_symmetry_cell_setting           monoclinic
_symmetry_space_group_name_H-M   'P 21/c'
_symmetry_Int_Tables_number      14
_space_group_name_Hall           '-P 2ybc'
loop_
_symmetry_equiv_pos_site_id
_symmetry_equiv_pos_as_xyz
1 x,y,z
2 -x,1/2+y,1/2-z
3 -x,-y,-z
4 x,1/2-y,1/2+z
_cell_length_a                   8.8279(18)
_cell_length_b                   11.463(2)
_cell_length_c                   22.233(4)
_cell_angle_alpha                90
_cell_angle_beta                 100.89(3)
_cell_angle_gamma                90
_cell_volume                     2209.34
_cell_formula_units_Z            4
loop_
_atom_site_label
_atom_site_type_symbol
_atom_site_fract_x
_atom_site_fract_y
_atom_site_fract_z
S1 S 1.07234(6) 0.66653(5) 0.34994(2)
O1 O 1.21112(17) 0.73069(15) 0.34953(8)
O2 O 1.08115(17) 0.54755(13) 0.37171(7)
O3 O 0.56896(17) 0.56141(15) 0.43027(7)
H1 H 0.4924 0.5427 0.4456
O4 O 0.68798(17) 0.51057(13) 0.53006(7)
H2 H 0.7768 0.5036 0.5514
N1 N 0.97378(19) 0.73839(15) 0.39195(8)
B1 B 0.6989(3) 0.5531(2) 0.47350(11)
C1 C 0.9607(2) 0.86719(18) 0.38368(10)
H3 H 0.9808 0.8902 0.3430
H4 H 1.0350 0.9080 0.4157
C2 C 0.7918(2) 0.89693(18) 0.38921(10)
C3 C 0.7601(2) 0.79733(18) 0.43074(10)
H5 H 0.8087 0.8135 0.4738
H6 H 0.6478 0.7873 0.4283
C4 C 0.8296(2) 0.68861(17) 0.40773(10)
H7 H 0.7607 0.6596 0.3697
C5 C 0.8556(2) 0.59228(19) 0.45575(10)
H8 H 0.9265 0.6207 0.4928
H9 H 0.9046 0.5245 0.4395
C6 C 0.7845(2) 1.01634(18) 0.41940(10)
C7 C 0.6973(3) 1.0326(2) 0.46485(11)
H10 H 0.6407 0.9691 0.4769
C8 C 0.6921(3) 1.1410(2) 0.49285(13)
H11 H 0.6341 1.1504 0.5244
C9 C 0.7709(3) 1.2345(2) 0.47476(14)
H12 H 0.7661 1.3087 0.4933
C10 C 0.8566(3) 1.2198(2) 0.42970(14)
H13 H 0.9101 1.2843 0.4169
C11 C 0.8654(3) 1.1109(2) 0.40274(12)
H14 H 0.9275 1.1013 0.3726
C12 C 0.6821(2) 0.89518(17) 0.32569(10)
C13 C 0.7090(3) 0.9696(2) 0.27925(11)
H15 H 0.7963 1.0197 0.2867
C14 C 0.6117(3) 0.9725(2) 0.22237(11)
H16 H 0.6316 1.0249 0.1917
C15 C 0.4856(3) 0.8986(2) 0.21054(11)
H17 H 0.4194 0.8993 0.1715
C16 C 0.4565(3) 0.8242(2) 0.25559(11)
H18 H 0.3698 0.7736 0.2476
C17 C 0.5536(2) 0.82285(18) 0.31286(10)
H19 H 0.5315 0.7716 0.3437
C18 C 0.9626(2) 0.66504(18) 0.27541(10)
C19 C 0.9768(3) 0.75698(19) 0.23610(10)
H20 H 1.0550 0.8141 0.2473
C20 C 0.8763(3) 0.7644(2) 0.18070(11)
H21 H 0.8850 0.8277 0.1540
C21 C 0.7630(3) 0.6813(2) 0.16326(11)
C22 C 0.7519(3) 0.5886(2) 0.20234(11)
H22 H 0.6756 0.5303 0.1904
C23 C 0.8503(3) 0.57986(19) 0.25848(10)
H23 H 0.8413 0.5165 0.2851
C24 C 0.6510(4) 0.6920(3) 0.10314(13)
H24 H 0.6668 0.6271 0.0763
H25 H 0.6683 0.7661 0.0835
H26 H 0.5451 0.6896 0.1106
loop_
_geom_bond_atom_site_label_1
_geom_bond_atom_site_label_2
_geom_bond_site_symmetry_1
_geom_bond_site_symmetry_2
S1 O1 1_555 1_555
O2 S1 1_555 1_555
O3 H1 1_555 1_555
O4 H2 1_555 1_555
N1 S1 1_555 1_555
B1 O3 1_555 1_555
C1 N1 1_555 1_555
H3 C1 1_555 1_555
H4 C1 1_555 1_555
C2 C1 1_555 1_555
C3 C2 1_555 1_555
H5 C3 1_555 1_555
H6 C3 1_555 1_555
C4 N1 1_555 1_555
H7 C4 1_555 1_555
C5 B1 1_555 1_555
H8 C5 1_555 1_555
H9 C5 1_555 1_555
C6 C2 1_555 1_555
C7 C6 1_555 1_555
H10 C7 1_555 1_555
C8 C7 1_555 1_555
H11 C8 1_555 1_555
C9 C8 1_555 1_555
H12 C9 1_555 1_555
C10 C9 1_555 1_555
H13 C10 1_555 1_555
C11 C6 1_555 1_555
H14 C11 1_555 1_555
C12 C2 1_555 1_555
C13 C12 1_555 1_555
H15 C13 1_555 1_555
C14 C13 1_555 1_555
H16 C14 1_555 1_555
C15 C14 1_555 1_555
H17 C15 1_555 1_555
C16 C15 1_555 1_555
H18 C16 1_555 1_555
C17 C12 1_555 1_555
H19 C17 1_555 1_555
C18 S1 1_555 1_555
C19 C18 1_555 1_555
H20 C19 1_555 1_555
C20 C19 1_555 1_555
H21 C20 1_555 1_555
C21 C20 1_555 1_555
C22 C21 1_555 1_555
H22 C22 1_555 1_555
C23 C18 1_555 1_555
H23 C23 1_555 1_555
C24 C21 1_555 1_555
H24 C24 1_555 1_555
H25 C24 1_555 1_555
H26 C24 1_555 1_555
O4 B1 1_555 1_555
C3 C4 1_555 1_555
C4 C5 1_555 1_555
C10 C11 1_555 1_555
C16 C17 1_555 1_555
C22 C23 1_555 1_555

#END
