
#######################################################################
#
#                 Cambridge Crystallographic Data Centre
#                                CCDC 
#
#######################################################################
#
# If this CIF has been generated from an entry in the Cambridge 
# Structural Database, then it will include bibliographic, chemical, 
# crystal, experimental, refinement or atomic coordinate data resulting 
# from the CCDC's data processing and validation procedures.
#
#######################################################################

data_RUTLEY
_chemical_formula_moiety         'C21 H27 N5 O8 S2'
_chemical_name_systematic        
'Dimethyl 4,15-dimethyl-2,5,14,17-tetraoxo-9,10-dithia-3,6,13,16,22-pentaazabicyclo[16.3.1]docosa-1(22),18,20-triene-7,12-dicarboxylate'
_symmetry_cell_setting           orthorhombic
_symmetry_space_group_name_H-M   'C 2 2 21'
_symmetry_Int_Tables_number      20
_space_group_name_Hall           'C 2n 2'
loop_
_symmetry_equiv_pos_site_id
_symmetry_equiv_pos_as_xyz
1 x,y,z
2 -x,-y,1/2+z
3 -x,y,1/2-z
4 x,-y,-z
5 1/2+x,1/2+y,z
6 1/2-x,1/2-y,1/2+z
7 1/2-x,1/2+y,1/2-z
8 1/2+x,1/2-y,-z
_cell_length_a                   9.594(3)
_cell_length_b                   17.892(5)
_cell_length_c                   16.287(5)
_cell_angle_alpha                90
_cell_angle_beta                 90
_cell_angle_gamma                90
_cell_volume                     2795.76
_cell_formula_units_Z            4
loop_
_atom_site_label
_atom_site_type_symbol
_atom_site_fract_x
_atom_site_fract_y
_atom_site_fract_z
S1 S 1.05718(12) 0.32878(6) 0.80199(8)
O1 O 0.8066(4) -0.11086(17) 0.93183(16)
O2 O 0.8003(4) 0.12074(15) 0.77522(15)
O3 O 0.8035(9) 0.2977(2) 1.0018(3)
O4 O 0.7388(5) 0.3597(2) 0.8932(3)
N1 N 1.0000 -0.0945(2) 0.7500
N2 N 0.8160(4) -0.01793(15) 0.83908(18)
H1 H 0.8435 -0.0065 0.7904
N3 N 0.8006(4) 0.17035(18) 0.90205(18)
H2 H 0.7870 0.1636 0.9537
C1 C 0.9971(4) 0.2473(2) 0.8569(3)
H3 H 1.0248 0.2031 0.8265
H4 H 1.0439 0.2456 0.9097
C2 C 1.0000 -0.2478(3) 0.7500
H5 H 1.0000 -0.2997 0.7500
C3 C 0.9280(4) -0.21071(19) 0.8097(2)
H6 H 0.8811 -0.2363 0.8510
C4 C 0.9276(4) -0.13312(17) 0.8062(2)
C5 C 0.8433(5) -0.08663(19) 0.8660(2)
C6 C 0.7425(5) 0.0398(2) 0.8861(2)
H7 H 0.7732 0.0378 0.9434
C7 C 0.5877(6) 0.0304(3) 0.8829(4)
H8 H 0.5627 -0.0167 0.9070
H9 H 0.5571 0.0317 0.8268
H10 H 0.5439 0.0702 0.9130
C8 C 0.7851(5) 0.1133(2) 0.8498(2)
C9 C 0.8403(4) 0.24373(19) 0.8716(2)
H11 H 0.7925 0.2525 0.8193
C10 C 0.7925(6) 0.3013(2) 0.9323(4)
C11 C 0.6991(10) 0.4222(4) 0.9462(6)
H12 H 0.6623 0.4621 0.9131
H13 H 0.7796 0.4397 0.9755
H14 H 0.6295 0.4060 0.9846
S1B S 0.94282(12) 0.32878(6) 0.69801(8)
O1B O 1.1934(4) -0.11086(17) 0.56817(16)
O2B O 1.1997(4) 0.12074(15) 0.72478(15)
O3B O 1.1965(9) 0.2977(2) 0.4982(3)
O4B O 1.2612(5) 0.3597(2) 0.6068(3)
N2B N 1.1840(4) -0.01793(15) 0.66092(18)
H1B H 1.1565 -0.0065 0.7096
N3B N 1.1994(4) 0.17035(18) 0.59795(18)
H2B H 1.2130 0.1636 0.5463
C1B C 1.0029(4) 0.2473(2) 0.6431(3)
H3B H 0.9752 0.2031 0.6735
H4B H 0.9561 0.2456 0.5903
C3B C 1.0720(4) -0.21071(19) 0.6903(2)
H6B H 1.1189 -0.2363 0.6490
C4B C 1.0724(4) -0.13312(17) 0.6938(2)
C5B C 1.1567(5) -0.08663(19) 0.6340(2)
C6B C 1.2575(5) 0.0398(2) 0.6139(2)
H7B H 1.2268 0.0378 0.5566
C7B C 1.4123(6) 0.0304(3) 0.6171(4)
H8B H 1.4373 -0.0167 0.5930
H9B H 1.4429 0.0317 0.6732
H10B H 1.4561 0.0702 0.5870
C8B C 1.2149(5) 0.1133(2) 0.6502(2)
C9B C 1.1597(4) 0.24373(19) 0.6284(2)
H11B H 1.2075 0.2525 0.6807
C10B C 1.2075(6) 0.3013(2) 0.5677(4)
C11B C 1.3009(10) 0.4222(4) 0.5538(6)
H12B H 1.3377 0.4621 0.5869
H13B H 1.2204 0.4397 0.5245
H14B H 1.3705 0.4060 0.5154
loop_
_geom_bond_atom_site_label_1
_geom_bond_atom_site_label_2
_geom_bond_site_symmetry_1
_geom_bond_site_symmetry_2
S1 C1 1_555 1_555
O1 C5 1_555 1_555
O2 C8 1_555 1_555
O3 C10 1_555 1_555
O4 C10 1_555 1_555
N1 C4 1_555 1_555
N2 H1 1_555 1_555
N3 H2 1_555 1_555
C1 H3 1_555 1_555
H4 C1 1_555 1_555
C2 H5 1_555 1_555
C3 C2 1_555 1_555
H6 C3 1_555 1_555
C4 C3 1_555 1_555
C5 N2 1_555 1_555
C6 N2 1_555 1_555
H7 C6 1_555 1_555
C7 C6 1_555 1_555
H8 C7 1_555 1_555
H9 C7 1_555 1_555
H10 C7 1_555 1_555
C8 N3 1_555 1_555
C9 N3 1_555 1_555
H11 C9 1_555 1_555
C10 C9 1_555 1_555
C11 O4 1_555 1_555
H12 C11 1_555 1_555
H13 C11 1_555 1_555
H14 C11 1_555 1_555
S1B S1 1_555 1_555
O1B C5B 1_555 1_555
O2B C8B 1_555 1_555
O3B C10B 1_555 1_555
O4B C10B 1_555 1_555
N2B H1B 1_555 1_555
N3B H2B 1_555 1_555
C1B S1B 1_555 1_555
H3B C1B 1_555 1_555
H4B C1B 1_555 1_555
C3B C2 1_555 1_555
H6B C3B 1_555 1_555
C4B N1 1_555 1_555
C5B N2B 1_555 1_555
C6B N2B 1_555 1_555
H7B C6B 1_555 1_555
C7B C6B 1_555 1_555
H8B C7B 1_555 1_555
H9B C7B 1_555 1_555
H10B C7B 1_555 1_555
C8B N3B 1_555 1_555
C9B N3B 1_555 1_555
H11B C9B 1_555 1_555
C10B C9B 1_555 1_555
C11B O4B 1_555 1_555
H12B C11B 1_555 1_555
H13B C11B 1_555 1_555
H14B C11B 1_555 1_555
C1 C9 1_555 1_555
C4 C5 1_555 1_555
C6 C8 1_555 1_555
C1B C9B 1_555 1_555
C3B C4B 1_555 1_555
C4B C5B 1_555 1_555
C6B C8B 1_555 1_555

#END
