
#######################################################################
#
#                 Cambridge Crystallographic Data Centre
#                                CCDC 
#
#######################################################################
#
# If this CIF has been generated from an entry in the Cambridge 
# Structural Database, then it will include bibliographic, chemical, 
# crystal, experimental, refinement or atomic coordinate data resulting 
# from the CCDC's data processing and validation procedures.
#
#######################################################################

data_RUTPAZ
_chemical_formula_moiety         'C21 H16 Br1 N3 S1'
_chemical_name_systematic        
1-benzyl-5-((4-bromophenyl)sulfanyl)-4-phenyl-1H-1,2,3-triazole
_symmetry_cell_setting           triclinic
_symmetry_space_group_name_H-M   'P 1'
_symmetry_Int_Tables_number      1
_space_group_name_Hall           'P 1'
loop_
_symmetry_equiv_pos_site_id
_symmetry_equiv_pos_as_xyz
1 x,y,z
_cell_length_a                   5.8797(15)
_cell_length_b                   7.4419(19)
_cell_length_c                   11.246(3)
_cell_angle_alpha                72.206(2)
_cell_angle_beta                 75.005(2)
_cell_angle_gamma                88.216(2)
_cell_volume                     451.971
_exptl_crystal_colour            yellow
_exptl_crystal_description       block
_cell_formula_units_Z            1
loop_
_atom_site_label
_atom_site_type_symbol
_atom_site_fract_x
_atom_site_fract_y
_atom_site_fract_z
Br1 Br 0.46368(5) 0.69410(5) 0.82492(4)
S1 S -0.4153(2) 0.5120(2) 1.33061(13)
C1 C -0.1663(8) 0.5675(7) 1.1932(4)
C2 C -0.1871(8) 0.6895(7) 1.0761(5)
H1 H -0.3282 0.7475 1.0711
C3 C 0.2322(9) 0.5174(8) 1.0901(5)
H2 H 0.3744 0.4611 1.0946
C4 C 0.2078(8) 0.6376(7) 0.9758(4)
C5 C 0.0433(8) 0.4792(8) 1.1999(5)
H3 H 0.0575 0.3947 1.2776
C6 C -0.0019(9) 0.7253(8) 0.9679(5)
H4 H -0.0166 0.8077 0.8896
C7 C -0.0717(7) 0.4740(6) 1.5568(4)
N1 N -0.3579(8) 0.9072(6) 1.4835(4)
C8 C 0.1975(11) 0.1841(10) 1.6633(6)
H5 H 0.2893 0.0876 1.6969
C9 C -0.3487(7) 0.6542(7) 1.4170(4)
N2 N -0.4374(6) 0.8274(6) 1.4093(3)
N3 N -0.2186(8) 0.7916(7) 1.5381(4)
C10 C -0.6518(9) 1.0067(8) 1.1182(6)
H6 H -0.7965 0.9390 1.1505
C11 C -0.3067(8) 1.1180(7) 1.1509(5)
H7 H -0.2163 1.1268 1.2058
C12 C -0.2106(7) 0.6304(6) 1.5025(4)
C13 C -0.3535(12) 1.1954(9) 0.9394(6)
H8 H -0.2957 1.2544 0.8510
C14 C -0.5198(8) 1.0162(7) 1.2021(5)
C15 C -0.2261(11) 1.2058(9) 1.0218(6)
H9 H -0.0816 1.2739 0.9896
C16 C -0.1064(8) 0.2903(7) 1.5562(4)
H10 H -0.2217 0.2633 1.5202
C17 C 0.0971(8) 0.5050(7) 1.6160(4)
H11 H 0.1204 0.6257 1.6203
C18 C -0.5702(10) 1.0966(8) 0.9875(5)
H12 H -0.6603 1.0911 0.9317
C19 C 0.2303(9) 0.3631(8) 1.6681(5)
H13 H 0.3426 0.3882 1.7068
C20 C 0.0267(10) 0.1487(8) 1.6079(5)
H14 H 0.0019 0.0271 1.6057
C21 C -0.6127(10) 0.9207(10) 1.3442(6)
H15 H -0.6839 1.0141 1.3846
H16 H -0.7361 0.8276 1.3574
loop_
_geom_bond_atom_site_label_1
_geom_bond_atom_site_label_2
_geom_bond_site_symmetry_1
_geom_bond_site_symmetry_2
Br1 C4 1_555 1_555
S1 C1 1_555 1_555
C1 C2 1_555 1_555
C2 H1 1_555 1_555
C3 H2 1_555 1_555
C4 C3 1_555 1_555
C5 C1 1_555 1_555
H3 C5 1_555 1_555
C6 C2 1_555 1_555
H4 C6 1_555 1_555
C7 C12 1_555 1_555
N1 N2 1_555 1_555
C8 H5 1_555 1_555
C9 S1 1_555 1_555
N2 C9 1_555 1_555
N3 N1 1_555 1_555
C10 H6 1_555 1_555
C11 H7 1_555 1_555
C12 C9 1_555 1_555
C13 H8 1_555 1_555
C14 C10 1_555 1_555
C15 C11 1_555 1_555
H9 C15 1_555 1_555
C16 C7 1_555 1_555
H10 C16 1_555 1_555
C17 C7 1_555 1_555
H11 C17 1_555 1_555
C18 C10 1_555 1_555
H12 C18 1_555 1_555
C19 C8 1_555 1_555
H13 C19 1_555 1_555
C20 C8 1_555 1_555
H14 C20 1_555 1_555
C21 N2 1_555 1_555
H15 C21 1_555 1_555
H16 C21 1_555 1_555
C3 C5 1_555 1_555
C4 C6 1_555 1_555
N3 C12 1_555 1_555
C11 C14 1_555 1_555
C13 C15 1_555 1_555
C13 C18 1_555 1_555
C14 C21 1_555 1_555
C16 C20 1_555 1_555
C17 C19 1_555 1_555

#END
