
#######################################################################
#
#                 Cambridge Crystallographic Data Centre
#                                CCDC 
#
#######################################################################
#
# If this CIF has been generated from an entry in the Cambridge 
# Structural Database, then it will include bibliographic, chemical, 
# crystal, experimental, refinement or atomic coordinate data resulting 
# from the CCDC's data processing and validation procedures.
#
#######################################################################

data_RUTTEH
_chemical_name_common            
alpha-(4-chlorophenyl)-alpha-(1-cyclopropylethyl)-1H-1,2,4-triazole-1-ethanol
_chemical_formula_moiety         'C15 H18 Cl1 N3 O1'
_chemical_name_systematic        
2-(4-chlorophenyl)-3-cyclopropyl-1-(1H-1,2,4-triazol-1-yl)butan-2-ol
_chemical_properties_biological  'antifungal activity'
_symmetry_cell_setting           triclinic
_symmetry_space_group_name_H-M   'P -1'
_symmetry_Int_Tables_number      2
_space_group_name_Hall           '-P 1'
loop_
_symmetry_equiv_pos_site_id
_symmetry_equiv_pos_as_xyz
1 x,y,z
2 -x,-y,-z
_cell_length_a                   9.7783(11)
_cell_length_b                   12.2150(13)
_cell_length_c                   14.5861(15)
_cell_angle_alpha                107.965(6)
_cell_angle_beta                 108.254(5)
_cell_angle_gamma                99.533(5)
_cell_volume                     1506.09
_exptl_crystal_colour            colorless
_exptl_crystal_description       block
_cell_formula_units_Z            4
loop_
_atom_site_label
_atom_site_type_symbol
_atom_site_fract_x
_atom_site_fract_y
_atom_site_fract_z
Cl1 Cl -0.04911(5) 0.86025(4) 0.05469(4)
O1 O 0.60192(13) 0.83935(11) 0.01077(9)
H1 H 0.5303 0.8046 -0.0480
N1 N 0.65641(16) 0.62487(13) 0.02174(12)
N2 N 0.76461(17) 0.59337(14) 0.08493(12)
N3 N 0.77957(19) 0.55315(14) -0.07288(13)
C1 C 0.1300(2) 0.84834(16) 0.06922(14)
C2 C 0.2145(2) 0.91250(17) 0.03227(15)
H2 H 0.1766 0.9649 0.0014
C3 C 0.3549(2) 0.89902(17) 0.04108(15)
H3 H 0.4130 0.9431 0.0157
C4 C 0.41388(19) 0.82362(16) 0.08560(14)
C5 C 0.3266(2) 0.76251(16) 0.12487(14)
H4 H 0.3652 0.7117 0.1576
C6 C 0.1865(2) 0.77470(17) 0.11700(15)
H5 H 0.1290 0.7329 0.1442
C7 C 0.56362(19) 0.80332(16) 0.08570(13)
C8 C 0.6976(2) 0.87845(16) 0.19188(14)
H6 H 0.7890 0.8564 0.1850
C9 C 0.7281(3) 1.01291(18) 0.21553(17)
H7 H 0.6417 1.0384 0.2248
H8 H 0.7438 1.0291 0.1573
H9 H 0.8183 1.0575 0.2797
C10 C 0.6798(2) 0.85291(18) 0.28317(15)
H10 H 0.5898 0.8689 0.2972
C11 C 0.7297(3) 0.7547(2) 0.31196(17)
H11 H 0.6697 0.7110 0.3401
H12 H 0.7740 0.7052 0.2683
C12 C 0.8179(3) 0.8827(2) 0.37830(17)
H13 H 0.9166 0.9123 0.3757
H14 H 0.8123 0.9182 0.4474
C13 C 0.5409(2) 0.66645(16) 0.05308(14)
H15 H 0.5377 0.6444 0.1124
H16 H 0.4421 0.6236 -0.0058
C14 C 0.6682(2) 0.59944(17) -0.07065(15)
H17 H 0.6042 0.6131 -0.1276
C15 C 0.8348(2) 0.55172(16) 0.02459(15)
H18 H 0.9183 0.5226 0.0474
Cl2 Cl 0.80245(8) 0.97120(5) 0.66620(5)
O2 O 0.92927(15) 0.49775(13) 0.78653(10)
H19 H 0.8646 0.5125 0.8114
N4 N 1.14669(17) 0.56158(14) 0.69780(12)
N5 N 1.2121(2) 0.60435(18) 0.64189(14)
N6 N 1.35778(19) 0.69573(17) 0.81207(13)
C16 C 0.8286(2) 0.83582(19) 0.67320(16)
C17 C 0.8550(3) 0.8183(2) 0.76483(17)
H20 H 0.8588 0.8798 0.8251
C18 C 0.8759(2) 0.71082(19) 0.76897(15)
H21 H 0.8973 0.7001 0.8333
C19 C 0.8663(2) 0.61851(17) 0.68184(14)
C20 C 0.8401(3) 0.6393(2) 0.58996(16)
H22 H 0.8347 0.5777 0.5292
C21 C 0.8219(3) 0.7468(2) 0.58518(16)
H23 H 0.8048 0.7596 0.5220
C22 C 0.8813(2) 0.49691(18) 0.68326(14)
C23 C 0.7293(2) 0.3970(2) 0.60963(17)
H24 H 0.7046 0.3983 0.5381
C24 C 0.6022(3) 0.4221(3) 0.6419(2)
H25 H 0.5083 0.3594 0.5926
H26 H 0.5923 0.5006 0.6418
H27 H 0.6232 0.4226 0.7123
C25 C 0.7417(3) 0.2731(2) 0.6014(2)
H28 H 0.7784 0.2627 0.6695
C26 C 0.7812(4) 0.1962(2) 0.5174(2)
H29 H 0.8009 0.2299 0.4676
H30 H 0.8432 0.1436 0.5351
C27 C 0.6240(4) 0.1651(3) 0.5110(3)
H31 H 0.5887 0.0936 0.5250
H32 H 0.5463 0.1799 0.4574
C28 C 1.0042(2) 0.46528(18) 0.64609(15)
H33 H 1.0226 0.3928 0.6584
H34 H 0.9680 0.4451 0.5698
C29 C 1.2336(2) 0.6183(2) 0.79826(17)
H35 H 1.2103 0.6053 0.8533
C30 C 1.3371(3) 0.6832(2) 0.71451(17)
H36 H 1.4084 0.7287 0.6985
loop_
_geom_bond_atom_site_label_1
_geom_bond_atom_site_label_2
_geom_bond_site_symmetry_1
_geom_bond_site_symmetry_2
Cl1 C1 1_555 1_555
O1 H1 1_555 1_555
N1 N2 1_555 1_555
N2 C15 1_555 1_555
N3 C14 1_555 1_555
C1 C2 1_555 1_555
C2 H2 1_555 1_555
C3 C2 1_555 1_555
H3 C3 1_555 1_555
C4 C3 1_555 1_555
C5 C4 1_555 1_555
H4 C5 1_555 1_555
C6 C1 1_555 1_555
H5 C6 1_555 1_555
C7 O1 1_555 1_555
C8 C7 1_555 1_555
H6 C8 1_555 1_555
C9 C8 1_555 1_555
H7 C9 1_555 1_555
H8 C9 1_555 1_555
H9 C9 1_555 1_555
C10 C8 1_555 1_555
H10 C10 1_555 1_555
C11 C10 1_555 1_555
H11 C11 1_555 1_555
H12 C11 1_555 1_555
C12 C10 1_555 1_555
H13 C12 1_555 1_555
H14 C12 1_555 1_555
C13 N1 1_555 1_555
H15 C13 1_555 1_555
H16 C13 1_555 1_555
C14 N1 1_555 1_555
H17 C14 1_555 1_555
C15 N3 1_555 1_555
H18 C15 1_555 1_555
Cl2 C16 1_555 1_555
O2 H19 1_555 1_555
N4 N5 1_555 1_555
N5 C30 1_555 1_555
N6 C29 1_555 1_555
C16 C17 1_555 1_555
C17 H20 1_555 1_555
C18 C17 1_555 1_555
H21 C18 1_555 1_555
C19 C18 1_555 1_555
C20 C19 1_555 1_555
H22 C20 1_555 1_555
C21 C16 1_555 1_555
H23 C21 1_555 1_555
C22 O2 1_555 1_555
C23 C22 1_555 1_555
H24 C23 1_555 1_555
C24 C23 1_555 1_555
H25 C24 1_555 1_555
H26 C24 1_555 1_555
H27 C24 1_555 1_555
C25 C23 1_555 1_555
H28 C25 1_555 1_555
C26 C25 1_555 1_555
H29 C26 1_555 1_555
H30 C26 1_555 1_555
C27 C25 1_555 1_555
H31 C27 1_555 1_555
H32 C27 1_555 1_555
C28 N4 1_555 1_555
H33 C28 1_555 1_555
H34 C28 1_555 1_555
C29 N4 1_555 1_555
H35 C29 1_555 1_555
C30 N6 1_555 1_555
H36 C30 1_555 1_555
C4 C7 1_555 1_555
C5 C6 1_555 1_555
C7 C13 1_555 1_555
C11 C12 1_555 1_555
C19 C22 1_555 1_555
C20 C21 1_555 1_555
C22 C28 1_555 1_555
C26 C27 1_555 1_555

#END
