
#######################################################################
#
#                 Cambridge Crystallographic Data Centre
#                                CCDC 
#
#######################################################################
#
# If this CIF has been generated from an entry in the Cambridge 
# Structural Database, then it will include bibliographic, chemical, 
# crystal, experimental, refinement or atomic coordinate data resulting 
# from the CCDC's data processing and validation procedures.
#
#######################################################################

data_RUVLIF
_chemical_compound_source        
'seeds of Plantago depressa Willd. (Plantaginaceae)'
_chemical_name_common            'Plantadeprate A dihydrate'
_chemical_formula_moiety         'C11 H17 N3 O3,2(H2 O1)'
_chemical_name_systematic        
'(2aR,3R,4aR)-4a-Hydroxy-6,6-dimethyl-1,2,2a,3,4,4a,5,6-octahydro-1,7b-diaza-7-azoniacyclopenta[cd]indene-3-carboxylate dihydrate'
_chemical_properties_biological  'antihyperglycemic activity'
_symmetry_cell_setting           orthorhombic
_symmetry_space_group_name_H-M   'P 21 21 21'
_symmetry_Int_Tables_number      19
_space_group_name_Hall           'P 2ac 2ab'
loop_
_symmetry_equiv_pos_site_id
_symmetry_equiv_pos_as_xyz
1 x,y,z
2 1/2+x,1/2-y,-z
3 -x,1/2+y,1/2-z
4 1/2-x,-y,1/2+z
_cell_length_a                   5.66790(10)
_cell_length_b                   13.4355(2)
_cell_length_c                   18.1813(3)
_cell_angle_alpha                90
_cell_angle_beta                 90
_cell_angle_gamma                90
_cell_volume                     1384.53
_exptl_crystal_colour            colorless
_exptl_crystal_description       prism
_chemical_melting_point          '244-246 deg.C'
_cell_formula_units_Z            4
loop_
_atom_site_label
_atom_site_type_symbol
_atom_site_fract_x
_atom_site_fract_y
_atom_site_fract_z
O1 O 0.25112(16) 0.74640(7) 0.11373(5)
H1 H 0.2082 0.7694 0.1546
O2 O 0.85224(19) 0.77555(9) 0.33540(5)
O3 O 1.10287(17) 0.81336(7) 0.24560(5)
N1 N 0.5234(2) 0.48720(8) 0.09285(6)
H2 H 0.591(3) 0.4289(13) 0.0815(9)
N2 N 0.6444(2) 0.48052(8) 0.21651(6)
H3 H 0.715(4) 0.4220(15) 0.2166(10)
N3 N 0.4547(2) 0.61624(8) 0.17743(6)
C1 C 0.5412(2) 0.52439(9) 0.15957(7)
C2 C 0.6420(3) 0.54554(10) 0.28085(7)
H4 H 0.7985 0.5479 0.3050
H5 H 0.5220 0.5241 0.3171
C3 C 0.5778(2) 0.64631(9) 0.24631(7)
H6 H 0.4737 0.6867 0.2792
C4 C 0.7823(2) 0.70770(9) 0.21566(6)
H7 H 0.8948 0.6609 0.1912
C5 C 0.6592(2) 0.76845(9) 0.15543(7)
H8 H 0.7739 0.7893 0.1174
H9 H 0.5850 0.8287 0.1766
C6 C 0.4684(2) 0.69873(9) 0.12164(7)
C7 C 0.5365(2) 0.65540(9) 0.04677(7)
H10 H 0.7106 0.6518 0.0435
H11 H 0.4810 0.7010 0.0077
C8 C 0.4336(2) 0.55112(10) 0.03260(7)
C9 C 0.5282(3) 0.50906(10) -0.03966(7)
H12 H 0.7010 0.5087 -0.0385
H13 H 0.4740 0.5506 -0.0806
H14 H 0.4702 0.4409 -0.0463
C10 C 0.1646(3) 0.54919(11) 0.03232(8)
H15 H 0.1098 0.4811 0.0233
H16 H 0.1056 0.5931 -0.0066
H17 H 0.1056 0.5722 0.0800
C11 C 0.9219(2) 0.77038(9) 0.27033(7)
O4 O 0.7996(2) 0.31918(8) 0.06787(5)
H18 H 0.908(4) 0.3087(15) 0.0989(11)
H19 H 0.700(5) 0.2673(17) 0.0743(13)
O5 O 0.4666(2) 0.17655(8) 0.07561(6)
H20 H 0.417(4) 0.1774(16) 0.0329(15)
H21 H 0.363(5) 0.2056(19) 0.1036(14)
loop_
_geom_bond_atom_site_label_1
_geom_bond_atom_site_label_2
_geom_bond_site_symmetry_1
_geom_bond_site_symmetry_2
O1 H1 1_555 1_555
O2 C11 1_555 1_555
O3 C11 1_555 1_555
N1 H2 1_555 1_555
N2 H3 1_555 1_555
N3 C1 1_555 1_555
C1 N1 1_555 1_555
C2 N2 1_555 1_555
H4 C2 1_555 1_555
H5 C2 1_555 1_555
C3 N3 1_555 1_555
H6 C3 1_555 1_555
C4 C3 1_555 1_555
H7 C4 1_555 1_555
C5 C4 1_555 1_555
H8 C5 1_555 1_555
H9 C5 1_555 1_555
C6 O1 1_555 1_555
C7 C6 1_555 1_555
H10 C7 1_555 1_555
H11 C7 1_555 1_555
C8 N1 1_555 1_555
C9 C8 1_555 1_555
H12 C9 1_555 1_555
H13 C9 1_555 1_555
H14 C9 1_555 1_555
C10 C8 1_555 1_555
H15 C10 1_555 1_555
H16 C10 1_555 1_555
H17 C10 1_555 1_555
C11 C4 1_555 1_555
O4 H18 1_555 1_555
H19 O4 1_555 1_555
O5 H20 1_555 1_555
H21 O5 1_555 1_555
N2 C1 1_555 1_555
N3 C6 1_555 1_555
C2 C3 1_555 1_555
C5 C6 1_555 1_555
C7 C8 1_555 1_555

#END
