
#######################################################################
#
#                 Cambridge Crystallographic Data Centre
#                                CCDC 
#
#######################################################################
#
# If this CIF has been generated from an entry in the Cambridge 
# Structural Database, then it will include bibliographic, chemical, 
# crystal, experimental, refinement or atomic coordinate data resulting 
# from the CCDC's data processing and validation procedures.
#
#######################################################################

data_RUVLOL
_chemical_compound_source        
'endophytic fungus Guignardia sp., obtained from Euphorbia sieboldiana'
_chemical_name_common            'Guignardone J'
_chemical_formula_moiety         'C17 H24 O5'
_chemical_name_systematic        
(1R,3aR,5S,7R,9aS)-5,7-Dihydroxy-7-(hydroxymethyl)-3a-methyl-1-(prop-1-en-2-yl)-2,3,3a,5,6,7,9,9a-octahydrocyclopenta[b]chromen-8(1H)-one
_chemical_properties_biological  'antibacterial activity'
_symmetry_cell_setting           orthorhombic
_symmetry_space_group_name_H-M   'P 21 21 21'
_symmetry_Int_Tables_number      19
_space_group_name_Hall           'P 2ac 2ab'
loop_
_symmetry_equiv_pos_site_id
_symmetry_equiv_pos_as_xyz
1 x,y,z
2 1/2-x,-y,1/2+z
3 1/2+x,1/2-y,-z
4 -x,1/2+y,1/2-z
_cell_length_a                   7.23410(10)
_cell_length_b                   12.0603(2)
_cell_length_c                   19.2403(3)
_cell_angle_alpha                90
_cell_angle_beta                 90
_cell_angle_gamma                90
_cell_volume                     1678.63
_exptl_crystal_colour            colorless
_exptl_crystal_description       block
_chemical_melting_point          '150-152 deg.C'
_cell_formula_units_Z            4
loop_
_atom_site_label
_atom_site_type_symbol
_atom_site_fract_x
_atom_site_fract_y
_atom_site_fract_z
O1 O 0.4000(2) 1.03501(15) 0.21193(8)
O2 O 0.4540(2) 0.86794(16) 0.10422(9)
H1 H 0.5574 0.8788 0.1203
O3 O -0.0888(3) 0.92906(17) 0.00644(9)
H2 H -0.1727 0.8834 0.0069
O4 O -0.1992(2) 0.93130(16) 0.14379(9)
O5 O 0.1376(3) 0.73195(19) 0.00393(11)
H3 H 0.0526 0.7225 -0.0236
C1 C 0.0916(3) 0.98425(17) 0.18239(11)
C2 C -0.0341(3) 0.94194(17) 0.13037(11)
C3 C 0.2712(3) 0.99867(18) 0.16706(10)
C4 C 0.0394(3) 0.90405(19) 0.05994(11)
C5 C 0.3584(3) 0.9711(2) 0.09810(11)
H4 H 0.4484 1.0290 0.0867
C6 C 0.0678(3) 0.7787(2) 0.06601(12)
H5 H 0.1533 0.7636 0.1037
H6 H -0.0492 0.7438 0.0773
C7 C 0.2156(3) 0.9662(2) 0.04085(11)
H7 H 0.2705 0.9309 0.0005
H8 H 0.1830 1.0414 0.0278
C8 C 0.3388(4) 1.0807(2) 0.27917(13)
C9 C 0.1750(3) 1.0138(2) 0.30637(11)
H9 H 0.1285 1.0506 0.3483
C10 C 0.0180(3) 1.0077(2) 0.25422(12)
H10 H -0.0674 0.9496 0.2677
H11 H -0.0488 1.0775 0.2540
C11 C 0.2606(4) 0.9034(2) 0.32817(13)
H12 H 0.2764 0.8589 0.2860
C12 C 0.4933(4) 1.0536(3) 0.32915(15)
H13 H 0.4930 1.1048 0.3680
H14 H 0.6121 1.0580 0.3060
C13 C 0.4560(5) 0.9353(3) 0.35408(16)
H15 H 0.4615 0.9317 0.4044
H16 H 0.5476 0.8848 0.3352
C14 C 0.3012(6) 1.2023(3) 0.26743(19)
H17 H 0.2005 1.2105 0.2353
H18 H 0.4097 1.2371 0.2487
H19 H 0.2694 1.2368 0.3108
C15 C 0.1551(7) 0.8341(3) 0.37913(17)
C16 C 0.0002(7) 0.8661(5) 0.4098(2)
H20 H -0.0588 0.8193 0.4412
H21 H -0.0497 0.9355 0.4000
C17 C 0.2365(10) 0.7227(4) 0.3946(3)
H22 H 0.3472 0.7128 0.3678
H23 H 0.1490 0.6660 0.3826
H24 H 0.2654 0.7179 0.4432
loop_
_geom_bond_atom_site_label_1
_geom_bond_atom_site_label_2
_geom_bond_site_symmetry_1
_geom_bond_site_symmetry_2
O1 C3 1_555 1_555
O2 H1 1_555 1_555
O3 H2 1_555 1_555
O4 C2 1_555 1_555
O5 H3 1_555 1_555
C1 C2 1_555 1_555
C2 C4 1_555 1_555
C3 C1 1_555 1_555
C4 O3 1_555 1_555
C5 O2 1_555 1_555
H4 C5 1_555 1_555
C6 O5 1_555 1_555
H5 C6 1_555 1_555
H6 C6 1_555 1_555
C7 C4 1_555 1_555
H7 C7 1_555 1_555
H8 C7 1_555 1_555
C8 O1 1_555 1_555
C9 C8 1_555 1_555
H9 C9 1_555 1_555
C10 C1 1_555 1_555
H10 C10 1_555 1_555
H11 C10 1_555 1_555
C11 C9 1_555 1_555
H12 C11 1_555 1_555
C12 C8 1_555 1_555
H13 C12 1_555 1_555
H14 C12 1_555 1_555
C13 C11 1_555 1_555
H15 C13 1_555 1_555
H16 C13 1_555 1_555
C14 C8 1_555 1_555
H17 C14 1_555 1_555
H18 C14 1_555 1_555
H19 C14 1_555 1_555
C15 C11 1_555 1_555
C16 C15 1_555 1_555
H20 C16 1_555 1_555
H21 C16 1_555 1_555
C17 C15 1_555 1_555
H22 C17 1_555 1_555
H23 C17 1_555 1_555
H24 C17 1_555 1_555
C3 C5 1_555 1_555
C4 C6 1_555 1_555
C5 C7 1_555 1_555
C9 C10 1_555 1_555
C12 C13 1_555 1_555

#END
