
#######################################################################
#
#                 Cambridge Crystallographic Data Centre
#                                CCDC 
#
#######################################################################
#
# If this CIF has been generated from an entry in the Cambridge 
# Structural Database, then it will include bibliographic, chemical, 
# crystal, experimental, refinement or atomic coordinate data resulting 
# from the CCDC's data processing and validation procedures.
#
#######################################################################

data_RUVXOV
_chemical_name_common            
"2'-Hydroxy-4-N-methylstilbazonium iodide methanol solvate"
_chemical_formula_moiety         'C14 H14 N1 O1 1+,C1 H4 O1,I1 1-'
_chemical_name_systematic        
'4-(2-(2-Hydroxyphenyl)vinyl)-N-methylpyridinium iodide methanol solvate'
_symmetry_cell_setting           monoclinic
_symmetry_space_group_name_H-M   'P 21/c'
_symmetry_Int_Tables_number      14
_space_group_name_Hall           '-P 2ybc'
loop_
_symmetry_equiv_pos_site_id
_symmetry_equiv_pos_as_xyz
1 x,y,z
2 -x,1/2+y,1/2-z
3 -x,-y,-z
4 x,1/2-y,1/2+z
_cell_length_a                   7.9960(10)
_cell_length_b                   20.776(2)
_cell_length_c                   9.7610(10)
_cell_angle_alpha                90
_cell_angle_beta                 101.320(10)
_cell_angle_gamma                90
_cell_volume                     1590
_exptl_crystal_colour            brown-yellow
_exptl_crystal_description       'elongated plate'
_chemical_melting_point          279.4-281.5deg.C
_cell_formula_units_Z            4
_exptl_crystal_recrystallization_method methanol/dichloromethane
loop_
_atom_site_label
_atom_site_type_symbol
_atom_site_fract_x
_atom_site_fract_y
_atom_site_fract_z
I1 I 0.00230(3) 0.350974(10) 0.62883(2)
O1 O -0.5043(3) 0.55444(11) -0.2566(2)
N1 N 0.0624(3) 0.36668(11) 0.2034(2)
C1 C 0.1739(4) 0.31674(15) 0.2812(3)
H1 H 0.2199(4) 0.33197(15) 0.3738(3)
H2 H 0.2654(4) 0.30746(15) 0.2337(3)
H3 H 0.1087(4) 0.27834(15) 0.2867(3)
C2 C 0.0371(4) 0.42243(15) 0.2655(3)
C3 C -0.0700(4) 0.4681(2) 0.1965(3)
C4 C -0.1558(3) 0.45801(13) 0.0592(3)
C5 C -0.1228(4) 0.40006(15) -0.0009(3)
C6 C -0.0150(4) 0.35552(15) 0.0720(3)
C7 C -0.2733(4) 0.50423(15) -0.0210(3)
C8 C -0.3112(4) 0.56115(14) 0.0261(3)
C9 C -0.4248(4) 0.61132(13) -0.0440(3)
C10 C -0.4401(5) 0.6678(2) 0.0309(4)
C11 C -0.5429(5) 0.7177(2) -0.0251(4)
C12 C -0.6338(5) 0.7133(2) -0.1598(4)
C13 C -0.6237(4) 0.65866(15) -0.2375(4)
C14 C -0.5188(4) 0.60812(14) -0.1808(3)
H4 H -0.5524(44) 0.5562(18) -0.3407(28)
H5 H 0.0959(38) 0.4284(14) 0.3543(29)
H6 H -0.0767(38) 0.5023(15) 0.2403(30)
H7 H -0.1738(35) 0.3883(13) -0.0919(28)
H8 H 0.0002(39) 0.3094(15) 0.0334(31)
H9 H -0.3186(37) 0.4923(13) -0.1095(28)
H10 H -0.2598(37) 0.5677(13) 0.1181(30)
H11 H -0.3781(38) 0.6699(14) 0.1237(30)
H12 H -0.5523(37) 0.7533(15) 0.0278(30)
H13 H -0.7036(40) 0.7490(16) -0.1940(32)
H14 H -0.6866(36) 0.6538(13) -0.3257(27)
O2 O -0.6316(5) 0.5637(2) -0.5308(3)
C15 C -0.5129(6) 0.5910(2) -0.6028(5)
H15 H -0.5468(19) 0.5821(11) -0.7008(6)
H16 H -0.4022(9) 0.5730(9) -0.5683(19)
H17 H -0.5088(25) 0.6368(3) -0.5882(23)
H18 H -0.7033(75) 0.5909(27) -0.5435(59)
loop_
_geom_bond_atom_site_label_1
_geom_bond_atom_site_label_2
_geom_bond_site_symmetry_1
_geom_bond_site_symmetry_2
O1 C14 1_555 1_555
N1 C1 1_555 1_555
C1 H1 1_555 1_555
H2 C1 1_555 1_555
H3 C1 1_555 1_555
C2 N1 1_555 1_555
C3 C2 1_555 1_555
C4 C3 1_555 1_555
C5 C4 1_555 1_555
C6 N1 1_555 1_555
C7 C4 1_555 1_555
C8 C7 1_555 1_555
C9 C8 1_555 1_555
C10 C9 1_555 1_555
C11 C10 1_555 1_555
C12 C11 1_555 1_555
C13 C12 1_555 1_555
C14 C9 1_555 1_555
H4 O1 1_555 1_555
H5 C2 1_555 1_555
H6 C3 1_555 1_555
H7 C5 1_555 1_555
H8 C6 1_555 1_555
H9 C7 1_555 1_555
H10 C8 1_555 1_555
H11 C10 1_555 1_555
H12 C11 1_555 1_555
H13 C12 1_555 1_555
H14 C13 1_555 1_555
O2 C15 1_555 1_555
C15 H15 1_555 1_555
H16 C15 1_555 1_555
H17 C15 1_555 1_555
H18 O2 1_555 1_555
C5 C6 1_555 1_555
C13 C14 1_555 1_555

#END
