
#######################################################################
#
#                 Cambridge Crystallographic Data Centre
#                                CCDC 
#
#######################################################################
#
# If this CIF has been generated from an entry in the Cambridge 
# Structural Database, then it will include bibliographic, chemical, 
# crystal, experimental, refinement or atomic coordinate data resulting 
# from the CCDC's data processing and validation procedures.
#
#######################################################################

data_RUVYUE
_chemical_formula_moiety         'C24 H22 N2 O4'
_chemical_name_systematic        
"dimethyl 2,2'-ethene-1,2-diylbis(3-methyl-1H-indole-1-carboxylate)"
_symmetry_cell_setting           monoclinic
_symmetry_space_group_name_H-M   'P 21/n'
_symmetry_Int_Tables_number      14
_space_group_name_Hall           '-P 2yn'
loop_
_symmetry_equiv_pos_site_id
_symmetry_equiv_pos_as_xyz
1 x,y,z
2 1/2-x,1/2+y,1/2-z
3 -x,-y,-z
4 1/2+x,1/2-y,1/2+z
_cell_length_a                   7.5488(6)
_cell_length_b                   7.5463(4)
_cell_length_c                   17.1232(14)
_cell_angle_alpha                90
_cell_angle_beta                 92.480(4)
_cell_angle_gamma                90
_cell_volume                     974.518
_exptl_crystal_colour            colorless
_exptl_crystal_description       block
_cell_formula_units_Z            2
loop_
_atom_site_label
_atom_site_type_symbol
_atom_site_fract_x
_atom_site_fract_y
_atom_site_fract_z
O1 O 0.68076(11) 0.22274(11) 0.53304(5)
O2 O 0.42957(10) 0.29843(10) 0.59055(5)
N1 N 0.64897(11) 0.49860(12) 0.58755(5)
C1 C 0.91152(14) 0.49613(14) 0.50133(6)
H1 H 0.8470 0.4378 0.4600
C2 C 0.81276(13) 0.57288(14) 0.56464(6)
C3 C 0.84301(14) 0.72651(14) 0.60498(6)
C4 C 0.69834(14) 0.75107(15) 0.65627(6)
C5 C 0.66550(15) 0.88351(16) 0.71104(6)
H2 H 0.7455 0.9797 0.7189
C6 C 0.51407(16) 0.87138(16) 0.75359(7)
H3 H 0.4905 0.9593 0.7915
C7 C 0.39549(15) 0.73040(16) 0.74114(7)
H4 H 0.2921 0.7249 0.7708
C8 C 0.42477(14) 0.59833(15) 0.68667(6)
H5 H 0.3434 0.5034 0.6785
C9 C 0.57826(14) 0.61031(14) 0.64437(6)
C10 C 0.98833(14) 0.85879(15) 0.59633(7)
H6 H 1.0774 0.8442 0.6392
H7 H 0.9390 0.9788 0.5979
H8 H 1.0438 0.8401 0.5463
C11 C 0.59313(14) 0.32769(15) 0.56746(6)
C12 C 0.35718(15) 0.12560(15) 0.56984(7)
H9 H 0.3692 0.1047 0.5138
H10 H 0.2315 0.1216 0.5819
H11 H 0.4219 0.0338 0.5998
O1B O 1.31924(11) 0.77726(11) 0.46696(5)
O2B O 1.57043(10) 0.70157(10) 0.40945(5)
N1B N 1.35103(11) 0.50140(12) 0.41245(5)
C1B C 1.08848(14) 0.50387(14) 0.49867(6)
H1B H 1.1530 0.5622 0.5400
C2B C 1.18724(13) 0.42712(14) 0.43536(6)
C3B C 1.15699(14) 0.27349(14) 0.39502(6)
C4B C 1.30166(14) 0.24893(15) 0.34373(6)
C5B C 1.33450(15) 0.11649(16) 0.28896(6)
H2B H 1.2545 0.0203 0.2811
C6B C 1.48593(16) 0.12862(16) 0.24641(7)
H3B H 1.5095 0.0407 0.2085
C7B C 1.60451(15) 0.26960(16) 0.25886(7)
H4B H 1.7079 0.2751 0.2292
C8B C 1.57523(14) 0.40167(15) 0.31333(6)
H5B H 1.6566 0.4966 0.3215
C9B C 1.42174(14) 0.38969(14) 0.35563(6)
C10B C 1.01167(14) 0.14121(15) 0.40367(7)
H6B H 0.9226 0.1558 0.3608
H7B H 1.0610 0.0212 0.4021
H8B H 0.9562 0.1599 0.4537
C11B C 1.40687(14) 0.67231(15) 0.43254(6)
C12B C 1.64282(15) 0.87440(15) 0.43016(7)
H9B H 1.6308 0.8953 0.4862
H10B H 1.7685 0.8784 0.4181
H11B H 1.5781 0.9662 0.4002
loop_
_geom_bond_atom_site_label_1
_geom_bond_atom_site_label_2
_geom_bond_site_symmetry_1
_geom_bond_site_symmetry_2
O1 C11 1_555 1_555
O2 C11 1_555 1_555
N1 C2 1_555 1_555
C1 H1 1_555 1_555
C2 C1 1_555 1_555
C3 C2 1_555 1_555
C4 C3 1_555 1_555
C5 C4 1_555 1_555
H2 C5 1_555 1_555
C6 C5 1_555 1_555
H3 C6 1_555 1_555
C7 C6 1_555 1_555
H4 C7 1_555 1_555
C8 C7 1_555 1_555
H5 C8 1_555 1_555
C9 N1 1_555 1_555
C10 C3 1_555 1_555
H6 C10 1_555 1_555
H7 C10 1_555 1_555
H8 C10 1_555 1_555
C11 N1 1_555 1_555
C12 O2 1_555 1_555
H9 C12 1_555 1_555
H10 C12 1_555 1_555
H11 C12 1_555 1_555
O1B C11B 1_555 1_555
O2B C11B 1_555 1_555
N1B C2B 1_555 1_555
C1B C1 1_555 1_555
H1B C1B 1_555 1_555
C2B C1B 1_555 1_555
C3B C2B 1_555 1_555
C4B C3B 1_555 1_555
C5B C4B 1_555 1_555
H2B C5B 1_555 1_555
C6B C5B 1_555 1_555
H3B C6B 1_555 1_555
C7B C6B 1_555 1_555
H4B C7B 1_555 1_555
C8B C7B 1_555 1_555
H5B C8B 1_555 1_555
C9B N1B 1_555 1_555
C10B C3B 1_555 1_555
H6B C10B 1_555 1_555
H7B C10B 1_555 1_555
H8B C10B 1_555 1_555
C11B N1B 1_555 1_555
C12B O2B 1_555 1_555
H9B C12B 1_555 1_555
H10B C12B 1_555 1_555
H11B C12B 1_555 1_555
C4 C9 1_555 1_555
C8 C9 1_555 1_555
C4B C9B 1_555 1_555
C8B C9B 1_555 1_555

#END
