
#######################################################################
#
#                 Cambridge Crystallographic Data Centre
#                                CCDC 
#
#######################################################################
#
# If this CIF has been generated from an entry in the Cambridge 
# Structural Database, then it will include bibliographic, chemical, 
# crystal, experimental, refinement or atomic coordinate data resulting 
# from the CCDC's data processing and validation procedures.
#
#######################################################################

data_RUWDES
_chemical_formula_moiety         'C15 H20 O7 S1'
_chemical_name_systematic        
1,2-O-Isopropylidene-5-O-p-tosyl-\a-D-xylofuranose
_symmetry_cell_setting           orthorhombic
_symmetry_space_group_name_H-M   'P 21 21 21'
_symmetry_Int_Tables_number      19
_space_group_name_Hall           'P 2ac 2ab'
loop_
_symmetry_equiv_pos_site_id
_symmetry_equiv_pos_as_xyz
1 x,y,z
2 1/2-x,-y,1/2+z
3 -x,1/2+y,1/2-z
4 1/2+x,1/2-y,-z
_cell_length_a                   5.717(10)
_cell_length_b                   10.051(13)
_cell_length_c                   29.066(30)
_cell_angle_alpha                90
_cell_angle_beta                 90
_cell_angle_gamma                90
_cell_volume                     1670.18
_exptl_crystal_colour            colorless
_exptl_crystal_description       block
_chemical_melting_point          407-408K
_cell_formula_units_Z            4
_exptl_crystal_recrystallization_method 'diethyl ether'
loop_
_atom_site_label
_atom_site_type_symbol
_atom_site_fract_x
_atom_site_fract_y
_atom_site_fract_z
S1 S 0.8957(3) 0.0593(2) 0.08197(6)
O1 O 0.7313(6) 0.3380(4) 0.17964(11)
O2 O 0.8029(6) 0.3679(4) 0.25761(12)
O3 O 0.5191(7) 0.2090(3) 0.26380(12)
O4 O 0.2249(6) 0.3353(4) 0.16201(13)
H1 H 0.0855(8) 0.3243(37) 0.1674(14)
O5 O 0.8120(7) 0.2043(4) 0.09475(13)
O6 O 0.8385(10) -0.0288(5) 0.11895(14)
O7 O 1.1308(7) 0.0775(6) 0.0687(2)
C1 C 0.6461(9) 0.3880(5) 0.2222(2)
H2 H 0.6080(9) 0.4827(5) 0.2194(2)
C2 C 0.4290(9) 0.3085(5) 0.2337(2)
H3 H 0.3047(9) 0.3622(5) 0.2476(2)
C3 C 0.3581(9) 0.2454(6) 0.1885(2)
H4 H 0.2753(9) 0.1611(6) 0.1933(2)
C4 C 0.5926(9) 0.2244(5) 0.1658(2)
H5 H 0.6644(9) 0.1423(5) 0.1773(2)
C5 C 0.7200(11) 0.2624(6) 0.2865(2)
C6 C 0.6545(14) 0.3197(7) 0.3323(2)
H6 H 0.7915(14) 0.3551(7) 0.3469(2)
H7 H 0.5882(14) 0.2512(7) 0.3512(2)
H8 H 0.5420(14) 0.3895(7) 0.3280(2)
C7 C 0.9017(12) 0.1563(6) 0.2891(2)
H9 H 1.0382(12) 0.1905(6) 0.3043(2)
H10 H 0.9425(12) 0.1280(6) 0.2586(2)
H11 H 0.8415(12) 0.0820(6) 0.3062(2)
C8 C 0.5801(9) 0.2214(6) 0.1144(2)
H12 H 0.4800(9) 0.1487(6) 0.1047(2)
H13 H 0.5122(9) 0.3038(6) 0.1033(2)
C9 C 0.7303(11) 0.0171(7) 0.0340(2)
C10 C 0.7665(13) 0.0807(7) -0.0077(2)
H14 H 0.8807(13) 0.1462(7) -0.0100(2)
C11 C 0.6367(14) 0.0480(8) -0.0450(2)
H15 H 0.6598(14) 0.0937(8) -0.0725(2)
C12 C 0.4711(12) -0.0515(6) -0.0431(2)
C13 C 0.4369(12) -0.1118(6) -0.0017(2)
H16 H 0.3232(12) -0.1776(6) 0.0007(2)
C14 C 0.5635(11) -0.0791(6) 0.0366(2)
H17 H 0.5357(11) -0.1225(6) 0.0644(2)
C15 C 0.3305(13) -0.0892(7) -0.0847(2)
H18 H 0.3791(13) -0.0362(7) -0.1104(2)
H19 H 0.1675(13) -0.0739(7) -0.0787(2)
H20 H 0.3548(13) -0.1816(7) -0.0915(2)
loop_
_geom_bond_atom_site_label_1
_geom_bond_atom_site_label_2
_geom_bond_site_symmetry_1
_geom_bond_site_symmetry_2
S1 O5 1_555 1_555
O1 C1 1_555 1_555
O2 C1 1_555 1_555
O3 C2 1_555 1_555
O4 H1 1_555 1_555
O5 C8 1_555 1_555
O6 S1 1_555 1_555
O7 S1 1_555 1_555
C1 H2 1_555 1_555
C2 C1 1_555 1_555
H3 C2 1_555 1_555
C3 O4 1_555 1_555
H4 C3 1_555 1_555
C4 O1 1_555 1_555
H5 C4 1_555 1_555
C5 O2 1_555 1_555
C6 C5 1_555 1_555
H6 C6 1_555 1_555
H7 C6 1_555 1_555
H8 C6 1_555 1_555
C7 C5 1_555 1_555
H9 C7 1_555 1_555
H10 C7 1_555 1_555
H11 C7 1_555 1_555
C8 C4 1_555 1_555
H12 C8 1_555 1_555
H13 C8 1_555 1_555
C9 S1 1_555 1_555
C10 C9 1_555 1_555
H14 C10 1_555 1_555
C11 C10 1_555 1_555
H15 C11 1_555 1_555
C12 C11 1_555 1_555
C13 C12 1_555 1_555
H16 C13 1_555 1_555
C14 C9 1_555 1_555
H17 C14 1_555 1_555
C15 C12 1_555 1_555
H18 C15 1_555 1_555
H19 C15 1_555 1_555
H20 C15 1_555 1_555
O3 C5 1_555 1_555
C2 C3 1_555 1_555
C3 C4 1_555 1_555
C13 C14 1_555 1_555

#END
