
#######################################################################
#
#                 Cambridge Crystallographic Data Centre
#                                CCDC 
#
#######################################################################
#
# If this CIF has been generated from an entry in the Cambridge 
# Structural Database, then it will include bibliographic, chemical, 
# crystal, experimental, refinement or atomic coordinate data resulting 
# from the CCDC's data processing and validation procedures.
#
#######################################################################

data_RUWPAC
_chemical_formula_moiety         'C34 H24 N2 O2,0.5(C1 H2 Cl2)'
_chemical_name_systematic        
'methyl 4-(14-phenyldibenzo[a,c]phenazin-9(14H)-yl)benzoate dichloromethane solvate'
_symmetry_cell_setting           monoclinic
_symmetry_space_group_name_H-M   'C 2/c'
_symmetry_Int_Tables_number      15
_space_group_name_Hall           '-C 2yn'
loop_
_symmetry_equiv_pos_site_id
_symmetry_equiv_pos_as_xyz
1 x,y,z
2 -x,y,1/2-z
3 1/2+x,1/2+y,z
4 1/2-x,1/2+y,1/2-z
5 -x,-y,-z
6 x,-y,1/2+z
7 1/2-x,1/2-y,-z
8 1/2+x,1/2-y,1/2+z
_cell_length_a                   15.3088(9)
_cell_length_b                   17.9930(11)
_cell_length_c                   19.4932(12)
_cell_angle_alpha                90
_cell_angle_beta                 92.570(2)
_cell_angle_gamma                90
_cell_volume                     5364.03
_exptl_crystal_colour            green
_exptl_crystal_description       prismatic
_cell_formula_units_Z            8
loop_
_atom_site_label
_atom_site_type_symbol
_atom_site_fract_x
_atom_site_fract_y
_atom_site_fract_z
Cl1 Cl 0.40656(14) 0.80931(15) 0.25505(12)
C1 C 0.5000 0.7558(5) 0.2500
H1 H 0.4942 0.7240 0.2098
H1A H 0.5058 0.7240 0.2902
Cl1A Cl 0.59344(14) 0.80931(15) 0.24495(12)
N1 N 0.19350(11) 0.00518(10) 0.38775(9)
N2 N 0.26335(11) 0.02736(10) 0.51489(10)
O1 O 0.37795(13) 0.22393(12) 0.17664(12)
O2 O 0.45308(11) 0.11848(10) 0.16808(9)
C2 C 0.23659(13) -0.05685(11) 0.42083(11)
C3 C 0.23763(14) -0.12683(12) 0.39180(12)
H3 H 0.2097 -0.1354 0.3492
C4 C 0.28044(16) -0.18411(13) 0.42661(14)
H4 H 0.2831 -0.2310 0.4067
C5 C 0.31908(15) -0.17169(13) 0.49068(14)
H5 H 0.3481 -0.2103 0.5138
C6 C 0.31533(14) -0.10279(12) 0.52102(13)
H6 H 0.3395 -0.0955 0.5651
C7 C 0.27532(13) -0.04440(11) 0.48556(11)
C8 C 0.14252(13) 0.04558(11) 0.43573(11)
C9 C 0.17813(13) 0.05591(11) 0.49942(11)
C10 C 0.12899(13) 0.08841(11) 0.55325(11)
C11 C 0.16414(16) 0.09517(14) 0.62069(12)
H7 H 0.2206 0.0785 0.6313
C12 C 0.11674(19) 0.12573(17) 0.67055(14)
H8 H 0.1409 0.1302 0.7150
C13 C 0.03222(19) 0.15030(17) 0.65532(14)
H9 H -0.0001 0.1713 0.6896
C14 C -0.00375(16) 0.14380(14) 0.59024(13)
H10 H -0.0605 0.1606 0.5809
C15 C 0.04287(13) 0.11234(11) 0.53729(11)
C16 C 0.00489(13) 0.10214(11) 0.46834(11)
C17 C -0.08127(14) 0.12394(13) 0.44956(12)
H11 H -0.1147 0.1474 0.4818
C18 C -0.11662(15) 0.11145(15) 0.38551(13)
H12 H -0.1733 0.1271 0.3742
C19 C -0.06879(16) 0.07552(16) 0.33680(13)
H13 H -0.0937 0.0665 0.2932
C20 C 0.01519(15) 0.05322(14) 0.35275(12)
H14 H 0.0469 0.0289 0.3199
C21 C 0.05378(13) 0.06673(11) 0.41805(11)
C22 C 0.23950(13) 0.04369(12) 0.33792(10)
C23 C 0.30212(17) 0.00686(14) 0.30077(13)
H15 H 0.3121 -0.0435 0.3083
C24 C 0.34919(17) 0.04383(14) 0.25336(13)
H16 H 0.3911 0.0182 0.2296
C25 C 0.33568(14) 0.11815(13) 0.24013(11)
C26 C 0.27184(15) 0.15479(13) 0.27539(12)
H17 H 0.2609 0.2048 0.2664
C27 C 0.22415(15) 0.11819(13) 0.32372(12)
H18 H 0.1816 0.1437 0.3468
C28 C 0.38965(15) 0.16048(15) 0.19236(12)
C29 C 0.51225(17) 0.15301(18) 0.12214(14)
H19 H 0.4793 0.1784 0.0862
H20 H 0.5482 0.1156 0.1024
H21 H 0.5487 0.1880 0.1472
C30 C 0.33352(13) 0.07749(12) 0.52980(11)
C31 C 0.32173(16) 0.15291(14) 0.52044(16)
H22 H 0.2684 0.1704 0.5024
C32 C 0.38775(18) 0.20282(16) 0.53741(17)
H23 H 0.3780 0.2534 0.5313
C33 C 0.46709(17) 0.17866(16) 0.56301(15)
H24 H 0.5113 0.2123 0.5749
C34 C 0.48031(17) 0.10400(17) 0.57093(16)
H25 H 0.5346 0.0870 0.5876
C35 C 0.41472(16) 0.05315(15) 0.55470(15)
H26 H 0.4252 0.0026 0.5605
H2? H 0.4942 0.7240 0.2098
loop_
_geom_bond_atom_site_label_1
_geom_bond_atom_site_label_2
_geom_bond_site_symmetry_1
_geom_bond_site_symmetry_2
Cl1 C1 1_555 1_555
C1 H1 1_555 1_555
N1 C2 1_555 1_555
N2 C7 1_555 1_555
O1 C28 1_555 1_555
O2 C28 1_555 1_555
C2 C3 1_555 1_555
C3 H3 1_555 1_555
C4 C3 1_555 1_555
H4 C4 1_555 1_555
C5 C4 1_555 1_555
H5 C5 1_555 1_555
C6 C5 1_555 1_555
H6 C6 1_555 1_555
C7 C2 1_555 1_555
C8 N1 1_555 1_555
C9 N2 1_555 1_555
C10 C9 1_555 1_555
C11 C10 1_555 1_555
H7 C11 1_555 1_555
C12 C11 1_555 1_555
H8 C12 1_555 1_555
C13 C12 1_555 1_555
H9 C13 1_555 1_555
C14 C13 1_555 1_555
H10 C14 1_555 1_555
C15 C10 1_555 1_555
C16 C15 1_555 1_555
C17 C16 1_555 1_555
H11 C17 1_555 1_555
C18 C17 1_555 1_555
H12 C18 1_555 1_555
C19 C18 1_555 1_555
H13 C19 1_555 1_555
C20 C19 1_555 1_555
H14 C20 1_555 1_555
C21 C8 1_555 1_555
C22 N1 1_555 1_555
C23 C22 1_555 1_555
H15 C23 1_555 1_555
C24 C23 1_555 1_555
H16 C24 1_555 1_555
C25 C24 1_555 1_555
C26 C25 1_555 1_555
H17 C26 1_555 1_555
C27 C22 1_555 1_555
H18 C27 1_555 1_555
C28 C25 1_555 1_555
C29 O2 1_555 1_555
H19 C29 1_555 1_555
H20 C29 1_555 1_555
H21 C29 1_555 1_555
C30 N2 1_555 1_555
C31 C30 1_555 1_555
H22 C31 1_555 1_555
C32 C31 1_555 1_555
H23 C32 1_555 1_555
C33 C32 1_555 1_555
H24 C33 1_555 1_555
C34 C33 1_555 1_555
H25 C34 1_555 1_555
C35 C30 1_555 1_555
H26 C35 1_555 1_555
H1A C1 1_555 1_555
Cl1A C1 1_555 1_555
C6 C7 1_555 1_555
C8 C9 1_555 1_555
C14 C15 1_555 1_555
C16 C21 1_555 1_555
C20 C21 1_555 1_555
C26 C27 1_555 1_555
C34 C35 1_555 1_555

#END
