
#######################################################################
#
#                 Cambridge Crystallographic Data Centre
#                                CCDC 
#
#######################################################################
#
# If this CIF has been generated from an entry in the Cambridge 
# Structural Database, then it will include bibliographic, chemical, 
# crystal, experimental, refinement or atomic coordinate data resulting 
# from the CCDC's data processing and validation procedures.
#
#######################################################################

data_RUWSAE
_chemical_formula_moiety         'C48 H62 S5'
_chemical_name_systematic        
1,2,7,8-Tetraheptyl-4,5-epithio-3,6,9,12-tetrathia-as-indaceno[1',8':5,6,7,8]cycloocta[1,2,3,4-jkl]-as-indacene
_symmetry_cell_setting           triclinic
_symmetry_space_group_name_H-M   'P -1'
_symmetry_Int_Tables_number      2
_space_group_name_Hall           '-P 1'
loop_
_symmetry_equiv_pos_site_id
_symmetry_equiv_pos_as_xyz
1 x,y,z
2 -x,-y,-z
_cell_length_a                   5.030(3)
_cell_length_b                   18.056(10)
_cell_length_c                   23.870(15)
_cell_angle_alpha                105.74(2)
_cell_angle_beta                 95.84(2)
_cell_angle_gamma                92.598(17)
_cell_volume                     2069.76
_exptl_crystal_colour            colorless
_exptl_crystal_description       plate
_chemical_melting_point          198-200deg.C
_cell_formula_units_Z            2
loop_
_atom_site_label
_atom_site_type_symbol
_atom_site_fract_x
_atom_site_fract_y
_atom_site_fract_z
S1 S 0.2821(5) 0.43107(15) 0.51711(13)
S2 S 0.0642(5) 0.08861(15) 0.49442(12)
S3 S 0.4918(8) 0.0399(2) 0.57858(16)
S4 S 0.9815(5) 0.10673(15) 0.67347(12)
S5 S 1.1834(6) 0.45082(17) 0.70498(13)
C1 C 0.557(2) 0.4320(6) 0.5666(5)
H1 H 0.6836 0.4753 0.5823
C2 C 0.5755(19) 0.3634(5) 0.5811(4)
C3 C 0.3697(17) 0.3039(5) 0.5461(4)
C4 C 0.1947(18) 0.3346(6) 0.5087(4)
C5 C -0.0289(18) 0.2938(5) 0.4691(4)
C6 C -0.0734(18) 0.2166(5) 0.4636(4)
C7 C 0.1028(16) 0.1852(5) 0.4987(4)
C8 C 0.3208(17) 0.2258(5) 0.5402(3)
C9 C 0.4525(17) 0.1730(6) 0.5676(4)
C10 C 0.3370(19) 0.1004(7) 0.5467(4)
C11 C 0.6803(19) 0.1782(6) 0.6136(4)
C12 C 0.713(2) 0.1089(6) 0.6233(5)
C13 C 0.8863(18) 0.2329(6) 0.6478(4)
C14 C 1.0633(18) 0.2029(6) 0.6832(4)
C15 C 1.2876(19) 0.2432(6) 0.7239(4)
C16 C 1.3327(19) 0.3219(6) 0.7305(4)
C17 C 1.1520(18) 0.3553(6) 0.6971(4)
C18 C 0.9336(18) 0.3154(6) 0.6554(4)
C19 C 0.793(2) 0.3689(6) 0.6285(4)
C20 C 0.908(2) 0.4425(7) 0.6544(5)
H2 H 0.8395 0.4862 0.6448
C21 C -0.1939(17) 0.3358(5) 0.4335(4)
H3 H -0.1705 0.3917 0.4538
H4 H -0.3853 0.3189 0.4318
C22 C -0.1252(19) 0.3235(5) 0.3717(4)
H5 H -0.1109 0.2677 0.3540
H6 H 0.0518 0.3506 0.3730
C23 C -0.3309(19) 0.3523(6) 0.3332(4)
H7 H -0.3433 0.4082 0.3508
H8 H -0.5082 0.3258 0.3326
C24 C -0.267(2) 0.3394(6) 0.2693(4)
H9 H -0.1074 0.3735 0.2691
H10 H -0.2227 0.2853 0.2538
C25 C -0.499(2) 0.3556(6) 0.2287(4)
H11 H -0.6421 0.3131 0.2204
H12 H -0.5756 0.4039 0.2490
C26 C -0.415(4) 0.3630(10) 0.1725(7)
H13 H -0.5692 0.3774 0.1493
H14 H -0.2710 0.4050 0.1808
C27 C -0.320(5) 0.2913(13) 0.1378(8)
H15 H -0.1346 0.2867 0.1532
H16 H -0.3259 0.2920 0.0968
H17 H -0.4340 0.2471 0.1403
C28 C -0.2959(18) 0.1650(5) 0.4210(4)
H18 H -0.3874 0.1326 0.4418
H19 H -0.4291 0.1982 0.4090
C29 C -0.2051(18) 0.1125(5) 0.3662(4)
H20 H -0.0966 0.0733 0.3775
H21 H -0.0883 0.1436 0.3488
C30 C -0.4373(17) 0.0711(5) 0.3196(4)
H22 H -0.3713 0.0258 0.2925
H23 H -0.5793 0.0521 0.3392
C31 C -0.5576(18) 0.1225(5) 0.2844(4)
H24 H -0.4136 0.1443 0.2669
H25 H -0.6345 0.1661 0.3111
C32 C -0.7756(19) 0.0796(5) 0.2358(4)
H26 H -0.7009 0.0346 0.2102
H27 H -0.9235 0.0600 0.2536
C33 C -0.887(2) 0.1294(6) 0.1987(4)
H28 H -0.7410 0.1478 0.1799
H29 H -0.9585 0.1751 0.2242
C34 C -1.111(2) 0.0859(7) 0.1511(4)
H30 H -1.0463 0.0383 0.1276
H31 H -1.1644 0.1185 0.1256
H32 H -1.2659 0.0731 0.1695
C35 C 1.4518(18) 0.1998(6) 0.7585(4)
H33 H 1.6362 0.2249 0.7685
H34 H 1.4625 0.1466 0.7336
C36 C 1.3405(18) 0.1958(5) 0.8150(4)
H35 H 1.3517 0.2484 0.8423
H36 H 1.1491 0.1767 0.8058
C37 C 1.4899(19) 0.1439(5) 0.8448(4)
H37 H 1.6839 0.1598 0.8500
H38 H 1.4631 0.0904 0.8189
C38 C 1.403(2) 0.1449(6) 0.9042(4)
H39 H 1.4201 0.1988 0.9293
H40 H 1.2117 0.1260 0.8987
C39 C 1.563(2) 0.0964(7) 0.9352(5)
H41 H 1.7517 0.1022 0.9277
H42 H 1.4981 0.0417 0.9168
C40 C 1.560(3) 0.1125(9) 1.0011(5)
H43 H 1.6488 0.1644 1.0207
H44 H 1.6647 0.0744 1.0149
C41 C 1.277(3) 0.1085(11) 1.0190(6)
H45 H 1.1705 0.1455 1.0049
H46 H 1.2868 0.1212 1.0618
H47 H 1.1910 0.0563 1.0017
C42 C 1.5624(17) 0.3715(6) 0.7712(3)
H48 H 1.7076 0.3380 0.7768
H49 H 1.6333 0.4090 0.7519
C43 C 1.4939(19) 0.4152(6) 0.8305(4)
H50 H 1.4428 0.3783 0.8523
H51 H 1.3386 0.4456 0.8256
C44 C 1.7361(19) 0.4702(6) 0.8661(4)
H52 H 1.8880 0.4391 0.8722
H53 H 1.7926 0.5048 0.8430
C45 C 1.6750(18) 0.5196(6) 0.9261(4)
H54 H 1.5144 0.5476 0.9202
H55 H 1.6310 0.4849 0.9502
C46 C 1.8975(18) 0.5768(5) 0.9594(4)
H56 H 1.9400 0.6117 0.9353
H57 H 2.0585 0.5488 0.9647
C47 C 1.842(2) 0.6267(6) 1.0202(5)
H58 H 1.8089 0.5923 1.0452
H59 H 1.6764 0.6531 1.0153
C48 C 2.072(2) 0.6882(6) 1.0524(4)
H60 H 2.2356 0.6626 1.0588
H61 H 2.0220 0.7177 1.0902
H62 H 2.1045 0.7233 1.0284
C49? C -0.499(2) 0.3556(6) 0.2287(4)
C50? C -0.499(7) 0.3175(19) 0.1657(9)
C51? C -0.254(9) 0.349(3) 0.1481(16)
C52? C 1.563(2) 0.0964(7) 0.9352(5)
C53? C 1.412(8) 0.093(2) 0.9879(12)
C54? C 1.329(9) 0.168(3) 1.0277(15)
H63? H 0.4017 0.0587 0.5599
H64? H 0.5967 0.0644 0.6039
H65? H -0.6697 0.3392 0.2409
H66? H -0.4965 0.4120 0.2344
H67? H -0.6606 0.3287 0.1429
H68? H -0.4982 0.2609 0.1586
H69? H -0.2476 0.4051 0.1597
H70? H -0.2564 0.3295 0.1055
H71? H -0.0964 0.3318 0.1675
H72? H 1.7476 0.1203 0.9488
H73? H 1.5721 0.0440 0.9089
H74? H 1.2473 0.0583 0.9723
H75? H 1.5256 0.0683 1.0128
H76? H 1.3651 0.2108 1.0107
H77? H 1.4315 0.1791 1.0666
H78? H 1.1370 0.1630 1.0313
S6? S 0.7812(11) 0.4962(3) 0.6160(2)
loop_
_geom_bond_atom_site_label_1
_geom_bond_atom_site_label_2
_geom_bond_site_symmetry_1
_geom_bond_site_symmetry_2
S1 C1 1_555 1_555
S2 C7 1_555 1_555
S3 C10 1_555 1_555
S4 C12 1_555 1_555
S5 C17 1_555 1_555
C1 H1 1_555 1_555
C2 C1 1_555 1_555
C3 C2 1_555 1_555
C4 S1 1_555 1_555
C5 C4 1_555 1_555
C6 C5 1_555 1_555
C7 C6 1_555 1_555
C8 C3 1_555 1_555
C9 C8 1_555 1_555
C10 S2 1_555 1_555
C11 C9 1_555 1_555
C12 S3 1_555 1_555
C13 C11 1_555 1_555
C14 S4 1_555 1_555
C15 C14 1_555 1_555
C16 C15 1_555 1_555
C17 C16 1_555 1_555
C18 C13 1_555 1_555
C19 C2 1_555 1_555
C20 S5 1_555 1_555
H2 C20 1_555 1_555
C21 C5 1_555 1_555
H3 C21 1_555 1_555
H4 C21 1_555 1_555
C22 C21 1_555 1_555
H5 C22 1_555 1_555
H6 C22 1_555 1_555
C23 C22 1_555 1_555
H7 C23 1_555 1_555
H8 C23 1_555 1_555
C24 C23 1_555 1_555
H9 C24 1_555 1_555
H10 C24 1_555 1_555
C25 C24 1_555 1_555
H11 C25 1_555 1_555
H12 C25 1_555 1_555
C26 C25 1_555 1_555
H13 C26 1_555 1_555
H14 C26 1_555 1_555
C27 C26 1_555 1_555
H15 C27 1_555 1_555
H16 C27 1_555 1_555
H17 C27 1_555 1_555
C28 C6 1_555 1_555
H18 C28 1_555 1_555
H19 C28 1_555 1_555
C29 C28 1_555 1_555
H20 C29 1_555 1_555
H21 C29 1_555 1_555
C30 C29 1_555 1_555
H22 C30 1_555 1_555
H23 C30 1_555 1_555
C31 C30 1_555 1_555
H24 C31 1_555 1_555
H25 C31 1_555 1_555
C32 C31 1_555 1_555
H26 C32 1_555 1_555
H27 C32 1_555 1_555
C33 C32 1_555 1_555
H28 C33 1_555 1_555
H29 C33 1_555 1_555
C34 C33 1_555 1_555
H30 C34 1_555 1_555
H31 C34 1_555 1_555
H32 C34 1_555 1_555
C35 C15 1_555 1_555
H33 C35 1_555 1_555
H34 C35 1_555 1_555
C36 C35 1_555 1_555
H35 C36 1_555 1_555
H36 C36 1_555 1_555
C37 C36 1_555 1_555
H37 C37 1_555 1_555
H38 C37 1_555 1_555
C38 C37 1_555 1_555
H39 C38 1_555 1_555
H40 C38 1_555 1_555
C39 C38 1_555 1_555
H41 C39 1_555 1_555
H42 C39 1_555 1_555
C40 C39 1_555 1_555
H43 C40 1_555 1_555
H44 C40 1_555 1_555
C41 C40 1_555 1_555
H45 C41 1_555 1_555
H46 C41 1_555 1_555
H47 C41 1_555 1_555
C42 C16 1_555 1_555
H48 C42 1_555 1_555
H49 C42 1_555 1_555
C43 C42 1_555 1_555
H50 C43 1_555 1_555
H51 C43 1_555 1_555
C44 C43 1_555 1_555
H52 C44 1_555 1_555
H53 C44 1_555 1_555
C45 C44 1_555 1_555
H54 C45 1_555 1_555
H55 C45 1_555 1_555
C46 C45 1_555 1_555
H56 C46 1_555 1_555
H57 C46 1_555 1_555
C47 C46 1_555 1_555
H58 C47 1_555 1_555
H59 C47 1_555 1_555
C48 C47 1_555 1_555
H60 C48 1_555 1_555
H61 C48 1_555 1_555
H62 C48 1_555 1_555
C3 C4 1_555 1_555
C7 C8 1_555 1_555
C9 C10 1_555 1_555
C11 C12 1_555 1_555
C13 C14 1_555 1_555
C17 C18 1_555 1_555
C18 C19 1_555 1_555
C19 C20 1_555 1_555

#END
