
#######################################################################
#
#                 Cambridge Crystallographic Data Centre
#                                CCDC 
#
#######################################################################
#
# If this CIF has been generated from an entry in the Cambridge 
# Structural Database, then it will include bibliographic, chemical, 
# crystal, experimental, refinement or atomic coordinate data resulting 
# from the CCDC's data processing and validation procedures.
#
#######################################################################

data_RUXJUR
_chemical_formula_moiety         'C42 H33 N5 O2'
_chemical_name_systematic        
1,1''-dibenzyl-1'-phenyl-2'-(pyridin-2-yl)dispiro[indole-3,4'-imidazolidine-5',3''-indole]-2,2''(1H,1''H)-dione
_symmetry_cell_setting           orthorhombic
_symmetry_space_group_name_H-M   'P 21 21 21'
_symmetry_Int_Tables_number      19
_space_group_name_Hall           'P 2ac 2ab'
loop_
_symmetry_equiv_pos_site_id
_symmetry_equiv_pos_as_xyz
1 x,y,z
2 1/2-x,-y,1/2+z
3 -x,1/2+y,1/2-z
4 1/2+x,1/2-y,-z
_cell_length_a                   10.042(2)
_cell_length_b                   17.602(4)
_cell_length_c                   18.655(4)
_cell_angle_alpha                90
_cell_angle_beta                 90
_cell_angle_gamma                90
_cell_volume                     3297.44
_exptl_crystal_colour            colorless
_exptl_crystal_description       Prism
_cell_formula_units_Z            4
loop_
_atom_site_label
_atom_site_type_symbol
_atom_site_fract_x
_atom_site_fract_y
_atom_site_fract_z
O1 O 0.19860(15) 0.04075(9) 0.10481(9)
O2 O 0.51332(16) -0.03283(10) 0.32664(9)
N1 N 0.41190(18) 0.07071(10) 0.06847(10)
N2 N 0.50894(19) 0.09775(11) 0.31731(11)
N3 N 0.23865(18) -0.01983(10) 0.26843(10)
N4 N 0.35487(19) -0.08085(10) 0.17764(10)
N5 N 0.13638(19) -0.20966(10) 0.21767(11)
C1 C 0.3801(2) 0.11400(12) 0.00433(11)
H1 H 0.2830 0.1114 -0.0045
H2 H 0.4258 0.0909 -0.0373
C2 C 0.4216(2) 0.19652(12) 0.01070(12)
C3 C 0.4960(2) 0.23136(13) -0.04221(13)
H3 H 0.5225 0.2032 -0.0833
C4 C 0.5325(3) 0.30749(14) -0.03594(14)
H4 H 0.5832 0.3310 -0.0728
C5 C 0.4953(2) 0.34868(13) 0.02346(13)
H5 H 0.5212 0.4004 0.0279
C6 C 0.4203(2) 0.31484(14) 0.07670(14)
H6 H 0.3936 0.3432 0.1176
C7 C 0.3841(2) 0.23885(13) 0.07001(13)
H7 H 0.3328 0.2156 0.1067
C8 C 0.5428(2) 0.05198(12) 0.09053(12)
C9 C 0.6604(2) 0.06689(13) 0.05499(12)
H8 H 0.6621 0.0976 0.0131
C10 C 0.7765(2) 0.03524(13) 0.08273(13)
H9 H 0.8585 0.0432 0.0585
C11 C 0.7748(2) -0.00771(13) 0.14507(13)
H10 H 0.8552 -0.0288 0.1630
C12 C 0.6554(2) -0.02013(13) 0.18152(13)
H11 H 0.6541 -0.0489 0.2246
C13 C 0.5387(2) 0.01001(12) 0.15401(12)
C14 C 0.3945(2) -0.00046(11) 0.17540(12)
C15 C 0.3198(2) 0.03877(12) 0.11305(11)
C16 C 0.3458(2) 0.03185(12) 0.25067(11)
C17 C 0.3185(2) 0.11643(12) 0.25136(11)
C18 C 0.2118(3) 0.15866(13) 0.22638(12)
H12 H 0.1402 0.1349 0.2018
C19 C 0.2121(3) 0.23704(14) 0.23812(14)
H13 H 0.1398 0.2669 0.2213
C20 C 0.3157(3) 0.27148(14) 0.27374(16)
H14 H 0.3143 0.3250 0.2803
C21 C 0.4226(3) 0.22987(14) 0.30046(16)
H15 H 0.4938 0.2537 0.3253
C22 C 0.4206(2) 0.15266(13) 0.28926(12)
C23 C 0.4653(2) 0.02595(13) 0.30358(12)
C24 C 0.6280(2) 0.11479(17) 0.35818(14)
H16 H 0.6816 0.1522 0.3310
H17 H 0.6816 0.0678 0.3623
C25 C 0.6038(2) 0.14588(14) 0.43280(13)
C26 C 0.5003(3) 0.11931(16) 0.47507(13)
H18 H 0.4419 0.0814 0.4571
C27 C 0.4818(3) 0.14802(19) 0.54364(14)
H19 H 0.4092 0.1308 0.5720
C28 C 0.5688(3) 0.20157(19) 0.57077(15)
H20 H 0.5567 0.2206 0.6180
C29 C 0.6729(3) 0.22729(18) 0.52960(15)
H21 H 0.7332 0.2637 0.5485
C30 C 0.6899(3) 0.19996(16) 0.46022(14)
H22 H 0.7611 0.2185 0.4315
C31 C 0.1359(2) -0.00204(12) 0.31572(12)
C32 C 0.1544(2) 0.05080(12) 0.37107(12)
H23 H 0.2387 0.0746 0.3768
C33 C 0.0512(2) 0.06876(14) 0.41754(13)
H24 H 0.0652 0.1051 0.4544
C34 C -0.0720(2) 0.03417(14) 0.41070(13)
H25 H -0.1430 0.0473 0.4420
C35 C -0.0906(2) -0.01983(15) 0.35756(13)
H26 H -0.1741 -0.0448 0.3534
C36 C 0.0118(2) -0.03794(13) 0.31011(13)
H27 H -0.0027 -0.0748 0.2738
C37 C 0.2295(2) -0.08345(11) 0.21782(12)
H28 H 0.1532 -0.0749 0.1844
C38 C 0.2156(2) -0.16076(12) 0.25299(11)
C39 C 0.2863(3) -0.17923(13) 0.31438(13)
H29 H 0.3410 -0.1427 0.3376
C40 C 0.2750(3) -0.25263(14) 0.34101(14)
H30 H 0.3211 -0.2672 0.3833
C41 C 0.1955(3) -0.30411(14) 0.30493(14)
H31 H 0.1870 -0.3549 0.3216
C42 C 0.1290(3) -0.28037(13) 0.24445(14)
H32 H 0.0746 -0.3162 0.2201
H33 H 0.416(2) -0.1044(14) 0.2047(13)
loop_
_geom_bond_atom_site_label_1
_geom_bond_atom_site_label_2
_geom_bond_site_symmetry_1
_geom_bond_site_symmetry_2
O1 C15 1_555 1_555
O2 C23 1_555 1_555
N1 C1 1_555 1_555
N2 C22 1_555 1_555
N3 C16 1_555 1_555
N4 C14 1_555 1_555
N5 C38 1_555 1_555
C1 H1 1_555 1_555
H2 C1 1_555 1_555
C2 C1 1_555 1_555
C3 C2 1_555 1_555
H3 C3 1_555 1_555
C4 C3 1_555 1_555
H4 C4 1_555 1_555
C5 C4 1_555 1_555
H5 C5 1_555 1_555
C6 C5 1_555 1_555
H6 C6 1_555 1_555
C7 C2 1_555 1_555
H7 C7 1_555 1_555
C8 N1 1_555 1_555
C9 C8 1_555 1_555
H8 C9 1_555 1_555
C10 C9 1_555 1_555
H9 C10 1_555 1_555
C11 C10 1_555 1_555
H10 C11 1_555 1_555
C12 C11 1_555 1_555
H11 C12 1_555 1_555
C13 C8 1_555 1_555
C14 C13 1_555 1_555
C15 N1 1_555 1_555
C16 C14 1_555 1_555
C17 C16 1_555 1_555
C18 C17 1_555 1_555
H12 C18 1_555 1_555
C19 C18 1_555 1_555
H13 C19 1_555 1_555
C20 C19 1_555 1_555
H14 C20 1_555 1_555
C21 C20 1_555 1_555
H15 C21 1_555 1_555
C22 C17 1_555 1_555
C23 N2 1_555 1_555
C24 N2 1_555 1_555
H16 C24 1_555 1_555
H17 C24 1_555 1_555
C25 C24 1_555 1_555
C26 C25 1_555 1_555
H18 C26 1_555 1_555
C27 C26 1_555 1_555
H19 C27 1_555 1_555
C28 C27 1_555 1_555
H20 C28 1_555 1_555
C29 C28 1_555 1_555
H21 C29 1_555 1_555
C30 C25 1_555 1_555
H22 C30 1_555 1_555
C31 N3 1_555 1_555
C32 C31 1_555 1_555
H23 C32 1_555 1_555
C33 C32 1_555 1_555
H24 C33 1_555 1_555
C34 C33 1_555 1_555
H25 C34 1_555 1_555
C35 C34 1_555 1_555
H26 C35 1_555 1_555
C36 C31 1_555 1_555
H27 C36 1_555 1_555
C37 N3 1_555 1_555
H28 C37 1_555 1_555
C38 C37 1_555 1_555
C39 C38 1_555 1_555
H29 C39 1_555 1_555
C40 C39 1_555 1_555
H30 C40 1_555 1_555
C41 C40 1_555 1_555
H31 C41 1_555 1_555
C42 N5 1_555 1_555
H32 C42 1_555 1_555
H33 N4 1_555 1_555
N4 C37 1_555 1_555
C6 C7 1_555 1_555
C12 C13 1_555 1_555
C14 C15 1_555 1_555
C16 C23 1_555 1_555
C21 C22 1_555 1_555
C29 C30 1_555 1_555
C35 C36 1_555 1_555
C41 C42 1_555 1_555

#END
