
#######################################################################
#
#                 Cambridge Crystallographic Data Centre
#                                CCDC 
#
#######################################################################
#
# If this CIF has been generated from an entry in the Cambridge 
# Structural Database, then it will include bibliographic, chemical, 
# crystal, experimental, refinement or atomic coordinate data resulting 
# from the CCDC's data processing and validation procedures.
#
#######################################################################

data_RUXPOR
_chemical_formula_moiety         'C13 H17 N3 O2'
_chemical_name_systematic        
1-(2-aminopropyl)-1,7,8,9-tetrahydropyrano[2,3-g]indazol-8-ol
_symmetry_cell_setting           monoclinic
_symmetry_space_group_name_H-M   'P 21'
_symmetry_Int_Tables_number      4
_space_group_name_Hall           'P 2yb'
loop_
_symmetry_equiv_pos_site_id
_symmetry_equiv_pos_as_xyz
1 x,y,z
2 -x,1/2+y,-z
_cell_length_a                   9.0838(2)
_cell_length_b                   4.49650(10)
_cell_length_c                   14.9860(3)
_cell_angle_alpha                90
_cell_angle_beta                 101.1470(10)
_cell_angle_gamma                90
_cell_volume                     600.56
_exptl_crystal_colour            colorless
_exptl_crystal_description       needle
_chemical_melting_point          '399 K'
_cell_formula_units_Z            2
_exptl_crystal_recrystallization_method 2-propanol
loop_
_atom_site_label
_atom_site_type_symbol
_atom_site_fract_x
_atom_site_fract_y
_atom_site_fract_z
N1 N 0.58117(13) 0.4190(3) 0.25256(8)
N2 N 0.69399(14) 0.2770(3) 0.21978(8)
C1 C 0.62840(18) 0.1354(4) 0.14589(10)
C2 C 0.47127(17) 0.1834(3) 0.12697(9)
C3 C 0.35156(19) 0.0954(4) 0.05776(10)
C4 C 0.21128(19) 0.1946(4) 0.06087(10)
C5 C 0.18499(16) 0.3756(4) 0.13365(9)
O1 O 0.03684(11) 0.4470(3) 0.12849(7)
C6 C 0.00375(17) 0.6543(4) 0.19508(11)
C7 C 0.09345(16) 0.5781(4) 0.28819(10)
C8 C 0.25857(16) 0.6230(4) 0.28670(10)
C9 C 0.29737(15) 0.4623(3) 0.20541(9)
C10 C 0.44370(16) 0.3688(3) 0.19792(9)
C11 C 0.62625(16) 0.6237(4) 0.32815(10)
C12 C 0.69163(15) 0.4685(3) 0.41729(9)
N3 N 0.84760(14) 0.3777(3) 0.41707(10)
C13 C 0.69108(19) 0.6721(4) 0.49807(11)
O2 O 0.04995(12) 0.7624(3) 0.35613(7)
H1 H 0.691(2) 0.016(5) 0.1115(12)
H2 H 0.369(2) -0.033(5) 0.0083(13)
H3 H 0.125(2) 0.143(5) 0.0173(13)
H4 H 0.027(2) 0.856(5) 0.1786(12)
H5 H -0.102(2) 0.638(5) 0.1951(11)
H6 H 0.076(2) 0.372(5) 0.2994(11)
H7 H 0.3220(18) 0.543(4) 0.3445(11)
H8 H 0.280(2) 0.844(5) 0.2854(12)
H9 H 0.7032(19) 0.765(4) 0.3120(11)
H10 H 0.537(2) 0.737(5) 0.3354(11)
H11 H 0.6257(19) 0.291(5) 0.4224(11)
H12 H 0.849(2) 0.240(5) 0.3722(13)
H13 H 0.887(2) 0.286(5) 0.4710(13)
H14 H 0.752(2) 0.860(5) 0.4925(12)
H15 H 0.586(2) 0.737(4) 0.4981(12)
H16 H 0.736(2) 0.568(6) 0.5545(14)
H17 H -0.021(2) 0.664(5) 0.3760(13)
loop_
_geom_bond_atom_site_label_1
_geom_bond_atom_site_label_2
_geom_bond_site_symmetry_1
_geom_bond_site_symmetry_2
N1 N2 1_555 1_555
N2 C1 1_555 1_555
C1 C2 1_555 1_555
C2 C3 1_555 1_555
C3 C4 1_555 1_555
C4 C5 1_555 1_555
C5 O1 1_555 1_555
O1 C6 1_555 1_555
C6 C7 1_555 1_555
C7 C8 1_555 1_555
C8 C9 1_555 1_555
C9 C5 1_555 1_555
C10 N1 1_555 1_555
C11 N1 1_555 1_555
C12 C11 1_555 1_555
N3 C12 1_555 1_555
C13 C12 1_555 1_555
O2 C7 1_555 1_555
H1 C1 1_555 1_555
H2 C3 1_555 1_555
H3 C4 1_555 1_555
H4 C6 1_555 1_555
H5 C6 1_555 1_555
H6 C7 1_555 1_555
H7 C8 1_555 1_555
H8 C8 1_555 1_555
H9 C11 1_555 1_555
H10 C11 1_555 1_555
H11 C12 1_555 1_555
H12 N3 1_555 1_555
H13 N3 1_555 1_555
H14 C13 1_555 1_555
H15 C13 1_555 1_555
H16 C13 1_555 1_555
H17 O2 1_555 1_555
C2 C10 1_555 1_555
C9 C10 1_555 1_555

#END
