
#######################################################################
#
#                 Cambridge Crystallographic Data Centre
#                                CCDC 
#
#######################################################################
#
# If this CIF has been generated from an entry in the Cambridge 
# Structural Database, then it will include bibliographic, chemical, 
# crystal, experimental, refinement or atomic coordinate data resulting 
# from the CCDC's data processing and validation procedures.
#
#######################################################################

data_RUXZOA
_chemical_formula_moiety         'C82 H110 O4 S4'
_chemical_name_systematic        
2,7-bis(4-(4'-(t-Butylthiophenyl)-3,6-bis(2-(ethyl)hexyloxy)phenyl))-9-(4,5-dimethyl-1,3-dithiol-2-ylidene)-9H-fluorene
_symmetry_cell_setting           monoclinic
_symmetry_space_group_name_H-M   'C 2/c'
_symmetry_Int_Tables_number      15
_space_group_name_Hall           '-C 2yn'
loop_
_symmetry_equiv_pos_site_id
_symmetry_equiv_pos_as_xyz
1 x,y,z
2 -x,y,1/2-z
3 1/2+x,1/2+y,z
4 1/2-x,1/2+y,1/2-z
5 -x,-y,-z
6 x,-y,1/2+z
7 1/2-x,1/2-y,-z
8 1/2+x,1/2-y,1/2+z
_cell_length_a                   52.274(4)
_cell_length_b                   8.3593(6)
_cell_length_c                   39.186(3)
_cell_angle_alpha                90
_cell_angle_beta                 118.24(1)
_cell_angle_gamma                90
_cell_volume                     15085.1
_exptl_crystal_colour            yellow
_exptl_crystal_description       plate
_chemical_melting_point          '412 K'
_cell_formula_units_Z            8
loop_
_atom_site_label
_atom_site_type_symbol
_atom_site_fract_x
_atom_site_fract_y
_atom_site_fract_z
S1 S 0.65862(2) 0.66353(13) 0.15617(3)
S2 S 0.59633(2) 0.65908(13) 0.12661(3)
S3 S 0.91966(3) 0.4221(2) 0.25275(5)
S4 S 0.32740(3) 0.2960(3) -0.04501(5)
O1 O 0.73259(7) 0.2608(4) 0.21606(10)
O2 O 0.78775(9) 0.2751(7) 0.12644(13)
O3 O 0.50970(15) 0.2849(10) -0.0180(2)
O4 O 0.46923(7) 0.2858(4) 0.08921(10)
C1 C 0.68001(9) 0.3293(5) 0.13969(12)
H1 H 0.6879 0.4197 0.1561
C2 C 0.69836(9) 0.2172(5) 0.13551(13)
C3 C 0.68634(10) 0.0836(6) 0.11175(14)
H2 H 0.6988 0.0079 0.1090
C4 C 0.65665(10) 0.0587(6) 0.09201(14)
H3 H 0.6488 -0.0330 0.0761
C5 C 0.58669(9) 0.0645(6) 0.05511(13)
H4 H 0.5922 -0.0271 0.0458
C6 C 0.55771(10) 0.0930(6) 0.04376(13)
H5 H 0.5434 0.0214 0.0262
C7 C 0.54901(9) 0.2244(5) 0.05749(13)
C8 C 0.57010(9) 0.3310(5) 0.08323(13)
H6 H 0.5643 0.4207 0.0928
C9 C 0.62567(9) 0.4015(5) 0.11801(13)
C10 C 0.65004(9) 0.3065(5) 0.11959(13)
C11 C 0.63860(9) 0.1686(5) 0.09639(12)
C12 C 0.60722(9) 0.1705(5) 0.07993(13)
C13 C 0.59931(9) 0.3068(5) 0.09410(12)
C14 C 0.62688(8) 0.5508(5) 0.13227(12)
C15 C 0.64279(10) 0.8378(5) 0.16248(13)
C16 C 0.61420(9) 0.8355(5) 0.14906(12)
C17 C 0.66363(9) 0.9700(5) 0.18425(14)
H7 H 0.6537 1.0736 0.1773
H8 H 0.6796 0.9698 0.1779
H9 H 0.6713 0.9518 0.2121
C18 C 0.59550(10) 0.9663(5) 0.15123(15)
H10 H 0.6075 1.0602 0.1640
H11 H 0.5860 0.9286 0.1662
H12 H 0.5807 0.9956 0.1250
C19 C 0.73023(10) 0.2442(5) 0.15491(15)
C20 C 0.74663(10) 0.2729(5) 0.19441(15)
C21 C 0.77645(9) 0.3031(5) 0.21030(15)
H13 H 0.7874 0.3222 0.2373
C22 C 0.79032(10) 0.3064(6) 0.18758(16)
C23 C 0.77386(12) 0.2718(7) 0.14871(18)
C24 C 0.74412(11) 0.2431(6) 0.13236(17)
H14 H 0.7332 0.2232 0.1054
C25 C 0.82189(10) 0.3400(6) 0.20439(16)
C26 C 0.83263(12) 0.4459(7) 0.18696(16)
H15 H 0.8194 0.4999 0.1640
C27 C 0.86204(12) 0.4718(7) 0.20164(18)
H16 H 0.8687 0.5451 0.1891
C28 C 0.88170(11) 0.3906(6) 0.23421(17)
C29 C 0.87134(10) 0.2900(6) 0.25277(16)
H17 H 0.8845 0.2395 0.2763
C30 C 0.84175(10) 0.2655(6) 0.23794(15)
H18 H 0.8351 0.1952 0.2511
C31 C 0.93002(12) 0.2657(8) 0.22811(18)
C32 C 0.91499(16) 0.2938(10) 0.1846(2)
H19 H 0.9182 0.4053 0.1797
H20 H 0.8941 0.2743 0.1737
H21 H 0.9229 0.2222 0.1721
C33 C 0.96258(12) 0.2893(9) 0.2443(2)
H22 H 0.9670 0.4001 0.2406
H23 H 0.9695 0.2168 0.2308
H24 H 0.9723 0.2638 0.2720
C34 C 0.92302(14) 0.1018(8) 0.2373(2)
H25 H 0.9325 0.0873 0.2654
H26 H 0.9299 0.0191 0.2258
H27 H 0.9019 0.0923 0.2267
C35 C 0.74588(15) 0.3026(9) 0.25458(19)
H28 H 0.7520 0.4162 0.2578
H29 H 0.7632 0.2353 0.2695
C36 C 0.7232(2) 0.2752(11) 0.2688(2)
H30 H 0.7201 0.1568 0.2666
C37 C 0.69500(16) 0.3561(9) 0.2436(2)
H31 H 0.6980 0.4734 0.2454
H32 H 0.6885 0.3247 0.2164
C38 C 0.67022(19) 0.3136(10) 0.2536(3)
H33 H 0.6732 0.3710 0.2773
H34 H 0.6704 0.1971 0.2582
C39 C 0.64022(16) 0.3620(9) 0.2192(2)
H35 H 0.6392 0.4775 0.2130
H36 H 0.6369 0.3030 0.1955
C40 C 0.6151(2) 0.3216(13) 0.2287(3)
H37 H 0.5959 0.3503 0.2076
H38 H 0.6187 0.3818 0.2521
H39 H 0.6156 0.2067 0.2340
C41 C 0.73692(16) 0.3206(9) 0.3118(2)
H40 H 0.7204 0.3150 0.3175
H41 H 0.7443 0.4318 0.3170
C49 C 0.76164(11) 0.2148(6) 0.34099(17)
H56 H 0.7683 0.2529 0.3669
H58 H 0.7775 0.2159 0.3350
H59 H 0.7814 0.1975 0.3602
C50 C 0.7780(3) 0.1400(16) 0.0980(4)
H62 H 0.7605 0.1699 0.0736
H63 H 0.7734 0.0441 0.1089
C51 C 0.8013(3) 0.1133(15) 0.0886(4)
H64 H 0.7931 0.0492 0.0641
C52 C 0.8158(3) 0.270(2) 0.0799(4)
H65 H 0.8191 0.3519 0.0999
H66 H 0.8346 0.2520 0.0802
C53 C 0.7920(3) 0.3345(19) 0.0390(4)
H67 H 0.7866 0.2515 0.0187
H68 H 0.7741 0.3712 0.0393
C54 C 0.8061(4) 0.462(2) 0.0305(5)
H69 H 0.8235 0.4288 0.0286
H70 H 0.8112 0.5494 0.0498
C55 C 0.7811(3) 0.512(2) -0.0088(5)
H71 H 0.7867 0.6044 -0.0193
H72 H 0.7641 0.5404 -0.0057
H73 H 0.7764 0.4217 -0.0267
C56 C 0.8278(4) 0.025(3) 0.1269(6)
H74 H 0.8322 0.0665 0.1528
H75 H 0.8463 0.0082 0.1263
C57 C 0.8121(6) -0.157(3) 0.1250(9)
H76 H 0.8233 -0.2367 0.1447
H77 H 0.8082 -0.1965 0.0994
H78 H 0.7937 -0.1373 0.1252
C66 C 0.51797(10) 0.2496(5) 0.04581(14)
C67 C 0.49713(10) 0.2582(6) 0.00654(14)
C68 C 0.46819(10) 0.2825(6) -0.00340(14)
H96 H 0.4546 0.2976 -0.0299
C69 C 0.45844(9) 0.2874(5) 0.02371(14)
C70 C 0.47924(10) 0.2769(5) 0.06266(14)
C71 C 0.50856(9) 0.2597(5) 0.07330(14)
H97 H 0.5224 0.2550 0.1000
C72 C 0.42668(10) 0.2996(6) 0.01004(13)
C73 C 0.40937(11) 0.3984(7) -0.02089(15)
H98 H 0.4187 0.4668 -0.0311
C74 C 0.37971(12) 0.3987(8) -0.03687(15)
H99 H 0.3686 0.4653 -0.0586
C75 C 0.36594(11) 0.3029(8) -0.02209(16)
C76 C 0.38264(11) 0.2037(6) 0.00864(16)
H100 H 0.3731 0.1360 0.0185
C77 C 0.41245(10) 0.2028(6) 0.02481(14)
H101 H 0.4235 0.1354 0.0464
C78 C 0.31827(13) 0.4648(10) -0.02305(19)
C79 C 0.32798(15) 0.6233(10) -0.0324(2)
H102 H 0.3190 0.6365 -0.0606
H103 H 0.3491 0.6223 -0.0215
H104 H 0.3222 0.7122 -0.0212
C80 C 0.28468(13) 0.4562(11) -0.0421(2)
H105 H 0.2764 0.4747 -0.0700
H106 H 0.2776 0.5385 -0.0308
H107 H 0.2788 0.3504 -0.0376
C81 C 0.33142(14) 0.4392(8) 0.02029(18)
H108 H 0.3246 0.3380 0.0257
H109 H 0.3257 0.5278 0.0316
H110 H 0.3526 0.4366 0.0317
C82 C 0.48997(16) 0.2614(9) -0.0584(2)
H111 H 0.4879 0.3793 -0.0592
H112 H 0.4701 0.2161 -0.0703
C83 C 0.5056(2) 0.2102(13) -0.0796(3)
H113 H 0.5023 0.0954 -0.0756
C84 C 0.5342(2) 0.2793(13) -0.0659(3)
H114 H 0.5449 0.2752 -0.0372
H115 H 0.5296 0.3931 -0.0733
C85 C 0.55405(18) 0.2316(11) -0.0811(3)
H116 H 0.5547 0.1133 -0.0804
H117 H 0.5462 0.2652 -0.1085
C86 C 0.5825(2) 0.3044(13) -0.0608(3)
H118 H 0.5903 0.2884 -0.0326
H119 H 0.5802 0.4210 -0.0658
C87 C 0.6038(3) 0.2390(19) -0.0738(4)
H120 H 0.6220 0.2983 -0.0593
H121 H 0.5966 0.2545 -0.1016
H122 H 0.6073 0.1248 -0.0676
C88 C 0.4864(2) 0.1934(13) -0.1224(3)
H123 H 0.4983 0.1515 -0.1340
H124 H 0.4713 0.1129 -0.1269
C89 C 0.4725(3) 0.3384(14) -0.1421(4)
H125 H 0.4597 0.3036 -0.1688
H126 H 0.4877 0.4080 -0.1417
H127 H 0.4611 0.3975 -0.1323
C98 C 0.48896(13) 0.2584(9) 0.12878(15)
H145 H 0.5047 0.3386 0.1379
H146 H 0.4977 0.1507 0.1319
C99 C 0.4731(2) 0.3177(18) 0.1528(3)
H147 H 0.4660 0.4278 0.1428
C100 C 0.4451(3) 0.2224(16) 0.1390(4)
H148 H 0.4520 0.1131 0.1487
H149 H 0.4361 0.2169 0.1104
C101 C 0.4265(4) 0.266(3) 0.1565(6)
H150 H 0.4332 0.2077 0.1812
H151 H 0.4303 0.3800 0.1640
C102 C 0.3973(5) 0.274(4) 0.1238(8)
H152 H 0.3906 0.3118 0.0969
H153 H 0.3906 0.1616 0.1214
C103 C 0.3788(6) 0.303(4) 0.1418(8)
H154 H 0.3582 0.2780 0.1252
H155 H 0.3819 0.4181 0.1408
H156 H 0.3844 0.2720 0.1686
C104 C 0.4938(3) 0.352(2) 0.1934(4)
H157 H 0.5014 0.4620 0.1949
H158 H 0.4838 0.3525 0.2094
C112 C 0.51883(19) 0.2615(13) 0.2144(2)
H176 H 0.5305 0.2599 0.2014
H177 H 0.5297 0.3083 0.2396
H178 H 0.5135 0.1541 0.2169
C42? C 0.7371(4) 0.381(2) 0.2443(5)
H42? H 0.7239 0.4708 0.2305
H43? H 0.7571 0.4218 0.2538
C43? C 0.7335(4) 0.344(2) 0.2801(6)
H44? H 0.7327 0.4589 0.2865
C44? C 0.7055(4) 0.249(2) 0.2685(5)
H45? H 0.7094 0.1762 0.2904
H46? H 0.7042 0.1797 0.2471
C45? C 0.6778(4) 0.336(3) 0.2446(6)
H47? H 0.6800 0.4435 0.2565
H48? H 0.6742 0.3556 0.2178
C46? C 0.6514(3) 0.263(2) 0.2443(5)
H49? H 0.6552 0.1989 0.2675
H50? H 0.6503 0.1841 0.2249
C47? C 0.6218(5) 0.338(3) 0.2172(6)
H51? H 0.6075 0.2700 0.2198
H52? H 0.6173 0.3425 0.1900
H53? H 0.6209 0.4464 0.2263
C48? C 0.7604(4) 0.257(2) 0.3056(4)
H54? H 0.7691 0.1679 0.2980
H55? H 0.7732 0.3515 0.3108
H57? H 0.7545 0.1075 0.3388
H60? H 0.7534 0.2990 0.3494
H61? H 0.7507 0.1182 0.3375
C58? C 0.7768(3) 0.242(2) 0.0871(5)
H79? H 0.7642 0.3312 0.0717
H80? H 0.7644 0.1456 0.0816
C59? C 0.8019(5) 0.222(3) 0.0764(7)
H81? H 0.7947 0.1569 0.0522
C60? C 0.8252(5) 0.115(2) 0.1101(7)
H82? H 0.8333 0.1904 0.1323
H83? H 0.8414 0.0891 0.1047
C61? C 0.8132(6) -0.041(3) 0.1194(7)
H84? H 0.8297 -0.1166 0.1304
H85? H 0.8047 -0.0248 0.1369
C62? C 0.7931(6) -0.140(3) 0.0833(7)
H86? H 0.7770 -0.0620 0.0722
H87? H 0.8018 -0.1575 0.0660
C63? C 0.7881(5) -0.280(3) 0.1032(7)
H88? H 0.7736 -0.3419 0.0814
H89? H 0.7805 -0.2531 0.1210
H90? H 0.8058 -0.3441 0.1169
C64? C 0.8125(5) 0.388(3) 0.0676(8)
H91? H 0.8182 0.4564 0.0907
H92? H 0.8300 0.3667 0.0646
C65? C 0.7896(7) 0.488(4) 0.0326(9)
H93? H 0.7999 0.5855 0.0323
H94? H 0.7746 0.5154 0.0398
H95? H 0.7806 0.4390 0.0068
C90? C 0.5101(3) 0.3396(18) -0.0375(4)
H128? H 0.5267 0.4091 -0.0211
H129? H 0.4923 0.4059 -0.0477
C91? C 0.5137(3) 0.2896(17) -0.0738(3)
H130? H 0.5100 0.3986 -0.0856
C92? C 0.5400(2) 0.1682(17) -0.0588(4)
H131? H 0.5397 0.1078 -0.0807
H132? H 0.5389 0.0884 -0.0409
C93? C 0.5686(3) 0.255(2) -0.0346(5)
H133? H 0.5773 0.2110 -0.0080
H134? H 0.5643 0.3690 -0.0331
C94? C 0.5958(5) 0.242(4) -0.0395(8)
H135? H 0.6067 0.1457 -0.0253
H136? H 0.6083 0.3343 -0.0257
C95? C 0.5903(9) 0.236(6) -0.0814(10)
H137? H 0.6103 0.2236 -0.0768
H138? H 0.5821 0.3352 -0.0957
H139? H 0.5786 0.1448 -0.0965
C96? C 0.4858(4) 0.211(3) -0.1063(5)
H140? H 0.4842 0.0992 -0.0990
H141? H 0.4684 0.2708 -0.1099
C97? C 0.4885(4) 0.212(2) -0.1437(5)
H142? H 0.4722 0.1599 -0.1656
H143? H 0.5068 0.1631 -0.1395
H144? H 0.4887 0.3263 -0.1494
C105? C 0.4736(2) 0.2274(15) 0.1529(3)
H159? H 0.4613 0.1308 0.1411
C106? C 0.4540(3) 0.3642(17) 0.1473(5)
H160? H 0.4653 0.4567 0.1629
H161? H 0.4451 0.3975 0.1198
C107? C 0.4287(4) 0.345(2) 0.1540(6)
H162? H 0.4165 0.4280 0.1372
H163? H 0.4347 0.3824 0.1798
C108? C 0.4094(6) 0.235(5) 0.1234(11)
H164? H 0.4199 0.1394 0.1243
H165? H 0.4063 0.2904 0.1004
C109? C 0.4055(6) 0.236(4) 0.1497(8)
H166? H 0.3930 0.3247 0.1471
H167? H 0.4135 0.2080 0.1766
C110? C 0.3800(3) 0.185(2) 0.1150(5)
H168? H 0.3719 0.1225 0.0916
H169? H 0.3814 0.1201 0.1360
H170? H 0.3675 0.2748 0.1116
H171? H 0.3676 0.1230 0.1218
H172? H 0.3693 0.2745 0.0994
H173? H 0.3866 0.1195 0.1006
C111? C 0.4925(2) 0.1786(13) 0.1925(3)
H174? H 0.4816 0.1887 0.2072
H175? H 0.4968 0.0635 0.1922
H179? H 0.5289 0.2152 0.2398
H180? H 0.5152 0.3726 0.2165
O5? O 0.50406(13) 0.2038(8) -0.02129(18)
loop_
_geom_bond_atom_site_label_1
_geom_bond_atom_site_label_2
_geom_bond_site_symmetry_1
_geom_bond_site_symmetry_2
S1 C14 1_555 1_555
S2 C14 1_555 1_555
S3 C28 1_555 1_555
S4 C75 1_555 1_555
O1 C20 1_555 1_555
O2 C23 1_555 1_555
O3 C67 1_555 1_555
O4 C70 1_555 1_555
C1 H1 1_555 1_555
C2 C1 1_555 1_555
C3 C2 1_555 1_555
H2 C3 1_555 1_555
C4 C3 1_555 1_555
H3 C4 1_555 1_555
C5 H4 1_555 1_555
C6 C5 1_555 1_555
H5 C6 1_555 1_555
C7 C6 1_555 1_555
C8 C7 1_555 1_555
H6 C8 1_555 1_555
C9 C10 1_555 1_555
C10 C1 1_555 1_555
C11 C4 1_555 1_555
C12 C5 1_555 1_555
C13 C8 1_555 1_555
C14 C9 1_555 1_555
C15 S1 1_555 1_555
C16 S2 1_555 1_555
C17 C15 1_555 1_555
H7 C17 1_555 1_555
H8 C17 1_555 1_555
H9 C17 1_555 1_555
C18 C16 1_555 1_555
H10 C18 1_555 1_555
H11 C18 1_555 1_555
H12 C18 1_555 1_555
C19 C2 1_555 1_555
C20 C19 1_555 1_555
C21 C20 1_555 1_555
H13 C21 1_555 1_555
C22 C21 1_555 1_555
C23 C22 1_555 1_555
C24 C19 1_555 1_555
H14 C24 1_555 1_555
C25 C22 1_555 1_555
C26 C25 1_555 1_555
H15 C26 1_555 1_555
C27 C26 1_555 1_555
H16 C27 1_555 1_555
C28 C27 1_555 1_555
C29 C28 1_555 1_555
H17 C29 1_555 1_555
C30 C25 1_555 1_555
H18 C30 1_555 1_555
C31 S3 1_555 1_555
C32 C31 1_555 1_555
H19 C32 1_555 1_555
H20 C32 1_555 1_555
H21 C32 1_555 1_555
C33 C31 1_555 1_555
H22 C33 1_555 1_555
H23 C33 1_555 1_555
H24 C33 1_555 1_555
C34 C31 1_555 1_555
H25 C34 1_555 1_555
H26 C34 1_555 1_555
H27 C34 1_555 1_555
C35 O1 1_555 1_555
H28 C35 1_555 1_555
H29 C35 1_555 1_555
C36 C35 1_555 1_555
H30 C36 1_555 1_555
C37 C36 1_555 1_555
H31 C37 1_555 1_555
H32 C37 1_555 1_555
C38 C37 1_555 1_555
H33 C38 1_555 1_555
H34 C38 1_555 1_555
C39 C38 1_555 1_555
H35 C39 1_555 1_555
H36 C39 1_555 1_555
C40 C39 1_555 1_555
H37 C40 1_555 1_555
H38 C40 1_555 1_555
H39 C40 1_555 1_555
C41 C36 1_555 1_555
H40 C41 1_555 1_555
H41 C41 1_555 1_555
C49 C41 1_555 1_555
H56 C49 1_555 1_555
H58 C49 1_555 1_555
H59 C49 1_555 1_555
C50 O2 1_555 1_555
H62 C50 1_555 1_555
H63 C50 1_555 1_555
C51 C50 1_555 1_555
H64 C51 1_555 1_555
C52 C51 1_555 1_555
H65 C52 1_555 1_555
H66 C52 1_555 1_555
C53 C52 1_555 1_555
H67 C53 1_555 1_555
H68 C53 1_555 1_555
C54 C53 1_555 1_555
H69 C54 1_555 1_555
H70 C54 1_555 1_555
C55 C54 1_555 1_555
H71 C55 1_555 1_555
H72 C55 1_555 1_555
H73 C55 1_555 1_555
C56 C51 1_555 1_555
H74 C56 1_555 1_555
H75 C56 1_555 1_555
C57 C56 1_555 1_555
H76 C57 1_555 1_555
H77 C57 1_555 1_555
H78 C57 1_555 1_555
C66 C7 1_555 1_555
C67 C66 1_555 1_555
C68 C67 1_555 1_555
H96 C68 1_555 1_555
C69 C68 1_555 1_555
C70 C69 1_555 1_555
C71 C66 1_555 1_555
H97 C71 1_555 1_555
C72 C69 1_555 1_555
C73 C72 1_555 1_555
H98 C73 1_555 1_555
C74 C73 1_555 1_555
H99 C74 1_555 1_555
C75 C74 1_555 1_555
C76 C75 1_555 1_555
H100 C76 1_555 1_555
C77 C72 1_555 1_555
H101 C77 1_555 1_555
C78 S4 1_555 1_555
C79 C78 1_555 1_555
H102 C79 1_555 1_555
H103 C79 1_555 1_555
H104 C79 1_555 1_555
C80 C78 1_555 1_555
H105 C80 1_555 1_555
H106 C80 1_555 1_555
H107 C80 1_555 1_555
C81 C78 1_555 1_555
H108 C81 1_555 1_555
H109 C81 1_555 1_555
H110 C81 1_555 1_555
C82 O3 1_555 1_555
H111 C82 1_555 1_555
H112 C82 1_555 1_555
C83 C82 1_555 1_555
H113 C83 1_555 1_555
C84 C83 1_555 1_555
H114 C84 1_555 1_555
H115 C84 1_555 1_555
C85 C84 1_555 1_555
H116 C85 1_555 1_555
H117 C85 1_555 1_555
C86 C85 1_555 1_555
H118 C86 1_555 1_555
H119 C86 1_555 1_555
C87 C86 1_555 1_555
H120 C87 1_555 1_555
H121 C87 1_555 1_555
H122 C87 1_555 1_555
C88 C83 1_555 1_555
H123 C88 1_555 1_555
H124 C88 1_555 1_555
C89 C88 1_555 1_555
H125 C89 1_555 1_555
H126 C89 1_555 1_555
H127 C89 1_555 1_555
C98 O4 1_555 1_555
H145 C98 1_555 1_555
H146 C98 1_555 1_555
C99 C98 1_555 1_555
H147 C99 1_555 1_555
C100 C99 1_555 1_555
H148 C100 1_555 1_555
H149 C100 1_555 1_555
C101 C100 1_555 1_555
H150 C101 1_555 1_555
H151 C101 1_555 1_555
C102 C101 1_555 1_555
H152 C102 1_555 1_555
H153 C102 1_555 1_555
C103 C102 1_555 1_555
H154 C103 1_555 1_555
H155 C103 1_555 1_555
H156 C103 1_555 1_555
C104 C99 1_555 1_555
H157 C104 1_555 1_555
H158 C104 1_555 1_555
C112 C104 1_555 1_555
H176 C112 1_555 1_555
H177 C112 1_555 1_555
H178 C112 1_555 1_555
C9 C13 1_555 1_555
C10 C11 1_555 1_555
C11 C12 1_555 1_555
C12 C13 1_555 1_555
C15 C16 1_555 1_555
C23 C24 1_555 1_555
C29 C30 1_555 1_555
C70 C71 1_555 1_555
C76 C77 1_555 1_555

#END
