
#######################################################################
#
#                 Cambridge Crystallographic Data Centre
#                                CCDC 
#
#######################################################################
#
# If this CIF has been generated from an entry in the Cambridge 
# Structural Database, then it will include bibliographic, chemical, 
# crystal, experimental, refinement or atomic coordinate data resulting 
# from the CCDC's data processing and validation procedures.
#
#######################################################################

data_RUYDOF
_chemical_formula_moiety         'C22 H40 N8 4+,4(N1 O3 1-)'
_chemical_name_systematic        
'6,20,29,30-Tetra-aza-3,9,17,23-tetra-azoniatricyclo-[23.3.1.1^11,15^]triaconta-1(29),11(30),12,14,25,27-hexaene tetranitrate'
_symmetry_cell_setting           orthorhombic
_symmetry_space_group_name_H-M   'P b n a'
_symmetry_Int_Tables_number      60
_space_group_name_Hall           '-P 2ac 2b'
loop_
_symmetry_equiv_pos_site_id
_symmetry_equiv_pos_as_xyz
1 x,y,z
2 1/2-x,-y,1/2+z
3 x,1/2-y,-z
4 1/2-x,1/2+y,1/2-z
5 -x,-y,-z
6 1/2+x,y,1/2-z
7 -x,1/2+y,z
8 1/2+x,1/2-y,1/2+z
_cell_length_a                   14.9144(19)
_cell_length_b                   21.386(3)
_cell_length_c                   9.6014(12)
_cell_angle_alpha                90
_cell_angle_beta                 90
_cell_angle_gamma                90
_cell_volume                     3062.46
_exptl_crystal_colour            colorless
_exptl_crystal_description       prism
_cell_formula_units_Z            4
loop_
_atom_site_label
_atom_site_type_symbol
_atom_site_fract_x
_atom_site_fract_y
_atom_site_fract_z
C1 C 0.9685(4) 0.4006(2) 1.1142(7)
C2 C 1.0491(4) 0.4278(3) 1.1505(7)
H1 H 1.0649 0.4322 1.2437
C3 C 1.1054(4) 0.4479(3) 1.0481(8)
H2 H 1.1598 0.4665 1.0707
C4 C 1.0812(4) 0.4406(3) 0.9130(7)
H3 H 1.1185 0.4540 0.8414
C5 C 0.9990(4) 0.4124(2) 0.8842(7)
C6 C 0.9693(4) 0.4044(3) 0.7362(7)
H4 H 0.9438 0.4434 0.7030
H5 H 1.0209 0.3947 0.6787
C7 C 0.8091(4) 0.3751(3) 0.6914(6)
H6 H 0.8087 0.3989 0.6055
H7 H 0.7884 0.4022 0.7658
C8 C 0.7467(4) 0.3201(3) 0.6779(6)
H8 H 0.6870 0.3351 0.6558
H9 H 0.7666 0.2939 0.6013
C9 C 0.6973(4) 0.2768(3) 1.2157(6)
H10 H 0.6475 0.2714 1.2795
H11 H 0.6735 0.2909 1.1272
C10 C 0.7605(4) 0.3251(3) 1.2726(6)
H12 H 0.7266 0.3615 1.3019
H13 H 0.7911 0.3083 1.3535
C11 C 0.9037(4) 0.3809(2) 1.2231(6)
H14 H 0.9348 0.3561 1.2924
H15 H 0.8801 0.4178 1.2692
N1 N 0.9427(3) 0.39402(18) 0.9830(5)
N3 N 0.9017(3) 0.3538(2) 0.7220(4)
H16 H 0.9009 0.3316 0.8016
H17 H 0.9194 0.3280 0.6534
N5 N 0.7429(3) 0.2170(3) 1.1966(6)
N7 N 0.8284(3) 0.34423(19) 1.1660(4)
H18 H 0.8505 0.3097 1.1250
H19 H 0.8008 0.3670 1.0998
H20 H 0.711(3) 0.200(2) 1.131(5)
C1B C 0.9685(4) 0.0994(2) 0.8858(7)
C2B C 1.0491(4) 0.0722(3) 0.8495(7)
H1B H 1.0649 0.0678 0.7563
C3B C 1.1054(4) 0.0521(3) 0.9519(8)
H2B H 1.1598 0.0335 0.9293
C4B C 1.0812(4) 0.0594(3) 1.0870(7)
H3B H 1.1185 0.0460 1.1586
C5B C 0.9990(4) 0.0876(2) 1.1158(7)
C6B C 0.9693(4) 0.0956(3) 1.2638(7)
H4B H 0.9438 0.0566 1.2970
H5B H 1.0209 0.1053 1.3213
C7B C 0.8091(4) 0.1249(3) 1.3086(6)
H6B H 0.8087 0.1011 1.3945
H7B H 0.7884 0.0978 1.2342
C8B C 0.7467(4) 0.1799(3) 1.3221(6)
H8B H 0.6870 0.1649 1.3442
H9B H 0.7666 0.2061 1.3987
C9B C 0.6973(4) 0.2232(3) 0.7843(6)
H10B H 0.6475 0.2286 0.7205
H11B H 0.6735 0.2091 0.8728
C10B C 0.7605(4) 0.1749(3) 0.7274(6)
H12B H 0.7266 0.1385 0.6981
H13B H 0.7911 0.1917 0.6465
C11B C 0.9037(4) 0.1191(2) 0.7769(6)
H14B H 0.9348 0.1439 0.7076
H15B H 0.8801 0.0822 0.7308
N1B N 0.9427(3) 0.10598(18) 1.0170(5)
N3B N 0.9017(3) 0.1462(2) 1.2780(4)
H16B H 0.9009 0.1684 1.1984
H17B H 0.9194 0.1720 1.3466
N5B N 0.7429(3) 0.2830(3) 0.8034(6)
N7B N 0.8284(3) 0.15577(19) 0.8340(4)
H18B H 0.8505 0.1903 0.8750
H19B H 0.8008 0.1330 0.9002
H20B H 0.711(3) 0.300(2) 0.869(5)
N2 N 0.6872(4) 0.4576(3) 0.0183(6)
O1 O 0.7244(3) 0.4694(2) 0.1291(6)
O2 O 0.6443(3) 0.4961(2) -0.0423(5)
O3 O 0.6961(4) 0.4048(2) -0.0246(5)
N4 N 0.9962(6) 0.2500 1.0000
O4 O 1.0695(6) 0.2500 1.0000
O5 O 0.9566(5) 0.2521(3) 0.8971(8)
O5B O 0.9566(5) 0.2479(3) 1.1029(8)
N6 N 0.9927(6) 0.2500 0.5000
O6 O 0.9173(5) 0.2500 0.5000
O7 O 1.0372(3) 0.2962(2) 0.5359(5)
O7B O 1.0372(3) 0.2038(2) 0.4641(5)
loop_
_geom_bond_atom_site_label_1
_geom_bond_atom_site_label_2
_geom_bond_site_symmetry_1
_geom_bond_site_symmetry_2
C1 C2 1_555 1_555
C2 H1 1_555 1_555
C3 C2 1_555 1_555
H2 C3 1_555 1_555
C4 C3 1_555 1_555
H3 C4 1_555 1_555
C5 C4 1_555 1_555
C6 C5 1_555 1_555
H4 C6 1_555 1_555
H5 C6 1_555 1_555
C7 H6 1_555 1_555
H7 C7 1_555 1_555
C8 C7 1_555 1_555
H8 C8 1_555 1_555
H9 C8 1_555 1_555
C9 H10 1_555 1_555
H11 C9 1_555 1_555
C10 C9 1_555 1_555
H12 C10 1_555 1_555
H13 C10 1_555 1_555
C11 C1 1_555 1_555
H14 C11 1_555 1_555
H15 C11 1_555 1_555
N1 C1 1_555 1_555
N2 O1 1_555 1_555
N3 C6 1_555 1_555
H16 N3 1_555 1_555
H17 N3 1_555 1_555
N4 O4 1_555 1_555
N5 C9 1_555 1_555
N6 O6 1_555 1_555
N7 C10 1_555 1_555
H18 N7 1_555 1_555
H19 N7 1_555 1_555
O2 N2 1_555 1_555
O3 N2 1_555 1_555
O5 N4 1_555 1_555
O7 N6 1_555 1_555
H20 N5 1_555 1_555
C1B C2B 1_555 1_555
C2B H1B 1_555 1_555
C3B C2B 1_555 1_555
H2B C3B 1_555 1_555
C4B C3B 1_555 1_555
H3B C4B 1_555 1_555
C5B C4B 1_555 1_555
C6B C5B 1_555 1_555
H4B C6B 1_555 1_555
H5B C6B 1_555 1_555
C7B H6B 1_555 1_555
H7B C7B 1_555 1_555
C8B N5 1_555 1_555
H8B C8B 1_555 1_555
H9B C8B 1_555 1_555
C9B H10B 1_555 1_555
H11B C9B 1_555 1_555
C10B C9B 1_555 1_555
H12B C10B 1_555 1_555
H13B C10B 1_555 1_555
C11B C1B 1_555 1_555
H14B C11B 1_555 1_555
H15B C11B 1_555 1_555
N1B C1B 1_555 1_555
N3B C6B 1_555 1_555
H16B N3B 1_555 1_555
H17B N3B 1_555 1_555
N5B C8 1_555 1_555
N7B C10B 1_555 1_555
H18B N7B 1_555 1_555
H19B N7B 1_555 1_555
O5B N4 1_555 1_555
O7B N6 1_555 1_555
H20B N5B 1_555 1_555
C5 N1 1_555 1_555
C7 N3 1_555 1_555
C11 N7 1_555 1_555
C5B N1B 1_555 1_555
C7B C8B 1_555 1_555
C7B N3B 1_555 1_555
C9B N5B 1_555 1_555
C11B N7B 1_555 1_555

#END
