
#######################################################################
#
#                 Cambridge Crystallographic Data Centre
#                                CCDC 
#
#######################################################################
#
# If this CIF has been generated from an entry in the Cambridge 
# Structural Database, then it will include bibliographic, chemical, 
# crystal, experimental, refinement or atomic coordinate data resulting 
# from the CCDC's data processing and validation procedures.
#
#######################################################################

data_RUYHID01
_chemical_formula_moiety         '2(C7 H10 N2),C6 F4 I2'
_chemical_name_systematic        
'bis(N,N-dimethylpyridin-4-amine) 1,2,4,5-tetrafluoro-3,6-diiodobenzene'
_symmetry_cell_setting           monoclinic
_symmetry_space_group_name_H-M   'P 21/c'
_symmetry_Int_Tables_number      14
_space_group_name_Hall           '-P 2ybc'
loop_
_symmetry_equiv_pos_site_id
_symmetry_equiv_pos_as_xyz
1 x,y,z
2 -x,1/2+y,1/2-z
3 -x,-y,-z
4 x,1/2-y,1/2+z
_cell_length_a                   7.4019(7)
_cell_length_b                   16.3545(15)
_cell_length_c                   9.3932(9)
_cell_angle_alpha                90
_cell_angle_beta                 105.838(2)
_cell_angle_gamma                90
_cell_volume                     1093.92
_exptl_crystal_colour            colorless
_exptl_crystal_description       block
_cell_formula_units_Z            2
loop_
_atom_site_label
_atom_site_type_symbol
_atom_site_fract_x
_atom_site_fract_y
_atom_site_fract_z
I1 I 0.10428(2) 0.71158(2) 0.01949(2)
F1 F 0.35193(4) 0.55082(2) 0.00914(4)
F2 F -0.27546(5) 0.60879(2) 0.00560(5)
C1 C 0.04068(6) 0.58510(2) 0.00651(5)
C2 C 0.17664(6) 0.52685(3) 0.00391(5)
C3 C -0.13675(6) 0.55604(3) 0.00304(5)
I1B I -0.10428(2) 0.28842(2) -0.01949(2)
F1B F -0.35193(4) 0.44918(2) -0.00914(4)
F2B F 0.27546(5) 0.39121(2) -0.00560(5)
C1B C -0.04068(6) 0.41490(2) -0.00651(5)
C2B C -0.17664(6) 0.47315(3) -0.00391(5)
C3B C 0.13675(6) 0.44396(3) -0.00304(5)
N1 N 0.18027(7) 0.87101(3) 0.03615(5)
N2 N 0.33037(8) 1.11721(3) 0.01839(5)
C4 C 0.27735(7) 0.91146(3) 0.15692(5)
C5 C 0.33020(7) 0.99250(3) 0.15813(5)
C6 C 0.28194(7) 1.03770(3) 0.02479(5)
C7 C 0.17878(7) 0.99502(3) -0.10232(5)
C8 C 0.13249(8) 0.91424(3) -0.09038(6)
C9 C 0.28186(10) 1.16039(4) -0.12174(7)
C10 C 0.42820(11) 1.16073(4) 0.15172(8)
H1 H 0.3183(15) 0.8787(6) 0.2556(11)
H2 H 0.3983(14) 1.0158(7) 0.2471(12)
H3 H 0.1387(13) 1.0191(6) -0.1879(10)
H4 H 0.0507(14) 0.8864(5) -0.1762(11)
H5 H 0.344(2) 1.2161(7) -0.1071(18)
H6 H 0.1388(16) 1.1655(7) -0.1680(12)
H7 H 0.3381(17) 1.1316(7) -0.1956(13)
H8 H 0.3522(18) 1.1613(8) 0.2235(15)
H9 H 0.5479(17) 1.1368(7) 0.1986(13)
H10 H 0.456(2) 1.2153(7) 0.1342(18)
loop_
_geom_bond_atom_site_label_1
_geom_bond_atom_site_label_2
_geom_bond_site_symmetry_1
_geom_bond_site_symmetry_2
I1 C1 1_555 1_555
F1 C2 1_555 1_555
F2 C3 1_555 1_555
C1 C2 1_555 1_555
C2 C3B 1_555 1_555
C3 C1 1_555 1_555
N1 C4 1_555 1_555
N2 C6 1_555 1_555
C4 C5 1_555 1_555
C5 C6 1_555 1_555
C6 C7 1_555 1_555
C7 C8 1_555 1_555
C8 N1 1_555 1_555
C9 N2 1_555 1_555
C10 N2 1_555 1_555
H1 C4 1_555 1_555
H2 C5 1_555 1_555
H3 C7 1_555 1_555
H4 C8 1_555 1_555
H5 C9 1_555 1_555
H6 C9 1_555 1_555
H7 C9 1_555 1_555
H8 C10 1_555 1_555
H9 C10 1_555 1_555
H10 C10 1_555 1_555
I1B C1B 1_555 1_555
F1B C2B 1_555 1_555
F2B C3B 1_555 1_555
C1B C2B 1_555 1_555
C2B C3 1_555 1_555
C3B C1B 1_555 1_555

#END
