
#######################################################################
#
#                 Cambridge Crystallographic Data Centre
#                                CCDC 
#
#######################################################################
#
# If this CIF has been generated from an entry in the Cambridge 
# Structural Database, then it will include bibliographic, chemical, 
# crystal, experimental, refinement or atomic coordinate data resulting 
# from the CCDC's data processing and validation procedures.
#
#######################################################################

data_RUYHID02
_chemical_formula_moiety         'C7 H10 N2,0.5(C6 F4 I2)'
_chemical_name_systematic        
'N,N-Dimethylpyridin-4-amine hemikis(1,2,4,5-tetrafluoro-3,6-di-iodobenzene)'
_symmetry_cell_setting           monoclinic
_symmetry_space_group_name_H-M   'P 21/c'
_symmetry_Int_Tables_number      14
_space_group_name_Hall           '-P 2ybc'
loop_
_symmetry_equiv_pos_site_id
_symmetry_equiv_pos_as_xyz
1 x,y,z
2 -x,1/2+y,1/2-z
3 -x,-y,-z
4 x,1/2-y,1/2+z
_cell_length_a                   7.4019(7)
_cell_length_b                   16.3545(15)
_cell_length_c                   9.3932(9)
_cell_angle_alpha                90
_cell_angle_beta                 105.838(2)
_cell_angle_gamma                90
_cell_volume                     1093.92
_exptl_crystal_colour            colorless
_exptl_crystal_description       block
_cell_formula_units_Z            4
loop_
_atom_site_label
_atom_site_type_symbol
_atom_site_fract_x
_atom_site_fract_y
_atom_site_fract_z
I1 I 0.104285(3) 0.711584(1) 0.019493(2)
F1 F 0.35181(4) 0.550773(18) 0.00908(4)
F2 F -0.27546(4) 0.608756(18) 0.00564(4)
C1 C 0.04082(5) 0.58514(2) 0.00659(4)
C2 C 0.17682(5) 0.52698(2) 0.00388(4)
C3 C -0.13699(6) 0.55619(2) 0.00305(5)
I1B I -0.104285(3) 0.288416(1) -0.019493(2)
F1B F -0.35181(4) 0.449227(18) -0.00908(4)
F2B F 0.27546(4) 0.391244(18) -0.00564(4)
C1B C -0.04082(5) 0.41486(2) -0.00659(4)
C2B C -0.17682(5) 0.47302(2) -0.00388(4)
C3B C 0.13699(6) 0.44381(2) -0.00305(5)
N1 N 0.17999(6) 0.87099(2) 0.03586(5)
N2 N 0.33028(10) 1.11729(3) 0.01849(6)
C4 C 0.27757(7) 0.91137(3) 0.15706(5)
C5 C 0.33031(6) 0.99250(3) 0.15830(5)
C6 C 0.28204(6) 1.03773(2) 0.02471(5)
C7 C 0.17891(7) 0.99511(3) -0.10238(5)
C8 C 0.13242(7) 0.91412(3) -0.09023(5)
C9 C 0.28183(9) 1.16032(3) -0.12165(6)
C10 C 0.42790(10) 1.16080(3) 0.15122(7)
H1 H 0.320463 0.878631 0.261083
H2 H 0.409362 1.01899 0.262324
H3 H 0.128306 1.024696 -0.209012
H4 H 0.041804 0.884098 -0.186152
H5 H 0.349201 1.219685 -0.105724
H6 H 0.13157 1.163495 -0.170937
H7 H 0.342959 1.128858 -0.19875
H8 H 0.345375 1.158144 0.230203
H9 H 0.561228 1.132389 0.204995
H10 H 0.461302 1.223832 0.133725
loop_
_geom_bond_atom_site_label_1
_geom_bond_atom_site_label_2
_geom_bond_site_symmetry_1
_geom_bond_site_symmetry_2
I1 C1 1_555 1_555
F1 C2 1_555 1_555
F2 C3 1_555 1_555
C1 C2 1_555 1_555
C2 C3B 1_555 1_555
C3 C1 1_555 1_555
N1 C4 1_555 1_555
N2 C6 1_555 1_555
C4 C5 1_555 1_555
C5 C6 1_555 1_555
C6 C7 1_555 1_555
C7 C8 1_555 1_555
C8 N1 1_555 1_555
C9 N2 1_555 1_555
C10 N2 1_555 1_555
H1 C4 1_555 1_555
H2 C5 1_555 1_555
H3 C7 1_555 1_555
H4 C8 1_555 1_555
H5 C9 1_555 1_555
H6 C9 1_555 1_555
H7 C9 1_555 1_555
H8 C10 1_555 1_555
H9 C10 1_555 1_555
H10 C10 1_555 1_555
I1B C1B 1_555 1_555
F1B C2B 1_555 1_555
F2B C3B 1_555 1_555
C1B C2B 1_555 1_555
C2B C3 1_555 1_555
C3B C1B 1_555 1_555

#END
