
#######################################################################
#
#                 Cambridge Crystallographic Data Centre
#                                CCDC 
#
#######################################################################
#
# If this CIF has been generated from an entry in the Cambridge 
# Structural Database, then it will include bibliographic, chemical, 
# crystal, experimental, refinement or atomic coordinate data resulting 
# from the CCDC's data processing and validation procedures.
#
#######################################################################

data_RUYVAI
_chemical_formula_moiety         'C20 H10 S4'
_chemical_name_systematic        
2,6-bis(Thien-2-yl)naphtho(1,8-bc:5,4-b'c')dithiophene
_symmetry_cell_setting           monoclinic
_symmetry_space_group_name_H-M   'P 21/c'
_symmetry_Int_Tables_number      14
_space_group_name_Hall           '-P 2ybc'
loop_
_symmetry_equiv_pos_site_id
_symmetry_equiv_pos_as_xyz
1 x,y,z
2 x,1/2-y,1/2+z
3 -x,-y,-z
4 -x,1/2+y,1/2-z
_cell_length_a                   13.333(1)
_cell_length_b                   3.9332(7)
_cell_length_c                   15.258(1)
_cell_angle_alpha                90
_cell_angle_beta                 97.031(7)
_cell_angle_gamma                90
_cell_volume                     794.133
_exptl_crystal_colour            purple
_exptl_crystal_description       needle
_chemical_melting_point          '245-247 deg.C'
_cell_formula_units_Z            2
_exptl_crystal_recrystallization_method chloroform/hexane
loop_
_atom_site_label
_atom_site_type_symbol
_atom_site_fract_x
_atom_site_fract_y
_atom_site_fract_z
S1 S -0.2367(1) 0.0926(5) 0.94207(10)
S2 S -0.2709(1) -0.2998(6) 1.2044(1)
C1 C -0.2071(4) -0.101(2) 1.0461(4)
C2 C -0.1021(4) -0.131(2) 1.0679(3)
C3 C -0.0401(4) -0.272(2) 1.1420(4)
C4 C 0.0634(5) -0.274(2) 1.1453(4)
C5 C -0.1113(4) 0.134(2) 0.9245(3)
C6 C -0.0518(4) 0.003(2) 0.9986(3)
C7 C -0.2895(4) -0.199(2) 1.0952(4)
C8 C -0.3925(4) -0.232(2) 1.0598(4)
C9 C -0.4494(5) -0.336(2) 1.1300(5)
C10 C -0.3948(5) -0.379(2) 1.2080(5)
H1 H -0.0711 -0.3726 1.1900
H2 H 0.1041 -0.3690 1.1967
H3 H -0.4191 -0.1924 0.9989
H4 H -0.5219 -0.3705 1.1207
H5 H -0.4226 -0.4537 1.2610
C5B C 0.1113(4) -0.134(2) 1.0755(3)
S1B S 0.2367(1) -0.0926(5) 1.05793(10)
C1B C 0.2071(4) 0.101(2) 0.9539(4)
C2B C 0.1021(4) 0.131(2) 0.9321(3)
C3B C 0.0401(4) 0.272(2) 0.8580(4)
C4B C -0.0634(5) 0.274(2) 0.8547(4)
C6B C 0.0518(4) -0.003(2) 1.0014(3)
H2B H -0.1041 0.3690 0.8033
H1B H 0.0711 0.3726 0.8100
C7B C 0.2895(4) 0.199(2) 0.9048(4)
S2B S 0.2709(1) 0.2998(6) 0.7956(1)
C10B C 0.3948(5) 0.379(2) 0.7920(5)
C9B C 0.4494(5) 0.336(2) 0.8700(5)
C8B C 0.3925(4) 0.232(2) 0.9402(4)
H3B H 0.4191 0.1924 1.0011
H4B H 0.5219 0.3705 0.8793
H5B H 0.4226 0.4537 0.7390
loop_
_geom_bond_atom_site_label_1
_geom_bond_atom_site_label_2
_geom_bond_site_symmetry_1
_geom_bond_site_symmetry_2
S1 C1 1_555 1_555
S2 C7 1_555 1_555
C1 C2 1_555 1_555
C2 C3 1_555 1_555
C3 C4 1_555 1_555
C4 H2 1_555 1_555
C5 S1 1_555 1_555
C6 C2 1_555 1_555
C7 C1 1_555 1_555
C8 C7 1_555 1_555
C9 C8 1_555 1_555
C10 S2 1_555 1_555
H1 C3 1_555 1_555
H3 C8 1_555 1_555
H4 C9 1_555 1_555
H5 C10 1_555 1_555
C5B C4 1_555 1_555
S1B C5B 1_555 1_555
C1B S1B 1_555 1_555
C2B C1B 1_555 1_555
C3B C2B 1_555 1_555
C4B C5 1_555 1_555
C6B C6 1_555 1_555
H2B C4B 1_555 1_555
H1B C3B 1_555 1_555
C7B C1B 1_555 1_555
S2B C7B 1_555 1_555
C10B S2B 1_555 1_555
C9B C10B 1_555 1_555
C8B C7B 1_555 1_555
H3B C8B 1_555 1_555
H4B C9B 1_555 1_555
H5B C10B 1_555 1_555
C5 C6 1_555 1_555
C9 C10 1_555 1_555
C5B C6B 1_555 1_555
C2B C6B 1_555 1_555
C3B C4B 1_555 1_555
C9B C8B 1_555 1_555

#END
