
#######################################################################
#
#                 Cambridge Crystallographic Data Centre
#                                CCDC 
#
#######################################################################
#
# If this CIF has been generated from an entry in the Cambridge 
# Structural Database, then it will include bibliographic, chemical, 
# crystal, experimental, refinement or atomic coordinate data resulting 
# from the CCDC's data processing and validation procedures.
#
#######################################################################

data_RUZHUP
_chemical_formula_moiety         'C26 H28 O1 S1'
_chemical_name_systematic        
5',6'-Dibenzyl-1',4'-dimethyl-7'-oxo-dispiro(cyclopropane-1,2'-(7-thiabicyclo(2.2.1)hept-5-ene)-3',1''-cyclopropane)
_symmetry_cell_setting           monoclinic
_symmetry_space_group_name_H-M   'P 21/c'
_symmetry_Int_Tables_number      14
_space_group_name_Hall           '-P 2ybc'
loop_
_symmetry_equiv_pos_site_id
_symmetry_equiv_pos_as_xyz
1 x,y,z
2 x,1/2-y,1/2+z
3 -x,-y,-z
4 -x,1/2+y,1/2-z
_cell_length_a                   13.131(2)
_cell_length_b                   14.125(2)
_cell_length_c                   11.6791(14)
_cell_angle_alpha                90
_cell_angle_beta                 97.061(12)
_cell_angle_gamma                90
_cell_volume                     2149.76
_exptl_crystal_colour            colorless
_exptl_crystal_description       plates
_chemical_melting_point          '120 deg.C'
_cell_formula_units_Z            4
loop_
_atom_site_label
_atom_site_type_symbol
_atom_site_fract_x
_atom_site_fract_y
_atom_site_fract_z
C1 C 0.3029(2) 0.9721(2) 0.0681(2)
C2 C 0.1429(2) 0.8941(2) -0.0533(2)
H1 H 0.1478(2) 0.9445(2) -0.1112(2)
H2 H 0.1206(2) 0.8316(2) -0.0857(2)
C3 C 0.2196(2) 0.8956(2) 0.0540(2)
C4 C 0.2313(2) 0.7089(2) 0.0700(2)
H3 H 0.2836(2) 0.6594(2) 0.0633(2)
H4 H 0.1693(2) 0.7044(2) 0.0127(2)
C5 C 0.1089(2) 0.9221(2) 0.0603(2)
H5 H 0.0658(2) 0.8767(2) 0.0976(2)
H6 H 0.0930(2) 0.9896(2) 0.0721(2)
C6 C 0.2681(2) 0.8057(2) 0.1077(2)
C7 C 0.2177(2) 0.7440(2) 0.1897(2)
H7 H 0.1476(2) 0.7611(2) 0.2053(2)
H8 H 0.2619(2) 0.7160(2) 0.2559(2)
C8 C 0.3833(2) 0.8266(2) 0.1414(2)
C9 C 0.3903(2) 0.9017(2) 0.2349(2)
C10 C 0.3441(2) 0.9818(2) 0.1951(2)
S1 S 0.41589(5) 0.90593(4) 0.02513(5)
O1 O 0.39097(14) 0.86060(13) -0.09043(14)
C11 C 0.2831(2) 1.0636(2) 0.0012(2)
H9 H 0.2739(13) 1.0499(2) -0.0817(2)
H10 H 0.3417(6) 1.1063(5) 0.0193(11)
H11 H 0.2210(8) 1.0937(6) 0.0227(11)
C12 C 0.4547(2) 0.7424(2) 0.1601(2)
H12 H 0.4482(9) 0.7034(6) 0.0901(5)
H13 H 0.4364(8) 0.7046(6) 0.2249(9)
H14 H 0.5256(2) 0.7646(2) 0.1773(14)
C13 C 0.4432(2) 0.8826(2) 0.3545(2)
H15 H 0.4253(2) 0.8179(2) 0.3779(2)
H16 H 0.4173(2) 0.9277(2) 0.4089(2)
C14 C 0.5597(2) 0.8913(2) 0.3634(2)
C15 C 0.6049(2) 0.9663(2) 0.3120(2)
H17 H 0.5629(2) 1.0126(2) 0.2704(2)
C16 C 0.7115(2) 0.9743(2) 0.3208(2)
H18 H 0.7419(2) 1.0261(2) 0.2858(2)
C17 C 0.7725(2) 0.9064(2) 0.3807(2)
H19 H 0.8451(2) 0.9115(2) 0.3866(2)
C18 C 0.7286(2) 0.8317(2) 0.4318(2)
H20 H 0.7707(2) 0.7854(2) 0.4731(2)
C19 C 0.6223(2) 0.8241(2) 0.4229(2)
H21 H 0.5923(2) 0.7721(2) 0.4580(2)
C20 C 0.3278(2) 1.0696(2) 0.2625(2)
H22 H 0.3444(2) 1.1257(2) 0.2174(2)
H23 H 0.3751(2) 1.0689(2) 0.3353(2)
C21 C 0.2176(2) 1.0779(2) 0.2905(2)
C22 C 0.1697(2) 1.0010(2) 0.3339(2)
H24 H 0.2055(2) 0.9426(2) 0.3448(2)
C23 C 0.0698(2) 1.0075(2) 0.3618(2)
H25 H 0.0380(2) 0.9543(2) 0.3923(2)
C24 C 0.0175(2) 1.0921(3) 0.3447(3)
H26 H -0.0509(2) 1.0972(3) 0.3626(3)
C25 C 0.0645(2) 1.1688(3) 0.3018(3)
H27 H 0.0285(2) 1.2270(3) 0.2907(3)
C26 C 0.1644(2) 1.1620(2) 0.2744(2)
H28 H 0.1961(2) 1.2155(2) 0.2445(2)
loop_
_geom_bond_atom_site_label_1
_geom_bond_atom_site_label_2
_geom_bond_site_symmetry_1
_geom_bond_site_symmetry_2
C1 C3 1_555 1_555
C2 H1 1_555 1_555
H2 C2 1_555 1_555
C3 C2 1_555 1_555
C4 H3 1_555 1_555
H4 C4 1_555 1_555
C5 C2 1_555 1_555
H5 C5 1_555 1_555
H6 C5 1_555 1_555
C6 C3 1_555 1_555
C7 C4 1_555 1_555
H7 C7 1_555 1_555
H8 C7 1_555 1_555
C8 C6 1_555 1_555
C9 C8 1_555 1_555
C10 C1 1_555 1_555
S1 C1 1_555 1_555
O1 S1 1_555 1_555
C11 C1 1_555 1_555
H9 C11 1_555 1_555
H10 C11 1_555 1_555
H11 C11 1_555 1_555
C12 C8 1_555 1_555
H12 C12 1_555 1_555
H13 C12 1_555 1_555
H14 C12 1_555 1_555
C13 C9 1_555 1_555
H15 C13 1_555 1_555
H16 C13 1_555 1_555
C14 C13 1_555 1_555
C15 C14 1_555 1_555
H17 C15 1_555 1_555
C16 C15 1_555 1_555
H18 C16 1_555 1_555
C17 C16 1_555 1_555
H19 C17 1_555 1_555
C18 C17 1_555 1_555
H20 C18 1_555 1_555
C19 C14 1_555 1_555
H21 C19 1_555 1_555
C20 C10 1_555 1_555
H22 C20 1_555 1_555
H23 C20 1_555 1_555
C21 C20 1_555 1_555
C22 C21 1_555 1_555
H24 C22 1_555 1_555
C23 C22 1_555 1_555
H25 C23 1_555 1_555
C24 C23 1_555 1_555
H26 C24 1_555 1_555
C25 C24 1_555 1_555
H27 C25 1_555 1_555
C26 C21 1_555 1_555
H28 C26 1_555 1_555
C3 C5 1_555 1_555
C4 C6 1_555 1_555
C6 C7 1_555 1_555
C8 S1 1_555 1_555
C9 C10 1_555 1_555
C18 C19 1_555 1_555
C25 C26 1_555 1_555

#END
