
#######################################################################
#
#                 Cambridge Crystallographic Data Centre
#                                CCDC 
#
#######################################################################
#
# If this CIF has been generated from an entry in the Cambridge 
# Structural Database, then it will include bibliographic, chemical, 
# crystal, experimental, refinement or atomic coordinate data resulting 
# from the CCDC's data processing and validation procedures.
#
#######################################################################

data_RUZKII
_chemical_formula_moiety         'C19 H19 N3'
_chemical_name_systematic        3',5'-Diethyl-2,2':6',2''-terpyridine
_symmetry_cell_setting           monoclinic
_symmetry_space_group_name_H-M   'C 2/c'
_symmetry_Int_Tables_number      15
_space_group_name_Hall           '-C 2yn'
loop_
_symmetry_equiv_pos_site_id
_symmetry_equiv_pos_as_xyz
1 x,y,z
2 -x,y,1/2-z
3 1/2+x,1/2+y,z
4 1/2-x,1/2+y,1/2-z
5 -x,-y,-z
6 x,-y,1/2+z
7 1/2-x,1/2-y,-z
8 1/2+x,1/2-y,1/2+z
_cell_length_a                   21.0859(12)
_cell_length_b                   8.8941(5)
_cell_length_c                   8.6908(5)
_cell_angle_alpha                90
_cell_angle_beta                 110.4477(18)
_cell_angle_gamma                90
_cell_volume                     1527.18
_exptl_crystal_colour            colorless
_exptl_crystal_description       platy
_cell_formula_units_Z            4
loop_
_atom_site_label
_atom_site_type_symbol
_atom_site_fract_x
_atom_site_fract_y
_atom_site_fract_z
C1 C 0.90265(4) 0.73510(9) 0.01041(10)
N1 N 0.83648(4) 0.75584(9) -0.01936(10)
C2 C 0.92697(5) 0.61921(10) -0.06181(11)
H1 H 0.9742 0.6089 -0.0397
C3 C 0.79327(5) 0.65794(11) -0.12032(12)
H2 H 0.7463 0.6714 -0.1416
C4 C 0.88155(5) 0.51909(11) -0.16642(12)
H3 H 0.8970 0.4393 -0.2169
C5 C 0.81300(5) 0.53849(11) -0.19540(12)
H4 H 0.7804 0.4715 -0.2650
C6 C 0.95178(4) 0.83524(9) 0.13230(9)
N2 N 1.0000 0.75905(11) 0.2500
C7 C 1.0000 1.06820(13) 0.2500
H5 H 1.0000 1.1750 0.2500
C8 C 0.94953(4) 0.99267(9) 0.12553(10)
C9 C 0.89691(4) 1.08112(10) -0.00652(10)
H6 H 0.8767 1.0160 -0.1038
H7 H 0.9191 1.1668 -0.0400
C10 C 0.84075(5) 1.14075(12) 0.05003(12)
H8 H 0.8079 1.1970 -0.0397
H9 H 0.8603 1.2073 0.1447
H10 H 0.8180 1.0563 0.0814
C1A C 1.09735(4) 0.73510(9) 0.48959(10)
N1A N 1.16352(4) 0.75584(9) 0.51936(10)
C2A C 1.07303(5) 0.61921(10) 0.56181(11)
H1A H 1.0258 0.6089 0.5397
C3A C 1.20673(5) 0.65794(11) 0.62032(12)
H2A H 1.2537 0.6714 0.6416
C4A C 1.11845(5) 0.51909(11) 0.66642(12)
H3A H 1.1030 0.4393 0.7169
C5A C 1.18700(5) 0.53849(11) 0.69540(12)
H4A H 1.2196 0.4715 0.7650
C6A C 1.04822(4) 0.83524(9) 0.36770(9)
C8A C 1.05047(4) 0.99267(9) 0.37447(10)
C9A C 1.10309(4) 1.08112(10) 0.50652(10)
H6A H 1.1233 1.0160 0.6038
H7A H 1.0809 1.1668 0.5400
C10A C 1.15925(5) 1.14075(12) 0.44997(12)
H8A H 1.1921 1.1970 0.5397
H9A H 1.1397 1.2073 0.3553
H10A H 1.1820 1.0563 0.4186
H11? H 0.8219 0.8308 0.0256
loop_
_geom_bond_atom_site_label_1
_geom_bond_atom_site_label_2
_geom_bond_site_symmetry_1
_geom_bond_site_symmetry_2
C1 N1 1_555 1_555
N1 C3 1_555 1_555
C2 C1 1_555 1_555
H1 C2 1_555 1_555
C3 H2 1_555 1_555
C4 C2 1_555 1_555
H3 C4 1_555 1_555
C5 C3 1_555 1_555
H4 C5 1_555 1_555
C6 C1 1_555 1_555
N2 C6 1_555 1_555
C7 H5 1_555 1_555
C8 C6 1_555 1_555
C9 C8 1_555 1_555
H6 C9 1_555 1_555
H7 C9 1_555 1_555
C10 C9 1_555 1_555
H8 C10 1_555 1_555
H9 C10 1_555 1_555
H10 C10 1_555 1_555
C1A N1A 1_555 1_555
N1A C3A 1_555 1_555
C2A C1A 1_555 1_555
H1A C2A 1_555 1_555
C3A H2A 1_555 1_555
C4A C2A 1_555 1_555
H3A C4A 1_555 1_555
C5A C3A 1_555 1_555
H4A C5A 1_555 1_555
C6A N2 1_555 1_555
C8A C7 1_555 1_555
C9A C8A 1_555 1_555
H6A C9A 1_555 1_555
H7A C9A 1_555 1_555
C10A C9A 1_555 1_555
H8A C10A 1_555 1_555
H9A C10A 1_555 1_555
H10A C10A 1_555 1_555
C4 C5 1_555 1_555
C7 C8 1_555 1_555
C1A C6A 1_555 1_555
C4A C5A 1_555 1_555
C6A C8A 1_555 1_555

#END
