
#######################################################################
#
#                 Cambridge Crystallographic Data Centre
#                                CCDC 
#
#######################################################################
#
# If this CIF has been generated from an entry in the Cambridge 
# Structural Database, then it will include bibliographic, chemical, 
# crystal, experimental, refinement or atomic coordinate data resulting 
# from the CCDC's data processing and validation procedures.
#
#######################################################################

data_SABBUU
_chemical_formula_moiety         'C14 H11 Br1 F3 N5 O2'
_chemical_name_systematic        
'Ethyl 7-(4-bromophenyl)-5-(trifluoromethyl)-4,7-dihydrotetrazolo[1,5-a]pyrimidine-6-carboxylate'
_symmetry_cell_setting           monoclinic
_symmetry_space_group_name_H-M   'P 21/c'
_symmetry_Int_Tables_number      14
_space_group_name_Hall           '-P 2ybc'
loop_
_symmetry_equiv_pos_site_id
_symmetry_equiv_pos_as_xyz
1 x,y,z
2 -x,1/2+y,1/2-z
3 -x,-y,-z
4 x,1/2-y,1/2+z
_cell_length_a                   18.773(2)
_cell_length_b                   10.4716(11)
_cell_length_c                   7.8700(8)
_cell_angle_alpha                90
_cell_angle_beta                 92.27(3)
_cell_angle_gamma                90
_cell_volume                     1545.9
_exptl_crystal_colour            colorless
_exptl_crystal_description       block
_cell_formula_units_Z            4
loop_
_atom_site_label
_atom_site_type_symbol
_atom_site_fract_x
_atom_site_fract_y
_atom_site_fract_z
Br1 Br 0.468171(12) 0.24266(2) -0.00430(3)
F1 F 0.04617(6) 0.09175(12) 0.60550(15)
F2 F 0.00359(6) 0.18117(13) 0.37917(16)
F3 F 0.10127(7) 0.25030(10) 0.49390(17)
H1 H 0.0275(12) 0.055(2) 0.176(3)
N1 N 0.06837(9) 0.02879(16) 0.1959(2)
N2 N 0.16300(9) -0.09820(15) 0.1113(2)
N3 N 0.17768(9) -0.17880(16) -0.0190(2)
N4 N 0.12129(9) -0.17855(17) -0.1192(2)
N5 N 0.06960(9) -0.09971(15) -0.0596(2)
O1 O 0.18713(8) 0.08260(14) 0.67228(18)
O2 O 0.27052(7) -0.04022(14) 0.55633(17)
C1 C 0.09759(10) -0.05253(18) 0.0835(2)
C2 C 0.21318(10) -0.06715(18) 0.2535(2)
H2 H 0.2315 -0.1483 0.3062
C3 C 0.17113(10) 0.00649(18) 0.3842(2)
C4 C 0.10521(11) 0.05403(18) 0.3465(2)
C5 C 0.27570(10) 0.00933(19) 0.1898(2)
C6 C 0.26514(11) 0.12937(19) 0.1182(3)
H3 H 0.2184 0.1642 0.1091
C7 C 0.32231(11) 0.1991(2) 0.0599(3)
H4 H 0.3150 0.2809 0.0097
C8 C 0.39009(11) 0.14732(19) 0.0761(2)
C9 C 0.40180(11) 0.02870(19) 0.1482(3)
H5 H 0.4487 -0.0054 0.1587
C10 C 0.34446(11) -0.03993(19) 0.2049(3)
H6 H 0.3521 -0.1216 0.2548
C11 C 0.20751(11) 0.02294(19) 0.5533(3)
C12 C 0.31205(11) -0.0374(2) 0.7163(3)
H7 H 0.2901 -0.0933 0.8012
H8 H 0.3145 0.0506 0.7620
C13 C 0.38555(12) -0.0847(2) 0.6780(3)
H9 H 0.3820 -0.1701 0.6276
H10 H 0.4150 -0.0884 0.7835
H11 H 0.4074 -0.0262 0.5979
C14 C 0.06429(11) 0.1435(2) 0.4593(3)
loop_
_geom_bond_atom_site_label_1
_geom_bond_atom_site_label_2
_geom_bond_site_symmetry_1
_geom_bond_site_symmetry_2
Br1 C8 1_555 1_555
F1 C14 1_555 1_555
F2 C14 1_555 1_555
F3 C14 1_555 1_555
H1 N1 1_555 1_555
N1 C1 1_555 1_555
N2 N3 1_555 1_555
N3 N4 1_555 1_555
N4 N5 1_555 1_555
N5 C1 1_555 1_555
O1 C11 1_555 1_555
O2 C11 1_555 1_555
C1 N2 1_555 1_555
C2 N2 1_555 1_555
H2 C2 1_555 1_555
C3 C2 1_555 1_555
C4 N1 1_555 1_555
C5 C2 1_555 1_555
C6 C5 1_555 1_555
H3 C6 1_555 1_555
C7 C6 1_555 1_555
H4 C7 1_555 1_555
C8 C7 1_555 1_555
C9 C8 1_555 1_555
H5 C9 1_555 1_555
C10 C5 1_555 1_555
H6 C10 1_555 1_555
C11 C3 1_555 1_555
C12 O2 1_555 1_555
H7 C12 1_555 1_555
H8 C12 1_555 1_555
C13 C12 1_555 1_555
H9 C13 1_555 1_555
H10 C13 1_555 1_555
H11 C13 1_555 1_555
C14 C4 1_555 1_555
C3 C4 1_555 1_555
C9 C10 1_555 1_555

#END
