
#######################################################################
#
#                 Cambridge Crystallographic Data Centre
#                                CCDC 
#
#######################################################################
#
# If this CIF has been generated from an entry in the Cambridge 
# Structural Database, then it will include bibliographic, chemical, 
# crystal, experimental, refinement or atomic coordinate data resulting 
# from the CCDC's data processing and validation procedures.
#
#######################################################################

data_SABBOP
_chemical_formula_moiety         'C27 H9 N9,0.13(H2 O1)'
_chemical_name_systematic        
'5-(4,6-bis(3,5-dicyanophenyl)-1,3,5-triazin-2-yl)isophthalonitrile hydrate'
_symmetry_cell_setting           monoclinic
_symmetry_space_group_name_H-M   'C 2/c'
_symmetry_Int_Tables_number      15
_space_group_name_Hall           '-C 2yn'
loop_
_symmetry_equiv_pos_site_id
_symmetry_equiv_pos_as_xyz
1 x,y,z
2 -x,y,1/2-z
3 1/2+x,1/2+y,z
4 1/2-x,1/2+y,1/2-z
5 -x,-y,-z
6 x,-y,1/2+z
7 1/2-x,1/2-y,-z
8 1/2+x,1/2-y,1/2+z
_cell_length_a                   36.530(7)
_cell_length_b                   3.7210(7)
_cell_length_c                   38.242(8)
_cell_angle_alpha                90
_cell_angle_beta                 114.89(3)
_cell_angle_gamma                90
_cell_volume                     4715.35
_cell_formula_units_Z            8
loop_
_atom_site_label
_atom_site_type_symbol
_atom_site_fract_x
_atom_site_fract_y
_atom_site_fract_z
N1 N 0.6301 1.0675(5) 0.0542
C1 C 0.6403(1) 1.1540(5) 0.0911
N2 N 0.6765 1.0899(5) 0.1202
C2 C 0.7027(1) 0.9182(5) 0.1103
N3 N 0.6956 0.8111(5) 0.0747
C3 C 0.6588(1) 0.8973(5) 0.0476
C4 C 0.6094(1) 1.3306(5) 0.1007
C5 C 0.5707(1) 1.3966(5) 0.0719
H1 H 0.5643 1.3349 0.0459
C6 C 0.5417(1) 1.5538(6) 0.0818
C7 C 0.5503(1) 1.6475(6) 0.1197
H2 H 0.5301 1.7496 0.1263
C8 C 0.5894(1) 1.5869(6) 0.148
C9 C 0.6189(1) 1.4288(6) 0.1387
H3 H 0.6453 1.3885 0.1582
C10 C 0.5019(1) 1.6252(6) 0.0516
N4 N 0.4710(1) 1.6816(6) 0.0271
C11 C 0.6002(1) 1.6964(6) 0.1873(1)
N5 N 0.6103(1) 1.7868(6) 0.2184
C12 C 0.7432(1) 0.8390(5) 0.1414
C13 C 0.7503(1) 0.8988(5) 0.1796
H4 H 0.7296 0.9903 0.1859
C14 C 0.7886(1) 0.8225(6) 0.2088
C15 C 0.8196(1) 0.6892(6) 0.2003
H5 H 0.8455 0.6400 0.2202
C16 C 0.8117(1) 0.6302(6) 0.1618
C17 C 0.7735(1) 0.7016(5) 0.1321
H6 H 0.7683 0.6567 0.1060
C18 C 0.7949(1) 0.8819(6) 0.2482
N6 N 0.7988 0.9305(6) 0.2789
C19 C 0.8425(1) 0.4907(6) 0.1513(1)
N7 N 0.8660(1) 0.3785(6) 0.1417
C20 C 0.6495(1) 0.7920(5) 0.0076
C21 C 0.6797(1) 0.6457(5) -0.0014
H7 H 0.7061 0.6090 0.0182
C22 C 0.6706(1) 0.5537(5) -0.0396
C23 C 0.6317(1) 0.6011(5) -0.0689
H8 H 0.6257 0.5369 -0.0948
C24 C 0.6021(1) 0.7443(5) -0.0591
C25 C 0.6104(1) 0.8389(5) -0.0212
H9 H 0.5897 0.9340 -0.0150
C26 C 0.7023(1) 0.4038(6) -0.0484
N8 N 0.7278(1) 0.2828(5) -0.0546
C27 C 0.5616(1) 0.7979(6) -0.0886
N9 N 0.5292(1) 0.8460(6) -0.1114
O1 O 0.9279(15) 0.938(10) 0.2251(8)
loop_
_geom_bond_atom_site_label_1
_geom_bond_atom_site_label_2
_geom_bond_site_symmetry_1
_geom_bond_site_symmetry_2
N1 C1 1_555 1_555
C1 N2 1_555 1_555
N2 C2 1_555 1_555
C2 N3 1_555 1_555
N3 C3 1_555 1_555
C3 N1 1_555 1_555
C4 C1 1_555 1_555
C5 C4 1_555 1_555
H1 C5 1_555 1_555
C6 C5 1_555 1_555
C7 C6 1_555 1_555
H2 C7 1_555 1_555
C8 C7 1_555 1_555
C9 C4 1_555 1_555
H3 C9 1_555 1_555
C10 C6 1_555 1_555
N4 C10 1_555 1_555
C11 C8 1_555 1_555
N5 C11 1_555 1_555
C12 C2 1_555 1_555
C13 C12 1_555 1_555
H4 C13 1_555 1_555
C14 C13 1_555 1_555
C15 C14 1_555 1_555
H5 C15 1_555 1_555
C16 C15 1_555 1_555
C17 C12 1_555 1_555
H6 C17 1_555 1_555
C18 C14 1_555 1_555
N6 C18 1_555 1_555
C19 C16 1_555 1_555
N7 C19 1_555 1_555
C20 C3 1_555 1_555
C21 C20 1_555 1_555
H7 C21 1_555 1_555
C22 C21 1_555 1_555
C23 C22 1_555 1_555
H8 C23 1_555 1_555
C24 C23 1_555 1_555
C25 C20 1_555 1_555
H9 C25 1_555 1_555
C26 C22 1_555 1_555
N8 C26 1_555 1_555
C27 C24 1_555 1_555
N9 C27 1_555 1_555
C8 C9 1_555 1_555
C16 C17 1_555 1_555
C24 C25 1_555 1_555

#END
