
#######################################################################
#
#                 Cambridge Crystallographic Data Centre
#                                CCDC 
#
#######################################################################
#
# If this CIF has been generated from an entry in the Cambridge 
# Structural Database, then it will include bibliographic, chemical, 
# crystal, experimental, refinement or atomic coordinate data resulting 
# from the CCDC's data processing and validation procedures.
#
#######################################################################

data_SABCEG
_chemical_formula_moiety         'C31 H26 O7'
_chemical_name_systematic        
'2,4,6-tris(4-Carboxyphenyl)anisole trimethyl ester'
_symmetry_cell_setting           monoclinic
_symmetry_space_group_name_H-M   'P 21/c'
_symmetry_Int_Tables_number      14
_space_group_name_Hall           '-P 2ybc'
loop_
_symmetry_equiv_pos_site_id
_symmetry_equiv_pos_as_xyz
1 x,y,z
2 -x,1/2+y,1/2-z
3 -x,-y,-z
4 x,1/2-y,1/2+z
_cell_length_a                   12.6185(4)
_cell_length_b                   22.3524(8)
_cell_length_c                   9.6909(3)
_cell_angle_alpha                90
_cell_angle_beta                 109.5580(10)
_cell_angle_gamma                90
_cell_volume                     2575.65
_exptl_crystal_colour            colorless
_exptl_crystal_description       needle
_cell_formula_units_Z            4
loop_
_atom_site_label
_atom_site_type_symbol
_atom_site_fract_x
_atom_site_fract_y
_atom_site_fract_z
O1 O 0.40291(8) 0.08859(4) 0.37758(11)
O2 O -0.08538(10) 0.18013(6) 0.47939(15)
O3 O -0.01633(9) 0.26617(6) 0.59005(13)
O4 O 0.81633(12) 0.50607(5) 0.42932(18)
O5 O 0.86054(10) 0.46560(5) 0.24385(15)
O6 O 0.85358(9) -0.07682(4) 0.23473(12)
O7 O 0.68370(9) -0.11246(5) 0.10054(13)
C1 C 0.45147(11) 0.14256(6) 0.36390(14)
C2 C 0.40488(11) 0.19648(6) 0.39154(14)
C3 C 0.45755(11) 0.25010(6) 0.37745(14)
H1 H 0.4266 0.2869 0.3949
C4 C 0.55450(11) 0.25078(6) 0.33838(14)
C5 C 0.59807(11) 0.19651(6) 0.31052(14)
H2 H 0.6636 0.1967 0.2830
C6 C 0.54778(12) 0.14195(6) 0.32208(14)
C7 C 0.30023(12) 0.19914(6) 0.43058(15)
C8 C 0.21161(13) 0.15872(7) 0.37255(18)
H3 H 0.2193 0.1271 0.3110
C9 C 0.11269(13) 0.16448(7) 0.40417(19)
H4 H 0.0535 0.1366 0.3648
C10 C 0.09945(12) 0.21055(7) 0.49258(16)
C11 C 0.18713(12) 0.25063(7) 0.55195(16)
H5 H 0.1790 0.2821 0.6135
C12 C 0.28656(12) 0.24476(6) 0.52151(15)
H6 H 0.3462 0.2722 0.5632
C13 C -0.00981(12) 0.21626(7) 0.51847(17)
C14 C 0.61228(11) 0.30787(6) 0.33009(14)
C15 C 0.61784(11) 0.35393(6) 0.43011(15)
H7 H 0.5785 0.3501 0.4978
C16 C 0.68024(12) 0.40515(6) 0.43144(16)
H8 H 0.6839 0.4359 0.5004
C17 C 0.73749(11) 0.41160(6) 0.33220(16)
C18 C 0.72993(12) 0.36677(6) 0.22898(16)
H9 H 0.7677 0.3713 0.1597
C19 C 0.66714(11) 0.31567(6) 0.22767(15)
H10 H 0.6614 0.2856 0.1562
C20 C 0.80726(12) 0.46629(7) 0.34234(19)
C21 C 0.59734(12) 0.08517(6) 0.29127(14)
C22 C 0.71428(12) 0.07690(6) 0.34379(15)
H11 H 0.7611 0.1070 0.4028
C23 C 0.76284(12) 0.02547(6) 0.31111(15)
H12 H 0.8422 0.0206 0.3475
C24 C 0.69481(12) -0.01918(6) 0.22460(14)
C25 C 0.57868(12) -0.01129(6) 0.17278(15)
H13 H 0.5320 -0.0416 0.1142
C26 C 0.53009(12) 0.03996(6) 0.20523(14)
H14 H 0.4507 0.0445 0.1689
C27 C 0.74055(12) -0.07429(6) 0.17940(15)
C28 C 0.43015(14) 0.06888(7) 0.52584(17)
H15 H 0.3871 0.0327 0.5287
H16 H 0.4112 0.1004 0.5840
H17 H 0.5108 0.0601 0.5665
C29 C -0.12018(14) 0.27449(10) 0.6197(2)
H18 H -0.1836 0.2731 0.5275
H19 H -0.1190 0.3134 0.6668
H20 H -0.1284 0.2426 0.6848
C30 C 0.93568(17) 0.51512(8) 0.2503(3)
H21 H 0.9510 0.5177 0.1578
H22 H 1.0064 0.5088 0.3311
H23 H 0.9006 0.5524 0.2665
C31 C 0.90370(14) -0.12554(7) 0.1802(2)
H24 H 0.8711 -0.1635 0.1970
H25 H 0.9851 -0.1260 0.2317
H26 H 0.8889 -0.1202 0.0751
loop_
_geom_bond_atom_site_label_1
_geom_bond_atom_site_label_2
_geom_bond_site_symmetry_1
_geom_bond_site_symmetry_2
O1 C1 1_555 1_555
O2 C13 1_555 1_555
O3 C13 1_555 1_555
O4 C20 1_555 1_555
O5 C20 1_555 1_555
O6 C27 1_555 1_555
O7 C27 1_555 1_555
C1 C2 1_555 1_555
C2 C3 1_555 1_555
C3 H1 1_555 1_555
C4 C3 1_555 1_555
C5 C4 1_555 1_555
H2 C5 1_555 1_555
C6 C1 1_555 1_555
C7 C2 1_555 1_555
C8 C7 1_555 1_555
H3 C8 1_555 1_555
C9 C8 1_555 1_555
H4 C9 1_555 1_555
C10 C9 1_555 1_555
C11 C10 1_555 1_555
H5 C11 1_555 1_555
C12 C7 1_555 1_555
H6 C12 1_555 1_555
C13 C10 1_555 1_555
C14 C4 1_555 1_555
C15 C14 1_555 1_555
H7 C15 1_555 1_555
C16 C15 1_555 1_555
H8 C16 1_555 1_555
C17 C16 1_555 1_555
C18 C17 1_555 1_555
H9 C18 1_555 1_555
C19 C14 1_555 1_555
H10 C19 1_555 1_555
C20 C17 1_555 1_555
C21 C6 1_555 1_555
C22 C21 1_555 1_555
H11 C22 1_555 1_555
C23 C22 1_555 1_555
H12 C23 1_555 1_555
C24 C23 1_555 1_555
C25 C24 1_555 1_555
H13 C25 1_555 1_555
C26 C21 1_555 1_555
H14 C26 1_555 1_555
C27 C24 1_555 1_555
C28 O1 1_555 1_555
H15 C28 1_555 1_555
H16 C28 1_555 1_555
H17 C28 1_555 1_555
C29 O3 1_555 1_555
H18 C29 1_555 1_555
H19 C29 1_555 1_555
H20 C29 1_555 1_555
C30 O5 1_555 1_555
H21 C30 1_555 1_555
H22 C30 1_555 1_555
H23 C30 1_555 1_555
C31 O6 1_555 1_555
H24 C31 1_555 1_555
H25 C31 1_555 1_555
H26 C31 1_555 1_555
C5 C6 1_555 1_555
C11 C12 1_555 1_555
C18 C19 1_555 1_555
C25 C26 1_555 1_555

#END
