
#######################################################################
#
#                 Cambridge Crystallographic Data Centre
#                                CCDC 
#
#######################################################################
#
# If this CIF has been generated from an entry in the Cambridge 
# Structural Database, then it will include bibliographic, chemical, 
# crystal, experimental, refinement or atomic coordinate data resulting 
# from the CCDC's data processing and validation procedures.
#
#######################################################################

data_SABCOQ
_chemical_formula_moiety         'C28 H20 O6'
_chemical_name_systematic        
'2,4,6-tris(4-Carboxyphenyl)toluene unknown solvate'
_symmetry_cell_setting           orthorhombic
_symmetry_space_group_name_H-M   'C m c a'
_symmetry_Int_Tables_number      64
_space_group_name_Hall           '-C 2ac 2'
loop_
_symmetry_equiv_pos_site_id
_symmetry_equiv_pos_as_xyz
1 x,y,z
2 -x,1/2-y,1/2+z
3 x,-y,-z
4 -x,1/2+y,1/2-z
5 1/2+x,1/2+y,z
6 1/2-x,-y,1/2+z
7 1/2+x,1/2-y,-z
8 1/2-x,y,1/2-z
9 -x,-y,-z
10 x,1/2+y,1/2-z
11 -x,y,z
12 x,1/2-y,1/2+z
13 1/2-x,1/2-y,-z
14 1/2+x,y,1/2-z
15 1/2-x,1/2+y,z
16 1/2+x,-y,1/2+z
_cell_length_a                   30.4631(10)
_cell_length_b                   23.4366(8)
_cell_length_c                   8.4589(3)
_cell_angle_alpha                90
_cell_angle_beta                 90
_cell_angle_gamma                90
_cell_volume                     6039.24
_exptl_crystal_colour            colorless
_exptl_crystal_description       rod
_cell_formula_units_Z            8
loop_
_atom_site_label
_atom_site_type_symbol
_atom_site_fract_x
_atom_site_fract_y
_atom_site_fract_z
C1 C 0.5000 0.46707(6) 0.79496(16)
C2 C 0.5000 0.44169(6) 0.63461(16)
C3 C 0.46100(4) 0.43012(5) 0.55780(13)
H1 H 0.4339 0.4382 0.6086
C4 C 0.46108(3) 0.40685(5) 0.40759(13)
H2 H 0.4339 0.3990 0.3571
C5 C 0.5000 0.39467(5) 0.32870(15)
C6 C 0.5000 0.36890(5) 0.16743(15)
C7 C 0.46093(3) 0.35510(4) 0.09028(11)
H3 H 0.4338 0.3645 0.1392
C8 C 0.46052(3) 0.32799(4) -0.05625(11)
C9 C 0.5000 0.31466(5) -0.13351(15)
C10 C 0.5000 0.29019(6) -0.29906(16)
C11 C 0.41758(3) 0.31299(4) -0.12960(11)
C12 C 0.38722(4) 0.35458(5) -0.16816(14)
H4 H 0.3930 0.3932 -0.1415
C13 C 0.34860(4) 0.34060(5) -0.24501(17)
H5 H 0.3283 0.3697 -0.2723
C14 C 0.33943(4) 0.28440(5) -0.28234(13)
C15 C 0.36862(4) 0.24213(5) -0.23795(15)
H6 H 0.3620 0.2033 -0.2592
C16 C 0.40740(3) 0.25632(5) -0.16266(13)
H7 H 0.4273 0.2270 -0.1331
C17 C 0.29939(4) 0.26957(6) -0.37305(15)
O1 O 0.46326(3) 0.47756(3) 0.85960(9)
O2 O 0.27638(3) 0.30933(5) -0.42913(15)
H8 H 0.2569 0.2956 -0.4883
O3 O 0.29091(3) 0.21705(4) -0.39304(13)
C3J C 0.53900(4) 0.43012(5) 0.55780(13)
H1J H 0.5661 0.4382 0.6086
C4J C 0.53892(3) 0.40685(5) 0.40759(13)
H2J H 0.5661 0.3990 0.3571
C7J C 0.53907(3) 0.35510(4) 0.09028(11)
H3J H 0.5662 0.3645 0.1392
C8J C 0.53948(3) 0.32799(4) -0.05625(11)
C11J C 0.58242(3) 0.31299(4) -0.12960(11)
C12J C 0.61278(4) 0.35458(5) -0.16816(14)
H4J H 0.6070 0.3932 -0.1415
C13J C 0.65140(4) 0.34060(5) -0.24501(17)
H5J H 0.6717 0.3697 -0.2723
C14J C 0.66057(4) 0.28440(5) -0.28234(13)
C15J C 0.63138(4) 0.24213(5) -0.23795(15)
H6J H 0.6380 0.2033 -0.2592
C16J C 0.59260(3) 0.25632(5) -0.16266(13)
H7J H 0.5727 0.2270 -0.1331
C17J C 0.70061(4) 0.26957(6) -0.37305(15)
O1J O 0.53674(3) 0.47756(3) 0.85960(9)
O2J O 0.72362(3) 0.30933(5) -0.42913(15)
H8J H 0.7431 0.2956 -0.4883
O3J O 0.70909(3) 0.21705(4) -0.39304(13)
H9? H 0.2685 0.2137 -0.4502
H10? H 0.5060 0.2491 -0.2942
H11? H 0.4713 0.2966 -0.3480
H12? H 0.5228 0.3090 -0.3622
H13? H 0.46758(14) 0.4928(15) 0.952(3)
loop_
_geom_bond_atom_site_label_1
_geom_bond_atom_site_label_2
_geom_bond_site_symmetry_1
_geom_bond_site_symmetry_2
C1 C2 1_555 1_555
C2 C3 1_555 1_555
C3 H1 1_555 1_555
C4 C3 1_555 1_555
H2 C4 1_555 1_555
C5 C4 1_555 1_555
C6 C5 1_555 1_555
C7 C6 1_555 1_555
H3 C7 1_555 1_555
C8 C7 1_555 1_555
C9 C8 1_555 1_555
C10 C9 1_555 1_555
C11 C8 1_555 1_555
C12 C11 1_555 1_555
H4 C12 1_555 1_555
C13 C12 1_555 1_555
H5 C13 1_555 1_555
C14 C13 1_555 1_555
C15 C14 1_555 1_555
H6 C15 1_555 1_555
C16 C11 1_555 1_555
H7 C16 1_555 1_555
C17 C14 1_555 1_555
O1 C1 1_555 1_555
O2 C17 1_555 1_555
H8 O2 1_555 1_555
O3 C17 1_555 1_555
C3J C2 1_555 1_555
H1J C3J 1_555 1_555
C4J C5 1_555 1_555
H2J C4J 1_555 1_555
C7J C6 1_555 1_555
H3J C7J 1_555 1_555
C8J C9 1_555 1_555
C11J C8J 1_555 1_555
C12J C11J 1_555 1_555
H4J C12J 1_555 1_555
C13J C12J 1_555 1_555
H5J C13J 1_555 1_555
C14J C13J 1_555 1_555
C15J C14J 1_555 1_555
H6J C15J 1_555 1_555
C16J C11J 1_555 1_555
H7J C16J 1_555 1_555
C17J C14J 1_555 1_555
O1J C1 1_555 1_555
O2J C17J 1_555 1_555
H8J O2J 1_555 1_555
O3J C17J 1_555 1_555
C15 C16 1_555 1_555
C3J C4J 1_555 1_555
C7J C8J 1_555 1_555
C15J C16J 1_555 1_555

#END
