
#######################################################################
#
#                 Cambridge Crystallographic Data Centre
#                                CCDC 
#
#######################################################################
#
# If this CIF has been generated from an entry in the Cambridge 
# Structural Database, then it will include bibliographic, chemical, 
# crystal, experimental, refinement or atomic coordinate data resulting 
# from the CCDC's data processing and validation procedures.
#
#######################################################################

data_SABCOP
_chemical_formula_moiety         'C12 H12 N2 O2'
_chemical_name_systematic        '1,2,3,4-Tetrahydrophenazine 5,10-dioxide'
_symmetry_cell_setting           orthorhombic
_symmetry_space_group_name_H-M   'C m c m'
_symmetry_Int_Tables_number      63
_space_group_name_Hall           '-C 2n 2'
loop_
_symmetry_equiv_pos_site_id
_symmetry_equiv_pos_as_xyz
1 x,y,z
2 -x,-y,1/2+z
3 -x,y,1/2-z
4 x,-y,-z
5 1/2+x,1/2+y,z
6 1/2-x,1/2-y,1/2+z
7 1/2-x,1/2+y,1/2-z
8 1/2+x,1/2-y,-z
9 -x,-y,-z
10 x,y,1/2-z
11 x,-y,1/2+z
12 -x,y,z
13 1/2-x,1/2-y,-z
14 1/2+x,1/2+y,1/2-z
15 1/2+x,1/2-y,1/2+z
16 1/2-x,1/2+y,z
_cell_length_a                   11.7780(2)
_cell_length_b                   13.1938(3)
_cell_length_c                   6.55610(10)
_cell_angle_alpha                90
_cell_angle_beta                 90
_cell_angle_gamma                90
_cell_volume                     1018.8
_exptl_crystal_colour            yellow
_exptl_crystal_description       prism
_cell_formula_units_Z            4
loop_
_atom_site_label
_atom_site_type_symbol
_atom_site_fract_x
_atom_site_fract_y
_atom_site_fract_z
C1 C 0.55922(13) -0.14330(10) 0.2500
H1 H 0.5983 -0.2045 0.2500
C2 C 0.61858(12) -0.05388(9) 0.2500
H2 H 0.6975 -0.0544 0.2500
C3 C 0.55938(11) 0.03818(9) 0.2500
C4 C 0.55932(10) 0.21722(9) 0.2500
C5 C 0.62708(12) 0.31337(10) 0.2500
H3 H 0.6753(10) 0.3113(9) 0.131(2)
C6 C 0.55334(19) 0.40485(17) 0.3133(4)
N1 N 0.61839(10) 0.12976(7) 0.2500
O1 O 0.72839(9) 0.12938(6) 0.2500
C1B C 0.44078(13) -0.14330(10) 0.2500
H1B H 0.4017 -0.2045 0.2500
C2B C 0.38142(12) -0.05388(9) 0.2500
H2B H 0.3025 -0.0544 0.2500
C3B C 0.44062(11) 0.03818(9) 0.2500
C4B C 0.44068(10) 0.21722(9) 0.2500
C5B C 0.37292(12) 0.31337(10) 0.2500
H3B H 0.3247(10) 0.3113(9) 0.369(2)
H3K H 0.3247(10) 0.3113(9) 0.131(2)
H3I H 0.6753(10) 0.3113(9) 0.369(2)
C6B C 0.44666(19) 0.40485(17) 0.1867(4)
C6I C 0.55334(19) 0.40485(17) 0.1867(4)
C6K C 0.44666(19) 0.40485(17) 0.3133(4)
N1B N 0.38161(10) 0.12976(7) 0.2500
O1B O 0.27161(9) 0.12938(6) 0.2500
H4? H 0.593(2) 0.4669(19) 0.301(5)
H5? H 0.532(3) 0.3993(19) 0.460(4)
loop_
_geom_bond_atom_site_label_1
_geom_bond_atom_site_label_2
_geom_bond_site_symmetry_1
_geom_bond_site_symmetry_2
C1 H1 1_555 1_555
C2 C1 1_555 1_555
H2 C2 1_555 1_555
C3 C2 1_555 1_555
C4 C5 1_555 1_555
C5 H3 1_555 1_555
C6 C5 1_555 1_555
N1 C3 1_555 1_555
O1 N1 1_555 1_555
C1B C1 1_555 1_555
H1B C1B 1_555 1_555
C2B C1B 1_555 1_555
H2B C2B 1_555 1_555
C3B C3 1_555 1_555
C4B C4 1_555 1_555
C5B C4B 1_555 1_555
H3B C5B 1_555 1_555
H3K C5B 1_555 1_555
H3I C5 1_555 1_555
C6B C6 1_555 1_555
C6I C5 1_555 1_555
C6K C6 1_555 1_555
N1B C3B 1_555 1_555
O1B N1B 1_555 1_555
C4 N1 1_555 1_555
C6 C6I 1_555 1_555
C2B C3B 1_555 1_555
C4B N1B 1_555 1_555
C5B C6B 1_555 1_555
C5B C6K 1_555 1_555
C6B C6I 1_555 1_555
C6B C6K 1_555 1_555
C6I C6K 1_555 1_555

#END
