
#######################################################################
#
#                 Cambridge Crystallographic Data Centre
#                                CCDC 
#
#######################################################################
#
# If this CIF has been generated from an entry in the Cambridge 
# Structural Database, then it will include bibliographic, chemical, 
# crystal, experimental, refinement or atomic coordinate data resulting 
# from the CCDC's data processing and validation procedures.
#
#######################################################################

data_SABCUW
_chemical_formula_moiety         'C28 H20 O7'
_chemical_name_systematic        
'2,4,6-tris(4-Carboxyphenyl)anisole unknown solvate'
_symmetry_cell_setting           monoclinic
_symmetry_space_group_name_H-M   'C 2/c'
_symmetry_Int_Tables_number      15
_space_group_name_Hall           '-C 2yn'
loop_
_symmetry_equiv_pos_site_id
_symmetry_equiv_pos_as_xyz
1 x,y,z
2 -x,y,1/2-z
3 1/2+x,1/2+y,z
4 1/2-x,1/2+y,1/2-z
5 -x,-y,-z
6 x,-y,1/2+z
7 1/2-x,1/2-y,-z
8 1/2+x,1/2-y,1/2+z
_cell_length_a                   53.575(3)
_cell_length_b                   31.8450(18)
_cell_length_c                   25.6252(14)
_cell_angle_alpha                90
_cell_angle_beta                 118.323(3)
_cell_angle_gamma                90
_cell_volume                     38485.3
_exptl_crystal_colour            white
_exptl_crystal_description       block
_cell_formula_units_Z            24
loop_
_atom_site_label
_atom_site_type_symbol
_atom_site_fract_x
_atom_site_fract_y
_atom_site_fract_z
O1 O 0.20476(10) 0.72711(10) 0.4491(2)
H1 H 0.2105 0.7497 0.4416
C1 C 0.12488(9) 0.54110(13) 0.4106(2)
O2 O 0.22064(10) 0.70099(10) 0.3891(2)
C2 C 0.15169(9) 0.54169(13) 0.41318(19)
O3 O 0.22023(9) 0.30384(10) 0.39594(18)
C3 C 0.16466(10) 0.50327(13) 0.4168(2)
H2 H 0.1827 0.5031 0.4183
O4 O 0.20345(9) 0.27780(10) 0.45495(18)
H3 H 0.2095 0.2552 0.4482
C4 C 0.15267(10) 0.46536(13) 0.41837(19)
O5 O -0.00913(7) 0.46919(11) 0.40242(17)
C5 C 0.12654(11) 0.46670(13) 0.4174(2)
H4 H 0.1181 0.4410 0.4195
O6 O 0.00045(8) 0.53274(11) 0.44128(19)
H5 H -0.0127 0.5269 0.4490
C6 C 0.11218(10) 0.50386(13) 0.4134(2)
O7 O 0.11005(8) 0.57967(10) 0.40098(19)
C7 C 0.16573(11) 0.58231(13) 0.4136(2)
C8 C 0.16416(11) 0.61591(14) 0.4460(2)
H6 H 0.1539 0.6133 0.4676
C9 C 0.17756(11) 0.65354(14) 0.4471(2)
H7 H 0.1766 0.6766 0.4696
C10 C 0.19218(11) 0.65730(13) 0.4153(2)
C11 C 0.19439(11) 0.62460(14) 0.3840(2)
H8 H 0.2048 0.6276 0.3628
C12 C 0.18126(11) 0.58642(13) 0.3830(2)
H9 H 0.1829 0.5633 0.3615
C13 C 0.20656(12) 0.69776(15) 0.4172(3)
C14 C 0.16688(10) 0.42486(13) 0.4212(2)
C15 C 0.18343(11) 0.41999(14) 0.3934(2)
H10 H 0.1859 0.4432 0.3732
C16 C 0.19656(11) 0.38176(14) 0.3943(2)
H11 H 0.2080 0.3790 0.3753
C17 C 0.19249(11) 0.34813(13) 0.4234(2)
C18 C 0.17676(11) 0.35277(13) 0.4526(2)
H12 H 0.1750 0.3299 0.4744
C19 C 0.16350(11) 0.39038(13) 0.4507(2)
H13 H 0.1520 0.3927 0.4695
C20 C 0.20609(12) 0.30770(14) 0.4234(2)
C21 C 0.08416(10) 0.50302(13) 0.4135(2)
C22 C 0.06609(11) 0.46985(14) 0.3907(2)
H14 H 0.0710 0.4470 0.3736
C23 C 0.04053(10) 0.46934(15) 0.3923(2)
H15 H 0.0277 0.4468 0.3744
C24 C 0.03365(10) 0.50100(14) 0.4194(2)
C25 C 0.05215(11) 0.53423(15) 0.4442(2)
H16 H 0.0475 0.5569 0.4621
C26 C 0.07741(10) 0.53407(15) 0.4426(2)
H17 H 0.0907 0.5559 0.4621
C27 C 0.00659(11) 0.50048(15) 0.4206(2)
C28 C 0.08877(17) 0.5862(2) 0.3409(3)
H18 H 0.0977 0.5872 0.3152
H19 H 0.0790 0.6128 0.3379
H20 H 0.0751 0.5631 0.3284
O8 O 0.25680(9) 0.69279(11) 0.29921(19)
H21 H 0.2639 0.7127 0.2891
C29 C 0.19715(9) 0.48651(14) 0.2603(2)
O9 O 0.21798(9) 0.71197(11) 0.21841(19)
C30 C 0.18334(9) 0.52422(13) 0.2560(2)
O10 O 0.02164(8) 0.51580(12) 0.2376(2)
H22 H 0.0042 0.5118 0.2247
C31 C 0.15572(10) 0.52250(14) 0.2498(2)
H23 H 0.1460 0.5480 0.2474
O11 O 0.02376(8) 0.44630(12) 0.24676(18)
C32 C 0.14237(9) 0.48491(14) 0.24706(19)
O12 O 0.26078(9) 0.28488(11) 0.2894(2)
H24 H 0.2649 0.2593 0.2905
C33 C 0.15666(9) 0.44810(13) 0.2488(2)
H25 H 0.1476 0.4219 0.2461
O13 O 0.22199(9) 0.26557(11) 0.20814(19)
C34 C 0.18390(9) 0.44815(12) 0.25423(18)
O14 O 0.22521(7) 0.48757(9) 0.27154(15)
C35 C 0.19710(9) 0.56597(13) 0.2590(2)
C36 C 0.18053(11) 0.59646(15) 0.2164(2)
H26 H 0.1616 0.5903 0.1877
C37 C 0.19237(11) 0.63559(15) 0.2169(2)
H27 H 0.1815 0.6562 0.1882
C38 C 0.21939(11) 0.64434(14) 0.2584(2)
C39 C 0.23564(11) 0.61436(14) 0.2995(2)
H28 H 0.2547 0.6202 0.3277
C40 C 0.22369(11) 0.57553(15) 0.2989(2)
H29 H 0.2348 0.5552 0.3277
C41 C 0.23178(12) 0.68547(15) 0.2579(2)
C42 C 0.11398(10) 0.48355(14) 0.2435(2)
C43 C 0.09634(12) 0.51750(16) 0.2247(3)
H30 H 0.1020 0.5420 0.2120
C44 C 0.07032(12) 0.51689(17) 0.2238(3)
H31 H 0.0583 0.5408 0.2104
C45 C 0.06175(10) 0.48201(16) 0.2421(2)
C46 C 0.07848(11) 0.44691(17) 0.2594(3)
H32 H 0.0722 0.4220 0.2700
C47 C 0.10513(12) 0.44822(17) 0.2614(3)
H33 H 0.1173 0.4244 0.2753
C48 C 0.03384(10) 0.48107(18) 0.2418(2)
C49 C 0.19833(10) 0.40778(13) 0.2547(2)
C50 C 0.22620(11) 0.39938(15) 0.2947(2)
H34 H 0.2373 0.4196 0.3238
C51 C 0.23780(11) 0.36164(15) 0.2923(2)
H35 H 0.2571 0.3562 0.3199
C52 C 0.22247(11) 0.33127(13) 0.2510(2)
C53 C 0.19503(11) 0.33946(14) 0.2099(2)
H36 H 0.1845 0.3192 0.1803
C54 C 0.18248(11) 0.37738(14) 0.2114(2)
H37 H 0.1633 0.3828 0.1833
C55 C 0.23520(12) 0.29100(16) 0.2479(3)
C56 C 0.22952(13) 0.4901(2) 0.2210(3)
H38 H 0.2213 0.4654 0.1959
H39 H 0.2499 0.4913 0.2338
H40 H 0.2204 0.5156 0.1984
O15 O 0.27063(10) 0.29798(11) 0.0479(2)
C57 C 0.22315(10) 0.50234(12) 0.0776(2)
O16 O 0.25433(10) 0.27302(10) 0.10804(19)
H42 H 0.2614 0.2508 0.1030
C58 C 0.20902(9) 0.46460(13) 0.07340(18)
C59 C 0.18283(10) 0.46676(13) 0.0722(2)
H43 H 0.1731 0.4414 0.0701
O17 O 0.05663(7) 0.46771(10) 0.09208(17)
H44 H 0.0461 0.4727 0.1073
O18 O 0.04891(7) 0.53452(11) 0.06342(17)
C60 C 0.17054(10) 0.50389(12) 0.0737(2)
C61 C 0.18445(10) 0.54044(13) 0.0766(2)
H45 H 0.1759 0.5664 0.0776
O19 O 0.25823(9) 0.73120(10) 0.11084(18)
H46 H 0.2646 0.7538 0.1049
C62 C 0.21113(10) 0.54094(12) 0.07823(19)
O20 O 0.27351(9) 0.70606(10) 0.04936(19)
C63 C 0.22185(10) 0.42266(13) 0.0742(2)
O21 O 0.25002(8) 0.50131(9) 0.08184(18)
C64 C 0.23511(11) 0.41504(14) 0.0407(2)
H47 H 0.2362 0.4365 0.0161
C65 C 0.24686(11) 0.37616(14) 0.0427(3)
H48 H 0.2564 0.3714 0.0200
C66 C 0.24513(11) 0.34393(14) 0.0770(2)
C67 C 0.23108(11) 0.35108(14) 0.1097(2)
H49 H 0.2293 0.3291 0.1328
C68 C 0.21962(11) 0.39035(14) 0.1087(2)
H50 H 0.2102 0.3953 0.1315
C69 C 0.25756(13) 0.30306(14) 0.0779(3)
C70 C 0.14284(10) 0.50450(12) 0.0758(2)
C71 C 0.13499(10) 0.47011(14) 0.0970(2)
H51 H 0.1472 0.4465 0.1104
C72 C 0.10965(11) 0.46903(15) 0.0992(2)
H52 H 0.1045 0.4450 0.1139
C73 C 0.09219(10) 0.50360(13) 0.0796(2)
C74 C 0.10017(10) 0.53852(14) 0.0599(2)
H53 H 0.0883 0.5626 0.0480
C75 C 0.12529(11) 0.53923(14) 0.0571(2)
H54 H 0.1304 0.5633 0.0425
C76 C 0.06408(11) 0.50227(15) 0.0783(2)
C77 C 0.22556(9) 0.58189(12) 0.0814(2)
C78 C 0.23849(10) 0.58946(13) 0.0466(2)
H55 H 0.2390 0.5678 0.0216
C79 C 0.25058(10) 0.62763(13) 0.0477(2)
H56 H 0.2600 0.6318 0.0246
C80 C 0.24921(11) 0.65988(13) 0.0817(2)
C81 C 0.23605(11) 0.65370(15) 0.1163(2)
H57 H 0.2351 0.6758 0.1402
C82 C 0.22412(11) 0.61422(14) 0.1156(2)
H58 H 0.2149 0.6098 0.1390
C83 C 0.26154(11) 0.70141(14) 0.0801(2)
C84 C 0.27158(15) 0.5000(2) 0.1409(4)
H59 H 0.2901 0.4985 0.1418
H60 H 0.2690 0.4752 0.1605
H61 H 0.2707 0.5254 0.1616
H41? H 0.0091 0.4504 0.2487
loop_
_geom_bond_atom_site_label_1
_geom_bond_atom_site_label_2
_geom_bond_site_symmetry_1
_geom_bond_site_symmetry_2
O1 H1 1_555 1_555
C1 C2 1_555 1_555
O2 C13 1_555 1_555
C2 C3 1_555 1_555
O3 C20 1_555 1_555
C3 H2 1_555 1_555
O4 H3 1_555 1_555
C4 C3 1_555 1_555
O5 C27 1_555 1_555
C5 C4 1_555 1_555
H4 C5 1_555 1_555
O6 H5 1_555 1_555
C6 C1 1_555 1_555
O7 C1 1_555 1_555
C7 C2 1_555 1_555
C8 C7 1_555 1_555
H6 C8 1_555 1_555
C9 C8 1_555 1_555
H7 C9 1_555 1_555
C10 C9 1_555 1_555
C11 C10 1_555 1_555
H8 C11 1_555 1_555
C12 C7 1_555 1_555
H9 C12 1_555 1_555
C13 O1 1_555 1_555
C14 C4 1_555 1_555
C15 C14 1_555 1_555
H10 C15 1_555 1_555
C16 C15 1_555 1_555
H11 C16 1_555 1_555
C17 C16 1_555 1_555
C18 C17 1_555 1_555
H12 C18 1_555 1_555
C19 C14 1_555 1_555
H13 C19 1_555 1_555
C20 O4 1_555 1_555
C21 C6 1_555 1_555
C22 C21 1_555 1_555
H14 C22 1_555 1_555
C23 C22 1_555 1_555
H15 C23 1_555 1_555
C24 C23 1_555 1_555
C25 C24 1_555 1_555
H16 C25 1_555 1_555
C26 C21 1_555 1_555
H17 C26 1_555 1_555
C27 O6 1_555 1_555
C28 O7 1_555 1_555
H18 C28 1_555 1_555
H19 C28 1_555 1_555
H20 C28 1_555 1_555
O8 H21 1_555 1_555
C29 C30 1_555 1_555
O9 C41 1_555 1_555
C30 C31 1_555 1_555
O10 H22 1_555 1_555
C31 H23 1_555 1_555
O11 C48 1_555 1_555
C32 C31 1_555 1_555
O12 H24 1_555 1_555
C33 C32 1_555 1_555
H25 C33 1_555 1_555
O13 C55 1_555 1_555
C34 C29 1_555 1_555
O14 C29 1_555 1_555
C35 C30 1_555 1_555
C36 C35 1_555 1_555
H26 C36 1_555 1_555
C37 C36 1_555 1_555
H27 C37 1_555 1_555
C38 C37 1_555 1_555
C39 C38 1_555 1_555
H28 C39 1_555 1_555
C40 C35 1_555 1_555
H29 C40 1_555 1_555
C41 O8 1_555 1_555
C42 C32 1_555 1_555
C43 C42 1_555 1_555
H30 C43 1_555 1_555
C44 C43 1_555 1_555
H31 C44 1_555 1_555
C45 C44 1_555 1_555
C46 C45 1_555 1_555
H32 C46 1_555 1_555
C47 C42 1_555 1_555
H33 C47 1_555 1_555
C48 O10 1_555 1_555
C49 C34 1_555 1_555
C50 C49 1_555 1_555
H34 C50 1_555 1_555
C51 C50 1_555 1_555
H35 C51 1_555 1_555
C52 C51 1_555 1_555
C53 C52 1_555 1_555
H36 C53 1_555 1_555
C54 C49 1_555 1_555
H37 C54 1_555 1_555
C55 O12 1_555 1_555
C56 O14 1_555 1_555
H38 C56 1_555 1_555
H39 C56 1_555 1_555
H40 C56 1_555 1_555
O15 C69 1_555 1_555
C57 C58 1_555 1_555
O16 H42 1_555 1_555
C58 C59 1_555 1_555
C59 H43 1_555 1_555
O17 H44 1_555 1_555
O18 C76 1_555 1_555
C60 C59 1_555 1_555
C61 C60 1_555 1_555
H45 C61 1_555 1_555
O19 H46 1_555 1_555
C62 C57 1_555 1_555
O20 C83 1_555 1_555
C63 C58 1_555 1_555
O21 C57 1_555 1_555
C64 C63 1_555 1_555
H47 C64 1_555 1_555
C65 C64 1_555 1_555
H48 C65 1_555 1_555
C66 C65 1_555 1_555
C67 C66 1_555 1_555
H49 C67 1_555 1_555
C68 C63 1_555 1_555
H50 C68 1_555 1_555
C69 O16 1_555 1_555
C70 C60 1_555 1_555
C71 C70 1_555 1_555
H51 C71 1_555 1_555
C72 C71 1_555 1_555
H52 C72 1_555 1_555
C73 C72 1_555 1_555
C74 C73 1_555 1_555
H53 C74 1_555 1_555
C75 C70 1_555 1_555
H54 C75 1_555 1_555
C76 O17 1_555 1_555
C77 C62 1_555 1_555
C78 C77 1_555 1_555
H55 C78 1_555 1_555
C79 C78 1_555 1_555
H56 C79 1_555 1_555
C80 C79 1_555 1_555
C81 C80 1_555 1_555
H57 C81 1_555 1_555
C82 C77 1_555 1_555
H58 C82 1_555 1_555
C83 O19 1_555 1_555
C84 O21 1_555 1_555
H59 C84 1_555 1_555
H60 C84 1_555 1_555
H61 C84 1_555 1_555
C5 C6 1_555 1_555
C10 C13 1_555 1_555
C11 C12 1_555 1_555
C17 C20 1_555 1_555
C18 C19 1_555 1_555
C24 C27 1_555 1_555
C25 C26 1_555 1_555
C33 C34 1_555 1_555
C38 C41 1_555 1_555
C39 C40 1_555 1_555
C45 C48 1_555 1_555
C46 C47 1_555 1_555
C52 C55 1_555 1_555
C53 C54 1_555 1_555
C61 C62 1_555 1_555
C66 C69 1_555 1_555
C67 C68 1_555 1_555
C73 C76 1_555 1_555
C74 C75 1_555 1_555
C80 C83 1_555 1_555
C81 C82 1_555 1_555

#END
