
#######################################################################
#
#                 Cambridge Crystallographic Data Centre
#                                CCDC 
#
#######################################################################
#
# If this CIF has been generated from an entry in the Cambridge 
# Structural Database, then it will include bibliographic, chemical, 
# crystal, experimental, refinement or atomic coordinate data resulting 
# from the CCDC's data processing and validation procedures.
#
#######################################################################

data_SABCIK
_chemical_formula_moiety         'C27 H23 N1 O2'
_chemical_name_systematic        2,4,6-Tri-p-tolylnitrobenzene
_symmetry_cell_setting           orthorhombic
_symmetry_space_group_name_H-M   'P b c a'
_symmetry_Int_Tables_number      61
_space_group_name_Hall           '-P 2ac 2ab'
loop_
_symmetry_equiv_pos_site_id
_symmetry_equiv_pos_as_xyz
1 x,y,z
2 1/2-x,-y,1/2+z
3 -x,1/2+y,1/2-z
4 1/2+x,1/2-y,-z
5 -x,-y,-z
6 1/2+x,y,1/2-z
7 x,1/2-y,1/2+z
8 1/2-x,1/2+y,z
_cell_length_a                   12.7521(4)
_cell_length_b                   12.5544(4)
_cell_length_c                   26.1460(8)
_cell_angle_alpha                90
_cell_angle_beta                 90
_cell_angle_gamma                90
_cell_volume                     4185.84
_exptl_crystal_colour            colorless
_exptl_crystal_description       rod
_cell_formula_units_Z            8
loop_
_atom_site_label
_atom_site_type_symbol
_atom_site_fract_x
_atom_site_fract_y
_atom_site_fract_z
C1 C 0.14415(11) 0.28114(10) 0.34566(5)
C2 C 0.23368(11) 0.34247(10) 0.33805(5)
C3 C 0.32324(10) 0.31470(10) 0.36601(5)
H1 H 0.3860 0.3543 0.3614
C4 C 0.32203(10) 0.22969(10) 0.40061(5)
C5 C 0.23016(11) 0.17084(10) 0.40622(5)
H2 H 0.2295 0.1128 0.4296
C6 C 0.13922(11) 0.19387(10) 0.37890(5)
C7 C 0.23753(11) 0.43588(10) 0.30261(5)
C8 C 0.16482(11) 0.51838(11) 0.30540(5)
H3 H 0.1103 0.5159 0.3301
C9 C 0.17164(11) 0.60467(11) 0.27200(5)
H4 H 0.1216 0.6605 0.2743
C10 C 0.25074(11) 0.61046(11) 0.23518(5)
C11 C 0.32343(11) 0.52797(11) 0.23295(5)
H5 H 0.3779 0.5304 0.2082
C12 C 0.31770(11) 0.44204(11) 0.26630(5)
H6 H 0.3687 0.3870 0.2644
C13 C 0.25617(13) 0.70190(12) 0.19796(5)
H7 H 0.1884 0.7386 0.1971
H8 H 0.2728 0.6747 0.1638
H9 H 0.3108 0.7519 0.2088
C14 C 0.41574(11) 0.20086(10) 0.43122(5)
C15 C 0.51531(11) 0.19391(12) 0.40931(5)
H10 H 0.5249 0.2125 0.3744
C16 C 0.60042(11) 0.16000(11) 0.43818(5)
H11 H 0.6674 0.1547 0.4225
C17 C 0.58960(11) 0.13354(10) 0.48970(5)
C18 C 0.49090(12) 0.14295(11) 0.51186(5)
H12 H 0.4819 0.1266 0.5471
C19 C 0.40522(11) 0.17598(11) 0.48308(5)
H13 H 0.3384 0.1817 0.4989
C20 C 0.68182(12) 0.09344(12) 0.52017(6)
H14 H 0.6643 0.0943 0.5567
H15 H 0.7426 0.1395 0.5140
H16 H 0.6985 0.0205 0.5096
C21 C 0.04585(11) 0.12391(10) 0.38445(5)
C22 C -0.00035(11) 0.07470(11) 0.34225(5)
H17 H 0.0258 0.0889 0.3089
C23 C -0.08423(11) 0.00519(11) 0.34846(5)
H18 H -0.1137 -0.0286 0.3193
C24 C -0.12589(11) -0.01575(11) 0.39670(5)
C25 C -0.07822(12) 0.03248(11) 0.43885(5)
H19 H -0.1046 0.0184 0.4722
C26 C 0.00669(11) 0.10049(11) 0.43321(5)
H20 H 0.0384 0.1313 0.4626
C27 C -0.22055(12) -0.08623(12) 0.40305(6)
H21 H -0.2073 -0.1383 0.4302
H22 H -0.2345 -0.1237 0.3709
H23 H -0.2815 -0.0426 0.4121
N1 N 0.04715(9) 0.30993(9) 0.31772(4)
O1 O 0.04502(9) 0.29663(9) 0.27127(4)
O2 O -0.02582(8) 0.34588(9) 0.34304(4)
H24? H 0.3263 0.7048 0.1827
H25? H 0.2419 0.7688 0.2160
H26? H 0.2038 0.6916 0.1710
loop_
_geom_bond_atom_site_label_1
_geom_bond_atom_site_label_2
_geom_bond_site_symmetry_1
_geom_bond_site_symmetry_2
C1 C2 1_555 1_555
C2 C3 1_555 1_555
C3 H1 1_555 1_555
C4 C3 1_555 1_555
C5 C4 1_555 1_555
H2 C5 1_555 1_555
C6 C1 1_555 1_555
C7 C2 1_555 1_555
C8 C7 1_555 1_555
H3 C8 1_555 1_555
C9 C8 1_555 1_555
H4 C9 1_555 1_555
C10 C9 1_555 1_555
C11 C10 1_555 1_555
H5 C11 1_555 1_555
C12 C7 1_555 1_555
H6 C12 1_555 1_555
C13 C10 1_555 1_555
H7 C13 1_555 1_555
H8 C13 1_555 1_555
H9 C13 1_555 1_555
C14 C4 1_555 1_555
C15 C14 1_555 1_555
H10 C15 1_555 1_555
C16 C15 1_555 1_555
H11 C16 1_555 1_555
C17 C16 1_555 1_555
C18 C17 1_555 1_555
H12 C18 1_555 1_555
C19 C14 1_555 1_555
H13 C19 1_555 1_555
C20 C17 1_555 1_555
H14 C20 1_555 1_555
H15 C20 1_555 1_555
H16 C20 1_555 1_555
C21 C6 1_555 1_555
C22 C21 1_555 1_555
H17 C22 1_555 1_555
C23 C22 1_555 1_555
H18 C23 1_555 1_555
C24 C23 1_555 1_555
C25 C24 1_555 1_555
H19 C25 1_555 1_555
C26 C21 1_555 1_555
H20 C26 1_555 1_555
C27 C24 1_555 1_555
H21 C27 1_555 1_555
H22 C27 1_555 1_555
H23 C27 1_555 1_555
N1 C1 1_555 1_555
O1 N1 1_555 1_555
O2 N1 1_555 1_555
C5 C6 1_555 1_555
C11 C12 1_555 1_555
C18 C19 1_555 1_555
C25 C26 1_555 1_555

#END
