
#######################################################################
#
#                 Cambridge Crystallographic Data Centre
#                                CCDC 
#
#######################################################################
#
# If this CIF has been generated from an entry in the Cambridge 
# Structural Database, then it will include bibliographic, chemical, 
# crystal, experimental, refinement or atomic coordinate data resulting 
# from the CCDC's data processing and validation procedures.
#
#######################################################################

data_SABDUW
_chemical_name_common            
7'-Methyl-5'-oxo-2',3'-dihydrospiro[1,3-dioxolane-2,1'(5'H)-indolizine]-6'-carbonitrile
_chemical_formula_moiety         'C12 H12 N2 O3'
_chemical_name_systematic        
7'-Methyl-5'-oxo-2',3'-dihydro-5'H-spiro[1,3-dioxolane-2,1'-indolizine]-6'-carbonitrile
_symmetry_cell_setting           orthorhombic
_symmetry_space_group_name_H-M   'P n a 21'
_symmetry_Int_Tables_number      33
_space_group_name_Hall           'P 2c -2n'
loop_
_symmetry_equiv_pos_site_id
_symmetry_equiv_pos_as_xyz
1 x,y,z
2 -x,-y,1/2+z
3 1/2+x,1/2-y,z
4 1/2-x,1/2+y,1/2+z
_cell_length_a                   7.9460(16)
_cell_length_b                   25.945(5)
_cell_length_c                   5.3430(11)
_cell_angle_alpha                90
_cell_angle_beta                 90
_cell_angle_gamma                90
_cell_volume                     1101.51
_exptl_crystal_colour            colorless
_exptl_crystal_description       block
_cell_formula_units_Z            4
loop_
_atom_site_label
_atom_site_type_symbol
_atom_site_fract_x
_atom_site_fract_y
_atom_site_fract_z
N1 N 0.6878(4) 0.41701(10) 0.1075(7)
O1 O 1.0548(3) 0.42931(10) -0.0779(6)
C1 C 1.1570(5) 0.39063(18) -0.1891(10)
H1 H 1.1499 0.3586 -0.0963
H2 H 1.2737 0.4015 -0.1965
O2 O 0.9270(3) 0.41052(10) -0.4426(6)
C2 C 1.0842(5) 0.38466(17) -0.4486(10)
H3 H 1.1579 0.4001 -0.5724
H4 H 1.0690 0.3485 -0.4892
N2 N 0.3916(5) 0.29581(15) 0.6093(9)
O3 O 0.5035(3) 0.42382(11) 0.4332(7)
C3 C 0.8959(5) 0.42629(15) -0.1938(8)
C4 C 0.7840(4) 0.38909(13) -0.0515(8)
C5 C 0.7124(5) 0.47294(14) 0.0789(9)
H5 H 0.7800 0.4868 0.2142
H6 H 0.6055 0.4910 0.0735
C6 C 0.8043(5) 0.47679(15) -0.1705(9)
H7 H 0.7254 0.4813 -0.3072
H8 H 0.8828 0.5054 -0.1701
C7 C 0.7736(4) 0.33684(13) -0.0581(8)
H9 H 0.8364 0.3182 -0.1736
C8 C 0.6665(4) 0.31108(13) 0.1120(8)
C9 C 0.5774(4) 0.34061(15) 0.2809(8)
C10 C 0.5825(5) 0.39580(15) 0.2880(8)
C11 C 0.6517(5) 0.25394(13) 0.1031(9)
H10 H 0.5747 0.2426 0.2301
H11 H 0.7602 0.2387 0.1318
H12 H 0.6107 0.2436 -0.0583
C12 C 0.4728(5) 0.31630(16) 0.4644(10)
loop_
_geom_bond_atom_site_label_1
_geom_bond_atom_site_label_2
_geom_bond_site_symmetry_1
_geom_bond_site_symmetry_2
N1 C4 1_555 1_555
O1 C1 1_555 1_555
C1 H1 1_555 1_555
H2 C1 1_555 1_555
O2 C2 1_555 1_555
C2 C1 1_555 1_555
H3 C2 1_555 1_555
H4 C2 1_555 1_555
N2 C12 1_555 1_555
O3 C10 1_555 1_555
C3 O1 1_555 1_555
C4 C3 1_555 1_555
C5 N1 1_555 1_555
H5 C5 1_555 1_555
H6 C5 1_555 1_555
C6 C3 1_555 1_555
H7 C6 1_555 1_555
H8 C6 1_555 1_555
C7 C4 1_555 1_555
H9 C7 1_555 1_555
C8 C7 1_555 1_555
C9 C8 1_555 1_555
C10 N1 1_555 1_555
C11 C8 1_555 1_555
H10 C11 1_555 1_555
H11 C11 1_555 1_555
H12 C11 1_555 1_555
C12 C9 1_555 1_555
O2 C3 1_555 1_555
C5 C6 1_555 1_555
C9 C10 1_555 1_555

#END
