
#######################################################################
#
#                 Cambridge Crystallographic Data Centre
#                                CCDC 
#
#######################################################################
#
# If this CIF has been generated from an entry in the Cambridge 
# Structural Database, then it will include bibliographic, chemical, 
# crystal, experimental, refinement or atomic coordinate data resulting 
# from the CCDC's data processing and validation procedures.
#
#######################################################################

data_SABDUX
_chemical_formula_moiety         'C27 H17 N1 O8'
_chemical_name_systematic        
'2,4,6-tris(4-Carboxypheny)nitrobenzene unknown solvate'
_symmetry_cell_setting           orthorhombic
_symmetry_space_group_name_H-M   'I b a 2'
_symmetry_Int_Tables_number      45
_space_group_name_Hall           'I 2 -2c'
loop_
_symmetry_equiv_pos_site_id
_symmetry_equiv_pos_as_xyz
1 x,y,z
2 -x,-y,z
3 1/2+x,1/2-y,z
4 1/2-x,1/2+y,z
5 1/2+x,1/2+y,1/2+z
6 1/2-x,1/2-y,1/2+z
7 x,-y,1/2+z
8 -x,y,1/2+z
_cell_length_a                   14.692(9)
_cell_length_b                   29.009(18)
_cell_length_c                   31.930(19)
_cell_angle_alpha                90
_cell_angle_beta                 90
_cell_angle_gamma                90
_cell_volume                     13608.6
_exptl_crystal_colour            colorless
_exptl_crystal_description       block
_cell_formula_units_Z            16
loop_
_atom_site_label
_atom_site_type_symbol
_atom_site_fract_x
_atom_site_fract_y
_atom_site_fract_z
C1 C 0.7734(5) 0.3441(3) -0.0505(4)
O1 O 0.6177(5) 0.3298(3) -0.0583(4)
N1 N 0.6907(7) 0.3122(4) -0.0551(4)
C2 C 0.8057(7) 0.3566(4) -0.0136(3)
O2 O 0.7074(5) 0.2699(3) -0.0531(5)
C3 C 0.8831(8) 0.3893(3) -0.0141(3)
H1 H 0.9069 0.4014 0.0113
O3 O 0.6437(10) 0.3303(4) 0.1681(3)
C4 C 0.9194(5) 0.4016(2) -0.0517(4)
O4 O 0.6648(9) 0.2578(4) 0.1512(3)
H2 H 0.6545 0.2542 0.1769
C5 C 0.8772(8) 0.3850(3) -0.0878(4)
H3 H 0.9039 0.3929 -0.1140
O5 O 0.6626(9) 0.2558(5) -0.2604(3)
C6 C 0.8050(9) 0.3597(4) -0.0887(4)
O6 O 0.6422(10) 0.3297(5) -0.2795(4)
H4 H 0.6475 0.3189 -0.3038
C7 C 0.7672(8) 0.3409(5) 0.0243(4)
O7 O 1.2792(7) 0.5174(4) -0.0867(4)
H5 H 1.3263 0.5336 -0.0845
C8 C 0.7625(9) 0.2950(5) 0.0341(4)
H6 H 0.7809 0.2724 0.0143
O8 O 1.2827(7) 0.5211(4) -0.0157(4)
C9 C 0.7305(9) 0.2816(6) 0.0736(4)
H7 H 0.7283 0.2499 0.0810
C10 C 0.7011(9) 0.3160(6) 0.1027(4)
C11 C 0.7045(9) 0.3608(6) 0.0934(4)
H8 H 0.6828 0.3828 0.1130
C12 C 0.7404(10) 0.3758(5) 0.0545(4)
H9 H 0.7468 0.4077 0.0484
C13 C 0.6682(11) 0.2994(7) 0.1431(4)
C14 C 0.7653(9) 0.3424(6) -0.1336(4)
C15 C 0.7597(10) 0.2991(6) -0.1435(4)
H10 H 0.7816 0.2767 -0.1243
C16 C 0.7220(12) 0.2841(6) -0.1819(6)
H11 H 0.7134 0.2520 -0.1867
C17 C 0.6992(12) 0.3132(8) -0.2104(6)
C18 C 0.7065(14) 0.3611(7) -0.1992(5)
H12 H 0.6886 0.3843 -0.2184
C19 C 0.7393(13) 0.3729(6) -0.1605(5)
H13 H 0.7431 0.4046 -0.1533
C20 C 0.6625(15) 0.2984(10) -0.2524(6)
C21 C 1.0026(3) 0.4303(2) -0.0507(3)
C22 C 1.0404(6) 0.4438(4) -0.0887(3)
H14 H 1.0121 0.4351 -0.1143
C23 C 1.1195(6) 0.4701(4) -0.0893(3)
H15 H 1.1453 0.4793 -0.1152
C24 C 1.1608(3) 0.4829(2) -0.0519(4)
C25 C 1.1231(6) 0.4694(4) -0.0139(3)
H16 H 1.1513 0.4781 0.0117
C26 C 1.0440(6) 0.4431(4) -0.0133(3)
H17 H 1.0182 0.4338 0.0127
C27 C 1.2447(6) 0.5105(3) -0.0499(7)
N2 N 0.3060(12) 0.1589(7) 0.3701(5)
O9 O 0.2594(14) 0.1867(6) 0.3508(6)
O10 O 0.3136(16) 0.1213(7) 0.3522(7)
C28 C 0.3557(7) 0.1739(4) 0.4079(3)
C29 C 0.4377(7) 0.1991(3) 0.4086(3)
C30 C 0.4776(5) 0.2130(3) 0.4470(5)
H18 H 0.5321 0.2307 0.4467
O11 O 0.5962(8) 0.3023(4) 0.2460(3)
H19 H 0.6083 0.3077 0.2208
C31 C 0.4398(9) 0.2017(5) 0.4833(4)
O12 O 0.6051(8) 0.2297(4) 0.2239(3)
C32 C 0.3580(8) 0.1753(4) 0.4830(4)
H20 H 0.3311 0.1659 0.5087
O13 O -0.0564(8) 0.0530(5) 0.4138(4)
C33 C 0.3157(5) 0.1628(3) 0.4437(5)
O14 O -0.0705(9) 0.0685(5) 0.4817(5)
H21 H -0.1254 0.0611 0.4786
O15 O 0.6019(9) 0.2301(4) 0.6686(4)
H22 H 0.6388 0.2394 0.6869
O16 O 0.5882(9) 0.3038(5) 0.6489(4)
C34 C 0.4791(6) 0.2144(3) 0.36796(18)
C35 C 0.4941(7) 0.1831(2) 0.3358(2)
H23 H 0.4803 0.1514 0.3398
C36 C 0.5293(7) 0.1981(3) 0.2977(2)
H24 H 0.5396 0.1766 0.2758
C37 C 0.5495(6) 0.2444(3) 0.2919(2)
C38 C 0.5345(6) 0.2758(2) 0.3241(3)
H25 H 0.5482 0.3075 0.3200
C39 C 0.4993(6) 0.2608(3) 0.3621(2)
H26 H 0.4890 0.2822 0.3841
C40 C 0.5857(9) 0.2575(5) 0.2515(4)
C41 C 0.2264(6) 0.1385(3) 0.4445(4)
C42 C 0.2065(8) 0.1060(5) 0.4168(4)
H27 H 0.2510 0.0981 0.3964
C43 C 0.1243(9) 0.0829(4) 0.4161(5)
H28 H 0.1107 0.0608 0.3950
C44 C 0.0628(6) 0.0933(4) 0.4475(5)
C45 C 0.0773(9) 0.1271(4) 0.4732(5)
H29 H 0.0312 0.1350 0.4927
C46 C 0.1584(8) 0.1522(4) 0.4731(4)
H30 H 0.1674 0.1775 0.4915
C47 C -0.0281(8) 0.0692(4) 0.4432(6)
C48 C 0.4794(7) 0.2157(5) 0.5244(4)
C49 C 0.5044(13) 0.2607(6) 0.5311(5)
H31 H 0.4997 0.2821 0.5087
C50 C 0.5363(11) 0.2757(6) 0.5695(6)
H32 H 0.5481 0.3076 0.5739
C51 C 0.5510(8) 0.2448(6) 0.6012(4)
C52 C 0.5311(8) 0.1999(5) 0.5938(3)
H33 H 0.5424 0.1777 0.6150
C53 C 0.4935(8) 0.1854(5) 0.5546(4)
H34 H 0.4785 0.1539 0.5503
C54 C 0.5823(11) 0.2645(9) 0.6423(5)
H35? H 0.3293 0.1649 0.3820
N3? N 0.3156(13) 0.1662(9) 0.5243(6)
O17? O 0.2756(17) 0.1972(8) 0.5431(6)
O18? O 0.3211(17) 0.1226(8) 0.5369(7)
loop_
_geom_bond_atom_site_label_1
_geom_bond_atom_site_label_2
_geom_bond_site_symmetry_1
_geom_bond_site_symmetry_2
C1 N1 1_555 1_555
O1 N1 1_555 1_555
N1 O2 1_555 1_555
C2 C1 1_555 1_555
C3 C2 1_555 1_555
H1 C3 1_555 1_555
O3 C13 1_555 1_555
C4 C3 1_555 1_555
O4 H2 1_555 1_555
C5 C4 1_555 1_555
H3 C5 1_555 1_555
O5 C20 1_555 1_555
C6 C1 1_555 1_555
O6 H4 1_555 1_555
C7 C2 1_555 1_555
O7 H5 1_555 1_555
C8 C7 1_555 1_555
H6 C8 1_555 1_555
O8 C27 1_555 1_555
C9 C8 1_555 1_555
H7 C9 1_555 1_555
C10 C9 1_555 1_555
C11 C10 1_555 1_555
H8 C11 1_555 1_555
C12 C7 1_555 1_555
H9 C12 1_555 1_555
C13 O4 1_555 1_555
C14 C6 1_555 1_555
C15 C14 1_555 1_555
H10 C15 1_555 1_555
C16 C15 1_555 1_555
H11 C16 1_555 1_555
C17 C16 1_555 1_555
C18 C17 1_555 1_555
H12 C18 1_555 1_555
C19 C14 1_555 1_555
H13 C19 1_555 1_555
C20 O6 1_555 1_555
C21 C4 1_555 1_555
C22 C21 1_555 1_555
H14 C22 1_555 1_555
C23 C22 1_555 1_555
H15 C23 1_555 1_555
C24 C23 1_555 1_555
C25 C24 1_555 1_555
H16 C25 1_555 1_555
C26 C21 1_555 1_555
H17 C26 1_555 1_555
C27 O7 1_555 1_555
N2 O9 1_555 1_555
O10 N2 1_555 1_555
C28 N2 1_555 1_555
C29 C28 1_555 1_555
C30 C29 1_555 1_555
H18 C30 1_555 1_555
O11 H19 1_555 1_555
C31 C30 1_555 1_555
O12 C40 1_555 1_555
C32 C31 1_555 1_555
H20 C32 1_555 1_555
O13 C47 1_555 1_555
C33 C28 1_555 1_555
O14 H21 1_555 1_555
O15 H22 1_555 1_555
O16 C54 1_555 1_555
C34 C29 1_555 1_555
C35 C34 1_555 1_555
H23 C35 1_555 1_555
C36 C35 1_555 1_555
H24 C36 1_555 1_555
C37 C36 1_555 1_555
C38 C37 1_555 1_555
H25 C38 1_555 1_555
C39 C34 1_555 1_555
H26 C39 1_555 1_555
C40 O11 1_555 1_555
C41 C33 1_555 1_555
C42 C41 1_555 1_555
H27 C42 1_555 1_555
C43 C42 1_555 1_555
H28 C43 1_555 1_555
C44 C43 1_555 1_555
C45 C44 1_555 1_555
H29 C45 1_555 1_555
C46 C41 1_555 1_555
H30 C46 1_555 1_555
C47 O14 1_555 1_555
C48 C31 1_555 1_555
C49 C48 1_555 1_555
H31 C49 1_555 1_555
C50 C49 1_555 1_555
H32 C50 1_555 1_555
C51 C50 1_555 1_555
C52 C51 1_555 1_555
H33 C52 1_555 1_555
C53 C48 1_555 1_555
H34 C53 1_555 1_555
C54 O15 1_555 1_555
C5 C6 1_555 1_555
C10 C13 1_555 1_555
C11 C12 1_555 1_555
C17 C20 1_555 1_555
C18 C19 1_555 1_555
C24 C27 1_555 1_555
C25 C26 1_555 1_555
C32 C33 1_555 1_555
C37 C40 1_555 1_555
C38 C39 1_555 1_555
C44 C47 1_555 1_555
C45 C46 1_555 1_555
C51 C54 1_555 1_555
C52 C53 1_555 1_555

#END
