
#######################################################################
#
#                 Cambridge Crystallographic Data Centre
#                                CCDC 
#
#######################################################################
#
# If this CIF has been generated from an entry in the Cambridge 
# Structural Database, then it will include bibliographic, chemical, 
# crystal, experimental, refinement or atomic coordinate data resulting 
# from the CCDC's data processing and validation procedures.
#
#######################################################################

data_SABDIL
_chemical_formula_moiety         'C28 H21 N1 O6,C4 H8 O1'
_chemical_name_systematic        
'2,4,6-tris(4-Carboxyphenyl)-3-methylaniline tetrahydrofuran unknown solvate'
_symmetry_cell_setting           orthorhombic
_symmetry_space_group_name_H-M   'P b c a'
_symmetry_Int_Tables_number      61
_space_group_name_Hall           '-P 2ac 2ab'
loop_
_symmetry_equiv_pos_site_id
_symmetry_equiv_pos_as_xyz
1 x,y,z
2 1/2-x,-y,1/2+z
3 -x,1/2+y,1/2-z
4 1/2+x,1/2-y,-z
5 -x,-y,-z
6 1/2+x,y,1/2-z
7 x,1/2-y,1/2+z
8 1/2-x,1/2+y,z
_cell_length_a                   26.571(3)
_cell_length_b                   7.2638(8)
_cell_length_c                   32.672(4)
_cell_angle_alpha                90
_cell_angle_beta                 90
_cell_angle_gamma                90
_cell_volume                     6305.91
_exptl_crystal_colour            brown
_exptl_crystal_description       plate
_cell_formula_units_Z            8
loop_
_atom_site_label
_atom_site_type_symbol
_atom_site_fract_x
_atom_site_fract_y
_atom_site_fract_z
C1 C 0.13923(8) 0.9822(3) -0.02463(7)
C2 C 0.17152(8) 0.8278(3) -0.02617(6)
C3 C 0.19151(8) 0.7650(3) -0.06340(6)
C4 C 0.17853(8) 0.8564(3) -0.10012(6)
C5 C 0.14577(8) 1.0068(3) -0.09793(6)
H1 H 0.1366 1.0674 -0.1226
N1 N 0.1228(7) 1.049(2) 0.0131(2)
C6 C 0.2228(5) 0.5918(15) -0.0633(3)
H2 H 0.2077 0.5018 -0.0446
H3 H 0.2570 0.6208 -0.0542
H4 H 0.2239 0.5402 -0.0909
C7 C 0.12594(7) 1.0717(3) -0.06124(6)
C8 C 0.18449(8) 0.7337(3) 0.01322(6)
C9 C 0.14831(9) 0.6331(3) 0.03455(7)
H5 H 0.1162 0.6140 0.0226
C10 C 0.15838(9) 0.5601(3) 0.07299(7)
H6 H 0.1331 0.4942 0.0874
C11 C 0.20590(9) 0.5847(3) 0.09015(6)
C12 C 0.24312(9) 0.6761(3) 0.06823(6)
H7 H 0.2760 0.6871 0.0794
C13 C 0.23245(9) 0.7514(3) 0.03020(7)
H8 H 0.2579 0.8154 0.0156
C14 C 0.21754(9) 0.5119(3) 0.13161(7)
C15 C 0.19742(8) 0.7987(3) -0.14106(6)
C16 C 0.24841(9) 0.7723(3) -0.14969(6)
H9 H 0.2724 0.7839 -0.1283
C17 C 0.26479(9) 0.7294(3) -0.18886(7)
H10 H 0.2996 0.7119 -0.1941
C18 C 0.23022(9) 0.7123(3) -0.22029(7)
C19 C 0.17941(10) 0.7378(4) -0.21236(7)
H11 H 0.1556 0.7251 -0.2339
C20 C 0.16319(9) 0.7814(4) -0.17341(7)
H12 H 0.1283 0.8000 -0.1685
C21 C 0.24673(10) 0.6627(3) -0.26242(7)
C22 C 0.09090(8) 1.2324(3) -0.06186(7)
C23 C 0.10436(9) 1.3965(4) -0.08074(9)
H13 H 0.1370 1.4080 -0.0923
C24 C 0.07140(9) 1.5433(3) -0.08306(10)
H14 H 0.0815 1.6546 -0.0959
C25 C 0.02350(8) 1.5278(3) -0.06654(8)
C26 C 0.00972(9) 1.3652(3) -0.04755(8)
H15 H -0.0230 1.3538 -0.0360
C27 C 0.04275(8) 1.2196(3) -0.04515(7)
H16 H 0.0326 1.1091 -0.0320
C28 C -0.01441(9) 1.6783(3) -0.07041(9)
O1 O 0.18173(6) 0.4455(3) 0.15283(5)
H17 H 0.1930 0.4089 0.1754
O2 O 0.26270(6) 0.5198(3) 0.14371(5)
O3 O 0.29299(7) 0.6507(3) -0.27076(5)
O4 O 0.21174(8) 0.6354(3) -0.28862(6)
H18 H 0.2230 0.5729 -0.3082
O5 O 0.00229(7) 1.8266(3) -0.08907(8)
H19 H -0.0215 1.9014 -0.0922
O6 O -0.05695(7) 1.6645(3) -0.05687(7)
H20 H 0.1213(19) 0.967(5) 0.0328(11)
H21 H 0.1017(14) 1.144(4) 0.0139(13)
C29 C -0.11347(12) 1.9712(5) -0.12210(11)
H22 H -0.1451 2.0375 -0.1158
H23 H -0.1160 1.8443 -0.1112
C30 C -0.10429(16) 1.9683(6) -0.16678(13)
H24 H -0.1356 1.9465 -0.1824
H25 H -0.0788 1.8751 -0.1745
C31 C -0.0849(2) 2.1620(7) -0.17244(14)
H26 H -0.1130 2.2509 -0.1744
H27 H -0.0640 2.1716 -0.1974
C32 C -0.05318(15) 2.1968(5) -0.13370(12)
H28 H -0.0170 2.1780 -0.1394
H29 H -0.0582 2.3240 -0.1236
O7 O -0.07082(8) 2.0658(3) -0.10441(7)
H30? H 0.1266 1.0251 0.0009
H31? H 0.2136 0.6621 -0.0639
N2? N 0.2259(10) 0.619(3) -0.0635(5)
H32? H 0.228(3) 0.542(9) -0.0424(15)
H33? H 0.244(3) 0.595(10) -0.0855(15)
N3? N 0.126(2) 1.080(7) -0.1357(6)
H34? H 0.1016 1.1630 -0.1350
H35? H 0.1375 1.0413 -0.1593
C33? C 0.123(2) 1.057(5) 0.0162(5)
H36? H 0.1487 1.0277 0.0368
H37? H 0.0910 1.0005 0.0241
H38? H 0.1190 1.1905 0.0143
C34? C 0.133(4) 1.108(11) -0.1375(7)
H39? H 0.1490 1.0473 -0.1607
H40? H 0.0960 1.1058 -0.1415
H41? H 0.1440 1.2359 -0.1357
loop_
_geom_bond_atom_site_label_1
_geom_bond_atom_site_label_2
_geom_bond_site_symmetry_1
_geom_bond_site_symmetry_2
C1 C2 1_555 1_555
C2 C3 1_555 1_555
C3 C4 1_555 1_555
C4 C5 1_555 1_555
C5 H1 1_555 1_555
N1 C1 1_555 1_555
C6 C3 1_555 1_555
H2 C6 1_555 1_555
H3 C6 1_555 1_555
H4 C6 1_555 1_555
C7 C1 1_555 1_555
C8 C2 1_555 1_555
C9 C8 1_555 1_555
H5 C9 1_555 1_555
C10 C9 1_555 1_555
H6 C10 1_555 1_555
C11 C10 1_555 1_555
C12 C11 1_555 1_555
H7 C12 1_555 1_555
C13 C8 1_555 1_555
H8 C13 1_555 1_555
C14 C11 1_555 1_555
C15 C4 1_555 1_555
C16 C15 1_555 1_555
H9 C16 1_555 1_555
C17 C16 1_555 1_555
H10 C17 1_555 1_555
C18 C17 1_555 1_555
C19 C18 1_555 1_555
H11 C19 1_555 1_555
C20 C15 1_555 1_555
H12 C20 1_555 1_555
C21 C18 1_555 1_555
C22 C7 1_555 1_555
C23 C22 1_555 1_555
H13 C23 1_555 1_555
C24 C23 1_555 1_555
H14 C24 1_555 1_555
C25 C24 1_555 1_555
C26 C25 1_555 1_555
H15 C26 1_555 1_555
C27 C22 1_555 1_555
H16 C27 1_555 1_555
C28 C25 1_555 1_555
O1 C14 1_555 1_555
H17 O1 1_555 1_555
O2 C14 1_555 1_555
O3 C21 1_555 1_555
O4 C21 1_555 1_555
H18 O4 1_555 1_555
O5 C28 1_555 1_555
H19 O5 1_555 1_555
O6 C28 1_555 1_555
H20 N1 1_555 1_555
H21 N1 1_555 1_555
C29 H22 1_555 1_555
H23 C29 1_555 1_555
C30 C29 1_555 1_555
H24 C30 1_555 1_555
H25 C30 1_555 1_555
C31 C30 1_555 1_555
H26 C31 1_555 1_555
H27 C31 1_555 1_555
C32 C31 1_555 1_555
H28 C32 1_555 1_555
H29 C32 1_555 1_555
O7 C29 1_555 1_555
C5 C7 1_555 1_555
C12 C13 1_555 1_555
C19 C20 1_555 1_555
C26 C27 1_555 1_555
C32 O7 1_555 1_555

#END
