
#######################################################################
#
#                 Cambridge Crystallographic Data Centre
#                                CCDC 
#
#######################################################################
#
# If this CIF has been generated from an entry in the Cambridge 
# Structural Database, then it will include bibliographic, chemical, 
# crystal, experimental, refinement or atomic coordinate data resulting 
# from the CCDC's data processing and validation procedures.
#
#######################################################################

data_SABDEH
_chemical_formula_moiety         'C27 H19 N1 O6'
_chemical_name_systematic        
'2,4,6-tris(4-Carboxyphenyl)aniline unknown solvate'
_symmetry_cell_setting           orthorhombic
_symmetry_space_group_name_H-M   'C m c a'
_symmetry_Int_Tables_number      64
_space_group_name_Hall           '-C 2ac 2'
loop_
_symmetry_equiv_pos_site_id
_symmetry_equiv_pos_as_xyz
1 x,y,z
2 -x,1/2-y,1/2+z
3 -x,1/2+y,1/2-z
4 x,-y,-z
5 1/2+x,1/2+y,z
6 1/2-x,-y,1/2+z
7 1/2-x,y,1/2-z
8 1/2+x,1/2-y,-z
9 -x,-y,-z
10 x,1/2+y,1/2-z
11 x,1/2-y,1/2+z
12 -x,y,z
13 1/2-x,1/2-y,-z
14 1/2+x,y,1/2-z
15 1/2+x,-y,1/2+z
16 1/2-x,1/2+y,z
_cell_length_a                   32.015(3)
_cell_length_b                   24.655(2)
_cell_length_c                   23.540(2)
_cell_angle_alpha                90
_cell_angle_beta                 90
_cell_angle_gamma                90
_cell_volume                     18580.8
_exptl_crystal_colour            colorless
_exptl_crystal_description       rod
_cell_formula_units_Z            24
loop_
_atom_site_label
_atom_site_type_symbol
_atom_site_fract_x
_atom_site_fract_y
_atom_site_fract_z
O1 O 0.29259(8) 0.27316(15) -0.13296(15)
H1 H 0.2684 0.2697 -0.1463
O2 O 0.27543(9) 0.36079(15) -0.13593(19)
O3 O 0.46452(8) 0.57242(12) 0.26514(11)
N1 N 0.5000 0.33826(19) -0.11217(18)
H2 H 0.4762 0.3292 -0.1283
C1 C 0.5000 0.3682(2) -0.0626(2)
C2 C 0.46211(9) 0.38445(15) -0.03752(14)
C3 C 0.46273(9) 0.41750(15) 0.00980(14)
H3 H 0.4369 0.4284 0.0261
C4 C 0.5000 0.4357(2) 0.0348(2)
C5 C 0.42075(10) 0.36730(17) -0.06063(15)
C6 C 0.41064(10) 0.31294(17) -0.07032(15)
H4 H 0.4308 0.2856 -0.0628
C7 C 0.37216(11) 0.29858(17) -0.09039(16)
H5 H 0.3659 0.2613 -0.0965
C8 C 0.34234(11) 0.33701(19) -0.10193(17)
C9 C 0.35159(12) 0.39050(19) -0.0908(2)
H6 H 0.3309 0.4175 -0.0971
C10 C 0.39000(11) 0.40547(18) -0.07085(18)
H7 H 0.3957 0.4427 -0.0639
C11 C 0.30054(13) 0.3239(2) -0.1254(2)
C12 C 0.5000 0.47013(19) 0.08738(19)
C13 C 0.46350(10) 0.48668(16) 0.11242(16)
H8 H 0.4377 0.4772 0.0952
C14 C 0.46307(11) 0.51673(16) 0.16196(16)
H9 H 0.4373 0.5271 0.1786
C15 C 0.5000 0.5315(2) 0.1870(2)
C16 C 0.5000 0.5615(2) 0.2420(2)
O1K O 0.70741(8) 0.27316(15) -0.13296(15)
H1K H 0.7316 0.2697 -0.1463
O2K O 0.72457(9) 0.36079(15) -0.13593(19)
O3K O 0.53548(8) 0.57242(12) 0.26514(11)
H2K H 0.5238 0.3292 -0.1283
C2K C 0.53789(9) 0.38445(15) -0.03752(14)
C3K C 0.53727(9) 0.41750(15) 0.00980(14)
H3K H 0.5631 0.4284 0.0261
C5K C 0.57925(10) 0.36730(17) -0.06063(15)
C6K C 0.58936(10) 0.31294(17) -0.07032(15)
H4K H 0.5692 0.2856 -0.0628
C7K C 0.62784(11) 0.29858(17) -0.09039(16)
H5K H 0.6341 0.2613 -0.0965
C8K C 0.65766(11) 0.33701(19) -0.10193(17)
C9K C 0.64841(12) 0.39050(19) -0.0908(2)
H6K H 0.6691 0.4175 -0.0971
C10K C 0.61000(11) 0.40547(18) -0.07085(18)
H7K H 0.6043 0.4427 -0.0639
C11K C 0.69946(13) 0.3239(2) -0.1254(2)
C13K C 0.53650(10) 0.48668(16) 0.11242(16)
H8K H 0.5623 0.4772 0.0952
C14K C 0.53693(11) 0.51673(16) 0.16196(16)
H9K H 0.5627 0.5271 0.1786
O4 O 0.29517(9) 0.21704(16) 0.02461(17)
H10 H 0.2711 0.2135 0.0108
O5 O 0.27632(8) 0.30405(14) 0.02458(15)
O6 O 0.46535(10) 0.48665(14) 0.44669(13)
N2 N 0.5000 0.27744(19) 0.05500(18)
H11 H 0.5238 0.2679 0.0392
C17 C 0.5000 0.3084(2) 0.1047(2)
C18 C 0.46231(9) 0.32439(15) 0.12977(15)
C19 C 0.46350(10) 0.35675(15) 0.17817(14)
H12 H 0.4377 0.3681 0.1943
C20 C 0.5000 0.3733(2) 0.2040(2)
C21 C 0.42070(10) 0.30876(17) 0.10573(15)
C22 C 0.41138(11) 0.25544(18) 0.09238(16)
H13 H 0.4317 0.2280 0.0988
C23 C 0.37270(12) 0.24129(18) 0.06962(17)
H14 H 0.3668 0.2044 0.0610
C24 C 0.34291(10) 0.28063(19) 0.05959(17)
C25 C 0.35190(11) 0.3335(2) 0.07501(17)
H15 H 0.3313 0.3608 0.0698
C26 C 0.38975(10) 0.34743(17) 0.09748(17)
H16 H 0.3950 0.3841 0.1076
C27 C 0.30229(13) 0.2675(2) 0.03445(19)
C28 C 0.5000 0.4046(2) 0.2583(2)
C29 C 0.46285(12) 0.41916(18) 0.28505(17)
H17 H 0.4371 0.4118 0.2664
C30 C 0.46209(13) 0.44401(18) 0.33785(18)
H18 H 0.4363 0.4531 0.3555
C31 C 0.5000 0.4554(2) 0.3645(2)
C32 C 0.5000 0.4783(2) 0.4231(3)
O4K O 0.70483(9) 0.21704(16) 0.02461(17)
H10K H 0.7289 0.2135 0.0108
O5K O 0.72368(8) 0.30405(14) 0.02458(15)
O6K O 0.53465(10) 0.48665(14) 0.44669(13)
H11K H 0.4762 0.2679 0.0392
C18K C 0.53769(9) 0.32439(15) 0.12977(15)
C19K C 0.53650(10) 0.35675(15) 0.17817(14)
H12K H 0.5623 0.3681 0.1943
C21K C 0.57930(10) 0.30876(17) 0.10573(15)
C22K C 0.58862(11) 0.25544(18) 0.09238(16)
H13K H 0.5683 0.2280 0.0988
C23K C 0.62730(12) 0.24129(18) 0.06962(17)
H14K H 0.6332 0.2044 0.0610
C24K C 0.65709(10) 0.28063(19) 0.05959(17)
C25K C 0.64810(11) 0.3335(2) 0.07501(17)
H15K H 0.6687 0.3608 0.0698
C26K C 0.61025(10) 0.34743(17) 0.09748(17)
H16K H 0.6050 0.3841 0.1076
C27K C 0.69771(13) 0.2675(2) 0.03445(19)
C29K C 0.53715(12) 0.41916(18) 0.28505(17)
H17K H 0.5629 0.4118 0.2664
C30K C 0.53791(13) 0.44401(18) 0.33785(18)
H18K H 0.5637 0.4531 0.3555
O7 O 0.29593(9) 0.16133(17) 0.18248(19)
H19 H 0.2710 0.1579 0.1718
O8 O 0.27812(8) 0.24919(14) 0.18387(14)
O9 O 0.46470(8) 0.38991(13) 0.63110(11)
N3 N 0.5000 0.21926(18) 0.21949(16)
H20 H 0.5238 0.2109 0.2030
C33 C 0.5000 0.2464(2) 0.27067(19)
C34 C 0.46212(9) 0.26138(14) 0.29768(14)
C35 C 0.46290(9) 0.28868(14) 0.34880(14)
H21 H 0.4371 0.2985 0.3658
C36 C 0.5000 0.3026(2) 0.3767(2)
C37 C 0.42099(10) 0.24800(15) 0.27185(14)
C38 C 0.41122(11) 0.19522(17) 0.25450(16)
H22 H 0.4313 0.1673 0.2595
C39 C 0.37321(11) 0.18250(18) 0.23033(17)
H23 H 0.3673 0.1464 0.2187
C40 C 0.34378(11) 0.22321(19) 0.22334(17)
C41 C 0.35266(11) 0.27518(18) 0.24049(17)
H24 H 0.3326 0.3031 0.2352
C42 C 0.39053(10) 0.28691(16) 0.26526(16)
H25 H 0.3958 0.3228 0.2781
C43 C 0.30301(13) 0.2110(2) 0.1948(2)
C44 C 0.5000 0.3270(2) 0.4343(2)
C45 C 0.46339(11) 0.33919(18) 0.46247(15)
H26 H 0.4376 0.3344 0.4431
C46 C 0.46280(11) 0.35822(17) 0.51799(16)
H27 H 0.4369 0.3654 0.5363
C47 C 0.5000 0.3668(2) 0.5467(2)
C48 C 0.5000 0.3839(2) 0.6067(2)
O7K O 0.70407(9) 0.16133(17) 0.18248(19)
H19K H 0.7290 0.1579 0.1718
O8K O 0.72188(8) 0.24919(14) 0.18387(14)
O9K O 0.53530(8) 0.38991(13) 0.63110(11)
H20K H 0.4762 0.2109 0.2030
C34K C 0.53788(9) 0.26138(14) 0.29768(14)
C35K C 0.53710(9) 0.28868(14) 0.34880(14)
H21K H 0.5629 0.2985 0.3658
C37K C 0.57901(10) 0.24800(15) 0.27185(14)
C38K C 0.58878(11) 0.19522(17) 0.25450(16)
H22K H 0.5687 0.1673 0.2595
C39K C 0.62679(11) 0.18250(18) 0.23033(17)
H23K H 0.6327 0.1464 0.2187
C40K C 0.65622(11) 0.22321(19) 0.22334(17)
C41K C 0.64734(11) 0.27518(18) 0.24049(17)
H24K H 0.6674 0.3031 0.2352
C42K C 0.60947(10) 0.28691(16) 0.26526(16)
H25K H 0.6042 0.3228 0.2781
C43K C 0.69699(13) 0.2110(2) 0.1948(2)
C45K C 0.53661(11) 0.33919(18) 0.46247(15)
H26K H 0.5624 0.3344 0.4431
C46K C 0.53720(11) 0.35822(17) 0.51799(16)
H27K H 0.5631 0.3654 0.5363
H28? H 0.4762 0.3282 -0.1276
H29? H 0.5238 0.2675 0.0395
H30? H 0.5238 0.2103 0.2033
H31? H 0.4684 0.3982 0.6653
H32? H 0.4693 0.4993 0.4794
H33? H 0.4685 0.5870 0.2970
loop_
_geom_bond_atom_site_label_1
_geom_bond_atom_site_label_2
_geom_bond_site_symmetry_1
_geom_bond_site_symmetry_2
O1 H1 1_555 1_555
O2 C11 1_555 1_555
O3 C16 1_555 1_555
N1 H2 1_555 1_555
C1 N1 1_555 1_555
C2 C1 1_555 1_555
C3 C2 1_555 1_555
H3 C3 1_555 1_555
C4 C3 1_555 1_555
C5 C2 1_555 1_555
C6 C5 1_555 1_555
H4 C6 1_555 1_555
C7 C6 1_555 1_555
H5 C7 1_555 1_555
C8 C7 1_555 1_555
C9 C8 1_555 1_555
H6 C9 1_555 1_555
C10 C5 1_555 1_555
H7 C10 1_555 1_555
C11 O1 1_555 1_555
C12 C4 1_555 1_555
C13 C12 1_555 1_555
H8 C13 1_555 1_555
C14 C13 1_555 1_555
H9 C14 1_555 1_555
C15 C14 1_555 1_555
C16 C15 1_555 1_555
O4 H10 1_555 1_555
O5 C27 1_555 1_555
O6 C32 1_555 1_555
N2 H11 1_555 1_555
C17 N2 1_555 1_555
C18 C17 1_555 1_555
C19 C18 1_555 1_555
H12 C19 1_555 1_555
C20 C19 1_555 1_555
C21 C18 1_555 1_555
C22 C21 1_555 1_555
H13 C22 1_555 1_555
C23 C22 1_555 1_555
H14 C23 1_555 1_555
C24 C23 1_555 1_555
C25 C24 1_555 1_555
H15 C25 1_555 1_555
C26 C21 1_555 1_555
H16 C26 1_555 1_555
C27 O4 1_555 1_555
C28 C20 1_555 1_555
C29 C28 1_555 1_555
H17 C29 1_555 1_555
C30 C29 1_555 1_555
H18 C30 1_555 1_555
C31 C30 1_555 1_555
C32 C31 1_555 1_555
O7 H19 1_555 1_555
O8 C43 1_555 1_555
O9 C48 1_555 1_555
N3 H20 1_555 1_555
C33 N3 1_555 1_555
C34 C33 1_555 1_555
C35 C34 1_555 1_555
H21 C35 1_555 1_555
C36 C35 1_555 1_555
C37 C34 1_555 1_555
C38 C37 1_555 1_555
H22 C38 1_555 1_555
C39 C38 1_555 1_555
H23 C39 1_555 1_555
C40 C39 1_555 1_555
C41 C40 1_555 1_555
H24 C41 1_555 1_555
C42 C37 1_555 1_555
H25 C42 1_555 1_555
C43 O7 1_555 1_555
C44 C36 1_555 1_555
C45 C44 1_555 1_555
H26 C45 1_555 1_555
C46 C45 1_555 1_555
H27 C46 1_555 1_555
C47 C46 1_555 1_555
C48 C47 1_555 1_555
O1K H1K 1_555 1_555
O2K C11K 1_555 1_555
O3K C16 1_555 1_555
H2K N1 1_555 1_555
C2K C1 1_555 1_555
C3K C4 1_555 1_555
H3K C3K 1_555 1_555
C5K C2K 1_555 1_555
C6K C5K 1_555 1_555
H4K C6K 1_555 1_555
C7K C6K 1_555 1_555
H5K C7K 1_555 1_555
C8K C7K 1_555 1_555
C9K C8K 1_555 1_555
H6K C9K 1_555 1_555
C10K C5K 1_555 1_555
H7K C10K 1_555 1_555
C11K O1K 1_555 1_555
C13K C12 1_555 1_555
H8K C13K 1_555 1_555
C14K C15 1_555 1_555
H9K C14K 1_555 1_555
O4K H10K 1_555 1_555
O5K C27K 1_555 1_555
O6K C32 1_555 1_555
H11K N2 1_555 1_555
C18K C17 1_555 1_555
C19K C20 1_555 1_555
H12K C19K 1_555 1_555
C21K C18K 1_555 1_555
C22K C21K 1_555 1_555
H13K C22K 1_555 1_555
C23K C22K 1_555 1_555
H14K C23K 1_555 1_555
C24K C23K 1_555 1_555
C25K C24K 1_555 1_555
H15K C25K 1_555 1_555
C26K C21K 1_555 1_555
H16K C26K 1_555 1_555
C27K O4K 1_555 1_555
C29K C28 1_555 1_555
H17K C29K 1_555 1_555
C30K C31 1_555 1_555
H18K C30K 1_555 1_555
O7K H19K 1_555 1_555
O8K C43K 1_555 1_555
O9K C48 1_555 1_555
H20K N3 1_555 1_555
C34K C33 1_555 1_555
C35K C36 1_555 1_555
H21K C35K 1_555 1_555
C37K C34K 1_555 1_555
C38K C37K 1_555 1_555
H22K C38K 1_555 1_555
C39K C38K 1_555 1_555
H23K C39K 1_555 1_555
C40K C39K 1_555 1_555
C41K C40K 1_555 1_555
H24K C41K 1_555 1_555
C42K C37K 1_555 1_555
H25K C42K 1_555 1_555
C43K O7K 1_555 1_555
C45K C44 1_555 1_555
H26K C45K 1_555 1_555
C46K C47 1_555 1_555
H27K C46K 1_555 1_555
C8 C11 1_555 1_555
C9 C10 1_555 1_555
C24 C27 1_555 1_555
C25 C26 1_555 1_555
C40 C43 1_555 1_555
C41 C42 1_555 1_555
C2K C3K 1_555 1_555
C8K C11K 1_555 1_555
C9K C10K 1_555 1_555
C13K C14K 1_555 1_555
C18K C19K 1_555 1_555
C24K C27K 1_555 1_555
C25K C26K 1_555 1_555
C29K C30K 1_555 1_555
C34K C35K 1_555 1_555
C40K C43K 1_555 1_555
C41K C42K 1_555 1_555
C45K C46K 1_555 1_555

#END
