
#######################################################################
#
#                 Cambridge Crystallographic Data Centre
#                                CCDC 
#
#######################################################################
#
# If this CIF has been generated from an entry in the Cambridge 
# Structural Database, then it will include bibliographic, chemical, 
# crystal, experimental, refinement or atomic coordinate data resulting 
# from the CCDC's data processing and validation procedures.
#
#######################################################################

data_SABFUZ
_chemical_formula_moiety         'C40 H48 N2'
_chemical_name_systematic        
N-(3-((2,6-diisopropylphenyl)imino)-2-methyl-1,3-diphenylprop-1-en-1-yl)-2,6-diisopropylaniline
_symmetry_cell_setting           triclinic
_symmetry_space_group_name_H-M   'P -1'
_symmetry_Int_Tables_number      2
_space_group_name_Hall           '-P 1'
loop_
_symmetry_equiv_pos_site_id
_symmetry_equiv_pos_as_xyz
1 x,y,z
2 -x,-y,-z
_cell_length_a                   9.034(2)
_cell_length_b                   12.138(3)
_cell_length_c                   16.951(4)
_cell_angle_alpha                69.566(4)
_cell_angle_beta                 83.955(5)
_cell_angle_gamma                88.732(4)
_cell_volume                     1731.9
_exptl_crystal_colour            colorless
_exptl_crystal_description       block
_cell_formula_units_Z            2
loop_
_atom_site_label
_atom_site_type_symbol
_atom_site_fract_x
_atom_site_fract_y
_atom_site_fract_z
N1 N 0.66557(18) 0.62646(14) 0.28306(10)
N2 N 0.61061(19) 0.84964(13) 0.26851(10)
H1 H 0.6720 0.7924 0.2809
C1 C 0.5339(2) 0.62445(16) 0.25829(12)
C2 C 0.4258(2) 0.71596(16) 0.25784(12)
C3 C 0.4671(2) 0.82402(16) 0.25967(11)
C4 C 0.2625(2) 0.6844(2) 0.26238(16)
H2 H 0.2343 0.7038 0.2061
H3 H 0.2029 0.7279 0.2914
H4 H 0.2471 0.6017 0.2926
C5 C 0.3548(2) 0.91803(16) 0.25420(13)
C6 C 0.3298(3) 0.96677(19) 0.31686(15)
H5 H 0.3844 0.9415 0.3634
C7 C 0.2242(3) 1.0530(2) 0.3108(2)
H6 H 0.2072 1.0839 0.3539
C8 C 0.1450(3) 1.0931(2) 0.2426(2)
H7 H 0.0766 1.1527 0.2384
C9 C 0.1664(3) 1.0451(2) 0.1798(2)
H8 H 0.1109 1.0709 0.1336
C10 C 0.2704(3) 0.9586(2) 0.18570(15)
H9 H 0.2847 0.9266 0.1430
C11 C 0.4855(2) 0.53111(17) 0.22638(13)
C12 C 0.4809(3) 0.41280(19) 0.27447(17)
H10 H 0.5099 0.3880 0.3289
C13 C 0.4334(3) 0.3307(2) 0.2423(2)
H11 H 0.4305 0.2513 0.2754
C14 C 0.3907(3) 0.3655(3) 0.1623(3)
H12 H 0.3575 0.3102 0.1413
C15 C 0.3974(3) 0.4835(3) 0.11275(19)
H13 H 0.3721 0.5078 0.0575
C16 C 0.4416(3) 0.5647(2) 0.14576(15)
H14 H 0.4421 0.6442 0.1130
C17 C 0.6665(2) 0.96434(17) 0.25880(14)
C18 C 0.6712(3) 1.05551(17) 0.18002(15)
C19 C 0.7191(3) 1.1655(2) 0.17531(19)
H15 H 0.7228 1.2275 0.1238
C20 C 0.7614(3) 1.1853(2) 0.2452(2)
H16 H 0.7872 1.2608 0.2415
C21 C 0.7651(3) 1.0949(3) 0.3188(2)
H17 H 0.7992 1.1084 0.3645
C22 C 0.7190(3) 0.9808(2) 0.32850(16)
C23 C 0.6388(3) 1.0326(2) 0.10059(15)
H18 H 0.5653 0.9681 0.1178
C24 C 0.7821(4) 0.9909(3) 0.0623(2)
H19 H 0.8536 1.0545 0.0408
H20 H 0.7594 0.9659 0.0170
H21 H 0.8225 0.9264 0.1052
C25 C 0.5758(5) 1.1367(3) 0.0343(2)
H22 H 0.4817 1.1570 0.0572
H23 H 0.5623 1.1166 -0.0145
H24 H 0.6436 1.2025 0.0182
C26 C 0.7753(2) 0.53917(17) 0.28663(13)
C27 C 0.7988(2) 0.45742(19) 0.36666(15)
C28 C 0.9178(3) 0.3823(2) 0.37333(18)
H25 H 0.9332 0.3275 0.4259
C29 C 1.0145(3) 0.3872(2) 0.3033(2)
H26 H 1.0955 0.3374 0.3091
C30 C 0.9905(3) 0.4650(2) 0.22577(18)
H27 H 1.0551 0.4665 0.1789
C31 C 0.8716(2) 0.54279(18) 0.21447(14)
C32 C 0.8503(3) 0.6271(2) 0.12645(14)
H28 H 0.7625 0.6742 0.1310
C33 C 0.8214(4) 0.5603(3) 0.0668(2)
H29 H 0.9073 0.5153 0.0599
H30 H 0.8020 0.6157 0.0127
H31 H 0.7369 0.5085 0.0907
C34 C 0.9852(3) 0.7120(3) 0.0894(2)
H32 H 0.9995 0.7543 0.1265
H33 H 0.9672 0.7666 0.0347
H34 H 1.0728 0.6680 0.0838
C35 C 0.6951(3) 0.4510(2) 0.44532(16)
H35 H 0.6026 0.4899 0.4259
C36 C 0.6535(4) 0.3263(3) 0.5044(2)
H36 H 0.6118 0.2840 0.4733
H37 H 0.5815 0.3292 0.5495
H38 H 0.7408 0.2871 0.5276
C37 C 0.7618(4) 0.5195(4) 0.4938(2)
H39 H 0.8532 0.4840 0.5135
H40 H 0.6930 0.5183 0.5413
H41 H 0.7812 0.5994 0.4571
C38 C 0.7082(13) 0.8970(9) 0.4143(7)
H42 H 0.6599 0.8263 0.4129
C39 C 0.8612(15) 0.8617(8) 0.4389(9)
H43 H 0.9054 0.8161 0.4066
H44 H 0.8551 0.8155 0.4982
H45 H 0.9212 0.9308 0.4279
C40 C 0.6197(17) 0.9285(10) 0.4881(5)
H46 H 0.6588 1.0005 0.4897
H47 H 0.6295 0.8664 0.5409
H48 H 0.5164 0.9380 0.4787
C41? C 0.7647(11) 0.8604(9) 0.4023(6)
H49? H 0.6873 0.8005 0.4115
C42? C 0.9092(7) 0.8125(7) 0.3818(6)
H50? H 0.9002 0.7795 0.3386
H51? H 0.9382 0.7524 0.4315
H52? H 0.9830 0.8743 0.3618
C43? C 0.764(2) 0.8892(14) 0.4852(8)
H53? H 0.8570 0.9265 0.4849
H54? H 0.7517 0.8177 0.5333
H55? H 0.6839 0.9410 0.4884
loop_
_geom_bond_atom_site_label_1
_geom_bond_atom_site_label_2
_geom_bond_site_symmetry_1
_geom_bond_site_symmetry_2
N1 C1 1_555 1_555
N2 H1 1_555 1_555
C1 C2 1_555 1_555
C2 C3 1_555 1_555
C3 N2 1_555 1_555
C4 C2 1_555 1_555
H2 C4 1_555 1_555
H3 C4 1_555 1_555
H4 C4 1_555 1_555
C5 C3 1_555 1_555
C6 C5 1_555 1_555
H5 C6 1_555 1_555
C7 C6 1_555 1_555
H6 C7 1_555 1_555
C8 C7 1_555 1_555
H7 C8 1_555 1_555
C9 C8 1_555 1_555
H8 C9 1_555 1_555
C10 C5 1_555 1_555
H9 C10 1_555 1_555
C11 C1 1_555 1_555
C12 C11 1_555 1_555
H10 C12 1_555 1_555
C13 C12 1_555 1_555
H11 C13 1_555 1_555
C14 C13 1_555 1_555
H12 C14 1_555 1_555
C15 C14 1_555 1_555
H13 C15 1_555 1_555
C16 C11 1_555 1_555
H14 C16 1_555 1_555
C17 N2 1_555 1_555
C18 C17 1_555 1_555
C19 C18 1_555 1_555
H15 C19 1_555 1_555
C20 C19 1_555 1_555
H16 C20 1_555 1_555
C21 C20 1_555 1_555
H17 C21 1_555 1_555
C22 C17 1_555 1_555
C23 C18 1_555 1_555
H18 C23 1_555 1_555
C24 C23 1_555 1_555
H19 C24 1_555 1_555
H20 C24 1_555 1_555
H21 C24 1_555 1_555
C25 C23 1_555 1_555
H22 C25 1_555 1_555
H23 C25 1_555 1_555
H24 C25 1_555 1_555
C26 N1 1_555 1_555
C27 C26 1_555 1_555
C28 C27 1_555 1_555
H25 C28 1_555 1_555
C29 C28 1_555 1_555
H26 C29 1_555 1_555
C30 C29 1_555 1_555
H27 C30 1_555 1_555
C31 C26 1_555 1_555
C32 C31 1_555 1_555
H28 C32 1_555 1_555
C33 C32 1_555 1_555
H29 C33 1_555 1_555
H30 C33 1_555 1_555
H31 C33 1_555 1_555
C34 C32 1_555 1_555
H32 C34 1_555 1_555
H33 C34 1_555 1_555
H34 C34 1_555 1_555
C35 C27 1_555 1_555
H35 C35 1_555 1_555
C36 C35 1_555 1_555
H36 C36 1_555 1_555
H37 C36 1_555 1_555
H38 C36 1_555 1_555
C37 C35 1_555 1_555
H39 C37 1_555 1_555
H40 C37 1_555 1_555
H41 C37 1_555 1_555
C38 C22 1_555 1_555
H42 C38 1_555 1_555
C39 C38 1_555 1_555
H43 C39 1_555 1_555
H44 C39 1_555 1_555
H45 C39 1_555 1_555
C40 C38 1_555 1_555
H46 C40 1_555 1_555
H47 C40 1_555 1_555
H48 C40 1_555 1_555
C9 C10 1_555 1_555
C15 C16 1_555 1_555
C21 C22 1_555 1_555
C30 C31 1_555 1_555

#END
