
#######################################################################
#
#                 Cambridge Crystallographic Data Centre
#                                CCDC 
#
#######################################################################
#
# If this CIF has been generated from an entry in the Cambridge 
# Structural Database, then it will include bibliographic, chemical, 
# crystal, experimental, refinement or atomic coordinate data resulting 
# from the CCDC's data processing and validation procedures.
#
#######################################################################

data_SABFAE
_chemical_name_common            
4,5,6,7-Tetrachloro-N-(2-fluorophenyl)phthalimide
_chemical_formula_moiety         'C14 H4 Cl4 F1 N1 O2'
_chemical_name_systematic        
4,5,6,7-Tetrachloro-2-(2-fluorophenyl)-1H-isoindole-1,3(2H)-dione
_symmetry_cell_setting           monoclinic
_symmetry_space_group_name_H-M   'P 21/c'
_symmetry_Int_Tables_number      14
_space_group_name_Hall           '-P 2ybc'
loop_
_symmetry_equiv_pos_site_id
_symmetry_equiv_pos_as_xyz
1 x,y,z
2 -x,1/2+y,1/2-z
3 -x,-y,-z
4 x,1/2-y,1/2+z
_cell_length_a                   12.032(2)
_cell_length_b                   13.393(3)
_cell_length_c                   8.7244(17)
_cell_angle_alpha                90
_cell_angle_beta                 95.33(3)
_cell_angle_gamma                90
_cell_volume                     1399.81
_exptl_crystal_colour            colorless
_exptl_crystal_description       prism
_cell_formula_units_Z            4
_exptl_crystal_recrystallization_method 'ethyl acetate'
loop_
_atom_site_label
_atom_site_type_symbol
_atom_site_fract_x
_atom_site_fract_y
_atom_site_fract_z
Cl1 Cl 0.86460(4) 0.88811(4) 0.87885(5)
Cl2 Cl 1.12105(4) 0.89461(4) 0.84021(6)
Cl3 Cl 1.20515(4) 0.87608(4) 0.51578(6)
Cl4 Cl 1.03483(4) 0.86419(3) 0.22341(5)
F1 F 0.59427(10) 1.01280(10) 0.21749(17)
O1 O 0.64955(11) 0.87452(10) 0.64858(16)
O2 O 0.77309(11) 0.84862(10) 0.17056(15)
N1 N 0.68479(12) 0.85955(12) 0.39299(18)
C1 C 0.71360(15) 0.86955(14) 0.5529(2)
C2 C 0.83872(15) 0.87331(13) 0.5693(2)
C3 C 0.91144(15) 0.88264(13) 0.6996(2)
C4 C 1.02658(15) 0.88421(13) 0.6811(2)
C5 C 1.06451(15) 0.87662(12) 0.5352(2)
C6 C 0.98857(15) 0.86904(13) 0.4041(2)
C7 C 0.87595(15) 0.86712(13) 0.4244(2)
C8 C 0.77660(15) 0.85734(14) 0.3073(2)
C9 C 0.57195(15) 0.85497(15) 0.3257(2)
C10 C 0.50639(15) 0.77220(16) 0.3485(2)
H1 H 0.5353 0.7180 0.4101
C11 C 0.39733(16) 0.76994(17) 0.2793(2)
H2 H 0.3512 0.7139 0.2947
C12 C 0.35573(17) 0.84825(18) 0.1888(3)
H3 H 0.2816 0.8452 0.1410
C13 C 0.42123(16) 0.93161(18) 0.1668(2)
H4 H 0.3926 0.9862 0.1057
C14 C 0.52798(15) 0.93280(16) 0.2357(2)
loop_
_geom_bond_atom_site_label_1
_geom_bond_atom_site_label_2
_geom_bond_site_symmetry_1
_geom_bond_site_symmetry_2
Cl1 C3 1_555 1_555
Cl2 C4 1_555 1_555
Cl3 C5 1_555 1_555
Cl4 C6 1_555 1_555
F1 C14 1_555 1_555
O1 C1 1_555 1_555
O2 C8 1_555 1_555
N1 C1 1_555 1_555
C1 C2 1_555 1_555
C2 C3 1_555 1_555
C3 C4 1_555 1_555
C4 C5 1_555 1_555
C5 C6 1_555 1_555
C6 C7 1_555 1_555
C7 C2 1_555 1_555
C8 N1 1_555 1_555
C9 N1 1_555 1_555
C10 C9 1_555 1_555
H1 C10 1_555 1_555
C11 C10 1_555 1_555
H2 C11 1_555 1_555
C12 C11 1_555 1_555
H3 C12 1_555 1_555
C13 C12 1_555 1_555
H4 C13 1_555 1_555
C14 C9 1_555 1_555
C7 C8 1_555 1_555
C13 C14 1_555 1_555

#END
