
#######################################################################
#
#                 Cambridge Crystallographic Data Centre
#                                CCDC 
#
#######################################################################
#
# If this CIF has been generated from an entry in the Cambridge 
# Structural Database, then it will include bibliographic, chemical, 
# crystal, experimental, refinement or atomic coordinate data resulting 
# from the CCDC's data processing and validation procedures.
#
#######################################################################

data_SABJEM
_chemical_formula_moiety         'C11 H19 N3 O5'
_chemical_name_systematic        
1-(2,2-Dimethoxyethyl)-8-nitro-1,2,3,5,6,7-hexahydroimidazo[1,2-a]pyridin-5-ol
_symmetry_cell_setting           monoclinic
_symmetry_space_group_name_H-M   'P 21/c'
_symmetry_Int_Tables_number      14
_space_group_name_Hall           '-P 2ybc'
loop_
_symmetry_equiv_pos_site_id
_symmetry_equiv_pos_as_xyz
1 x,y,z
2 -x,1/2+y,1/2-z
3 -x,-y,-z
4 x,1/2-y,1/2+z
_cell_length_a                   11.2337(6)
_cell_length_b                   9.0903(3)
_cell_length_c                   14.2618(7)
_cell_angle_alpha                90
_cell_angle_beta                 113.124(6)
_cell_angle_gamma                90
_cell_volume                     1339.37
_exptl_crystal_colour            colorless
_exptl_crystal_description       prism
_cell_formula_units_Z            4
loop_
_atom_site_label
_atom_site_type_symbol
_atom_site_fract_x
_atom_site_fract_y
_atom_site_fract_z
N1 N 0.29875(12) 0.55756(14) 0.22689(9)
O1 O 0.63771(13) 0.70130(14) 0.20749(9)
H1 H 0.6117 0.7331 0.1491
N2 N 0.47152(13) 0.53178(15) 0.19064(9)
C1 C 0.42919(14) 0.56183(15) 0.26436(10)
O2 O 0.38448(13) 0.73086(14) 0.41241(9)
N3 N 0.49381(14) 0.67236(15) 0.43224(9)
O3 O 0.58619(14) 0.69576(16) 0.51820(8)
O4 O 0.02213(12) 0.59831(16) 0.16524(10)
C2 C 0.22221(16) 0.51751(18) 0.28522(12)
H2 H 0.2773 0.5183 0.3573
H3 H 0.1892 0.4184 0.2671
C3 C 0.52149(15) 0.59073(16) 0.36427(10)
C4 C 0.60599(16) 0.55202(18) 0.20530(12)
H4 H 0.6219 0.5029 0.1502
C5 C 0.36474(16) 0.5264(2) 0.09100(11)
H5 H 0.3731 0.4436 0.0511
H6 H 0.3589 0.6166 0.0531
C6 C 0.66126(16) 0.5530(2) 0.39249(12)
H7 H 0.6892 0.4865 0.4503
H8 H 0.7126 0.6420 0.4133
O5 O 0.05036(15) 0.58840(17) 0.33329(12)
C7 C 0.10981(17) 0.6218(2) 0.26575(14)
H9 H 0.1401 0.7240 0.2748
C8 C 0.25036(17) 0.5085(2) 0.11957(12)
H10 H 0.1784 0.5690 0.0767
H11 H 0.2226 0.4066 0.1133
C9 C 0.68676(18) 0.4813(2) 0.30524(14)
H12 H 0.7777 0.4911 0.3176
H13 H 0.6665 0.3772 0.3024
C10 C -0.0810(2) 0.7013(3) 0.12986(19)
H14 H -0.1268 0.6905 0.0575
H15 H -0.0469 0.7992 0.1449
H16 H -0.1391 0.6837 0.1632
C11 C 0.0604(3) 0.6935(3) 0.40618(19)
H17 H 0.0242 0.7846 0.3732
H18 H 0.1499 0.7079 0.4495
H19 H 0.0140 0.6611 0.4464
loop_
_geom_bond_atom_site_label_1
_geom_bond_atom_site_label_2
_geom_bond_site_symmetry_1
_geom_bond_site_symmetry_2
N1 C1 1_555 1_555
O1 H1 1_555 1_555
N2 C1 1_555 1_555
C1 C3 1_555 1_555
O2 N3 1_555 1_555
N3 O3 1_555 1_555
O4 C7 1_555 1_555
C2 N1 1_555 1_555
H2 C2 1_555 1_555
H3 C2 1_555 1_555
C3 N3 1_555 1_555
C4 O1 1_555 1_555
H4 C4 1_555 1_555
C5 N2 1_555 1_555
H5 C5 1_555 1_555
H6 C5 1_555 1_555
C6 C3 1_555 1_555
H7 C6 1_555 1_555
H8 C6 1_555 1_555
O5 C7 1_555 1_555
C7 C2 1_555 1_555
H9 C7 1_555 1_555
C8 N1 1_555 1_555
H10 C8 1_555 1_555
H11 C8 1_555 1_555
C9 C4 1_555 1_555
H12 C9 1_555 1_555
H13 C9 1_555 1_555
C10 O4 1_555 1_555
H14 C10 1_555 1_555
H15 C10 1_555 1_555
H16 C10 1_555 1_555
C11 O5 1_555 1_555
H17 C11 1_555 1_555
H18 C11 1_555 1_555
H19 C11 1_555 1_555
N2 C4 1_555 1_555
C5 C8 1_555 1_555
C6 C9 1_555 1_555

#END
