
#######################################################################
#
#                 Cambridge Crystallographic Data Centre
#                                CCDC 
#
#######################################################################
#
# If this CIF has been generated from an entry in the Cambridge 
# Structural Database, then it will include bibliographic, chemical, 
# crystal, experimental, refinement or atomic coordinate data resulting 
# from the CCDC's data processing and validation procedures.
#
#######################################################################

data_SABKOX
_chemical_formula_moiety         'C14 H12 Cl1 N1 O1'
_chemical_name_systematic        
2-[(E)-(2-Chlorophenyl)iminomethyl]-6-methylphenol
_symmetry_cell_setting           orthorhombic
_symmetry_space_group_name_H-M   'P 21 21 21'
_symmetry_Int_Tables_number      19
_space_group_name_Hall           'P 2ac 2ab'
loop_
_symmetry_equiv_pos_site_id
_symmetry_equiv_pos_as_xyz
1 x,y,z
2 1/2-x,-y,1/2+z
3 1/2+x,1/2-y,-z
4 -x,1/2+y,1/2-z
_cell_length_a                   7.8318(14)
_cell_length_b                   11.693(2)
_cell_length_c                   13.250(2)
_cell_angle_alpha                90
_cell_angle_beta                 90
_cell_angle_gamma                90
_cell_volume                     1213.4
_exptl_crystal_colour            yellow
_exptl_crystal_description       needle
_cell_formula_units_Z            4
loop_
_atom_site_label
_atom_site_type_symbol
_atom_site_fract_x
_atom_site_fract_y
_atom_site_fract_z
Cl1 Cl -0.30427(11) -0.84282(9) -0.18201(8)
C1 C -0.2023(4) -0.5269(3) -0.6436(3)
H1 H -0.1358 -0.4949 -0.6945
C2 C -0.6147(5) -0.8244(3) -0.0959(3)
H2 H -0.5727 -0.8740 -0.0469
C3 C -0.8405(4) -0.7124(3) -0.1622(3)
H3 H -0.9518 -0.6851 -0.1577
C4 C -0.2304(4) -0.5959(2) -0.4763(2)
N1 N -0.4592(3) -0.68266(18) -0.32559(19)
C5 C -0.4038(3) -0.6210(2) -0.4942(2)
C6 C -0.7384(3) -0.6793(3) -0.2418(3)
H4 H -0.7817 -0.6305 -0.2910
C7 C -0.5125(4) -0.7905(2) -0.1741(2)
C8 C -0.7793(5) -0.7849(3) -0.0899(3)
H5 H -0.8492 -0.8075 -0.0368
C9 C -0.4702(4) -0.5986(2) -0.5894(2)
H6 H -0.5835 -0.6167 -0.6030
C10 C -0.5128(3) -0.6658(2) -0.4159(2)
H7 H -0.6257 -0.6830 -0.4313
C11 C -0.1285(3) -0.5488(2) -0.5514(2)
C12 C -0.5706(3) -0.7186(2) -0.2491(2)
C13 C -0.3721(4) -0.5507(3) -0.6631(2)
H8 H -0.4190 -0.5342 -0.7260
C14 C 0.0568(4) -0.5250(3) -0.5305(3)
H9 H 0.1143 -0.5953 -0.5150
H10 H 0.0662 -0.4737 -0.4742
H11 H 0.1081 -0.4907 -0.5889
O1 O -0.1569(2) -0.61668(18) -0.38591(17)
H12 H -0.233(3) -0.648(3) -0.3472(19)
loop_
_geom_bond_atom_site_label_1
_geom_bond_atom_site_label_2
_geom_bond_site_symmetry_1
_geom_bond_site_symmetry_2
Cl1 C7 1_555 1_555
C1 H1 1_555 1_555
C2 H2 1_555 1_555
C3 H3 1_555 1_555
C4 C5 1_555 1_555
N1 C10 1_555 1_555
C5 C9 1_555 1_555
C6 C3 1_555 1_555
H4 C6 1_555 1_555
C7 C2 1_555 1_555
C8 C2 1_555 1_555
H5 C8 1_555 1_555
C9 H6 1_555 1_555
C10 C5 1_555 1_555
H7 C10 1_555 1_555
C11 C1 1_555 1_555
C12 N1 1_555 1_555
C13 C1 1_555 1_555
H8 C13 1_555 1_555
C14 C11 1_555 1_555
H9 C14 1_555 1_555
H10 C14 1_555 1_555
H11 C14 1_555 1_555
O1 C4 1_555 1_555
H12 O1 1_555 1_555
C3 C8 1_555 1_555
C4 C11 1_555 1_555
C6 C12 1_555 1_555
C7 C12 1_555 1_555
C9 C13 1_555 1_555

#END
