
#######################################################################
#
#                 Cambridge Crystallographic Data Centre
#                                CCDC 
#
#######################################################################
#
# If this CIF has been generated from an entry in the Cambridge 
# Structural Database, then it will include bibliographic, chemical, 
# crystal, experimental, refinement or atomic coordinate data resulting 
# from the CCDC's data processing and validation procedures.
#
#######################################################################

data_SABKAJ
_chemical_name_common            
3-(1-(2-Chlorophenyl)ethyl)-5-methyl-N-nitro-1,3,5-oxadiazinan-4-imine
_chemical_formula_moiety         'C12 H15 Cl1 N4 O3'
_chemical_name_systematic        
rac-(E)-3-[1-(2-Chlorophenyl)ethyl]-5-methyl-N-nitro-1,3,5-oxadiazinan-4-imine
_symmetry_cell_setting           monoclinic
_symmetry_space_group_name_H-M   'P 21/c'
_symmetry_Int_Tables_number      14
_space_group_name_Hall           '-P 2ybc'
loop_
_symmetry_equiv_pos_site_id
_symmetry_equiv_pos_as_xyz
1 x,y,z
2 -x,1/2+y,1/2-z
3 -x,-y,-z
4 x,1/2-y,1/2+z
_cell_length_a                   17.259(4)
_cell_length_b                   6.9157(14)
_cell_length_c                   12.169(2)
_cell_angle_alpha                90
_cell_angle_beta                 109.63(3)
_cell_angle_gamma                90
_cell_volume                     1368.05
_exptl_crystal_colour            colorless
_exptl_crystal_description       block
_cell_formula_units_Z            4
_exptl_crystal_recrystallization_method ethanol
loop_
_atom_site_label
_atom_site_type_symbol
_atom_site_fract_x
_atom_site_fract_y
_atom_site_fract_z
Cl1 Cl 0.36163(2) 0.37729(6) -0.00540(3)
N1 N 0.09670(7) 0.33360(16) -0.04098(10)
N2 N 0.21260(7) 0.48468(16) 0.08081(10)
N3 N 0.19653(7) 0.15435(16) 0.10592(10)
N4 N 0.15382(7) 0.09523(17) 0.17188(10)
O1 O 0.09734(6) 0.67120(14) -0.01841(9)
O2 O 0.09602(7) 0.19372(16) 0.18398(9)
O3 O 0.17457(7) -0.06237(15) 0.22426(9)
C1 C 0.06227(8) 0.5189(2) -0.09525(12)
H1 H 0.0740 0.5363 -0.1689
H2 H 0.0018 0.5188 -0.1139
C2 C 0.16607(8) 0.32676(19) 0.04897(12)
C3 C 0.18404(8) 0.66306(19) 0.01450(13)
H3 H 0.2089 0.7767 0.0630
H4 H 0.2007 0.6644 -0.0558
C4 C 0.04698(9) 0.1625(2) -0.08861(13)
H5 H 0.0801 0.0459 -0.0611
H6 H 0.0285 0.1670 -0.1740
H7 H -0.0010 0.1599 -0.0626
C5 C 0.28920(8) 0.48416(19) 0.18389(12)
H8 H 0.3141 0.3524 0.1894
C6 C 0.26984(10) 0.5185(2) 0.29596(12)
H9 H 0.3212 0.5198 0.3627
H10 H 0.2342 0.4147 0.3061
H11 H 0.2418 0.6430 0.2910
C7 C 0.34952(8) 0.6269(2) 0.16156(13)
C8 C 0.38573(9) 0.5900(2) 0.07689(13)
C9 C 0.44068(9) 0.7161(2) 0.05401(14)
H12 H 0.4640 0.6869 -0.0045
C10 C 0.46123(10) 0.8863(2) 0.11817(16)
H13 H 0.4997 0.9733 0.1048
C11 C 0.42544(10) 0.9287(2) 0.20160(15)
H14 H 0.4389 1.0459 0.2445
C12 C 0.37004(9) 0.8007(2) 0.22283(13)
H15 H 0.3457 0.8320 0.2800
loop_
_geom_bond_atom_site_label_1
_geom_bond_atom_site_label_2
_geom_bond_site_symmetry_1
_geom_bond_site_symmetry_2
Cl1 C8 1_555 1_555
N1 C1 1_555 1_555
N2 C2 1_555 1_555
N3 N4 1_555 1_555
N4 O2 1_555 1_555
O1 C1 1_555 1_555
O3 N4 1_555 1_555
C1 H1 1_555 1_555
H2 C1 1_555 1_555
C2 N1 1_555 1_555
C3 N2 1_555 1_555
H3 C3 1_555 1_555
H4 C3 1_555 1_555
C4 N1 1_555 1_555
H5 C4 1_555 1_555
H6 C4 1_555 1_555
H7 C4 1_555 1_555
C5 N2 1_555 1_555
H8 C5 1_555 1_555
C6 C5 1_555 1_555
H9 C6 1_555 1_555
H10 C6 1_555 1_555
H11 C6 1_555 1_555
C7 C5 1_555 1_555
C8 C7 1_555 1_555
C9 C8 1_555 1_555
H12 C9 1_555 1_555
C10 C9 1_555 1_555
H13 C10 1_555 1_555
C11 C10 1_555 1_555
H14 C11 1_555 1_555
C12 C7 1_555 1_555
H15 C12 1_555 1_555
N3 C2 1_555 1_555
O1 C3 1_555 1_555
C11 C12 1_555 1_555

#END
