
#######################################################################
#
#                 Cambridge Crystallographic Data Centre
#                                CCDC 
#
#######################################################################
#
# If this CIF has been generated from an entry in the Cambridge 
# Structural Database, then it will include bibliographic, chemical, 
# crystal, experimental, refinement or atomic coordinate data resulting 
# from the CCDC's data processing and validation procedures.
#
#######################################################################

data_SABKEM
_chemical_formula_moiety         'C8 H14 F2 N2 O1'
_chemical_name_systematic        1-Acetamido-1-(difluoramino)cyclohexane
_symmetry_cell_setting           orthorhombic
_symmetry_space_group_name_H-M   'P b c a'
_symmetry_Int_Tables_number      61
_space_group_name_Hall           '-P 2ac 2ab'
loop_
_symmetry_equiv_pos_site_id
_symmetry_equiv_pos_as_xyz
1 x,y,z
2 1/2-x,-y,1/2+z
3 -x,1/2+y,1/2-z
4 1/2+x,1/2-y,-z
5 -x,-y,-z
6 1/2+x,y,1/2-z
7 x,1/2-y,1/2+z
8 1/2-x,1/2+y,z
_cell_length_a                   10.325(3)
_cell_length_b                   9.722(3)
_cell_length_c                   19.175(6)
_cell_angle_alpha                90
_cell_angle_beta                 90
_cell_angle_gamma                90
_cell_volume                     1924.78
_exptl_crystal_colour            colorless
_exptl_crystal_description       lath
_chemical_melting_point          '95-110 deg.C(dec.)'
_cell_formula_units_Z            8
_exptl_crystal_recrystallization_method n-pentane/chloroform
loop_
_atom_site_label
_atom_site_type_symbol
_atom_site_fract_x
_atom_site_fract_y
_atom_site_fract_z
F1 F 0.33760(13) 0.45931(13) 0.22744(7)
F2 F 0.31363(13) 0.68105(13) 0.23653(7)
N1 N 0.31772(19) 0.5444(2) 0.36110(10)
H1 H 0.303(2) 0.458(3) 0.3659(12)
O1 O 0.24513(16) 0.76106(15) 0.38626(9)
N2 N 0.41099(19) 0.57862(19) 0.24427(11)
C1 C 0.4361(2) 0.5699(2) 0.32187(13)
C2 C 0.2303(2) 0.6354(2) 0.38699(12)
C3 C 0.1103(2) 0.5711(2) 0.41753(13)
H2 H 0.0841 0.6222 0.4592
H3 H 0.1284 0.4753 0.4301
H4 H 0.0403 0.5738 0.3830
C4 C 0.5082(2) 0.7032(2) 0.33936(12)
H5 H 0.5796 0.7167 0.3056
H6 H 0.4480 0.7820 0.3349
C5 C 0.5632(2) 0.7000(3) 0.41292(13)
H7 H 0.4911 0.6966 0.4469
H8 H 0.6128 0.7856 0.4215
C6 C 0.6518(2) 0.5761(3) 0.42428(14)
H9 H 0.6783 0.5722 0.4738
H10 H 0.7309 0.5866 0.3956
C7 C 0.5831(3) 0.4418(2) 0.40457(14)
H11 H 0.6454 0.3647 0.4080
H12 H 0.5123 0.4242 0.4382
C8 C 0.5271(2) 0.4462(2) 0.33078(12)
H13 H 0.4787 0.3601 0.3215
H14 H 0.5986 0.4525 0.2965
loop_
_geom_bond_atom_site_label_1
_geom_bond_atom_site_label_2
_geom_bond_site_symmetry_1
_geom_bond_site_symmetry_2
F1 N2 1_555 1_555
F2 N2 1_555 1_555
N1 H1 1_555 1_555
O1 C2 1_555 1_555
N2 C1 1_555 1_555
C1 N1 1_555 1_555
C2 N1 1_555 1_555
C3 C2 1_555 1_555
H2 C3 1_555 1_555
H3 C3 1_555 1_555
H4 C3 1_555 1_555
C4 C1 1_555 1_555
H5 C4 1_555 1_555
H6 C4 1_555 1_555
C5 C4 1_555 1_555
H7 C5 1_555 1_555
H8 C5 1_555 1_555
C6 C5 1_555 1_555
H9 C6 1_555 1_555
H10 C6 1_555 1_555
C7 C6 1_555 1_555
H11 C7 1_555 1_555
H12 C7 1_555 1_555
C8 C1 1_555 1_555
H13 C8 1_555 1_555
H14 C8 1_555 1_555
C7 C8 1_555 1_555

#END
