
#######################################################################
#
#                 Cambridge Crystallographic Data Centre
#                                CCDC 
#
#######################################################################
#
# If this CIF has been generated from an entry in the Cambridge 
# Structural Database, then it will include bibliographic, chemical, 
# crystal, experimental, refinement or atomic coordinate data resulting 
# from the CCDC's data processing and validation procedures.
#
#######################################################################

data_SABNUE
_chemical_formula_moiety         'C9 H12 N4 O4 S1'
_chemical_name_systematic        
5-(1-(3-Methoxycarbonyl-S-ethylpseudothioureido))uracil
_symmetry_cell_setting           monoclinic
_symmetry_space_group_name_H-M   'P 21/n'
_symmetry_Int_Tables_number      14
_space_group_name_Hall           '-P 2yn'
loop_
_symmetry_equiv_pos_site_id
_symmetry_equiv_pos_as_xyz
1 x,y,z
2 1/2-x,1/2+y,1/2-z
3 -x,-y,-z
4 1/2+x,1/2-y,1/2+z
_cell_length_a                   10.685(4)
_cell_length_b                   11.058(2)
_cell_length_c                   11.557(2)
_cell_angle_alpha                90
_cell_angle_beta                 113.12(2)
_cell_angle_gamma                90
_cell_volume                     1255.84
_chemical_melting_point          180-185deg.C
_cell_formula_units_Z            4
loop_
_atom_site_label
_atom_site_type_symbol
_atom_site_fract_x
_atom_site_fract_y
_atom_site_fract_z
N1 N 0.4525(3) 0.2853(2) 1.0846(3)
C1 C 0.4759(3) 0.1723(3) 1.0482(3)
N2 N 0.3684(3) 0.1240(2) 0.9503(2)
C2 C 0.2406(3) 0.1741(3) 0.8898(3)
C3 C 0.2251(3) 0.2915(3) 0.9378(3)
C4 C 0.3304(3) 0.3420(3) 1.0307(3)
N3 N 0.0964(3) 0.3484(2) 0.8871(3)
C5 C 0.0059(3) 0.3446(3) 0.9417(3)
N4 N -0.1156(3) 0.3914(2) 0.8991(2)
C6 C -0.1609(4) 0.4504(3) 0.7853(3)
O1 O -0.2870(2) 0.4921(2) 0.7602(2)
C7 C -0.3463(4) 0.5618(4) 0.6469(4)
O2 O -0.1044(3) 0.4673(2) 0.7142(2)
C8 C -0.0823(4) 0.2708(4) 1.1272(4)
C9 C -0.0561(6) 0.1919(5) 1.2381(5)
O3 O 0.1538(2) 0.1198(2) 0.8035(2)
O4 O 0.5851(2) 0.1215(2) 1.1001(2)
S1 S 0.0638(1) 0.2655(1) 1.0847(1)
H1 H 0.5243(33) 0.3165(30) 1.1497(31)
H2 H 0.3808(33) 0.0508(31) 0.9297(30)
H3 H 0.3229(32) 0.4197(31) 1.0613(29)
H4 H 0.0701(34) 0.3801(31) 0.8176(31)
H5 H -0.4313(35) 0.5858(31) 0.6418(31)
H6 H -0.3459(33) 0.5191(30) 0.5756(30)
H7 H -0.2864(33) 0.6373(31) 0.6512(30)
H8 H -0.1625(34) 0.2465(30) 1.0581(31)
H9 H -0.0989(35) 0.3544(30) 1.1493(31)
H10 H -0.1425(34) 0.1884(29) 1.2554(30)
H11 H 0.0240(33) 0.2315(31) 1.3096(31)
H12 H -0.0420(35) 0.1106(33) 1.2162(30)
loop_
_geom_bond_atom_site_label_1
_geom_bond_atom_site_label_2
_geom_bond_site_symmetry_1
_geom_bond_site_symmetry_2
N1 C1 1_555 1_555
C1 N2 1_555 1_555
N2 C2 1_555 1_555
C2 C3 1_555 1_555
C3 C4 1_555 1_555
C4 N1 1_555 1_555
N3 C3 1_555 1_555
C5 N3 1_555 1_555
N4 C5 1_555 1_555
C6 N4 1_555 1_555
O1 C6 1_555 1_555
C7 O1 1_555 1_555
O2 C6 1_555 1_555
C8 C9 1_555 1_555
C9 H10 1_555 1_555
O3 C2 1_555 1_555
O4 C1 1_555 1_555
S1 C5 1_555 1_555
H1 N1 1_555 1_555
H2 N2 1_555 1_555
H3 C4 1_555 1_555
H4 N3 1_555 1_555
H5 C7 1_555 1_555
H6 C7 1_555 1_555
H7 C7 1_555 1_555
H8 C8 1_555 1_555
H9 C8 1_555 1_555
H11 C9 1_555 1_555
H12 C9 1_555 1_555
C8 S1 1_555 1_555

#END
