
#######################################################################
#
#                 Cambridge Crystallographic Data Centre
#                                CCDC 
#
#######################################################################
#
# If this CIF has been generated from an entry in the Cambridge 
# Structural Database, then it will include bibliographic, chemical, 
# crystal, experimental, refinement or atomic coordinate data resulting 
# from the CCDC's data processing and validation procedures.
#
#######################################################################

data_SABPUI
_chemical_formula_moiety         'C15 H12 F2 O3'
_chemical_name_systematic        
1-(4-((3,5-Difluorobenzyl)oxy)-2-hydroxyphenyl)ethanone
_symmetry_cell_setting           triclinic
_symmetry_space_group_name_H-M   'P -1'
_symmetry_Int_Tables_number      2
_space_group_name_Hall           '-P 1'
loop_
_symmetry_equiv_pos_site_id
_symmetry_equiv_pos_as_xyz
1 x,y,z
2 -x,-y,-z
_cell_length_a                   7.4220(8)
_cell_length_b                   13.0329(14)
_cell_length_c                   14.1171(16)
_cell_angle_alpha                83.921(2)
_cell_angle_beta                 77.9130(10)
_cell_angle_gamma                76.5010(10)
_cell_volume                     1296.05
_exptl_crystal_colour            colorless
_exptl_crystal_description       triclinic
_cell_formula_units_Z            4
_exptl_crystal_recrystallization_method 'n-hexane/ethyl acetate'
loop_
_atom_site_label
_atom_site_type_symbol
_atom_site_fract_x
_atom_site_fract_y
_atom_site_fract_z
F1 F 1.1302(5) -0.2012(2) -0.40710(17)
F2 F 1.0857(4) 0.1549(2) -0.36867(17)
O1 O 0.3966(4) -0.0294(2) 0.39116(18)
O2 O 0.5359(4) -0.1407(2) 0.24593(18)
H1 H 0.4839 -0.1278 0.3020
O3 O 0.7935(4) 0.0311(2) -0.04745(16)
C1 C 0.3850(7) 0.1531(3) 0.3919(3)
H2 H 0.3360 0.1414 0.4597
H3 H 0.2913 0.2023 0.3626
H4 H 0.4958 0.1815 0.3844
C2 C 0.4350(6) 0.0503(3) 0.3436(3)
C3 C 0.5232(5) 0.0463(3) 0.2413(2)
C4 C 0.5740(5) -0.0511(3) 0.1963(2)
C5 C 0.6623(5) -0.0580(3) 0.1002(2)
H5 H 0.6932 -0.1227 0.0719
C6 C 0.7044(5) 0.0296(3) 0.0468(2)
C7 C 0.6561(5) 0.1271(3) 0.0888(2)
H6 H 0.6832 0.1871 0.0522
C8 C 0.5688(5) 0.1336(3) 0.1839(2)
H7 H 0.5387 0.1987 0.2113
C9 C 0.8450(6) -0.0657(3) -0.0942(2)
H8 H 0.7336 -0.0936 -0.0915
H9 H 0.9319 -0.1171 -0.0610
C10 C 0.9362(5) -0.0474(3) -0.1973(2)
C11 C 0.9919(6) -0.1327(3) -0.2559(3)
H10 H 0.9724 -0.1990 -0.2309
C12 C 1.0756(6) -0.1181(4) -0.3505(3)
C13 C 1.1114(6) -0.0235(4) -0.3913(3)
H11 H 1.1714 -0.0155 -0.4556
C14 C 1.0529(6) 0.0592(3) -0.3312(3)
C15 C 0.9681(6) 0.0493(3) -0.2359(3)
H12 H 0.9327 0.1073 -0.1978
F3 F -0.1980(4) 0.6542(2) 0.85834(18)
F4 F -0.0009(4) 0.2932(2) 0.93069(17)
O4 O 0.6255(5) 0.4794(2) 0.11718(18)
O5 O 0.5718(4) 0.3646(2) 0.27167(18)
H13 H 0.6143 0.3793 0.2147
O6 O 0.1814(4) 0.5295(2) 0.55010(16)
C16 C 0.4955(7) 0.6621(4) 0.1001(3)
H14 H 0.5610 0.6523 0.0343
H15 H 0.5433 0.7121 0.1277
H16 H 0.3630 0.6883 0.1010
C17 C 0.5250(6) 0.5590(3) 0.1580(3)
C18 C 0.4401(5) 0.5514(3) 0.2605(2)
C19 C 0.4657(6) 0.4531(3) 0.3139(2)
C20 C 0.3820(5) 0.4430(3) 0.4103(2)
H17 H 0.3995 0.3774 0.4441
C21 C 0.2719(5) 0.5314(3) 0.4563(2)
C22 C 0.2473(6) 0.6292(3) 0.4062(2)
H18 H 0.1748 0.6886 0.4377
C23 C 0.3298(5) 0.6385(3) 0.3104(2)
H19 H 0.3119 0.7047 0.2775
C24 C 0.2003(6) 0.4312(3) 0.6062(2)
H20 H 0.3325 0.4014 0.6070
H21 H 0.1513 0.3818 0.5772
C25 C 0.0940(5) 0.4486(3) 0.7071(2)
C26 C -0.0051(6) 0.5473(3) 0.7369(3)
H22 H -0.0067 0.6063 0.6936
C27 C -0.1003(6) 0.5569(3) 0.8303(3)
C28 C -0.1032(6) 0.4739(3) 0.8982(3)
H23 H -0.1689 0.4821 0.9616
C29 C -0.0026(6) 0.3781(3) 0.8659(3)
C30 C 0.0951(6) 0.3632(3) 0.7736(3)
H24 H 0.1619 0.2962 0.7556
loop_
_geom_bond_atom_site_label_1
_geom_bond_atom_site_label_2
_geom_bond_site_symmetry_1
_geom_bond_site_symmetry_2
F1 C12 1_555 1_555
F2 C14 1_555 1_555
O1 C2 1_555 1_555
O2 H1 1_555 1_555
O3 C6 1_555 1_555
C1 H2 1_555 1_555
H3 C1 1_555 1_555
H4 C1 1_555 1_555
C2 C1 1_555 1_555
C3 C2 1_555 1_555
C4 O2 1_555 1_555
C5 C4 1_555 1_555
H5 C5 1_555 1_555
C6 C5 1_555 1_555
C7 C6 1_555 1_555
H6 C7 1_555 1_555
C8 C3 1_555 1_555
H7 C8 1_555 1_555
C9 O3 1_555 1_555
H8 C9 1_555 1_555
H9 C9 1_555 1_555
C10 C9 1_555 1_555
C11 C10 1_555 1_555
H10 C11 1_555 1_555
C12 C11 1_555 1_555
C13 C12 1_555 1_555
H11 C13 1_555 1_555
C14 C13 1_555 1_555
C15 C10 1_555 1_555
H12 C15 1_555 1_555
F3 C27 1_555 1_555
F4 C29 1_555 1_555
O4 C17 1_555 1_555
O5 H13 1_555 1_555
O6 C21 1_555 1_555
C16 H14 1_555 1_555
H15 C16 1_555 1_555
H16 C16 1_555 1_555
C17 C16 1_555 1_555
C18 C17 1_555 1_555
C19 O5 1_555 1_555
C20 C19 1_555 1_555
H17 C20 1_555 1_555
C21 C20 1_555 1_555
C22 C21 1_555 1_555
H18 C22 1_555 1_555
C23 C18 1_555 1_555
H19 C23 1_555 1_555
C24 O6 1_555 1_555
H20 C24 1_555 1_555
H21 C24 1_555 1_555
C25 C24 1_555 1_555
C26 C25 1_555 1_555
H22 C26 1_555 1_555
C27 C26 1_555 1_555
C28 C27 1_555 1_555
H23 C28 1_555 1_555
C29 C28 1_555 1_555
C30 C25 1_555 1_555
H24 C30 1_555 1_555
C3 C4 1_555 1_555
C7 C8 1_555 1_555
C14 C15 1_555 1_555
C18 C19 1_555 1_555
C22 C23 1_555 1_555
C29 C30 1_555 1_555

#END
