
#######################################################################
#
#                 Cambridge Crystallographic Data Centre
#                                CCDC 
#
#######################################################################
#
# If this CIF has been generated from an entry in the Cambridge 
# Structural Database, then it will include bibliographic, chemical, 
# crystal, experimental, refinement or atomic coordinate data resulting 
# from the CCDC's data processing and validation procedures.
#
#######################################################################

data_SABWEY
_chemical_formula_moiety         'C16 H19 N1 O3 S1'
_chemical_name_systematic        2-(2-Oxopentyl)-N-p-tosylpyrrole
_symmetry_cell_setting           monoclinic
_symmetry_space_group_name_H-M   'P 21/n'
_symmetry_Int_Tables_number      14
_space_group_name_Hall           '-P 2yn'
loop_
_symmetry_equiv_pos_site_id
_symmetry_equiv_pos_as_xyz
1 x,y,z
2 1/2-x,1/2+y,1/2-z
3 -x,-y,-z
4 1/2+x,1/2-y,1/2+z
_cell_length_a                   8.2541(13)
_cell_length_b                   23.077(3)
_cell_length_c                   9.0331(11)
_cell_angle_alpha                90
_cell_angle_beta                 110.041(11)
_cell_angle_gamma                90
_cell_volume                     1616.44
_cell_formula_units_Z            4
loop_
_atom_site_label
_atom_site_type_symbol
_atom_site_fract_x
_atom_site_fract_y
_atom_site_fract_z
S1 S 0.8189(1) 0.0992(1) 0.8892(1)
N1 N 1.0049(3) 0.1325(1) 0.9107(3)
O1 O 0.9404(4) 0.2753(1) 1.0057(3)
C1 C 1.0267(4) 0.1843(1) 0.8384(4)
O2 O 0.7002(3) 0.1424(1) 0.8978(3)
C2 C 1.1979(5) 0.1872(2) 0.8608(5)
O3 O 0.8629(3) 0.0527(1) 0.9998(3)
C3 C 1.2811(5) 0.1380(2) 0.9419(5)
C4 C 1.1633(4) 0.1038(2) 0.9702(4)
C5 C 0.8863(4) 0.2261(1) 0.7633(4)
C6 C 0.8413(5) 0.2656(1) 0.8759(4)
C7 C 0.6686(5) 0.2925(2) 0.8188(5)
C8 C 0.6294(16) 0.3346(6) 0.9166(15)
C10 C 0.4388(7) 0.3518(2) 0.8692(7)
C11 C 0.7531(3) 0.0709(1) 0.6972(3)
C12 C 0.6185(4) 0.0967(1) 0.5799(4)
C13 C 0.5712(4) 0.0747(2) 0.4282(4)
C14 C 0.6532(4) 0.0279(2) 0.3922(4)
C15 C 0.7862(4) 0.0021(1) 0.5137(5)
C16 C 0.8364(4) 0.0228(1) 0.6655(4)
C17 C 0.6039(5) 0.0055(2) 0.2260(5)
H1 H 1.2516 0.2173 0.8271
H2 H 1.3984 0.1303 0.9714
H3 H 1.1833 0.0679 1.0198
H4 H 0.7838 0.2046 0.7032
H5 H 0.9196 0.2497 0.6896
H6 H 0.6537 0.3106 0.7180
H7 H 0.5837 0.2618 0.7995
H8 H 0.6961 0.3693 0.9171
H9 H 0.6668 0.3198 1.0236
H12 H 0.4168 0.3754 0.9436
H13 H 0.3676 0.3164 0.8532
H14 H 0.4034 0.3712 0.7666
H16 H 0.5607 0.1283 0.6021
H17 H 0.4813 0.0921 0.3485
H18 H 0.8425 -0.0299 0.4916
H19 H 0.9247 0.0048 0.7455
H20 H 0.6749 -0.0272 0.2236
H21 H 0.6205 0.0355 0.1590
H22 H 0.4850 -0.0061 0.1894
C9? C 0.5720(40) 0.3070(20) 0.9150(30)
H10? H 0.6534 0.3174 1.0176
H11? H 0.5163 0.2712 0.9310
H15? H 0.3433 0.3298 0.7586
H23? H 0.5120 0.0287 0.1577
H24? H 0.5665 -0.0340 0.2224
H25? H 0.7019 0.0076 0.1919
loop_
_geom_bond_atom_site_label_1
_geom_bond_atom_site_label_2
_geom_bond_site_symmetry_1
_geom_bond_site_symmetry_2
S1 N1 1_555 1_555
N1 C1 1_555 1_555
O1 C6 1_555 1_555
C1 C2 1_555 1_555
O2 S1 1_555 1_555
C2 C3 1_555 1_555
O3 S1 1_555 1_555
C3 C4 1_555 1_555
C4 N1 1_555 1_555
C5 C1 1_555 1_555
C6 C5 1_555 1_555
C7 C6 1_555 1_555
C8 C7 1_555 1_555
C10 C8 1_555 1_555
C11 S1 1_555 1_555
C12 C11 1_555 1_555
C13 C12 1_555 1_555
C14 C13 1_555 1_555
C15 C14 1_555 1_555
C16 C11 1_555 1_555
C17 C14 1_555 1_555
H1 C2 1_555 1_555
H2 C3 1_555 1_555
H3 C4 1_555 1_555
H4 C5 1_555 1_555
H5 C5 1_555 1_555
H6 C7 1_555 1_555
H7 C7 1_555 1_555
H8 C8 1_555 1_555
H9 C8 1_555 1_555
H12 C10 1_555 1_555
H13 C10 1_555 1_555
H14 C10 1_555 1_555
H16 C12 1_555 1_555
H17 C13 1_555 1_555
H18 C15 1_555 1_555
H19 C16 1_555 1_555
H20 C17 1_555 1_555
H21 C17 1_555 1_555
H22 C17 1_555 1_555
C15 C16 1_555 1_555

#END
