
#######################################################################
#
#                 Cambridge Crystallographic Data Centre
#                                CCDC 
#
#######################################################################
#
# If this CIF has been generated from an entry in the Cambridge 
# Structural Database, then it will include bibliographic, chemical, 
# crystal, experimental, refinement or atomic coordinate data resulting 
# from the CCDC's data processing and validation procedures.
#
#######################################################################

data_SABXUP
_chemical_formula_moiety         'C24 H50 N4 2+,2(Cl1 O4 1-)'
_chemical_name_systematic        
'2,2,4,10,10,12,18,20-Octamethyl-1,9-diazonia-5,13-diazapentacyclo(11.3.2.2^5,9^)icosane diperchlorate'
_symmetry_cell_setting           orthorhombic
_symmetry_space_group_name_H-M   'P b c a'
_symmetry_Int_Tables_number      61
_space_group_name_Hall           '-P 2ac 2ab'
loop_
_symmetry_equiv_pos_site_id
_symmetry_equiv_pos_as_xyz
1 x,y,z
2 1/2-x,-y,1/2+z
3 1/2+x,1/2-y,-z
4 -x,1/2+y,1/2-z
5 -x,-y,-z
6 1/2+x,y,1/2-z
7 1/2-x,1/2+y,z
8 x,1/2-y,1/2+z
_cell_length_a                   16.6299(6)
_cell_length_b                   10.3973(4)
_cell_length_c                   17.1693(6)
_cell_angle_alpha                90
_cell_angle_beta                 90
_cell_angle_gamma                90
_cell_volume                     2968.68
_cell_formula_units_Z            4
loop_
_atom_site_label
_atom_site_type_symbol
_atom_site_fract_x
_atom_site_fract_y
_atom_site_fract_z
Cl1 Cl 0.9209(1) 0.0810(1) 0.6530(1)
O1 O 1.0006(2) 0.0524(4) 0.6716(3)
O2 O 0.8932(2) 0.1860(3) 0.7013(2)
O3 O 0.8727(3) -0.0253(3) 0.6739(3)
O4 O 0.9076(3) 0.1141(6) 0.5766(2)
N1 N 0.3946(2) 0.0421(3) 0.5516(2)
N2 N 0.5593(2) 0.0760(3) 0.6113(2)
C1 C 0.3867(2) 0.1820(3) 0.5691(2)
C2 C 0.4651(2) 0.2522(4) 0.5819(3)
C3 C 0.5216(2) 0.1972(4) 0.6417(2)
C4 C 0.4188(2) -0.0265(3) 0.6240(2)
C5 C 0.5094(2) -0.0408(4) 0.6304(2)
C6 C 0.3864(3) -0.1630(4) 0.6338(3)
C7 C 0.6505(2) 0.0612(3) 0.6285(2)
C8 C 0.6859(2) -0.0355(3) 0.5703(2)
C9 C 0.3174(2) -0.0028(4) 0.5159(2)
C10 C 0.6918(3) 0.1910(4) 0.6182(3)
C11 C 0.6629(3) 0.0142(5) 0.7118(2)
C12 C 0.2405(3) 0.0369(6) 0.5584(3)
H1 H 0.5560(20) 0.0790(30) 0.5640(20)
H2 H 0.3510(20) 0.1960(30) 0.6160(20)
H3 H 0.3580(20) 0.2220(40) 0.5260(20)
H4 H 0.4940(20) 0.2550(40) 0.5350(20)
H5 H 0.4510(20) 0.3340(40) 0.5920(20)
H6 H 0.4950(20) 0.1760(30) 0.6880(20)
H7 H 0.5650(20) 0.2570(40) 0.6540(20)
H8 H 0.4009(19) 0.0160(30) 0.6627(19)
H9 H 0.5210(20) -0.0630(40) 0.6790(20)
H10 H 0.5290(20) -0.1060(40) 0.5980(20)
H11 H 0.4030(20) -0.2170(40) 0.5910(20)
H12 H 0.4070(20) -0.1990(40) 0.6810(30)
H13 H 0.3330(30) -0.1670(40) 0.6370(20)
H14 H 0.6610(20) -0.1130(40) 0.5770(20)
H15 H 0.7390(20) -0.0450(30) 0.5858(19)
H16 H 0.3202(18) -0.0870(30) 0.5190(18)
H17 H 0.6710(20) 0.2390(40) 0.5720(20)
H18 H 0.7450(30) 0.1770(40) 0.6110(20)
H19 H 0.6860(20) 0.2380(40) 0.6620(20)
H20 H 0.6490(30) -0.0720(40) 0.7200(20)
H21 H 0.7160(30) 0.0250(40) 0.7200(20)
H22 H 0.6330(30) 0.0640(40) 0.7480(30)
H23 H 0.2460(30) 0.0230(40) 0.6070(30)
H24 H 0.1920(30) -0.0060(40) 0.5380(20)
H25 H 0.2330(30) 0.1250(50) 0.5500(30)
C8D C 0.3141(2) 0.0355(3) 0.4297(2)
C7D C 0.3495(2) -0.0612(3) 0.3715(2)
N2D N 0.4407(2) -0.0760(3) 0.3887(2)
C3D C 0.4784(2) -0.1972(4) 0.3583(2)
C2D C 0.5349(2) -0.2522(4) 0.4181(3)
C1D C 0.6133(2) -0.1820(3) 0.4309(2)
N1D N 0.6054(2) -0.0421(3) 0.4484(2)
C4D C 0.5812(2) 0.0265(3) 0.3760(2)
C5D C 0.4906(2) 0.0408(4) 0.3696(2)
H1D H 0.4440(20) -0.0790(30) 0.4360(20)
H9D H 0.4790(20) 0.0630(40) 0.3210(20)
H10D H 0.4710(20) 0.1060(40) 0.4020(20)
C6D C 0.6136(3) 0.1630(4) 0.3662(3)
H11D H 0.5970(20) 0.2170(40) 0.4090(20)
H12D H 0.5930(20) 0.1990(40) 0.3190(30)
H13D H 0.6670(30) 0.1670(40) 0.3630(20)
H8D H 0.5991(19) -0.0160(30) 0.3373(19)
C9D C 0.6826(2) 0.0028(4) 0.4841(2)
C12D C 0.7595(3) -0.0369(6) 0.4416(3)
H23D H 0.7540(30) -0.0230(40) 0.3930(30)
H24D H 0.8080(30) 0.0060(40) 0.4620(20)
H25D H 0.7670(30) -0.1250(50) 0.4500(30)
H16D H 0.6798(18) 0.0870(30) 0.4810(18)
H2D H 0.6490(20) -0.1960(30) 0.3840(20)
H3D H 0.6420(20) -0.2220(40) 0.4740(20)
H4D H 0.5060(20) -0.2550(40) 0.4650(20)
H5D H 0.5490(20) -0.3340(40) 0.4080(20)
H6D H 0.5050(20) -0.1760(30) 0.3120(20)
H7D H 0.4350(20) -0.2570(40) 0.3460(20)
C10D C 0.3082(3) -0.1910(4) 0.3818(3)
H17D H 0.3290(20) -0.2390(40) 0.4280(20)
H18D H 0.2550(30) -0.1770(40) 0.3890(20)
H19D H 0.3140(20) -0.2380(40) 0.3380(20)
C11D C 0.3371(3) -0.0142(5) 0.2882(2)
H20D H 0.3510(30) 0.0720(40) 0.2800(20)
H21D H 0.2840(30) -0.0250(40) 0.2800(20)
H22D H 0.3670(30) -0.0640(40) 0.2520(30)
H14D H 0.3390(20) 0.1130(40) 0.4230(20)
H15D H 0.2610(20) 0.0450(30) 0.4142(19)
loop_
_geom_bond_atom_site_label_1
_geom_bond_atom_site_label_2
_geom_bond_site_symmetry_1
_geom_bond_site_symmetry_2
Cl1 O1 1_555 1_555
O2 Cl1 1_555 1_555
O3 Cl1 1_555 1_555
O4 Cl1 1_555 1_555
N1 C1 1_555 1_555
N2 C3 1_555 1_555
C1 C2 1_555 1_555
C2 C3 1_555 1_555
C3 H6 1_555 1_555
C4 N1 1_555 1_555
C5 N2 1_555 1_555
C6 C4 1_555 1_555
C7 N2 1_555 1_555
C8 C7 1_555 1_555
C9 N1 1_555 1_555
C10 C7 1_555 1_555
C11 C7 1_555 1_555
C12 C9 1_555 1_555
H1 N2 1_555 1_555
H2 C1 1_555 1_555
H3 C1 1_555 1_555
H4 C2 1_555 1_555
H5 C2 1_555 1_555
H7 C3 1_555 1_555
H8 C4 1_555 1_555
H9 C5 1_555 1_555
H10 C5 1_555 1_555
H11 C6 1_555 1_555
H12 C6 1_555 1_555
H13 C6 1_555 1_555
H14 C8 1_555 1_555
H15 C8 1_555 1_555
H16 C9 1_555 1_555
H17 C10 1_555 1_555
H18 C10 1_555 1_555
H19 C10 1_555 1_555
H20 C11 1_555 1_555
H21 C11 1_555 1_555
H22 C11 1_555 1_555
H23 C12 1_555 1_555
H24 C12 1_555 1_555
H25 C12 1_555 1_555
C8D C9 1_555 1_555
C7D C8D 1_555 1_555
N2D C7D 1_555 1_555
C3D N2D 1_555 1_555
C2D C3D 1_555 1_555
C1D C2D 1_555 1_555
N1D C1D 1_555 1_555
C4D N1D 1_555 1_555
C5D N2D 1_555 1_555
H1D N2D 1_555 1_555
H9D C5D 1_555 1_555
H10D C5D 1_555 1_555
C6D C4D 1_555 1_555
H11D C6D 1_555 1_555
H12D C6D 1_555 1_555
H13D C6D 1_555 1_555
H8D C4D 1_555 1_555
C9D C8 1_555 1_555
C12D C9D 1_555 1_555
H23D C12D 1_555 1_555
H24D C12D 1_555 1_555
H25D C12D 1_555 1_555
H16D C9D 1_555 1_555
H2D C1D 1_555 1_555
H3D C1D 1_555 1_555
H4D C2D 1_555 1_555
H5D C2D 1_555 1_555
H6D C3D 1_555 1_555
H7D C3D 1_555 1_555
C10D C7D 1_555 1_555
H17D C10D 1_555 1_555
H18D C10D 1_555 1_555
H19D C10D 1_555 1_555
C11D C7D 1_555 1_555
H20D C11D 1_555 1_555
H21D C11D 1_555 1_555
H22D C11D 1_555 1_555
H14D C8D 1_555 1_555
H15D C8D 1_555 1_555
C4 C5 1_555 1_555
N1D C9D 1_555 1_555
C4D C5D 1_555 1_555

#END
