
#######################################################################
#
#                 Cambridge Crystallographic Data Centre
#                                CCDC 
#
#######################################################################
#
# If this CIF has been generated from an entry in the Cambridge 
# Structural Database, then it will include bibliographic, chemical, 
# crystal, experimental, refinement or atomic coordinate data resulting 
# from the CCDC's data processing and validation procedures.
#
#######################################################################

data_SABYUR
_chemical_formula_moiety         'C23 H18 O2'
_chemical_name_systematic        
(3-Benzyl-5-methyl-1-benzofuran-2-yl)(phenyl)methanone
_symmetry_cell_setting           triclinic
_symmetry_space_group_name_H-M   'P -1'
_symmetry_Int_Tables_number      2
_space_group_name_Hall           '-P 1'
loop_
_symmetry_equiv_pos_site_id
_symmetry_equiv_pos_as_xyz
1 x,y,z
2 -x,-y,-z
_cell_length_a                   8.6511(4)
_cell_length_b                   10.2174(5)
_cell_length_c                   10.9669(6)
_cell_angle_alpha                67.755(2)
_cell_angle_beta                 75.371(2)
_cell_angle_gamma                74.734(2)
_cell_volume                     852.794
_exptl_crystal_colour            colorless
_exptl_crystal_description       block
_cell_formula_units_Z            2
loop_
_atom_site_label
_atom_site_type_symbol
_atom_site_fract_x
_atom_site_fract_y
_atom_site_fract_z
C1 C 0.7265(2) 0.64375(18) -0.06506(15)
H1 H 0.6451 0.6091 -0.0783
C2 C 0.8002(2) 0.7472(2) -0.16935(18)
H2 H 0.7679 0.7825 -0.2524
C3 C 0.9213(2) 0.7981(2) -0.15059(18)
H3 H 0.9706 0.8681 -0.2209
C4 C 0.9692(2) 0.7459(2) -0.02889(18)
H4 H 1.0519 0.7802 -0.0169
C5 C 0.89611(18) 0.64250(17) 0.07693(16)
H5 H 0.9295 0.6077 0.1596
C6 C 0.77310(16) 0.59102(14) 0.05949(13)
C7 C 0.69166(16) 0.47406(14) 0.16412(14)
C8 C 0.69113(16) 0.43395(13) 0.30769(13)
C9 C 0.62870(15) 0.32562(13) 0.41112(13)
C10 C 0.65912(15) 0.33460(14) 0.53000(13)
C11 C 0.62909(17) 0.25471(16) 0.66618(14)
H6 H 0.5770 0.1766 0.6953
C12 C 0.67745(18) 0.29279(17) 0.75684(15)
C13 C 0.75241(18) 0.41301(17) 0.71079(16)
H7 H 0.7820 0.4392 0.7730
C14 C 0.78407(17) 0.49391(16) 0.57771(15)
H8 H 0.8343 0.5731 0.5487
C15 C 0.73690(15) 0.45075(14) 0.48959(13)
C16 C 0.6549(2) 0.2038(2) 0.90318(16)
H9 H 0.5606 0.1610 0.9261
H10 H 0.6407 0.2644 0.9556
H11 H 0.7491 0.1295 0.9211
C17 C 0.54543(15) 0.21616(14) 0.40710(14)
H12 H 0.4756 0.2624 0.3400
H13 H 0.4769 0.1810 0.4930
C18 C 0.66261(15) 0.08953(13) 0.37580(13)
C19 C 0.77917(18) 0.00546(15) 0.45466(15)
H14 H 0.7866 0.0277 0.5275
C20 C 0.88441(19) -0.11097(16) 0.42604(19)
H15 H 0.9626 -0.1661 0.4792
C21 C 0.8738(2) -0.14553(17) 0.31937(19)
H16 H 0.9442 -0.2243 0.3007
C22 C 0.7591(2) -0.06342(18) 0.24043(17)
H17 H 0.7518 -0.0866 0.1681
C23 C 0.65431(19) 0.05365(16) 0.26834(15)
H18 H 0.5773 0.1090 0.2141
O1 O 0.62180(14) 0.40707(12) 0.13039(10)
O2 O 0.75768(11) 0.51343(10) 0.35326(9)
loop_
_geom_bond_atom_site_label_1
_geom_bond_atom_site_label_2
_geom_bond_site_symmetry_1
_geom_bond_site_symmetry_2
C1 H1 1_555 1_555
C2 C1 1_555 1_555
H2 C2 1_555 1_555
C3 C2 1_555 1_555
H3 C3 1_555 1_555
C4 C3 1_555 1_555
H4 C4 1_555 1_555
C5 C4 1_555 1_555
H5 C5 1_555 1_555
C6 C1 1_555 1_555
C7 C6 1_555 1_555
C8 C7 1_555 1_555
C9 C8 1_555 1_555
C10 C9 1_555 1_555
C11 C10 1_555 1_555
H6 C11 1_555 1_555
C12 C11 1_555 1_555
C13 C12 1_555 1_555
H7 C13 1_555 1_555
C14 C13 1_555 1_555
H8 C14 1_555 1_555
C15 C10 1_555 1_555
C16 C12 1_555 1_555
H9 C16 1_555 1_555
H10 C16 1_555 1_555
H11 C16 1_555 1_555
C17 C9 1_555 1_555
H12 C17 1_555 1_555
H13 C17 1_555 1_555
C18 C17 1_555 1_555
C19 C18 1_555 1_555
H14 C19 1_555 1_555
C20 C19 1_555 1_555
H15 C20 1_555 1_555
C21 C20 1_555 1_555
H16 C21 1_555 1_555
C22 C21 1_555 1_555
H17 C22 1_555 1_555
C23 C18 1_555 1_555
H18 C23 1_555 1_555
O1 C7 1_555 1_555
O2 C8 1_555 1_555
C5 C6 1_555 1_555
C14 C15 1_555 1_555
C15 O2 1_555 1_555
C22 C23 1_555 1_555

#END
