
#######################################################################
#
#                 Cambridge Crystallographic Data Centre
#                                CCDC 
#
#######################################################################
#
# If this CIF has been generated from an entry in the Cambridge 
# Structural Database, then it will include bibliographic, chemical, 
# crystal, experimental, refinement or atomic coordinate data resulting 
# from the CCDC's data processing and validation procedures.
#
#######################################################################

data_SABYOK
_chemical_compound_source        'red alga Rhodomela confervoides'
_chemical_formula_moiety         'C8 H8 Br2 O3 S1'
_chemical_name_systematic        
'2,3-Dibromo-4,5-dihydroxybenzyl methyl sulfoxide'
_symmetry_cell_setting           monoclinic
_symmetry_space_group_name_H-M   'P 21/c'
_symmetry_Int_Tables_number      14
_space_group_name_Hall           '-P 2ybc'
loop_
_symmetry_equiv_pos_site_id
_symmetry_equiv_pos_as_xyz
1 x,y,z
2 -x,1/2+y,1/2-z
3 -x,-y,-z
4 x,1/2-y,1/2+z
_cell_length_a                   12.506(1)
_cell_length_b                   4.473(1)
_cell_length_c                   19.156(2)
_cell_angle_alpha                90
_cell_angle_beta                 91.89(1)
_cell_angle_gamma                90
_cell_volume                     1070.99
_exptl_crystal_colour            colorless
_chemical_melting_point          '168-170 deg.C'
_cell_formula_units_Z            4
_exptl_crystal_recrystallization_method 'water/methanol 1:1'
loop_
_atom_site_label
_atom_site_type_symbol
_atom_site_fract_x
_atom_site_fract_y
_atom_site_fract_z
Br1 Br 0.0514(2) 0.5895(6) 0.9155(1)
Br2 Br 0.1037(2) 0.1871(5) 0.7745(1)
S1 S 0.2458(4) 0.5952(12) 1.0643(3)
O1 O 0.3368(10) 0.1470(30) 0.7542(6)
O2 O 0.5034(9) 0.3910(40) 0.8269(7)
O3 O 0.3558(9) 0.4740(30) 1.0774(7)
C1 C 0.1929(14) 0.5440(40) 0.8870(11)
C2 C 0.2116(14) 0.3660(50) 0.8288(10)
C3 C 0.3188(14) 0.3160(50) 0.8085(10)
C4 C 0.4026(14) 0.4390(50) 0.8486(10)
C5 C 0.3837(14) 0.6170(60) 0.9060(10)
C6 C 0.2762(15) 0.6690(50) 0.9266(10)
C7 C 0.2566(16) 0.8510(50) 0.9912(10)
C8 C 0.2247(18) 0.8560(50) 1.1340(10)
H1 H 0.396 0.057 0.731
H2 H 0.486 0.235 0.800
H3 H 0.451 0.713 0.935
H4 H 0.322 1.005 1.002
H5 H 0.184 0.977 0.984
H6 H 0.167 1.022 1.117
H7 H 0.300 0.969 1.147
H8 H 0.198 0.764 1.181
loop_
_geom_bond_atom_site_label_1
_geom_bond_atom_site_label_2
_geom_bond_site_symmetry_1
_geom_bond_site_symmetry_2
Br1 C1 1_555 1_555
Br2 C2 1_555 1_555
S1 O3 1_555 1_555
O1 C3 1_555 1_555
O2 C4 1_555 1_555
C1 C2 1_555 1_555
C2 C3 1_555 1_555
C3 C4 1_555 1_555
C4 C5 1_555 1_555
C5 C6 1_555 1_555
C6 C1 1_555 1_555
C7 S1 1_555 1_555
C8 S1 1_555 1_555
H1 O1 1_555 1_555
H2 O2 1_555 1_555
H3 C5 1_555 1_555
H4 C7 1_555 1_555
H5 C7 1_555 1_555
H6 C8 1_555 1_555
H7 C8 1_555 1_555
H8 C8 1_555 1_555
C6 C7 1_555 1_555

#END
