
#######################################################################
#
#                 Cambridge Crystallographic Data Centre
#                                CCDC 
#
#######################################################################
#
# If this CIF has been generated from an entry in the Cambridge 
# Structural Database, then it will include bibliographic, chemical, 
# crystal, experimental, refinement or atomic coordinate data resulting 
# from the CCDC's data processing and validation procedures.
#
#######################################################################

data_SABYAX
_chemical_name_common            
11-(dicyclohexylphosphinoyl)-12-(2,6-dimethylphenyl)-9,10-dihydro-9,10-ethenoanthracene
_chemical_formula_moiety         'C36 H41 P1'
_chemical_name_systematic        
Dicyclohexyl(16-(2,6-dimethylphenyl)tetracyclo[6.6.2.0^2,7^.0^9,14^]hexadeca-2,4,6,9,11,13,15-heptaen-15-yl)phosphine
_symmetry_cell_setting           monoclinic
_symmetry_space_group_name_H-M   'P 21/n'
_symmetry_Int_Tables_number      14
_space_group_name_Hall           '-P 2yn'
loop_
_symmetry_equiv_pos_site_id
_symmetry_equiv_pos_as_xyz
1 x,y,z
2 1/2-x,1/2+y,1/2-z
3 -x,-y,-z
4 1/2+x,1/2-y,1/2+z
_cell_length_a                   10.5759(5)
_cell_length_b                   23.8129(6)
_cell_length_c                   22.6470(7)
_cell_angle_alpha                90
_cell_angle_beta                 94.503(3)
_cell_angle_gamma                90
_cell_volume                     5685.88
_exptl_crystal_colour            colorless
_exptl_crystal_description       rod
_chemical_melting_point          '181-183 deg.C'
_cell_formula_units_Z            8
_exptl_crystal_recrystallization_method chloroform/methanol
loop_
_atom_site_label
_atom_site_type_symbol
_atom_site_fract_x
_atom_site_fract_y
_atom_site_fract_z
P1 P 0.62564(17) 0.12248(6) 0.13351(6)
C1 C 0.5985(6) 0.0740(2) 0.1944(2)
C2 C 0.5882(6) 0.0917(2) 0.2497(2)
C3 C 0.5745(6) 0.0434(2) 0.2949(2)
H1 H 0.5697 0.0574 0.3363
C4 C 0.4565(6) 0.0118(2) 0.2721(2)
C5 C 0.3504(6) 0.0007(2) 0.3018(2)
H2 H 0.3462 0.0135 0.3414
C6 C 0.2501(7) -0.0290(2) 0.2742(3)
H3 H 0.1769 -0.0367 0.2946
C7 C 0.2569(6) -0.0476(2) 0.2165(3)
H4 H 0.1884 -0.0684 0.1977
C8 C 0.3635(6) -0.0360(2) 0.1857(2)
H5 H 0.3671 -0.0484 0.1459
C9 C 0.4620(6) -0.0069(2) 0.2134(2)
C10 C 0.5869(6) 0.0089(2) 0.1884(2)
H6 H 0.5917 -0.0043 0.1467
C11 C 0.6918(6) -0.0153(2) 0.2304(2)
C12 C 0.7856(6) -0.0519(2) 0.2174(2)
H7 H 0.7887 -0.0658 0.1782
C13 C 0.8758(7) -0.0686(2) 0.2614(3)
H8 H 0.9411 -0.0937 0.2521
C14 C 0.8720(7) -0.0489(2) 0.3195(3)
H9 H 0.9356 -0.0597 0.3493
C15 C 0.7734(7) -0.0132(2) 0.3330(3)
H10 H 0.7675 -0.0007 0.3725
C16 C 0.6853(6) 0.0039(2) 0.2890(2)
C17 C 0.5817(7) 0.1505(2) 0.2734(2)
C18 C 0.6816(9) 0.1737(2) 0.3080(3)
C19 C 0.6681(10) 0.2274(3) 0.3334(3)
H11 H 0.7372 0.2438 0.3565
C20 C 0.5544(11) 0.2560(3) 0.3245(3)
H12 H 0.5455 0.2920 0.3416
C21 C 0.4560(9) 0.2328(3) 0.2914(3)
H13 H 0.3780 0.2526 0.2864
C22 C 0.4658(8) 0.1804(2) 0.2645(3)
C23 C 0.8062(8) 0.1435(3) 0.3206(3)
H14 H 0.8020 0.1067 0.3011
H15 H 0.8230 0.1384 0.3634
H16 H 0.8745 0.1657 0.3054
C24 C 0.3547(8) 0.1574(3) 0.2277(3)
H17 H 0.3471 0.1171 0.2353
H18 H 0.3665 0.1635 0.1857
H19 H 0.2773 0.1765 0.2379
C25 C 0.7900(6) 0.1034(2) 0.1157(2)
H20 H 0.8151 0.1319 0.0863
C26 C 0.8822(7) 0.1106(3) 0.1703(3)
H21 H 0.8589 0.0841 0.2013
H22 H 0.8742 0.1491 0.1859
C27 C 1.0219(7) 0.1001(3) 0.1572(3)
H23 H 1.0488 0.1292 0.1295
H24 H 1.0771 0.1030 0.1945
C28 C 1.0365(7) 0.0427(3) 0.1304(3)
H25 H 1.0174 0.0136 0.1596
H26 H 1.1254 0.0375 0.1206
C29 C 0.9489(6) 0.0356(3) 0.0750(3)
H27 H 0.9580 -0.0028 0.0593
H28 H 0.9731 0.0625 0.0445
C30 C 0.8105(6) 0.0456(2) 0.0875(2)
H29 H 0.7836 0.0159 0.1144
H30 H 0.7564 0.0428 0.0499
C31 C 0.5289(6) 0.0909(2) 0.0705(2)
H31 H 0.5519 0.0503 0.0678
C32 C 0.5561(6) 0.1200(2) 0.0122(2)
H32 H 0.5384 0.1606 0.0153
H33 H 0.6469 0.1154 0.0056
C33 C 0.4756(6) 0.0957(2) -0.0402(3)
H34 H 0.4992 0.0558 -0.0456
H35 H 0.4934 0.1163 -0.0766
C34 C 0.3346(7) 0.0994(3) -0.0317(3)
H36 H 0.2857 0.0807 -0.0652
H37 H 0.3085 0.1393 -0.0311
C35 C 0.3048(7) 0.0710(3) 0.0267(3)
H38 H 0.2141 0.0766 0.0331
H39 H 0.3205 0.0302 0.0241
C36 C 0.3864(6) 0.0953(3) 0.0792(3)
H40 H 0.3682 0.0750 0.1156
H41 H 0.3637 0.1353 0.0843
P2 P 0.25617(15) 0.22846(6) 0.58737(6)
C37 C 0.3150(5) 0.18282(19) 0.5303(2)
C38 C 0.3540(4) 0.20213(19) 0.4792(2)
C39 C 0.3874(5) 0.15507(19) 0.4354(2)
H42 H 0.4160 0.1701 0.3975
C40 C 0.4861(5) 0.11833(19) 0.4685(2)
C41 C 0.6028(5) 0.1048(2) 0.4510(2)
H43 H 0.6306 0.1195 0.4152
C42 C 0.6816(5) 0.0688(2) 0.4869(2)
H44 H 0.7634 0.0593 0.4754
C43 C 0.6404(6) 0.0471(2) 0.5389(2)
H45 H 0.6933 0.0221 0.5624
C44 C 0.5217(6) 0.0618(2) 0.5566(2)
H46 H 0.4937 0.0473 0.5924
C45 C 0.4453(5) 0.0975(2) 0.5218(2)
C46 C 0.3131(5) 0.11766(19) 0.5332(2)
H47 H 0.2845 0.1033 0.5714
C47 C 0.2273(5) 0.09875(19) 0.4799(2)
C48 C 0.1202(5) 0.0660(2) 0.4797(3)
H48 H 0.0920 0.0527 0.5160
C49 C 0.0533(6) 0.0524(3) 0.4263(3)
H49 H -0.0211 0.0300 0.4259
C50 C 0.0954(6) 0.0717(3) 0.3738(3)
H50 H 0.0505 0.0616 0.3374
C51 C 0.2025(5) 0.1057(2) 0.3732(2)
H51 H 0.2296 0.1194 0.3369
C52 C 0.2684(5) 0.1189(2) 0.4263(2)
C53 C 0.3660(5) 0.26175(19) 0.4597(2)
C54 C 0.4769(6) 0.2917(2) 0.4742(2)
C55 C 0.4855(6) 0.3475(2) 0.4546(2)
H52 H 0.5602 0.3686 0.4653
C56 C 0.3887(6) 0.3720(2) 0.4206(2)
H53 H 0.3958 0.4099 0.4082
C57 C 0.2810(6) 0.3420(2) 0.4042(2)
H54 H 0.2144 0.3588 0.3797
C58 C 0.2689(5) 0.2863(2) 0.4234(2)
C59 C 0.5893(7) 0.2650(3) 0.5078(4)
H55 H 0.6646 0.2701 0.4859
H56 H 0.5732 0.2248 0.5128
H57 H 0.6032 0.2827 0.5469
C60 C 0.1490(6) 0.2550(3) 0.4034(3)
H58 H 0.0799 0.2819 0.3946
H59 H 0.1265 0.2295 0.4348
H60 H 0.1626 0.2333 0.3676
C61 C 0.1024(5) 0.1929(2) 0.5958(2)
H61 H 0.1193 0.1516 0.5987
C62 C 0.0400(5) 0.2107(2) 0.6519(2)
H62 H 0.0961 0.2004 0.6873
H63 H 0.0291 0.2520 0.6518
C63 C -0.0886(5) 0.1827(3) 0.6553(3)
H64 H -0.0759 0.1417 0.6608
H65 H -0.1285 0.1972 0.6903
C64 C -0.1772(5) 0.1925(3) 0.6007(3)
H66 H -0.1989 0.2328 0.5975
H67 H -0.2567 0.1711 0.6040
C65 C -0.1152(6) 0.1739(3) 0.5457(3)
H68 H -0.1719 0.1830 0.5101
H69 H -0.1028 0.1327 0.5468
C66 C 0.0123(5) 0.2026(3) 0.5414(2)
H70 H 0.0516 0.1884 0.5060
H71 H -0.0016 0.2435 0.5361
C67 C 0.3485(9) 0.2202(4) 0.6522(4)
H72 H 0.3132 0.2458 0.6818
C68 C 0.4822(8) 0.2413(4) 0.6431(4)
H73 H 0.5209 0.2167 0.6143
H74 H 0.4769 0.2797 0.6264
C69 C 0.5666(9) 0.2421(4) 0.7008(4)
H75 H 0.6534 0.2538 0.6927
H76 H 0.5333 0.2699 0.7282
C70 C 0.5718(9) 0.1847(5) 0.7299(6)
H77 H 0.6217 0.1871 0.7686
H78 H 0.6148 0.1580 0.7047
C71 C 0.4386(9) 0.1632(4) 0.7390(4)
H79 H 0.3986 0.1880 0.7673
H80 H 0.4444 0.1250 0.7563
C72 C 0.3555(10) 0.1615(4) 0.6801(4)
H81 H 0.3921 0.1347 0.6526
H82 H 0.2692 0.1485 0.6873
C73? C 0.3574(10) 0.1906(6) 0.6587(5)
C74? C 0.4993(10) 0.1823(5) 0.6504(4)
C75? C 0.5669(11) 0.1516(5) 0.7027(5)
C76? C 0.5535(11) 0.1834(6) 0.7595(5)
C77? C 0.4155(10) 0.1954(5) 0.7693(4)
C78? C 0.3476(10) 0.2251(4) 0.7155(4)
H83? H 0.3192 0.1528 0.6648
H84? H 0.5085 0.1605 0.6138
H85? H 0.5396 0.2194 0.6459
H86? H 0.5304 0.1135 0.7059
H87? H 0.6580 0.1475 0.6962
H88? H 0.6002 0.2194 0.7583
H89? H 0.5920 0.1613 0.7933
H90? H 0.4112 0.2193 0.8048
H91? H 0.3716 0.1596 0.7765
H92? H 0.3861 0.2625 0.7107
H93? H 0.2572 0.2306 0.7225
loop_
_geom_bond_atom_site_label_1
_geom_bond_atom_site_label_2
_geom_bond_site_symmetry_1
_geom_bond_site_symmetry_2
P1 C1 1_555 1_555
C1 C2 1_555 1_555
C2 C3 1_555 1_555
C3 H1 1_555 1_555
C4 C3 1_555 1_555
C5 C4 1_555 1_555
H2 C5 1_555 1_555
C6 C5 1_555 1_555
H3 C6 1_555 1_555
C7 C6 1_555 1_555
H4 C7 1_555 1_555
C8 C7 1_555 1_555
H5 C8 1_555 1_555
C9 C4 1_555 1_555
C10 C1 1_555 1_555
H6 C10 1_555 1_555
C11 C10 1_555 1_555
C12 C11 1_555 1_555
H7 C12 1_555 1_555
C13 C12 1_555 1_555
H8 C13 1_555 1_555
C14 C13 1_555 1_555
H9 C14 1_555 1_555
C15 C14 1_555 1_555
H10 C15 1_555 1_555
C16 C3 1_555 1_555
C17 C2 1_555 1_555
C18 C17 1_555 1_555
C19 C18 1_555 1_555
H11 C19 1_555 1_555
C20 C19 1_555 1_555
H12 C20 1_555 1_555
C21 C20 1_555 1_555
H13 C21 1_555 1_555
C22 C17 1_555 1_555
C23 C18 1_555 1_555
H14 C23 1_555 1_555
H15 C23 1_555 1_555
H16 C23 1_555 1_555
C24 C22 1_555 1_555
H17 C24 1_555 1_555
H18 C24 1_555 1_555
H19 C24 1_555 1_555
C25 P1 1_555 1_555
H20 C25 1_555 1_555
C26 C25 1_555 1_555
H21 C26 1_555 1_555
H22 C26 1_555 1_555
C27 C26 1_555 1_555
H23 C27 1_555 1_555
H24 C27 1_555 1_555
C28 C27 1_555 1_555
H25 C28 1_555 1_555
H26 C28 1_555 1_555
C29 C28 1_555 1_555
H27 C29 1_555 1_555
H28 C29 1_555 1_555
C30 C25 1_555 1_555
H29 C30 1_555 1_555
H30 C30 1_555 1_555
C31 P1 1_555 1_555
H31 C31 1_555 1_555
C32 C31 1_555 1_555
H32 C32 1_555 1_555
H33 C32 1_555 1_555
C33 C32 1_555 1_555
H34 C33 1_555 1_555
H35 C33 1_555 1_555
C34 C33 1_555 1_555
H36 C34 1_555 1_555
H37 C34 1_555 1_555
C35 C34 1_555 1_555
H38 C35 1_555 1_555
H39 C35 1_555 1_555
C36 C31 1_555 1_555
H40 C36 1_555 1_555
H41 C36 1_555 1_555
P2 C37 1_555 1_555
C37 C38 1_555 1_555
C38 C39 1_555 1_555
C39 H42 1_555 1_555
C40 C39 1_555 1_555
C41 C40 1_555 1_555
H43 C41 1_555 1_555
C42 C41 1_555 1_555
H44 C42 1_555 1_555
C43 C42 1_555 1_555
H45 C43 1_555 1_555
C44 C43 1_555 1_555
H46 C44 1_555 1_555
C45 C40 1_555 1_555
C46 C37 1_555 1_555
H47 C46 1_555 1_555
C47 C46 1_555 1_555
C48 C47 1_555 1_555
H48 C48 1_555 1_555
C49 C48 1_555 1_555
H49 C49 1_555 1_555
C50 C49 1_555 1_555
H50 C50 1_555 1_555
C51 C50 1_555 1_555
H51 C51 1_555 1_555
C52 C39 1_555 1_555
C53 C38 1_555 1_555
C54 C53 1_555 1_555
C55 C54 1_555 1_555
H52 C55 1_555 1_555
C56 C55 1_555 1_555
H53 C56 1_555 1_555
C57 C56 1_555 1_555
H54 C57 1_555 1_555
C58 C53 1_555 1_555
C59 C54 1_555 1_555
H55 C59 1_555 1_555
H56 C59 1_555 1_555
H57 C59 1_555 1_555
C60 C58 1_555 1_555
H58 C60 1_555 1_555
H59 C60 1_555 1_555
H60 C60 1_555 1_555
C61 P2 1_555 1_555
H61 C61 1_555 1_555
C62 C61 1_555 1_555
H62 C62 1_555 1_555
H63 C62 1_555 1_555
C63 C62 1_555 1_555
H64 C63 1_555 1_555
H65 C63 1_555 1_555
C64 C63 1_555 1_555
H66 C64 1_555 1_555
H67 C64 1_555 1_555
C65 C64 1_555 1_555
H68 C65 1_555 1_555
H69 C65 1_555 1_555
C66 C61 1_555 1_555
H70 C66 1_555 1_555
H71 C66 1_555 1_555
C67 P2 1_555 1_555
H72 C67 1_555 1_555
C68 C67 1_555 1_555
H73 C68 1_555 1_555
H74 C68 1_555 1_555
C69 C68 1_555 1_555
H75 C69 1_555 1_555
H76 C69 1_555 1_555
C70 C69 1_555 1_555
H77 C70 1_555 1_555
H78 C70 1_555 1_555
C71 C70 1_555 1_555
H79 C71 1_555 1_555
H80 C71 1_555 1_555
C72 C67 1_555 1_555
H81 C72 1_555 1_555
H82 C72 1_555 1_555
C8 C9 1_555 1_555
C9 C10 1_555 1_555
C11 C16 1_555 1_555
C15 C16 1_555 1_555
C21 C22 1_555 1_555
C29 C30 1_555 1_555
C35 C36 1_555 1_555
C44 C45 1_555 1_555
C45 C46 1_555 1_555
C47 C52 1_555 1_555
C51 C52 1_555 1_555
C57 C58 1_555 1_555
C65 C66 1_555 1_555
C71 C72 1_555 1_555

#END
