
#######################################################################
#
#                 Cambridge Crystallographic Data Centre
#                                CCDC 
#
#######################################################################
#
# If this CIF has been generated from an entry in the Cambridge 
# Structural Database, then it will include bibliographic, chemical, 
# crystal, experimental, refinement or atomic coordinate data resulting 
# from the CCDC's data processing and validation procedures.
#
#######################################################################

data_SACCEG
_chemical_formula_moiety         'C14 H13 Br1 N2 O2'
_chemical_name_systematic        
1-(4-Bromobenzoyl)-4,5-divinylimidazolidin-2-one
_symmetry_cell_setting           monoclinic
_symmetry_space_group_name_H-M   'P 21'
_symmetry_Int_Tables_number      4
_space_group_name_Hall           'P 2yb'
loop_
_symmetry_equiv_pos_site_id
_symmetry_equiv_pos_as_xyz
1 x,y,z
2 -x,1/2+y,-z
_cell_length_a                   10.3672(19)
_cell_length_b                   6.3810(12)
_cell_length_c                   11.748(2)
_cell_angle_alpha                90
_cell_angle_beta                 109.810(12)
_cell_angle_gamma                90
_cell_volume                     731.175
_exptl_crystal_colour            colorless
_exptl_crystal_description       plate
_cell_formula_units_Z            2
loop_
_atom_site_label
_atom_site_type_symbol
_atom_site_fract_x
_atom_site_fract_y
_atom_site_fract_z
Br1 Br 0.13846(6) 0.28737(12) 0.78642(5)
O1 O 0.1943(3) 0.4447(5) 0.2331(3)
O2 O 0.4140(3) 0.8389(5) 0.5090(3)
N1 N 0.2847(3) 0.7572(6) 0.3069(3)
N2 N 0.4461(4) 1.0014(6) 0.3480(3)
H1 H 0.5188 1.0751 0.3887
C1 C 0.1674(5) 0.3794(9) 0.6447(5)
C2 C 0.1350(5) 0.5830(9) 0.6034(5)
H2 H 0.0973 0.6770 0.6463
C3 C 0.1579(5) 0.6495(8) 0.4990(5)
H3 H 0.1386 0.7901 0.4721
C4 C 0.2088(4) 0.5105(7) 0.4347(4)
C5 C 0.2385(4) 0.3080(9) 0.4756(4)
H4 H 0.2725 0.2122 0.4306
C6 C 0.2197(5) 0.2415(8) 0.5812(5)
H5 H 0.2426 0.1023 0.6095
C7 C 0.2296(5) 0.5651(8) 0.3183(4)
C8 C 0.2925(4) 0.8203(8) 0.1871(4)
H6 H 0.3408 0.7093 0.1568
C9 C 0.3805(5) 1.0194(8) 0.2169(4)
H7 H 0.3198 1.1456 0.1975
C10 C 0.3880(5) 0.8663(7) 0.4004(4)
C11 C 0.1543(5) 0.8633(8) 0.0938(4)
H8 H 0.0917 0.9466 0.1174
C12 C 0.1149(5) 0.7949(14) -0.0163(4)
H9 H 0.1748 0.7112 -0.0431
H10 H 0.0259 0.8283 -0.0704
C13 C 0.4828(6) 1.0342(11) 0.1541(5)
H11 H 0.5450 0.9209 0.1633
C14 C 0.4928(9) 1.1891(12) 0.0887(7)
H12 H 0.4323 1.3050 0.0776
H13 H 0.5608 1.1883 0.0511
loop_
_geom_bond_atom_site_label_1
_geom_bond_atom_site_label_2
_geom_bond_site_symmetry_1
_geom_bond_site_symmetry_2
Br1 C1 1_555 1_555
O1 C7 1_555 1_555
O2 C10 1_555 1_555
N1 C7 1_555 1_555
N2 H1 1_555 1_555
C1 C2 1_555 1_555
C2 H2 1_555 1_555
C3 C2 1_555 1_555
H3 C3 1_555 1_555
C4 C3 1_555 1_555
C5 C4 1_555 1_555
H4 C5 1_555 1_555
C6 C1 1_555 1_555
H5 C6 1_555 1_555
C7 C4 1_555 1_555
C8 N1 1_555 1_555
H6 C8 1_555 1_555
C9 N2 1_555 1_555
H7 C9 1_555 1_555
C10 N1 1_555 1_555
C11 C8 1_555 1_555
H8 C11 1_555 1_555
C12 C11 1_555 1_555
H9 C12 1_555 1_555
H10 C12 1_555 1_555
C13 C9 1_555 1_555
H11 C13 1_555 1_555
C14 C13 1_555 1_555
H12 C14 1_555 1_555
H13 C14 1_555 1_555
N2 C10 1_555 1_555
C5 C6 1_555 1_555
C8 C9 1_555 1_555

#END
