
#######################################################################
#
#                 Cambridge Crystallographic Data Centre
#                                CCDC 
#
#######################################################################
#
# If this CIF has been generated from an entry in the Cambridge 
# Structural Database, then it will include bibliographic, chemical, 
# crystal, experimental, refinement or atomic coordinate data resulting 
# from the CCDC's data processing and validation procedures.
#
#######################################################################

data_SACDOS
_chemical_formula_moiety         'C38 H30 N2 P2 2+,2(H2 O1),2(Cl1 1-)'
_chemical_name_systematic        
'6,6,12,12-Tetraphenyl-5,6,11,12-tetrahydro[1,4]benzazaphosphinino[3,2-b][1,4]benzazaphosphinine-6,12-di-ium dichloride dihydrate'
_symmetry_cell_setting           triclinic
_symmetry_space_group_name_H-M   'P -1'
_symmetry_Int_Tables_number      2
_space_group_name_Hall           '-P 1'
loop_
_symmetry_equiv_pos_site_id
_symmetry_equiv_pos_as_xyz
1 x,y,z
2 -x,-y,-z
_cell_length_a                   8.5555(4)
_cell_length_b                   8.6021(6)
_cell_length_c                   11.7599(6)
_cell_angle_alpha                87.969(5)
_cell_angle_beta                 84.606(4)
_cell_angle_gamma                78.454(5)
_cell_volume                     844.082
_cell_formula_units_Z            1
loop_
_atom_site_label
_atom_site_type_symbol
_atom_site_fract_x
_atom_site_fract_y
_atom_site_fract_z
C1 C 0.1865(3) -0.0077(3) 0.2530(2)
C2 C 0.3222(3) -0.1043(3) 0.2012(2)
H1 H 0.3330 -0.1189 0.1227
C3 C 0.4412(4) -0.1787(4) 0.2679(3)
H2 H 0.5310 -0.2463 0.2344
C4 C 0.4272(4) -0.1531(4) 0.3835(3)
H3 H 0.5090 -0.2014 0.4273
C5 C 0.2932(4) -0.0566(4) 0.4346(2)
H4 H 0.2848 -0.0398 0.5128
C6 C 0.1707(3) 0.0156(3) 0.3700(2)
H5 H 0.0789 0.0791 0.4046
C7 C -0.1442(3) 0.1862(3) 0.24044(18)
C8 C -0.2836(3) 0.1310(3) 0.2269(2)
H6 H -0.2794 0.0411 0.1842
C9 C -0.4281(3) 0.2114(4) 0.2775(3)
H7 H -0.5214 0.1748 0.2690
C10 C -0.4353(3) 0.3451(4) 0.3404(2)
H8 H -0.5335 0.3995 0.3728
C11 C -0.2969(3) 0.3982(4) 0.3553(2)
H9 H -0.3017 0.4874 0.3988
C12 C -0.1503(3) 0.3189(3) 0.3055(2)
H10 H -0.0570 0.3545 0.3157
C13 C 0.1280(3) 0.2421(3) 0.08218(19)
C14 C 0.2078(3) 0.3411(3) 0.1386(2)
H11 H 0.2182 0.3266 0.2165
C15 C 0.2702(3) 0.4585(3) 0.0798(2)
H12 H 0.3232 0.5231 0.1172
C16 C 0.2529(3) 0.4797(3) -0.0374(2)
H13 H 0.2954 0.5590 -0.0777
C17 C 0.1747(3) 0.3857(3) -0.0937(2)
H14 H 0.1638 0.4024 -0.1713
C18 C 0.1108(3) 0.2643(3) -0.03499(19)
C19 C -0.0004(3) 0.0271(3) -0.05559(19)
N1 N 0.0369(2) 0.1700(2) -0.09539(17)
H15 H 0.029(4) 0.191(4) -0.169(3)
P1 P 0.04194(6) 0.09788(7) 0.16274(4)
C1A C -0.1865(3) 0.0077(3) -0.2530(2)
C2A C -0.3222(3) 0.1043(3) -0.2012(2)
H1A H -0.3330 0.1189 -0.1227
C3A C -0.4412(4) 0.1787(4) -0.2679(3)
H2A H -0.5310 0.2463 -0.2344
C4A C -0.4272(4) 0.1531(4) -0.3835(3)
H3A H -0.5090 0.2014 -0.4273
C5A C -0.2932(4) 0.0566(4) -0.4346(2)
H4A H -0.2848 0.0398 -0.5128
C6A C -0.1707(3) -0.0156(3) -0.3700(2)
H5A H -0.0789 -0.0791 -0.4046
C7A C 0.1442(3) -0.1862(3) -0.24044(18)
C8A C 0.2836(3) -0.1310(3) -0.2269(2)
H6A H 0.2794 -0.0411 -0.1842
C9A C 0.4281(3) -0.2114(4) -0.2775(3)
H7A H 0.5214 -0.1748 -0.2690
C10A C 0.4353(3) -0.3451(4) -0.3404(2)
H8A H 0.5335 -0.3995 -0.3728
C11A C 0.2969(3) -0.3982(4) -0.3553(2)
H9A H 0.3017 -0.4874 -0.3988
C12A C 0.1503(3) -0.3189(3) -0.3055(2)
H10A H 0.0570 -0.3545 -0.3157
C13A C -0.1280(3) -0.2421(3) -0.08218(19)
C14A C -0.2078(3) -0.3411(3) -0.1386(2)
H11A H -0.2182 -0.3266 -0.2165
C15A C -0.2702(3) -0.4585(3) -0.0798(2)
H12A H -0.3232 -0.5231 -0.1172
C16A C -0.2529(3) -0.4797(3) 0.0374(2)
H13A H -0.2954 -0.5590 0.0777
C17A C -0.1747(3) -0.3857(3) 0.0937(2)
H14A H -0.1638 -0.4024 0.1713
C18A C -0.1108(3) -0.2643(3) 0.03499(19)
C19A C 0.0004(3) -0.0271(3) 0.05559(19)
N1A N -0.0369(2) -0.1700(2) 0.09539(17)
H15A H -0.029(4) -0.191(4) 0.169(3)
P1A P -0.04194(6) -0.09788(7) -0.16274(4)
Cl1 Cl 0.91785(10) 0.74364(10) 0.35702(6)
O1 O 0.1812(3) 0.4241(4) 0.4073(2)
H16 H 0.158(4) 0.375(5) 0.476(4)
H17 H 0.135(7) 0.532(7) 0.395(5)
loop_
_geom_bond_atom_site_label_1
_geom_bond_atom_site_label_2
_geom_bond_site_symmetry_1
_geom_bond_site_symmetry_2
C1 C2 1_555 1_555
C2 H1 1_555 1_555
C3 C2 1_555 1_555
H2 C3 1_555 1_555
C4 C3 1_555 1_555
H3 C4 1_555 1_555
C5 C4 1_555 1_555
H4 C5 1_555 1_555
C6 C1 1_555 1_555
H5 C6 1_555 1_555
C7 C8 1_555 1_555
C8 H6 1_555 1_555
C9 C8 1_555 1_555
H7 C9 1_555 1_555
C10 C9 1_555 1_555
H8 C10 1_555 1_555
C11 C10 1_555 1_555
H9 C11 1_555 1_555
C12 C7 1_555 1_555
H10 C12 1_555 1_555
C13 C14 1_555 1_555
C14 H11 1_555 1_555
C15 C14 1_555 1_555
H12 C15 1_555 1_555
C16 C15 1_555 1_555
H13 C16 1_555 1_555
C17 C16 1_555 1_555
H14 C17 1_555 1_555
C18 C13 1_555 1_555
C19 N1 1_555 1_555
N1 C18 1_555 1_555
H15 N1 1_555 1_555
P1 C1 1_555 1_555
O1 H16 1_555 1_555
H17 O1 1_555 1_555
C1A C2A 1_555 1_555
C2A H1A 1_555 1_555
C3A C2A 1_555 1_555
H2A C3A 1_555 1_555
C4A C3A 1_555 1_555
H3A C4A 1_555 1_555
C5A C4A 1_555 1_555
H4A C5A 1_555 1_555
C6A C1A 1_555 1_555
H5A C6A 1_555 1_555
C7A C8A 1_555 1_555
C8A H6A 1_555 1_555
C9A C8A 1_555 1_555
H7A C9A 1_555 1_555
C10A C9A 1_555 1_555
H8A C10A 1_555 1_555
C11A C10A 1_555 1_555
H9A C11A 1_555 1_555
C12A C7A 1_555 1_555
H10A C12A 1_555 1_555
C13A C14A 1_555 1_555
C14A H11A 1_555 1_555
C15A C14A 1_555 1_555
H12A C15A 1_555 1_555
C16A C15A 1_555 1_555
H13A C16A 1_555 1_555
C17A C16A 1_555 1_555
H14A C17A 1_555 1_555
C18A C13A 1_555 1_555
C19A C19 1_555 1_555
N1A C18A 1_555 1_555
H15A N1A 1_555 1_555
P1A C19 1_555 1_555
C5 C6 1_555 1_555
C7 P1 1_555 1_555
C11 C12 1_555 1_555
C13 P1 1_555 1_555
C17 C18 1_555 1_555
P1 C19A 1_555 1_555
C1A P1A 1_555 1_555
C5A C6A 1_555 1_555
C7A P1A 1_555 1_555
C11A C12A 1_555 1_555
C13A P1A 1_555 1_555
C17A C18A 1_555 1_555
C19A N1A 1_555 1_555

#END
