
#######################################################################
#
#                 Cambridge Crystallographic Data Centre
#                                CCDC 
#
#######################################################################
#
# If this CIF has been generated from an entry in the Cambridge 
# Structural Database, then it will include bibliographic, chemical, 
# crystal, experimental, refinement or atomic coordinate data resulting 
# from the CCDC's data processing and validation procedures.
#
#######################################################################

data_SACGUA
_chemical_formula_moiety         'C10 H12 N2 O2'
_chemical_name_systematic        
9-Acetyl-1,2,3,4-tetrahydro-6H-pyrido[1,2-a]pyrimidin-6-one
_symmetry_cell_setting           monoclinic
_symmetry_space_group_name_H-M   'P 21/c'
_symmetry_Int_Tables_number      14
_space_group_name_Hall           '-P 2ybc'
loop_
_symmetry_equiv_pos_site_id
_symmetry_equiv_pos_as_xyz
1 x,y,z
2 -x,1/2+y,1/2-z
3 -x,-y,-z
4 x,1/2-y,1/2+z
_cell_length_a                   7.8893(10)
_cell_length_b                   5.4275(7)
_cell_length_c                   21.649(3)
_cell_angle_alpha                90
_cell_angle_beta                 92.886(2)
_cell_angle_gamma                90
_cell_volume                     925.817
_exptl_crystal_colour            colorless
_exptl_crystal_description       prismatic
_chemical_melting_point          '174-176 deg.C'
_cell_formula_units_Z            4
loop_
_atom_site_label
_atom_site_type_symbol
_atom_site_fract_x
_atom_site_fract_y
_atom_site_fract_z
O1 O 0.2260(2) -0.1225(3) 0.24246(8)
O2 O 0.1814(2) 0.5450(3) 0.47837(8)
N1 N 0.12232(19) 0.0366(3) 0.33048(7)
N2 N 0.0043(2) 0.1991(4) 0.41772(10)
C1 C 0.2485(3) 0.0223(4) 0.28607(10)
C2 C 0.3902(3) 0.1793(4) 0.29596(11)
H1 H 0.4788 0.1714 0.2693
C3 C 0.3990(3) 0.3398(4) 0.34327(10)
H2 H 0.4927 0.4436 0.3473
C4 C 0.2725(2) 0.3587(3) 0.38725(10)
C5 C 0.1304(2) 0.1974(3) 0.37928(9)
C6 C -0.0250(2) -0.1296(4) 0.31953(10)
H3 H 0.0146 -0.2873 0.3049
H4 H -0.1006 -0.0600 0.2874
C7 C -0.1207(2) -0.1691(4) 0.37593(10)
H5 H -0.2298 -0.2416 0.3639
H6 H -0.0592 -0.2868 0.4022
C8 C -0.14955(16) 0.0520(3) 0.41114(7)
H7 H -0.1862 0.0075 0.4518
H8 H -0.2390 0.1483 0.3904
C9 C 0.28575(16) 0.5334(3) 0.43750(7)
C10 C 0.43314(16) 0.7136(3) 0.44062(7)
H9 H 0.4245 0.8187 0.4760
H10 H 0.4300 0.8118 0.4037
H11 H 0.5381 0.6240 0.4442
H12 H 0.017(4) 0.304(4) 0.4484(10)
C11? C -0.1741(8) -0.0504(15) 0.3540(3)
H13? H 0.0068 -0.2897 0.3203
H14? H -0.0560 -0.1307 0.2753
H15? H -0.2375 0.0673 0.3283
H16? H -0.2464 -0.1934 0.3582
H17? H -0.2450 0.1548 0.4117
H18? H -0.1430 -0.0772 0.4407
loop_
_geom_bond_atom_site_label_1
_geom_bond_atom_site_label_2
_geom_bond_site_symmetry_1
_geom_bond_site_symmetry_2
O1 C1 1_555 1_555
O2 C9 1_555 1_555
N1 C1 1_555 1_555
N2 C5 1_555 1_555
C1 C2 1_555 1_555
C2 H1 1_555 1_555
C3 C2 1_555 1_555
H2 C3 1_555 1_555
C4 C3 1_555 1_555
C5 N1 1_555 1_555
C6 N1 1_555 1_555
H3 C6 1_555 1_555
H4 C6 1_555 1_555
C7 C6 1_555 1_555
H5 C7 1_555 1_555
H6 C7 1_555 1_555
C8 N2 1_555 1_555
H7 C8 1_555 1_555
H8 C8 1_555 1_555
C9 C4 1_555 1_555
C10 C9 1_555 1_555
H9 C10 1_555 1_555
H10 C10 1_555 1_555
H11 C10 1_555 1_555
H12 N2 1_555 1_555
C4 C5 1_555 1_555
C7 C8 1_555 1_555

#END
