
#######################################################################
#
#                 Cambridge Crystallographic Data Centre
#                                CCDC 
#
#######################################################################
#
# If this CIF has been generated from an entry in the Cambridge 
# Structural Database, then it will include bibliographic, chemical, 
# crystal, experimental, refinement or atomic coordinate data resulting 
# from the CCDC's data processing and validation procedures.
#
#######################################################################

data_SACMUF
_chemical_formula_moiety         'C12 H10 N2 Se3'
_chemical_name_systematic        
5,6-Dicyano-4,7-diethylbenzo(1,2,3)triselenole
_symmetry_cell_setting           orthorhombic
_symmetry_space_group_name_H-M   'P 21 21 21'
_symmetry_Int_Tables_number      19
_space_group_name_Hall           'P 2ac 2ab'
loop_
_symmetry_equiv_pos_site_id
_symmetry_equiv_pos_as_xyz
1 x,y,z
2 1/2+x,1/2-y,-z
3 -x,1/2+y,1/2-z
4 1/2-x,-y,1/2+z
_cell_length_a                   8.200(4)
_cell_length_b                   9.501(4)
_cell_length_c                   17.347(7)
_cell_angle_alpha                90
_cell_angle_beta                 90
_cell_angle_gamma                90
_cell_volume                     1351.47
_exptl_crystal_colour            'dark red'
_exptl_crystal_description       rod
_chemical_melting_point          151-152deg.C
_cell_formula_units_Z            4
loop_
_atom_site_label
_atom_site_type_symbol
_atom_site_fract_x
_atom_site_fract_y
_atom_site_fract_z
Se1 Se 0.6754(2) 0.1379(1) -0.06221(7)
Se2 Se 0.7673(2) 0.3583(2) -0.10123(8)
Se3 Se 0.6707(2) 0.4600(1) 0.01088(8)
N1 N 0.825(2) 0.244(2) 0.3463(7)
N2 N 0.837(2) -0.135(2) 0.2581(7)
C1 C 0.730(2) 0.169(1) 0.0445(7)
C2 C 0.729(2) 0.299(2) 0.0750(7)
C3 C 0.757(2) 0.329(1) 0.1541(7)
C4 C 0.785(2) 0.210(2) 0.2000(7)
C5 C 0.786(2) 0.074(2) 0.1693(7)
C6 C 0.757(2) 0.046(1) 0.0901(7)
C7 C 0.810(2) 0.227(2) 0.2816(7)
C8 C 0.814(2) -0.044(2) 0.2187(8)
C9 C 0.757(2) 0.473(1) 0.1885(9)
C10 C 0.585(2) 0.522(2) 0.2062(8)
C11 C 0.754(2) -0.097(1) 0.0576(8)
C12 C 0.582(2) -0.157(2) 0.059(1)
H1 H 0.822(2) 0.480(1) 0.2337(9)
H2 H 0.800(2) 0.535(1) 0.1502(9)
H3 H 0.581(2) 0.616(2) 0.2256(8)
H4 H 0.521(2) 0.516(2) 0.1606(8)
H5 H 0.543(2) 0.459(2) 0.2438(8)
H6 H 0.792(2) -0.095(1) 0.0060(8)
H7 H 0.821(2) -0.159(1) 0.0872(8)
H8 H 0.544(2) -0.157(2) 0.111(1)
H9 H 0.516(2) -0.095(2) 0.029(1)
H10 H 0.575(2) -0.250(2) 0.039(1)
loop_
_geom_bond_atom_site_label_1
_geom_bond_atom_site_label_2
_geom_bond_site_symmetry_1
_geom_bond_site_symmetry_2
Se1 Se2 1_555 1_555
Se2 Se3 1_555 1_555
Se3 C2 1_555 1_555
N1 C7 1_555 1_555
N2 C8 1_555 1_555
C1 Se1 1_555 1_555
C2 C1 1_555 1_555
C3 C2 1_555 1_555
C4 C3 1_555 1_555
C5 C4 1_555 1_555
C6 C1 1_555 1_555
C7 C4 1_555 1_555
C8 C5 1_555 1_555
C9 C3 1_555 1_555
C10 C9 1_555 1_555
C11 C6 1_555 1_555
C12 C11 1_555 1_555
H1 C9 1_555 1_555
H2 C9 1_555 1_555
H3 C10 1_555 1_555
H4 C10 1_555 1_555
H5 C10 1_555 1_555
H6 C11 1_555 1_555
H7 C11 1_555 1_555
H8 C12 1_555 1_555
H9 C12 1_555 1_555
H10 C12 1_555 1_555
C5 C6 1_555 1_555

#END
