
#######################################################################
#
#                 Cambridge Crystallographic Data Centre
#                                CCDC 
#
#######################################################################
#
# If this CIF has been generated from an entry in the Cambridge 
# Structural Database, then it will include bibliographic, chemical, 
# crystal, experimental, refinement or atomic coordinate data resulting 
# from the CCDC's data processing and validation procedures.
#
#######################################################################

data_SACMIT
_chemical_formula_moiety         'C10 H10 Br2 Se3'
_chemical_name_systematic        
5,6-Dibromo-4,7-diethylbenzo(1,2,3)triselenole
_symmetry_cell_setting           monoclinic
_symmetry_space_group_name_H-M   'P 21/n'
_symmetry_Int_Tables_number      14
_space_group_name_Hall           '-P 2yn'
loop_
_symmetry_equiv_pos_site_id
_symmetry_equiv_pos_as_xyz
1 x,y,z
2 1/2+x,1/2-y,1/2+z
3 -x,-y,-z
4 1/2-x,1/2+y,1/2-z
_cell_length_a                   4.769(2)
_cell_length_b                   15.575(7)
_cell_length_c                   17.916(7)
_cell_angle_alpha                90
_cell_angle_beta                 94.06(3)
_cell_angle_gamma                90
_cell_volume                     1327.41
_exptl_crystal_colour            'dark red'
_exptl_crystal_description       rod
_chemical_melting_point          141-142deg.C
_cell_formula_units_Z            4
loop_
_atom_site_label
_atom_site_type_symbol
_atom_site_fract_x
_atom_site_fract_y
_atom_site_fract_z
Br1 Br 0.9311 0.1610 0.7466
Br2 Br 0.6222 0.2393 0.8887
Se1 Se 0.0615 0.4877 0.6988
Se2 Se 0.2593 0.5362 0.5907
Se3 Se 0.3207 0.3960 0.5520
C1 C 0.3198 0.3923 0.7127
C2 C 0.4381 0.3553 0.6504
C3 C 0.6160 0.2845 0.6595
C4 C 0.6781 0.2543 0.7318
C5 C 0.5522 0.2898 0.7930
C6 C 0.3716 0.3595 0.7845
C7 C 0.7331 0.2410 0.5934
C8 C 0.5537 0.1652 0.5671
C9 C 0.2391 0.3993 0.8501
C10 C 0.4320 0.4631 0.8932
H1 H 0.9225 0.2090 0.5886
H2 H 0.7735 0.2880 0.5636
H3 H 0.5465 0.1173 0.6055
H4 H 0.3795 0.1833 0.5505
H5 H 0.6535 0.1343 0.5285
H6 H 0.1426 0.3596 0.8825
H7 H 0.0406 0.4226 0.8366
H8 H 0.6686 0.4281 0.9012
H9 H 0.3376 0.4831 0.9392
H10 H 0.4436 0.5111 0.8622
loop_
_geom_bond_atom_site_label_1
_geom_bond_atom_site_label_2
_geom_bond_site_symmetry_1
_geom_bond_site_symmetry_2
Br1 C4 1_555 1_555
Br2 C5 1_555 1_555
Se1 Se2 1_555 1_555
Se2 Se3 1_555 1_555
Se3 C2 1_555 1_555
C1 Se1 1_555 1_555
C2 C1 1_555 1_555
C3 C2 1_555 1_555
C4 C3 1_555 1_555
C5 C4 1_555 1_555
C6 C1 1_555 1_555
C7 C3 1_555 1_555
C8 C7 1_555 1_555
C9 C6 1_555 1_555
C10 C9 1_555 1_555
H1 C7 1_555 1_555
H2 C7 1_555 1_555
H3 C8 1_555 1_555
H4 C8 1_555 1_555
H5 C8 1_555 1_555
H6 C9 1_555 1_555
H7 C9 1_555 1_555
H8 C10 1_555 1_555
H9 C10 1_555 1_555
H10 C10 1_555 1_555
C5 C6 1_555 1_555

#END
