
#######################################################################
#
#                 Cambridge Crystallographic Data Centre
#                                CCDC 
#
#######################################################################
#
# If this CIF has been generated from an entry in the Cambridge 
# Structural Database, then it will include bibliographic, chemical, 
# crystal, experimental, refinement or atomic coordinate data resulting 
# from the CCDC's data processing and validation procedures.
#
#######################################################################

data_SACMAL
_chemical_formula_moiety         'C104 H98 N8 S8,2(C1 H1 Cl3)'
_chemical_name_systematic        
'1,4,8,11,15,18,22,25-Octaethyl-2,3,9,10,16,17,23,24-(benzylthio)phthalocyanine chloroform solvate'
_symmetry_cell_setting           triclinic
_symmetry_space_group_name_H-M   'P -1'
_symmetry_Int_Tables_number      2
_space_group_name_Hall           '-P 1'
loop_
_symmetry_equiv_pos_site_id
_symmetry_equiv_pos_as_xyz
1 x,y,z
2 -x,-y,-z
_cell_length_a                   15.301(7)
_cell_length_b                   16.10(1)
_cell_length_c                   21.64(1)
_cell_angle_alpha                77.42(4)
_cell_angle_beta                 89.92(4)
_cell_angle_gamma                70.89(4)
_cell_volume                     4902.08
_exptl_crystal_colour            green
_exptl_crystal_description       rhombic
_chemical_melting_point          82-84deg.C
_cell_formula_units_Z            2
_exptl_crystal_recrystallization_method chloroform/methanol
loop_
_atom_site_label
_atom_site_type_symbol
_atom_site_fract_x
_atom_site_fract_y
_atom_site_fract_z
Cl1 Cl 0.77245(8) 1.15151(6) 0.25601(5)
Cl2 Cl 0.66423(7) 1.06017(8) 0.33416(5)
Cl3 Cl 0.70830(6) 1.02506(6) 0.21039(4)
C105 C 0.7473(2) 1.0507(2) 0.2779(1)
H98 H 0.8026(2) 1.0033(2) 0.2963(1)
Cl4 Cl 0.27729(6) 0.49831(6) 0.28947(4)
Cl5 Cl 0.34797(6) 0.49657(8) 0.16575(5)
Cl6 Cl 0.23926(6) 0.38373(6) 0.21600(6)
C106 C 0.2566(2) 0.4877(2) 0.2127(1)
H97 H 0.2016(2) 0.5351(2) 0.1939(1)
S1 S 0.69446(4) 1.10654(4) -0.00436(3)
S2 S 0.52700(4) 1.24874(4) 0.04562(3)
S3 S 0.08297(4) 1.20131(4) 0.33324(3)
S4 S 0.05925(4) 1.03839(4) 0.43850(3)
S5 S 0.28743(4) 0.41642(4) 0.50032(3)
S6 S 0.46234(4) 0.27514(4) 0.45617(3)
S7 S 0.91156(4) 0.32362(4) 0.17553(3)
S8 S 0.92930(4) 0.48445(4) 0.06594(3)
N1 N 0.5181(1) 0.8634(1) 0.19392(9)
N2 N 0.4017(1) 0.9905(1) 0.22154(9)
N3 N 0.3953(1) 0.8521(1) 0.28961(9)
N4 N 0.3472(1) 0.7450(1) 0.36665(9)
N5 N 0.4750(1) 0.6619(1) 0.3137(1)
N6 N 0.5934(1) 0.5350(1) 0.2871(1)
N7 N 0.5998(1) 0.6733(1) 0.2188(1)
N8 N 0.6456(1) 0.7801(1) 0.14041(9)
C1 C 0.5851(1) 0.8561(2) 0.1514(1)
C2 C 0.4728(1) 0.9533(1) 0.1887(1)
C3 C 0.3661(1) 0.9441(2) 0.2665(1)
C4 C 0.3416(1) 0.8278(2) 0.3364(1)
C5 C 0.4068(1) 0.6690(2) 0.3549(1)
C6 C 0.5202(1) 0.5719(2) 0.3185(1)
C7 C 0.6303(1) 0.5814(1) 0.2430(1)
C8 C 0.6532(1) 0.6976(2) 0.1717(1)
C9 C 0.5841(1) 0.9461(2) 0.1171(1)
C10 C 0.6412(2) 0.9741(2) 0.0724(1)
C11 C 0.6218(2) 1.0675(2) 0.0511(1)
C12 C 0.5486(2) 1.1305(2) 0.0743(1)
C13 C 0.4915(1) 1.1027(2) 0.1186(1)
C14 C 0.5118(1) 1.0086(2) 0.1403(1)
C15 C 0.2879(1) 0.9836(1) 0.3024(1)
C16 C 0.2324(1) 1.0741(2) 0.2984(1)
C17 C 0.1605(1) 1.0885(2) 0.3394(1)
C18 C 0.1471(1) 1.0160(2) 0.3841(1)
C19 C 0.2029(1) 0.9256(2) 0.3885(1)
C20 C 0.2736(1) 0.9115(1) 0.3459(1)
C21 C 0.4056(1) 0.5785(1) 0.3873(1)
C22 C 0.3465(2) 0.5506(2) 0.4305(1)
C23 C 0.3637(2) 0.4569(2) 0.4490(1)
C24 C 0.4391(2) 0.3940(2) 0.4279(1)
C25 C 0.4994(2) 0.4224(2) 0.3860(1)
C26 C 0.4789(1) 0.5170(2) 0.3647(1)
C27 C 0.7095(1) 0.5425(2) 0.2080(1)
C28 C 0.7662(2) 0.4521(2) 0.2134(1)
C29 C 0.8350(2) 0.4366(2) 0.1702(1)
C30 C 0.8462(1) 0.5089(2) 0.1232(1)
C31 C 0.7910(1) 0.5989(2) 0.1190(1)
C32 C 0.7222(1) 0.6140(2) 0.1627(1)
C33 C 0.7218(2) 0.9075(2) 0.0497(1)
C34 C 0.8094(2) 0.8834(2) 0.0935(1)
C35 C 0.4168(2) 1.1691(2) 0.1457(1)
C36 C 0.4567(2) 1.1886(2) 0.2036(1)
C37 C 0.2480(2) 1.1515(2) 0.2524(1)
C38 C 0.1903(2) 1.1768(2) 0.1895(1)
C39 C 0.1898(2) 0.8489(2) 0.4367(1)
C40 C 0.2494(2) 0.8272(2) 0.4980(1)
C41 C 0.2673(2) 0.6162(2) 0.4548(1)
C42 C 0.1784(2) 0.6448(2) 0.4124(1)
C43 C 0.5779(2) 0.3560(2) 0.3615(1)
C44 C 0.5458(2) 0.3342(2) 0.3024(1)
C45 C 0.7535(2) 0.3756(2) 0.2620(1)
C46 C 0.8093(2) 0.3567(2) 0.3245(2)
C47 C 0.8029(2) 0.6751(2) 0.0696(1)
C48 C 0.7425(2) 0.6960(2) 0.0087(1)
C49 C 0.6241(2) 1.1277(2) -0.0778(1)
C50 C 0.6284(2) 1.2618(2) 0.0818(1)
C51 C 0.1308(2) 1.2280(2) 0.4006(1)
C52 C -0.0448(2) 1.0603(2) 0.3879(1)
C53 C 0.3548(2) 0.3902(2) 0.5760(1)
C54 C 0.3676(2) 0.2577(2) 0.4149(1)
C55 C 0.8586(2) 0.2954(2) 0.1111(1)
C56 C 1.0368(2) 0.4650(2) 0.1122(1)
C57 C 0.6787(2) 1.1544(2) -0.1318(1)
C58 C 0.7489(2) 1.0881(2) -0.1518(1)
C59 C 0.8025(2) 1.1111(3) -0.1999(1)
C60 C 0.7857(2) 1.1992(3) -0.2285(1)
C61 C 0.7176(3) 1.2660(3) -0.2101(2)
C62 C 0.6626(2) 1.2445(2) -0.1607(1)
C63 C 0.6134(2) 1.3601(2) 0.0747(1)
C64 C 0.6350(2) 1.4123(2) 0.0208(1)
C65 C 0.6214(2) 1.5033(2) 0.0170(2)
C66 C 0.5858(2) 1.5421(2) 0.0659(2)
C67 C 0.5627(2) 1.4920(2) 0.1190(2)
C68 C 0.5766(2) 1.4016(2) 0.1235(1)
C69 C 0.0766(2) 1.3227(2) 0.4048(1)
C70 C 0.0975(2) 1.3953(2) 0.3691(2)
C71 C 0.0488(3) 1.4829(2) 0.3732(2)
C72 C -0.0216(3) 1.4989(2) 0.4131(2)
C73 C -0.0441(2) 1.4275(3) 0.4488(2)
C74 C 0.0043(2) 1.3395(2) 0.4443(2)
C75 C -0.0452(2) 0.9798(2) 0.3634(2)
C76 C -0.0767(2) 0.9136(2) 0.3996(2)
C77 C -0.0778(3) 0.8403(3) 0.3754(3)
C78 C -0.0488(3) 0.8330(4) 0.3157(3)
C79 C -0.0181(3) 0.8968(5) 0.2809(3)
C80 C -0.0158(2) 0.9716(4) 0.3035(2)
C81 C 0.3183(2) 0.3312(2) 0.6250(1)
C82 C 0.2451(2) 0.3691(2) 0.6595(1)
C83 C 0.2118(2) 0.3131(3) 0.7052(1)
C84 C 0.2518(3) 0.2213(3) 0.7163(2)
C85 C 0.3243(3) 0.1830(2) 0.6819(2)
C86 C 0.3567(2) 0.2373(2) 0.6368(1)
C87 C 0.3849(2) 0.1578(2) 0.4265(1)
C88 C 0.3549(2) 0.1120(3) 0.4788(2)
C89 C 0.3713(3) 0.0182(3) 0.4870(2)
C90 C 0.4193(3) -0.0263(3) 0.4424(2)
C91 C 0.4493(2) 0.0192(2) 0.3916(2)
C92 C 0.4324(2) 0.1107(2) 0.3831(1)
C93 C 0.9260(2) 0.2143(2) 0.0931(1)
C94 C 0.9071(2) 0.1355(2) 0.0979(2)
C95 C 0.9694(3) 0.0628(3) 0.0780(2)
C96 C 1.0515(2) 0.0701(3) 0.0539(2)
C97 C 1.0710(2) 0.1477(3) 0.0500(2)
C98 C 1.0094(2) 0.2193(2) 0.0692(1)
C99 C 1.0426(2) 0.5493(2) 0.1281(1)
C100 C 1.0762(2) 0.6085(2) 0.0859(1)
C101 C 1.0809(2) 0.6870(2) 0.1003(2)
C102 C 1.0514(2) 0.7067(2) 0.1580(2)
C103 C 1.0189(2) 0.6491(3) 0.2000(2)
C104 C 1.0139(2) 0.5708(2) 0.1856(2)
H1 H 0.7079(2) 0.8541(2) 0.0500(1)
H2 H 0.7324(2) 0.9334(2) 0.0078(1)
H3 H 0.7988(2) 0.8577(2) 0.1355(1)
H4 H 0.8600(2) 0.8413(2) 0.0792(1)
H5 H 0.8235(2) 0.9367(2) 0.0932(1)
H6 H 0.3921(2) 1.2238(2) 0.1143(1)
H7 H 0.3689(2) 1.1449(2) 0.1581(1)
H8 H 0.4819(2) 1.1339(2) 0.2349(1)
H9 H 0.5042(2) 1.2133(2) 0.1911(1)
H10 H 0.4092(2) 1.2304(2) 0.2206(1)
H11 H 0.2317(2) 1.2024(2) 0.2708(1)
H12 H 0.3117(2) 1.1350(2) 0.2444(1)
H13 H 0.2021(2) 1.2257(2) 0.1615(1)
H14 H 0.2062(2) 1.1261(2) 0.1708(1)
H15 H 0.1264(2) 1.1940(2) 0.1971(1)
H16 H 0.1265(2) 0.8650(2) 0.4459(1)
H17 H 0.2059(2) 0.7969(2) 0.4195(1)
H18 H 0.2400(2) 0.7780(2) 0.5272(1)
H19 H 0.3129(2) 0.8114(2) 0.4891(1)
H20 H 0.2329(2) 0.8786(2) 0.5158(1)
H21 H 0.2573(2) 0.5885(2) 0.4964(1)
H22 H 0.2831(2) 0.6682(2) 0.4562(1)
H23 H 0.1296(2) 0.6863(2) 0.4288(1)
H24 H 0.1880(2) 0.6728(2) 0.3708(1)
H25 H 0.1622(2) 0.5931(2) 0.4111(1)
H26 H 0.6255(2) 0.3813(2) 0.3509(1)
H27 H 0.6017(2) 0.3020(2) 0.3937(1)
H28 H 0.4983(2) 0.3087(2) 0.3127(1)
H29 H 0.5222(2) 0.3879(2) 0.2700(1)
H30 H 0.5962(2) 0.2922(2) 0.2878(1)
H31 H 0.6897(2) 0.3903(2) 0.2697(1)
H32 H 0.7729(2) 0.3227(2) 0.2458(1)
H33 H 0.7987(2) 0.3085(2) 0.3540(2)
H34 H 0.8734(2) 0.3407(2) 0.3175(2)
H35 H 0.7908(2) 0.4095(2) 0.3410(2)
H36 H 0.7870(2) 0.7275(2) 0.0864(1)
H37 H 0.8660(2) 0.6592(2) 0.0598(1)
H38 H 0.7518(2) 0.7446(2) -0.0212(1)
H39 H 0.7584(2) 0.6440(2) -0.0086(1)
H40 H 0.6793(2) 0.7123(2) 0.0181(1)
H41 H 0.6121(2) 1.0745(2) -0.0811(1)
H42 H 0.5670(2) 1.1749(2) -0.0784(1)
H43 H 0.6373(2) 1.2324(2) 0.1256(1)
H44 H 0.6818(2) 1.2358(2) 0.0610(1)
H45 H 0.1271(2) 1.1870(2) 0.4386(1)
H46 H 0.1939(2) 1.2227(2) 0.3951(1)
H47 H -0.0975(2) 1.0773(2) 0.4115(1)
H48 H -0.0485(2) 1.1085(2) 0.3526(1)
H49 H 0.4181(2) 0.3591(2) 0.5715(1)
H50 H 0.3494(2) 0.4445(2) 0.5886(1)
H51 H 0.3104(2) 0.2863(2) 0.4309(1)
H52 H 0.3653(2) 0.2826(2) 0.3707(1)
H53 H 0.8044(2) 0.2824(2) 0.1245(1)
H54 H 0.8425(2) 0.3451(2) 0.0753(1)
H55 H 1.0402(2) 0.4219(2) 0.1507(1)
H56 H 1.0878(2) 0.4418(2) 0.0885(1)
H57 H 0.7597(2) 1.0263(2) -0.1326(1)
H58 H 0.8514(2) 1.0653(3) -0.2124(1)
H59 H 0.8217(2) 1.2146(3) -0.2621(1)
H60 H 0.7073(3) 1.3274(3) -0.2304(2)
H61 H 0.6155(2) 1.2908(2) -0.1472(1)
H62 H 0.6592(2) 1.3856(2) -0.0134(1)
H63 H 0.6373(2) 1.5386(2) -0.0196(2)
H64 H 0.5765(2) 1.6042(2) 0.0629(2)
H65 H 0.5379(2) 1.5192(2) 0.1528(2)
H66 H 0.5603(2) 1.3671(2) 0.1603(1)
H67 H 0.1460(2) 1.3847(2) 0.3413(2)
H68 H 0.0641(3) 1.5320(2) 0.3486(2)
H69 H -0.0552(3) 1.5590(2) 0.4160(2)
H70 H -0.0927(2) 1.4386(3) 0.4765(2)
H71 H -0.0117(2) 1.2906(2) 0.4686(2)
H72 H -0.0968(2) 0.9190(2) 0.4405(2)
H73 H -0.1001(3) 0.7960(3) 0.3999(3)
H74 H -0.0491(3) 0.7825(4) 0.2998(3)
H75 H 0.0016(3) 0.8913(5) 0.2399(3)
H76 H 0.0059(2) 1.0161(4) 0.2785(2)
H77 H 0.2176(2) 0.4329(2) 0.6519(1)
H78 H 0.1615(2) 0.3383(3) 0.7287(1)
H79 H 0.2299(3) 0.1834(3) 0.7478(2)
H80 H 0.3514(3) 0.1191(2) 0.6898(2)
H81 H 0.4061(2) 0.2108(2) 0.6129(1)
H82 H 0.3231(2) 0.1430(3) 0.5092(2)
H83 H 0.3500(3) -0.0144(3) 0.5223(2)
H84 H 0.4311(3) -0.0892(3) 0.4478(2)
H85 H 0.4823(2) -0.0119(2) 0.3615(2)
H86 H 0.4534(2) 0.1421(2) 0.3470(1)
H87 H 0.8514(2) 0.1306(2) 0.1150(2)
H88 H 0.9560(3) 0.0085(3) 0.0807(2)
H89 H 1.0938(2) 0.0210(3) 0.0400(2)
H90 H 1.1281(2) 0.1514(3) 0.0347(2)
H91 H 1.0230(2) 0.2736(2) 0.0655(1)
H92 H 1.0959(2) 0.5947(2) 0.0466(1)
H93 H 1.1040(2) 0.7267(2) 0.0712(2)
H94 H 1.0537(2) 0.7605(2) 0.1682(2)
H95 H 0.9998(2) 0.6628(3) 0.2395(2)
H96 H 0.9903(2) 0.5316(2) 0.2148(2)
loop_
_geom_bond_atom_site_label_1
_geom_bond_atom_site_label_2
_geom_bond_site_symmetry_1
_geom_bond_site_symmetry_2
Cl1 C105 1_555 1_555
Cl2 C105 1_555 1_555
Cl3 C105 1_555 1_555
Cl4 C106 1_555 1_555
Cl5 C106 1_555 1_555
Cl6 C106 1_555 1_555
S1 C11 1_555 1_555
S2 C12 1_555 1_555
S3 C17 1_555 1_555
S4 C18 1_555 1_555
S5 C23 1_555 1_555
S6 C24 1_555 1_555
S7 C29 1_555 1_555
S8 C30 1_555 1_555
N1 C1 1_555 1_555
N2 C2 1_555 1_555
N3 C3 1_555 1_555
N4 C4 1_555 1_555
N5 C5 1_555 1_555
N6 C6 1_555 1_555
N7 C7 1_555 1_555
N8 C1 1_555 1_555
C1 C9 1_555 1_555
C2 N1 1_555 1_555
C3 N2 1_555 1_555
C4 N3 1_555 1_555
C5 N4 1_555 1_555
C6 N5 1_555 1_555
C7 N6 1_555 1_555
C8 N7 1_555 1_555
C9 C10 1_555 1_555
C10 C11 1_555 1_555
C11 C12 1_555 1_555
C12 C13 1_555 1_555
C13 C14 1_555 1_555
C14 C2 1_555 1_555
C15 C3 1_555 1_555
C16 C15 1_555 1_555
C17 C16 1_555 1_555
C18 C17 1_555 1_555
C19 C18 1_555 1_555
C20 C4 1_555 1_555
C21 C5 1_555 1_555
C22 C21 1_555 1_555
C23 C22 1_555 1_555
C24 C23 1_555 1_555
C25 C24 1_555 1_555
C26 C6 1_555 1_555
C27 C7 1_555 1_555
C28 C27 1_555 1_555
C29 C28 1_555 1_555
C30 C29 1_555 1_555
C31 C30 1_555 1_555
C32 C8 1_555 1_555
C33 C10 1_555 1_555
C34 C33 1_555 1_555
C35 C13 1_555 1_555
C36 C35 1_555 1_555
C37 C16 1_555 1_555
C38 C37 1_555 1_555
C39 C19 1_555 1_555
C40 C39 1_555 1_555
C41 C22 1_555 1_555
C42 C41 1_555 1_555
C43 C25 1_555 1_555
C44 C43 1_555 1_555
C45 C28 1_555 1_555
C46 C45 1_555 1_555
C47 C31 1_555 1_555
C48 C47 1_555 1_555
C49 S1 1_555 1_555
C50 S2 1_555 1_555
C51 S3 1_555 1_555
C52 S4 1_555 1_555
C53 S5 1_555 1_555
C54 S6 1_555 1_555
C55 S7 1_555 1_555
C56 S8 1_555 1_555
C57 C49 1_555 1_555
C58 C57 1_555 1_555
C59 C58 1_555 1_555
C60 C59 1_555 1_555
C61 C60 1_555 1_555
C62 C57 1_555 1_555
C63 C50 1_555 1_555
C64 C63 1_555 1_555
C65 C64 1_555 1_555
C66 C65 1_555 1_555
C67 C66 1_555 1_555
C68 C63 1_555 1_555
C69 C51 1_555 1_555
C70 C69 1_555 1_555
C71 C70 1_555 1_555
C72 C71 1_555 1_555
C73 C72 1_555 1_555
C74 C69 1_555 1_555
C75 C52 1_555 1_555
C76 C75 1_555 1_555
C77 C76 1_555 1_555
C78 C77 1_555 1_555
C79 C78 1_555 1_555
C80 C75 1_555 1_555
C81 C53 1_555 1_555
C82 C81 1_555 1_555
C83 C82 1_555 1_555
C84 C83 1_555 1_555
C85 C84 1_555 1_555
C86 C81 1_555 1_555
C87 C54 1_555 1_555
C88 C87 1_555 1_555
C89 C88 1_555 1_555
C90 C89 1_555 1_555
C91 C90 1_555 1_555
C92 C87 1_555 1_555
C93 C55 1_555 1_555
C94 C93 1_555 1_555
C95 C94 1_555 1_555
C96 C95 1_555 1_555
C97 C96 1_555 1_555
C98 C93 1_555 1_555
C99 C56 1_555 1_555
C100 C99 1_555 1_555
C101 C100 1_555 1_555
C102 C101 1_555 1_555
C103 C102 1_555 1_555
C104 C99 1_555 1_555
C105 H98 1_555 1_555
C106 H97 1_555 1_555
H1 C33 1_555 1_555
H2 C33 1_555 1_555
H3 C34 1_555 1_555
H4 C34 1_555 1_555
H5 C34 1_555 1_555
H6 C35 1_555 1_555
H7 C35 1_555 1_555
H8 C36 1_555 1_555
H9 C36 1_555 1_555
H10 C36 1_555 1_555
H11 C37 1_555 1_555
H12 C37 1_555 1_555
H13 C38 1_555 1_555
H14 C38 1_555 1_555
H15 C38 1_555 1_555
H16 C39 1_555 1_555
H17 C39 1_555 1_555
H18 C40 1_555 1_555
H19 C40 1_555 1_555
H20 C40 1_555 1_555
H21 C41 1_555 1_555
H22 C41 1_555 1_555
H23 C42 1_555 1_555
H24 C42 1_555 1_555
H25 C42 1_555 1_555
H26 C43 1_555 1_555
H27 C43 1_555 1_555
H28 C44 1_555 1_555
H29 C44 1_555 1_555
H30 C44 1_555 1_555
H31 C45 1_555 1_555
H32 C45 1_555 1_555
H33 C46 1_555 1_555
H34 C46 1_555 1_555
H35 C46 1_555 1_555
H36 C47 1_555 1_555
H37 C47 1_555 1_555
H38 C48 1_555 1_555
H39 C48 1_555 1_555
H40 C48 1_555 1_555
H41 C49 1_555 1_555
H42 C49 1_555 1_555
H43 C50 1_555 1_555
H44 C50 1_555 1_555
H45 C51 1_555 1_555
H46 C51 1_555 1_555
H47 C52 1_555 1_555
H48 C52 1_555 1_555
H49 C53 1_555 1_555
H50 C53 1_555 1_555
H51 C54 1_555 1_555
H52 C54 1_555 1_555
H53 C55 1_555 1_555
H54 C55 1_555 1_555
H55 C56 1_555 1_555
H56 C56 1_555 1_555
H57 C58 1_555 1_555
H58 C59 1_555 1_555
H59 C60 1_555 1_555
H60 C61 1_555 1_555
H61 C62 1_555 1_555
H62 C64 1_555 1_555
H63 C65 1_555 1_555
H64 C66 1_555 1_555
H65 C67 1_555 1_555
H66 C68 1_555 1_555
H67 C70 1_555 1_555
H68 C71 1_555 1_555
H69 C72 1_555 1_555
H70 C73 1_555 1_555
H71 C74 1_555 1_555
H72 C76 1_555 1_555
H73 C77 1_555 1_555
H74 C78 1_555 1_555
H75 C79 1_555 1_555
H76 C80 1_555 1_555
H77 C82 1_555 1_555
H78 C83 1_555 1_555
H79 C84 1_555 1_555
H80 C85 1_555 1_555
H81 C86 1_555 1_555
H82 C88 1_555 1_555
H83 C89 1_555 1_555
H84 C90 1_555 1_555
H85 C91 1_555 1_555
H86 C92 1_555 1_555
H87 C94 1_555 1_555
H88 C95 1_555 1_555
H89 C96 1_555 1_555
H90 C97 1_555 1_555
H91 C98 1_555 1_555
H92 C100 1_555 1_555
H93 C101 1_555 1_555
H94 C102 1_555 1_555
H95 C103 1_555 1_555
H96 C104 1_555 1_555
N8 C8 1_555 1_555
C9 C14 1_555 1_555
C15 C20 1_555 1_555
C19 C20 1_555 1_555
C21 C26 1_555 1_555
C25 C26 1_555 1_555
C27 C32 1_555 1_555
C31 C32 1_555 1_555
C61 C62 1_555 1_555
C67 C68 1_555 1_555
C73 C74 1_555 1_555
C79 C80 1_555 1_555
C85 C86 1_555 1_555
C91 C92 1_555 1_555
C97 C98 1_555 1_555
C103 C104 1_555 1_555

#END
