
#######################################################################
#
#                 Cambridge Crystallographic Data Centre
#                                CCDC 
#
#######################################################################
#
# If this CIF has been generated from an entry in the Cambridge 
# Structural Database, then it will include bibliographic, chemical, 
# crystal, experimental, refinement or atomic coordinate data resulting 
# from the CCDC's data processing and validation procedures.
#
#######################################################################

data_SACMEP
_chemical_formula_moiety         'C10 H10 Br2 S3'
_chemical_name_systematic        5,6-Dibromo-4,7-diethylbenzo(1,2,3)trithiole
_symmetry_cell_setting           monoclinic
_symmetry_space_group_name_H-M   'P 21/c'
_symmetry_Int_Tables_number      14
_space_group_name_Hall           '-P 2ybc'
loop_
_symmetry_equiv_pos_site_id
_symmetry_equiv_pos_as_xyz
1 x,y,z
2 x,1/2-y,1/2+z
3 -x,-y,-z
4 -x,1/2+y,1/2-z
_cell_length_a                   4.7584(8)
_cell_length_b                   15.307(3)
_cell_length_c                   17.772(4)
_cell_angle_alpha                90
_cell_angle_beta                 97.59(1)
_cell_angle_gamma                90
_cell_volume                     1283.11
_exptl_crystal_colour            yellow
_exptl_crystal_description       needle
_chemical_melting_point          87-87.5deg.C
_cell_formula_units_Z            4
_exptl_crystal_recrystallization_method 'diethyl ether'
loop_
_atom_site_label
_atom_site_type_symbol
_atom_site_fract_x
_atom_site_fract_y
_atom_site_fract_z
Br1 Br 1.2998 0.2309 0.3854
Br2 Br 0.8456 0.1511 0.2491
S1 S 1.2074 0.4000 0.0533
S2 S 1.3168 0.5227 0.0902
S3 S 1.5985 0.4823 0.1825
C1 C 1.2581 0.2838 0.2882
C2 C 1.0697 0.2498 0.2300
C3 C 1.0389 0.2827 0.1569
C4 C 1.2034 0.3556 0.1458
C5 C 1.3886 0.3924 0.2053
C6 C 1.4243 0.3569 0.2773
C7 C 0.8434 0.2430 0.0919
C8 C 0.9918 0.1663 0.0571
C9 C 1.6312 0.3965 0.3401
C10 C 1.4850 0.4589 0.3886
H1 H 0.6406 0.2180 0.1107
H2 H 0.7756 0.3060 0.0517
H3 H 0.8408 0.1530 0.0260
H4 H 1.1222 0.1932 0.0315
H5 H 1.0657 0.1180 0.1010
H6 H 1.7263 0.3476 0.3709
H7 H 1.7763 0.4396 0.3119
H8 H 1.3378 0.4279 0.4220
H9 H 1.4248 0.5069 0.3570
H10 H 1.6278 0.4799 0.4210
loop_
_geom_bond_atom_site_label_1
_geom_bond_atom_site_label_2
_geom_bond_site_symmetry_1
_geom_bond_site_symmetry_2
Br1 C1 1_555 1_555
Br2 C2 1_555 1_555
S1 S2 1_555 1_555
S2 S3 1_555 1_555
S3 C5 1_555 1_555
C1 C2 1_555 1_555
C2 C3 1_555 1_555
C3 C4 1_555 1_555
C4 S1 1_555 1_555
C5 C4 1_555 1_555
C6 C1 1_555 1_555
C7 C3 1_555 1_555
C8 C7 1_555 1_555
C9 C6 1_555 1_555
C10 C9 1_555 1_555
H1 C7 1_555 1_555
H2 C7 1_555 1_555
H3 C8 1_555 1_555
H4 C8 1_555 1_555
H5 C8 1_555 1_555
H6 C9 1_555 1_555
H7 C9 1_555 1_555
H8 C10 1_555 1_555
H9 C10 1_555 1_555
H10 C10 1_555 1_555
C5 C6 1_555 1_555

#END
