
#######################################################################
#
#                 Cambridge Crystallographic Data Centre
#                                CCDC 
#
#######################################################################
#
# If this CIF has been generated from an entry in the Cambridge 
# Structural Database, then it will include bibliographic, chemical, 
# crystal, experimental, refinement or atomic coordinate data resulting 
# from the CCDC's data processing and validation procedures.
#
#######################################################################

data_SACNIW
_chemical_formula_moiety         'C64 H60 N8 4+,4(F6 P1 1-),2(C2 H3 N1)'
_chemical_name_systematic        
"1,1',1'',1'''-(cyclobutane-1,2,3,4-tetrayltetra(4,1-phenylene))tetrakis(3-ethyl-1H-benzimidazol-3-ium) tetrakis(hexafluorophosphate) acetonitrile solvate"
_symmetry_cell_setting           triclinic
_symmetry_space_group_name_H-M   'P -1'
_symmetry_Int_Tables_number      2
_space_group_name_Hall           '-P 1'
loop_
_symmetry_equiv_pos_site_id
_symmetry_equiv_pos_as_xyz
1 x,y,z
2 -x,-y,-z
_cell_length_a                   11.0245(4)
_cell_length_b                   12.2969(6)
_cell_length_c                   15.1731(6)
_cell_angle_alpha                79.298(4)
_cell_angle_beta                 72.394(3)
_cell_angle_gamma                65.183(4)
_cell_volume                     1775.46
_exptl_crystal_colour            colorless
_exptl_crystal_description       sheet
_cell_formula_units_Z            1
loop_
_atom_site_label
_atom_site_type_symbol
_atom_site_fract_x
_atom_site_fract_y
_atom_site_fract_z
N1 N 0.1533(3) 0.1074(3) 0.0482(2)
N2 N 0.1730(2) 0.1466(2) 0.17647(16)
N3 N 0.5565(3) 0.3985(2) 0.69807(18)
N4 N 0.6241(3) 0.4544(2) 0.79635(19)
C1 C 0.2218(3) 0.0660(3) 0.1133(2)
H1 H 0.2938 -0.0086 0.1150
C2 C 0.0659(3) 0.2459(3) 0.1510(2)
C3 C -0.0166(3) 0.3557(3) 0.1888(2)
H2 H -0.0095 0.3739 0.2434
C4 C -0.1102(4) 0.4368(4) 0.1403(3)
H3 H -0.1671 0.5118 0.1631
C5 C -0.1222(4) 0.4106(4) 0.0599(3)
H4 H -0.1870 0.4683 0.0303
C6 C -0.0417(4) 0.3021(4) 0.0217(3)
H5 H -0.0503 0.2844 -0.0325
C7 C 0.0540(3) 0.2200(3) 0.0692(2)
C8 C 0.22942(18) 0.1316(2) 0.25400(12)
C9 C 0.14275(18) 0.1560(2) 0.34185(13)
H6 H 0.0476 0.1853 0.3505
C10 C 0.19777(19) 0.1368(2) 0.41687(13)
H7 H 0.1396 0.1532 0.4759
C11 C 0.3395(2) 0.0932(2) 0.40405(13)
C12 C 0.42613(19) 0.0688(2) 0.31620(13)
H8 H 0.5213 0.0395 0.3076
C13 C 0.37111(18) 0.0880(2) 0.24117(12)
H9 H 0.4293 0.0716 0.1822
C14 C 0.3967(3) 0.0607(3) 0.4901(2)
H10 H 0.3250 0.1027 0.5429
C15 C 0.5332(3) 0.0765(3) 0.48098(19)
H11 H 0.5747 0.0930 0.4157
C16 C 0.5311(2) 0.1650(2) 0.54034(15)
C17 C 0.4133(2) 0.2360(2) 0.60105(16)
H12 H 0.3289 0.2318 0.6070
C18 C 0.4213(2) 0.3133(2) 0.65294(16)
H13 H 0.3423 0.3609 0.6937
C19 C 0.5471(2) 0.3195(2) 0.64412(15)
C20 C 0.6649(2) 0.2486(2) 0.58341(15)
H14 H 0.7493 0.2528 0.5775
C21 C 0.6569(2) 0.1713(2) 0.53152(15)
H15 H 0.7359 0.1237 0.4908
C22 C 0.6445(3) 0.3637(3) 0.7514(2)
H16 H 0.7108 0.2865 0.7561
C23 C 0.5170(3) 0.5544(3) 0.7726(2)
C24 C 0.4548(4) 0.6714(3) 0.8018(3)
H17 H 0.4831 0.6947 0.8445
C25 C 0.3486(4) 0.7499(3) 0.7630(3)
H18 H 0.3028 0.8284 0.7808
C26 C 0.3077(4) 0.7147(3) 0.6975(3)
H19 H 0.2367 0.7712 0.6725
C27 C 0.3690(3) 0.6000(3) 0.6693(2)
H20 H 0.3421 0.5774 0.6255
C28 C 0.4728(3) 0.5198(3) 0.7097(2)
C29 C 0.1822(6) 0.0433(5) -0.0333(3)
H21 H 0.0959 0.0568 -0.0463
H22 H 0.2289 -0.0422 -0.0202
C30 C 0.2696(9) 0.0848(12) -0.1156(6)
H23 H 0.2151 0.1630 -0.1383
H24 H 0.3056 0.0296 -0.1631
H25 H 0.3447 0.0889 -0.0986
C31 C 0.7033(4) 0.4487(3) 0.8615(2)
H26 H 0.7448 0.3662 0.8851
H27 H 0.6414 0.4960 0.9137
C32 C 0.8144(5) 0.4958(4) 0.8138(3)
H28 H 0.8782 0.4464 0.7642
H29 H 0.8625 0.4943 0.8575
H30 H 0.7733 0.5768 0.7893
N1A N 0.8467(3) -0.1074(3) 0.9518(2)
N2A N 0.8270(2) -0.1466(2) 0.82353(16)
N3A N 0.4435(3) -0.3985(2) 0.30193(18)
N4A N 0.3759(3) -0.4544(2) 0.20365(19)
C1A C 0.7782(3) -0.0660(3) 0.8867(2)
H1A H 0.7062 0.0086 0.8850
C2A C 0.9341(3) -0.2459(3) 0.8490(2)
C3A C 1.0166(3) -0.3557(3) 0.8112(2)
H2A H 1.0095 -0.3739 0.7566
C4A C 1.1102(4) -0.4368(4) 0.8597(3)
H3A H 1.1671 -0.5118 0.8369
C5A C 1.1222(4) -0.4106(4) 0.9401(3)
H4A H 1.1870 -0.4683 0.9697
C6A C 1.0417(4) -0.3021(4) 0.9783(3)
H5A H 1.0503 -0.2844 1.0325
C7A C 0.9460(3) -0.2200(3) 0.9308(2)
C8A C 0.77058(18) -0.1316(2) 0.74600(12)
C9A C 0.85725(18) -0.1560(2) 0.65815(13)
H6A H 0.9524 -0.1853 0.6495
C10A C 0.80223(19) -0.1368(2) 0.58313(13)
H7A H 0.8604 -0.1532 0.5241
C11A C 0.6605(2) -0.0932(2) 0.59595(13)
C12A C 0.57387(19) -0.0688(2) 0.68380(13)
H8A H 0.4787 -0.0395 0.6924
C13A C 0.62889(18) -0.0880(2) 0.75883(12)
H9A H 0.5707 -0.0716 0.8178
C14A C 0.6033(3) -0.0607(3) 0.5099(2)
H10A H 0.6750 -0.1027 0.4571
C15A C 0.4668(3) -0.0765(3) 0.51902(19)
H11A H 0.4253 -0.0930 0.5843
C16A C 0.4689(2) -0.1650(2) 0.45966(15)
C17A C 0.5867(2) -0.2360(2) 0.39895(16)
H12A H 0.6711 -0.2318 0.3930
C18A C 0.5787(2) -0.3133(2) 0.34706(16)
H13A H 0.6577 -0.3609 0.3063
C19A C 0.4529(2) -0.3195(2) 0.35588(15)
C20A C 0.3351(2) -0.2486(2) 0.41659(15)
H14A H 0.2507 -0.2528 0.4225
C21A C 0.3431(2) -0.1713(2) 0.46848(15)
H15A H 0.2641 -0.1237 0.5092
C22A C 0.3555(3) -0.3637(3) 0.2486(2)
H16A H 0.2892 -0.2865 0.2439
C23A C 0.4830(3) -0.5544(3) 0.2274(2)
C24A C 0.5452(4) -0.6714(3) 0.1982(3)
H17A H 0.5169 -0.6947 0.1555
C25A C 0.6514(4) -0.7499(3) 0.2370(3)
H18A H 0.6972 -0.8284 0.2192
C26A C 0.6923(4) -0.7147(3) 0.3025(3)
H19A H 0.7633 -0.7712 0.3275
C27A C 0.6310(3) -0.6000(3) 0.3307(2)
H20A H 0.6579 -0.5774 0.3745
C28A C 0.5272(3) -0.5198(3) 0.2903(2)
C29A C 0.8178(6) -0.0433(5) 1.0333(3)
H21A H 0.9041 -0.0568 1.0463
H22A H 0.7711 0.0422 1.0202
C30A C 0.7304(9) -0.0848(12) 1.1156(6)
H23A H 0.7849 -0.1630 1.1383
H24A H 0.6944 -0.0296 1.1631
H25A H 0.6553 -0.0889 1.0986
C31A C 0.2967(4) -0.4487(3) 0.1385(2)
H26A H 0.2552 -0.3662 0.1149
H27A H 0.3586 -0.4960 0.0863
C32A C 0.1856(5) -0.4958(4) 0.1862(3)
H28A H 0.1218 -0.4464 0.2358
H29A H 0.1375 -0.4943 0.1425
H30A H 0.2267 -0.5768 0.2107
P1 P 0.02388(9) 0.09801(9) 0.72304(6)
F1 F 0.0535(3) -0.0132(3) 0.7964(2)
F2 F -0.0099(4) 0.2103(3) 0.6510(2)
F3 F -0.1278(3) 0.1019(2) 0.7369(2)
F4 F 0.1729(3) 0.0925(4) 0.7103(3)
F5 F -0.0370(3) 0.1862(3) 0.8037(2)
F6 F 0.0861(4) 0.0119(3) 0.6417(2)
loop_
_geom_bond_atom_site_label_1
_geom_bond_atom_site_label_2
_geom_bond_site_symmetry_1
_geom_bond_site_symmetry_2
P1 F1 1_555 1_555
F2 P1 1_555 1_555
F3 P1 1_555 1_555
F4 P1 1_555 1_555
F5 P1 1_555 1_555
F6 P1 1_555 1_555
N1 C1 1_555 1_555
N2 C1 1_555 1_555
N3 C19 1_555 1_555
N4 C22 1_555 1_555
C1 H1 1_555 1_555
C2 N2 1_555 1_555
C3 C2 1_555 1_555
H2 C3 1_555 1_555
C4 C3 1_555 1_555
H3 C4 1_555 1_555
C5 C4 1_555 1_555
H4 C5 1_555 1_555
C6 C5 1_555 1_555
H5 C6 1_555 1_555
C7 N1 1_555 1_555
C8 N2 1_555 1_555
C9 C8 1_555 1_555
H6 C9 1_555 1_555
C10 C9 1_555 1_555
H7 C10 1_555 1_555
C11 C10 1_555 1_555
C12 C11 1_555 1_555
H8 C12 1_555 1_555
C13 C8 1_555 1_555
H9 C13 1_555 1_555
C14 C11 1_555 1_555
H10 C14 1_555 1_555
C15 C14 1_555 1_555
H11 C15 1_555 1_555
C16 C15 1_555 1_555
C17 C16 1_555 1_555
H12 C17 1_555 1_555
C18 C17 1_555 1_555
H13 C18 1_555 1_555
C19 C18 1_555 1_555
C20 C19 1_555 1_555
H14 C20 1_555 1_555
C21 C16 1_555 1_555
H15 C21 1_555 1_555
C22 N3 1_555 1_555
H16 C22 1_555 1_555
C23 N4 1_555 1_555
C24 C23 1_555 1_555
H17 C24 1_555 1_555
C25 C24 1_555 1_555
H18 C25 1_555 1_555
C26 C25 1_555 1_555
H19 C26 1_555 1_555
C27 C26 1_555 1_555
H20 C27 1_555 1_555
C28 N3 1_555 1_555
C29 N1 1_555 1_555
H21 C29 1_555 1_555
H22 C29 1_555 1_555
C30 C29 1_555 1_555
H23 C30 1_555 1_555
H24 C30 1_555 1_555
H25 C30 1_555 1_555
C31 N4 1_555 1_555
H26 C31 1_555 1_555
H27 C31 1_555 1_555
C32 C31 1_555 1_555
H28 C32 1_555 1_555
H29 C32 1_555 1_555
H30 C32 1_555 1_555
N1A C1A 1_555 1_555
N2A C1A 1_555 1_555
N3A C19A 1_555 1_555
N4A C22A 1_555 1_555
C1A H1A 1_555 1_555
C2A N2A 1_555 1_555
C3A C2A 1_555 1_555
H2A C3A 1_555 1_555
C4A C3A 1_555 1_555
H3A C4A 1_555 1_555
C5A C4A 1_555 1_555
H4A C5A 1_555 1_555
C6A C5A 1_555 1_555
H5A C6A 1_555 1_555
C7A N1A 1_555 1_555
C8A N2A 1_555 1_555
C9A C8A 1_555 1_555
H6A C9A 1_555 1_555
C10A C9A 1_555 1_555
H7A C10A 1_555 1_555
C11A C10A 1_555 1_555
C12A C11A 1_555 1_555
H8A C12A 1_555 1_555
C13A C8A 1_555 1_555
H9A C13A 1_555 1_555
C14A C15 1_555 1_555
H10A C14A 1_555 1_555
C15A C14 1_555 1_555
H11A C15A 1_555 1_555
C16A C15A 1_555 1_555
C17A C16A 1_555 1_555
H12A C17A 1_555 1_555
C18A C17A 1_555 1_555
H13A C18A 1_555 1_555
C19A C18A 1_555 1_555
C20A C19A 1_555 1_555
H14A C20A 1_555 1_555
C21A C16A 1_555 1_555
H15A C21A 1_555 1_555
C22A N3A 1_555 1_555
H16A C22A 1_555 1_555
C23A N4A 1_555 1_555
C24A C23A 1_555 1_555
H17A C24A 1_555 1_555
C25A C24A 1_555 1_555
H18A C25A 1_555 1_555
C26A C25A 1_555 1_555
H19A C26A 1_555 1_555
C27A C26A 1_555 1_555
H20A C27A 1_555 1_555
C28A N3A 1_555 1_555
C29A N1A 1_555 1_555
H21A C29A 1_555 1_555
H22A C29A 1_555 1_555
C30A C29A 1_555 1_555
H23A C30A 1_555 1_555
H24A C30A 1_555 1_555
H25A C30A 1_555 1_555
C31A N4A 1_555 1_555
H26A C31A 1_555 1_555
H27A C31A 1_555 1_555
C32A C31A 1_555 1_555
H28A C32A 1_555 1_555
H29A C32A 1_555 1_555
H30A C32A 1_555 1_555
C2 C7 1_555 1_555
C6 C7 1_555 1_555
C12 C13 1_555 1_555
C20 C21 1_555 1_555
C23 C28 1_555 1_555
C27 C28 1_555 1_555
C2A C7A 1_555 1_555
C6A C7A 1_555 1_555
C11A C14A 1_555 1_555
C12A C13A 1_555 1_555
C14A C15A 1_555 1_555
C20A C21A 1_555 1_555
C23A C28A 1_555 1_555
C27A C28A 1_555 1_555

#END
