
#######################################################################
#
#                 Cambridge Crystallographic Data Centre
#                                CCDC 
#
#######################################################################
#
# If this CIF has been generated from an entry in the Cambridge 
# Structural Database, then it will include bibliographic, chemical, 
# crystal, experimental, refinement or atomic coordinate data resulting 
# from the CCDC's data processing and validation procedures.
#
#######################################################################

data_SACWEY
_chemical_formula_moiety         'C14 H19 N3 O2 S1'
_chemical_name_systematic        
2-Cyano-1-p-tosylamino-2,3,3-trimethylazetidine
_symmetry_cell_setting           triclinic
_symmetry_space_group_name_H-M   'P -1'
_symmetry_Int_Tables_number      2
_space_group_name_Hall           '-P 1'
loop_
_symmetry_equiv_pos_site_id
_symmetry_equiv_pos_as_xyz
1 x,y,z
2 -x,-y,-z
_cell_length_a                   7.108(2)
_cell_length_b                   15.129(3)
_cell_length_c                   7.404(2)
_cell_angle_alpha                87.99(2)
_cell_angle_beta                 75.98(2)
_cell_angle_gamma                85.66(2)
_cell_volume                     770.155
_cell_formula_units_Z            2
loop_
_atom_site_label
_atom_site_type_symbol
_atom_site_fract_x
_atom_site_fract_y
_atom_site_fract_z
N1 N 1.1269(3) 0.1934(2) 0.3406(3)
C1 C 1.2040(4) 0.1292(2) 0.1881(4)
C2 C 1.4081(4) 0.1370(2) 0.2349(4)
C3 C 1.2907(5) 0.1697(3) 0.4274(4)
N2 N 0.9336(3) 0.1874(2) 0.4443(3)
S1 S 0.8162(1) 0.2856(1) 0.4927(1)
O1 O 0.8094(4) 0.3285(2) 0.3202(3)
O2 O 0.6409(3) 0.2659(2) 0.6243(3)
C4 C 0.9595(4) 0.3454(2) 0.6006(4)
C5 C 1.1109(6) 0.3899(2) 0.4932(5)
C6 C 1.2349(6) 0.4294(2) 0.5782(5)
C7 C 1.2079(5) 0.4266(2) 0.7692(4)
C8 C 1.0512(5) 0.3851(2) 0.8741(5)
C9 C 0.9266(5) 0.3440(2) 0.7919(4)
C10 C 1.3486(7) 0.4675(3) 0.8581(7)
C11 C 1.1336(4) 0.0402(2) 0.2376(4)
N3 N 1.0824(5) -0.0295(2) 0.2724(4)
C12 C 1.1667(6) 0.1578(3) 0.0016(5)
C13 C 1.5188(7) 0.2093(4) 0.1177(7)
C14 C 1.5370(6) 0.0523(4) 0.2335(6)
loop_
_geom_bond_atom_site_label_1
_geom_bond_atom_site_label_2
_geom_bond_site_symmetry_1
_geom_bond_site_symmetry_2
N1 C1 1_555 1_555
C1 C2 1_555 1_555
C2 C3 1_555 1_555
C3 N1 1_555 1_555
N2 N1 1_555 1_555
S1 N2 1_555 1_555
O1 S1 1_555 1_555
O2 S1 1_555 1_555
C4 S1 1_555 1_555
C5 C4 1_555 1_555
C6 C5 1_555 1_555
C7 C6 1_555 1_555
C8 C7 1_555 1_555
C9 C4 1_555 1_555
C10 C7 1_555 1_555
C11 C1 1_555 1_555
N3 C11 1_555 1_555
C12 C1 1_555 1_555
C13 C2 1_555 1_555
C14 C2 1_555 1_555
C8 C9 1_555 1_555

#END
