
#######################################################################
#
#                 Cambridge Crystallographic Data Centre
#                                CCDC 
#
#######################################################################
#
# If this CIF has been generated from an entry in the Cambridge 
# Structural Database, then it will include bibliographic, chemical, 
# crystal, experimental, refinement or atomic coordinate data resulting 
# from the CCDC's data processing and validation procedures.
#
#######################################################################

data_SADCEF
_chemical_formula_moiety         'C20 H22 O6'
_chemical_name_systematic        'threo-Diethyl diphenyltartrate'
_symmetry_cell_setting           triclinic
_symmetry_space_group_name_H-M   'P -1'
_symmetry_Int_Tables_number      2
_space_group_name_Hall           '-P 1'
loop_
_symmetry_equiv_pos_site_id
_symmetry_equiv_pos_as_xyz
1 x,y,z
2 -x,-y,-z
_cell_length_a                   10.078(3)
_cell_length_b                   10.283(2)
_cell_length_c                   9.781(3)
_cell_angle_alpha                109.80(2)
_cell_angle_beta                 102.35(3)
_cell_angle_gamma                78.50(2)
_cell_volume                     922.706
_chemical_melting_point          123-124deg.C
_cell_formula_units_Z            2
loop_
_atom_site_label
_atom_site_type_symbol
_atom_site_fract_x
_atom_site_fract_y
_atom_site_fract_z
C1 C 0.1296(4) 0.6744(4) 0.3010(4)
O1 O 0.1931(3) 0.5407(3) 0.2249(3)
C2 C -0.0206(4) 0.6692(4) 0.3006(4)
O2 O -0.1138(3) 0.7522(4) 0.2695(4)
O3 O -0.0370(3) 0.5637(3) 0.3406(3)
C3 C -0.1782(5) 0.5456(5) 0.3380(5)
C4 C -0.2308(5) 0.6394(5) 0.4729(6)
C5 C 0.2073(4) 0.7170(4) 0.4577(4)
C6 C 0.3454(4) 0.6661(4) 0.4852(4)
C7 C 0.4176(4) 0.7048(5) 0.6274(5)
C8 C 0.3528(4) 0.7960(5) 0.7425(4)
C9 C 0.2149(4) 0.8456(4) 0.7145(4)
C10 C 0.1423(4) 0.8066(4) 0.5736(4)
C11 C 0.1330(4) 0.7866(4) 0.2226(4)
O4 O 0.0765(3) 0.9197(3) 0.3074(3)
C12 C 0.0474(4) 0.7436(4) 0.0673(4)
O5 O 0.0398(4) 0.6248(3) -0.0061(3)
O6 O -0.0096(3) 0.8524(3) 0.0231(3)
C13 C -0.0984(4) 0.8242(4) -0.1221(4)
C14 C -0.2421(5) 0.8304(5) -0.1053(5)
C15 C 0.2772(4) 0.7957(4) 0.2090(4)
C16 C 0.3467(5) 0.6970(5) 0.1007(5)
C17 C 0.4789(5) 0.7088(6) 0.0927(6)
C18 C 0.5425(5) 0.8184(7) 0.1901(6)
C19 C 0.4750(5) 0.9177(6) 0.2973(6)
C20 C 0.3435(4) 0.9057(5) 0.3071(5)
loop_
_geom_bond_atom_site_label_1
_geom_bond_atom_site_label_2
_geom_bond_site_symmetry_1
_geom_bond_site_symmetry_2
C1 O1 1_555 1_555
C2 C1 1_555 1_555
O2 C2 1_555 1_555
O3 C2 1_555 1_555
C3 O3 1_555 1_555
C4 C3 1_555 1_555
C5 C1 1_555 1_555
C6 C5 1_555 1_555
C7 C6 1_555 1_555
C8 C7 1_555 1_555
C9 C8 1_555 1_555
C10 C5 1_555 1_555
C11 C1 1_555 1_555
O4 C11 1_555 1_555
C12 C11 1_555 1_555
O5 C12 1_555 1_555
O6 C12 1_555 1_555
C13 O6 1_555 1_555
C14 C13 1_555 1_555
C15 C11 1_555 1_555
C16 C15 1_555 1_555
C17 C16 1_555 1_555
C18 C17 1_555 1_555
C19 C18 1_555 1_555
C20 C15 1_555 1_555
C9 C10 1_555 1_555
C19 C20 1_555 1_555

#END
