
#######################################################################
#
#                 Cambridge Crystallographic Data Centre
#                                CCDC 
#
#######################################################################
#
# If this CIF has been generated from an entry in the Cambridge 
# Structural Database, then it will include bibliographic, chemical, 
# crystal, experimental, refinement or atomic coordinate data resulting 
# from the CCDC's data processing and validation procedures.
#
#######################################################################

data_SADMEQ01
_chemical_formula_moiety         'C10 H19 N2 O1 1+,I1 1-'
_chemical_name_systematic        
"N'-(2-Hydroxy-2-methylpropyl)-N-isopropylimidazolium iodide"
_symmetry_cell_setting           monoclinic
_symmetry_space_group_name_H-M   'P 21/c'
_symmetry_Int_Tables_number      14
_space_group_name_Hall           '-P 2ybc'
loop_
_symmetry_equiv_pos_site_id
_symmetry_equiv_pos_as_xyz
1 x,y,z
2 x,1/2-y,1/2+z
3 -x,-y,-z
4 -x,1/2+y,1/2-z
_cell_length_a                   10.297(2)
_cell_length_b                   11.516(2)
_cell_length_c                   11.439(2)
_cell_angle_alpha                90
_cell_angle_beta                 90.408(3)
_cell_angle_gamma                90
_cell_volume                     1356.41
_exptl_crystal_colour            colorless
_exptl_crystal_description       block
_chemical_melting_point          '97-98 deg.C'
_cell_formula_units_Z            4
loop_
_atom_site_label
_atom_site_type_symbol
_atom_site_fract_x
_atom_site_fract_y
_atom_site_fract_z
I1 I 0.747504(13) -0.004917(10) 0.712608(12)
O1 O 0.52224(13) 0.16999(11) 0.57244(13)
H1 H 0.5906 0.1386 0.5918
N1 N 0.67822(15) 0.14259(12) 0.35724(14)
N2 N 0.79180(17) -0.01342(12) 0.33710(16)
C1 C 0.8259(2) -0.13811(16) 0.32373(19)
H2 H 0.7459 -0.1839 0.3286
C2 C 0.56615(19) 0.21973(16) 0.37118(17)
H3 H 0.4882 0.1782 0.3480
H4 H 0.5757 0.2854 0.3189
C3 C 0.5491(2) 0.26491(17) 0.49560(17)
C4 C 0.6743(2) 0.02741(15) 0.35958(18)
H5 H 0.6011 -0.0173 0.3745
C5 C 0.6662(2) 0.33293(17) 0.53840(18)
H6 H 0.6473 0.3674 0.6128
H7 H 0.6864 0.3928 0.4830
H8 H 0.7392 0.2816 0.5465
C6 C 0.80327(19) 0.17632(17) 0.33319(18)
H9 H 0.8331 0.2522 0.3265
C7 C 0.9161(2) -0.17574(19) 0.4216(2)
H10 H 0.8778 -0.1570 0.4955
H11 H 0.9976 -0.1360 0.4145
H12 H 0.9301 -0.2580 0.4169
C8 C 0.8747(2) 0.07905(16) 0.32102(18)
H13 H 0.9630 0.0751 0.3049
C9 C 0.4270(2) 0.33927(19) 0.49445(19)
H14 H 0.3542 0.2930 0.4698
H15 H 0.4380 0.4029 0.4412
H16 H 0.4116 0.3689 0.5716
C10 C 0.8846(2) -0.15706(17) 0.20429(19)
H17 H 0.8292 -0.1234 0.1456
H18 H 0.8933 -0.2388 0.1900
H19 H 0.9686 -0.1210 0.2015
loop_
_geom_bond_atom_site_label_1
_geom_bond_atom_site_label_2
_geom_bond_site_symmetry_1
_geom_bond_site_symmetry_2
O1 H1 1_555 1_555
N1 C2 1_555 1_555
N2 C1 1_555 1_555
C1 H2 1_555 1_555
C2 H3 1_555 1_555
H4 C2 1_555 1_555
C3 O1 1_555 1_555
C4 N1 1_555 1_555
H5 C4 1_555 1_555
C5 C3 1_555 1_555
H6 C5 1_555 1_555
H7 C5 1_555 1_555
H8 C5 1_555 1_555
C6 N1 1_555 1_555
H9 C6 1_555 1_555
C7 C1 1_555 1_555
H10 C7 1_555 1_555
H11 C7 1_555 1_555
H12 C7 1_555 1_555
C8 N2 1_555 1_555
H13 C8 1_555 1_555
C9 C3 1_555 1_555
H14 C9 1_555 1_555
H15 C9 1_555 1_555
H16 C9 1_555 1_555
C10 C1 1_555 1_555
H17 C10 1_555 1_555
H18 C10 1_555 1_555
H19 C10 1_555 1_555
N2 C4 1_555 1_555
C2 C3 1_555 1_555
C6 C8 1_555 1_555

#END
