
#######################################################################
#
#                 Cambridge Crystallographic Data Centre
#                                CCDC 
#
#######################################################################
#
# If this CIF has been generated from an entry in the Cambridge 
# Structural Database, then it will include bibliographic, chemical, 
# crystal, experimental, refinement or atomic coordinate data resulting 
# from the CCDC's data processing and validation procedures.
#
#######################################################################

data_SADTAU
_chemical_formula_moiety         'C32 H40 N2 O7'
_chemical_name_systematic        
(((8,9-Dimethoxy-2-(prop-1-en-2-yl)-1,2,12,12a-tetrahydrochromeno[3,4-b]furo[2,3-h]chromen-6(6aH)-ylidene)amino)oxy)(octylamino)methanone
_chemical_properties_biological  'insecticidal activity'
_symmetry_cell_setting           monoclinic
_symmetry_space_group_name_H-M   'P 21'
_symmetry_Int_Tables_number      4
_space_group_name_Hall           'P 2yb'
loop_
_symmetry_equiv_pos_site_id
_symmetry_equiv_pos_as_xyz
1 x,y,z
2 -x,1/2+y,-z
_cell_length_a                   11.4311(8)
_cell_length_b                   10.3717(7)
_cell_length_c                   12.7490(9)
_cell_angle_alpha                90
_cell_angle_beta                 105.0770(10)
_cell_angle_gamma                90
_cell_volume                     1459.49
_exptl_crystal_colour            colorless
_exptl_crystal_description       block
_cell_formula_units_Z            2
loop_
_atom_site_label
_atom_site_type_symbol
_atom_site_fract_x
_atom_site_fract_y
_atom_site_fract_z
O1 O 0.35947(19) 0.86625(19) -0.01587(16)
C1 C 0.2502(3) 0.6626(3) 0.2391(2)
H1 H 0.2839 0.7076 0.3049
C2 C 0.1504(3) 0.5864(3) 0.2318(2)
C3 C 0.0974(3) 0.5213(3) 0.1342(3)
C4 C 0.1479(3) 0.5345(3) 0.0481(3)
H2 H 0.1118 0.4924 -0.0187
C5 C 0.2514(3) 0.6090(3) 0.0578(2)
C6 C 0.3046(3) 0.6764(3) 0.1529(2)
C7 C 0.4182(3) 0.7563(3) 0.1620(2)
H3 H 0.4882 0.7069 0.2077
C8 C 0.4412(3) 0.7754(3) 0.0505(2)
H4 H 0.5267 0.8043 0.0592
C9 C 0.4196(3) 0.6511(3) -0.0124(3)
H5 H 0.4408 0.6624 -0.0824
H6 H 0.4725 0.5829 0.0292
C10 C 0.3345(3) 0.9762(3) 0.0329(2)
C11 C 0.3616(3) 0.9936(3) 0.1461(2)
C12 C 0.4128(2) 0.8845(3) 0.2167(2)
C13 C 0.3351(3) 1.1130(3) 0.1860(2)
H7 H 0.3521 1.1251 0.2624
C14 C 0.2854(3) 1.2132(3) 0.1185(2)
H8 H 0.2701 1.2945 0.1465
C15 C 0.2583(3) 1.1900(3) 0.0064(2)
C16 C 0.2817(2) 1.0741(3) -0.0359(2)
C17 C 0.2474(3) 1.0817(3) -0.1572(2)
H9 H 0.1911 1.0115 -0.1901
H10 H 0.3197 1.0783 -0.1863
C18 C 0.1850(3) 1.2146(3) -0.1772(2)
H11 H 0.0956 1.2007 -0.2035
C19 C 0.2247(3) 1.2956(3) -0.2589(2)
C20 C 0.2820(3) 1.4065(3) -0.2349(3)
H12 H 0.3039 1.4549 -0.2901
H13 H 0.3013 1.4378 -0.1624
C21 C 0.1914(4) 1.2403(4) -0.3707(3)
H14 H 0.2100 1.3029 -0.4217
H15 H 0.1045 1.2206 -0.3920
H16 H 0.2376 1.1611 -0.3720
C22 C 0.1719(4) 0.5654(6) 0.4188(3)
H17 H 0.1975 0.6531 0.4429
H18 H 0.2433 0.5129 0.4191
H19 H 0.1285 0.5272 0.4682
C23 C -0.0472(3) 0.3680(4) 0.0411(3)
H20 H 0.0173 0.3117 0.0299
H21 H -0.0771 0.4224 -0.0231
H22 H -0.1138 0.3152 0.0528
C24 C 0.5190(3) 0.7957(3) 0.4863(2)
C25 C 0.5011(3) 0.9178(4) 0.6442(2)
H23 H 0.4858 1.0089 0.6598
H24 H 0.5857 0.8973 0.6834
C26 C 0.4163(3) 0.8321(4) 0.6873(3)
H25 H 0.4377 0.7410 0.6782
H26 H 0.4309 0.8482 0.7662
C27 C 0.2823(3) 0.8498(3) 0.6344(3)
H27 H 0.2669 0.8332 0.5555
H28 H 0.2601 0.9406 0.6437
C28 C 0.2013(3) 0.7614(4) 0.6809(3)
H29 H 0.2189 0.6708 0.6660
H30 H 0.2221 0.7726 0.7608
C29 C 0.0668(3) 0.7856(4) 0.6357(3)
H31 H 0.0468 0.7775 0.5556
H32 H 0.0490 0.8754 0.6527
C30 C -0.0155(4) 0.6957(5) 0.6781(4)
H33 H 0.0118 0.6948 0.7585
H34 H -0.0987 0.7314 0.6576
C31 C -0.0201(4) 0.5606(4) 0.6385(3)
H35 H 0.0633 0.5256 0.6560
H36 H -0.0517 0.5605 0.5585
C32 C -0.0993(5) 0.4714(6) 0.6873(5)
H37 H -0.1814 0.5068 0.6727
H38 H -0.0647 0.4647 0.7660
H39 H -0.1023 0.3856 0.6545
N1 N 0.4484(2) 0.9047(3) 0.3197(2)
N2 N 0.4876(3) 0.9038(3) 0.5270(2)
H40 H 0.4583 0.9683 0.4832
O2 O 0.29578(18) 0.6122(2) -0.03268(16)
O3 O 0.2106(2) 1.2795(2) -0.07134(16)
O4 O 0.0972(2) 0.5694(3) 0.31621(19)
O5 O -0.0009(2) 0.4473(2) 0.13369(19)
O6 O 0.4977(2) 0.7885(2) 0.37483(16)
O7 O 0.5626(2) 0.6997(2) 0.53630(17)
loop_
_geom_bond_atom_site_label_1
_geom_bond_atom_site_label_2
_geom_bond_site_symmetry_1
_geom_bond_site_symmetry_2
O1 C8 1_555 1_555
C1 H1 1_555 1_555
C2 C1 1_555 1_555
C3 C2 1_555 1_555
C4 C3 1_555 1_555
H2 C4 1_555 1_555
C5 C4 1_555 1_555
C6 C1 1_555 1_555
C7 C6 1_555 1_555
H3 C7 1_555 1_555
C8 C7 1_555 1_555
H4 C8 1_555 1_555
C9 C8 1_555 1_555
H5 C9 1_555 1_555
H6 C9 1_555 1_555
C10 O1 1_555 1_555
C11 C10 1_555 1_555
C12 C7 1_555 1_555
C13 C11 1_555 1_555
H7 C13 1_555 1_555
C14 C13 1_555 1_555
H8 C14 1_555 1_555
C15 C14 1_555 1_555
C16 C10 1_555 1_555
C17 C16 1_555 1_555
H9 C17 1_555 1_555
H10 C17 1_555 1_555
C18 C17 1_555 1_555
H11 C18 1_555 1_555
C19 C18 1_555 1_555
C20 C19 1_555 1_555
H12 C20 1_555 1_555
H13 C20 1_555 1_555
C21 C19 1_555 1_555
H14 C21 1_555 1_555
H15 C21 1_555 1_555
H16 C21 1_555 1_555
C22 H17 1_555 1_555
H18 C22 1_555 1_555
H19 C22 1_555 1_555
C23 H20 1_555 1_555
H21 C23 1_555 1_555
H22 C23 1_555 1_555
C24 N2 1_555 1_555
C25 H23 1_555 1_555
H24 C25 1_555 1_555
C26 C25 1_555 1_555
H25 C26 1_555 1_555
H26 C26 1_555 1_555
C27 C26 1_555 1_555
H27 C27 1_555 1_555
H28 C27 1_555 1_555
C28 C27 1_555 1_555
H29 C28 1_555 1_555
H30 C28 1_555 1_555
C29 C28 1_555 1_555
H31 C29 1_555 1_555
H32 C29 1_555 1_555
C30 C29 1_555 1_555
H33 C30 1_555 1_555
H34 C30 1_555 1_555
C31 C30 1_555 1_555
H35 C31 1_555 1_555
H36 C31 1_555 1_555
C32 C31 1_555 1_555
H37 C32 1_555 1_555
H38 C32 1_555 1_555
H39 C32 1_555 1_555
N1 C12 1_555 1_555
N2 C25 1_555 1_555
H40 N2 1_555 1_555
O2 C5 1_555 1_555
O3 C15 1_555 1_555
O4 C2 1_555 1_555
O5 C3 1_555 1_555
O6 C24 1_555 1_555
O7 C24 1_555 1_555
C5 C6 1_555 1_555
C9 O2 1_555 1_555
C11 C12 1_555 1_555
C15 C16 1_555 1_555
C18 O3 1_555 1_555
C22 O4 1_555 1_555
C23 O5 1_555 1_555
N1 O6 1_555 1_555

#END
