
#######################################################################
#
#                 Cambridge Crystallographic Data Centre
#                                CCDC 
#
#######################################################################
#
# If this CIF has been generated from an entry in the Cambridge 
# Structural Database, then it will include bibliographic, chemical, 
# crystal, experimental, refinement or atomic coordinate data resulting 
# from the CCDC's data processing and validation procedures.
#
#######################################################################

data_SADWEC01
_chemical_formula_moiety         'C22 H17 N3 O2'
_chemical_name_systematic        
3'-(2-methylphenyl)-1'H-spiro[indole-3,2'-quinazoline]-2,4'(1H,3'H)-dione
_symmetry_cell_setting           monoclinic
_symmetry_space_group_name_H-M   'P 21/c'
_symmetry_Int_Tables_number      14
_space_group_name_Hall           '-P 2ybc'
loop_
_symmetry_equiv_pos_site_id
_symmetry_equiv_pos_as_xyz
1 x,y,z
2 -x,1/2+y,1/2-z
3 -x,-y,-z
4 x,1/2-y,1/2+z
_cell_length_a                   7.536(4)
_cell_length_b                   13.087(6)
_cell_length_c                   17.974(8)
_cell_angle_alpha                90
_cell_angle_beta                 92.870(8)
_cell_angle_gamma                90
_cell_volume                     1770.44
_cell_formula_units_Z            4
loop_
_atom_site_label
_atom_site_type_symbol
_atom_site_fract_x
_atom_site_fract_y
_atom_site_fract_z
C1 C 0.3384(3) 0.51303(17) 0.23349(13)
C2 C 0.4613(3) 0.56569(17) 0.18492(13)
C3 C 0.5290(4) 0.5161(2) 0.12329(14)
H1 H 0.4924 0.4499 0.1116
C4 C 0.6492(4) 0.5643(2) 0.07985(16)
H2 H 0.6920 0.5314 0.0386
C5 C 0.7060(4) 0.6631(2) 0.09836(17)
H3 H 0.7878 0.6954 0.0693
C6 C 0.6426(4) 0.7136(2) 0.15914(16)
H4 H 0.6834 0.7789 0.1712
C7 C 0.5165(3) 0.66624(18) 0.20268(13)
C8 C 0.2775(3) 0.68444(17) 0.28803(12)
C9 C 0.1228(4) 0.72900(18) 0.23491(14)
C10 C 0.0856(4) 0.79354(19) 0.35182(15)
C11 C 0.0175(5) 0.8498(2) 0.40999(18)
H5 H -0.0843 0.8895 0.4031
C12 C 0.1111(5) 0.8432(2) 0.47939(17)
H6 H 0.0664 0.8769 0.5200
C13 C 0.2652(5) 0.7892(2) 0.48935(15)
H7 H 0.3262 0.7896 0.5356
C14 C 0.3333(4) 0.7324(2) 0.43013(14)
H8 H 0.4386 0.6957 0.4364
C15 C 0.2365(4) 0.73366(17) 0.36194(13)
C16 C 0.1178(4) 0.52418(19) 0.32692(15)
C17 C -0.0604(5) 0.5329(2) 0.29444(18)
H9 H -0.0821 0.5686 0.2502
C18 C -0.1962(5) 0.4883(3) 0.3294(2)
H10 H -0.3120 0.4948 0.3096
C19 C -0.1626(5) 0.4328(3) 0.3949(2)
H11 H -0.2561 0.4019 0.4182
C20 C 0.0047(5) 0.4236(2) 0.42455(18)
H12 H 0.0243 0.3853 0.4678
C21 C 0.1514(4) 0.4704(2) 0.39186(15)
C22 C 0.3327(5) 0.4611(3) 0.42547(18)
H13 H 0.4072 0.4280 0.3910
H14 H 0.3303 0.4213 0.4703
H15 H 0.3789 0.5279 0.4371
N1 N 0.2633(3) 0.57066(14) 0.28782(10)
N2 N 0.4515(3) 0.71246(15) 0.26531(11)
H16 H 0.5140 0.7570 0.2901
N3 N 0.0207(3) 0.78924(18) 0.27702(12)
H17 H -0.0726 0.8210 0.2600
O1 O 0.3076(3) 0.41981(13) 0.22782(11)
O2 O 0.1032(3) 0.70980(16) 0.16862(10)
loop_
_geom_bond_atom_site_label_1
_geom_bond_atom_site_label_2
_geom_bond_site_symmetry_1
_geom_bond_site_symmetry_2
C1 C2 1_555 1_555
C2 C3 1_555 1_555
C3 H1 1_555 1_555
C4 C3 1_555 1_555
H2 C4 1_555 1_555
C5 C4 1_555 1_555
H3 C5 1_555 1_555
C6 C5 1_555 1_555
H4 C6 1_555 1_555
C7 C2 1_555 1_555
C8 C9 1_555 1_555
C9 N3 1_555 1_555
C10 C11 1_555 1_555
C11 H5 1_555 1_555
C12 C11 1_555 1_555
H6 C12 1_555 1_555
C13 C12 1_555 1_555
H7 C13 1_555 1_555
C14 C13 1_555 1_555
H8 C14 1_555 1_555
C15 C8 1_555 1_555
C16 C17 1_555 1_555
C17 H9 1_555 1_555
C18 C17 1_555 1_555
H10 C18 1_555 1_555
C19 C18 1_555 1_555
H11 C19 1_555 1_555
C20 C19 1_555 1_555
H12 C20 1_555 1_555
C21 C16 1_555 1_555
C22 C21 1_555 1_555
H13 C22 1_555 1_555
H14 C22 1_555 1_555
H15 C22 1_555 1_555
N1 C1 1_555 1_555
N2 C7 1_555 1_555
H16 N2 1_555 1_555
N3 C10 1_555 1_555
H17 N3 1_555 1_555
O1 C1 1_555 1_555
O2 C9 1_555 1_555
C6 C7 1_555 1_555
C8 N1 1_555 1_555
C8 N2 1_555 1_555
C10 C15 1_555 1_555
C14 C15 1_555 1_555
C16 N1 1_555 1_555
C20 C21 1_555 1_555

#END
