
#######################################################################
#
#                 Cambridge Crystallographic Data Centre
#                                CCDC 
#
#######################################################################
#
# If this CIF has been generated from an entry in the Cambridge 
# Structural Database, then it will include bibliographic, chemical, 
# crystal, experimental, refinement or atomic coordinate data resulting 
# from the CCDC's data processing and validation procedures.
#
#######################################################################

data_SADWEC
_chemical_formula_moiety         'C22 H17 N3 O2'
_chemical_name_systematic        
3'-(2-methylphenyl)-1'H-spiro[indole-3,2'-quinazoline]-2,4'(1H,3'H)-dione
_symmetry_cell_setting           monoclinic
_symmetry_space_group_name_H-M   'P 21/c'
_symmetry_Int_Tables_number      14
_space_group_name_Hall           '-P 2ybc'
loop_
_symmetry_equiv_pos_site_id
_symmetry_equiv_pos_as_xyz
1 x,y,z
2 -x,1/2+y,1/2-z
3 -x,-y,-z
4 x,1/2-y,1/2+z
_cell_length_a                   7.536(4)
_cell_length_b                   13.087(6)
_cell_length_c                   17.974(8)
_cell_angle_alpha                90
_cell_angle_beta                 92.870(8)
_cell_angle_gamma                90
_cell_volume                     1770.44
_exptl_crystal_colour            colorless
_exptl_crystal_description       block
_cell_formula_units_Z            4
loop_
_atom_site_label
_atom_site_type_symbol
_atom_site_fract_x
_atom_site_fract_y
_atom_site_fract_z
C1 C 0.3386(4) 0.5132(2) 0.23358(15)
C2 C 0.4611(4) 0.5655(2) 0.18477(15)
C3 C 0.5287(4) 0.5162(2) 0.12339(17)
H1 H 0.4923 0.4499 0.1117
C4 C 0.6489(5) 0.5645(3) 0.07982(19)
H2 H 0.6911 0.5318 0.0383
C5 C 0.7067(5) 0.6629(3) 0.09858(19)
H3 H 0.7897 0.6950 0.0700
C6 C 0.6420(4) 0.7134(2) 0.15910(18)
H4 H 0.6820 0.7789 0.1709
C7 C 0.5168(4) 0.6664(2) 0.20260(15)
C8 C 0.2775(4) 0.6845(2) 0.28811(14)
C9 C 0.1226(4) 0.7291(2) 0.23507(16)
C10 C 0.0851(4) 0.7937(2) 0.35192(17)
C11 C 0.0176(5) 0.8493(3) 0.4099(2)
H5 H -0.0848 0.8886 0.4030
C12 C 0.1104(5) 0.8437(3) 0.47911(19)
H6 H 0.0661 0.8781 0.5195
C13 C 0.2645(6) 0.7891(3) 0.48911(17)
H7 H 0.3252 0.7893 0.5354
C14 C 0.3327(5) 0.7324(2) 0.43013(16)
H8 H 0.4379 0.6956 0.4366
C15 C 0.2366(4) 0.7338(2) 0.36188(15)
C16 C 0.1184(5) 0.5242(2) 0.32698(17)
C17 C -0.0598(5) 0.5328(3) 0.2943(2)
H9 H -0.0815 0.5683 0.2500
C18 C -0.1959(6) 0.4880(3) 0.3294(3)
H10 H -0.3118 0.4944 0.3097
C19 C -0.1617(6) 0.4325(3) 0.3947(2)
H11 H -0.2549 0.4012 0.4180
C20 C 0.0050(5) 0.4237(3) 0.4244(2)
H12 H 0.0245 0.3858 0.4678
C21 C 0.1511(5) 0.4702(2) 0.39184(18)
C22 C 0.3326(5) 0.4613(3) 0.4256(2)
H13 H 0.4090 0.4321 0.3901
H14 H 0.3314 0.4183 0.4688
H15 H 0.3757 0.5279 0.4398
N1 N 0.2632(3) 0.57051(17) 0.28786(12)
N2 N 0.4514(3) 0.71235(18) 0.26513(13)
H16 H 0.5139 0.7569 0.2899
N3 N 0.0213(4) 0.7889(2) 0.27698(15)
H17 H -0.0719 0.8207 0.2598
O1 O 0.3074(3) 0.41982(15) 0.22802(12)
O2 O 0.1027(3) 0.70978(18) 0.16866(12)
loop_
_geom_bond_atom_site_label_1
_geom_bond_atom_site_label_2
_geom_bond_site_symmetry_1
_geom_bond_site_symmetry_2
C1 C2 1_555 1_555
C2 C3 1_555 1_555
C3 H1 1_555 1_555
C4 C3 1_555 1_555
H2 C4 1_555 1_555
C5 C4 1_555 1_555
H3 C5 1_555 1_555
C6 C5 1_555 1_555
H4 C6 1_555 1_555
C7 C2 1_555 1_555
C8 C9 1_555 1_555
C9 N3 1_555 1_555
C10 C11 1_555 1_555
C11 H5 1_555 1_555
C12 C11 1_555 1_555
H6 C12 1_555 1_555
C13 C12 1_555 1_555
H7 C13 1_555 1_555
C14 C13 1_555 1_555
H8 C14 1_555 1_555
C15 C8 1_555 1_555
C16 C17 1_555 1_555
C17 H9 1_555 1_555
C18 C17 1_555 1_555
H10 C18 1_555 1_555
C19 C18 1_555 1_555
H11 C19 1_555 1_555
C20 C19 1_555 1_555
H12 C20 1_555 1_555
C21 C16 1_555 1_555
C22 C21 1_555 1_555
H13 C22 1_555 1_555
H14 C22 1_555 1_555
H15 C22 1_555 1_555
N1 C1 1_555 1_555
N2 C7 1_555 1_555
H16 N2 1_555 1_555
N3 C10 1_555 1_555
H17 N3 1_555 1_555
O1 C1 1_555 1_555
O2 C9 1_555 1_555
C6 C7 1_555 1_555
C8 N1 1_555 1_555
C8 N2 1_555 1_555
C10 C15 1_555 1_555
C14 C15 1_555 1_555
C16 N1 1_555 1_555
C20 C21 1_555 1_555

#END
