
#######################################################################
#
#                 Cambridge Crystallographic Data Centre
#                                CCDC 
#
#######################################################################
#
# If this CIF has been generated from an entry in the Cambridge 
# Structural Database, then it will include bibliographic, chemical, 
# crystal, experimental, refinement or atomic coordinate data resulting 
# from the CCDC's data processing and validation procedures.
#
#######################################################################

data_SADWUP
_chemical_formula_moiety         'C18 H10 N4 O8 S4'
_chemical_name_systematic        
9-(4,5-Dimethylthio-1,3-dithiole-2-ylidene)-2,4,5,7-tetranitrofluorene
_symmetry_cell_setting           triclinic
_symmetry_space_group_name_H-M   'P -1'
_symmetry_Int_Tables_number      2
_space_group_name_Hall           '-P 1'
loop_
_symmetry_equiv_pos_site_id
_symmetry_equiv_pos_as_xyz
1 x,y,z
2 -x,-y,-z
_cell_length_a                   9.079(1)
_cell_length_b                   10.014(1)
_cell_length_c                   12.806(2)
_cell_angle_alpha                108.61(1)
_cell_angle_beta                 102.30(1)
_cell_angle_gamma                103.06(1)
_cell_volume                     1022.31
_exptl_crystal_colour            black
_exptl_crystal_description       needles
_cell_formula_units_Z            2
loop_
_atom_site_label
_atom_site_type_symbol
_atom_site_fract_x
_atom_site_fract_y
_atom_site_fract_z
S1 S 0.2828(1) 0.1800(1) 0.2507(1)
S2 S 0.4083(1) 0.4935(1) 0.3040(1)
S3 S 0.3040(1) 0.5903(1) 0.5150(1)
S4 S 0.1500(1) 0.2227(1) 0.4515(1)
N1 N 0.1015(4) -0.2419(3) -0.1475(3)
O1 O 0.0231(3) -0.2462(3) -0.0806(3)
O2 O 0.0840(4) -0.3464(3) -0.2358(3)
N2 N 0.8624(3) 0.7580(3) 0.1952(3)
O3 O 0.8670(3) 0.8076(3) 0.2973(2)
O4 O 0.9305(3) 0.8300(3) 0.1481(2)
N3 N 0.7683(3) 0.3031(3) -0.1327(2)
O5 O 0.8492(3) 0.3735(3) -0.1753(2)
O6 O 0.7423(3) 0.1684(3) -0.1568(2)
N4 N 0.4437(3) 0.0704(3) -0.2795(2)
O7 O 0.4715(3) 0.1973(3) -0.2785(2)
O8 O 0.4409(3) -0.0376(3) -0.3597(2)
C1 C 0.6568(4) 0.5314(4) 0.1654(3)
C2 C 0.7660(4) 0.6015(3) 0.1238(3)
C3 C 0.7945(4) 0.5316(4) 0.0211(3)
C4 C 0.7072(4) 0.3833(4) -0.0432(3)
C5 C 0.4042(4) 0.0489(3) -0.1790(3)
C6 C 0.2913(4) -0.0848(4) -0.2046(3)
C7 C 0.2260(4) -0.0994(4) -0.1186(3)
C8 C 0.2631(4) 0.0119(4) -0.0118(3)
C9 C 0.4384(4) 0.2832(3) 0.1156(3)
C10 C 0.5599(4) 0.3855(3) 0.0947(3)
C11 C 0.5803(4) 0.3089(3) -0.0142(3)
C12 C 0.4610(4) 0.1633(3) -0.0677(3)
C13 C 0.3833(4) 0.1451(3) 0.0149(3)
C14 C 0.3844(4) 0.3160(3) 0.2120(3)
C15 C 0.2540(4) 0.2987(4) 0.3725(3)
C16 C 0.3123(4) 0.4459(4) 0.3976(3)
C17 C 0.1764(8) 0.6696(7) 0.4416(5)
C18 C 0.2151(5) 0.0629(4) 0.4434(4)
H1 H 0.6525(41) 0.5811(39) 0.2352(32)
H2 H 0.8755(55) 0.5738(50) -0.0032(39)
H3 H 0.2584(41) -0.1529(40) -0.2755(32)
H4 H 0.2140(49) -0.0027(45) 0.0322(36)
H5 H 0.1648(64) 0.7401(63) 0.5009(49)
H6 H 0.095(11) 0.591(10) 0.4566(75)
H7 H 0.1133(73) 0.6188(69) 0.3692(59)
H8 H 0.3224(75) 0.1016(66) 0.4757(52)
H9 H 0.1676(53) 0.0163(50) 0.4925(39)
H10 H 0.1806(52) -0.0149(50) 0.3621(41)
loop_
_geom_bond_atom_site_label_1
_geom_bond_atom_site_label_2
_geom_bond_site_symmetry_1
_geom_bond_site_symmetry_2
S1 C14 1_555 1_555
S2 C14 1_555 1_555
S3 C16 1_555 1_555
S4 C15 1_555 1_555
N1 O1 1_555 1_555
O2 N1 1_555 1_555
N2 O3 1_555 1_555
O4 N2 1_555 1_555
N3 O5 1_555 1_555
O6 N3 1_555 1_555
N4 O7 1_555 1_555
O8 N4 1_555 1_555
C1 C2 1_555 1_555
C2 N2 1_555 1_555
C3 C2 1_555 1_555
C4 N3 1_555 1_555
C5 N4 1_555 1_555
C6 C5 1_555 1_555
C7 N1 1_555 1_555
C8 C7 1_555 1_555
C9 C10 1_555 1_555
C10 C1 1_555 1_555
C11 C4 1_555 1_555
C12 C5 1_555 1_555
C13 C8 1_555 1_555
C14 C9 1_555 1_555
C15 S1 1_555 1_555
C16 S2 1_555 1_555
C17 S3 1_555 1_555
C18 S4 1_555 1_555
H1 C1 1_555 1_555
H2 C3 1_555 1_555
H3 C6 1_555 1_555
H4 C8 1_555 1_555
H5 C17 1_555 1_555
H6 C17 1_555 1_555
H7 C17 1_555 1_555
H8 C18 1_555 1_555
H9 C18 1_555 1_555
H10 C18 1_555 1_555
C3 C4 1_555 1_555
C6 C7 1_555 1_555
C9 C13 1_555 1_555
C10 C11 1_555 1_555
C11 C12 1_555 1_555
C12 C13 1_555 1_555
C15 C16 1_555 1_555

#END
