
#######################################################################
#
#                 Cambridge Crystallographic Data Centre
#                                CCDC 
#
#######################################################################
#
# If this CIF has been generated from an entry in the Cambridge 
# Structural Database, then it will include bibliographic, chemical, 
# crystal, experimental, refinement or atomic coordinate data resulting 
# from the CCDC's data processing and validation procedures.
#
#######################################################################

data_SADWIG
_chemical_formula_moiety         'C22 H16 Cl1 N3 O2'
_chemical_name_systematic        
5-chloro-3'-(2-methylphenyl)-1'H-spiro[indole-3,2'-quinazoline]-2,4'(1H,3'H)-dione
_symmetry_cell_setting           monoclinic
_symmetry_space_group_name_H-M   'P 21/c'
_symmetry_Int_Tables_number      14
_space_group_name_Hall           '-P 2ybc'
loop_
_symmetry_equiv_pos_site_id
_symmetry_equiv_pos_as_xyz
1 x,y,z
2 -x,1/2+y,1/2-z
3 -x,-y,-z
4 x,1/2-y,1/2+z
_cell_length_a                   8.5104(15)
_cell_length_b                   13.098(2)
_cell_length_c                   16.620(3)
_cell_angle_alpha                90
_cell_angle_beta                 96.394(3)
_cell_angle_gamma                90
_cell_volume                     1841.09
_exptl_crystal_colour            colorless
_exptl_crystal_description       block
_cell_formula_units_Z            4
loop_
_atom_site_label
_atom_site_type_symbol
_atom_site_fract_x
_atom_site_fract_y
_atom_site_fract_z
C1 C 0.6843(4) 0.0336(3) 0.8648(2)
C2 C 0.7662(4) 0.0261(3) 0.9406(2)
H1 H 0.8531 0.0677 0.9556
C3 C 0.7165(5) -0.0449(3) 0.9940(2)
C4 C 0.5888(4) -0.1076(3) 0.9724(2)
H2 H 0.5578 -0.1546 1.0095
C5 C 0.5056(5) -0.1012(3) 0.8951(2)
H3 H 0.4200 -0.1437 0.8797
C6 C 0.5554(4) -0.0290(3) 0.8422(2)
C7 C 0.5803(5) 0.0622(3) 0.7268(2)
C8 C 0.5966(8) 0.2544(3) 0.8449(3)
C9 C 0.6350(10) 0.3061(4) 0.9164(3)
C10 C 0.5017(10) 0.3570(4) 0.9517(4)
H4 H 0.5175 0.3932 1.0000
C11 C 0.3581(13) 0.3478(5) 0.9103(5)
H5 H 0.2762 0.3795 0.9334
C12 C 0.3173(9) 0.3008(5) 0.8423(5)
H6 H 0.2133 0.2998 0.8182
C13 C 0.4392(7) 0.2520(4) 0.8078(4)
H7 H 0.4162 0.2170 0.7592
N1 N 0.7212(4) 0.2051(2) 0.80203(18)
C14 C 0.8010(5) 0.2686(3) 0.7537(2)
C15 C 0.9110(4) 0.2204(3) 0.7039(2)
C16 C 0.9904(5) 0.2795(4) 0.6520(3)
H8 H 0.9659 0.3484 0.6450
C17 C 1.1058(7) 0.2360(5) 0.6108(4)
H9 H 1.1588 0.2752 0.5758
C18 C 1.1422(6) 0.1334(5) 0.6220(4)
H10 H 1.2220 0.1046 0.5954
C19 C 1.0616(6) 0.0732(4) 0.6720(3)
H11 H 1.0853 0.0041 0.6779
C20 C 0.9460(4) 0.1159(3) 0.7132(2)
C21 C 0.7900(11) 0.3110(6) 0.9546(5)
Cl1 Cl 0.81858(14) -0.05766(9) 1.08992(6)
N2 N 0.4942(4) -0.0103(2) 0.76151(19)
H12 H 0.4129 -0.0407 0.7371
C22 C 0.7189(4) 0.0941(3) 0.7914(2)
N3 N 0.8688(4) 0.0606(2) 0.7668(2)
H13 H 0.9102 0.0046 0.7862
O1 O 0.7820(4) 0.3614(2) 0.75473(19)
O2 O 0.5568(4) 0.0948(2) 0.65841(17)
loop_
_geom_bond_atom_site_label_1
_geom_bond_atom_site_label_2
_geom_bond_site_symmetry_1
_geom_bond_site_symmetry_2
C1 C2 1_555 1_555
C2 H1 1_555 1_555
C3 C2 1_555 1_555
C4 C3 1_555 1_555
H2 C4 1_555 1_555
C5 C4 1_555 1_555
H3 C5 1_555 1_555
C6 C1 1_555 1_555
C7 N2 1_555 1_555
C8 C9 1_555 1_555
C9 C10 1_555 1_555
C10 H4 1_555 1_555
C11 C10 1_555 1_555
H5 C11 1_555 1_555
C12 C11 1_555 1_555
H6 C12 1_555 1_555
C13 C8 1_555 1_555
H7 C13 1_555 1_555
N1 C8 1_555 1_555
C14 N1 1_555 1_555
C15 C14 1_555 1_555
C16 C15 1_555 1_555
H8 C16 1_555 1_555
C17 C16 1_555 1_555
H9 C17 1_555 1_555
C18 C17 1_555 1_555
H10 C18 1_555 1_555
C19 C18 1_555 1_555
H11 C19 1_555 1_555
C20 C15 1_555 1_555
C21 C9 1_555 1_555
Cl1 C3 1_555 1_555
N2 C6 1_555 1_555
H12 N2 1_555 1_555
C22 C1 1_555 1_555
N3 C20 1_555 1_555
H13 N3 1_555 1_555
O1 C14 1_555 1_555
O2 C7 1_555 1_555
C5 C6 1_555 1_555
C7 C22 1_555 1_555
C12 C13 1_555 1_555
N1 C22 1_555 1_555
C19 C20 1_555 1_555
C22 N3 1_555 1_555

#END
