
#######################################################################
#
#                 Cambridge Crystallographic Data Centre
#                                CCDC 
#
#######################################################################
#
# If this CIF has been generated from an entry in the Cambridge 
# Structural Database, then it will include bibliographic, chemical, 
# crystal, experimental, refinement or atomic coordinate data resulting 
# from the CCDC's data processing and validation procedures.
#
#######################################################################

data_SADYIF
_chemical_formula_moiety         'C10 H14 O2 Se3'
_chemical_name_systematic        4,4'-Triseleno-bis(pent-3-en-2-one)
_symmetry_cell_setting           orthorhombic
_symmetry_space_group_name_H-M   'P 21 21 2'
_symmetry_Int_Tables_number      18
_space_group_name_Hall           'P 2 2ab'
loop_
_symmetry_equiv_pos_site_id
_symmetry_equiv_pos_as_xyz
1 x,y,z
2 1/2+x,1/2-y,-z
3 1/2-x,1/2+y,-z
4 -x,-y,z
_cell_length_a                   9.761(2)
_cell_length_b                   14.828(3)
_cell_length_c                   4.6447(5)
_cell_angle_alpha                90
_cell_angle_beta                 90
_cell_angle_gamma                90
_cell_volume                     672.256
_exptl_crystal_colour            'pale yellow'
_cell_formula_units_Z            2
loop_
_atom_site_label
_atom_site_type_symbol
_atom_site_fract_x
_atom_site_fract_y
_atom_site_fract_z
Se1 Se 0.0000 0.0000 0.3569(1)
Se2 Se 0.00686(5) 0.12747(3) 0.0536(1)
O1 O 0.0077(4) 0.2721(2) -0.2576(7)
C1 C -0.2792(5) 0.0663(3) -0.006(1)
C2 C -0.1764(4) 0.1360(3) -0.092(1)
C3 C -0.2079(5) 0.2046(3) -0.268(1)
C4 C -0.1098(6) 0.2735(3) -0.352(1)
C5 C -0.1562 0.3445(4) -0.553(1)
H1 H -0.2314(5) 0.0176(3) 0.135(1)
H2 H -0.3168(5) 0.0327(3) -0.196(1)
H3 H -0.3636(5) 0.0981(3) 0.105(1)
H4 H -0.3142(5) 0.1901(3) -0.312(1)
H5 H -0.2622(6) 0.3330(4) -0.609(1)
H6 H -0.0944(6) 0.3431(4) -0.746(1)
H7 H -0.1461(6) 0.4094(4) -0.450(1)
Se2C Se -0.00686(5) -0.12747(3) 0.0536(1)
C2C C 0.1764(4) -0.1360(3) -0.092(1)
C1C C 0.2792(5) -0.0663(3) -0.006(1)
C3C C 0.2079(5) -0.2046(3) -0.268(1)
H1C H 0.2314(5) -0.0176(3) 0.135(1)
H2C H 0.3168(5) -0.0327(3) -0.196(1)
H3C H 0.3636(5) -0.0981(3) 0.105(1)
C4C C 0.1098(6) -0.2735(3) -0.352(1)
H4C H 0.3142(5) -0.1901(3) -0.312(1)
O1C O -0.0077(4) -0.2721(2) -0.2576(7)
C5C C 0.1562 -0.3445(4) -0.553(1)
H5C H 0.2622(6) -0.3330(4) -0.609(1)
H6C H 0.0944(6) -0.3431(4) -0.746(1)
H7C H 0.1461(6) -0.4094(4) -0.450(1)
loop_
_geom_bond_atom_site_label_1
_geom_bond_atom_site_label_2
_geom_bond_site_symmetry_1
_geom_bond_site_symmetry_2
Se1 Se2 1_555 1_555
Se2 C2 1_555 1_555
O1 C4 1_555 1_555
C1 C2 1_555 1_555
C2 C3 1_555 1_555
C3 C4 1_555 1_555
C4 C5 1_555 1_555
C5 H5 1_555 1_555
H1 C1 1_555 1_555
H2 C1 1_555 1_555
H3 C1 1_555 1_555
H4 C3 1_555 1_555
H6 C5 1_555 1_555
H7 C5 1_555 1_555
Se2C Se1 1_555 1_555
C2C Se2C 1_555 1_555
C1C C2C 1_555 1_555
C3C C2C 1_555 1_555
H1C C1C 1_555 1_555
H2C C1C 1_555 1_555
H3C C1C 1_555 1_555
C4C C3C 1_555 1_555
H4C C3C 1_555 1_555
O1C C4C 1_555 1_555
C5C C4C 1_555 1_555
H5C C5C 1_555 1_555
H6C C5C 1_555 1_555
H7C C5C 1_555 1_555

#END
