
#######################################################################
#
#                 Cambridge Crystallographic Data Centre
#                                CCDC 
#
#######################################################################
#
# If this CIF has been generated from an entry in the Cambridge 
# Structural Database, then it will include bibliographic, chemical, 
# crystal, experimental, refinement or atomic coordinate data resulting 
# from the CCDC's data processing and validation procedures.
#
#######################################################################

data_SADZOP
_chemical_formula_moiety         'C16 H19 Br1 Cl1 N1 O3 S1'
_chemical_name_systematic        
1-((4-bromophenyl)sulfonyl)-3-(2-chlorocyclobut-1-en-1-yl)-4-methoxy-3-methylpyrrolidine
_symmetry_cell_setting           triclinic
_symmetry_space_group_name_H-M   'P -1'
_symmetry_Int_Tables_number      2
_space_group_name_Hall           '-P 1'
loop_
_symmetry_equiv_pos_site_id
_symmetry_equiv_pos_as_xyz
1 x,y,z
2 -x,-y,-z
_cell_length_a                   7.6474(8)
_cell_length_b                   9.3582(9)
_cell_length_c                   13.2847(13)
_cell_angle_alpha                106.560(2)
_cell_angle_beta                 97.898(2)
_cell_angle_gamma                96.721(2)
_cell_volume                     890.353
_exptl_crystal_colour            colorless
_exptl_crystal_description       prismatic
_cell_formula_units_Z            2
loop_
_atom_site_label
_atom_site_type_symbol
_atom_site_fract_x
_atom_site_fract_y
_atom_site_fract_z
Br1 Br 0.56748(5) 0.27956(3) 0.28098(3)
Cl1 Cl -0.27007(12) 0.48305(9) 0.10684(7)
S1 S 0.16422(8) 0.82761(7) 0.47747(5)
N1 N 0.1011(3) 0.8911(2) 0.38030(16)
O1 O 0.2485(2) 0.7735(2) 0.18074(16)
O2 O 0.0057(3) 0.7660(2) 0.50622(15)
O3 O 0.2920(3) 0.9456(2) 0.55374(14)
C1 C -0.1891(3) 0.6197(3) 0.0531(2)
C2 C -0.2031(5) 0.6103(4) -0.0615(2)
H1 H -0.3238 0.6034 -0.0985
H2 H -0.1400 0.5362 -0.1020
C3 C -0.0952(5) 0.7732(4) -0.0158(2)
H3 H 0.0237 0.7832 -0.0335
H4 H -0.1595 0.8503 -0.0309
C4 C -0.0991(3) 0.7577(3) 0.0947(2)
C5 C -0.0241(3) 0.8677(3) 0.20226(19)
C6 C -0.0465(3) 0.8004(3) 0.2937(2)
H5 H -0.1618 0.8112 0.3151
H6 H -0.0350 0.6943 0.2732
C7 C 0.2351(3) 0.9757(3) 0.3390(2)
H7 H 0.3551 0.9602 0.3629
H8 H 0.2301 1.0830 0.3619
C8 C 0.1804(3) 0.9089(3) 0.2188(2)
H9 H 0.2159 0.9822 0.1823
C9 C -0.1065(4) 1.0122(3) 0.2165(2)
H10 H -0.0796 1.0573 0.1627
H11 H -0.0575 1.0820 0.2858
H12 H -0.2339 0.9879 0.2097
C10 C 0.4304(4) 0.7973(5) 0.1693(3)
H13 H 0.4417 0.8479 0.1164
H14 H 0.4708 0.7017 0.1474
H15 H 0.5019 0.8585 0.2363
C11 C 0.2776(3) 0.6759(3) 0.42728(19)
C12 C 0.4600(4) 0.7030(3) 0.4276(2)
H16 H 0.5236 0.8007 0.4568
C13 C 0.5471(4) 0.5851(3) 0.3847(2)
H17 H 0.6697 0.6019 0.3855
C14 C 0.4486(4) 0.4415(3) 0.3406(2)
C15 C 0.2690(4) 0.4133(3) 0.3401(2)
H18 H 0.2057 0.3155 0.3102
C16 C 0.1823(4) 0.5305(3) 0.3843(2)
H19 H 0.0604 0.5122 0.3852
loop_
_geom_bond_atom_site_label_1
_geom_bond_atom_site_label_2
_geom_bond_site_symmetry_1
_geom_bond_site_symmetry_2
Br1 C14 1_555 1_555
Cl1 C1 1_555 1_555
S1 N1 1_555 1_555
N1 C6 1_555 1_555
O1 C8 1_555 1_555
O2 S1 1_555 1_555
O3 S1 1_555 1_555
C1 C2 1_555 1_555
C2 H1 1_555 1_555
H2 C2 1_555 1_555
C3 C2 1_555 1_555
H3 C3 1_555 1_555
H4 C3 1_555 1_555
C4 C1 1_555 1_555
C5 C4 1_555 1_555
C6 C5 1_555 1_555
H5 C6 1_555 1_555
H6 C6 1_555 1_555
C7 N1 1_555 1_555
H7 C7 1_555 1_555
H8 C7 1_555 1_555
C8 C5 1_555 1_555
H9 C8 1_555 1_555
C9 C5 1_555 1_555
H10 C9 1_555 1_555
H11 C9 1_555 1_555
H12 C9 1_555 1_555
C10 O1 1_555 1_555
H13 C10 1_555 1_555
H14 C10 1_555 1_555
H15 C10 1_555 1_555
C11 S1 1_555 1_555
C12 C11 1_555 1_555
H16 C12 1_555 1_555
C13 C12 1_555 1_555
H17 C13 1_555 1_555
C14 C13 1_555 1_555
C15 C14 1_555 1_555
H18 C15 1_555 1_555
C16 C11 1_555 1_555
H19 C16 1_555 1_555
C3 C4 1_555 1_555
C7 C8 1_555 1_555
C15 C16 1_555 1_555

#END
