
#######################################################################
#
#                 Cambridge Crystallographic Data Centre
#                                CCDC 
#
#######################################################################
#
# If this CIF has been generated from an entry in the Cambridge 
# Structural Database, then it will include bibliographic, chemical, 
# crystal, experimental, refinement or atomic coordinate data resulting 
# from the CCDC's data processing and validation procedures.
#
#######################################################################

data_SAFBOT
_chemical_name_common            '(+)-microcladallene A'
_chemical_formula_moiety         'C15 H20 Br2 O2'
_chemical_name_systematic        
(+)-3-bromo-6-(3-bromopropadienyl)-2-ethyl-2,3,4,4a,6,7,10,10a-octahydropyrano[3,2-b]oxocine
_symmetry_cell_setting           monoclinic
_symmetry_space_group_name_H-M   'C 2'
_symmetry_Int_Tables_number      5
_space_group_name_Hall           'C 2y'
loop_
_symmetry_equiv_pos_site_id
_symmetry_equiv_pos_as_xyz
1 x,y,z
2 -x,y,-z
3 1/2+x,1/2+y,z
4 1/2-x,1/2+y,-z
_cell_length_a                   21.014(4)
_cell_length_b                   5.5872(11)
_cell_length_c                   13.813(3)
_cell_angle_alpha                90
_cell_angle_beta                 102.19(3)
_cell_angle_gamma                90
_cell_volume                     1585.21
_cell_formula_units_Z            4
loop_
_atom_site_label
_atom_site_type_symbol
_atom_site_fract_x
_atom_site_fract_y
_atom_site_fract_z
Br1 Br 0.47224(4) 1.09337(19) 0.32359(6)
C1 C 0.1283(4) 0.7066(17) 0.1914(7)
H1 H 0.0918 0.7643 0.2120
O1 O 0.2774(2) 0.6098(12) 0.2776(3)
C2 C 0.3393(3) 0.9769(14) 0.3070(6)
H2 H 0.3346 1.1494 0.3024
H3 H 0.3483 0.9331 0.3765
C3 C 0.1476(4) 0.8240(17) 0.1188(6)
H4 H 0.1219 0.9502 0.0889
C4 C 0.2760(4) 0.8573(14) 0.2535(5)
H5 H 0.2396 0.9320 0.2762
C5 C 0.1603(4) 0.4921(15) 0.2415(7)
H6 H 0.1692 0.3843 0.1910
H7 H 0.1293 0.4124 0.2737
C6 C 0.2248(4) 0.5255(13) 0.3201(6)
H8 H 0.2375 0.3645 0.3451
O2 O 0.3224(3) 0.8140(10) 0.1078(4)
C7 C 0.4587(4) 0.616(3) 0.1184(6)
H9 H 0.4752 0.5996 0.1884
H10 H 0.4932 0.5853 0.0841
H11 H 0.4242 0.5025 0.0972
C8 C 0.3951(4) 0.8985(16) 0.2608(6)
H12 H 0.404(4) 0.728(14) 0.274(5)
C9 C 0.2666(4) 0.8967(15) 0.1421(6)
H13 H 0.2614 1.0686 0.1285
C10 C 0.3807(4) 0.9449(14) 0.1499(5)
H14 H 0.3726 1.1163 0.1380
C11 C 0.2199(4) 0.6717(13) 0.4100(5)
H15 H 0.2593 0.7142 0.4510
C12 C 0.2080(4) 0.7662(17) 0.0820(6)
H16 H 0.2020 0.8122 0.0129
H17 H 0.2157 0.5950 0.0865
C13 C 0.4333(4) 0.8640(17) 0.0958(6)
H18 H 0.4159 0.8756 0.0251
H19 H 0.4696 0.9746 0.1119
C14 C 0.1675(4) 0.7466(15) 0.4379(6)
Br2 Br 0.07811(4) 1.11845(17) 0.42973(6)
C15 C 0.1157(4) 0.8203(15) 0.4656(6)
H20 H 0.0964 0.7203 0.5050
loop_
_geom_bond_atom_site_label_1
_geom_bond_atom_site_label_2
_geom_bond_site_symmetry_1
_geom_bond_site_symmetry_2
Br1 C8 1_555 1_555
C1 H1 1_555 1_555
O1 C4 1_555 1_555
C2 H2 1_555 1_555
H3 C2 1_555 1_555
C3 C1 1_555 1_555
H4 C3 1_555 1_555
C4 C2 1_555 1_555
H5 C4 1_555 1_555
C5 C1 1_555 1_555
H6 C5 1_555 1_555
H7 C5 1_555 1_555
C6 O1 1_555 1_555
H8 C6 1_555 1_555
O2 C9 1_555 1_555
C7 H9 1_555 1_555
H10 C7 1_555 1_555
H11 C7 1_555 1_555
C8 C2 1_555 1_555
H12 C8 1_555 1_555
C9 C4 1_555 1_555
H13 C9 1_555 1_555
C10 O2 1_555 1_555
H14 C10 1_555 1_555
C11 C6 1_555 1_555
H15 C11 1_555 1_555
C12 C3 1_555 1_555
H16 C12 1_555 1_555
H17 C12 1_555 1_555
C13 C7 1_555 1_555
H18 C13 1_555 1_555
H19 C13 1_555 1_555
C14 C11 1_555 1_555
Br2 C15 1_555 1_555
C15 C14 1_555 1_555
H20 C15 1_555 1_555
C5 C6 1_555 1_555
C8 C10 1_555 1_555
C9 C12 1_555 1_555
C10 C13 1_555 1_555

#END
