
#######################################################################
#
#                 Cambridge Crystallographic Data Centre
#                                CCDC 
#
#######################################################################
#
# If this CIF has been generated from an entry in the Cambridge 
# Structural Database, then it will include bibliographic, chemical, 
# crystal, experimental, refinement or atomic coordinate data resulting 
# from the CCDC's data processing and validation procedures.
#
#######################################################################

data_SAFBUZ
_chemical_name_common            '(+)-epi-microcladallene A'
_chemical_formula_moiety         'C15 H20 Br2 O2'
_chemical_name_systematic        
(+)-epi-3-bromo-6-(3-bromopropadienyl)-2-ethyl-2,3,4,4a,6,7,10,10a-octahydropyrano[3,2-b]oxocine
_symmetry_cell_setting           orthorhombic
_symmetry_space_group_name_H-M   'P 21 21 21'
_symmetry_Int_Tables_number      19
_space_group_name_Hall           'P 2ac 2ab'
loop_
_symmetry_equiv_pos_site_id
_symmetry_equiv_pos_as_xyz
1 x,y,z
2 1/2-x,-y,1/2+z
3 -x,1/2+y,1/2-z
4 1/2+x,1/2-y,-z
_cell_length_a                   7.7667(2)
_cell_length_b                   17.1265(3)
_cell_length_c                   23.8290(5)
_cell_angle_alpha                90
_cell_angle_beta                 90
_cell_angle_gamma                90
_cell_volume                     3169.65
_exptl_crystal_colour            silver
_exptl_crystal_description       block
_cell_formula_units_Z            8
loop_
_atom_site_label
_atom_site_type_symbol
_atom_site_fract_x
_atom_site_fract_y
_atom_site_fract_z
Br1 Br 1.00520(4) 0.953894(15) -0.173284(12)
Br2 Br 0.74473(3) 0.472774(15) 0.039573(11)
O1 O 0.5699(2) 0.72692(9) -0.03122(7)
O2 O 0.3419(2) 0.58520(10) -0.04068(7)
C1 C 0.9145(3) 0.85067(15) -0.17202(13)
H1 H 0.9102 0.8207 -0.2055
C2 C 0.8583(3) 0.82132(15) -0.12498(12)
C3 C 0.8058(4) 0.79489(15) -0.07646(12)
H2 H 0.8887 0.7698 -0.0533
C4 C 0.6255(4) 0.80082(15) -0.05419(11)
H3 H 0.6320 0.8375 -0.0216
C5 C 0.4952(4) 0.83703(15) -0.09486(11)
H4 H 0.3825 0.8403 -0.0755
H5 H 0.5323 0.8911 -0.1032
C6 C 0.4692(3) 0.79493(15) -0.14976(11)
H6 H 0.5207 0.8167 -0.1823
C7 C 0.3790(3) 0.72937(16) -0.15579(12)
H7 H 0.3635 0.7099 -0.1928
C8 C 0.3008(3) 0.68434(15) -0.10896(11)
H8 H 0.1965 0.6571 -0.1226
H9 H 0.2657 0.7207 -0.0787
C9 C 0.4277(3) 0.62480(15) -0.08562(11)
H10 H 0.4524 0.5858 -0.1158
C10 C 0.5966(3) 0.66010(14) -0.06715(11)
H11 H 0.6612 0.6774 -0.1012
C11 C 0.7058(3) 0.59960(14) -0.03588(10)
H12 H 0.7529 0.5616 -0.0631
H13 H 0.8039 0.6262 -0.0175
C12 C 0.6012(3) 0.55636(14) 0.00812(11)
H14 H 0.5674 0.5934 0.0387
C13 C 0.4398(3) 0.52150(14) -0.01841(11)
H15 H 0.4750 0.4866 -0.0500
C14 C 0.3220(3) 0.47643(15) 0.02060(10)
H16 H 0.2681 0.5128 0.0477
H17 H 0.3901 0.4377 0.0420
C15 C 0.1824(3) 0.43459(15) -0.01282(11)
H18 H 0.1070 0.4059 0.0129
H19 H 0.2359 0.3979 -0.0391
H20 H 0.1144 0.4730 -0.0338
Br3 Br -0.70846(3) 0.463023(15) -0.188863(13)
Br4 Br 0.20015(4) 0.082314(15) -0.304924(12)
O3 O 0.0042(2) 0.30106(9) -0.19270(7)
O4 O 0.2366(2) 0.18521(9) -0.14754(7)
C16 C -0.5990(3) 0.36338(14) -0.18289(12)
H21 H -0.6612 0.3204 -0.1680
C17 C -0.4417(3) 0.35383(15) -0.19888(12)
C18 C -0.2841(3) 0.34475(13) -0.21610(11)
H22 H -0.2690 0.3263 -0.2534
C19 C -0.1231(3) 0.36060(14) -0.18265(11)
H23 H -0.0736 0.4095 -0.1990
C20 C -0.1531(3) 0.37889(15) -0.12051(11)
H24 H -0.0417 0.3953 -0.1042
H25 H -0.2316 0.4244 -0.1184
C21 C -0.2258(4) 0.31590(14) -0.08375(10)
H26 H -0.3436 0.3198 -0.0734
C22 C -0.1380(4) 0.25526(16) -0.06457(12)
H27 H -0.1946 0.2203 -0.0397
C23 C 0.0468(3) 0.23848(15) -0.07992(11)
H28 H 0.1037 0.2109 -0.0485
H29 H 0.1085 0.2883 -0.0861
C24 C 0.0580(3) 0.18867(14) -0.13270(11)
H30 H 0.0162 0.1348 -0.1240
C25 C -0.0458(3) 0.22143(13) -0.18171(11)
H31 H -0.1711 0.2199 -0.1721
C26 C -0.0139(3) 0.17139(14) -0.23399(10)
H32 H -0.0696 0.1199 -0.2291
H33 H -0.0665 0.1970 -0.2670
C27 C 0.1770(3) 0.15998(14) -0.24428(10)
H34 H 0.2285 0.2106 -0.2569
C28 C 0.2716(3) 0.13153(13) -0.19255(11)
H35 H 0.2271 0.0787 -0.1821
C29 C 0.4666(3) 0.12758(14) -0.19851(12)
H36 H 0.4952 0.0951 -0.2316
H37 H 0.5111 0.1808 -0.2055
C30 C 0.5564(3) 0.09428(17) -0.14775(12)
H38 H 0.6810 0.0937 -0.1543
H39 H 0.5158 0.0409 -0.1411
H40 H 0.5308 0.1266 -0.1149
loop_
_geom_bond_atom_site_label_1
_geom_bond_atom_site_label_2
_geom_bond_site_symmetry_1
_geom_bond_site_symmetry_2
Br1 C1 1_555 1_555
Br2 C12 1_555 1_555
O1 C4 1_555 1_555
O2 C9 1_555 1_555
C1 H1 1_555 1_555
C2 C1 1_555 1_555
C3 C2 1_555 1_555
H2 C3 1_555 1_555
C4 C3 1_555 1_555
H3 C4 1_555 1_555
C5 C4 1_555 1_555
H4 C5 1_555 1_555
H5 C5 1_555 1_555
C6 C5 1_555 1_555
H6 C6 1_555 1_555
C7 C6 1_555 1_555
H7 C7 1_555 1_555
C8 C7 1_555 1_555
H8 C8 1_555 1_555
H9 C8 1_555 1_555
C9 C8 1_555 1_555
H10 C9 1_555 1_555
C10 O1 1_555 1_555
H11 C10 1_555 1_555
C11 C10 1_555 1_555
H12 C11 1_555 1_555
H13 C11 1_555 1_555
C12 C11 1_555 1_555
H14 C12 1_555 1_555
C13 O2 1_555 1_555
H15 C13 1_555 1_555
C14 C13 1_555 1_555
H16 C14 1_555 1_555
H17 C14 1_555 1_555
C15 C14 1_555 1_555
H18 C15 1_555 1_555
H19 C15 1_555 1_555
H20 C15 1_555 1_555
Br3 C16 1_555 1_555
Br4 C27 1_555 1_555
O3 C19 1_555 1_555
O4 C24 1_555 1_555
C16 H21 1_555 1_555
C17 C16 1_555 1_555
C18 C17 1_555 1_555
H22 C18 1_555 1_555
C19 C18 1_555 1_555
H23 C19 1_555 1_555
C20 C19 1_555 1_555
H24 C20 1_555 1_555
H25 C20 1_555 1_555
C21 C20 1_555 1_555
H26 C21 1_555 1_555
C22 C21 1_555 1_555
H27 C22 1_555 1_555
C23 C22 1_555 1_555
H28 C23 1_555 1_555
H29 C23 1_555 1_555
C24 C23 1_555 1_555
H30 C24 1_555 1_555
C25 O3 1_555 1_555
H31 C25 1_555 1_555
C26 C25 1_555 1_555
H32 C26 1_555 1_555
H33 C26 1_555 1_555
C27 C26 1_555 1_555
H34 C27 1_555 1_555
C28 O4 1_555 1_555
H35 C28 1_555 1_555
C29 C28 1_555 1_555
H36 C29 1_555 1_555
H37 C29 1_555 1_555
C30 C29 1_555 1_555
H38 C30 1_555 1_555
H39 C30 1_555 1_555
H40 C30 1_555 1_555
C9 C10 1_555 1_555
C12 C13 1_555 1_555
C24 C25 1_555 1_555
C27 C28 1_555 1_555

#END
