
#######################################################################
#
#                 Cambridge Crystallographic Data Centre
#                                CCDC 
#
#######################################################################
#
# If this CIF has been generated from an entry in the Cambridge 
# Structural Database, then it will include bibliographic, chemical, 
# crystal, experimental, refinement or atomic coordinate data resulting 
# from the CCDC's data processing and validation procedures.
#
#######################################################################

data_SAFCAG
_chemical_formula_moiety         'C15 H24 Br1 N1 O4'
_chemical_name_systematic        
3-bromo-2-(2-hydroxyethyl)-N,N-dimethyl-2,3,4,4a,6,7,10,10a-octahydropyrano[3,2-b]oxocine-6-carboxamide
_symmetry_cell_setting           orthorhombic
_symmetry_space_group_name_H-M   'P 21 21 21'
_symmetry_Int_Tables_number      19
_space_group_name_Hall           'P 2ac 2ab'
loop_
_symmetry_equiv_pos_site_id
_symmetry_equiv_pos_as_xyz
1 x,y,z
2 1/2-x,-y,1/2+z
3 -x,1/2+y,1/2-z
4 1/2+x,1/2-y,-z
_cell_length_a                   9.68640(10)
_cell_length_b                   11.3419(2)
_cell_length_c                   15.1004(2)
_cell_angle_alpha                90
_cell_angle_beta                 90
_cell_angle_gamma                90
_cell_volume                     1658.96
_exptl_crystal_colour            silver
_exptl_crystal_description       block
_cell_formula_units_Z            4
loop_
_atom_site_label
_atom_site_type_symbol
_atom_site_fract_x
_atom_site_fract_y
_atom_site_fract_z
O1 O -0.25814(12) 0.28779(12) 0.11046(8)
C1 C -0.28535(18) 0.16421(17) 0.11764(12)
H1 H -0.3497 0.1462 0.0694
C2 C -0.3608(2) 0.12864(18) 0.20261(12)
H2 H -0.4470 0.1720 0.2048
H3 H -0.3840 0.0457 0.1980
C3 C -0.2875(2) 0.1470(2) 0.28927(13)
H4 H -0.2497 0.0811 0.3167
C4 C -0.2729(2) 0.25037(17) 0.32954(15)
H5 H -0.2347 0.2511 0.3861
C5 C -0.3144(2) 0.36645(18) 0.28898(12)
H6 H -0.3380 0.4217 0.3356
H7 H -0.3955 0.3551 0.2523
C6 C -0.1983(2) 0.41726(16) 0.23306(11)
H8 H -0.1220 0.4404 0.2719
O2 O -0.25527(13) 0.52103(11) 0.19222(8)
C7 C -0.15567(18) 0.58910(17) 0.14471(11)
H9 H -0.0785 0.6093 0.1838
C8 C -0.10451(18) 0.51206(16) 0.06883(11)
H10 H -0.1823 0.4946 0.0294
C9 C -0.04467(18) 0.39749(16) 0.10200(11)
H11 H 0.0401 0.4135 0.1340
H12 H -0.0222 0.3476 0.0518
C10 C -0.14426(18) 0.33247(17) 0.16251(12)
H13 H -0.0963 0.2666 0.1912
C11 C -0.15769(18) 0.08945(17) 0.09925(13)
O3 O -0.11004(14) 0.02398(12) 0.15696(9)
N1 N -0.09990(16) 0.09497(15) 0.01831(10)
C12 C -0.1543(2) 0.16228(19) -0.05657(14)
H14 H -0.2298 0.2104 -0.0370
H15 H -0.1859 0.1089 -0.1016
H16 H -0.0828 0.2117 -0.0803
C13 C 0.01639(19) 0.0182(2) -0.00185(16)
H17 H 0.0447 -0.0223 0.0510
H18 H 0.0918 0.0646 -0.0239
H19 H -0.0106 -0.0384 -0.0459
C14 C -0.23077(18) 0.70059(17) 0.11666(12)
H20 H -0.1684 0.7497 0.0825
H21 H -0.3078 0.6795 0.0788
C15 C -0.28398(18) 0.77035(18) 0.19517(14)
H22 H -0.3436 0.8330 0.1740
H23 H -0.3387 0.7189 0.2326
O4 O -0.17535(15) 0.82024(12) 0.24623(9)
H24 H -0.1502 0.8822 0.2234
Br1 Br 0.038674(17) 0.596235(16) 0.000877(11)
loop_
_geom_bond_atom_site_label_1
_geom_bond_atom_site_label_2
_geom_bond_site_symmetry_1
_geom_bond_site_symmetry_2
O1 C1 1_555 1_555
C1 H1 1_555 1_555
C2 C1 1_555 1_555
H2 C2 1_555 1_555
H3 C2 1_555 1_555
C3 C2 1_555 1_555
H4 C3 1_555 1_555
C4 C3 1_555 1_555
H5 C4 1_555 1_555
C5 C4 1_555 1_555
H6 C5 1_555 1_555
H7 C5 1_555 1_555
C6 C5 1_555 1_555
H8 C6 1_555 1_555
O2 C6 1_555 1_555
C7 O2 1_555 1_555
H9 C7 1_555 1_555
C8 C7 1_555 1_555
H10 C8 1_555 1_555
C9 C8 1_555 1_555
H11 C9 1_555 1_555
H12 C9 1_555 1_555
C10 O1 1_555 1_555
H13 C10 1_555 1_555
C11 C1 1_555 1_555
O3 C11 1_555 1_555
N1 C11 1_555 1_555
C12 N1 1_555 1_555
H14 C12 1_555 1_555
H15 C12 1_555 1_555
H16 C12 1_555 1_555
C13 N1 1_555 1_555
H17 C13 1_555 1_555
H18 C13 1_555 1_555
H19 C13 1_555 1_555
C14 C7 1_555 1_555
H20 C14 1_555 1_555
H21 C14 1_555 1_555
C15 C14 1_555 1_555
H22 C15 1_555 1_555
H23 C15 1_555 1_555
O4 C15 1_555 1_555
H24 O4 1_555 1_555
Br1 C8 1_555 1_555
C6 C10 1_555 1_555
C9 C10 1_555 1_555

#END
