
#######################################################################
#
#                 Cambridge Crystallographic Data Centre
#                                CCDC 
#
#######################################################################
#
# If this CIF has been generated from an entry in the Cambridge 
# Structural Database, then it will include bibliographic, chemical, 
# crystal, experimental, refinement or atomic coordinate data resulting 
# from the CCDC's data processing and validation procedures.
#
#######################################################################

data_SAFCIO
_chemical_formula_moiety         'C15 H22 Br1 N1 O3'
_chemical_name_systematic        
3-Bromo-N,N-dimethyl-2-vinyl-2,3,4,4a,6,7,10,10a-octahydropyrano[3,2-b]oxocine-6-carboxamide
_symmetry_cell_setting           triclinic
_symmetry_space_group_name_H-M   'P -1'
_symmetry_Int_Tables_number      2
_space_group_name_Hall           '-P 1'
loop_
_symmetry_equiv_pos_site_id
_symmetry_equiv_pos_as_xyz
1 x,y,z
2 -x,-y,-z
_cell_length_a                   8.9253(5)
_cell_length_b                   9.7045(6)
_cell_length_c                   10.2929(9)
_cell_angle_alpha                85.350(4)
_cell_angle_beta                 66.853(3)
_cell_angle_gamma                71.904(2)
_cell_volume                     778.351
_exptl_crystal_colour            colorless
_exptl_crystal_description       chunk
_cell_formula_units_Z            2
loop_
_atom_site_label
_atom_site_type_symbol
_atom_site_fract_x
_atom_site_fract_y
_atom_site_fract_z
Br1 Br -0.04608(6) 0.43352(6) 0.79456(6)
O1 O 0.5195(3) 0.1620(3) 0.5072(3)
O2 O 0.7395(4) 0.2953(4) 0.2065(4)
O3 O 0.4310(4) 0.2174(3) 0.8020(3)
N1 N 0.5019(5) 0.2509(4) 0.2211(4)
C1 C 0.6337(5) 0.2298(5) 0.2600(4)
C2 C 0.4899(5) 0.3026(4) 0.5652(5)
C3 C 0.2521(6) 0.2964(5) 0.8539(5)
C4 C 0.8480(5) 0.2345(6) 0.5345(6)
C5 C 0.8927(5) 0.1836(5) 0.4066(6)
C6 C 0.8317(5) 0.0690(5) 0.3709(5)
C7 C 0.1952(5) 0.3151(5) 0.7306(5)
C8 C 0.2998(5) 0.3859(5) 0.6097(5)
C9 C 0.6521(5) 0.1168(4) 0.3697(4)
C10 C 0.5365(5) 0.2860(5) 0.6930(5)
C11 C 0.7197(5) 0.1935(6) 0.6644(5)
C12 C 0.1597(7) 0.2114(7) 0.9692(5)
C13 C 0.3682(6) 0.1820(6) 0.2816(6)
C14 C 0.2293(9) 0.0820(8) 1.0015(6)
C15 C 0.4938(7) 0.3464(6) 0.1049(6)
H1 H 0.4012 0.0925 0.2295
H2 H 0.2639 0.2453 0.2768
H3 H 0.3508 0.1627 0.3786
H4 H 0.4316 0.4443 0.1421
H5 H 0.4369 0.3158 0.0558
H6 H 0.6077 0.3419 0.0404
H7 H 0.8366 -0.0065 0.4383
H8 H 0.9120 0.0257 0.2783
H9 H 0.2792 0.4853 0.6376
H10 H 0.2665 0.3874 0.5304
H11 H 0.7461 0.2036 0.7454
H12 H 0.7293 0.0924 0.6536
H13 H 0.5586 0.3554 0.4936
H14 H 0.2335 0.3919 0.8929
H15 H 0.2063 0.2192 0.6974
H16 H 0.6367 0.0307 0.3396
H17 H 0.5191 0.3826 0.7289
H18 H 0.9675 0.2208 0.3323
H19 H 0.8991 0.3004 0.5457
H20 H 0.0438 0.2549 1.0212
H21 H 0.3449 0.0349 0.9518
H22 H 0.1636 0.0363 1.0744
loop_
_geom_bond_atom_site_label_1
_geom_bond_atom_site_label_2
_geom_bond_site_symmetry_1
_geom_bond_site_symmetry_2
Br1 C7 1_555 1_555
O1 C2 1_555 1_555
O2 C1 1_555 1_555
O3 C3 1_555 1_555
N1 C1 1_555 1_555
C1 C9 1_555 1_555
C2 C8 1_555 1_555
C3 C7 1_555 1_555
C4 C5 1_555 1_555
C5 C6 1_555 1_555
C6 C9 1_555 1_555
C7 C8 1_555 1_555
C8 H9 1_555 1_555
C9 O1 1_555 1_555
C10 O3 1_555 1_555
C11 C4 1_555 1_555
C12 C3 1_555 1_555
C13 N1 1_555 1_555
C14 C12 1_555 1_555
C15 N1 1_555 1_555
H1 C13 1_555 1_555
H2 C13 1_555 1_555
H3 C13 1_555 1_555
H4 C15 1_555 1_555
H5 C15 1_555 1_555
H6 C15 1_555 1_555
H7 C6 1_555 1_555
H8 C6 1_555 1_555
H10 C8 1_555 1_555
H11 C11 1_555 1_555
H12 C11 1_555 1_555
H13 C2 1_555 1_555
H14 C3 1_555 1_555
H15 C7 1_555 1_555
H16 C9 1_555 1_555
H17 C10 1_555 1_555
H18 C5 1_555 1_555
H19 C4 1_555 1_555
H20 C12 1_555 1_555
H21 C14 1_555 1_555
H22 C14 1_555 1_555
C2 C10 1_555 1_555
C10 C11 1_555 1_555

#END
