
#######################################################################
#
#                 Cambridge Crystallographic Data Centre
#                                CCDC 
#
#######################################################################
#
# If this CIF has been generated from an entry in the Cambridge 
# Structural Database, then it will include bibliographic, chemical, 
# crystal, experimental, refinement or atomic coordinate data resulting 
# from the CCDC's data processing and validation procedures.
#
#######################################################################

data_SAFDEL
_chemical_formula_moiety         'C15 H24 Br1 Cl2 N1 O3'
_chemical_name_systematic        
(R,S)-4-(6-Bromo-5-ethylhexahydro-2H-furo[3,2-b]pyran-2-yl)-2,4-dichloro-N,N-dimethylbutanamide
_symmetry_cell_setting           orthorhombic
_symmetry_space_group_name_H-M   'P 21 21 21'
_symmetry_Int_Tables_number      19
_space_group_name_Hall           'P 2ac 2ab'
loop_
_symmetry_equiv_pos_site_id
_symmetry_equiv_pos_as_xyz
1 x,y,z
2 1/2-x,-y,1/2+z
3 -x,1/2+y,1/2-z
4 1/2+x,1/2-y,-z
_cell_length_a                   5.3470(1)
_cell_length_b                   11.2587(3)
_cell_length_c                   30.5939(8)
_cell_angle_alpha                90
_cell_angle_beta                 90
_cell_angle_gamma                90
_cell_volume                     1841.76
_exptl_crystal_colour            silver
_exptl_crystal_description       plate
_cell_formula_units_Z            4
loop_
_atom_site_label
_atom_site_type_symbol
_atom_site_fract_x
_atom_site_fract_y
_atom_site_fract_z
Br1 Br 0.03779(6) 0.18975(4) 0.214674(10)
Cl1 Cl 0.13547(15) 0.58599(11) -0.08005(3)
Cl2 Cl -0.27760(13) 0.34362(9) -0.02363(2)
O1 O -0.3229(4) 0.7955(3) -0.05974(7)
O2 O -0.0537(4) 0.3611(2) 0.07099(6)
O3 O -0.3831(4) 0.4315(3) 0.14270(6)
N1 N -0.3536(5) 0.7135(3) -0.12669(8)
C1 C -0.3289(9) 0.6153(4) -0.15703(11)
H1 H -0.2510 0.5477 -0.1421
H2 H -0.2241 0.6396 -0.1818
H3 H -0.4947 0.5922 -0.1677
C2 C -0.4668(8) 0.8230(4) -0.14318(11)
H4 H -0.4722 0.8823 -0.1197
H5 H -0.6371 0.8065 -0.1533
H6 H -0.3667 0.8537 -0.1675
C3 C -0.2946(5) 0.7096(4) -0.08396(10)
C4 C -0.1942(6) 0.5935(4) -0.06562(10)
H7 H -0.2843 0.5258 -0.0797
C5 C -0.2237(6) 0.5844(3) -0.01626(9)
H8 H -0.1316 0.6509 -0.0025
H9 H -0.4029 0.5941 -0.0089
C6 C -0.1317(6) 0.4691(3) 0.00334(9)
H10 H 0.0528 0.4639 -0.0017
C7 C -0.1780(5) 0.4639(4) 0.05278(9)
H11 H -0.1039 0.5367 0.0663
C8 C -0.4529(6) 0.4553(4) 0.06689(9)
H12 H -0.5161 0.5334 0.0769
H13 H -0.5591 0.4268 0.0426
C9 C -0.4487(6) 0.3662(3) 0.10415(9)
H14 H -0.6116 0.3235 0.1074
C10 C -0.2378(5) 0.2838(4) 0.09011(9)
H15 H -0.3013 0.2278 0.0673
C11 C -0.1223(5) 0.2135(4) 0.12698(9)
H16 H 0.0384 0.1789 0.1172
H17 H -0.2351 0.1474 0.1352
C12 C -0.0774(5) 0.2925(4) 0.16642(9)
H18 H 0.0557 0.3518 0.1593
C13 C -0.3170(6) 0.3575(4) 0.17905(10)
H19 H -0.4533 0.2985 0.1846
C14 C -0.2910(6) 0.4391(4) 0.21819(10)
H20 H -0.1664 0.5015 0.2114
H21 H -0.2272 0.3927 0.2433
C15 C -0.5361(7) 0.4980(5) 0.23112(12)
H22 H -0.5078 0.5503 0.2562
H23 H -0.6586 0.4369 0.2389
H24 H -0.5996 0.5448 0.2065
loop_
_geom_bond_atom_site_label_1
_geom_bond_atom_site_label_2
_geom_bond_site_symmetry_1
_geom_bond_site_symmetry_2
Br1 C12 1_555 1_555
Cl1 C4 1_555 1_555
Cl2 C6 1_555 1_555
O1 C3 1_555 1_555
O2 C7 1_555 1_555
O3 C9 1_555 1_555
N1 C1 1_555 1_555
C1 H1 1_555 1_555
H2 C1 1_555 1_555
H3 C1 1_555 1_555
C2 N1 1_555 1_555
H4 C2 1_555 1_555
H5 C2 1_555 1_555
H6 C2 1_555 1_555
C3 N1 1_555 1_555
C4 C3 1_555 1_555
H7 C4 1_555 1_555
C5 C4 1_555 1_555
H8 C5 1_555 1_555
H9 C5 1_555 1_555
C6 C5 1_555 1_555
H10 C6 1_555 1_555
C7 C6 1_555 1_555
H11 C7 1_555 1_555
C8 C7 1_555 1_555
H12 C8 1_555 1_555
H13 C8 1_555 1_555
C9 C8 1_555 1_555
H14 C9 1_555 1_555
C10 O2 1_555 1_555
H15 C10 1_555 1_555
C11 C10 1_555 1_555
H16 C11 1_555 1_555
H17 C11 1_555 1_555
C12 C11 1_555 1_555
H18 C12 1_555 1_555
C13 O3 1_555 1_555
H19 C13 1_555 1_555
C14 C13 1_555 1_555
H20 C14 1_555 1_555
H21 C14 1_555 1_555
C15 C14 1_555 1_555
H22 C15 1_555 1_555
H23 C15 1_555 1_555
H24 C15 1_555 1_555
C9 C10 1_555 1_555
C12 C13 1_555 1_555

#END
