
#######################################################################
#
#                 Cambridge Crystallographic Data Centre
#                                CCDC 
#
#######################################################################
#
# If this CIF has been generated from an entry in the Cambridge 
# Structural Database, then it will include bibliographic, chemical, 
# crystal, experimental, refinement or atomic coordinate data resulting 
# from the CCDC's data processing and validation procedures.
#
#######################################################################

data_SAFFAJ
_chemical_formula_moiety         'C31 H44 Br2 Cl2 O4 Si1'
_chemical_name_systematic        
'1-(3-Bromo-8,9-dichloro-2-ethyldecahydropyrano[3,2-b]oxocin-6-yl)-3-(triisopropylsilyl)prop-2-yn-1-yl 4-bromobenzoate'
_symmetry_cell_setting           triclinic
_symmetry_space_group_name_H-M   'P -1'
_symmetry_Int_Tables_number      2
_space_group_name_Hall           '-P 1'
loop_
_symmetry_equiv_pos_site_id
_symmetry_equiv_pos_as_xyz
1 x,y,z
2 -x,-y,-z
_cell_length_a                   11.6757(2)
_cell_length_b                   12.2530(2)
_cell_length_c                   14.0712(3)
_cell_angle_alpha                108.006(1)
_cell_angle_beta                 92.987(1)
_cell_angle_gamma                115.863(1)
_cell_volume                     1681.1
_exptl_crystal_colour            silver
_exptl_crystal_description       block
_cell_formula_units_Z            2
loop_
_atom_site_label
_atom_site_type_symbol
_atom_site_fract_x
_atom_site_fract_y
_atom_site_fract_z
Br1 Br 0.05688(2) 0.09711(2) -0.326861(16)
Br2 Br 0.61327(2) 0.53998(2) -0.253952(17)
Cl1 Cl 0.21285(5) -0.36124(5) -0.06823(4)
Cl2 Cl -0.10160(5) -0.58001(5) -0.17502(4)
Si1 Si 0.44632(5) 0.16820(5) 0.36319(4)
O1 O 0.16835(12) -0.11339(13) -0.13134(10)
O2 O 0.04712(13) -0.25159(13) -0.34311(10)
O3 O 0.31615(13) 0.13714(13) -0.00233(10)
O4 O 0.19155(13) 0.23722(13) 0.01552(11)
C1 C 0.34974(19) 0.11979(19) 0.23462(15)
C2 C 0.29507(19) 0.08679(19) 0.14818(15)
C3 C 0.23161(19) 0.04621(18) 0.04111(14)
H1 H 0.1464 0.0473 0.0387
C4 C 0.20912(19) -0.08996(19) -0.02702(14)
H2 H 0.2952 -0.0889 -0.0193
C5 C 0.11806(19) -0.19202(19) 0.01281(14)
H3 H 0.0390 -0.1814 0.0184
H4 H 0.1621 -0.1706 0.0831
C6 C 0.07326(19) -0.33650(19) -0.04769(15)
H5 H 0.0337 -0.3828 -0.0010
C7 C -0.0318(2) -0.40565(18) -0.14690(15)
H6 H -0.1021 -0.3811 -0.1326
C8 C 0.0071(2) -0.38137(19) -0.24378(15)
H7 H 0.1009 -0.3556 -0.2385
H8 H -0.0425 -0.4640 -0.3036
C9 C -0.01707(19) -0.27650(19) -0.26256(14)
H9 H -0.1128 -0.3118 -0.2866
C10 C 0.03467(18) -0.15174(18) -0.16893(14)
H10 H -0.0162 -0.1689 -0.1154
C11 C 0.02225(19) -0.04732(19) -0.19859(15)
H11 H -0.0711 -0.0728 -0.2182
H12 H 0.0640 0.0364 -0.1392
C12 C 0.08690(19) -0.03028(19) -0.28751(15)
H13 H 0.1828 0.0038 -0.2653
C13 C 0.02976(19) -0.16009(19) -0.37781(14)
H14 H -0.0656 -0.1925 -0.4011
C14 C 0.0940(2) -0.1570(2) -0.46850(15)
H15 H 0.1862 -0.1345 -0.4472
H16 H 0.0932 -0.0880 -0.4905
C15 C 0.0257(2) -0.2873(2) -0.55888(15)
H17 H 0.0707 -0.2807 -0.6154
H18 H -0.0650 -0.3090 -0.5814
H19 H 0.0276 -0.3557 -0.5379
C16 C 0.28232(19) 0.22482(19) -0.01413(14)
C17 C 0.36649(19) 0.30095(18) -0.07042(14)
C18 C 0.48048(19) 0.2975(2) -0.09049(16)
H20 H 0.5076 0.2461 -0.0668
C19 C 0.5547(2) 0.3687(2) -0.14484(16)
H21 H 0.6331 0.3673 -0.1581
C20 C 0.5127(2) 0.44168(19) -0.17940(15)
C21 C 0.3993(2) 0.4460(2) -0.16114(17)
H22 H 0.3716 0.4961 -0.1864
C22 C 0.3270(2) 0.3762(2) -0.10548(16)
H23 H 0.2497 0.3796 -0.0911
C23 C 0.47865(19) 0.02887(19) 0.35657(15)
H24 H 0.5305 0.0518 0.4251
C24 C 0.34318(19) 0.1881(2) 0.45940(15)
H25 H 0.2522 0.1154 0.4280
C25 C 0.59718(19) 0.3272(2) 0.38694(16)
H26 H 0.5693 0.3961 0.4052
C26 C 0.5583(2) 0.0047(2) 0.27709(17)
H27 H 0.5725 -0.0683 0.2774
H28 H 0.6426 0.0833 0.2941
H29 H 0.5106 -0.0164 0.2090
C27 C 0.3505(2) -0.0962(2) 0.33597(18)
H30 H 0.3693 -0.1676 0.3330
H31 H 0.2955 -0.1190 0.2706
H32 H 0.3047 -0.0821 0.3912
C28 C 0.3875(2) 0.1780(2) 0.56001(15)
H33 H 0.3307 0.1889 0.6068
H34 H 0.4777 0.2464 0.5919
H35 H 0.3824 0.0922 0.5453
C29 C 0.3382(2) 0.3169(2) 0.48316(16)
H36 H 0.2840 0.3237 0.5332
H37 H 0.3008 0.3188 0.4201
H38 H 0.4267 0.3904 0.5113
C30 C 0.7015(2) 0.3648(2) 0.47908(17)
H39 H 0.7774 0.4481 0.4883
H40 H 0.7281 0.2969 0.4670
H41 H 0.6657 0.3734 0.5408
C31 C 0.6561(2) 0.3341(2) 0.29331(18)
H42 H 0.7335 0.4193 0.3115
H43 H 0.5917 0.3225 0.2384
H44 H 0.6808 0.2650 0.2699
loop_
_geom_bond_atom_site_label_1
_geom_bond_atom_site_label_2
_geom_bond_site_symmetry_1
_geom_bond_site_symmetry_2
Br1 C12 1_555 1_555
Br2 C20 1_555 1_555
Cl1 C6 1_555 1_555
Cl2 C7 1_555 1_555
Si1 C1 1_555 1_555
O1 C4 1_555 1_555
O2 C9 1_555 1_555
O3 C3 1_555 1_555
O4 C16 1_555 1_555
C1 C2 1_555 1_555
C2 C3 1_555 1_555
C3 H1 1_555 1_555
C4 C3 1_555 1_555
H2 C4 1_555 1_555
C5 C4 1_555 1_555
H3 C5 1_555 1_555
H4 C5 1_555 1_555
C6 C5 1_555 1_555
H5 C6 1_555 1_555
C7 C6 1_555 1_555
H6 C7 1_555 1_555
C8 C7 1_555 1_555
H7 C8 1_555 1_555
H8 C8 1_555 1_555
C9 C8 1_555 1_555
H9 C9 1_555 1_555
C10 O1 1_555 1_555
H10 C10 1_555 1_555
C11 C10 1_555 1_555
H11 C11 1_555 1_555
H12 C11 1_555 1_555
C12 C11 1_555 1_555
H13 C12 1_555 1_555
C13 O2 1_555 1_555
H14 C13 1_555 1_555
C14 C13 1_555 1_555
H15 C14 1_555 1_555
H16 C14 1_555 1_555
C15 C14 1_555 1_555
H17 C15 1_555 1_555
H18 C15 1_555 1_555
H19 C15 1_555 1_555
C16 O3 1_555 1_555
C17 C16 1_555 1_555
C18 C17 1_555 1_555
H20 C18 1_555 1_555
C19 C18 1_555 1_555
H21 C19 1_555 1_555
C20 C19 1_555 1_555
C21 C20 1_555 1_555
H22 C21 1_555 1_555
C22 C17 1_555 1_555
H23 C22 1_555 1_555
C23 Si1 1_555 1_555
H24 C23 1_555 1_555
C24 Si1 1_555 1_555
H25 C24 1_555 1_555
C25 Si1 1_555 1_555
H26 C25 1_555 1_555
C26 C23 1_555 1_555
H27 C26 1_555 1_555
H28 C26 1_555 1_555
H29 C26 1_555 1_555
C27 C23 1_555 1_555
H30 C27 1_555 1_555
H31 C27 1_555 1_555
H32 C27 1_555 1_555
C28 C24 1_555 1_555
H33 C28 1_555 1_555
H34 C28 1_555 1_555
H35 C28 1_555 1_555
C29 C24 1_555 1_555
H36 C29 1_555 1_555
H37 C29 1_555 1_555
H38 C29 1_555 1_555
C30 C25 1_555 1_555
H39 C30 1_555 1_555
H40 C30 1_555 1_555
H41 C30 1_555 1_555
C31 C25 1_555 1_555
H42 C31 1_555 1_555
H43 C31 1_555 1_555
H44 C31 1_555 1_555
C9 C10 1_555 1_555
C12 C13 1_555 1_555
C21 C22 1_555 1_555

#END
