
#######################################################################
#
#                 Cambridge Crystallographic Data Centre
#                                CCDC 
#
#######################################################################
#
# If this CIF has been generated from an entry in the Cambridge 
# Structural Database, then it will include bibliographic, chemical, 
# crystal, experimental, refinement or atomic coordinate data resulting 
# from the CCDC's data processing and validation procedures.
#
#######################################################################

data_SAFJEO
_chemical_formula_moiety         'C28 H19 O16 S4 5-,5(Na1 1+),12(H2 O1)'
_chemical_name_systematic        
'Penta-sodium 25,26,27-trihydroxycalix(4)arene-28-oxide-5,11,17,23-tetrasulfonate dodecahydrate'
_symmetry_cell_setting           triclinic
_symmetry_space_group_name_H-M   'P -1'
_symmetry_Int_Tables_number      2
_space_group_name_Hall           '-P 1'
loop_
_symmetry_equiv_pos_site_id
_symmetry_equiv_pos_as_xyz
1 x,y,z
2 -x,-y,-z
_cell_length_a                   10.998(6)
_cell_length_b                   13.582(5)
_cell_length_c                   14.472(5)
_cell_angle_alpha                74.01(3)
_cell_angle_beta                 89.09(4)
_cell_angle_gamma                86.50(4)
_cell_volume                     2074.24
_exptl_crystal_colour            colorless
_cell_formula_units_Z            2
loop_
_atom_site_label
_atom_site_type_symbol
_atom_site_fract_x
_atom_site_fract_y
_atom_site_fract_z
S1 S 0.3871(1) 0.4671(1) 0.78667(9)
S2 S 0.9722(1) 0.3171(1) 0.76466(9)
S3 S 1.0847(1) 0.8013(1) 0.87652(9)
S4 S 0.4868(1) 1.0304(1) 0.82685(9)
O1 O 0.5929(3) 0.7464(3) 0.4415(2)
O2 O 0.8593(3) 0.6892(3) 0.4501(2)
O3 O 0.9067(3) 0.8570(3) 0.4852(2)
O4 O 0.6810(3) 0.8914(3) 0.4996(2)
O5 O 0.2816(4) 0.5244(3) 0.8099(3)
O6 O 0.4723(3) 0.4325(3) 0.8662(3)
O7 O 0.3596(3) 0.3798(3) 0.7534(3)
O8 O 0.9147(3) 0.3391(3) 0.8486(3)
O9 O 0.9158(3) 0.2351(3) 0.7376(3)
O10 O 1.1042(3) 0.2981(3) 0.7795(3)
O11 O 0.9677(3) 0.7867(3) 0.9273(3)
O12 O 1.1663(3) 0.7103(3) 0.9046(3)
O13 O 1.1369(3) 0.8934(3) 0.8853(3)
O14 O 0.4172(3) 1.1266(3) 0.7853(3)
O15 O 0.4117(3) 0.9505(3) 0.8833(3)
O16 O 0.5905(3) 1.0457(3) 0.8808(3)
C1 C 0.5548(4) 0.6831(4) 0.5264(3)
C2 C 0.4754(4) 0.7239(4) 0.5858(3)
C3 C 0.4284(4) 0.6568(4) 0.6671(3)
C4 C 0.4585(4) 0.5531(4) 0.6890(3)
C5 C 0.5410(4) 0.5148(4) 0.6321(3)
C6 C 0.5907(4) 0.5792(4) 0.5514(3)
C7 C 0.6875(4) 0.5350(4) 0.4945(3)
C8 C 0.8884(4) 0.6060(4) 0.5239(3)
C9 C 0.8093(4) 0.5254(4) 0.5451(3)
C10 C 0.8402(4) 0.4381(4) 0.6168(3)
C11 C 0.9467(4) 0.4281(4) 0.6693(3)
C12 C 1.0241(4) 0.5087(4) 0.6498(3)
C13 C 0.9966(4) 0.5975(4) 0.5778(3)
C14 C 1.0794(4) 0.6863(4) 0.5573(3)
C15 C 0.9579(4) 0.8471(4) 0.5711(3)
C16 C 1.0422(4) 0.7646(4) 0.6112(3)
C17 C 1.0847(4) 0.7524(4) 0.7036(3)
C18 C 1.0489(4) 0.8214(4) 0.7542(3)
C19 C 0.9706(4) 0.9055(4) 0.7124(3)
C20 C 0.9266(4) 0.9197(4) 0.6217(3)
C21 C 0.8338(4) 1.0081(4) 0.5806(3)
C22 C 0.6377(4) 0.9220(4) 0.5748(3)
C23 C 0.7070(4) 0.9801(4) 0.6184(3)
C24 C 0.6618(4) 1.0093(4) 0.6966(3)
C25 C 0.5450(4) 0.9856(4) 0.7305(3)
C26 C 0.4734(5) 0.9311(4) 0.6855(3)
C27 C 0.5181(4) 0.8976(4) 0.6089(3)
C28 C 0.4403(4) 0.8379(4) 0.5610(3)
Na1 Na 0.5279(2) 0.2518(2) 0.8385(2)
Na2 Na 0.7464(2) 0.0590(2) 0.9948(1)
Na3 Na 0.1572(2) 0.5311(2) 0.9497(2)
Na4 Na 0.3782(2) 0.3344(2) 0.0288(2)
Na5 Na 0.2664(2) 1.2472(2) 0.6940(1)
O17 O 0.4114(3) 0.1869(3) 0.9786(3)
O18 O 0.1793(3) 0.3551(3) 0.9549(3)
O19 O 0.8215(3) -0.1153(3) 1.0555(3)
O20 O 0.0420(3) 0.4786(3) 1.1073(3)
O21 O 0.2675(4) 0.2255(4) 1.1651(3)
O22 O 0.3233(4) 0.4880(3) 1.0721(3)
O23 O 0.1695(4) 0.0908(4) 0.7186(4)
O24 O 0.2206(5) 0.3806(5) 1.2514(4)
O25 O 0.7054(3) 0.2421(3) 0.9253(3)
O26 O 0.9049(4) 0.0504(3) 0.8838(3)
O27 O 0.6310(4) 0.2600(3) 0.6905(3)
O28 O 0.5702(4) 0.2770(5) 1.1037(4)
loop_
_geom_bond_atom_site_label_1
_geom_bond_atom_site_label_2
_geom_bond_site_symmetry_1
_geom_bond_site_symmetry_2
S1 O5 1_555 1_555
S2 O8 1_555 1_555
S3 O11 1_555 1_555
S4 O14 1_555 1_555
O1 C1 1_555 1_555
O2 C8 1_555 1_555
O3 C15 1_555 1_555
O4 C22 1_555 1_555
O6 S1 1_555 1_555
O7 S1 1_555 1_555
O9 S2 1_555 1_555
O10 S2 1_555 1_555
O12 S3 1_555 1_555
O13 S3 1_555 1_555
O15 S4 1_555 1_555
O16 S4 1_555 1_555
C1 C2 1_555 1_555
C2 C3 1_555 1_555
C3 C4 1_555 1_555
C4 S1 1_555 1_555
C5 C4 1_555 1_555
C6 C1 1_555 1_555
C7 C6 1_555 1_555
C8 C9 1_555 1_555
C9 C7 1_555 1_555
C10 C9 1_555 1_555
C11 S2 1_555 1_555
C12 C11 1_555 1_555
C13 C8 1_555 1_555
C14 C13 1_555 1_555
C15 C16 1_555 1_555
C16 C14 1_555 1_555
C17 C16 1_555 1_555
C18 S3 1_555 1_555
C19 C18 1_555 1_555
C20 C15 1_555 1_555
C21 C20 1_555 1_555
C22 C23 1_555 1_555
C23 C21 1_555 1_555
C24 C23 1_555 1_555
C25 S4 1_555 1_555
C26 C25 1_555 1_555
C27 C22 1_555 1_555
C28 C2 1_555 1_555
C5 C6 1_555 1_555
C10 C11 1_555 1_555
C12 C13 1_555 1_555
C17 C18 1_555 1_555
C19 C20 1_555 1_555
C24 C25 1_555 1_555
C26 C27 1_555 1_555
C27 C28 1_555 1_555

#END
