
#######################################################################
#
#                 Cambridge Crystallographic Data Centre
#                                CCDC 
#
#######################################################################
#
# If this CIF has been generated from an entry in the Cambridge 
# Structural Database, then it will include bibliographic, chemical, 
# crystal, experimental, refinement or atomic coordinate data resulting 
# from the CCDC's data processing and validation procedures.
#
#######################################################################

data_SAFJIS
_chemical_formula_moiety         'C28 H19 O16 S4 5-,C3 H6 O1,5(Na1 1+),8(H2 O1)'
_chemical_name_systematic        
'Penta-sodium 25,26,27-trihydroxycalix(4)arene-28-oxide-5,11,17,23-tetrasulfonate acetone octahydrate'
_symmetry_cell_setting           monoclinic
_symmetry_space_group_name_H-M   'P 21/n'
_symmetry_Int_Tables_number      14
_space_group_name_Hall           '-P 2yn'
loop_
_symmetry_equiv_pos_site_id
_symmetry_equiv_pos_as_xyz
1 x,y,z
2 1/2-x,1/2+y,1/2-z
3 -x,-y,-z
4 1/2+x,1/2-y,1/2+z
_cell_length_a                   11.05(4)
_cell_length_b                   14.157(4)
_cell_length_c                   27.162(7)
_cell_angle_alpha                90
_cell_angle_beta                 97.47(3)
_cell_angle_gamma                90
_cell_volume                     4213.02
_exptl_crystal_colour            colorless
_cell_formula_units_Z            4
loop_
_atom_site_label
_atom_site_type_symbol
_atom_site_fract_x
_atom_site_fract_y
_atom_site_fract_z
Na1 Na 0.8075(2) 0.6259(2) 0.19630(9)
Na2 Na 0.8796(2) -0.1586(2) 0.1439(1)
Na3 Na 0.1927(2) 0.2025(2) 0.27590(9)
Na4 Na 0.1409(2) -0.0689(2) 0.24983(9)
Na5 Na 0.6111(3) -0.0979(2) 0.2565(1)
S1 S 0.6127(1) 0.4265(1) 0.17477(5)
S2 S 0.5618(1) -0.1111(1) 0.12888(5)
S3 S -0.0130(1) 0.0730(1) 0.17805(5)
S4 S 0.0951(1) 0.5444(1) 0.17268(5)
O1 O 0.4121(4) 0.3419(3) -0.0320(2)
O2 O 0.6386(6) 0.5257(4) 0.1766(2)
O3 O 0.5200(6) 0.4048(7) 0.2033(2)
O4 O 0.7202(6) 0.3719(4) 0.1879(2)
O5 O 0.3242(3) 0.1677(3) -0.0122(2)
O6 O 0.1865(4) 0.4888(3) 0.2031(2)
O7 O -0.0254(3) 0.5286(3) 0.1868(2)
O8 O 0.1291(4) 0.6440(3) 0.1728(2)
O9 O 0.0843(3) 0.1906(3) -0.0208(1)
O10 O 0.5372(4) -0.2052(3) 0.1082(2)
O11 O 0.5020(4) -0.0962(3) 0.1733(1)
O12 O 0.6907(3) -0.0889(3) 0.1374(2)
O13 O 0.1339(4) 0.3686(3) -0.0206(2)
O14 O -0.0244(4) -0.0286(3) 0.1807(2)
O15 O -0.1195(5) 0.1234(3) 0.1898(2)
O16 O 0.0972(4) 0.1030(4) 0.2091(2)
C1 C 0.4547(5) 0.3558(4) 0.0166(2)
C2 C 0.4186(5) 0.4383(4) 0.0395(2)
C3 C 0.4726(5) 0.4598(4) 0.0867(2)
C4 C 0.5559(5) 0.3989(4) 0.1130(2)
C5 C 0.5855(5) 0.3145(4) 0.0908(2)
C6 C 0.5373(5) 0.2922(4) 0.0434(2)
C7 C 0.5718(5) 0.1985(4) 0.0207(2)
C8 C 0.3764(5) 0.1025(4) 0.0197(2)
C9 C 0.5006(5) 0.1142(4) 0.0380(2)
C10 C 0.5587(5) 0.0481(4) 0.0701(2)
C11 C 0.4940(5) -0.0295(4) 0.0848(2)
C12 C 0.3712(5) -0.0403(4) 0.0666(2)
C13 C 0.3121(5) 0.0239(4) 0.0339(2)
C14 C 0.1772(5) 0.0112(4) 0.0146(2)
C15 C 0.0519(4) 0.1607(4) 0.0224(2)
C16 C 0.0966(4) 0.0735(4) 0.0430(2)
C17 C 0.0732(5) 0.0464(4) 0.0895(2)
C18 C 0.0027(5) 0.1027(4) 0.1165(2)
C19 C -0.0481(5) 0.1865(4) 0.0958(2)
C20 C -0.0241(4) 0.2162(4) 0.0491(2)
C21 C -0.0710(5) 0.3118(4) 0.0295(2)
C22 C 0.1168(5) 0.4135(4) 0.0223(2)
C23 C 0.0177(5) 0.3905(4) 0.0479(2)
C24 C 0.0073(5) 0.4354(4) 0.0924(2)
C25 C 0.0932(5) 0.5030(4) 0.1117(2)
C26 C 0.1873(5) 0.5281(4) 0.0843(2)
C27 C 0.2014(5) 0.4827(4) 0.0399(2)
C28 C 0.3147(5) 0.5012(4) 0.0144(2)
O17 O 0.1835(4) -0.2357(3) 0.2855(2)
C29 C 0.1761(5) -0.2726(4) 0.3254(2)
C30 C 0.2238(6) -0.2263(5) 0.3729(2)
C31 C 0.1204(8) -0.3675(5) 0.3284(3)
O18 O 0.7826(5) 0.6944(4) 0.1160(2)
O19 O 0.2504(4) -0.1412(3) 0.1872(2)
O20 O 0.9428(4) -0.2417(3) 0.2178(2)
O21 O 0.0493(5) 0.3135(3) 0.2198(2)
O22 O 0.8235(5) 0.5499(4) 0.2754(2)
O23 O 1.0676(5) -0.1996(3) 0.1083(2)
O24 O 0.0578(5) 0.1620(4) 0.3296(2)
O25 O 0.6711(5) -0.2607(4) 0.2300(2)
loop_
_geom_bond_atom_site_label_1
_geom_bond_atom_site_label_2
_geom_bond_site_symmetry_1
_geom_bond_site_symmetry_2
S1 O2 1_555 1_555
S2 O10 1_555 1_555
S3 O14 1_555 1_555
S4 O6 1_555 1_555
O1 C1 1_555 1_555
O3 S1 1_555 1_555
O4 S1 1_555 1_555
O5 C8 1_555 1_555
O7 S4 1_555 1_555
O8 S4 1_555 1_555
O9 C15 1_555 1_555
O11 S2 1_555 1_555
O12 S2 1_555 1_555
O13 C22 1_555 1_555
O15 S3 1_555 1_555
O16 S3 1_555 1_555
C1 C2 1_555 1_555
C2 C3 1_555 1_555
C3 C4 1_555 1_555
C4 S1 1_555 1_555
C5 C4 1_555 1_555
C6 C1 1_555 1_555
C7 C6 1_555 1_555
C8 C9 1_555 1_555
C9 C7 1_555 1_555
C10 C9 1_555 1_555
C11 S2 1_555 1_555
C12 C11 1_555 1_555
C13 C8 1_555 1_555
C14 C13 1_555 1_555
C15 C16 1_555 1_555
C16 C14 1_555 1_555
C17 C16 1_555 1_555
C18 S3 1_555 1_555
C19 C18 1_555 1_555
C20 C15 1_555 1_555
C21 C20 1_555 1_555
C22 C23 1_555 1_555
C23 C21 1_555 1_555
C24 C23 1_555 1_555
C25 S4 1_555 1_555
C26 C25 1_555 1_555
C27 C22 1_555 1_555
C28 C2 1_555 1_555
O17 C29 1_555 1_555
C29 C30 1_555 1_555
C31 C29 1_555 1_555
C5 C6 1_555 1_555
C10 C11 1_555 1_555
C12 C13 1_555 1_555
C17 C18 1_555 1_555
C19 C20 1_555 1_555
C24 C25 1_555 1_555
C26 C27 1_555 1_555
C27 C28 1_555 1_555

#END
