
#######################################################################
#
#                 Cambridge Crystallographic Data Centre
#                                CCDC 
#
#######################################################################
#
# If this CIF has been generated from an entry in the Cambridge 
# Structural Database, then it will include bibliographic, chemical, 
# crystal, experimental, refinement or atomic coordinate data resulting 
# from the CCDC's data processing and validation procedures.
#
#######################################################################

data_SAFNUK
_chemical_formula_moiety         'C16 H12 N2 O4'
_chemical_name_systematic        
1,2-bis(1,3-benzodioxol-5-ylmethylene)hydrazine
_symmetry_cell_setting           monoclinic
_symmetry_space_group_name_H-M   'P 21/c'
_symmetry_Int_Tables_number      14
_space_group_name_Hall           '-P 2ybc'
loop_
_symmetry_equiv_pos_site_id
_symmetry_equiv_pos_as_xyz
1 x,y,z
2 -x,1/2+y,1/2-z
3 -x,-y,-z
4 x,1/2-y,1/2+z
_cell_length_a                   6.1835(2)
_cell_length_b                   4.5970(2)
_cell_length_c                   23.8487(10)
_cell_angle_alpha                90
_cell_angle_beta                 96.080(4)
_cell_angle_gamma                90
_cell_volume                     674.099
_exptl_crystal_colour            yellow
_exptl_crystal_description       plate
_cell_formula_units_Z            2
loop_
_atom_site_label
_atom_site_type_symbol
_atom_site_fract_x
_atom_site_fract_y
_atom_site_fract_z
O1 O 0.40433(16) 0.1982(3) 0.30379(4)
O2 O 0.05345(15) 0.0196(2) 0.29688(4)
N1 N 0.48668(18) 0.9022(3) 0.47706(4)
C1 C 0.2915(2) 0.8116(3) 0.46809(5)
H1 H 0.1891 0.8790 0.4909
C2 C 0.22381(19) 0.6056(3) 0.42323(5)
C3 C 0.0129(2) 0.4965(3) 0.41852(5)
H2 H -0.0823 0.5609 0.4435
C4 C -0.0601(2) 0.2930(3) 0.37729(6)
H3 H -0.2004 0.2178 0.3747
C5 C 0.0850(2) 0.2105(3) 0.34108(5)
C6 C 0.2948(2) 0.3188(3) 0.34523(5)
C7 C 0.36960(19) 0.5151(3) 0.38540(5)
H4 H 0.5111 0.5862 0.3877
C8 C 0.2520(2) 0.0174(4) 0.27125(6)
H5 H 0.3079 -0.1794 0.2701
H6 H 0.2271 0.0900 0.2329
O1B O 0.59567(16) 1.8018(3) 0.69621(4)
O2B O 0.94655(15) 1.9804(2) 0.70312(4)
N1B N 0.51332(18) 1.0978(3) 0.52294(4)
C1B C 0.7085(2) 1.1884(3) 0.53191(5)
H1B H 0.8109 1.1210 0.5091
C2B C 0.77619(19) 1.3944(3) 0.57677(5)
C3B C 0.9871(2) 1.5035(3) 0.58148(5)
H2B H 1.0823 1.4391 0.5565
C4B C 1.0601(2) 1.7070(3) 0.62271(6)
H3B H 1.2004 1.7822 0.6253
C5B C 0.9150(2) 1.7895(3) 0.65892(5)
C6B C 0.7052(2) 1.6812(3) 0.65477(5)
C7B C 0.63040(19) 1.4849(3) 0.61460(5)
H4B H 0.4889 1.4138 0.6123
C8B C 0.7480(2) 1.9826(4) 0.72875(6)
H5B H 0.6921 2.1794 0.7299
H6B H 0.7729 1.9100 0.7671
loop_
_geom_bond_atom_site_label_1
_geom_bond_atom_site_label_2
_geom_bond_site_symmetry_1
_geom_bond_site_symmetry_2
O1 C6 1_555 1_555
O2 C5 1_555 1_555
N1 C1 1_555 1_555
C1 H1 1_555 1_555
C2 C1 1_555 1_555
C3 C2 1_555 1_555
H2 C3 1_555 1_555
C4 C3 1_555 1_555
H3 C4 1_555 1_555
C5 C4 1_555 1_555
C6 C5 1_555 1_555
C7 C2 1_555 1_555
H4 C7 1_555 1_555
C8 O1 1_555 1_555
H5 C8 1_555 1_555
H6 C8 1_555 1_555
O1B C6B 1_555 1_555
O2B C5B 1_555 1_555
N1B N1 1_555 1_555
C1B N1B 1_555 1_555
H1B C1B 1_555 1_555
C2B C1B 1_555 1_555
C3B C2B 1_555 1_555
H2B C3B 1_555 1_555
C4B C3B 1_555 1_555
H3B C4B 1_555 1_555
C5B C4B 1_555 1_555
C6B C5B 1_555 1_555
C7B C2B 1_555 1_555
H4B C7B 1_555 1_555
C8B O1B 1_555 1_555
H5B C8B 1_555 1_555
H6B C8B 1_555 1_555
O2 C8 1_555 1_555
C6 C7 1_555 1_555
O2B C8B 1_555 1_555
C6B C7B 1_555 1_555

#END
