
#######################################################################
#
#                 Cambridge Crystallographic Data Centre
#                                CCDC 
#
#######################################################################
#
# If this CIF has been generated from an entry in the Cambridge 
# Structural Database, then it will include bibliographic, chemical, 
# crystal, experimental, refinement or atomic coordinate data resulting 
# from the CCDC's data processing and validation procedures.
#
#######################################################################

data_SAFQUO
_chemical_formula_moiety         'C30 H36 N2 O9'
_chemical_name_systematic        
'methyl 2,19,19-trimethoxy-18-((4-nitrobenzoyl)oxy)-7-azahexacyclo[7.6.2.2^10,13^.0^1,8^.0^5,16^.0^10,15^]nonadec-11-ene-7-carboxylate'
_symmetry_cell_setting           monoclinic
_symmetry_space_group_name_H-M   'P 21/a'
_symmetry_Int_Tables_number      14
_space_group_name_Hall           '-P 2yab'
loop_
_symmetry_equiv_pos_site_id
_symmetry_equiv_pos_as_xyz
1 x,y,z
2 1/2-x,1/2+y,-z
3 -x,-y,-z
4 1/2+x,1/2-y,z
_cell_length_a                   9.0579(6)
_cell_length_b                   51.983(3)
_cell_length_c                   11.7360(8)
_cell_angle_alpha                90
_cell_angle_beta                 90.896(4)
_cell_angle_gamma                90
_cell_volume                     5525.3
_exptl_crystal_colour            colorless
_exptl_crystal_description       plate
_cell_formula_units_Z            8
loop_
_atom_site_label
_atom_site_type_symbol
_atom_site_fract_x
_atom_site_fract_y
_atom_site_fract_z
C1 C -0.0197(8) 0.08826(11) 1.4473(7)
C2 C -0.0164(8) 0.11815(11) 1.4264(6)
H1 H 0.0173 0.1259 1.5003
C3 C -0.1526(9) 0.13389(11) 1.3879(7)
H2 H -0.2016 0.1416 1.4546
H3 H -0.2246 0.1228 1.3469
C4 C -0.0941(9) 0.15525(11) 1.3078(7)
H4 H -0.1729 0.1682 1.2906
C5 C 0.0402(9) 0.16806(11) 1.3656(7)
H5 H 0.0153 0.1730 1.4453
C6 C 0.1799(8) 0.14952(10) 1.3672(6)
C7 C 0.1132(8) 0.12211(10) 1.3427(7)
C8 C 0.1984(8) 0.09655(11) 1.3617(7)
H6 H 0.2803 0.0936 1.3070
C9 C 0.2420(8) 0.09247(11) 1.4878(7)
H7 H 0.2763 0.1088 1.5230
H8 H 0.3211 0.0794 1.4956
C10 C 0.0966(9) 0.08292(11) 1.5435(7)
H9 H 0.0743 0.0930 1.6138
C11 C 0.1012(9) 0.05406(12) 1.5684(6)
H10 H 0.1736 0.0512 1.6323
C12 C -0.0492(10) 0.04481(12) 1.6073(7)
H11 H -0.0774 0.0543 1.6768
H12 H -0.0436 0.0263 1.6266
C13 C -0.1662(9) 0.04895(13) 1.5142(7)
H13 H -0.2641 0.0441 1.5439
H14 H -0.1449 0.0376 1.4489
C14 C -0.1712(9) 0.07694(12) 1.4732(7)
H15 H -0.2178 0.0877 1.5336
C15 C 0.0658(8) 0.07761(11) 1.3478(7)
H16 H 0.0114 0.0810 1.2746
C16 C 0.1570(9) 0.03948(12) 1.4636(7)
H17 H 0.2663 0.0396 1.4650
H18 H 0.1242 0.0213 1.4679
C17 C -0.0472(10) 0.14176(12) 1.2007(7)
H19 H -0.0867 0.1454 1.1271
C18 C 0.0565(9) 0.12401(11) 1.2212(7)
H20 H 0.0925 0.1132 1.1626
C19 C 0.0626(10) 0.21374(12) 1.3562(7)
C20 C 0.1186(9) 0.23511(12) 1.2832(7)
C21 C 0.0784(10) 0.26014(12) 1.3164(7)
H21 H 0.0181 0.2627 1.3810
C22 C 0.1278(10) 0.28107(12) 1.2539(8)
H22 H 0.1008 0.2981 1.2740
C23 C 0.2166(10) 0.27649(13) 1.1625(7)
C24 C 0.2621(11) 0.25220(13) 1.1297(8)
H23 H 0.3267 0.2498 1.0676
C25 C 0.2086(10) 0.23115(12) 1.1924(8)
H24 H 0.2351 0.2141 1.1714
C26 C 0.4064(10) 0.14356(13) 1.2673(8)
H25 H 0.4492 0.1388 1.3416
H26 H 0.4780 0.1538 1.2249
H27 H 0.3817 0.1280 1.2242
C27 C 0.3104(11) 0.17374(12) 1.5105(7)
H28 H 0.3878 0.1791 1.4582
H29 H 0.3524 0.1720 1.5876
H30 H 0.2315 0.1866 1.5105
C28 C 0.1274(9) 0.03783(12) 1.2561(7)
C29 C 0.1944(12) -0.00204(14) 1.1787(9)
H31 H 0.1002 -0.0034 1.1368
H32 H 0.2267 -0.0192 1.2026
H33 H 0.2689 0.0056 1.1293
C30 C -0.4120(9) 0.07976(13) 1.3936(8)
H34 H -0.4401 0.0646 1.4382
H35 H -0.4688 0.0800 1.3218
H36 H -0.4328 0.0954 1.4371
N1 N 0.1047(7) 0.05049(10) 1.3562(6)
N2 N 0.2660(10) 0.29889(12) 1.0952(7)
O1 O 0.0757(7) 0.19097(8) 1.3007(5)
O2 O 0.0148(9) 0.21662(9) 1.4492(6)
O3 O 0.2035(8) 0.31925(9) 1.1098(6)
O4 O 0.3684(11) 0.29569(12) 1.0311(7)
O5 O 0.2753(6) 0.15842(8) 1.2839(5)
O6 O 0.2512(6) 0.14942(8) 1.4741(4)
O7 O 0.1046(7) 0.04635(9) 1.1611(5)
O8 O 0.1761(7) 0.01381(9) 1.2768(6)
O9 O -0.2617(6) 0.07864(9) 1.3703(5)
C31 C 0.5923(8) 0.09021(11) 0.9471(6)
C32 C 0.5788(9) 0.11993(11) 0.9293(7)
H37 H 0.5442 0.1273 1.0030
C33 C 0.7094(9) 0.13662(11) 0.8919(7)
H38 H 0.7828 0.1261 0.8513
H39 H 0.7584 0.1447 0.9589
C34 C 0.6440(9) 0.15738(11) 0.8121(7)
H40 H 0.7187 0.1711 0.7966
C35 C 0.5053(9) 0.16902(10) 0.8663(6)
H41 H 0.5303 0.1738 0.9468
C36 C 0.3722(9) 0.14953(11) 0.8677(7)
C37 C 0.4454(8) 0.12275(11) 0.8406(7)
C38 C 0.3688(8) 0.09660(10) 0.8581(7)
H42 H 0.2869 0.0929 0.8024
C39 C 0.3295(9) 0.09186(12) 0.9817(7)
H43 H 0.2546 0.0781 0.9878
H44 H 0.2909 0.1077 1.0173
C40 C 0.4787(9) 0.08354(11) 1.0390(6)
H45 H 0.4983 0.0936 1.1103
C41 C 0.4838(10) 0.05429(11) 1.0631(7)
H46 H 0.4127 0.0505 1.1253
C42 C 0.6387(10) 0.04667(12) 1.1057(7)
H47 H 0.6630 0.0562 1.1765
H48 H 0.6407 0.0281 1.1234
C43 C 0.7536(9) 0.05264(12) 1.0159(7)
H49 H 0.8532 0.0492 1.0483
H50 H 0.7382 0.0409 0.9502
C44 C 0.7479(9) 0.08031(12) 0.9738(7)
H51 H 0.7946 0.0917 1.0329
C45 C 0.5084(8) 0.07937(11) 0.8432(7)
H52 H 0.5602 0.0838 0.7712
C46 C 0.4338(9) 0.03918(11) 0.9569(7)
H53 H 0.4755 0.0216 0.9609
H54 H 0.3249 0.0377 0.9564
C47 C 0.5988(9) 0.14402(11) 0.7041(6)
H55 H 0.6366 0.1482 0.6314
C48 C 0.4989(9) 0.12545(11) 0.7215(7)
H56 H 0.4641 0.1146 0.6616
C49 C 0.4821(10) 0.21472(12) 0.8577(8)
C50 C 0.4281(9) 0.23651(11) 0.7859(7)
C51 C 0.3360(10) 0.23290(12) 0.6912(7)
H57 H 0.3065 0.2160 0.6702
C52 C 0.2864(11) 0.25386(14) 0.6269(8)
H58 H 0.2218 0.2517 0.5631
C53 C 0.3363(10) 0.27828(13) 0.6608(7)
C54 C 0.4289(10) 0.28225(12) 0.7523(8)
H59 H 0.4618 0.2991 0.7711
C55 C 0.4739(10) 0.26131(13) 0.8171(8)
H60 H 0.5356 0.2638 0.8824
C56 C 0.2384(11) 0.17248(13) 1.0094(7)
H61 H 0.3159 0.1848 1.0308
H62 H 0.1763 0.1691 1.0753
H63 H 0.1777 0.1797 0.9473
C57 C 0.1465(10) 0.14260(13) 0.7610(7)
H64 H 0.1749 0.1278 0.7147
H65 H 0.0707 0.1526 0.7202
H66 H 0.1071 0.1366 0.8336
C58 C 0.4710(9) 0.03886(11) 0.7490(7)
C59 C 0.4328(13) -0.00128(13) 0.6587(8)
H67 H 0.3619 0.0062 0.6041
H68 H 0.4040 -0.0190 0.6757
H69 H 0.5316 -0.0012 0.6258
C60 C 0.9824(10) 0.08221(14) 0.8924(8)
H70 H 1.0097 0.0972 0.9390
H71 H 1.0345 0.0829 0.8199
H72 H 1.0099 0.0664 0.9331
N3 N 0.4805(7) 0.05154(9) 0.8494(6)
N4 N 0.2890(9) 0.30070(12) 0.5914(7)
O10 O 0.4638(7) 0.19228(8) 0.8047(5)
O11 O 0.5312(10) 0.21766(9) 0.9528(6)
O12 O 0.1849(9) 0.29806(11) 0.5263(7)
O13 O 0.3545(8) 0.32078(9) 0.6070(6)
O14 O 0.3048(6) 0.14892(8) 0.9722(5)
O15 O 0.2731(6) 0.15848(8) 0.7824(5)
O16 O 0.4914(7) 0.04808(8) 0.6551(5)
O17 O 0.4340(7) 0.01379(9) 0.7631(5)
O18 O 0.8297(6) 0.08236(8) 0.8713(5)
loop_
_geom_bond_atom_site_label_1
_geom_bond_atom_site_label_2
_geom_bond_site_symmetry_1
_geom_bond_site_symmetry_2
C1 C2 1_555 1_555
C2 H1 1_555 1_555
C3 C2 1_555 1_555
H2 C3 1_555 1_555
H3 C3 1_555 1_555
C4 C3 1_555 1_555
H4 C4 1_555 1_555
C5 C4 1_555 1_555
H5 C5 1_555 1_555
C6 C5 1_555 1_555
C7 C2 1_555 1_555
C8 C7 1_555 1_555
H6 C8 1_555 1_555
C9 C8 1_555 1_555
H7 C9 1_555 1_555
H8 C9 1_555 1_555
C10 C1 1_555 1_555
H9 C10 1_555 1_555
C11 C10 1_555 1_555
H10 C11 1_555 1_555
C12 C11 1_555 1_555
H11 C12 1_555 1_555
H12 C12 1_555 1_555
C13 C12 1_555 1_555
H13 C13 1_555 1_555
H14 C13 1_555 1_555
C14 C1 1_555 1_555
H15 C14 1_555 1_555
C15 C1 1_555 1_555
H16 C15 1_555 1_555
C16 C11 1_555 1_555
H17 C16 1_555 1_555
H18 C16 1_555 1_555
C17 C4 1_555 1_555
H19 C17 1_555 1_555
C18 C7 1_555 1_555
H20 C18 1_555 1_555
C19 C20 1_555 1_555
C20 C21 1_555 1_555
C21 H21 1_555 1_555
C22 C21 1_555 1_555
H22 C22 1_555 1_555
C23 C22 1_555 1_555
C24 C23 1_555 1_555
H23 C24 1_555 1_555
C25 C20 1_555 1_555
H24 C25 1_555 1_555
C26 H25 1_555 1_555
H26 C26 1_555 1_555
H27 C26 1_555 1_555
C27 H28 1_555 1_555
H29 C27 1_555 1_555
H30 C27 1_555 1_555
C28 N1 1_555 1_555
C29 H31 1_555 1_555
H32 C29 1_555 1_555
H33 C29 1_555 1_555
C30 H34 1_555 1_555
H35 C30 1_555 1_555
H36 C30 1_555 1_555
N1 C15 1_555 1_555
N2 C23 1_555 1_555
O1 C5 1_555 1_555
O2 C19 1_555 1_555
O3 N2 1_555 1_555
O4 N2 1_555 1_555
O5 C6 1_555 1_555
O6 C6 1_555 1_555
O7 C28 1_555 1_555
O8 C28 1_555 1_555
O9 C14 1_555 1_555
C31 C32 1_555 1_555
C32 H37 1_555 1_555
C33 C32 1_555 1_555
H38 C33 1_555 1_555
H39 C33 1_555 1_555
C34 C33 1_555 1_555
H40 C34 1_555 1_555
C35 C34 1_555 1_555
H41 C35 1_555 1_555
C36 C35 1_555 1_555
C37 C32 1_555 1_555
C38 C37 1_555 1_555
H42 C38 1_555 1_555
C39 C38 1_555 1_555
H43 C39 1_555 1_555
H44 C39 1_555 1_555
C40 C31 1_555 1_555
H45 C40 1_555 1_555
C41 C40 1_555 1_555
H46 C41 1_555 1_555
C42 C41 1_555 1_555
H47 C42 1_555 1_555
H48 C42 1_555 1_555
C43 C42 1_555 1_555
H49 C43 1_555 1_555
H50 C43 1_555 1_555
C44 C31 1_555 1_555
H51 C44 1_555 1_555
C45 C31 1_555 1_555
H52 C45 1_555 1_555
C46 C41 1_555 1_555
H53 C46 1_555 1_555
H54 C46 1_555 1_555
C47 C34 1_555 1_555
H55 C47 1_555 1_555
C48 C37 1_555 1_555
H56 C48 1_555 1_555
C49 C50 1_555 1_555
C50 C51 1_555 1_555
C51 H57 1_555 1_555
C52 C51 1_555 1_555
H58 C52 1_555 1_555
C53 C52 1_555 1_555
C54 C53 1_555 1_555
H59 C54 1_555 1_555
C55 C50 1_555 1_555
H60 C55 1_555 1_555
C56 H61 1_555 1_555
H62 C56 1_555 1_555
H63 C56 1_555 1_555
C57 H64 1_555 1_555
H65 C57 1_555 1_555
H66 C57 1_555 1_555
C58 N3 1_555 1_555
C59 H67 1_555 1_555
H68 C59 1_555 1_555
H69 C59 1_555 1_555
C60 H70 1_555 1_555
H71 C60 1_555 1_555
H72 C60 1_555 1_555
N3 C45 1_555 1_555
N4 C53 1_555 1_555
O10 C35 1_555 1_555
O11 C49 1_555 1_555
O12 N4 1_555 1_555
O13 N4 1_555 1_555
O14 C36 1_555 1_555
O15 C36 1_555 1_555
O16 C58 1_555 1_555
O17 C58 1_555 1_555
O18 C44 1_555 1_555
C6 C7 1_555 1_555
C8 C15 1_555 1_555
C9 C10 1_555 1_555
C13 C14 1_555 1_555
C16 N1 1_555 1_555
C17 C18 1_555 1_555
C19 O1 1_555 1_555
C24 C25 1_555 1_555
C26 O5 1_555 1_555
C27 O6 1_555 1_555
C29 O8 1_555 1_555
C30 O9 1_555 1_555
C36 C37 1_555 1_555
C38 C45 1_555 1_555
C39 C40 1_555 1_555
C43 C44 1_555 1_555
C46 N3 1_555 1_555
C47 C48 1_555 1_555
C49 O10 1_555 1_555
C54 C55 1_555 1_555
C56 O14 1_555 1_555
C57 O15 1_555 1_555
C59 O17 1_555 1_555
C60 O18 1_555 1_555

#END
