
#######################################################################
#
#                 Cambridge Crystallographic Data Centre
#                                CCDC 
#
#######################################################################
#
# If this CIF has been generated from an entry in the Cambridge 
# Structural Database, then it will include bibliographic, chemical, 
# crystal, experimental, refinement or atomic coordinate data resulting 
# from the CCDC's data processing and validation procedures.
#
#######################################################################

data_SAFQAU
_chemical_compound_source        'Aspergillus sp. SF-5974/ SF-5976'
_chemical_formula_moiety         'C16 H20 O6'
_chemical_name_systematic        
6,8-dihydroxy-3-((5-hydroxy-6-methyltetrahydro-2H-pyran-2-yl)methyl)-3,4-dihydro-1H-isochromen-1-one
_chemical_properties_biological  'antineuroinflammatory activity'
_symmetry_cell_setting           orthorhombic
_symmetry_space_group_name_H-M   'P 21 21 21'
_symmetry_Int_Tables_number      19
_space_group_name_Hall           'P 2ac 2ab'
loop_
_symmetry_equiv_pos_site_id
_symmetry_equiv_pos_as_xyz
1 x,y,z
2 1/2-x,-y,1/2+z
3 1/2+x,1/2-y,-z
4 -x,1/2+y,1/2-z
_cell_length_a                   7.3761(2)
_cell_length_b                   8.0325(5)
_cell_length_c                   24.6298(14)
_cell_angle_alpha                90
_cell_angle_beta                 90
_cell_angle_gamma                90
_cell_volume                     1459.28
_cell_formula_units_Z            4
loop_
_atom_site_label
_atom_site_type_symbol
_atom_site_fract_x
_atom_site_fract_y
_atom_site_fract_z
C1 C -0.7184(3) -0.5984(2) -0.16048(7)
O1 O -0.7307(2) -0.44282(16) -0.07655(5)
H1 H -0.7268 -0.3640 -0.0990
C2 C -0.6926(3) -0.8980(2) -0.15524(7)
H2 H -0.6862 -1.0035 -0.1726
C3 C -0.9129(3) -0.6858(2) -0.36576(7)
H3 H -1.0361 -0.6445 -0.3555
O2 O -0.73764(19) -0.45513(15) -0.24632(5)
C4 C -0.7058(2) -0.7545(2) -0.18572(7)
C5 C -0.6979(3) -0.7570(2) -0.24671(7)
H4 H -0.7501 -0.8627 -0.2603
H5 H -0.5699 -0.7515 -0.2586
O3 O -0.91148(19) -0.86268(15) -0.35525(5)
C6 C -0.6887(3) -0.8867(2) -0.09861(7)
O4 O -0.69037(19) -0.30731(15) -0.17291(5)
C7 C -0.7032(3) -0.7332(2) -0.07254(7)
H6 H -0.7037 -0.7272 -0.0340
C8 C -0.7751(3) -1.1295(2) -0.35729(7)
H7 H -0.8888 -1.1747 -0.3717
H8 H -0.7767 -1.1352 -0.3175
H9 H -0.6729 -1.1949 -0.3712
C9 C -0.7395(3) -0.9288(2) -0.43645(7)
H10 H -0.6245 -0.9830 -0.4486
C10 C -0.7175(3) -0.4452(2) -0.19239(7)
C11 C -0.7768(3) -0.5889(2) -0.33134(7)
H11 H -0.6527 -0.6245 -0.3414
H12 H -0.7878 -0.4690 -0.3400
O5 O -0.6695(2) -1.03109(17) -0.07090(5)
H13 H -0.6524 -1.0103 -0.0379
C12 C -0.7169(2) -0.5898(2) -0.10335(7)
O6 O -0.88842(19) -1.00808(16) -0.46420(5)
H14 H -0.9864 -0.9808 -0.4493
C13 C -0.7285(3) -0.7442(2) -0.45016(7)
H15 H -0.7266 -0.7299 -0.4901
H16 H -0.6146 -0.6973 -0.4353
C14 C -0.8017(3) -0.6120(2) -0.27044(7)
H17 H -0.9336 -0.6261 -0.2623
C15 C -0.8899(3) -0.6509(2) -0.42644(7)
H18 H -1.0015 -0.6847 -0.4459
H19 H -0.8728 -0.5299 -0.4320
C16 C -0.7546(3) -0.9498(2) -0.37503(7)
H20 H -0.6439 -0.9018 -0.3576
loop_
_geom_bond_atom_site_label_1
_geom_bond_atom_site_label_2
_geom_bond_site_symmetry_1
_geom_bond_site_symmetry_2
C1 C4 1_555 1_555
O1 H1 1_555 1_555
C2 H2 1_555 1_555
C3 H3 1_555 1_555
O2 C10 1_555 1_555
C4 C2 1_555 1_555
C5 C4 1_555 1_555
H4 C5 1_555 1_555
H5 C5 1_555 1_555
O3 C3 1_555 1_555
C6 C2 1_555 1_555
O4 C10 1_555 1_555
C7 C6 1_555 1_555
H6 C7 1_555 1_555
C8 H7 1_555 1_555
H8 C8 1_555 1_555
H9 C8 1_555 1_555
C9 H10 1_555 1_555
C10 C1 1_555 1_555
C11 C3 1_555 1_555
H11 C11 1_555 1_555
H12 C11 1_555 1_555
O5 C6 1_555 1_555
H13 O5 1_555 1_555
C12 C1 1_555 1_555
O6 C9 1_555 1_555
H14 O6 1_555 1_555
C13 C9 1_555 1_555
H15 C13 1_555 1_555
H16 C13 1_555 1_555
C14 O2 1_555 1_555
H17 C14 1_555 1_555
C15 C3 1_555 1_555
H18 C15 1_555 1_555
H19 C15 1_555 1_555
C16 O3 1_555 1_555
H20 C16 1_555 1_555
O1 C12 1_555 1_555
C5 C14 1_555 1_555
C7 C12 1_555 1_555
C8 C16 1_555 1_555
C9 C16 1_555 1_555
C11 C14 1_555 1_555
C13 C15 1_555 1_555

#END
