
#######################################################################
#
#                 Cambridge Crystallographic Data Centre
#                                CCDC 
#
#######################################################################
#
# If this CIF has been generated from an entry in the Cambridge 
# Structural Database, then it will include bibliographic, chemical, 
# crystal, experimental, refinement or atomic coordinate data resulting 
# from the CCDC's data processing and validation procedures.
#
#######################################################################

data_SAFQIC
_chemical_formula_moiety         'C23 H33 N1 O7'
_chemical_name_systematic        
'methyl 8-hydroxy-1-methoxy-14-(methoxymethoxy)-15,16-epoxyaconitane-20-carboxylate'
_symmetry_cell_setting           monoclinic
_symmetry_space_group_name_H-M   'P 21/c'
_symmetry_Int_Tables_number      14
_space_group_name_Hall           '-P 2ybc'
loop_
_symmetry_equiv_pos_site_id
_symmetry_equiv_pos_as_xyz
1 x,y,z
2 -x,1/2+y,1/2-z
3 -x,-y,-z
4 x,1/2-y,1/2+z
_cell_length_a                   12.9748(4)
_cell_length_b                   13.2435(4)
_cell_length_c                   12.4982(4)
_cell_angle_alpha                90
_cell_angle_beta                 109.5720(10)
_cell_angle_gamma                90
_cell_volume                     2023.5
_exptl_crystal_colour            colorless
_exptl_crystal_description       plate
_cell_formula_units_Z            4
loop_
_atom_site_label
_atom_site_type_symbol
_atom_site_fract_x
_atom_site_fract_y
_atom_site_fract_z
C1 C 0.87512(11) 0.42100(11) 0.46887(12)
H1 H 0.9521 0.4120 0.5184
H2 H 0.8635 0.4938 0.4508
C2 C 0.85627(11) 0.36169(11) 0.35792(12)
H3 H 0.8775 0.4064 0.3043
C3 C 0.92681(11) 0.26681(11) 0.37665(12)
H4 H 0.9110 0.2297 0.3042
H5 H 1.0052 0.2856 0.4039
C4 C 0.90205(11) 0.20007(11) 0.46403(12)
H6 H 0.9262 0.2347 0.5385
H7 H 0.9439 0.1364 0.4722
C5 C 0.78022(11) 0.17560(10) 0.43053(11)
H8 H 0.7631 0.1224 0.3703
C6 C 0.70017(11) 0.26463(10) 0.38455(11)
C7 C 0.58410(11) 0.22029(10) 0.32400(11)
H9 H 0.5903 0.1772 0.2607
C8 C 0.53311(11) 0.15128(10) 0.39585(12)
H10 H 0.5363 0.0793 0.3757
H11 H 0.5731 0.1597 0.4781
C9 C 0.41278(11) 0.18651(10) 0.36579(12)
H12 H 0.3621 0.1293 0.3647
C10 C 0.41296(11) 0.26567(11) 0.45270(12)
H13 H 0.4244 0.2397 0.5310
C11 C 0.46140(11) 0.36454(11) 0.44700(12)
H14 H 0.5023 0.3975 0.5211
C12 C 0.49926(11) 0.38949(10) 0.34716(12)
C13 C 0.61891(11) 0.42451(10) 0.39169(11)
H15 H 0.6254 0.4907 0.4319
C14 C 0.69350(11) 0.34452(10) 0.47044(11)
H16 H 0.6590 0.3164 0.5246
C15 C 0.39153(11) 0.23190(11) 0.24790(12)
H17 H 0.3955 0.1761 0.1955
C16 C 0.49243(11) 0.29827(11) 0.26859(11)
H18 H 0.4975 0.3216 0.1944
C17 C 0.66583(11) 0.43222(11) 0.29309(12)
H19 H 0.7122 0.4931 0.3016
H20 H 0.6061 0.4353 0.2189
C18 C 0.73491(11) 0.33470(11) 0.30221(11)
H21 H 0.7205 0.3023 0.2263
C19 C 0.80964(11) 0.43561(10) 0.63026(11)
C20 C 0.91358(13) 0.54342(12) 0.77438(13)
H22 H 0.8490 0.5856 0.7647
H23 H 0.9791 0.5860 0.7953
H24 H 0.9206 0.4937 0.8345
C21 C 0.77144(13) 0.02681(12) 0.53395(15)
H25 H 0.7174 -0.0034 0.4669
H26 H 0.7589 0.0024 0.6026
H27 H 0.8452 0.0077 0.5365
C22 C 0.20833(12) 0.22498(12) 0.12284(13)
H28 H 0.2363 0.1945 0.0656
H29 H 0.1456 0.2688 0.0821
C23 C 0.11848(12) 0.18356(12) 0.25277(14)
H30 H 0.1704 0.2232 0.3133
H31 H 0.0923 0.1262 0.2861
H32 H 0.0563 0.2262 0.2108
N1 N 0.80179(9) 0.38882(9) 0.53177(10)
O1 O 0.74383(8) 0.42804(7) 0.68043(8)
O2 O 0.90195(8) 0.49199(8) 0.66977(8)
O3 O 0.76107(8) 0.13304(8) 0.52806(8)
O4 O 0.34389(8) 0.35377(7) 0.41994(8)
O5 O 0.43812(8) 0.47341(8) 0.28530(9)
H33 H 0.3738 0.4709 0.2864
O6 O 0.29074(8) 0.28472(8) 0.19660(8)
O7 O 0.17124(8) 0.14742(8) 0.17759(10)
loop_
_geom_bond_atom_site_label_1
_geom_bond_atom_site_label_2
_geom_bond_site_symmetry_1
_geom_bond_site_symmetry_2
C1 H1 1_555 1_555
H2 C1 1_555 1_555
C2 C1 1_555 1_555
H3 C2 1_555 1_555
C3 C2 1_555 1_555
H4 C3 1_555 1_555
H5 C3 1_555 1_555
C4 C3 1_555 1_555
H6 C4 1_555 1_555
H7 C4 1_555 1_555
C5 C4 1_555 1_555
H8 C5 1_555 1_555
C6 C5 1_555 1_555
C7 C6 1_555 1_555
H9 C7 1_555 1_555
C8 C7 1_555 1_555
H10 C8 1_555 1_555
H11 C8 1_555 1_555
C9 C8 1_555 1_555
H12 C9 1_555 1_555
C10 C9 1_555 1_555
H13 C10 1_555 1_555
C11 C10 1_555 1_555
H14 C11 1_555 1_555
C12 C11 1_555 1_555
C13 C12 1_555 1_555
H15 C13 1_555 1_555
C14 C6 1_555 1_555
H16 C14 1_555 1_555
C15 C9 1_555 1_555
H17 C15 1_555 1_555
C16 C7 1_555 1_555
H18 C16 1_555 1_555
C17 C13 1_555 1_555
H19 C17 1_555 1_555
H20 C17 1_555 1_555
C18 C2 1_555 1_555
H21 C18 1_555 1_555
C19 N1 1_555 1_555
C20 H22 1_555 1_555
H23 C20 1_555 1_555
H24 C20 1_555 1_555
C21 H25 1_555 1_555
H26 C21 1_555 1_555
H27 C21 1_555 1_555
C22 H28 1_555 1_555
H29 C22 1_555 1_555
C23 H30 1_555 1_555
H31 C23 1_555 1_555
H32 C23 1_555 1_555
N1 C1 1_555 1_555
O1 C19 1_555 1_555
O2 C19 1_555 1_555
O3 C5 1_555 1_555
O4 C10 1_555 1_555
O5 C12 1_555 1_555
H33 O5 1_555 1_555
O6 C15 1_555 1_555
O7 C22 1_555 1_555
C6 C18 1_555 1_555
C11 O4 1_555 1_555
C12 C16 1_555 1_555
C13 C14 1_555 1_555
C14 N1 1_555 1_555
C15 C16 1_555 1_555
C17 C18 1_555 1_555
C20 O2 1_555 1_555
C21 O3 1_555 1_555
C22 O6 1_555 1_555
C23 O7 1_555 1_555

#END
