
#######################################################################
#
#                 Cambridge Crystallographic Data Centre
#                                CCDC 
#
#######################################################################
#
# If this CIF has been generated from an entry in the Cambridge 
# Structural Database, then it will include bibliographic, chemical, 
# crystal, experimental, refinement or atomic coordinate data resulting 
# from the CCDC's data processing and validation procedures.
#
#######################################################################

data_SAFQOH
_chemical_formula_moiety         'C14 H11 N3 O4'
_chemical_name_systematic        
(E)-N'-(4-Hydroxybenzylidene)-3-nitrobenzohydrazide
_symmetry_cell_setting           monoclinic
_symmetry_space_group_name_H-M   'P 21/n'
_symmetry_Int_Tables_number      14
_space_group_name_Hall           '-P 2yn'
loop_
_symmetry_equiv_pos_site_id
_symmetry_equiv_pos_as_xyz
1 x,y,z
2 1/2-x,1/2+y,1/2-z
3 -x,-y,-z
4 1/2+x,1/2-y,1/2+z
_cell_length_a                   10.362(2)
_cell_length_b                   12.178(3)
_cell_length_c                   10.468(2)
_cell_angle_alpha                90
_cell_angle_beta                 91.666(2)
_cell_angle_gamma                90
_cell_volume                     1320.38
_exptl_crystal_colour            yellow
_exptl_crystal_description       block
_cell_formula_units_Z            4
loop_
_atom_site_label
_atom_site_type_symbol
_atom_site_fract_x
_atom_site_fract_y
_atom_site_fract_z
N1 N 0.05181(12) 0.48482(12) 0.34202(13)
N2 N 0.14827(13) 0.55140(12) 0.39294(14)
N3 N 0.56139(14) 0.71802(15) 0.60566(14)
O1 O -0.27851(12) 0.07966(10) 0.13367(13)
H1 H -0.3510 0.1064 0.1273
O2 O 0.01462(11) 0.69680(10) 0.38555(12)
O3 O 0.57302(14) 0.61913(14) 0.62040(16)
O4 O 0.64912(12) 0.78320(13) 0.62796(14)
C1 C 0.01449(16) 0.19488(15) 0.27428(16)
H2 H 0.0946 0.1703 0.3047
C2 C -0.07416(16) 0.12048(15) 0.22597(17)
H3 H -0.0539 0.0461 0.2240
C3 C -0.19415(15) 0.15658(14) 0.18014(15)
C4 C -0.22330(16) 0.26705(14) 0.18248(16)
H4 H -0.3030 0.2916 0.1510
C5 C -0.13454(15) 0.34089(14) 0.23140(15)
H5 H -0.1552 0.4152 0.2333
C6 C -0.01402(15) 0.30600(14) 0.27822(14)
C7 C 0.07926(15) 0.38382(14) 0.33207(15)
H6 H 0.1603 0.3590 0.3596
C8 C 0.12135(15) 0.65778(14) 0.41169(14)
C9 C 0.22883(15) 0.72875(14) 0.46301(14)
C10 C 0.34487(15) 0.68786(14) 0.51232(14)
H7 H 0.3601 0.6126 0.5155
C11 C 0.43746(15) 0.76159(15) 0.55668(15)
C12 C 0.41881(18) 0.87291(16) 0.55569(17)
H8 H 0.4824 0.9202 0.5875
C13 C 0.30287(19) 0.91322(16) 0.5062(2)
H9 H 0.2880 0.9885 0.5038
C14 C 0.20934(17) 0.84119(15) 0.46041(17)
H10 H 0.1317 0.8689 0.4272
H11 H 0.2202(14) 0.5183(17) 0.4207(19)
loop_
_geom_bond_atom_site_label_1
_geom_bond_atom_site_label_2
_geom_bond_site_symmetry_1
_geom_bond_site_symmetry_2
N1 N2 1_555 1_555
N2 C8 1_555 1_555
N3 O3 1_555 1_555
O1 H1 1_555 1_555
O2 C8 1_555 1_555
O4 N3 1_555 1_555
C1 H2 1_555 1_555
C2 C1 1_555 1_555
H3 C2 1_555 1_555
C3 O1 1_555 1_555
C4 C3 1_555 1_555
H4 C4 1_555 1_555
C5 C4 1_555 1_555
H5 C5 1_555 1_555
C6 C1 1_555 1_555
C7 N1 1_555 1_555
H6 C7 1_555 1_555
C8 C9 1_555 1_555
C9 C10 1_555 1_555
C10 H7 1_555 1_555
C11 N3 1_555 1_555
C12 C11 1_555 1_555
H8 C12 1_555 1_555
C13 C12 1_555 1_555
H9 C13 1_555 1_555
C14 C9 1_555 1_555
H10 C14 1_555 1_555
H11 N2 1_555 1_555
C2 C3 1_555 1_555
C5 C6 1_555 1_555
C6 C7 1_555 1_555
C10 C11 1_555 1_555
C13 C14 1_555 1_555

#END
