
#######################################################################
#
#                 Cambridge Crystallographic Data Centre
#                                CCDC 
#
#######################################################################
#
# If this CIF has been generated from an entry in the Cambridge 
# Structural Database, then it will include bibliographic, chemical, 
# crystal, experimental, refinement or atomic coordinate data resulting 
# from the CCDC's data processing and validation procedures.
#
#######################################################################

data_SAFWAZ
_chemical_formula_moiety         'C6 H5 N5'
_chemical_name_systematic        2-(4H-1,2,4-Triazol-4-yl)pyrimidine
_symmetry_cell_setting           triclinic
_symmetry_space_group_name_H-M   'P -1'
_symmetry_Int_Tables_number      2
_space_group_name_Hall           '-P 1'
loop_
_symmetry_equiv_pos_site_id
_symmetry_equiv_pos_as_xyz
1 x,y,z
2 -x,-y,-z
_cell_length_a                   5.6929(10)
_cell_length_b                   7.7355(14)
_cell_length_c                   8.6102(15)
_cell_angle_alpha                67.233(2)
_cell_angle_beta                 80.755(2)
_cell_angle_gamma                69.837(2)
_cell_volume                     328.039
_exptl_crystal_colour            colorless
_exptl_crystal_description       sheet
_cell_formula_units_Z            2
loop_
_atom_site_label
_atom_site_type_symbol
_atom_site_fract_x
_atom_site_fract_y
_atom_site_fract_z
N1 N 0.5226(2) 0.81660(19) 0.85375(15)
N2 N 0.2458(2) 0.66148(18) 0.82287(15)
N3 N 0.20693(19) 0.75348(16) 1.05328(14)
N4 N 0.0968(3) 0.8138(2) 1.28772(16)
N5 N -0.0695(2) 0.7314(2) 1.26282(16)
C1 C 0.3340(2) 0.74312(19) 0.89977(17)
C2 C 0.3638(3) 0.6558(2) 0.6765(2)
H1 H 0.3095 0.6009 0.6157
C3 C 0.5620(3) 0.7281(2) 0.61289(19)
H2 H 0.6422 0.7236 0.5109
C4 C 0.6357(3) 0.8070(2) 0.7069(2)
H3 H 0.7702 0.8562 0.6671
C5 C 0.2575(3) 0.8247(2) 1.16196(19)
H4 H 0.3898 0.8746 1.1478
C6 C 0.0005(3) 0.6975(2) 1.12413(19)
H5 H -0.0795 0.6422 1.0787
loop_
_geom_bond_atom_site_label_1
_geom_bond_atom_site_label_2
_geom_bond_site_symmetry_1
_geom_bond_site_symmetry_2
N1 C1 1_555 1_555
N2 C1 1_555 1_555
N3 C1 1_555 1_555
N4 N5 1_555 1_555
N5 C6 1_555 1_555
C2 N2 1_555 1_555
H1 C2 1_555 1_555
C3 C2 1_555 1_555
H2 C3 1_555 1_555
C4 N1 1_555 1_555
H3 C4 1_555 1_555
C5 N3 1_555 1_555
H4 C5 1_555 1_555
C6 N3 1_555 1_555
H5 C6 1_555 1_555
N4 C5 1_555 1_555
C3 C4 1_555 1_555

#END
