
#######################################################################
#
#                 Cambridge Crystallographic Data Centre
#                                CCDC 
#
#######################################################################
#
# If this CIF has been generated from an entry in the Cambridge 
# Structural Database, then it will include bibliographic, chemical, 
# crystal, experimental, refinement or atomic coordinate data resulting 
# from the CCDC's data processing and validation procedures.
#
#######################################################################

data_SAFWAA
_chemical_compound_source        'Phoma sp. fungus'
_chemical_formula_moiety         'C32 H40 O8,0.71(H2 O1)'
_chemical_name_systematic        
"(13',16'-Dihydroxy-3,4a',8',8',11',15a'-hexamethyl-5-oxo-4a',5',8',9',9a',10',15a',16',17',17a'-decahydro-1'H,5H-spiro[furan-2,2'-pyrano[2',3':8,9]cycloundeca[1,2-b]chromen]-3'-ylidene)acetic acid hydrate"
_symmetry_cell_setting           orthorhombic
_symmetry_space_group_name_H-M   'P 21 21 21'
_symmetry_Int_Tables_number      19
_space_group_name_Hall           'P 2ac 2ab'
loop_
_symmetry_equiv_pos_site_id
_symmetry_equiv_pos_as_xyz
1 x,y,z
2 1/2-x,-y,1/2+z
3 1/2+x,1/2-y,-z
4 -x,1/2+y,1/2-z
_cell_length_a                   10.0518(2)
_cell_length_b                   13.1222(2)
_cell_length_c                   21.7957(5)
_cell_angle_alpha                90
_cell_angle_beta                 90
_cell_angle_gamma                90
_cell_volume                     2874.89
_cell_formula_units_Z            4
loop_
_atom_site_label
_atom_site_type_symbol
_atom_site_fract_x
_atom_site_fract_y
_atom_site_fract_z
O1 O -0.45351(11) -0.80665(8) -0.11141(5)
O2 O -0.65453(11) -0.68934(9) -0.07304(5)
H1 H -0.6803 -0.7363 -0.0964
O3 O -0.78537(12) -0.35249(9) -0.14635(5)
O4 O -0.95220(12) -0.30349(10) -0.23289(6)
H2 H -0.8803 -0.3221 -0.2167
O5 O -0.79111(11) -0.29568(9) -0.01585(5)
O6 O -0.35653(13) -1.14408(9) -0.16186(6)
H3 H -0.2933 -1.1849 -0.1675
O7 O -1.15672(12) -0.26874(9) -0.20474(6)
O8 O -0.83083(13) -0.18028(10) 0.05771(6)
C1 C -0.35349(17) -0.87684(13) -0.12027(7)
C2 C -0.21810(17) -0.85276(13) -0.11823(7)
C3 C -1.04533(17) -0.29573(12) -0.18993(8)
C4 C -0.85895(16) -0.38424(12) -0.04129(7)
C5 C -0.52904(16) -0.53498(12) -0.07102(7)
H4 H -0.4464 -0.5035 -0.0868
H5 H -0.5179 -0.5429 -0.0261
C6 C -0.39840(17) -0.97444(13) -0.13384(7)
H6 H -0.4911 -0.9886 -0.1348
C7 C -0.30715(18) -1.05103(13) -0.14596(8)
C8 C -0.49279(17) -0.48345(13) -0.21672(7)
H7 H -0.5318 -0.5353 -0.2413
C9 C -0.27437(16) -0.57459(13) -0.22969(7)
C10 C -0.98155(16) -0.39603(12) -0.00159(7)
C11 C -0.77457(17) -0.52781(13) -0.17744(7)
H8 H -0.8020 -0.5074 -0.2188
H9 H -0.8536 -0.5407 -0.1523
H10 H -0.7209 -0.5900 -0.1798
C12 C -0.76392(16) -0.47592(13) -0.03922(7)
H11 H -0.7321 -0.4862 0.0033
H12 H -0.8120 -0.5382 -0.0521
C13 C -0.12729(16) -0.54764(13) -0.21871(8)
H13 H -0.1137 -0.5318 -0.1752
H14 H -0.1032 -0.4883 -0.2436
H15 H -0.0713 -0.6057 -0.2303
C14 C -0.36286(17) -0.48785(12) -0.20718(7)
H16 H -0.3223 -0.4338 -0.1850
C15 C -0.38490(18) -0.71806(13) -0.01951(8)
H17 H -0.3288 -0.7781 -0.0127
H18 H -0.4686 -0.7259 0.0030
H19 H -0.3384 -0.6570 -0.0049
C16 C -0.17478(16) -0.74321(13) -0.10843(8)
H20 H -0.0971 -0.7277 -0.1348
H21 H -0.1484 -0.7330 -0.0651
C17 C -0.98460(17) -0.31990(13) 0.03849(8)
H22 H -1.0530 -0.3088 0.0678
C18 C -0.53969(16) -0.64156(12) -0.09877(7)
H23 H -0.5534 -0.6345 -0.1440
C19 C -0.41418(16) -0.70731(12) -0.08785(8)
C20 C -1.01148(17) -0.32287(12) -0.12611(8)
H24 H -1.0798 -0.3175 -0.0961
C21 C -0.31304(15) -0.67322(12) -0.19516(7)
H25 H -0.2610 -0.7304 -0.2126
H26 H -0.4082 -0.6875 -0.2032
C22 C -0.64445(15) -0.45827(12) -0.08187(7)
H27 H -0.6077 -0.3906 -0.0693
C23 C -0.86669(17) -0.25552(13) 0.03071(8)
C24 C -0.89094(17) -0.35460(12) -0.10724(8)
C25 C -1.07570(17) -0.48346(13) -0.00847(8)
H28 H -1.0346 -0.5454 0.0080
H29 H -1.0964 -0.4934 -0.0520
H30 H -1.1578 -0.4689 0.0141
C26 C -0.17130(18) -1.03020(14) -0.14225(8)
H31 H -0.1086 -1.0831 -0.1492
C27 C -0.29449(17) -0.59391(13) -0.29870(8)
H32 H -0.2305 -0.6451 -0.3128
H33 H -0.2807 -0.5303 -0.3213
H34 H -0.3851 -0.6186 -0.3059
C28 C -0.58316(17) -0.40225(13) -0.19145(8)
H35 H -0.6258 -0.3661 -0.2261
H36 H -0.5287 -0.3520 -0.1687
C29 C -0.12690(17) -0.93204(14) -0.12842(7)
C30 C -0.29110(16) -0.67159(12) -0.12466(7)
H37 H -0.2677 -0.6007 -0.1118
C31 C -0.69252(16) -0.44290(12) -0.14850(8)
C32 C 0.02040(18) -0.91188(15) -0.12635(8)
H38 H 0.0421 -0.8741 -0.0889
H39 H 0.0464 -0.8716 -0.1623
H40 H 0.0686 -0.9768 -0.1265
O9 O -0.7038(2) -0.80127(16) -0.18141(9)
H41 H -0.6282(17) -0.828(2) -0.1914(13)
H42 H -0.752(3) -0.796(3) -0.2143(9)
loop_
_geom_bond_atom_site_label_1
_geom_bond_atom_site_label_2
_geom_bond_site_symmetry_1
_geom_bond_site_symmetry_2
O1 C1 1_555 1_555
O2 H1 1_555 1_555
O3 C24 1_555 1_555
O4 H2 1_555 1_555
O5 C4 1_555 1_555
O6 H3 1_555 1_555
O7 C3 1_555 1_555
O8 C23 1_555 1_555
C1 C2 1_555 1_555
C2 C16 1_555 1_555
C3 O4 1_555 1_555
C4 C10 1_555 1_555
C5 H4 1_555 1_555
H5 C5 1_555 1_555
C6 C1 1_555 1_555
H6 C6 1_555 1_555
C7 O6 1_555 1_555
C8 H7 1_555 1_555
C9 C13 1_555 1_555
C10 C17 1_555 1_555
C11 H8 1_555 1_555
H9 C11 1_555 1_555
H10 C11 1_555 1_555
C12 C4 1_555 1_555
H11 C12 1_555 1_555
H12 C12 1_555 1_555
C13 H13 1_555 1_555
H14 C13 1_555 1_555
H15 C13 1_555 1_555
C14 C8 1_555 1_555
H16 C14 1_555 1_555
C15 H17 1_555 1_555
H18 C15 1_555 1_555
H19 C15 1_555 1_555
C16 H20 1_555 1_555
H21 C16 1_555 1_555
C17 H22 1_555 1_555
C18 O2 1_555 1_555
H23 C18 1_555 1_555
C19 O1 1_555 1_555
C20 C3 1_555 1_555
H24 C20 1_555 1_555
C21 C9 1_555 1_555
H25 C21 1_555 1_555
H26 C21 1_555 1_555
C22 C5 1_555 1_555
H27 C22 1_555 1_555
C23 O5 1_555 1_555
C24 C4 1_555 1_555
C25 C10 1_555 1_555
H28 C25 1_555 1_555
H29 C25 1_555 1_555
H30 C25 1_555 1_555
C26 C7 1_555 1_555
H31 C26 1_555 1_555
C27 C9 1_555 1_555
H32 C27 1_555 1_555
H33 C27 1_555 1_555
H34 C27 1_555 1_555
C28 C8 1_555 1_555
H35 C28 1_555 1_555
H36 C28 1_555 1_555
C29 C2 1_555 1_555
C30 C16 1_555 1_555
H37 C30 1_555 1_555
C31 O3 1_555 1_555
C32 C29 1_555 1_555
H38 C32 1_555 1_555
H39 C32 1_555 1_555
H40 C32 1_555 1_555
O9 H41 1_555 1_555
H42 O9 1_555 1_555
C5 C18 1_555 1_555
C6 C7 1_555 1_555
C9 C14 1_555 1_555
C11 C31 1_555 1_555
C12 C22 1_555 1_555
C15 C19 1_555 1_555
C17 C23 1_555 1_555
C18 C19 1_555 1_555
C19 C30 1_555 1_555
C20 C24 1_555 1_555
C21 C30 1_555 1_555
C22 C31 1_555 1_555
C26 C29 1_555 1_555
C28 C31 1_555 1_555

#END
