
#######################################################################
#
#                 Cambridge Crystallographic Data Centre
#                                CCDC 
#
#######################################################################
#
# If this CIF has been generated from an entry in the Cambridge 
# Structural Database, then it will include bibliographic, chemical, 
# crystal, experimental, refinement or atomic coordinate data resulting 
# from the CCDC's data processing and validation procedures.
#
#######################################################################

data_SAGBOT
_chemical_formula_moiety         'C22 H22 F1 N3'
_chemical_name_systematic        
(Z)-1,1-Dicyano-2-(4-fluorophenyl)-3-(1-hexylpyridin-1-ium-4-yl)prop-2-en-1-ide
_symmetry_cell_setting           monoclinic
_symmetry_space_group_name_H-M   'P 21/c'
_symmetry_Int_Tables_number      14
_space_group_name_Hall           '-P 2ybc'
loop_
_symmetry_equiv_pos_site_id
_symmetry_equiv_pos_as_xyz
1 x,y,z
2 -x,1/2+y,1/2-z
3 -x,-y,-z
4 x,1/2-y,1/2+z
_cell_length_a                   10.485(3)
_cell_length_b                   8.809(2)
_cell_length_c                   21.313(5)
_cell_angle_alpha                90
_cell_angle_beta                 100.628(4)
_cell_angle_gamma                90
_cell_volume                     1934.75
_exptl_crystal_colour            red
_exptl_crystal_description       prism
_cell_formula_units_Z            4
loop_
_atom_site_label
_atom_site_type_symbol
_atom_site_fract_x
_atom_site_fract_y
_atom_site_fract_z
F1 F 0.00950(11) 0.32278(14) 0.14713(6)
N1 N 0.52466(16) 0.0019(2) 0.21926(7)
N2 N 0.79360(16) 0.0489(2) 0.08676(7)
N3 N 0.31701(13) 0.49453(16) -0.14317(6)
C1 C 0.12274(18) 0.2874(2) 0.12778(9)
C2 C 0.11792(17) 0.1996(2) 0.07511(9)
H1 H 0.0392 0.1629 0.0530
C3 C 0.23295(17) 0.16598(19) 0.05513(8)
H2 H 0.2314 0.1067 0.0189
C4 C 0.35090(15) 0.21967(18) 0.08855(7)
C5 C 0.34999(16) 0.30647(19) 0.14272(8)
H3 H 0.4282 0.3411 0.1662
C6 C 0.23523(19) 0.3429(2) 0.16267(8)
H4 H 0.2349 0.4029 0.1985
C7 C 0.47440(15) 0.17940(18) 0.06776(7)
C8 C 0.56746(16) 0.10162(19) 0.11230(7)
C9 C 0.54269(17) 0.0483(2) 0.17131(9)
C10 C 0.6924(2) 0.0696(2) 0.09897(8)
C11 C 0.49704(15) 0.21053(18) 0.00714(7)
H5 H 0.5680 0.1601 -0.0035
C12 C 0.43029(15) 0.30640(18) -0.04143(7)
C13 C 0.33424(16) 0.4152(2) -0.03586(8)
H6 H 0.3067 0.4261 0.0030
C14 C 0.28129(16) 0.5040(2) -0.08563(8)
H7 H 0.2180 0.5740 -0.0800
C15 C 0.46572(16) 0.30234(19) -0.10225(8)
H8 H 0.5303 0.2353 -0.1091
C16 C 0.40928(17) 0.3923(2) -0.15072(8)
H9 H 0.4343 0.3838 -0.1902
C17 C 0.25548(16) 0.5900(2) -0.19749(8)
H10 H 0.3214 0.6252 -0.2206
H11 H 0.2167 0.6784 -0.1814
C18 C 0.15272(17) 0.5044(2) -0.24250(8)
H12 H 0.0928 0.4587 -0.2183
H13 H 0.1935 0.4231 -0.2623
C19 C 0.07691(18) 0.6055(2) -0.29453(8)
H14 H 0.0074 0.5459 -0.3192
H15 H 0.0372 0.6869 -0.2743
C20 C 0.15573(18) 0.6746(2) -0.33983(8)
H16 H 0.2031 0.5948 -0.3569
H17 H 0.2187 0.7443 -0.3164
C21 C 0.07270(19) 0.7591(3) -0.39474(9)
H18 H 0.0056 0.6915 -0.4162
H19 H 0.0303 0.8436 -0.3778
C22 C 0.1496(2) 0.8187(2) -0.44271(9)
H20 H 0.2180 0.8831 -0.4215
H21 H 0.0935 0.8757 -0.4750
H22 H 0.1863 0.7350 -0.4622
loop_
_geom_bond_atom_site_label_1
_geom_bond_atom_site_label_2
_geom_bond_site_symmetry_1
_geom_bond_site_symmetry_2
F1 C1 1_555 1_555
N1 C9 1_555 1_555
N2 C10 1_555 1_555
N3 C14 1_555 1_555
C1 C2 1_555 1_555
C2 H1 1_555 1_555
C3 C2 1_555 1_555
H2 C3 1_555 1_555
C4 C3 1_555 1_555
C5 C4 1_555 1_555
H3 C5 1_555 1_555
C6 C1 1_555 1_555
H4 C6 1_555 1_555
C7 C4 1_555 1_555
C8 C7 1_555 1_555
C9 C8 1_555 1_555
C10 C8 1_555 1_555
C11 C7 1_555 1_555
H5 C11 1_555 1_555
C12 C11 1_555 1_555
C13 C12 1_555 1_555
H6 C13 1_555 1_555
C14 C13 1_555 1_555
H7 C14 1_555 1_555
C15 C12 1_555 1_555
H8 C15 1_555 1_555
C16 N3 1_555 1_555
H9 C16 1_555 1_555
C17 N3 1_555 1_555
H10 C17 1_555 1_555
H11 C17 1_555 1_555
C18 C17 1_555 1_555
H12 C18 1_555 1_555
H13 C18 1_555 1_555
C19 C18 1_555 1_555
H14 C19 1_555 1_555
H15 C19 1_555 1_555
C20 C19 1_555 1_555
H16 C20 1_555 1_555
H17 C20 1_555 1_555
C21 C20 1_555 1_555
H18 C21 1_555 1_555
H19 C21 1_555 1_555
C22 C21 1_555 1_555
H20 C22 1_555 1_555
H21 C22 1_555 1_555
H22 C22 1_555 1_555
C5 C6 1_555 1_555
C15 C16 1_555 1_555

#END
