
#######################################################################
#
#                 Cambridge Crystallographic Data Centre
#                                CCDC 
#
#######################################################################
#
# If this CIF has been generated from an entry in the Cambridge 
# Structural Database, then it will include bibliographic, chemical, 
# crystal, experimental, refinement or atomic coordinate data resulting 
# from the CCDC's data processing and validation procedures.
#
#######################################################################

data_SAGBIN
_chemical_formula_moiety         'C26 H20 N2 O2'
_chemical_name_systematic        1,2-bis(3-phenoxybenzylidene)hydrazine
_symmetry_cell_setting           monoclinic
_symmetry_space_group_name_H-M   'C 2/c'
_symmetry_Int_Tables_number      15
_space_group_name_Hall           '-C 2yn'
loop_
_symmetry_equiv_pos_site_id
_symmetry_equiv_pos_as_xyz
1 x,y,z
2 -x,y,1/2-z
3 1/2+x,1/2+y,z
4 1/2-x,1/2+y,1/2-z
5 -x,-y,-z
6 x,-y,1/2+z
7 1/2-x,1/2-y,-z
8 1/2+x,1/2-y,1/2+z
_cell_length_a                   23.6271(16)
_cell_length_b                   11.2942(6)
_cell_length_c                   8.2359(7)
_cell_angle_alpha                90
_cell_angle_beta                 109.538(8)
_cell_angle_gamma                90
_cell_volume                     2071.2
_exptl_crystal_colour            yellow
_exptl_crystal_description       plate
_cell_formula_units_Z            4
loop_
_atom_site_label
_atom_site_type_symbol
_atom_site_fract_x
_atom_site_fract_y
_atom_site_fract_z
O1 O 0.28415(5) 0.56492(12) 0.14723(17)
N1 N 0.02329(6) 0.53855(12) 0.04610(19)
C1 C 0.36654(9) 0.54126(16) 0.4051(2)
H1 H 0.3467 0.4787 0.4361
C2 C 0.42338(10) 0.5731(2) 0.5077(3)
H2 H 0.4421 0.5321 0.6096
C3 C 0.45254(9) 0.6644(2) 0.4612(3)
H3 H 0.4911 0.6854 0.5310
C4 C 0.42510(10) 0.7249(2) 0.3120(3)
H4 H 0.4450 0.7870 0.2802
C5 C 0.36825(9) 0.69433(15) 0.2091(2)
H5 H 0.3493 0.7355 0.1076
C6 C 0.33985(7) 0.60286(14) 0.2574(2)
C7 C 0.23306(7) 0.60721(15) 0.1737(2)
C8 C 0.23209(7) 0.70730(14) 0.2691(2)
H6 H 0.2672 0.7497 0.3218
C9 C 0.17840(8) 0.74360(15) 0.2851(2)
H7 H 0.1776 0.8111 0.3491
C10 C 0.12623(7) 0.68200(14) 0.2084(2)
H8 H 0.0905 0.7071 0.2213
C11 C 0.12717(7) 0.58123(13) 0.1108(2)
C12 C 0.18101(7) 0.54480(14) 0.0936(2)
H9 H 0.1820 0.4783 0.0281
C13 C 0.07271(7) 0.51346(15) 0.0257(2)
H10 H 0.0743 0.4504 -0.0452
O1D O -0.28415(5) 0.43508(12) -0.14723(17)
N1D N -0.02329(6) 0.46145(12) -0.04610(19)
C1D C -0.36654(9) 0.45874(16) -0.4051(2)
H1D H -0.3467 0.5213 -0.4361
C2D C -0.42338(10) 0.4269(2) -0.5077(3)
H2D H -0.4421 0.4679 -0.6096
C3D C -0.45254(9) 0.3356(2) -0.4612(3)
H3D H -0.4911 0.3146 -0.5310
C4D C -0.42510(10) 0.2751(2) -0.3120(3)
H4D H -0.4450 0.2130 -0.2802
C5D C -0.36825(9) 0.30567(15) -0.2091(2)
H5D H -0.3493 0.2645 -0.1076
C6D C -0.33985(7) 0.39714(14) -0.2574(2)
C7D C -0.23306(7) 0.39279(15) -0.1737(2)
C8D C -0.23209(7) 0.29270(14) -0.2691(2)
H6D H -0.2672 0.2503 -0.3218
C9D C -0.17840(8) 0.25640(15) -0.2851(2)
H7D H -0.1776 0.1889 -0.3491
C10D C -0.12623(7) 0.31800(14) -0.2084(2)
H8D H -0.0905 0.2929 -0.2213
C11D C -0.12717(7) 0.41877(13) -0.1108(2)
C12D C -0.18101(7) 0.45520(14) -0.0936(2)
H9D H -0.1820 0.5217 -0.0281
C13D C -0.07271(7) 0.48654(15) -0.0257(2)
H10D H -0.0743 0.5496 0.0452
loop_
_geom_bond_atom_site_label_1
_geom_bond_atom_site_label_2
_geom_bond_site_symmetry_1
_geom_bond_site_symmetry_2
O1 C6 1_555 1_555
N1 C13 1_555 1_555
C1 H1 1_555 1_555
C2 C1 1_555 1_555
H2 C2 1_555 1_555
C3 C2 1_555 1_555
H3 C3 1_555 1_555
C4 C3 1_555 1_555
H4 C4 1_555 1_555
C5 C4 1_555 1_555
H5 C5 1_555 1_555
C6 C1 1_555 1_555
C7 O1 1_555 1_555
C8 C7 1_555 1_555
H6 C8 1_555 1_555
C9 C8 1_555 1_555
H7 C9 1_555 1_555
C10 C9 1_555 1_555
H8 C10 1_555 1_555
C11 C10 1_555 1_555
C12 C7 1_555 1_555
H9 C12 1_555 1_555
C13 C11 1_555 1_555
H10 C13 1_555 1_555
O1D C6D 1_555 1_555
N1D N1 1_555 1_555
C1D H1D 1_555 1_555
C2D C1D 1_555 1_555
H2D C2D 1_555 1_555
C3D C2D 1_555 1_555
H3D C3D 1_555 1_555
C4D C3D 1_555 1_555
H4D C4D 1_555 1_555
C5D C4D 1_555 1_555
H5D C5D 1_555 1_555
C6D C1D 1_555 1_555
C7D O1D 1_555 1_555
C8D C7D 1_555 1_555
H6D C8D 1_555 1_555
C9D C8D 1_555 1_555
H7D C9D 1_555 1_555
C10D C9D 1_555 1_555
H8D C10D 1_555 1_555
C11D C10D 1_555 1_555
C12D C7D 1_555 1_555
H9D C12D 1_555 1_555
C13D N1D 1_555 1_555
H10D C13D 1_555 1_555
C5 C6 1_555 1_555
C11 C12 1_555 1_555
C5D C6D 1_555 1_555
C11D C12D 1_555 1_555
C11D C13D 1_555 1_555

#END
