
#######################################################################
#
#                 Cambridge Crystallographic Data Centre
#                                CCDC 
#
#######################################################################
#
# If this CIF has been generated from an entry in the Cambridge 
# Structural Database, then it will include bibliographic, chemical, 
# crystal, experimental, refinement or atomic coordinate data resulting 
# from the CCDC's data processing and validation procedures.
#
#######################################################################

data_SAGDIQ
_chemical_formula_moiety         'C60 H40 P2'
_chemical_name_systematic        
1,1'-binaphthalene-2,2'-diylbis(di-2-naphthylphosphine)
_symmetry_cell_setting           monoclinic
_symmetry_space_group_name_H-M   'C 2'
_symmetry_Int_Tables_number      5
_space_group_name_Hall           'C 2y'
loop_
_symmetry_equiv_pos_site_id
_symmetry_equiv_pos_as_xyz
1 x,y,z
2 -x,y,-z
3 1/2+x,1/2+y,z
4 1/2-x,1/2+y,-z
_cell_length_a                   19.756(11)
_cell_length_b                   10.922(6)
_cell_length_c                   10.065(5)
_cell_angle_alpha                90
_cell_angle_beta                 92.043(7)
_cell_angle_gamma                90
_cell_volume                     2170.4
_exptl_crystal_colour            colorless
_exptl_crystal_description       platelet
_cell_formula_units_Z            2
loop_
_atom_site_label
_atom_site_type_symbol
_atom_site_fract_x
_atom_site_fract_y
_atom_site_fract_z
P1 P 0.40824(2) 0.70088(4) 0.59724(4)
C1 C 0.28646(9) 0.80053(17) 0.90850(18)
H1 H 0.2818 0.7812 0.9997
C2 C 0.33426(9) 0.74056(17) 0.83728(17)
H2 H 0.3628 0.6816 0.8804
C3 C 0.25097(9) 0.91682(17) 0.70987(18)
C4 C 0.29970(9) 0.85081(18) 0.63809(17)
H3 H 0.3034 0.8658 0.5457
C5 C 0.48096(9) 0.79252(16) 0.65984(17)
C6 C 0.51088(8) 0.87229(15) 0.57236(16)
C7 C 0.55904(9) 0.85782(18) 0.83909(18)
H4 H 0.5757 0.8508 0.9284
C8 C 0.56420(9) 0.95308(16) 0.61797(18)
C9 C 0.50583(9) 0.78584(17) 0.79499(17)
H5 H 0.4853 0.7310 0.8548
C10 C 0.37491(10) 0.47275(17) 0.70463(18)
H6 H 0.3295 0.5013 0.6981
C11 C 0.58934(9) 0.94282(17) 0.75224(17)
C12 C 0.34173(9) 0.76547(16) 0.69933(17)
C13 C 0.45583(11) 0.31006(18) 0.7585(2)
C14 C 0.59260(10) 1.04223(18) 0.53375(19)
H7 H 0.5761 1.0498 0.4443
C15 C 0.64348(10) 1.02054(19) 0.7957(2)
H8 H 0.6615 1.0134 0.8842
C16 C 0.24389(9) 0.89105(17) 0.84814(18)
C17 C 0.66990(11) 1.1051(2) 0.7126(2)
H9 H 0.7061 1.1561 0.7434
C18 C 0.42616(10) 0.55025(17) 0.67124(19)
C19 C 0.16702(10) 1.0781(2) 0.7227(2)
H10 H 0.1423 1.1438 0.6825
C20 C 0.41806(14) 0.11471(19) 0.8444(2)
H11 H 0.4276 0.0351 0.8781
C21 C 0.19547(10) 0.95839(19) 0.91987(19)
H12 H 0.1892 0.9405 1.0110
C22 C 0.64365(10) 1.1175(2) 0.5806(2)
H13 H 0.6615 1.1782 0.5241
C23 C 0.49387(10) 0.50559(19) 0.6765(2)
H14 H 0.5295 0.5572 0.6495
C24 C 0.15790(10) 1.0487(2) 0.8586(2)
H15 H 0.1254 1.0922 0.9073
C25 C 0.46981(13) 0.1894(2) 0.8077(2)
H16 H 0.5152 0.1610 0.8149
C26 C 0.38772(10) 0.35076(19) 0.74875(19)
C27 C 0.35003(14) 0.1564(2) 0.8320(2)
H17 H 0.3143 0.1041 0.8573
C28 C 0.21130(10) 1.01190(19) 0.64990(19)
H18 H 0.2156 1.0296 0.5582
C29 C 0.33532(11) 0.27064(19) 0.7841(2)
H19 H 0.2895 0.2964 0.7745
C30 C 0.50850(11) 0.3890(2) 0.7200(2)
H20 H 0.5541 0.3613 0.7243
P1A P 0.59176(2) 0.70088(4) 0.40276(4)
C1A C 0.71354(9) 0.80053(17) 0.09150(18)
H1A H 0.7182 0.7812 0.0003
C2A C 0.66574(9) 0.74056(17) 0.16272(17)
H2A H 0.6372 0.6816 0.1196
C3A C 0.74903(9) 0.91682(17) 0.29013(18)
C4A C 0.70030(9) 0.85081(18) 0.36191(17)
H3A H 0.6966 0.8658 0.4543
C5A C 0.51904(9) 0.79252(16) 0.34016(17)
C6A C 0.48912(8) 0.87229(15) 0.42764(16)
C7A C 0.44096(9) 0.85782(18) 0.16091(18)
H4A H 0.4243 0.8508 0.0716
C8A C 0.43580(9) 0.95308(16) 0.38203(18)
C9A C 0.49417(9) 0.78584(17) 0.20501(17)
H5A H 0.5147 0.7310 0.1452
C10A C 0.62509(10) 0.47275(17) 0.29537(18)
H6A H 0.6705 0.5013 0.3019
C11A C 0.41066(9) 0.94282(17) 0.24776(17)
C12A C 0.65827(9) 0.76547(16) 0.30067(17)
C13A C 0.54417(11) 0.31006(18) 0.2415(2)
C14A C 0.40740(10) 1.04223(18) 0.46625(19)
H7A H 0.4239 1.0498 0.5557
C15A C 0.35652(10) 1.02054(19) 0.2043(2)
H8A H 0.3385 1.0134 0.1158
C16A C 0.75611(9) 0.89105(17) 0.15186(18)
C17A C 0.33010(11) 1.1051(2) 0.2874(2)
H9A H 0.2939 1.1561 0.2566
C18A C 0.57384(10) 0.55025(17) 0.32876(19)
C19A C 0.83298(10) 1.0781(2) 0.2773(2)
H10A H 0.8577 1.1438 0.3175
C20A C 0.58194(14) 0.11471(19) 0.1556(2)
H11A H 0.5724 0.0351 0.1219
C21A C 0.80453(10) 0.95839(19) 0.08013(19)
H12A H 0.8108 0.9405 -0.0110
C22A C 0.35635(10) 1.1175(2) 0.4194(2)
H13A H 0.3385 1.1782 0.4759
C23A C 0.50613(10) 0.50559(19) 0.3235(2)
H14A H 0.4705 0.5572 0.3505
C24A C 0.84210(10) 1.0487(2) 0.1414(2)
H15A H 0.8746 1.0922 0.0927
C25A C 0.53019(13) 0.1894(2) 0.1923(2)
H16A H 0.4848 0.1610 0.1851
C26A C 0.61228(10) 0.35076(19) 0.25125(19)
C27A C 0.64997(14) 0.1564(2) 0.1680(2)
H17A H 0.6857 0.1041 0.1427
C28A C 0.78870(10) 1.01190(19) 0.35010(19)
H18A H 0.7844 1.0296 0.4418
C29A C 0.66468(11) 0.27064(19) 0.2159(2)
H19A H 0.7105 0.2964 0.2255
C30A C 0.49150(11) 0.3890(2) 0.2800(2)
H20A H 0.4459 0.3613 0.2757
loop_
_geom_bond_atom_site_label_1
_geom_bond_atom_site_label_2
_geom_bond_site_symmetry_1
_geom_bond_site_symmetry_2
P1 C5 1_555 1_555
C1 H1 1_555 1_555
C2 C1 1_555 1_555
H2 C2 1_555 1_555
C3 C4 1_555 1_555
C4 H3 1_555 1_555
C5 C6 1_555 1_555
C6 C8 1_555 1_555
C7 H4 1_555 1_555
C8 C11 1_555 1_555
C9 C5 1_555 1_555
H5 C9 1_555 1_555
C10 H6 1_555 1_555
C11 C7 1_555 1_555
C12 P1 1_555 1_555
C13 C25 1_555 1_555
C14 C8 1_555 1_555
H7 C14 1_555 1_555
C15 C11 1_555 1_555
H8 C15 1_555 1_555
C16 C1 1_555 1_555
C17 C15 1_555 1_555
H9 C17 1_555 1_555
C18 P1 1_555 1_555
C19 H10 1_555 1_555
C20 H11 1_555 1_555
C21 C16 1_555 1_555
H12 C21 1_555 1_555
C22 C14 1_555 1_555
H13 C22 1_555 1_555
C23 C18 1_555 1_555
H14 C23 1_555 1_555
C24 C19 1_555 1_555
H15 C24 1_555 1_555
C25 C20 1_555 1_555
H16 C25 1_555 1_555
C26 C10 1_555 1_555
C27 C20 1_555 1_555
H17 C27 1_555 1_555
C28 C3 1_555 1_555
H18 C28 1_555 1_555
C29 C26 1_555 1_555
H19 C29 1_555 1_555
C30 C13 1_555 1_555
H20 C30 1_555 1_555
P1A C5A 1_555 1_555
C1A H1A 1_555 1_555
C2A C1A 1_555 1_555
H2A C2A 1_555 1_555
C3A C4A 1_555 1_555
C4A H3A 1_555 1_555
C5A C6A 1_555 1_555
C6A C6 1_555 1_555
C7A H4A 1_555 1_555
C8A C6A 1_555 1_555
C9A C5A 1_555 1_555
H5A C9A 1_555 1_555
C10A H6A 1_555 1_555
C11A C7A 1_555 1_555
C12A P1A 1_555 1_555
C13A C25A 1_555 1_555
C14A C8A 1_555 1_555
H7A C14A 1_555 1_555
C15A C11A 1_555 1_555
H8A C15A 1_555 1_555
C16A C1A 1_555 1_555
C17A C15A 1_555 1_555
H9A C17A 1_555 1_555
C18A P1A 1_555 1_555
C19A H10A 1_555 1_555
C20A H11A 1_555 1_555
C21A C16A 1_555 1_555
H12A C21A 1_555 1_555
C22A C14A 1_555 1_555
H13A C22A 1_555 1_555
C23A C18A 1_555 1_555
H14A C23A 1_555 1_555
C24A C19A 1_555 1_555
H15A C24A 1_555 1_555
C25A C20A 1_555 1_555
H16A C25A 1_555 1_555
C26A C10A 1_555 1_555
C27A C20A 1_555 1_555
H17A C27A 1_555 1_555
C28A C3A 1_555 1_555
H18A C28A 1_555 1_555
C29A C26A 1_555 1_555
H19A C29A 1_555 1_555
C30A C13A 1_555 1_555
H20A C30A 1_555 1_555
C2 C12 1_555 1_555
C3 C16 1_555 1_555
C4 C12 1_555 1_555
C7 C9 1_555 1_555
C10 C18 1_555 1_555
C13 C26 1_555 1_555
C17 C22 1_555 1_555
C19 C28 1_555 1_555
C21 C24 1_555 1_555
C23 C30 1_555 1_555
C27 C29 1_555 1_555
C2A C12A 1_555 1_555
C3A C16A 1_555 1_555
C4A C12A 1_555 1_555
C7A C9A 1_555 1_555
C8A C11A 1_555 1_555
C10A C18A 1_555 1_555
C13A C26A 1_555 1_555
C17A C22A 1_555 1_555
C19A C28A 1_555 1_555
C21A C24A 1_555 1_555
C23A C30A 1_555 1_555
C27A C29A 1_555 1_555

#END
