
#######################################################################
#
#                 Cambridge Crystallographic Data Centre
#                                CCDC 
#
#######################################################################
#
# If this CIF has been generated from an entry in the Cambridge 
# Structural Database, then it will include bibliographic, chemical, 
# crystal, experimental, refinement or atomic coordinate data resulting 
# from the CCDC's data processing and validation procedures.
#
#######################################################################

data_SAGDUB
_chemical_formula_moiety         'C16 H18 F1 N3 O2 S2'
_chemical_name_systematic        
'2-(5-Fluoro-2,3-dioxo-2,3-dihydro-1H-indol-1-yl)ethyl 4-methylpiperazine-1-carbodithioate'
_symmetry_cell_setting           monoclinic
_symmetry_space_group_name_H-M   'P 21/n'
_symmetry_Int_Tables_number      14
_space_group_name_Hall           '-P 2yn'
loop_
_symmetry_equiv_pos_site_id
_symmetry_equiv_pos_as_xyz
1 x,y,z
2 1/2-x,1/2+y,1/2-z
3 -x,-y,-z
4 1/2+x,1/2-y,1/2+z
_cell_length_a                   10.0258(4)
_cell_length_b                   15.9925(6)
_cell_length_c                   11.0016(5)
_cell_angle_alpha                90
_cell_angle_beta                 106.656(3)
_cell_angle_gamma                90
_cell_volume                     1689.96
_exptl_crystal_colour            colorless
_exptl_crystal_description       block
_cell_formula_units_Z            4
loop_
_atom_site_label
_atom_site_type_symbol
_atom_site_fract_x
_atom_site_fract_y
_atom_site_fract_z
S1 S 0.91389(4) 0.66656(2) 0.57656(4)
S2 S 0.69048(4) 0.53592(2) 0.54985(5)
N1 N 1.04768(13) 0.40980(8) 0.72003(13)
N2 N 0.64449(12) 0.69676(7) 0.54089(14)
N3 N 0.42553(14) 0.81754(8) 0.50085(14)
O1 O 1.22167(14) 0.21917(7) 0.75006(15)
O2 O 0.93355(12) 0.28341(8) 0.68042(13)
F1 F 1.60973(12) 0.46870(8) 0.86069(15)
C1 C 1.24078(19) 0.51646(9) 0.77343(17)
H1 H 1.1821 0.5626 0.7618
C2 C 1.3845(2) 0.52580(10) 0.80939(19)
H2 H 1.4233 0.5790 0.8224
C3 C 1.46982(18) 0.45705(11) 0.82584(19)
C4 C 1.41990(17) 0.37630(10) 0.80778(18)
H3 H 1.4793 0.3305 0.8192
C5 C 1.27711(16) 0.36716(9) 0.77186(16)
C6 C 1.19005(16) 0.29208(9) 0.74546(17)
C7 C 1.03847(16) 0.32457(10) 0.70982(17)
C8 C 1.18809(15) 0.43610(9) 0.75556(15)
C9 C 0.92604(17) 0.46265(11) 0.70586(17)
H4 H 0.9553 0.5161 0.7465
H5 H 0.8643 0.4365 0.7483
C10 C 0.84770(16) 0.47709(10) 0.56780(17)
H6 H 0.8247 0.4235 0.5257
H7 H 0.9073 0.5069 0.5269
C11 C 0.74743(15) 0.64129(9) 0.55535(15)
C12 C 0.50387(16) 0.67350(10) 0.5460(2)
H8 H 0.5005 0.6763 0.6331
H9 H 0.4842 0.6164 0.5168
C13 C 0.39430(17) 0.73083(11) 0.4648(2)
H10 H 0.3903 0.7235 0.3763
H11 H 0.3040 0.7163 0.4745
C14 C 0.55667(18) 0.83880(10) 0.47625(18)
H12 H 0.5765 0.8976 0.4946
H13 H 0.5482 0.8297 0.3872
C15 C 0.67565(16) 0.78703(9) 0.55582(18)
H14 H 0.7590 0.7989 0.5309
H15 H 0.6935 0.8024 0.6443
C16 C 0.3137(2) 0.87270(12) 0.4299(2)
H16 H 0.2276 0.8563 0.4449
H17 H 0.3051 0.8686 0.3410
H18 H 0.3350 0.9294 0.4575
loop_
_geom_bond_atom_site_label_1
_geom_bond_atom_site_label_2
_geom_bond_site_symmetry_1
_geom_bond_site_symmetry_2
S1 C11 1_555 1_555
S2 C10 1_555 1_555
N1 C7 1_555 1_555
N2 C11 1_555 1_555
N3 C13 1_555 1_555
O1 C6 1_555 1_555
O2 C7 1_555 1_555
F1 C3 1_555 1_555
C1 H1 1_555 1_555
C2 C1 1_555 1_555
H2 C2 1_555 1_555
C3 C2 1_555 1_555
C4 C3 1_555 1_555
H3 C4 1_555 1_555
C5 C4 1_555 1_555
C6 C5 1_555 1_555
C7 C6 1_555 1_555
C8 N1 1_555 1_555
C9 N1 1_555 1_555
H4 C9 1_555 1_555
H5 C9 1_555 1_555
C10 C9 1_555 1_555
H6 C10 1_555 1_555
H7 C10 1_555 1_555
C11 S2 1_555 1_555
C12 N2 1_555 1_555
H8 C12 1_555 1_555
H9 C12 1_555 1_555
C13 C12 1_555 1_555
H10 C13 1_555 1_555
H11 C13 1_555 1_555
C14 N3 1_555 1_555
H12 C14 1_555 1_555
H13 C14 1_555 1_555
C15 N2 1_555 1_555
H14 C15 1_555 1_555
H15 C15 1_555 1_555
C16 N3 1_555 1_555
H16 C16 1_555 1_555
H17 C16 1_555 1_555
H18 C16 1_555 1_555
C1 C8 1_555 1_555
C5 C8 1_555 1_555
C14 C15 1_555 1_555

#END
