
#######################################################################
#
#                 Cambridge Crystallographic Data Centre
#                                CCDC 
#
#######################################################################
#
# If this CIF has been generated from an entry in the Cambridge 
# Structural Database, then it will include bibliographic, chemical, 
# crystal, experimental, refinement or atomic coordinate data resulting 
# from the CCDC's data processing and validation procedures.
#
#######################################################################

data_SAGDOW
_chemical_formula_moiety         'C24 H19 N1 O4'
_chemical_name_systematic        
"3,3'-((phenylimino)di-4,1-phenylene)diacrylic acid"
_symmetry_cell_setting           orthorhombic
_symmetry_space_group_name_H-M   'P c c a'
_symmetry_Int_Tables_number      54
_space_group_name_Hall           '-P 2a 2ac'
loop_
_symmetry_equiv_pos_site_id
_symmetry_equiv_pos_as_xyz
1 x,y,z
2 1/2-x,-y,z
3 -x,y,1/2-z
4 1/2+x,-y,1/2-z
5 -x,-y,-z
6 1/2+x,y,-z
7 x,-y,1/2+z
8 1/2-x,y,1/2+z
_cell_length_a                   15.751(8)
_cell_length_b                   14.741(7)
_cell_length_c                   8.621(4)
_cell_angle_alpha                90
_cell_angle_beta                 90
_cell_angle_gamma                90
_cell_volume                     2001.67
_cell_formula_units_Z            4
loop_
_atom_site_label
_atom_site_type_symbol
_atom_site_fract_x
_atom_site_fract_y
_atom_site_fract_z
N1 N 0.5000 0.88172(14) 0.2500
O1 O 0.04071(9) 0.59321(11) 0.0879(2)
O2 O 0.10419(10) 0.50079(12) -0.0823(2)
H1 H 0.0568 0.4779 -0.0840
C1 C 0.27571(12) 0.73206(13) 0.1613(2)
C2 C 0.44607(12) 1.02623(13) 0.1522(2)
H2 H 0.4098 0.9952 0.0856
C3 C 0.5000 0.97807(16) 0.2500
C4 C 0.19764(13) 0.68092(13) 0.1328(3)
H3 H 0.1506 0.6971 0.1919
C5 C 0.42403(11) 0.83279(12) 0.2198(2)
C6 C 0.10479(14) 0.56781(13) 0.0143(3)
C7 C 0.44633(13) 1.11992(13) 0.1537(3)
H4 H 0.4097 1.1514 0.0885
C8 C 0.34636(12) 0.86030(13) 0.2805(2)
H5 H 0.3433 0.9126 0.3404
C9 C 0.27369(12) 0.81028(13) 0.2522(3)
H6 H 0.2224 0.8292 0.2947
C10 C 0.42669(12) 0.75478(13) 0.1288(3)
H7 H 0.4780 0.7356 0.0868
C11 C 0.35383(13) 0.70568(14) 0.1005(3)
H8 H 0.3569 0.6538 0.0395
C12 C 0.5000 1.1674(2) 0.2500
H9 H 0.5000 1.2305 0.2500
C13 C 0.18654(14) 0.61396(14) 0.0321(3)
H10 H 0.2321 0.5958 -0.0292
O1B O 0.95929(9) 0.59321(11) 0.4121(2)
O2B O 0.89581(10) 0.50079(12) 0.5823(2)
H1B H 0.9432 0.4779 0.5840
C1B C 0.72429(12) 0.73206(13) 0.3387(2)
C2B C 0.55393(12) 1.02623(13) 0.3478(2)
H2B H 0.5902 0.9952 0.4144
C4B C 0.80236(13) 0.68092(13) 0.3672(3)
H3B H 0.8494 0.6971 0.3081
C5B C 0.57597(11) 0.83279(12) 0.2802(2)
C6B C 0.89521(14) 0.56781(13) 0.4857(3)
C7B C 0.55367(13) 1.11992(13) 0.3463(3)
H4B H 0.5903 1.1514 0.4115
C8B C 0.65364(12) 0.86030(13) 0.2195(2)
H5B H 0.6567 0.9126 0.1596
C9B C 0.72631(12) 0.81028(13) 0.2478(3)
H6B H 0.7776 0.8292 0.2053
C10B C 0.57331(12) 0.75478(13) 0.3712(3)
H7B H 0.5220 0.7356 0.4132
C11B C 0.64617(13) 0.70568(14) 0.3995(3)
H8B H 0.6431 0.6538 0.4605
C13B C 0.81346(14) 0.61396(14) 0.4679(3)
H10B H 0.7679 0.5958 0.5292
loop_
_geom_bond_atom_site_label_1
_geom_bond_atom_site_label_2
_geom_bond_site_symmetry_1
_geom_bond_site_symmetry_2
N1 C3 1_555 1_555
O1 C6 1_555 1_555
O2 H1 1_555 1_555
C1 C4 1_555 1_555
C2 H2 1_555 1_555
C3 C2 1_555 1_555
C4 H3 1_555 1_555
C5 N1 1_555 1_555
C6 O2 1_555 1_555
C7 C2 1_555 1_555
H4 C7 1_555 1_555
C8 C5 1_555 1_555
H5 C8 1_555 1_555
C9 C1 1_555 1_555
H6 C9 1_555 1_555
C10 C5 1_555 1_555
H7 C10 1_555 1_555
C11 C1 1_555 1_555
H8 C11 1_555 1_555
C12 C7 1_555 1_555
H9 C12 1_555 1_555
C13 C4 1_555 1_555
H10 C13 1_555 1_555
O1B C6B 1_555 1_555
O2B H1B 1_555 1_555
C1B C4B 1_555 1_555
C2B C3 1_555 1_555
H2B C2B 1_555 1_555
C4B H3B 1_555 1_555
C5B N1 1_555 1_555
C6B O2B 1_555 1_555
C7B C12 1_555 1_555
H4B C7B 1_555 1_555
C8B C5B 1_555 1_555
H5B C8B 1_555 1_555
C9B C1B 1_555 1_555
H6B C9B 1_555 1_555
C10B C5B 1_555 1_555
H7B C10B 1_555 1_555
C11B C1B 1_555 1_555
H8B C11B 1_555 1_555
C13B C4B 1_555 1_555
H10B C13B 1_555 1_555
C6 C13 1_555 1_555
C8 C9 1_555 1_555
C10 C11 1_555 1_555
C2B C7B 1_555 1_555
C6B C13B 1_555 1_555
C8B C9B 1_555 1_555
C10B C11B 1_555 1_555

#END
