
#######################################################################
#
#                 Cambridge Crystallographic Data Centre
#                                CCDC 
#
#######################################################################
#
# If this CIF has been generated from an entry in the Cambridge 
# Structural Database, then it will include bibliographic, chemical, 
# crystal, experimental, refinement or atomic coordinate data resulting 
# from the CCDC's data processing and validation procedures.
#
#######################################################################

data_SAGFEN
_chemical_name_common            
6,12,18,24-O-Tetramethyl-4,10,16,22-O-tetrakis[(methoxycarbonyl)methyl]-2,8,14,20-tetrakis(2-phenylethyl)resorcin[4]arene
_chemical_formula_moiety         'C76 H80 O16'
_chemical_name_systematic        
6,12,18,24-Tetramethoxy-4,10,16,22-tetrakis[(methoxycarbonyl)methoxy]-2,8,14,20-tetrakis(2-phenylethyl)calix[4]arene
_symmetry_cell_setting           monoclinic
_symmetry_space_group_name_H-M   'P 21'
_symmetry_Int_Tables_number      4
_space_group_name_Hall           'P 2yb'
loop_
_symmetry_equiv_pos_site_id
_symmetry_equiv_pos_as_xyz
1 x,y,z
2 -x,1/2+y,-z
_cell_length_a                   14.1361(7)
_cell_length_b                   32.2264(17)
_cell_length_c                   28.9417(16)
_cell_angle_alpha                90
_cell_angle_beta                 90.5720(10)
_cell_angle_gamma                90
_cell_volume                     13183.9
_exptl_crystal_colour            colorless
_exptl_crystal_description       block
_chemical_melting_point          '387 K'
_cell_formula_units_Z            8
loop_
_atom_site_label
_atom_site_type_symbol
_atom_site_fract_x
_atom_site_fract_y
_atom_site_fract_z
O1 O 0.5977(2) 0.06377(9) 0.62469(8)
O2 O 0.73848(19) 0.19974(8) 0.63413(8)
O3 O 0.8421(3) 0.15922(14) 0.70321(12)
O4 O 0.9771(2) 0.17877(12) 0.66923(14)
O5 O 0.90039(17) 0.18472(9) 0.52995(8)
O6 O 0.91179(17) 0.19634(8) 0.36350(8)
O7 O 0.9798(2) 0.13462(11) 0.27089(11)
O8 O 1.0272(2) 0.19763(9) 0.29379(9)
O9 O 0.7815(2) 0.20481(9) 0.26602(8)
O10 O 0.6606(2) 0.06387(9) 0.25759(8)
O11 O 0.8362(3) 0.03043(16) 0.23211(16)
O12 O 0.8293(2) 0.07451(13) 0.17483(12)
O13 O 0.79804(19) 0.04378(9) 0.36270(9)
O14 O 0.77605(17) 0.04228(8) 0.53017(8)
O15 O 0.9510(3) 0.08568(16) 0.60233(14)
O16 O 0.8347(2) 0.04065(9) 0.61531(9)
C1 C 0.6302(2) 0.10053(10) 0.55664(11)
C2 C 0.6351(3) 0.09882(11) 0.60507(11)
C3 C 0.6740(3) 0.13123(12) 0.62974(11)
H1 H 0.6800 0.1293 0.6624
C4 C 0.7045(3) 0.16686(11) 0.60716(11)
C5 C 0.6969(2) 0.17097(11) 0.55929(11)
C6 C 0.6609(2) 0.13684(10) 0.53538(10)
H2 H 0.6570 0.1384 0.5026
C7 C 0.7166(2) 0.21170(10) 0.53441(10)
H3 H 0.7597 0.2288 0.5544
C8 C 0.7647(2) 0.20475(10) 0.48799(11)
C9 C 0.8593(2) 0.19183(11) 0.48741(11)
C10 C 0.9078(2) 0.18738(12) 0.44612(12)
H4 H 0.9719 0.1785 0.4463
C11 C 0.8616(2) 0.19601(10) 0.40468(11)
C12 C 0.7668(2) 0.20724(10) 0.40281(11)
C13 C 0.7203(2) 0.21126(10) 0.44541(10)
H5 H 0.6554 0.2188 0.4451
C14 C 0.7196(2) 0.21474(11) 0.35646(11)
H6 H 0.7629 0.2329 0.3382
C15 C 0.7084(2) 0.17450(11) 0.33004(10)
C16 C 0.7378(2) 0.17095(12) 0.28416(11)
C17 C 0.7240(3) 0.13437(12) 0.25938(11)
H7 H 0.7439 0.1325 0.2282
C18 C 0.6811(3) 0.10060(12) 0.28029(11)
C19 C 0.6537(2) 0.10221(11) 0.32679(11)
C20 C 0.6681(2) 0.13929(11) 0.34998(11)
H8 H 0.6494 0.1409 0.3814
C21 C 0.6119(3) 0.06472(12) 0.35088(11)
H9 H 0.6293 0.0396 0.3325
C22 C 0.6556(3) 0.05972(10) 0.39928(11)
C23 C 0.7510(3) 0.04899(11) 0.40365(12)
C24 C 0.7927(2) 0.04358(11) 0.44714(12)
H10 H 0.8578 0.0367 0.4498
C25 C 0.7386(2) 0.04828(11) 0.48638(11)
C26 C 0.6427(2) 0.05874(10) 0.48386(11)
C27 C 0.6043(2) 0.06467(10) 0.43976(11)
H11 H 0.5397 0.0725 0.4372
C28 C 0.5875(2) 0.06508(11) 0.52819(11)
H12 H 0.5938 0.0391 0.5469
C29 C 0.5862(5) 0.06332(18) 0.67372(14)
H13 H 0.6481 0.0662 0.6889
H14 H 0.5572 0.0370 0.6830
H15 H 0.5454 0.0864 0.6829
C30 C 0.8390(3) 0.20284(14) 0.63534(13)
H16 H 0.8572 0.2323 0.6396
H17 H 0.8644 0.1935 0.6053
C31 C 0.8827(3) 0.17742(15) 0.67339(15)
C32 C 1.0308(5) 0.1546(2) 0.7027(3)
H18 H 1.0231 0.1666 0.7336
H19 H 1.0979 0.1550 0.6945
H20 H 1.0078 0.1259 0.7027
C33 C 0.6202(2) 0.23448(11) 0.53008(12)
H21 H 0.5799 0.2190 0.5078
H22 H 0.5887 0.2334 0.5605
C34 C 0.6245(3) 0.27998(11) 0.51453(12)
H23 H 0.6579 0.2966 0.5383
H24 H 0.6605 0.2820 0.4855
C35 C 0.5263(2) 0.29722(11) 0.50698(12)
C36 C 0.4719(3) 0.31067(13) 0.54413(13)
H25 H 0.4983 0.3102 0.5745
C37 C 0.3806(3) 0.32462(14) 0.53750(15)
H26 H 0.3444 0.3333 0.5632
C38 C 0.3416(3) 0.32607(14) 0.49362(16)
H27 H 0.2790 0.3360 0.4890
C39 C 0.3938(3) 0.31306(15) 0.45668(15)
H28 H 0.3669 0.3138 0.4265
C40 C 0.4859(3) 0.29885(14) 0.46317(13)
H29 H 0.5215 0.2901 0.4373
C41 C 0.9945(3) 0.16995(15) 0.53127(14)
H30 H 0.9982 0.1437 0.5143
H31 H 1.0141 0.1655 0.5634
H32 H 1.0362 0.1904 0.5169
C42 C 0.9395(3) 0.15703(12) 0.34657(12)
H33 H 0.8836 0.1386 0.3443
H34 H 0.9857 0.1442 0.3682
C43 C 0.9834(3) 0.16199(13) 0.29944(13)
C44 C 1.0727(4) 0.20459(17) 0.25007(16)
H35 H 1.1317 0.1887 0.2490
H36 H 1.0867 0.2342 0.2466
H37 H 1.0306 0.1956 0.2249
C45 C 0.6238(3) 0.23760(11) 0.35982(11)
H38 H 0.5770 0.2191 0.3745
H39 H 0.6315 0.2624 0.3796
C46 C 0.5866(3) 0.25087(16) 0.31208(13)
H40 H 0.6371 0.2659 0.2956
H41 H 0.5702 0.2258 0.2939
C47 C 0.5011(3) 0.27824(15) 0.31537(12)
C48 C 0.4112(3) 0.26474(17) 0.30256(13)
H42 H 0.4024 0.2370 0.2924
C49 C 0.3340(3) 0.2913(2) 0.30441(15)
H43 H 0.2733 0.2817 0.2950
C50 C 0.3447(4) 0.3311(2) 0.31966(18)
H44 H 0.2914 0.3490 0.3212
C51 C 0.4325(4) 0.34521(18) 0.33273(19)
H45 H 0.4404 0.3729 0.3433
C52 C 0.5091(3) 0.31913(17) 0.33049(16)
H46 H 0.5695 0.3293 0.3396
C53 C 0.8011(4) 0.20537(17) 0.21830(13)
H47 H 0.8451 0.1828 0.2110
H48 H 0.8298 0.2320 0.2101
H49 H 0.7422 0.2016 0.2007
C54 C 0.6866(3) 0.05979(14) 0.21032(13)
H50 H 0.6692 0.0854 0.1933
H51 H 0.6519 0.0363 0.1961
C55 C 0.7913(3) 0.05247(14) 0.20686(15)
C56 C 0.9316(4) 0.0719(2) 0.1711(2)
H52 H 0.9596 0.0677 0.2019
H53 H 0.9560 0.0976 0.1577
H54 H 0.9482 0.0484 0.1512
C57 C 0.5038(3) 0.06717(13) 0.35165(11)
H55 H 0.4849 0.0932 0.3672
H56 H 0.4792 0.0437 0.3701
C58 C 0.4580(3) 0.06585(15) 0.30347(12)
H57 H 0.4818 0.0894 0.2850
H58 H 0.4767 0.0399 0.2878
C59 C 0.3524(3) 0.06807(14) 0.30531(12)
C60 C 0.3049(3) 0.10405(16) 0.29462(14)
H59 H 0.3398 0.1275 0.2844
C61 C 0.2061(3) 0.1071(2) 0.29837(17)
H60 H 0.1749 0.1325 0.2915
C62 C 0.1555(4) 0.0736(2) 0.31188(16)
H61 H 0.0886 0.0754 0.3141
C63 C 0.2002(4) 0.0374(2) 0.32229(17)
H62 H 0.1641 0.0140 0.3313
C64 C 0.2986(4) 0.03417(16) 0.31990(15)
H63 H 0.3291 0.0089 0.3282
C65 C 0.8986(3) 0.04058(14) 0.36390(15)
H64 H 0.9248 0.0624 0.3839
H65 H 0.9233 0.0438 0.3326
H66 H 0.9169 0.0133 0.3761
C66 C 0.8643(3) 0.06057(17) 0.53789(14)
H67 H 0.8646 0.0887 0.5240
H68 H 0.9135 0.0439 0.5224
C67 C 0.8881(3) 0.06384(16) 0.58885(15)
C68 C 0.8574(5) 0.04117(18) 0.66394(16)
H69 H 0.9216 0.0305 0.6688
H70 H 0.8123 0.0237 0.6806
H71 H 0.8538 0.0697 0.6755
C69 C 0.4809(2) 0.07354(11) 0.52119(12)
H72 H 0.4542 0.0822 0.5512
H73 H 0.4736 0.0972 0.4996
C70 C 0.4216(3) 0.03694(12) 0.50242(13)
H74 H 0.4499 0.0268 0.4734
H75 H 0.4232 0.0139 0.5251
C71 C 0.3203(3) 0.04940(13) 0.49332(13)
C72 C 0.2949(3) 0.06849(15) 0.45133(15)
H76 H 0.3411 0.0719 0.4280
C73 C 0.2032(3) 0.08246(17) 0.44343(17)
H77 H 0.1868 0.0950 0.4147
C74 C 0.1361(3) 0.07811(18) 0.47733(19)
H78 H 0.0736 0.0880 0.4721
C75 C 0.1591(3) 0.0596(2) 0.51867(17)
H79 H 0.1125 0.0563 0.5418
C76 C 0.2520(3) 0.04549(18) 0.52660(15)
H80 H 0.2679 0.0331 0.5554
O17 O 1.0018(2) 0.79524(9) 0.34133(8)
O18 O 0.8747(2) 0.93555(9) 0.33391(8)
O19 O 1.0602(2) 0.95651(13) 0.32072(11)
O20 O 1.0487(3) 0.93523(15) 0.24792(11)
O21 O 1.01302(19) 0.95766(10) 0.43576(8)
O22 O 1.00419(19) 0.96042(9) 0.60273(8)
O23 O 1.1619(4) 0.90759(19) 0.67830(14)
O24 O 1.0632(3) 0.96019(13) 0.68735(11)
O25 O 0.8300(2) 0.93672(9) 0.70036(9)
O26 O 0.96121(18) 0.79857(8) 0.70902(8)
O27 O 1.0645(3) 0.83863(15) 0.77772(13)
O28 O 1.2000(3) 0.81789(13) 0.74503(16)
O29 O 1.12398(17) 0.81423(9) 0.60462(8)
O30 O 1.13407(18) 0.80255(8) 0.43820(8)
O31 O 1.1980(2) 0.86203(10) 0.34318(10)
O32 O 1.2481(2) 0.80046(10) 0.36801(9)
C77 C 0.9267(2) 0.82519(11) 0.40523(11)
C78 C 0.9557(2) 0.82915(11) 0.35953(11)
C79 C 0.9405(3) 0.86564(12) 0.33482(11)
H81 H 0.9603 0.8679 0.3037
C80 C 0.8957(3) 0.89890(11) 0.35642(11)
C81 C 0.8691(2) 0.89670(11) 0.40284(11)
C82 C 0.8852(2) 0.85949(11) 0.42566(11)
H82 H 0.8668 0.8574 0.4571
C83 C 0.8277(2) 0.93422(11) 0.42711(11)
H83 H 0.8439 0.9591 0.4081
C84 C 0.8740(2) 0.94041(10) 0.47453(11)
C85 C 0.9693(2) 0.95270(12) 0.47707(11)
C86 C 1.0125(3) 0.95889(12) 0.51966(12)
H84 H 1.0770 0.9671 0.5213
C87 C 0.9617(3) 0.95311(12) 0.56002(12)
C88 C 0.8673(3) 0.94091(10) 0.55934(11)
C89 C 0.8265(2) 0.93461(10) 0.51559(11)
H85 H 0.7624 0.9258 0.5140
C90 C 0.8148(2) 0.93470(10) 0.60427(11)
H86 H 0.8225 0.9606 0.6230
C91 C 0.8580(2) 0.89903(11) 0.63205(11)
C92 C 0.8635(3) 0.90096(11) 0.68041(11)
C93 C 0.9006(3) 0.86782(12) 0.70526(11)
H87 H 0.9064 0.8695 0.7379
C94 C 0.9294(2) 0.83197(11) 0.68235(11)
C95 C 0.9210(2) 0.82820(11) 0.63443(10)
C96 C 0.8859(2) 0.86279(11) 0.61066(10)
H88 H 0.8809 0.8613 0.5779
C97 C 0.9388(2) 0.78750(10) 0.60906(10)
H89 H 0.9819 0.7703 0.6289
C98 C 0.9877(2) 0.79437(10) 0.56311(10)
C99 C 1.0827(2) 0.80747(11) 0.56224(11)
C100 C 1.1303(2) 0.81150(11) 0.52095(12)
H90 H 1.1948 0.8197 0.5210
C101 C 1.0840(2) 0.80361(11) 0.47957(11)
C102 C 0.9889(2) 0.79228(10) 0.47836(10)
C103 C 0.9430(2) 0.78827(10) 0.52042(11)
H91 H 0.8778 0.7810 0.5201
C104 C 0.9405(2) 0.78463(10) 0.43182(10)
H92 H 0.9847 0.7672 0.4133
C105 C 1.0240(4) 0.79570(16) 0.29342(13)
H93 H 0.9665 0.8013 0.2753
H94 H 1.0500 0.7687 0.2845
H95 H 1.0708 0.8174 0.2875
C106 C 0.9087(3) 0.94058(14) 0.28801(13)
H96 H 0.8792 0.9654 0.2738
H97 H 0.8908 0.9161 0.2692
C107 C 1.0131(3) 0.94533(13) 0.28824(14)
C108 C 1.1493(4) 0.9368(3) 0.2451(2)
H98 H 1.1708 0.9654 0.2500
H99 H 1.1690 0.9273 0.2145
H100 H 1.1772 0.9188 0.2689
C109 C 0.7192(2) 0.93216(11) 0.42923(12)
H101 H 0.6958 0.9560 0.4475
H102 H 0.7005 0.9064 0.4454
C110 C 0.6721(3) 0.93296(13) 0.38107(13)
H103 H 0.6881 0.9593 0.3654
H104 H 0.6972 0.9098 0.3623
C111 C 0.5655(3) 0.92903(12) 0.38402(12)
C112 C 0.5113(3) 0.95992(14) 0.40262(17)
H105 H 0.5413 0.9844 0.4138
C113 C 0.4139(3) 0.95647(15) 0.40565(17)
H106 H 0.3781 0.9783 0.4188
C114 C 0.3689(3) 0.92137(15) 0.38954(15)
H107 H 0.3020 0.9189 0.3910
C115 C 0.4224(3) 0.88992(15) 0.37124(16)
H108 H 0.3924 0.8654 0.3604
C116 C 0.5193(3) 0.89365(14) 0.36853(15)
H109 H 0.5551 0.8716 0.3558
C117 C 1.1125(3) 0.96382(17) 0.43597(14)
H110 H 1.1274 0.9905 0.4506
H111 H 1.1354 0.9638 0.4041
H112 H 1.1432 0.9414 0.4533
C118 C 1.0814(3) 0.93282(17) 0.61229(15)
H113 H 1.1374 0.9417 0.5945
H114 H 1.0642 0.9044 0.6022
C119 C 1.1059(4) 0.93229(19) 0.66253(17)
C120 C 1.0826(7) 0.9580(3) 0.73696(19)
H115 H 1.0856 0.9289 0.7466
H116 H 1.0320 0.9721 0.7537
H117 H 1.1432 0.9716 0.7438
C121 C 0.7084(2) 0.92626(11) 0.59904(12)
H118 H 0.6837 0.9177 0.6295
H119 H 0.6996 0.9026 0.5776
C122 C 0.6486(3) 0.96285(12) 0.58115(13)
H120 H 0.6496 0.9854 0.6044
H121 H 0.6767 0.9737 0.5524
C123 C 0.5467(3) 0.95015(13) 0.57156(13)
C124 C 0.4740(3) 0.96187(17) 0.60043(15)
H122 H 0.4877 0.9784 0.6269
C125 C 0.3815(3) 0.9498(2) 0.59131(18)
H123 H 0.3328 0.9580 0.6118
C126 C 0.3594(4) 0.92652(18) 0.55356(19)
H124 H 0.2957 0.9187 0.5475
C127 C 0.4312(4) 0.91425(17) 0.52382(18)
H125 H 0.4172 0.8976 0.4975
C128 C 0.5236(3) 0.92668(14) 0.53327(15)
H126 H 0.5722 0.9188 0.5127
C129 C 0.8138(6) 0.9361(2) 0.74848(17)
H127 H 0.7837 0.9098 0.7570
H128 H 0.7722 0.9592 0.7567
H129 H 0.8742 0.9389 0.7651
C130 C 1.0612(3) 0.79463(14) 0.71023(13)
H130 H 1.0872 0.8039 0.6803
H131 H 1.0783 0.7651 0.7145
C131 C 1.1053(4) 0.82009(16) 0.74905(17)
C132 C 1.2510(6) 0.8419(3) 0.7793(4)
H132 H 1.2421 0.8715 0.7731
H133 H 1.3184 0.8350 0.7780
H134 H 1.2269 0.8353 0.8101
C133 C 0.8434(2) 0.76435(11) 0.60507(11)
H135 H 0.8126 0.7651 0.6356
H136 H 0.8022 0.7798 0.5832
C134 C 0.8481(2) 0.71897(11) 0.58905(12)
H137 H 0.8839 0.7174 0.5599
H138 H 0.8823 0.7023 0.6126
C135 C 0.7506(3) 0.70113(11) 0.58152(12)
C136 C 0.6953(3) 0.68891(13) 0.61846(13)
H139 H 0.7206 0.6904 0.6490
C137 C 0.6039(3) 0.67455(14) 0.61158(15)
H140 H 0.5671 0.6663 0.6373
C138 C 0.5663(3) 0.67216(14) 0.56751(16)
H141 H 0.5035 0.6624 0.5629
C139 C 0.6191(3) 0.68378(15) 0.53057(15)
H142 H 0.5938 0.6817 0.5001
C140 C 0.7104(3) 0.69868(14) 0.53772(13)
H143 H 0.7462 0.7074 0.5119
C141 C 1.2191(3) 0.82781(16) 0.60531(14)
H144 H 1.2583 0.8081 0.5883
H145 H 1.2418 0.8296 0.6374
H146 H 1.2233 0.8552 0.5908
C142 C 1.1609(3) 0.84164(12) 0.42021(13)
H147 H 1.2079 0.8548 0.4411
H148 H 1.1048 0.8600 0.4181
C143 C 1.2034(3) 0.83606(13) 0.37231(14)
C144 C 1.2921(4) 0.79220(17) 0.32324(16)
H149 H 1.2434 0.7837 0.3008
H150 H 1.3390 0.7700 0.3267
H151 H 1.3235 0.8174 0.3122
C145 C 0.8477(3) 0.76057(11) 0.43491(11)
H152 H 0.7991 0.7784 0.4492
H153 H 0.8571 0.7360 0.4550
C146 C 0.8125(3) 0.74636(15) 0.38724(13)
H154 H 0.7954 0.7711 0.3686
H155 H 0.8644 0.7318 0.3713
C147 C 0.7280(3) 0.71796(15) 0.38978(12)
C148 C 0.7407(4) 0.67666(16) 0.40247(16)
H156 H 0.8022 0.6669 0.4102
C149 C 0.6645(4) 0.6497(2) 0.40400(19)
H157 H 0.6739 0.6216 0.4129
C150 C 0.5767(4) 0.6633(2) 0.39283(18)
H158 H 0.5249 0.6446 0.3937
C151 C 0.5619(4) 0.7033(2) 0.38035(16)
H159 H 0.5000 0.7125 0.3723
C152 C 0.6388(4) 0.73129(18) 0.37936(15)
H160 H 0.6283 0.7595 0.3714
O33 O 0.6334(2) 0.42533(8) 0.78498(8)
O34 O 0.54013(19) 0.28157(8) 0.78784(8)
O35 O 0.4306(3) 0.31475(14) 0.71475(13)
O36 O 0.3017(3) 0.30626(12) 0.75901(13)
O37 O 0.37492(17) 0.30624(9) 0.88976(8)
O38 O 0.36534(17) 0.30811(8) 1.05676(8)
O39 O 0.2863(3) 0.38220(12) 1.13619(12)
O40 O 0.2486(3) 0.31538(11) 1.12528(11)
O41 O 0.5012(2) 0.29777(9) 1.15672(8)
C153 C 0.4775(4) 0.45404(17) 1.18003(18)
H161 H 0.4546 0.4828 1.1750
H162 H 0.4239 0.4353 1.1727
O42 O 0.4449(5) 0.4576(3) 1.2572(2)
O43 O 0.5856(4) 0.43490(14) 1.23654(14)
O44 O 0.43808(19) 0.45772(9) 1.04240(9)
O45 O 0.46610(18) 0.45251(9) 0.87540(9)
O46 O 0.2899(3) 0.40794(18) 0.80443(14)
O47 O 0.3992(2) 0.45611(11) 0.79010(10)
C154 C 0.6202(2) 0.39033(11) 0.85618(11)
C155 C 0.6113(3) 0.38904(11) 0.80786(11)
C156 C 0.5836(3) 0.35322(12) 0.78595(12)
H163 H 0.5769 0.3527 0.7533
C157 C 0.5652(2) 0.31767(11) 0.81153(11)
C158 C 0.5737(2) 0.31754(10) 0.85965(11)
C159 C 0.6012(2) 0.35415(11) 0.88070(11)
H164 H 0.6073 0.3547 0.9134
C160 C 0.5593(2) 0.27790(11) 0.88806(10)
H165 H 0.5171 0.2591 0.8697
C161 C 0.5098(2) 0.28729(10) 0.93314(11)
C162 C 0.4158(2) 0.30155(11) 0.93275(11)
C163 C 0.3688(2) 0.30952(11) 0.97340(12)
H166 H 0.3052 0.3191 0.9724
C164 C 0.4141(2) 0.30364(11) 1.01567(11)
C165 C 0.5077(2) 0.29059(10) 1.01802(11)
C166 C 0.5531(2) 0.28308(10) 0.97614(11)
H167 H 0.6174 0.2746 0.9772
C167 C 0.5554(2) 0.28570(10) 1.06485(11)
H168 H 0.5138 0.2675 1.0839
C168 C 0.5604(2) 0.32745(11) 1.08878(11)
C169 C 0.5293(3) 0.33302(11) 1.13396(11)
C170 C 0.5266(3) 0.37189(12) 1.15397(12)
H169 H 0.5057 0.3751 1.1849
C171 C 0.5547(3) 0.40638(12) 1.12853(12)
C172 C 0.5906(3) 0.40237(11) 1.08402(11)
C173 C 0.5910(2) 0.36275(11) 1.06521(11)
H170 H 0.6134 0.3594 1.0346
C174 C 0.6269(3) 0.43926(11) 1.05680(11)
H171 H 0.6070 0.4649 1.0736
C175 C 0.5836(2) 0.44144(10) 1.00860(11)
C176 C 0.4878(3) 0.45137(11) 1.00251(12)
C177 C 0.4474(3) 0.45469(12) 0.95842(12)
H172 H 0.3824 0.4616 0.9548
C178 C 0.5032(3) 0.44785(11) 0.92012(11)
C179 C 0.5989(2) 0.43753(10) 0.92381(11)
C180 C 0.6360(3) 0.43464(10) 0.96877(11)
H173 H 0.7009 0.4276 0.9723
C181 C 0.6560(2) 0.42890(11) 0.88075(11)
H174 H 0.6475 0.4530 0.8593
C182 C 0.6183(4) 0.42511(17) 0.73575(14)
H175 H 0.6635 0.4061 0.7213
H176 H 0.6274 0.4532 0.7236
H177 H 0.5536 0.4158 0.7288
C183 C 0.4399(3) 0.27555(13) 0.78595(13)
H178 H 0.4123 0.2831 0.8161
H179 H 0.4261 0.2459 0.7802
C184 C 0.3940(4) 0.30163(14) 0.74807(16)
C185 C 0.2466(5) 0.3300(2) 0.7255(3)
H180 H 0.2721 0.3582 0.7234
H181 H 0.1805 0.3312 0.7353
H182 H 0.2500 0.3165 0.6952
C186 C 0.6552(2) 0.25617(11) 0.89332(12)
H183 H 0.6954 0.2728 0.9146
H184 H 0.6864 0.2559 0.8628
C187 C 0.6513(3) 0.21142(11) 0.91156(12)
H185 H 0.6181 0.2111 0.9415
H186 H 0.6145 0.1941 0.8896
C188 C 0.7494(3) 0.19285(12) 0.91794(13)
C189 C 0.7943(4) 0.17242(16) 0.88213(15)
H187 H 0.7625 0.1689 0.8533
C190 C 0.8855(4) 0.15704(17) 0.88807(17)
H188 H 0.9155 0.1433 0.8632
C191 C 0.9323(3) 0.16145(15) 0.92905(18)
H189 H 0.9946 0.1509 0.9328
C192 C 0.8886(3) 0.18131(15) 0.96496(17)
H190 H 0.9203 0.1842 0.9939
C193 C 0.7975(3) 0.19727(14) 0.95899(14)
H191 H 0.7684 0.2115 0.9838
C194 C 0.2804(3) 0.32222(15) 0.88786(15)
H192 H 0.2375 0.3027 0.9030
H193 H 0.2608 0.3258 0.8555
H194 H 0.2781 0.3491 0.9037
C195 C 0.3361(3) 0.34942(12) 1.06685(13)
H195 H 0.2914 0.3591 1.0426
H196 H 0.3918 0.3681 1.0669
C196 C 0.2889(3) 0.35114(14) 1.11333(14)
C197 C 0.1966(5) 0.3146(2) 1.1685(2)
H197 H 0.2370 0.3252 1.1935
H198 H 0.1775 0.2861 1.1754
H199 H 0.1401 0.3321 1.1655
C198 C 0.6529(3) 0.26473(12) 1.06296(12)
H200 H 0.6479 0.2392 1.0440
H201 H 0.6980 0.2837 1.0477
C199 C 0.6913(3) 0.25344(15) 1.11070(13)
H202 H 0.7061 0.2792 1.1279
H203 H 0.6419 0.2383 1.1279
C200 C 0.7798(3) 0.22670(15) 1.10839(12)
C201 C 0.7739(4) 0.18567(16) 1.09488(16)
H204 H 0.7140 0.1742 1.0869
C202 C 0.8535(4) 0.16114(19) 1.09284(19)
H205 H 0.8488 0.1333 1.0824
C203 C 0.9399(4) 0.1771(2) 1.10603(18)
H206 H 0.9945 0.1600 1.1058
C204 C 0.9474(3) 0.21738(18) 1.11938(14)
H207 H 1.0071 0.2285 1.1282
C205 C 0.8672(3) 0.24233(17) 1.12010(14)
H208 H 0.8730 0.2706 1.1288
C206 C 0.4736(5) 0.30092(18) 1.20303(13)
H209 H 0.5256 0.3127 1.2214
H210 H 0.4578 0.2733 1.2148
H211 H 0.4180 0.3190 1.2051
O48 O 0.5506(2) 0.44617(9) 1.14663(9)
C207 C 0.4986(5) 0.4497(2) 1.2281(2)
C208 C 0.6140(7) 0.4280(3) 1.2873(2)
H212 H 0.6258 0.4549 1.3021
H213 H 0.6715 0.4111 1.2889
H214 H 0.5627 0.4137 1.3034
C209 C 0.7351(3) 0.43904(12) 1.05619(12)
H215 H 0.7568 0.4133 1.0410
H216 H 0.7572 0.4628 1.0375
C210 C 0.7801(3) 0.44175(13) 1.10428(13)
H217 H 0.7643 0.4690 1.1180
H218 H 0.7521 0.4200 1.1241
C211 C 0.8861(3) 0.43667(13) 1.10470(15)
C212 C 0.9422(3) 0.45302(15) 1.07105(19)
H219 H 0.9136 0.4687 1.0468
C213 C 1.0395(4) 0.44750(17) 1.0711(2)
H220 H 1.0767 0.4594 1.0473
C214 C 1.0818(4) 0.42485(19) 1.1057(3)
H221 H 1.1482 0.4202 1.1057
C215 C 1.0268(5) 0.4090(2) 1.1403(2)
H222 H 1.0559 0.3944 1.1651
C216 C 0.9305(4) 0.41407(17) 1.13970(17)
H223 H 0.8936 0.4020 1.1634
C217 C 0.3383(3) 0.46367(17) 1.03865(16)
H224 H 0.3252 0.4907 1.0245
H225 H 0.3103 0.4627 1.0695
H226 H 0.3107 0.4417 1.0194
C218 C 0.3882(4) 0.4269(2) 0.86587(16)
H227 H 0.3356 0.4348 0.8864
H228 H 0.4056 0.3978 0.8731
C219 C 0.3544(4) 0.42902(19) 0.81719(16)
C220 C 0.3666(4) 0.4575(2) 0.74228(15)
H229 H 0.3594 0.4291 0.7305
H230 H 0.4129 0.4724 0.7236
H231 H 0.3055 0.4718 0.7406
C221 C 0.7634(2) 0.42304(11) 0.88933(12)
H232 H 0.7720 0.4018 0.9137
H233 H 0.7915 0.4118 0.8607
C222 C 0.8198(3) 0.46189(12) 0.90363(14)
H234 H 0.8090 0.4844 0.8809
H235 H 0.7987 0.4717 0.9342
C223 C 0.9229(3) 0.45106(13) 0.90571(16)
C224 C 0.9594(3) 0.42801(17) 0.9421(2)
H236 H 0.9192 0.4208 0.9669
C225 C 1.0525(5) 0.4152(2) 0.9431(3)
H237 H 1.0771 0.4000 0.9687
C226 C 1.1092(4) 0.4251(2) 0.9060(5)
H238 H 1.1727 0.4156 0.9056
C227 C 1.0752(5) 0.4489(3) 0.8691(3)
H239 H 1.1156 0.4562 0.8444
C228 C 0.9810(4) 0.46159(19) 0.8690(2)
H240 H 0.9565 0.4774 0.8440
O49 O 0.8576(2) 0.57303(8) 0.85863(8)
O50 O 0.76530(17) 0.71659(8) 0.86430(8)
O51 O 0.6548(3) 0.68559(14) 0.78997(11)
O52 O 0.5299(2) 0.68868(11) 0.83635(12)
O53 O 0.60316(16) 0.69184(8) 0.96648(8)
O54 O 0.59365(17) 0.69021(7) 1.13331(8)
O55 O 0.4997(2) 0.61489(10) 1.20839(11)
O56 O 0.4720(2) 0.68293(9) 1.20022(10)
O57 O 0.7279(2) 0.69822(10) 1.23279(9)
O58 O 0.7668(2) 0.54882(10) 1.21833(9)
O59 O 0.6741(4) 0.5312(2) 1.33062(14)
O60 O 0.8111(3) 0.55522(15) 1.30678(11)
O61 O 0.65440(18) 0.54636(9) 1.11335(8)
O62 O 0.69516(16) 0.54863(8) 0.94702(7)
O63 O 0.4968(3) 0.56939(16) 0.87660(11)
O64 O 0.62933(19) 0.53456(9) 0.86243(8)
C229 C 0.8491(2) 0.60721(11) 0.93081(10)
C230 C 0.8376(2) 0.60882(11) 0.88217(11)
C231 C 0.8090(2) 0.64512(11) 0.86101(11)
H241 H 0.8011 0.6461 0.8284
C232 C 0.7917(2) 0.68037(11) 0.88744(11)
C233 C 0.8012(2) 0.68024(11) 0.93557(11)
C234 C 0.8304(2) 0.64293(10) 0.95560(10)
H242 H 0.8379 0.6420 0.9882
C235 C 0.7879(2) 0.71927(10) 0.96432(10)
H243 H 0.7455 0.7383 0.9463
C236 C 0.7386(2) 0.70960(10) 1.00988(10)
C237 C 0.6447(2) 0.69641(11) 1.00945(11)
C238 C 0.5967(2) 0.68893(11) 1.05020(11)
H244 H 0.5326 0.6800 1.0494
C239 C 0.6433(2) 0.69465(10) 1.09212(11)
C240 C 0.7368(2) 0.70689(10) 1.09453(11)
C241 C 0.7833(2) 0.71382(10) 1.05297(11)
H245 H 0.8480 0.7217 1.0540
C242 C 0.7859(2) 0.71099(11) 1.14178(11)
H246 H 0.7451 0.7293 1.1611
C243 C 0.7879(2) 0.66872(12) 1.16476(10)
C244 C 0.7543(3) 0.66291(13) 1.20978(11)
C245 C 0.7475(3) 0.62339(13) 1.22849(12)
H247 H 0.7246 0.6197 1.2590
C246 C 0.7746(3) 0.58907(13) 1.20216(12)
C247 C 0.8114(2) 0.59367(11) 1.15822(11)
C248 C 0.8168(2) 0.63369(11) 1.14096(10)
H248 H 0.8418 0.6374 1.1109
C249 C 0.8465(3) 0.55645(11) 1.13036(11)
H249 H 0.8230 0.5309 1.1461
C250 C 0.8051(2) 0.55628(10) 1.08138(10)
C251 C 0.7085(2) 0.55013(11) 1.07421(11)
C252 C 0.6699(2) 0.54738(11) 1.02982(11)
H250 H 0.6041 0.5427 1.0256
C253 C 0.7285(2) 0.55150(11) 0.99182(11)
C254 C 0.8247(2) 0.55976(11) 0.99720(11)
C255 C 0.8603(2) 0.56165(10) 1.04224(11)
H251 H 0.9259 0.5669 1.0465
C256 C 0.8848(2) 0.56808(11) 0.95450(11)
H252 H 0.8763 0.5443 0.9326
C257 C 0.8370(3) 0.57293(14) 0.81022(12)
H253 H 0.7715 0.5819 0.8050
H254 H 0.8453 0.5448 0.7980
H255 H 0.8799 0.5920 0.7945
C258 C 0.6645(3) 0.72198(13) 0.86260(13)
H256 H 0.6498 0.7516 0.8572
H257 H 0.6375 0.7140 0.8927
C259 C 0.6195(3) 0.69637(13) 0.82514(15)
C260 C 0.4737(5) 0.6647(2) 0.8036(2)
H258 H 0.4677 0.6802 0.7745
H259 H 0.4107 0.6598 0.8163
H260 H 0.5049 0.6381 0.7978
C261 C 0.8841(2) 0.74125(11) 0.97000(11)
H261 H 0.9240 0.7247 0.9914
H262 H 0.9158 0.7415 0.9397
C262 C 0.8800(2) 0.78596(12) 0.98813(12)
H263 H 0.8448 0.8035 0.9658
H264 H 0.8457 0.7865 1.0178
C263 C 0.9782(3) 0.80352(11) 0.99530(13)
C264 C 1.0259(3) 0.82269(13) 0.95902(14)
H265 H 0.9954 0.8263 0.9299
C265 C 1.1190(3) 0.83655(15) 0.96579(16)
H266 H 1.1519 0.8489 0.9408
C266 C 1.1633(3) 0.83252(14) 1.00781(17)
H267 H 1.2261 0.8423 1.0120
C267 C 1.1164(3) 0.81424(15) 1.04392(16)
H268 H 1.1469 0.8115 1.0732
C268 C 1.0241(3) 0.79977(14) 1.03774(14)
H269 H 0.9923 0.7872 1.0629
C269 C 0.5119(3) 0.67344(15) 0.96403(13)
H270 H 0.5134 0.6464 0.9795
H271 H 0.4933 0.6697 0.9316
H272 H 0.4661 0.6915 0.9793
C270 C 0.5611(3) 0.64925(11) 1.14234(13)
H273 H 0.6157 0.6300 1.1432
H274 H 0.5182 0.6403 1.1170
C271 C 0.5093(3) 0.64697(13) 1.18770(13)
C272 C 0.4151(4) 0.68332(18) 1.24156(17)
H275 H 0.3552 0.6689 1.2355
H276 H 0.4022 0.7121 1.2505
H277 H 0.4493 0.6693 1.2666
C273 C 0.8834(3) 0.73162(12) 1.13942(11)
H278 H 0.9279 0.7127 1.1237
H279 H 0.8785 0.7573 1.1208
C274 C 0.9228(3) 0.74229(16) 1.18744(13)
H280 H 0.8728 0.7561 1.2056
H281 H 0.9406 0.7164 1.2037
C275 C 1.0080(3) 0.77037(16) 1.18500(12)
C276 C 0.9991(4) 0.81137(17) 1.17239(15)
H282 H 0.9384 0.8216 1.1637
C277 C 1.0755(4) 0.83820(19) 1.17188(18)
H283 H 1.0672 0.8665 1.1634
C278 C 1.1646(4) 0.8232(2) 1.18391(16)
H284 H 1.2179 0.8411 1.1833
C279 C 1.1753(3) 0.78279(19) 1.19651(14)
H285 H 1.2360 0.7727 1.2054
C280 C 1.0980(3) 0.75608(17) 1.19643(13)
H286 H 1.1068 0.7277 1.2043
C281 C 0.6941(5) 0.69408(19) 1.27797(13)
H287 H 0.6363 0.6773 1.2776
H288 H 0.6802 0.7216 1.2906
H289 H 0.7422 0.6804 1.2973
C282 C 0.6951(4) 0.54023(18) 1.25043(16)
H290 H 0.6703 0.5121 1.2440
H291 H 0.6427 0.5601 1.2451
C283 C 0.7230(4) 0.54227(17) 1.30033(16)
C284 C 0.8448(6) 0.5573(3) 1.3548(2)
H292 H 0.8061 0.5771 1.3720
H293 H 0.9110 0.5664 1.3554
H294 H 0.8400 0.5298 1.3690
C285 C 0.9557(3) 0.55471(12) 1.13162(11)
H295 H 0.9777 0.5333 1.1096
H296 H 0.9814 0.5818 1.1216
C286 C 0.9938(3) 0.54457(18) 1.17988(14)
H297 H 0.9627 0.5629 1.2026
H298 H 0.9767 0.5156 1.1876
C287 C 1.0996(3) 0.54957(14) 1.18446(13)
C288 C 1.1596(4) 0.52542(19) 1.1591(2)
H299 H 1.1342 0.5057 1.1381
C289 C 1.2574(5) 0.5293(3) 1.1637(2)
H300 H 1.2975 0.5113 1.1469
C290 C 1.2964(4) 0.5588(2) 1.1921(2)
H301 H 1.3630 0.5625 1.1941
C291 C 1.2372(5) 0.5823(2) 1.2172(2)
H302 H 1.2630 0.6023 1.2379
C292 C 1.1388(4) 0.57823(18) 1.21380(16)
H303 H 1.0991 0.5954 1.2319
C293 C 0.5544(3) 0.54612(13) 1.10817(13)
H304 H 0.5347 0.5696 1.0888
H305 H 0.5251 0.5485 1.1386
H306 H 0.5344 0.5201 1.0935
C294 C 0.5971(3) 0.55178(15) 0.94016(13)
H307 H 0.5737 0.5771 0.9558
H308 H 0.5658 0.5275 0.9544
C295 C 0.5703(3) 0.55367(16) 0.88947(13)
C296 C 0.5984(4) 0.53020(16) 0.81441(14)
H309 H 0.5426 0.5122 0.8129
H310 H 0.6495 0.5179 0.7963
H311 H 0.5825 0.5576 0.8018
C297 C 0.9912(2) 0.57360(11) 0.96396(12)
H312 H 1.0200 0.5850 0.9356
H313 H 0.9987 0.5948 0.9885
C298 C 1.0484(3) 0.53524(13) 0.97847(14)
H314 H 1.0230 0.5239 1.0076
H315 H 1.0425 0.5135 0.9544
C299 C 1.1510(3) 0.54668(14) 0.98517(17)
C300 C 1.2143(4) 0.5444(2) 0.9493(2)
H316 H 1.1956 0.5325 0.9206
C301 C 1.3082(5) 0.5601(3) 0.9557(4)
H317 H 1.3522 0.5596 0.9311
C302 C 1.3337(6) 0.5760(3) 0.9986(5)
H318 H 1.3964 0.5860 1.0030
C303 C 1.2723(5) 0.5779(2) 1.0348(4)
H319 H 1.2912 0.5887 1.0640
C304 C 1.1820(4) 0.56335(17) 1.0270(2)
H320 H 1.1382 0.5648 1.0517
loop_
_geom_bond_atom_site_label_1
_geom_bond_atom_site_label_2
_geom_bond_site_symmetry_1
_geom_bond_site_symmetry_2
O1 C2 1_555 1_555
O2 C4 1_555 1_555
O3 C31 1_555 1_555
O4 C31 1_555 1_555
O5 C9 1_555 1_555
O6 C11 1_555 1_555
O7 C43 1_555 1_555
O8 C43 1_555 1_555
O9 C16 1_555 1_555
O10 C18 1_555 1_555
O11 C55 1_555 1_555
O12 C55 1_555 1_555
O13 C23 1_555 1_555
O14 C25 1_555 1_555
O15 C67 1_555 1_555
O16 C67 1_555 1_555
C1 C2 1_555 1_555
C2 C3 1_555 1_555
C3 H1 1_555 1_555
C4 C3 1_555 1_555
C5 C4 1_555 1_555
C6 C1 1_555 1_555
H2 C6 1_555 1_555
C7 C5 1_555 1_555
H3 C7 1_555 1_555
C8 C7 1_555 1_555
C9 C8 1_555 1_555
C10 C9 1_555 1_555
H4 C10 1_555 1_555
C11 C10 1_555 1_555
C12 C11 1_555 1_555
C13 C8 1_555 1_555
H5 C13 1_555 1_555
C14 C12 1_555 1_555
H6 C14 1_555 1_555
C15 C14 1_555 1_555
C16 C15 1_555 1_555
C17 C16 1_555 1_555
H7 C17 1_555 1_555
C18 C17 1_555 1_555
C19 C18 1_555 1_555
C20 C15 1_555 1_555
H8 C20 1_555 1_555
C21 C19 1_555 1_555
H9 C21 1_555 1_555
C22 C21 1_555 1_555
C23 C22 1_555 1_555
C24 C23 1_555 1_555
H10 C24 1_555 1_555
C25 C24 1_555 1_555
C26 C25 1_555 1_555
C27 C22 1_555 1_555
H11 C27 1_555 1_555
C28 C1 1_555 1_555
H12 C28 1_555 1_555
C29 O1 1_555 1_555
H13 C29 1_555 1_555
H14 C29 1_555 1_555
H15 C29 1_555 1_555
C30 O2 1_555 1_555
H16 C30 1_555 1_555
H17 C30 1_555 1_555
C31 C30 1_555 1_555
C32 O4 1_555 1_555
H18 C32 1_555 1_555
H19 C32 1_555 1_555
H20 C32 1_555 1_555
C33 C7 1_555 1_555
H21 C33 1_555 1_555
H22 C33 1_555 1_555
C34 C33 1_555 1_555
H23 C34 1_555 1_555
H24 C34 1_555 1_555
C35 C34 1_555 1_555
C36 C35 1_555 1_555
H25 C36 1_555 1_555
C37 C36 1_555 1_555
H26 C37 1_555 1_555
C38 C37 1_555 1_555
H27 C38 1_555 1_555
C39 C38 1_555 1_555
H28 C39 1_555 1_555
C40 C35 1_555 1_555
H29 C40 1_555 1_555
C41 O5 1_555 1_555
H30 C41 1_555 1_555
H31 C41 1_555 1_555
H32 C41 1_555 1_555
C42 O6 1_555 1_555
H33 C42 1_555 1_555
H34 C42 1_555 1_555
C43 C42 1_555 1_555
C44 O8 1_555 1_555
H35 C44 1_555 1_555
H36 C44 1_555 1_555
H37 C44 1_555 1_555
C45 C14 1_555 1_555
H38 C45 1_555 1_555
H39 C45 1_555 1_555
C46 C45 1_555 1_555
H40 C46 1_555 1_555
H41 C46 1_555 1_555
C47 C46 1_555 1_555
C48 C47 1_555 1_555
H42 C48 1_555 1_555
C49 C48 1_555 1_555
H43 C49 1_555 1_555
C50 C49 1_555 1_555
H44 C50 1_555 1_555
C51 C50 1_555 1_555
H45 C51 1_555 1_555
C52 C47 1_555 1_555
H46 C52 1_555 1_555
C53 O9 1_555 1_555
H47 C53 1_555 1_555
H48 C53 1_555 1_555
H49 C53 1_555 1_555
C54 O10 1_555 1_555
H50 C54 1_555 1_555
H51 C54 1_555 1_555
C55 C54 1_555 1_555
C56 O12 1_555 1_555
H52 C56 1_555 1_555
H53 C56 1_555 1_555
H54 C56 1_555 1_555
C57 C21 1_555 1_555
H55 C57 1_555 1_555
H56 C57 1_555 1_555
C58 C57 1_555 1_555
H57 C58 1_555 1_555
H58 C58 1_555 1_555
C59 C58 1_555 1_555
C60 C59 1_555 1_555
H59 C60 1_555 1_555
C61 C60 1_555 1_555
H60 C61 1_555 1_555
C62 C61 1_555 1_555
H61 C62 1_555 1_555
C63 C62 1_555 1_555
H62 C63 1_555 1_555
C64 C59 1_555 1_555
H63 C64 1_555 1_555
C65 O13 1_555 1_555
H64 C65 1_555 1_555
H65 C65 1_555 1_555
H66 C65 1_555 1_555
C66 O14 1_555 1_555
H67 C66 1_555 1_555
H68 C66 1_555 1_555
C67 C66 1_555 1_555
C68 O16 1_555 1_555
H69 C68 1_555 1_555
H70 C68 1_555 1_555
H71 C68 1_555 1_555
C69 C28 1_555 1_555
H72 C69 1_555 1_555
H73 C69 1_555 1_555
C70 C69 1_555 1_555
H74 C70 1_555 1_555
H75 C70 1_555 1_555
C71 C70 1_555 1_555
C72 C71 1_555 1_555
H76 C72 1_555 1_555
C73 C72 1_555 1_555
H77 C73 1_555 1_555
C74 C73 1_555 1_555
H78 C74 1_555 1_555
C75 C74 1_555 1_555
H79 C75 1_555 1_555
C76 C71 1_555 1_555
H80 C76 1_555 1_555
O17 C78 1_555 1_555
O18 C80 1_555 1_555
O19 C107 1_555 1_555
O20 C107 1_555 1_555
O21 C85 1_555 1_555
O22 C87 1_555 1_555
O23 C119 1_555 1_555
O24 C119 1_555 1_555
O25 C92 1_555 1_555
O26 C94 1_555 1_555
O27 C131 1_555 1_555
O28 C131 1_555 1_555
O29 C99 1_555 1_555
O30 C101 1_555 1_555
O31 C143 1_555 1_555
O32 C143 1_555 1_555
C77 C78 1_555 1_555
C78 C79 1_555 1_555
C79 H81 1_555 1_555
C80 C79 1_555 1_555
C81 C80 1_555 1_555
C82 C77 1_555 1_555
H82 C82 1_555 1_555
C83 C81 1_555 1_555
H83 C83 1_555 1_555
C84 C83 1_555 1_555
C85 C84 1_555 1_555
C86 C85 1_555 1_555
H84 C86 1_555 1_555
C87 C86 1_555 1_555
C88 C87 1_555 1_555
C89 C84 1_555 1_555
H85 C89 1_555 1_555
C90 C88 1_555 1_555
H86 C90 1_555 1_555
C91 C90 1_555 1_555
C92 C91 1_555 1_555
C93 C92 1_555 1_555
H87 C93 1_555 1_555
C94 C93 1_555 1_555
C95 C94 1_555 1_555
C96 C91 1_555 1_555
H88 C96 1_555 1_555
C97 C95 1_555 1_555
H89 C97 1_555 1_555
C98 C97 1_555 1_555
C99 C98 1_555 1_555
C100 C99 1_555 1_555
H90 C100 1_555 1_555
C101 C100 1_555 1_555
C102 C101 1_555 1_555
C103 C98 1_555 1_555
H91 C103 1_555 1_555
C104 C77 1_555 1_555
H92 C104 1_555 1_555
C105 O17 1_555 1_555
H93 C105 1_555 1_555
H94 C105 1_555 1_555
H95 C105 1_555 1_555
C106 O18 1_555 1_555
H96 C106 1_555 1_555
H97 C106 1_555 1_555
C107 C106 1_555 1_555
C108 O20 1_555 1_555
H98 C108 1_555 1_555
H99 C108 1_555 1_555
H100 C108 1_555 1_555
C109 C83 1_555 1_555
H101 C109 1_555 1_555
H102 C109 1_555 1_555
C110 C109 1_555 1_555
H103 C110 1_555 1_555
H104 C110 1_555 1_555
C111 C110 1_555 1_555
C112 C111 1_555 1_555
H105 C112 1_555 1_555
C113 C112 1_555 1_555
H106 C113 1_555 1_555
C114 C113 1_555 1_555
H107 C114 1_555 1_555
C115 C114 1_555 1_555
H108 C115 1_555 1_555
C116 C111 1_555 1_555
H109 C116 1_555 1_555
C117 O21 1_555 1_555
H110 C117 1_555 1_555
H111 C117 1_555 1_555
H112 C117 1_555 1_555
C118 O22 1_555 1_555
H113 C118 1_555 1_555
H114 C118 1_555 1_555
C119 C118 1_555 1_555
C120 O24 1_555 1_555
H115 C120 1_555 1_555
H116 C120 1_555 1_555
H117 C120 1_555 1_555
C121 C90 1_555 1_555
H118 C121 1_555 1_555
H119 C121 1_555 1_555
C122 C121 1_555 1_555
H120 C122 1_555 1_555
H121 C122 1_555 1_555
C123 C122 1_555 1_555
C124 C123 1_555 1_555
H122 C124 1_555 1_555
C125 C124 1_555 1_555
H123 C125 1_555 1_555
C126 C125 1_555 1_555
H124 C126 1_555 1_555
C127 C126 1_555 1_555
H125 C127 1_555 1_555
C128 C123 1_555 1_555
H126 C128 1_555 1_555
C129 O25 1_555 1_555
H127 C129 1_555 1_555
H128 C129 1_555 1_555
H129 C129 1_555 1_555
C130 O26 1_555 1_555
H130 C130 1_555 1_555
H131 C130 1_555 1_555
C131 C130 1_555 1_555
C132 O28 1_555 1_555
H132 C132 1_555 1_555
H133 C132 1_555 1_555
H134 C132 1_555 1_555
C133 C97 1_555 1_555
H135 C133 1_555 1_555
H136 C133 1_555 1_555
C134 C133 1_555 1_555
H137 C134 1_555 1_555
H138 C134 1_555 1_555
C135 C134 1_555 1_555
C136 C135 1_555 1_555
H139 C136 1_555 1_555
C137 C136 1_555 1_555
H140 C137 1_555 1_555
C138 C137 1_555 1_555
H141 C138 1_555 1_555
C139 C138 1_555 1_555
H142 C139 1_555 1_555
C140 C135 1_555 1_555
H143 C140 1_555 1_555
C141 O29 1_555 1_555
H144 C141 1_555 1_555
H145 C141 1_555 1_555
H146 C141 1_555 1_555
C142 O30 1_555 1_555
H147 C142 1_555 1_555
H148 C142 1_555 1_555
C143 C142 1_555 1_555
C144 O32 1_555 1_555
H149 C144 1_555 1_555
H150 C144 1_555 1_555
H151 C144 1_555 1_555
C145 C104 1_555 1_555
H152 C145 1_555 1_555
H153 C145 1_555 1_555
C146 C145 1_555 1_555
H154 C146 1_555 1_555
H155 C146 1_555 1_555
C147 C146 1_555 1_555
C148 C147 1_555 1_555
H156 C148 1_555 1_555
C149 C148 1_555 1_555
H157 C149 1_555 1_555
C150 C149 1_555 1_555
H158 C150 1_555 1_555
C151 C150 1_555 1_555
H159 C151 1_555 1_555
C152 C147 1_555 1_555
H160 C152 1_555 1_555
O33 C155 1_555 1_555
O34 C157 1_555 1_555
O35 C184 1_555 1_555
O36 C184 1_555 1_555
O37 C162 1_555 1_555
O38 C164 1_555 1_555
O39 C196 1_555 1_555
O40 C196 1_555 1_555
O41 C169 1_555 1_555
C153 H161 1_555 1_555
H162 C153 1_555 1_555
O42 C207 1_555 1_555
O43 C207 1_555 1_555
O44 C176 1_555 1_555
O45 C178 1_555 1_555
O46 C219 1_555 1_555
O47 C219 1_555 1_555
C154 C155 1_555 1_555
C155 C156 1_555 1_555
C156 H163 1_555 1_555
C157 C156 1_555 1_555
C158 C157 1_555 1_555
C159 C154 1_555 1_555
H164 C159 1_555 1_555
C160 C158 1_555 1_555
H165 C160 1_555 1_555
C161 C160 1_555 1_555
C162 C161 1_555 1_555
C163 C162 1_555 1_555
H166 C163 1_555 1_555
C164 C163 1_555 1_555
C165 C164 1_555 1_555
C166 C161 1_555 1_555
H167 C166 1_555 1_555
C167 C165 1_555 1_555
H168 C167 1_555 1_555
C168 C167 1_555 1_555
C169 C168 1_555 1_555
C170 C169 1_555 1_555
H169 C170 1_555 1_555
C171 C170 1_555 1_555
C172 C171 1_555 1_555
C173 C168 1_555 1_555
H170 C173 1_555 1_555
C174 C172 1_555 1_555
H171 C174 1_555 1_555
C175 C174 1_555 1_555
C176 C175 1_555 1_555
C177 C176 1_555 1_555
H172 C177 1_555 1_555
C178 C177 1_555 1_555
C179 C178 1_555 1_555
C180 C175 1_555 1_555
H173 C180 1_555 1_555
C181 C154 1_555 1_555
H174 C181 1_555 1_555
C182 O33 1_555 1_555
H175 C182 1_555 1_555
H176 C182 1_555 1_555
H177 C182 1_555 1_555
C183 O34 1_555 1_555
H178 C183 1_555 1_555
H179 C183 1_555 1_555
C184 C183 1_555 1_555
C185 O36 1_555 1_555
H180 C185 1_555 1_555
H181 C185 1_555 1_555
H182 C185 1_555 1_555
C186 C160 1_555 1_555
H183 C186 1_555 1_555
H184 C186 1_555 1_555
C187 C186 1_555 1_555
H185 C187 1_555 1_555
H186 C187 1_555 1_555
C188 C187 1_555 1_555
C189 C188 1_555 1_555
H187 C189 1_555 1_555
C190 C189 1_555 1_555
H188 C190 1_555 1_555
C191 C190 1_555 1_555
H189 C191 1_555 1_555
C192 C191 1_555 1_555
H190 C192 1_555 1_555
C193 C188 1_555 1_555
H191 C193 1_555 1_555
C194 O37 1_555 1_555
H192 C194 1_555 1_555
H193 C194 1_555 1_555
H194 C194 1_555 1_555
C195 O38 1_555 1_555
H195 C195 1_555 1_555
H196 C195 1_555 1_555
C196 C195 1_555 1_555
C197 O40 1_555 1_555
H197 C197 1_555 1_555
H198 C197 1_555 1_555
H199 C197 1_555 1_555
C198 C167 1_555 1_555
H200 C198 1_555 1_555
H201 C198 1_555 1_555
C199 C198 1_555 1_555
H202 C199 1_555 1_555
H203 C199 1_555 1_555
C200 C199 1_555 1_555
C201 C200 1_555 1_555
H204 C201 1_555 1_555
C202 C201 1_555 1_555
H205 C202 1_555 1_555
C203 C202 1_555 1_555
H206 C203 1_555 1_555
C204 C203 1_555 1_555
H207 C204 1_555 1_555
C205 C200 1_555 1_555
H208 C205 1_555 1_555
C206 O41 1_555 1_555
H209 C206 1_555 1_555
H210 C206 1_555 1_555
H211 C206 1_555 1_555
O48 C153 1_555 1_555
C207 C153 1_555 1_555
C208 O43 1_555 1_555
H212 C208 1_555 1_555
H213 C208 1_555 1_555
H214 C208 1_555 1_555
C209 C174 1_555 1_555
H215 C209 1_555 1_555
H216 C209 1_555 1_555
C210 C209 1_555 1_555
H217 C210 1_555 1_555
H218 C210 1_555 1_555
C211 C210 1_555 1_555
C212 C211 1_555 1_555
H219 C212 1_555 1_555
C213 C212 1_555 1_555
H220 C213 1_555 1_555
C214 C213 1_555 1_555
H221 C214 1_555 1_555
C215 C214 1_555 1_555
H222 C215 1_555 1_555
C216 C211 1_555 1_555
H223 C216 1_555 1_555
C217 O44 1_555 1_555
H224 C217 1_555 1_555
H225 C217 1_555 1_555
H226 C217 1_555 1_555
C218 O45 1_555 1_555
H227 C218 1_555 1_555
H228 C218 1_555 1_555
C219 C218 1_555 1_555
C220 O47 1_555 1_555
H229 C220 1_555 1_555
H230 C220 1_555 1_555
H231 C220 1_555 1_555
C221 C181 1_555 1_555
H232 C221 1_555 1_555
H233 C221 1_555 1_555
C222 C221 1_555 1_555
H234 C222 1_555 1_555
H235 C222 1_555 1_555
C223 C222 1_555 1_555
C224 C223 1_555 1_555
H236 C224 1_555 1_555
C225 C224 1_555 1_555
H237 C225 1_555 1_555
C226 C225 1_555 1_555
H238 C226 1_555 1_555
C227 C226 1_555 1_555
H239 C227 1_555 1_555
C228 C223 1_555 1_555
H240 C228 1_555 1_555
O49 C230 1_555 1_555
O50 C232 1_555 1_555
O51 C259 1_555 1_555
O52 C259 1_555 1_555
O53 C237 1_555 1_555
O54 C239 1_555 1_555
O55 C271 1_555 1_555
O56 C271 1_555 1_555
O57 C244 1_555 1_555
O58 C246 1_555 1_555
O59 C283 1_555 1_555
O60 C283 1_555 1_555
O61 C251 1_555 1_555
O62 C253 1_555 1_555
O63 C295 1_555 1_555
O64 C295 1_555 1_555
C229 C230 1_555 1_555
C230 C231 1_555 1_555
C231 H241 1_555 1_555
C232 C231 1_555 1_555
C233 C232 1_555 1_555
C234 C229 1_555 1_555
H242 C234 1_555 1_555
C235 C233 1_555 1_555
H243 C235 1_555 1_555
C236 C235 1_555 1_555
C237 C236 1_555 1_555
C238 C237 1_555 1_555
H244 C238 1_555 1_555
C239 C238 1_555 1_555
C240 C239 1_555 1_555
C241 C236 1_555 1_555
H245 C241 1_555 1_555
C242 C240 1_555 1_555
H246 C242 1_555 1_555
C243 C242 1_555 1_555
C244 C243 1_555 1_555
C245 C244 1_555 1_555
H247 C245 1_555 1_555
C246 C245 1_555 1_555
C247 C246 1_555 1_555
C248 C243 1_555 1_555
H248 C248 1_555 1_555
C249 C247 1_555 1_555
H249 C249 1_555 1_555
C250 C249 1_555 1_555
C251 C250 1_555 1_555
C252 C251 1_555 1_555
H250 C252 1_555 1_555
C253 C252 1_555 1_555
C254 C253 1_555 1_555
C255 C250 1_555 1_555
H251 C255 1_555 1_555
C256 C229 1_555 1_555
H252 C256 1_555 1_555
C257 O49 1_555 1_555
H253 C257 1_555 1_555
H254 C257 1_555 1_555
H255 C257 1_555 1_555
C258 O50 1_555 1_555
H256 C258 1_555 1_555
H257 C258 1_555 1_555
C259 C258 1_555 1_555
C260 O52 1_555 1_555
H258 C260 1_555 1_555
H259 C260 1_555 1_555
H260 C260 1_555 1_555
C261 C235 1_555 1_555
H261 C261 1_555 1_555
H262 C261 1_555 1_555
C262 C261 1_555 1_555
H263 C262 1_555 1_555
H264 C262 1_555 1_555
C263 C262 1_555 1_555
C264 C263 1_555 1_555
H265 C264 1_555 1_555
C265 C264 1_555 1_555
H266 C265 1_555 1_555
C266 C265 1_555 1_555
H267 C266 1_555 1_555
C267 C266 1_555 1_555
H268 C267 1_555 1_555
C268 C263 1_555 1_555
H269 C268 1_555 1_555
C269 O53 1_555 1_555
H270 C269 1_555 1_555
H271 C269 1_555 1_555
H272 C269 1_555 1_555
C270 O54 1_555 1_555
H273 C270 1_555 1_555
H274 C270 1_555 1_555
C271 C270 1_555 1_555
C272 O56 1_555 1_555
H275 C272 1_555 1_555
H276 C272 1_555 1_555
H277 C272 1_555 1_555
C273 C242 1_555 1_555
H278 C273 1_555 1_555
H279 C273 1_555 1_555
C274 C273 1_555 1_555
H280 C274 1_555 1_555
H281 C274 1_555 1_555
C275 C274 1_555 1_555
C276 C275 1_555 1_555
H282 C276 1_555 1_555
C277 C276 1_555 1_555
H283 C277 1_555 1_555
C278 C277 1_555 1_555
H284 C278 1_555 1_555
C279 C278 1_555 1_555
H285 C279 1_555 1_555
C280 C275 1_555 1_555
H286 C280 1_555 1_555
C281 O57 1_555 1_555
H287 C281 1_555 1_555
H288 C281 1_555 1_555
H289 C281 1_555 1_555
C282 O58 1_555 1_555
H290 C282 1_555 1_555
H291 C282 1_555 1_555
C283 C282 1_555 1_555
C284 O60 1_555 1_555
H292 C284 1_555 1_555
H293 C284 1_555 1_555
H294 C284 1_555 1_555
C285 C249 1_555 1_555
H295 C285 1_555 1_555
H296 C285 1_555 1_555
C286 C285 1_555 1_555
H297 C286 1_555 1_555
H298 C286 1_555 1_555
C287 C286 1_555 1_555
C288 C287 1_555 1_555
H299 C288 1_555 1_555
C289 C288 1_555 1_555
H300 C289 1_555 1_555
C290 C289 1_555 1_555
H301 C290 1_555 1_555
C291 C290 1_555 1_555
H302 C291 1_555 1_555
C292 C287 1_555 1_555
H303 C292 1_555 1_555
C293 O61 1_555 1_555
H304 C293 1_555 1_555
H305 C293 1_555 1_555
H306 C293 1_555 1_555
C294 O62 1_555 1_555
H307 C294 1_555 1_555
H308 C294 1_555 1_555
C295 C294 1_555 1_555
C296 O64 1_555 1_555
H309 C296 1_555 1_555
H310 C296 1_555 1_555
H311 C296 1_555 1_555
C297 C256 1_555 1_555
H312 C297 1_555 1_555
H313 C297 1_555 1_555
C298 C297 1_555 1_555
H314 C298 1_555 1_555
H315 C298 1_555 1_555
C299 C298 1_555 1_555
C300 C299 1_555 1_555
H316 C300 1_555 1_555
C301 C300 1_555 1_555
H317 C301 1_555 1_555
C302 C301 1_555 1_555
H318 C302 1_555 1_555
C303 C302 1_555 1_555
H319 C303 1_555 1_555
C304 C299 1_555 1_555
H320 C304 1_555 1_555
C5 C6 1_555 1_555
C12 C13 1_555 1_555
C19 C20 1_555 1_555
C26 C27 1_555 1_555
C26 C28 1_555 1_555
C39 C40 1_555 1_555
C51 C52 1_555 1_555
C63 C64 1_555 1_555
C75 C76 1_555 1_555
C81 C82 1_555 1_555
C88 C89 1_555 1_555
C95 C96 1_555 1_555
C102 C103 1_555 1_555
C102 C104 1_555 1_555
C115 C116 1_555 1_555
C127 C128 1_555 1_555
C139 C140 1_555 1_555
C151 C152 1_555 1_555
C158 C159 1_555 1_555
C165 C166 1_555 1_555
C171 O48 1_555 1_555
C172 C173 1_555 1_555
C179 C180 1_555 1_555
C179 C181 1_555 1_555
C192 C193 1_555 1_555
C204 C205 1_555 1_555
C215 C216 1_555 1_555
C227 C228 1_555 1_555
C233 C234 1_555 1_555
C240 C241 1_555 1_555
C247 C248 1_555 1_555
C254 C255 1_555 1_555
C254 C256 1_555 1_555
C267 C268 1_555 1_555
C279 C280 1_555 1_555
C291 C292 1_555 1_555
C303 C304 1_555 1_555

#END
