
#######################################################################
#
#                 Cambridge Crystallographic Data Centre
#                                CCDC 
#
#######################################################################
#
# If this CIF has been generated from an entry in the Cambridge 
# Structural Database, then it will include bibliographic, chemical, 
# crystal, experimental, refinement or atomic coordinate data resulting 
# from the CCDC's data processing and validation procedures.
#
#######################################################################

data_SAGGUF
_chemical_formula_moiety         'C24 H27 N1 O3'
_chemical_name_systematic        
2-Hydroxy-3a'-(hydroxymethyl)-2'-phenyl-3',3a',5',9b'-tetrahydrospiro[cyclohexane-1,1'-cyclopenta[c]quinolin]-4'(2'H)-one
_symmetry_cell_setting           monoclinic
_symmetry_space_group_name_H-M   'C 2/c'
_symmetry_Int_Tables_number      15
_space_group_name_Hall           '-C 2yn'
loop_
_symmetry_equiv_pos_site_id
_symmetry_equiv_pos_as_xyz
1 x,y,z
2 -x,y,1/2-z
3 1/2+x,1/2+y,z
4 1/2-x,1/2+y,1/2-z
5 -x,-y,-z
6 x,-y,1/2+z
7 1/2-x,1/2-y,-z
8 1/2+x,1/2-y,1/2+z
_cell_length_a                   44.225(2)
_cell_length_b                   11.0988(5)
_cell_length_c                   15.9916(7)
_cell_angle_alpha                90
_cell_angle_beta                 99.538(2)
_cell_angle_gamma                90
_cell_volume                     7740.88
_exptl_crystal_colour            colorless
_exptl_crystal_description       block
_cell_formula_units_Z            16
loop_
_atom_site_label
_atom_site_type_symbol
_atom_site_fract_x
_atom_site_fract_y
_atom_site_fract_z
C1 C 0.15099(3) 0.39933(14) -0.23590(9)
H1 H 0.1372 0.4627 -0.2475
C2 C 0.14922(4) 0.30333(15) -0.29155(10)
H2 H 0.1346 0.3033 -0.3405
C3 C 0.16917(4) 0.20763(15) -0.27447(10)
H3 H 0.1682 0.1437 -0.3124
C4 C 0.19058(3) 0.20679(14) -0.20089(10)
H4 H 0.2037 0.1413 -0.1883
C5 C 0.19246(3) 0.30433(13) -0.14586(9)
C6 C 0.17305(3) 0.40321(12) -0.16276(8)
C7 C 0.17662(3) 0.50861(12) -0.10286(8)
H5 H 0.1561 0.5409 -0.1016
C8 C 0.19040(3) 0.47329(12) -0.01146(8)
C9 C 0.21686(3) 0.38398(13) -0.00839(9)
C10 C 0.19687(3) 0.61517(12) -0.12528(8)
C11 C 0.20353(3) 0.68778(12) -0.03928(8)
H6 H 0.2251 0.7126 -0.0321
C12 C 0.20129(3) 0.59326(13) 0.03107(9)
H7 H 0.2212 0.5828 0.0664
H8 H 0.1869 0.6205 0.0667
C13 C 0.16714(3) 0.40827(14) 0.03479(10)
H9 H 0.1609 0.3330 0.0063
H10 H 0.1766 0.3901 0.0926
C14 C 0.22800(3) 0.57116(14) -0.14645(9)
H11 H 0.2395 0.5324 -0.0967
H12 H 0.2242 0.5113 -0.1912
C15 C 0.24749(3) 0.67197(17) -0.17463(11)
H13 H 0.2531 0.7279 -0.1281
H14 H 0.2662 0.6380 -0.1889
C16 C 0.23061(4) 0.73947(18) -0.25073(11)
H15 H 0.2277 0.6867 -0.2998
H16 H 0.2428 0.8077 -0.2632
C17 C 0.19957(4) 0.78391(16) -0.23414(10)
H17 H 0.2026 0.8455 -0.1905
H18 H 0.1884 0.8196 -0.2855
C18 C 0.18105(3) 0.68058(14) -0.20588(9)
H19 H 0.1796 0.6206 -0.2513
C19 C 0.15482(3) 0.79742(15) -0.01569(10)
H20 H 0.1447 0.7238 -0.0168
C20 C 0.18519(3) 0.80044(13) -0.02827(9)
C21 C 0.19945(4) 0.91205(15) -0.02525(11)
H21 H 0.2197 0.9168 -0.0336
C22 C 0.18414(5) 1.01622(17) -0.01010(14)
H22 H 0.1942 1.0901 -0.0077
C23 C 0.15412(5) 1.01064(18) 0.00142(14)
H23 H 0.1437 1.0808 0.0113
C24 C 0.13941(4) 0.90151(17) -0.00167(12)
H24 H 0.1190 0.8977 0.0057
N1 N 0.21503(3) 0.30376(11) -0.07234(7)
H25 H 0.2287 0.2479 -0.0680
O1 O 0.23833(2) 0.38085(10) 0.05173(6)
O2 O 0.14136(2) 0.48262(11) 0.03512(8)
H26 H 0.1302 0.4528 0.0658
O3 O 0.15006(2) 0.71472(9) -0.20207(7)
H27 H 0.1496 0.7854 -0.1874
C25 C 0.07140(5) 0.70899(18) -0.03056(11)
H28 H 0.0795 0.6486 0.0069
C26 C 0.05111(4) 0.79078(18) -0.00693(11)
H29 H 0.0455 0.7858 0.0465
C27 C 0.03899(4) 0.88027(17) -0.06221(10)
H30 H 0.0253 0.9359 -0.0461
C28 C 0.04728(3) 0.88709(14) -0.14236(9)
C29 C 0.06778(3) 0.80459(13) -0.16733(9)
C30 C 0.07979(4) 0.71627(15) -0.11004(10)
H31 H 0.0937 0.6610 -0.1253
C31 C 0.04435(3) 1.00416(13) -0.27343(10)
C32 C 0.07491(3) 0.94753(13) -0.28473(9)
C33 C 0.07704(3) 0.81731(12) -0.25301(8)
H32 H 0.0988 0.7956 -0.2456
C34 C 0.06039(3) 0.73593(12) -0.32740(8)
C35 C 0.02824(3) 0.69698(14) -0.31191(9)
H33 H 0.0300 0.6621 -0.2557
H34 H 0.0153 0.7677 -0.3135
C36 C 0.01295(3) 0.60604(15) -0.37668(10)
H35 H -0.0072 0.5861 -0.3645
H36 H 0.0105 0.6411 -0.4330
C37 C 0.03210(4) 0.49292(15) -0.37406(12)
H37 H 0.0227 0.4378 -0.4179
H38 H 0.0328 0.4535 -0.3196
C38 C 0.06461(4) 0.52244(14) -0.38756(11)
H39 H 0.0770 0.4500 -0.3791
H40 H 0.0641 0.5489 -0.4456
C39 C 0.07935(3) 0.61940(13) -0.32791(9)
H41 H 0.0818 0.5858 -0.2705
C40 C 0.05736(3) 0.82292(13) -0.40683(9)
H42 H 0.0363 0.8539 -0.4138
C41 C 0.07772(3) 0.93157(13) -0.37765(9)
H43 H 0.0988 0.9160 -0.3839
H44 H 0.0706 1.0028 -0.4101
C42 C 0.06106(3) 0.77682(13) -0.49441(9)
C43 C 0.03524(4) 0.76434(16) -0.55652(10)
H45 H 0.0160 0.7837 -0.5439
C44 C 0.03771(5) 0.72333(19) -0.63718(11)
H46 H 0.0202 0.7142 -0.6778
C45 C 0.06606(5) 0.69626(19) -0.65687(11)
H47 H 0.0678 0.6677 -0.7106
C46 C 0.09178(5) 0.71146(18) -0.59710(11)
H48 H 0.1110 0.6946 -0.6106
C47 C 0.08931(4) 0.75178(15) -0.51681(10)
H49 H 0.1070 0.7623 -0.4770
C48 C 0.10002(4) 1.02764(15) -0.23428(11)
H50 H 0.1000 1.1060 -0.2611
H51 H 0.0959 1.0391 -0.1771
N2 N 0.03460(3) 0.97663(12) -0.19971(8)
H52 H 0.0194 1.0173 -0.1870
O4 O 0.02953(3) 1.07251(11) -0.32478(7)
O5 O 0.10970(2) 0.63954(11) -0.34626(6)
H53 H 0.1206 0.6669 -0.3041
O6 O 0.12934(3) 0.97244(12) -0.23117(10)
H54 H 0.1428 1.0214 -0.2141
loop_
_geom_bond_atom_site_label_1
_geom_bond_atom_site_label_2
_geom_bond_site_symmetry_1
_geom_bond_site_symmetry_2
C1 H1 1_555 1_555
C2 C1 1_555 1_555
H2 C2 1_555 1_555
C3 C2 1_555 1_555
H3 C3 1_555 1_555
C4 C3 1_555 1_555
H4 C4 1_555 1_555
C5 C4 1_555 1_555
C6 C1 1_555 1_555
C7 C6 1_555 1_555
H5 C7 1_555 1_555
C8 C7 1_555 1_555
C9 C8 1_555 1_555
C10 C7 1_555 1_555
C11 C10 1_555 1_555
H6 C11 1_555 1_555
C12 C8 1_555 1_555
H7 C12 1_555 1_555
H8 C12 1_555 1_555
C13 C8 1_555 1_555
H9 C13 1_555 1_555
H10 C13 1_555 1_555
C14 C10 1_555 1_555
H11 C14 1_555 1_555
H12 C14 1_555 1_555
C15 C14 1_555 1_555
H13 C15 1_555 1_555
H14 C15 1_555 1_555
C16 C15 1_555 1_555
H15 C16 1_555 1_555
H16 C16 1_555 1_555
C17 C16 1_555 1_555
H17 C17 1_555 1_555
H18 C17 1_555 1_555
C18 C10 1_555 1_555
H19 C18 1_555 1_555
C19 H20 1_555 1_555
C20 C11 1_555 1_555
C21 C20 1_555 1_555
H21 C21 1_555 1_555
C22 C21 1_555 1_555
H22 C22 1_555 1_555
C23 C22 1_555 1_555
H23 C23 1_555 1_555
C24 C19 1_555 1_555
H24 C24 1_555 1_555
N1 C5 1_555 1_555
H25 N1 1_555 1_555
O1 C9 1_555 1_555
O2 C13 1_555 1_555
H26 O2 1_555 1_555
O3 C18 1_555 1_555
H27 O3 1_555 1_555
C25 H28 1_555 1_555
C26 C25 1_555 1_555
H29 C26 1_555 1_555
C27 C26 1_555 1_555
H30 C27 1_555 1_555
C28 C27 1_555 1_555
C29 C28 1_555 1_555
C30 C25 1_555 1_555
H31 C30 1_555 1_555
C31 C32 1_555 1_555
C32 C33 1_555 1_555
C33 C29 1_555 1_555
H32 C33 1_555 1_555
C34 C33 1_555 1_555
C35 C34 1_555 1_555
H33 C35 1_555 1_555
H34 C35 1_555 1_555
C36 C35 1_555 1_555
H35 C36 1_555 1_555
H36 C36 1_555 1_555
C37 C36 1_555 1_555
H37 C37 1_555 1_555
H38 C37 1_555 1_555
C38 C37 1_555 1_555
H39 C38 1_555 1_555
H40 C38 1_555 1_555
C39 C34 1_555 1_555
H41 C39 1_555 1_555
C40 C34 1_555 1_555
H42 C40 1_555 1_555
C41 C32 1_555 1_555
H43 C41 1_555 1_555
H44 C41 1_555 1_555
C42 C40 1_555 1_555
C43 C42 1_555 1_555
H45 C43 1_555 1_555
C44 C43 1_555 1_555
H46 C44 1_555 1_555
C45 C44 1_555 1_555
H47 C45 1_555 1_555
C46 C45 1_555 1_555
H48 C46 1_555 1_555
C47 C42 1_555 1_555
H49 C47 1_555 1_555
C48 C32 1_555 1_555
H50 C48 1_555 1_555
H51 C48 1_555 1_555
N2 C28 1_555 1_555
H52 N2 1_555 1_555
O4 C31 1_555 1_555
O5 C39 1_555 1_555
H53 O5 1_555 1_555
O6 C48 1_555 1_555
H54 O6 1_555 1_555
C5 C6 1_555 1_555
C9 N1 1_555 1_555
C11 C12 1_555 1_555
C17 C18 1_555 1_555
C19 C20 1_555 1_555
C23 C24 1_555 1_555
C29 C30 1_555 1_555
C31 N2 1_555 1_555
C38 C39 1_555 1_555
C40 C41 1_555 1_555
C46 C47 1_555 1_555

#END
