
#######################################################################
#
#                 Cambridge Crystallographic Data Centre
#                                CCDC 
#
#######################################################################
#
# If this CIF has been generated from an entry in the Cambridge 
# Structural Database, then it will include bibliographic, chemical, 
# crystal, experimental, refinement or atomic coordinate data resulting 
# from the CCDC's data processing and validation procedures.
#
#######################################################################

data_SAGGOY
_chemical_formula_moiety         'C33 H39 N3 O10,C3 H6 O1'
_chemical_name_systematic        
'20,23,26,29,32,35,38,41-Octa-oxa-5,9,13-triazapentacyclo[15.14.10.1^3,30^.1^7,11^.1^15,19^]tetratetraconta-1,3(42),7,9,11(44),15(43),16,18,30-nonaene-6,12-dione cryptand acetone solvate'
_symmetry_cell_setting           tetragonal
_symmetry_space_group_name_H-M   'P 43'
_symmetry_Int_Tables_number      78
_space_group_name_Hall           'P 4cw'
loop_
_symmetry_equiv_pos_site_id
_symmetry_equiv_pos_as_xyz
1 x,y,z
2 -x,-y,1/2+z
3 -y,x,3/4+z
4 y,-x,1/4+z
_cell_length_a                   14.232(3)
_cell_length_b                   14.232(3)
_cell_length_c                   17.615(4)
_cell_angle_alpha                90
_cell_angle_beta                 90
_cell_angle_gamma                90
_cell_volume                     3567.92
_exptl_crystal_colour            colorless
_exptl_crystal_description       block
_cell_formula_units_Z            4
_exptl_crystal_recrystallization_method acetone/dichloromethane
loop_
_atom_site_label
_atom_site_type_symbol
_atom_site_fract_x
_atom_site_fract_y
_atom_site_fract_z
O1 O 0.8054(4) 0.7413(4) 0.2477(3)
C23 C 0.7716(4) 0.7518(4) 0.3107(3)
C28 C 0.6695(5) 0.7563(5) 0.3211(5)
H26 H 0.6486 0.8199 0.3145
H27 H 0.6538 0.7352 0.3713
H28 H 0.6394 0.7167 0.2843
C29 C 0.8342(5) 0.7579(4) 0.3779(4)
H29 H 0.8323 0.6996 0.4052
H30 H 0.8134 0.8080 0.4103
H31 H 0.8973 0.7702 0.3615
O2 O 0.7434(4) 0.4588(3) 0.0601(3)
O3 O 0.7236(3) 0.9474(3) -0.0035(2)
O4 O 0.9501(2) 0.9872(3) 0.37266(19)
O5 O 0.6174(3) 0.9965(3) 0.3937(2)
O6 O 0.5654(3) 0.5410(3) 0.4265(3)
O7 O 0.8974(3) 0.5340(3) 0.4588(3)
O8 O 0.5101(3) 0.8513(3) 0.4713(2)
O9 O 0.4182(4) 0.6829(3) 0.4163(3)
O10 O 1.0150(4) 0.6896(4) 0.5070(5)
O11 O 1.0690(3) 0.8355(4) 0.4078(4)
N1 N 0.7616(3) 0.9071(3) 0.1148(2)
H1 H 0.7766 0.8625 0.1455
N2 N 0.7660(3) 0.5452(3) 0.1635(3)
H2 H 0.7701 0.6003 0.1834
N3 N 0.7796(3) 0.6805(4) -0.0855(2)
C1 C 0.7603(3) 0.6219(4) 0.0422(3)
C2 C 0.7553(4) 0.5357(4) 0.0897(3)
C3 C 0.8547(4) 0.9978(3) 0.2587(3)
H3 H 0.9070 0.9959 0.2271
C4 C 0.7574(3) 0.7870(3) 0.0188(3)
C5 C 0.6878(4) 1.0033(3) 0.2752(3)
H4 H 0.6277 1.0054 0.2544
C6 C 0.8652(4) 0.9957(3) 0.3360(3)
C7 C 0.7876(3) 0.9989(3) 0.3843(3)
H5 H 0.7957 1.0000 0.4367
C8 C 0.6990(4) 1.0006(3) 0.3530(3)
C9 C 0.7524(3) 0.7122(3) 0.0686(3)
H6 H 0.7438 0.7230 0.1202
C10 C 0.6657(4) 0.4984(4) 0.3207(4)
H7 H 0.6147 0.4905 0.2884
C11 C 0.7524(4) 1.0015(4) 0.1435(3)
H8 H 0.6909 1.0260 0.1305
H9 H 0.7995 1.0414 0.1201
C12 C 0.8172(4) 0.5212(4) 0.4178(4)
C13 C 0.7736(3) 0.6112(4) -0.0360(3)
H10 H 0.7787 0.5503 -0.0546
C14 C 0.7273(4) 0.5348(4) 0.4452(3)
H11 H 0.7173 0.5515 0.4956
C15 C 0.7646(4) 1.0030(3) 0.2283(3)
C16 C 0.8306(5) 0.4957(4) 0.3418(4)
H12 H 0.8910 0.4857 0.3234
C17 C 0.7550(5) 0.4857(4) 0.2943(3)
C18 C 0.6518(4) 0.5231(4) 0.3952(3)
C19 C 0.7702(3) 0.7669(4) -0.0574(3)
H13 H 0.7724 0.8171 -0.0911
C20 C 0.7474(3) 0.8878(4) 0.0420(3)
C21 C 0.5283(4) 0.9426(4) 0.4984(4)
H14 H 0.5255 0.9432 0.5535
H15 H 0.4813 0.9858 0.4792
C22 C 0.4860(5) 0.5395(5) 0.3770(4)
H16 H 0.4709 0.4751 0.3638
H17 H 0.5009 0.5730 0.3306
C24 C 1.0285(4) 0.9579(4) 0.3280(3)
H18 H 1.0528 1.0108 0.2994
H19 H 1.0088 0.9099 0.2923
C25 C 1.1021(4) 0.9204(5) 0.3775(4)
H20 H 1.1593 0.9098 0.3488
H21 H 1.1157 0.9645 0.4181
C26 C 0.7707(5) 0.4622(4) 0.2112(3)
H22 H 0.8319 0.4329 0.2054
H23 H 0.7235 0.4174 0.1948
C27 C 0.6231(4) 0.9722(5) 0.4727(3)
H24 H 0.6443 1.0258 0.5020
H25 H 0.6677 0.9213 0.4799
C30 C 0.4058(5) 0.5828(5) 0.4130(5)
H32 H 0.3493 0.5681 0.3846
H33 H 0.3986 0.5580 0.4640
C31 C 0.8920(5) 0.5784(5) 0.5309(4)
H34 H 0.8689 0.5344 0.5685
H35 H 0.8490 0.6312 0.5286
C32 C 0.4120(6) 0.7166(5) 0.4873(4)
H36 H 0.4615 0.6887 0.5177
H37 H 0.3523 0.6974 0.5088
C33 C 0.4196(5) 0.8199(5) 0.4922(4)
H38 H 0.3733 0.8484 0.4591
H39 H 0.4063 0.8397 0.5438
C34 C 0.9884(5) 0.6118(5) 0.5524(5)
H40 H 0.9889 0.6299 0.6055
H41 H 1.0332 0.5612 0.5456
C35 C 1.1288(5) 0.7776(6) 0.4430(6)
H42 H 1.1599 0.8135 0.4825
H43 H 1.1767 0.7600 0.4064
C36 C 1.0958(6) 0.6952(6) 0.4760(7)
H44 H 1.0979 0.6471 0.4370
H45 H 1.1413 0.6772 0.5143
loop_
_geom_bond_atom_site_label_1
_geom_bond_atom_site_label_2
_geom_bond_site_symmetry_1
_geom_bond_site_symmetry_2
O1 C23 1_555 1_555
O2 C2 1_555 1_555
O3 C20 1_555 1_555
O4 C6 1_555 1_555
O5 C8 1_555 1_555
O6 C18 1_555 1_555
O7 C12 1_555 1_555
O8 C21 1_555 1_555
O9 C30 1_555 1_555
O10 C34 1_555 1_555
O11 C25 1_555 1_555
N1 H1 1_555 1_555
N2 H2 1_555 1_555
N3 C13 1_555 1_555
C1 C2 1_555 1_555
C2 N2 1_555 1_555
C3 H3 1_555 1_555
C4 C9 1_555 1_555
C5 H4 1_555 1_555
C6 C3 1_555 1_555
C7 C6 1_555 1_555
H5 C7 1_555 1_555
C8 C5 1_555 1_555
C9 C1 1_555 1_555
H6 C9 1_555 1_555
C10 H7 1_555 1_555
C11 N1 1_555 1_555
H8 C11 1_555 1_555
H9 C11 1_555 1_555
C12 C14 1_555 1_555
C13 C1 1_555 1_555
H10 C13 1_555 1_555
C14 H11 1_555 1_555
C15 C3 1_555 1_555
C16 C12 1_555 1_555
H12 C16 1_555 1_555
C17 C10 1_555 1_555
C18 C10 1_555 1_555
C19 N3 1_555 1_555
H13 C19 1_555 1_555
C20 N1 1_555 1_555
C21 H14 1_555 1_555
H15 C21 1_555 1_555
C22 O6 1_555 1_555
H16 C22 1_555 1_555
H17 C22 1_555 1_555
C23 C28 1_555 1_555
C24 O4 1_555 1_555
H18 C24 1_555 1_555
H19 C24 1_555 1_555
C25 C24 1_555 1_555
H20 C25 1_555 1_555
H21 C25 1_555 1_555
C26 N2 1_555 1_555
H22 C26 1_555 1_555
H23 C26 1_555 1_555
C27 O5 1_555 1_555
H24 C27 1_555 1_555
H25 C27 1_555 1_555
C28 H26 1_555 1_555
H27 C28 1_555 1_555
H28 C28 1_555 1_555
C29 C23 1_555 1_555
H29 C29 1_555 1_555
H30 C29 1_555 1_555
H31 C29 1_555 1_555
C30 C22 1_555 1_555
H32 C30 1_555 1_555
H33 C30 1_555 1_555
C31 O7 1_555 1_555
H34 C31 1_555 1_555
H35 C31 1_555 1_555
C32 O9 1_555 1_555
H36 C32 1_555 1_555
H37 C32 1_555 1_555
C33 O8 1_555 1_555
H38 C33 1_555 1_555
H39 C33 1_555 1_555
C34 C31 1_555 1_555
H40 C34 1_555 1_555
H41 C34 1_555 1_555
C35 O11 1_555 1_555
H42 C35 1_555 1_555
H43 C35 1_555 1_555
C36 O10 1_555 1_555
H44 C36 1_555 1_555
H45 C36 1_555 1_555
C4 C19 1_555 1_555
C4 C20 1_555 1_555
C5 C15 1_555 1_555
C7 C8 1_555 1_555
C11 C15 1_555 1_555
C14 C18 1_555 1_555
C16 C17 1_555 1_555
C17 C26 1_555 1_555
C21 C27 1_555 1_555
C32 C33 1_555 1_555
C35 C36 1_555 1_555

#END
