
#######################################################################
#
#                 Cambridge Crystallographic Data Centre
#                                CCDC 
#
#######################################################################
#
# If this CIF has been generated from an entry in the Cambridge 
# Structural Database, then it will include bibliographic, chemical, 
# crystal, experimental, refinement or atomic coordinate data resulting 
# from the CCDC's data processing and validation procedures.
#
#######################################################################

data_SAGGEP
_chemical_formula_moiety         'C19 H15 N1 O1'
_chemical_name_systematic        
11a-phenyl-7,11a-dihydro-5H-azepino[2,1-a]isoindol-5-one
_symmetry_cell_setting           monoclinic
_symmetry_space_group_name_H-M   'P 21/n'
_symmetry_Int_Tables_number      14
_space_group_name_Hall           '-P 2yn'
loop_
_symmetry_equiv_pos_site_id
_symmetry_equiv_pos_as_xyz
1 x,y,z
2 1/2-x,1/2+y,1/2-z
3 -x,-y,-z
4 1/2+x,1/2-y,1/2+z
_cell_length_a                   9.787(4)
_cell_length_b                   10.989(4)
_cell_length_c                   13.498(5)
_cell_angle_alpha                90
_cell_angle_beta                 103.780(5)
_cell_angle_gamma                90
_cell_volume                     1409.92
_exptl_crystal_colour            colorless
_exptl_crystal_description       plate
_cell_formula_units_Z            4
loop_
_atom_site_label
_atom_site_type_symbol
_atom_site_fract_x
_atom_site_fract_y
_atom_site_fract_z
O1 O -0.01222(13) 0.57028(13) 0.13212(10)
N1 N 0.21682(14) 0.63130(13) 0.14664(11)
C1 C 0.26327(17) 0.71391(15) 0.30874(13)
C2 C 0.31682(19) 0.76942(17) 0.40188(14)
H1 H 0.4088 0.7981 0.4194
C3 C 0.2291(2) 0.78103(18) 0.46837(14)
H2 H 0.2632 0.8173 0.5317
C4 C 0.0910(2) 0.73929(19) 0.44185(14)
H3 H 0.0338 0.7489 0.4874
C5 C 0.03760(19) 0.68392(18) 0.34904(14)
H4 H -0.0547 0.6559 0.3311
C6 C 0.12629(18) 0.67151(16) 0.28335(13)
C7 C 0.09713(17) 0.61778(16) 0.17995(13)
C8 C 0.22724(19) 0.59293(18) 0.04587(13)
H5 H 0.1550 0.5328 0.0202
H6 H 0.3179 0.5544 0.0512
C9 C 0.21159(19) 0.6953(2) -0.02834(14)
H7 H 0.1684 0.6775 -0.0959
C10 C 0.2531(2) 0.8091(2) -0.00766(15)
H8 H 0.2277 0.8637 -0.0615
C11 C 0.3337(2) 0.86041(17) 0.08899(15)
H9 H 0.3633 0.9402 0.0844
C12 C 0.37222(19) 0.81255(17) 0.18252(14)
H10 H 0.4316 0.8607 0.2310
C13 C 0.33296(17) 0.69116(16) 0.22070(13)
C14 C 0.45871(17) 0.60360(16) 0.24915(13)
C15 C 0.4558(2) 0.50734(17) 0.31551(16)
H11 H 0.3801 0.4992 0.3456
C16 C 0.5647(2) 0.42352(19) 0.33733(18)
H12 H 0.5617 0.3598 0.3822
C17 C 0.6778(2) 0.43398(19) 0.29277(17)
H13 H 0.7505 0.3774 0.3073
C18 C 0.6818(2) 0.5289(2) 0.22668(16)
H14 H 0.7574 0.5361 0.1963
C19 C 0.57343(18) 0.61385(18) 0.20518(14)
H15 H 0.5775 0.6780 0.1611
loop_
_geom_bond_atom_site_label_1
_geom_bond_atom_site_label_2
_geom_bond_site_symmetry_1
_geom_bond_site_symmetry_2
O1 C7 1_555 1_555
N1 C7 1_555 1_555
C1 C2 1_555 1_555
C2 H1 1_555 1_555
C3 C2 1_555 1_555
H2 C3 1_555 1_555
C4 C3 1_555 1_555
H3 C4 1_555 1_555
C5 C4 1_555 1_555
H4 C5 1_555 1_555
C6 C1 1_555 1_555
C7 C6 1_555 1_555
C8 N1 1_555 1_555
H5 C8 1_555 1_555
H6 C8 1_555 1_555
C9 C8 1_555 1_555
H7 C9 1_555 1_555
C10 C9 1_555 1_555
H8 C10 1_555 1_555
C11 C10 1_555 1_555
H9 C11 1_555 1_555
C12 C11 1_555 1_555
H10 C12 1_555 1_555
C13 N1 1_555 1_555
C14 C13 1_555 1_555
C15 C14 1_555 1_555
H11 C15 1_555 1_555
C16 C15 1_555 1_555
H12 C16 1_555 1_555
C17 C16 1_555 1_555
H13 C17 1_555 1_555
C18 C17 1_555 1_555
H14 C18 1_555 1_555
C19 C14 1_555 1_555
H15 C19 1_555 1_555
C1 C13 1_555 1_555
C5 C6 1_555 1_555
C12 C13 1_555 1_555
C18 C19 1_555 1_555

#END
