
#######################################################################
#
#                 Cambridge Crystallographic Data Centre
#                                CCDC 
#
#######################################################################
#
# If this CIF has been generated from an entry in the Cambridge 
# Structural Database, then it will include bibliographic, chemical, 
# crystal, experimental, refinement or atomic coordinate data resulting 
# from the CCDC's data processing and validation procedures.
#
#######################################################################

data_SAGHEP
_chemical_name_common            
(S)-3-Acetyl-3-((R)-1-(4-bromophenyl)-2-nitroethyl)oxolan-2-one
_chemical_formula_moiety         'C14 H14 Br1 N1 O5'
_chemical_name_systematic        
(S)-3-Acetyl-3-((R)-1-(4-bromophenyl)-2-nitroethyl)dihydrofuran-2(3H)-one
_symmetry_cell_setting           monoclinic
_symmetry_space_group_name_H-M   'P 21'
_symmetry_Int_Tables_number      4
_space_group_name_Hall           'P 2yb'
loop_
_symmetry_equiv_pos_site_id
_symmetry_equiv_pos_as_xyz
1 x,y,z
2 -x,1/2+y,-z
_cell_length_a                   9.6237(7)
_cell_length_b                   6.6547(4)
_cell_length_c                   12.0503(8)
_cell_angle_alpha                90
_cell_angle_beta                 105.794(2)
_cell_angle_gamma                90
_cell_volume                     742.6
_exptl_crystal_colour            colorless
_exptl_crystal_description       block
_cell_formula_units_Z            2
loop_
_atom_site_label
_atom_site_type_symbol
_atom_site_fract_x
_atom_site_fract_y
_atom_site_fract_z
Br1 Br 0.01386(6) 0.39571(12) 0.91217(5)
O1 O 0.6151(4) 0.8445(6) 0.9285(3)
O2 O 0.5776(5) 1.1368(6) 0.8363(4)
O3 O 0.6176(3) 0.9028(8) 0.5481(3)
O4 O 0.2157(5) 0.9380(9) 0.4296(4)
O5 O 0.1045(5) 1.0968(9) 0.5321(5)
N1 N 0.2123(6) 1.0229(7) 0.5175(4)
C1 C 0.4009(5) 0.8284(6) 0.6525(4)
H1 H 0.3954 0.7478 0.5833
C2 C 0.5624(5) 0.8272(6) 0.7251(4)
C3 C 0.6125(6) 0.6151(8) 0.7740(5)
H2 H 0.5456 0.5124 0.7346
H3 H 0.7080 0.5846 0.7665
C4 C 0.6136(8) 0.6296(10) 0.9003(5)
H4 H 0.5284 0.5655 0.9125
H5 H 0.6985 0.5636 0.9487
C5 C 0.5860(5) 0.9572(8) 0.8336(4)
C6 C 0.6619(5) 0.8984(11) 0.6521(4)
C7 C 0.8152(6) 0.9490(11) 0.7133(5)
H6 H 0.8786 0.8842 0.6752
H7 H 0.8368 0.9035 0.7917
H8 H 0.8286 1.0919 0.7121
C8 C 0.3494(6) 1.0384(8) 0.6113(4)
H9 H 0.3336 1.1162 0.6749
H10 H 0.4221 1.1062 0.5829
C9 C 0.2998(5) 0.7295(7) 0.7150(4)
C10 C 0.2338(5) 0.5493(7) 0.6755(4)
H11 H 0.2479 0.4934 0.6087
C11 C 0.1475(5) 0.4496(7) 0.7317(4)
H12 H 0.1046 0.3277 0.7042
C12 C 0.1266(5) 0.5352(8) 0.8298(4)
C13 C 0.1879(6) 0.7160(9) 0.8705(5)
H13 H 0.1721 0.7721 0.9367
C14 C 0.2725(6) 0.8132(7) 0.8127(4)
H14 H 0.3124 0.9373 0.8393
loop_
_geom_bond_atom_site_label_1
_geom_bond_atom_site_label_2
_geom_bond_site_symmetry_1
_geom_bond_site_symmetry_2
Br1 C12 1_555 1_555
O1 C4 1_555 1_555
O2 C5 1_555 1_555
O3 C6 1_555 1_555
O4 N1 1_555 1_555
O5 N1 1_555 1_555
N1 C8 1_555 1_555
C1 H1 1_555 1_555
C2 C1 1_555 1_555
C3 C2 1_555 1_555
H2 C3 1_555 1_555
H3 C3 1_555 1_555
C4 C3 1_555 1_555
H4 C4 1_555 1_555
H5 C4 1_555 1_555
C5 O1 1_555 1_555
C6 C2 1_555 1_555
C7 C6 1_555 1_555
H6 C7 1_555 1_555
H7 C7 1_555 1_555
H8 C7 1_555 1_555
C8 C1 1_555 1_555
H9 C8 1_555 1_555
H10 C8 1_555 1_555
C9 C1 1_555 1_555
C10 C9 1_555 1_555
H11 C10 1_555 1_555
C11 C10 1_555 1_555
H12 C11 1_555 1_555
C12 C11 1_555 1_555
C13 C12 1_555 1_555
H13 C13 1_555 1_555
C14 C9 1_555 1_555
H14 C14 1_555 1_555
C2 C5 1_555 1_555
C13 C14 1_555 1_555

#END
