
#######################################################################
#
#                 Cambridge Crystallographic Data Centre
#                                CCDC 
#
#######################################################################
#
# If this CIF has been generated from an entry in the Cambridge 
# Structural Database, then it will include bibliographic, chemical, 
# crystal, experimental, refinement or atomic coordinate data resulting 
# from the CCDC's data processing and validation procedures.
#
#######################################################################

data_SAGHAM
_chemical_formula_moiety         'C14 H9 F3 N2'
_chemical_name_systematic        
7-phenyl-5-(trifluoromethyl)-1H-pyrrolo[3,2-b]pyridine
_symmetry_cell_setting           monoclinic
_symmetry_space_group_name_H-M   'P 21/n'
_symmetry_Int_Tables_number      14
_space_group_name_Hall           '-P 2yn'
loop_
_symmetry_equiv_pos_site_id
_symmetry_equiv_pos_as_xyz
1 x,y,z
2 1/2-x,1/2+y,1/2-z
3 -x,-y,-z
4 1/2+x,1/2-y,1/2+z
_cell_length_a                   11.813(9)
_cell_length_b                   11.294(9)
_cell_length_c                   18.965(14)
_cell_angle_alpha                90
_cell_angle_beta                 107.730(11)
_cell_angle_gamma                90
_cell_volume                     2410.05
_exptl_crystal_colour            colorless
_exptl_crystal_description       needle
_chemical_melting_point          '191.7-192.8 deg.C'
_cell_formula_units_Z            8
loop_
_atom_site_label
_atom_site_type_symbol
_atom_site_fract_x
_atom_site_fract_y
_atom_site_fract_z
C1 C 0.6603(5) -0.0710(6) 0.1698(3)
H1 H 0.6148 -0.1033 0.1250
C2 C 0.7801(5) -0.0751(5) 0.1955(3)
H2 H 0.8311 -0.1102 0.1727
C3 C 0.8120(4) -0.0151(5) 0.2643(3)
C4 C 0.7059(4) 0.0234(5) 0.2771(3)
C5 C 0.7087(4) 0.0830(5) 0.3417(3)
C6 C 0.6025(5) 0.1206(5) 0.3608(3)
C7 C 0.5104(5) 0.1800(5) 0.3109(4)
H3 H 0.5133 0.1948 0.2632
C8 C 0.4141(5) 0.2174(6) 0.3314(5)
H4 H 0.3525 0.2572 0.2972
C9 C 0.4068(6) 0.1972(6) 0.4011(5)
H5 H 0.3403 0.2216 0.4137
C10 C 0.4985(6) 0.1407(7) 0.4519(4)
H6 H 0.4951 0.1277 0.4996
C11 C 0.5962(5) 0.1030(6) 0.4323(4)
H7 H 0.6585 0.0654 0.4673
C12 C 0.8212(5) 0.1036(5) 0.3884(3)
H8 H 0.8303 0.1435 0.4327
C13 C 0.9213(5) 0.0664(5) 0.3712(3)
C14 C 1.0407(5) 0.0986(7) 0.4187(4)
F1 F 1.0412(4) 0.1403(6) 0.4841(3)
F2 F 1.1168(4) 0.0095(5) 0.4344(3)
F3 F 1.0932(4) 0.1804(5) 0.3886(3)
N1 N 0.6147(4) -0.0128(4) 0.2184(3)
N2 N 0.9202(4) 0.0077(4) 0.3102(3)
H9 H 0.529(5) -0.017(5) 0.211(3)
C15 C 0.2330(5) -0.0754(6) 0.3118(3)
H10 H 0.2332 -0.1124 0.3556
C16 C 0.3266(5) -0.0724(6) 0.2839(3)
H11 H 0.4011 -0.1060 0.3052
C17 C 0.2901(4) -0.0097(5) 0.2174(3)
C18 C 0.1706(4) 0.0271(5) 0.2065(3)
C19 C 0.1106(4) 0.0914(5) 0.1463(3)
C20 C -0.0139(4) 0.1351(5) 0.1318(3)
C21 C -0.0495(5) 0.1878(5) 0.1878(3)
H12 H 0.0042 0.1948 0.2350
C22 C -0.1627(5) 0.2296(5) 0.1740(4)
H13 H -0.1852 0.2656 0.2118
C23 C -0.2430(6) 0.2187(7) 0.1054(5)
H14 H -0.3199 0.2473 0.0963
C24 C -0.2099(5) 0.1657(7) 0.0498(4)
H15 H -0.2645 0.1583 0.0029
C25 C -0.0953(5) 0.1228(6) 0.0631(3)
H16 H -0.0736 0.0856 0.0253
C26 C 0.1736(5) 0.1180(5) 0.0967(3)
H17 H 0.1368 0.1592 0.0533
C27 C 0.2913(5) 0.0824(5) 0.1126(3)
C28 C 0.3604(6) 0.1215(7) 0.0636(4)
F4 F 0.4343(6) 0.2061(6) 0.0930(3)
F5 F 0.4292(4) 0.0380(5) 0.0497(3)
F6 F 0.2954(4) 0.1556(6) -0.0028(3)
N3 N 0.1387(4) -0.0154(4) 0.2653(3)
N4 N 0.3503(4) 0.0198(4) 0.1704(3)
H18 H 0.061(7) -0.011(7) 0.275(4)
loop_
_geom_bond_atom_site_label_1
_geom_bond_atom_site_label_2
_geom_bond_site_symmetry_1
_geom_bond_site_symmetry_2
C1 H1 1_555 1_555
C2 C1 1_555 1_555
H2 C2 1_555 1_555
C3 C2 1_555 1_555
C4 C3 1_555 1_555
C5 C4 1_555 1_555
C6 C5 1_555 1_555
C7 C6 1_555 1_555
H3 C7 1_555 1_555
C8 C7 1_555 1_555
H4 C8 1_555 1_555
C9 C8 1_555 1_555
H5 C9 1_555 1_555
C10 C9 1_555 1_555
H6 C10 1_555 1_555
C11 C6 1_555 1_555
H7 C11 1_555 1_555
C12 C5 1_555 1_555
H8 C12 1_555 1_555
C13 C12 1_555 1_555
C14 C13 1_555 1_555
F1 C14 1_555 1_555
F2 C14 1_555 1_555
F3 C14 1_555 1_555
N1 C1 1_555 1_555
N2 C3 1_555 1_555
H9 N1 1_555 1_555
C15 H10 1_555 1_555
C16 C15 1_555 1_555
H11 C16 1_555 1_555
C17 C16 1_555 1_555
C18 C17 1_555 1_555
C19 C18 1_555 1_555
C20 C19 1_555 1_555
C21 C20 1_555 1_555
H12 C21 1_555 1_555
C22 C21 1_555 1_555
H13 C22 1_555 1_555
C23 C22 1_555 1_555
H14 C23 1_555 1_555
C24 C23 1_555 1_555
H15 C24 1_555 1_555
C25 C20 1_555 1_555
H16 C25 1_555 1_555
C26 C19 1_555 1_555
H17 C26 1_555 1_555
C27 C26 1_555 1_555
C28 C27 1_555 1_555
F4 C28 1_555 1_555
F5 C28 1_555 1_555
F6 C28 1_555 1_555
N3 C15 1_555 1_555
N4 C17 1_555 1_555
H18 N3 1_555 1_555
C4 N1 1_555 1_555
C10 C11 1_555 1_555
C13 N2 1_555 1_555
C18 N3 1_555 1_555
C24 C25 1_555 1_555
C27 N4 1_555 1_555

#END
