
#######################################################################
#
#                 Cambridge Crystallographic Data Centre
#                                CCDC 
#
#######################################################################
#
# If this CIF has been generated from an entry in the Cambridge 
# Structural Database, then it will include bibliographic, chemical, 
# crystal, experimental, refinement or atomic coordinate data resulting 
# from the CCDC's data processing and validation procedures.
#
#######################################################################

data_SAGJER
_chemical_formula_moiety         'C16 H19 N3 O5 S1'
_chemical_name_systematic        
'Methyl 2-(2-(t-butoxycarbonylamino)-1,3-benzothiazole-6-carboxamido)acetate'
_chemical_properties_biological  
'Urokinase-Type Plasminogen Activator (uPA) inhibitor'
_symmetry_cell_setting           monoclinic
_symmetry_space_group_name_H-M   'P 21/c'
_symmetry_Int_Tables_number      14
_space_group_name_Hall           '-P 2ybc'
loop_
_symmetry_equiv_pos_site_id
_symmetry_equiv_pos_as_xyz
1 x,y,z
2 -x,1/2+y,1/2-z
3 -x,-y,-z
4 x,1/2-y,1/2+z
_cell_length_a                   16.861(3)
_cell_length_b                   11.317(2)
_cell_length_c                   9.6484(19)
_cell_angle_alpha                90
_cell_angle_beta                 98.94(3)
_cell_angle_gamma                90
_cell_volume                     1818.7
_exptl_crystal_colour            colorless
_exptl_crystal_description       prism
_cell_formula_units_Z            4
_exptl_crystal_recrystallization_method dimethylformamide
loop_
_atom_site_label
_atom_site_type_symbol
_atom_site_fract_x
_atom_site_fract_y
_atom_site_fract_z
S1 S 0.36614(4) 0.72248(7) 0.16296(8)
O1 O 0.05637(13) 0.7065(2) -0.3160(2)
O2 O -0.06380(16) 0.6314(3) -0.0995(3)
O3 O 0.49650(13) 0.7178(2) 0.3633(2)
O4 O 0.60458(12) 0.59926(19) 0.3591(2)
O5 O -0.16027(18) 0.7431(4) -0.2127(5)
N1 N 0.50500(13) 0.5954(2) 0.1795(2)
H1 H 0.5363 0.5490 0.1426
N2 N 0.40231(13) 0.5568(2) -0.0059(2)
N3 N 0.05095(15) 0.7905(3) -0.1077(3)
H2 H 0.0756 0.8095 -0.0259
C1 C 0.21789(16) 0.7285(3) -0.0217(3)
H3 H 0.1985 0.7890 0.0290
C2 C 0.5917(3) 0.5968(4) 0.6084(4)
H4 H 0.5441 0.6448 0.5945
H5 H 0.6199 0.6089 0.7017
H6 H 0.5770 0.5151 0.5962
C3 C -0.0922(2) 0.7299(4) -0.1594(4)
C4 C -0.1190(3) 0.5336(5) -0.1009(7)
H7 H -0.1640 0.5574 -0.0578
H8 H -0.0922 0.4684 -0.0498
H9 H -0.1373 0.5100 -0.1960
C5 C 0.7200(2) 0.5557(4) 0.5209(4)
H10 H 0.7053 0.4740 0.5087
H11 H 0.7497 0.5673 0.6132
H12 H 0.7526 0.5781 0.4521
C6 C 0.43024(16) 0.6160(2) 0.1075(3)
C7 C 0.32479(16) 0.5921(2) -0.0557(3)
C8 C 0.17080(16) 0.6823(3) -0.1401(3)
C9 C 0.29461(16) 0.6830(2) 0.0201(3)
C10 C 0.27640(17) 0.5443(3) -0.1727(3)
H13 H 0.2951 0.4828 -0.2228
C11 C 0.20071(17) 0.5895(3) -0.2130(3)
H14 H 0.1684 0.5575 -0.2909
C12 C 0.08877(18) 0.7271(3) -0.1946(3)
C13 C 0.53326(17) 0.6445(3) 0.3083(3)
C14 C 0.64493(19) 0.6309(3) 0.5033(3)
C15 C -0.03095(19) 0.8269(4) -0.1511(4)
H15 H -0.0350 0.8638 -0.2427
H16 H -0.0441 0.8864 -0.0860
C16 C 0.6663(2) 0.7601(3) 0.5084(4)
H17 H 0.6974 0.7777 0.4356
H18 H 0.6972 0.7785 0.5980
H19 H 0.6181 0.8065 0.4947
loop_
_geom_bond_atom_site_label_1
_geom_bond_atom_site_label_2
_geom_bond_site_symmetry_1
_geom_bond_site_symmetry_2
S1 C6 1_555 1_555
O1 C12 1_555 1_555
O2 C3 1_555 1_555
O3 C13 1_555 1_555
O4 C13 1_555 1_555
O5 C3 1_555 1_555
N1 H1 1_555 1_555
N2 C6 1_555 1_555
N3 H2 1_555 1_555
C1 H3 1_555 1_555
C2 H4 1_555 1_555
H5 C2 1_555 1_555
H6 C2 1_555 1_555
C3 C15 1_555 1_555
C4 O2 1_555 1_555
H7 C4 1_555 1_555
H8 C4 1_555 1_555
H9 C4 1_555 1_555
C5 H10 1_555 1_555
H11 C5 1_555 1_555
H12 C5 1_555 1_555
C6 N1 1_555 1_555
C7 N2 1_555 1_555
C8 C1 1_555 1_555
C9 S1 1_555 1_555
C10 C7 1_555 1_555
H13 C10 1_555 1_555
C11 C8 1_555 1_555
H14 C11 1_555 1_555
C12 N3 1_555 1_555
C13 N1 1_555 1_555
C14 O4 1_555 1_555
C15 N3 1_555 1_555
H15 C15 1_555 1_555
H16 C15 1_555 1_555
C16 C14 1_555 1_555
H17 C16 1_555 1_555
H18 C16 1_555 1_555
H19 C16 1_555 1_555
C1 C9 1_555 1_555
C2 C14 1_555 1_555
C5 C14 1_555 1_555
C7 C9 1_555 1_555
C8 C12 1_555 1_555
C10 C11 1_555 1_555

#END
