
#######################################################################
#
#                 Cambridge Crystallographic Data Centre
#                                CCDC 
#
#######################################################################
#
# If this CIF has been generated from an entry in the Cambridge 
# Structural Database, then it will include bibliographic, chemical, 
# crystal, experimental, refinement or atomic coordinate data resulting 
# from the CCDC's data processing and validation procedures.
#
#######################################################################

data_SAGKAP
_chemical_formula_moiety         'C25 H25 F1 N2 O6,0.01(C2 H6 O1)'
_chemical_name_systematic        
"Diethyl 2'-(4-fluorophenyl)-1-methyl-2,6'-dioxo-1,2-dihydrospiro[indole-3,3'-piperidine]-4',5'-dicarboxylate ethanol solvate"
_symmetry_cell_setting           monoclinic
_symmetry_space_group_name_H-M   'P 21'
_symmetry_Int_Tables_number      4
_space_group_name_Hall           'P 2yb'
loop_
_symmetry_equiv_pos_site_id
_symmetry_equiv_pos_as_xyz
1 x,y,z
2 -x,1/2+y,-z
_cell_length_a                   12.7662(3)
_cell_length_b                   27.1211(6)
_cell_length_c                   14.1815(3)
_cell_angle_alpha                90
_cell_angle_beta                 105.473(2)
_cell_angle_gamma                90
_cell_volume                     4732.15
_exptl_crystal_colour            colorless
_exptl_crystal_description       irregular
_cell_formula_units_Z            8
loop_
_atom_site_label
_atom_site_type_symbol
_atom_site_fract_x
_atom_site_fract_y
_atom_site_fract_z
F2 F -0.0144(3) 0.91816(11) 0.0303(2)
O11 O 0.0737(2) 0.72404(12) 0.32941(19)
O12 O -0.2328(2) 0.69639(11) 0.3233(2)
O13 O -0.2395(7) 0.5857(3) 0.2213(6)
O14 O -0.125(5) 0.5855(16) 0.3784(18)
C30 C -0.1521(15) 0.5385(6) 0.4231(10)
H36 H -0.1119 0.5108 0.4039
H37 H -0.2308 0.5317 0.3977
C31 C -0.1232(11) 0.5422(5) 0.5335(9)
H38 H -0.1419 0.5113 0.5607
H39 H -0.1638 0.5694 0.5525
H40 H -0.0450 0.5484 0.5588
O15 O 0.1134(4) 0.6023(2) 0.2819(4)
O16 O 0.0227(4) 0.56867(17) 0.1381(3)
C32 C 0.1086(6) 0.5321(2) 0.1458(6)
H41 H 0.0777 0.5018 0.1101
H42 H 0.1403 0.5233 0.2154
C33 C 0.1964(5) 0.5525(3) 0.1031(5)
H43 H 0.2502 0.5268 0.1030
H44 H 0.2320 0.5805 0.1428
H45 H 0.1638 0.5636 0.0359
N3 N 0.1734(2) 0.72007(13) 0.2167(2)
N4 N -0.1684(2) 0.72623(12) 0.2020(2)
H46 H -0.2071 0.7530 0.2025
C34 C 0.0826(3) 0.71352(14) 0.2479(2)
C35 C 0.1592(3) 0.70257(15) 0.1209(3)
C36 C 0.2344(4) 0.70083(19) 0.0662(4)
H47 H 0.3066 0.7125 0.0916
C37 C 0.1992(4) 0.68120(19) -0.0275(4)
H48 H 0.2489 0.6788 -0.0667
C38 C 0.0931(4) 0.66508(18) -0.0651(3)
H49 H 0.0710 0.6526 -0.1299
C39 C 0.0188(3) 0.66689(15) -0.0095(3)
H50 H -0.0537 0.6558 -0.0355
C40 C 0.0528(3) 0.68530(14) 0.0845(3)
C41 C -0.0066(3) 0.69062(14) 0.1626(2)
C42 C -0.1064(3) 0.72519(14) 0.1287(2)
H51 H -0.1548 0.7106 0.0678
C43 C -0.1740(3) 0.69191(14) 0.2684(2)
C44 C -0.0980(3) 0.64754(14) 0.2773(3)
H52 H -0.0362 0.6526 0.3369
C45 C -0.0501(3) 0.64102(14) 0.1907(3)
H53 H -0.1091 0.6293 0.1335
C46 C -0.0795(3) 0.77697(14) 0.1039(3)
C47 C -0.0937(3) 0.79049(16) 0.0060(3)
H54 H -0.1183 0.7666 -0.0439
C48 C -0.0728(4) 0.83746(17) -0.0193(3)
H55 H -0.0838 0.8464 -0.0860
C49 C -0.0354(4) 0.87139(17) 0.0541(3)
C50 C -0.0202(3) 0.86021(16) 0.1525(3)
H56 H 0.0043 0.8845 0.2017
C51 C -0.0420(3) 0.81238(15) 0.1765(3)
H57 H -0.0313 0.8036 0.2432
C52 C -0.1564(4) 0.60072(17) 0.2927(4)
C53 C 0.0393(3) 0.60260(15) 0.2126(3)
C54 C 0.2717(3) 0.7440(2) 0.2755(3)
H58 H 0.2590 0.7560 0.3367
H59 H 0.2904 0.7718 0.2389
H60 H 0.3317 0.7202 0.2903
F3 F 0.4051(2) 0.84968(12) 0.3904(2)
O21 O 0.4525(2) 0.66335(11) 0.69672(19)
O22 O 0.7551(2) 0.69436(10) 0.87025(18)
O23 O 0.7440(4) 0.57243(18) 0.9138(3)
O24 O 0.8506(3) 0.58712(13) 0.8155(2)
C59 C 0.9280(5) 0.5501(2) 0.8692(4)
H71 H 0.8888 0.5201 0.8801
H72 H 0.9686 0.5634 0.9337
C60 C 1.0054(5) 0.5379(3) 0.8086(6)
H73 H 1.0583 0.5135 0.8431
H74 H 1.0435 0.5679 0.7980
H75 H 0.9645 0.5245 0.7454
O25 O 0.5101(2) 0.54678(12) 0.6472(3)
O26 O 0.6830(2) 0.52177(11) 0.6763(2)
N5 N 0.3908(2) 0.64899(12) 0.5320(2)
N6 N 0.6859(2) 0.70794(11) 0.7091(2)
H76 H 0.6955 0.7397 0.7205
C61 C 0.4690(3) 0.65260(13) 0.6189(2)
C62 C 0.4337(3) 0.63364(14) 0.4555(3)
C63 C 0.3806(3) 0.62434(17) 0.3593(3)
H77 H 0.3040 0.6277 0.3359
C64 C 0.4431(4) 0.60987(18) 0.2979(3)
H78 H 0.4083 0.6030 0.2312
C65 C 0.5543(4) 0.60512(17) 0.3309(3)
H79 H 0.5949 0.5951 0.2870
C66 C 0.6078(3) 0.61499(15) 0.4286(3)
H80 H 0.6847 0.6125 0.4514
C67 C 0.5471(3) 0.62836(13) 0.4911(2)
C68 C 0.5803(3) 0.64377(13) 0.5977(2)
C69 C 0.6437(3) 0.69335(13) 0.6061(2)
H81 H 0.7077 0.6876 0.5795
C70 C 0.7113(3) 0.67834(14) 0.7875(2)
C71 C 0.6785(3) 0.62454(14) 0.7738(3)
H82 H 0.6093 0.6213 0.7936
C72 C 0.6536(3) 0.60675(13) 0.6665(2)
H83 H 0.7238 0.6045 0.6482
C73 C 0.5788(3) 0.73545(13) 0.5483(2)
C74 C 0.5875(3) 0.74554(15) 0.4546(3)
H84 H 0.6339 0.7260 0.4274
C75 C 0.5282(3) 0.78433(17) 0.3999(3)
H85 H 0.5335 0.7914 0.3357
C76 C 0.4627(3) 0.81153(16) 0.4419(3)
C77 C 0.4505(3) 0.80218(17) 0.5343(3)
H86 H 0.4034 0.8216 0.5608
C78 C 0.5095(3) 0.76334(15) 0.5874(3)
H87 H 0.5023 0.7559 0.6508
C79 C 0.7614(4) 0.59199(17) 0.8429(3)
C80 C 0.6045(3) 0.55548(14) 0.6603(3)
C81 C 0.6523(4) 0.47033(16) 0.6831(4)
H88 H 0.6026 0.4594 0.6204
H89 H 0.6147 0.4663 0.7353
C82 C 0.7535(4) 0.44086(17) 0.7058(4)
H90 H 0.7956 0.4491 0.6595
H91 H 0.7353 0.4057 0.7005
H92 H 0.7966 0.4482 0.7726
C83 C 0.2798(3) 0.66567(18) 0.5193(3)
H93 H 0.2662 0.6702 0.5836
H94 H 0.2293 0.6410 0.4820
H95 H 0.2689 0.6971 0.4838
F4 F 0.5221(3) 0.10256(10) -0.0689(2)
O29 O 0.6094(2) 0.28960(11) 0.25270(18)
O30 O 0.2943(2) 0.31470(10) 0.2399(2)
O31 O 0.3071(3) 0.43227(14) 0.1632(3)
O32 O 0.4153(3) 0.42630(14) 0.3151(3)
O33 O 0.5561(3) 0.45073(12) 0.0878(3)
O34 O 0.6469(2) 0.41052(14) 0.2210(2)
N7 N 0.7119(2) 0.30075(13) 0.1450(2)
N8 N 0.3661(2) 0.28770(12) 0.1202(2)
H101 H 0.3287 0.2603 0.1180
C86 C 0.6193(3) 0.30327(13) 0.1736(2)
C87 C 0.6991(3) 0.32058(15) 0.0509(3)
C88 C 0.7747(3) 0.32561(17) -0.0017(3)
H102 H 0.8481 0.3158 0.0249
C89 C 0.7398(4) 0.34560(18) -0.0953(3)
H103 H 0.7907 0.3501 -0.1326
C90 C 0.6324(4) 0.35910(17) -0.1351(3)
H104 H 0.6104 0.3721 -0.1995
C91 C 0.5566(3) 0.35362(15) -0.0811(3)
H105 H 0.4828 0.3626 -0.1083
C92 C 0.5905(3) 0.33500(14) 0.0123(2)
C93 C 0.5296(3) 0.32632(13) 0.0886(2)
C94 C 0.4307(3) 0.29190(14) 0.0491(2)
H106 H 0.3834 0.3080 -0.0107
C95 C 0.3572(3) 0.32069(14) 0.1884(3)
C96 C 0.4336(3) 0.36453(14) 0.2050(3)
H107 H 0.4942 0.3577 0.2647
C97 C 0.4837(3) 0.37447(13) 0.1201(3)
H108 H 0.4255 0.3873 0.0634
C98 C 0.4585(3) 0.24114(13) 0.0193(2)
C99 C 0.4982(3) 0.20426(15) 0.0884(3)
H109 H 0.5103 0.2112 0.1561
C100 C 0.5200(3) 0.15782(15) 0.0587(3)
H110 H 0.5474 0.1327 0.1056
C101 C 0.5016(3) 0.14837(15) -0.0393(3)
C102 C 0.4625(3) 0.18384(16) -0.1099(3)
H111 H 0.4503 0.1764 -0.1774
C103 C 0.4417(3) 0.23026(15) -0.0796(3)
H112 H 0.4156 0.2552 -0.1270
C104 C 0.3754(3) 0.41160(16) 0.2240(3)
C105 C 0.3773(5) 0.4747(2) 0.3382(5)
H113 H 0.3847 0.4994 0.2889
H114 H 0.2999 0.4729 0.3385
C106 C 0.4443(7) 0.4882(3) 0.4340(5)
H115 H 0.5195 0.4927 0.4312
H116 H 0.4413 0.4621 0.4809
H117 H 0.4173 0.5191 0.4549
C107 C 0.5725(3) 0.41351(14) 0.1497(3)
C108 C 0.6401(5) 0.4889(2) 0.1047(6)
H118 H 0.6773 0.4908 0.1754
H119 H 0.6060 0.5213 0.0839
C109 C 0.7196(6) 0.4779(3) 0.0500(6)
H120 H 0.6847 0.4804 -0.0203
H121 H 0.7477 0.4444 0.0655
H122 H 0.7797 0.5015 0.0681
C110 C 0.8133(3) 0.28058(18) 0.2064(3)
H123 H 0.8422 0.2561 0.1692
H124 H 0.7996 0.2649 0.2642
H125 H 0.8663 0.3072 0.2271
F1 F -0.0679(3) 0.15841(12) 0.3116(2)
O1 O -0.0055(2) 0.35408(12) 0.61116(19)
O2 O 0.2888(2) 0.31866(11) 0.77918(19)
O3 O 0.4159(9) 0.4100(5) 0.7121(10)
O4 O 0.3111(8) 0.4448(5) 0.7988(8)
C1 C 0.4009(9) 0.4785(5) 0.8451(13)
H1 H 0.4216 0.4988 0.7950
H2 H 0.4653 0.4595 0.8815
C2 C 0.3596(14) 0.5103(6) 0.9131(14)
H3 H 0.4205 0.5278 0.9569
H4 H 0.3236 0.4897 0.9519
H5 H 0.3075 0.5342 0.8752
O5 O 0.0694(4) 0.4677(2) 0.5576(5)
O6 O 0.2383(5) 0.48653(15) 0.5510(4)
C3 C 0.2120(7) 0.5392(2) 0.5482(6)
H6 H 0.2601 0.5576 0.5161
H7 H 0.1359 0.5444 0.5097
C4 C 0.2266(7) 0.5578(2) 0.6479(6)
H8 H 0.2109 0.5932 0.6456
H9 H 0.3018 0.5522 0.6861
H10 H 0.1769 0.5405 0.6786
N1 N -0.0729(2) 0.37458(14) 0.4492(2)
N2 N 0.2166(2) 0.30285(11) 0.6189(2)
H11 H 0.2208 0.2711 0.6325
C5 C 0.0084(3) 0.36434(15) 0.5321(3)
C6 C -0.0301(3) 0.38781(16) 0.3713(3)
C7 C -0.0852(3) 0.40379(19) 0.2788(3)
H12 H -0.1620 0.4074 0.2602
C8 C -0.0234(4) 0.41436(19) 0.2142(3)
H13 H -0.0592 0.4253 0.1500
C9 C 0.0883(3) 0.40953(17) 0.2401(3)
H14 H 0.1283 0.4170 0.1943
C10 C 0.1417(3) 0.39368(15) 0.3339(3)
H15 H 0.2185 0.3902 0.3528
C11 C 0.0822(3) 0.38310(14) 0.3990(3)
C12 C 0.1171(3) 0.36703(13) 0.5046(2)
C13 C 0.1755(3) 0.31627(13) 0.5155(2)
H16 H 0.2399 0.3199 0.4885
C14 C 0.2482(3) 0.33356(14) 0.6946(2)
C15 C 0.2290(3) 0.38837(14) 0.6768(3)
H17 H 0.1681 0.3986 0.7045
C16 C 0.1999(3) 0.40306(14) 0.5686(3)
H18 H 0.2678 0.4017 0.5464
C17 C 0.1064(3) 0.27482(13) 0.4598(2)
C18 C 0.1141(3) 0.26281(14) 0.3667(3)
H19 H 0.1600 0.2816 0.3375
C19 C 0.0552(3) 0.22350(16) 0.3160(3)
H20 H 0.0604 0.2149 0.2524
C20 C -0.0106(3) 0.19745(16) 0.3603(3)
C21 C -0.0209(3) 0.20857(17) 0.4511(3)
H21 H -0.0678 0.1898 0.4792
C22 C 0.0382(3) 0.24774(16) 0.5019(3)
H22 H 0.0320 0.2560 0.5653
C23 C 0.3313(3) 0.41619(14) 0.7311(3)
C24 C 0.1581(4) 0.45571(16) 0.5568(3)
C25 C -0.1872(3) 0.3741(3) 0.4464(3)
H23 H -0.2165 0.4076 0.4350
H24 H -0.1958 0.3618 0.5089
H25 H -0.2265 0.3524 0.3934
O7? O 0.427(4) 0.418(2) 0.727(4)
O8? O 0.304(3) 0.4563(16) 0.788(3)
C26? C 0.393(4) 0.473(2) 0.872(4)
H26? H 0.4395 0.4975 0.8499
H27? H 0.4389 0.4450 0.9025
C27? C 0.341(6) 0.497(2) 0.944(4)
H28? H 0.3912 0.5207 0.9832
H29? H 0.3247 0.4710 0.9867
H30? H 0.2739 0.5130 0.9085
O9? O 0.041(4) 0.458(2) 0.545(5)
O10? O 0.195(4) 0.4864(12) 0.514(4)
C28? C 0.152(6) 0.5378(15) 0.490(4)
H31? H 0.0793 0.5375 0.4425
H32? H 0.2023 0.5579 0.4635
C29? C 0.146(6) 0.5563(17) 0.589(4)
H33? H 0.0805 0.5762 0.5815
H34? H 0.2105 0.5765 0.6179
H35? H 0.1443 0.5282 0.6319
O17? O -0.2097(9) 0.5769(4) 0.2404(9)
O18? O -0.116(6) 0.584(2) 0.391(2)
C55? C -0.1824(19) 0.5357(8) 0.3796(12)
H61? H -0.2597 0.5415 0.3448
H62? H -0.1521 0.5103 0.3444
C56? C -0.1698(14) 0.5214(7) 0.4840(12)
H63? H -0.1900 0.4867 0.4871
H64? H -0.2170 0.5421 0.5118
H65? H -0.0940 0.5261 0.5215
O19? O 0.108(3) 0.6059(13) 0.3151(19)
O20? O 0.059(2) 0.5789(8) 0.1619(17)
C57? C 0.153(3) 0.5453(12) 0.1811(19)
H66? H 0.1425 0.5166 0.2206
H67? H 0.2207 0.5627 0.2161
C58? C 0.159(3) 0.5292(13) 0.0808(19)
H68? H 0.2285 0.5396 0.0703
H69? H 0.0992 0.5443 0.0311
H70? H 0.1529 0.4932 0.0758
O27? O 0.809(8) 0.566(3) 0.891(5)
O28? O 0.892(5) 0.605(2) 0.789(4)
C84? C 0.946(10) 0.559(3) 0.835(6)
H96? H 0.8950 0.5387 0.8591
H97? H 1.0096 0.5673 0.8899
C85? C 0.982(10) 0.533(4) 0.755(9)
H98? H 1.0183 0.5020 0.7815
H99? H 0.9180 0.5253 0.7010
H100? H 1.0320 0.5537 0.7317
loop_
_geom_bond_atom_site_label_1
_geom_bond_atom_site_label_2
_geom_bond_site_symmetry_1
_geom_bond_site_symmetry_2
F1 C20 1_555 1_555
O1 C5 1_555 1_555
O2 C14 1_555 1_555
O3 C23 1_555 1_555
O4 C1 1_555 1_555
C1 H1 1_555 1_555
H2 C1 1_555 1_555
C2 C1 1_555 1_555
H3 C2 1_555 1_555
H4 C2 1_555 1_555
H5 C2 1_555 1_555
O5 C24 1_555 1_555
O6 C3 1_555 1_555
C3 H6 1_555 1_555
H7 C3 1_555 1_555
C4 C3 1_555 1_555
H8 C4 1_555 1_555
H9 C4 1_555 1_555
H10 C4 1_555 1_555
N1 C5 1_555 1_555
N2 H11 1_555 1_555
C5 C12 1_555 1_555
C6 N1 1_555 1_555
C7 C6 1_555 1_555
H12 C7 1_555 1_555
C8 C7 1_555 1_555
H13 C8 1_555 1_555
C9 C8 1_555 1_555
H14 C9 1_555 1_555
C10 C9 1_555 1_555
H15 C10 1_555 1_555
C11 C6 1_555 1_555
C12 C11 1_555 1_555
C13 N2 1_555 1_555
H16 C13 1_555 1_555
C14 N2 1_555 1_555
C15 C14 1_555 1_555
H17 C15 1_555 1_555
C16 C12 1_555 1_555
H18 C16 1_555 1_555
C17 C13 1_555 1_555
C18 C17 1_555 1_555
H19 C18 1_555 1_555
C19 C18 1_555 1_555
H20 C19 1_555 1_555
C20 C19 1_555 1_555
C21 C20 1_555 1_555
H21 C21 1_555 1_555
C22 C17 1_555 1_555
H22 C22 1_555 1_555
C23 O4 1_555 1_555
C24 O6 1_555 1_555
C25 N1 1_555 1_555
H23 C25 1_555 1_555
H24 C25 1_555 1_555
H25 C25 1_555 1_555
F2 C49 1_555 1_555
O11 C34 1_555 1_555
O12 C43 1_555 1_555
O13 C52 1_555 1_555
O14 C30 1_555 1_555
C30 H36 1_555 1_555
H37 C30 1_555 1_555
C31 C30 1_555 1_555
H38 C31 1_555 1_555
H39 C31 1_555 1_555
H40 C31 1_555 1_555
O15 C53 1_555 1_555
O16 C32 1_555 1_555
C32 H41 1_555 1_555
H42 C32 1_555 1_555
C33 C32 1_555 1_555
H43 C33 1_555 1_555
H44 C33 1_555 1_555
H45 C33 1_555 1_555
N3 C34 1_555 1_555
N4 H46 1_555 1_555
C34 C41 1_555 1_555
C35 N3 1_555 1_555
C36 C35 1_555 1_555
H47 C36 1_555 1_555
C37 C36 1_555 1_555
H48 C37 1_555 1_555
C38 C37 1_555 1_555
H49 C38 1_555 1_555
C39 C38 1_555 1_555
H50 C39 1_555 1_555
C40 C35 1_555 1_555
C41 C40 1_555 1_555
C42 N4 1_555 1_555
H51 C42 1_555 1_555
C43 N4 1_555 1_555
C44 C43 1_555 1_555
H52 C44 1_555 1_555
C45 C41 1_555 1_555
H53 C45 1_555 1_555
C46 C42 1_555 1_555
C47 C46 1_555 1_555
H54 C47 1_555 1_555
C48 C47 1_555 1_555
H55 C48 1_555 1_555
C49 C48 1_555 1_555
C50 C49 1_555 1_555
H56 C50 1_555 1_555
C51 C46 1_555 1_555
H57 C51 1_555 1_555
C52 O14 1_555 1_555
C53 O16 1_555 1_555
C54 N3 1_555 1_555
H58 C54 1_555 1_555
H59 C54 1_555 1_555
H60 C54 1_555 1_555
F3 C76 1_555 1_555
O21 C61 1_555 1_555
O22 C70 1_555 1_555
O23 C79 1_555 1_555
O24 C59 1_555 1_555
C59 H71 1_555 1_555
H72 C59 1_555 1_555
C60 C59 1_555 1_555
H73 C60 1_555 1_555
H74 C60 1_555 1_555
H75 C60 1_555 1_555
O25 C80 1_555 1_555
O26 C80 1_555 1_555
N5 C61 1_555 1_555
N6 H76 1_555 1_555
C61 C68 1_555 1_555
C62 N5 1_555 1_555
C63 C62 1_555 1_555
H77 C63 1_555 1_555
C64 C63 1_555 1_555
H78 C64 1_555 1_555
C65 C64 1_555 1_555
H79 C65 1_555 1_555
C66 C65 1_555 1_555
H80 C66 1_555 1_555
C67 C62 1_555 1_555
C68 C67 1_555 1_555
C69 N6 1_555 1_555
H81 C69 1_555 1_555
C70 N6 1_555 1_555
C71 C70 1_555 1_555
H82 C71 1_555 1_555
C72 C68 1_555 1_555
H83 C72 1_555 1_555
C73 C69 1_555 1_555
C74 C73 1_555 1_555
H84 C74 1_555 1_555
C75 C74 1_555 1_555
H85 C75 1_555 1_555
C76 C75 1_555 1_555
C77 C76 1_555 1_555
H86 C77 1_555 1_555
C78 C73 1_555 1_555
H87 C78 1_555 1_555
C79 O24 1_555 1_555
C80 C72 1_555 1_555
C81 O26 1_555 1_555
H88 C81 1_555 1_555
H89 C81 1_555 1_555
C82 C81 1_555 1_555
H90 C82 1_555 1_555
H91 C82 1_555 1_555
H92 C82 1_555 1_555
C83 N5 1_555 1_555
H93 C83 1_555 1_555
H94 C83 1_555 1_555
H95 C83 1_555 1_555
F4 C101 1_555 1_555
O29 C86 1_555 1_555
O30 C95 1_555 1_555
O31 C104 1_555 1_555
O32 C104 1_555 1_555
O33 C107 1_555 1_555
O34 C107 1_555 1_555
N7 C86 1_555 1_555
N8 H101 1_555 1_555
C86 C93 1_555 1_555
C87 N7 1_555 1_555
C88 C87 1_555 1_555
H102 C88 1_555 1_555
C89 C88 1_555 1_555
H103 C89 1_555 1_555
C90 C89 1_555 1_555
H104 C90 1_555 1_555
C91 C90 1_555 1_555
H105 C91 1_555 1_555
C92 C87 1_555 1_555
C93 C92 1_555 1_555
C94 N8 1_555 1_555
H106 C94 1_555 1_555
C95 N8 1_555 1_555
C96 C95 1_555 1_555
H107 C96 1_555 1_555
C97 C93 1_555 1_555
H108 C97 1_555 1_555
C98 C94 1_555 1_555
C99 C98 1_555 1_555
H109 C99 1_555 1_555
C100 C99 1_555 1_555
H110 C100 1_555 1_555
C101 C100 1_555 1_555
C102 C101 1_555 1_555
H111 C102 1_555 1_555
C103 C98 1_555 1_555
H112 C103 1_555 1_555
C104 C96 1_555 1_555
C105 O32 1_555 1_555
H113 C105 1_555 1_555
H114 C105 1_555 1_555
C106 C105 1_555 1_555
H115 C106 1_555 1_555
H116 C106 1_555 1_555
H117 C106 1_555 1_555
C107 C97 1_555 1_555
C108 O33 1_555 1_555
H118 C108 1_555 1_555
H119 C108 1_555 1_555
C109 C108 1_555 1_555
H120 C109 1_555 1_555
H121 C109 1_555 1_555
H122 C109 1_555 1_555
C110 N7 1_555 1_555
H123 C110 1_555 1_555
H124 C110 1_555 1_555
H125 C110 1_555 1_555
C10 C11 1_555 1_555
C12 C13 1_555 1_555
C15 C16 1_555 1_555
C15 C23 1_555 1_555
C16 C24 1_555 1_555
C21 C22 1_555 1_555
C39 C40 1_555 1_555
C41 C42 1_555 1_555
C44 C45 1_555 1_555
C44 C52 1_555 1_555
C45 C53 1_555 1_555
C50 C51 1_555 1_555
C66 C67 1_555 1_555
C68 C69 1_555 1_555
C71 C72 1_555 1_555
C71 C79 1_555 1_555
C77 C78 1_555 1_555
C91 C92 1_555 1_555
C93 C94 1_555 1_555
C96 C97 1_555 1_555
C102 C103 1_555 1_555

#END
