
#######################################################################
#
#                 Cambridge Crystallographic Data Centre
#                                CCDC 
#
#######################################################################
#
# If this CIF has been generated from an entry in the Cambridge 
# Structural Database, then it will include bibliographic, chemical, 
# crystal, experimental, refinement or atomic coordinate data resulting 
# from the CCDC's data processing and validation procedures.
#
#######################################################################

data_SAGMIY
_chemical_formula_moiety         'C17 H15 N1 O3'
_chemical_name_systematic        'Methyl 4-(5-methoxy-1H-indol-3-yl)benzoate'
_symmetry_cell_setting           monoclinic
_symmetry_space_group_name_H-M   'P 21/c'
_symmetry_Int_Tables_number      14
_space_group_name_Hall           '-P 2ybc'
loop_
_symmetry_equiv_pos_site_id
_symmetry_equiv_pos_as_xyz
1 x,y,z
2 -x,1/2+y,1/2-z
3 -x,-y,-z
4 x,1/2-y,1/2+z
_cell_length_a                   15.023(8)
_cell_length_b                   5.871(3)
_cell_length_c                   16.867(9)
_cell_angle_alpha                90
_cell_angle_beta                 113.721(6)
_cell_angle_gamma                90
_cell_volume                     1361.98
_exptl_crystal_colour            colorless
_exptl_crystal_description       prism
_chemical_melting_point          '123.0-124.8 deg.C'
_cell_formula_units_Z            4
loop_
_atom_site_label
_atom_site_type_symbol
_atom_site_fract_x
_atom_site_fract_y
_atom_site_fract_z
O1 O 0.65330(5) 1.06706(14) 0.57107(5)
O2 O 1.06010(5) 1.07061(13) 1.21305(5)
O3 O 1.03480(5) 1.38309(12) 1.12988(5)
N1 N 0.57543(7) 0.50593(17) 0.79506(6)
C1 C 0.72517(8) 1.2391(2) 0.60676(7)
H1 H 0.7069 1.3383 0.6445
H2 H 0.7300 1.3297 0.5598
H3 H 0.7881 1.1678 0.6405
C2 C 0.63635(7) 0.92664(19) 0.62868(7)
C3 C 0.56197(8) 0.76524(19) 0.59007(7)
H4 H 0.5285 0.7610 0.5288
C4 C 0.53738(7) 0.61387(19) 0.64008(7)
H5 H 0.4883 0.5024 0.6144
C5 C 0.58711(7) 0.62954(18) 0.73024(7)
C6 C 0.63929(8) 0.58338(19) 0.87366(7)
H6 H 0.6447 0.5255 0.9280
C7 C 0.69470(7) 0.75701(17) 0.86292(7)
C8 C 0.66109(7) 0.79141(17) 0.77034(7)
C9 C 0.68678(7) 0.94025(18) 0.71752(6)
H7 H 0.7377 1.0478 0.7424
C10 C 0.77498(7) 0.86947(18) 0.93408(7)
C11 C 0.82087(7) 0.75877(18) 1.01399(7)
H8 H 0.7983 0.6129 1.0219
C12 C 0.89807(7) 0.85678(18) 1.08147(7)
H9 H 0.9277 0.7784 1.1350
C13 C 0.93258(7) 1.06998(18) 1.07123(7)
C14 C 0.88750(7) 1.18392(18) 0.99234(7)
H10 H 0.9106 1.3292 0.9845
C15 C 0.80911(7) 1.08586(18) 0.92535(7)
H11 H 0.7780 1.1670 0.8726
C16 C 1.01559(7) 1.16901(18) 1.14560(7)
C17 C 1.11194(8) 1.4968(2) 1.20010(7)
H12 H 1.1040 1.4704 1.2543
H13 H 1.1092 1.6607 1.1883
H14 H 1.1749 1.4365 1.2053
H15 H 0.5318(9) 0.3932(19) 0.7867(10)
loop_
_geom_bond_atom_site_label_1
_geom_bond_atom_site_label_2
_geom_bond_site_symmetry_1
_geom_bond_site_symmetry_2
O1 C1 1_555 1_555
O2 C16 1_555 1_555
O3 C16 1_555 1_555
N1 C5 1_555 1_555
C1 H1 1_555 1_555
H2 C1 1_555 1_555
H3 C1 1_555 1_555
C2 O1 1_555 1_555
C3 C2 1_555 1_555
H4 C3 1_555 1_555
C4 C3 1_555 1_555
H5 C4 1_555 1_555
C5 C4 1_555 1_555
C6 N1 1_555 1_555
H6 C6 1_555 1_555
C7 C6 1_555 1_555
C8 C5 1_555 1_555
C9 C2 1_555 1_555
H7 C9 1_555 1_555
C10 C7 1_555 1_555
C11 C10 1_555 1_555
H8 C11 1_555 1_555
C12 C11 1_555 1_555
H9 C12 1_555 1_555
C13 C12 1_555 1_555
C14 C13 1_555 1_555
H10 C14 1_555 1_555
C15 C10 1_555 1_555
H11 C15 1_555 1_555
C16 C13 1_555 1_555
C17 O3 1_555 1_555
H12 C17 1_555 1_555
H13 C17 1_555 1_555
H14 C17 1_555 1_555
H15 N1 1_555 1_555
C7 C8 1_555 1_555
C8 C9 1_555 1_555
C14 C15 1_555 1_555

#END
