
#######################################################################
#
#                 Cambridge Crystallographic Data Centre
#                                CCDC 
#
#######################################################################
#
# If this CIF has been generated from an entry in the Cambridge 
# Structural Database, then it will include bibliographic, chemical, 
# crystal, experimental, refinement or atomic coordinate data resulting 
# from the CCDC's data processing and validation procedures.
#
#######################################################################

data_SAGMAQ
_chemical_formula_moiety         'C2 H4 N3 1+,C7 H5 Cl2 O3 S1 1-'
_chemical_name_systematic        
'1H-1,2,4-Triazol-4-ium (3,4-dichlorophenyl)methanesulfonate'
_symmetry_cell_setting           triclinic
_symmetry_space_group_name_H-M   'P -1'
_symmetry_Int_Tables_number      2
_space_group_name_Hall           '-P 1'
loop_
_symmetry_equiv_pos_site_id
_symmetry_equiv_pos_as_xyz
1 x,y,z
2 -x,-y,-z
_cell_length_a                   5.2430(6)
_cell_length_b                   8.2970(8)
_cell_length_c                   14.5656(15)
_cell_angle_alpha                94.330(5)
_cell_angle_beta                 98.387(6)
_cell_angle_gamma                92.292(5)
_cell_volume                     624.219
_exptl_crystal_colour            colorless
_exptl_crystal_description       block
_cell_formula_units_Z            2
loop_
_atom_site_label
_atom_site_type_symbol
_atom_site_fract_x
_atom_site_fract_y
_atom_site_fract_z
H1 H -0.257(7) 0.126(5) 0.067(2)
C8 C 0.1007(6) 0.1330(3) 0.1058(2)
C9 C -0.1080(5) 0.3440(3) 0.0826(2)
N1 N 0.1333(4) 0.3833(3) 0.10869(16)
N2 N 0.2733(4) 0.2507(3) 0.12354(19)
N3 N -0.1339(4) 0.1855(3) 0.08066(18)
H7 H 0.132(7) 0.035(5) 0.108(3)
H8 H -0.232(8) 0.408(5) 0.070(3)
H9 H 0.197(8) 0.480(5) 0.111(3)
C1 C 0.5971(5) -0.1996(3) 0.24949(19)
H2 H 0.4222 -0.1654 0.2491
H3 H 0.6118 -0.2993 0.2801
C2 C 0.7822(5) -0.0722(3) 0.30368(18)
C3 C 0.7467(7) 0.0915(4) 0.2965(2)
H4 H 0.6021 0.1240 0.2589
C4 C 0.9246(8) 0.2072(4) 0.3449(2)
C5 C 1.1357(8) 0.1603(4) 0.4029(2)
C6 C 1.1715(8) -0.0016(5) 0.4095(3)
H5 H 1.3146 -0.0343 0.4478
C7 C 0.9978(7) -0.1156(4) 0.3600(2)
H6 H 1.0266 -0.2248 0.3647
Cl1 Cl 0.8778(3) 0.40861(12) 0.33114(10)
Cl2 Cl 1.3556(3) 0.30086(16) 0.46816(10)
O1 O 0.4994(3) -0.3828(2) 0.09619(13)
O2 O 0.5688(4) -0.0964(2) 0.08476(13)
O3 O 0.9286(3) -0.2589(2) 0.13509(14)
S1 S 0.65640(11) -0.23697(7) 0.13202(4)
loop_
_geom_bond_atom_site_label_1
_geom_bond_atom_site_label_2
_geom_bond_site_symmetry_1
_geom_bond_site_symmetry_2
H1 N3 1_555 1_555
C1 H2 1_555 1_555
H3 C1 1_555 1_555
C2 C1 1_555 1_555
C3 C2 1_555 1_555
H4 C3 1_555 1_555
C4 C3 1_555 1_555
C5 C4 1_555 1_555
C6 C5 1_555 1_555
H5 C6 1_555 1_555
C7 C2 1_555 1_555
H6 C7 1_555 1_555
C8 N2 1_555 1_555
C9 N1 1_555 1_555
Cl1 C4 1_555 1_555
Cl2 C5 1_555 1_555
N1 N2 1_555 1_555
N3 C8 1_555 1_555
O1 S1 1_555 1_555
O2 S1 1_555 1_555
O3 S1 1_555 1_555
S1 C1 1_555 1_555
H7 C8 1_555 1_555
H8 C9 1_555 1_555
H9 N1 1_555 1_555
C6 C7 1_555 1_555
C9 N3 1_555 1_555

#END
