
#######################################################################
#
#                 Cambridge Crystallographic Data Centre
#                                CCDC 
#
#######################################################################
#
# If this CIF has been generated from an entry in the Cambridge 
# Structural Database, then it will include bibliographic, chemical, 
# crystal, experimental, refinement or atomic coordinate data resulting 
# from the CCDC's data processing and validation procedures.
#
#######################################################################

data_SAGNIZ
_chemical_formula_moiety         'C11 H10 N2'
_chemical_name_systematic        2-(7-Methyl-1H-indol-3-yl)acetonitrile
_symmetry_cell_setting           monoclinic
_symmetry_space_group_name_H-M   'P 21/c'
_symmetry_Int_Tables_number      14
_space_group_name_Hall           '-P 2ybc'
loop_
_symmetry_equiv_pos_site_id
_symmetry_equiv_pos_as_xyz
1 x,y,z
2 -x,1/2+y,1/2-z
3 -x,-y,-z
4 x,1/2-y,1/2+z
_cell_length_a                   6.9962(14)
_cell_length_b                   8.9445(18)
_cell_length_c                   15.406(3)
_cell_angle_alpha                90
_cell_angle_beta                 97.97(3)
_cell_angle_gamma                90
_cell_volume                     954.757
_exptl_crystal_colour            colorless
_exptl_crystal_description       block
_cell_formula_units_Z            4
loop_
_atom_site_label
_atom_site_type_symbol
_atom_site_fract_x
_atom_site_fract_y
_atom_site_fract_z
C1 C -0.0179(3) 0.6121(2) 0.21424(12)
H1 H -0.1278 0.6642 0.1903
C2 C 0.0270(2) 0.57655(18) 0.30000(11)
C3 C 0.2072(2) 0.49843(17) 0.30912(10)
C4 C 0.3276(3) 0.43296(19) 0.37953(12)
H2 H 0.2955 0.4369 0.4361
C5 C 0.4936(3) 0.3631(2) 0.36311(16)
H3 H 0.5736 0.3187 0.4092
C6 C 0.5451(3) 0.3571(2) 0.27861(17)
H4 H 0.6588 0.3088 0.2703
C7 C 0.4334(3) 0.4204(2) 0.20730(13)
C8 C 0.2629(2) 0.48979(17) 0.22467(10)
C9 C 0.4896(4) 0.4170(3) 0.11583(16)
H5 H 0.6091 0.3639 0.1168
H6 H 0.5047 0.5175 0.0959
H7 H 0.3905 0.3676 0.0768
C10 C -0.0948(3) 0.6089(2) 0.37116(13)
H8 H -0.2171 0.6509 0.3449
H9 H -0.1216 0.5158 0.3994
C11 C -0.0021(3) 0.7128(2) 0.43771(12)
N1 N 0.1212(2) 0.56067(16) 0.16799(9)
H10 H 0.1207 0.5707 0.1124
N2 N 0.0698(3) 0.7913(2) 0.48993(11)
loop_
_geom_bond_atom_site_label_1
_geom_bond_atom_site_label_2
_geom_bond_site_symmetry_1
_geom_bond_site_symmetry_2
C1 H1 1_555 1_555
C2 C1 1_555 1_555
C3 C2 1_555 1_555
C4 C3 1_555 1_555
H2 C4 1_555 1_555
C5 C4 1_555 1_555
H3 C5 1_555 1_555
C6 C5 1_555 1_555
H4 C6 1_555 1_555
C7 C6 1_555 1_555
C8 C3 1_555 1_555
C9 C7 1_555 1_555
H5 C9 1_555 1_555
H6 C9 1_555 1_555
H7 C9 1_555 1_555
C10 C2 1_555 1_555
H8 C10 1_555 1_555
H9 C10 1_555 1_555
C11 C10 1_555 1_555
N1 C1 1_555 1_555
H10 N1 1_555 1_555
N2 C11 1_555 1_555
C7 C8 1_555 1_555
C8 N1 1_555 1_555

#END
