
#######################################################################
#
#                 Cambridge Crystallographic Data Centre
#                                CCDC 
#
#######################################################################
#
# If this CIF has been generated from an entry in the Cambridge 
# Structural Database, then it will include bibliographic, chemical, 
# crystal, experimental, refinement or atomic coordinate data resulting 
# from the CCDC's data processing and validation procedures.
#
#######################################################################

data_SAGPOH
_chemical_formula_moiety         'C9 H12 Cl1 N4 1+,Cl1 1-'
_chemical_name_systematic        
'1-((6-Chloropyridin-3-yl)methyl)imidazolidin-2-iminium chloride'
_chemical_properties_biological  
'The compound is a natural metabolic product of the insecticide imidacloprid'
_symmetry_cell_setting           triclinic
_symmetry_space_group_name_H-M   'P -1'
_symmetry_Int_Tables_number      2
_space_group_name_Hall           '-P 1'
loop_
_symmetry_equiv_pos_site_id
_symmetry_equiv_pos_as_xyz
1 x,y,z
2 -x,-y,-z
_cell_length_a                   6.4773(3)
_cell_length_b                   7.3091(3)
_cell_length_c                   12.4758(4)
_cell_angle_alpha                88.996(3)
_cell_angle_beta                 77.214(3)
_cell_angle_gamma                79.925(3)
_cell_volume                     566.978
_exptl_crystal_colour            yellow
_exptl_crystal_description       plate
_cell_formula_units_Z            2
loop_
_atom_site_label
_atom_site_type_symbol
_atom_site_fract_x
_atom_site_fract_y
_atom_site_fract_z
Cl1 Cl 0.86358(8) 0.30462(7) 0.60008(4)
Cl2 Cl 0.23994(12) 0.35819(11) 1.17486(5)
N1 N 0.1057(3) 0.2611(3) 1.00679(16)
C1 C 0.1336(3) 0.2148(4) 0.89995(19)
H1 H 0.0126 0.2007 0.8745
C2 C 0.3286(3) 0.1868(3) 0.82568(15)
C3 C 0.5059(3) 0.2069(3) 0.86513(18)
H2 H 0.6416 0.1874 0.8184
C4 C 0.4824(4) 0.2558(4) 0.97404(19)
H3 H 0.6002 0.2700 1.0023
C5 C 0.2785(4) 0.2826(3) 1.03902(16)
C6 C 0.3440(3) 0.1424(3) 0.70621(15)
H4 H 0.2113 0.1987 0.6860
H5 H 0.4600 0.1959 0.6613
N2 N 0.3828(3) -0.0570(2) 0.68359(13)
C7 C 0.2100(4) -0.1652(3) 0.7134(2)
H6 H 0.0927 -0.1189 0.6779
H7 H 0.1550 -0.1632 0.7923
C8 C 0.3206(4) -0.3597(3) 0.6710(2)
H8 H 0.3486 -0.4399 0.7308
H9 H 0.2345 -0.4152 0.6305
N3 N 0.5199(3) -0.3268(2) 0.59921(15)
H10 H 0.6049 -0.4064 0.5525
C9 C 0.5523(3) -0.1553(3) 0.61621(15)
N4 N 0.7288(3) -0.0930(3) 0.57049(15)
H11 H 0.7407 0.0194 0.5835
H12 H 0.8325 -0.1646 0.5276
loop_
_geom_bond_atom_site_label_1
_geom_bond_atom_site_label_2
_geom_bond_site_symmetry_1
_geom_bond_site_symmetry_2
Cl2 C5 1_555 1_555
N1 C1 1_555 1_555
C1 H1 1_555 1_555
C2 C1 1_555 1_555
C3 C2 1_555 1_555
H2 C3 1_555 1_555
C4 C3 1_555 1_555
H3 C4 1_555 1_555
C5 N1 1_555 1_555
C6 C2 1_555 1_555
H4 C6 1_555 1_555
H5 C6 1_555 1_555
N2 C6 1_555 1_555
C7 N2 1_555 1_555
H6 C7 1_555 1_555
H7 C7 1_555 1_555
C8 C7 1_555 1_555
H8 C8 1_555 1_555
H9 C8 1_555 1_555
N3 C8 1_555 1_555
H10 N3 1_555 1_555
C9 N2 1_555 1_555
N4 C9 1_555 1_555
H11 N4 1_555 1_555
H12 N4 1_555 1_555
C4 C5 1_555 1_555
N3 C9 1_555 1_555

#END
