
#######################################################################
#
#                 Cambridge Crystallographic Data Centre
#                                CCDC 
#
#######################################################################
#
# If this CIF has been generated from an entry in the Cambridge 
# Structural Database, then it will include bibliographic, chemical, 
# crystal, experimental, refinement or atomic coordinate data resulting 
# from the CCDC's data processing and validation procedures.
#
#######################################################################

data_SAGRUQ
_chemical_formula_moiety         'C22 H21 N1 O4'
_chemical_name_systematic        
'methyl 1-acetyl-4-oxo-2-phenyl-1,2,3,4,5,9b-hexahydro-3aH-cyclopenta[c]quinoline-3a-carboxylate'
_symmetry_cell_setting           triclinic
_symmetry_space_group_name_H-M   'P -1'
_symmetry_Int_Tables_number      2
_space_group_name_Hall           '-P 1'
loop_
_symmetry_equiv_pos_site_id
_symmetry_equiv_pos_as_xyz
1 x,y,z
2 -x,-y,-z
_cell_length_a                   9.035(2)
_cell_length_b                   13.258(3)
_cell_length_c                   16.686(4)
_cell_angle_alpha                90.402(3)
_cell_angle_beta                 103.495(3)
_cell_angle_gamma                105.139(3)
_cell_volume                     1871.19
_exptl_crystal_colour            colorless
_exptl_crystal_description       BAR
_cell_formula_units_Z            4
loop_
_atom_site_label
_atom_site_type_symbol
_atom_site_fract_x
_atom_site_fract_y
_atom_site_fract_z
O1 O 0.14949(15) 0.56086(9) 0.94929(8)
N1 N 0.09875(17) 0.62456(11) 1.06236(9)
H1 H 0.0259 0.5676 1.0613
C1 C 0.3392(2) 0.75900(14) 0.92633(11)
H2 H 0.3369 0.6984 0.8926
H3 H 0.4377 0.8122 0.9298
C2 C 0.2810(2) 0.82529(13) 1.04473(11)
H4 H 0.3802 0.8808 1.0622
C3 C 0.1763(2) 0.86078(13) 0.96876(10)
H5 H 0.0661 0.8339 0.9720
C4 C 0.1205(2) 0.70377(14) 1.12438(11)
C5 C 0.1964(2) 0.80148(14) 0.89109(11)
H6 H 0.1042 0.7404 0.8755
C6 C 0.31933(19) 0.72906(13) 1.01227(11)
C7 C 0.1822(2) 0.63070(13) 1.00484(11)
C8 C 0.2048(2) 0.85955(14) 0.81412(11)
O2 O 0.3233(2) 1.03547(11) 1.01774(11)
C9 C 0.4689(2) 0.71054(15) 1.06708(12)
C10 C 0.2120(2) 0.97952(15) 0.96876(12)
C11 C 0.2097(2) 0.80472(14) 1.11786(11)
C12 C 0.3391(2) 0.93461(15) 0.80693(12)
H7 H 0.4281 0.9512 0.8510
C13 C 0.2278(2) 0.88081(16) 1.17966(12)
H8 H 0.2877 0.9487 1.1767
C14 C 0.0745(3) 0.83756(17) 0.74690(13)
H9 H -0.0174 0.7878 0.7503
O3 O 0.5673(2) 0.77511(13) 1.11343(12)
O4 O 0.4758(2) 0.61449(14) 1.05809(13)
C15 C 0.0503(2) 0.67997(17) 1.18969(12)
H10 H -0.0096 0.6121 1.1930
C16 C 0.0998(3) 1.02479(18) 0.90911(14)
H11 H 0.0059 0.9704 0.8847
H12 H 0.1489 1.0554 0.8666
H13 H 0.0725 1.0777 0.9378
C17 C 0.1588(3) 0.8579(2) 1.24542(13)
H14 H 0.1725 0.9099 1.2863
C18 C 0.0696(3) 0.7573(2) 1.24989(14)
H15 H 0.0222 0.7415 1.2938
C19 C 0.3425(3) 0.98530(17) 0.73467(14)
H16 H 0.4333 1.0359 0.7309
C20 C 0.2134(3) 0.96141(19) 0.66901(14)
H17 H 0.2170 0.9947 0.6204
C21 C 0.0789(3) 0.8882(2) 0.67509(14)
H18 H -0.0098 0.8726 0.6308
C22 C 0.6145(4) 0.5871(3) 1.1057(2)
H19 H 0.6083 0.5812 1.1622
H20 H 0.7079 0.6406 1.1031
H21 H 0.6190 0.5214 1.0833
O5 O 0.60354(16) 0.90075(10) 0.52003(9)
N2 N 0.34075(18) 0.88047(12) 0.49341(10)
H22 H 0.3572 0.9471 0.4905
O6 O 0.49197(19) 0.73960(12) 0.37929(9)
C23 C 0.1825(2) 0.82057(14) 0.48199(11)
C24 C 0.1513(2) 0.71762(14) 0.50332(11)
C25 C 0.2881(2) 0.67451(14) 0.54135(11)
H23 H 0.2563 0.5993 0.5253
C26 C 0.4685(2) 0.84252(15) 0.50857(12)
C27 C 0.3416(2) 0.68841(14) 0.63807(11)
H24 H 0.3002 0.7424 0.6582
C28 C 0.6152(2) 0.69554(14) 0.73839(12)
C29 C 0.0598(2) 0.86590(16) 0.45111(12)
H25 H 0.0818 0.9353 0.4376
C30 C 0.4376(2) 0.72381(14) 0.51151(12)
C31 C 0.5677(2) 0.69823(15) 0.57874(12)
H26 H 0.5639 0.6246 0.5742
H27 H 0.6717 0.7400 0.5760
C32 C 0.5264(2) 0.72702(14) 0.65798(12)
H28 H 0.5529 0.8037 0.6630
C33 C -0.0052(2) 0.65992(16) 0.49045(13)
H29 H -0.0282 0.5902 0.5031
C34 C 0.4249(3) 0.67338(17) 0.42685(13)
C35 C -0.1274(2) 0.70402(18) 0.45912(14)
H30 H -0.2317 0.6641 0.4505
C36 C -0.0941(2) 0.80709(18) 0.44071(13)
H31 H -0.1764 0.8374 0.4211
C37 C 0.2768(3) 0.58529(17) 0.67234(14)
O7 O 0.3231(2) 0.51095(13) 0.66328(16)
O8 O 0.3647(3) 0.58303(14) 0.40734(13)
C38 C 0.6345(2) 0.75282(17) 0.81142(13)
H32 H 0.5952 0.8112 0.8099
C39 C 0.7108(3) 0.7256(2) 0.88678(14)
H33 H 0.7216 0.7649 0.9352
C40 C 0.6788(3) 0.61026(17) 0.74234(14)
H34 H 0.6693 0.5709 0.6942
C41 C 0.7562(3) 0.5837(2) 0.81772(16)
H35 H 0.7991 0.5269 0.8196
C42 C 0.1435(5) 0.5768(3) 0.7122(2)
H36 H 0.0796 0.6207 0.6865
H37 H 0.1846 0.5987 0.7699
H38 H 0.0803 0.5054 0.7061
C43 C 0.7702(3) 0.6401(2) 0.88944(16)
H39 H 0.8199 0.6205 0.9399
C44 C 0.4904(3) 0.6982(2) 0.29829(14)
H40 H 0.5396 0.6418 0.3043
H41 H 0.5475 0.7527 0.2706
H42 H 0.3832 0.6729 0.2664
loop_
_geom_bond_atom_site_label_1
_geom_bond_atom_site_label_2
_geom_bond_site_symmetry_1
_geom_bond_site_symmetry_2
O1 C7 1_555 1_555
N1 H1 1_555 1_555
C1 H2 1_555 1_555
H3 C1 1_555 1_555
C2 H4 1_555 1_555
C3 C2 1_555 1_555
H5 C3 1_555 1_555
C4 N1 1_555 1_555
C5 C1 1_555 1_555
H6 C5 1_555 1_555
C6 C1 1_555 1_555
C7 N1 1_555 1_555
C8 C5 1_555 1_555
O2 C10 1_555 1_555
C9 C6 1_555 1_555
C10 C3 1_555 1_555
C11 C2 1_555 1_555
C12 C8 1_555 1_555
H7 C12 1_555 1_555
C13 C11 1_555 1_555
H8 C13 1_555 1_555
C14 C8 1_555 1_555
H9 C14 1_555 1_555
O3 C9 1_555 1_555
O4 C9 1_555 1_555
C15 C4 1_555 1_555
H10 C15 1_555 1_555
C16 C10 1_555 1_555
H11 C16 1_555 1_555
H12 C16 1_555 1_555
H13 C16 1_555 1_555
C17 C13 1_555 1_555
H14 C17 1_555 1_555
C18 C15 1_555 1_555
H15 C18 1_555 1_555
C19 C12 1_555 1_555
H16 C19 1_555 1_555
C20 C19 1_555 1_555
H17 C20 1_555 1_555
C21 C14 1_555 1_555
H18 C21 1_555 1_555
C22 O4 1_555 1_555
H19 C22 1_555 1_555
H20 C22 1_555 1_555
H21 C22 1_555 1_555
O5 C26 1_555 1_555
N2 H22 1_555 1_555
O6 C34 1_555 1_555
C23 N2 1_555 1_555
C24 C23 1_555 1_555
C25 C24 1_555 1_555
H23 C25 1_555 1_555
C26 N2 1_555 1_555
C27 C25 1_555 1_555
H24 C27 1_555 1_555
C28 C32 1_555 1_555
C29 C23 1_555 1_555
H25 C29 1_555 1_555
C30 C25 1_555 1_555
C31 C30 1_555 1_555
H26 C31 1_555 1_555
H27 C31 1_555 1_555
C32 C27 1_555 1_555
H28 C32 1_555 1_555
C33 C24 1_555 1_555
H29 C33 1_555 1_555
C34 C30 1_555 1_555
C35 C33 1_555 1_555
H30 C35 1_555 1_555
C36 C29 1_555 1_555
H31 C36 1_555 1_555
C37 C27 1_555 1_555
O7 C37 1_555 1_555
O8 C34 1_555 1_555
C38 C28 1_555 1_555
H32 C38 1_555 1_555
C39 C38 1_555 1_555
H33 C39 1_555 1_555
C40 C28 1_555 1_555
H34 C40 1_555 1_555
C41 C40 1_555 1_555
H35 C41 1_555 1_555
C42 C37 1_555 1_555
H36 C42 1_555 1_555
H37 C42 1_555 1_555
H38 C42 1_555 1_555
C43 C39 1_555 1_555
H39 C43 1_555 1_555
C44 O6 1_555 1_555
H40 C44 1_555 1_555
H41 C44 1_555 1_555
H42 C44 1_555 1_555
C2 C6 1_555 1_555
C3 C5 1_555 1_555
C4 C11 1_555 1_555
C6 C7 1_555 1_555
C17 C18 1_555 1_555
C20 C21 1_555 1_555
C26 C30 1_555 1_555
C31 C32 1_555 1_555
C35 C36 1_555 1_555
C41 C43 1_555 1_555

#END
