
#######################################################################
#
#                 Cambridge Crystallographic Data Centre
#                                CCDC 
#
#######################################################################
#
# If this CIF has been generated from an entry in the Cambridge 
# Structural Database, then it will include bibliographic, chemical, 
# crystal, experimental, refinement or atomic coordinate data resulting 
# from the CCDC's data processing and validation procedures.
#
#######################################################################

data_SAGRAT01
_chemical_formula_moiety         'C14 H11 N1 O4'
_chemical_name_systematic        'Benzyl 4-nitrobenzoate'
_symmetry_cell_setting           monoclinic
_symmetry_space_group_name_H-M   'P 21/n'
_symmetry_Int_Tables_number      14
_space_group_name_Hall           '-P 2yn'
loop_
_symmetry_equiv_pos_site_id
_symmetry_equiv_pos_as_xyz
1 x,y,z
2 1/2-x,1/2+y,1/2-z
3 -x,-y,-z
4 1/2+x,1/2-y,1/2+z
_cell_length_a                   6.1574(6)
_cell_length_b                   7.4487(6)
_cell_length_c                   26.341(3)
_cell_angle_alpha                90
_cell_angle_beta                 93.362(3)
_cell_angle_gamma                90
_cell_volume                     1206.04
_exptl_crystal_colour            colorless
_exptl_crystal_description       plate
_cell_formula_units_Z            4
_exptl_crystal_recrystallization_method ethanol
loop_
_atom_site_label
_atom_site_type_symbol
_atom_site_fract_x
_atom_site_fract_y
_atom_site_fract_z
C1 C 1.1386(3) 0.1688(3) 0.44838(7)
C2 C 0.9277(3) 0.2336(3) 0.43893(7)
C3 C 0.8139(3) 0.3011(3) 0.47862(7)
C4 C 0.9128(3) 0.2994(3) 0.52699(7)
N1 N 0.7922(3) 0.3687(2) 0.56955(6)
O1 O 0.6106(2) 0.4329(2) 0.55980(6)
O2 O 0.8790(3) 0.3594(2) 0.61266(5)
C5 C 1.1214(3) 0.2354(3) 0.53756(7)
C6 C 1.2341(3) 0.1701(3) 0.49756(7)
C7 C 1.2672(3) 0.0901(3) 0.40727(7)
O3 O 1.4438(2) 0.0215(2) 0.41525(6)
O4 O 1.1642(2) 0.1022(2) 0.36149(5)
C8 C 1.2718(4) 0.0186(3) 0.31951(8)
C9 C 1.1031(3) -0.0140(3) 0.27737(8)
C10 C 1.1441(4) 0.0230(3) 0.22716(8)
C11 C 0.9863(4) -0.0105(3) 0.18803(8)
C12 C 0.7881(4) -0.0802(3) 0.19883(9)
C13 C 0.7466(4) -0.1201(3) 0.24858(9)
C14 C 0.9023(4) -0.0893(3) 0.28737(8)
H1 H 0.8620 0.2315 0.4054
H2 H 0.6710 0.3476 0.4726
H3 H 1.1853 0.2364 0.5713
H4 H 1.3779 0.1258 0.5037
H5 H 1.3396 -0.0963 0.3307
H6 H 1.3869 0.0986 0.3078
H7 H 1.2808 0.0716 0.2193
H8 H 1.0164 0.0151 0.1538
H9 H 0.6799 -0.1009 0.1723
H10 H 0.6097 -0.1692 0.2561
H11 H 0.8726 -0.1196 0.3213
loop_
_geom_bond_atom_site_label_1
_geom_bond_atom_site_label_2
_geom_bond_site_symmetry_1
_geom_bond_site_symmetry_2
C1 C2 1_555 1_555
C2 C3 1_555 1_555
C3 C4 1_555 1_555
C4 N1 1_555 1_555
N1 O1 1_555 1_555
O2 N1 1_555 1_555
C5 C4 1_555 1_555
C6 C1 1_555 1_555
C7 C1 1_555 1_555
O3 C7 1_555 1_555
O4 C7 1_555 1_555
C8 O4 1_555 1_555
C9 C8 1_555 1_555
C10 C9 1_555 1_555
C11 C10 1_555 1_555
C12 C11 1_555 1_555
C13 C12 1_555 1_555
C14 C9 1_555 1_555
H1 C2 1_555 1_555
H2 C3 1_555 1_555
H3 C5 1_555 1_555
H4 C6 1_555 1_555
H5 C8 1_555 1_555
H6 C8 1_555 1_555
H7 C10 1_555 1_555
H8 C11 1_555 1_555
H9 C12 1_555 1_555
H10 C13 1_555 1_555
H11 C14 1_555 1_555
C5 C6 1_555 1_555
C13 C14 1_555 1_555

#END
