
#######################################################################
#
#                 Cambridge Crystallographic Data Centre
#                                CCDC 
#
#######################################################################
#
# If this CIF has been generated from an entry in the Cambridge 
# Structural Database, then it will include bibliographic, chemical, 
# crystal, experimental, refinement or atomic coordinate data resulting 
# from the CCDC's data processing and validation procedures.
#
#######################################################################

data_SAGRIE
_chemical_formula_moiety         'C24 H25 N1 O6'
_chemical_name_systematic        
'diethyl 4-(3-methoxyphenyl)-2-oxo-6-phenyl-1,2,3,4-tetrahydropyridine-3,5-dicarboxylate'
_symmetry_cell_setting           triclinic
_symmetry_space_group_name_H-M   'P -1'
_symmetry_Int_Tables_number      2
_space_group_name_Hall           '-P 1'
loop_
_symmetry_equiv_pos_site_id
_symmetry_equiv_pos_as_xyz
1 x,y,z
2 -x,-y,-z
_cell_length_a                   9.6241(7)
_cell_length_b                   10.2961(8)
_cell_length_c                   12.8160(9)
_cell_angle_alpha                98.811(3)
_cell_angle_beta                 93.704(3)
_cell_angle_gamma                114.189(3)
_cell_volume                     1133.29
_exptl_crystal_colour            colorless
_exptl_crystal_description       block
_cell_formula_units_Z            2
loop_
_atom_site_label
_atom_site_type_symbol
_atom_site_fract_x
_atom_site_fract_y
_atom_site_fract_z
O1 O 0.7003(2) 0.5502(2) 1.02181(14)
C1 C 0.5235(2) 0.3760(2) 0.75528(17)
N1 N 0.5467(2) 0.4346(2) 0.86456(14)
H1 H 0.4673 0.4288 0.8943
O2 O 0.8035(3) 0.7169(3) 0.8163(3)
C2 C 0.6330(2) 0.3444(2) 0.71246(17)
O3 O 1.0077(3) 0.6782(3) 0.7924(3)
C3 C 0.6857(3) 0.4997(2) 0.92650(18)
O4 O 0.7227(3) 0.2677(4) 0.56014(17)
C4 C 0.8215(3) 0.5110(3) 0.86986(19)
H2 H 0.9054 0.5196 0.9220
O5 O 0.4783(2) 0.2164(3) 0.54887(15)
C5 C 0.7789(2) 0.3737(2) 0.78214(18)
H3 H 0.8614 0.3949 0.7375
O6 O 0.4867(3) -0.1002(3) 0.8643(3)
C6 C 0.3750(3) 0.3576(3) 0.70022(18)
C7 C 0.3723(5) 0.4520(4) 0.6355(3)
H4 H 0.4633 0.5254 0.6245
C8 C 0.0995(6) 0.3320(9) 0.6023(4)
H5 H 0.0062 0.3213 0.5680
C9 C 0.2308(8) 0.4356(7) 0.5869(5)
H6 H 0.2282 0.4985 0.5427
C10 C 0.1026(5) 0.2456(9) 0.6657(4)
H7 H 0.0102 0.1744 0.6770
C11 C 0.2402(4) 0.2566(6) 0.7173(3)
H8 H 0.2388 0.1944 0.7632
C12 C 0.8731(3) 0.6468(3) 0.8243(3)
C13 C 1.0749(9) 0.8137(7) 0.7517(7)
H9 H 0.9939 0.8414 0.7303
H10 H 1.1471 0.8907 0.8080
C14 C 1.1438(13) 0.7992(10) 0.6726(6)
H11 H 1.1864 0.8890 0.6478
H12 H 1.0721 0.7242 0.6163
H13 H 1.2250 0.7733 0.6939
C15 C 0.6178(3) 0.2749(3) 0.59998(18)
C16 C 0.4505(4) 0.1502(4) 0.4376(2)
H14 H 0.4760 0.0676 0.4284
H15 H 0.5139 0.2196 0.3975
C17 C 0.2891(5) 0.1034(7) 0.3995(3)
H16 H 0.2669 0.0550 0.3262
H17 H 0.2662 0.1864 0.4058
H18 H 0.2274 0.0379 0.4415
C18 C 0.6338(3) 0.1273(3) 0.8293(2)
H19 H 0.5429 0.1249 0.7975
C19 C 0.6289(4) 0.0107(3) 0.8740(2)
C20 C 0.7636(5) 0.0143(4) 0.9216(2)
H20 H 0.7620 -0.0628 0.9519
C21 C 0.8992(5) 0.1324(4) 0.9238(3)
H21 H 0.9898 0.1346 0.9560
C22 C 0.9056(4) 0.2483(3) 0.8796(2)
H22 H 0.9992 0.3275 0.8820
C23 C 0.4713(7) -0.2267(5) 0.9048(5)
H23 H 0.3642 -0.2900 0.9005
H24 H 0.5188 -0.1985 0.9778
H25 H 0.5206 -0.2767 0.8632
C24 C 0.7700(3) 0.2455(3) 0.83130(17)
loop_
_geom_bond_atom_site_label_1
_geom_bond_atom_site_label_2
_geom_bond_site_symmetry_1
_geom_bond_site_symmetry_2
O1 C3 1_555 1_555
C1 N1 1_555 1_555
N1 H1 1_555 1_555
O2 C12 1_555 1_555
C2 C1 1_555 1_555
O3 C12 1_555 1_555
C3 N1 1_555 1_555
O4 C15 1_555 1_555
C4 C3 1_555 1_555
H2 C4 1_555 1_555
O5 C15 1_555 1_555
C5 C2 1_555 1_555
H3 C5 1_555 1_555
O6 C19 1_555 1_555
C6 C1 1_555 1_555
C7 C6 1_555 1_555
H4 C7 1_555 1_555
C8 H5 1_555 1_555
C9 C7 1_555 1_555
H6 C9 1_555 1_555
C10 C8 1_555 1_555
H7 C10 1_555 1_555
C11 C6 1_555 1_555
H8 C11 1_555 1_555
C12 C4 1_555 1_555
C13 O3 1_555 1_555
H9 C13 1_555 1_555
H10 C13 1_555 1_555
C14 C13 1_555 1_555
H11 C14 1_555 1_555
H12 C14 1_555 1_555
H13 C14 1_555 1_555
C15 C2 1_555 1_555
C16 O5 1_555 1_555
H14 C16 1_555 1_555
H15 C16 1_555 1_555
C17 C16 1_555 1_555
H16 C17 1_555 1_555
H17 C17 1_555 1_555
H18 C17 1_555 1_555
C18 H19 1_555 1_555
C19 C18 1_555 1_555
C20 C19 1_555 1_555
H20 C20 1_555 1_555
C21 C20 1_555 1_555
H21 C21 1_555 1_555
C22 C21 1_555 1_555
H22 C22 1_555 1_555
C23 O6 1_555 1_555
H23 C23 1_555 1_555
H24 C23 1_555 1_555
H25 C23 1_555 1_555
C24 C5 1_555 1_555
C4 C5 1_555 1_555
C8 C9 1_555 1_555
C10 C11 1_555 1_555
C18 C24 1_555 1_555
C22 C24 1_555 1_555

#END
