
#######################################################################
#
#                 Cambridge Crystallographic Data Centre
#                                CCDC 
#
#######################################################################
#
# If this CIF has been generated from an entry in the Cambridge 
# Structural Database, then it will include bibliographic, chemical, 
# crystal, experimental, refinement or atomic coordinate data resulting 
# from the CCDC's data processing and validation procedures.
#
#######################################################################

data_SAGROK
_chemical_formula_moiety         'C22 H21 N1 O4'
_chemical_name_systematic        
'methyl 1-((2-(3-oxobut-1-en-1-yl)phenyl)carbamoyl)-2-phenylcyclopropanecarboxylate'
_symmetry_cell_setting           triclinic
_symmetry_space_group_name_H-M   'P -1'
_symmetry_Int_Tables_number      2
_space_group_name_Hall           '-P 1'
loop_
_symmetry_equiv_pos_site_id
_symmetry_equiv_pos_as_xyz
1 x,y,z
2 -x,-y,-z
_cell_length_a                   11.0068(12)
_cell_length_b                   18.8343(18)
_cell_length_c                   19.829(2)
_cell_angle_alpha                72.080(6)
_cell_angle_beta                 89.811(7)
_cell_angle_gamma                77.711(7)
_cell_volume                     3813.06
_exptl_crystal_colour            colorless
_exptl_crystal_description       block
_cell_formula_units_Z            8
loop_
_atom_site_label
_atom_site_type_symbol
_atom_site_fract_x
_atom_site_fract_y
_atom_site_fract_z
O1 O 0.38059(17) 0.41631(11) 0.24865(12)
O2 O 0.5406(2) 0.24841(15) 0.12494(13)
O3 O 0.3391(2) 0.29404(16) 0.12235(13)
O4 O -0.1754(2) 0.31802(16) 0.05659(14)
N1 N 0.2682(2) 0.32969(13) 0.24553(13)
C1 C 0.3695(2) 0.35938(15) 0.23417(15)
C2 C 0.1577(3) 0.36049(15) 0.27376(16)
C3 C 0.4734(2) 0.31629(15) 0.20360(16)
C4 C 0.4413(3) 0.28554(17) 0.14680(17)
C5 C 0.0337(3) 0.34881(16) 0.17429(17)
H1 H 0.1075 0.3397 0.1523
C6 C 0.0423(3) 0.36921(15) 0.23938(16)
C7 C 0.5884(3) 0.26712(18) 0.32994(19)
C8 C 0.1640(3) 0.37934(17) 0.33567(17)
H2 H 0.2410 0.3726 0.3587
C9 C 0.5890(3) 0.27076(18) 0.25439(18)
H3 H 0.6328 0.2238 0.2455
C10 C -0.0643(3) 0.39947(18) 0.26851(19)
H4 H -0.1420 0.4068 0.2460
C11 C 0.5951(3) 0.34248(19) 0.19824(18)
H5 H 0.6440 0.3384 0.1583
H6 H 0.5979 0.3868 0.2128
C12 C 0.0565(3) 0.4080(2) 0.36307(19)
H7 H 0.0610 0.4202 0.4048
C13 C -0.0748(3) 0.3208(2) 0.07936(19)
C14 C -0.0572(3) 0.4185(2) 0.3291(2)
H8 H -0.1296 0.4387 0.3474
C15 C 0.5058(4) 0.23321(18) 0.3743(2)
H9 H 0.4487 0.2124 0.3566
C16 C -0.0667(3) 0.3420(2) 0.14368(19)
H10 H -0.1408 0.3517 0.1654
C17 C 0.0401(3) 0.3023(2) 0.04274(18)
H11 H 0.0978 0.2594 0.0745
H12 H 0.0777 0.3457 0.0286
H13 H 0.0192 0.2896 0.0015
C18 C 0.6711(4) 0.2973(2) 0.3581(2)
H14 H 0.7269 0.3209 0.3290
C19 C 0.5073(5) 0.2299(2) 0.4451(2)
H15 H 0.4511 0.2070 0.4746
C20 C 0.5911(6) 0.2603(2) 0.4716(3)
H16 H 0.5922 0.2583 0.5191
C21 C 0.5215(4) 0.2214(3) 0.0663(2)
H17 H 0.4932 0.2643 0.0244
H18 H 0.4600 0.1909 0.0770
H19 H 0.5985 0.1909 0.0583
C22 C 0.6733(5) 0.2935(3) 0.4279(3)
H20 H 0.7312 0.3136 0.4458
H21 H 0.262(5) 0.292(2) 0.231(3)
O5 O 0.00663(19) 0.12875(12) 0.16691(13)
O6 O 0.23059(19) 0.18184(11) 0.26272(12)
O7 O -0.1247(2) 0.09027(17) 0.24927(14)
O8 O 0.3256(4) -0.0639(3) -0.00936(19)
N2 N 0.2562(2) 0.06525(13) 0.24818(13)
C23 C 0.1894(2) 0.12681(16) 0.26255(15)
C24 C 0.3850(2) 0.05754(15) 0.23274(16)
C25 C 0.4264(3) 0.03215(16) 0.17634(16)
C26 C 0.0593(2) 0.12094(16) 0.28333(16)
C27 C 0.1450(3) 0.05073(19) 0.41846(17)
C28 C 0.3408(3) 0.01781(17) 0.12868(16)
H22 H 0.2562 0.0350 0.1325
C29 C -0.0289(3) 0.11051(19) 0.2328(2)
C30 C 0.4669(3) 0.07283(18) 0.27633(17)
H23 H 0.4377 0.0892 0.3143
C31 C 0.0404(3) 0.08610(18) 0.36290(17)
H24 H -0.0283 0.0594 0.3713
C32 C 0.2359(3) 0.0877(2) 0.42849(18)
H25 H 0.2349 0.1367 0.3985
C33 C 0.5539(3) 0.02199(19) 0.16623(19)
H26 H 0.5847 0.0036 0.1296
C34 C 0.5914(3) 0.06393(19) 0.2639(2)
H27 H 0.6461 0.0752 0.2928
C35 C -0.0015(3) 0.16973(19) 0.32725(18)
H28 H 0.0456 0.2028 0.3391
H29 H -0.0905 0.1909 0.3185
C36 C 0.1496(3) -0.0222(2) 0.46462(19)
H30 H 0.0897 -0.0483 0.4587
C37 C 0.6342(3) 0.0382(2) 0.2084(2)
H31 H 0.7183 0.0319 0.1997
C38 C 0.3313(4) -0.0196(3) 0.5278(2)
H32 H 0.3939 -0.0431 0.5640
C39 C 0.3287(3) 0.0523(3) 0.4829(2)
H33 H 0.3896 0.0777 0.4888
C40 C 0.3709(4) -0.0169(2) 0.08093(19)
H34 H 0.4553 -0.0356 0.0779
C41 C 0.2412(4) -0.0569(2) 0.5191(2)
H35 H 0.2417 -0.1055 0.5499
C42 C -0.0793(4) 0.1258(2) 0.1135(2)
H36 H -0.0504 0.1460 0.0673
H37 H -0.1602 0.1558 0.1165
H38 H -0.0845 0.0737 0.1212
C43 C 0.2848(5) -0.0289(3) 0.0323(2)
C44 C 0.1500(4) -0.0010(3) 0.0326(2)
H39 H 0.1296 0.0539 0.0145
H40 H 0.1248 -0.0174 0.0803
H41 H 0.1074 -0.0212 0.0031
H42 H 0.218(5) 0.030(2) 0.246(3)
O9 O 0.25525(19) 0.66915(11) 0.27838(12)
O10 O 0.4783(2) 0.57522(12) 0.18383(13)
O11 O 0.6278(2) 0.50291(16) 0.26728(14)
O12 O 0.1757(2) 0.46754(16) -0.01528(14)
N3 N 0.2415(2) 0.55947(13) 0.25796(13)
C45 C 0.3038(3) 0.60495(16) 0.27718(15)
C46 C 0.1110(3) 0.57984(15) 0.23855(16)
C47 C 0.1524(3) 0.54172(16) 0.12996(15)
H43 H 0.2353 0.5440 0.1355
C48 C 0.0669(3) 0.56915(15) 0.17757(16)
C49 C 0.4394(3) 0.56918(17) 0.30064(17)
C50 C 0.1243(3) 0.51398(17) 0.07972(16)
H44 H 0.0426 0.5092 0.0751
C51 C 0.5256(3) 0.5440(2) 0.2509(2)
C52 C 0.0288(3) 0.60605(17) 0.28345(18)
H45 H 0.0598 0.6116 0.3247
C53 C -0.0624(3) 0.58647(17) 0.16353(18)
H46 H -0.0946 0.5791 0.1235
C54 C 0.3723(3) 0.5064(2) 0.42902(18)
C55 C 0.4711(3) 0.5237(2) 0.37933(18)
H47 H 0.5446 0.4814 0.3879
C56 C 0.2118(3) 0.49027(19) 0.03087(18)
C57 C -0.1425(3) 0.61395(19) 0.2072(2)
H48 H -0.2279 0.6260 0.1960
C58 C -0.0973(3) 0.62382(19) 0.2676(2)
H49 H -0.1518 0.6423 0.2974
C59 C 0.3610(4) 0.4319(2) 0.4573(2)
H50 H 0.4147 0.3938 0.4442
C60 C 0.5001(3) 0.6000(2) 0.3508(2)
H51 H 0.5870 0.6022 0.3456
H52 H 0.4495 0.6416 0.3644
C61 C 0.5600(4) 0.5606(2) 0.1297(2)
H53 H 0.5262 0.5953 0.0840
H54 H 0.5669 0.5089 0.1299
H55 H 0.6410 0.5679 0.1396
C62 C 0.3443(3) 0.4940(2) 0.0368(2)
H56 H 0.3928 0.4635 0.0111
H57 H 0.3742 0.4747 0.0859
H58 H 0.3518 0.5461 0.0172
C63 C 0.2888(4) 0.5601(2) 0.4498(2)
H59 H 0.2915 0.6115 0.4311
C64 C 0.1932(4) 0.4660(4) 0.5243(2)
H60 H 0.1335 0.4527 0.5562
C65 C 0.2724(5) 0.4120(3) 0.5045(2)
H61 H 0.2672 0.3610 0.5228
C66 C 0.2019(5) 0.5396(3) 0.4973(2)
H62 H 0.1480 0.5771 0.5111
H63 H 0.284(5) 0.5146(16) 0.259(3)
O13 O 0.20876(19) 0.79745(12) 0.13379(11)
O14 O 0.13561(17) 0.94662(11) 0.23090(11)
O15 O 0.5596(3) 0.73454(17) 0.10263(15)
O16 O 0.0138(2) 0.79115(17) 0.11647(15)
N4 N 0.2587(2) 0.82757(13) 0.26012(13)
C67 C 0.3594(3) 0.84308(15) 0.29447(15)
C68 C 0.1547(3) 0.88055(16) 0.23031(15)
C69 C 0.4801(3) 0.82540(16) 0.27397(15)
C70 C -0.0457(3) 0.82803(17) 0.24647(17)
H64 H -0.0785 0.7872 0.2372
C71 C 0.0584(3) 0.85308(16) 0.19789(16)
C72 C 0.3355(3) 0.87622(16) 0.34752(16)
H65 H 0.2547 0.8873 0.3613
C73 C -0.0406(3) 0.82383(18) 0.32207(18)
C74 C 0.0893(3) 0.81046(18) 0.14562(17)
C75 C 0.5064(3) 0.79643(18) 0.21473(17)
H66 H 0.4503 0.7707 0.2032
C76 C 0.4308(3) 0.89295(19) 0.38017(17)
H67 H 0.4138 0.9174 0.4144
C77 C 0.5503(3) 0.8736(2) 0.36230(18)
H68 H 0.6150 0.8834 0.3856
C78 C -0.0725(3) 0.90092(19) 0.18761(18)
H69 H -0.0861 0.9479 0.1999
H70 H -0.1235 0.9038 0.1466
C79 C 0.6042(3) 0.80329(19) 0.17505(18)
H71 H 0.6642 0.8258 0.1877
C80 C 0.5754(3) 0.84007(19) 0.31070(18)
H72 H 0.6574 0.8266 0.2995
C81 C -0.0940(3) 0.8838(2) 0.3450(2)
H73 H -0.1335 0.9300 0.3120
C82 C 0.6217(3) 0.7774(2) 0.1133(2)
C83 C 0.2462(3) 0.7527(2) 0.08619(19)
H74 H 0.2231 0.7845 0.0380
H75 H 0.2055 0.7106 0.0971
H76 H 0.3349 0.7334 0.0920
C84 C -0.0904(4) 0.8773(2) 0.4162(2)
H77 H -0.1271 0.9191 0.4305
C85 C -0.0348(5) 0.8118(3) 0.4647(2)
H78 H -0.0356 0.8069 0.5128
C86 C 0.7180(3) 0.8012(3) 0.0640(2)
H79 H 0.7278 0.7728 0.0308
H80 H 0.7958 0.7912 0.0906
H81 H 0.6927 0.8549 0.0387
C87 C 0.0194(5) 0.7583(2) 0.3724(2)
H82 H 0.0589 0.7167 0.3586
C88 C 0.0230(6) 0.7523(3) 0.4431(2)
H83 H 0.0653 0.7072 0.4764
H84 H 0.263(5) 0.7815(13) 0.259(3)
loop_
_geom_bond_atom_site_label_1
_geom_bond_atom_site_label_2
_geom_bond_site_symmetry_1
_geom_bond_site_symmetry_2
O1 C1 1_555 1_555
O2 C4 1_555 1_555
O3 C4 1_555 1_555
O4 C13 1_555 1_555
N1 C1 1_555 1_555
C1 C3 1_555 1_555
C2 N1 1_555 1_555
C3 C4 1_555 1_555
C5 H1 1_555 1_555
C6 C2 1_555 1_555
C7 C9 1_555 1_555
C8 C2 1_555 1_555
H2 C8 1_555 1_555
C9 C3 1_555 1_555
H3 C9 1_555 1_555
C10 C6 1_555 1_555
H4 C10 1_555 1_555
C11 C3 1_555 1_555
H5 C11 1_555 1_555
H6 C11 1_555 1_555
C12 C8 1_555 1_555
H7 C12 1_555 1_555
C13 C16 1_555 1_555
C14 C10 1_555 1_555
H8 C14 1_555 1_555
C15 C7 1_555 1_555
H9 C15 1_555 1_555
C16 C5 1_555 1_555
H10 C16 1_555 1_555
C17 C13 1_555 1_555
H11 C17 1_555 1_555
H12 C17 1_555 1_555
H13 C17 1_555 1_555
C18 C7 1_555 1_555
H14 C18 1_555 1_555
C19 C15 1_555 1_555
H15 C19 1_555 1_555
C20 C19 1_555 1_555
H16 C20 1_555 1_555
C21 O2 1_555 1_555
H17 C21 1_555 1_555
H18 C21 1_555 1_555
H19 C21 1_555 1_555
C22 C18 1_555 1_555
H20 C22 1_555 1_555
H21 N1 1_555 1_555
O5 C29 1_555 1_555
O6 C23 1_555 1_555
O7 C29 1_555 1_555
O8 C43 1_555 1_555
N2 C23 1_555 1_555
C23 C26 1_555 1_555
C24 N2 1_555 1_555
C25 C24 1_555 1_555
C26 C29 1_555 1_555
C27 C31 1_555 1_555
C28 C25 1_555 1_555
H22 C28 1_555 1_555
C30 C24 1_555 1_555
H23 C30 1_555 1_555
C31 C26 1_555 1_555
H24 C31 1_555 1_555
C32 C27 1_555 1_555
H25 C32 1_555 1_555
C33 C25 1_555 1_555
H26 C33 1_555 1_555
C34 C30 1_555 1_555
H27 C34 1_555 1_555
C35 C26 1_555 1_555
H28 C35 1_555 1_555
H29 C35 1_555 1_555
C36 C27 1_555 1_555
H30 C36 1_555 1_555
C37 C33 1_555 1_555
H31 C37 1_555 1_555
C38 H32 1_555 1_555
C39 C32 1_555 1_555
H33 C39 1_555 1_555
C40 C28 1_555 1_555
H34 C40 1_555 1_555
C41 C36 1_555 1_555
H35 C41 1_555 1_555
C42 O5 1_555 1_555
H36 C42 1_555 1_555
H37 C42 1_555 1_555
H38 C42 1_555 1_555
C43 C40 1_555 1_555
C44 C43 1_555 1_555
H39 C44 1_555 1_555
H40 C44 1_555 1_555
H41 C44 1_555 1_555
H42 N2 1_555 1_555
O9 C45 1_555 1_555
O10 C51 1_555 1_555
O11 C51 1_555 1_555
O12 C56 1_555 1_555
N3 C45 1_555 1_555
C45 C49 1_555 1_555
C46 N3 1_555 1_555
C47 H43 1_555 1_555
C48 C46 1_555 1_555
C49 C51 1_555 1_555
C50 C47 1_555 1_555
H44 C50 1_555 1_555
C52 C46 1_555 1_555
H45 C52 1_555 1_555
C53 C48 1_555 1_555
H46 C53 1_555 1_555
C54 C55 1_555 1_555
C55 C49 1_555 1_555
H47 C55 1_555 1_555
C56 C50 1_555 1_555
C57 C53 1_555 1_555
H48 C57 1_555 1_555
C58 C52 1_555 1_555
H49 C58 1_555 1_555
C59 C54 1_555 1_555
H50 C59 1_555 1_555
C60 C49 1_555 1_555
H51 C60 1_555 1_555
H52 C60 1_555 1_555
C61 O10 1_555 1_555
H53 C61 1_555 1_555
H54 C61 1_555 1_555
H55 C61 1_555 1_555
C62 C56 1_555 1_555
H56 C62 1_555 1_555
H57 C62 1_555 1_555
H58 C62 1_555 1_555
C63 C54 1_555 1_555
H59 C63 1_555 1_555
C64 H60 1_555 1_555
C65 C59 1_555 1_555
H61 C65 1_555 1_555
C66 C63 1_555 1_555
H62 C66 1_555 1_555
H63 N3 1_555 1_555
O13 C74 1_555 1_555
O14 C68 1_555 1_555
O15 C82 1_555 1_555
O16 C74 1_555 1_555
N4 C67 1_555 1_555
C67 C69 1_555 1_555
C68 N4 1_555 1_555
C69 C75 1_555 1_555
C70 H64 1_555 1_555
C71 C68 1_555 1_555
C72 C67 1_555 1_555
H65 C72 1_555 1_555
C73 C70 1_555 1_555
C74 C71 1_555 1_555
C75 H66 1_555 1_555
C76 C72 1_555 1_555
H67 C76 1_555 1_555
C77 C76 1_555 1_555
H68 C77 1_555 1_555
C78 C70 1_555 1_555
H69 C78 1_555 1_555
H70 C78 1_555 1_555
C79 C75 1_555 1_555
H71 C79 1_555 1_555
C80 C69 1_555 1_555
H72 C80 1_555 1_555
C81 C73 1_555 1_555
H73 C81 1_555 1_555
C82 C79 1_555 1_555
C83 O13 1_555 1_555
H74 C83 1_555 1_555
H75 C83 1_555 1_555
H76 C83 1_555 1_555
C84 C81 1_555 1_555
H77 C84 1_555 1_555
C85 C84 1_555 1_555
H78 C85 1_555 1_555
C86 C82 1_555 1_555
H79 C86 1_555 1_555
H80 C86 1_555 1_555
H81 C86 1_555 1_555
C87 C73 1_555 1_555
H82 C87 1_555 1_555
C88 C85 1_555 1_555
H83 C88 1_555 1_555
H84 N4 1_555 1_555
C5 C6 1_555 1_555
C9 C11 1_555 1_555
C12 C14 1_555 1_555
C20 C22 1_555 1_555
C31 C35 1_555 1_555
C34 C37 1_555 1_555
C38 C39 1_555 1_555
C38 C41 1_555 1_555
C47 C48 1_555 1_555
C55 C60 1_555 1_555
C57 C58 1_555 1_555
C64 C65 1_555 1_555
C64 C66 1_555 1_555
C70 C71 1_555 1_555
C71 C78 1_555 1_555
C77 C80 1_555 1_555
C87 C88 1_555 1_555

#END
