
#######################################################################
#
#                 Cambridge Crystallographic Data Centre
#                                CCDC 
#
#######################################################################
#
# If this CIF has been generated from an entry in the Cambridge 
# Structural Database, then it will include bibliographic, chemical, 
# crystal, experimental, refinement or atomic coordinate data resulting 
# from the CCDC's data processing and validation procedures.
#
#######################################################################

data_SAGSAX
_chemical_formula_moiety         'C26 H18 F3 N1 O1'
_chemical_name_systematic        
5-(2,4-diphenylbuta-1,3-dien-1-yl)-2-(4-(trifluoromethyl)phenyl)-1,3-oxazole
_symmetry_cell_setting           monoclinic
_symmetry_space_group_name_H-M   'C 2/c'
_symmetry_Int_Tables_number      15
_space_group_name_Hall           '-C 2yn'
loop_
_symmetry_equiv_pos_site_id
_symmetry_equiv_pos_as_xyz
1 x,y,z
2 -x,y,1/2-z
3 1/2+x,1/2+y,z
4 1/2-x,1/2+y,1/2-z
5 -x,-y,-z
6 x,-y,1/2+z
7 1/2-x,1/2-y,-z
8 1/2+x,1/2-y,1/2+z
_cell_length_a                   32.979(13)
_cell_length_b                   5.836(2)
_cell_length_c                   23.108(9)
_cell_angle_alpha                90
_cell_angle_beta                 105.586(3)
_cell_angle_gamma                90
_cell_volume                     4283.95
_exptl_crystal_colour            'pale yellow'
_exptl_crystal_description       block
_cell_formula_units_Z            8
loop_
_atom_site_label
_atom_site_type_symbol
_atom_site_fract_x
_atom_site_fract_y
_atom_site_fract_z
C1 C 0.73817(11) 0.8940(6) 0.67300(14)
H1 H 0.7180 1.0081 0.6695
C2 C 0.77740(13) 0.9227(7) 0.71264(15)
H2 H 0.7833 1.0550 0.7358
C3 C 0.80755(11) 0.7583(7) 0.71800(15)
H3 H 0.8340 0.7784 0.7447
C4 C 0.79868(10) 0.5623(7) 0.68376(16)
H4 H 0.8191 0.4496 0.6871
C5 C 0.75929(10) 0.5341(5) 0.64444(14)
H5 H 0.7535 0.4012 0.6215
C6 C 0.72850(9) 0.6981(5) 0.63842(12)
C7 C 0.68561(9) 0.6608(5) 0.59772(13)
C8 C 0.66937(9) 0.8140(5) 0.54755(13)
H6 H 0.6416 0.7915 0.5256
C9 C 0.69009(9) 0.9837(5) 0.52968(13)
H7 H 0.7178 1.0095 0.5517
C10 C 0.67265(9) 1.1336(5) 0.47787(13)
C11 C 0.69333(10) 1.3338(5) 0.47100(14)
H8 H 0.7184 1.3714 0.4990
C12 C 0.67712(12) 1.4791(6) 0.42293(16)
H9 H 0.6916 1.6122 0.4188
C13 C 0.64014(13) 1.4289(7) 0.38155(17)
H10 H 0.6292 1.5282 0.3497
C14 C 0.61927(12) 1.2313(7) 0.38728(16)
H11 H 0.5941 1.1960 0.3590
C15 C 0.63527(10) 1.0832(6) 0.43479(15)
H12 H 0.6209 0.9488 0.4379
C16 C 0.66351(9) 0.4785(5) 0.60901(13)
H13 H 0.6768 0.3980 0.6437
C17 C 0.62372(10) 0.3878(6) 0.57759(14)
C18 C 0.60323(11) 0.1962(6) 0.58610(17)
H14 H 0.6131 0.0946 0.6178
C19 C 0.56453(10) 0.3465(6) 0.50771(16)
C20 C 0.53262(10) 0.4058(7) 0.45310(16)
C21 C 0.49915(12) 0.2607(8) 0.43145(18)
H15 H 0.4967 0.1284 0.4526
C22 C 0.46949(13) 0.3097(10) 0.3790(2)
H16 H 0.4469 0.2105 0.3650
C23 C 0.47261(12) 0.5011(11) 0.34709(19)
C24 C 0.50521(12) 0.6514(9) 0.36875(19)
H17 H 0.5072 0.7850 0.3478
C25 C 0.53500(11) 0.6029(8) 0.42185(17)
H18 H 0.5570 0.7051 0.4366
C26 C 0.44091(16) 0.5490(13) 0.2895(2)
F1 F 0.43246(19) 0.7605(9) 0.2784(2)
F2 F 0.45143(11) 0.4670(12) 0.24386(15)
F3 F 0.40453(10) 0.4531(9) 0.28395(16)
N1 N 0.56595(9) 0.1694(5) 0.54212(14)
O1 O 0.59828(6) 0.4892(4) 0.52632(9)
loop_
_geom_bond_atom_site_label_1
_geom_bond_atom_site_label_2
_geom_bond_site_symmetry_1
_geom_bond_site_symmetry_2
C1 H1 1_555 1_555
C2 C1 1_555 1_555
H2 C2 1_555 1_555
C3 C2 1_555 1_555
H3 C3 1_555 1_555
C4 C3 1_555 1_555
H4 C4 1_555 1_555
C5 C4 1_555 1_555
H5 C5 1_555 1_555
C6 C1 1_555 1_555
C7 C6 1_555 1_555
C8 C7 1_555 1_555
H6 C8 1_555 1_555
C9 C8 1_555 1_555
H7 C9 1_555 1_555
C10 C9 1_555 1_555
C11 C10 1_555 1_555
H8 C11 1_555 1_555
C12 C11 1_555 1_555
H9 C12 1_555 1_555
C13 C12 1_555 1_555
H10 C13 1_555 1_555
C14 C13 1_555 1_555
H11 C14 1_555 1_555
C15 C10 1_555 1_555
H12 C15 1_555 1_555
C16 C7 1_555 1_555
H13 C16 1_555 1_555
C17 C16 1_555 1_555
C18 C17 1_555 1_555
H14 C18 1_555 1_555
C19 C20 1_555 1_555
C20 C21 1_555 1_555
C21 H15 1_555 1_555
C22 C21 1_555 1_555
H16 C22 1_555 1_555
C23 C22 1_555 1_555
C24 C23 1_555 1_555
H17 C24 1_555 1_555
C25 C20 1_555 1_555
H18 C25 1_555 1_555
C26 C23 1_555 1_555
F1 C26 1_555 1_555
F2 C26 1_555 1_555
F3 C26 1_555 1_555
N1 C18 1_555 1_555
O1 C17 1_555 1_555
C5 C6 1_555 1_555
C14 C15 1_555 1_555
C19 N1 1_555 1_555
C19 O1 1_555 1_555
C24 C25 1_555 1_555

#END
