
#######################################################################
#
#                 Cambridge Crystallographic Data Centre
#                                CCDC 
#
#######################################################################
#
# If this CIF has been generated from an entry in the Cambridge 
# Structural Database, then it will include bibliographic, chemical, 
# crystal, experimental, refinement or atomic coordinate data resulting 
# from the CCDC's data processing and validation procedures.
#
#######################################################################

data_SAGWAZ
_chemical_compound_source        'aerial parts of Ligularia sagitta'
_chemical_formula_moiety         'C22 H28 O8'
_chemical_name_systematic        
6\b-Acetoxy-3\b-angeloyloxy-1\b,10\b-epoxy-8\b-hydroxy-eremophil-7(11)-en-8,12\a-olide
_chemical_properties_biological  
'source plant used in Chinese folk medicine to reduce phlegm, relieve cough, cure pulmonary tuberculosis, urinary tract blockages,common cold and pharyngitis; potential antibacterial activity'
_symmetry_cell_setting           orthorhombic
_symmetry_space_group_name_H-M   'P 21 21 21'
_symmetry_Int_Tables_number      19
_space_group_name_Hall           'P 2ac 2ab'
loop_
_symmetry_equiv_pos_site_id
_symmetry_equiv_pos_as_xyz
1 x,y,z
2 1/2-x,-y,1/2+z
3 -x,1/2+y,1/2-z
4 1/2+x,1/2-y,-z
_cell_length_a                   8.5192(3)
_cell_length_b                   10.8834(3)
_cell_length_c                   23.0838(8)
_cell_angle_alpha                90
_cell_angle_beta                 90
_cell_angle_gamma                90
_cell_volume                     2140.28
_exptl_crystal_colour            colorless
_chemical_melting_point          190-191deg.C
_cell_formula_units_Z            4
loop_
_atom_site_label
_atom_site_type_symbol
_atom_site_fract_x
_atom_site_fract_y
_atom_site_fract_z
O1 O 0.3747(3) -0.1490(2) 0.22417(13)
O2 O 0.4052(3) 0.0536(2) 0.23574(11)
O3 O 0.4778(3) 0.2285(2) 0.18330(11)
H1 H 0.5222 0.2648 0.2098
O4 O 0.0805(3) 0.4248(2) 0.24745(11)
O5 O 0.0823(3) 0.1618(2) 0.07426(10)
O6 O 0.2991(3) 0.1393(3) 0.02026(13)
O7 O 0.0856(3) 0.5811(2) 0.06852(11)
O8 O 0.1644(4) 0.4494(3) -0.00038(12)
C1 C 0.3455(4) -0.0456(4) 0.20801(17)
C2 C 0.1578(5) -0.0999(3) 0.12495(19)
H2 H 0.0990 -0.0589 0.0952
H3 H 0.0873 -0.1442 0.1498
H4 H 0.2304 -0.1563 0.1075
C3 C 0.2452(5) -0.0081(3) 0.15939(17)
C4 C 0.2528(4) 0.1139(3) 0.15646(16)
C5 C 0.1751(4) 0.2105(3) 0.12053(15)
H5 H 0.2564 0.2636 0.1040
C6 C 0.0634(4) 0.2910(3) 0.15881(15)
C7 C -0.0731(4) 0.2103(3) 0.18098(17)
H6 H -0.1420 0.2592 0.2045
H7 H -0.0319 0.1438 0.2036
H8 H -0.1304 0.1779 0.1486
C8 C 0.1615(4) 0.3374(3) 0.21070(15)
C9 C 0.2483(4) 0.2401(3) 0.24539(16)
H9 H 0.3131 0.2791 0.2746
H10 H 0.1734 0.1871 0.2649
C10 C 0.3504(5) 0.1642(3) 0.20515(17)
C11 C 0.2147(5) 0.4663(3) 0.21360(17)
H11 H 0.3114 0.4805 0.2356
C12 C 0.1823(5) 0.5575(4) 0.16548(17)
H12 H 0.0993 0.6132 0.1772
H13 H 0.2758 0.6056 0.1579
C13 C 0.1339(5) 0.4903(3) 0.11135(17)
H14 H 0.2252 0.4458 0.0963
C14 C 0.0009(4) 0.3984(3) 0.12140(16)
H15 H -0.0248 0.3635 0.0834
C15 C -0.1486(4) 0.4609(4) 0.14337(19)
H16 H -0.1775 0.5259 0.1173
H17 H -0.1300 0.4944 0.1812
H18 H -0.2320 0.4018 0.1453
C16 C 0.1606(5) 0.1382(4) 0.02414(18)
C17 C 0.0488(5) 0.1096(5) -0.02323(19)
H19 H 0.1060 0.0933 -0.0582
H20 H -0.0198 0.1784 -0.0292
H21 H -0.0121 0.0387 -0.0129
C18 C 0.1038(4) 0.5456(4) 0.01246(16)
C19 C 0.0420(4) 0.6391(4) -0.02793(18)
C20 C -0.0680(6) 0.7340(5) -0.0038(2)
H22 H -0.0996 0.7891 -0.0341
H23 H -0.0158 0.7795 0.0262
H24 H -0.1589 0.6941 0.0120
C21 C 0.0819(5) 0.6363(4) -0.0825(2)
H25 H 0.0389 0.6980 -0.1055
C22 C 0.1880(6) 0.5468(6) -0.1136(2)
H26 H 0.1946 0.5687 -0.1538
H27 H 0.1461 0.4653 -0.1100
H28 H 0.2909 0.5496 -0.0966
loop_
_geom_bond_atom_site_label_1
_geom_bond_atom_site_label_2
_geom_bond_site_symmetry_1
_geom_bond_site_symmetry_2
O1 C1 1_555 1_555
O2 C1 1_555 1_555
O3 H1 1_555 1_555
O4 C8 1_555 1_555
O5 C5 1_555 1_555
O6 C16 1_555 1_555
O7 C13 1_555 1_555
O8 C18 1_555 1_555
C1 C3 1_555 1_555
C2 H2 1_555 1_555
H3 C2 1_555 1_555
H4 C2 1_555 1_555
C3 C2 1_555 1_555
C4 C3 1_555 1_555
C5 C4 1_555 1_555
H5 C5 1_555 1_555
C6 C5 1_555 1_555
C7 C6 1_555 1_555
H6 C7 1_555 1_555
H7 C7 1_555 1_555
H8 C7 1_555 1_555
C8 C6 1_555 1_555
C9 C8 1_555 1_555
H9 C9 1_555 1_555
H10 C9 1_555 1_555
C10 O2 1_555 1_555
C11 O4 1_555 1_555
H11 C11 1_555 1_555
C12 C11 1_555 1_555
H12 C12 1_555 1_555
H13 C12 1_555 1_555
C13 C12 1_555 1_555
H14 C13 1_555 1_555
C14 C6 1_555 1_555
H15 C14 1_555 1_555
C15 C14 1_555 1_555
H16 C15 1_555 1_555
H17 C15 1_555 1_555
H18 C15 1_555 1_555
C16 O5 1_555 1_555
C17 C16 1_555 1_555
H19 C17 1_555 1_555
H20 C17 1_555 1_555
H21 C17 1_555 1_555
C18 O7 1_555 1_555
C19 C18 1_555 1_555
C20 C19 1_555 1_555
H22 C20 1_555 1_555
H23 C20 1_555 1_555
H24 C20 1_555 1_555
C21 C19 1_555 1_555
H25 C21 1_555 1_555
C22 C21 1_555 1_555
H26 C22 1_555 1_555
H27 C22 1_555 1_555
H28 C22 1_555 1_555
O3 C10 1_555 1_555
C4 C10 1_555 1_555
C8 C11 1_555 1_555
C9 C10 1_555 1_555
C13 C14 1_555 1_555

#END
