
#######################################################################
#
#                 Cambridge Crystallographic Data Centre
#                                CCDC 
#
#######################################################################
#
# If this CIF has been generated from an entry in the Cambridge 
# Structural Database, then it will include bibliographic, chemical, 
# crystal, experimental, refinement or atomic coordinate data resulting 
# from the CCDC's data processing and validation procedures.
#
#######################################################################

data_SAGWEE01
_chemical_formula_moiety         'C12 H24 O6,C7 H10 N1 1+,Cl1 O4 1-'
_chemical_name_systematic        '4-Methylanilinium 18-crown-6 perchlorate'
_symmetry_cell_setting           orthorhombic
_symmetry_space_group_name_H-M   'P n m a'
_symmetry_Int_Tables_number      62
_space_group_name_Hall           '-P 2ac 2n'
loop_
_symmetry_equiv_pos_site_id
_symmetry_equiv_pos_as_xyz
1 x,y,z
2 1/2-x,-y,1/2+z
3 -x,1/2+y,-z
4 1/2+x,1/2-y,1/2-z
5 -x,-y,-z
6 1/2+x,y,1/2-z
7 x,1/2-y,z
8 1/2-x,1/2+y,1/2+z
_cell_length_a                   15.491(3)
_cell_length_b                   11.699(2)
_cell_length_c                   12.994(3)
_cell_angle_alpha                90
_cell_angle_beta                 90
_cell_angle_gamma                90
_cell_volume                     2354.89
_cell_formula_units_Z            4
loop_
_atom_site_label
_atom_site_type_symbol
_atom_site_fract_x
_atom_site_fract_y
_atom_site_fract_z
Cl1 Cl 0.10078(8) 0.2500 0.79298(10)
O1 O 0.11272(19) 0.1500(3) 0.7320(3)
O2 O 0.0150(2) 0.2500 0.8366(3)
O3 O 0.1619(2) 0.2500 0.8761(3)
O1F O 0.11272(19) 0.3500(3) 0.7320(3)
O4 O 0.10883(15) 0.03836(19) 0.21909(19)
O5 O 0.0427(2) 0.2500 0.1517(2)
O6 O 0.20050(15) 0.0475(2) 0.40683(19)
O7 O 0.2848(2) 0.2500 0.4708(3)
C1 C 0.1022(2) -0.0471(3) 0.2967(3)
H1 H 0.0881 -0.1201 0.2655
H2 H 0.0564 -0.0274 0.3445
C2 C 0.0303(2) 0.0500(3) 0.1615(3)
H3 H -0.0178 0.0612 0.2082
H4 H 0.0198 -0.0191 0.1222
C3 C 0.0376(3) 0.1490(3) 0.0911(3)
H5 H 0.0888 0.1416 0.0487
H6 H -0.0124 0.1524 0.0462
C4 C 0.1854(3) -0.0561(3) 0.3526(3)
H7 H 0.1833 -0.1196 0.4005
H8 H 0.2319 -0.0698 0.3042
C5 C 0.2812(3) 0.1489(4) 0.5320(3)
H9 H 0.2299 0.1503 0.5749
H10 H 0.3313 0.1451 0.5766
C6 C 0.2791(3) 0.0463(4) 0.4628(3)
H11 H 0.3276 0.0483 0.4157
H12 H 0.2830 -0.0231 0.5035
O4F O 0.10883(15) 0.46164(19) 0.21909(19)
O6F O 0.20050(15) 0.4525(2) 0.40683(19)
C1F C 0.1022(2) 0.5471(3) 0.2967(3)
H1F H 0.0881 0.6201 0.2655
H2F H 0.0564 0.5274 0.3445
C2F C 0.0303(2) 0.4500(3) 0.1615(3)
H3F H -0.0178 0.4388 0.2082
H4F H 0.0198 0.5191 0.1222
C3F C 0.0376(3) 0.3510(3) 0.0911(3)
H5F H 0.0888 0.3584 0.0487
H6F H -0.0124 0.3476 0.0462
C4F C 0.1854(3) 0.5561(3) 0.3526(3)
H7F H 0.1833 0.6196 0.4005
H8F H 0.2319 0.5698 0.3042
C5F C 0.2812(3) 0.3511(4) 0.5320(3)
H9F H 0.2299 0.3497 0.5749
H10F H 0.3313 0.3549 0.5766
C6F C 0.2791(3) 0.4537(4) 0.4628(3)
H11F H 0.3276 0.4517 0.4157
H12F H 0.2830 0.5231 0.5035
N1 N 0.2025(2) 0.2500 0.2720(3)
C7 C 0.3149(2) 0.1480(3) 0.1746(3)
H13 H 0.2905 0.0790 0.1950
C8 C 0.2788(3) 0.2500 0.2047(3)
C9 C 0.4262(3) 0.2500 0.0821(4)
C10 C 0.3873(2) 0.1495(3) 0.1137(3)
H14 H 0.4112 0.0803 0.0931
C11 C 0.5070(4) 0.2500 0.0176(5)
C7F C 0.3149(2) 0.3520(3) 0.1746(3)
H13F H 0.2905 0.4210 0.1950
C10F C 0.3873(2) 0.3505(3) 0.1137(3)
H14F H 0.4112 0.4197 0.0931
H15? H 0.2161 0.2811 0.3323
H16? H 0.1847 0.1785 0.2817
H17? H 0.1605 0.2904 0.2426
H18? H 0.5297 0.1737 0.0136
H19? H 0.5492 0.2994 0.0484
H20? H 0.4937 0.2769 -0.0504
loop_
_geom_bond_atom_site_label_1
_geom_bond_atom_site_label_2
_geom_bond_site_symmetry_1
_geom_bond_site_symmetry_2
Cl1 O1 1_555 1_555
O2 Cl1 1_555 1_555
O3 Cl1 1_555 1_555
O4 C1 1_555 1_555
O5 C3 1_555 1_555
O6 C4 1_555 1_555
O7 C5 1_555 1_555
C1 H1 1_555 1_555
H2 C1 1_555 1_555
C2 O4 1_555 1_555
H3 C2 1_555 1_555
H4 C2 1_555 1_555
C3 C2 1_555 1_555
H5 C3 1_555 1_555
H6 C3 1_555 1_555
C4 C1 1_555 1_555
H7 C4 1_555 1_555
H8 C4 1_555 1_555
C5 H9 1_555 1_555
H10 C5 1_555 1_555
C6 O6 1_555 1_555
H11 C6 1_555 1_555
H12 C6 1_555 1_555
N1 C8 1_555 1_555
C7 H13 1_555 1_555
C8 C7 1_555 1_555
C9 C10 1_555 1_555
C10 C7 1_555 1_555
H14 C10 1_555 1_555
C11 C9 1_555 1_555
O1F Cl1 1_555 1_555
O4F C1F 1_555 1_555
O6F C4F 1_555 1_555
C1F H1F 1_555 1_555
H2F C1F 1_555 1_555
C2F O4F 1_555 1_555
H3F C2F 1_555 1_555
H4F C2F 1_555 1_555
C3F O5 1_555 1_555
H5F C3F 1_555 1_555
H6F C3F 1_555 1_555
C4F C1F 1_555 1_555
H7F C4F 1_555 1_555
H8F C4F 1_555 1_555
C5F O7 1_555 1_555
H9F C5F 1_555 1_555
H10F C5F 1_555 1_555
C6F O6F 1_555 1_555
H11F C6F 1_555 1_555
H12F C6F 1_555 1_555
C7F C8 1_555 1_555
H13F C7F 1_555 1_555
C10F C9 1_555 1_555
H14F C10F 1_555 1_555
C5 C6 1_555 1_555
C2F C3F 1_555 1_555
C5F C6F 1_555 1_555
C7F C10F 1_555 1_555

#END
