
#######################################################################
#
#                 Cambridge Crystallographic Data Centre
#                                CCDC 
#
#######################################################################
#
# If this CIF has been generated from an entry in the Cambridge 
# Structural Database, then it will include bibliographic, chemical, 
# crystal, experimental, refinement or atomic coordinate data resulting 
# from the CCDC's data processing and validation procedures.
#
#######################################################################

data_SAGWEE
_chemical_name_common            
'18-Crown-6 p-tolylammonium clathrate perchlorate'
_chemical_formula_moiety         'C12 H24 O6,C7 H10 N1 1+,Cl1 O4 1-'
_chemical_name_systematic        
'1,4,7,10,13,16-Hexaoxacyclooctadecane 4-methylanilinium clathrate perchlorate'
_symmetry_cell_setting           orthorhombic
_symmetry_space_group_name_H-M   'P n m a'
_symmetry_Int_Tables_number      62
_space_group_name_Hall           '-P 2ac 2n'
loop_
_symmetry_equiv_pos_site_id
_symmetry_equiv_pos_as_xyz
1 x,y,z
2 1/2-x,-y,1/2+z
3 -x,1/2+y,-z
4 1/2+x,1/2-y,1/2-z
5 -x,-y,-z
6 1/2+x,y,1/2-z
7 x,1/2-y,z
8 1/2-x,1/2+y,1/2+z
_cell_length_a                   15.510(3)
_cell_length_b                   11.717(2)
_cell_length_c                   13.014(3)
_cell_angle_alpha                90
_cell_angle_beta                 90
_cell_angle_gamma                90
_cell_volume                     2365.04
_exptl_crystal_colour            colorless
_exptl_crystal_description       block
_cell_formula_units_Z            4
loop_
_atom_site_label
_atom_site_type_symbol
_atom_site_fract_x
_atom_site_fract_y
_atom_site_fract_z
Cl1 Cl 0.39923(4) 0.2500 0.29294(6)
O1 O 0.48479(14) 0.2500 0.33632(19)
O2 O 0.38749(12) 0.35036(16) 0.23197(15)
O3 O 0.33818(15) 0.2500 0.37618(19)
O2F O 0.38749(12) 0.14964(16) 0.23197(15)
O4 O 0.39105(9) 0.46137(11) 0.71904(11)
O5 O 0.45688(13) 0.2500 0.65171(14)
O6 O 0.29941(9) 0.45207(12) 0.90648(11)
O7 O 0.21558(14) 0.2500 0.97086(15)
C1 C 0.39753(15) 0.54759(18) 0.79645(17)
H1 H 0.4433 0.5283 0.8442
H2 H 0.4114 0.6203 0.7649
C2 C 0.46909(14) 0.45010(18) 0.66202(17)
H3 H 0.4795 0.5190 0.6227
H4 H 0.5171 0.4392 0.7087
C3 C 0.46218(15) 0.35061(18) 0.59148(15)
H5 H 0.5123 0.3472 0.5470
H6 H 0.4112 0.3579 0.5488
C4 C 0.31436(15) 0.55658(18) 0.85247(18)
H7 H 0.2678 0.5705 0.8043
H8 H 0.3165 0.6197 0.9006
C5 C 0.22117(15) 0.4536(2) 0.9626(2)
H9 H 0.2175 0.5228 1.0032
H10 H 0.1726 0.4518 0.9158
C6 C 0.21869(16) 0.3514(2) 1.03166(17)
H11 H 0.1683 0.3552 1.0757
H12 H 0.2696 0.3503 1.0750
O4F O 0.39105(9) 0.03863(11) 0.71904(11)
O6F O 0.29941(9) 0.04793(12) 0.90648(11)
C1F C 0.39753(15) -0.04759(18) 0.79645(17)
H1F H 0.4433 -0.0283 0.8442
H2F H 0.4114 -0.1203 0.7649
C2F C 0.46909(14) 0.04990(18) 0.66202(17)
H3F H 0.4795 -0.0190 0.6227
H4F H 0.5171 0.0608 0.7087
C3F C 0.46218(15) 0.14939(18) 0.59148(15)
H5F H 0.5123 0.1528 0.5470
H6F H 0.4112 0.1421 0.5488
C4F C 0.31436(15) -0.05658(18) 0.85247(18)
H7F H 0.2678 -0.0705 0.8043
H8F H 0.3165 -0.1197 0.9006
C5F C 0.22117(15) 0.0464(2) 0.9626(2)
H9F H 0.2175 -0.0228 1.0032
H10F H 0.1726 0.0482 0.9158
C6F C 0.21869(16) 0.1486(2) 1.03166(17)
H11F H 0.1683 0.1448 1.0757
H12F H 0.2696 0.1497 1.0750
N1 N 0.29743(14) 0.2500 0.77156(16)
C7 C 0.22121(16) 0.2500 0.70472(18)
C8 C 0.18536(14) 0.35158(18) 0.67484(15)
H13 H 0.2097 0.4203 0.6956
C9 C 0.07397(19) 0.2500 0.5819(2)
C10 C 0.11245(14) 0.3509(2) 0.61334(16)
H14 H 0.0887 0.4201 0.5926
C11 C -0.0071(2) 0.2500 0.5175(3)
C8F C 0.18536(14) 0.14842(18) 0.67484(15)
H13F H 0.2097 0.0797 0.6956
C10F C 0.11245(14) 0.1491(2) 0.61334(16)
H14F H 0.0887 0.0799 0.5926
H15? H 0.2845 0.2166 0.8310
H16? H 0.3141 0.3216 0.7830
H17? H 0.3400 0.2118 0.7412
H18? H -0.0486 0.1992 0.5474
H19? H 0.0064 0.2250 0.4491
H20? H -0.0305 0.3258 0.5150
loop_
_geom_bond_atom_site_label_1
_geom_bond_atom_site_label_2
_geom_bond_site_symmetry_1
_geom_bond_site_symmetry_2
Cl1 O1 1_555 1_555
O2 Cl1 1_555 1_555
O3 Cl1 1_555 1_555
O4 C1 1_555 1_555
O5 C3 1_555 1_555
O6 C4 1_555 1_555
O7 C6 1_555 1_555
C1 H1 1_555 1_555
H2 C1 1_555 1_555
C2 O4 1_555 1_555
H3 C2 1_555 1_555
H4 C2 1_555 1_555
C3 C2 1_555 1_555
H5 C3 1_555 1_555
H6 C3 1_555 1_555
C4 C1 1_555 1_555
H7 C4 1_555 1_555
H8 C4 1_555 1_555
C5 O6 1_555 1_555
H9 C5 1_555 1_555
H10 C5 1_555 1_555
C6 C5 1_555 1_555
H11 C6 1_555 1_555
H12 C6 1_555 1_555
N1 C7 1_555 1_555
C7 C8 1_555 1_555
C8 H13 1_555 1_555
C9 C10 1_555 1_555
C10 C8 1_555 1_555
H14 C10 1_555 1_555
C11 C9 1_555 1_555
O2F Cl1 1_555 1_555
O4F C1F 1_555 1_555
O6F C4F 1_555 1_555
C1F H1F 1_555 1_555
H2F C1F 1_555 1_555
C2F O4F 1_555 1_555
H3F C2F 1_555 1_555
H4F C2F 1_555 1_555
C3F O5 1_555 1_555
H5F C3F 1_555 1_555
H6F C3F 1_555 1_555
C4F C1F 1_555 1_555
H7F C4F 1_555 1_555
H8F C4F 1_555 1_555
C5F O6F 1_555 1_555
H9F C5F 1_555 1_555
H10F C5F 1_555 1_555
C6F O7 1_555 1_555
H11F C6F 1_555 1_555
H12F C6F 1_555 1_555
C8F C7 1_555 1_555
H13F C8F 1_555 1_555
C10F C9 1_555 1_555
H14F C10F 1_555 1_555
C2F C3F 1_555 1_555
C5F C6F 1_555 1_555
C8F C10F 1_555 1_555

#END
