
#######################################################################
#
#                 Cambridge Crystallographic Data Centre
#                                CCDC 
#
#######################################################################
#
# If this CIF has been generated from an entry in the Cambridge 
# Structural Database, then it will include bibliographic, chemical, 
# crystal, experimental, refinement or atomic coordinate data resulting 
# from the CCDC's data processing and validation procedures.
#
#######################################################################

data_SAGWUU
_chemical_name_common            'PDB Chemical Component code: 0TU'
_chemical_formula_moiety         'C9 H6 Cl1 N1 O1'
_chemical_name_systematic        6-Chloroquinolin-2(1H)-one
_symmetry_cell_setting           orthorhombic
_symmetry_space_group_name_H-M   'P c c n'
_symmetry_Int_Tables_number      56
_space_group_name_Hall           '-P 2ab 2ac'
loop_
_symmetry_equiv_pos_site_id
_symmetry_equiv_pos_as_xyz
1 x,y,z
2 1/2-x,1/2-y,z
3 -x,1/2+y,1/2-z
4 1/2+x,-y,1/2-z
5 -x,-y,-z
6 1/2+x,1/2+y,-z
7 x,1/2-y,1/2+z
8 1/2-x,y,1/2+z
_cell_length_a                   24.951(19)
_cell_length_b                   7.733(6)
_cell_length_c                   7.988(6)
_cell_angle_alpha                90
_cell_angle_beta                 90
_cell_angle_gamma                90
_cell_volume                     1541.25
_exptl_crystal_colour            pink
_exptl_crystal_description       prism
_cell_formula_units_Z            8
loop_
_atom_site_label
_atom_site_type_symbol
_atom_site_fract_x
_atom_site_fract_y
_atom_site_fract_z
Cl1 Cl 0.73621(2) 1.01875(7) 0.69204(7)
N1 N 0.54956(5) 0.88864(17) 1.12378(17)
O1 O 0.49027(5) 0.70991(15) 1.25021(16)
C1 C 0.53024(6) 0.7277(2) 1.1598(2)
C2 C 0.59440(6) 0.9205(2) 1.02710(19)
C3 C 0.55943(7) 0.5842(2) 1.0882(2)
H1 H 0.5477 0.4719 1.1079
C4 C 0.62280(6) 0.7806(2) 0.95924(19)
C5 C 0.66766(7) 0.8129(2) 0.8591(2)
H2 H 0.6871 0.7214 0.8140
C6 C 0.65567(7) 1.1184(2) 0.8970(2)
H3 H 0.6671 1.2308 0.8759
C7 C 0.68283(7) 0.9794(2) 0.8280(2)
C8 C 0.60308(7) 0.6101(2) 0.9940(2)
H4 H 0.6211 0.5151 0.9500
C9 C 0.61155(7) 1.0894(2) 0.9970(2)
H5 H 0.5933 1.1821 1.0443
H6 H 0.5337(8) 0.980(2) 1.170(2)
loop_
_geom_bond_atom_site_label_1
_geom_bond_atom_site_label_2
_geom_bond_site_symmetry_1
_geom_bond_site_symmetry_2
Cl1 C7 1_555 1_555
N1 C1 1_555 1_555
O1 C1 1_555 1_555
C1 C3 1_555 1_555
C2 N1 1_555 1_555
C3 H1 1_555 1_555
C4 C2 1_555 1_555
C5 C4 1_555 1_555
H2 C5 1_555 1_555
C6 H3 1_555 1_555
C7 C5 1_555 1_555
C8 C3 1_555 1_555
H4 C8 1_555 1_555
C9 C2 1_555 1_555
H5 C9 1_555 1_555
H6 N1 1_555 1_555
C4 C8 1_555 1_555
C6 C7 1_555 1_555
C6 C9 1_555 1_555

#END
