
#######################################################################
#
#                 Cambridge Crystallographic Data Centre
#                                CCDC 
#
#######################################################################
#
# If this CIF has been generated from an entry in the Cambridge 
# Structural Database, then it will include bibliographic, chemical, 
# crystal, experimental, refinement or atomic coordinate data resulting 
# from the CCDC's data processing and validation procedures.
#
#######################################################################

data_SAGXAB
_chemical_formula_moiety         'C14 H10 Cl2 I1 N1 O3 S1'
_chemical_name_systematic        
2-Chloro-N-(4-chloro-3-iodophenyl)-4-(methylsulfonyl)benzamide
_symmetry_cell_setting           triclinic
_symmetry_space_group_name_H-M   'P -1'
_symmetry_Int_Tables_number      2
_space_group_name_Hall           '-P 1'
loop_
_symmetry_equiv_pos_site_id
_symmetry_equiv_pos_as_xyz
1 x,y,z
2 -x,-y,-z
_cell_length_a                   8.8694(6)
_cell_length_b                   10.3837(8)
_cell_length_c                   10.4288(5)
_cell_angle_alpha                103.862(5)
_cell_angle_beta                 96.452(5)
_cell_angle_gamma                114.949(7)
_cell_volume                     820.246
_exptl_crystal_colour            colorless
_exptl_crystal_description       block
_cell_formula_units_Z            2
_exptl_crystal_recrystallization_method 'methanol/acetic acid'
loop_
_atom_site_label
_atom_site_type_symbol
_atom_site_fract_x
_atom_site_fract_y
_atom_site_fract_z
I1 I 0.61447(3) 0.68561(3) 0.77089(2)
Cl1 Cl 0.29725(14) 0.32782(12) 0.59427(9)
Cl2 Cl 0.29306(15) 0.99624(11) 1.34350(10)
S1 S 0.11153(10) 0.80692(9) 1.76536(8)
O1 O 0.4697(3) 0.8156(3) 1.2278(2)
O2 O 0.0367(3) 0.6656(3) 1.7893(2)
O3 O 0.0121(4) 0.8840(4) 1.7587(3)
N1 N 0.2439(3) 0.5816(3) 1.1495(2)
H1 H 0.1576 0.5214 1.1721
C1 C 0.4083(4) 0.5502(4) 0.8367(3)
C2 C 0.2898(4) 0.4068(4) 0.7585(3)
C3 C 0.1603(4) 0.3219(4) 0.8106(3)
H2 H 0.0821 0.2240 0.7588
C4 C 0.1467(4) 0.3817(4) 0.9391(3)
H3 H 0.0578 0.3246 0.9729
C5 C 0.2643(4) 0.5261(3) 1.0182(3)
C6 C 0.3978(4) 0.6101(3) 0.9675(3)
H4 H 0.4798 0.7061 1.0210
C7 C 0.3431(4) 0.7173(4) 1.2433(3)
C8 C 0.2843(4) 0.7407(3) 1.3728(3)
C9 C 0.2612(4) 0.8646(3) 1.4266(3)
C10 C 0.2081(4) 0.8860(3) 1.5459(3)
H5 H 0.1917 0.9691 1.5806
C11 C 0.1800(3) 0.7808(3) 1.6127(3)
C12 C 0.2046(4) 0.6571(3) 1.5633(3)
H6 H 0.1865 0.5880 1.6099
C13 C 0.2566(4) 0.6382(4) 1.4433(3)
H7 H 0.2734 0.5553 1.4090
C14 C 0.3027(5) 0.9225(5) 1.8925(3)
H8 H 0.2762 0.9474 1.9789
H9 H 0.3667 1.0126 1.8717
H10 H 0.3697 0.8705 1.8963
loop_
_geom_bond_atom_site_label_1
_geom_bond_atom_site_label_2
_geom_bond_site_symmetry_1
_geom_bond_site_symmetry_2
I1 C1 1_555 1_555
Cl1 C2 1_555 1_555
Cl2 C9 1_555 1_555
S1 O2 1_555 1_555
O1 C7 1_555 1_555
O3 S1 1_555 1_555
N1 H1 1_555 1_555
C1 C2 1_555 1_555
C2 C3 1_555 1_555
C3 H2 1_555 1_555
C4 C3 1_555 1_555
H3 C4 1_555 1_555
C5 N1 1_555 1_555
C6 C1 1_555 1_555
H4 C6 1_555 1_555
C7 N1 1_555 1_555
C8 C7 1_555 1_555
C9 C8 1_555 1_555
C10 C9 1_555 1_555
H5 C10 1_555 1_555
C11 S1 1_555 1_555
C12 C11 1_555 1_555
H6 C12 1_555 1_555
C13 C8 1_555 1_555
H7 C13 1_555 1_555
C14 S1 1_555 1_555
H8 C14 1_555 1_555
H9 C14 1_555 1_555
H10 C14 1_555 1_555
C4 C5 1_555 1_555
C5 C6 1_555 1_555
C10 C11 1_555 1_555
C12 C13 1_555 1_555

#END
