
#######################################################################
#
#                 Cambridge Crystallographic Data Centre
#                                CCDC 
#
#######################################################################
#
# If this CIF has been generated from an entry in the Cambridge 
# Structural Database, then it will include bibliographic, chemical, 
# crystal, experimental, refinement or atomic coordinate data resulting 
# from the CCDC's data processing and validation procedures.
#
#######################################################################

data_SAGXOP04
_chemical_formula_moiety         'C15 H14 N4 O3'
_chemical_name_systematic        
N'',N'''-bis[(2-hydroxyphenyl)methylidene]carbonohydrazide
_symmetry_cell_setting           orthorhombic
_symmetry_space_group_name_H-M   'A b a 2'
_symmetry_Int_Tables_number      41
_space_group_name_Hall           'A 2 -2ab'
loop_
_symmetry_equiv_pos_site_id
_symmetry_equiv_pos_as_xyz
1 x,y,z
2 -x,-y,z
3 1/2+x,1/2-y,z
4 1/2-x,1/2+y,z
5 x,1/2+y,1/2+z
6 -x,1/2-y,1/2+z
7 1/2+x,-y,1/2+z
8 1/2-x,y,1/2+z
_cell_length_a                   14.5381(18)
_cell_length_b                   9.3483(11)
_cell_length_c                   10.2927(11)
_cell_angle_alpha                90
_cell_angle_beta                 90
_cell_angle_gamma                90
_cell_volume                     1398.85
_exptl_crystal_colour            colorless
_exptl_crystal_description       block
_cell_formula_units_Z            4
loop_
_atom_site_label
_atom_site_type_symbol
_atom_site_fract_x
_atom_site_fract_y
_atom_site_fract_z
C1 C 0.3756(2) 0.9814(3) 0.1835(3)
C2 C 0.3373(2) 1.1036(4) 0.2358(3)
H1 H 0.3306 1.1118 0.3253
C3 C 0.3091(3) 1.2129(4) 0.1563(4)
H2 H 0.2831 1.2946 0.1925
C4 C 0.3187(2) 1.2032(4) 0.0244(4)
H3 H 0.3004 1.2782 -0.0290
C5 C 0.3560(2) 1.0809(3) -0.0285(3)
H4 H 0.3619 1.0737 -0.1182
C6 C 0.38466(19) 0.9684(3) 0.0491(3)
C7 C 0.4230(2) 0.8417(3) -0.0094(3)
H5 H 0.4341 0.8391 -0.0984
C8 C 0.5000 0.5000 0.0798(4)
N1 N 0.44166(17) 0.7328(3) 0.0609(2)
N2 N 0.4756(2) 0.6135(3) 0.0038(3)
O1 O 0.40370(17) 0.8767(3) 0.2656(2)
O2 O 0.5000 0.5000 0.1973(3)
H6 H 0.423(3) 0.798(5) 0.216(5)
H7 H 0.493(2) 0.616(3) -0.072(4)
C1A C 0.6244(2) 0.0186(3) 0.1835(3)
C2A C 0.6627(2) -0.1036(4) 0.2358(3)
H1A H 0.6694 -0.1118 0.3253
C3A C 0.6909(3) -0.2129(4) 0.1563(4)
H2A H 0.7169 -0.2946 0.1925
C4A C 0.6813(2) -0.2032(4) 0.0244(4)
H3A H 0.6996 -0.2782 -0.0290
C5A C 0.6440(2) -0.0809(3) -0.0285(3)
H4A H 0.6381 -0.0737 -0.1182
C6A C 0.61534(19) 0.0316(3) 0.0491(3)
C7A C 0.5770(2) 0.1583(3) -0.0094(3)
H5A H 0.5659 0.1609 -0.0984
N1A N 0.55834(17) 0.2672(3) 0.0609(2)
N2A N 0.5244(2) 0.3865(3) 0.0038(3)
O1A O 0.59630(17) 0.1233(3) 0.2656(2)
H6A H 0.577(3) 0.202(5) 0.216(5)
H7A H 0.507(2) 0.384(3) -0.072(4)
loop_
_geom_bond_atom_site_label_1
_geom_bond_atom_site_label_2
_geom_bond_site_symmetry_1
_geom_bond_site_symmetry_2
C1 C2 1_555 1_555
C2 H1 1_555 1_555
C3 C2 1_555 1_555
H2 C3 1_555 1_555
C4 C3 1_555 1_555
H3 C4 1_555 1_555
C5 C4 1_555 1_555
H4 C5 1_555 1_555
C6 C1 1_555 1_555
C7 C6 1_555 1_555
H5 C7 1_555 1_555
C8 N2 1_555 1_555
N1 C7 1_555 1_555
N2 N1 1_555 1_555
O1 C1 1_555 1_555
O2 C8 1_555 1_555
H6 O1 1_555 1_555
H7 N2 1_555 1_555
C1A C2A 1_555 1_555
C2A H1A 1_555 1_555
C3A C2A 1_555 1_555
H2A C3A 1_555 1_555
C4A C3A 1_555 1_555
H3A C4A 1_555 1_555
C5A C4A 1_555 1_555
H4A C5A 1_555 1_555
C6A C1A 1_555 1_555
C7A C6A 1_555 1_555
H5A C7A 1_555 1_555
N1A C7A 1_555 1_555
N2A C8 1_555 1_555
O1A C1A 1_555 1_555
H6A O1A 1_555 1_555
H7A N2A 1_555 1_555
C5 C6 1_555 1_555
C5A C6A 1_555 1_555
N1A N2A 1_555 1_555

#END
