
#######################################################################
#
#                 Cambridge Crystallographic Data Centre
#                                CCDC 
#
#######################################################################
#
# If this CIF has been generated from an entry in the Cambridge 
# Structural Database, then it will include bibliographic, chemical, 
# crystal, experimental, refinement or atomic coordinate data resulting 
# from the CCDC's data processing and validation procedures.
#
#######################################################################

data_SAGYOR
_chemical_formula_moiety         'C19 H15 N3 O3'
_chemical_name_systematic        
'ethyl 5-benzoyl-3-phenyl-1,2,4-triazine-6-carboxylate'
_symmetry_cell_setting           monoclinic
_symmetry_space_group_name_H-M   'P 21/c'
_symmetry_Int_Tables_number      14
_space_group_name_Hall           '-P 2ybc'
loop_
_symmetry_equiv_pos_site_id
_symmetry_equiv_pos_as_xyz
1 x,y,z
2 -x,1/2+y,1/2-z
3 -x,-y,-z
4 x,1/2-y,1/2+z
_cell_length_a                   7.8797(11)
_cell_length_b                   10.6151(16)
_cell_length_c                   19.258(3)
_cell_angle_alpha                90
_cell_angle_beta                 96.963(3)
_cell_angle_gamma                90
_cell_volume                     1598.93
_exptl_crystal_colour            'light yellow'
_exptl_crystal_description       block
_chemical_melting_point          '119-121 deg.C'
_cell_formula_units_Z            4
_chemical_properties_physical    base-sensitive
loop_
_atom_site_label
_atom_site_type_symbol
_atom_site_fract_x
_atom_site_fract_y
_atom_site_fract_z
O1 O 0.2196(2) 1.03944(15) 0.47371(8)
O2 O 0.24286(18) 0.86354(14) 0.41001(8)
O3 O 0.3990(2) 0.80903(15) 0.27345(8)
N1 N 0.6821(2) 0.97557(16) 0.33963(9)
N2 N 0.6606(2) 1.16518(16) 0.40397(9)
N3 N 0.5164(2) 1.12550(16) 0.42609(9)
C1 C 0.7388(2) 1.09007(18) 0.36152(10)
C2 C 0.5381(2) 0.93689(18) 0.36169(10)
C3 C 0.4532(2) 1.01351(18) 0.40582(10)
C4 C 0.2912(3) 0.97684(19) 0.43432(10)
C5 C 0.0882(3) 0.8093(2) 0.43200(12)
H1 H -0.0116 0.8644 0.4182
H2 H 0.1008 0.7974 0.4834
C6 C 0.0671(4) 0.6848(3) 0.39498(16)
H3 H -0.0356 0.6426 0.4075
H4 H 0.0557 0.6986 0.3443
H5 H 0.1675 0.6320 0.4090
C7 C 0.4790(2) 0.80968(18) 0.33130(10)
C8 C 0.5373(3) 0.69553(18) 0.37056(10)
C9 C 0.5075(3) 0.5783(2) 0.33848(12)
H6 H 0.4482 0.5728 0.2926
C10 C 0.5651(3) 0.4701(2) 0.37394(13)
H7 H 0.5461 0.3902 0.3522
C11 C 0.6502(3) 0.4780(2) 0.44103(13)
H8 H 0.6890 0.4034 0.4651
C12 C 0.6790(3) 0.5941(2) 0.47327(12)
H9 H 0.7368 0.5990 0.5194
C13 C 0.6234(3) 0.70321(19) 0.43793(11)
H10 H 0.6439 0.7830 0.4597
C14 C 0.8995(3) 1.13530(19) 0.33785(10)
C15 C 0.9934(3) 1.0547(2) 0.29986(11)
H11 H 0.9531 0.9718 0.2891
C16 C 1.1457(3) 1.0953(2) 0.27770(12)
H12 H 1.2096 1.0403 0.2519
C17 C 1.2039(3) 1.2166(2) 0.29356(12)
H13 H 1.3079 1.2447 0.2785
C18 C 1.1109(3) 1.2966(2) 0.33111(13)
H14 H 1.1514 1.3796 0.3416
C19 C 0.9590(3) 1.2569(2) 0.35361(12)
H15 H 0.8960 1.3122 0.3796
loop_
_geom_bond_atom_site_label_1
_geom_bond_atom_site_label_2
_geom_bond_site_symmetry_1
_geom_bond_site_symmetry_2
O1 C4 1_555 1_555
O2 C4 1_555 1_555
O3 C7 1_555 1_555
N1 C1 1_555 1_555
N2 N3 1_555 1_555
N3 C3 1_555 1_555
C1 N2 1_555 1_555
C2 N1 1_555 1_555
C3 C2 1_555 1_555
C4 C3 1_555 1_555
C5 O2 1_555 1_555
H1 C5 1_555 1_555
H2 C5 1_555 1_555
C6 C5 1_555 1_555
H3 C6 1_555 1_555
H4 C6 1_555 1_555
H5 C6 1_555 1_555
C7 C2 1_555 1_555
C8 C7 1_555 1_555
C9 C8 1_555 1_555
H6 C9 1_555 1_555
C10 C9 1_555 1_555
H7 C10 1_555 1_555
C11 C10 1_555 1_555
H8 C11 1_555 1_555
C12 C11 1_555 1_555
H9 C12 1_555 1_555
C13 C8 1_555 1_555
H10 C13 1_555 1_555
C14 C1 1_555 1_555
C15 C14 1_555 1_555
H11 C15 1_555 1_555
C16 C15 1_555 1_555
H12 C16 1_555 1_555
C17 C16 1_555 1_555
H13 C17 1_555 1_555
C18 C17 1_555 1_555
H14 C18 1_555 1_555
C19 C14 1_555 1_555
H15 C19 1_555 1_555
C12 C13 1_555 1_555
C18 C19 1_555 1_555

#END
