
#######################################################################
#
#                 Cambridge Crystallographic Data Centre
#                                CCDC 
#
#######################################################################
#
# If this CIF has been generated from an entry in the Cambridge 
# Structural Database, then it will include bibliographic, chemical, 
# crystal, experimental, refinement or atomic coordinate data resulting 
# from the CCDC's data processing and validation procedures.
#
#######################################################################

data_SAGYIL
_chemical_formula_moiety         'C29 H26 N1 O3 1+,F6 P1 1-,C1 H1 Cl3'
_chemical_name_systematic        
'9-methoxy-5,6-bis(4-methoxyphenyl)-2-methylbenzo[h]isoquinolinium hexafluorophosphate chloroform solvate'
_symmetry_cell_setting           triclinic
_symmetry_space_group_name_H-M   'P -1'
_symmetry_Int_Tables_number      2
_space_group_name_Hall           '-P 1'
loop_
_symmetry_equiv_pos_site_id
_symmetry_equiv_pos_as_xyz
1 x,y,z
2 -x,-y,-z
_cell_length_a                   9.1851(2)
_cell_length_b                   17.2804(5)
_cell_length_c                   20.4708(6)
_cell_angle_alpha                92.386(2)
_cell_angle_beta                 101.894(2)
_cell_angle_gamma                102.675(2)
_cell_volume                     3089.07
_exptl_crystal_colour            yellow
_cell_formula_units_Z            4
loop_
_atom_site_label
_atom_site_type_symbol
_atom_site_fract_x
_atom_site_fract_y
_atom_site_fract_z
O1 O 1.2387(3) 0.02155(14) 0.08245(11)
O2 O 0.9533(2) 0.45706(12) -0.16751(10)
O3 O 0.3626(2) 0.45290(12) 0.04189(11)
N1 N 0.7712(3) 0.12481(13) 0.24053(11)
C1 C 0.7870(4) 0.09164(18) 0.30653(14)
H1 H 0.7037 0.0445 0.3043
H2 H 0.7822 0.1318 0.3408
H3 H 0.8855 0.0767 0.3182
C2 C 0.8670(3) 0.11612(15) 0.20106(13)
H4 H 0.9420 0.0866 0.2152
C3 C 0.8600(3) 0.14916(15) 0.13982(13)
C4 C 0.9619(3) 0.13841(15) 0.09666(13)
C5 C 1.0565(3) 0.08470(17) 0.10843(14)
H5 H 1.0555 0.0545 0.1461
C6 C 1.1512(3) 0.07521(17) 0.06583(15)
C7 C 1.1512(3) 0.11793(16) 0.00891(14)
H6 H 1.2139 0.1101 -0.0211
C8 C 1.0592(3) 0.17118(15) -0.00285(13)
H7 H 1.0609 0.2006 -0.0410
C9 C 0.9627(3) 0.18328(15) 0.03997(13)
C10 C 0.8651(3) 0.23877(14) 0.02728(12)
C11 C 0.7591(3) 0.24302(14) 0.06482(13)
C12 C 0.7526(3) 0.19653(15) 0.12121(13)
C13 C 0.6487(3) 0.20023(16) 0.16286(14)
H8 H 0.5710 0.2285 0.1502
C14 C 0.6582(3) 0.16387(16) 0.22078(14)
H9 H 0.5858 0.1658 0.2475
C15 C 1.3415(4) 0.0099(2) 0.04092(16)
H10 H 1.2827 -0.0115 -0.0042
H11 H 1.4005 -0.0278 0.0601
H12 H 1.4114 0.0609 0.0385
C16 C 0.8846(3) 0.29391(15) -0.02607(13)
C17 C 0.7783(3) 0.28429(15) -0.08666(13)
H13 H 0.6905 0.2412 -0.0948
C18 C 0.7983(3) 0.33656(16) -0.13551(13)
H14 H 0.7258 0.3284 -0.1771
C19 C 0.9247(3) 0.40097(15) -0.12360(13)
C20 C 1.0312(3) 0.41187(16) -0.06261(14)
H15 H 1.1172 0.4560 -0.0538
C21 C 1.0114(3) 0.35833(16) -0.01502(13)
H16 H 1.0855 0.3655 0.0260
C22 C 0.8504(4) 0.44510(19) -0.23163(15)
H17 H 0.8858 0.4870 -0.2594
H18 H 0.7479 0.4471 -0.2260
H19 H 0.8470 0.3930 -0.2535
C23 C 0.6590(3) 0.30094(15) 0.05455(13)
C24 C 0.5093(3) 0.27880(16) 0.01637(14)
H20 H 0.4726 0.2274 -0.0073
C25 C 0.4143(3) 0.33106(17) 0.01268(15)
H21 H 0.3132 0.3159 -0.0141
C26 C 0.4666(3) 0.40639(16) 0.04835(14)
C27 C 0.6162(3) 0.42996(16) 0.08567(13)
H22 H 0.6529 0.4814 0.1093
C28 C 0.7111(3) 0.37715(15) 0.08792(13)
H23 H 0.8139 0.3933 0.1128
C29 C 0.3998(4) 0.52344(19) 0.08703(17)
H24 H 0.3141 0.5497 0.0794
H25 H 0.4914 0.5598 0.0792
H26 H 0.4193 0.5092 0.1333
O4 O -0.2472(3) 0.96456(14) 0.41318(11)
O5 O 0.0966(2) 0.55988(12) 0.68311(10)
O6 O 0.6697(2) 0.55473(11) 0.46975(10)
N2 N 0.2188(3) 0.86405(13) 0.25327(11)
C30 C 0.2053(4) 0.90126(18) 0.18889(14)
H27 H 0.1012 0.9087 0.1742
H28 H 0.2273 0.8666 0.1549
H29 H 0.2785 0.9531 0.1951
C31 C 0.1236(3) 0.87167(15) 0.29302(13)
H30 H 0.0468 0.9002 0.2790
C32 C 0.1334(3) 0.83899(15) 0.35452(13)
C33 C 0.0356(3) 0.85133(15) 0.39957(13)
C34 C -0.0674(3) 0.90076(16) 0.38570(14)
H31 H -0.0789 0.9246 0.3445
C35 C -0.1522(3) 0.91500(16) 0.43162(14)
C36 C -0.1359(3) 0.88010(16) 0.49279(14)
H32 H -0.1917 0.8911 0.5249
C37 C -0.0385(3) 0.83006(15) 0.50559(13)
H33 H -0.0298 0.8057 0.5465
C38 C 0.0494(3) 0.81355(14) 0.46003(13)
C39 C 0.1515(3) 0.76016(14) 0.47384(12)
C40 C 0.2484(3) 0.75170(15) 0.43258(13)
C41 C 0.2436(3) 0.79300(15) 0.37299(13)
C42 C 0.3440(3) 0.78844(16) 0.32974(14)
H34 H 0.4214 0.7598 0.3415
C43 C 0.3314(3) 0.82431(16) 0.27168(14)
H35 H 0.4014 0.8217 0.2438
C44 C -0.3361(4) 0.9827(2) 0.45910(17)
H36 H -0.3985 1.0189 0.4398
H37 H -0.2676 1.0082 0.5013
H38 H -0.4030 0.9334 0.4676
C45 C 0.1426(3) 0.71139(15) 0.53186(13)
C46 C 0.0119(3) 0.64992(16) 0.52812(13)
H39 H -0.0693 0.6417 0.4895
C47 C -0.0011(3) 0.60133(16) 0.57911(14)
H40 H -0.0904 0.5599 0.5755
C48 C 0.1174(3) 0.61309(15) 0.63617(13)
C49 C 0.2468(3) 0.67469(16) 0.64155(13)
H41 H 0.3266 0.6838 0.6807
C50 C 0.2585(3) 0.72286(15) 0.58919(13)
H42 H 0.3475 0.7644 0.5928
C51 C 0.2169(4) 0.56770(19) 0.74115(14)
H43 H 0.3097 0.5604 0.7277
H44 H 0.1868 0.5273 0.7711
H45 H 0.2367 0.6209 0.7646
C52 C 0.3552(3) 0.69696(15) 0.44425(12)
C53 C 0.3139(3) 0.62095(15) 0.41040(13)
H46 H 0.2144 0.6027 0.3827
C54 C 0.4159(3) 0.57142(15) 0.41651(13)
H47 H 0.3869 0.5201 0.3926
C55 C 0.5600(3) 0.59775(15) 0.45782(13)
C56 C 0.6022(3) 0.67334(16) 0.49295(14)
H48 H 0.7005 0.6909 0.5219
C57 C 0.5009(3) 0.72243(15) 0.48554(14)
H49 H 0.5308 0.7741 0.5088
C58 C 0.6459(3) 0.48289(17) 0.42769(15)
H50 H 0.6322 0.4948 0.3807
H51 H 0.5543 0.4450 0.4338
H52 H 0.7349 0.4596 0.4397
C59 C 0.7657(4) 0.68116(18) 0.27168(16)
H53 H 0.7856 0.7400 0.2824
Cl1 Cl 0.81611(15) 0.66274(7) 0.19568(5)
Cl2 Cl 0.87667(10) 0.64159(5) 0.33630(4)
Cl3 Cl 0.57059(10) 0.63885(6) 0.26650(6)
C60 C 0.2332(4) 0.30374(19) 0.23905(17)
Cl4 Cl 0.05733(16) 0.33031(9) 0.22138(12)
Cl5 Cl 0.3542(3) 0.35483(15) 0.31250(13)
Cl6 Cl 0.3465(6) 0.3233(3) 0.1792(3)
P1 P 0.68821(8) 0.89380(5) 0.17065(4)
F1 F 0.7821(3) 0.84098(13) 0.13856(11)
F2 F 0.5949(2) 0.94676(12) 0.20324(11)
F3 F 0.5331(5) 0.8527(3) 0.1176(3)
F4 F 0.6506(5) 0.8306(2) 0.2208(2)
F5 F 0.8387(4) 0.9436(2) 0.22472(19)
F6 F 0.7221(4) 0.96158(17) 0.12015(14)
P2 P 0.30248(8) 0.09877(5) 0.33173(4)
F15 F 0.3975(2) 0.04021(13) 0.30831(11)
F16 F 0.2069(3) 0.15787(15) 0.35450(12)
F17 F 0.1834(7) 0.0685(5) 0.2639(3)
F18 F 0.2115(7) 0.0291(3) 0.3686(3)
F19 F 0.4308(7) 0.1223(3) 0.4026(3)
F20 F 0.3947(7) 0.1666(3) 0.2983(3)
Cl7? Cl 0.0720(4) 0.3413(2) 0.1973(3)
Cl8? Cl 0.0491(4) 0.3193(2) 0.2458(3)
Cl9? Cl 0.3105(9) 0.3520(4) 0.3240(4)
Cl10? Cl 0.3639(4) 0.3795(2) 0.29612(17)
Cl11? Cl 0.3008(3) 0.30770(13) 0.16426(11)
Cl12? Cl 0.4005(19) 0.3408(9) 0.2051(9)
F7? F 0.5618(13) 0.8686(7) 0.0945(6)
F8? F 0.5349(11) 0.8392(6) 0.1383(5)
F9? F 0.5772(13) 0.8064(6) 0.1868(6)
F10? F 0.6987(9) 0.8405(4) 0.2382(4)
F11? F 0.794(3) 0.8865(14) 0.2345(11)
F12? F 0.8599(11) 0.9465(6) 0.2101(5)
F13? F 0.804(2) 0.9535(12) 0.1496(11)
F14? F 0.671(2) 0.9457(11) 0.1116(9)
F21? F 0.2003(7) 0.1047(5) 0.2581(3)
F22? F 0.1503(7) 0.0423(4) 0.2737(3)
F23? F 0.1726(9) 0.0386(4) 0.3465(4)
F24? F 0.2600(10) 0.0256(4) 0.3817(4)
F25? F 0.3950(13) 0.1195(6) 0.4052(5)
F26? F 0.4490(14) 0.1365(7) 0.3787(7)
F27? F 0.4292(7) 0.1848(4) 0.3155(3)
F28? F 0.3383(9) 0.1481(4) 0.2731(4)
loop_
_geom_bond_atom_site_label_1
_geom_bond_atom_site_label_2
_geom_bond_site_symmetry_1
_geom_bond_site_symmetry_2
O1 C6 1_555 1_555
O2 C19 1_555 1_555
O3 C26 1_555 1_555
N1 C1 1_555 1_555
C1 H1 1_555 1_555
H2 C1 1_555 1_555
H3 C1 1_555 1_555
C2 N1 1_555 1_555
H4 C2 1_555 1_555
C3 C2 1_555 1_555
C4 C3 1_555 1_555
C5 C4 1_555 1_555
H5 C5 1_555 1_555
C6 C5 1_555 1_555
C7 C6 1_555 1_555
H6 C7 1_555 1_555
C8 C7 1_555 1_555
H7 C8 1_555 1_555
C9 C4 1_555 1_555
C10 C9 1_555 1_555
C11 C10 1_555 1_555
C12 C3 1_555 1_555
C13 C12 1_555 1_555
H8 C13 1_555 1_555
C14 N1 1_555 1_555
H9 C14 1_555 1_555
C15 O1 1_555 1_555
H10 C15 1_555 1_555
H11 C15 1_555 1_555
H12 C15 1_555 1_555
C16 C10 1_555 1_555
C17 C16 1_555 1_555
H13 C17 1_555 1_555
C18 C17 1_555 1_555
H14 C18 1_555 1_555
C19 C18 1_555 1_555
C20 C19 1_555 1_555
H15 C20 1_555 1_555
C21 C16 1_555 1_555
H16 C21 1_555 1_555
C22 O2 1_555 1_555
H17 C22 1_555 1_555
H18 C22 1_555 1_555
H19 C22 1_555 1_555
C23 C11 1_555 1_555
C24 C23 1_555 1_555
H20 C24 1_555 1_555
C25 C24 1_555 1_555
H21 C25 1_555 1_555
C26 C25 1_555 1_555
C27 C26 1_555 1_555
H22 C27 1_555 1_555
C28 C23 1_555 1_555
H23 C28 1_555 1_555
C29 O3 1_555 1_555
H24 C29 1_555 1_555
H25 C29 1_555 1_555
H26 C29 1_555 1_555
O4 C35 1_555 1_555
O5 C48 1_555 1_555
O6 C55 1_555 1_555
N2 C30 1_555 1_555
C30 H27 1_555 1_555
H28 C30 1_555 1_555
H29 C30 1_555 1_555
C31 N2 1_555 1_555
H30 C31 1_555 1_555
C32 C31 1_555 1_555
C33 C32 1_555 1_555
C34 C33 1_555 1_555
H31 C34 1_555 1_555
C35 C34 1_555 1_555
C36 C35 1_555 1_555
H32 C36 1_555 1_555
C37 C36 1_555 1_555
H33 C37 1_555 1_555
C38 C33 1_555 1_555
C39 C38 1_555 1_555
C40 C39 1_555 1_555
C41 C32 1_555 1_555
C42 C41 1_555 1_555
H34 C42 1_555 1_555
C43 N2 1_555 1_555
H35 C43 1_555 1_555
C44 O4 1_555 1_555
H36 C44 1_555 1_555
H37 C44 1_555 1_555
H38 C44 1_555 1_555
C45 C39 1_555 1_555
C46 C45 1_555 1_555
H39 C46 1_555 1_555
C47 C46 1_555 1_555
H40 C47 1_555 1_555
C48 C47 1_555 1_555
C49 C48 1_555 1_555
H41 C49 1_555 1_555
C50 C45 1_555 1_555
H42 C50 1_555 1_555
C51 O5 1_555 1_555
H43 C51 1_555 1_555
H44 C51 1_555 1_555
H45 C51 1_555 1_555
C52 C40 1_555 1_555
C53 C52 1_555 1_555
H46 C53 1_555 1_555
C54 C53 1_555 1_555
H47 C54 1_555 1_555
C55 C54 1_555 1_555
C56 C55 1_555 1_555
H48 C56 1_555 1_555
C57 C52 1_555 1_555
H49 C57 1_555 1_555
C58 O6 1_555 1_555
H50 C58 1_555 1_555
H51 C58 1_555 1_555
H52 C58 1_555 1_555
C59 H53 1_555 1_555
Cl1 C59 1_555 1_555
Cl2 C59 1_555 1_555
Cl3 C59 1_555 1_555
C60 Cl4 1_555 1_555
Cl5 C60 1_555 1_555
Cl6 C60 1_555 1_555
P1 F1 1_555 1_555
F2 P1 1_555 1_555
F3 P1 1_555 1_555
F4 P1 1_555 1_555
F5 P1 1_555 1_555
F6 P1 1_555 1_555
P2 F15 1_555 1_555
F16 P2 1_555 1_555
F17 P2 1_555 1_555
F18 P2 1_555 1_555
F19 P2 1_555 1_555
F20 P2 1_555 1_555
C8 C9 1_555 1_555
C11 C12 1_555 1_555
C13 C14 1_555 1_555
C20 C21 1_555 1_555
C27 C28 1_555 1_555
C37 C38 1_555 1_555
C40 C41 1_555 1_555
C42 C43 1_555 1_555
C49 C50 1_555 1_555
C56 C57 1_555 1_555

#END
