
#######################################################################
#
#                 Cambridge Crystallographic Data Centre
#                                CCDC 
#
#######################################################################
#
# If this CIF has been generated from an entry in the Cambridge 
# Structural Database, then it will include bibliographic, chemical, 
# crystal, experimental, refinement or atomic coordinate data resulting 
# from the CCDC's data processing and validation procedures.
#
#######################################################################

data_SAGYAA
_chemical_formula_moiety         'C29 H28 N2 O5 S2'
_chemical_name_systematic        
5,6,7,8-Tetrahydro-N,N'-ditosyl-4H-dibenzo(b,i)(1,5,7)oxadiazecine
_symmetry_cell_setting           monoclinic
_symmetry_space_group_name_H-M   'P 21/c'
_symmetry_Int_Tables_number      14
_space_group_name_Hall           '-P 2ybc'
loop_
_symmetry_equiv_pos_site_id
_symmetry_equiv_pos_as_xyz
1 x,y,z
2 -x,1/2+y,1/2-z
3 -x,-y,-z
4 x,1/2-y,1/2+z
_cell_length_a                   13.917(4)
_cell_length_b                   9.970(4)
_cell_length_c                   19.711(6)
_cell_angle_alpha                90
_cell_angle_beta                 101.15(2)
_cell_angle_gamma                90
_cell_volume                     2683.33
_exptl_crystal_colour            colorless
_cell_formula_units_Z            4
loop_
_atom_site_label
_atom_site_type_symbol
_atom_site_fract_x
_atom_site_fract_y
_atom_site_fract_z
S1 S 0.75469(5) 0.04687(8) 0.88691(4)
S2 S 0.78723(6) -0.00454(9) 0.66713(4)
O1 O 0.7025(2) 0.0355(2) 0.9426(1)
O2 O 0.8320(1) -0.0462(2) 0.8838(1)
O3 O 0.8550(2) 0.0486(3) 0.7245(1)
O4 O 0.7667(2) 0.0670(2) 0.6030(1)
O5 O 0.4605(1) -0.0802(2) 0.7204(1)
N1 N 0.6772(2) 0.0351(2) 0.8131(1)
N2 N 0.6825(2) -0.0213(2) 0.6928(1)
C1 C 0.8017(2) 0.2116(3) 0.8911(1)
C2 C 0.8608(2) 0.2521(3) 0.8462(2)
C3 C 0.9024(3) 0.3778(4) 0.8533(2)
C4 C 0.8865(2) 0.4655(3) 0.9038(2)
C5 C 0.8278(3) 0.4233(4) 0.9479(2)
C6 C 0.7849(3) 0.2969(4) 0.9424(2)
C7 C 0.9330(3) 0.6041(4) 0.9107(2)
C8 C 0.6863(2) -0.0713(3) 0.7640(1)
C9 C 0.8277(2) -0.1656(3) 0.6508(1)
C10 C 0.8068(2) -0.2184(3) 0.5850(2)
C11 C 0.8387(3) -0.3464(4) 0.5738(2)
C12 C 0.8904(2) -0.4234(4) 0.6265(3)
C13 C 0.9106(3) -0.3690(5) 0.6922(2)
C14 C 0.8799(2) -0.2415(4) 0.7049(2)
C15 C 0.9238(3) -0.5648(5) 0.6122(4)
C16 C 0.5853(2) 0.1107(3) 0.8064(1)
C17 C 0.4999(2) 0.0392(3) 0.8287(1)
C18 C 0.4776(2) 0.0621(3) 0.8939(1)
C19 C 0.4009(2) -0.0016(4) 0.9151(2)
C20 C 0.3429(2) -0.0908(4) 0.8709(2)
C21 C 0.3615(2) -0.1150(3) 0.8052(2)
C22 C 0.4396(2) -0.0492(3) 0.7852(2)
C23 C 0.4446(2) 0.0172(3) 0.6696(1)
C24 C 0.3640(2) 0.1009(3) 0.6601(2)
C25 C 0.3521(3) 0.1944(4) 0.6075(2)
C26 C 0.4197(3) 0.2033(4) 0.5646(2)
C27 C 0.4996(3) 0.1185(4) 0.5735(2)
C28 C 0.5127(2) 0.0214(3) 0.6265(1)
C29 C 0.5996(2) -0.0708(3) 0.6379(1)
H1 H 0.8744 0.1856 0.8059
H2 H 0.9487 0.4084 0.8179
H3 H 0.8139 0.4905 0.9879
H4 H 0.7396 0.2658 0.9782
H5 H 0.9872 0.6177 0.8788
H6 H 0.9679 0.6107 0.9645
H7 H 0.8779 0.6813 0.8989
H8 H 0.7554 -0.1217 0.7811
H9 H 0.6271 -0.1416 0.7633
H10 H 0.7662 -0.1605 0.5427
H11 H 0.8225 -0.3873 0.5221
H12 H 0.9514 -0.4272 0.7344
H13 H 0.8963 -0.2008 0.7566
H14 H 0.9541 -0.5992 0.6639
H15 H 0.9805 -0.5637 0.5818
H16 H 0.8658 -0.6317 0.5886
H17 H 0.6004 0.2005 0.8372
H18 H 0.5625 0.1377 0.7526
H19 H 0.5218 0.1317 0.9286
H20 H 0.3856 0.0178 0.9658
H21 H 0.2832 -0.1419 0.8878
H22 H 0.3162 -0.1835 0.7705
H23 H 0.3107 0.0931 0.6931
H24 H 0.2900 0.2616 0.6001
H25 H 0.4096 0.2769 0.5237
H26 H 0.5523 0.1267 0.5400
H27 H 0.6256 -0.0804 0.5900
H28 H 0.5768 -0.1679 0.6533
loop_
_geom_bond_atom_site_label_1
_geom_bond_atom_site_label_2
_geom_bond_site_symmetry_1
_geom_bond_site_symmetry_2
S1 O1 1_555 1_555
S2 O3 1_555 1_555
O2 S1 1_555 1_555
O4 S2 1_555 1_555
O5 C22 1_555 1_555
N1 S1 1_555 1_555
N2 S2 1_555 1_555
C1 S1 1_555 1_555
C2 C1 1_555 1_555
C3 C2 1_555 1_555
C4 C3 1_555 1_555
C5 C4 1_555 1_555
C6 C1 1_555 1_555
C7 C4 1_555 1_555
C8 N1 1_555 1_555
C9 S2 1_555 1_555
C10 C9 1_555 1_555
C11 C10 1_555 1_555
C12 C11 1_555 1_555
C13 C12 1_555 1_555
C14 C9 1_555 1_555
C15 C12 1_555 1_555
C16 N1 1_555 1_555
C17 C16 1_555 1_555
C18 C17 1_555 1_555
C19 C18 1_555 1_555
C20 C19 1_555 1_555
C21 C20 1_555 1_555
C22 C17 1_555 1_555
C23 O5 1_555 1_555
C24 C23 1_555 1_555
C25 C24 1_555 1_555
C26 C25 1_555 1_555
C27 C26 1_555 1_555
C28 C23 1_555 1_555
C29 N2 1_555 1_555
H1 C2 1_555 1_555
H2 C3 1_555 1_555
H3 C5 1_555 1_555
H4 C6 1_555 1_555
H5 C7 1_555 1_555
H6 C7 1_555 1_555
H7 C7 1_555 1_555
H8 C8 1_555 1_555
H9 C8 1_555 1_555
H10 C10 1_555 1_555
H11 C11 1_555 1_555
H12 C13 1_555 1_555
H13 C14 1_555 1_555
H14 C15 1_555 1_555
H15 C15 1_555 1_555
H16 C15 1_555 1_555
H17 C16 1_555 1_555
H18 C16 1_555 1_555
H19 C18 1_555 1_555
H20 C19 1_555 1_555
H21 C20 1_555 1_555
H22 C21 1_555 1_555
H23 C24 1_555 1_555
H24 C25 1_555 1_555
H25 C26 1_555 1_555
H26 C27 1_555 1_555
H27 C29 1_555 1_555
H28 C29 1_555 1_555
N2 C8 1_555 1_555
C5 C6 1_555 1_555
C13 C14 1_555 1_555
C21 C22 1_555 1_555
C27 C28 1_555 1_555
C28 C29 1_555 1_555

#END
