
#######################################################################
#
#                 Cambridge Crystallographic Data Centre
#                                CCDC 
#
#######################################################################
#
# If this CIF has been generated from an entry in the Cambridge 
# Structural Database, then it will include bibliographic, chemical, 
# crystal, experimental, refinement or atomic coordinate data resulting 
# from the CCDC's data processing and validation procedures.
#
#######################################################################

data_SAGZUY
_chemical_formula_moiety         'C19 H30 N2 O5'
_chemical_name_systematic        
't-butyl 2-[2-(4-t-butoxyphenyl)-3-methoxy-3-oxopropyl]hydrazine-1-carboxylate'
_symmetry_cell_setting           orthorhombic
_symmetry_space_group_name_H-M   'P 21 21 21'
_symmetry_Int_Tables_number      19
_space_group_name_Hall           'P 2ac 2ab'
loop_
_symmetry_equiv_pos_site_id
_symmetry_equiv_pos_as_xyz
1 x,y,z
2 1/2-x,-y,1/2+z
3 1/2+x,1/2-y,-z
4 -x,1/2+y,1/2-z
_cell_length_a                   6.0244(4)
_cell_length_b                   16.4432(10)
_cell_length_c                   20.5214(13)
_cell_angle_alpha                90
_cell_angle_beta                 90
_cell_angle_gamma                90
_cell_volume                     2032.86
_exptl_crystal_colour            colorless
_exptl_crystal_description       plate
_cell_formula_units_Z            4
loop_
_atom_site_label
_atom_site_type_symbol
_atom_site_fract_x
_atom_site_fract_y
_atom_site_fract_z
C1 C -0.1219(13) 0.0597(4) -0.1823(3)
H1 H -0.0013 0.0903 -0.2030
H2 H -0.1833 0.0206 -0.2135
H3 H -0.0641 0.0306 -0.1442
C2 C -0.4913(12) 0.0724(4) -0.1283(4)
H4 H -0.4317 0.0361 -0.0947
H5 H -0.5716 0.0403 -0.1609
H6 H -0.5930 0.1116 -0.1082
C3 C -0.3882(14) 0.1683(5) -0.2172(3)
H7 H -0.5129 0.2017 -0.2022
H8 H -0.4383 0.1322 -0.2522
H9 H -0.2695 0.2036 -0.2334
C4 C -0.3016(13) 0.1177(4) -0.1610(3)
O1 O -0.2184(8) 0.1710(3) -0.1086(2)
C5 C -0.0309(12) 0.2134(4) -0.1173(3)
O2 O 0.0658(9) 0.2257(3) -0.1688(2)
N1 N 0.0538(12) 0.2383(4) -0.0591(3)
H10 H -0.050(11) 0.238(5) -0.027(3)
N2 N 0.2522(10) 0.2843(3) -0.0572(3)
H11 H 0.331(12) 0.272(5) -0.093(3)
C6 C 0.2052(12) 0.3714(4) -0.0549(3)
H12 H 0.1334 0.3853 -0.0129
H13 H 0.1026 0.3863 -0.0906
C7 C 0.4234(12) 0.4184(3) -0.0619(3)
H14 H 0.5427 0.3860 -0.0401
C8 C 0.4888(12) 0.4292(4) -0.1331(3)
O3 O 0.3611(9) 0.4403(4) -0.1771(2)
O4 O 0.7055(8) 0.4266(3) -0.1410(2)
C9 C 0.7857(14) 0.4404(6) -0.2068(4)
H15 H 0.7328 0.3968 -0.2354
H16 H 0.9484 0.4411 -0.2068
H17 H 0.7301 0.4928 -0.2227
C10 C 0.4152(11) 0.5017(3) -0.0293(3)
C11 C 0.2360(12) 0.5527(4) -0.0363(3)
H18 H 0.1149 0.5362 -0.0628
C12 C 0.2273(12) 0.6277(4) -0.0055(3)
H19 H 0.1025 0.6622 -0.0113
C13 C 0.4023(12) 0.6519(3) 0.0339(3)
C14 C 0.5865(13) 0.6022(4) 0.0395(3)
H20 H 0.7096 0.6196 0.0649
C15 C 0.5935(12) 0.5267(4) 0.0083(3)
H21 H 0.7200 0.4927 0.0129
O5 O 0.4017(9) 0.7283(2) 0.0620(2)
C16 C 0.3101(11) 0.7377(4) 0.1281(3)
C17 C 0.0664(12) 0.7139(4) 0.1288(3)
H22 H -0.0151 0.7473 0.0974
H23 H 0.0055 0.7226 0.1726
H24 H 0.0517 0.6564 0.1171
C18 C 0.4422(14) 0.6863(4) 0.1754(3)
H25 H 0.4231 0.6287 0.1646
H26 H 0.3894 0.6963 0.2198
H27 H 0.5997 0.7007 0.1723
C19 C 0.3427(14) 0.8276(4) 0.1422(3)
H28 H 0.5004 0.8413 0.1381
H29 H 0.2923 0.8397 0.1865
H30 H 0.2565 0.8598 0.1109
loop_
_geom_bond_atom_site_label_1
_geom_bond_atom_site_label_2
_geom_bond_site_symmetry_1
_geom_bond_site_symmetry_2
C1 H1 1_555 1_555
H2 C1 1_555 1_555
H3 C1 1_555 1_555
C2 H4 1_555 1_555
H5 C2 1_555 1_555
H6 C2 1_555 1_555
C3 H7 1_555 1_555
H8 C3 1_555 1_555
H9 C3 1_555 1_555
C4 C1 1_555 1_555
O1 C4 1_555 1_555
C5 O1 1_555 1_555
O2 C5 1_555 1_555
N1 C5 1_555 1_555
H10 N1 1_555 1_555
N2 N1 1_555 1_555
H11 N2 1_555 1_555
C6 N2 1_555 1_555
H12 C6 1_555 1_555
H13 C6 1_555 1_555
C7 C6 1_555 1_555
H14 C7 1_555 1_555
C8 C7 1_555 1_555
O3 C8 1_555 1_555
O4 C8 1_555 1_555
C9 O4 1_555 1_555
H15 C9 1_555 1_555
H16 C9 1_555 1_555
H17 C9 1_555 1_555
C10 C7 1_555 1_555
C11 C10 1_555 1_555
H18 C11 1_555 1_555
C12 C11 1_555 1_555
H19 C12 1_555 1_555
C13 C12 1_555 1_555
C14 C13 1_555 1_555
H20 C14 1_555 1_555
C15 C10 1_555 1_555
H21 C15 1_555 1_555
O5 C13 1_555 1_555
C16 O5 1_555 1_555
C17 C16 1_555 1_555
H22 C17 1_555 1_555
H23 C17 1_555 1_555
H24 C17 1_555 1_555
C18 C16 1_555 1_555
H25 C18 1_555 1_555
H26 C18 1_555 1_555
H27 C18 1_555 1_555
C19 C16 1_555 1_555
H28 C19 1_555 1_555
H29 C19 1_555 1_555
H30 C19 1_555 1_555
C2 C4 1_555 1_555
C3 C4 1_555 1_555
C14 C15 1_555 1_555

#END
