
#######################################################################
#
#                 Cambridge Crystallographic Data Centre
#                                CCDC 
#
#######################################################################
#
# If this CIF has been generated from an entry in the Cambridge 
# Structural Database, then it will include bibliographic, chemical, 
# crystal, experimental, refinement or atomic coordinate data resulting 
# from the CCDC's data processing and validation procedures.
#
#######################################################################

data_SAGZEI
_chemical_formula_moiety         'C23 H17 Br1 O5'
_chemical_name_systematic        
7-(3-bromophenyl)-8-(4-methoxyphenyl)-7,8-dihydro-6H-[1,3]dioxolo[4,5-g]chromen-6-one
_symmetry_cell_setting           orthorhombic
_symmetry_space_group_name_H-M   'P 21 21 21'
_symmetry_Int_Tables_number      19
_space_group_name_Hall           'P 2ac 2ab'
loop_
_symmetry_equiv_pos_site_id
_symmetry_equiv_pos_as_xyz
1 x,y,z
2 1/2-x,-y,1/2+z
3 -x,1/2+y,1/2-z
4 1/2+x,1/2-y,-z
_cell_length_a                   6.120(3)
_cell_length_b                   13.432(6)
_cell_length_c                   23.716(10)
_cell_angle_alpha                90
_cell_angle_beta                 90
_cell_angle_gamma                90
_cell_volume                     1949.55
_exptl_crystal_description       block
_cell_formula_units_Z            4
loop_
_atom_site_label
_atom_site_type_symbol
_atom_site_fract_x
_atom_site_fract_y
_atom_site_fract_z
Br1 Br 0.57700(8) 0.69909(4) 0.037088(18)
C1 C 1.2984(7) 0.8296(3) 0.32451(16)
H1 H 1.4093 0.8537 0.3015
C2 C 1.3027(7) 0.8455(3) 0.38156(18)
C3 C 1.1403(7) 0.8103(3) 0.41573(17)
C4 C 0.9634(7) 0.7612(3) 0.39574(15)
H2 H 0.8509 0.7399 0.4192
C5 C 0.9610(7) 0.7444(3) 0.33754(15)
C6 C 1.1241(6) 0.7764(3) 0.30193(15)
C7 C 1.3959(8) 0.8810(3) 0.46944(17)
H3 H 1.3883 0.9458 0.4874
H4 H 1.5018 0.8409 0.4897
C8 C 0.7731(8) 0.6511(3) 0.26615(18)
C9 C 0.9846(6) 0.6505(3) 0.23372(15)
H5 H 1.0759 0.5993 0.2514
C10 C 1.1116(6) 0.7499(3) 0.24014(14)
H6 H 1.2618 0.7366 0.2279
C11 C 0.7994(7) 0.6414(3) 0.08224(18)
C12 C 0.7958(7) 0.6589(3) 0.13926(16)
H7 H 0.6834 0.6961 0.1552
C13 C 0.9619(7) 0.6206(3) 0.17315(16)
C14 C 1.1218(8) 0.5631(3) 0.1477(2)
H8 H 1.2339 0.5365 0.1695
C15 C 1.1170(9) 0.5450(3) 0.0907(2)
H9 H 1.2237 0.5047 0.0747
C16 C 0.9575(9) 0.5852(4) 0.05706(19)
H10 H 0.9572 0.5746 0.0183
C17 C 0.8453(7) 0.9655(3) 0.12585(18)
C18 C 0.7484(7) 0.9525(3) 0.17759(16)
H11 H 0.6228 0.9877 0.1871
C19 C 0.8412(6) 0.8859(3) 0.21535(15)
H12 H 0.7769 0.8775 0.2506
C20 C 1.0257(6) 0.8317(3) 0.20237(14)
C21 C 1.1220(7) 0.8484(3) 0.15040(16)
H13 H 1.2489 0.8142 0.1409
C22 C 1.0335(8) 0.9142(3) 0.11281(17)
H14 H 1.1010 0.9244 0.0782
C23 C 0.5714(10) 1.0799(3) 0.09536(17)
H15 H 0.4540 1.0333 0.1001
H16 H 0.5391 1.1234 0.0644
H17 H 0.5880 1.1185 0.1292
O1 O 1.4606(6) 0.8917(2) 0.41285(12)
O2 O 1.1855(5) 0.8339(2) 0.47118(11)
O3 O 0.7756(4) 0.6956(2) 0.31752(10)
O4 O 0.6042(5) 0.6145(2) 0.25091(11)
O5 O 0.7685(6) 1.0275(2) 0.08416(12)
loop_
_geom_bond_atom_site_label_1
_geom_bond_atom_site_label_2
_geom_bond_site_symmetry_1
_geom_bond_site_symmetry_2
Br1 C11 1_555 1_555
C1 H1 1_555 1_555
C2 C1 1_555 1_555
C3 C2 1_555 1_555
C4 C3 1_555 1_555
H2 C4 1_555 1_555
C5 C4 1_555 1_555
C6 C1 1_555 1_555
C7 H3 1_555 1_555
H4 C7 1_555 1_555
C8 C9 1_555 1_555
C9 H5 1_555 1_555
C10 C6 1_555 1_555
H6 C10 1_555 1_555
C11 C12 1_555 1_555
C12 H7 1_555 1_555
C13 C9 1_555 1_555
C14 C13 1_555 1_555
H8 C14 1_555 1_555
C15 C14 1_555 1_555
H9 C15 1_555 1_555
C16 C11 1_555 1_555
H10 C16 1_555 1_555
C17 C18 1_555 1_555
C18 H11 1_555 1_555
C19 C18 1_555 1_555
H12 C19 1_555 1_555
C20 C10 1_555 1_555
C21 C20 1_555 1_555
H13 C21 1_555 1_555
C22 C17 1_555 1_555
H14 C22 1_555 1_555
C23 H15 1_555 1_555
H16 C23 1_555 1_555
H17 C23 1_555 1_555
O1 C2 1_555 1_555
O2 C3 1_555 1_555
O3 C5 1_555 1_555
O4 C8 1_555 1_555
O5 C17 1_555 1_555
C5 C6 1_555 1_555
C7 O1 1_555 1_555
C7 O2 1_555 1_555
C8 O3 1_555 1_555
C9 C10 1_555 1_555
C12 C13 1_555 1_555
C15 C16 1_555 1_555
C19 C20 1_555 1_555
C21 C22 1_555 1_555
C23 O5 1_555 1_555

#END
