
#######################################################################
#
#                 Cambridge Crystallographic Data Centre
#                                CCDC 
#
#######################################################################
#
# If this CIF has been generated from an entry in the Cambridge 
# Structural Database, then it will include bibliographic, chemical, 
# crystal, experimental, refinement or atomic coordinate data resulting 
# from the CCDC's data processing and validation procedures.
#
#######################################################################

data_SAGZAD
_chemical_formula_moiety         'C10 H7 Cl1 N2'
_chemical_name_systematic        2-(4-Chloro-1H-indol-3-yl)acetonitrile
_symmetry_cell_setting           orthorhombic
_symmetry_space_group_name_H-M   'P c a 21'
_symmetry_Int_Tables_number      29
_space_group_name_Hall           'P 2c -2ac'
loop_
_symmetry_equiv_pos_site_id
_symmetry_equiv_pos_as_xyz
1 x,y,z
2 -x,-y,1/2+z
3 1/2-x,y,1/2+z
4 1/2+x,-y,z
_cell_length_a                   7.5091(15)
_cell_length_b                   11.041(2)
_cell_length_c                   21.380(4)
_cell_angle_alpha                90
_cell_angle_beta                 90
_cell_angle_gamma                90
_cell_volume                     1772.57
_exptl_crystal_colour            colorless
_exptl_crystal_description       prism
_cell_formula_units_Z            8
_exptl_crystal_recrystallization_method methanol
loop_
_atom_site_label
_atom_site_type_symbol
_atom_site_fract_x
_atom_site_fract_y
_atom_site_fract_z
Cl1 Cl 0.57185(18) 0.47362(9) -0.10226(5)
N1 N 0.3359(6) 0.4908(3) 0.1147(2)
H1 H 0.3006 0.4743 0.1520
N2 N 0.4392(5) 0.9029(3) 0.05314(18)
C1 C 0.3547(5) 0.6055(3) 0.0894(2)
H2 H 0.3234 0.6773 0.1093
C2 C 0.4252(4) 0.5977(3) 0.0317(2)
C3 C 0.4428(6) 0.4720(4) 0.0164(2)
C4 C 0.4979(4) 0.4026(3) -0.03431(17)
C5 C 0.4984(6) 0.2769(3) -0.0313(2)
H3 H 0.5375 0.2322 -0.0656
C6 C 0.4413(6) 0.2172(4) 0.0222(3)
H4 H 0.4426 0.1330 0.0233
C7 C 0.3829(4) 0.2803(3) 0.07360(19)
H5 H 0.3450 0.2411 0.1097
C8 C 0.3834(5) 0.4034(3) 0.0688(2)
C9 C 0.4689(6) 0.7050(3) -0.00949(18)
H6 H 0.5898 0.6971 -0.0249
H7 H 0.3894 0.7056 -0.0452
C10 C 0.4518(6) 0.8176(3) 0.0240(2)
Cl2 Cl 0.31981(19) 1.02214(9) 0.39526(5)
N3 N 0.0887(6) 1.0076(3) 0.1779(2)
H8 H 0.0441 1.0232 0.1417
N4 N 0.1867(6) 0.5920(3) 0.23876(19)
C11 C 0.1204(5) 0.8969(4) 0.20034(19)
H9 H 0.1048 0.8260 0.1775
C12 C 0.1782(4) 0.9000(3) 0.26055(19)
C13 C 0.1928(6) 1.0261(4) 0.2749(2)
C14 C 0.2470(4) 1.0945(3) 0.32694(17)
C15 C 0.2436(6) 1.2171(3) 0.3253(2)
H10 H 0.2807 1.2608 0.3601
C16 C 0.1853(6) 1.2786(4) 0.2721(3)
H11 H 0.1840 1.3628 0.2720
C17 C 0.1308(4) 1.2175(4) 0.2208(2)
H12 H 0.0889 1.2594 0.1861
C18 C 0.1377(5) 1.0878(3) 0.2203(2)
C19 C 0.2208(6) 0.7932(3) 0.30169(19)
H13 H 0.3417 0.8005 0.3172
H14 H 0.1410 0.7926 0.3374
C20 C 0.2024(7) 0.6794(4) 0.2670(3)
loop_
_geom_bond_atom_site_label_1
_geom_bond_atom_site_label_2
_geom_bond_site_symmetry_1
_geom_bond_site_symmetry_2
Cl1 C4 1_555 1_555
N1 H1 1_555 1_555
N2 C10 1_555 1_555
C1 N1 1_555 1_555
H2 C1 1_555 1_555
C2 C1 1_555 1_555
C3 C2 1_555 1_555
C4 C3 1_555 1_555
C5 C4 1_555 1_555
H3 C5 1_555 1_555
C6 C5 1_555 1_555
H4 C6 1_555 1_555
C7 C6 1_555 1_555
H5 C7 1_555 1_555
C8 N1 1_555 1_555
C9 C2 1_555 1_555
H6 C9 1_555 1_555
H7 C9 1_555 1_555
C10 C9 1_555 1_555
Cl2 C14 1_555 1_555
N3 H8 1_555 1_555
N4 C20 1_555 1_555
C11 N3 1_555 1_555
H9 C11 1_555 1_555
C12 C11 1_555 1_555
C13 C12 1_555 1_555
C14 C13 1_555 1_555
C15 C14 1_555 1_555
H10 C15 1_555 1_555
C16 C15 1_555 1_555
H11 C16 1_555 1_555
C17 C16 1_555 1_555
H12 C17 1_555 1_555
C18 N3 1_555 1_555
C19 C12 1_555 1_555
H13 C19 1_555 1_555
H14 C19 1_555 1_555
C20 C19 1_555 1_555
C3 C8 1_555 1_555
C7 C8 1_555 1_555
C13 C18 1_555 1_555
C17 C18 1_555 1_555

#END
