
#######################################################################
#
#                 Cambridge Crystallographic Data Centre
#                                CCDC 
#
#######################################################################
#
# If this CIF has been generated from an entry in the Cambridge 
# Structural Database, then it will include bibliographic, chemical, 
# crystal, experimental, refinement or atomic coordinate data resulting 
# from the CCDC's data processing and validation procedures.
#
#######################################################################

data_SAHBAG
_chemical_name_common            
3a,11b-Dihydroxy-3a,11b-dihydro-1H-imidazo[4,5-f][1,10]phenanthroline-2(3H)-thione
_chemical_formula_moiety         'C13 H10 N4 O2 S1'
_chemical_name_systematic        
2,6-dihydroxy-11,14-diazatetracyclo[11.4.0.0^2,6^.0^7,12^]heptadeca-1(13),7(12),8,10,14,16-hexaene-4-thione
_symmetry_cell_setting           monoclinic
_symmetry_space_group_name_H-M   'P 21/c'
_symmetry_Int_Tables_number      14
_space_group_name_Hall           '-P 2ybc'
loop_
_symmetry_equiv_pos_site_id
_symmetry_equiv_pos_as_xyz
1 x,y,z
2 -x,1/2+y,1/2-z
3 -x,-y,-z
4 x,1/2-y,1/2+z
_cell_length_a                   11.259(4)
_cell_length_b                   12.815(4)
_cell_length_c                   8.565(3)
_cell_angle_alpha                90
_cell_angle_beta                 100.382(5)
_cell_angle_gamma                90
_cell_volume                     1215.56
_exptl_crystal_colour            colorless
_exptl_crystal_description       block
_cell_formula_units_Z            4
loop_
_atom_site_label
_atom_site_type_symbol
_atom_site_fract_x
_atom_site_fract_y
_atom_site_fract_z
S1 S 0.41534(9) 0.63611(8) 0.62203(12)
O1 O 0.1477(2) 0.70072(19) 0.1051(3)
H1 H 0.0819 0.6850 0.0525
O2 O 0.3623(2) 0.6130(2) 0.0847(3)
H2 H 0.3702 0.6733 0.1168
N1 N -0.0346(3) 0.3969(2) 0.1943(4)
N2 N 0.1205(3) 0.3145(2) 0.0259(4)
N3 N 0.2442(3) 0.6720(3) 0.3648(4)
N4 N 0.3596(3) 0.5401(3) 0.3380(4)
C1 C 0.0627(3) 0.4558(3) 0.1826(4)
C2 C 0.1854(3) 0.6227(3) 0.2162(4)
C3 C 0.0789(3) 0.5553(3) 0.2417(4)
C4 C 0.2619(3) 0.4546(3) 0.0946(4)
C5 C 0.1524(3) 0.4060(3) 0.0979(4)
C6 C 0.2935(3) 0.5569(3) 0.1767(4)
C7 C -0.0097(3) 0.5981(3) 0.3175(4)
H3 H -0.0016 0.6652 0.3591
C8 C 0.3384(3) 0.6167(3) 0.4379(4)
C9 C 0.3448(3) 0.4034(3) 0.0190(5)
H4 H 0.4196 0.4331 0.0152
C10 C -0.1093(3) 0.5385(3) 0.3291(4)
H5 H -0.1703 0.5651 0.3777
C11 C -0.1175(3) 0.4392(3) 0.2681(5)
H6 H -0.1846 0.3992 0.2788
C12 C 0.2019(4) 0.2682(3) -0.0466(5)
H7 H 0.1808 0.2051 -0.0978
C13 C 0.3136(4) 0.3072(3) -0.0505(5)
H8 H 0.3680 0.2701 -0.0988
H9 H 0.428(3) 0.503(3) 0.356(4)
H10 H 0.203(3) 0.717(3) 0.421(4)
loop_
_geom_bond_atom_site_label_1
_geom_bond_atom_site_label_2
_geom_bond_site_symmetry_1
_geom_bond_site_symmetry_2
S1 C8 1_555 1_555
O1 H1 1_555 1_555
O2 H2 1_555 1_555
N1 C1 1_555 1_555
N2 C5 1_555 1_555
N3 C2 1_555 1_555
N4 C6 1_555 1_555
C1 C3 1_555 1_555
C2 O1 1_555 1_555
C3 C2 1_555 1_555
C4 C5 1_555 1_555
C5 C1 1_555 1_555
C6 O2 1_555 1_555
C7 C3 1_555 1_555
H3 C7 1_555 1_555
C8 N3 1_555 1_555
C9 C4 1_555 1_555
H4 C9 1_555 1_555
C10 C7 1_555 1_555
H5 C10 1_555 1_555
C11 N1 1_555 1_555
H6 C11 1_555 1_555
C12 N2 1_555 1_555
H7 C12 1_555 1_555
C13 C9 1_555 1_555
H8 C13 1_555 1_555
H9 N4 1_555 1_555
H10 N3 1_555 1_555
N4 C8 1_555 1_555
C2 C6 1_555 1_555
C4 C6 1_555 1_555
C10 C11 1_555 1_555
C12 C13 1_555 1_555

#END
