
#######################################################################
#
#                 Cambridge Crystallographic Data Centre
#                                CCDC 
#
#######################################################################
#
# If this CIF has been generated from an entry in the Cambridge 
# Structural Database, then it will include bibliographic, chemical, 
# crystal, experimental, refinement or atomic coordinate data resulting 
# from the CCDC's data processing and validation procedures.
#
#######################################################################

data_SAHCAH
_chemical_formula_moiety         'C16 H21 N2 O5'
_chemical_name_systematic        
'Methyl 2-([2-(4,4,5,5-tetramethyl-1,3-dioxyl-4,5-dihydroimidazol-2-yl)phenyl]oxy)acetate'
_symmetry_cell_setting           monoclinic
_symmetry_space_group_name_H-M   'P 21/c'
_symmetry_Int_Tables_number      14
_space_group_name_Hall           '-P 2ybc'
loop_
_symmetry_equiv_pos_site_id
_symmetry_equiv_pos_as_xyz
1 x,y,z
2 -x,1/2+y,1/2-z
3 -x,-y,-z
4 x,1/2-y,1/2+z
_cell_length_a                   11.421(6)
_cell_length_b                   7.381(4)
_cell_length_c                   19.700(11)
_cell_angle_alpha                90
_cell_angle_beta                 91.832(6)
_cell_angle_gamma                90
_cell_volume                     1659.83
_exptl_crystal_colour            red
_exptl_crystal_description       block
_cell_formula_units_Z            4
_exptl_crystal_recrystallization_method hexane/dichloromethane
loop_
_atom_site_label
_atom_site_type_symbol
_atom_site_fract_x
_atom_site_fract_y
_atom_site_fract_z
C1 C 0.2619(4) 1.4589(6) -0.1296(2)
H1 H 0.2219 1.3511 -0.1447
H2 H 0.2999 1.5138 -0.1673
H3 H 0.2065 1.5424 -0.1117
C2 C 0.3169(3) 1.2963(5) -0.03053(17)
C3 C 0.4199(3) 1.2593(4) 0.01652(17)
H4 H 0.4869 1.2222 -0.0092
H5 H 0.4409 1.3678 0.0419
C4 C 0.4695(3) 1.0655(4) 0.10896(18)
C5 C 0.5846(3) 1.1206(5) 0.1134(2)
H6 H 0.6130 1.2036 0.0825
C6 C 0.6575(3) 1.0515(5) 0.1642(2)
H7 H 0.7353 1.0887 0.1670
C7 C 0.6184(3) 0.9304(5) 0.2103(2)
H8 H 0.6684 0.8865 0.2446
C8 C 0.5027(3) 0.8732(5) 0.2053(2)
H9 H 0.4753 0.7893 0.2362
C9 C 0.4280(3) 0.9395(4) 0.15493(18)
C10 C 0.3067(3) 0.8761(4) 0.14568(16)
C11 C 0.1010(3) 0.8621(4) 0.14948(16)
C12 C 0.1454(3) 0.7110(4) 0.10154(17)
C13 C 0.0269(4) 1.0061(6) 0.1154(2)
H10 H 0.0068 1.0963 0.1482
H11 H -0.0434 0.9523 0.0965
H12 H 0.0699 1.0616 0.0798
C14 C 0.0445(5) 0.7921(6) 0.2134(2)
H13 H 0.0916 0.6966 0.2330
H14 H -0.0324 0.7465 0.2020
H15 H 0.0385 0.8891 0.2456
C15 C 0.1063(6) 0.7353(9) 0.0277(2)
H16 H 0.1267 0.8547 0.0129
H17 H 0.0230 0.7195 0.0233
H18 H 0.1445 0.6470 0.0003
C16 C 0.1231(4) 0.5185(5) 0.1239(3)
H19 H 0.1644 0.4363 0.0954
H20 H 0.0407 0.4934 0.1203
H21 H 0.1501 0.5035 0.1702
N1 N 0.2724(2) 0.7420(4) 0.10481(18)
N2 N 0.2136(2) 0.9510(4) 0.17210(14)
O1 O 0.3482(2) 1.4130(3) -0.07761(13)
O2 O 0.2212(2) 1.2324(4) -0.02691(14)
O3 O 0.38813(19) 1.1206(3) 0.06102(13)
O4 O 0.3397(3) 0.6491(5) 0.0681(2)
O5 O 0.2140(2) 1.0877(5) 0.21176(16)
loop_
_geom_bond_atom_site_label_1
_geom_bond_atom_site_label_2
_geom_bond_site_symmetry_1
_geom_bond_site_symmetry_2
C1 H1 1_555 1_555
H2 C1 1_555 1_555
H3 C1 1_555 1_555
C2 C3 1_555 1_555
C3 H4 1_555 1_555
H5 C3 1_555 1_555
C4 C5 1_555 1_555
C5 H6 1_555 1_555
C6 C5 1_555 1_555
H7 C6 1_555 1_555
C7 C6 1_555 1_555
H8 C7 1_555 1_555
C8 C7 1_555 1_555
H9 C8 1_555 1_555
C9 C4 1_555 1_555
C10 C9 1_555 1_555
C11 C12 1_555 1_555
C12 C15 1_555 1_555
C13 C11 1_555 1_555
H10 C13 1_555 1_555
H11 C13 1_555 1_555
H12 C13 1_555 1_555
C14 C11 1_555 1_555
H13 C14 1_555 1_555
H14 C14 1_555 1_555
H15 C14 1_555 1_555
C15 H16 1_555 1_555
H17 C15 1_555 1_555
H18 C15 1_555 1_555
C16 C12 1_555 1_555
H19 C16 1_555 1_555
H20 C16 1_555 1_555
H21 C16 1_555 1_555
N1 C10 1_555 1_555
N2 C10 1_555 1_555
O1 C1 1_555 1_555
O2 C2 1_555 1_555
O3 C3 1_555 1_555
O4 N1 1_555 1_555
O5 N2 1_555 1_555
C2 O1 1_555 1_555
C4 O3 1_555 1_555
C8 C9 1_555 1_555
C11 N2 1_555 1_555
C12 N1 1_555 1_555

#END
