
#######################################################################
#
#                 Cambridge Crystallographic Data Centre
#                                CCDC 
#
#######################################################################
#
# If this CIF has been generated from an entry in the Cambridge 
# Structural Database, then it will include bibliographic, chemical, 
# crystal, experimental, refinement or atomic coordinate data resulting 
# from the CCDC's data processing and validation procedures.
#
#######################################################################

data_SAHKAP
_chemical_formula_moiety         'C5 H8 N4'
_chemical_name_systematic        5,6-Dimethyl-1,2,4-triazin-3-amine
_symmetry_cell_setting           orthorhombic
_symmetry_space_group_name_H-M   'P n m a'
_symmetry_Int_Tables_number      62
_space_group_name_Hall           '-P 2ac 2n'
loop_
_symmetry_equiv_pos_site_id
_symmetry_equiv_pos_as_xyz
1 x,y,z
2 1/2-x,-y,1/2+z
3 -x,1/2+y,-z
4 1/2+x,1/2-y,1/2-z
5 -x,-y,-z
6 1/2+x,y,1/2-z
7 x,1/2-y,z
8 1/2-x,1/2+y,1/2+z
_cell_length_a                   7.4877(8)
_cell_length_b                   6.7530(7)
_cell_length_c                   12.6615(13)
_cell_angle_alpha                90
_cell_angle_beta                 90
_cell_angle_gamma                90
_cell_volume                     640.222
_exptl_crystal_colour            yellow
_exptl_crystal_description       block
_cell_formula_units_Z            4
loop_
_atom_site_label
_atom_site_type_symbol
_atom_site_fract_x
_atom_site_fract_y
_atom_site_fract_z
N1 N 1.0561(4) 0.2500 0.5062(2)
N2 N 1.0506(4) 0.2500 0.6123(2)
N3 N 0.7314(4) 0.2500 0.60746(19)
N4 N 0.8858(4) 0.2500 0.7657(2)
H1 H 0.9838 0.2500 0.8011
H2 H 0.7850 0.2500 0.7982
C1 C 0.8903(4) 0.2500 0.6589(2)
C2 C 0.7407(5) 0.2500 0.5030(2)
C3 C 0.9072(5) 0.2500 0.4511(2)
C4 C 0.5682(5) 0.2500 0.4422(3)
C5 C 0.9233(5) 0.2500 0.3332(2)
H3? H 0.5720 0.3512 0.3890
H4? H 0.4708 0.2755 0.4896
H5? H 0.5516 0.1233 0.4093
H6? H 0.8506 0.1461 0.3044
H7? H 1.0456 0.2286 0.3137
H8? H 0.8839 0.3753 0.3060
loop_
_geom_bond_atom_site_label_1
_geom_bond_atom_site_label_2
_geom_bond_site_symmetry_1
_geom_bond_site_symmetry_2
N1 N2 1_555 1_555
N2 C1 1_555 1_555
N3 C1 1_555 1_555
N4 H1 1_555 1_555
H2 N4 1_555 1_555
C1 N4 1_555 1_555
C2 N3 1_555 1_555
C3 N1 1_555 1_555
C4 C2 1_555 1_555
C5 C3 1_555 1_555
C2 C3 1_555 1_555

#END
