
#######################################################################
#
#                 Cambridge Crystallographic Data Centre
#                                CCDC 
#
#######################################################################
#
# If this CIF has been generated from an entry in the Cambridge 
# Structural Database, then it will include bibliographic, chemical, 
# crystal, experimental, refinement or atomic coordinate data resulting 
# from the CCDC's data processing and validation procedures.
#
#######################################################################

data_SAHLUK
_chemical_formula_moiety         'C15 H21 N1 O4 S1'
_chemical_name_systematic        
3-Cyclopropyl-1-((4-methylphenyl)sulfonyl)piperidine-3,5-diol
_symmetry_cell_setting           monoclinic
_symmetry_space_group_name_H-M   'P 21/n'
_symmetry_Int_Tables_number      14
_space_group_name_Hall           '-P 2yn'
loop_
_symmetry_equiv_pos_site_id
_symmetry_equiv_pos_as_xyz
1 x,y,z
2 1/2-x,1/2+y,1/2-z
3 -x,-y,-z
4 1/2+x,1/2-y,1/2+z
_cell_length_a                   11.583(5)
_cell_length_b                   5.598(2)
_cell_length_c                   24.009(9)
_cell_angle_alpha                90
_cell_angle_beta                 102.905(7)
_cell_angle_gamma                90
_cell_volume                     1517.46
_exptl_crystal_colour            colorless
_exptl_crystal_description       plate
_cell_formula_units_Z            4
_exptl_crystal_recrystallization_method ether/dichloromethane
loop_
_atom_site_label
_atom_site_type_symbol
_atom_site_fract_x
_atom_site_fract_y
_atom_site_fract_z
S1 S 0.48729(7) 0.71212(14) 0.21603(3)
O1 O 0.3693(2) 0.8072(4) 0.20391(9)
O2 O 0.5867(2) 0.8711(4) 0.22413(9)
O3 O 0.6103(2) 0.5720(4) 0.06890(9)
H1 H 0.5388 0.5980 0.0535
O4 O 0.3664(2) 0.4775(4) 0.04568(9)
H2 H 0.3722 0.4391 0.0126
N1 N 0.4962(2) 0.5392(5) 0.16189(10)
C1 C 0.5488(4) 0.0129(7) 0.41161(16)
H3 H 0.5012 0.0572 0.4390
H4 H 0.6325 0.0049 0.4312
H5 H 0.5231 -0.1434 0.3950
C2 C 0.5327(3) 0.1979(6) 0.36466(13)
C3 C 0.6307(3) 0.3092(6) 0.35169(13)
H6 H 0.7078 0.2742 0.3736
C4 C 0.6166(3) 0.4712(6) 0.30688(13)
H7 H 0.6839 0.5447 0.2976
C5 C 0.5040(3) 0.5246(6) 0.27584(12)
C6 C 0.4056(3) 0.4195(6) 0.28916(14)
H8 H 0.3282 0.4584 0.2682
C7 C 0.4216(3) 0.2568(7) 0.33361(14)
H9 H 0.3543 0.1840 0.3429
C8 C 0.6136(3) 0.4325(6) 0.16365(13)
H10 H 0.6255 0.2908 0.1890
H11 H 0.6768 0.5498 0.1788
C9 C 0.6192(3) 0.3603(6) 0.10331(13)
H12 H 0.6973 0.2823 0.1043
C10 C 0.5208(3) 0.1832(6) 0.07993(14)
H13 H 0.5367 0.0323 0.1018
H14 H 0.5213 0.1474 0.0396
C11 C 0.3986(3) 0.2754(6) 0.08316(13)
C12 C 0.4001(3) 0.3648(6) 0.14376(12)
H15 H 0.3231 0.4402 0.1445
H16 H 0.4118 0.2281 0.1706
C13 C 0.3070(3) 0.0790(6) 0.06840(13)
H17 H 0.3219 -0.0615 0.0948
C14 C 0.2511(3) 0.0174(7) 0.00777(14)
H18 H 0.2363 -0.1534 -0.0019
H19 H 0.2723 0.1158 -0.0227
C15 C 0.1790(3) 0.1328(7) 0.04522(15)
H20 H 0.1560 0.3021 0.0377
H21 H 0.1199 0.0330 0.0585
loop_
_geom_bond_atom_site_label_1
_geom_bond_atom_site_label_2
_geom_bond_site_symmetry_1
_geom_bond_site_symmetry_2
S1 O1 1_555 1_555
O2 S1 1_555 1_555
O3 H1 1_555 1_555
O4 H2 1_555 1_555
N1 S1 1_555 1_555
C1 H3 1_555 1_555
H4 C1 1_555 1_555
H5 C1 1_555 1_555
C2 C1 1_555 1_555
C3 C2 1_555 1_555
H6 C3 1_555 1_555
C4 C3 1_555 1_555
H7 C4 1_555 1_555
C5 S1 1_555 1_555
C6 C5 1_555 1_555
H8 C6 1_555 1_555
C7 C2 1_555 1_555
H9 C7 1_555 1_555
C8 N1 1_555 1_555
H10 C8 1_555 1_555
H11 C8 1_555 1_555
C9 O3 1_555 1_555
H12 C9 1_555 1_555
C10 C9 1_555 1_555
H13 C10 1_555 1_555
H14 C10 1_555 1_555
C11 O4 1_555 1_555
C12 N1 1_555 1_555
H15 C12 1_555 1_555
H16 C12 1_555 1_555
C13 C11 1_555 1_555
H17 C13 1_555 1_555
C14 C13 1_555 1_555
H18 C14 1_555 1_555
H19 C14 1_555 1_555
C15 C13 1_555 1_555
H20 C15 1_555 1_555
H21 C15 1_555 1_555
C4 C5 1_555 1_555
C6 C7 1_555 1_555
C8 C9 1_555 1_555
C10 C11 1_555 1_555
C11 C12 1_555 1_555
C14 C15 1_555 1_555

#END
