
#######################################################################
#
#                 Cambridge Crystallographic Data Centre
#                                CCDC 
#
#######################################################################
#
# If this CIF has been generated from an entry in the Cambridge 
# Structural Database, then it will include bibliographic, chemical, 
# crystal, experimental, refinement or atomic coordinate data resulting 
# from the CCDC's data processing and validation procedures.
#
#######################################################################

data_SAHLAQ
_chemical_formula_moiety         'C28 H18 O10'
_chemical_name_systematic        
"3,3'-(Biphenyl-4,4'-diylbis(oxy))diphthalic acid"
_symmetry_cell_setting           orthorhombic
_symmetry_space_group_name_H-M   'P n a 21'
_symmetry_Int_Tables_number      33
_space_group_name_Hall           'P 2c -2n'
loop_
_symmetry_equiv_pos_site_id
_symmetry_equiv_pos_as_xyz
1 x,y,z
2 -x,-y,1/2+z
3 1/2+x,1/2-y,z
4 1/2-x,1/2+y,1/2+z
_cell_length_a                   21.5817(7)
_cell_length_b                   11.2676(4)
_cell_length_c                   9.5025(3)
_cell_angle_alpha                90
_cell_angle_beta                 90
_cell_angle_gamma                90
_cell_volume                     2310.76
_exptl_crystal_colour            yellow
_exptl_crystal_description       block
_cell_formula_units_Z            4
loop_
_atom_site_label
_atom_site_type_symbol
_atom_site_fract_x
_atom_site_fract_y
_atom_site_fract_z
C1 C 0.30406(19) 1.3782(3) 1.6071(4)
C2 C 0.41811(18) 1.3386(3) 1.4287(4)
C3 C 0.30093(19) 1.3259(3) 1.4624(4)
C4 C 0.35348(17) 1.3116(3) 1.3805(4)
C5 C 0.34704(19) 1.2629(3) 1.2462(4)
C6 C 0.2897(2) 1.2302(4) 1.1958(5)
H1 H 0.2860 1.1980 1.1061
C7 C 0.2378(2) 1.2454(4) 1.2786(5)
H2 H 0.1990 1.2236 1.2444
C8 C 0.2431(2) 1.2924(4) 1.4110(5)
H3 H 0.2081 1.3020 1.4667
C9 C 0.40425(18) 1.1761(4) 1.0552(4)
C10 C 0.3961(2) 1.0575(4) 1.0751(4)
H4 H 0.3870 1.0279 1.1641
C11 C 0.4016(2) 0.9812(3) 0.9611(5)
H5 H 0.3963 0.9001 0.9749
C12 C 0.41474(16) 1.0225(3) 0.8286(4)
C13 C 0.4236(2) 1.1432(3) 0.8129(5)
H6 H 0.4335 1.1738 0.7248
C14 C 0.4178(2) 1.2195(3) 0.9266(5)
H7 H 0.4233 1.3007 0.9142
C15 C 0.41748(16) 0.9389(3) 0.7056(4)
C16 C 0.4346(2) 0.8221(3) 0.7200(4)
H8 H 0.4469 0.7950 0.8082
C17 C 0.4343(2) 0.7437(4) 0.6092(5)
H9 H 0.4464 0.6653 0.6227
C18 C 0.41619(17) 0.7812(3) 0.4798(4)
C19 C 0.3990(2) 0.8959(3) 0.4610(5)
H10 H 0.3865 0.9217 0.3724
C20 C 0.3997(2) 0.9744(3) 0.5721(4)
H11 H 0.3881 1.0529 0.5571
C21 C 0.42764(16) 0.6151(3) 0.1051(4)
C22 C 0.3124(2) 0.5020(3) -0.0191(4)
C23 C 0.31384(17) 0.5530(3) 0.1252(4)
C24 C 0.36704(17) 0.6045(3) 0.1821(4)
C25 C 0.36412(17) 0.6571(3) 0.3145(4)
C26 C 0.30915(18) 0.6577(4) 0.3882(4)
H12 H 0.3074 0.6929 0.4767
C27 C 0.25716(19) 0.6067(4) 0.3322(5)
H13 H 0.2202 0.6080 0.3824
C28 C 0.2594(2) 0.5534(4) 0.2014(4)
H14 H 0.2241 0.5177 0.1646
O1 O 0.35545(15) 1.4066(3) 1.6566(3)
O2 O 0.25406(16) 1.3930(3) 1.6720(3)
H15 H 0.2612 1.4218 1.7496
O3 O 0.44618(13) 1.2493(2) 1.4775(4)
H16 H 0.4811 1.2688 1.5023
O4 O 0.43977(14) 1.4384(2) 1.4219(4)
O5 O 0.46202(13) 0.5243(2) 0.0978(4)
H17 H 0.4936 0.5406 0.0537
O6 O 0.44146(14) 0.7116(2) 0.0561(4)
O7 O 0.26478(17) 0.4490(3) -0.0584(4)
O8 O 0.35855(15) 0.5180(3) -0.0969(3)
H18 H 0.3525 0.4863 -0.1733
O9 O 0.40081(14) 1.2559(3) 1.1684(3)
O10 O 0.41860(12) 0.7034(2) 0.3652(3)
loop_
_geom_bond_atom_site_label_1
_geom_bond_atom_site_label_2
_geom_bond_site_symmetry_1
_geom_bond_site_symmetry_2
C1 C3 1_555 1_555
C2 C4 1_555 1_555
C3 C4 1_555 1_555
C4 C5 1_555 1_555
C5 C6 1_555 1_555
C6 H1 1_555 1_555
C7 C6 1_555 1_555
H2 C7 1_555 1_555
C8 C3 1_555 1_555
H3 C8 1_555 1_555
C9 C10 1_555 1_555
C10 H4 1_555 1_555
C11 C10 1_555 1_555
H5 C11 1_555 1_555
C12 C11 1_555 1_555
C13 C12 1_555 1_555
H6 C13 1_555 1_555
C14 C9 1_555 1_555
H7 C14 1_555 1_555
C15 C12 1_555 1_555
C16 C15 1_555 1_555
H8 C16 1_555 1_555
C17 C16 1_555 1_555
H9 C17 1_555 1_555
C18 C17 1_555 1_555
C19 C18 1_555 1_555
H10 C19 1_555 1_555
C20 C15 1_555 1_555
H11 C20 1_555 1_555
C21 C24 1_555 1_555
C22 C23 1_555 1_555
C23 C24 1_555 1_555
C24 C25 1_555 1_555
C25 C26 1_555 1_555
C26 H12 1_555 1_555
C27 C26 1_555 1_555
H13 C27 1_555 1_555
C28 C23 1_555 1_555
H14 C28 1_555 1_555
O1 C1 1_555 1_555
O2 C1 1_555 1_555
H15 O2 1_555 1_555
O3 C2 1_555 1_555
H16 O3 1_555 1_555
O4 C2 1_555 1_555
O5 C21 1_555 1_555
H17 O5 1_555 1_555
O6 C21 1_555 1_555
O7 C22 1_555 1_555
O8 C22 1_555 1_555
H18 O8 1_555 1_555
O9 C5 1_555 1_555
O10 C18 1_555 1_555
C7 C8 1_555 1_555
C9 O9 1_555 1_555
C13 C14 1_555 1_555
C19 C20 1_555 1_555
C25 O10 1_555 1_555
C27 C28 1_555 1_555

#END
