
#######################################################################
#
#                 Cambridge Crystallographic Data Centre
#                                CCDC 
#
#######################################################################
#
# If this CIF has been generated from an entry in the Cambridge 
# Structural Database, then it will include bibliographic, chemical, 
# crystal, experimental, refinement or atomic coordinate data resulting 
# from the CCDC's data processing and validation procedures.
#
#######################################################################

data_SAHLOE
_chemical_formula_moiety         'C9 H8 N2 O8'
_chemical_name_systematic        
5-Carboxy-1,3-bis(carboxymethyl)-4-imidazolinium-4-carboxylate
_symmetry_cell_setting           orthorhombic
_symmetry_space_group_name_H-M   'P b c a'
_symmetry_Int_Tables_number      61
_space_group_name_Hall           '-P 2ac 2ab'
loop_
_symmetry_equiv_pos_site_id
_symmetry_equiv_pos_as_xyz
1 x,y,z
2 1/2-x,-y,1/2+z
3 -x,1/2+y,1/2-z
4 1/2+x,1/2-y,-z
5 -x,-y,-z
6 1/2+x,y,1/2-z
7 x,1/2-y,1/2+z
8 1/2-x,1/2+y,z
_cell_length_a                   8.986(7)
_cell_length_b                   7.041(6)
_cell_length_c                   33.68(3)
_cell_angle_alpha                90
_cell_angle_beta                 90
_cell_angle_gamma                90
_cell_volume                     2130.95
_exptl_crystal_colour            red
_exptl_crystal_description       block
_chemical_melting_point          '235-236 deg.C'
_cell_formula_units_Z            8
loop_
_atom_site_label
_atom_site_type_symbol
_atom_site_fract_x
_atom_site_fract_y
_atom_site_fract_z
C1 C 0.0333(2) 0.0455(3) 0.36566(6)
H1 H 0.0683 -0.0768 0.3610
C2 C -0.0421(2) 0.3049(3) 0.39610(6)
C3 C -0.0421(2) 0.3386(3) 0.35616(6)
C4 C 0.0345(2) 0.1384(3) 0.29562(6)
H2 H -0.0453 0.1904 0.2796
H3 H 0.0406 0.0030 0.2906
C5 C 0.1801(3) 0.2329(3) 0.28505(6)
C6 C 0.0369(2) 0.0165(3) 0.43809(6)
H4 H 0.0273 -0.1192 0.4338
H5 H -0.0339 0.0537 0.4584
C7 C 0.1931(3) 0.0624(3) 0.45163(6)
C8 C -0.0809(2) 0.5139(3) 0.33270(6)
C9 C -0.0854(2) 0.4261(3) 0.43069(6)
N1 N 0.00421(19) 0.1725(2) 0.33789(5)
N2 N 0.00520(19) 0.1186(2) 0.40108(5)
O1 O -0.0529(2) 0.5150(2) 0.29686(4)
O2 O -0.1404(2) 0.6492(2) 0.35153(5)
O3 O -0.1520(2) 0.5842(2) 0.42221(5)
O4 O -0.0606(2) 0.3734(2) 0.46442(4)
O5 O 0.2115(2) 0.2377(3) 0.24692(5)
O6 O 0.2616(2) 0.2993(3) 0.30957(5)
O7 O 0.28441(18) 0.1355(3) 0.43067(5)
O8 O 0.2134(2) 0.0069(3) 0.48852(5)
H6 H 0.149(4) 0.170(5) 0.2306(9)
H7 H 0.306(4) 0.045(5) 0.4978(10)
H8 H -0.149(4) 0.617(4) 0.3891(9)
loop_
_geom_bond_atom_site_label_1
_geom_bond_atom_site_label_2
_geom_bond_site_symmetry_1
_geom_bond_site_symmetry_2
C1 H1 1_555 1_555
C2 C3 1_555 1_555
C3 C8 1_555 1_555
C4 H2 1_555 1_555
H3 C4 1_555 1_555
C5 C4 1_555 1_555
C6 H4 1_555 1_555
H5 C6 1_555 1_555
C7 C6 1_555 1_555
C8 O1 1_555 1_555
C9 C2 1_555 1_555
N1 C1 1_555 1_555
N2 C1 1_555 1_555
O2 C8 1_555 1_555
O3 C9 1_555 1_555
O4 C9 1_555 1_555
O5 C5 1_555 1_555
O6 C5 1_555 1_555
O7 C7 1_555 1_555
O8 C7 1_555 1_555
H6 O5 1_555 1_555
H7 O8 1_555 1_555
H8 O3 1_555 1_555
C2 N2 1_555 1_555
C3 N1 1_555 1_555
C4 N1 1_555 1_555
C6 N2 1_555 1_555

#END
