
#######################################################################
#
#                 Cambridge Crystallographic Data Centre
#                                CCDC 
#
#######################################################################
#
# If this CIF has been generated from an entry in the Cambridge 
# Structural Database, then it will include bibliographic, chemical, 
# crystal, experimental, refinement or atomic coordinate data resulting 
# from the CCDC's data processing and validation procedures.
#
#######################################################################

data_SAHNUM
_chemical_formula_moiety         'C7 H18 N1 Si1 1+,Cl1 1-'
_chemical_name_systematic        '4,4-Dimethyl-1,4-azasilepan-1-ium chloride'
_symmetry_cell_setting           monoclinic
_symmetry_space_group_name_H-M   'P 21/n'
_symmetry_Int_Tables_number      14
_space_group_name_Hall           '-P 2yn'
loop_
_symmetry_equiv_pos_site_id
_symmetry_equiv_pos_as_xyz
1 x,y,z
2 1/2-x,1/2+y,1/2-z
3 -x,-y,-z
4 1/2+x,1/2-y,1/2+z
_cell_length_a                   6.1466(3)
_cell_length_b                   29.0217(17)
_cell_length_c                   6.3483(3)
_cell_angle_alpha                90
_cell_angle_beta                 109.534(2)
_cell_angle_gamma                90
_cell_volume                     1067.26
_exptl_crystal_colour            colorless
_exptl_crystal_description       plate
_cell_formula_units_Z            4
loop_
_atom_site_label
_atom_site_type_symbol
_atom_site_fract_x
_atom_site_fract_y
_atom_site_fract_z
N1 N 0.4033(5) 0.20172(10) 0.3456(5)
H1 H 0.4250 0.2324 0.3590
H2 H 0.2818 0.1968 0.2208
C1 C 0.6120(6) 0.18097(12) 0.3104(6)
H3 H 0.7249 0.1735 0.4544
H4 H 0.6807 0.2035 0.2388
C2 C 0.5548(6) 0.13757(12) 0.1671(6)
H5 H 0.6827 0.1315 0.1139
H6 H 0.4209 0.1441 0.0371
C3 C 0.4134(7) 0.09836(13) 0.5500(6)
H7 H 0.3520 0.0710 0.5975
H8 H 0.5526 0.1070 0.6702
C4 C 0.2367(6) 0.13732(13) 0.5177(6)
H9 H 0.1214 0.1343 0.3704
H10 H 0.1588 0.1336 0.6267
C5 C 0.3376(6) 0.18557(12) 0.5404(6)
H11 H 0.2259 0.2070 0.5623
H12 H 0.4737 0.1866 0.6734
C6 C 0.2506(9) 0.05296(18) 0.0879(8)
H13 H 0.2132 0.0255 0.1526
H14 H 0.2948 0.0450 -0.0389
H15 H 0.1182 0.0729 0.0410
C7 C 0.7554(9) 0.04560(15) 0.3923(9)
H16 H 0.7171 0.0169 0.4466
H17 H 0.8752 0.0607 0.5096
H18 H 0.8081 0.0398 0.2684
Si1 Si 0.49441(18) 0.08326(3) 0.29951(17)
Cl1 Cl -0.03544(15) 0.19298(3) -0.08300(14)
loop_
_geom_bond_atom_site_label_1
_geom_bond_atom_site_label_2
_geom_bond_site_symmetry_1
_geom_bond_site_symmetry_2
N1 H1 1_555 1_555
H2 N1 1_555 1_555
C1 N1 1_555 1_555
H3 C1 1_555 1_555
H4 C1 1_555 1_555
C2 C1 1_555 1_555
H5 C2 1_555 1_555
H6 C2 1_555 1_555
C3 H7 1_555 1_555
H8 C3 1_555 1_555
C4 C3 1_555 1_555
H9 C4 1_555 1_555
H10 C4 1_555 1_555
C5 N1 1_555 1_555
H11 C5 1_555 1_555
H12 C5 1_555 1_555
C6 H13 1_555 1_555
H14 C6 1_555 1_555
H15 C6 1_555 1_555
C7 H16 1_555 1_555
H17 C7 1_555 1_555
H18 C7 1_555 1_555
Si1 C2 1_555 1_555
C3 Si1 1_555 1_555
C4 C5 1_555 1_555
C6 Si1 1_555 1_555
C7 Si1 1_555 1_555

#END
