
#######################################################################
#
#                 Cambridge Crystallographic Data Centre
#                                CCDC 
#
#######################################################################
#
# If this CIF has been generated from an entry in the Cambridge 
# Structural Database, then it will include bibliographic, chemical, 
# crystal, experimental, refinement or atomic coordinate data resulting 
# from the CCDC's data processing and validation procedures.
#
#######################################################################

data_SAHRUQ
_chemical_formula_moiety         'C14 H13 N1 O3'
_chemical_name_systematic        
'Ethyl 4-formyl-2-phenyl-1H-pyrrole-3-carboxylate'
_symmetry_cell_setting           monoclinic
_symmetry_space_group_name_H-M   'P 21/n'
_symmetry_Int_Tables_number      14
_space_group_name_Hall           '-P 2yn'
loop_
_symmetry_equiv_pos_site_id
_symmetry_equiv_pos_as_xyz
1 x,y,z
2 1/2-x,1/2+y,1/2-z
3 -x,-y,-z
4 1/2+x,1/2-y,1/2+z
_cell_length_a                   3.8265(3)
_cell_length_b                   11.2288(7)
_cell_length_c                   27.0378(17)
_cell_angle_alpha                90
_cell_angle_beta                 92.558(2)
_cell_angle_gamma                90
_cell_volume                     1160.58
_exptl_crystal_colour            colorless
_exptl_crystal_description       needle
_cell_formula_units_Z            4
loop_
_atom_site_label
_atom_site_type_symbol
_atom_site_fract_x
_atom_site_fract_y
_atom_site_fract_z
C1 C 0.5005(4) 0.24778(14) 0.14581(6)
C2 C 0.6495(4) 0.16286(15) 0.17798(6)
H1 H 0.7384 0.1863 0.2099
C3 C 0.6690(5) 0.04433(15) 0.16377(7)
H2 H 0.7709 -0.0130 0.1859
C4 C 0.5397(5) 0.00977(16) 0.11735(7)
H3 H 0.5550 -0.0712 0.1075
C5 C 0.3876(5) 0.09338(15) 0.08521(6)
H4 H 0.2974 0.0693 0.0535
C6 C 0.3670(4) 0.21162(15) 0.09927(6)
H5 H 0.2618 0.2684 0.0772
C7 C 0.4702(4) 0.37248(14) 0.16262(6)
C8 C 0.3401(5) 0.51143(15) 0.21854(6)
H6 H 0.2635 0.5468 0.2481
C9 C 0.4565(4) 0.57192(15) 0.17813(6)
C10 C 0.4784(5) 0.70064(16) 0.17638(7)
H7 H 0.5661 0.7361 0.1475
C11 C 0.5402(4) 0.48271(14) 0.14186(6)
C12 C 0.6898(4) 0.49925(14) 0.09310(6)
C13 C 0.9079(4) 0.63644(14) 0.03574(6)
H8 H 0.7308 0.6193 0.0089
H9 H 1.1128 0.5842 0.0314
C14 C 1.0162(5) 0.76554(15) 0.03413(7)
H10 H 0.8095 0.8163 0.0367
H11 H 1.1264 0.7818 0.0028
H12 H 1.1830 0.7824 0.0618
H13 H 0.291(6) 0.339(2) 0.2318(8)
N1 N 0.3531(4) 0.39348(13) 0.20914(5)
O1 O 0.3914(4) 0.76646(11) 0.20960(5)
O2 O 0.7448(3) 0.42096(10) 0.06382(4)
O3 O 0.7619(3) 0.61511(9) 0.08383(4)
loop_
_geom_bond_atom_site_label_1
_geom_bond_atom_site_label_2
_geom_bond_site_symmetry_1
_geom_bond_site_symmetry_2
C1 C2 1_555 1_555
C2 H1 1_555 1_555
C3 C2 1_555 1_555
H2 C3 1_555 1_555
C4 C3 1_555 1_555
H3 C4 1_555 1_555
C5 C4 1_555 1_555
H4 C5 1_555 1_555
C6 C1 1_555 1_555
H5 C6 1_555 1_555
C7 C1 1_555 1_555
C8 H6 1_555 1_555
C9 C8 1_555 1_555
C10 C9 1_555 1_555
H7 C10 1_555 1_555
C11 C7 1_555 1_555
C12 C11 1_555 1_555
C13 H8 1_555 1_555
H9 C13 1_555 1_555
C14 C13 1_555 1_555
H10 C14 1_555 1_555
H11 C14 1_555 1_555
H12 C14 1_555 1_555
H13 N1 1_555 1_555
N1 C7 1_555 1_555
O1 C10 1_555 1_555
O2 C12 1_555 1_555
O3 C12 1_555 1_555
C5 C6 1_555 1_555
C8 N1 1_555 1_555
C9 C11 1_555 1_555
C13 O3 1_555 1_555

#END
