
#######################################################################
#
#                 Cambridge Crystallographic Data Centre
#                                CCDC 
#
#######################################################################
#
# If this CIF has been generated from an entry in the Cambridge 
# Structural Database, then it will include bibliographic, chemical, 
# crystal, experimental, refinement or atomic coordinate data resulting 
# from the CCDC's data processing and validation procedures.
#
#######################################################################

data_SAHXIK
_chemical_formula_moiety         'C21 H19 Cl1 N2 O3 S2'
_chemical_name_systematic        
'Ethyl 7-(4-chlorophenyl)-3-cyano-4-(1,3-dithiolan-2-ylidene)-5-oxo-1,3a,4,5,6,7-hexahydro-7aH-indole-7a-carboxylate'
_symmetry_cell_setting           monoclinic
_symmetry_space_group_name_H-M   'C 2/c'
_symmetry_Int_Tables_number      15
_space_group_name_Hall           '-C 2yn'
loop_
_symmetry_equiv_pos_site_id
_symmetry_equiv_pos_as_xyz
1 x,y,z
2 -x,y,1/2-z
3 1/2+x,1/2+y,z
4 1/2-x,1/2+y,1/2-z
5 -x,-y,-z
6 x,-y,1/2+z
7 1/2-x,1/2-y,-z
8 1/2+x,1/2-y,1/2+z
_cell_length_a                   40.139(6)
_cell_length_b                   9.4559(13)
_cell_length_c                   11.1246(14)
_cell_angle_alpha                90
_cell_angle_beta                 100.587(2)
_cell_angle_gamma                90
_cell_volume                     4150.47
_exptl_crystal_colour            white
_exptl_crystal_description       block
_cell_formula_units_Z            8
loop_
_atom_site_label
_atom_site_type_symbol
_atom_site_fract_x
_atom_site_fract_y
_atom_site_fract_z
H1 H 0.1189(7) 0.390(3) 0.297(2)
Cl1 Cl 0.27160(2) 0.44215(11) 0.30523(8)
S1 S 0.06973(2) 0.03929(10) 0.78278(7)
S2 S 0.046243(18) 0.32956(9) 0.73034(6)
O1 O 0.11346(6) -0.0273(2) 0.6340(2)
O2 O 0.13687(5) 0.6011(2) 0.41503(17)
O3 O 0.13199(6) 0.5679(2) 0.60851(17)
N1 N 0.10849(5) 0.3543(3) 0.33795(18)
N2 N -0.00241(7) 0.2652(5) 0.4042(2)
C1 C 0.23666(6) 0.3915(3) 0.3681(3)
C2 C 0.23405(6) 0.4364(3) 0.4829(3)
H2 H 0.2509 0.4928 0.5277
C3 C 0.20621(6) 0.3971(3) 0.5315(2)
H3 H 0.2045 0.4274 0.6097
C4 C 0.18074(6) 0.3132(3) 0.4664(2)
C5 C 0.18441(6) 0.2658(3) 0.3514(2)
H4 H 0.1680 0.2071 0.3070
C6 C 0.21249(7) 0.3059(3) 0.3022(2)
H5 H 0.2148 0.2746 0.2249
C7 C 0.14982(5) 0.2775(3) 0.5209(2)
H6 H 0.1558 0.2955 0.6090
C8 C 0.13859(6) 0.1237(3) 0.5051(2)
H7 H 0.1289 0.1065 0.4199
H8 H 0.1582 0.0626 0.5271
C9 C 0.11284(6) 0.0881(3) 0.5834(2)
C10 C 0.08958(6) 0.2012(3) 0.6021(2)
C11 C 0.08673(5) 0.3327(3) 0.5236(2)
H9 H 0.0805 0.4126 0.5710
C12 C 0.11913(5) 0.3739(3) 0.46987(19)
C13 C 0.07480(6) 0.3314(3) 0.3085(2)
H10 H 0.0630 0.3259 0.2284
C14 C 0.06011(6) 0.3175(3) 0.4062(2)
C15 C 0.02562(7) 0.2881(4) 0.4043(2)
C16 C 0.12937(6) 0.5255(3) 0.5059(2)
C17 C 0.14952(10) 0.7439(3) 0.4439(4)
H11 H 0.1321 0.8112 0.4100
H12 H 0.1541 0.7558 0.5320
C18 C 0.17829(12) 0.7736(5) 0.4000(5)
H13 H 0.1812 0.8742 0.3969
H14 H 0.1765 0.7348 0.3193
H15 H 0.1975 0.7325 0.4528
C19 C 0.07104(6) 0.1897(3) 0.6930(2)
C20 C 0.04187(8) 0.1129(5) 0.8797(3)
H16 H 0.0185 0.0889 0.8467
H17 H 0.0477 0.0740 0.9615
C21 C 0.04608(8) 0.2696(5) 0.8840(3)
H18 H 0.0672 0.2949 0.9371
H19 H 0.0276 0.3134 0.9155
loop_
_geom_bond_atom_site_label_1
_geom_bond_atom_site_label_2
_geom_bond_site_symmetry_1
_geom_bond_site_symmetry_2
H1 N1 1_555 1_555
Cl1 C1 1_555 1_555
S1 C19 1_555 1_555
S2 C19 1_555 1_555
O1 C9 1_555 1_555
O2 C16 1_555 1_555
O3 C16 1_555 1_555
N1 C12 1_555 1_555
N2 C15 1_555 1_555
C1 C2 1_555 1_555
C2 H2 1_555 1_555
C3 C2 1_555 1_555
H3 C3 1_555 1_555
C4 C3 1_555 1_555
C5 C4 1_555 1_555
H4 C5 1_555 1_555
C6 C1 1_555 1_555
H5 C6 1_555 1_555
C7 C4 1_555 1_555
H6 C7 1_555 1_555
C8 C7 1_555 1_555
H7 C8 1_555 1_555
H8 C8 1_555 1_555
C9 C8 1_555 1_555
C10 C9 1_555 1_555
C11 C10 1_555 1_555
H9 C11 1_555 1_555
C12 C7 1_555 1_555
C13 N1 1_555 1_555
H10 C13 1_555 1_555
C14 C11 1_555 1_555
C15 C14 1_555 1_555
C16 C12 1_555 1_555
C17 O2 1_555 1_555
H11 C17 1_555 1_555
H12 C17 1_555 1_555
C18 C17 1_555 1_555
H13 C18 1_555 1_555
H14 C18 1_555 1_555
H15 C18 1_555 1_555
C19 C10 1_555 1_555
C20 S1 1_555 1_555
H16 C20 1_555 1_555
H17 C20 1_555 1_555
C21 S2 1_555 1_555
H18 C21 1_555 1_555
H19 C21 1_555 1_555
C5 C6 1_555 1_555
C11 C12 1_555 1_555
C13 C14 1_555 1_555
C20 C21 1_555 1_555

#END
