
#######################################################################
#
#                 Cambridge Crystallographic Data Centre
#                                CCDC 
#
#######################################################################
#
# If this CIF has been generated from an entry in the Cambridge 
# Structural Database, then it will include bibliographic, chemical, 
# crystal, experimental, refinement or atomic coordinate data resulting 
# from the CCDC's data processing and validation procedures.
#
#######################################################################

data_SAJDUC
_chemical_formula_moiety         'C22 H36 S4 Se4'
_chemical_name_systematic        tetrakis(n-Butylseleno)tetrathiafulvalene
_symmetry_cell_setting           triclinic
_symmetry_space_group_name_H-M   'P -1'
_symmetry_Int_Tables_number      2
_space_group_name_Hall           '-P 1'
loop_
_symmetry_equiv_pos_site_id
_symmetry_equiv_pos_as_xyz
1 x,y,z
2 -x,-y,-z
_cell_length_a                   9.198(1)
_cell_length_b                   10.539(2)
_cell_length_c                   8.248(2)
_cell_angle_alpha                113.16(2)
_cell_angle_beta                 96.02(2)
_cell_angle_gamma                90.61(2)
_cell_volume                     729.875
_exptl_crystal_colour            'dark red'
_cell_formula_units_Z            1
loop_
_atom_site_label
_atom_site_type_symbol
_atom_site_fract_x
_atom_site_fract_y
_atom_site_fract_z
Se1 Se 0.9937(1) 0.1810(1) 0.8555(1)
Se2 Se 0.7411(1) 0.4346(1) 0.9888(1)
S1 S 0.5178(2) 0.2146(1) 0.6995(2)
S2 S 0.7266(2) -0.0074(1) 0.6068(2)
C1 C 0.7921(6) 0.1566(5) 0.7623(7)
C2 C 0.5507(5) 0.0441(5) 0.5641(7)
C3 C 0.6997(6) 0.2549(5) 0.8026(7)
C4 C 1.0488(6) -0.0089(6) 0.7636(8)
C5 C 1.2062(6) -0.0167(7) 0.8327(8)
C6 C 1.2546(7) -0.1643(7) 0.7538(10)
C7 C 0.6875(7) 0.5454(6) 0.8516(9)
C8 C 0.7923(8) 0.5531(7) 0.7161(10)
C9 C 1.4124(8) -0.1777(9) 0.8139(11)
C10 C 0.7466(10) 0.6258(8) 0.6212(11)
C11 C 0.8458(9) 0.6208(9) 0.4839(12)
H1 H 1.217(5) 0.012(5) 0.948(6)
H2 H 1.196(5) -0.217(5) 0.792(6)
H3 H 0.583(5) 0.528(5) 0.806(6)
H4 H 0.818(5) 0.446(5) 0.652(6)
H5 H 1.272(5) 0.042(5) 0.801(6)
H6 H 0.672(5) 0.628(5) 0.934(6)
H7 H 0.718(5) 0.720(5) 0.712(6)
H8 H 1.220(5) -0.187(5) 0.614(6)
H9 H 0.955(5) 0.640(5) 0.563(7)
H10 H 0.855(5) 0.519(5) 0.408(7)
H11 H 0.806(5) 0.665(5) 0.393(7)
H12 H 1.039(5) -0.031(5) 0.660(7)
H13 H 0.995(5) -0.057(5) 0.797(7)
H14 H 1.478(5) -0.114(5) 0.795(7)
H15 H 1.435(6) -0.158(5) 0.956(7)
H16 H 1.442(6) -0.257(5) 0.815(7)
C2A C 0.4493(5) -0.0441(5) 0.4359(7)
S1A S 0.4822(2) -0.2146(1) 0.3005(2)
C3A C 0.3003(6) -0.2549(5) 0.1974(7)
Se2A Se 0.2589(1) -0.4346(1) 0.0112(1)
C7A C 0.3125(7) -0.5454(6) 0.1484(9)
C8A C 0.2077(8) -0.5531(7) 0.2839(10)
C10A C 0.2534(10) -0.6258(8) 0.3788(11)
C11A C 0.1542(9) -0.6208(9) 0.5161(12)
H9A H 0.045(5) -0.640(5) 0.437(7)
H10A H 0.145(5) -0.519(5) 0.592(7)
H11A H 0.194(5) -0.665(5) 0.607(7)
H7A H 0.282(5) -0.720(5) 0.288(6)
H4A H 0.182(5) -0.446(5) 0.348(6)
H3A H 0.417(5) -0.528(5) 0.194(6)
H6A H 0.328(5) -0.628(5) 0.066(6)
C1A C 0.2079(6) -0.1566(5) 0.2377(7)
Se1A Se 0.0063(1) -0.1810(1) 0.1445(1)
C4A C -0.0488(6) 0.0089(6) 0.2364(8)
C5A C -0.2062(6) 0.0167(7) 0.1673(8)
C6A C -0.2546(7) 0.1643(7) 0.2462(10)
C9A C -0.4124(8) 0.1777(9) 0.1861(11)
H14A H -0.478(5) 0.114(5) 0.205(7)
H15A H -0.435(6) 0.158(5) 0.044(7)
H16A H -0.442(6) 0.257(5) 0.185(7)
H2A H -0.196(5) 0.217(5) 0.208(6)
H8A H -0.220(5) 0.187(5) 0.386(6)
H1A H -0.217(5) -0.012(5) 0.052(6)
H5A H -0.272(5) -0.042(5) 0.199(6)
H12A H -0.039(5) 0.031(5) 0.340(7)
H13A H 0.005(5) 0.057(5) 0.203(7)
S2A S 0.2734(2) 0.0074(1) 0.3932(2)
H17? H 0.688(5) 0.536(5) 0.650(6)
H18? H 0.738(5) 0.576(5) 0.499(6)
loop_
_geom_bond_atom_site_label_1
_geom_bond_atom_site_label_2
_geom_bond_site_symmetry_1
_geom_bond_site_symmetry_2
Se1 C1 1_555 1_555
Se2 C3 1_555 1_555
S1 C2 1_555 1_555
S2 C1 1_555 1_555
C1 C3 1_555 1_555
C2 S2 1_555 1_555
C3 S1 1_555 1_555
C4 Se1 1_555 1_555
C5 C4 1_555 1_555
C6 C5 1_555 1_555
C7 Se2 1_555 1_555
C8 C7 1_555 1_555
C9 C6 1_555 1_555
C10 C8 1_555 1_555
C11 C10 1_555 1_555
H1 C5 1_555 1_555
H2 C6 1_555 1_555
H3 C7 1_555 1_555
H4 C8 1_555 1_555
H5 C5 1_555 1_555
H6 C7 1_555 1_555
H7 C10 1_555 1_555
H8 C6 1_555 1_555
H9 C11 1_555 1_555
H10 C11 1_555 1_555
H11 C11 1_555 1_555
H12 C4 1_555 1_555
H13 C4 1_555 1_555
H14 C9 1_555 1_555
H15 C9 1_555 1_555
H16 C9 1_555 1_555
C2A C2 1_555 1_555
S1A C2A 1_555 1_555
C3A S1A 1_555 1_555
Se2A C3A 1_555 1_555
C7A Se2A 1_555 1_555
C8A C7A 1_555 1_555
C10A C8A 1_555 1_555
C11A C10A 1_555 1_555
H9A C11A 1_555 1_555
H10A C11A 1_555 1_555
H11A C11A 1_555 1_555
H7A C10A 1_555 1_555
H4A C8A 1_555 1_555
H3A C7A 1_555 1_555
H6A C7A 1_555 1_555
C1A C3A 1_555 1_555
Se1A C1A 1_555 1_555
C4A Se1A 1_555 1_555
C5A C4A 1_555 1_555
C6A C5A 1_555 1_555
C9A C6A 1_555 1_555
H14A C9A 1_555 1_555
H15A C9A 1_555 1_555
H16A C9A 1_555 1_555
H2A C6A 1_555 1_555
H8A C6A 1_555 1_555
H1A C5A 1_555 1_555
H5A C5A 1_555 1_555
H12A C4A 1_555 1_555
H13A C4A 1_555 1_555
S2A C2A 1_555 1_555
C1A S2A 1_555 1_555

#END
