
#######################################################################
#
#                 Cambridge Crystallographic Data Centre
#                                CCDC 
#
#######################################################################
#
# If this CIF has been generated from an entry in the Cambridge 
# Structural Database, then it will include bibliographic, chemical, 
# crystal, experimental, refinement or atomic coordinate data resulting 
# from the CCDC's data processing and validation procedures.
#
#######################################################################

data_SAJGAN
_chemical_formula_moiety         'C18 H15 Br1 F3 N3 O4'
_chemical_name_systematic        
6-Bromo-1-(4-methoxybenzyl)-4-(nitromethyl)-4-(trifluoromethyl)-3,4-dihydroquinazolin-2(1H)-one
_symmetry_cell_setting           triclinic
_symmetry_space_group_name_H-M   'P 1'
_symmetry_Int_Tables_number      1
_space_group_name_Hall           'P 1'
loop_
_symmetry_equiv_pos_site_id
_symmetry_equiv_pos_as_xyz
1 x,y,z
_cell_length_a                   9.6915(5)
_cell_length_b                   10.3542(6)
_cell_length_c                   10.4267(6)
_cell_angle_alpha                85.382(3)
_cell_angle_beta                 81.630(3)
_cell_angle_gamma                69.193(3)
_cell_volume                     967.172
_exptl_crystal_colour            colorless
_exptl_crystal_description       irregular
_cell_formula_units_Z            2
loop_
_atom_site_label
_atom_site_type_symbol
_atom_site_fract_x
_atom_site_fract_y
_atom_site_fract_z
Br1 Br 1.35132(5) 0.51293(6) 0.43451(5)
O1 O 0.9633(3) 0.1353(3) 1.0108(3)
O2 O 1.5754(6) 0.1272(5) 0.7448(6)
O3 O 1.4133(8) 0.0468(7) 0.7934(7)
O4 O 0.3641(4) 0.7488(3) 0.8795(4)
N1 N 0.9859(3) 0.2494(3) 0.8175(3)
N2 N 1.1561(3) 0.2090(3) 0.9651(3)
H1 H 1.1964 0.1579 1.0284
N3 N 1.4720(4) 0.1218(4) 0.8186(5)
F1 F 1.0186(3) 0.4892(3) 0.9814(3)
F2 F 1.1971(3) 0.4150(3) 1.0988(2)
F3 F 1.2204(3) 0.5333(3) 0.9234(3)
C1 C 1.2354(5) 0.4334(5) 0.5524(5)
C2 C 1.1080(5) 0.4190(5) 0.5193(4)
H2 H 1.0783 0.4499 0.4381
C3 C 1.0253(4) 0.3590(4) 0.6064(4)
H3 H 0.9413 0.3481 0.5827
C4 C 1.0668(4) 0.3143(4) 0.7305(4)
C5 C 1.0319(4) 0.1954(4) 0.9350(4)
C6 C 1.2281(4) 0.3012(4) 0.9014(3)
C7 C 1.1907(4) 0.3345(4) 0.7644(4)
C8 C 1.2747(5) 0.3923(5) 0.6739(5)
H4 H 1.3591 0.4032 0.6966
C9 C 0.8419(4) 0.2437(4) 0.7891(4)
H5 H 0.8197 0.1703 0.8419
H6 H 0.8510 0.2219 0.6988
C10 C 0.7162(4) 0.3775(4) 0.8156(4)
C11 C 0.6281(5) 0.4498(4) 0.7198(4)
H7 H 0.6497 0.4147 0.6370
C12 C 0.5104(5) 0.5713(4) 0.7445(4)
H8 H 0.4516 0.6158 0.6800
C13 C 0.4808(5) 0.6263(4) 0.8660(5)
C14 C 0.5605(6) 0.5552(6) 0.9643(5)
H9 H 0.5351 0.5881 1.0480
C15 C 0.6806(5) 0.4324(5) 0.9359(5)
H10 H 0.7378 0.3869 1.0012
C16 C 0.3240(7) 0.8065(7) 1.0064(7)
H11 H 0.3143 0.7368 1.0698
H12 H 0.2311 0.8823 1.0087
H13 H 0.4000 0.8389 1.0252
C17 C 1.1661(5) 0.4373(4) 0.9767(4)
C18 C 1.3953(4) 0.2401(4) 0.9120(3)
H14 H 1.4388 0.3115 0.8918
H15 H 1.4106 0.2061 1.0001
Br2 Br -0.17637(6) 0.76590(6) 0.80939(5)
O5 O 0.2135(3) 1.1274(3) 0.2211(3)
O6 O -0.0212(8) 0.7552(9) 0.1542(9)
O7 O 0.1272(9) 0.7918(8) 0.2799(8)
O8 O 0.8002(4) 0.5413(3) 0.3738(3)
N4 N 0.1764(4) 1.0406(3) 0.4253(3)
N5 N 0.0060(4) 1.0773(4) 0.2762(4)
H16 H -0.0158 1.1048 0.1992
N6 N -0.0163(8) 0.8085(5) 0.2437(5)
F4 F -0.2885(3) 1.2189(2) 0.2726(2)
F5 F -0.3530(3) 1.1262(3) 0.4505(3)
F6 F -0.2193(4) 1.2506(3) 0.4494(3)
C19 C -0.0658(5) 0.8534(5) 0.6926(4)
C20 C 0.0658(5) 0.8588(5) 0.7206(5)
H17 H 0.1017 0.8201 0.7981
C21 C 0.1440(5) 0.9215(5) 0.6339(4)
H18 H 0.2325 0.9263 0.6538
C22 C 0.0934(4) 0.9788(4) 0.5152(4)
C23 C 0.1370(4) 1.0837(4) 0.3043(4)
C24 C -0.0997(4) 1.0303(4) 0.3593(3)
C25 C -0.0406(4) 0.9704(4) 0.4879(4)
C26 C -0.1192(5) 0.9093(4) 0.5761(4)
H19 H -0.2087 0.9050 0.5582
C27 C 0.3171(4) 1.0483(4) 0.4519(4)
H20 H 0.3067 1.0738 0.5413
H21 H 0.3386 1.1205 0.3967
C28 C 0.4467(4) 0.9141(4) 0.4298(4)
C29 C 0.5349(4) 0.8489(4) 0.5256(4)
H22 H 0.5153 0.8890 0.6060
C30 C 0.6517(4) 0.7251(4) 0.5041(4)
H23 H 0.7088 0.6827 0.5703
C31 C 0.6836(5) 0.6648(4) 0.3867(5)
C32 C 0.5978(5) 0.7291(5) 0.2874(5)
H24 H 0.6183 0.6884 0.2072
C33 C 0.4823(5) 0.8535(5) 0.3089(5)
H25 H 0.4275 0.8975 0.2418
C34 C 0.8365(8) 0.4806(5) 0.2502(6)
H26 H 0.7562 0.4538 0.2323
H27 H 0.9254 0.4006 0.2500
H28 H 0.8524 0.5464 0.1849
C35 C -0.2429(4) 1.1572(4) 0.3845(4)
C36 C -0.1425(5) 0.9311(4) 0.2876(4)
H29 H -0.2153 0.9018 0.3443
H30 H -0.1892 0.9796 0.2130
O9? O 1.4436(17) 0.0127(15) 0.8495(16)
O10? O 0.0398(16) 0.7323(14) 0.3118(14)
loop_
_geom_bond_atom_site_label_1
_geom_bond_atom_site_label_2
_geom_bond_site_symmetry_1
_geom_bond_site_symmetry_2
Br1 C1 1_555 1_555
O1 C5 1_555 1_555
O2 N3 1_555 1_555
O3 N3 1_555 1_555
O4 C13 1_555 1_555
N1 C4 1_555 1_555
N2 H1 1_555 1_555
N3 C18 1_555 1_555
F1 C17 1_555 1_555
F2 C17 1_555 1_555
F3 C17 1_555 1_555
C1 C2 1_555 1_555
C2 H2 1_555 1_555
C3 C2 1_555 1_555
H3 C3 1_555 1_555
C4 C3 1_555 1_555
C5 N1 1_555 1_555
C6 N2 1_555 1_555
C7 C4 1_555 1_555
C8 C1 1_555 1_555
H4 C8 1_555 1_555
C9 N1 1_555 1_555
H5 C9 1_555 1_555
H6 C9 1_555 1_555
C10 C9 1_555 1_555
C11 C10 1_555 1_555
H7 C11 1_555 1_555
C12 C11 1_555 1_555
H8 C12 1_555 1_555
C13 C12 1_555 1_555
C14 C13 1_555 1_555
H9 C14 1_555 1_555
C15 C10 1_555 1_555
H10 C15 1_555 1_555
C16 O4 1_555 1_555
H11 C16 1_555 1_555
H12 C16 1_555 1_555
H13 C16 1_555 1_555
C17 C6 1_555 1_555
C18 C6 1_555 1_555
H14 C18 1_555 1_555
H15 C18 1_555 1_555
Br2 C19 1_555 1_555
O5 C23 1_555 1_555
O6 N6 1_555 1_555
O7 N6 1_555 1_555
O8 C31 1_555 1_555
N4 C22 1_555 1_555
N5 H16 1_555 1_555
N6 C36 1_555 1_555
F4 C35 1_555 1_555
F5 C35 1_555 1_555
F6 C35 1_555 1_555
C19 C20 1_555 1_555
C20 H17 1_555 1_555
C21 C20 1_555 1_555
H18 C21 1_555 1_555
C22 C21 1_555 1_555
C23 N4 1_555 1_555
C24 N5 1_555 1_555
C25 C22 1_555 1_555
C26 C19 1_555 1_555
H19 C26 1_555 1_555
C27 N4 1_555 1_555
H20 C27 1_555 1_555
H21 C27 1_555 1_555
C28 C27 1_555 1_555
C29 C28 1_555 1_555
H22 C29 1_555 1_555
C30 C29 1_555 1_555
H23 C30 1_555 1_555
C31 C30 1_555 1_555
C32 C31 1_555 1_555
H24 C32 1_555 1_555
C33 C28 1_555 1_555
H25 C33 1_555 1_555
C34 O8 1_555 1_555
H26 C34 1_555 1_555
H27 C34 1_555 1_555
H28 C34 1_555 1_555
C35 C24 1_555 1_555
C36 C24 1_555 1_555
H29 C36 1_555 1_555
H30 C36 1_555 1_555
N2 C5 1_555 1_555
C6 C7 1_555 1_555
C7 C8 1_555 1_555
C14 C15 1_555 1_555
N5 C23 1_555 1_555
C24 C25 1_555 1_555
C25 C26 1_555 1_555
C32 C33 1_555 1_555

#END
