
#######################################################################
#
#                 Cambridge Crystallographic Data Centre
#                                CCDC 
#
#######################################################################
#
# If this CIF has been generated from an entry in the Cambridge 
# Structural Database, then it will include bibliographic, chemical, 
# crystal, experimental, refinement or atomic coordinate data resulting 
# from the CCDC's data processing and validation procedures.
#
#######################################################################

data_SAJHOB
_chemical_formula_moiety         'C19 H21 N7 O2 2+,2(F6 P1 1-),1.5(H2 O1)'
_chemical_name_systematic        
'2,6-bis(5,6,7,8-Tetrahydro-5-oxoimidazo(1,5-c)pyridin-2-ium-2-ylmethyl)pyridine bis(hexafluorophosphate) sesquihydrate'
_symmetry_cell_setting           triclinic
_symmetry_space_group_name_H-M   'P -1'
_symmetry_Int_Tables_number      2
_space_group_name_Hall           '-P 1'
loop_
_symmetry_equiv_pos_site_id
_symmetry_equiv_pos_as_xyz
1 x,y,z
2 -x,-y,-z
_cell_length_a                   10.4302(9)
_cell_length_b                   12.5948(11)
_cell_length_c                   21.4179(19)
_cell_angle_alpha                94.955(2)
_cell_angle_beta                 101.215(2)
_cell_angle_gamma                90.842(2)
_cell_volume                     2748.12
_exptl_crystal_colour            colorless
_exptl_crystal_description       plate
_cell_formula_units_Z            4
_exptl_crystal_recrystallization_method acetonitrile/water
loop_
_atom_site_label
_atom_site_type_symbol
_atom_site_fract_x
_atom_site_fract_y
_atom_site_fract_z
P2 P 0.27784(14) 0.85898(13) 0.49176(7)
F7 F 0.2270(5) 0.8932(5) 0.4236(2)
F8 F 0.4224(4) 0.8662(5) 0.4794(2)
F9 F 0.2956(6) 0.9733(4) 0.5269(3)
F10 F 0.3279(4) 0.8180(5) 0.56046(17)
F11 F 0.1321(3) 0.8519(3) 0.50321(18)
F12 F 0.2639(4) 0.7377(3) 0.46341(18)
P3 P 0.5000 0.0000 0.0000
F13 F 0.6270(3) -0.0453(3) 0.04031(16)
F14 F 0.5264(3) 0.1107(2) 0.04276(15)
F15 F 0.4141(2) -0.04213(18) 0.04785(10)
F13A F 0.3730(3) 0.0453(3) -0.04031(16)
F14A F 0.4736(3) -0.1107(2) -0.04276(15)
F15A F 0.5859(2) 0.04213(18) -0.04785(10)
P4 P 0.0000 0.5000 0.0000
F16 F 0.0246(3) 0.61752(18) 0.03485(13)
F17 F -0.0915(2) 0.4723(2) 0.04844(12)
F18 F 0.1249(2) 0.46105(18) 0.04785(11)
F16A F -0.0246(3) 0.38248(18) -0.03485(13)
F17A F 0.0915(2) 0.5277(2) -0.04844(12)
F18A F -0.1249(2) 0.53895(18) -0.04785(11)
P5 P 0.59594(10) 0.42577(8) 0.22538(6)
F19 F 0.4469(3) 0.4441(3) 0.1994(3)
F20 F 0.5782(3) 0.3130(2) 0.18538(17)
F21 F 0.5572(5) 0.3731(4) 0.2849(2)
F22 F 0.7432(3) 0.4054(2) 0.25365(18)
F23 F 0.6117(3) 0.5393(2) 0.26554(19)
F24 F 0.6398(4) 0.4757(3) 0.16819(17)
O1 O 0.8795(3) 0.5359(2) 0.77297(15)
O2 O 0.3346(3) 0.1751(3) 0.65975(14)
N1 N 0.7419(4) 0.4917(3) 0.67855(18)
H1 H 0.7849 0.5327 0.6579
N2 N 0.7307(3) 0.3988(2) 0.76493(15)
N3 N 0.6785(3) 0.3015(2) 0.83400(15)
N4 N 0.4501(3) 0.2717(2) 0.89360(14)
N5 N 0.1973(3) 0.2902(2) 0.81712(14)
N6 N 0.2054(3) 0.2712(2) 0.71783(15)
N7 N 0.1682(4) 0.2663(3) 0.60817(17)
H2 H 0.1930 0.2554 0.5712
C1 C 0.7918(4) 0.4835(3) 0.73922(19)
C2 C 0.6221(6) 0.4391(6) 0.6429(2)
H5 H 0.6226 0.4368 0.5966
H6 H 0.5467 0.4810 0.6512
C3 C 0.6058(6) 0.3269(5) 0.6606(2)
H7 H 0.5148 0.3003 0.6437
H8 H 0.6651 0.2794 0.6412
C4 C 0.6362(4) 0.3250(4) 0.7314(2)
C5 C 0.6037(4) 0.2653(3) 0.7748(2)
H9 H 0.5405 0.2081 0.7666
C6 C 0.7530(4) 0.3824(3) 0.82676(17)
H10 H 0.8126 0.4225 0.8599
C7 C 0.6797(4) 0.2542(3) 0.8943(2)
H11 H 0.7648 0.2715 0.9234
H12 H 0.6704 0.1757 0.8857
C8 C 0.5709(3) 0.2942(3) 0.92653(17)
C9 C 0.5987(4) 0.3472(3) 0.98718(18)
H13 H 0.6866 0.3611 1.0088
C10 C 0.4956(4) 0.3795(3) 1.01566(18)
H14 H 0.5110 0.4151 1.0575
C11 C 0.3694(4) 0.3585(3) 0.98150(17)
H15 H 0.2964 0.3809 0.9992
C12 C 0.3513(3) 0.3043(3) 0.92097(16)
C13 C 0.2161(4) 0.2723(3) 0.88479(17)
H16 H 0.1993 0.1958 0.8886
H17 H 0.1516 0.3135 0.9044
C14 C 0.2504(4) 0.2352(3) 0.77401(17)
H18 H 0.3104 0.1796 0.7819
C15 C 0.1164(3) 0.3653(3) 0.78682(18)
H19 H 0.0669 0.4159 0.8067
C16 C 0.1212(4) 0.3534(3) 0.72468(18)
C17 C 0.0655(4) 0.4056(4) 0.6658(2)
H20 H 0.1263 0.4628 0.6592
H21 H -0.0188 0.4377 0.6700
C18 C 0.0453(5) 0.3212(5) 0.6101(2)
H22 H -0.0236 0.2690 0.6144
H23 H 0.0164 0.3546 0.5697
C19 C 0.2427(4) 0.2327(3) 0.65885(17)
O3 O 0.8890(3) 0.6823(3) 0.64717(15)
O4 O 0.4390(3) 1.0348(2) 0.77488(13)
N8 N 0.9537(4) 0.8376(3) 0.61317(16)
H3 H 0.9064 0.8229 0.5745
N9 N 1.0519(3) 0.7870(3) 0.71140(15)
N10 N 1.1490(3) 0.7862(2) 0.80915(15)
N11 N 0.9590(3) 0.7636(2) 0.88820(13)
N12 N 0.6818(3) 0.8000(2) 0.83217(14)
N13 N 0.5784(3) 0.9003(2) 0.76500(14)
N14 N 0.5011(3) 0.9951(3) 0.67921(15)
H4 H 0.4427 1.0360 0.6587
C20 C 0.9566(4) 0.7635(3) 0.65366(19)
C21 C 1.0224(5) 0.9422(4) 0.6270(2)
H24 H 0.9704 0.9926 0.6491
H25 H 1.0318 0.9707 0.5864
C22 C 1.1555(4) 0.9336(4) 0.6682(2)
H26 H 1.2150 0.8990 0.6424
H27 H 1.1922 1.0058 0.6848
C23 C 1.1457(4) 0.8697(3) 0.72261(19)
C24 C 1.2057(4) 0.8688(3) 0.78412(19)
H28 H 1.2744 0.9162 0.8064
C25 C 1.0568(4) 0.7384(3) 0.76493(18)
H29 H 1.0028 0.6796 0.7700
C26 C 1.1828(4) 0.7576(3) 0.87499(18)
H30 H 1.2691 0.7907 0.8956
H31 H 1.1900 0.6793 0.8747
C27 C 1.0821(3) 0.7938(3) 0.91367(16)
C28 C 1.1196(4) 0.8505(3) 0.97304(17)
H32 H 1.2088 0.8707 0.9893
C29 C 1.0254(4) 0.8770(3) 1.00770(18)
H33 H 1.0481 0.9147 1.0489
C30 C 0.8968(4) 0.8477(3) 0.98165(17)
H34 H 0.8291 0.8662 1.0042
C31 C 0.8683(3) 0.7908(3) 0.92190(16)
C32 C 0.7305(4) 0.7533(3) 0.89227(18)
H35 H 0.7275 0.6746 0.8841
H36 H 0.6725 0.7725 0.9227
C33 C 0.6059(3) 0.8830(3) 0.82662(17)
H37 H 0.5763 0.9231 0.8604
C34 C 0.7045(4) 0.7637(3) 0.77259(17)
H38 H 0.7569 0.7055 0.7635
C35 C 0.6391(3) 0.8258(3) 0.72996(17)
C36 C 0.6114(4) 0.8282(3) 0.65978(18)
H39 H 0.5309 0.7851 0.6408
H40 H 0.6846 0.7972 0.6418
C37 C 0.5940(4) 0.9435(3) 0.64349(18)
H41 H 0.6793 0.9829 0.6547
H42 H 0.5607 0.9450 0.5970
C38 C 0.4989(3) 0.9844(3) 0.74009(17)
P1 P 0.08557(9) 0.92591(7) 0.20620(5)
F1 F 0.1896(4) 0.9553(3) 0.1650(2)
F2 F -0.0289(4) 0.9634(2) 0.15361(15)
F3 F 0.1022(2) 1.0428(2) 0.24301(14)
F4 F -0.0211(4) 0.8965(2) 0.24568(16)
F5 F 0.1990(4) 0.8885(3) 0.2573(2)
F6 F 0.0696(2) 0.80932(18) 0.16877(12)
loop_
_geom_bond_atom_site_label_1
_geom_bond_atom_site_label_2
_geom_bond_site_symmetry_1
_geom_bond_site_symmetry_2
P1 F1 1_555 1_555
P2 F7 1_555 1_555
P3 F13 1_555 1_555
P4 F16 1_555 1_555
P5 F19 1_555 1_555
F2 P1 1_555 1_555
F3 P1 1_555 1_555
F4 P1 1_555 1_555
F5 P1 1_555 1_555
F6 P1 1_555 1_555
F8 P2 1_555 1_555
F9 P2 1_555 1_555
F10 P2 1_555 1_555
F11 P2 1_555 1_555
F12 P2 1_555 1_555
F14 P3 1_555 1_555
F15 P3 1_555 1_555
F17 P4 1_555 1_555
F18 P4 1_555 1_555
F20 P5 1_555 1_555
F21 P5 1_555 1_555
F22 P5 1_555 1_555
F23 P5 1_555 1_555
F24 P5 1_555 1_555
O1 C1 1_555 1_555
O2 C19 1_555 1_555
O3 C20 1_555 1_555
O4 C38 1_555 1_555
N1 H1 1_555 1_555
N2 C1 1_555 1_555
N3 C5 1_555 1_555
N4 C8 1_555 1_555
N5 C13 1_555 1_555
N6 C14 1_555 1_555
N7 H2 1_555 1_555
N8 H3 1_555 1_555
N9 C20 1_555 1_555
N10 C24 1_555 1_555
N11 C27 1_555 1_555
N12 C32 1_555 1_555
N13 C33 1_555 1_555
N14 H4 1_555 1_555
C1 N1 1_555 1_555
C2 N1 1_555 1_555
H5 C2 1_555 1_555
H6 C2 1_555 1_555
C3 C2 1_555 1_555
H7 C3 1_555 1_555
H8 C3 1_555 1_555
C4 N2 1_555 1_555
C5 C4 1_555 1_555
H9 C5 1_555 1_555
C6 N2 1_555 1_555
H10 C6 1_555 1_555
C7 N3 1_555 1_555
H11 C7 1_555 1_555
H12 C7 1_555 1_555
C8 C7 1_555 1_555
C9 C8 1_555 1_555
H13 C9 1_555 1_555
C10 C9 1_555 1_555
H14 C10 1_555 1_555
C11 C10 1_555 1_555
H15 C11 1_555 1_555
C12 N4 1_555 1_555
C13 C12 1_555 1_555
H16 C13 1_555 1_555
H17 C13 1_555 1_555
C14 N5 1_555 1_555
H18 C14 1_555 1_555
C15 N5 1_555 1_555
H19 C15 1_555 1_555
C16 N6 1_555 1_555
C17 C16 1_555 1_555
H20 C17 1_555 1_555
H21 C17 1_555 1_555
C18 N7 1_555 1_555
H22 C18 1_555 1_555
H23 C18 1_555 1_555
C19 N6 1_555 1_555
C20 N8 1_555 1_555
C21 N8 1_555 1_555
H24 C21 1_555 1_555
H25 C21 1_555 1_555
C22 C21 1_555 1_555
H26 C22 1_555 1_555
H27 C22 1_555 1_555
C23 N9 1_555 1_555
C24 C23 1_555 1_555
H28 C24 1_555 1_555
C25 N9 1_555 1_555
H29 C25 1_555 1_555
C26 N10 1_555 1_555
H30 C26 1_555 1_555
H31 C26 1_555 1_555
C27 C26 1_555 1_555
C28 C27 1_555 1_555
H32 C28 1_555 1_555
C29 C28 1_555 1_555
H33 C29 1_555 1_555
C30 C29 1_555 1_555
H34 C30 1_555 1_555
C31 N11 1_555 1_555
C32 C31 1_555 1_555
H35 C32 1_555 1_555
H36 C32 1_555 1_555
C33 N12 1_555 1_555
H37 C33 1_555 1_555
C34 N12 1_555 1_555
H38 C34 1_555 1_555
C35 N13 1_555 1_555
C36 C35 1_555 1_555
H39 C36 1_555 1_555
H40 C36 1_555 1_555
C37 N14 1_555 1_555
H41 C37 1_555 1_555
H42 C37 1_555 1_555
C38 N13 1_555 1_555
F13A P3 1_555 1_555
F14A P3 1_555 1_555
F15A P3 1_555 1_555
F16A P4 1_555 1_555
F17A P4 1_555 1_555
F18A P4 1_555 1_555
N3 C6 1_555 1_555
N7 C19 1_555 1_555
N10 C25 1_555 1_555
N14 C38 1_555 1_555
C3 C4 1_555 1_555
C11 C12 1_555 1_555
C15 C16 1_555 1_555
C17 C18 1_555 1_555
C22 C23 1_555 1_555
C30 C31 1_555 1_555
C34 C35 1_555 1_555
C36 C37 1_555 1_555

#END
