
#######################################################################
#
#                 Cambridge Crystallographic Data Centre
#                                CCDC 
#
#######################################################################
#
# If this CIF has been generated from an entry in the Cambridge 
# Structural Database, then it will include bibliographic, chemical, 
# crystal, experimental, refinement or atomic coordinate data resulting 
# from the CCDC's data processing and validation procedures.
#
#######################################################################

data_SAJHUH
_chemical_formula_moiety         'C21 H27 N7 O4'
_chemical_name_systematic        
2,6-bis(N-\a-(methoxycarbonyl)histaminylmethyl)pyridine
_symmetry_cell_setting           monoclinic
_symmetry_space_group_name_H-M   'C 2/c'
_symmetry_Int_Tables_number      15
_space_group_name_Hall           '-C 2yn'
loop_
_symmetry_equiv_pos_site_id
_symmetry_equiv_pos_as_xyz
1 x,y,z
2 1/2+x,1/2+y,z
3 x,-y,1/2+z
4 1/2+x,1/2-y,1/2+z
5 -x,-y,-z
6 1/2-x,1/2-y,-z
7 -x,y,1/2-z
8 1/2-x,1/2+y,1/2-z
_cell_length_a                   14.094(4)
_cell_length_b                   8.188(3)
_cell_length_c                   19.262(6)
_cell_angle_alpha                90
_cell_angle_beta                 96.860(5)
_cell_angle_gamma                90
_cell_volume                     2206.95
_exptl_crystal_colour            colorless
_exptl_crystal_description       plate
_chemical_melting_point          136-137deg.C
_cell_formula_units_Z            4
_exptl_crystal_recrystallization_method dichloromethane
loop_
_atom_site_label
_atom_site_type_symbol
_atom_site_fract_x
_atom_site_fract_y
_atom_site_fract_z
O1 O 1.2134(3) 0.2944(4) 0.35312(17)
O2 O 1.2985(2) 0.4322(4) 0.44120(16)
N1 N 0.5000 0.2351(5) 0.2500
N2 N 0.7415(2) 0.2914(4) 0.34003(17)
N3 N 0.8296(3) 0.3883(5) 0.4331(2)
N4 N 1.1445(3) 0.3977(5) 0.4450(2)
C1 C 0.5000 0.5731(7) 0.2500
H1 H 0.5000 0.6891 0.2500
C2 C 0.5812(3) 0.4885(5) 0.2776(2)
H2 H 0.6370 0.5447 0.2974
C3 C 0.5782(3) 0.3190(5) 0.27531(19)
C4 C 0.6635(3) 0.2117(5) 0.2967(2)
H3 H 0.6423 0.1164 0.3225
H4 H 0.6878 0.1700 0.2539
C5 C 0.7472(3) 0.3220(6) 0.4088(2)
H5 H 0.6977 0.2985 0.4367
C6 C 0.8260(3) 0.3423(5) 0.3183(2)
H6 H 0.8431 0.3384 0.2721
C7 C 0.8807(3) 0.4000(6) 0.3770(2)
C8 C 0.9815(3) 0.4567(6) 0.3859(3)
H7 H 0.9856 0.5613 0.4119
H8 H 1.0018 0.4775 0.3392
C9 C 1.0504(3) 0.3339(6) 0.4250(3)
H9 H 1.0234 0.2973 0.4675
H10 H 1.0553 0.2371 0.3948
C10 C 1.2170(3) 0.3667(5) 0.4089(2)
C11 C 1.3804(4) 0.4188(7) 0.4045(3)
H11 H 1.3932 0.3033 0.3960
H12 H 1.4358 0.4674 0.4326
H13 H 1.3684 0.4764 0.3597
H14 H 1.149(4) 0.468(8) 0.485(3)
C3F C 0.4218(3) 0.3190(5) 0.22469(19)
C2F C 0.4188(3) 0.4885(5) 0.2224(2)
H2F H 0.3630 0.5447 0.2026
C4F C 0.3365(3) 0.2117(5) 0.2033(2)
N2F N 0.2585(2) 0.2914(4) 0.15997(17)
C5F C 0.2528(3) 0.3220(6) 0.0912(2)
N3F N 0.1704(3) 0.3883(5) 0.0669(2)
C7F C 0.1193(3) 0.4000(6) 0.1230(2)
C6F C 0.1740(3) 0.3423(5) 0.1817(2)
H6F H 0.1569 0.3384 0.2279
C8F C 0.0185(3) 0.4567(6) 0.1141(3)
H7F H 0.0144 0.5613 0.0881
H8F H -0.0018 0.4775 0.1608
C9F C -0.0504(3) 0.3339(6) 0.0750(3)
N4F N -0.1445(3) 0.3977(5) 0.0550(2)
C10F C -0.2170(3) 0.3667(5) 0.0911(2)
O1F O -0.2134(3) 0.2944(4) 0.14688(17)
O2F O -0.2985(2) 0.4322(4) 0.05880(16)
C11F C -0.3804(4) 0.4188(7) 0.0955(3)
H11F H -0.3932 0.3033 0.1040
H12F H -0.4358 0.4674 0.0674
H13F H -0.3684 0.4764 0.1403
H14F H -0.149(4) 0.468(8) 0.015(3)
H9F H -0.0234 0.2973 0.0325
H10F H -0.0553 0.2371 0.1052
H5F H 0.3023 0.2985 0.0633
H3F H 0.3577 0.1164 0.1775
H4F H 0.3122 0.1700 0.2461
loop_
_geom_bond_atom_site_label_1
_geom_bond_atom_site_label_2
_geom_bond_site_symmetry_1
_geom_bond_site_symmetry_2
O1 C10 1_555 1_555
O2 C10 1_555 1_555
N1 C3 1_555 1_555
N2 C4 1_555 1_555
N3 C5 1_555 1_555
N4 C9 1_555 1_555
C1 H1 1_555 1_555
C2 C1 1_555 1_555
H2 C2 1_555 1_555
C3 C2 1_555 1_555
C4 C3 1_555 1_555
H3 C4 1_555 1_555
H4 C4 1_555 1_555
C5 N2 1_555 1_555
H5 C5 1_555 1_555
C6 N2 1_555 1_555
H6 C6 1_555 1_555
C7 N3 1_555 1_555
C8 C7 1_555 1_555
H7 C8 1_555 1_555
H8 C8 1_555 1_555
C9 C8 1_555 1_555
H9 C9 1_555 1_555
H10 C9 1_555 1_555
C10 N4 1_555 1_555
C11 O2 1_555 1_555
H11 C11 1_555 1_555
H12 C11 1_555 1_555
H13 C11 1_555 1_555
H14 N4 1_555 1_555
C3F N1 1_555 1_555
C2F C1 1_555 1_555
H2F C2F 1_555 1_555
C4F C3F 1_555 1_555
N2F C4F 1_555 1_555
C5F N2F 1_555 1_555
N3F C5F 1_555 1_555
C7F N3F 1_555 1_555
C6F N2F 1_555 1_555
H6F C6F 1_555 1_555
C8F C7F 1_555 1_555
H7F C8F 1_555 1_555
H8F C8F 1_555 1_555
C9F C8F 1_555 1_555
N4F C9F 1_555 1_555
C10F N4F 1_555 1_555
O1F C10F 1_555 1_555
O2F C10F 1_555 1_555
C11F O2F 1_555 1_555
H11F C11F 1_555 1_555
H12F C11F 1_555 1_555
H13F C11F 1_555 1_555
H14F N4F 1_555 1_555
H9F C9F 1_555 1_555
H10F C9F 1_555 1_555
H5F C5F 1_555 1_555
H3F C4F 1_555 1_555
H4F C4F 1_555 1_555
C6 C7 1_555 1_555
C3F C2F 1_555 1_555
C7F C6F 1_555 1_555

#END
