
#######################################################################
#
#                 Cambridge Crystallographic Data Centre
#                                CCDC 
#
#######################################################################
#
# If this CIF has been generated from an entry in the Cambridge 
# Structural Database, then it will include bibliographic, chemical, 
# crystal, experimental, refinement or atomic coordinate data resulting 
# from the CCDC's data processing and validation procedures.
#
#######################################################################

data_SAJQUR
_chemical_name_common            
'(E)-4-(1,3-Benzothiazol-2-ylcarbohydrazonoyl)phenol monohydrate'
_chemical_formula_moiety         'C14 H11 N3 O1 S1,H2 O1'
_chemical_name_systematic        
'(E)-2-(2-(4-Hydroxybenzylidene)hydrazinyl)benzo[d]thiazole monohydrate'
_symmetry_cell_setting           monoclinic
_symmetry_space_group_name_H-M   'P 21/c'
_symmetry_Int_Tables_number      14
_space_group_name_Hall           '-P 2ybc'
loop_
_symmetry_equiv_pos_site_id
_symmetry_equiv_pos_as_xyz
1 x,y,z
2 -x,1/2+y,1/2-z
3 -x,-y,-z
4 x,1/2-y,1/2+z
_cell_length_a                   15.4767(14)
_cell_length_b                   4.6175(4)
_cell_length_c                   19.2362(19)
_cell_angle_alpha                90
_cell_angle_beta                 101.973(5)
_cell_angle_gamma                90
_cell_volume                     1344.78
_exptl_crystal_colour            colorless
_exptl_crystal_description       lath
_cell_formula_units_Z            4
loop_
_atom_site_label
_atom_site_type_symbol
_atom_site_fract_x
_atom_site_fract_y
_atom_site_fract_z
S1 S 0.12644(4) 0.40212(13) 0.05046(3)
O1 O 0.34481(12) 1.4662(4) -0.21934(9)
H1 H 0.3072 1.3980 -0.2516
N1 N 0.22647(13) 0.2152(4) 0.16821(10)
N2 N 0.28092(14) 0.7184(4) 0.04524(11)
C1 C 0.22417(17) 0.3905(5) 0.11500(13)
N3 N 0.29244(15) 0.5614(4) 0.10692(11)
H2 H 0.3415(18) 0.583(5) 0.1423(14)
C2 C 0.33996(17) 1.0485(5) -0.02875(13)
C3 C 0.34425(18) 0.8885(5) 0.03785(14)
H3 H 0.3976(18) 0.908(5) 0.0755(14)
C4 C 0.26997(17) 1.1542(5) -0.15021(14)
H4 H 0.2226 1.1305 -0.1883
C5 C 0.12447(18) -0.1327(5) 0.20808(13)
H5 H 0.1661 -0.1859 0.2482
C6 C -0.00293(17) 0.0326(5) 0.08805(14)
H6 H -0.0454 0.0898 0.0489
C7 C 0.40956(17) 1.2286(5) -0.03610(14)
H7 H 0.4563 1.2564 0.0023
C8 C 0.27033(17) 1.0155(5) -0.08658(13)
H8 H 0.2230 0.8976 -0.0824
C9 C 0.14477(17) 0.0739(5) 0.16102(13)
C10 C 0.04154(18) -0.2565(5) 0.19405(14)
H9 H 0.0277 -0.3978 0.2244
C11 C 0.08165(17) 0.1517(5) 0.10115(13)
C12 C 0.41016(18) 1.3669(5) -0.09980(14)
H10 H 0.4574 1.4852 -0.1040
C13 C -0.02173(18) -0.1726(5) 0.13492(14)
H11 H -0.0776 -0.2562 0.1269
C14 C 0.34096(17) 1.3299(5) -0.15710(13)
O2 O 0.44262(13) 1.8695(4) -0.27375(10)
H12 H 0.469(2) 2.007(7) -0.2536(16)
H13 H 0.410(2) 1.788(6) -0.2510(16)
loop_
_geom_bond_atom_site_label_1
_geom_bond_atom_site_label_2
_geom_bond_site_symmetry_1
_geom_bond_site_symmetry_2
S1 C1 1_555 1_555
O1 H1 1_555 1_555
N1 C1 1_555 1_555
N2 N3 1_555 1_555
C1 N3 1_555 1_555
N3 H2 1_555 1_555
C2 C3 1_555 1_555
C3 N2 1_555 1_555
H3 C3 1_555 1_555
C4 H4 1_555 1_555
C5 H5 1_555 1_555
C6 H6 1_555 1_555
C7 C2 1_555 1_555
H7 C7 1_555 1_555
C8 C2 1_555 1_555
H8 C8 1_555 1_555
C9 N1 1_555 1_555
C10 C5 1_555 1_555
H9 C10 1_555 1_555
C11 S1 1_555 1_555
C12 C7 1_555 1_555
H10 C12 1_555 1_555
C13 C6 1_555 1_555
H11 C13 1_555 1_555
C14 O1 1_555 1_555
O2 H12 1_555 1_555
H13 O2 1_555 1_555
C4 C8 1_555 1_555
C4 C14 1_555 1_555
C5 C9 1_555 1_555
C6 C11 1_555 1_555
C9 C11 1_555 1_555
C10 C13 1_555 1_555
C12 C14 1_555 1_555

#END
