
#######################################################################
#
#                 Cambridge Crystallographic Data Centre
#                                CCDC 
#
#######################################################################
#
# If this CIF has been generated from an entry in the Cambridge 
# Structural Database, then it will include bibliographic, chemical, 
# crystal, experimental, refinement or atomic coordinate data resulting 
# from the CCDC's data processing and validation procedures.
#
#######################################################################

data_SAJRAY
_chemical_name_common            
(E)-2-(2-(2,4-Dimethoxybenzylidene)hydrazino)-1,3-benzothiazole
_chemical_formula_moiety         'C16 H15 N3 O2 S1'
_chemical_name_systematic        
(E)-2-(2-(2,4-Dimethoxybenzylidene)hydrazinyl)benzo[d]thiazole
_symmetry_cell_setting           monoclinic
_symmetry_space_group_name_H-M   'P 21/n'
_symmetry_Int_Tables_number      14
_space_group_name_Hall           '-P 2yn'
loop_
_symmetry_equiv_pos_site_id
_symmetry_equiv_pos_as_xyz
1 x,y,z
2 1/2-x,1/2+y,1/2-z
3 -x,-y,-z
4 1/2+x,1/2-y,1/2+z
_cell_length_a                   20.8659(5)
_cell_length_b                   7.1823(2)
_cell_length_c                   21.0455(6)
_cell_angle_alpha                90
_cell_angle_beta                 110.048(1)
_cell_angle_gamma                90
_cell_volume                     2962.87
_exptl_crystal_colour            colorless
_exptl_crystal_description       needle
_cell_formula_units_Z            8
loop_
_atom_site_label
_atom_site_type_symbol
_atom_site_fract_x
_atom_site_fract_y
_atom_site_fract_z
S1 S 0.87094(7) 0.15033(19) -0.11618(7)
N1 N 0.9571(2) 0.2667(6) 0.0028(2)
H1 H 0.986(3) 0.338(8) 0.030(3)
N3 N 0.9312(2) 0.4757(6) -0.0879(2)
N4 N 0.9409(2) 0.0958(6) 0.0222(2)
O1 O 1.02358(19) -0.0275(5) 0.21993(18)
O3 O 0.9095(2) -0.6257(5) 0.18279(19)
C1 C 0.9252(2) 0.3154(7) -0.0622(3)
C3 C 0.9267(3) -0.4585(7) 0.1623(3)
C4 C 0.9825(3) -0.1618(8) 0.1810(3)
C5 C 0.9135(3) -0.2577(8) 0.0690(3)
H4 H 0.8946 -0.2343 0.0218
C6 C 0.9681(3) -0.3288(8) 0.2060(3)
H5 H 0.9866 -0.3544 0.2530
C11 C 0.9676(3) 0.0575(8) 0.0853(3)
H8 H 0.997(3) 0.148(8) 0.115(3)
C17 C 1.0557(3) -0.0659(8) 0.2904(3)
H12 H 1.0836 0.0410 0.3125
H13 H 1.0848 -0.1762 0.2960
H14 H 1.0207 -0.0890 0.3108
C18 C 0.8067(3) 0.4471(8) -0.2907(3)
H15 H 0.7788 0.4379 -0.3369
C20 C 0.8540(3) 0.3149(7) -0.1811(3)
C21 C 0.8124(3) 0.2967(8) -0.2478(3)
H17 H 0.7883 0.1843 -0.2639
C22 C 0.8835(3) 0.6292(8) -0.1996(3)
H18 H 0.9070 0.7426 -0.1839
C23 C 0.8909(3) 0.4797(7) -0.1560(3)
C24 C 0.8998(3) -0.4234(8) 0.0935(3)
H19 H 0.8722 -0.5139 0.0636
C26 C 0.8415(3) 0.6109(9) -0.2663(3)
H20 H 0.8363 0.7134 -0.2961
C27 C 0.9360(4) -0.6664(9) 0.2535(3)
H21 H 0.9202 -0.7898 0.2616
H22 H 0.9199 -0.5725 0.2783
H23 H 0.9859 -0.6650 0.2690
C29 C 0.9546(3) -0.1204(7) 0.1114(3)
S2 S 1.10291(7) 0.32632(19) 0.42597(7)
N2 N 0.9918(2) 0.2306(6) 0.4545(2)
H2 H 0.965(3) 0.157(8) 0.469(3)
N5 N 1.0765(2) 0.0039(6) 0.4704(2)
N6 N 0.9695(2) 0.4035(6) 0.4282(2)
O2 O 0.77698(18) 0.5330(5) 0.4111(2)
O4 O 0.7976(2) 1.1379(5) 0.3176(2)
C2 C 1.2247(3) 0.1493(8) 0.4270(3)
H3 H 1.2412 0.2606 0.4136
C7 C 0.7821(3) 0.8375(8) 0.3636(3)
H6 H 0.7362 0.8650 0.3592
C8 C 1.0522(3) 0.1707(8) 0.4534(3)
C9 C 0.9075(3) 0.4434(8) 0.4216(3)
H7 H 0.876(3) 0.360(8) 0.433(3)
C10 C 1.1631(3) 0.1478(8) 0.4386(2)
C12 C 0.8787(3) 0.6235(7) 0.3949(3)
C13 C 1.1779(3) -0.1767(8) 0.4700(3)
H9 H 1.1630 -0.2875 0.4852
C14 C 0.9163(3) 0.7586(8) 0.3757(3)
H10 H 0.9623 0.7327 0.3801
C15 C 0.8108(3) 0.6673(8) 0.3895(3)
C16 C 1.2614(3) -0.0134(9) 0.4352(3)
H11 H 1.3031 -0.0154 0.4263
C19 C 1.2381(3) -0.1749(8) 0.4565(3)
H16 H 1.2641 -0.2861 0.4618
C25 C 0.8210(3) 0.9664(7) 0.3442(3)
C28 C 1.1394(3) -0.0146(7) 0.4610(3)
C30 C 0.7276(3) 1.1810(9) 0.3071(3)
H24 H 0.7171 1.3063 0.2879
H25 H 0.7198 1.1758 0.3504
H26 H 0.6981 1.0903 0.2757
C31 C 0.7082(3) 0.5699(8) 0.4073(3)
H27 H 0.6903 0.4620 0.4243
H28 H 0.6798 0.5933 0.3601
H29 H 0.7074 0.6794 0.4347
C32 C 0.8887(3) 0.9282(8) 0.3508(3)
H30 H 0.9153 1.0186 0.3381
loop_
_geom_bond_atom_site_label_1
_geom_bond_atom_site_label_2
_geom_bond_site_symmetry_1
_geom_bond_site_symmetry_2
S1 C1 1_555 1_555
S2 C8 1_555 1_555
N1 H1 1_555 1_555
N2 H2 1_555 1_555
N3 C1 1_555 1_555
N4 N1 1_555 1_555
N5 C8 1_555 1_555
N6 N2 1_555 1_555
O1 C4 1_555 1_555
O2 C15 1_555 1_555
O3 C3 1_555 1_555
O4 C25 1_555 1_555
C1 N1 1_555 1_555
C2 H3 1_555 1_555
C3 C6 1_555 1_555
C4 C6 1_555 1_555
C5 H4 1_555 1_555
C6 H5 1_555 1_555
C7 H6 1_555 1_555
C8 N2 1_555 1_555
C9 N6 1_555 1_555
H7 C9 1_555 1_555
C10 S2 1_555 1_555
C11 N4 1_555 1_555
H8 C11 1_555 1_555
C12 C9 1_555 1_555
C13 H9 1_555 1_555
C14 C12 1_555 1_555
H10 C14 1_555 1_555
C15 C7 1_555 1_555
C16 C2 1_555 1_555
H11 C16 1_555 1_555
C17 O1 1_555 1_555
H12 C17 1_555 1_555
H13 C17 1_555 1_555
H14 C17 1_555 1_555
C18 H15 1_555 1_555
C19 C13 1_555 1_555
H16 C19 1_555 1_555
C20 S1 1_555 1_555
C21 C18 1_555 1_555
H17 C21 1_555 1_555
C22 H18 1_555 1_555
C23 N3 1_555 1_555
C24 C3 1_555 1_555
H19 C24 1_555 1_555
C25 C7 1_555 1_555
C26 C18 1_555 1_555
H20 C26 1_555 1_555
C27 O3 1_555 1_555
H21 C27 1_555 1_555
H22 C27 1_555 1_555
H23 C27 1_555 1_555
C28 N5 1_555 1_555
C29 C4 1_555 1_555
C30 O4 1_555 1_555
H24 C30 1_555 1_555
H25 C30 1_555 1_555
H26 C30 1_555 1_555
C31 O2 1_555 1_555
H27 C31 1_555 1_555
H28 C31 1_555 1_555
H29 C31 1_555 1_555
C32 C14 1_555 1_555
H30 C32 1_555 1_555
C2 C10 1_555 1_555
C5 C24 1_555 1_555
C5 C29 1_555 1_555
C10 C28 1_555 1_555
C11 C29 1_555 1_555
C12 C15 1_555 1_555
C13 C28 1_555 1_555
C16 C19 1_555 1_555
C20 C21 1_555 1_555
C20 C23 1_555 1_555
C22 C23 1_555 1_555
C22 C26 1_555 1_555
C25 C32 1_555 1_555

#END
