
#######################################################################
#
#                 Cambridge Crystallographic Data Centre
#                                CCDC 
#
#######################################################################
#
# If this CIF has been generated from an entry in the Cambridge 
# Structural Database, then it will include bibliographic, chemical, 
# crystal, experimental, refinement or atomic coordinate data resulting 
# from the CCDC's data processing and validation procedures.
#
#######################################################################

data_SAJXOQ
_chemical_formula_moiety         'C31 H52 N2 O9,2(H2 O1)'
_chemical_name_systematic        
'2,3-Anhydro-6-O-methylerythromycin-10,11-carbamate dihydrate'
_chemical_properties_biological  
'antibacterial activity against Staphylococcus aureus, and Streptococcus pyogenes'
_symmetry_cell_setting           orthorhombic
_symmetry_space_group_name_H-M   'P 21 21 21'
_symmetry_Int_Tables_number      19
_space_group_name_Hall           'P 2ac 2ab'
loop_
_symmetry_equiv_pos_site_id
_symmetry_equiv_pos_as_xyz
1 x,y,z
2 1/2-x,-y,1/2+z
3 1/2+x,1/2-y,-z
4 -x,1/2+y,1/2-z
_cell_length_a                   9.326(1)
_cell_length_b                   11.583(1)
_cell_length_c                   35.526(2)
_cell_angle_alpha                90
_cell_angle_beta                 90
_cell_angle_gamma                90
_cell_volume                     3837.63
_cell_formula_units_Z            4
loop_
_atom_site_label
_atom_site_type_symbol
_atom_site_fract_x
_atom_site_fract_y
_atom_site_fract_z
O1 O -1.0880(7) -0.0633(5) -0.0101(2)
O2 O -0.9878(7) 0.1099(6) -0.0219(2)
O3 O -1.380(1) 0.1688(8) 0.0976(2)
O4 O -1.3243(8) 0.0061(7) 0.0672(2)
O5 O -1.2718(8) 0.1191(5) -0.1877(2)
O6 O -1.326(1) 0.2821(7) -0.2228(2)
O7 O -1.126(1) 0.0218(7) -0.2491(2)
O8 O -1.3226(7) 0.1812(5) -0.0873(2)
O9 O -1.3758(8) -0.0782(6) -0.0568(2)
N1 N -1.198(1) 0.1089(9) -0.3222(3)
N2 N -1.359(1) 0.1611(7) 0.0333(2)
C1 C -1.128(2) 0.170(1) -0.3540(4)
C2 C -1.328(2) 0.065(2) -0.3338(4)
C3 C -1.201(2) 0.182(1) -0.2878(4)
C4 C -1.226(2) 0.110(1) -0.2529(3)
C5 C -1.222(1) 0.189(1) -0.2187(3)
C6 C -1.376(4) 0.460(2) -0.2502(6)
C7 C -1.274(2) 0.359(1) -0.2536(4)
C8 C -1.294(3) 0.293(1) -0.2902(4)
C9 C -1.228(1) 0.1508(8) -0.1503(3)
C10 C -1.111(1) 0.0652(9) -0.1381(3)
C11 C -0.976(1) 0.076(1) -0.1621(4)
C12 C -1.070(1) 0.0750(8) -0.0981(3)
C13 C -1.0534(10) -0.0106(9) -0.0737(3)
C14 C -1.072(1) -0.1375(9) -0.0837(3)
C15 C -1.126(1) -0.0335(7) 0.0278(2)
C16 C -1.057(1) -0.1221(9) 0.0541(3)
C17 C -0.895(1) -0.111(1) 0.0583(4)
C18 C -1.287(1) -0.0287(9) 0.0292(3)
C19 C -1.352(1) -0.147(1) 0.0233(3)
C20 C -1.359(1) 0.118(1) 0.0672(4)
C21 C -1.346(1) 0.0776(9) 0.0045(3)
C22 C -1.480(1) 0.0718(9) -0.0204(3)
C23 C -1.621(2) 0.031(1) -0.0007(4)
C24 C -1.652(1) -0.069(1) -0.0984(4)
C25 C -1.546(1) 0.0322(9) -0.0913(3)
C26 C -1.442(1) 0.0460(10) -0.1245(3)
C27 C -1.362(1) 0.1612(10) -0.1257(3)
C28 C -1.459(2) 0.257(1) -0.1404(4)
C29 C -1.278(2) 0.2937(10) -0.0767(4)
C30 C -1.461(1) 0.0021(10) -0.0557(3)
C31 C -1.035(1) 0.019(1) -0.0334(3)
H1 H -1.3668 0.2414 0.0283
H2 H -1.0375 0.1993 -0.3457
H3 H -1.1117 0.1158 -0.3738
H4 H -1.1866 0.2301 -0.3623
H5 H -1.3880 0.1264 -0.3424
H6 H -1.3135 0.0119 -0.3539
H7 H -1.3740 0.0267 -0.3135
H8 H -1.1047 0.2085 -0.2852
H9 H -1.3190 0.0767 -0.2546
H10 H -1.1288 0.2183 -0.2144
H11 H -1.3829 0.4903 -0.2267
H12 H -1.3659 0.5132 -0.2695
H13 H -1.4795 0.4256 -0.2553
H14 H -1.1807 0.3863 -0.2495
H15 H -1.2589 0.3397 -0.3103
H16 H -1.3892 0.2737 -0.2937
H17 H -1.1861 0.2255 -0.1517
H18 H -1.1477 -0.0106 -0.1418
H19 H -0.9114 0.0157 -0.1557
H20 H -1.0017 0.0696 -0.1879
H21 H -0.9328 0.1484 -0.1576
H22 H -1.0540 0.1505 -0.0888
H23 H -1.1669 -0.1498 -0.0924
H24 H -1.0055 -0.1580 -0.1027
H25 H -1.0555 -0.1833 -0.0619
H26 H -1.0887 0.0409 0.0334
H27 H -1.0993 -0.1139 0.0783
H28 H -1.0772 -0.1970 0.0445
H29 H -0.8604 -0.1686 0.0750
H30 H -0.8502 -0.1197 0.0345
H31 H -0.8722 -0.0366 0.0682
H32 H -1.4531 -0.1428 0.0264
H33 H -1.3306 -0.1735 -0.0014
H34 H -1.3134 -0.1996 0.0412
H35 H -1.2694 0.1017 -0.0113
H36 H -1.4975 0.1488 -0.0284
H37 H -1.6358 0.0744 0.0216
H38 H -1.7002 0.0436 -0.0173
H39 H -1.6147 -0.0484 0.0051
H40 H -1.7131 -0.0773 -0.0774
H41 H -1.7067 -0.0530 -0.1203
H42 H -1.5986 -0.1381 -0.1021
H43 H -1.5982 0.1017 -0.0875
H44 H -1.3737 -0.0139 -0.1233
H45 H -1.4961 0.0395 -0.1472
H46 H -1.4091 0.3281 -0.1390
H47 H -1.4829 0.2410 -0.1659
H48 H -1.5430 0.2601 -0.1256
H49 H -1.2555 0.2943 -0.0506
H50 H -1.1964 0.3149 -0.0909
H51 H -1.3539 0.3468 -0.0814
O10 O -1.462(2) 0.101(1) 0.1740(4)
O11 O -1.208(2) -0.262(3) -0.2089(10)
loop_
_geom_bond_atom_site_label_1
_geom_bond_atom_site_label_2
_geom_bond_site_symmetry_1
_geom_bond_site_symmetry_2
O1 C15 1_555 1_555
O2 C31 1_555 1_555
O3 C20 1_555 1_555
O4 C18 1_555 1_555
O5 C5 1_555 1_555
O6 C5 1_555 1_555
O7 C4 1_555 1_555
O8 C27 1_555 1_555
O9 C30 1_555 1_555
N1 C1 1_555 1_555
N2 C20 1_555 1_555
C1 H2 1_555 1_555
C2 N1 1_555 1_555
C3 N1 1_555 1_555
C4 C3 1_555 1_555
C5 C4 1_555 1_555
C6 C7 1_555 1_555
C7 O6 1_555 1_555
C8 C3 1_555 1_555
C9 O5 1_555 1_555
C10 C9 1_555 1_555
C11 C10 1_555 1_555
C12 C10 1_555 1_555
C13 C12 1_555 1_555
C14 C13 1_555 1_555
C15 C16 1_555 1_555
C16 C17 1_555 1_555
C17 H29 1_555 1_555
C18 C15 1_555 1_555
C19 C18 1_555 1_555
C20 O4 1_555 1_555
C21 N2 1_555 1_555
C22 C21 1_555 1_555
C23 C22 1_555 1_555
C24 C25 1_555 1_555
C25 C26 1_555 1_555
C26 C27 1_555 1_555
C27 C9 1_555 1_555
C28 C27 1_555 1_555
C29 O8 1_555 1_555
C30 C22 1_555 1_555
C31 O1 1_555 1_555
H1 N2 1_555 1_555
H3 C1 1_555 1_555
H4 C1 1_555 1_555
H5 C2 1_555 1_555
H6 C2 1_555 1_555
H7 C2 1_555 1_555
H8 C3 1_555 1_555
H9 C4 1_555 1_555
H10 C5 1_555 1_555
H11 C6 1_555 1_555
H12 C6 1_555 1_555
H13 C6 1_555 1_555
H14 C7 1_555 1_555
H15 C8 1_555 1_555
H16 C8 1_555 1_555
H17 C9 1_555 1_555
H18 C10 1_555 1_555
H19 C11 1_555 1_555
H20 C11 1_555 1_555
H21 C11 1_555 1_555
H22 C12 1_555 1_555
H23 C14 1_555 1_555
H24 C14 1_555 1_555
H25 C14 1_555 1_555
H26 C15 1_555 1_555
H27 C16 1_555 1_555
H28 C16 1_555 1_555
H30 C17 1_555 1_555
H31 C17 1_555 1_555
H32 C19 1_555 1_555
H33 C19 1_555 1_555
H34 C19 1_555 1_555
H35 C21 1_555 1_555
H36 C22 1_555 1_555
H37 C23 1_555 1_555
H38 C23 1_555 1_555
H39 C23 1_555 1_555
H40 C24 1_555 1_555
H41 C24 1_555 1_555
H42 C24 1_555 1_555
H43 C25 1_555 1_555
H44 C26 1_555 1_555
H45 C26 1_555 1_555
H46 C28 1_555 1_555
H47 C28 1_555 1_555
H48 C28 1_555 1_555
H49 C29 1_555 1_555
H50 C29 1_555 1_555
H51 C29 1_555 1_555
C7 C8 1_555 1_555
C13 C31 1_555 1_555
C18 C21 1_555 1_555
C25 C30 1_555 1_555

#END
