
#######################################################################
#
#                 Cambridge Crystallographic Data Centre
#                                CCDC 
#
#######################################################################
#
# If this CIF has been generated from an entry in the Cambridge 
# Structural Database, then it will include bibliographic, chemical, 
# crystal, experimental, refinement or atomic coordinate data resulting 
# from the CCDC's data processing and validation procedures.
#
#######################################################################

data_SAKDOZ
_chemical_formula_moiety         'C9 H7 N1 O5'
_chemical_name_systematic        '2-(4-Nitrophenyl)-2-oxoethyl formate'
_symmetry_cell_setting           monoclinic
_symmetry_space_group_name_H-M   'P 21/c'
_symmetry_Int_Tables_number      14
_space_group_name_Hall           '-P 2ybc'
loop_
_symmetry_equiv_pos_site_id
_symmetry_equiv_pos_as_xyz
1 x,y,z
2 -x,1/2+y,1/2-z
3 -x,-y,-z
4 x,1/2-y,1/2+z
_cell_length_a                   9.6790(10)
_cell_length_b                   15.1737(15)
_cell_length_c                   6.3703(6)
_cell_angle_alpha                90
_cell_angle_beta                 97.759(2)
_cell_angle_gamma                90
_cell_volume                     927.016
_exptl_crystal_colour            colorless
_exptl_crystal_description       block
_cell_formula_units_Z            4
loop_
_atom_site_label
_atom_site_type_symbol
_atom_site_fract_x
_atom_site_fract_y
_atom_site_fract_z
C1 C 0.59429(14) 0.86120(9) -0.0868(2)
C2 C 0.46180(15) 0.83962(9) -0.1802(2)
H1 H 0.4473 0.8132 -0.3132
C3 C 0.35112(14) 0.85815(9) -0.0717(2)
H2 H 0.2609 0.8436 -0.1312
C4 C 0.37382(14) 0.89862(8) 0.1275(2)
C5 C 0.50976(14) 0.91837(9) 0.2177(2)
H3 H 0.5254 0.9446 0.3508
C6 C 0.62092(14) 0.89941(9) 0.1115(2)
H4 H 0.7117 0.9120 0.1717
C7 C 0.25772(15) 0.92483(8) 0.2455(2)
C8 C 0.11207(15) 0.89698(11) 0.1550(2)
H5 H 0.0880 0.9233 0.0161
H6 H 0.1093 0.8334 0.1382
C9 C 0.01385(19) 0.87702(13) 0.4655(3)
H7 H -0.0516 0.8912 0.5544
N1 N 0.71245(14) 0.84328(9) -0.2036(2)
O1 O 0.68900(14) 0.81188(9) -0.3802(2)
O2 O 0.82801(13) 0.86375(13) -0.1197(2)
O3 O 0.27868(12) 0.96835(9) 0.40546(19)
O4 O 0.01206(11) 0.92306(8) 0.28849(18)
O5 O 0.09352(17) 0.81860(10) 0.5191(2)
loop_
_geom_bond_atom_site_label_1
_geom_bond_atom_site_label_2
_geom_bond_site_symmetry_1
_geom_bond_site_symmetry_2
C1 C2 1_555 1_555
C2 H1 1_555 1_555
C3 C2 1_555 1_555
H2 C3 1_555 1_555
C4 C3 1_555 1_555
C5 C4 1_555 1_555
H3 C5 1_555 1_555
C6 C1 1_555 1_555
H4 C6 1_555 1_555
C7 C4 1_555 1_555
C8 C7 1_555 1_555
H5 C8 1_555 1_555
H6 C8 1_555 1_555
C9 H7 1_555 1_555
N1 C1 1_555 1_555
O1 N1 1_555 1_555
O2 N1 1_555 1_555
O3 C7 1_555 1_555
O4 C8 1_555 1_555
O5 C9 1_555 1_555
C5 C6 1_555 1_555
C9 O4 1_555 1_555

#END
