
#######################################################################
#
#                 Cambridge Crystallographic Data Centre
#                                CCDC 
#
#######################################################################
#
# If this CIF has been generated from an entry in the Cambridge 
# Structural Database, then it will include bibliographic, chemical, 
# crystal, experimental, refinement or atomic coordinate data resulting 
# from the CCDC's data processing and validation procedures.
#
#######################################################################

data_SAKDUF
_chemical_formula_moiety         'C10 H9 N1 O5,0.2(H2 O1)'
_chemical_name_systematic        '2-(4-Nitrophenyl)-2-oxoethyl acetate hydrate'
_symmetry_cell_setting           monoclinic
_symmetry_space_group_name_H-M   'P 21/c'
_symmetry_Int_Tables_number      14
_space_group_name_Hall           '-P 2ybc'
loop_
_symmetry_equiv_pos_site_id
_symmetry_equiv_pos_as_xyz
1 x,y,z
2 -x,1/2+y,1/2-z
3 -x,-y,-z
4 x,1/2-y,1/2+z
_cell_length_a                   9.077(5)
_cell_length_b                   12.606(7)
_cell_length_c                   9.405(5)
_cell_angle_alpha                90
_cell_angle_beta                 102.097(9)
_cell_angle_gamma                90
_cell_volume                     1052.27
_exptl_crystal_colour            colorless
_exptl_crystal_description       block
_cell_formula_units_Z            4
loop_
_atom_site_label
_atom_site_type_symbol
_atom_site_fract_x
_atom_site_fract_y
_atom_site_fract_z
C1 C 0.1118(3) 0.5601(2) 0.1764(3)
C2 C 0.1838(3) 0.5910(2) 0.0701(3)
H1 H 0.1788 0.6610 0.0382
C3 C 0.2643(3) 0.5164(2) 0.0110(3)
H2 H 0.3145 0.5365 -0.0613
C4 C 0.2714(3) 0.4115(2) 0.0579(2)
C5 C 0.1962(3) 0.3839(2) 0.1672(3)
H3 H 0.1998 0.3142 0.2003
C6 C 0.1169(3) 0.4585(2) 0.2266(3)
H4 H 0.0673 0.4399 0.3000
C7 C 0.3549(3) 0.3325(2) -0.0121(3)
C8 C 0.3658(3) 0.2202(2) 0.0447(3)
H5 H 0.4190 0.2200 0.1455
H6 H 0.2652 0.1926 0.0406
C9 C 0.5945(3) 0.1603(2) -0.0076(3)
N1 N 0.0220(3) 0.6389(2) 0.2353(3)
O1 O 0.0045(3) 0.7259(2) 0.1770(3)
O2 O -0.0337(3) 0.6137(2) 0.3377(3)
O3 O 0.4123(2) 0.35621(17) -0.1126(2)
O4 O 0.4430(2) 0.15323(15) -0.0383(2)
O5 O 0.6622(2) 0.21276(18) 0.0914(2)
C10 C 0.6620(4) 0.0964(3) -0.1123(4)
H7 H 0.6778 0.1411 -0.1904
H8 H 0.5948 0.0397 -0.1509
H9 H 0.7567 0.0673 -0.0628
O6? O 0.8152(10) 0.0531(9) -0.0844(10)
H10? H 0.9093 0.0533 -0.0845
H11? H 0.7733 0.0013 -0.1355
loop_
_geom_bond_atom_site_label_1
_geom_bond_atom_site_label_2
_geom_bond_site_symmetry_1
_geom_bond_site_symmetry_2
C1 C2 1_555 1_555
C2 H1 1_555 1_555
C3 C2 1_555 1_555
H2 C3 1_555 1_555
C4 C3 1_555 1_555
C5 C4 1_555 1_555
H3 C5 1_555 1_555
C6 C1 1_555 1_555
H4 C6 1_555 1_555
C7 C4 1_555 1_555
C8 C7 1_555 1_555
H5 C8 1_555 1_555
H6 C8 1_555 1_555
C9 O4 1_555 1_555
N1 C1 1_555 1_555
O1 N1 1_555 1_555
O2 N1 1_555 1_555
O3 C7 1_555 1_555
O4 C8 1_555 1_555
O5 C9 1_555 1_555
C10 C9 1_555 1_555
H7 C10 1_555 1_555
H8 C10 1_555 1_555
H9 C10 1_555 1_555
C5 C6 1_555 1_555

#END
