
#######################################################################
#
#                 Cambridge Crystallographic Data Centre
#                                CCDC 
#
#######################################################################
#
# If this CIF has been generated from an entry in the Cambridge 
# Structural Database, then it will include bibliographic, chemical, 
# crystal, experimental, refinement or atomic coordinate data resulting 
# from the CCDC's data processing and validation procedures.
#
#######################################################################

data_SAKGIW
_chemical_formula_moiety         'C12 H11 N1 O4'
_chemical_name_systematic        
'Methyl (2-methoxy-3-oxo-2,3-dihydro-1H-isoindol-1-ylidene)acetate'
_symmetry_cell_setting           monoclinic
_symmetry_space_group_name_H-M   'P 21/c'
_symmetry_Int_Tables_number      14
_space_group_name_Hall           '-P 2ybc'
loop_
_symmetry_equiv_pos_site_id
_symmetry_equiv_pos_as_xyz
1 x,y,z
2 -x,1/2+y,1/2-z
3 -x,-y,-z
4 x,1/2-y,1/2+z
_cell_length_a                   8.0492(6)
_cell_length_b                   19.9116(11)
_cell_length_c                   7.3009(5)
_cell_angle_alpha                90
_cell_angle_beta                 107.729(8)
_cell_angle_gamma                90
_cell_volume                     1114.56
_cell_formula_units_Z            4
loop_
_atom_site_label
_atom_site_type_symbol
_atom_site_fract_x
_atom_site_fract_y
_atom_site_fract_z
O1 O 0.88108(17) 0.38002(6) 1.12977(17)
O2 O 0.81703(18) 0.03264(6) 1.09069(19)
O3 O 1.03194(16) 0.14604(6) 1.22097(16)
O4 O 0.65343(19) 0.34703(6) 0.88309(18)
C1 C 0.8560(2) 0.26658(8) 1.0737(2)
H1 H 0.9671 0.2657 1.1619
N1 N 0.86921(18) 0.14669(7) 1.08663(19)
C2 C 0.7817(2) 0.33302(9) 1.0145(2)
C3 C 0.4707(2) 0.21755(9) 0.7625(2)
H2 H 0.4736 0.2639 0.7479
C4 C 0.6104(2) 0.18374(8) 0.8875(2)
C5 C 0.6026(2) 0.11389(8) 0.9039(2)
C6 C 0.3270(2) 0.18043(10) 0.6602(3)
H3 H 0.2329 0.2024 0.5750
C7 C 0.3192(2) 0.11150(10) 0.6809(3)
H4 H 0.2198 0.0881 0.6118
C8 C 0.8283(3) 0.44866(9) 1.0834(3)
H5 H 0.8331 0.4590 0.9567
H6 H 0.9053 0.4781 1.1750
H7 H 0.7112 0.4547 1.0878
C9 C 0.7819(2) 0.20668(8) 1.0151(2)
C10 C 1.1611(2) 0.12827(11) 1.1290(3)
H8 H 1.1550 0.1592 1.0263
H9 H 1.1390 0.0836 1.0781
H10 H 1.2751 0.1302 1.2213
C11 C 0.4584(2) 0.07712(10) 0.8038(3)
H11 H 0.4548 0.0308 0.8183
C12 C 0.7701(2) 0.08927(8) 1.0363(2)
loop_
_geom_bond_atom_site_label_1
_geom_bond_atom_site_label_2
_geom_bond_site_symmetry_1
_geom_bond_site_symmetry_2
O1 C2 1_555 1_555
O2 C12 1_555 1_555
O3 N1 1_555 1_555
O4 C2 1_555 1_555
C1 H1 1_555 1_555
N1 C9 1_555 1_555
C2 C1 1_555 1_555
C3 H2 1_555 1_555
C4 C3 1_555 1_555
C5 C4 1_555 1_555
C6 C3 1_555 1_555
H3 C6 1_555 1_555
C7 C6 1_555 1_555
H4 C7 1_555 1_555
C8 O1 1_555 1_555
H5 C8 1_555 1_555
H6 C8 1_555 1_555
H7 C8 1_555 1_555
C9 C1 1_555 1_555
C10 O3 1_555 1_555
H8 C10 1_555 1_555
H9 C10 1_555 1_555
H10 C10 1_555 1_555
C11 C5 1_555 1_555
H11 C11 1_555 1_555
C12 N1 1_555 1_555
C4 C9 1_555 1_555
C5 C12 1_555 1_555
C7 C11 1_555 1_555

#END
