
#######################################################################
#
#                 Cambridge Crystallographic Data Centre
#                                CCDC 
#
#######################################################################
#
# If this CIF has been generated from an entry in the Cambridge 
# Structural Database, then it will include bibliographic, chemical, 
# crystal, experimental, refinement or atomic coordinate data resulting 
# from the CCDC's data processing and validation procedures.
#
#######################################################################

data_SAKHAP
_chemical_formula_moiety         'C19 H16 Cl1 N1 O3'
_chemical_name_systematic        
3-(4-Chlorophenyl)-2-(4-nitrobenzylidene)cyclohexanone
_symmetry_cell_setting           monoclinic
_symmetry_space_group_name_H-M   'P 21'
_symmetry_Int_Tables_number      4
_space_group_name_Hall           'P 2yb'
loop_
_symmetry_equiv_pos_site_id
_symmetry_equiv_pos_as_xyz
1 x,y,z
2 -x,1/2+y,-z
_cell_length_a                   11.1242(5)
_cell_length_b                   6.2039(3)
_cell_length_c                   13.0579(6)
_cell_angle_alpha                90
_cell_angle_beta                 111.5220(10)
_cell_angle_gamma                90
_cell_volume                     838.338
_exptl_crystal_colour            colorless
_exptl_crystal_description       block
_cell_formula_units_Z            2
loop_
_atom_site_label
_atom_site_type_symbol
_atom_site_fract_x
_atom_site_fract_y
_atom_site_fract_z
Cl1 Cl 0.34216(6) 0.65657(15) 0.79144(6)
O1 O -0.32601(19) 1.6815(4) 1.05294(18)
O2 O -0.13182(18) 1.6922(3) 1.05709(17)
O3 O -0.37811(19) 0.4711(3) 0.64647(17)
N1 N -0.23841(19) 1.6089(4) 1.02836(16)
C1 C -0.18595(18) 1.1472(4) 0.87179(15)
H1 H -0.1191 1.0865 0.8549
C2 C -0.16237(19) 1.3275(4) 0.93701(16)
H2 H -0.0807 1.3902 0.9634
C3 C -0.26193(19) 1.4140(4) 0.96269(16)
C4 C -0.3822(2) 1.3198(4) 0.92789(18)
H3 H -0.4475 1.3776 0.9480
C5 C -0.4041(2) 1.1393(5) 0.86311(17)
H4 H -0.4846 1.0729 0.8405
C6 C -0.3082(2) 1.0532(4) 0.83036(16)
C7 C -0.33870(19) 0.8678(4) 0.75572(17)
H5 H -0.3930 0.7648 0.7674
C8 C -0.29851(19) 0.8279(3) 0.67327(16)
C9 C -0.3498(2) 0.6298(4) 0.60563(19)
C10 C -0.3695(3) 0.6364(5) 0.48641(19)
H6 H -0.4570 0.6844 0.4455
H7 H -0.3614 0.4910 0.4624
C11 C -0.2770(3) 0.7809(5) 0.45709(18)
H8 H -0.1931 0.7119 0.4791
H9 H -0.3087 0.8019 0.3780
C12 C -0.2633(2) 0.9960(4) 0.51322(17)
H10 H -0.3470 1.0662 0.4898
H11 H -0.2057 1.0865 0.4915
C13 C -0.2098(2) 0.9720(3) 0.63899(16)
H12 H -0.2097 1.1150 0.6709
C14 C -0.0711(2) 0.8897(3) 0.68085(15)
C15 C -0.0338(2) 0.6960(4) 0.73384(19)
H13 H -0.0954 0.6106 0.7469
C16 C 0.0926(2) 0.6238(4) 0.7685(2)
H14 H 0.1153 0.4919 0.8043
C17 C 0.1826(2) 0.7464(4) 0.74987(17)
C18 C 0.1510(3) 0.9437(6) 0.7022(2)
H15 H 0.2143 1.0304 0.6926
C19 C 0.0244(3) 1.0153(4) 0.6678(2)
H16 H 0.0035 1.1506 0.6355
loop_
_geom_bond_atom_site_label_1
_geom_bond_atom_site_label_2
_geom_bond_site_symmetry_1
_geom_bond_site_symmetry_2
Cl1 C17 1_555 1_555
O1 N1 1_555 1_555
O2 N1 1_555 1_555
O3 C9 1_555 1_555
N1 C3 1_555 1_555
C1 H1 1_555 1_555
C2 C1 1_555 1_555
H2 C2 1_555 1_555
C3 C2 1_555 1_555
C4 C3 1_555 1_555
H3 C4 1_555 1_555
C5 C4 1_555 1_555
H4 C5 1_555 1_555
C6 C1 1_555 1_555
C7 C6 1_555 1_555
H5 C7 1_555 1_555
C8 C7 1_555 1_555
C9 C8 1_555 1_555
C10 C9 1_555 1_555
H6 C10 1_555 1_555
H7 C10 1_555 1_555
C11 C10 1_555 1_555
H8 C11 1_555 1_555
H9 C11 1_555 1_555
C12 C11 1_555 1_555
H10 C12 1_555 1_555
H11 C12 1_555 1_555
C13 C8 1_555 1_555
H12 C13 1_555 1_555
C14 C13 1_555 1_555
C15 C14 1_555 1_555
H13 C15 1_555 1_555
C16 C15 1_555 1_555
H14 C16 1_555 1_555
C17 C16 1_555 1_555
C18 C17 1_555 1_555
H15 C18 1_555 1_555
C19 C14 1_555 1_555
H16 C19 1_555 1_555
C5 C6 1_555 1_555
C12 C13 1_555 1_555
C18 C19 1_555 1_555

#END
