
#######################################################################
#
#                 Cambridge Crystallographic Data Centre
#                                CCDC 
#
#######################################################################
#
# If this CIF has been generated from an entry in the Cambridge 
# Structural Database, then it will include bibliographic, chemical, 
# crystal, experimental, refinement or atomic coordinate data resulting 
# from the CCDC's data processing and validation procedures.
#
#######################################################################

data_SAKHAQ
_chemical_formula_moiety         'C24 H23 F1 O3 S1'
_chemical_name_systematic        
5-(4-fluorophenyl)-2-methyl-4-((4-methylphenyl)sulfonyl)-2-phenyltetrahydrofuran
_symmetry_cell_setting           monoclinic
_symmetry_space_group_name_H-M   'P 21/c'
_symmetry_Int_Tables_number      14
_space_group_name_Hall           '-P 2ybc'
loop_
_symmetry_equiv_pos_site_id
_symmetry_equiv_pos_as_xyz
1 x,y,z
2 -x,1/2+y,1/2-z
3 -x,-y,-z
4 x,1/2-y,1/2+z
_cell_length_a                   5.8096(3)
_cell_length_b                   15.7969(8)
_cell_length_c                   22.8181(12)
_cell_angle_alpha                90
_cell_angle_beta                 91.2930(10)
_cell_angle_gamma                90
_cell_volume                     2093.57
_exptl_crystal_colour            colorless
_exptl_crystal_description       Tabular
_cell_formula_units_Z            4
loop_
_atom_site_label
_atom_site_type_symbol
_atom_site_fract_x
_atom_site_fract_y
_atom_site_fract_z
C1 C 0.7255(3) 0.65918(10) 0.39355(7)
H1 H 0.8697 0.6299 0.4036
C2 C 0.7089(3) 0.66455(11) 0.32632(7)
H2 H 0.8623 0.6752 0.3109
C3 C 0.6336(3) 0.57436(11) 0.31037(8)
H3 H 0.7639 0.5413 0.2975
H4 H 0.5175 0.5752 0.2791
C4 C 0.5337(3) 0.53611(11) 0.36708(8)
C5 C 0.2821(3) 0.51323(15) 0.36040(11)
H5 H 0.2237 0.4973 0.3978
H6 H 0.2650 0.4667 0.3336
H7 H 0.1975 0.5611 0.3455
C6 C 0.6740(3) 0.46106(11) 0.38889(7)
C7 C 0.7179(4) 0.39389(12) 0.35153(9)
H8 H 0.6607 0.3954 0.3131
C8 C 0.8442(5) 0.32543(13) 0.37035(11)
H9 H 0.8718 0.2809 0.3448
C9 C 0.9303(5) 0.32226(15) 0.42699(12)
H10 H 1.0189 0.2764 0.4396
C10 C 0.8842(4) 0.38715(14) 0.46442(10)
H11 H 0.9399 0.3848 0.5029
C11 C 0.7561(3) 0.45616(12) 0.44599(8)
H12 H 0.7251 0.4996 0.4722
C12 C 0.7206(3) 0.73883(10) 0.42988(7)
C13 C 0.5408(3) 0.75742(12) 0.46620(9)
H13 H 0.4160 0.7208 0.4680
C14 C 0.5450(4) 0.83016(14) 0.49990(10)
H14 H 0.4236 0.8430 0.5243
C15 C 0.7296(4) 0.88258(12) 0.49674(9)
C16 C 0.9110(3) 0.86640(12) 0.46197(9)
H15 H 1.0351 0.9035 0.4607
C17 C 0.9066(3) 0.79354(11) 0.42863(8)
H16 H 1.0304 0.7810 0.4050
C18 C 0.6181(3) 0.83964(11) 0.30715(8)
C19 C 0.5003(4) 0.89597(13) 0.34136(9)
H17 H 0.3624 0.8802 0.3582
C20 C 0.5886(4) 0.97606(14) 0.35051(10)
H18 H 0.5072 1.0143 0.3731
C21 C 0.7936(4) 1.00075(14) 0.32706(10)
C22 C 0.9086(4) 0.94305(15) 0.29312(10)
H19 H 1.0480 0.9585 0.2770
C23 C 0.8231(4) 0.86333(13) 0.28245(9)
H20 H 0.9023 0.8258 0.2589
C24 C 0.8913(6) 1.08789(16) 0.33874(15)
H21 H 1.0140 1.0988 0.3123
H22 H 0.9495 1.0908 0.3784
H23 H 0.7724 1.1295 0.3330
F1 F 0.7325(3) 0.95464(9) 0.52987(7)
O1 O 0.5438(2) 0.60456(7) 0.40891(5)
O2 O 0.2884(2) 0.73079(10) 0.32144(8)
O3 O 0.5171(3) 0.72280(10) 0.23200(6)
S1 S 0.50740(8) 0.73767(3) 0.29367(2)
loop_
_geom_bond_atom_site_label_1
_geom_bond_atom_site_label_2
_geom_bond_site_symmetry_1
_geom_bond_site_symmetry_2
C1 H1 1_555 1_555
C2 C1 1_555 1_555
H2 C2 1_555 1_555
C3 C2 1_555 1_555
H3 C3 1_555 1_555
H4 C3 1_555 1_555
C4 C3 1_555 1_555
C5 C4 1_555 1_555
H5 C5 1_555 1_555
H6 C5 1_555 1_555
H7 C5 1_555 1_555
C6 C4 1_555 1_555
C7 C6 1_555 1_555
H8 C7 1_555 1_555
C8 C7 1_555 1_555
H9 C8 1_555 1_555
C9 C8 1_555 1_555
H10 C9 1_555 1_555
C10 C9 1_555 1_555
H11 C10 1_555 1_555
C11 C6 1_555 1_555
H12 C11 1_555 1_555
C12 C1 1_555 1_555
C13 C12 1_555 1_555
H13 C13 1_555 1_555
C14 C13 1_555 1_555
H14 C14 1_555 1_555
C15 C14 1_555 1_555
C16 C15 1_555 1_555
H15 C16 1_555 1_555
C17 C12 1_555 1_555
H16 C17 1_555 1_555
C18 C19 1_555 1_555
C19 H17 1_555 1_555
C20 C19 1_555 1_555
H18 C20 1_555 1_555
C21 C20 1_555 1_555
C22 C21 1_555 1_555
H19 C22 1_555 1_555
C23 C18 1_555 1_555
H20 C23 1_555 1_555
C24 C21 1_555 1_555
H21 C24 1_555 1_555
H22 C24 1_555 1_555
H23 C24 1_555 1_555
F1 C15 1_555 1_555
O1 C1 1_555 1_555
O2 S1 1_555 1_555
O3 S1 1_555 1_555
S1 C2 1_555 1_555
C4 O1 1_555 1_555
C10 C11 1_555 1_555
C16 C17 1_555 1_555
C18 S1 1_555 1_555
C22 C23 1_555 1_555

#END
