
#######################################################################
#
#                 Cambridge Crystallographic Data Centre
#                                CCDC 
#
#######################################################################
#
# If this CIF has been generated from an entry in the Cambridge 
# Structural Database, then it will include bibliographic, chemical, 
# crystal, experimental, refinement or atomic coordinate data resulting 
# from the CCDC's data processing and validation procedures.
#
#######################################################################

data_SAKJAS
_chemical_formula_moiety         'C20 H26 O3'
_chemical_name_systematic        
6-hydroxy-7-(2-hydroxypropan-2-yl)-2,4a-dimethyl-1-methylene-2,3,4,4a,10,10a-hexahydrophenanthren-9(1H)-one
_symmetry_cell_setting           orthorhombic
_symmetry_space_group_name_H-M   'P 21 21 21'
_symmetry_Int_Tables_number      19
_space_group_name_Hall           'P 2ac 2ab'
loop_
_symmetry_equiv_pos_site_id
_symmetry_equiv_pos_as_xyz
1 x,y,z
2 1/2-x,-y,1/2+z
3 -x,1/2+y,1/2-z
4 1/2+x,1/2-y,-z
_cell_length_a                   8.7710(18)
_cell_length_b                   9.2054(18)
_cell_length_c                   21.565(4)
_cell_angle_alpha                90
_cell_angle_beta                 90
_cell_angle_gamma                90
_cell_volume                     1741.17
_exptl_crystal_colour            colorless
_exptl_crystal_description       block
_cell_formula_units_Z            4
loop_
_atom_site_label
_atom_site_type_symbol
_atom_site_fract_x
_atom_site_fract_y
_atom_site_fract_z
O1 O 0.36006(15) 0.49294(12) 0.96240(5)
O2 O 0.16486(17) 1.13520(11) 0.90257(5)
H1 H 0.1500 1.1696 0.9371
O3 O 0.14315(13) 1.13494(10) 1.02328(5)
H2 H 0.0587 1.1004 1.0303
C1 C 0.2510(2) 0.76578(17) 0.73579(7)
H3 H 0.1738 0.8406 0.7319
H4 H 0.3487 0.8136 0.7411
C2 C 0.2549(2) 0.67687(19) 0.67615(7)
H5 H 0.2844 0.7397 0.6421
H6 H 0.1532 0.6408 0.6675
C3 C 0.36495(19) 0.54858(18) 0.67919(7)
H7 H 0.4679 0.5886 0.6834
C4 C 0.33333(14) 0.46005(16) 0.73663(7)
C5 C 0.33583(14) 0.54855(14) 0.79585(7)
H8 H 0.4364 0.5948 0.7977
C6 C 0.32011(19) 0.45895(15) 0.85493(7)
H9 H 0.2258 0.4041 0.8529
H10 H 0.4035 0.3898 0.8568
C7 C 0.32023(15) 0.54702(15) 0.91300(6)
C8 C 0.27311(15) 0.69973(14) 0.90939(6)
C9 C 0.22977(15) 0.76396(14) 0.85293(6)
C10 C 0.21689(15) 0.67421(14) 0.79372(6)
C11 C 0.19315(19) 0.91068(15) 0.85399(7)
H11 H 0.1637 0.9556 0.8173
C12 C 0.19891(19) 0.99235(15) 0.90786(7)
C13 C 0.24082(16) 0.92923(14) 0.96492(6)
C14 C 0.27690(15) 0.78345(14) 0.96352(6)
H12 H 0.3052 0.7385 1.0004
C15 C 0.25557(17) 1.02070(15) 1.02383(7)
C16 C 0.4087(2) 1.0986(2) 1.02440(9)
H13 H 0.4172 1.1557 1.0615
H14 H 0.4159 1.1609 0.9888
H15 H 0.4895 1.0283 1.0232
C17 C 0.2351(2) 0.93044(18) 1.08251(7)
H16 H 0.2453 0.9919 1.1182
H17 H 0.3114 0.8557 1.0839
H18 H 0.1357 0.8868 1.0824
C18 C 0.05381(16) 0.6130(2) 0.79075(8)
H19 H -0.0178 0.6918 0.7893
H20 H 0.0347 0.5548 0.8268
H21 H 0.0428 0.5543 0.7542
C19 C 0.3605(3) 0.4641(2) 0.61823(8)
H22 H 0.4301 0.3838 0.6204
H23 H 0.3895 0.5270 0.5847
H24 H 0.2591 0.4284 0.6112
C20 C 0.30531(19) 0.31840(17) 0.73567(8)
H25 H 0.3045 0.2685 0.6982
H26 H 0.2865 0.2690 0.7725
loop_
_geom_bond_atom_site_label_1
_geom_bond_atom_site_label_2
_geom_bond_site_symmetry_1
_geom_bond_site_symmetry_2
O1 C7 1_555 1_555
O2 H1 1_555 1_555
O3 H2 1_555 1_555
C1 H3 1_555 1_555
H4 C1 1_555 1_555
C2 C1 1_555 1_555
H5 C2 1_555 1_555
H6 C2 1_555 1_555
C3 C2 1_555 1_555
H7 C3 1_555 1_555
C4 C3 1_555 1_555
C5 C4 1_555 1_555
H8 C5 1_555 1_555
C6 C5 1_555 1_555
H9 C6 1_555 1_555
H10 C6 1_555 1_555
C7 C6 1_555 1_555
C8 C7 1_555 1_555
C9 C8 1_555 1_555
C10 C1 1_555 1_555
C11 C9 1_555 1_555
H11 C11 1_555 1_555
C12 O2 1_555 1_555
C13 C12 1_555 1_555
C14 C8 1_555 1_555
H12 C14 1_555 1_555
C15 O3 1_555 1_555
C16 C15 1_555 1_555
H13 C16 1_555 1_555
H14 C16 1_555 1_555
H15 C16 1_555 1_555
C17 C15 1_555 1_555
H16 C17 1_555 1_555
H17 C17 1_555 1_555
H18 C17 1_555 1_555
C18 C10 1_555 1_555
H19 C18 1_555 1_555
H20 C18 1_555 1_555
H21 C18 1_555 1_555
C19 C3 1_555 1_555
H22 C19 1_555 1_555
H23 C19 1_555 1_555
H24 C19 1_555 1_555
C20 C4 1_555 1_555
H25 C20 1_555 1_555
H26 C20 1_555 1_555
C5 C10 1_555 1_555
C9 C10 1_555 1_555
C11 C12 1_555 1_555
C13 C14 1_555 1_555
C13 C15 1_555 1_555

#END
