
#######################################################################
#
#                 Cambridge Crystallographic Data Centre
#                                CCDC 
#
#######################################################################
#
# If this CIF has been generated from an entry in the Cambridge 
# Structural Database, then it will include bibliographic, chemical, 
# crystal, experimental, refinement or atomic coordinate data resulting 
# from the CCDC's data processing and validation procedures.
#
#######################################################################

data_SAKKAT
_chemical_formula_moiety         'C19 H26 O3'
_chemical_name_systematic        15\a,17\b-dihydroxyandrosta-1,4-dien-3-one
_symmetry_cell_setting           orthorhombic
_symmetry_space_group_name_H-M   'P 21 21 21'
_symmetry_Int_Tables_number      19
_space_group_name_Hall           'P 2ac 2ab'
loop_
_symmetry_equiv_pos_site_id
_symmetry_equiv_pos_as_xyz
1 x,y,z
2 1/2-x,-y,1/2+z
3 -x,1/2+y,1/2-z
4 1/2+x,1/2-y,-z
_cell_length_a                   6.2896(8)
_cell_length_b                   12.5281(14)
_cell_length_c                   40.585(4)
_cell_angle_alpha                90
_cell_angle_beta                 90
_cell_angle_gamma                90
_cell_volume                     3197.97
_exptl_crystal_colour            colorless
_exptl_crystal_description       Prism
_cell_formula_units_Z            8
loop_
_atom_site_label
_atom_site_type_symbol
_atom_site_fract_x
_atom_site_fract_y
_atom_site_fract_z
O1 O 0.6329(3) 0.44697(11) 0.37050(3)
O2 O 0.3027(3) 0.32205(11) 0.57410(3)
H1 H 0.409(5) 0.348(2) 0.5875(7)
O3 O 0.0704(3) 0.67566(12) 0.60657(4)
H2 H -0.056(6) 0.655(3) 0.6151(8)
C1 C 0.2936(4) 0.59266(15) 0.42406(4)
H3 H 0.2533 0.6647 0.4278
C2 C 0.4349(4) 0.57397(15) 0.40039(4)
H4 H 0.4891 0.6320 0.3879
C3 C 0.5079(3) 0.46580(15) 0.39332(4)
C4 C 0.4300(3) 0.38149(15) 0.41490(4)
H5 H 0.4826 0.3111 0.4119
C5 C 0.2866(3) 0.39931(14) 0.43881(4)
C6 C 0.2132(4) 0.31185(14) 0.46132(4)
H6 H 0.2879 0.2447 0.4558
H7 H 0.0587 0.3001 0.4583
C7 C 0.2587(4) 0.34178(14) 0.49737(4)
H8 H 0.2049 0.2848 0.5121
H9 H 0.4141 0.3479 0.5007
C8 C 0.1528(3) 0.44694(13) 0.50621(4)
H10 H -0.0045 0.4384 0.5037
C9 C 0.2275(3) 0.53696(13) 0.48280(4)
H11 H 0.3845 0.5438 0.4860
C10 C 0.1929(3) 0.50864(15) 0.44533(4)
C11 C 0.1306(4) 0.64561(15) 0.49239(4)
H12 H 0.1938 0.7019 0.4784
H13 H -0.0242 0.6440 0.4880
C12 C 0.1675(4) 0.67428(14) 0.52880(4)
H14 H 0.3212 0.6861 0.5326
H15 H 0.0917 0.7414 0.5340
C13 C 0.0886(3) 0.58579(14) 0.55146(4)
C14 C 0.1998(3) 0.48147(13) 0.54159(4)
H16 H 0.3559 0.4962 0.5426
C15 C 0.1512(3) 0.40542(15) 0.57037(4)
H17 H 0.0088 0.3723 0.5664
C16 C 0.1332(4) 0.48063(15) 0.60060(4)
H18 H -0.0083 0.4736 0.6110
H19 H 0.2436 0.4631 0.6171
C17 C 0.1653(3) 0.59394(15) 0.58741(4)
H20 H 0.3218 0.6079 0.5869
C18 C -0.1555(3) 0.57750(16) 0.55080(5)
H21 H -0.2005 0.5149 0.5635
H22 H -0.2040 0.5703 0.5280
H23 H -0.2173 0.6420 0.5605
C19 C -0.0458(4) 0.5060(2) 0.43621(5)
H24 H -0.1213 0.4584 0.4514
H25 H -0.0622 0.4798 0.4136
H26 H -0.1051 0.5781 0.4379
O4 O 0.8807(3) 0.61028(12) 0.11955(3)
O5 O 0.7960(3) 0.57353(10) 0.32050(3)
H27 H 0.735(5) 0.545(2) 0.3379(7)
O6 O 1.2189(3) 0.87473(12) 0.35709(4)
H28 H 1.118(6) 0.918(3) 0.3638(8)
C20 C 0.9435(4) 0.83016(16) 0.17452(4)
H29 H 1.0293 0.8922 0.1766
C21 C 0.9726(4) 0.76894(16) 0.14797(4)
H30 H 1.0737 0.7895 0.1318
C22 C 0.8509(3) 0.67077(16) 0.14351(4)
C23 C 0.6942(3) 0.64538(15) 0.16862(4)
H31 H 0.6113 0.5825 0.1661
C24 C 0.6614(3) 0.70701(14) 0.19519(4)
C25 C 0.5102(3) 0.67402(17) 0.22171(4)
H32 H 0.4362 0.6076 0.2152
H33 H 0.4020 0.7304 0.2251
C26 C 0.6341(3) 0.65563(14) 0.25383(4)
H34 H 0.5334 0.6374 0.2717
H35 H 0.7325 0.5947 0.2509
C27 C 0.7605(3) 0.75452(13) 0.26353(4)
H36 H 0.6577 0.8129 0.2688
C28 C 0.9069(3) 0.79354(14) 0.23528(4)
H37 H 1.0148 0.7361 0.2317
C29 C 0.7853(3) 0.80814(14) 0.20141(4)
C30 C 1.0308(3) 0.89408(14) 0.24551(4)
H38 H 0.9298 0.9540 0.2484
H39 H 1.1310 0.9136 0.2277
C31 C 1.1559(3) 0.87814(16) 0.27772(4)
H40 H 1.2712 0.8257 0.2740
H41 H 1.2219 0.9466 0.2843
C32 C 1.0123(3) 0.83853(14) 0.30551(4)
C33 C 0.9012(3) 0.73595(13) 0.29368(4)
H42 H 1.0173 0.6871 0.2862
C34 C 0.8102(3) 0.68596(14) 0.32506(4)
H43 H 0.6667 0.7164 0.3299
C35 C 0.9710(4) 0.71894(16) 0.35215(4)
H44 H 0.8968 0.7551 0.3705
H45 H 1.0453 0.6553 0.3609
C36 C 1.1302(3) 0.79521(15) 0.33582(4)
H46 H 1.2510 0.7508 0.3275
C37 C 0.8537(4) 0.92516(14) 0.31630(4)
H47 H 0.9318 0.9882 0.3239
H48 H 0.7652 0.8977 0.3343
H49 H 0.7631 0.9447 0.2976
C38 C 0.6314(4) 0.90447(16) 0.20265(5)
H50 H 0.5367 0.9024 0.1835
H51 H 0.7134 0.9710 0.2024
H52 H 0.5465 0.9010 0.2229
loop_
_geom_bond_atom_site_label_1
_geom_bond_atom_site_label_2
_geom_bond_site_symmetry_1
_geom_bond_site_symmetry_2
O1 C3 1_555 1_555
O2 H1 1_555 1_555
O3 H2 1_555 1_555
C1 H3 1_555 1_555
C2 C1 1_555 1_555
H4 C2 1_555 1_555
C3 C2 1_555 1_555
C4 C3 1_555 1_555
H5 C4 1_555 1_555
C5 C4 1_555 1_555
C6 C5 1_555 1_555
H6 C6 1_555 1_555
H7 C6 1_555 1_555
C7 C6 1_555 1_555
H8 C7 1_555 1_555
H9 C7 1_555 1_555
C8 C7 1_555 1_555
H10 C8 1_555 1_555
C9 C8 1_555 1_555
H11 C9 1_555 1_555
C10 C1 1_555 1_555
C11 C9 1_555 1_555
H12 C11 1_555 1_555
H13 C11 1_555 1_555
C12 C11 1_555 1_555
H14 C12 1_555 1_555
H15 C12 1_555 1_555
C13 C12 1_555 1_555
C14 C8 1_555 1_555
H16 C14 1_555 1_555
C15 O2 1_555 1_555
H17 C15 1_555 1_555
C16 C15 1_555 1_555
H18 C16 1_555 1_555
H19 C16 1_555 1_555
C17 O3 1_555 1_555
H20 C17 1_555 1_555
C18 C13 1_555 1_555
H21 C18 1_555 1_555
H22 C18 1_555 1_555
H23 C18 1_555 1_555
C19 C10 1_555 1_555
H24 C19 1_555 1_555
H25 C19 1_555 1_555
H26 C19 1_555 1_555
O4 C22 1_555 1_555
O5 H27 1_555 1_555
O6 H28 1_555 1_555
C20 H29 1_555 1_555
C21 C20 1_555 1_555
H30 C21 1_555 1_555
C22 C21 1_555 1_555
C23 C22 1_555 1_555
H31 C23 1_555 1_555
C24 C23 1_555 1_555
C25 C24 1_555 1_555
H32 C25 1_555 1_555
H33 C25 1_555 1_555
C26 C25 1_555 1_555
H34 C26 1_555 1_555
H35 C26 1_555 1_555
C27 C26 1_555 1_555
H36 C27 1_555 1_555
C28 C27 1_555 1_555
H37 C28 1_555 1_555
C29 C20 1_555 1_555
C30 C28 1_555 1_555
H38 C30 1_555 1_555
H39 C30 1_555 1_555
C31 C30 1_555 1_555
H40 C31 1_555 1_555
H41 C31 1_555 1_555
C32 C31 1_555 1_555
C33 C27 1_555 1_555
H42 C33 1_555 1_555
C34 O5 1_555 1_555
H43 C34 1_555 1_555
C35 C34 1_555 1_555
H44 C35 1_555 1_555
H45 C35 1_555 1_555
C36 O6 1_555 1_555
H46 C36 1_555 1_555
C37 C32 1_555 1_555
H47 C37 1_555 1_555
H48 C37 1_555 1_555
H49 C37 1_555 1_555
C38 C29 1_555 1_555
H50 C38 1_555 1_555
H51 C38 1_555 1_555
H52 C38 1_555 1_555
C5 C10 1_555 1_555
C9 C10 1_555 1_555
C13 C14 1_555 1_555
C13 C17 1_555 1_555
C14 C15 1_555 1_555
C16 C17 1_555 1_555
C24 C29 1_555 1_555
C28 C29 1_555 1_555
C32 C33 1_555 1_555
C32 C36 1_555 1_555
C33 C34 1_555 1_555
C35 C36 1_555 1_555

#END
