
#######################################################################
#
#                 Cambridge Crystallographic Data Centre
#                                CCDC 
#
#######################################################################
#
# If this CIF has been generated from an entry in the Cambridge 
# Structural Database, then it will include bibliographic, chemical, 
# crystal, experimental, refinement or atomic coordinate data resulting 
# from the CCDC's data processing and validation procedures.
#
#######################################################################

data_SAKMUP
_chemical_formula_moiety         'C22 H26'
_chemical_name_systematic        1,1'-ethyne-1,2-diylbis(4-t-butylbenzene)
_symmetry_cell_setting           monoclinic
_symmetry_space_group_name_H-M   'P 21/c'
_symmetry_Int_Tables_number      14
_space_group_name_Hall           '-P 2ybc'
loop_
_symmetry_equiv_pos_site_id
_symmetry_equiv_pos_as_xyz
1 x,y,z
2 -x,1/2+y,1/2-z
3 -x,-y,-z
4 x,1/2-y,1/2+z
_cell_length_a                   11.731(4)
_cell_length_b                   10.216(4)
_cell_length_c                   15.667(6)
_cell_angle_alpha                90
_cell_angle_beta                 96.915(7)
_cell_angle_gamma                90
_cell_volume                     1863.94
_exptl_crystal_colour            colorless
_exptl_crystal_description       block
_cell_formula_units_Z            4
loop_
_atom_site_label
_atom_site_type_symbol
_atom_site_fract_x
_atom_site_fract_y
_atom_site_fract_z
C1 C -0.3761(5) 0.3024(9) -0.0230(4)
H1 H -0.4223 0.3057 -0.0778
H2 H -0.4170 0.3421 0.0198
H3 H -0.3593 0.2128 -0.0077
C2 C -0.2947(8) 0.5044(8) -0.0592(5)
H4 H -0.3435 0.4992 -0.1128
H5 H -0.2253 0.5500 -0.0676
H6 H -0.3337 0.5508 -0.0180
C3 C -0.2101(6) 0.3028(12) -0.0925(4)
H7 H -0.2586 0.3033 -0.1464
H8 H -0.1964 0.2141 -0.0738
H9 H -0.1383 0.3442 -0.0994
C4 C -0.2669(4) 0.3745(5) -0.0280(3)
C5 C -0.1894(3) 0.3735(4) 0.0575(2)
C6 C -0.1279(4) 0.4814(5) 0.0878(3)
H10 H -0.1330 0.5577 0.0552
C7 C -0.0586(4) 0.4795(5) 0.1654(3)
H11 H -0.0185 0.5549 0.1839
C8 C -0.0471(3) 0.3694(4) 0.2162(2)
C9 C -0.1090(4) 0.2611(4) 0.1859(3)
H12 H -0.1036 0.1845 0.2182
C10 C -0.1790(4) 0.2638(4) 0.1085(3)
H13 H -0.2203 0.1891 0.0904
C11 C 0.0242(3) 0.3692(4) 0.2978(3)
C12 C 0.0831(3) 0.3722(4) 0.3654(3)
C13 C 0.1557(3) 0.3748(4) 0.4466(2)
C14 C 0.2726(3) 0.3908(4) 0.4500(2)
H14 H 0.3051 0.4001 0.3990
C15 C 0.3429(3) 0.3935(4) 0.5275(2)
H15 H 0.4215 0.4045 0.5272
C16 C 0.2999(3) 0.3803(4) 0.6050(2)
C17 C 0.1823(3) 0.3654(5) 0.6009(3)
H16 H 0.1495 0.3571 0.6518
C18 C 0.1124(3) 0.3623(5) 0.5240(3)
H17 H 0.0337 0.3516 0.5242
C19 C 0.3766(3) 0.3829(4) 0.6913(2)
C20 C 0.3483(6) 0.2713(7) 0.7475(4)
H18 H 0.3973 0.2748 0.8012
H19 H 0.3600 0.1898 0.7192
H20 H 0.2696 0.2778 0.7581
C21 C 0.3575(6) 0.5080(7) 0.7379(4)
H21 H 0.4056 0.5091 0.7920
H22 H 0.2784 0.5136 0.7478
H23 H 0.3761 0.5811 0.7037
C22 C 0.5004(4) 0.3749(9) 0.6816(3)
H24 H 0.5445 0.3767 0.7374
H25 H 0.5216 0.4479 0.6483
H26 H 0.5155 0.2948 0.6530
loop_
_geom_bond_atom_site_label_1
_geom_bond_atom_site_label_2
_geom_bond_site_symmetry_1
_geom_bond_site_symmetry_2
C1 H1 1_555 1_555
H2 C1 1_555 1_555
H3 C1 1_555 1_555
C2 H4 1_555 1_555
H5 C2 1_555 1_555
H6 C2 1_555 1_555
C3 H7 1_555 1_555
H8 C3 1_555 1_555
H9 C3 1_555 1_555
C4 C1 1_555 1_555
C5 C4 1_555 1_555
C6 C5 1_555 1_555
H10 C6 1_555 1_555
C7 C6 1_555 1_555
H11 C7 1_555 1_555
C8 C7 1_555 1_555
C9 C8 1_555 1_555
H12 C9 1_555 1_555
C10 C5 1_555 1_555
H13 C10 1_555 1_555
C11 C8 1_555 1_555
C12 C11 1_555 1_555
C13 C12 1_555 1_555
C14 C13 1_555 1_555
H14 C14 1_555 1_555
C15 C14 1_555 1_555
H15 C15 1_555 1_555
C16 C15 1_555 1_555
C17 C16 1_555 1_555
H16 C17 1_555 1_555
C18 C13 1_555 1_555
H17 C18 1_555 1_555
C19 C16 1_555 1_555
C20 C19 1_555 1_555
H18 C20 1_555 1_555
H19 C20 1_555 1_555
H20 C20 1_555 1_555
C21 C19 1_555 1_555
H21 C21 1_555 1_555
H22 C21 1_555 1_555
H23 C21 1_555 1_555
C22 C19 1_555 1_555
H24 C22 1_555 1_555
H25 C22 1_555 1_555
H26 C22 1_555 1_555
C2 C4 1_555 1_555
C3 C4 1_555 1_555
C9 C10 1_555 1_555
C17 C18 1_555 1_555

#END
