
#######################################################################
#
#                 Cambridge Crystallographic Data Centre
#                                CCDC 
#
#######################################################################
#
# If this CIF has been generated from an entry in the Cambridge 
# Structural Database, then it will include bibliographic, chemical, 
# crystal, experimental, refinement or atomic coordinate data resulting 
# from the CCDC's data processing and validation procedures.
#
#######################################################################

data_SAKQAX
_chemical_formula_moiety         'C12 H14 N2'
_chemical_name_systematic        3-Mesitylpyrazole
_symmetry_cell_setting           monoclinic
_symmetry_space_group_name_H-M   'P 21/n'
_symmetry_Int_Tables_number      14
_space_group_name_Hall           '-P 2yn'
loop_
_symmetry_equiv_pos_site_id
_symmetry_equiv_pos_as_xyz
1 x,y,z
2 1/2+x,1/2-y,1/2+z
3 -x,-y,-z
4 1/2-x,1/2+y,1/2-z
_cell_length_a                   12.7258(14)
_cell_length_b                   7.2287(8)
_cell_length_c                   23.646(3)
_cell_angle_alpha                90
_cell_angle_beta                 96.011(2)
_cell_angle_gamma                90
_cell_volume                     2163.26
_exptl_crystal_colour            colorless
_exptl_crystal_description       rods
_cell_formula_units_Z            8
loop_
_atom_site_label
_atom_site_type_symbol
_atom_site_fract_x
_atom_site_fract_y
_atom_site_fract_z
N1 N 0.15737(8) 0.40143(15) 0.08802(4)
N2 N 0.08164(9) 0.27630(15) 0.09724(5)
C1 C 0.42576(10) 0.39242(18) 0.09039(5)
C2 C 0.34489(9) 0.45186(17) 0.12208(5)
C3 C 0.24443(9) 0.34549(17) 0.12005(5)
C4 C 0.35856(10) 0.60987(18) 0.15655(5)
C5 C 0.45435(11) 0.70528(18) 0.15877(6)
H1 H 0.4640 0.8126 0.1819
C6 C 0.53584(10) 0.64806(19) 0.12820(6)
C7 C 0.52032(10) 0.49236(19) 0.09399(6)
H2 H 0.5752 0.4528 0.0725
C8 C 0.11940(11) 0.1451(2) 0.13379(7)
H3 H 0.0809 0.0433 0.1465
C9 C 0.64016(11) 0.7499(2) 0.13280(7)
H4 H 0.6282 0.8812 0.1402
H5 H 0.6723 0.7368 0.0971
H6 H 0.6876 0.6977 0.1641
C10 C 0.22420(11) 0.1845(2) 0.14960(7)
H7 H 0.2724 0.1167 0.1751
C11 C 0.27194(12) 0.6751(2) 0.19044(7)
H8 H 0.3002 0.7678 0.2182
H9 H 0.2443 0.5698 0.2104
H10 H 0.2149 0.7300 0.1648
C12 C 0.41154(12) 0.2246(2) 0.05241(7)
H11 H 0.4649 0.2258 0.0254
H12 H 0.3408 0.2267 0.0316
H13 H 0.4197 0.1123 0.0757
H28 H 0.0201(16) 0.279(3) 0.0769(8)
N3 N 0.80584(8) 0.32097(16) -0.00406(5)
C13 C 0.70904(10) 0.24551(18) -0.00786(6)
H14 H 0.6519 0.2729 -0.0358
N4 N 0.86897(8) 0.25160(15) 0.04068(4)
C14 C 0.85501(9) 0.01845(16) 0.11517(5)
C15 C 0.80961(9) 0.12881(16) 0.06520(5)
C16 C 0.90367(9) -0.15183(17) 0.10612(5)
C17 C 0.98454(12) -0.3085(2) 0.25854(6)
H15 H 0.9293 -0.3899 0.2705
H16 H 1.0100 -0.2267 0.2901
H17 H 1.0433 -0.3836 0.2477
C18 C 0.79670(12) 0.26676(19) 0.18079(6)
H18 H 0.7943 0.2848 0.2217
H19 H 0.7246 0.2674 0.1616
H20 H 0.8375 0.3670 0.1657
C19 C 0.94546(10) -0.25526(17) 0.15302(5)
H21 H 0.9785 -0.3704 0.1470
C20 C 0.93980(10) -0.19369(18) 0.20832(5)
C21 C 0.91300(11) -0.22233(19) 0.04686(6)
H22 H 0.9449 -0.3459 0.0490
H23 H 0.9576 -0.1381 0.0274
H24 H 0.8426 -0.2288 0.0257
C22 C 0.84856(9) 0.08337(17) 0.17058(5)
C23 C 0.89131(10) -0.02427(18) 0.21635(5)
H25 H 0.8872 0.0192 0.2540
C24 C 0.70787(10) 0.12104(18) 0.03617(5)
H26 H 0.6505 0.0461 0.0450
H27 H 0.8282(14) 0.409(3) -0.0283(8)
loop_
_geom_bond_atom_site_label_1
_geom_bond_atom_site_label_2
_geom_bond_site_symmetry_1
_geom_bond_site_symmetry_2
N1 N2 1_555 1_555
N2 C8 1_555 1_555
C1 C2 1_555 1_555
C2 C3 1_555 1_555
C3 N1 1_555 1_555
C4 C2 1_555 1_555
C5 C4 1_555 1_555
H1 C5 1_555 1_555
C6 C5 1_555 1_555
C7 C1 1_555 1_555
H2 C7 1_555 1_555
C8 H3 1_555 1_555
C9 C6 1_555 1_555
H4 C9 1_555 1_555
H5 C9 1_555 1_555
H6 C9 1_555 1_555
C10 C3 1_555 1_555
H7 C10 1_555 1_555
C11 C4 1_555 1_555
H8 C11 1_555 1_555
H9 C11 1_555 1_555
H10 C11 1_555 1_555
C12 C1 1_555 1_555
H11 C12 1_555 1_555
H12 C12 1_555 1_555
H13 C12 1_555 1_555
N3 C13 1_555 1_555
C13 H14 1_555 1_555
N4 N3 1_555 1_555
C14 C15 1_555 1_555
C15 N4 1_555 1_555
C16 C14 1_555 1_555
C17 H15 1_555 1_555
H16 C17 1_555 1_555
H17 C17 1_555 1_555
C18 H18 1_555 1_555
H19 C18 1_555 1_555
H20 C18 1_555 1_555
C19 C16 1_555 1_555
H21 C19 1_555 1_555
C20 C17 1_555 1_555
C21 C16 1_555 1_555
H22 C21 1_555 1_555
H23 C21 1_555 1_555
H24 C21 1_555 1_555
C22 C14 1_555 1_555
C23 C20 1_555 1_555
H25 C23 1_555 1_555
C24 C13 1_555 1_555
H26 C24 1_555 1_555
H27 N3 1_555 1_555
H28 N2 1_555 1_555
C6 C7 1_555 1_555
C8 C10 1_555 1_555
C15 C24 1_555 1_555
C18 C22 1_555 1_555
C19 C20 1_555 1_555
C22 C23 1_555 1_555

#END
