
#######################################################################
#
#                 Cambridge Crystallographic Data Centre
#                                CCDC 
#
#######################################################################
#
# If this CIF has been generated from an entry in the Cambridge 
# Structural Database, then it will include bibliographic, chemical, 
# crystal, experimental, refinement or atomic coordinate data resulting 
# from the CCDC's data processing and validation procedures.
#
#######################################################################

data_SAKTAB
_chemical_formula_moiety         'C6 H6 N3 1+,C2 H8 N1 O6 P2 1-'
_chemical_name_systematic        
'1H-Benzotriazol-3-ium (1-ammonioethane-1,1-diyl)bis(hydrogen (phosphonate))'
_symmetry_cell_setting           triclinic
_symmetry_space_group_name_H-M   'P -1'
_symmetry_Int_Tables_number      2
_space_group_name_Hall           '-P 1'
loop_
_symmetry_equiv_pos_site_id
_symmetry_equiv_pos_as_xyz
1 x,y,z
2 -x,-y,-z
_cell_length_a                   5.4483(15)
_cell_length_b                   9.366(3)
_cell_length_c                   12.918(4)
_cell_angle_alpha                94.059(4)
_cell_angle_beta                 95.706(4)
_cell_angle_gamma                99.278(4)
_cell_volume                     644.808
_exptl_crystal_colour            colorless
_exptl_crystal_description       block
_cell_formula_units_Z            2
loop_
_atom_site_label
_atom_site_type_symbol
_atom_site_fract_x
_atom_site_fract_y
_atom_site_fract_z
C1 C 0.3619(5) 0.7465(3) 0.3738(2)
C2 C 0.2463(6) 0.5973(3) 0.3164(2)
H1 H 0.1418 0.5427 0.3604
H2 H 0.3776 0.5454 0.2998
H3 H 0.1477 0.6109 0.2532
H10 H 0.618(7) 1.053(3) 0.376(3)
H11 H 0.298(9) 0.5517(18) 0.537(3)
N1 N 0.1483(4) 0.8240(3) 0.39907(18)
H12 H 0.0465 0.8257 0.3410
H13 H 0.2095 0.9145 0.4255
H14 H 0.0636 0.7771 0.4455
O1 O 0.6154(4) 0.8713(2) 0.55942(16)
O2 O 0.3403(4) 0.6348(2) 0.55898(16)
O3 O 0.7476(4) 0.6450(2) 0.47561(16)
O4 O 0.7278(4) 0.7734(2) 0.24171(16)
O5 O 0.3403(4) 0.8938(2) 0.20573(16)
O6 O 0.6910(4) 0.9939(2) 0.35053(18)
P1 P 0.54109(13) 0.72566(7) 0.49971(5)
P2 P 0.53891(13) 0.85666(8) 0.28309(5)
C3 C -0.0891(7) 0.8158(4) 0.8876(2)
C4 C -0.0296(6) 0.7530(3) 0.9797(2)
C5 C 0.1479(7) 0.6598(3) 0.9867(3)
H4 H 0.1936 0.6207 1.0485
C6 C 0.2493(7) 0.6304(4) 0.8961(3)
H5 H 0.3650 0.5675 0.8965
C7 C 0.1866(8) 0.6906(5) 0.8034(3)
H6 H 0.2614 0.6660 0.7445
C8 C 0.0177(8) 0.7851(4) 0.7961(3)
H7 H -0.0227 0.8260 0.7344
H8 H -0.311(8) 0.963(3) 0.871(3)
H9 H -0.170(7) 0.797(4) 1.1151(10)
N2 N -0.2540(6) 0.9054(3) 0.9121(2)
N3 N -0.3008(5) 0.9011(3) 1.0091(2)
N4 N -0.1690(5) 0.8081(3) 1.0501(2)
loop_
_geom_bond_atom_site_label_1
_geom_bond_atom_site_label_2
_geom_bond_site_symmetry_1
_geom_bond_site_symmetry_2
C1 C2 1_555 1_555
C2 H1 1_555 1_555
H2 C2 1_555 1_555
H3 C2 1_555 1_555
C3 C4 1_555 1_555
C4 C5 1_555 1_555
C5 H4 1_555 1_555
C6 C5 1_555 1_555
H5 C6 1_555 1_555
C7 C6 1_555 1_555
H6 C7 1_555 1_555
C8 C3 1_555 1_555
H7 C8 1_555 1_555
H8 N2 1_555 1_555
H9 N4 1_555 1_555
H10 O6 1_555 1_555
H11 O2 1_555 1_555
N1 C1 1_555 1_555
H12 N1 1_555 1_555
H13 N1 1_555 1_555
H14 N1 1_555 1_555
N2 C3 1_555 1_555
N3 N2 1_555 1_555
N4 C4 1_555 1_555
O1 P1 1_555 1_555
O2 P1 1_555 1_555
O3 P1 1_555 1_555
O4 P2 1_555 1_555
O5 P2 1_555 1_555
O6 P2 1_555 1_555
P1 C1 1_555 1_555
P2 C1 1_555 1_555
C7 C8 1_555 1_555
N3 N4 1_555 1_555

#END
