
#######################################################################
#
#                 Cambridge Crystallographic Data Centre
#                                CCDC 
#
#######################################################################
#
# If this CIF has been generated from an entry in the Cambridge 
# Structural Database, then it will include bibliographic, chemical, 
# crystal, experimental, refinement or atomic coordinate data resulting 
# from the CCDC's data processing and validation procedures.
#
#######################################################################

data_SAKWEJ
_chemical_formula_moiety         'C44 H58 N8 O10 S4'
_chemical_name_systematic        
N,N'-((7,7'-dimethoxy-1,1'-bis((4-methylphenyl)sulfonyl)octahydro-1H,1'H-5,5'-bi-imidazo[1,5-a]imidazole-6,6'(5H,5'H)-diyl)diethane-2,1-diyl)bis(4-methylbenzenesulfonamide)
_symmetry_cell_setting           monoclinic
_symmetry_space_group_name_H-M   'P 21/c'
_symmetry_Int_Tables_number      14
_space_group_name_Hall           '-P 2ybc'
loop_
_symmetry_equiv_pos_site_id
_symmetry_equiv_pos_as_xyz
1 x,y,z
2 -x,1/2+y,1/2-z
3 -x,-y,-z
4 x,1/2-y,1/2+z
_cell_length_a                   22.837(4)
_cell_length_b                   8.4513(13)
_cell_length_c                   26.840(4)
_cell_angle_alpha                90
_cell_angle_beta                 111.563(2)
_cell_angle_gamma                90
_cell_volume                     4817.64
_exptl_crystal_colour            brown
_exptl_crystal_description       block
_cell_formula_units_Z            4
loop_
_atom_site_label
_atom_site_type_symbol
_atom_site_fract_x
_atom_site_fract_y
_atom_site_fract_z
C1 C 0.1633(3) 0.1089(8) 0.4492(2)
H1 H 0.2040 0.0915 0.4475
H2 H 0.1372 0.0178 0.4355
H3 H 0.1677 0.1265 0.4857
C2 C 0.1329(2) 0.2535(7) 0.4157(2)
C3 C 0.1525(2) 0.4046(8) 0.43586(19)
H4 H 0.1831 0.4159 0.4699
C4 C 0.1269(2) 0.5374(7) 0.4060(2)
H5 H 0.1401 0.6374 0.4200
C5 C 0.0817(2) 0.5221(6) 0.35518(18)
C6 C 0.0604(2) 0.3736(6) 0.33535(18)
H6 H 0.0287 0.3627 0.3018
C7 C 0.0866(2) 0.2406(6) 0.3657(2)
H7 H 0.0725 0.1408 0.3519
S1 S 0.05426(5) 0.68819(15) 0.31391(5)
O1 O -0.00733(13) 0.6546(4) 0.27599(13)
O2 O 0.06570(15) 0.8266(4) 0.34712(14)
N1 N 0.09982(14) 0.7081(4) 0.27926(13)
C8 C 0.0982(2) 0.5887(6) 0.23877(18)
H8 H 0.0845 0.6350 0.2032
H9 H 0.0704 0.5017 0.2386
C9 C 0.16608(19) 0.5345(6) 0.25708(19)
H10 H 0.1735 0.4472 0.2821
H11 H 0.1765 0.5007 0.2268
N2 N 0.20395(14) 0.6739(4) 0.28328(13)
C10 C 0.16653(18) 0.7573(5) 0.30898(17)
H12 H 0.1803 0.7315 0.3472
C11 C 0.21605(18) 0.7885(5) 0.24562(17)
H13 H 0.1977 0.7483 0.2089
N3 N 0.18558(14) 0.9375(4) 0.24995(13)
C12 C 0.17600(18) 0.9310(5) 0.30030(16)
H14 H 0.1388 0.9924 0.2982
O3 O 0.22928(13) 0.9818(4) 0.34392(11)
C13 C 0.2392(2) 1.1489(6) 0.3439(2)
H15 H 0.2438 1.1791 0.3111
H16 H 0.2767 1.1765 0.3736
H17 H 0.2039 1.2032 0.3471
C14 C 0.13010(19) 0.9850(6) 0.20333(18)
H18 H 0.0955 1.0081 0.2150
H19 H 0.1174 0.8977 0.1782
C15 C 0.1430(2) 1.1284(6) 0.17548(19)
H20 H 0.1038 1.1632 0.1483
H21 H 0.1582 1.2132 0.2014
N4 N 0.18902(19) 1.1005(5) 0.15025(16)
H22 H 0.2200(13) 1.038(4) 0.1680(13)
S2 S 0.16564(6) 1.06895(18) 0.08684(5)
O4 O 0.22080(15) 1.0307(5) 0.07624(13)
O5 O 0.12712(16) 1.2006(4) 0.06021(13)
C16 C 0.1173(2) 0.9005(6) 0.07363(17)
C17 C 0.1439(2) 0.7514(7) 0.08103(19)
H23 H 0.1868 0.7399 0.0882
C18 C 0.1071(3) 0.6198(7) 0.0778(2)
H24 H 0.1255 0.5201 0.0821
C19 C 0.0432(3) 0.6318(8) 0.0683(2)
C20 C 0.0171(2) 0.7823(8) 0.05895(19)
H25 H -0.0260 0.7935 0.0505
C21 C 0.0531(2) 0.9161(7) 0.06181(18)
H26 H 0.0344 1.0156 0.0559
C22 C 0.0051(3) 0.4855(7) 0.0681(2)
H27 H 0.0285 0.3931 0.0659
H28 H -0.0338 0.4885 0.0378
H29 H -0.0036 0.4818 0.1005
C23 C 0.3334(2) 1.4840(8) 0.0534(2)
H30 H 0.2916 1.4958 0.0533
H31 H 0.3316 1.4727 0.0173
H32 H 0.3579 1.5758 0.0694
C24 C 0.3635(2) 1.3396(7) 0.0852(2)
C25 C 0.4089(2) 1.3535(7) 0.1355(2)
H33 H 0.4217 1.4541 0.1492
C26 C 0.4363(2) 1.2238(6) 0.16652(18)
H34 H 0.4672 1.2375 0.2003
C27 C 0.41746(19) 1.0726(6) 0.14689(18)
C28 C 0.3726(2) 1.0541(7) 0.0952(2)
H35 H 0.3604 0.9536 0.0812
C29 C 0.3465(2) 1.1872(8) 0.0652(2)
H36 H 0.3168 1.1747 0.0307
S3 S 0.44562(5) 0.90616(15) 0.18783(5)
O6 O 0.43285(16) 0.7680(4) 0.15464(14)
O7 O 0.50803(13) 0.9390(4) 0.22416(14)
N5 N 0.40305(14) 0.8864(4) 0.22487(13)
C30 C 0.4068(2) 1.0020(6) 0.26653(18)
H37 H 0.4350 1.0882 0.2669
H38 H 0.4211 0.9529 0.3016
C31 C 0.3394(2) 1.0598(5) 0.25026(18)
H39 H 0.3307 1.0938 0.2814
H40 H 0.3316 1.1476 0.2253
N6 N 0.30006(14) 0.9209(4) 0.22440(13)
C32 C 0.33575(17) 0.8375(5) 0.19732(16)
H41 H 0.3203 0.8624 0.1590
C33 C 0.32711(19) 0.6629(5) 0.20702(16)
H42 H 0.3645 0.6022 0.2090
O8 O 0.27357(13) 0.6105(4) 0.16352(11)
C34 C 0.2638(2) 0.4441(6) 0.1640(2)
H43 H 0.3006 0.3897 0.1636
H44 H 0.2282 0.4147 0.1329
H45 H 0.2562 0.4157 0.1957
C35 C 0.28798(17) 0.8073(5) 0.26193(16)
H46 H 0.3064 0.8473 0.2987
N7 N 0.31802(14) 0.6571(4) 0.25745(12)
C36 C 0.37294(19) 0.6068(6) 0.30365(18)
H47 H 0.3866 0.6936 0.3289
H48 H 0.4071 0.5816 0.2917
C37 C 0.3593(2) 0.4635(6) 0.33182(19)
H49 H 0.3416 0.3806 0.3056
H50 H 0.3987 0.4245 0.3576
N8 N 0.3159(2) 0.4947(5) 0.35962(16)
H51 H 0.2857(13) 0.557(4) 0.3402(13)
S4 S 0.34288(6) 0.52784(18) 0.42271(5)
O9 O 0.38277(16) 0.3951(4) 0.44793(13)
O10 O 0.28967(16) 0.5652(5) 0.43616(14)
C38 C 0.3906(2) 0.6979(6) 0.43256(17)
C39 C 0.4546(2) 0.6842(7) 0.44209(18)
H52 H 0.4738 0.5854 0.4491
C40 C 0.4895(2) 0.8161(8) 0.44113(19)
H53 H 0.5322 0.8062 0.4474
C41 C 0.4610(2) 0.9638(7) 0.43080(18)
C42 C 0.3985(2) 0.9778(7) 0.42362(19)
H54 H 0.3799 1.0774 0.4183
C43 C 0.3630(2) 0.8474(7) 0.42408(18)
H55 H 0.3206 0.8587 0.4188
C44 C 0.4978(3) 1.1124(7) 0.4274(2)
H56 H 0.5028 1.1147 0.3934
H57 H 0.5386 1.1106 0.4556
H58 H 0.4753 1.2048 0.4309
loop_
_geom_bond_atom_site_label_1
_geom_bond_atom_site_label_2
_geom_bond_site_symmetry_1
_geom_bond_site_symmetry_2
C1 H1 1_555 1_555
H2 C1 1_555 1_555
H3 C1 1_555 1_555
C2 C1 1_555 1_555
C3 C2 1_555 1_555
H4 C3 1_555 1_555
C4 C3 1_555 1_555
H5 C4 1_555 1_555
C5 C4 1_555 1_555
C6 C5 1_555 1_555
H6 C6 1_555 1_555
C7 C2 1_555 1_555
H7 C7 1_555 1_555
S1 C5 1_555 1_555
O1 S1 1_555 1_555
O2 S1 1_555 1_555
N1 S1 1_555 1_555
C8 N1 1_555 1_555
H8 C8 1_555 1_555
H9 C8 1_555 1_555
C9 C8 1_555 1_555
H10 C9 1_555 1_555
H11 C9 1_555 1_555
N2 C9 1_555 1_555
C10 N1 1_555 1_555
H12 C10 1_555 1_555
C11 N2 1_555 1_555
H13 C11 1_555 1_555
N3 C11 1_555 1_555
C12 C10 1_555 1_555
H14 C12 1_555 1_555
O3 C12 1_555 1_555
C13 O3 1_555 1_555
H15 C13 1_555 1_555
H16 C13 1_555 1_555
H17 C13 1_555 1_555
C14 N3 1_555 1_555
H18 C14 1_555 1_555
H19 C14 1_555 1_555
C15 C14 1_555 1_555
H20 C15 1_555 1_555
H21 C15 1_555 1_555
N4 C15 1_555 1_555
H22 N4 1_555 1_555
S2 N4 1_555 1_555
O4 S2 1_555 1_555
O5 S2 1_555 1_555
C16 S2 1_555 1_555
C17 C16 1_555 1_555
H23 C17 1_555 1_555
C18 C17 1_555 1_555
H24 C18 1_555 1_555
C19 C18 1_555 1_555
C20 C19 1_555 1_555
H25 C20 1_555 1_555
C21 C16 1_555 1_555
H26 C21 1_555 1_555
C22 C19 1_555 1_555
H27 C22 1_555 1_555
H28 C22 1_555 1_555
H29 C22 1_555 1_555
C23 H30 1_555 1_555
H31 C23 1_555 1_555
H32 C23 1_555 1_555
C24 C23 1_555 1_555
C25 C24 1_555 1_555
H33 C25 1_555 1_555
C26 C25 1_555 1_555
H34 C26 1_555 1_555
C27 C26 1_555 1_555
C28 C27 1_555 1_555
H35 C28 1_555 1_555
C29 C24 1_555 1_555
H36 C29 1_555 1_555
S3 C27 1_555 1_555
O6 S3 1_555 1_555
O7 S3 1_555 1_555
N5 S3 1_555 1_555
C30 N5 1_555 1_555
H37 C30 1_555 1_555
H38 C30 1_555 1_555
C31 C30 1_555 1_555
H39 C31 1_555 1_555
H40 C31 1_555 1_555
N6 C31 1_555 1_555
C32 N5 1_555 1_555
H41 C32 1_555 1_555
C33 C32 1_555 1_555
H42 C33 1_555 1_555
O8 C33 1_555 1_555
C34 O8 1_555 1_555
H43 C34 1_555 1_555
H44 C34 1_555 1_555
H45 C34 1_555 1_555
C35 C11 1_555 1_555
H46 C35 1_555 1_555
N7 C33 1_555 1_555
C36 N7 1_555 1_555
H47 C36 1_555 1_555
H48 C36 1_555 1_555
C37 C36 1_555 1_555
H49 C37 1_555 1_555
H50 C37 1_555 1_555
N8 C37 1_555 1_555
H51 N8 1_555 1_555
S4 N8 1_555 1_555
O9 S4 1_555 1_555
O10 S4 1_555 1_555
C38 S4 1_555 1_555
C39 C38 1_555 1_555
H52 C39 1_555 1_555
C40 C39 1_555 1_555
H53 C40 1_555 1_555
C41 C40 1_555 1_555
C42 C41 1_555 1_555
H54 C42 1_555 1_555
C43 C38 1_555 1_555
H55 C43 1_555 1_555
C44 C41 1_555 1_555
H56 C44 1_555 1_555
H57 C44 1_555 1_555
H58 C44 1_555 1_555
C6 C7 1_555 1_555
N2 C10 1_555 1_555
N3 C12 1_555 1_555
C20 C21 1_555 1_555
C28 C29 1_555 1_555
N6 C32 1_555 1_555
N6 C35 1_555 1_555
C35 N7 1_555 1_555
C42 C43 1_555 1_555

#END
