
#######################################################################
#
#                 Cambridge Crystallographic Data Centre
#                                CCDC 
#
#######################################################################
#
# If this CIF has been generated from an entry in the Cambridge 
# Structural Database, then it will include bibliographic, chemical, 
# crystal, experimental, refinement or atomic coordinate data resulting 
# from the CCDC's data processing and validation procedures.
#
#######################################################################

data_SAKWAF
_chemical_formula_moiety         'C23 H30 N4 O6 S2'
_chemical_name_systematic        
10-methoxy-1,6-bis((4-methylphenyl)sulfonyl)octahydro-1H,4aH-imidazo[1',2':3,4]imidazo[1,2-a]pyrazin-5-ol
_symmetry_cell_setting           triclinic
_symmetry_space_group_name_H-M   'P -1'
_symmetry_Int_Tables_number      2
_space_group_name_Hall           '-P 1'
loop_
_symmetry_equiv_pos_site_id
_symmetry_equiv_pos_as_xyz
1 x,y,z
2 -x,-y,-z
_cell_length_a                   10.0844(19)
_cell_length_b                   11.262(2)
_cell_length_c                   12.755(2)
_cell_angle_alpha                108.561(2)
_cell_angle_beta                 98.472(3)
_cell_angle_gamma                111.162(2)
_cell_volume                     1223
_exptl_crystal_colour            colorless
_exptl_crystal_description       block
_cell_formula_units_Z            2
loop_
_atom_site_label
_atom_site_type_symbol
_atom_site_fract_x
_atom_site_fract_y
_atom_site_fract_z
N1 N 1.0929(3) 1.0165(3) 0.7908(2)
C1 C 1.1165(4) 1.0195(4) 0.6805(3)
H1 H 1.2086 1.0132 0.6743
H2 H 1.1233 1.1061 0.6766
C2 C 0.9854(4) 0.8966(3) 0.5817(3)
H3 H 0.8952 0.9091 0.5818
H4 H 1.0037 0.8903 0.5080
N2 N 0.9684(3) 0.7704(3) 0.5976(2)
C3 C 0.9382(4) 0.7737(3) 0.7056(3)
H5 H 0.8513 0.7924 0.7112
C4 C 1.0761(4) 0.8875(3) 0.8046(3)
H6 H 1.0567 0.8929 0.8787
O1 O 1.2023(3) 0.8626(3) 0.8008(2)
H7 H 1.1862 0.8026 0.7374
N3 N 0.6737(3) 0.4612(3) 0.5581(2)
C5 C 0.6456(4) 0.5193(4) 0.6685(3)
H8 H 0.5719 0.4474 0.6828
H9 H 0.6124 0.5905 0.6702
C6 C 0.7978(4) 0.5806(4) 0.7558(3)
H10 H 0.8084 0.6560 0.8250
H11 H 0.8125 0.5101 0.7775
N4 N 0.9054(3) 0.6325(3) 0.6954(2)
C7 C 0.8329(4) 0.5414(3) 0.5712(3)
H12 H 0.8792 0.4789 0.5444
C8 C 0.8544(4) 0.6407(3) 0.5088(3)
H13 H 0.7623 0.6495 0.4868
O2 O 0.9066(3) 0.6077(3) 0.4144(2)
C9 C 0.7929(7) 0.5269(6) 0.3054(4)
H14 H 0.7435 0.4325 0.2973
H15 H 0.8369 0.5290 0.2438
H16 H 0.7219 0.5650 0.3019
O3 O 1.1350(3) 1.2614(3) 0.8705(3)
O4 O 1.1267(3) 1.1343(3) 0.9982(2)
S1 S 1.17101(11) 1.16507(10) 0.90495(9)
C10 C 1.3664(4) 1.2275(3) 0.9397(3)
C11 C 1.4373(5) 1.1765(4) 1.0024(3)
H17 H 1.3823 1.1084 1.0253
C12 C 1.5914(5) 1.2275(5) 1.0311(4)
H18 H 1.6390 1.1939 1.0745
C13 C 1.6744(5) 1.3261(4) 0.9967(4)
C14 C 1.6016(5) 1.3759(4) 0.9356(4)
H19 H 1.6569 1.4451 0.9138
C15 C 1.4490(5) 1.3271(4) 0.9052(3)
H20 H 1.4023 1.3611 0.8618
C16 C 1.8415(5) 1.3795(5) 1.0269(4)
H21 H 1.8750 1.3484 1.0829
H22 H 1.8871 1.4794 1.0587
H23 H 1.8685 1.3449 0.9583
O5 O 0.6584(3) 0.2654(3) 0.3943(2)
O6 O 0.4317(3) 0.2557(3) 0.4536(2)
S2 S 0.58893(11) 0.29305(9) 0.48365(8)
C17 C 0.6234(4) 0.2131(3) 0.5757(3)
C18 C 0.7630(4) 0.2175(4) 0.6078(3)
H24 H 0.8379 0.2606 0.5794
C19 C 0.7900(4) 0.1572(4) 0.6823(4)
H25 H 0.8843 0.1616 0.7045
C20 C 0.6811(4) 0.0909(4) 0.7246(3)
C21 C 0.5416(4) 0.0871(4) 0.6911(3)
H26 H 0.4665 0.0430 0.7188
C22 C 0.5124(4) 0.1477(4) 0.6174(3)
H27 H 0.4185 0.1444 0.5960
C23 C 0.7096(5) 0.0224(4) 0.8046(3)
H28 H 0.8119 0.0721 0.8512
H29 H 0.6886 -0.0722 0.7594
H30 H 0.6463 0.0239 0.8539
loop_
_geom_bond_atom_site_label_1
_geom_bond_atom_site_label_2
_geom_bond_site_symmetry_1
_geom_bond_site_symmetry_2
N1 C1 1_555 1_555
C1 H1 1_555 1_555
H2 C1 1_555 1_555
C2 C1 1_555 1_555
H3 C2 1_555 1_555
H4 C2 1_555 1_555
N2 C2 1_555 1_555
C3 N2 1_555 1_555
H5 C3 1_555 1_555
C4 N1 1_555 1_555
H6 C4 1_555 1_555
O1 C4 1_555 1_555
H7 O1 1_555 1_555
N3 C5 1_555 1_555
C5 H8 1_555 1_555
H9 C5 1_555 1_555
C6 C5 1_555 1_555
H10 C6 1_555 1_555
H11 C6 1_555 1_555
N4 C3 1_555 1_555
C7 N3 1_555 1_555
H12 C7 1_555 1_555
C8 N2 1_555 1_555
H13 C8 1_555 1_555
O2 C8 1_555 1_555
C9 O2 1_555 1_555
H14 C9 1_555 1_555
H15 C9 1_555 1_555
H16 C9 1_555 1_555
O3 S1 1_555 1_555
O4 S1 1_555 1_555
S1 N1 1_555 1_555
C10 S1 1_555 1_555
C11 C10 1_555 1_555
H17 C11 1_555 1_555
C12 C11 1_555 1_555
H18 C12 1_555 1_555
C13 C12 1_555 1_555
C14 C13 1_555 1_555
H19 C14 1_555 1_555
C15 C10 1_555 1_555
H20 C15 1_555 1_555
C16 C13 1_555 1_555
H21 C16 1_555 1_555
H22 C16 1_555 1_555
H23 C16 1_555 1_555
O5 S2 1_555 1_555
O6 S2 1_555 1_555
S2 N3 1_555 1_555
C17 S2 1_555 1_555
C18 C17 1_555 1_555
H24 C18 1_555 1_555
C19 C18 1_555 1_555
H25 C19 1_555 1_555
C20 C19 1_555 1_555
C21 C20 1_555 1_555
H26 C21 1_555 1_555
C22 C17 1_555 1_555
H27 C22 1_555 1_555
C23 C20 1_555 1_555
H28 C23 1_555 1_555
H29 C23 1_555 1_555
H30 C23 1_555 1_555
C3 C4 1_555 1_555
C6 N4 1_555 1_555
N4 C7 1_555 1_555
C7 C8 1_555 1_555
C14 C15 1_555 1_555
C21 C22 1_555 1_555

#END
