
#######################################################################
#
#                 Cambridge Crystallographic Data Centre
#                                CCDC 
#
#######################################################################
#
# If this CIF has been generated from an entry in the Cambridge 
# Structural Database, then it will include bibliographic, chemical, 
# crystal, experimental, refinement or atomic coordinate data resulting 
# from the CCDC's data processing and validation procedures.
#
#######################################################################

data_SAKXIO
_chemical_formula_moiety         'C22 H13 N3 O6'
_chemical_name_systematic        
2-methyl-5-(2-nitrophenyl)-3,5-dihydro-4H-benzo[6,7]chromeno[2,3-d]pyrimidine-4,6,11-trione
_symmetry_cell_setting           monoclinic
_symmetry_space_group_name_H-M   'C 2/c'
_symmetry_Int_Tables_number      15
_space_group_name_Hall           '-C 2yn'
loop_
_symmetry_equiv_pos_site_id
_symmetry_equiv_pos_as_xyz
1 x,y,z
2 -x,y,1/2-z
3 1/2+x,1/2+y,z
4 1/2-x,1/2+y,1/2-z
5 -x,-y,-z
6 x,-y,1/2+z
7 1/2-x,1/2-y,-z
8 1/2+x,1/2-y,1/2+z
_cell_length_a                   15.519(3)
_cell_length_b                   12.716(3)
_cell_length_c                   19.369(4)
_cell_angle_alpha                90
_cell_angle_beta                 111.03(3)
_cell_angle_gamma                90
_cell_volume                     3567.68
_exptl_crystal_colour            yellow
_exptl_crystal_description       plate
_cell_formula_units_Z            8
loop_
_atom_site_label
_atom_site_type_symbol
_atom_site_fract_x
_atom_site_fract_y
_atom_site_fract_z
O1 O 0.09241(12) 0.19412(15) -0.15457(10)
O2 O 0.00184(12) 0.40108(16) 0.04996(9)
O3 O 0.15798(11) 0.45399(14) 0.03224(9)
O4 O 0.40767(10) 0.41010(13) -0.05373(9)
O5 O 0.36229(13) 0.27983(16) -0.22040(11)
O6 O 0.30206(15) 0.20525(15) -0.14865(11)
N1 N 0.41374(13) 0.51851(16) 0.04144(10)
H1 H 0.4710 0.5353 0.0473
N2 N 0.29123(13) 0.54215(17) 0.08318(11)
N3 N 0.30544(14) 0.27660(16) -0.18967(11)
C1 C -0.13387(16) 0.2651(2) -0.04619(14)
H2 H -0.1504 0.3008 -0.0097
C2 C -0.19502(18) 0.1956(2) -0.09426(15)
H3 H -0.2534 0.1831 -0.0902
C3 C -0.17196(18) 0.1442(2) -0.14818(16)
H4 H -0.2147 0.0972 -0.1812
C4 C -0.08708(17) 0.1610(2) -0.15431(15)
H5 H -0.0715 0.1255 -0.1914
C5 C -0.02452(16) 0.22998(19) -0.10615(13)
C6 C -0.04787(16) 0.28233(19) -0.05164(13)
C7 C 0.01741(16) 0.3578(2) -0.00031(13)
C8 C 0.10487(15) 0.37866(19) -0.01425(12)
C9 C 0.12866(15) 0.32780(18) -0.06515(12)
C10 C 0.06704(16) 0.24618(18) -0.11252(13)
C11 C 0.21770(15) 0.34913(18) -0.07797(11)
H6 H 0.2523 0.2816 -0.0735
C12 C 0.27570(15) 0.42470(18) -0.01936(12)
C13 C 0.24456(15) 0.47227(19) 0.03010(12)
C14 C 0.37546(16) 0.5633(2) 0.08717(13)
C15 C 0.43399(18) 0.6385(2) 0.14285(15)
H7 H 0.3994 0.6659 0.1725
H8 H 0.4516 0.6969 0.1176
H9 H 0.4897 0.6025 0.1752
C16 C 0.36806(15) 0.44801(18) -0.01381(12)
C17 C 0.19618(15) 0.39401(18) -0.15596(12)
C18 C 0.23621(16) 0.36178(18) -0.20642(12)
C19 C 0.21479(18) 0.4071(2) -0.27569(13)
H10 H 0.2443 0.3837 -0.3082
C20 C 0.15006(18) 0.4866(2) -0.29679(14)
H11 H 0.1330 0.5165 -0.3448
C21 C 0.11020(17) 0.5225(2) -0.24813(14)
H12 H 0.0669 0.5785 -0.2621
C22 C 0.13336(16) 0.47678(19) -0.17834(13)
H13 H 0.1056 0.5027 -0.1453
loop_
_geom_bond_atom_site_label_1
_geom_bond_atom_site_label_2
_geom_bond_site_symmetry_1
_geom_bond_site_symmetry_2
O1 C10 1_555 1_555
O2 C7 1_555 1_555
O3 C8 1_555 1_555
O4 C16 1_555 1_555
O5 N3 1_555 1_555
O6 N3 1_555 1_555
N1 H1 1_555 1_555
N2 C13 1_555 1_555
N3 C18 1_555 1_555
C1 H2 1_555 1_555
C2 C1 1_555 1_555
H3 C2 1_555 1_555
C3 C2 1_555 1_555
H4 C3 1_555 1_555
C4 C3 1_555 1_555
H5 C4 1_555 1_555
C5 C4 1_555 1_555
C6 C1 1_555 1_555
C7 C6 1_555 1_555
C8 C7 1_555 1_555
C9 C8 1_555 1_555
C10 C5 1_555 1_555
C11 C9 1_555 1_555
H6 C11 1_555 1_555
C12 C11 1_555 1_555
C13 O3 1_555 1_555
C14 N1 1_555 1_555
C15 C14 1_555 1_555
H7 C15 1_555 1_555
H8 C15 1_555 1_555
H9 C15 1_555 1_555
C16 N1 1_555 1_555
C17 C11 1_555 1_555
C18 C17 1_555 1_555
C19 C18 1_555 1_555
H10 C19 1_555 1_555
C20 C19 1_555 1_555
H11 C20 1_555 1_555
C21 C20 1_555 1_555
H12 C21 1_555 1_555
C22 C17 1_555 1_555
H13 C22 1_555 1_555
N2 C14 1_555 1_555
C5 C6 1_555 1_555
C9 C10 1_555 1_555
C12 C13 1_555 1_555
C12 C16 1_555 1_555
C21 C22 1_555 1_555

#END
