
#######################################################################
#
#                 Cambridge Crystallographic Data Centre
#                                CCDC 
#
#######################################################################
#
# If this CIF has been generated from an entry in the Cambridge 
# Structural Database, then it will include bibliographic, chemical, 
# crystal, experimental, refinement or atomic coordinate data resulting 
# from the CCDC's data processing and validation procedures.
#
#######################################################################

data_SAKYEL
_chemical_formula_moiety         'C33 H34 Cl1 N1 O5 S1'
_chemical_name_systematic        
'dimethyl 9-benzyl-7-chloro-4-[(4-methoxyphenyl)sulfanyl]-4a-(prop-2-en-1-yl)-2,3,4,4a,9,9a-hexahydro-1H-carbazole-1,1-dicarboxylate'
_symmetry_cell_setting           monoclinic
_symmetry_space_group_name_H-M   'P 21'
_symmetry_Int_Tables_number      4
_space_group_name_Hall           'P 2yb'
loop_
_symmetry_equiv_pos_site_id
_symmetry_equiv_pos_as_xyz
1 x,y,z
2 -x,1/2+y,-z
_cell_length_a                   11.430(4)
_cell_length_b                   9.337(3)
_cell_length_c                   14.080(4)
_cell_angle_alpha                90
_cell_angle_beta                 96.168(7)
_cell_angle_gamma                90
_cell_volume                     1493.95
_exptl_crystal_colour            colorless
_exptl_crystal_description       prismatic
_cell_formula_units_Z            2
loop_
_atom_site_label
_atom_site_type_symbol
_atom_site_fract_x
_atom_site_fract_y
_atom_site_fract_z
S1 S 0.88064(19) 0.4913(3) 0.44702(14)
Cl1 Cl 1.3144(3) 0.3446(6) 0.8537(3)
N1 N 0.8844(6) 0.5203(9) 0.8103(4)
O1 O 0.6763(12) 0.2876(18) 0.8555(7)
O2 O 0.6175(8) 0.511(2) 0.8524(6)
O3 O 0.5253(7) 0.3785(11) 0.6194(6)
O4 O 0.5779(5) 0.6021(11) 0.6439(5)
O5 O 0.5043(8) 0.3742(10) 0.1381(5)
C1 C 0.9912(7) 0.4774(11) 0.7783(5)
C2 C 1.0913(9) 0.4345(11) 0.8335(7)
H1 H 1.0945 0.4283 0.8996
C3 C 1.1857(9) 0.4014(13) 0.7865(8)
C4 C 1.1850(8) 0.4125(13) 0.6896(8)
H2 H 1.2520 0.3904 0.6605
C5 C 1.0856(8) 0.4559(10) 0.6367(7)
H3 H 1.0838 0.4628 0.5707
C6 C 0.9871(7) 0.4901(10) 0.6805(5)
C7 C 0.8703(6) 0.5571(10) 0.6403(5)
C8 C 0.7973(7) 0.5476(11) 0.7268(5)
H4 H 0.7588 0.6398 0.7350
C9 C 0.7040(8) 0.4277(13) 0.7187(7)
C10 C 0.7549(9) 0.2951(12) 0.6790(7)
H5 H 0.6961 0.2198 0.6757
H6 H 0.8214 0.2637 0.7226
C11 C 0.7950(9) 0.3156(10) 0.5806(7)
H7 H 0.8696 0.2668 0.5781
H8 H 0.7380 0.2719 0.5333
C12 C 0.8092(6) 0.4707(9) 0.5556(5)
H9 H 0.7297 0.5102 0.5421
C13 C 0.8923(7) 0.7130(10) 0.6157(6)
H10 H 0.9259 0.7611 0.6734
H11 H 0.9508 0.7153 0.5707
C14 C 0.7893(9) 0.7955(11) 0.5750(7)
H12 H 0.7457 0.7569 0.5215
C15 C 0.7555(14) 0.9096(14) 0.6044(10)
H13 H 0.7962 0.9525 0.6577
H14 H 0.6890 0.9536 0.5736
C16 C 0.8882(10) 0.6083(16) 0.8977(6)
H15 H 0.8111 0.6054 0.9205
H16 H 0.9434 0.5647 0.9463
C17 C 0.9213(9) 0.7577(15) 0.8877(7)
C18 C 0.8351(14) 0.864(2) 0.8768(9)
H17 H 0.7562 0.8413 0.8792
C19 C 0.8710(16) 1.006(2) 0.8621(9)
H18 H 0.8141 1.0780 0.8562
C20 C 0.9778(17) 1.041(2) 0.8567(10)
H19 H 0.9973 1.1351 0.8439
C21 C 1.0603(15) 0.943(3) 0.8693(13)
H20 H 1.1386 0.9698 0.8695
C22 C 1.0329(12) 0.798(2) 0.8824(12)
H21 H 1.0924 0.7293 0.8874
C23 C 0.6647(9) 0.4091(17) 0.8187(8)
C24 C 0.575(2) 0.552(6) 0.9455(16)
H22 H 0.4964 0.5166 0.9477
H23 H 0.6260 0.5117 0.9971
C25 C 0.5922(9) 0.4638(15) 0.6552(7)
C26 C 0.4757(10) 0.6496(18) 0.5819(9)
H24 H 0.4804 0.6142 0.5184
H25 H 0.4734 0.7524 0.5808
H26 H 0.4056 0.6136 0.6054
C27 C 0.7619(8) 0.4497(10) 0.3595(6)
C28 C 0.7614(8) 0.3268(10) 0.3076(6)
H27 H 0.8206 0.2595 0.3221
C29 C 0.6753(10) 0.3001(11) 0.2343(7)
H28 H 0.6762 0.2152 0.1998
C30 C 0.5877(9) 0.3984(12) 0.2119(6)
C31 C 0.5851(10) 0.5248(11) 0.2657(7)
H29 H 0.5262 0.5927 0.2518
C32 C 0.6721(10) 0.5446(12) 0.3393(7)
H30 H 0.6698 0.6261 0.3770
C33 C 0.464(2) 0.494(3) 0.0827(18)
H31 H 0.4141 0.5515 0.1181
H32 H 0.4198 0.4617 0.0246
H33 H 0.5297 0.5497 0.0675
C34? C 0.657(3) 0.213(5) 0.935(2)
C35? C 0.495(3) 0.249(3) 0.0898(15)
H34? H 0.5665 0.2320 0.0614
H35? H 0.4302 0.2545 0.0407
H36? H 0.4822 0.1728 0.1330
H37? H 0.5749 0.6547 0.9513
loop_
_geom_bond_atom_site_label_1
_geom_bond_atom_site_label_2
_geom_bond_site_symmetry_1
_geom_bond_site_symmetry_2
S1 C12 1_555 1_555
Cl1 C3 1_555 1_555
N1 C1 1_555 1_555
O1 C23 1_555 1_555
O2 C23 1_555 1_555
O3 C25 1_555 1_555
O4 C25 1_555 1_555
O5 C30 1_555 1_555
C1 C2 1_555 1_555
C2 H1 1_555 1_555
C3 C2 1_555 1_555
C4 C3 1_555 1_555
H2 C4 1_555 1_555
C5 C4 1_555 1_555
H3 C5 1_555 1_555
C6 C1 1_555 1_555
C7 C6 1_555 1_555
C8 N1 1_555 1_555
H4 C8 1_555 1_555
C9 C8 1_555 1_555
C10 C9 1_555 1_555
H5 C10 1_555 1_555
H6 C10 1_555 1_555
C11 C10 1_555 1_555
H7 C11 1_555 1_555
H8 C11 1_555 1_555
C12 C7 1_555 1_555
H9 C12 1_555 1_555
C13 C7 1_555 1_555
H10 C13 1_555 1_555
H11 C13 1_555 1_555
C14 C13 1_555 1_555
H12 C14 1_555 1_555
C15 C14 1_555 1_555
H13 C15 1_555 1_555
H14 C15 1_555 1_555
C16 N1 1_555 1_555
H15 C16 1_555 1_555
H16 C16 1_555 1_555
C17 C16 1_555 1_555
C18 C17 1_555 1_555
H17 C18 1_555 1_555
C19 C18 1_555 1_555
H18 C19 1_555 1_555
C20 C19 1_555 1_555
H19 C20 1_555 1_555
C21 C20 1_555 1_555
H20 C21 1_555 1_555
C22 C17 1_555 1_555
H21 C22 1_555 1_555
C23 C9 1_555 1_555
C24 O2 1_555 1_555
H22 C24 1_555 1_555
H23 C24 1_555 1_555
C25 C9 1_555 1_555
C26 O4 1_555 1_555
H24 C26 1_555 1_555
H25 C26 1_555 1_555
H26 C26 1_555 1_555
C27 S1 1_555 1_555
C28 C27 1_555 1_555
H27 C28 1_555 1_555
C29 C28 1_555 1_555
H28 C29 1_555 1_555
C30 C29 1_555 1_555
C31 C30 1_555 1_555
H29 C31 1_555 1_555
C32 C27 1_555 1_555
H30 C32 1_555 1_555
C33 O5 1_555 1_555
H31 C33 1_555 1_555
H32 C33 1_555 1_555
H33 C33 1_555 1_555
C5 C6 1_555 1_555
C7 C8 1_555 1_555
C11 C12 1_555 1_555
C21 C22 1_555 1_555
C31 C32 1_555 1_555

#END
