
#######################################################################
#
#                 Cambridge Crystallographic Data Centre
#                                CCDC 
#
#######################################################################
#
# If this CIF has been generated from an entry in the Cambridge 
# Structural Database, then it will include bibliographic, chemical, 
# crystal, experimental, refinement or atomic coordinate data resulting 
# from the CCDC's data processing and validation procedures.
#
#######################################################################

data_SALDUG
_chemical_formula_moiety         'C14 H14 Cl1 N1 O4'
_chemical_name_systematic        
'2-(2-((2-Chlorobenzyl)amino)-4-oxo-4,5-dihydrofuran-3-yl)ethyl formate'
_symmetry_cell_setting           monoclinic
_symmetry_space_group_name_H-M   'C c'
_symmetry_Int_Tables_number      9
_space_group_name_Hall           'C -2yc'
loop_
_symmetry_equiv_pos_site_id
_symmetry_equiv_pos_as_xyz
1 x,y,z
2 x,-y,1/2+z
3 1/2+x,1/2+y,z
4 1/2+x,1/2-y,1/2+z
_cell_length_a                   4.670(3)
_cell_length_b                   24.712(3)
_cell_length_c                   12.388(3)
_cell_angle_alpha                90
_cell_angle_beta                 91.024(3)
_cell_angle_gamma                90
_cell_volume                     1429.41
_exptl_crystal_colour            colorless
_exptl_crystal_description       block
_chemical_melting_point          '152-154 deg.C'
_cell_formula_units_Z            4
loop_
_atom_site_label
_atom_site_type_symbol
_atom_site_fract_x
_atom_site_fract_y
_atom_site_fract_z
C1 C 0.0580(8) 0.14848(15) 0.5017(4)
C2 C 0.2510(9) 0.18595(17) 0.5418(5)
C3 C 0.3787(15) 0.2233(2) 0.4742(9)
H1 H 0.5101 0.2482 0.5020
C4 C 0.309(2) 0.2232(3) 0.3663(11)
H2 H 0.3964 0.2479 0.3207
C5 C 0.119(2) 0.1882(3) 0.3260(6)
H3 H 0.0704 0.1895 0.2528
C6 C -0.0096(12) 0.14981(19) 0.3915(4)
H4 H -0.1397 0.1252 0.3621
C7 C -0.0818(8) 0.10682(17) 0.5717(3)
H5 H -0.1595 0.1244 0.6347
H6 H -0.2394 0.0902 0.5319
C8 C 0.1533(7) 0.04760(14) 0.7064(3)
C9 C 0.3367(7) 0.00871(14) 0.7481(3)
C10 C 0.2870(7) 0.00547(17) 0.8580(3)
C11 C 0.0540(8) 0.04549(18) 0.8817(3)
H7 H -0.1110 0.0273 0.9114
H8 H 0.1216 0.0725 0.9330
C12 C 0.5445(7) -0.02504(14) 0.6877(3)
H9 H 0.6012 -0.0058 0.6232
H10 H 0.7146 -0.0308 0.7323
C13 C 0.4211(8) -0.07837(15) 0.6563(4)
H11 H 0.3680 -0.0985 0.7201
H12 H 0.2513 -0.0733 0.6112
C14 C 0.5522(14) -0.1492(2) 0.5409(6)
H13 H 0.6906 -0.1677 0.5023
Cl1 Cl 0.3276(3) 0.18703(6) 0.67995(16)
N1 N 0.1215(6) 0.06477(12) 0.6065(3)
O1 O 0.4068(6) -0.02262(12) 0.9292(2)
O2 O -0.0189(5) 0.07016(10) 0.7802(2)
O3 O 0.6377(7) -0.10748(13) 0.5976(4)
O4 O 0.3150(11) -0.16561(17) 0.5342(5)
H14 H 0.222(8) 0.0511(14) 0.552(3)
loop_
_geom_bond_atom_site_label_1
_geom_bond_atom_site_label_2
_geom_bond_site_symmetry_1
_geom_bond_site_symmetry_2
C1 C2 1_555 1_555
C2 C3 1_555 1_555
C3 H1 1_555 1_555
C4 C3 1_555 1_555
H2 C4 1_555 1_555
C5 C4 1_555 1_555
H3 C5 1_555 1_555
C6 C1 1_555 1_555
H4 C6 1_555 1_555
C7 C1 1_555 1_555
H5 C7 1_555 1_555
H6 C7 1_555 1_555
C8 C9 1_555 1_555
C9 C10 1_555 1_555
C10 C11 1_555 1_555
C11 H7 1_555 1_555
H8 C11 1_555 1_555
C12 C9 1_555 1_555
H9 C12 1_555 1_555
H10 C12 1_555 1_555
C13 C12 1_555 1_555
H11 C13 1_555 1_555
H12 C13 1_555 1_555
C14 H13 1_555 1_555
Cl1 C2 1_555 1_555
N1 C7 1_555 1_555
O1 C10 1_555 1_555
O2 C8 1_555 1_555
O3 C13 1_555 1_555
O4 C14 1_555 1_555
H14 N1 1_555 1_555
C5 C6 1_555 1_555
C8 N1 1_555 1_555
C11 O2 1_555 1_555
C14 O3 1_555 1_555

#END
