
#######################################################################
#
#                 Cambridge Crystallographic Data Centre
#                                CCDC 
#
#######################################################################
#
# If this CIF has been generated from an entry in the Cambridge 
# Structural Database, then it will include bibliographic, chemical, 
# crystal, experimental, refinement or atomic coordinate data resulting 
# from the CCDC's data processing and validation procedures.
#
#######################################################################

data_SALFAP
_chemical_formula_moiety         'C24 H22 B1 F2 N3 O1 S1'
_chemical_name_systematic        
2-(4-(7-(diethylamino)-2,2-difluoro-2H-1,3,2-benzoxazaborinin-3-yl)phenyl)-3-(2-thienyl)acrylonitrile
_symmetry_cell_setting           monoclinic
_symmetry_space_group_name_H-M   'P 21/c'
_symmetry_Int_Tables_number      14
_space_group_name_Hall           '-P 2ybc'
loop_
_symmetry_equiv_pos_site_id
_symmetry_equiv_pos_as_xyz
1 x,y,z
2 -x,1/2+y,1/2-z
3 -x,-y,-z
4 x,1/2-y,1/2+z
_cell_length_a                   6.500(7)
_cell_length_b                   26.53(3)
_cell_length_c                   12.800(13)
_cell_angle_alpha                90
_cell_angle_beta                 104.287(14)
_cell_angle_gamma                90
_cell_volume                     2139.03
_exptl_crystal_colour            yellow
_exptl_crystal_description       Particle
_cell_formula_units_Z            4
loop_
_atom_site_label
_atom_site_type_symbol
_atom_site_fract_x
_atom_site_fract_y
_atom_site_fract_z
S1 S 0.3882(3) 0.38682(6) -0.06193(13)
C1 C 0.4088(6) 0.55462(14) 0.4191(3)
C2 C 0.4421(6) 0.65456(15) 0.6790(3)
C3 C 0.5976(6) 0.59906(14) 0.5711(3)
H1 H 0.7194 0.5857 0.5561
C4 C 0.6215(6) 0.63239(14) 0.6563(3)
C5 C 0.3997(6) 0.49432(14) 0.2418(3)
C6 C 0.4616(7) 0.68865(16) 0.7599(3)
H2 H 0.3402 0.7026 0.7742
C7 C 0.5697(7) 0.52441(15) 0.2837(3)
H3 H 0.6853 0.5240 0.2530
C8 C 0.3971(7) 0.46230(15) 0.1474(3)
C9 C 0.2224(8) 0.44761(17) 0.0758(3)
H4 H 0.0960 0.4583 0.0903
C10 C 0.2364(6) 0.52447(14) 0.3778(3)
H5 H 0.1230 0.5241 0.4101
C11 C 0.6601(7) 0.70314(16) 0.8216(3)
C12 C 0.2300(7) 0.49495(15) 0.2895(3)
H6 H 0.1111 0.4752 0.2613
C13 C 0.5742(7) 0.55517(15) 0.3696(3)
H7 H 0.6892 0.5765 0.3948
C14 C 0.8413(7) 0.68018(18) 0.7996(4)
H8 H 0.9759 0.6888 0.8404
C15 C 0.8202(6) 0.64601(16) 0.7202(3)
H9 H 0.9412 0.6311 0.7075
C16 C 0.1974(8) 0.41797(18) -0.0202(3)
C17 C 0.0012(9) 0.41274(18) -0.0987(3)
H10 H -0.1266 0.4267 -0.0926
C18 C 0.5986(8) 0.4478(2) 0.1341(4)
C19 C 0.8878(9) 0.76074(19) 0.9514(4)
H11 H 0.8639 0.7954 0.9692
H12 H 0.9750 0.7611 0.8999
C20 C 0.4999(9) 0.75851(19) 0.9318(4)
H13 H 0.5430 0.7695 1.0063
H14 H 0.3938 0.7324 0.9270
C21 C 0.2194(15) 0.3681(3) -0.1745(5)
H15 H 0.2583 0.3479 -0.2258
C22 C 1.0044(13) 0.7346(3) 1.0501(5)
H16 H 0.9209 0.7349 1.1024
H17 H 1.1368 0.7515 1.0791
H18 H 1.0313 0.7003 1.0329
C23 C 0.4049(12) 0.8011(2) 0.8641(6)
H19 H 0.5099 0.8269 0.8673
H20 H 0.2890 0.8144 0.8898
H21 H 0.3536 0.7900 0.7910
C24 C 0.0252(15) 0.3846(3) -0.1839(5)
H22 H -0.0860 0.3778 -0.2435
N1 N 0.4149(5) 0.58538(11) 0.5110(2)
N2 N 0.6831(7) 0.73748(15) 0.9009(3)
N3 N 0.7597(8) 0.4359(3) 0.1259(5)
O1 O 0.2515(5) 0.64350(11) 0.6178(2)
F1 F 0.0641(4) 0.61989(9) 0.45100(19)
F2 F 0.1206(4) 0.56340(9) 0.5839(2)
B1 B 0.2053(7) 0.60289(17) 0.5410(4)
loop_
_geom_bond_atom_site_label_1
_geom_bond_atom_site_label_2
_geom_bond_site_symmetry_1
_geom_bond_site_symmetry_2
S1 C16 1_555 1_555
C1 C10 1_555 1_555
C2 C4 1_555 1_555
C3 H1 1_555 1_555
C4 C3 1_555 1_555
C5 C7 1_555 1_555
C6 C2 1_555 1_555
H2 C6 1_555 1_555
C7 H3 1_555 1_555
C8 C5 1_555 1_555
C9 C8 1_555 1_555
H4 C9 1_555 1_555
C10 H5 1_555 1_555
C11 C6 1_555 1_555
C12 C5 1_555 1_555
H6 C12 1_555 1_555
C13 C1 1_555 1_555
H7 C13 1_555 1_555
C14 C11 1_555 1_555
H8 C14 1_555 1_555
C15 C4 1_555 1_555
H9 C15 1_555 1_555
C16 C9 1_555 1_555
C17 C16 1_555 1_555
H10 C17 1_555 1_555
C18 C8 1_555 1_555
C19 H11 1_555 1_555
H12 C19 1_555 1_555
C20 H13 1_555 1_555
H14 C20 1_555 1_555
C21 S1 1_555 1_555
H15 C21 1_555 1_555
C22 C19 1_555 1_555
H16 C22 1_555 1_555
H17 C22 1_555 1_555
H18 C22 1_555 1_555
C23 C20 1_555 1_555
H19 C23 1_555 1_555
H20 C23 1_555 1_555
H21 C23 1_555 1_555
C24 C17 1_555 1_555
H22 C24 1_555 1_555
N1 C1 1_555 1_555
N2 C11 1_555 1_555
N3 C18 1_555 1_555
O1 C2 1_555 1_555
F1 B1 1_555 1_555
F2 B1 1_555 1_555
B1 N1 1_555 1_555
C3 N1 1_555 1_555
C7 C13 1_555 1_555
C10 C12 1_555 1_555
C14 C15 1_555 1_555
C19 N2 1_555 1_555
C20 N2 1_555 1_555
C21 C24 1_555 1_555
O1 B1 1_555 1_555

#END
