
#######################################################################
#
#                 Cambridge Crystallographic Data Centre
#                                CCDC 
#
#######################################################################
#
# If this CIF has been generated from an entry in the Cambridge 
# Structural Database, then it will include bibliographic, chemical, 
# crystal, experimental, refinement or atomic coordinate data resulting 
# from the CCDC's data processing and validation procedures.
#
#######################################################################

data_SALGIX
_chemical_formula_moiety         'C22 H22 F3 N1 O2'
_chemical_name_systematic        
1,1,1-Trifluoro-4-(9-hexyl-9H-carbazol-3-yl)-4-hydroxybut-3-en-2-one
_symmetry_cell_setting           monoclinic
_symmetry_space_group_name_H-M   'P 21/c'
_symmetry_Int_Tables_number      14
_space_group_name_Hall           '-P 2ybc'
loop_
_symmetry_equiv_pos_site_id
_symmetry_equiv_pos_as_xyz
1 x,y,z
2 -x,1/2+y,1/2-z
3 -x,-y,-z
4 x,1/2-y,1/2+z
_cell_length_a                   5.027(2)
_cell_length_b                   14.846(3)
_cell_length_c                   26.355(3)
_cell_angle_alpha                90
_cell_angle_beta                 92.576(2)
_cell_angle_gamma                90
_cell_volume                     1964.91
_exptl_crystal_colour            yellow
_cell_formula_units_Z            4
_exptl_crystal_recrystallization_method 'ethyl acetate/petroleum ether'
loop_
_atom_site_label
_atom_site_type_symbol
_atom_site_fract_x
_atom_site_fract_y
_atom_site_fract_z
F1 F 0.7996(13) 0.1443(4) -0.09052(19)
F2 F 0.8579(13) 0.2411(4) -0.02893(18)
F3 F 0.5099(15) 0.2552(4) -0.0845(2)
N1 N 0.0426(13) 0.2145(4) 0.25363(19)
O1 O 0.1315(12) 0.0538(3) 0.03355(18)
H1 H 0.1734 0.0478 0.0040
O2 O 0.3542(14) 0.0818(4) -0.04798(18)
C1 C 0.0731(15) 0.1807(5) 0.2047(2)
C2 C -0.0508(16) 0.1082(5) 0.1803(2)
H2 H -0.1776 0.0734 0.1958
C3 C 0.0243(16) 0.0910(5) 0.1321(3)
H3 H -0.0593 0.0441 0.1143
C4 C 0.2192(16) 0.1398(4) 0.1085(2)
C5 C 0.3537(15) 0.2096(4) 0.1336(2)
H4 H 0.4937 0.2397 0.1191
C6 C 0.2705(14) 0.2322(4) 0.1809(2)
C7 C 0.3710(15) 0.2987(5) 0.2188(2)
C8 C 0.5560(17) 0.3645(4) 0.2175(2)
H5 H 0.6546 0.3748 0.1891
C9 C 0.5908(17) 0.4177(4) 0.2633(2)
H6 H 0.7187 0.4630 0.2649
C10 C 0.441(2) 0.4029(6) 0.3037(3)
H7 H 0.4709 0.4387 0.3324
C11 C 0.2476(18) 0.3383(5) 0.3049(2)
H8 H 0.1476 0.3291 0.3333
C12 C 0.2103(17) 0.2871(5) 0.2607(2)
C13 C 0.2734(17) 0.1157(5) 0.0549(3)
C14 C 0.4652(16) 0.1593(5) 0.0254(2)
H9 H 0.5759 0.2029 0.0405
C15 C 0.4890(17) 0.1391(5) -0.0230(3)
C16 C 0.663(2) 0.1952(7) -0.0564(3)
C17 C -0.1444(16) 0.1750(5) 0.2881(3)
H10 H -0.2903 0.1472 0.2685
H11 H -0.2179 0.2222 0.3088
C18 C -0.0118(19) 0.1057(5) 0.3221(3)
H12 H 0.0722 0.0608 0.3014
H13 H 0.1264 0.1344 0.3433
C19 C -0.202(2) 0.0610(5) 0.3548(3)
H14 H -0.3357 0.0302 0.3333
H15 H -0.2929 0.1066 0.3739
C20 C -0.076(2) -0.0062(7) 0.3914(3)
H16 H 0.0102 -0.0517 0.3714
H17 H 0.0642 0.0251 0.4109
C21 C -0.236(2) -0.0521(7) 0.4267(4)
H18 H -0.3763 -0.0852 0.4084
H19 H -0.3186 -0.0085 0.4485
C22 C -0.064(13) -0.1178(15) 0.4595(11)
H20 H -0.1738 -0.1472 0.4835
H21 H 0.0751 -0.0851 0.4774
H22 H 0.0121 -0.1622 0.4381
C23? C -0.28(3) -0.094(5) 0.478(3)
H23? H -0.2876 -0.1037 0.4060
H24? H -0.3908 -0.0131 0.4242
H25? H -0.4695 -0.1034 0.4819
H26? H -0.2151 -0.0544 0.5048
H27? H -0.1912 -0.1508 0.4812
loop_
_geom_bond_atom_site_label_1
_geom_bond_atom_site_label_2
_geom_bond_site_symmetry_1
_geom_bond_site_symmetry_2
F1 C16 1_555 1_555
F2 C16 1_555 1_555
F3 C16 1_555 1_555
N1 C1 1_555 1_555
O1 H1 1_555 1_555
O2 C15 1_555 1_555
C1 C2 1_555 1_555
C2 H2 1_555 1_555
C3 C2 1_555 1_555
H3 C3 1_555 1_555
C4 C3 1_555 1_555
C5 C4 1_555 1_555
H4 C5 1_555 1_555
C6 C1 1_555 1_555
C7 C6 1_555 1_555
C8 C7 1_555 1_555
H5 C8 1_555 1_555
C9 C8 1_555 1_555
H6 C9 1_555 1_555
C10 C9 1_555 1_555
H7 C10 1_555 1_555
C11 C10 1_555 1_555
H8 C11 1_555 1_555
C12 N1 1_555 1_555
C13 O1 1_555 1_555
C14 C13 1_555 1_555
H9 C14 1_555 1_555
C15 C14 1_555 1_555
C16 C15 1_555 1_555
C17 N1 1_555 1_555
H10 C17 1_555 1_555
H11 C17 1_555 1_555
C18 C17 1_555 1_555
H12 C18 1_555 1_555
H13 C18 1_555 1_555
C19 C18 1_555 1_555
H14 C19 1_555 1_555
H15 C19 1_555 1_555
C20 C19 1_555 1_555
H16 C20 1_555 1_555
H17 C20 1_555 1_555
C21 C20 1_555 1_555
H18 C21 1_555 1_555
H19 C21 1_555 1_555
C22 C21 1_555 1_555
H20 C22 1_555 1_555
H21 C22 1_555 1_555
H22 C22 1_555 1_555
C4 C13 1_555 1_555
C5 C6 1_555 1_555
C7 C12 1_555 1_555
C11 C12 1_555 1_555

#END
