
#######################################################################
#
#                 Cambridge Crystallographic Data Centre
#                                CCDC 
#
#######################################################################
#
# If this CIF has been generated from an entry in the Cambridge 
# Structural Database, then it will include bibliographic, chemical, 
# crystal, experimental, refinement or atomic coordinate data resulting 
# from the CCDC's data processing and validation procedures.
#
#######################################################################

data_SALHEU
_chemical_formula_moiety         'C28 H33 N2 1+,C1 F3 O3 S1 1-'
_chemical_name_systematic        
'(S)-3-(2,6-Diisopropylphenyl)-1-(2-methylphenyl)-5-phenyl-4,5-dihydro-1H-imidazol-3-ium trifluoromethanesulfonate'
_symmetry_cell_setting           orthorhombic
_symmetry_space_group_name_H-M   'P 21 21 21'
_symmetry_Int_Tables_number      19
_space_group_name_Hall           'P 2ac 2ab'
loop_
_symmetry_equiv_pos_site_id
_symmetry_equiv_pos_as_xyz
1 x,y,z
2 1/2-x,-y,1/2+z
3 -x,1/2+y,1/2-z
4 1/2+x,1/2-y,-z
_cell_length_a                   8.521(3)
_cell_length_b                   14.946(6)
_cell_length_c                   22.415(9)
_cell_angle_alpha                90
_cell_angle_beta                 90
_cell_angle_gamma                90
_cell_volume                     2854.66
_exptl_crystal_colour            colorless
_exptl_crystal_description       block
_cell_formula_units_Z            4
loop_
_atom_site_label
_atom_site_type_symbol
_atom_site_fract_x
_atom_site_fract_y
_atom_site_fract_z
S1 S 0.38075(19) 0.65055(9) 0.19696(7)
O1 O 0.5009(9) 0.5932(5) 0.1927(3)
O2 O 0.4256(12) 0.7216(4) 0.2375(3)
O3 O 0.2334(7) 0.6209(5) 0.2073(3)
F1 F 0.5047(7) 0.7346(4) 0.1068(3)
F2 F 0.3158(15) 0.6664(7) 0.0879(3)
F3 F 0.2988(11) 0.7793(6) 0.1307(4)
C29 C 0.3723(11) 0.7071(6) 0.1271(4)
N1 N 0.1451(5) 0.9726(2) 0.24411(16)
N2 N 0.1341(5) 0.9882(2) 0.34071(16)
C1 C 0.0701(6) 1.0077(3) 0.2891(2)
C2 C 0.2787(6) 0.9346(3) 0.3327(2)
H1 H 0.3697 0.9711 0.3437
C3 C 0.2795(6) 0.9199(4) 0.2648(2)
H2 H 0.3765 0.9414 0.2472
H3 H 0.2665 0.8571 0.2552
C4 C 0.0949(6) 0.9727(3) 0.18206(18)
C5 C 0.1757(6) 1.0293(3) 0.1429(2)
C6 C 0.1346(8) 1.0227(4) 0.0831(2)
H4 H 0.1873 1.0573 0.0551
C7 C 0.0180(9) 0.9660(5) 0.0647(3)
H5 H -0.0064 0.9624 0.0243
C8 C -0.0633(8) 0.9145(4) 0.1046(3)
H6 H -0.1457 0.8788 0.0915
C9 C -0.0233(7) 0.9154(3) 0.1650(2)
C10 C 0.3049(7) 1.0918(3) 0.1620(2)
H7 H 0.3122 1.0886 0.2056
C11 C 0.4605(9) 1.0635(6) 0.1371(3)
H8 H 0.4755 1.0007 0.1441
H9 H 0.5428 1.0966 0.1564
H10 H 0.4629 1.0750 0.0950
C12 C 0.2680(12) 1.1882(4) 0.1457(4)
H11 H 0.2700 1.1948 0.1031
H12 H 0.3450 1.2270 0.1632
H13 H 0.1658 1.2037 0.1604
C13 C -0.1127(7) 0.8552(3) 0.2088(3)
H14 H -0.0573 0.8571 0.2471
C14 C -0.2759(9) 0.8891(5) 0.2190(4)
H15 H -0.2719 0.9512 0.2299
H16 H -0.3243 0.8555 0.2505
H17 H -0.3361 0.8825 0.1831
C15 C -0.1131(9) 0.7577(4) 0.1874(4)
H18 H -0.1762 0.7527 0.1521
H19 H -0.1557 0.7201 0.2181
H20 H -0.0076 0.7393 0.1787
C16 C 0.0864(7) 1.0246(3) 0.39745(19)
C17 C -0.0501(7) 0.9945(3) 0.4241(2)
C18 C -0.0857(9) 1.0322(5) 0.4788(3)
H21 H -0.1776 1.0148 0.4980
C19 C 0.0097(12) 1.0944(5) 0.5058(3)
H22 H -0.0171 1.1169 0.5431
C20 C 0.1429(11) 1.1234(4) 0.4784(3)
H23 H 0.2052 1.1669 0.4963
C21 C 0.1851(8) 1.0873(4) 0.4235(2)
H24 H 0.2773 1.1049 0.4047
C22 C -0.1529(9) 0.9260(5) 0.3970(3)
H25 H -0.2155 0.8985 0.4275
H26 H -0.0897 0.8813 0.3778
H27 H -0.2203 0.9537 0.3681
C23 C 0.2755(6) 0.8515(4) 0.3715(2)
C24 C 0.1927(8) 0.7769(4) 0.3565(3)
H28 H 0.1403 0.7749 0.3201
C25 C 0.1853(10) 0.7048(5) 0.3943(4)
H29 H 0.1245 0.6553 0.3843
C26 C 0.2668(14) 0.7060(6) 0.4459(4)
H30 H 0.2647 0.6564 0.4710
C27 C 0.3520(16) 0.7794(6) 0.4615(3)
H31 H 0.4047 0.7806 0.4978
C28 C 0.3609(9) 0.8519(5) 0.4238(3)
H32 H 0.4237 0.9007 0.4335
H33 H -0.025(6) 1.040(3) 0.2863(18)
loop_
_geom_bond_atom_site_label_1
_geom_bond_atom_site_label_2
_geom_bond_site_symmetry_1
_geom_bond_site_symmetry_2
S1 O1 1_555 1_555
N1 C1 1_555 1_555
N2 C1 1_555 1_555
O2 S1 1_555 1_555
O3 S1 1_555 1_555
F1 C29 1_555 1_555
F2 C29 1_555 1_555
F3 C29 1_555 1_555
C1 H33 1_555 1_555
C2 N2 1_555 1_555
H1 C2 1_555 1_555
C3 N1 1_555 1_555
H2 C3 1_555 1_555
H3 C3 1_555 1_555
C4 N1 1_555 1_555
C5 C4 1_555 1_555
C6 C5 1_555 1_555
H4 C6 1_555 1_555
C7 C6 1_555 1_555
H5 C7 1_555 1_555
C8 C7 1_555 1_555
H6 C8 1_555 1_555
C9 C4 1_555 1_555
C10 C5 1_555 1_555
H7 C10 1_555 1_555
C11 C10 1_555 1_555
H8 C11 1_555 1_555
H9 C11 1_555 1_555
H10 C11 1_555 1_555
C12 C10 1_555 1_555
H11 C12 1_555 1_555
H12 C12 1_555 1_555
H13 C12 1_555 1_555
C13 C9 1_555 1_555
H14 C13 1_555 1_555
C14 C13 1_555 1_555
H15 C14 1_555 1_555
H16 C14 1_555 1_555
H17 C14 1_555 1_555
C15 C13 1_555 1_555
H18 C15 1_555 1_555
H19 C15 1_555 1_555
H20 C15 1_555 1_555
C16 N2 1_555 1_555
C17 C16 1_555 1_555
C18 C17 1_555 1_555
H21 C18 1_555 1_555
C19 C18 1_555 1_555
H22 C19 1_555 1_555
C20 C19 1_555 1_555
H23 C20 1_555 1_555
C21 C16 1_555 1_555
H24 C21 1_555 1_555
C22 C17 1_555 1_555
H25 C22 1_555 1_555
H26 C22 1_555 1_555
H27 C22 1_555 1_555
C23 C2 1_555 1_555
C24 C23 1_555 1_555
H28 C24 1_555 1_555
C25 C24 1_555 1_555
H29 C25 1_555 1_555
C26 C25 1_555 1_555
H30 C26 1_555 1_555
C27 C26 1_555 1_555
H31 C27 1_555 1_555
C28 C23 1_555 1_555
H32 C28 1_555 1_555
C29 S1 1_555 1_555
C2 C3 1_555 1_555
C8 C9 1_555 1_555
C20 C21 1_555 1_555
C27 C28 1_555 1_555

#END
