
#######################################################################
#
#                 Cambridge Crystallographic Data Centre
#                                CCDC 
#
#######################################################################
#
# If this CIF has been generated from an entry in the Cambridge 
# Structural Database, then it will include bibliographic, chemical, 
# crystal, experimental, refinement or atomic coordinate data resulting 
# from the CCDC's data processing and validation procedures.
#
#######################################################################

data_SALHOE
_chemical_formula_moiety         'C30 H37 N2 1+,I1 1-'
_chemical_name_systematic        
'(S)-1-(2,6-Diisopropylphenyl)-3-mesityl-5-phenyl-4,5-dihydro-1H-imidazol-3-ium iodide'
_symmetry_cell_setting           orthorhombic
_symmetry_space_group_name_H-M   'P 21 21 21'
_symmetry_Int_Tables_number      19
_space_group_name_Hall           'P 2ac 2ab'
loop_
_symmetry_equiv_pos_site_id
_symmetry_equiv_pos_as_xyz
1 x,y,z
2 1/2-x,-y,1/2+z
3 -x,1/2+y,1/2-z
4 1/2+x,1/2-y,-z
_cell_length_a                   13.2441(17)
_cell_length_b                   15.930(2)
_cell_length_c                   27.319(3)
_cell_angle_alpha                90
_cell_angle_beta                 90
_cell_angle_gamma                90
_cell_volume                     5763.72
_exptl_crystal_colour            yellow
_exptl_crystal_description       prism
_cell_formula_units_Z            8
loop_
_atom_site_label
_atom_site_type_symbol
_atom_site_fract_x
_atom_site_fract_y
_atom_site_fract_z
I1 I 0.92462(3) 0.49968(3) 0.91565(2)
N1 N 0.1737(4) 0.8457(3) 0.01361(17)
N2 N 0.1399(4) 0.8395(3) 0.09241(17)
C1 C 0.1065(4) 0.8553(4) 0.0477(2)
H1 H 0.036(5) 0.875(4) 0.037(2)
C2 C 0.2500(4) 0.8166(4) 0.0905(2)
H2 H 0.2889 0.8640 0.1053
C3 C 0.2704(5) 0.8168(5) 0.0357(2)
H3 H 0.3262 0.8557 0.0275
H4 H 0.2882 0.7598 0.0241
C4 C 0.1566(4) 0.8443(4) -0.0383(2)
C5 C 0.1895(5) 0.9127(4) -0.0659(2)
C6 C 0.1769(7) 0.9079(5) -0.1159(3)
H5 H 0.2019 0.9525 -0.1355
C7 C 0.1300(7) 0.8415(6) -0.1387(3)
C8 C 0.0968(6) 0.7771(5) -0.1096(3)
H6 H 0.0619 0.7318 -0.1246
C9 C 0.1121(6) 0.7748(5) -0.0586(3)
C10 C 0.2364(7) 0.9885(5) -0.0421(3)
H7 H 0.1984 1.0031 -0.0126
H8 H 0.2349 1.0358 -0.0650
H9 H 0.3066 0.9759 -0.0333
C11 C 0.1177(10) 0.8387(9) -0.1940(3)
H10 H 0.0518 0.8621 -0.2030
H11 H 0.1219 0.7804 -0.2053
H12 H 0.1713 0.8718 -0.2094
C12 C 0.0787(11) 0.6998(7) -0.0284(4)
H13 H 0.1379 0.6734 -0.0134
H14 H 0.0447 0.6591 -0.0497
H15 H 0.0321 0.7184 -0.0028
C13 C 0.0797(4) 0.8441(4) 0.1364(2)
C14 C 0.0165(5) 0.7789(5) 0.1476(2)
C15 C -0.0404(5) 0.7850(5) 0.1910(3)
H16 H -0.0858 0.7413 0.1998
C16 C -0.0305(6) 0.8538(6) 0.2207(3)
H17 H -0.0690 0.8571 0.2499
C17 C 0.0329(6) 0.9170(6) 0.2090(3)
H18 H 0.0386 0.9637 0.2305
C18 C 0.0908(5) 0.9153(5) 0.1660(3)
C19 C 0.0018(5) 0.7034(5) 0.1156(3)
H19 H 0.0605 0.7017 0.0926
C20 C -0.0914(7) 0.7132(8) 0.0846(4)
H20 H -0.1510 0.7166 0.1057
H21 H -0.0978 0.6647 0.0627
H22 H -0.0860 0.7646 0.0651
C21 C 0.0018(9) 0.6201(6) 0.1431(3)
H23 H 0.0697 0.6088 0.1556
H24 H -0.0185 0.5750 0.1208
H25 H -0.0459 0.6231 0.1704
C22 C 0.1557(6) 0.9907(5) 0.1525(3)
H26 H 0.2028 0.9731 0.1258
C23 C 0.0907(11) 1.0603(7) 0.1333(5)
H27 H 0.0545 1.0409 0.1041
H28 H 0.1332 1.1085 0.1247
H29 H 0.0419 1.0769 0.1584
C24 C 0.2185(11) 1.0191(10) 0.1955(4)
H30 H 0.1827 1.0065 0.2260
H31 H 0.2302 1.0797 0.1932
H32 H 0.2834 0.9896 0.1952
C25 C 0.2774(4) 0.7374(4) 0.1184(2)
C26 C 0.2862(6) 0.7414(5) 0.1678(3)
H33 H 0.2739 0.7931 0.1841
C27 C 0.3131(7) 0.6710(6) 0.1951(3)
H34 H 0.3195 0.6750 0.2297
C28 C 0.3299(7) 0.5980(6) 0.1725(4)
H35 H 0.3470 0.5498 0.1912
C29 C 0.3230(8) 0.5924(5) 0.1234(4)
H36 H 0.3367 0.5405 0.1076
C30 C 0.2960(6) 0.6617(5) 0.0957(3)
H37 H 0.2903 0.6571 0.0612
I2 I 0.93919(6) 0.02416(6) 0.00029(3)
N3 N 0.1657(4) 0.3317(3) 0.97871(16)
N4 N 0.2027(3) 0.3345(3) 0.90043(16)
C31 C 0.2336(5) 0.3456(3) 0.9464(2)
H38 H 0.307(4) 0.356(3) 0.9492(18)
C32 C 0.0922(4) 0.3105(3) 0.9007(2)
H39 H 0.0530 0.3590 0.8874
C33 C 0.0704(5) 0.3047(4) 0.9555(2)
H40 H 0.0141 0.3424 0.9649
H41 H 0.0531 0.2465 0.9651
C34 C 0.1858(5) 0.3304(4) 1.0306(2)
C35 C 0.1650(5) 0.4013(5) 1.0584(3)
C36 C 0.1888(6) 0.3962(6) 1.1078(3)
H42 H 0.1747 0.4434 1.1279
C37 C 0.2311(6) 0.3274(6) 1.1292(3)
C38 C 0.2514(7) 0.2580(6) 1.1005(3)
H43 H 0.2806 0.2094 1.1149
C39 C 0.2290(6) 0.2589(4) 1.0503(2)
C40 C 0.1244(7) 0.4787(5) 1.0353(4)
H44 H 0.1598 0.4891 1.0044
H45 H 0.1346 0.5265 1.0574
H46 H 0.0521 0.4716 1.0289
C41 C 0.2570(10) 0.3267(10) 1.1828(3)
H47 H 0.2456 0.3827 1.1966
H48 H 0.3280 0.3111 1.1870
H49 H 0.2141 0.2859 1.1998
C42 C 0.2462(10) 0.1810(6) 1.0202(3)
H50 H 0.1973 0.1792 0.9933
H51 H 0.2377 0.1313 1.0409
H52 H 0.3149 0.1818 1.0068
C43 C 0.2651(4) 0.3457(4) 0.8576(2)
C44 C 0.3280(5) 0.2804(4) 0.8437(2)
C45 C 0.3889(6) 0.2940(5) 0.8020(3)
H53 H 0.4338 0.2513 0.7912
C46 C 0.3836(7) 0.3686(6) 0.7768(3)
H54 H 0.4223 0.3758 0.7479
C47 C 0.3241(6) 0.4320(5) 0.7927(3)
H55 H 0.3249 0.4839 0.7756
C48 C 0.2614(5) 0.4232(4) 0.8335(2)
C49 C 0.3372(5) 0.1998(5) 0.8716(3)
H56 H 0.2770 0.1960 0.8936
C50 C 0.4301(8) 0.2053(8) 0.9043(5)
H57 H 0.4869 0.2278 0.8855
H58 H 0.4472 0.1491 0.9164
H59 H 0.4158 0.2423 0.9321
C51 C 0.3335(10) 0.1242(6) 0.8374(4)
H60 H 0.2663 0.1203 0.8225
H61 H 0.3475 0.0729 0.8560
H62 H 0.3843 0.1308 0.8116
C52 C 0.1967(6) 0.4970(5) 0.8511(2)
H63 H 0.1482 0.4751 0.8760
C53 C 0.1358(10) 0.5327(8) 0.8090(3)
H64 H 0.1760 0.5749 0.7917
H65 H 0.0741 0.5588 0.8217
H66 H 0.1177 0.4874 0.7864
C54 C 0.2603(9) 0.5625(7) 0.8753(5)
H67 H 0.2991 0.5369 0.9019
H68 H 0.2167 0.6067 0.8886
H69 H 0.3067 0.5869 0.8512
C55 C 0.0718(5) 0.2360(4) 0.8687(2)
C56 C 0.0540(6) 0.1559(4) 0.8872(3)
H70 H 0.0555 0.1465 0.9215
C57 C 0.0342(6) 0.0900(5) 0.8557(4)
H71 H 0.0216 0.0357 0.8688
C58 C 0.0326(7) 0.1016(6) 0.8059(4)
H72 H 0.0221 0.0554 0.7844
C59 C 0.0465(8) 0.1810(7) 0.7876(3)
H73 H 0.0446 0.1902 0.7533
C60 C 0.0632(6) 0.2470(5) 0.8186(2)
H74 H 0.0690 0.3019 0.8054
loop_
_geom_bond_atom_site_label_1
_geom_bond_atom_site_label_2
_geom_bond_site_symmetry_1
_geom_bond_site_symmetry_2
N1 C1 1_555 1_555
N2 C1 1_555 1_555
C1 H1 1_555 1_555
C2 N2 1_555 1_555
H2 C2 1_555 1_555
C3 N1 1_555 1_555
H3 C3 1_555 1_555
H4 C3 1_555 1_555
C4 N1 1_555 1_555
C5 C4 1_555 1_555
C6 C5 1_555 1_555
H5 C6 1_555 1_555
C7 C6 1_555 1_555
C8 C7 1_555 1_555
H6 C8 1_555 1_555
C9 C4 1_555 1_555
C10 C5 1_555 1_555
H7 C10 1_555 1_555
H8 C10 1_555 1_555
H9 C10 1_555 1_555
C11 C7 1_555 1_555
H10 C11 1_555 1_555
H11 C11 1_555 1_555
H12 C11 1_555 1_555
C12 C9 1_555 1_555
H13 C12 1_555 1_555
H14 C12 1_555 1_555
H15 C12 1_555 1_555
C13 N2 1_555 1_555
C14 C13 1_555 1_555
C15 C14 1_555 1_555
H16 C15 1_555 1_555
C16 C15 1_555 1_555
H17 C16 1_555 1_555
C17 C16 1_555 1_555
H18 C17 1_555 1_555
C18 C13 1_555 1_555
C19 C14 1_555 1_555
H19 C19 1_555 1_555
C20 C19 1_555 1_555
H20 C20 1_555 1_555
H21 C20 1_555 1_555
H22 C20 1_555 1_555
C21 C19 1_555 1_555
H23 C21 1_555 1_555
H24 C21 1_555 1_555
H25 C21 1_555 1_555
C22 C18 1_555 1_555
H26 C22 1_555 1_555
C23 C22 1_555 1_555
H27 C23 1_555 1_555
H28 C23 1_555 1_555
H29 C23 1_555 1_555
C24 C22 1_555 1_555
H30 C24 1_555 1_555
H31 C24 1_555 1_555
H32 C24 1_555 1_555
C25 C2 1_555 1_555
C26 C25 1_555 1_555
H33 C26 1_555 1_555
C27 C26 1_555 1_555
H34 C27 1_555 1_555
C28 C27 1_555 1_555
H35 C28 1_555 1_555
C29 C28 1_555 1_555
H36 C29 1_555 1_555
C30 C25 1_555 1_555
H37 C30 1_555 1_555
N3 C31 1_555 1_555
N4 C31 1_555 1_555
C31 H38 1_555 1_555
C32 N4 1_555 1_555
H39 C32 1_555 1_555
C33 N3 1_555 1_555
H40 C33 1_555 1_555
H41 C33 1_555 1_555
C34 N3 1_555 1_555
C35 C34 1_555 1_555
C36 C35 1_555 1_555
H42 C36 1_555 1_555
C37 C36 1_555 1_555
C38 C37 1_555 1_555
H43 C38 1_555 1_555
C39 C34 1_555 1_555
C40 C35 1_555 1_555
H44 C40 1_555 1_555
H45 C40 1_555 1_555
H46 C40 1_555 1_555
C41 C37 1_555 1_555
H47 C41 1_555 1_555
H48 C41 1_555 1_555
H49 C41 1_555 1_555
C42 C39 1_555 1_555
H50 C42 1_555 1_555
H51 C42 1_555 1_555
H52 C42 1_555 1_555
C43 N4 1_555 1_555
C44 C43 1_555 1_555
C45 C44 1_555 1_555
H53 C45 1_555 1_555
C46 C45 1_555 1_555
H54 C46 1_555 1_555
C47 C46 1_555 1_555
H55 C47 1_555 1_555
C48 C43 1_555 1_555
C49 C44 1_555 1_555
H56 C49 1_555 1_555
C50 C49 1_555 1_555
H57 C50 1_555 1_555
H58 C50 1_555 1_555
H59 C50 1_555 1_555
C51 C49 1_555 1_555
H60 C51 1_555 1_555
H61 C51 1_555 1_555
H62 C51 1_555 1_555
C52 C48 1_555 1_555
H63 C52 1_555 1_555
C53 C52 1_555 1_555
H64 C53 1_555 1_555
H65 C53 1_555 1_555
H66 C53 1_555 1_555
C54 C52 1_555 1_555
H67 C54 1_555 1_555
H68 C54 1_555 1_555
H69 C54 1_555 1_555
C55 C32 1_555 1_555
C56 C55 1_555 1_555
H70 C56 1_555 1_555
C57 C56 1_555 1_555
H71 C57 1_555 1_555
C58 C57 1_555 1_555
H72 C58 1_555 1_555
C59 C58 1_555 1_555
H73 C59 1_555 1_555
C60 C55 1_555 1_555
H74 C60 1_555 1_555
C2 C3 1_555 1_555
C8 C9 1_555 1_555
C17 C18 1_555 1_555
C29 C30 1_555 1_555
C32 C33 1_555 1_555
C38 C39 1_555 1_555
C47 C48 1_555 1_555
C59 C60 1_555 1_555

#END
