
#######################################################################
#
#                 Cambridge Crystallographic Data Centre
#                                CCDC 
#
#######################################################################
#
# If this CIF has been generated from an entry in the Cambridge 
# Structural Database, then it will include bibliographic, chemical, 
# crystal, experimental, refinement or atomic coordinate data resulting 
# from the CCDC's data processing and validation procedures.
#
#######################################################################

data_SALHIY
_chemical_formula_moiety         'C27 H31 N2 1+,I1 1-'
_chemical_name_systematic        
'(S)-1,3-Dimesityl-4-phenyl-4,5-dihydro-1H-imidazol-3-ium iodide'
_symmetry_cell_setting           orthorhombic
_symmetry_space_group_name_H-M   'P 21 21 21'
_symmetry_Int_Tables_number      19
_space_group_name_Hall           'P 2ac 2ab'
loop_
_symmetry_equiv_pos_site_id
_symmetry_equiv_pos_as_xyz
1 x,y,z
2 1/2-x,-y,1/2+z
3 -x,1/2+y,1/2-z
4 1/2+x,1/2-y,-z
_cell_length_a                   15.2391(17)
_cell_length_b                   15.3799(18)
_cell_length_c                   22.066(3)
_cell_angle_alpha                90
_cell_angle_beta                 90
_cell_angle_gamma                90
_cell_volume                     5171.74
_exptl_crystal_colour            colorless
_exptl_crystal_description       polyhedral
_cell_formula_units_Z            8
loop_
_atom_site_label
_atom_site_type_symbol
_atom_site_fract_x
_atom_site_fract_y
_atom_site_fract_z
I1 I 0.10531(3) 0.79529(2) 0.94684(2)
N1 N 0.3351(2) 0.6082(3) 0.91465(16)
N2 N 0.2976(2) 0.6145(2) 1.00992(15)
C1 C 0.2735(3) 0.6262(3) 0.95416(18)
H1 H 0.223(3) 0.656(4) 0.942(3)
C2 C 0.3914(3) 0.5835(3) 1.0128(2)
H2 H 0.4276 0.6289 1.0333
C3 C 0.4162(3) 0.5811(4) 0.9450(2)
H3 H 0.4648 0.6219 0.9362
H4 H 0.4336 0.5218 0.9325
C4 C 0.3262(3) 0.6179(3) 0.84950(19)
C5 C 0.3439(3) 0.6974(3) 0.8230(2)
C6 C 0.3382(4) 0.7031(4) 0.7600(2)
H5 H 0.3515 0.7567 0.7406
C7 C 0.3137(3) 0.6324(3) 0.7252(2)
C8 C 0.2946(3) 0.5549(3) 0.7533(2)
H6 H 0.2760 0.5070 0.7292
C9 C 0.3014(3) 0.5441(3) 0.8159(2)
C10 C 0.3660(6) 0.7758(4) 0.8609(3)
H7 H 0.3301 0.7756 0.8978
H8 H 0.3540 0.8288 0.8377
H9 H 0.4283 0.7741 0.8720
C11 C 0.3075(5) 0.6403(4) 0.6580(2)
H10 H 0.3021 0.7017 0.6469
H11 H 0.2559 0.6084 0.6436
H12 H 0.3604 0.6159 0.6394
C12 C 0.2816(4) 0.4582(4) 0.8454(3)
H13 H 0.3363 0.4318 0.8599
H14 H 0.2536 0.4195 0.8160
H15 H 0.2419 0.4674 0.8798
C13 C 0.2428(2) 0.6284(2) 1.06202(17)
C14 C 0.1725(3) 0.5723(3) 1.07193(18)
C15 C 0.1207(3) 0.5858(3) 1.12310(19)
H16 H 0.0716 0.5492 1.1305
C16 C 0.1404(3) 0.6537(3) 1.1641(2)
C17 C 0.2105(3) 0.7073(3) 1.15179(19)
H17 H 0.2242 0.7527 1.1795
C18 C 0.2618(3) 0.6975(3) 1.10044(18)
C19 C 0.1509(3) 0.4974(3) 1.0304(2)
H18 H 0.1343 0.5199 0.9905
H19 H 0.1020 0.4640 1.0474
H20 H 0.2024 0.4597 1.0263
C20 C 0.0859(4) 0.6666(4) 1.2202(3)
H21 H 0.1244 0.6805 1.2544
H22 H 0.0532 0.6132 1.2290
H23 H 0.0446 0.7146 1.2136
C21 C 0.3320(4) 0.7620(3) 1.0859(3)
H24 H 0.3189 0.8173 1.1060
H25 H 0.3345 0.7710 1.0419
H26 H 0.3887 0.7401 1.1002
C22 C 0.4002(3) 0.4999(3) 1.0470(2)
C23 C 0.3874(4) 0.4181(4) 1.0222(3)
H27 H 0.3686 0.4129 0.9813
C24 C 0.4016(5) 0.3447(5) 1.0557(5)
H28 H 0.3932 0.2887 1.0384
C25 C 0.4283(5) 0.3532(7) 1.1155(5)
H29 H 0.4383 0.3025 1.1391
C26 C 0.4404(6) 0.4326(8) 1.1407(4)
H30 H 0.4592 0.4374 1.1816
C27 C 0.4257(4) 0.5046(5) 1.1077(3)
H31 H 0.4328 0.5600 1.1261
I2 I 0.94203(3) 0.29498(5) 0.10965(3)
N3 N 0.1954(2) 0.1054(2) -0.05463(17)
N4 N 0.2643(2) 0.0586(2) 0.02642(16)
C28 C 0.2651(3) 0.1092(3) -0.0218(2)
H32 H 0.315(2) 0.144(2) -0.0330(19)
C29 C 0.1822(3) 0.0040(3) 0.0246(2)
H33 H 0.1989 -0.0567 0.0133
C30 C 0.1317(3) 0.0442(3) -0.0281(2)
H34 H 0.1141 -0.0007 -0.0579
H35 H 0.0786 0.0750 -0.0137
C31 C 0.1721(3) 0.1593(3) -0.1058(2)
C32 C 0.1790(4) 0.1246(4) -0.1639(2)
C33 C 0.1497(4) 0.1760(4) -0.2115(2)
H36 H 0.1533 0.1540 -0.2517
C34 C 0.1153(4) 0.2586(4) -0.2024(3)
C35 C 0.1102(4) 0.2893(3) -0.1453(3)
H37 H 0.0857 0.3454 -0.1389
C36 C 0.1394(3) 0.2420(3) -0.0953(2)
C37 C 0.2190(6) 0.0371(5) -0.1741(3)
H38 H 0.2818 0.0395 -0.1647
H39 H 0.2110 0.0201 -0.2165
H40 H 0.1904 -0.0056 -0.1477
C38 C 0.0819(6) 0.3094(7) -0.2559(4)
H41 H 0.0357 0.2761 -0.2763
H42 H 0.1302 0.3199 -0.2843
H43 H 0.0581 0.3651 -0.2420
C39 C 0.1313(6) 0.2775(4) -0.0319(3)
H44 H 0.0894 0.2421 -0.0089
H45 H 0.1104 0.3377 -0.0336
H46 H 0.1887 0.2757 -0.0120
C40 C 0.3397(2) 0.0321(2) 0.06146(19)
C41 C 0.3984(3) -0.0271(3) 0.0350(2)
C42 C 0.4658(3) -0.0597(3) 0.0709(2)
H47 H 0.5054 -0.1008 0.0540
C43 C 0.4768(3) -0.0341(4) 0.1306(3)
C44 C 0.4197(3) 0.0273(4) 0.1537(2)
H48 H 0.4282 0.0473 0.1940
C45 C 0.3501(3) 0.0612(3) 0.1202(2)
C46 C 0.3888(4) -0.0557(4) -0.0293(2)
H49 H 0.3284 -0.0754 -0.0363
H50 H 0.4295 -0.1035 -0.0375
H51 H 0.4019 -0.0068 -0.0564
C47 C 0.5499(5) -0.0739(6) 0.1682(3)
H52 H 0.5889 -0.1077 0.1419
H53 H 0.5246 -0.1121 0.1991
H54 H 0.5836 -0.0276 0.1879
C48 C 0.2910(4) 0.1299(4) 0.1481(3)
H55 H 0.2469 0.1018 0.1738
H56 H 0.2616 0.1625 0.1158
H57 H 0.3264 0.1698 0.1726
C49 C 0.1354(3) 0.0013(3) 0.0849(2)
C50 C 0.0866(3) 0.0720(3) 0.1061(2)
H58 H 0.0819 0.1231 0.0822
C51 C 0.0455(4) 0.0681(4) 0.1612(3)
H59 H 0.0131 0.1170 0.1751
C52 C 0.0500(5) -0.0045(4) 0.1964(3)
H60 H 0.0214 -0.0064 0.2347
C53 C 0.0969(5) -0.0757(4) 0.1756(3)
H61 H 0.1008 -0.1268 0.1996
C54 C 0.1383(3) -0.0723(3) 0.1197(3)
H62 H 0.1691 -0.1218 0.1053
loop_
_geom_bond_atom_site_label_1
_geom_bond_atom_site_label_2
_geom_bond_site_symmetry_1
_geom_bond_site_symmetry_2
N1 C1 1_555 1_555
N2 C1 1_555 1_555
C1 H1 1_555 1_555
C2 N2 1_555 1_555
H2 C2 1_555 1_555
C3 N1 1_555 1_555
H3 C3 1_555 1_555
H4 C3 1_555 1_555
C4 N1 1_555 1_555
C5 C4 1_555 1_555
C6 C5 1_555 1_555
H5 C6 1_555 1_555
C7 C6 1_555 1_555
C8 C7 1_555 1_555
H6 C8 1_555 1_555
C9 C4 1_555 1_555
C10 C5 1_555 1_555
H7 C10 1_555 1_555
H8 C10 1_555 1_555
H9 C10 1_555 1_555
C11 C7 1_555 1_555
H10 C11 1_555 1_555
H11 C11 1_555 1_555
H12 C11 1_555 1_555
C12 C9 1_555 1_555
H13 C12 1_555 1_555
H14 C12 1_555 1_555
H15 C12 1_555 1_555
C13 N2 1_555 1_555
C14 C13 1_555 1_555
C15 C14 1_555 1_555
H16 C15 1_555 1_555
C16 C15 1_555 1_555
C17 C16 1_555 1_555
H17 C17 1_555 1_555
C18 C13 1_555 1_555
C19 C14 1_555 1_555
H18 C19 1_555 1_555
H19 C19 1_555 1_555
H20 C19 1_555 1_555
C20 C16 1_555 1_555
H21 C20 1_555 1_555
H22 C20 1_555 1_555
H23 C20 1_555 1_555
C21 C18 1_555 1_555
H24 C21 1_555 1_555
H25 C21 1_555 1_555
H26 C21 1_555 1_555
C22 C2 1_555 1_555
C23 C22 1_555 1_555
H27 C23 1_555 1_555
C24 C23 1_555 1_555
H28 C24 1_555 1_555
C25 C24 1_555 1_555
H29 C25 1_555 1_555
C26 C25 1_555 1_555
H30 C26 1_555 1_555
C27 C22 1_555 1_555
H31 C27 1_555 1_555
N3 C28 1_555 1_555
N4 C28 1_555 1_555
C28 H32 1_555 1_555
C29 N4 1_555 1_555
H33 C29 1_555 1_555
C30 N3 1_555 1_555
H34 C30 1_555 1_555
H35 C30 1_555 1_555
C31 N3 1_555 1_555
C32 C31 1_555 1_555
C33 C32 1_555 1_555
H36 C33 1_555 1_555
C34 C33 1_555 1_555
C35 C34 1_555 1_555
H37 C35 1_555 1_555
C36 C31 1_555 1_555
C37 C32 1_555 1_555
H38 C37 1_555 1_555
H39 C37 1_555 1_555
H40 C37 1_555 1_555
C38 C34 1_555 1_555
H41 C38 1_555 1_555
H42 C38 1_555 1_555
H43 C38 1_555 1_555
C39 C36 1_555 1_555
H44 C39 1_555 1_555
H45 C39 1_555 1_555
H46 C39 1_555 1_555
C40 N4 1_555 1_555
C41 C40 1_555 1_555
C42 C41 1_555 1_555
H47 C42 1_555 1_555
C43 C42 1_555 1_555
C44 C43 1_555 1_555
H48 C44 1_555 1_555
C45 C40 1_555 1_555
C46 C41 1_555 1_555
H49 C46 1_555 1_555
H50 C46 1_555 1_555
H51 C46 1_555 1_555
C47 C43 1_555 1_555
H52 C47 1_555 1_555
H53 C47 1_555 1_555
H54 C47 1_555 1_555
C48 C45 1_555 1_555
H55 C48 1_555 1_555
H56 C48 1_555 1_555
H57 C48 1_555 1_555
C49 C29 1_555 1_555
C50 C49 1_555 1_555
H58 C50 1_555 1_555
C51 C50 1_555 1_555
H59 C51 1_555 1_555
C52 C51 1_555 1_555
H60 C52 1_555 1_555
C53 C52 1_555 1_555
H61 C53 1_555 1_555
C54 C49 1_555 1_555
H62 C54 1_555 1_555
C2 C3 1_555 1_555
C8 C9 1_555 1_555
C17 C18 1_555 1_555
C26 C27 1_555 1_555
C29 C30 1_555 1_555
C35 C36 1_555 1_555
C44 C45 1_555 1_555
C53 C54 1_555 1_555

#END
