
#######################################################################
#
#                 Cambridge Crystallographic Data Centre
#                                CCDC 
#
#######################################################################
#
# If this CIF has been generated from an entry in the Cambridge 
# Structural Database, then it will include bibliographic, chemical, 
# crystal, experimental, refinement or atomic coordinate data resulting 
# from the CCDC's data processing and validation procedures.
#
#######################################################################

data_SALJOH
_chemical_formula_moiety         'C24 H23 N3 O1 S1'
_chemical_name_systematic        
2-(4-((4-(diethylamino)-2-hydroxybenzylidene)amino)phenyl)-3-(2-thienyl)acrylonitrile
_symmetry_cell_setting           monoclinic
_symmetry_space_group_name_H-M   'C 2/c'
_symmetry_Int_Tables_number      15
_space_group_name_Hall           '-C 2yn'
loop_
_symmetry_equiv_pos_site_id
_symmetry_equiv_pos_as_xyz
1 x,y,z
2 -x,y,1/2-z
3 1/2+x,1/2+y,z
4 1/2-x,1/2+y,1/2-z
5 -x,-y,-z
6 x,-y,1/2+z
7 1/2-x,1/2-y,-z
8 1/2+x,1/2-y,1/2+z
_cell_length_a                   26.886(3)
_cell_length_b                   10.6027(18)
_cell_length_c                   16.7359(18)
_cell_angle_alpha                90
_cell_angle_beta                 119.293(2)
_cell_angle_gamma                90
_cell_volume                     4160.76
_exptl_crystal_colour            brown
_cell_formula_units_Z            8
loop_
_atom_site_label
_atom_site_type_symbol
_atom_site_fract_x
_atom_site_fract_y
_atom_site_fract_z
S1 S 0.07565(2) 0.32945(6) -0.24867(3)
O1 O 0.33943(7) 0.52293(13) 0.50943(9)
H1 H 0.3242 0.5031 0.4556
N1 N 0.43778(8) 0.33709(17) 0.80599(10)
N2 N 0.29005(6) 0.37459(15) 0.36705(9)
N3 N 0.05533(8) 0.2652(3) -0.07611(12)
C1 C 0.43845(11) 0.5301(3) 0.88852(17)
H2 H 0.4026 0.5601 0.8403
H3 H 0.4619 0.6006 0.9218
H4 H 0.4320 0.4776 0.9294
C2 C 0.46790(10) 0.4552(2) 0.84815(14)
H5 H 0.4707 0.5058 0.8022
H6 H 0.5063 0.4357 0.8959
C3 C 0.50638(11) 0.1611(3) 0.87929(18)
H7 H 0.4989 0.1279 0.8211
H8 H 0.5157 0.0932 0.9223
H9 H 0.5378 0.2190 0.9014
C4 C 0.45410(9) 0.2291(2) 0.86848(13)
H10 H 0.4225 0.1701 0.8457
H11 H 0.4613 0.2583 0.9281
C5 C 0.40164(8) 0.32602(19) 0.71360(12)
C6 C 0.38583(8) 0.43081(19) 0.65517(12)
H12 H 0.3984 0.5106 0.6800
C7 C 0.35211(8) 0.41824(17) 0.56170(12)
C8 C 0.37917(8) 0.20733(19) 0.67325(12)
H13 H 0.3876 0.1361 0.7101
C9 C 0.34529(8) 0.19698(18) 0.58104(13)
H14 H 0.3309 0.1179 0.5565
C10 C 0.33105(7) 0.29975(17) 0.52126(11)
C11 C 0.29916(8) 0.28408(18) 0.42387(12)
H15 H 0.2843 0.2048 0.4006
C12 C 0.25860(7) 0.35330(17) 0.27172(11)
C13 C 0.21207(7) 0.27260(18) 0.23073(11)
H16 H 0.2015 0.2255 0.2670
C14 C 0.18129(7) 0.26172(17) 0.13644(11)
H17 H 0.1501 0.2077 0.1101
C15 C 0.27357(8) 0.42178(17) 0.21571(12)
H18 H 0.3045 0.4766 0.2420
C16 C 0.24317(7) 0.40942(17) 0.12158(11)
H19 H 0.2544 0.4548 0.0855
C17 C 0.19600(7) 0.32994(16) 0.07995(11)
C18 C 0.16016(7) 0.32352(16) -0.02101(11)
C19 C 0.10169(8) 0.2903(2) -0.05331(12)
C20 C 0.17850(7) 0.35089(16) -0.08096(12)
H20 H 0.2174 0.3667 -0.0545
C21 C 0.14753(7) 0.35959(16) -0.17914(12)
C22 C 0.17166(8) 0.39956(18) -0.23166(12)
H21 H 0.2100 0.4203 -0.2072
C23 C 0.13210(9) 0.4052(2) -0.32534(13)
H22 H 0.1413 0.4305 -0.3697
C24 C 0.07917(10) 0.3699(2) -0.34432(13)
H23 H 0.0480 0.3679 -0.4032
loop_
_geom_bond_atom_site_label_1
_geom_bond_atom_site_label_2
_geom_bond_site_symmetry_1
_geom_bond_site_symmetry_2
S1 C21 1_555 1_555
O1 H1 1_555 1_555
N1 C2 1_555 1_555
N2 C11 1_555 1_555
N3 C19 1_555 1_555
C1 H2 1_555 1_555
H3 C1 1_555 1_555
H4 C1 1_555 1_555
C2 C1 1_555 1_555
H5 C2 1_555 1_555
H6 C2 1_555 1_555
C3 H7 1_555 1_555
H8 C3 1_555 1_555
H9 C3 1_555 1_555
C4 N1 1_555 1_555
H10 C4 1_555 1_555
H11 C4 1_555 1_555
C5 N1 1_555 1_555
C6 C5 1_555 1_555
H12 C6 1_555 1_555
C7 O1 1_555 1_555
C8 C5 1_555 1_555
H13 C8 1_555 1_555
C9 C8 1_555 1_555
H14 C9 1_555 1_555
C10 C7 1_555 1_555
C11 C10 1_555 1_555
H15 C11 1_555 1_555
C12 N2 1_555 1_555
C13 C12 1_555 1_555
H16 C13 1_555 1_555
C14 C13 1_555 1_555
H17 C14 1_555 1_555
C15 C12 1_555 1_555
H18 C15 1_555 1_555
C16 C15 1_555 1_555
H19 C16 1_555 1_555
C17 C14 1_555 1_555
C18 C17 1_555 1_555
C19 C18 1_555 1_555
C20 C18 1_555 1_555
H20 C20 1_555 1_555
C21 C20 1_555 1_555
C22 C21 1_555 1_555
H21 C22 1_555 1_555
C23 C22 1_555 1_555
H22 C23 1_555 1_555
C24 S1 1_555 1_555
H23 C24 1_555 1_555
C3 C4 1_555 1_555
C6 C7 1_555 1_555
C9 C10 1_555 1_555
C16 C17 1_555 1_555
C23 C24 1_555 1_555

#END
