
#######################################################################
#
#                 Cambridge Crystallographic Data Centre
#                                CCDC 
#
#######################################################################
#
# If this CIF has been generated from an entry in the Cambridge 
# Structural Database, then it will include bibliographic, chemical, 
# crystal, experimental, refinement or atomic coordinate data resulting 
# from the CCDC's data processing and validation procedures.
#
#######################################################################

data_SALSON
_chemical_formula_moiety         'C18 H32 N8 O4'
_chemical_name_systematic        
1,10-bis(1,2,4-Triazolylmethyl)-1,10-diaza-18-crown-6
_symmetry_cell_setting           orthorhombic
_symmetry_space_group_name_H-M   'P c a 21'
_symmetry_Int_Tables_number      29
_space_group_name_Hall           'P 2c -2ac'
loop_
_symmetry_equiv_pos_site_id
_symmetry_equiv_pos_as_xyz
1 x,y,z
2 1/2-x,y,1/2+z
3 1/2+x,-y,z
4 -x,-y,1/2+z
_cell_length_a                   9.986(3)
_cell_length_b                   12.932(6)
_cell_length_c                   17.135(6)
_cell_angle_alpha                90
_cell_angle_beta                 90
_cell_angle_gamma                90
_cell_volume                     2212.8
_chemical_melting_point          90.8-92deg.C
_cell_formula_units_Z            4
loop_
_atom_site_label
_atom_site_type_symbol
_atom_site_fract_x
_atom_site_fract_y
_atom_site_fract_z
C1 C -0.0360(11) 0.3989(6) 0.2642(5)
C2 C 0.0457(8) 0.3868(6) 0.3332(4)
C3 C 0.1813(12) 0.4889(8) 0.4207(5)
C4 C 0.3061(12) 0.4287(7) 0.4252(5)
C5 C 0.3828(12) 0.2580(7) 0.4198(5)
C6 C 0.3276(10) 0.1428(6) 0.4237(5)
C7 C 0.2978(9) 0.1081(7) 0.2917(4)
C8 C 0.2114(11) 0.1143(7) 0.2160(6)
C9 C 0.0645(10) 0.0086(6) 0.1360(5)
C10 C -0.0432(10) 0.0740(7) 0.1216(5)
C11 C -0.1172(11) 0.2471(7) 0.1236(6)
C12 C -0.0608(11) 0.3578(9) 0.1247(7)
C13 C 0.1378(8) 0.0393(6) 0.3811(4)
C14 C 0.3130(11) -0.1828(8) 0.4279(5)
C15 C 0.1851(9) -0.1430(7) 0.3370(5)
C16 C 0.1338(10) 0.4554(6) 0.1700(4)
C17 C -0.0255(11) 0.6880(7) 0.1031(6)
C18 C 0.0656(9) 0.6417(6) 0.2090(5)
O1 O 0.1171(6) 0.4819(4) 0.3443(3)
O2 O 0.2727(6) 0.3245(4) 0.4396(3)
O3 O 0.1306(7) 0.0220(4) 0.2098(3)
O4 O -0.0120(5) 0.1796(4) 0.1130(3)
N1 N 0.0280(6) 0.3814(5) 0.1891(4)
N2 N 0.2304(6) 0.1231(4) 0.3641(3)
N3 N 0.1876(6) -0.0669(5) 0.3863(3)
N4 N 0.2626(9) -0.0955(6) 0.4479(4)
N5 N 0.2465(8) -0.2249(5) 0.3590(4)
N6 N 0.0690(7) 0.5632(6) 0.1544(4)
N7 N 0.0113(8) 0.5910(5) 0.0901(4)
N8 N -0.0013(9) 0.7177(5) 0.1754(4)
loop_
_geom_bond_atom_site_label_1
_geom_bond_atom_site_label_2
_geom_bond_site_symmetry_1
_geom_bond_site_symmetry_2
C1 C2 1_555 1_555
C2 O1 1_555 1_555
C3 C4 1_555 1_555
C4 O2 1_555 1_555
C5 C6 1_555 1_555
C6 N2 1_555 1_555
C7 C8 1_555 1_555
C8 O3 1_555 1_555
C9 C10 1_555 1_555
C10 O4 1_555 1_555
C11 C12 1_555 1_555
C12 N1 1_555 1_555
C13 N2 1_555 1_555
C14 N4 1_555 1_555
C15 N3 1_555 1_555
C16 N1 1_555 1_555
C17 N7 1_555 1_555
C18 N6 1_555 1_555
O1 C3 1_555 1_555
O2 C5 1_555 1_555
O3 C9 1_555 1_555
O4 C11 1_555 1_555
N1 C1 1_555 1_555
N2 C7 1_555 1_555
N3 C13 1_555 1_555
N4 N3 1_555 1_555
N5 C14 1_555 1_555
N6 C16 1_555 1_555
N7 N6 1_555 1_555
N8 C17 1_555 1_555
C15 N5 1_555 1_555
C18 N8 1_555 1_555

#END
