
#######################################################################
#
#                 Cambridge Crystallographic Data Centre
#                                CCDC 
#
#######################################################################
#
# If this CIF has been generated from an entry in the Cambridge 
# Structural Database, then it will include bibliographic, chemical, 
# crystal, experimental, refinement or atomic coordinate data resulting 
# from the CCDC's data processing and validation procedures.
#
#######################################################################

data_SALWAF
_chemical_formula_moiety         'C18 H6 B1 F18 1-,C6 H16 N1 1+'
_chemical_name_systematic        
'Triethylammonium dihydrido(bis(2,4,6-tris(trifluoromethyl)phenyl))borate'
_symmetry_cell_setting           monoclinic
_symmetry_space_group_name_H-M   'C 2/c'
_symmetry_Int_Tables_number      15
_space_group_name_Hall           '-C 2yn'
loop_
_symmetry_equiv_pos_site_id
_symmetry_equiv_pos_as_xyz
1 x,y,z
2 -x,y,1/2-z
3 1/2+x,1/2+y,z
4 1/2-x,1/2+y,1/2-z
5 -x,-y,-z
6 x,-y,1/2+z
7 1/2-x,1/2-y,-z
8 1/2+x,1/2-y,1/2+z
_cell_length_a                   21.770(2)
_cell_length_b                   11.4328(13)
_cell_length_c                   22.567(2)
_cell_angle_alpha                90
_cell_angle_beta                 101.310(2)
_cell_angle_gamma                90
_cell_volume                     5507.67
_exptl_crystal_colour            colorless
_exptl_crystal_description       block
_cell_formula_units_Z            8
loop_
_atom_site_label
_atom_site_type_symbol
_atom_site_fract_x
_atom_site_fract_y
_atom_site_fract_z
B1 B 0.15443(18) 0.3668(3) 0.17162(18)
H1 H 0.2040(19) 0.336(3) 0.1858(18)
H2 H 0.1391(18) 0.414(4) 0.2159(18)
C1 C 0.10322(16) 0.2331(3) 0.26899(16)
C2 C 0.09180(14) 0.1857(3) 0.20516(15)
C3 C 0.05893(16) 0.0820(3) 0.19679(17)
H3 H 0.0461 0.0453 0.2302
C4 C 0.04449(17) 0.0309(3) 0.14039(18)
C5 C 0.06615(17) 0.0818(3) 0.09307(17)
H4 H 0.0574 0.0466 0.0542
C6 C 0.10077(16) 0.1846(3) 0.10219(15)
C7 C 0.11380(14) 0.2454(3) 0.15780(14)
C8 C 0.0072(2) -0.0796(4) 0.1312(2)
C9 C 0.1245(2) 0.2270(4) 0.04709(16)
C10 C 0.14590(16) 0.4731(3) 0.12152(15)
C11 C 0.08790(16) 0.5267(3) 0.09716(16)
C12 C 0.08143(18) 0.6192(3) 0.05636(16)
H5 H 0.0411 0.6505 0.0405
C13 C 0.13384(19) 0.6653(3) 0.03909(16)
C14 C 0.19234(18) 0.6196(3) 0.06324(16)
H6 H 0.2286 0.6521 0.0522
C15 C 0.19822(16) 0.5269(3) 0.10342(15)
C16 C 0.26482(17) 0.4893(4) 0.12850(17)
C17 C 0.1291(2) 0.7647(4) -0.00491(19)
C18 C 0.02774(18) 0.4886(4) 0.11469(19)
F1 F 0.08521(11) 0.1572(2) 0.30765(10)
F2 F 0.16422(9) 0.25420(19) 0.29180(9)
F3 F 0.07248(11) 0.3326(2) 0.27499(10)
F4 F 0.08788(13) 0.3098(3) 0.01620(11)
F5 F 0.12679(15) 0.1398(2) 0.00749(11)
F6 F 0.18197(11) 0.2712(2) 0.05962(10)
F7 F -0.0187(9) -0.1003(15) 0.0762(5)
F8 F 0.0444(5) -0.1737(7) 0.1458(8)
F9 F -0.0296(8) -0.0923(10) 0.1685(9)
F10 F 0.01003(14) 0.3823(3) 0.0983(2)
F11 F 0.03079(15) 0.4852(5) 0.17290(16)
F12 F -0.02025(13) 0.5560(3) 0.09233(18)
F13 F 0.30702(11) 0.5549(3) 0.10678(12)
F14 F 0.28095(11) 0.5020(2) 0.18898(10)
F15 F 0.27871(11) 0.3793(2) 0.11661(13)
F16 F 0.07303(17) 0.8127(3) -0.01745(19)
F17 F 0.1432(2) 0.7337(3) -0.05654(13)
F18 F 0.1683(2) 0.8506(3) 0.01472(14)
N1 N 0.1891(2) 0.5354(4) 0.31560(18)
H7 H 0.176(3) 0.476(6) 0.280(3)
C25 C 0.1406(7) 0.6656(11) 0.2881(6)
C26 C 0.1913(5) 0.5688(9) 0.4276(5)
C27 C 0.1689(4) 0.4921(8) 0.3721(4)
C28 C 0.0914(9) 0.6605(17) 0.2827(9)
C29 C 0.2809(4) 0.4691(11) 0.3319(4)
C30 C 0.2395(6) 0.5854(12) 0.3127(6)
C19? C 0.1512(5) 0.5174(10) 0.3624(5)
C20? C 0.1708(6) 0.5974(11) 0.4170(5)
C21? C 0.2616(5) 0.5296(12) 0.3244(5)
C22? C 0.2885(5) 0.4009(11) 0.3283(5)
C23? C 0.1426(10) 0.7022(18) 0.2483(10)
C24? C 0.1901(7) 0.6499(12) 0.2918(7)
F19? F -0.0545(4) -0.0571(14) 0.1197(15)
F20? F 0.013(3) -0.143(3) 0.1765(12)
F21? F 0.0106(11) -0.1371(13) 0.0868(11)
loop_
_geom_bond_atom_site_label_1
_geom_bond_atom_site_label_2
_geom_bond_site_symmetry_1
_geom_bond_site_symmetry_2
B1 H1 1_555 1_555
H2 B1 1_555 1_555
C1 C2 1_555 1_555
C2 C3 1_555 1_555
C3 H3 1_555 1_555
C4 C3 1_555 1_555
C5 C4 1_555 1_555
H4 C5 1_555 1_555
C6 C5 1_555 1_555
C7 B1 1_555 1_555
C8 C4 1_555 1_555
C9 C6 1_555 1_555
C10 B1 1_555 1_555
C11 C10 1_555 1_555
C12 C11 1_555 1_555
H5 C12 1_555 1_555
C13 C12 1_555 1_555
C14 C13 1_555 1_555
H6 C14 1_555 1_555
C15 C10 1_555 1_555
C16 C15 1_555 1_555
C17 C13 1_555 1_555
C18 C11 1_555 1_555
F1 C1 1_555 1_555
F2 C1 1_555 1_555
F3 C1 1_555 1_555
F4 C9 1_555 1_555
F5 C9 1_555 1_555
F6 C9 1_555 1_555
F7 C8 1_555 1_555
F8 C8 1_555 1_555
F9 C8 1_555 1_555
F10 C18 1_555 1_555
F11 C18 1_555 1_555
F12 C18 1_555 1_555
F13 C16 1_555 1_555
F14 C16 1_555 1_555
F15 C16 1_555 1_555
F16 C17 1_555 1_555
F17 C17 1_555 1_555
F18 C17 1_555 1_555
N1 H7 1_555 1_555
C25 N1 1_555 1_555
C26 C27 1_555 1_555
C27 N1 1_555 1_555
C28 C25 1_555 1_555
C29 C30 1_555 1_555
C30 N1 1_555 1_555
C2 C7 1_555 1_555
C6 C7 1_555 1_555
C14 C15 1_555 1_555

#END
