
#######################################################################
#
#                 Cambridge Crystallographic Data Centre
#                                CCDC 
#
#######################################################################
#
# If this CIF has been generated from an entry in the Cambridge 
# Structural Database, then it will include bibliographic, chemical, 
# crystal, experimental, refinement or atomic coordinate data resulting 
# from the CCDC's data processing and validation procedures.
#
#######################################################################

data_SALWEJ
_chemical_formula_moiety         'C18 H6 B1 F18 1-,C6 H13 N2 1+'
_chemical_name_systematic        
'4-Aza-1-azoniabicyclo[2.2.2]octane dihydrido(bis(2,4,6-tris(trifluoromethyl)phenyl))borate'
_symmetry_cell_setting           triclinic
_symmetry_space_group_name_H-M   'P -1'
_symmetry_Int_Tables_number      2
_space_group_name_Hall           '-P 1'
loop_
_symmetry_equiv_pos_site_id
_symmetry_equiv_pos_as_xyz
1 x,y,z
2 -x,-y,-z
_cell_length_a                   10.3546(16)
_cell_length_b                   11.6397(18)
_cell_length_c                   12.2451(18)
_cell_angle_alpha                69.234(2)
_cell_angle_beta                 71.726(2)
_cell_angle_gamma                76.555(2)
_cell_volume                     1298.07
_exptl_crystal_colour            colorless
_exptl_crystal_description       block
_cell_formula_units_Z            2
loop_
_atom_site_label
_atom_site_type_symbol
_atom_site_fract_x
_atom_site_fract_y
_atom_site_fract_z
B1 B 0.6947(3) 0.7697(3) 0.3340(3)
H1 H 0.624(3) 0.671(3) 0.388(3)
H2 H 0.607(3) 0.835(3) 0.285(3)
C1 C 1.1334(3) 0.6507(3) -0.0783(3)
C2 C 1.0304(3) 0.6814(2) 0.0286(2)
C3 C 1.0098(2) 0.5956(2) 0.1410(2)
H3 H 1.0632 0.5159 0.1529
C4 C 0.9113(2) 0.6249(2) 0.2373(2)
C5 C 0.8284(2) 0.7410(2) 0.2274(2)
C6 C 0.8568(2) 0.8265(2) 0.1099(2)
C7 C 0.9549(3) 0.7987(2) 0.0119(2)
H4 H 0.9701 0.8592 -0.0654
C8 C 0.8906(3) 0.5200(3) 0.3542(2)
C9 C 0.7759(3) 0.9544(3) 0.0777(3)
C10 C 0.7024(2) 0.8103(2) 0.4478(2)
C11 C 0.8184(3) 0.8330(2) 0.4713(2)
C12 C 0.8164(3) 0.8452(2) 0.5809(2)
H5 H 0.8979 0.8569 0.5932
C13 C 0.6963(3) 0.8405(2) 0.6717(2)
C14 C 0.5771(3) 0.8298(2) 0.6509(2)
H6 H 0.4928 0.8322 0.7109
C15 C 0.5799(2) 0.8155(2) 0.5418(2)
C16 C 0.9551(3) 0.8461(3) 0.3792(3)
C17 C 0.4414(3) 0.8000(3) 0.5352(2)
C18 C 0.6971(3) 0.8474(3) 0.7914(3)
F1 F 1.24624(19) 0.70574(19) -0.11363(17)
F2 F 1.0822(2) 0.6843(3) -0.17375(18)
F3 F 1.1773(2) 0.52922(19) -0.0557(2)
F4 F 1.00217(19) 0.43433(17) 0.35893(18)
F5 F 0.78828(19) 0.45811(17) 0.36799(15)
F6 F 0.86101(19) 0.55421(18) 0.45312(14)
F7 F 0.7448(2) 1.01397(17) 0.1578(2)
F8 F 0.65724(17) 0.95154(16) 0.05587(16)
F9 F 0.8439(2) 1.02898(17) -0.02731(19)
F10 F 1.02547(17) 0.7388(2) 0.36226(18)
F11 F 0.94389(19) 0.92197(19) 0.27045(16)
F12 F 1.03968(19) 0.8929(2) 0.41093(18)
F13 F 0.4309(2) 0.6802(2) 0.5578(3)
F14 F 0.41001(17) 0.8588(2) 0.43055(17)
F15 F 0.33806(18) 0.8394(2) 0.61669(19)
F16 F 0.7447(3) 0.7379(2) 0.8605(2)
F17 F 0.5766(2) 0.8787(4) 0.8552(3)
F18 F 0.7807(3) 0.9215(3) 0.7834(2)
N1 N 0.4673(2) 0.6861(2) 0.2497(2)
N2 N 0.3582(2) 0.5857(2) 0.1548(2)
H7 H 0.510(4) 0.723(3) 0.280(3)
C19 C 0.5771(3) 0.6174(3) 0.1740(3)
H8 H 0.6342 0.5534 0.2242
H9 H 0.6372 0.6753 0.1088
C20 C 0.5070(3) 0.5560(3) 0.1195(3)
H10 H 0.5396 0.5849 0.0304
H11 H 0.5327 0.4649 0.1472
C21 C 0.3751(3) 0.5976(3) 0.3476(3)
H12 H 0.3031 0.6423 0.3990
H13 H 0.4292 0.5316 0.3992
C22 C 0.3098(3) 0.5411(3) 0.2864(3)
H14 H 0.3319 0.4497 0.3143
H15 H 0.2088 0.5623 0.3102
C23 C 0.3201(3) 0.7202(3) 0.1167(3)
H16 H 0.2189 0.7401 0.1404
H17 H 0.3510 0.7527 0.0276
C24 C 0.3839(3) 0.7837(3) 0.1732(3)
H18 H 0.4428 0.8434 0.1092
H19 H 0.3110 0.8295 0.2229
loop_
_geom_bond_atom_site_label_1
_geom_bond_atom_site_label_2
_geom_bond_site_symmetry_1
_geom_bond_site_symmetry_2
B1 H1 1_555 1_555
H2 B1 1_555 1_555
C1 C2 1_555 1_555
C2 C3 1_555 1_555
C3 H3 1_555 1_555
C4 C3 1_555 1_555
C5 B1 1_555 1_555
C6 C5 1_555 1_555
C7 C2 1_555 1_555
H4 C7 1_555 1_555
C8 C4 1_555 1_555
C9 C6 1_555 1_555
C10 B1 1_555 1_555
C11 C10 1_555 1_555
C12 C11 1_555 1_555
H5 C12 1_555 1_555
C13 C12 1_555 1_555
C14 C13 1_555 1_555
H6 C14 1_555 1_555
C15 C10 1_555 1_555
C16 C11 1_555 1_555
C17 C15 1_555 1_555
C18 C13 1_555 1_555
F1 C1 1_555 1_555
F2 C1 1_555 1_555
F3 C1 1_555 1_555
F4 C8 1_555 1_555
F5 C8 1_555 1_555
F6 C8 1_555 1_555
F7 C9 1_555 1_555
F8 C9 1_555 1_555
F9 C9 1_555 1_555
F10 C16 1_555 1_555
F11 C16 1_555 1_555
F12 C16 1_555 1_555
F13 C17 1_555 1_555
F14 C17 1_555 1_555
F15 C17 1_555 1_555
F16 C18 1_555 1_555
F17 C18 1_555 1_555
F18 C18 1_555 1_555
N1 H7 1_555 1_555
N2 C20 1_555 1_555
C19 N1 1_555 1_555
H8 C19 1_555 1_555
H9 C19 1_555 1_555
C20 C19 1_555 1_555
H10 C20 1_555 1_555
H11 C20 1_555 1_555
C21 N1 1_555 1_555
H12 C21 1_555 1_555
H13 C21 1_555 1_555
C22 N2 1_555 1_555
H14 C22 1_555 1_555
H15 C22 1_555 1_555
C23 N2 1_555 1_555
H16 C23 1_555 1_555
H17 C23 1_555 1_555
C24 N1 1_555 1_555
H18 C24 1_555 1_555
H19 C24 1_555 1_555
C4 C5 1_555 1_555
C6 C7 1_555 1_555
C14 C15 1_555 1_555
C21 C22 1_555 1_555
C23 C24 1_555 1_555

#END
