
#######################################################################
#
#                 Cambridge Crystallographic Data Centre
#                                CCDC 
#
#######################################################################
#
# If this CIF has been generated from an entry in the Cambridge 
# Structural Database, then it will include bibliographic, chemical, 
# crystal, experimental, refinement or atomic coordinate data resulting 
# from the CCDC's data processing and validation procedures.
#
#######################################################################

data_SALWEK
_chemical_formula_moiety         'C2 H6 N5 1+,Cl1 1-'
_chemical_name_systematic        '4,5-diamino-4H-1,2,4-triazol-1-ium chloride'
_symmetry_cell_setting           monoclinic
_symmetry_space_group_name_H-M   'C c'
_symmetry_Int_Tables_number      9
_space_group_name_Hall           'C -2yc'
loop_
_symmetry_equiv_pos_site_id
_symmetry_equiv_pos_as_xyz
1 x,y,z
2 x,-y,1/2+z
3 1/2+x,1/2+y,z
4 1/2+x,1/2-y,1/2+z
_cell_length_a                   4.9407(4)
_cell_length_b                   14.7184(8)
_cell_length_c                   7.7321(4)
_cell_angle_alpha                90
_cell_angle_beta                 98.287(6)
_cell_angle_gamma                90
_cell_volume                     556.401
_cell_formula_units_Z            4
loop_
_atom_site_label
_atom_site_type_symbol
_atom_site_fract_x
_atom_site_fract_y
_atom_site_fract_z
Cl1 Cl 0.46097(10) 0.26810(3) 0.68928(8)
N1 N 0.4209(4) 0.11436(13) 1.0089(2)
N2 N -0.0561(4) -0.02824(13) 0.7667(3)
H1 H -0.1224 -0.0803 0.7327
N3 N 0.2049(4) 0.07402(12) 0.8955(3)
N4 N 0.3369(4) -0.07957(13) 0.9568(3)
H2 H 0.2995 -0.1361 0.9380
H3 H 0.4808 -0.0641 1.0269
N5 N -0.1739(4) 0.05402(13) 0.7125(3)
C1 C -0.0115(4) 0.11469(16) 0.7923(3)
H4 H -0.0377 0.1771 0.7814
C2 C 0.1735(4) -0.01659(15) 0.8783(3)
H5? H 0.5175 0.1501 0.9478
H6? H 0.5289 0.0712 1.0616
H7? H 0.3527 0.1473 1.0890
loop_
_geom_bond_atom_site_label_1
_geom_bond_atom_site_label_2
_geom_bond_site_symmetry_1
_geom_bond_site_symmetry_2
N1 N3 1_555 1_555
N2 H1 1_555 1_555
N3 C1 1_555 1_555
N4 H2 1_555 1_555
H3 N4 1_555 1_555
N5 N2 1_555 1_555
C1 N5 1_555 1_555
H4 C1 1_555 1_555
C2 N2 1_555 1_555
N3 C2 1_555 1_555
N4 C2 1_555 1_555

#END
