
#######################################################################
#
#                 Cambridge Crystallographic Data Centre
#                                CCDC 
#
#######################################################################
#
# If this CIF has been generated from an entry in the Cambridge 
# Structural Database, then it will include bibliographic, chemical, 
# crystal, experimental, refinement or atomic coordinate data resulting 
# from the CCDC's data processing and validation procedures.
#
#######################################################################

data_SALXOV
_chemical_formula_moiety         'C18 H13 Br1 Cl1 N1 O1'
_chemical_name_systematic        
6-(4-bromophenyl)-4-(4-chlorophenyl)-3-oxabicyclo[3.1.0]hexane-1-carbonitrile
_symmetry_cell_setting           triclinic
_symmetry_space_group_name_H-M   'P -1'
_symmetry_Int_Tables_number      2
_space_group_name_Hall           '-P 1'
loop_
_symmetry_equiv_pos_site_id
_symmetry_equiv_pos_as_xyz
1 x,y,z
2 -x,-y,-z
_cell_length_a                   7.3054(4)
_cell_length_b                   22.2245(13)
_cell_length_c                   22.2849(14)
_cell_angle_alpha                62.972(2)
_cell_angle_beta                 81.752(2)
_cell_angle_gamma                81.977(2)
_cell_volume                     3178.28
_exptl_crystal_colour            white
_exptl_crystal_description       block
_cell_formula_units_Z            8
loop_
_atom_site_label
_atom_site_type_symbol
_atom_site_fract_x
_atom_site_fract_y
_atom_site_fract_z
Br1 Br 0.85850(15) 0.04057(5) -0.17644(5)
C1 C 0.6031(12) 0.0686(4) 0.0861(4)
H1 H 0.5597 0.0256 0.1239
C2 C 0.5150(13) 0.1311(4) 0.0911(4)
H2 H 0.4882 0.1732 0.0490
C3 C 0.7144(13) 0.1077(4) 0.1085(4)
C4 C 0.4033(13) 0.1206(4) 0.1572(4)
H3 H 0.2873 0.0996 0.1608
C5 C 0.7097(14) 0.0826(5) 0.1838(4)
H4 H 0.7882 0.0395 0.2044
H5 H 0.7540 0.1165 0.1945
C6 C 0.6606(12) 0.0643(4) 0.0211(4)
C7 C 0.7335(14) 0.0032(5) 0.0231(5)
H6 H 0.7447 -0.0349 0.0659
C8 C 0.7914(14) -0.0052(5) -0.0348(5)
H7 H 0.8390 -0.0483 -0.0320
C9 C 0.7779(11) 0.0507(4) -0.0962(4)
C10 C 0.7079(13) 0.1129(4) -0.1017(5)
H8 H 0.6998 0.1508 -0.1448
C11 C 0.6477(14) 0.1197(4) -0.0421(4)
H9 H 0.5977 0.1626 -0.0449
C12 C 0.3509(12) 0.1863(4) 0.1638(4)
C13 C 0.4208(13) 0.1988(5) 0.2111(4)
H10 H 0.5031 0.1653 0.2411
C14 C 0.3733(13) 0.2589(5) 0.2155(4)
H11 H 0.4190 0.2664 0.2491
C15 C 0.2588(12) 0.3079(4) 0.1704(4)
C16 C 0.1887(12) 0.2974(5) 0.1231(4)
H12 H 0.1086 0.3316 0.0926
C17 C 0.2351(12) 0.2362(5) 0.1195(4)
H13 H 0.1867 0.2287 0.0863
C18 C 0.8652(14) 0.1425(5) 0.0658(5)
Cl1 Cl 0.1963(3) 0.38405(11) 0.17658(11)
N1 N 0.9893(14) 0.1691(5) 0.0335(5)
O1 O 0.5185(10) 0.0729(3) 0.2082(3)
Br2 Br 0.92045(15) -0.17724(5) 0.53794(5)
C19 C 0.6042(13) 0.0813(4) 0.5663(4)
H14 H 0.5631 0.1188 0.5229
C20 C 0.4957(12) 0.0816(4) 0.6288(4)
H15 H 0.4720 0.0377 0.6693
C21 C 0.6870(13) 0.1047(4) 0.6098(4)
C22 C 0.6613(15) 0.1812(5) 0.5868(5)
H16 H 0.6842 0.1922 0.6233
H17 H 0.7471 0.2050 0.5464
C23 C 0.3667(13) 0.1440(4) 0.6188(4)
H18 H 0.2561 0.1439 0.5971
C24 C 0.6772(12) 0.0177(4) 0.5622(4)
C25 C 0.7328(13) 0.0200(5) 0.4991(4)
H19 H 0.7216 0.0624 0.4601
C26 C 0.8037(13) -0.0368(5) 0.4905(4)
H20 H 0.8393 -0.0338 0.4465
C27 C 0.8216(11) -0.0984(4) 0.5474(4)
C28 C 0.7691(12) -0.1026(4) 0.6113(4)
H21 H 0.7824 -0.1449 0.6502
C29 C 0.6970(13) -0.0449(4) 0.6183(4)
H22 H 0.6604 -0.0481 0.6622
C30 C 0.3026(11) 0.1515(4) 0.6824(4)
C31 C 0.1511(14) 0.1948(5) 0.6845(5)
H23 H 0.0830 0.2183 0.6459
C32 C 0.0950(14) 0.2053(5) 0.7409(5)
H24 H -0.0113 0.2352 0.7411
C33 C 0.1911(13) 0.1731(4) 0.7958(5)
C34 C 0.3459(13) 0.1303(4) 0.7967(5)
H25 H 0.4147 0.1088 0.8352
C35 C 0.4008(12) 0.1189(5) 0.7399(4)
H26 H 0.5064 0.0886 0.7403
C36 C 0.8447(14) 0.0672(5) 0.6465(5)
Cl2 Cl 0.1214(4) 0.18573(15) 0.86824(15)
N2 N 0.9699(13) 0.0387(5) 0.6745(5)
O2 O 0.4760(10) 0.1998(3) 0.5714(3)
Br3 Br 0.76409(16) 0.31702(5) 0.04301(6)
C37 C 0.6437(11) 0.5822(4) 0.0737(4)
H27 H 0.6041 0.6208 0.0307
C38 C 0.5579(13) 0.5880(5) 0.1357(4)
H28 H 0.5261 0.5463 0.1778
C39 C 0.7584(11) 0.6023(4) 0.1125(4)
C40 C 0.7644(13) 0.6776(5) 0.0882(5)
H29 H 0.8115 0.6867 0.1225
H30 H 0.8455 0.6972 0.0455
C41 C 0.4533(12) 0.6563(4) 0.1242(4)
H31 H 0.3375 0.6618 0.1025
C42 C 0.6813(13) 0.5158(4) 0.0702(4)
C43 C 0.7267(14) 0.5173(5) 0.0070(4)
H32 H 0.7397 0.5598 -0.0315
C44 C 0.7534(15) 0.4590(5) -0.0018(5)
H33 H 0.7828 0.4613 -0.0457
C45 C 0.7369(12) 0.3974(5) 0.0542(5)
C46 C 0.6929(14) 0.3949(5) 0.1170(5)
H34 H 0.6808 0.3524 0.1556
C47 C 0.6658(14) 0.4542(5) 0.1246(4)
H35 H 0.6358 0.4518 0.1685
C48 C 0.4024(11) 0.6614(4) 0.1906(4)
C49 C 0.2825(12) 0.6187(5) 0.2402(4)
H36 H 0.2334 0.5853 0.2330
C50 C 0.2321(12) 0.6230(5) 0.2998(4)
H37 H 0.1470 0.5937 0.3331
C51 C 0.3056(11) 0.6699(4) 0.3109(4)
C52 C 0.4261(13) 0.7127(4) 0.2639(5)
H38 H 0.4764 0.7448 0.2726
C53 C 0.4753(12) 0.7092(4) 0.2029(5)
H39 H 0.5585 0.7394 0.1695
C54 C 0.9058(14) 0.5579(5) 0.1480(5)
Cl3 Cl 0.2383(3) 0.67666(11) 0.38642(11)
N3 N 1.0299(14) 0.5258(5) 0.1755(5)
O3 O 0.5760(9) 0.7053(3) 0.0778(3)
Br4 Br 0.81521(16) 0.54075(6) 0.31450(5)
C55 C 0.6357(12) 0.5728(4) 0.5771(4)
H40 H 0.5951 0.5296 0.6155
C56 C 0.5358(13) 0.6351(4) 0.5793(4)
H41 H 0.5077 0.6758 0.5361
C57 C 0.7357(12) 0.6157(4) 0.5987(4)
C58 C 0.7199(14) 0.5933(5) 0.6744(5)
H42 H 0.8053 0.5526 0.6969
H43 H 0.7498 0.6299 0.6841
C59 C 0.4163(13) 0.6248(5) 0.6444(4)
H44 H 0.3041 0.6021 0.6475
C60 C 0.6929(12) 0.5681(4) 0.5129(4)
C61 C 0.7231(15) 0.5040(4) 0.5145(5)
H45 H 0.7155 0.4651 0.5570
C62 C 0.7631(16) 0.4955(5) 0.4571(5)
H46 H 0.7861 0.4513 0.4597
C63 C 0.7697(11) 0.5528(4) 0.3943(4)
C64 C 0.7453(14) 0.6165(5) 0.3902(5)
H47 H 0.7551 0.6552 0.3475
C65 C 0.7054(14) 0.6242(4) 0.4502(4)
H48 H 0.6868 0.6684 0.4477
C66 C 0.3561(11) 0.6881(4) 0.6523(4)
C67 C 0.4504(12) 0.7461(5) 0.6184(4)
H49 H 0.5531 0.7476 0.5864
C68 C 0.3938(12) 0.8026(5) 0.6312(4)
H50 H 0.4623 0.8415 0.6097
C69 C 0.2408(13) 0.8017(5) 0.6744(4)
C70 C 0.1464(14) 0.7448(6) 0.7082(5)
H51 H 0.0415 0.7441 0.7390
C71 C 0.2035(13) 0.6887(6) 0.6974(5)
H52 H 0.1374 0.6493 0.7213
C72 C 0.8907(14) 0.6508(5) 0.5582(5)
Cl4 Cl 0.1698(4) 0.87295(15) 0.68783(14)
N4 N 1.0183(13) 0.6792(5) 0.5272(6)
O4 O 0.5335(10) 0.5787(3) 0.6966(3)
loop_
_geom_bond_atom_site_label_1
_geom_bond_atom_site_label_2
_geom_bond_site_symmetry_1
_geom_bond_site_symmetry_2
Br1 C9 1_555 1_555
C1 H1 1_555 1_555
C2 C1 1_555 1_555
H2 C2 1_555 1_555
C3 C1 1_555 1_555
C4 C2 1_555 1_555
H3 C4 1_555 1_555
C5 C3 1_555 1_555
H4 C5 1_555 1_555
H5 C5 1_555 1_555
C6 C1 1_555 1_555
C7 C6 1_555 1_555
H6 C7 1_555 1_555
C8 C7 1_555 1_555
H7 C8 1_555 1_555
C9 C8 1_555 1_555
C10 C9 1_555 1_555
H8 C10 1_555 1_555
C11 C6 1_555 1_555
H9 C11 1_555 1_555
C12 C4 1_555 1_555
C13 C12 1_555 1_555
H10 C13 1_555 1_555
C14 C13 1_555 1_555
H11 C14 1_555 1_555
C15 C14 1_555 1_555
C16 C15 1_555 1_555
H12 C16 1_555 1_555
C17 C12 1_555 1_555
H13 C17 1_555 1_555
C18 C3 1_555 1_555
Cl1 C15 1_555 1_555
N1 C18 1_555 1_555
O1 C4 1_555 1_555
Br2 C27 1_555 1_555
C19 H14 1_555 1_555
C20 C19 1_555 1_555
H15 C20 1_555 1_555
C21 C19 1_555 1_555
C22 C21 1_555 1_555
H16 C22 1_555 1_555
H17 C22 1_555 1_555
C23 C20 1_555 1_555
H18 C23 1_555 1_555
C24 C19 1_555 1_555
C25 C24 1_555 1_555
H19 C25 1_555 1_555
C26 C25 1_555 1_555
H20 C26 1_555 1_555
C27 C26 1_555 1_555
C28 C27 1_555 1_555
H21 C28 1_555 1_555
C29 C24 1_555 1_555
H22 C29 1_555 1_555
C30 C23 1_555 1_555
C31 C30 1_555 1_555
H23 C31 1_555 1_555
C32 C31 1_555 1_555
H24 C32 1_555 1_555
C33 C32 1_555 1_555
C34 C33 1_555 1_555
H25 C34 1_555 1_555
C35 C30 1_555 1_555
H26 C35 1_555 1_555
C36 C21 1_555 1_555
Cl2 C33 1_555 1_555
N2 C36 1_555 1_555
O2 C22 1_555 1_555
Br3 C45 1_555 1_555
C37 H27 1_555 1_555
C38 C37 1_555 1_555
H28 C38 1_555 1_555
C39 C37 1_555 1_555
C40 C39 1_555 1_555
H29 C40 1_555 1_555
H30 C40 1_555 1_555
C41 C38 1_555 1_555
H31 C41 1_555 1_555
C42 C37 1_555 1_555
C43 C42 1_555 1_555
H32 C43 1_555 1_555
C44 C43 1_555 1_555
H33 C44 1_555 1_555
C45 C44 1_555 1_555
C46 C45 1_555 1_555
H34 C46 1_555 1_555
C47 C42 1_555 1_555
H35 C47 1_555 1_555
C48 C41 1_555 1_555
C49 C48 1_555 1_555
H36 C49 1_555 1_555
C50 C49 1_555 1_555
H37 C50 1_555 1_555
C51 C50 1_555 1_555
C52 C51 1_555 1_555
H38 C52 1_555 1_555
C53 C48 1_555 1_555
H39 C53 1_555 1_555
C54 C39 1_555 1_555
Cl3 C51 1_555 1_555
N3 C54 1_555 1_555
O3 C40 1_555 1_555
Br4 C63 1_555 1_555
C55 H40 1_555 1_555
C56 C55 1_555 1_555
H41 C56 1_555 1_555
C57 C55 1_555 1_555
C58 C57 1_555 1_555
H42 C58 1_555 1_555
H43 C58 1_555 1_555
C59 C56 1_555 1_555
H44 C59 1_555 1_555
C60 C55 1_555 1_555
C61 C60 1_555 1_555
H45 C61 1_555 1_555
C62 C61 1_555 1_555
H46 C62 1_555 1_555
C63 C62 1_555 1_555
C64 C63 1_555 1_555
H47 C64 1_555 1_555
C65 C60 1_555 1_555
H48 C65 1_555 1_555
C66 C59 1_555 1_555
C67 C66 1_555 1_555
H49 C67 1_555 1_555
C68 C67 1_555 1_555
H50 C68 1_555 1_555
C69 C68 1_555 1_555
C70 C69 1_555 1_555
H51 C70 1_555 1_555
C71 C66 1_555 1_555
H52 C71 1_555 1_555
C72 C57 1_555 1_555
Cl4 C69 1_555 1_555
N4 C72 1_555 1_555
O4 C58 1_555 1_555
C2 C3 1_555 1_555
C5 O1 1_555 1_555
C10 C11 1_555 1_555
C16 C17 1_555 1_555
C20 C21 1_555 1_555
C23 O2 1_555 1_555
C28 C29 1_555 1_555
C34 C35 1_555 1_555
C38 C39 1_555 1_555
C41 O3 1_555 1_555
C46 C47 1_555 1_555
C52 C53 1_555 1_555
C56 C57 1_555 1_555
C59 O4 1_555 1_555
C64 C65 1_555 1_555
C70 C71 1_555 1_555

#END
