
#######################################################################
#
#                 Cambridge Crystallographic Data Centre
#                                CCDC 
#
#######################################################################
#
# If this CIF has been generated from an entry in the Cambridge 
# Structural Database, then it will include bibliographic, chemical, 
# crystal, experimental, refinement or atomic coordinate data resulting 
# from the CCDC's data processing and validation procedures.
#
#######################################################################

data_SALXUB
_chemical_formula_moiety         'C18 H13 Br1 Cl1 N1 O1'
_chemical_name_systematic        
4-(4-bromophenyl)-6-(4-chlorophenyl)-3-oxabicyclo[3.1.0]hexane-1-carbonitrile
_symmetry_cell_setting           monoclinic
_symmetry_space_group_name_H-M   'C 2/c'
_symmetry_Int_Tables_number      15
_space_group_name_Hall           '-C 2yn'
loop_
_symmetry_equiv_pos_site_id
_symmetry_equiv_pos_as_xyz
1 x,y,z
2 -x,y,1/2-z
3 1/2+x,1/2+y,z
4 1/2-x,1/2+y,1/2-z
5 -x,-y,-z
6 x,-y,1/2+z
7 1/2-x,1/2-y,-z
8 1/2+x,1/2-y,1/2+z
_cell_length_a                   17.0428(19)
_cell_length_b                   6.0453(6)
_cell_length_c                   30.354(3)
_cell_angle_alpha                90
_cell_angle_beta                 90.618(4)
_cell_angle_gamma                90
_cell_volume                     3127.16
_exptl_crystal_colour            white
_exptl_crystal_description       block
_cell_formula_units_Z            8
loop_
_atom_site_label
_atom_site_type_symbol
_atom_site_fract_x
_atom_site_fract_y
_atom_site_fract_z
Br1 Br 0.14950(4) 1.02770(10) 0.578088(19)
O1 O 0.0441(2) 0.3035(6) 0.41550(12)
C1 C 0.0367(3) 0.5491(8) 0.35606(16)
C2 C 0.1213(3) 0.5312(8) 0.37121(16)
H1 H 0.1576 0.6592 0.3669
C3 C 0.1208(3) 0.4494(8) 0.28675(16)
C4 C 0.0999(3) 0.9194(9) 0.49093(18)
H2 H 0.0772 1.0629 0.4908
C5 C 0.1714(3) 0.6321(9) 0.52914(17)
H3 H 0.1976 0.5805 0.5549
C6 C 0.1386(3) 0.8390(9) 0.52794(16)
C7 C 0.1759(3) 0.5187(9) 0.20265(16)
C8 C 0.1655(3) 0.5006(9) 0.49224(17)
H4 H 0.1883 0.3573 0.4926
C9 C 0.1850(3) 0.6839(9) 0.23354(17)
H5 H 0.2097 0.8195 0.2261
C10 C 0.0061(3) 0.7461(9) 0.33556(17)
C11 C 0.1095(3) 0.2917(9) 0.25382(16)
H6 H 0.0822 0.1590 0.2604
C12 C 0.0939(3) 0.3993(8) 0.33195(16)
H7 H 0.0866 0.2380 0.3380
C13 C 0.1267(3) 0.5737(8) 0.45429(16)
N1 N -0.0177(3) 0.9026(9) 0.32002(19)
C14 C 0.1575(3) 0.6480(9) 0.27548(17)
H8 H 0.1635 0.7603 0.2971
C15 C 0.1192(3) 0.4159(9) 0.41550(16)
H9 H 0.1623 0.3039 0.4171
C16 C 0.1373(3) 0.3244(9) 0.21175(17)
H10 H 0.1300 0.2151 0.1896
C17 C 0.0952(3) 0.7836(9) 0.45404(18)
H11 H 0.0698 0.8366 0.4281
C18 C -0.0111(3) 0.4338(9) 0.39133(17)
H12 H -0.0365 0.5433 0.4108
H13 H -0.0521 0.3390 0.3778
Cl1 Cl 0.21536(10) 0.5591(3) 0.15023(4)
loop_
_geom_bond_atom_site_label_1
_geom_bond_atom_site_label_2
_geom_bond_site_symmetry_1
_geom_bond_site_symmetry_2
Br1 C6 1_555 1_555
O1 C15 1_555 1_555
C1 C2 1_555 1_555
C2 H1 1_555 1_555
C3 C11 1_555 1_555
C4 H2 1_555 1_555
C5 H3 1_555 1_555
C6 C4 1_555 1_555
C7 C9 1_555 1_555
C8 C5 1_555 1_555
H4 C8 1_555 1_555
C9 H5 1_555 1_555
C10 C1 1_555 1_555
C11 H6 1_555 1_555
C12 C1 1_555 1_555
H7 C12 1_555 1_555
C13 C8 1_555 1_555
N1 C10 1_555 1_555
C14 C3 1_555 1_555
H8 C14 1_555 1_555
C15 C2 1_555 1_555
H9 C15 1_555 1_555
C16 C7 1_555 1_555
H10 C16 1_555 1_555
C17 C4 1_555 1_555
H11 C17 1_555 1_555
C18 O1 1_555 1_555
H12 C18 1_555 1_555
H13 C18 1_555 1_555
Cl1 C7 1_555 1_555
C1 C18 1_555 1_555
C2 C12 1_555 1_555
C3 C12 1_555 1_555
C5 C6 1_555 1_555
C9 C14 1_555 1_555
C11 C16 1_555 1_555
C13 C15 1_555 1_555
C13 C17 1_555 1_555

#END
