
#######################################################################
#
#                 Cambridge Crystallographic Data Centre
#                                CCDC 
#
#######################################################################
#
# If this CIF has been generated from an entry in the Cambridge 
# Structural Database, then it will include bibliographic, chemical, 
# crystal, experimental, refinement or atomic coordinate data resulting 
# from the CCDC's data processing and validation procedures.
#
#######################################################################

data_SALXOU
_chemical_name_common            
15alpha-Acetoxy-6alpha-hydroxy-20-oxo-6,11alpha-epoxy-6,7-seco-ent-kaur-16-en-1alpha,7-olide
_chemical_formula_moiety         'C22 H28 O7'
_chemical_name_systematic        'Isodonhenrin A'
_symmetry_cell_setting           orthorhombic
_symmetry_space_group_name_H-M   'P 21 21 21'
_symmetry_Int_Tables_number      19
_space_group_name_Hall           'P 2ac 2ab'
loop_
_symmetry_equiv_pos_site_id
_symmetry_equiv_pos_as_xyz
1 x,y,z
2 1/2+x,1/2-y,-z
3 -x,1/2+y,1/2-z
4 1/2-x,-y,1/2+z
_cell_length_a                   10.6859(2)
_cell_length_b                   12.5623(2)
_cell_length_c                   14.7334(3)
_cell_angle_alpha                90
_cell_angle_beta                 90
_cell_angle_gamma                90
_cell_volume                     1977.8
_exptl_crystal_colour            colorless
_exptl_crystal_description       prism
_cell_formula_units_Z            4
loop_
_atom_site_label
_atom_site_type_symbol
_atom_site_fract_x
_atom_site_fract_y
_atom_site_fract_z
O1 O 1.1720(3) 1.23118(19) 0.1126(3)
O2 O 1.02785(17) 1.11054(13) 0.07379(12)
O3 O 0.74547(18) 0.82497(13) 0.05619(12)
O4 O 0.61255(17) 0.96700(14) 0.02702(12)
H1 H 0.5903 0.9459 -0.0246
O5 O 0.88792(18) 1.03942(16) 0.32965(12)
O6 O 1.0826(2) 1.08285(17) 0.30828(13)
O7 O 0.77513(19) 1.18218(15) 0.20496(16)
C1 C 1.0750(3) 1.2099(2) 0.0775(2)
C2 C 1.0886(2) 1.02761(19) 0.12477(17)
H2 H 1.1604 1.0581 0.1597
C3 C 0.9958(2) 0.97406(18) 0.19069(16)
C4 C 0.8680(2) 0.95274(17) 0.14262(15)
H3 H 0.8679 0.9957 0.0855
C5 C 0.8522(3) 0.83567(19) 0.11446(16)
H4 H 0.8395 0.7911 0.1700
C6 C 0.6327(2) 0.87885(19) 0.08375(17)
H5 H 0.5606 0.8287 0.0772
C7 C 0.9887(4) 1.2876(2) 0.0332(2)
H6 H 0.9091 1.2894 0.0663
H7 H 0.9735 1.2658 -0.0297
H8 H 1.0267 1.3586 0.0340
C8 C 1.1345(2) 0.93691(19) 0.06525(17)
C9 C 1.2031(3) 0.9483(2) -0.00835(18)
H9 H 1.2300 0.8873 -0.0412
H10 H 1.2256 1.0174 -0.0287
C10 C 1.0901(2) 0.8332(2) 0.10724(18)
H11 H 1.1561 0.7769 0.1037
C11 C 1.0650(2) 0.86715(19) 0.20666(17)
H12 H 1.1438 0.8774 0.2409
H13 H 1.0115 0.8150 0.2388
C12 C 0.9652(3) 0.79527(19) 0.06310(17)
H14 H 0.9614 0.8210 -0.0003
H15 H 0.9634 0.7165 0.0618
C13 C 0.6411(2) 0.91403(18) 0.18167(16)
H16 H 0.6662 0.8474 0.2140
C14 C 0.5181(2) 0.9468(2) 0.23088(17)
C15 C 0.4209(3) 0.8593(2) 0.2173(2)
H17 H 0.3584 0.8631 0.2659
H18 H 0.4621 0.7897 0.2189
H19 H 0.3796 0.8690 0.1585
C16 C 0.4608(3) 1.0523(2) 0.1990(2)
H20 H 0.4398 1.0472 0.1344
H21 H 0.5212 1.1100 0.2082
H22 H 0.3848 1.0671 0.2340
C17 C 0.5519(3) 0.9524(3) 0.3323(2)
H23 H 0.4791 0.9813 0.3658
H24 H 0.5665 0.8791 0.3545
C18 C 0.6669(3) 1.0201(3) 0.35541(19)
H25 H 0.6504 1.0957 0.3406
H26 H 0.6854 1.0149 0.4211
C19 C 0.7784(2) 0.9795(2) 0.30035(17)
H27 H 0.7919 0.9027 0.3151
C20 C 0.9928(3) 1.0376(2) 0.27941(17)
C21 C 0.7535(2) 0.98947(18) 0.19892(15)
C22 C 0.7353(2) 1.10464(18) 0.16697(19)
H28 H 0.6888 1.1155 0.1128
loop_
_geom_bond_atom_site_label_1
_geom_bond_atom_site_label_2
_geom_bond_site_symmetry_1
_geom_bond_site_symmetry_2
O1 C1 1_555 1_555
O2 C1 1_555 1_555
O3 C5 1_555 1_555
O4 H1 1_555 1_555
O5 C19 1_555 1_555
O6 C20 1_555 1_555
O7 C22 1_555 1_555
C1 C7 1_555 1_555
C2 O2 1_555 1_555
H2 C2 1_555 1_555
C3 C2 1_555 1_555
C4 C3 1_555 1_555
H3 C4 1_555 1_555
C5 C4 1_555 1_555
H4 C5 1_555 1_555
C6 O3 1_555 1_555
H5 C6 1_555 1_555
C7 H6 1_555 1_555
H7 C7 1_555 1_555
H8 C7 1_555 1_555
C8 C2 1_555 1_555
C9 C8 1_555 1_555
H9 C9 1_555 1_555
H10 C9 1_555 1_555
C10 C8 1_555 1_555
H11 C10 1_555 1_555
C11 C3 1_555 1_555
H12 C11 1_555 1_555
H13 C11 1_555 1_555
C12 C5 1_555 1_555
H14 C12 1_555 1_555
H15 C12 1_555 1_555
C13 C6 1_555 1_555
H16 C13 1_555 1_555
C14 C13 1_555 1_555
C15 C14 1_555 1_555
H17 C15 1_555 1_555
H18 C15 1_555 1_555
H19 C15 1_555 1_555
C16 C14 1_555 1_555
H20 C16 1_555 1_555
H21 C16 1_555 1_555
H22 C16 1_555 1_555
C17 C14 1_555 1_555
H23 C17 1_555 1_555
H24 C17 1_555 1_555
C18 C17 1_555 1_555
H25 C18 1_555 1_555
H26 C18 1_555 1_555
C19 C18 1_555 1_555
H27 C19 1_555 1_555
C20 O5 1_555 1_555
C21 C4 1_555 1_555
C22 C21 1_555 1_555
H28 C22 1_555 1_555
O4 C6 1_555 1_555
C3 C20 1_555 1_555
C10 C11 1_555 1_555
C10 C12 1_555 1_555
C13 C21 1_555 1_555
C19 C21 1_555 1_555

#END
