
#######################################################################
#
#                 Cambridge Crystallographic Data Centre
#                                CCDC 
#
#######################################################################
#
# If this CIF has been generated from an entry in the Cambridge 
# Structural Database, then it will include bibliographic, chemical, 
# crystal, experimental, refinement or atomic coordinate data resulting 
# from the CCDC's data processing and validation procedures.
#
#######################################################################

data_SALYAI
_chemical_formula_moiety         'C19 H16 N2 O4'
_chemical_name_systematic        
4-(4-methoxyphenyl)-6-(4-nitrophenyl)-3-oxabicyclo[3.1.0]hexane-1-carbonitrile
_symmetry_cell_setting           monoclinic
_symmetry_space_group_name_H-M   'P 21/c'
_symmetry_Int_Tables_number      14
_space_group_name_Hall           '-P 2ybc'
loop_
_symmetry_equiv_pos_site_id
_symmetry_equiv_pos_as_xyz
1 x,y,z
2 -x,1/2+y,1/2-z
3 -x,-y,-z
4 x,1/2-y,1/2+z
_cell_length_a                   9.4652(12)
_cell_length_b                   23.715(3)
_cell_length_c                   7.4848(9)
_cell_angle_alpha                90
_cell_angle_beta                 102.608(4)
_cell_angle_gamma                90
_cell_volume                     1639.58
_exptl_crystal_colour            white
_exptl_crystal_description       block
_cell_formula_units_Z            4
loop_
_atom_site_label
_atom_site_type_symbol
_atom_site_fract_x
_atom_site_fract_y
_atom_site_fract_z
O1 O 0.12002(13) 0.29971(5) 0.59644(17)
O2 O -0.44436(13) 0.31503(5) -0.05459(17)
C1 C -0.07953(19) 0.36043(7) 0.1494(2)
H1 H -0.0128 0.3876 0.1239
N1 N 0.60433(19) 0.60055(7) 0.7656(2)
C2 C -0.31305(17) 0.31655(7) 0.0688(2)
C3 C 0.10758(18) 0.33171(7) 0.4300(2)
H2 H 0.1832 0.3188 0.3644
C4 C -0.27532(18) 0.28209(7) 0.2195(2)
H3 H -0.3420 0.2548 0.2442
C5 C -0.13990(19) 0.28716(7) 0.3354(2)
H4 H -0.1150 0.2631 0.4390
C6 C -0.04036(17) 0.32643(6) 0.3034(2)
C7 C 0.14015(17) 0.39162(7) 0.4954(2)
H5 H 0.1082 0.4236 0.4090
O3 O 0.71913(17) 0.59977(6) 0.8783(2)
O4 O 0.56014(16) 0.64133(6) 0.6700(2)
C8 C 0.26352(18) 0.40012(7) 0.6574(2)
H6 H 0.3249 0.3658 0.6912
C9 C 0.57607(19) 0.49914(8) 0.8055(3)
H7 H 0.6749 0.4970 0.8673
C10 C 0.34613(17) 0.45381(7) 0.6885(2)
C11 C 0.0317(2) 0.43957(9) 0.7427(2)
C12 C 0.49033(19) 0.45158(7) 0.7771(3)
H8 H 0.5316 0.4162 0.8196
C13 C 0.51415(18) 0.54972(7) 0.7418(2)
C14 C 0.3711(2) 0.55414(8) 0.6549(3)
H9 H 0.3305 0.5897 0.6130
C15 C 0.10907(18) 0.39344(7) 0.6850(2)
C16 C -0.21335(19) 0.35551(7) 0.0329(3)
H10 H -0.2375 0.3789 -0.0725
C17 C 0.2870(2) 0.50583(8) 0.6296(3)
H11 H 0.1875 0.5084 0.5710
C18 C 0.0681(2) 0.33380(8) 0.7253(3)
H12 H 0.1145 0.3229 0.8523
H13 H -0.0382 0.3301 0.7087
C19 C -0.5483(2) 0.27427(8) -0.0246(3)
H14 H -0.5042 0.2367 -0.0134
H15 H -0.6320 0.2747 -0.1282
H16 H -0.5798 0.2835 0.0882
N2 N -0.0344(2) 0.47565(9) 0.7840(3)
loop_
_geom_bond_atom_site_label_1
_geom_bond_atom_site_label_2
_geom_bond_site_symmetry_1
_geom_bond_site_symmetry_2
O1 C3 1_555 1_555
O2 C2 1_555 1_555
C1 H1 1_555 1_555
N1 O3 1_555 1_555
C2 C4 1_555 1_555
C3 H2 1_555 1_555
C4 H3 1_555 1_555
C5 C4 1_555 1_555
H4 C5 1_555 1_555
C6 C1 1_555 1_555
C7 C3 1_555 1_555
H5 C7 1_555 1_555
O4 N1 1_555 1_555
C8 C7 1_555 1_555
H6 C8 1_555 1_555
C9 H7 1_555 1_555
C10 C8 1_555 1_555
C11 C15 1_555 1_555
C12 C9 1_555 1_555
H8 C12 1_555 1_555
C13 N1 1_555 1_555
C14 C13 1_555 1_555
H9 C14 1_555 1_555
C15 C7 1_555 1_555
C16 C1 1_555 1_555
H10 C16 1_555 1_555
C17 C10 1_555 1_555
H11 C17 1_555 1_555
C18 O1 1_555 1_555
H12 C18 1_555 1_555
H13 C18 1_555 1_555
C19 O2 1_555 1_555
H14 C19 1_555 1_555
H15 C19 1_555 1_555
H16 C19 1_555 1_555
N2 C11 1_555 1_555
C2 C16 1_555 1_555
C3 C6 1_555 1_555
C5 C6 1_555 1_555
C8 C15 1_555 1_555
C9 C13 1_555 1_555
C10 C12 1_555 1_555
C14 C17 1_555 1_555
C15 C18 1_555 1_555

#END
