
#######################################################################
#
#                 Cambridge Crystallographic Data Centre
#                                CCDC 
#
#######################################################################
#
# If this CIF has been generated from an entry in the Cambridge 
# Structural Database, then it will include bibliographic, chemical, 
# crystal, experimental, refinement or atomic coordinate data resulting 
# from the CCDC's data processing and validation procedures.
#
#######################################################################

data_SALYAH
_chemical_compound_source        'Hypericum beanii'
_chemical_name_common            
3-Benzoyl-3',4,7'-trihydroxy-3',7'-dimethyl-5,5-bis(3-methylbut-2-en-1-yl)-1',2',3',3a',4',6',7',7a'-octahydro-2H,6H-spiro[cyclohex-3-ene-1,5'-indene]-2,6-dione
_chemical_formula_moiety         'C33 H42 O6'
_chemical_name_systematic        'Hyperbeanol A'
_chemical_properties_biological  'tested for anti-cancer activity'
_symmetry_cell_setting           triclinic
_symmetry_space_group_name_H-M   'P 1'
_symmetry_Int_Tables_number      1
_space_group_name_Hall           'P 1'
loop_
_symmetry_equiv_pos_site_id
_symmetry_equiv_pos_as_xyz
1 x,y,z
_cell_length_a                   11.9446(15)
_cell_length_b                   15.897(2)
_cell_length_c                   18.185(2)
_cell_angle_alpha                83.931(2)
_cell_angle_beta                 71.720(2)
_cell_angle_gamma                87.003(2)
_cell_volume                     3259.73
_exptl_crystal_colour            colorless
_exptl_crystal_description       block
_cell_formula_units_Z            4
loop_
_atom_site_label
_atom_site_type_symbol
_atom_site_fract_x
_atom_site_fract_y
_atom_site_fract_z
O1 O 0.2585(6) 0.7770(4) 0.0079(4)
O2 O 0.4197(7) 0.6749(5) 0.0001(5)
H1 H 0.3600 0.6966 -0.0074
O3 O 0.3580(7) 0.8525(5) 0.1903(4)
O4 O 0.1431(5) 0.5707(4) 0.3840(4)
H2 H 0.0973 0.5312 0.3985
O5 O 0.6022(7) 0.6279(5) 0.1907(4)
O6 O 0.4666(7) 0.7742(5) 0.4094(5)
H3 H 0.5309 0.7809 0.4151
C1 C 0.4336(8) 0.7148(5) 0.2221(5)
C2 C 0.4703(9) 0.7556(7) 0.2799(6)
H13 H 0.4173 0.8039 0.2937
H14 H 0.5478 0.7783 0.2529
C3 C 0.4775(8) 0.7086(6) 0.3568(6)
C4 C 0.3694(9) 0.6570(7) 0.3917(6)
H15 H 0.3013 0.6961 0.4027
C5 C 0.3583(11) 0.5994(8) 0.4644(7)
H16 H 0.4355 0.5790 0.4661
H17 H 0.3210 0.6292 0.5101
C6 C 0.2847(11) 0.5274(9) 0.4624(6)
H18 H 0.2099 0.5284 0.5036
H19 H 0.3250 0.4739 0.4690
C7 C 0.2648(9) 0.5391(7) 0.3803(6)
C8 C 0.3573(8) 0.6006(6) 0.3333(5)
H20 H 0.4319 0.5696 0.3129
C9 C 0.3296(8) 0.6537(6) 0.2659(6)
H21 H 0.2575 0.6865 0.2856
H22 H 0.3176 0.6167 0.2299
C10 C 0.5252(8) 0.6631(6) 0.1686(6)
C11 C 0.5326(10) 0.6529(6) 0.0841(6)
C12 C 0.4254(9) 0.6933(6) 0.0652(6)
C13 C 0.3576(9) 0.7515(6) 0.1034(6)
C14 C 0.3804(9) 0.7807(7) 0.1707(6)
C15 C 0.5479(11) 0.5556(7) 0.0693(8)
H23 H 0.5699 0.5516 0.0137
H24 H 0.6128 0.5319 0.0866
C16 C 0.4436(11) 0.5027(8) 0.1076(9)
H25 H 0.4137 0.5008 0.1615
C17 C 0.3850(12) 0.4549(7) 0.0706(10)
C18 C 0.404(3) 0.4525(15) -0.0113(12)
H26 H 0.3579 0.4969 -0.0290
H27 H 0.3800 0.3988 -0.0204
H28 H 0.4858 0.4603 -0.0393
C19 C 0.277(2) 0.4075(10) 0.1182(13)
H29 H 0.2954 0.3711 0.1588
H30 H 0.2520 0.3741 0.0856
H31 H 0.2156 0.4469 0.1409
C20 C 0.6473(9) 0.6950(7) 0.0281(6)
H32 H 0.7155 0.6624 0.0338
H33 H 0.6475 0.6946 -0.0252
C21 C 0.6568(11) 0.7878(8) 0.0454(6)
H34 H 0.5997 0.8254 0.0357
C22 C 0.7322(13) 0.8199(7) 0.0711(7)
C23 C 0.8230(13) 0.7755(10) 0.0912(10)
H35 H 0.8045 0.7692 0.1468
H36 H 0.8949 0.8060 0.0686
H37 H 0.8323 0.7207 0.0722
C24 C 0.7210(16) 0.9141(10) 0.0770(10)
H38 H 0.7971 0.9390 0.0542
H39 H 0.6905 0.9248 0.1307
H40 H 0.6683 0.9383 0.0497
C25 C 0.2603(10) 0.7953(6) 0.0773(6)
C26 C 0.1640(9) 0.8530(6) 0.1167(6)
C27 C 0.1290(9) 0.9149(7) 0.0705(6)
H41 H 0.1637 0.9172 0.0169
C28 C 0.0454(11) 0.9731(9) 0.1004(7)
H42 H 0.0243 1.0151 0.0674
C29 C -0.0074(13) 0.9708(12) 0.1773(9)
H43 H -0.0640 1.0114 0.1983
C30 C 0.0256(13) 0.9040(11) 0.2263(8)
H44 H -0.0135 0.8981 0.2795
C31 C 0.1166(11) 0.8481(9) 0.1936(7)
H45 H 0.1440 0.8077 0.2251
C32 C 0.2748(10) 0.4555(7) 0.3437(8)
H46 H 0.2137 0.4185 0.3756
H47 H 0.3504 0.4293 0.3400
H48 H 0.2666 0.4662 0.2927
C33 C 0.5887(11) 0.6603(9) 0.3507(7)
H49 H 0.6544 0.6964 0.3255
H50 H 0.5929 0.6133 0.3209
H51 H 0.5910 0.6400 0.4019
O7 O 1.1786(8) 0.2340(6) 0.0504(4)
O8 O 1.0360(9) 0.3365(5) 0.0217(4)
H4 H 1.0491 0.2918 0.0014
O9 O 0.9074(6) 0.1723(4) 0.2559(4)
O10 O 0.6860(7) 0.3993(5) 0.2128(5)
O11 O 0.9826(6) 0.4543(4) 0.3896(4)
H5 H 1.0367 0.4875 0.3799
O12 O 0.6114(6) 0.2675(5) 0.4639(4)
H6 H 0.6382 0.2761 0.4988
C34 C 0.8242(9) 0.3108(6) 0.2600(5)
C35 C 0.8960(8) 0.3768(6) 0.2860(5)
H52 H 0.9516 0.3462 0.3085
H53 H 0.9409 0.4117 0.2403
C36 C 0.8222(8) 0.4309(6) 0.3417(6)
H54 H 0.7673 0.4605 0.3170
C37 C 0.8778(9) 0.4991(7) 0.3720(7)
C38 C 0.7790(11) 0.5117(9) 0.4519(8)
H55 H 0.8164 0.5169 0.4914
H56 H 0.7359 0.5642 0.4462
C39 C 0.6943(13) 0.4416(9) 0.4786(7)
H57 H 0.6154 0.4610 0.4799
H58 H 0.6924 0.4161 0.5299
C40 C 0.7458(9) 0.3773(6) 0.4149(6)
H59 H 0.7992 0.3379 0.4334
C41 C 0.6608(8) 0.3267(7) 0.3970(6)
C42 C 0.7279(8) 0.2703(6) 0.3306(6)
H60 H 0.7637 0.2228 0.3537
H61 H 0.6696 0.2475 0.3115
C43 C 0.7772(11) 0.3640(7) 0.1978(6)
C44 C 0.8486(11) 0.3646(7) 0.1123(7)
C45 C 0.9672(11) 0.3230(7) 0.0933(6)
C46 C 1.0008(10) 0.2656(6) 0.1475(6)
C47 C 0.9114(8) 0.2393(7) 0.2231(5)
C48 C 0.7754(13) 0.3205(10) 0.0730(7)
H62 H 0.7023 0.3523 0.0773
H63 H 0.8185 0.3193 0.0181
C49 C 0.7480(14) 0.2324(12) 0.1093(9)
H64 H 0.8133 0.1964 0.1047
C50 C 0.640(2) 0.1960(10) 0.1487(11)
C51 C 0.5277(14) 0.2539(13) 0.1621(13)
H65 H 0.5486 0.3085 0.1344
H66 H 0.4937 0.2598 0.2167
H67 H 0.4715 0.2289 0.1434
C52 C 0.6190(15) 0.1091(11) 0.1800(14)
H68 H 0.5804 0.0817 0.1503
H69 H 0.5699 0.1071 0.2333
H70 H 0.6928 0.0805 0.1774
C53 C 0.8654(13) 0.4601(10) 0.0726(8)
H71 H 0.9001 0.4577 0.0169
H72 H 0.7876 0.4861 0.0811
C54 C 0.9371(16) 0.5170(8) 0.0976(10)
H73 H 0.9110 0.5241 0.1505
C55 C 1.0341(12) 0.5603(10) 0.0565(10)
C56 C 1.0837(19) 0.5515(13) -0.0280(12)
H74 H 1.1463 0.5097 -0.0368
H75 H 1.1139 0.6048 -0.0549
H76 H 1.0229 0.5343 -0.0471
C57 C 1.0762(16) 0.6261(13) 0.0900(12)
H77 H 1.0102 0.6563 0.1218
H78 H 1.1234 0.6646 0.0490
H79 H 1.1231 0.6011 0.1212
C58 C 1.1160(11) 0.2233(7) 0.1215(7)
C59 C 1.1672(8) 0.1657(6) 0.1746(6)
C60 C 1.2327(16) 0.1008(9) 0.1426(10)
H80 H 1.2311 0.0893 0.0939
C61 C 1.308(3) 0.0460(17) 0.1791(15)
H81 H 1.3693 0.0115 0.1528
C62 C 1.2782(13) 0.0521(9) 0.2462(18)
H82 H 1.2965 0.0062 0.2767
C63 C 1.2156(13) 0.1238(11) 0.2880(8)
H83 H 1.2129 0.1303 0.3387
C64 C 1.1597(11) 0.1824(9) 0.2456(8)
H84 H 1.1198 0.2303 0.2668
C65 C 0.9221(12) 0.5719(7) 0.3139(8)
H85 H 0.9642 0.6086 0.3341
H86 H 0.8568 0.6025 0.3030
H87 H 0.9739 0.5518 0.2669
C66 C 0.5523(9) 0.3795(7) 0.3848(8)
H88 H 0.4999 0.3427 0.3735
H89 H 0.5793 0.4223 0.3422
H90 H 0.5115 0.4058 0.4312
O13 O 0.2982(7) 0.7340(5) 0.8626(4)
O14 O 0.1716(6) 0.6638(4) 0.6981(4)
O15 O 0.1507(7) 0.8464(4) 0.8776(4)
H7 H 0.1670 0.8965 0.8742
O16 O -0.0507(6) 0.9046(4) 0.6957(4)
O17 O 0.3102(6) 0.9025(5) 0.4714(4)
H8 H 0.3105 0.8939 0.4277
O18 O 0.0110(7) 0.6660(5) 0.4959(5)
H9 H -0.0371 0.6298 0.5195
C67 C 0.1046(7) 0.8011(5) 0.6625(4)
C68 C 0.0319(8) 0.7520(5) 0.6229(5)
H91 H 0.0727 0.6989 0.6086
H92 H -0.0443 0.7387 0.6606
C69 C 0.0127(9) 0.7997(6) 0.5517(5)
H93 H -0.0350 0.8507 0.5671
C70 C -0.0455(10) 0.7510(7) 0.5056(6)
C71 C -0.0035(14) 0.8057(9) 0.4236(7)
H94 H 0.0161 0.7686 0.3822
H95 H -0.0669 0.8438 0.4177
C72 C 0.1016(10) 0.8556(9) 0.4178(6)
H96 H 0.0834 0.9158 0.4147
H97 H 0.1669 0.8436 0.3723
C73 C 0.1316(7) 0.8264(6) 0.4932(5)
H98 H 0.1814 0.7752 0.4836
C74 C 0.1952(8) 0.8877(6) 0.5251(6)
C75 C 0.2090(7) 0.8421(5) 0.6021(5)
H99 H 0.2700 0.7986 0.5879
H100 H 0.2386 0.8831 0.6269
C76 C 0.0233(8) 0.8632(5) 0.7162(6)
C77 C 0.0327(9) 0.8777(5) 0.7945(5)
C78 C 0.1351(10) 0.8299(6) 0.8146(6)
C79 C 0.2005(8) 0.7660(5) 0.7715(5)
C80 C 0.1591(7) 0.7365(5) 0.7125(5)
C81 C 0.0300(10) 0.9670(6) 0.8038(7)
H101 H 0.0186 0.9736 0.8581
H102 H -0.0376 0.9930 0.7910
C82 C 0.1420(12) 1.0155(8) 0.7536(8)
H103 H 0.1640 1.0101 0.7005
C83 C 0.2150(15) 1.0665(10) 0.7773(12)
C84 C 0.188(2) 1.0839(19) 0.8674(15)
H104 H 0.1059 1.0989 0.8890
H105 H 0.2353 1.1294 0.8705
H106 H 0.2059 1.0337 0.8962
C85 C 0.3081(16) 1.1179(11) 0.7170(15)
H107 H 0.3600 1.0812 0.6821
H108 H 0.3525 1.1469 0.7420
H109 H 0.2716 1.1585 0.6883
C86 C -0.0822(10) 0.8397(7) 0.8557(6)
H110 H -0.0799 0.8484 0.9072
H111 H -0.1495 0.8716 0.8478
C87 C -0.1018(13) 0.7498(8) 0.8543(6)
H112 H -0.0487 0.7135 0.8705
C88 C -0.1824(14) 0.7108(9) 0.8341(7)
C89 C -0.2760(15) 0.7563(10) 0.8113(11)
H113 H -0.2523 0.8133 0.7920
H114 H -0.3458 0.7569 0.8555
H115 H -0.2920 0.7288 0.7712
C90 C -0.1866(14) 0.6164(9) 0.8312(11)
H116 H -0.1204 0.5892 0.8439
H117 H -0.1837 0.6048 0.7799
H118 H -0.2585 0.5951 0.8681
C91 C 0.2927(8) 0.7217(6) 0.7981(6)
C92 C 0.3854(8) 0.6698(6) 0.7499(6)
C93 C 0.4365(9) 0.6059(6) 0.7848(7)
H119 H 0.4067 0.5928 0.8384
C94 C 0.5273(14) 0.5620(8) 0.7441(10)
H120 H 0.5637 0.5227 0.7713
C95 C 0.5685(14) 0.5699(10) 0.6704(13)
H121 H 0.6307 0.5354 0.6444
C96 C 0.5210(13) 0.6277(11) 0.6318(8)
H122 H 0.5474 0.6300 0.5777
C97 C 0.4271(9) 0.6906(8) 0.6686(6)
H123 H 0.4004 0.7363 0.6418
C98 C -0.1758(8) 0.7415(8) 0.5420(7)
H124 H -0.2088 0.7220 0.5052
H125 H -0.2113 0.7952 0.5572
H126 H -0.1910 0.7012 0.5870
C99 C 0.1360(9) 0.9762(6) 0.5360(6)
H127 H 0.1896 1.0142 0.5447
H128 H 0.0658 0.9723 0.5800
H129 H 0.1159 0.9971 0.4902
O19 O 0.3298(7) 0.2599(5) 0.8896(4)
O20 O 0.4655(7) 0.1524(5) 0.9234(4)
H10 H 0.4230 0.1908 0.9444
O21 O 0.6315(6) 0.3618(4) 0.7313(4)
O22 O 0.8493(7) 0.1254(5) 0.7587(4)
O23 O 1.1259(10) 0.3036(10) 0.5882(8)
H11 H 1.1828 0.2724 0.5707
O24 O 0.7091(6) 0.1331(4) 0.5323(4)
H12 H 0.6559 0.0998 0.5536
C100 C 0.7288(8) 0.2267(5) 0.7126(5)
C101 C 0.8347(8) 0.2768(6) 0.6684(5)
H130 H 0.8753 0.2896 0.7044
H131 H 0.8088 0.3302 0.6473
C102 C 0.9222(8) 0.2338(6) 0.6021(5)
H132 H 0.9533 0.1820 0.6236
C103 C 1.0300(9) 0.2908(8) 0.5499(7)
C104 C 1.0754(11) 0.2389(8) 0.4787(7)
H133 H 1.1373 0.1994 0.4846
H134 H 1.1065 0.2761 0.4315
C105 C 0.9656(10) 0.1899(7) 0.4752(6)
H135 H 0.9469 0.2082 0.4277
H136 H 0.9817 0.1294 0.4770
C106 C 0.8629(8) 0.2114(6) 0.5468(5)
H137 H 0.8221 0.2622 0.5319
C107 C 0.7731(8) 0.1455(6) 0.5846(6)
C108 C 0.6827(8) 0.1845(6) 0.6535(5)
H138 H 0.6289 0.1404 0.6827
H139 H 0.6369 0.2270 0.6323
C109 C 0.7502(9) 0.1618(5) 0.7729(5)
C110 C 0.6666(9) 0.1395(6) 0.8515(6)
C111 C 0.5450(9) 0.1838(7) 0.8600(6)
C112 C 0.5265(9) 0.2461(6) 0.8120(5)
C113 C 0.6316(9) 0.2828(6) 0.7508(6)
C114 C 0.6615(11) 0.0456(6) 0.8748(7)
H140 H 0.6110 0.0350 0.9281
H141 H 0.7399 0.0237 0.8720
C115 C 0.6117(11) -0.0021(9) 0.8191(8)
H142 H 0.6526 0.0048 0.7662
C116 C 0.5221(15) -0.0485(9) 0.8396(10)
C117 C 0.4433(15) -0.0763(11) 0.9104(11)
H143 H 0.4743 -0.1267 0.9315
H144 H 0.3696 -0.0882 0.9033
H145 H 0.4312 -0.0332 0.9455
C118 C 0.4974(18) -0.0883(10) 0.7852(14)
H146 H 0.5533 -0.0726 0.7352
H147 H 0.4193 -0.0724 0.7840
H148 H 0.5020 -0.1484 0.7974
C119 C 0.7196(11) 0.1797(8) 0.9115(6)
H149 H 0.6628 0.1722 0.9631
H150 H 0.7906 0.1481 0.9130
C120 C 0.7464(17) 0.2647(10) 0.8942(8)
H151 H 0.6843 0.3040 0.9018
C121 C 0.867(3) 0.2965(9) 0.8644(8)
C122 C 0.9766(16) 0.2481(13) 0.8557(12)
H152 H 0.9770 0.2215 0.9055
H153 H 1.0422 0.2853 0.8351
H154 H 0.9826 0.2057 0.8208
C123 C 0.881(2) 0.3990(13) 0.8452(12)
H155 H 0.9269 0.4193 0.8742
H156 H 0.8041 0.4258 0.8595
H157 H 0.9194 0.4122 0.7905
C124 C 0.4082(11) 0.2850(6) 0.8280(6)
C125 C 0.3664(9) 0.3469(6) 0.7756(6)
C126 C 0.2790(9) 0.4038(7) 0.8075(7)
H158 H 0.2473 0.4038 0.8612
C127 C 0.2372(10) 0.4633(7) 0.7565(9)
H159 H 0.1803 0.5040 0.7770
C128 C 0.2824(11) 0.4599(8) 0.6763(8)
H160 H 0.2543 0.4978 0.6432
C129 C 0.3630(10) 0.4045(9) 0.6476(6)
H161 H 0.3920 0.4044 0.5938
C130 C 0.4090(10) 0.3446(7) 0.6930(6)
H162 H 0.4654 0.3045 0.6703
C131 C 0.9877(7) 0.3700(5) 0.5270(4)
H163 H 0.9370 0.3946 0.5720
H164 H 0.9443 0.3632 0.4917
H165 H 1.0530 0.4065 0.5016
C132 C 0.8242(9) 0.0582(6) 0.6086(6)
H166 H 0.7606 0.0208 0.6354
H167 H 0.8699 0.0660 0.6423
H168 H 0.8736 0.0341 0.5629
loop_
_geom_bond_atom_site_label_1
_geom_bond_atom_site_label_2
_geom_bond_site_symmetry_1
_geom_bond_site_symmetry_2
O1 C25 1_555 1_555
O2 H1 1_555 1_555
O3 C14 1_555 1_555
O4 H2 1_555 1_555
O5 C10 1_555 1_555
O6 H3 1_555 1_555
O7 C58 1_555 1_555
O8 H4 1_555 1_555
O9 C47 1_555 1_555
O10 C43 1_555 1_555
O11 H5 1_555 1_555
O12 H6 1_555 1_555
O13 C91 1_555 1_555
O14 C80 1_555 1_555
O15 H7 1_555 1_555
O16 C76 1_555 1_555
O17 H8 1_555 1_555
O18 H9 1_555 1_555
O19 C124 1_555 1_555
O20 H10 1_555 1_555
O21 C113 1_555 1_555
O22 C109 1_555 1_555
O23 H11 1_555 1_555
O24 H12 1_555 1_555
C1 C2 1_555 1_555
C2 H13 1_555 1_555
H14 C2 1_555 1_555
C3 O6 1_555 1_555
C4 C3 1_555 1_555
H15 C4 1_555 1_555
C5 C4 1_555 1_555
H16 C5 1_555 1_555
H17 C5 1_555 1_555
C6 C5 1_555 1_555
H18 C6 1_555 1_555
H19 C6 1_555 1_555
C7 O4 1_555 1_555
C8 C4 1_555 1_555
H20 C8 1_555 1_555
C9 C1 1_555 1_555
H21 C9 1_555 1_555
H22 C9 1_555 1_555
C10 C1 1_555 1_555
C11 C10 1_555 1_555
C12 O2 1_555 1_555
C13 C12 1_555 1_555
C14 C1 1_555 1_555
C15 C11 1_555 1_555
H23 C15 1_555 1_555
H24 C15 1_555 1_555
C16 C15 1_555 1_555
H25 C16 1_555 1_555
C17 C16 1_555 1_555
C18 C17 1_555 1_555
H26 C18 1_555 1_555
H27 C18 1_555 1_555
H28 C18 1_555 1_555
C19 C17 1_555 1_555
H29 C19 1_555 1_555
H30 C19 1_555 1_555
H31 C19 1_555 1_555
C20 C11 1_555 1_555
H32 C20 1_555 1_555
H33 C20 1_555 1_555
C21 C20 1_555 1_555
H34 C21 1_555 1_555
C22 C21 1_555 1_555
C23 C22 1_555 1_555
H35 C23 1_555 1_555
H36 C23 1_555 1_555
H37 C23 1_555 1_555
C24 C22 1_555 1_555
H38 C24 1_555 1_555
H39 C24 1_555 1_555
H40 C24 1_555 1_555
C25 C13 1_555 1_555
C26 C25 1_555 1_555
C27 C26 1_555 1_555
H41 C27 1_555 1_555
C28 C27 1_555 1_555
H42 C28 1_555 1_555
C29 C28 1_555 1_555
H43 C29 1_555 1_555
C30 C29 1_555 1_555
H44 C30 1_555 1_555
C31 C26 1_555 1_555
H45 C31 1_555 1_555
C32 C7 1_555 1_555
H46 C32 1_555 1_555
H47 C32 1_555 1_555
H48 C32 1_555 1_555
C33 C3 1_555 1_555
H49 C33 1_555 1_555
H50 C33 1_555 1_555
H51 C33 1_555 1_555
C34 C35 1_555 1_555
C35 H52 1_555 1_555
H53 C35 1_555 1_555
C36 C35 1_555 1_555
H54 C36 1_555 1_555
C37 O11 1_555 1_555
C38 C37 1_555 1_555
H55 C38 1_555 1_555
H56 C38 1_555 1_555
C39 C38 1_555 1_555
H57 C39 1_555 1_555
H58 C39 1_555 1_555
C40 C36 1_555 1_555
H59 C40 1_555 1_555
C41 O12 1_555 1_555
C42 C34 1_555 1_555
H60 C42 1_555 1_555
H61 C42 1_555 1_555
C43 C34 1_555 1_555
C44 C43 1_555 1_555
C45 O8 1_555 1_555
C46 C45 1_555 1_555
C47 C34 1_555 1_555
C48 C44 1_555 1_555
H62 C48 1_555 1_555
H63 C48 1_555 1_555
C49 C48 1_555 1_555
H64 C49 1_555 1_555
C50 C49 1_555 1_555
C51 C50 1_555 1_555
H65 C51 1_555 1_555
H66 C51 1_555 1_555
H67 C51 1_555 1_555
C52 C50 1_555 1_555
H68 C52 1_555 1_555
H69 C52 1_555 1_555
H70 C52 1_555 1_555
C53 C44 1_555 1_555
H71 C53 1_555 1_555
H72 C53 1_555 1_555
C54 C53 1_555 1_555
H73 C54 1_555 1_555
C55 C54 1_555 1_555
C56 C55 1_555 1_555
H74 C56 1_555 1_555
H75 C56 1_555 1_555
H76 C56 1_555 1_555
C57 C55 1_555 1_555
H77 C57 1_555 1_555
H78 C57 1_555 1_555
H79 C57 1_555 1_555
C58 C46 1_555 1_555
C59 C58 1_555 1_555
C60 C59 1_555 1_555
H80 C60 1_555 1_555
C61 C60 1_555 1_555
H81 C61 1_555 1_555
C62 C61 1_555 1_555
H82 C62 1_555 1_555
C63 C62 1_555 1_555
H83 C63 1_555 1_555
C64 C59 1_555 1_555
H84 C64 1_555 1_555
C65 C37 1_555 1_555
H85 C65 1_555 1_555
H86 C65 1_555 1_555
H87 C65 1_555 1_555
C66 C41 1_555 1_555
H88 C66 1_555 1_555
H89 C66 1_555 1_555
H90 C66 1_555 1_555
C67 C68 1_555 1_555
C68 H91 1_555 1_555
H92 C68 1_555 1_555
C69 C68 1_555 1_555
H93 C69 1_555 1_555
C70 O18 1_555 1_555
C71 C70 1_555 1_555
H94 C71 1_555 1_555
H95 C71 1_555 1_555
C72 C71 1_555 1_555
H96 C72 1_555 1_555
H97 C72 1_555 1_555
C73 C69 1_555 1_555
H98 C73 1_555 1_555
C74 O17 1_555 1_555
C75 C67 1_555 1_555
H99 C75 1_555 1_555
H100 C75 1_555 1_555
C76 C67 1_555 1_555
C77 C76 1_555 1_555
C78 O15 1_555 1_555
C79 C78 1_555 1_555
C80 C67 1_555 1_555
C81 C77 1_555 1_555
H101 C81 1_555 1_555
H102 C81 1_555 1_555
C82 C81 1_555 1_555
H103 C82 1_555 1_555
C83 C82 1_555 1_555
C84 C83 1_555 1_555
H104 C84 1_555 1_555
H105 C84 1_555 1_555
H106 C84 1_555 1_555
C85 C83 1_555 1_555
H107 C85 1_555 1_555
H108 C85 1_555 1_555
H109 C85 1_555 1_555
C86 C77 1_555 1_555
H110 C86 1_555 1_555
H111 C86 1_555 1_555
C87 C86 1_555 1_555
H112 C87 1_555 1_555
C88 C87 1_555 1_555
C89 C88 1_555 1_555
H113 C89 1_555 1_555
H114 C89 1_555 1_555
H115 C89 1_555 1_555
C90 C88 1_555 1_555
H116 C90 1_555 1_555
H117 C90 1_555 1_555
H118 C90 1_555 1_555
C91 C79 1_555 1_555
C92 C91 1_555 1_555
C93 C92 1_555 1_555
H119 C93 1_555 1_555
C94 C93 1_555 1_555
H120 C94 1_555 1_555
C95 C94 1_555 1_555
H121 C95 1_555 1_555
C96 C95 1_555 1_555
H122 C96 1_555 1_555
C97 C92 1_555 1_555
H123 C97 1_555 1_555
C98 C70 1_555 1_555
H124 C98 1_555 1_555
H125 C98 1_555 1_555
H126 C98 1_555 1_555
C99 C74 1_555 1_555
H127 C99 1_555 1_555
H128 C99 1_555 1_555
H129 C99 1_555 1_555
C100 C101 1_555 1_555
C101 H130 1_555 1_555
H131 C101 1_555 1_555
C102 C101 1_555 1_555
H132 C102 1_555 1_555
C103 O23 1_555 1_555
C104 C103 1_555 1_555
H133 C104 1_555 1_555
H134 C104 1_555 1_555
C105 C104 1_555 1_555
H135 C105 1_555 1_555
H136 C105 1_555 1_555
C106 C102 1_555 1_555
H137 C106 1_555 1_555
C107 O24 1_555 1_555
C108 C100 1_555 1_555
H138 C108 1_555 1_555
H139 C108 1_555 1_555
C109 C100 1_555 1_555
C110 C109 1_555 1_555
C111 O20 1_555 1_555
C112 C111 1_555 1_555
C113 C100 1_555 1_555
C114 C110 1_555 1_555
H140 C114 1_555 1_555
H141 C114 1_555 1_555
C115 C114 1_555 1_555
H142 C115 1_555 1_555
C116 C115 1_555 1_555
C117 C116 1_555 1_555
H143 C117 1_555 1_555
H144 C117 1_555 1_555
H145 C117 1_555 1_555
C118 C116 1_555 1_555
H146 C118 1_555 1_555
H147 C118 1_555 1_555
H148 C118 1_555 1_555
C119 C110 1_555 1_555
H149 C119 1_555 1_555
H150 C119 1_555 1_555
C120 C119 1_555 1_555
H151 C120 1_555 1_555
C121 C120 1_555 1_555
C122 C121 1_555 1_555
H152 C122 1_555 1_555
H153 C122 1_555 1_555
H154 C122 1_555 1_555
C123 C121 1_555 1_555
H155 C123 1_555 1_555
H156 C123 1_555 1_555
H157 C123 1_555 1_555
C124 C112 1_555 1_555
C125 C124 1_555 1_555
C126 C125 1_555 1_555
H158 C126 1_555 1_555
C127 C126 1_555 1_555
H159 C127 1_555 1_555
C128 C127 1_555 1_555
H160 C128 1_555 1_555
C129 C128 1_555 1_555
H161 C129 1_555 1_555
C130 C125 1_555 1_555
H162 C130 1_555 1_555
C131 C103 1_555 1_555
H163 C131 1_555 1_555
H164 C131 1_555 1_555
H165 C131 1_555 1_555
C132 C107 1_555 1_555
H166 C132 1_555 1_555
H167 C132 1_555 1_555
H168 C132 1_555 1_555
C2 C3 1_555 1_555
C6 C7 1_555 1_555
C7 C8 1_555 1_555
C8 C9 1_555 1_555
C11 C12 1_555 1_555
C13 C14 1_555 1_555
C30 C31 1_555 1_555
C36 C37 1_555 1_555
C39 C40 1_555 1_555
C40 C41 1_555 1_555
C41 C42 1_555 1_555
C44 C45 1_555 1_555
C46 C47 1_555 1_555
C63 C64 1_555 1_555
C69 C70 1_555 1_555
C72 C73 1_555 1_555
C73 C74 1_555 1_555
C74 C75 1_555 1_555
C77 C78 1_555 1_555
C79 C80 1_555 1_555
C96 C97 1_555 1_555
C102 C103 1_555 1_555
C105 C106 1_555 1_555
C106 C107 1_555 1_555
C107 C108 1_555 1_555
C110 C111 1_555 1_555
C112 C113 1_555 1_555
C129 C130 1_555 1_555

#END
