
#######################################################################
#
#                 Cambridge Crystallographic Data Centre
#                                CCDC 
#
#######################################################################
#
# If this CIF has been generated from an entry in the Cambridge 
# Structural Database, then it will include bibliographic, chemical, 
# crystal, experimental, refinement or atomic coordinate data resulting 
# from the CCDC's data processing and validation procedures.
#
#######################################################################

data_SALZOW
_chemical_formula_moiety         'C2 H5 N4 1+,C1 N5 O2 1-'
_chemical_name_systematic        '1-Amino-1,2,3-triazolium 5-nitrotetrazolate'
_symmetry_cell_setting           monoclinic
_symmetry_space_group_name_H-M   'P 21/c'
_symmetry_Int_Tables_number      14
_space_group_name_Hall           '-P 2ybc'
loop_
_symmetry_equiv_pos_site_id
_symmetry_equiv_pos_as_xyz
1 x,y,z
2 -x,1/2+y,1/2-z
3 -x,-y,-z
4 x,1/2-y,1/2+z
_cell_length_a                   15.592(4)
_cell_length_b                   10.246(2)
_cell_length_c                   9.813(2)
_cell_angle_alpha                90
_cell_angle_beta                 90.405(4)
_cell_angle_gamma                90
_cell_volume                     1567.64
_exptl_crystal_colour            colorless
_exptl_crystal_description       Platelet
_cell_formula_units_Z            8
loop_
_atom_site_label
_atom_site_type_symbol
_atom_site_fract_x
_atom_site_fract_y
_atom_site_fract_z
O1 O 0.29415(9) 0.01673(12) 0.69211(14)
O2 O 0.24440(8) 0.21374(13) 0.71674(13)
N1 N 0.38660(9) 0.09078(14) 0.47488(14)
N2 N 0.42493(9) 0.16553(14) 0.38206(15)
N3 N 0.40292(10) 0.28913(14) 0.40253(16)
N4 N 0.34939(9) 0.29754(14) 0.50862(15)
N5 N 0.28956(9) 0.13348(14) 0.66062(14)
C1 C 0.34183(10) 0.17504(17) 0.54793(17)
O3 O 0.20710(9) -0.23301(12) 0.30779(13)
O4 O 0.24461(9) -0.03249(13) 0.26558(14)
N6 N 0.11573(10) -0.15616(15) 0.52547(15)
N7 N 0.07684(11) -0.08025(15) 0.61633(16)
N8 N 0.09253(11) 0.04368(15) 0.58776(16)
N9 N 0.14251(10) 0.05126(15) 0.47722(16)
N10 N 0.20536(9) -0.11470(15) 0.33065(14)
C2 C 0.15403(11) -0.07186(17) 0.44352(17)
N11 N 0.38848(9) 0.82361(15) 0.47705(15)
N12 N 0.43980(10) 0.76533(14) 0.38800(15)
N13 N 0.42897(9) 0.64039(14) 0.41359(15)
N14 N 0.48074(10) 0.55067(15) 0.34972(16)
C3 C 0.34650(11) 0.73786(17) 0.55578(18)
H1 H 0.3067 0.7575 0.6256
C4 C 0.37239(11) 0.61731(17) 0.51550(17)
H2 H 0.3548 0.5352 0.5507
H5 H 0.3895(15) 0.922(3) 0.477(2)
H7 H 0.4976(15) 0.586(2) 0.268(2)
H8 H 0.4513(15) 0.474(2) 0.336(2)
N15 N 0.11486(10) 0.57463(15) 0.52265(15)
N16 N 0.06887(10) 0.51888(14) 0.62029(16)
N17 N 0.07996(10) 0.39367(14) 0.59778(16)
C5 C 0.15362(11) 0.48724(18) 0.44227(18)
H3 H 0.1896 0.5051 0.3668
C6 C 0.13105(11) 0.36770(18) 0.49073(19)
H4 H 0.1476 0.2846 0.4568
N19 N 0.0250(6) 0.3042(3) 0.6578(10)
H6 H 0.1165(17) 0.669(3) 0.518(3)
H9 H 0.0076(16) 0.340(2) 0.740(3)
H10 H 0.0520(16) 0.231(2) 0.663(3)
N18? N 0.0565(9) 0.3082(5) 0.7072(14)
loop_
_geom_bond_atom_site_label_1
_geom_bond_atom_site_label_2
_geom_bond_site_symmetry_1
_geom_bond_site_symmetry_2
O1 N5 1_555 1_555
O2 N5 1_555 1_555
O3 N10 1_555 1_555
O4 N10 1_555 1_555
N1 N2 1_555 1_555
N2 N3 1_555 1_555
N3 N4 1_555 1_555
N4 C1 1_555 1_555
N5 C1 1_555 1_555
N6 N7 1_555 1_555
N7 N8 1_555 1_555
N8 N9 1_555 1_555
N9 C2 1_555 1_555
N10 C2 1_555 1_555
N11 N12 1_555 1_555
N12 N13 1_555 1_555
N13 N14 1_555 1_555
N14 H7 1_555 1_555
N15 N16 1_555 1_555
N16 N17 1_555 1_555
N17 C6 1_555 1_555
C1 N1 1_555 1_555
C2 N6 1_555 1_555
C3 N11 1_555 1_555
H1 C3 1_555 1_555
C4 N13 1_555 1_555
H2 C4 1_555 1_555
C5 N15 1_555 1_555
H3 C5 1_555 1_555
C6 C5 1_555 1_555
H4 C6 1_555 1_555
N19 N17 1_555 1_555
H5 N11 1_555 1_555
H6 N15 1_555 1_555
H8 N14 1_555 1_555
H9 N19 1_555 1_555
H10 N19 1_555 1_555
C3 C4 1_555 1_555

#END
