
#######################################################################
#
#                 Cambridge Crystallographic Data Centre
#                                CCDC 
#
#######################################################################
#
# If this CIF has been generated from an entry in the Cambridge 
# Structural Database, then it will include bibliographic, chemical, 
# crystal, experimental, refinement or atomic coordinate data resulting 
# from the CCDC's data processing and validation procedures.
#
#######################################################################

data_SALZEM
_chemical_formula_moiety         'C3 H7 N4 1+,C1 N5 O2 1-'
_chemical_name_systematic        
'1-Amino-3-methyl-1H-1,2,3-triazol-3-ium 5-nitrotetrazolate'
_symmetry_cell_setting           triclinic
_symmetry_space_group_name_H-M   'P -1'
_symmetry_Int_Tables_number      2
_space_group_name_Hall           '-P 1'
loop_
_symmetry_equiv_pos_site_id
_symmetry_equiv_pos_as_xyz
1 x,y,z
2 -x,-y,-z
_cell_length_a                   7.736(7)
_cell_length_b                   9.684(9)
_cell_length_c                   12.512(11)
_cell_angle_alpha                100.163(15)
_cell_angle_beta                 98.071(11)
_cell_angle_gamma                100.744(9)
_cell_volume                     891.788
_exptl_crystal_colour            colorless
_exptl_crystal_description       chunk
_cell_formula_units_Z            4
loop_
_atom_site_label
_atom_site_type_symbol
_atom_site_fract_x
_atom_site_fract_y
_atom_site_fract_z
O1 O 0.7532(2) 1.0474(2) 0.72602(15)
O2 O 0.4633(3) 1.0128(2) 0.68903(17)
N1 N 0.7813(3) 1.2179(2) 0.57286(18)
N2 N 0.7318(3) 1.2939(3) 0.49850(19)
N3 N 0.5543(3) 1.2812(3) 0.48337(19)
N4 N 0.4846(3) 1.1955(3) 0.54799(18)
N5 N 0.6141(3) 1.0676(2) 0.67699(18)
C1 C 0.6264(3) 1.1609(3) 0.5986(2)
O3 O 0.7157(3) 0.1645(2) 0.98369(16)
O4 O 0.9953(3) 0.1625(2) 0.97974(16)
N6 N 0.7332(3) 0.3750(2) 0.86312(18)
N7 N 0.8045(3) 0.4849(3) 0.81908(19)
N8 N 0.9829(3) 0.4999(2) 0.83404(19)
N9 N 1.0301(3) 0.3993(2) 0.88604(18)
N10 N 0.8621(3) 0.2105(2) 0.95913(18)
C2 C 0.8747(4) 0.3288(3) 0.9017(2)
N11 N 0.5444(3) 0.3894(2) 0.20442(17)
N12 N 0.5248(3) 0.4084(2) 0.10195(18)
N13 N 0.4174(3) 0.2864(2) 0.04553(17)
N14 N 0.3674(3) 0.2607(3) -0.06969(19)
C3 C 0.3709(4) 0.1915(3) 0.1088(2)
H1 H 0.2973 0.0977 0.0857
C4 C 0.4534(4) 0.2604(3) 0.2138(2)
H2 H 0.4476 0.2247 0.2795
C5 C 0.6506(4) 0.5061(3) 0.2937(2)
H3 H 0.7612 0.5485 0.2709
H4 H 0.6802 0.4679 0.3598
H5 H 0.5815 0.5800 0.3101
H11 H 0.291(4) 0.311(3) -0.084(2)
H14 H 0.468(4) 0.300(3) -0.098(2)
N15 N 0.9665(3) 0.7804(2) 0.65182(17)
N16 N 0.9840(3) 0.8915(2) 0.60359(17)
N17 N 1.0878(3) 0.9977(2) 0.68254(18)
N18 N 1.1352(3) 1.1368(3) 0.6649(2)
C6 C 1.1329(4) 0.9552(3) 0.7768(2)
H6 H 1.2042 1.0126 0.8436
C7 C 1.0555(4) 0.8126(3) 0.7573(2)
H7 H 1.0625 0.7494 0.8071
C8 C 0.8646(4) 0.6400(3) 0.5882(2)
H8 H 0.7471 0.6497 0.5533
H9 H 0.8490 0.5723 0.6375
H10 H 0.9295 0.6042 0.5311
H12 H 1.210(4) 1.130(3) 0.615(2)
H13 H 1.044(4) 1.169(3) 0.638(2)
loop_
_geom_bond_atom_site_label_1
_geom_bond_atom_site_label_2
_geom_bond_site_symmetry_1
_geom_bond_site_symmetry_2
O1 N5 1_555 1_555
O2 N5 1_555 1_555
O3 N10 1_555 1_555
O4 N10 1_555 1_555
N1 N2 1_555 1_555
N2 N3 1_555 1_555
N3 N4 1_555 1_555
N4 C1 1_555 1_555
N5 C1 1_555 1_555
N6 N7 1_555 1_555
N7 N8 1_555 1_555
N8 N9 1_555 1_555
N9 C2 1_555 1_555
N10 C2 1_555 1_555
N11 N12 1_555 1_555
N12 N13 1_555 1_555
N13 N14 1_555 1_555
N14 H11 1_555 1_555
N15 N16 1_555 1_555
N16 N17 1_555 1_555
N17 N18 1_555 1_555
N18 H12 1_555 1_555
C1 N1 1_555 1_555
C2 N6 1_555 1_555
C3 N13 1_555 1_555
H1 C3 1_555 1_555
C4 N11 1_555 1_555
H2 C4 1_555 1_555
C5 N11 1_555 1_555
H3 C5 1_555 1_555
H4 C5 1_555 1_555
H5 C5 1_555 1_555
C6 N17 1_555 1_555
H6 C6 1_555 1_555
C7 N15 1_555 1_555
H7 C7 1_555 1_555
C8 N15 1_555 1_555
H8 C8 1_555 1_555
H9 C8 1_555 1_555
H10 C8 1_555 1_555
H13 N18 1_555 1_555
H14 N14 1_555 1_555
C3 C4 1_555 1_555
C6 C7 1_555 1_555

#END
