
#######################################################################
#
#                 Cambridge Crystallographic Data Centre
#                                CCDC 
#
#######################################################################
#
# If this CIF has been generated from an entry in the Cambridge 
# Structural Database, then it will include bibliographic, chemical, 
# crystal, experimental, refinement or atomic coordinate data resulting 
# from the CCDC's data processing and validation procedures.
#
#######################################################################

data_SALZIQ
_chemical_formula_moiety         'C2 N10 2-,2(C3 H7 N4 1+)'
_chemical_name_systematic        
'bis(1-Amino-3-methyl-1,2,3-triazolium) azotetrazolate'
_symmetry_cell_setting           monoclinic
_symmetry_space_group_name_H-M   'P 21/c'
_symmetry_Int_Tables_number      14
_space_group_name_Hall           '-P 2ybc'
loop_
_symmetry_equiv_pos_site_id
_symmetry_equiv_pos_as_xyz
1 x,y,z
2 -x,1/2+y,1/2-z
3 -x,-y,-z
4 x,1/2-y,1/2+z
_cell_length_a                   5.6810(16)
_cell_length_b                   7.222(2)
_cell_length_c                   19.096(6)
_cell_angle_alpha                90
_cell_angle_beta                 97.778(4)
_cell_angle_gamma                90
_cell_volume                     776.266
_exptl_crystal_colour            yellow
_exptl_crystal_description       block
_cell_formula_units_Z            2
loop_
_atom_site_label
_atom_site_type_symbol
_atom_site_fract_x
_atom_site_fract_y
_atom_site_fract_z
N1 N 0.41620(19) 0.77222(15) 0.49668(6)
N2 N 0.53636(19) 0.74058(16) 0.44230(6)
N3 N 0.43367(19) 0.83295(17) 0.38590(6)
N4 N 0.24525(19) 0.92693(16) 0.40253(6)
N5 N 0.08046(18) 0.94858(14) 0.51560(6)
C1 C 0.2408(2) 0.88626(17) 0.47076(6)
N1B N -0.41620(19) 1.22778(15) 0.50332(6)
N2B N -0.53636(19) 1.25942(16) 0.55770(6)
N3B N -0.43367(19) 1.16705(17) 0.61410(6)
N4B N -0.24525(19) 1.07307(16) 0.59747(6)
N5B N -0.08046(18) 1.05142(14) 0.48440(6)
C1B C -0.2408(2) 1.11374(17) 0.52924(6)
N6 N 0.14891(19) 0.44791(15) 0.34866(5)
N7 N 0.06008(18) 0.52275(15) 0.28681(5)
N8 N 0.22341(18) 0.48599(14) 0.24622(5)
N9 N 0.1959(2) 0.55692(16) 0.17772(6)
C2 C 0.4116(2) 0.39352(19) 0.27981(7)
H1 H 0.5495 0.3541 0.2609
C3 C 0.3610(2) 0.36898(18) 0.34692(7)
H2 H 0.4567 0.3083 0.3847
C4 C 0.0147(3) 0.4590(2) 0.40856(7)
H3 H -0.0801 0.5728 0.4051
H4 H 0.1251 0.4601 0.4527
H5 H -0.0908 0.3516 0.4081
H6 H 0.050(3) 0.520(2) 0.1558(9)
H7 H 0.305(3) 0.495(3) 0.1520(9)
loop_
_geom_bond_atom_site_label_1
_geom_bond_atom_site_label_2
_geom_bond_site_symmetry_1
_geom_bond_site_symmetry_2
N1 N2 1_555 1_555
N2 N3 1_555 1_555
N3 N4 1_555 1_555
N4 C1 1_555 1_555
N5 C1 1_555 1_555
N6 N7 1_555 1_555
N7 N8 1_555 1_555
N8 N9 1_555 1_555
N9 H6 1_555 1_555
C1 N1 1_555 1_555
C2 N8 1_555 1_555
H1 C2 1_555 1_555
C3 N6 1_555 1_555
H2 C3 1_555 1_555
C4 N6 1_555 1_555
H3 C4 1_555 1_555
H4 C4 1_555 1_555
H5 C4 1_555 1_555
H7 N9 1_555 1_555
N1B N2B 1_555 1_555
N2B N3B 1_555 1_555
N3B N4B 1_555 1_555
N4B C1B 1_555 1_555
N5B N5 1_555 1_555
C1B N1B 1_555 1_555
C2 C3 1_555 1_555
N5B C1B 1_555 1_555

#END
