
#######################################################################
#
#                 Cambridge Crystallographic Data Centre
#                                CCDC 
#
#######################################################################
#
# If this CIF has been generated from an entry in the Cambridge 
# Structural Database, then it will include bibliographic, chemical, 
# crystal, experimental, refinement or atomic coordinate data resulting 
# from the CCDC's data processing and validation procedures.
#
#######################################################################

data_SAMPUT
_chemical_name_common            'PDB Chemical Component code: 3SM'
_chemical_formula_moiety         'C19 H21 N7 O2'
_chemical_name_systematic        
2-Methoxy-N-((6-(1-methyl-4-(methylamino)-1,6-dihydroimidazo[4,5-d]pyrrolo[2,3-b]pyridin-7-yl)pyridin-2-yl)methyl)acetamide
_symmetry_cell_setting           monoclinic
_symmetry_space_group_name_H-M   'P 21/c'
_symmetry_Int_Tables_number      14
_space_group_name_Hall           '-P 2ybc'
loop_
_symmetry_equiv_pos_site_id
_symmetry_equiv_pos_as_xyz
1 x,y,z
2 -x,1/2+y,1/2-z
3 -x,-y,-z
4 x,1/2-y,1/2+z
_cell_length_a                   4.9046(3)
_cell_length_b                   35.248(2)
_cell_length_c                   10.6750(7)
_cell_angle_alpha                90
_cell_angle_beta                 94.440(2)
_cell_angle_gamma                90
_cell_volume                     1839.93
_exptl_crystal_colour            yellow
_exptl_crystal_description       plate
_cell_formula_units_Z            4
loop_
_atom_site_label
_atom_site_type_symbol
_atom_site_fract_x
_atom_site_fract_y
_atom_site_fract_z
N1 N 0.4035(5) 0.13079(7) 0.6486(3)
N2 N 0.5386(6) 0.18700(7) 0.4885(3)
C1 C 0.2860(7) 0.16617(10) 0.6556(3)
N3 N 0.3696(6) 0.06993(8) 0.7465(3)
C2 C 0.0471(7) 0.06816(9) 0.9044(3)
N4 N -0.0956(6) 0.05293(8) 1.0002(3)
C3 C 0.6173(7) 0.21355(10) 0.4077(3)
C4 C 0.0985(7) 0.12746(9) 0.7926(3)
N5 N -0.2124(6) 0.11400(7) 0.9689(3)
C5 C -0.2440(8) 0.08168(11) 1.0349(3)
C6 C 0.2933(7) 0.10690(9) 0.7316(3)
C7 C 0.3641(7) 0.19654(9) 0.5742(3)
C8 C 0.0948(7) 0.16484(9) 0.7440(3)
C9 C 0.2642(7) 0.23362(10) 0.5825(3)
C10 C -0.0233(7) 0.10587(9) 0.8842(3)
N6 N 0.3055(6) 0.01329(8) 0.8502(3)
C11 C -0.3364(7) 0.15099(10) 0.9867(3)
C12 C 0.2447(7) 0.05030(10) 0.8314(3)
C13 C 0.5251(8) 0.25059(10) 0.4121(4)
N7 N 0.8850(7) 0.16207(9) 0.3330(3)
O1 O 1.2175(6) 0.16063(10) 0.1986(3)
C14 C 0.3488(8) 0.26057(10) 0.5008(4)
C15 C 0.8068(8) 0.20074(11) 0.3125(4)
C16 C 1.0854(8) 0.14479(14) 0.2776(4)
O2 O 0.9445(7) 0.09173(8) 0.3974(4)
C17 C 0.5205(8) -0.00508(10) 0.7877(4)
C18 C 1.1417(9) 0.10478(15) 0.3193(5)
C19 C 1.0007(14) 0.05562(16) 0.4488(6)
H1 H 0.535526 -0.031310 0.811429
H2 H 0.690737 0.007549 0.810074
H3 H 0.478015 -0.003235 0.698573
H4 H -0.272782 0.168776 0.927380
H5 H -0.287440 0.159765 1.070513
H6 H -0.531670 0.148716 0.973974
H7 H -0.363990 0.078001 1.100796
H8 H -0.007366 0.187290 0.760354
H9 H 0.139286 0.239583 0.644600
H10 H 0.282856 0.286076 0.507424
H11 H 0.585609 0.268865 0.353663
H12 H 0.715461 0.203199 0.230034
H13 H 0.967360 0.216420 0.318648
H14 H 1.145058 0.088847 0.246545
H15 H 1.317309 0.104166 0.365728
H16 H 0.851326 0.049558 0.498285
H17 H 1.167724 0.056327 0.501893
H18 H 1.014359 0.036655 0.385030
H19 H 0.791056 0.146887 0.390675
H20 H 0.204551 -0.001401 0.906615
H21 H 0.540981 0.126605 0.590810
loop_
_geom_bond_atom_site_label_1
_geom_bond_atom_site_label_2
_geom_bond_site_symmetry_1
_geom_bond_site_symmetry_2
N1 C1 1_555 1_555
N2 C3 1_555 1_555
C1 C7 1_555 1_555
N3 C6 1_555 1_555
C2 N4 1_555 1_555
N4 C5 1_555 1_555
C3 C13 1_555 1_555
C4 C6 1_555 1_555
N5 C5 1_555 1_555
C5 H7 1_555 1_555
C6 N1 1_555 1_555
C7 N2 1_555 1_555
C8 C1 1_555 1_555
C9 C7 1_555 1_555
C10 C2 1_555 1_555
N6 C12 1_555 1_555
C11 N5 1_555 1_555
C12 N3 1_555 1_555
C13 C14 1_555 1_555
N7 C15 1_555 1_555
O1 C16 1_555 1_555
C14 C9 1_555 1_555
C15 C3 1_555 1_555
C16 N7 1_555 1_555
O2 C18 1_555 1_555
C17 N6 1_555 1_555
C18 C16 1_555 1_555
C19 O2 1_555 1_555
H1 C17 1_555 1_555
H2 C17 1_555 1_555
H3 C17 1_555 1_555
H4 C11 1_555 1_555
H5 C11 1_555 1_555
H6 C11 1_555 1_555
H8 C8 1_555 1_555
H9 C9 1_555 1_555
H10 C14 1_555 1_555
H11 C13 1_555 1_555
H12 C15 1_555 1_555
H13 C15 1_555 1_555
H14 C18 1_555 1_555
H15 C18 1_555 1_555
H16 C19 1_555 1_555
H17 C19 1_555 1_555
H18 C19 1_555 1_555
H19 N7 1_555 1_555
H20 N6 1_555 1_555
H21 N1 1_555 1_555
C2 C12 1_555 1_555
C4 C8 1_555 1_555
C4 C10 1_555 1_555
N5 C10 1_555 1_555

#END
