
#######################################################################
#
#                 Cambridge Crystallographic Data Centre
#                                CCDC 
#
#######################################################################
#
# If this CIF has been generated from an entry in the Cambridge 
# Structural Database, then it will include bibliographic, chemical, 
# crystal, experimental, refinement or atomic coordinate data resulting 
# from the CCDC's data processing and validation procedures.
#
#######################################################################

data_SAMPUU
_chemical_formula_moiety         'C30 H25 Cl1 N2 O3'
_chemical_name_systematic        
N-(2,4-dibenzyl-3-(4-chlorophenyl)-5-oxo-1,2-oxazolidin-4-yl)benzamide
_symmetry_cell_setting           orthorhombic
_symmetry_space_group_name_H-M   'P n a 21'
_symmetry_Int_Tables_number      33
_space_group_name_Hall           'P 2c -2n'
loop_
_symmetry_equiv_pos_site_id
_symmetry_equiv_pos_as_xyz
1 x,y,z
2 -x,-y,1/2+z
3 1/2+x,1/2-y,z
4 1/2-x,1/2+y,1/2+z
_cell_length_a                   20.2861(8)
_cell_length_b                   24.7581(9)
_cell_length_c                   31.1511(12)
_cell_angle_alpha                90
_cell_angle_beta                 90
_cell_angle_gamma                90
_cell_volume                     15645.5
_exptl_crystal_colour            colorless
_exptl_crystal_description       Prism
_cell_formula_units_Z            24
loop_
_atom_site_label
_atom_site_type_symbol
_atom_site_fract_x
_atom_site_fract_y
_atom_site_fract_z
Cl1 Cl 0.74562(4) 0.71219(4) -0.08265(3)
O1 O 0.65235(8) 0.58673(7) 0.14908(6)
O2 O 0.55601(8) 0.54579(7) 0.15704(6)
O3 O 0.51832(9) 0.65771(7) 0.14217(6)
N1 N 0.68873(10) 0.61364(8) 0.11377(7)
N2 N 0.51728(9) 0.60986(7) 0.08075(6)
H1 H 0.4953 0.5993 0.0579
C1 C 0.84031(13) 0.61637(11) 0.14066(10)
H2 H 0.8433 0.6174 0.1102
C2 C 0.89264(14) 0.59667(11) 0.16451(10)
H3 H 0.9313 0.5842 0.1504
C3 C 0.88877(15) 0.59511(13) 0.20870(11)
H4 H 0.9249 0.5820 0.2251
C4 C 0.83224(15) 0.61257(13) 0.22911(11)
H5 H 0.8290 0.6107 0.2595
C5 C 0.78018(14) 0.63284(12) 0.20516(10)
H6 H 0.7418 0.6456 0.2194
C6 C 0.78356(12) 0.63466(10) 0.16072(9)
C7 C 0.72633(13) 0.65661(10) 0.13528(10)
H7 H 0.6966 0.6768 0.1548
H8 H 0.7431 0.6822 0.1134
C8 C 0.63561(11) 0.63618(9) 0.08655(8)
H9 H 0.6172 0.6690 0.1009
C9 C 0.66267(12) 0.65223(9) 0.04336(8)
C10 C 0.63055(14) 0.69274(11) 0.02019(10)
H10 H 0.5914 0.7084 0.0313
C11 C 0.65524(15) 0.71050(12) -0.01899(10)
H11 H 0.6330 0.7380 -0.0346
C12 C 0.71191(14) 0.68804(12) -0.03485(10)
C13 C 0.74488(14) 0.64756(13) -0.01301(10)
H12 H 0.7842 0.6323 -0.0243
C14 C 0.71918(13) 0.62967(11) 0.02587(9)
H13 H 0.7409 0.6013 0.0408
C15 C 0.58350(11) 0.59048(9) 0.08832(8)
C16 C 0.60132(12) 0.54457(9) 0.05679(8)
H14 H 0.5951 0.5584 0.0273
H15 H 0.6488 0.5365 0.0603
C17 C 0.56391(12) 0.49192(9) 0.06056(9)
C18 C 0.51883(18) 0.47769(11) 0.02940(12)
H16 H 0.5085 0.5023 0.0070
C19 C 0.4886(2) 0.42758(14) 0.03069(18)
H17 H 0.4584 0.4176 0.0087
C20 C 0.5019(2) 0.39218(13) 0.06349(18)
H18 H 0.4802 0.3582 0.0645
C21 C 0.54659(17) 0.40572(12) 0.09492(13)
H19 H 0.5557 0.3813 0.1177
C22 C 0.57810(14) 0.45510(10) 0.09310(9)
H20 H 0.6099 0.4641 0.1143
C23 C 0.48914(12) 0.64443(9) 0.10920(8)
C24 C 0.42291(12) 0.66703(9) 0.09870(8)
C25 C 0.38082(12) 0.64598(11) 0.06766(9)
H21 H 0.3932 0.6145 0.0522
C26 C 0.32096(13) 0.67073(12) 0.05928(9)
H22 H 0.2923 0.6562 0.0381
C27 C 0.30298(15) 0.71650(13) 0.08160(11)
H23 H 0.2626 0.7342 0.0751
C28 C 0.34371(16) 0.73678(13) 0.11347(12)
H24 H 0.3304 0.7675 0.1295
C29 C 0.40333(14) 0.71253(11) 0.12189(10)
H25 H 0.4313 0.7268 0.1436
C30 C 0.59221(12) 0.57175(9) 0.13480(8)
Cl2 Cl 0.74620(5) 0.42846(4) 0.03718(3)
O4 O 0.70751(8) 0.41077(7) 0.29525(5)
O5 O 0.61575(8) 0.44863(7) 0.31941(5)
O6 O 0.69662(9) 0.54212(7) 0.29443(6)
N3 N 0.74209(10) 0.40495(8) 0.25333(7)
N4 N 0.62689(9) 0.51659(7) 0.24186(6)
H26 H 0.5964 0.5261 0.2232
C31 C 0.85660(15) 0.31387(13) 0.26705(11)
H27 H 0.8604 0.3152 0.2367
C32 C 0.87370(16) 0.26662(14) 0.28890(12)
H28 H 0.8891 0.2360 0.2735
C33 C 0.86811(15) 0.26481(13) 0.33300(12)
H29 H 0.8789 0.2326 0.3480
C34 C 0.84693(14) 0.30969(13) 0.35540(11)
H30 H 0.8439 0.3084 0.3858
C35 C 0.82990(13) 0.35685(12) 0.33357(9)
H31 H 0.8154 0.3877 0.3491
C36 C 0.83413(12) 0.35874(11) 0.28909(9)
C37 C 0.81239(12) 0.40852(10) 0.26492(9)
H32 H 0.8198 0.4409 0.2830
H33 H 0.8392 0.4124 0.2385
C38 C 0.72090(11) 0.45294(9) 0.22856(8)
H34 H 0.7478 0.4848 0.2377
C39 C 0.73036(11) 0.44401(9) 0.18130(8)
C40 C 0.75041(11) 0.48774(10) 0.15581(8)
H35 H 0.7600 0.5214 0.1690
C41 C 0.75645(13) 0.48272(11) 0.11167(9)
H36 H 0.7700 0.5126 0.0947
C42 C 0.74249(13) 0.43388(12) 0.09275(9)
C43 C 0.72404(13) 0.38921(10) 0.11683(9)
H37 H 0.7151 0.3556 0.1033
C44 C 0.71878(12) 0.39442(10) 0.16102(8)
H38 H 0.7071 0.3638 0.1778
C45 C 0.64865(11) 0.46092(9) 0.24396(7)
C46 C 0.59919(11) 0.42399(9) 0.22008(8)
H39 H 0.5957 0.4367 0.1900
H40 H 0.6176 0.3870 0.2194
C47 C 0.53056(11) 0.42114(9) 0.23871(8)
C48 C 0.51487(12) 0.38170(9) 0.26873(8)
H41 H 0.5479 0.3573 0.2783
C49 C 0.45136(12) 0.37755(10) 0.28489(8)
H42 H 0.4410 0.3503 0.3053
C50 C 0.40322(13) 0.41297(12) 0.27125(10)
H43 H 0.3599 0.4106 0.2826
C51 C 0.41804(13) 0.45172(11) 0.24117(11)
H44 H 0.3847 0.4758 0.2316
C52 C 0.48134(13) 0.45589(10) 0.22471(9)
H45 H 0.4911 0.4826 0.2038
C53 C 0.65330(12) 0.55431(9) 0.26855(8)
C54 C 0.62763(13) 0.61083(10) 0.26572(8)
C55 C 0.57097(13) 0.62514(10) 0.24308(8)
H46 H 0.5467 0.5983 0.2281
C56 C 0.54989(15) 0.67855(11) 0.24232(9)
H47 H 0.5114 0.6881 0.2267
C57 C 0.58487(16) 0.71801(11) 0.26438(9)
H48 H 0.5702 0.7544 0.2641
C58 C 0.64109(16) 0.70398(11) 0.28670(10)
H49 H 0.6653 0.7309 0.3016
C59 C 0.66240(14) 0.65080(10) 0.28754(9)
H50 H 0.7010 0.6415 0.3031
C60 C 0.65381(11) 0.44167(9) 0.29041(8)
Cl3 Cl 0.75157(5) 0.06262(4) 0.38910(3)
O7 O 0.68704(8) 0.09995(7) 0.13508(6)
O8 O 0.59795(8) 0.05670(7) 0.11259(6)
O9 O 0.68713(9) -0.03511(7) 0.13018(6)
N5 N 0.72472(10) 0.10475(8) 0.17602(7)
N6 N 0.62201(10) -0.01514(7) 0.18636(7)
H51 H 0.5944 -0.0271 0.2060
C61 C 0.80017(13) 0.21148(10) 0.16038(9)
H52 H 0.7945 0.2116 0.1906
C62 C 0.80554(13) 0.25990(11) 0.13844(10)
H53 H 0.8035 0.2931 0.1537
C63 C 0.81391(13) 0.26005(11) 0.09430(10)
H54 H 0.8172 0.2933 0.0792
C64 C 0.81746(14) 0.21160(11) 0.07231(9)
H55 H 0.8236 0.2117 0.0421
C65 C 0.81213(13) 0.16281(11) 0.09406(9)
H56 H 0.8147 0.1297 0.0787
C66 C 0.80306(12) 0.16253(10) 0.13834(9)
C67 C 0.79369(12) 0.11005(10) 0.16202(9)
H57 H 0.8054 0.0795 0.1430
H58 H 0.8232 0.1090 0.1873
C68 C 0.71240(11) 0.05283(9) 0.19828(8)
H59 H 0.7411 0.0243 0.1854
C69 C 0.72760(11) 0.05768(9) 0.24544(8)
C70 C 0.74706(11) 0.01171(10) 0.26778(8)
H60 H 0.7538 -0.0212 0.2528
C71 C 0.75674(13) 0.01364(11) 0.31185(9)
H61 H 0.7700 -0.0178 0.3271
C72 C 0.74681(13) 0.06183(12) 0.33345(9)
C73 C 0.73078(13) 0.10866(11) 0.31160(9)
H62 H 0.7266 0.1419 0.3265
C74 C 0.72100(12) 0.10634(10) 0.26769(8)
H63 H 0.7096 0.1383 0.2525
C75 C 0.63955(11) 0.04152(9) 0.18594(8)
C76 C 0.59016(12) 0.07380(9) 0.21416(8)
H64 H 0.5850 0.0549 0.2420
H65 H 0.6092 0.1098 0.2202
C77 C 0.52291(11) 0.08134(9) 0.19450(8)
C78 C 0.50536(13) 0.13076(10) 0.17699(9)
H66 H 0.5351 0.1603 0.1789
C79 C 0.44530(14) 0.13777(12) 0.15672(10)
H67 H 0.4341 0.1720 0.1449
C80 C 0.40158(13) 0.09529(12) 0.15356(10)
H68 H 0.3608 0.0997 0.1390
C81 C 0.41786(14) 0.04648(12) 0.17182(13)
H69 H 0.3878 0.0171 0.1701
C82 C 0.47729(13) 0.03971(11) 0.19260(11)
H70 H 0.4871 0.0061 0.2058
C83 C 0.64715(11) -0.05018(9) 0.15717(8)
C84 C 0.62306(12) -0.10762(9) 0.15894(8)
C85 C 0.65736(13) -0.14515(10) 0.13408(9)
H71 H 0.6935 -0.1339 0.1168
C86 C 0.63846(14) -0.19906(10) 0.13468(10)
H72 H 0.6619 -0.2247 0.1179
C87 C 0.58544(15) -0.21578(10) 0.15961(9)
H73 H 0.5728 -0.2527 0.1600
C88 C 0.55133(14) -0.17857(10) 0.18369(9)
H74 H 0.5148 -0.1898 0.2006
C89 C 0.57011(13) -0.12441(10) 0.18348(8)
H75 H 0.5464 -0.0989 0.2003
C90 C 0.63755(11) 0.06447(9) 0.14039(8)
Cl4 Cl 0.47884(4) 0.69804(3) 0.68669(2)
O10 O 0.48336(8) 0.82131(7) 0.44867(5)
O11 O 0.47238(8) 0.90953(7) 0.43985(5)
O12 O 0.34072(8) 0.87120(7) 0.46490(5)
N7 N 0.47888(10) 0.78165(8) 0.48438(6)
N8 N 0.39685(9) 0.90299(8) 0.52152(6)
H76 H 0.3987 0.9253 0.5435
C91 C 0.4738(2) 0.70001(13) 0.39184(11)
H77 H 0.4354 0.7169 0.3808
C92 C 0.5153(3) 0.67023(18) 0.36463(14)
H78 H 0.5047 0.6672 0.3350
C93 C 0.5704(3) 0.64568(18) 0.3802(2)
H79 H 0.5979 0.6253 0.3615
C94 C 0.5861(2) 0.65033(15) 0.42212(19)
H80 H 0.6248 0.6334 0.4328
C95 C 0.54615(16) 0.67964(12) 0.44987(12)
H81 H 0.5577 0.6827 0.4793
C96 C 0.48958(15) 0.70443(10) 0.43481(9)
C97 C 0.44538(13) 0.73464(10) 0.46513(9)
H82 H 0.4057 0.7471 0.4494
H83 H 0.4307 0.7100 0.4883
C98 C 0.43569(12) 0.80788(9) 0.51653(7)
H84 H 0.3887 0.8020 0.5080
C99 C 0.44710(12) 0.78196(9) 0.55983(8)
C100 C 0.39504(13) 0.77660(10) 0.58833(8)
H85 H 0.3529 0.7905 0.5809
C101 C 0.40372(13) 0.75109(10) 0.62775(8)
H86 H 0.3679 0.7474 0.6472
C102 C 0.46527(14) 0.73130(9) 0.63811(8)
C103 C 0.51765(13) 0.73578(9) 0.61034(8)
H87 H 0.5596 0.7216 0.6179
C104 C 0.50863(12) 0.76115(9) 0.57115(8)
H88 H 0.5446 0.7644 0.5518
C105 C 0.45255(11) 0.86891(9) 0.51116(7)
C106 C 0.51468(12) 0.88577(9) 0.53689(8)
H89 H 0.5035 0.8854 0.5678
H90 H 0.5493 0.8582 0.5322
C107 C 0.54323(12) 0.94077(10) 0.52592(9)
C108 C 0.59115(15) 0.94569(14) 0.49448(10)
H91 H 0.6066 0.9145 0.4799
C109 C 0.61655(19) 0.99620(19) 0.48428(12)
H92 H 0.6490 0.9995 0.4625
C110 C 0.5948(2) 1.04173(17) 0.50580(18)
H93 H 0.6114 1.0764 0.4984
C111 C 0.5490(2) 1.03643(15) 0.5379(2)
H94 H 0.5350 1.0675 0.5533
C112 C 0.52305(16) 0.98637(13) 0.54814(14)
H95 H 0.4913 0.9833 0.5704
C113 C 0.34170(12) 0.90024(9) 0.49703(8)
C114 C 0.28278(12) 0.93334(10) 0.50928(8)
C115 C 0.28221(13) 0.97048(10) 0.54283(8)
H96 H 0.3205 0.9756 0.5599
C116 C 0.22541(13) 1.00016(11) 0.55134(9)
H97 H 0.2247 1.0249 0.5747
C117 C 0.17027(14) 0.99383(12) 0.52605(10)
H98 H 0.1316 1.0141 0.5319
C118 C 0.17137(14) 0.95780(13) 0.49213(10)
H99 H 0.1337 0.9541 0.4743
C119 C 0.22680(13) 0.92735(11) 0.48415(9)
H100 H 0.2267 0.9020 0.4612
C120 C 0.46824(11) 0.87090(9) 0.46332(8)
Cl5 Cl 0.35479(4) 0.76942(3) 0.73706(2)
O13 O 0.46933(8) 0.68037(7) 0.97710(5)
O14 O 0.46595(9) 0.59250(7) 0.99069(5)
O15 O 0.32364(9) 0.61353(7) 0.97072(6)
N9 N 0.45562(10) 0.71685(8) 0.94010(7)
N10 N 0.38064(10) 0.58775(7) 0.91228(6)
H101 H 0.3846 0.5647 0.8910
C121 C 0.52814(16) 0.82250(12) 0.96365(11)
H102 H 0.5302 0.8215 0.9332
C122 C 0.5758(2) 0.85016(14) 0.98663(13)
H103 H 0.6103 0.8682 0.9718
C123 C 0.5738(2) 0.85188(14) 1.03041(14)
H104 H 0.6068 0.8708 1.0459
C124 C 0.5241(2) 0.82635(14) 1.05175(11)
H105 H 0.5226 0.8277 1.0822
C125 C 0.47561(17) 0.79830(12) 1.02950(10)
H106 H 0.4412 0.7806 1.0447
C126 C 0.47759(14) 0.79625(10) 0.98491(9)
C127 C 0.42676(13) 0.76524(10) 0.96002(9)
H107 H 0.3906 0.7544 0.9795
H108 H 0.4079 0.7887 0.9374
C128 C 0.40597(11) 0.68618(9) 0.91536(8)
H109 H 0.3628 0.6888 0.9307
C129 C 0.39689(12) 0.70751(9) 0.87063(8)
C130 C 0.33635(12) 0.69826(10) 0.85096(8)
H110 H 0.3031 0.6790 0.8661
C131 C 0.32362(13) 0.71664(10) 0.80972(8)
H111 H 0.2824 0.7097 0.7963
C132 C 0.37219(14) 0.74516(9) 0.78863(8)
C133 C 0.43255(13) 0.75514(10) 0.80688(9)
H112 H 0.4653 0.7747 0.7916
C134 C 0.44506(13) 0.73615(9) 0.84822(8)
H113 H 0.4867 0.7428 0.8612
C135 C 0.43181(11) 0.62736(9) 0.91969(7)
C136 C 0.49175(12) 0.61635(10) 0.89048(8)
H114 H 0.4763 0.6150 0.8603
H115 H 0.5226 0.6472 0.8930
C137 C 0.52916(13) 0.56494(11) 0.89998(9)
C138 C 0.58076(15) 0.56461(16) 0.92932(10)
H116 H 0.5935 0.5973 0.9430
C139 C 0.6136(2) 0.5175(2) 0.93872(14)
H117 H 0.6486 0.5177 0.9590
C140 C 0.5959(3) 0.4701(2) 0.9189(2)
H118 H 0.6176 0.4374 0.9262
C141 C 0.5468(2) 0.47007(16) 0.8885(2)
H119 H 0.5359 0.4377 0.8738
C142 C 0.51305(17) 0.51749(13) 0.87948(15)
H120 H 0.4785 0.5172 0.8589
C143 C 0.32651(12) 0.58581(9) 0.93792(8)
C144 C 0.27067(12) 0.55006(10) 0.92475(8)
C145 C 0.27375(14) 0.51407(10) 0.89027(8)
H121 H 0.3130 0.5112 0.8738
C146 C 0.21932(14) 0.48247(11) 0.88017(9)
H122 H 0.2211 0.4584 0.8565
C147 C 0.16279(13) 0.48601(11) 0.90447(9)
H123 H 0.1257 0.4643 0.8975
C148 C 0.15963(13) 0.52093(10) 0.93892(9)
H124 H 0.1206 0.5230 0.9557
C149 C 0.21338(12) 0.55287(10) 0.94910(8)
H125 H 0.2111 0.5768 0.9729
C150 C 0.45550(11) 0.62899(9) 0.96610(8)
Cl6 Cl 0.72914(4) 0.28749(4) 0.99829(3)
O16 O 0.85483(8) 0.41458(7) 0.77588(5)
O17 O 0.95201(8) 0.45471(6) 0.77005(5)
O18 O 0.98601(9) 0.34196(7) 0.78487(6)
N11 N 0.81611(10) 0.38788(8) 0.81013(7)
N12 N 0.98611(9) 0.38869(7) 0.84668(6)
H126 H 1.0075 0.3985 0.8700
C151 C 0.66563(13) 0.38530(11) 0.78286(10)
H127 H 0.6633 0.3853 0.8133
C152 C 0.61291(14) 0.40432(13) 0.75899(11)
H128 H 0.5746 0.4172 0.7732
C153 C 0.61557(15) 0.40469(14) 0.71500(11)
H129 H 0.5793 0.4179 0.6988
C154 C 0.67101(16) 0.38582(14) 0.69432(11)
H130 H 0.6730 0.3861 0.6639
C155 C 0.72411(14) 0.36627(12) 0.71798(10)
H131 H 0.7620 0.3529 0.7036
C156 C 0.72189(12) 0.36618(10) 0.76237(9)
C157 C 0.77932(13) 0.34476(10) 0.78787(10)
H132 H 0.7629 0.3185 0.8093
H133 H 0.8096 0.3253 0.7683
C158 C 0.86692(11) 0.36500(9) 0.83904(8)
H134 H 0.8854 0.3316 0.8255
C159 C 0.83557(12) 0.34991(10) 0.88114(8)
C160 C 0.85992(13) 0.30535(11) 0.90376(10)
H135 H 0.8984 0.2874 0.8939
C161 C 0.82843(15) 0.28719(12) 0.94042(11)
H136 H 0.8456 0.2573 0.9559
C162 C 0.77216(14) 0.31261(12) 0.95442(9)
C163 C 0.74785(14) 0.35758(12) 0.93317(10)
H137 H 0.7096 0.3756 0.9435
C164 C 0.77982(13) 0.37589(11) 0.89687(9)
H138 H 0.7634 0.4068 0.8823
C165 C 0.92063(11) 0.40985(9) 0.83815(8)
C166 C 0.90392(11) 0.45689(9) 0.86887(8)
H139 H 0.8560 0.4641 0.8667
H140 H 0.9128 0.4447 0.8986
C167 C 0.94014(11) 0.50969(9) 0.86184(8)
C168 C 0.91702(12) 0.54630(9) 0.83146(8)
H141 H 0.8797 0.5371 0.8146
C169 C 0.94746(13) 0.59594(10) 0.82530(9)
H142 H 0.9306 0.6206 0.8047
C170 C 1.00207(14) 0.60919(10) 0.84910(10)
H143 H 1.0236 0.6428 0.8447
C171 C 1.02561(15) 0.57344(11) 0.87943(11)
H144 H 1.0633 0.5827 0.8960
C172 C 0.99467(13) 0.52398(10) 0.88605(9)
H145 H 1.0110 0.4999 0.9073
C173 C 1.01429(12) 0.35368(9) 0.81844(8)
C174 C 1.07939(12) 0.32913(9) 0.82965(8)
C175 C 1.11626(12) 0.34299(10) 0.86555(8)
H146 H 1.1009 0.3705 0.8843
C176 C 1.17544(13) 0.31698(11) 0.87437(9)
H147 H 1.2003 0.3266 0.8991
C177 C 1.19799(15) 0.27695(12) 0.84697(10)
H148 H 1.2380 0.2586 0.8531
C178 C 1.16201(17) 0.26375(13) 0.81064(11)
H149 H 1.1781 0.2369 0.7915
C179 C 1.10288(14) 0.28942(11) 0.80202(9)
H150 H 1.0783 0.2799 0.7772
C180 C 0.91434(11) 0.42872(9) 0.79155(8)
loop_
_geom_bond_atom_site_label_1
_geom_bond_atom_site_label_2
_geom_bond_site_symmetry_1
_geom_bond_site_symmetry_2
Cl1 C12 1_555 1_555
O1 N1 1_555 1_555
O2 C30 1_555 1_555
O3 C23 1_555 1_555
N1 C7 1_555 1_555
N2 H1 1_555 1_555
C1 H2 1_555 1_555
C2 C1 1_555 1_555
H3 C2 1_555 1_555
C3 C2 1_555 1_555
H4 C3 1_555 1_555
C4 C3 1_555 1_555
H5 C4 1_555 1_555
C5 C4 1_555 1_555
H6 C5 1_555 1_555
C6 C1 1_555 1_555
C7 C6 1_555 1_555
H7 C7 1_555 1_555
H8 C7 1_555 1_555
C8 N1 1_555 1_555
H9 C8 1_555 1_555
C9 C8 1_555 1_555
C10 C9 1_555 1_555
H10 C10 1_555 1_555
C11 C10 1_555 1_555
H11 C11 1_555 1_555
C12 C11 1_555 1_555
C13 C12 1_555 1_555
H12 C13 1_555 1_555
C14 C9 1_555 1_555
H13 C14 1_555 1_555
C15 N2 1_555 1_555
C16 C15 1_555 1_555
H14 C16 1_555 1_555
H15 C16 1_555 1_555
C17 C16 1_555 1_555
C18 C17 1_555 1_555
H16 C18 1_555 1_555
C19 C18 1_555 1_555
H17 C19 1_555 1_555
C20 C19 1_555 1_555
H18 C20 1_555 1_555
C21 C20 1_555 1_555
H19 C21 1_555 1_555
C22 C17 1_555 1_555
H20 C22 1_555 1_555
C23 N2 1_555 1_555
C24 C23 1_555 1_555
C25 C24 1_555 1_555
H21 C25 1_555 1_555
C26 C25 1_555 1_555
H22 C26 1_555 1_555
C27 C26 1_555 1_555
H23 C27 1_555 1_555
C28 C27 1_555 1_555
H24 C28 1_555 1_555
C29 C24 1_555 1_555
H25 C29 1_555 1_555
C30 O1 1_555 1_555
Cl2 C42 1_555 1_555
O4 N3 1_555 1_555
O5 C60 1_555 1_555
O6 C53 1_555 1_555
N3 C37 1_555 1_555
N4 H26 1_555 1_555
C31 H27 1_555 1_555
C32 C31 1_555 1_555
H28 C32 1_555 1_555
C33 C32 1_555 1_555
H29 C33 1_555 1_555
C34 C33 1_555 1_555
H30 C34 1_555 1_555
C35 C34 1_555 1_555
H31 C35 1_555 1_555
C36 C31 1_555 1_555
C37 C36 1_555 1_555
H32 C37 1_555 1_555
H33 C37 1_555 1_555
C38 N3 1_555 1_555
H34 C38 1_555 1_555
C39 C38 1_555 1_555
C40 C39 1_555 1_555
H35 C40 1_555 1_555
C41 C40 1_555 1_555
H36 C41 1_555 1_555
C42 C41 1_555 1_555
C43 C42 1_555 1_555
H37 C43 1_555 1_555
C44 C39 1_555 1_555
H38 C44 1_555 1_555
C45 N4 1_555 1_555
C46 C45 1_555 1_555
H39 C46 1_555 1_555
H40 C46 1_555 1_555
C47 C46 1_555 1_555
C48 C47 1_555 1_555
H41 C48 1_555 1_555
C49 C48 1_555 1_555
H42 C49 1_555 1_555
C50 C49 1_555 1_555
H43 C50 1_555 1_555
C51 C50 1_555 1_555
H44 C51 1_555 1_555
C52 C47 1_555 1_555
H45 C52 1_555 1_555
C53 N4 1_555 1_555
C54 C53 1_555 1_555
C55 C54 1_555 1_555
H46 C55 1_555 1_555
C56 C55 1_555 1_555
H47 C56 1_555 1_555
C57 C56 1_555 1_555
H48 C57 1_555 1_555
C58 C57 1_555 1_555
H49 C58 1_555 1_555
C59 C54 1_555 1_555
H50 C59 1_555 1_555
C60 O4 1_555 1_555
Cl3 C72 1_555 1_555
O7 N5 1_555 1_555
O8 C90 1_555 1_555
O9 C83 1_555 1_555
N5 C67 1_555 1_555
N6 H51 1_555 1_555
C61 H52 1_555 1_555
C62 C61 1_555 1_555
H53 C62 1_555 1_555
C63 C62 1_555 1_555
H54 C63 1_555 1_555
C64 C63 1_555 1_555
H55 C64 1_555 1_555
C65 C64 1_555 1_555
H56 C65 1_555 1_555
C66 C61 1_555 1_555
C67 C66 1_555 1_555
H57 C67 1_555 1_555
H58 C67 1_555 1_555
C68 N5 1_555 1_555
H59 C68 1_555 1_555
C69 C68 1_555 1_555
C70 C69 1_555 1_555
H60 C70 1_555 1_555
C71 C70 1_555 1_555
H61 C71 1_555 1_555
C72 C71 1_555 1_555
C73 C72 1_555 1_555
H62 C73 1_555 1_555
C74 C69 1_555 1_555
H63 C74 1_555 1_555
C75 N6 1_555 1_555
C76 C75 1_555 1_555
H64 C76 1_555 1_555
H65 C76 1_555 1_555
C77 C76 1_555 1_555
C78 C77 1_555 1_555
H66 C78 1_555 1_555
C79 C78 1_555 1_555
H67 C79 1_555 1_555
C80 C79 1_555 1_555
H68 C80 1_555 1_555
C81 C80 1_555 1_555
H69 C81 1_555 1_555
C82 C77 1_555 1_555
H70 C82 1_555 1_555
C83 N6 1_555 1_555
C84 C83 1_555 1_555
C85 C84 1_555 1_555
H71 C85 1_555 1_555
C86 C85 1_555 1_555
H72 C86 1_555 1_555
C87 C86 1_555 1_555
H73 C87 1_555 1_555
C88 C87 1_555 1_555
H74 C88 1_555 1_555
C89 C84 1_555 1_555
H75 C89 1_555 1_555
C90 O7 1_555 1_555
Cl4 C102 1_555 1_555
O10 N7 1_555 1_555
O11 C120 1_555 1_555
O12 C113 1_555 1_555
N7 C97 1_555 1_555
N8 H76 1_555 1_555
C91 H77 1_555 1_555
C92 C91 1_555 1_555
H78 C92 1_555 1_555
C93 C92 1_555 1_555
H79 C93 1_555 1_555
C94 C93 1_555 1_555
H80 C94 1_555 1_555
C95 C94 1_555 1_555
H81 C95 1_555 1_555
C96 C91 1_555 1_555
C97 C96 1_555 1_555
H82 C97 1_555 1_555
H83 C97 1_555 1_555
C98 N7 1_555 1_555
H84 C98 1_555 1_555
C99 C98 1_555 1_555
C100 C99 1_555 1_555
H85 C100 1_555 1_555
C101 C100 1_555 1_555
H86 C101 1_555 1_555
C102 C101 1_555 1_555
C103 C102 1_555 1_555
H87 C103 1_555 1_555
C104 C99 1_555 1_555
H88 C104 1_555 1_555
C105 N8 1_555 1_555
C106 C105 1_555 1_555
H89 C106 1_555 1_555
H90 C106 1_555 1_555
C107 C106 1_555 1_555
C108 C107 1_555 1_555
H91 C108 1_555 1_555
C109 C108 1_555 1_555
H92 C109 1_555 1_555
C110 C109 1_555 1_555
H93 C110 1_555 1_555
C111 C110 1_555 1_555
H94 C111 1_555 1_555
C112 C107 1_555 1_555
H95 C112 1_555 1_555
C113 N8 1_555 1_555
C114 C113 1_555 1_555
C115 C114 1_555 1_555
H96 C115 1_555 1_555
C116 C115 1_555 1_555
H97 C116 1_555 1_555
C117 C116 1_555 1_555
H98 C117 1_555 1_555
C118 C117 1_555 1_555
H99 C118 1_555 1_555
C119 C114 1_555 1_555
H100 C119 1_555 1_555
C120 O10 1_555 1_555
Cl5 C132 1_555 1_555
O13 N9 1_555 1_555
O14 C150 1_555 1_555
O15 C143 1_555 1_555
N9 C127 1_555 1_555
N10 H101 1_555 1_555
C121 H102 1_555 1_555
C122 C121 1_555 1_555
H103 C122 1_555 1_555
C123 C122 1_555 1_555
H104 C123 1_555 1_555
C124 C123 1_555 1_555
H105 C124 1_555 1_555
C125 C124 1_555 1_555
H106 C125 1_555 1_555
C126 C121 1_555 1_555
C127 C126 1_555 1_555
H107 C127 1_555 1_555
H108 C127 1_555 1_555
C128 N9 1_555 1_555
H109 C128 1_555 1_555
C129 C128 1_555 1_555
C130 C129 1_555 1_555
H110 C130 1_555 1_555
C131 C130 1_555 1_555
H111 C131 1_555 1_555
C132 C131 1_555 1_555
C133 C132 1_555 1_555
H112 C133 1_555 1_555
C134 C129 1_555 1_555
H113 C134 1_555 1_555
C135 N10 1_555 1_555
C136 C135 1_555 1_555
H114 C136 1_555 1_555
H115 C136 1_555 1_555
C137 C136 1_555 1_555
C138 C137 1_555 1_555
H116 C138 1_555 1_555
C139 C138 1_555 1_555
H117 C139 1_555 1_555
C140 C139 1_555 1_555
H118 C140 1_555 1_555
C141 C140 1_555 1_555
H119 C141 1_555 1_555
C142 C137 1_555 1_555
H120 C142 1_555 1_555
C143 N10 1_555 1_555
C144 C143 1_555 1_555
C145 C144 1_555 1_555
H121 C145 1_555 1_555
C146 C145 1_555 1_555
H122 C146 1_555 1_555
C147 C146 1_555 1_555
H123 C147 1_555 1_555
C148 C147 1_555 1_555
H124 C148 1_555 1_555
C149 C144 1_555 1_555
H125 C149 1_555 1_555
C150 O13 1_555 1_555
Cl6 C162 1_555 1_555
O16 N11 1_555 1_555
O17 C180 1_555 1_555
O18 C173 1_555 1_555
N11 C157 1_555 1_555
N12 H126 1_555 1_555
C151 H127 1_555 1_555
C152 C151 1_555 1_555
H128 C152 1_555 1_555
C153 C152 1_555 1_555
H129 C153 1_555 1_555
C154 C153 1_555 1_555
H130 C154 1_555 1_555
C155 C154 1_555 1_555
H131 C155 1_555 1_555
C156 C151 1_555 1_555
C157 C156 1_555 1_555
H132 C157 1_555 1_555
H133 C157 1_555 1_555
C158 N11 1_555 1_555
H134 C158 1_555 1_555
C159 C158 1_555 1_555
C160 C159 1_555 1_555
H135 C160 1_555 1_555
C161 C160 1_555 1_555
H136 C161 1_555 1_555
C162 C161 1_555 1_555
C163 C162 1_555 1_555
H137 C163 1_555 1_555
C164 C159 1_555 1_555
H138 C164 1_555 1_555
C165 N12 1_555 1_555
C166 C165 1_555 1_555
H139 C166 1_555 1_555
H140 C166 1_555 1_555
C167 C166 1_555 1_555
C168 C167 1_555 1_555
H141 C168 1_555 1_555
C169 C168 1_555 1_555
H142 C169 1_555 1_555
C170 C169 1_555 1_555
H143 C170 1_555 1_555
C171 C170 1_555 1_555
H144 C171 1_555 1_555
C172 C167 1_555 1_555
H145 C172 1_555 1_555
C173 N12 1_555 1_555
C174 C173 1_555 1_555
C175 C174 1_555 1_555
H146 C175 1_555 1_555
C176 C175 1_555 1_555
H147 C176 1_555 1_555
C177 C176 1_555 1_555
H148 C177 1_555 1_555
C178 C177 1_555 1_555
H149 C178 1_555 1_555
C179 C174 1_555 1_555
H150 C179 1_555 1_555
C180 O16 1_555 1_555
C5 C6 1_555 1_555
C8 C15 1_555 1_555
C13 C14 1_555 1_555
C15 C30 1_555 1_555
C21 C22 1_555 1_555
C28 C29 1_555 1_555
C35 C36 1_555 1_555
C38 C45 1_555 1_555
C43 C44 1_555 1_555
C45 C60 1_555 1_555
C51 C52 1_555 1_555
C58 C59 1_555 1_555
C65 C66 1_555 1_555
C68 C75 1_555 1_555
C73 C74 1_555 1_555
C75 C90 1_555 1_555
C81 C82 1_555 1_555
C88 C89 1_555 1_555
C95 C96 1_555 1_555
C98 C105 1_555 1_555
C103 C104 1_555 1_555
C105 C120 1_555 1_555
C111 C112 1_555 1_555
C118 C119 1_555 1_555
C125 C126 1_555 1_555
C128 C135 1_555 1_555
C133 C134 1_555 1_555
C135 C150 1_555 1_555
C141 C142 1_555 1_555
C148 C149 1_555 1_555
C155 C156 1_555 1_555
C158 C165 1_555 1_555
C163 C164 1_555 1_555
C165 C180 1_555 1_555
C171 C172 1_555 1_555
C178 C179 1_555 1_555

#END
