
#######################################################################
#
#                 Cambridge Crystallographic Data Centre
#                                CCDC 
#
#######################################################################
#
# If this CIF has been generated from an entry in the Cambridge 
# Structural Database, then it will include bibliographic, chemical, 
# crystal, experimental, refinement or atomic coordinate data resulting 
# from the CCDC's data processing and validation procedures.
#
#######################################################################

data_SAMPOO
_chemical_name_common            
'N-(1-phenylvinyl)-4-(p-tolyl)-1-tosyl-1H-1, 2, 3-triazol-5-amine'
_chemical_formula_moiety         'C24 H22 N4 O2 S1'
_chemical_name_systematic        
4-(4-methylphenyl)-1-((4-methylphenyl)sulfonyl)-N-(1-phenylvinyl)-1H-1,2,3-triazol-5-amine
_symmetry_cell_setting           triclinic
_symmetry_space_group_name_H-M   'P -1'
_symmetry_Int_Tables_number      2
_space_group_name_Hall           '-P 1'
loop_
_symmetry_equiv_pos_site_id
_symmetry_equiv_pos_as_xyz
1 x,y,z
2 -x,-y,-z
_cell_length_a                   7.1962(5)
_cell_length_b                   9.4529(7)
_cell_length_c                   16.5643(12)
_cell_angle_alpha                99.095(6)
_cell_angle_beta                 99.786(6)
_cell_angle_gamma                91.947(6)
_cell_volume                     1094.28
_exptl_crystal_colour            colorless
_exptl_crystal_description       block
_chemical_melting_point          '409 K'
_cell_formula_units_Z            2
_exptl_crystal_recrystallization_method 'Re-crystallisation from solvent'
loop_
_atom_site_label
_atom_site_type_symbol
_atom_site_fract_x
_atom_site_fract_y
_atom_site_fract_z
H1 H 0.937(6) 1.029(3) 0.258(3)
S1 S 0.62242(11) 0.92356(9) 0.09889(5)
N1 N 0.6289(3) 0.8389(3) 0.18377(15)
N2 N 0.4832(3) 0.7403(3) 0.18071(17)
N3 N 0.9370(4) 0.9356(3) 0.27141(19)
C1 C 1.2775(4) 0.9994(3) 0.30877(19)
O1 O 0.7345(3) 1.0537(2) 0.12803(14)
C2 C 0.7648(4) 0.8438(3) 0.25461(17)
C3 C 1.1120(4) 0.8955(3) 0.29840(17)
C4 C 0.6887(4) 0.7457(3) 0.29559(18)
N4 N 0.5207(3) 0.6850(3) 0.24777(17)
C5 C 1.1513(4) 0.7666(3) 0.32207(19)
H2 H 1.0537 0.6985 0.3203
H3 H 1.2758 0.7466 0.3400
C6 C 0.7361(4) 0.8061(3) 0.03319(18)
C7 C 0.7450(4) 0.7090(3) 0.37896(18)
C8 C 0.8318(4) 0.6371(4) 0.5395(2)
C9 C 0.8603(4) 0.8008(3) 0.44378(19)
H4 H 0.9105 0.8871 0.4339
C10 C 0.9010(4) 0.7656(3) 0.5222(2)
H5 H 0.9766 0.8294 0.5644
C11 C 0.7201(5) 0.5458(4) 0.4745(2)
H6 H 0.6738 0.4581 0.4842
C12 C 1.4191(4) 1.0113(4) 0.3789(2)
H7 H 1.4107 0.9524 0.4183
C13 C 1.2945(4) 1.0852(3) 0.2501(2)
H8 H 1.2018 1.0783 0.2029
O2 O 0.4282(3) 0.9222(3) 0.06599(15)
C14 C 0.6753(4) 0.5800(3) 0.3964(2)
H9 H 0.5977 0.5165 0.3547
C15 C 1.5872(5) 1.1928(4) 0.3324(3)
H10 H 1.6913 1.2578 0.3402
C16 C 0.9244(5) 0.8304(4) 0.0328(2)
H11 H 0.9937 0.9068 0.0689
C17 C 1.5704(5) 1.1090(4) 0.3903(3)
H12 H 1.6620 1.1178 0.4381
C18 C 1.4504(5) 1.1822(4) 0.2615(3)
H13 H 1.4627 1.2397 0.2218
C19 C 0.8783(5) 0.5979(4) 0.6245(2)
H14 H 0.9761 0.5312 0.6255
H15 H 0.7676 0.5545 0.6381
H16 H 0.9210 0.6828 0.6644
C20 C 1.0100(6) 0.7408(5) -0.0213(3)
H17 H 1.1376 0.7584 -0.0219
C21 C 0.9122(6) 0.6254(4) -0.0747(2)
C22 C 1.0084(8) 0.5289(6) -0.1338(3)
H18 H 1.0393 0.5804 -0.1758
H19 H 0.9252 0.4466 -0.1595
H20 H 1.1219 0.4982 -0.1039
C23 C 0.7226(6) 0.6043(5) -0.0725(3)
H21 H 0.6529 0.5277 -0.1082
C24 C 0.6341(5) 0.6925(4) -0.0192(2)
H22 H 0.5063 0.6756 -0.0186
loop_
_geom_bond_atom_site_label_1
_geom_bond_atom_site_label_2
_geom_bond_site_symmetry_1
_geom_bond_site_symmetry_2
H1 N3 1_555 1_555
S1 N1 1_555 1_555
N1 N2 1_555 1_555
N2 N4 1_555 1_555
N3 C2 1_555 1_555
C1 C3 1_555 1_555
O1 S1 1_555 1_555
C2 N1 1_555 1_555
C3 N3 1_555 1_555
C4 C2 1_555 1_555
N4 C4 1_555 1_555
C5 C3 1_555 1_555
H2 C5 1_555 1_555
H3 C5 1_555 1_555
C6 S1 1_555 1_555
C7 C4 1_555 1_555
C8 C10 1_555 1_555
C9 C7 1_555 1_555
H4 C9 1_555 1_555
C10 C9 1_555 1_555
H5 C10 1_555 1_555
C11 C8 1_555 1_555
H6 C11 1_555 1_555
C12 C1 1_555 1_555
H7 C12 1_555 1_555
C13 C1 1_555 1_555
H8 C13 1_555 1_555
O2 S1 1_555 1_555
C14 C7 1_555 1_555
H9 C14 1_555 1_555
C15 H10 1_555 1_555
C16 C6 1_555 1_555
H11 C16 1_555 1_555
C17 C12 1_555 1_555
H12 C17 1_555 1_555
C18 C13 1_555 1_555
H13 C18 1_555 1_555
C19 C8 1_555 1_555
H14 C19 1_555 1_555
H15 C19 1_555 1_555
H16 C19 1_555 1_555
C20 C16 1_555 1_555
H17 C20 1_555 1_555
C21 C20 1_555 1_555
C22 C21 1_555 1_555
H18 C22 1_555 1_555
H19 C22 1_555 1_555
H20 C22 1_555 1_555
C23 C21 1_555 1_555
H21 C23 1_555 1_555
C24 C6 1_555 1_555
H22 C24 1_555 1_555
C11 C14 1_555 1_555
C15 C17 1_555 1_555
C15 C18 1_555 1_555
C23 C24 1_555 1_555

#END
