
#######################################################################
#
#                 Cambridge Crystallographic Data Centre
#                                CCDC 
#
#######################################################################
#
# If this CIF has been generated from an entry in the Cambridge 
# Structural Database, then it will include bibliographic, chemical, 
# crystal, experimental, refinement or atomic coordinate data resulting 
# from the CCDC's data processing and validation procedures.
#
#######################################################################

data_SAMREF
_chemical_formula_moiety         'C22 H23 N1 O4'
_chemical_name_systematic        
'9-(Allyloxy)-2-hydroxy-1,2,3,5,10,10a-hexahydropyrrolo[1,2-b]isoquinolin-10-yl benzoate'
_symmetry_cell_setting           monoclinic
_symmetry_space_group_name_H-M   'P 21'
_symmetry_Int_Tables_number      4
_space_group_name_Hall           'P 2yb'
loop_
_symmetry_equiv_pos_site_id
_symmetry_equiv_pos_as_xyz
1 x,y,z
2 -x,1/2+y,-z
_cell_length_a                   9.8532(12)
_cell_length_b                   10.2272(10)
_cell_length_c                   18.7277(20)
_cell_angle_alpha                90
_cell_angle_beta                 102.342(12)
_cell_angle_gamma                90
_cell_volume                     1843.59
_exptl_crystal_colour            colorless
_exptl_crystal_description       prism
_cell_formula_units_Z            4
loop_
_atom_site_label
_atom_site_type_symbol
_atom_site_fract_x
_atom_site_fract_y
_atom_site_fract_z
O1 O 0.6405(3) 0.5300(2) 0.33467(14)
H1 H 0.693(5) 0.490(5) 0.311(3)
O2 O 0.4691(2) 0.2711(2) 0.18880(11)
O3 O 0.2473(2) 0.3452(2) 0.15895(13)
O4 O 0.3199(2) 0.0110(2) 0.13071(12)
N1 N 0.6419(2) 0.2301(2) 0.33405(15)
C1 C 0.6856(3) 0.3161(3) 0.39772(17)
H2 H 0.7845 0.3412 0.4041
H3 H 0.6711 0.2738 0.4430
C2 C 0.5904(3) 0.4339(3) 0.37777(19)
H4 H 0.5741 0.4755 0.4235
C3 C 0.4529(3) 0.3737(3) 0.33497(19)
H5 H 0.3810 0.3759 0.3647
H6 H 0.4181 0.4223 0.2890
C4 C 0.4882(3) 0.2323(3) 0.31876(19)
H7 H 0.4559 0.1733 0.3543
C5 C 0.4339(3) 0.1800(3) 0.24208(17)
H8 H 0.3307 0.1699 0.2332
C6 C 0.4997(3) 0.0489(3) 0.23389(17)
C7 C 0.4355(3) -0.0370(3) 0.17837(18)
C8 C 0.4885(4) -0.1626(3) 0.17412(19)
H9 H 0.4438 -0.2216 0.1374
C9 C 0.6067(4) -0.2001(3) 0.22391(19)
H10 H 0.6434 -0.2853 0.2209
C10 C 0.6720(3) -0.1162(3) 0.27774(18)
H11 H 0.7534 -0.1438 0.3113
C11 C 0.6198(3) 0.0091(3) 0.28357(17)
C12 C 0.6923(3) 0.0963(3) 0.34418(17)
H12 H 0.6770 0.0626 0.3914
H13 H 0.7934 0.0949 0.3460
C13 C 0.3685(3) 0.3494(3) 0.15233(17)
C14 C 0.4202(3) 0.4425(3) 0.10424(17)
C15 C 0.5611(3) 0.4713(3) 0.11369(18)
H14 H 0.6264 0.4310 0.1521
C16 C 0.6058(4) 0.5583(3) 0.0674(2)
H15 H 0.7019 0.5782 0.0743
C17 C 0.5123(4) 0.6165(4) 0.01127(19)
H16 H 0.5438 0.6750 -0.0211
C18 C 0.3712(4) 0.5893(4) 0.0022(2)
H17 H 0.3062 0.6302 -0.0360
C19 C 0.3256(4) 0.5033(4) 0.04842(19)
H18 H 0.2291 0.4855 0.0422
C20 C 0.2475(4) -0.0770(3) 0.07672(19)
H19 H 0.2130 -0.1523 0.1010
H20 H 0.3119 -0.1108 0.0471
C21 C 0.1284(4) -0.0103(4) 0.0282(2)
H21 H 0.0724 -0.0623 -0.0087
C22 C 0.0926(4) 0.1126(4) 0.03105(19)
H22 H 0.1451 0.1689 0.0670
H23 H 0.0141 0.1454 -0.0028
O5 O 1.1971(2) 0.8761(2) 0.73896(12)
H24 H 1.248(4) 0.809(5) 0.722(2)
O6 O 0.9361(2) 0.5154(2) 0.63995(10)
O7 O 0.7627(2) 0.6408(2) 0.57647(12)
O8 O 0.7008(2) 0.3247(2) 0.65859(12)
N2 N 1.0983(2) 0.5905(3) 0.78734(14)
C23 C 1.1594(3) 0.7071(3) 0.82598(17)
H25 H 1.2619 0.7050 0.8334
H26 H 1.1341 0.7139 0.8742
C24 C 1.0998(3) 0.8216(3) 0.77730(17)
H27 H 1.0696 0.8912 0.8081
C25 C 0.9701(3) 0.7636(3) 0.72551(18)
H28 H 0.8870 0.8181 0.7254
H29 H 0.9846 0.7569 0.6749
C26 C 0.9541(3) 0.6294(3) 0.75691(16)
H30 H 0.9052 0.6395 0.7982
C27 C 0.8799(3) 0.5245(3) 0.70576(16)
H31 H 0.7785 0.5455 0.6919
C28 C 0.8992(3) 0.3927(3) 0.74260(17)
C29 C 0.8021(3) 0.2919(3) 0.71789(18)
C30 C 0.8119(4) 0.1737(3) 0.75449(19)
H32 H 0.7442 0.1075 0.7394
C31 C 0.9212(4) 0.1528(3) 0.81334(19)
H33 H 0.9288 0.0710 0.8379
C32 C 1.0192(4) 0.2479(3) 0.8370(2)
H34 H 1.0943 0.2310 0.8771
C33 C 1.0080(3) 0.3688(3) 0.80223(16)
C34 C 1.1088(3) 0.4759(3) 0.83362(17)
H35 H 1.0916 0.5019 0.8818
H36 H 1.2046 0.4410 0.8415
C35 C 0.8673(3) 0.5757(3) 0.57984(16)
C36 C 0.9351(3) 0.5569(3) 0.51629(16)
C37 C 0.8947(3) 0.6339(3) 0.45492(17)
H37 H 0.8218 0.6956 0.4525
C38 C 0.9601(4) 0.6213(3) 0.39705(18)
H38 H 0.9350 0.6770 0.3557
C39 C 1.0619(3) 0.5281(3) 0.39901(18)
H39 H 1.1057 0.5190 0.3588
C40 C 1.1004(3) 0.4477(3) 0.45952(18)
H40 H 1.1690 0.3821 0.4603
C41 C 1.0387(3) 0.4632(3) 0.51877(17)
H41 H 1.0669 0.4102 0.5610
C42 C 0.5976(3) 0.2278(3) 0.6306(2)
H42 H 0.5500 0.2000 0.6696
H43 H 0.6423 0.1502 0.6140
C43 C 0.4957(4) 0.2843(4) 0.5688(2)
H44 H 0.4251 0.2274 0.5438
C44 C 0.4929(3) 0.4043(4) 0.54508(19)
H45 H 0.5612 0.4651 0.5682
H46 H 0.4226 0.4309 0.5047
loop_
_geom_bond_atom_site_label_1
_geom_bond_atom_site_label_2
_geom_bond_site_symmetry_1
_geom_bond_site_symmetry_2
O1 H1 1_555 1_555
O2 C5 1_555 1_555
O3 C13 1_555 1_555
O4 C7 1_555 1_555
N1 C1 1_555 1_555
C1 H2 1_555 1_555
H3 C1 1_555 1_555
C2 O1 1_555 1_555
H4 C2 1_555 1_555
C3 C2 1_555 1_555
H5 C3 1_555 1_555
H6 C3 1_555 1_555
C4 N1 1_555 1_555
H7 C4 1_555 1_555
C5 C4 1_555 1_555
H8 C5 1_555 1_555
C6 C5 1_555 1_555
C7 C6 1_555 1_555
C8 C7 1_555 1_555
H9 C8 1_555 1_555
C9 C8 1_555 1_555
H10 C9 1_555 1_555
C10 C9 1_555 1_555
H11 C10 1_555 1_555
C11 C6 1_555 1_555
C12 N1 1_555 1_555
H12 C12 1_555 1_555
H13 C12 1_555 1_555
C13 O2 1_555 1_555
C14 C13 1_555 1_555
C15 C14 1_555 1_555
H14 C15 1_555 1_555
C16 C15 1_555 1_555
H15 C16 1_555 1_555
C17 C16 1_555 1_555
H16 C17 1_555 1_555
C18 C17 1_555 1_555
H17 C18 1_555 1_555
C19 C14 1_555 1_555
H18 C19 1_555 1_555
C20 O4 1_555 1_555
H19 C20 1_555 1_555
H20 C20 1_555 1_555
C21 C20 1_555 1_555
H21 C21 1_555 1_555
C22 C21 1_555 1_555
H22 C22 1_555 1_555
H23 C22 1_555 1_555
O5 H24 1_555 1_555
O6 C27 1_555 1_555
O7 C35 1_555 1_555
O8 C29 1_555 1_555
N2 C23 1_555 1_555
C23 H25 1_555 1_555
H26 C23 1_555 1_555
C24 O5 1_555 1_555
H27 C24 1_555 1_555
C25 C24 1_555 1_555
H28 C25 1_555 1_555
H29 C25 1_555 1_555
C26 N2 1_555 1_555
H30 C26 1_555 1_555
C27 C26 1_555 1_555
H31 C27 1_555 1_555
C28 C27 1_555 1_555
C29 C28 1_555 1_555
C30 C29 1_555 1_555
H32 C30 1_555 1_555
C31 C30 1_555 1_555
H33 C31 1_555 1_555
C32 C31 1_555 1_555
H34 C32 1_555 1_555
C33 C28 1_555 1_555
C34 N2 1_555 1_555
H35 C34 1_555 1_555
H36 C34 1_555 1_555
C35 O6 1_555 1_555
C36 C35 1_555 1_555
C37 C36 1_555 1_555
H37 C37 1_555 1_555
C38 C37 1_555 1_555
H38 C38 1_555 1_555
C39 C38 1_555 1_555
H39 C39 1_555 1_555
C40 C39 1_555 1_555
H40 C40 1_555 1_555
C41 C36 1_555 1_555
H41 C41 1_555 1_555
C42 O8 1_555 1_555
H42 C42 1_555 1_555
H43 C42 1_555 1_555
C43 C42 1_555 1_555
H44 C43 1_555 1_555
C44 C43 1_555 1_555
H45 C44 1_555 1_555
H46 C44 1_555 1_555
C1 C2 1_555 1_555
C3 C4 1_555 1_555
C10 C11 1_555 1_555
C11 C12 1_555 1_555
C18 C19 1_555 1_555
C23 C24 1_555 1_555
C25 C26 1_555 1_555
C32 C33 1_555 1_555
C33 C34 1_555 1_555
C40 C41 1_555 1_555

#END
