
#######################################################################
#
#                 Cambridge Crystallographic Data Centre
#                                CCDC 
#
#######################################################################
#
# If this CIF has been generated from an entry in the Cambridge 
# Structural Database, then it will include bibliographic, chemical, 
# crystal, experimental, refinement or atomic coordinate data resulting 
# from the CCDC's data processing and validation procedures.
#
#######################################################################

data_SAMYAH
_chemical_formula_moiety         'C22 H15 I2 N3 O1'
_chemical_name_systematic        
4'-(3,5-Diiodo-4-methoxyphenyl)-2,2':6',2''-terpyridine
_symmetry_cell_setting           triclinic
_symmetry_space_group_name_H-M   'P -1'
_symmetry_Int_Tables_number      2
_space_group_name_Hall           '-P 1'
loop_
_symmetry_equiv_pos_site_id
_symmetry_equiv_pos_as_xyz
1 x,y,z
2 -x,-y,-z
_cell_length_a                   5.016(4)
_cell_length_b                   18.761(10)
_cell_length_c                   23.658(16)
_cell_angle_alpha                111.53(5)
_cell_angle_beta                 94.97(6)
_cell_angle_gamma                92.11(6)
_cell_volume                     2057.55
_exptl_crystal_colour            colorless
_exptl_crystal_description       prisms
_chemical_melting_point          216deg.C
_cell_formula_units_Z            4
_exptl_crystal_recrystallization_method acetonitrile
loop_
_atom_site_label
_atom_site_type_symbol
_atom_site_fract_x
_atom_site_fract_y
_atom_site_fract_z
I1 I 0.2042(2) 0.53855(6) 0.08752(5)
I2 I 0.1890(3) 0.32941(7) 0.22654(5)
O1 O 0.130(2) 0.4763(5) 0.1929(4)
N1 N 0.262(3) 0.0125(7) -0.0499(6)
N2 N 0.717(3) 0.1243(7) -0.0972(5)
N3 N 1.035(2) 0.2864(7) -0.1153(6)
C1 C 0.180(3) -0.0626(11) -0.0647(9)
H1 H 0.0567 -0.0740 -0.0398
C2 C 0.254(3) -0.1191(10) -0.1095(8)
H2 H 0.1801 -0.1704 -0.1184
C3 C 0.446(4) -0.1052(10) -0.1458(9)
H3 H 0.5092 -0.1460 -0.1789
C4 C 0.537(4) -0.0295(10) -0.1300(8)
H4 H 0.6678 -0.0163 -0.1524
C5 C 0.442(3) 0.0268(9) -0.0830(6)
C6 C 0.526(3) 0.1090(8) -0.0651(6)
C7 C 0.428(3) 0.1649(9) -0.0189(7)
H5 H 0.2939 0.1511 0.0027
C8 C 0.514(3) 0.2413(8) -0.0027(7)
C9 C 0.697(3) 0.2576(8) -0.0371(6)
H6 H 0.7577 0.3098 -0.0292
C10 C 0.789(3) 0.1995(9) -0.0820(7)
C11 C 0.989(3) 0.2144(8) -0.1212(6)
C12 C 1.114(3) 0.1555(9) -0.1620(6)
H7 H 1.0673 0.1031 -0.1674
C13 C 1.306(3) 0.1724(10) -0.1940(7)
H8 H 1.3982 0.1321 -0.2211
C14 C 1.361(3) 0.2460(10) -0.1875(6)
H9 H 1.4982 0.2593 -0.2086
C15 C 1.214(3) 0.3024(10) -0.1487(8)
H10 H 1.2417 0.3545 -0.1458
C16 C 0.401(3) 0.3023(8) 0.0465(6)
C17 C 0.358(3) 0.3738(9) 0.0439(7)
H11 H 0.4006 0.3843 0.0088
C18 C 0.258(3) 0.4304(8) 0.0907(7)
C19 C 0.209(3) 0.4179(8) 0.1430(6)
C20 C 0.248(3) 0.3471(9) 0.1458(6)
C21 C 0.342(3) 0.2910(9) 0.1003(7)
H12 H 0.3695 0.2424 0.1040
C22 C -0.148(4) 0.4813(11) 0.1951(8)
H13 H -0.1815 0.5230 0.2315
H14 H -0.2241 0.4904 0.1599
H15 H -0.2283 0.4341 0.1952
I3 I 0.3931(2) 0.62981(6) 0.29455(4)
I4 I 0.6373(2) 0.96836(5) 0.41705(5)
O2 O 0.4251(19) 0.8091(6) 0.3210(4)
N4 N 1.603(3) 0.9063(8) 0.6359(6)
N5 N 1.275(3) 0.7247(7) 0.6101(5)
N6 N 0.794(3) 0.5595(8) 0.5525(6)
C23 C 1.810(5) 0.9528(10) 0.6728(9)
H16 H 1.8508 1.0010 0.6688
C24 C 1.962(4) 0.9346(11) 0.7150(8)
H17 H 2.1023 0.9704 0.7414
C25 C 1.915(4) 0.8647(11) 0.7204(9)
H18 H 2.0252 0.8497 0.7489
C26 C 1.707(3) 0.8182(9) 0.6833(7)
H19 H 1.6620 0.7697 0.6865
C27 C 1.553(3) 0.8391(8) 0.6408(7)
C28 C 1.333(3) 0.7891(8) 0.6003(6)
C29 C 1.183(3) 0.8079(8) 0.5555(6)
H20 H 1.2280 0.8546 0.5495
C30 C 0.971(3) 0.7584(8) 0.5207(6)
C31 C 0.906(3) 0.6943(8) 0.5315(7)
H21 H 0.7522 0.6610 0.5089
C32 C 1.061(3) 0.6773(8) 0.5745(6)
C33 C 1.005(4) 0.6047(9) 0.5848(7)
C34 C 1.177(4) 0.5857(10) 0.6272(7)
H22 H 1.3271 0.6196 0.6514
C35 C 1.115(5) 0.5155(11) 0.6317(9)
H23 H 1.2244 0.4999 0.6599
C36 C 0.899(5) 0.4678(10) 0.5965(9)
H24 H 0.8587 0.4188 0.5993
C37 C 0.749(3) 0.4934(10) 0.5576(9)
H25 H 0.5985 0.4608 0.5324
C38 C 0.812(3) 0.7742(8) 0.4689(6)
C39 C 0.692(3) 0.7125(8) 0.4178(7)
H26 H 0.7038 0.6610 0.4165
C40 C 0.558(3) 0.7242(8) 0.3704(6)
C41 C 0.540(3) 0.7965(9) 0.3710(6)
C42 C 0.657(3) 0.8582(8) 0.4205(6)
C43 C 0.787(3) 0.8463(8) 0.4685(7)
H27 H 0.8686 0.8897 0.5028
C44 C 0.134(3) 0.8173(11) 0.3183(9)
H28 H 0.0747 0.8260 0.2819
H29 H 0.0425 0.7711 0.3177
H30 H 0.0944 0.8600 0.3534
loop_
_geom_bond_atom_site_label_1
_geom_bond_atom_site_label_2
_geom_bond_site_symmetry_1
_geom_bond_site_symmetry_2
I1 C18 1_555 1_555
I2 C20 1_555 1_555
O1 C19 1_555 1_555
N1 C1 1_555 1_555
N2 C6 1_555 1_555
N3 C11 1_555 1_555
C1 H1 1_555 1_555
C2 C1 1_555 1_555
H2 C2 1_555 1_555
C3 C2 1_555 1_555
H3 C3 1_555 1_555
C4 C3 1_555 1_555
H4 C4 1_555 1_555
C5 N1 1_555 1_555
C6 C5 1_555 1_555
C7 C6 1_555 1_555
H5 C7 1_555 1_555
C8 C7 1_555 1_555
C9 C8 1_555 1_555
H6 C9 1_555 1_555
C10 N2 1_555 1_555
C11 C10 1_555 1_555
C12 C11 1_555 1_555
H7 C12 1_555 1_555
C13 C12 1_555 1_555
H8 C13 1_555 1_555
C14 C13 1_555 1_555
H9 C14 1_555 1_555
C15 N3 1_555 1_555
H10 C15 1_555 1_555
C16 C8 1_555 1_555
C17 C16 1_555 1_555
H11 C17 1_555 1_555
C18 C17 1_555 1_555
C19 C18 1_555 1_555
C20 C19 1_555 1_555
C21 C16 1_555 1_555
H12 C21 1_555 1_555
C22 O1 1_555 1_555
H13 C22 1_555 1_555
H14 C22 1_555 1_555
H15 C22 1_555 1_555
I3 C40 1_555 1_555
I4 C42 1_555 1_555
O2 C41 1_555 1_555
N4 C23 1_555 1_555
N5 C28 1_555 1_555
N6 C33 1_555 1_555
C23 H16 1_555 1_555
C24 C23 1_555 1_555
H17 C24 1_555 1_555
C25 C24 1_555 1_555
H18 C25 1_555 1_555
C26 C25 1_555 1_555
H19 C26 1_555 1_555
C27 N4 1_555 1_555
C28 C27 1_555 1_555
C29 C28 1_555 1_555
H20 C29 1_555 1_555
C30 C29 1_555 1_555
C31 C30 1_555 1_555
H21 C31 1_555 1_555
C32 N5 1_555 1_555
C33 C32 1_555 1_555
C34 C33 1_555 1_555
H22 C34 1_555 1_555
C35 C34 1_555 1_555
H23 C35 1_555 1_555
C36 C35 1_555 1_555
H24 C36 1_555 1_555
C37 N6 1_555 1_555
H25 C37 1_555 1_555
C38 C30 1_555 1_555
C39 C38 1_555 1_555
H26 C39 1_555 1_555
C40 C39 1_555 1_555
C41 C40 1_555 1_555
C42 C41 1_555 1_555
C43 C38 1_555 1_555
H27 C43 1_555 1_555
C44 O2 1_555 1_555
H28 C44 1_555 1_555
H29 C44 1_555 1_555
H30 C44 1_555 1_555
C4 C5 1_555 1_555
C9 C10 1_555 1_555
C14 C15 1_555 1_555
C20 C21 1_555 1_555
C26 C27 1_555 1_555
C31 C32 1_555 1_555
C36 C37 1_555 1_555
C42 C43 1_555 1_555

#END
