
#######################################################################
#
#                 Cambridge Crystallographic Data Centre
#                                CCDC 
#
#######################################################################
#
# If this CIF has been generated from an entry in the Cambridge 
# Structural Database, then it will include bibliographic, chemical, 
# crystal, experimental, refinement or atomic coordinate data resulting 
# from the CCDC's data processing and validation procedures.
#
#######################################################################

data_SANCAN
_chemical_name_common            
'(Z,Z)-cyclo[2](dibenzo[b,d]thiophen-2, 8-yl-ethylene)'
_chemical_formula_moiety         'C28 H16 S2'
_chemical_name_systematic        
26,28-Dithiaheptacyclo[19.3.1.1^2,6^.1^3,24^.1^9,13^.1^12,15^.1^14,18^]triaconta-1(25),2(30),3,5,7,9(29),10,12,14(27),15,17,19,21,23-tetradecaene
_symmetry_cell_setting           monoclinic
_symmetry_space_group_name_H-M   'P 21/c'
_symmetry_Int_Tables_number      14
_space_group_name_Hall           '-P 2ybc'
loop_
_symmetry_equiv_pos_site_id
_symmetry_equiv_pos_as_xyz
1 x,y,z
2 -x,1/2+y,1/2-z
3 -x,-y,-z
4 x,1/2-y,1/2+z
_cell_length_a                   12.339(3)
_cell_length_b                   4.7480(9)
_cell_length_c                   16.949(3)
_cell_angle_alpha                90
_cell_angle_beta                 110.06(3)
_cell_angle_gamma                90
_cell_volume                     932.727
_exptl_crystal_colour            'pale yellow'
_exptl_crystal_description       rod
_cell_formula_units_Z            2
loop_
_atom_site_label
_atom_site_type_symbol
_atom_site_fract_x
_atom_site_fract_y
_atom_site_fract_z
S1 S 0.05482(3) 0.54416(9) 0.41909(3)
C1 C 0.14683(14) 0.3784(4) 0.37470(10)
C2 C 0.26181(14) 0.4702(3) 0.41029(10)
C3 C 0.27523(13) 0.6770(3) 0.47637(9)
C4 C 0.17050(14) 0.7292(3) 0.48920(10)
C5 C 0.16704(15) 0.9096(4) 0.55351(11)
H1 H 0.0975 0.9513 0.5608
C6 C 0.26863(15) 1.0236(3) 0.60561(11)
H2 H 0.2666 1.1415 0.6489
C7 C 0.37708(14) 0.9689(3) 0.59618(10)
C8 C 0.37630(13) 0.8041(3) 0.52823(9)
H3 H 0.4444 0.7782 0.5172
C9 C 0.47772(15) 1.0943(3) 0.66078(10)
H4 H 0.4558 1.2394 0.6890
C10 C 0.59336(15) 1.0568(3) 0.69052(10)
H5 H 0.6288 1.1729 0.7363
C11 C 0.67804(14) 0.8816(3) 0.66974(9)
C12 C 0.79569(15) 0.9585(3) 0.70731(10)
H6 H 0.8149 1.1003 0.7476
C13 C 0.88270(14) 0.8314(4) 0.68637(10)
H7 H 0.9592 0.8846 0.7124
C14 C 0.65279(14) 0.6546(3) 0.61419(9)
H8 H 0.5778 0.5857 0.5932
S1B S 0.94518(3) 0.45584(9) 0.58091(3)
C1B C 0.85317(14) 0.6216(4) 0.62530(10)
C2B C 0.73819(14) 0.5298(3) 0.58971(10)
C3B C 0.72477(13) 0.3230(3) 0.52363(9)
C4B C 0.82950(14) 0.2708(3) 0.51080(10)
C5B C 0.83296(15) 0.0904(4) 0.44649(11)
H1B H 0.9025 0.0487 0.4392
C6B C 0.73137(15) -0.0236(3) 0.39439(11)
H2B H 0.7334 -0.1415 0.3511
C7B C 0.62292(14) 0.0311(3) 0.40382(10)
C8B C 0.62370(13) 0.1959(3) 0.47177(9)
H3B H 0.5556 0.2218 0.4828
C9B C 0.52228(15) -0.0943(3) 0.33922(10)
H4B H 0.5442 -0.2394 0.3110
C10B C 0.40664(15) -0.0568(3) 0.30948(10)
H5B H 0.3712 -0.1729 0.2637
C11B C 0.32196(14) 0.1184(3) 0.33026(9)
C12B C 0.20431(15) 0.0415(3) 0.29269(10)
H6B H 0.1851 -0.1003 0.2524
C13B C 0.11730(14) 0.1686(4) 0.31363(10)
H7B H 0.0408 0.1154 0.2876
C14B C 0.34721(14) 0.3454(3) 0.38581(9)
H8B H 0.4222 0.4143 0.4068
loop_
_geom_bond_atom_site_label_1
_geom_bond_atom_site_label_2
_geom_bond_site_symmetry_1
_geom_bond_site_symmetry_2
S1 C1 1_555 1_555
C1 C2 1_555 1_555
C2 C3 1_555 1_555
C3 C4 1_555 1_555
C4 S1 1_555 1_555
C5 C4 1_555 1_555
H1 C5 1_555 1_555
C6 C5 1_555 1_555
H2 C6 1_555 1_555
C7 C6 1_555 1_555
C8 C3 1_555 1_555
H3 C8 1_555 1_555
C9 C7 1_555 1_555
H4 C9 1_555 1_555
C10 C9 1_555 1_555
H5 C10 1_555 1_555
C11 C10 1_555 1_555
C12 C11 1_555 1_555
H6 C12 1_555 1_555
C13 C12 1_555 1_555
H7 C13 1_555 1_555
C14 C11 1_555 1_555
H8 C14 1_555 1_555
S1B C1B 1_555 1_555
C1B C13 1_555 1_555
C2B C14 1_555 1_555
C3B C2B 1_555 1_555
C4B S1B 1_555 1_555
C5B C4B 1_555 1_555
H1B C5B 1_555 1_555
C6B C5B 1_555 1_555
H2B C6B 1_555 1_555
C7B C6B 1_555 1_555
C8B C3B 1_555 1_555
H3B C8B 1_555 1_555
C9B C7B 1_555 1_555
H4B C9B 1_555 1_555
C10B C9B 1_555 1_555
H5B C10B 1_555 1_555
C11B C10B 1_555 1_555
C12B C11B 1_555 1_555
H6B C12B 1_555 1_555
C13B C1 1_555 1_555
H7B C13B 1_555 1_555
C14B C2 1_555 1_555
H8B C14B 1_555 1_555
C7 C8 1_555 1_555
C1B C2B 1_555 1_555
C3B C4B 1_555 1_555
C7B C8B 1_555 1_555
C11B C14B 1_555 1_555
C12B C13B 1_555 1_555

#END
