
#######################################################################
#
#                 Cambridge Crystallographic Data Centre
#                                CCDC 
#
#######################################################################
#
# If this CIF has been generated from an entry in the Cambridge 
# Structural Database, then it will include bibliographic, chemical, 
# crystal, experimental, refinement or atomic coordinate data resulting 
# from the CCDC's data processing and validation procedures.
#
#######################################################################

data_SANCIV
_chemical_formula_moiety         'C26 H16 S2'
_chemical_name_systematic        '(E)-1, 2-bis(dibenzo[b,d]thiophen-2-yl)ethene'
_symmetry_cell_setting           monoclinic
_symmetry_space_group_name_H-M   'P 21/c'
_symmetry_Int_Tables_number      14
_space_group_name_Hall           '-P 2ybc'
loop_
_symmetry_equiv_pos_site_id
_symmetry_equiv_pos_as_xyz
1 x,y,z
2 -x,1/2+y,1/2-z
3 -x,-y,-z
4 x,1/2-y,1/2+z
_cell_length_a                   6.7920(15)
_cell_length_b                   10.677(2)
_cell_length_c                   12.729(3)
_cell_angle_alpha                90
_cell_angle_beta                 97.719(4)
_cell_angle_gamma                90
_cell_volume                     914.72
_exptl_crystal_colour            colorless
_exptl_crystal_description       needle
_cell_formula_units_Z            2
loop_
_atom_site_label
_atom_site_type_symbol
_atom_site_fract_x
_atom_site_fract_y
_atom_site_fract_z
S1 S 0.71929(9) 0.20509(6) 0.60242(5)
C1 C 0.6945(3) 0.3099(2) 0.70546(19)
C2 C 0.5424(4) 0.3101(2) 0.7689(2)
H1 H 0.4428 0.2470 0.7613
C3 C 0.5404(4) 0.4044(3) 0.8431(2)
H2 H 0.4379 0.4061 0.8870
C4 C 0.6863(4) 0.4969(3) 0.8544(2)
H3 H 0.6823 0.5608 0.9060
C5 C 0.8371(4) 0.4967(2) 0.7913(2)
H4 H 0.9358 0.5602 0.7994
C6 C 0.8433(3) 0.4026(2) 0.71571(18)
C7 C 0.9821(3) 0.3858(2) 0.64018(18)
C8 C 0.9316(3) 0.2836(2) 0.57260(19)
C9 C 1.0422(4) 0.2539(2) 0.4917(2)
H5 H 1.0058 0.1852 0.4458
C10 C 1.2059(3) 0.3264(2) 0.47954(19)
H6 H 1.2825 0.3063 0.4247
C11 C 1.2629(3) 0.4297(2) 0.54630(18)
C12 C 1.1484(3) 0.4577(2) 0.62587(19)
H7 H 1.1838 0.5269 0.6714
C13 C 1.4366(3) 0.5070(2) 0.53531(19)
H8 H 1.4619 0.5745 0.5838
S1B S 2.28071(9) 0.79491(6) 0.39758(5)
C1B C 2.3055(3) 0.6901(2) 0.29454(19)
C2B C 2.4576(4) 0.6899(2) 0.2311(2)
H1B H 2.5572 0.7530 0.2387
C3B C 2.4596(4) 0.5956(3) 0.1569(2)
H2B H 2.5621 0.5939 0.1130
C4B C 2.3137(4) 0.5031(3) 0.1456(2)
H3B H 2.3177 0.4392 0.0940
C5B C 2.1629(4) 0.5033(2) 0.2087(2)
H4B H 2.0642 0.4398 0.2006
C6B C 2.1567(3) 0.5974(2) 0.28429(18)
C7B C 2.0179(3) 0.6142(2) 0.35982(18)
C8B C 2.0684(3) 0.7164(2) 0.42740(19)
C9B C 1.9578(4) 0.7461(2) 0.5083(2)
H5B H 1.9942 0.8148 0.5542
C10B C 1.7941(3) 0.6736(2) 0.52046(19)
H6B H 1.7175 0.6937 0.5753
C11B C 1.7371(3) 0.5703(2) 0.45370(18)
C12B C 1.8516(3) 0.5423(2) 0.37413(19)
H7B H 1.8162 0.4731 0.3286
C13B C 1.5634(3) 0.4930(2) 0.46469(19)
H8B H 1.5381 0.4255 0.4162
loop_
_geom_bond_atom_site_label_1
_geom_bond_atom_site_label_2
_geom_bond_site_symmetry_1
_geom_bond_site_symmetry_2
S1 C1 1_555 1_555
C1 C2 1_555 1_555
C2 H1 1_555 1_555
C3 C2 1_555 1_555
H2 C3 1_555 1_555
C4 C3 1_555 1_555
H3 C4 1_555 1_555
C5 C4 1_555 1_555
H4 C5 1_555 1_555
C6 C1 1_555 1_555
C7 C6 1_555 1_555
C8 S1 1_555 1_555
C9 C8 1_555 1_555
H5 C9 1_555 1_555
C10 C9 1_555 1_555
H6 C10 1_555 1_555
C11 C10 1_555 1_555
C12 C7 1_555 1_555
H7 C12 1_555 1_555
C13 C11 1_555 1_555
H8 C13 1_555 1_555
S1B C1B 1_555 1_555
C1B C2B 1_555 1_555
C2B H1B 1_555 1_555
C3B C2B 1_555 1_555
H2B C3B 1_555 1_555
C4B C3B 1_555 1_555
H3B C4B 1_555 1_555
C5B C4B 1_555 1_555
H4B C5B 1_555 1_555
C6B C1B 1_555 1_555
C7B C6B 1_555 1_555
C8B S1B 1_555 1_555
C9B C8B 1_555 1_555
H5B C9B 1_555 1_555
C10B C9B 1_555 1_555
H6B C10B 1_555 1_555
C11B C10B 1_555 1_555
C12B C7B 1_555 1_555
H7B C12B 1_555 1_555
C13B C13 1_555 1_555
H8B C13B 1_555 1_555
C5 C6 1_555 1_555
C7 C8 1_555 1_555
C11 C12 1_555 1_555
C5B C6B 1_555 1_555
C7B C8B 1_555 1_555
C11B C12B 1_555 1_555
C11B C13B 1_555 1_555

#END
