
#######################################################################
#
#                 Cambridge Crystallographic Data Centre
#                                CCDC 
#
#######################################################################
#
# If this CIF has been generated from an entry in the Cambridge 
# Structural Database, then it will include bibliographic, chemical, 
# crystal, experimental, refinement or atomic coordinate data resulting 
# from the CCDC's data processing and validation procedures.
#
#######################################################################

data_SANCES
_chemical_formula_moiety         'C15 H22 N2 O5 S1'
_chemical_name_systematic        
N-[1-(2,2-dimethyl-5-nitro-1,3-dioxan-5-yl)ethyl]-4-methylbenzene-1-sulfinamide
_symmetry_cell_setting           orthorhombic
_symmetry_space_group_name_H-M   'P 21 21 21'
_symmetry_Int_Tables_number      19
_space_group_name_Hall           'P 2ac 2ab'
loop_
_symmetry_equiv_pos_site_id
_symmetry_equiv_pos_as_xyz
1 x,y,z
2 1/2-x,-y,1/2+z
3 -x,1/2+y,1/2-z
4 1/2+x,1/2-y,-z
_cell_length_a                   6.34080(10)
_cell_length_b                   11.5200(2)
_cell_length_c                   23.2360(5)
_cell_angle_alpha                90
_cell_angle_beta                 90
_cell_angle_gamma                90
_cell_volume                     1697.3
_exptl_crystal_colour            colorless
_exptl_crystal_description       Block
_cell_formula_units_Z            4
loop_
_atom_site_label
_atom_site_type_symbol
_atom_site_fract_x
_atom_site_fract_y
_atom_site_fract_z
C1 C 1.0819(3) 0.81225(15) 0.89171(7)
H1 H 1.1759 0.8809 0.8858
C2 C 0.9026(3) 0.82260(15) 0.84643(7)
N1 N 0.8299(2) 0.69946(14) 0.83196(7)
O1 O 0.7256(3) 0.64890(12) 0.86879(6)
O2 O 0.8840(3) 0.65567(14) 0.78663(7)
C3 C 0.9865(3) 0.88081(19) 0.79224(8)
H2 H 1.0487 0.9569 0.8025
H3 H 1.0997 0.8322 0.7755
O3 O 0.8261(2) 0.89772(15) 0.75054(6)
C4 C 0.6434(3) 0.95550(18) 0.77054(8)
O4 O 0.5613(2) 0.89759(12) 0.82036(5)
C5 C 0.7087(3) 0.88862(16) 0.86653(7)
H4 H 0.6429 0.8475 0.8993
H5 H 0.7499 0.9672 0.8796
C6 C 1.2202(3) 0.70550(17) 0.88452(9)
H6 H 1.3380 0.7092 0.9117
H7 H 1.2751 0.7028 0.8451
H8 H 1.1365 0.6356 0.8921
N2 N 0.9999(2) 0.82164(13) 0.95086(6)
H9 H 0.8854 0.7840 0.9613
S1 S 1.12859(7) 0.90493(4) 0.997193(17)
O5 O 1.3622(2) 0.89028(12) 0.99095(6)
C7 C 1.0745(3) 1.04246(15) 0.96450(7)
C8 C 1.2250(3) 1.09868(17) 0.93166(8)
H10 H 1.3602 1.0651 0.9260
C9 C 1.1750(4) 1.20591(18) 0.90682(9)
H11 H 1.2761 1.2440 0.8833
C10 C 0.9803(4) 1.25742(16) 0.91597(9)
C11 C 0.8347(4) 1.20023(18) 0.95004(9)
H12 H 0.7011 1.2349 0.9569
C12 C 0.8799(3) 1.09342(17) 0.97432(8)
H13 H 0.7781 1.0553 0.9976
C13 C 0.9315(5) 1.3748(2) 0.89079(11)
H14 H 0.7807 1.3796 0.8818
H15 H 1.0136 1.3859 0.8555
H16 H 0.9683 1.4354 0.9187
C14 C 0.4836(4) 0.9376(2) 0.72300(9)
H17 H 0.5390 0.9694 0.6869
H18 H 0.3520 0.9774 0.7330
H19 H 0.4562 0.8544 0.7183
C15 C 0.6819(4) 1.0841(2) 0.78310(11)
H20 H 0.7886 1.0917 0.8134
H21 H 0.5501 1.1203 0.7959
H22 H 0.7317 1.1228 0.7481
loop_
_geom_bond_atom_site_label_1
_geom_bond_atom_site_label_2
_geom_bond_site_symmetry_1
_geom_bond_site_symmetry_2
C1 H1 1_555 1_555
C2 C1 1_555 1_555
N1 C2 1_555 1_555
O1 N1 1_555 1_555
O2 N1 1_555 1_555
C3 C2 1_555 1_555
H2 C3 1_555 1_555
H3 C3 1_555 1_555
O3 C3 1_555 1_555
C4 O3 1_555 1_555
O4 C4 1_555 1_555
C5 C2 1_555 1_555
H4 C5 1_555 1_555
H5 C5 1_555 1_555
C6 C1 1_555 1_555
H6 C6 1_555 1_555
H7 C6 1_555 1_555
H8 C6 1_555 1_555
N2 C1 1_555 1_555
H9 N2 1_555 1_555
S1 N2 1_555 1_555
O5 S1 1_555 1_555
C7 S1 1_555 1_555
C8 C7 1_555 1_555
H10 C8 1_555 1_555
C9 C8 1_555 1_555
H11 C9 1_555 1_555
C10 C9 1_555 1_555
C11 C10 1_555 1_555
H12 C11 1_555 1_555
C12 C7 1_555 1_555
H13 C12 1_555 1_555
C13 C10 1_555 1_555
H14 C13 1_555 1_555
H15 C13 1_555 1_555
H16 C13 1_555 1_555
C14 C4 1_555 1_555
H17 C14 1_555 1_555
H18 C14 1_555 1_555
H19 C14 1_555 1_555
C15 C4 1_555 1_555
H20 C15 1_555 1_555
H21 C15 1_555 1_555
H22 C15 1_555 1_555
O4 C5 1_555 1_555
C11 C12 1_555 1_555

#END
