
#######################################################################
#
#                 Cambridge Crystallographic Data Centre
#                                CCDC 
#
#######################################################################
#
# If this CIF has been generated from an entry in the Cambridge 
# Structural Database, then it will include bibliographic, chemical, 
# crystal, experimental, refinement or atomic coordinate data resulting 
# from the CCDC's data processing and validation procedures.
#
#######################################################################

data_SANDES
_chemical_formula_moiety         'C42 H24 Cl2 N6 O4,0.5(C7 H8)'
_chemical_name_systematic        
'14,34-Dichloro-11,17,31,37-tetraoxa-13,15,33,35,43,49-hexaazanonacyclo[36.2.2.2^7,10^.2^18,21^.2^27,30^.1^2,6^.1^12,16^.1^22,26^.1^32,36^]dopentaconta-1(40),2(52),3,5,7,9,12(49),13,15,18,20,22(46),23,25,27,29,32(43),33,35,38,41,44,47,50-tetracosaene toluene solvate'
_symmetry_cell_setting           orthorhombic
_symmetry_space_group_name_H-M   'P b c a'
_symmetry_Int_Tables_number      61
_space_group_name_Hall           '-P 2ac 2ab'
loop_
_symmetry_equiv_pos_site_id
_symmetry_equiv_pos_as_xyz
1 x,y,z
2 1/2-x,-y,1/2+z
3 -x,1/2+y,1/2-z
4 1/2+x,1/2-y,-z
5 -x,-y,-z
6 1/2+x,y,1/2-z
7 x,1/2-y,1/2+z
8 1/2-x,1/2+y,z
_cell_length_a                   7.8703(3)
_cell_length_b                   29.1424(11)
_cell_length_c                   32.8759(11)
_cell_angle_alpha                90
_cell_angle_beta                 90
_cell_angle_gamma                90
_cell_volume                     7540.4
_exptl_crystal_colour            colorless
_exptl_crystal_description       block
_cell_formula_units_Z            8
loop_
_atom_site_label
_atom_site_type_symbol
_atom_site_fract_x
_atom_site_fract_y
_atom_site_fract_z
Cl1 Cl -0.1206(2) 1.07351(4) 0.27278(5)
Cl2 Cl 0.25438(16) 0.50099(4) 0.62492(3)
O1 O -0.1185(3) 0.90896(9) 0.27427(7)
O2 O 0.0282(3) 0.57497(9) 0.50574(8)
O3 O 0.4869(3) 0.64056(9) 0.56859(7)
O4 O 0.3115(4) 0.98471(9) 0.33982(9)
N1 N -0.1135(5) 0.98526(12) 0.27378(10)
N2 N 0.1074(4) 0.94399(10) 0.30601(9)
N3 N 0.1081(5) 1.02505(11) 0.30862(10)
N4 N 0.1334(4) 0.54270(10) 0.56223(9)
N5 N 0.3726(4) 0.57629(11) 0.59491(9)
N6 N 0.2608(4) 0.60937(10) 0.53466(9)
C1 C -0.0309(6) 1.02213(14) 0.28641(13)
C2 C -0.0354(5) 0.94705(13) 0.28555(10)
C3 C 0.1699(5) 0.98391(13) 0.31703(11)
C4 C -0.0568(5) 0.86493(13) 0.28449(10)
C5 C -0.0738(5) 0.83230(13) 0.25483(11)
H1 H -0.1193 0.8402 0.2290
C6 C -0.0242(5) 0.78797(13) 0.26281(11)
H2 H -0.0354 0.7654 0.2422
C7 C 0.0418(5) 0.77555(13) 0.30031(10)
C8 C 0.0522(5) 0.80920(13) 0.33022(11)
H3 H 0.0940 0.8012 0.3564
C9 C 0.0034(5) 0.85402(13) 0.32275(10)
H4 H 0.0110 0.8767 0.3434
C10 C 0.1009(5) 0.72822(13) 0.30824(11)
C11 C 0.1891(6) 0.70357(14) 0.27856(11)
H5 H 0.2080 0.7170 0.2526
C12 C 0.2491(6) 0.66000(15) 0.28650(12)
H6 H 0.3115 0.6439 0.2663
C13 C 0.2188(6) 0.63970(14) 0.32372(12)
H7 H 0.2596 0.6096 0.3289
C14 C 0.1291(6) 0.66294(13) 0.35378(12)
C15 C 0.0725(5) 0.70711(13) 0.34566(11)
H8 H 0.0128 0.7234 0.3662
C16 C 0.0958(6) 0.64110(14) 0.39379(12)
C17 C 0.0573(8) 0.59480(15) 0.39690(14)
H9 H 0.0460 0.5770 0.3728
C18 C 0.0351(7) 0.57408(15) 0.43416(14)
H10 H 0.0082 0.5424 0.4358
C19 C 0.0522(5) 0.59975(14) 0.46891(12)
C20 C 0.0829(5) 0.64591(13) 0.46730(12)
H11 H 0.0889 0.6636 0.4915
C21 C 0.1050(5) 0.66620(13) 0.42978(12)
H12 H 0.1271 0.6982 0.4284
C22 C 0.1461(5) 0.57633(13) 0.53480(11)
C23 C 0.2520(5) 0.54501(13) 0.59027(11)
C24 C 0.3682(5) 0.60762(13) 0.56557(10)
C25 C 0.5100(5) 0.66754(13) 0.53313(10)
C26 C 0.4187(5) 0.70706(14) 0.52766(12)
H13 H 0.3451 0.7182 0.5483
C27 C 0.4366(5) 0.73043(13) 0.49111(12)
H14 H 0.3725 0.7576 0.4868
C28 C 0.5453(5) 0.71526(13) 0.46074(11)
C29 C 0.6436(5) 0.67662(14) 0.46902(11)
H15 H 0.7240 0.6664 0.4494
C30 C 0.6264(5) 0.65278(14) 0.50520(11)
H16 H 0.6945 0.6266 0.5105
C31 C 0.5549(5) 0.73767(13) 0.42031(11)
C32 C 0.5227(4) 0.78400(13) 0.41492(10)
H17 H 0.4904 0.8019 0.4378
C33 C 0.5361(5) 0.80528(14) 0.37684(11)
C34 C 0.5851(6) 0.77821(16) 0.34413(12)
H18 H 0.5985 0.7920 0.3181
C35 C 0.6146(7) 0.73192(17) 0.34846(13)
H19 H 0.6460 0.7140 0.3255
C36 C 0.5986(6) 0.71155(16) 0.38618(12)
H20 H 0.6175 0.6795 0.3890
C37 C 0.4891(5) 0.85398(14) 0.37041(11)
C38 C 0.3646(5) 0.87523(14) 0.39309(12)
H21 H 0.3179 0.8595 0.4158
C39 C 0.3057(5) 0.91849(15) 0.38403(12)
H22 H 0.2199 0.9325 0.4001
C40 C 0.3749(5) 0.94096(14) 0.35086(12)
C41 C 0.5047(5) 0.92245(14) 0.32860(12)
H23 H 0.5545 0.9391 0.3068
C42 C 0.5618(5) 0.87896(14) 0.33861(11)
H24 H 0.6524 0.8658 0.3235
C43? C 0.1421(10) 0.9925(3) 0.4825(2)
H25? H 0.2467 0.9865 0.4691
C44? C 0.1164(11) 0.9697(3) 0.5138(2)
H26? H 0.2039 0.9494 0.5224
C45? C 0.0312(12) 1.0285(3) 0.4624(3)
H27? H 0.0562 1.0461 0.4385
C46? C 0.032(2) 1.0694(5) 0.4215(4)
H28? H -0.0771 1.0855 0.4208
H29? H 0.0502 1.0533 0.3957
H30? H 0.1239 1.0916 0.4259
loop_
_geom_bond_atom_site_label_1
_geom_bond_atom_site_label_2
_geom_bond_site_symmetry_1
_geom_bond_site_symmetry_2
Cl1 C1 1_555 1_555
Cl2 C23 1_555 1_555
O1 C2 1_555 1_555
O2 C19 1_555 1_555
O3 C24 1_555 1_555
O4 C3 1_555 1_555
N1 C1 1_555 1_555
N2 C2 1_555 1_555
N3 C1 1_555 1_555
N4 C22 1_555 1_555
N5 C23 1_555 1_555
N6 C22 1_555 1_555
C2 N1 1_555 1_555
C3 N2 1_555 1_555
C4 O1 1_555 1_555
C5 C4 1_555 1_555
H1 C5 1_555 1_555
C6 C5 1_555 1_555
H2 C6 1_555 1_555
C7 C6 1_555 1_555
C8 C7 1_555 1_555
H3 C8 1_555 1_555
C9 C4 1_555 1_555
H4 C9 1_555 1_555
C10 C7 1_555 1_555
C11 C10 1_555 1_555
H5 C11 1_555 1_555
C12 C11 1_555 1_555
H6 C12 1_555 1_555
C13 C12 1_555 1_555
H7 C13 1_555 1_555
C14 C13 1_555 1_555
C15 C10 1_555 1_555
H8 C15 1_555 1_555
C16 C14 1_555 1_555
C17 C16 1_555 1_555
H9 C17 1_555 1_555
C18 C17 1_555 1_555
H10 C18 1_555 1_555
C19 C18 1_555 1_555
C20 C19 1_555 1_555
H11 C20 1_555 1_555
C21 C16 1_555 1_555
H12 C21 1_555 1_555
C22 O2 1_555 1_555
C23 N4 1_555 1_555
C24 N5 1_555 1_555
C25 O3 1_555 1_555
C26 C25 1_555 1_555
H13 C26 1_555 1_555
C27 C26 1_555 1_555
H14 C27 1_555 1_555
C28 C27 1_555 1_555
C29 C28 1_555 1_555
H15 C29 1_555 1_555
C30 C25 1_555 1_555
H16 C30 1_555 1_555
C31 C28 1_555 1_555
C32 C31 1_555 1_555
H17 C32 1_555 1_555
C33 C32 1_555 1_555
C34 C33 1_555 1_555
H18 C34 1_555 1_555
C35 C34 1_555 1_555
H19 C35 1_555 1_555
C36 C31 1_555 1_555
H20 C36 1_555 1_555
C37 C33 1_555 1_555
C38 C37 1_555 1_555
H21 C38 1_555 1_555
C39 C38 1_555 1_555
H22 C39 1_555 1_555
C40 O4 1_555 1_555
C41 C40 1_555 1_555
H23 C41 1_555 1_555
C42 C37 1_555 1_555
H24 C42 1_555 1_555
N3 C3 1_555 1_555
N6 C24 1_555 1_555
C8 C9 1_555 1_555
C14 C15 1_555 1_555
C20 C21 1_555 1_555
C29 C30 1_555 1_555
C35 C36 1_555 1_555
C39 C40 1_555 1_555
C41 C42 1_555 1_555

#END
