
#######################################################################
#
#                 Cambridge Crystallographic Data Centre
#                                CCDC 
#
#######################################################################
#
# If this CIF has been generated from an entry in the Cambridge 
# Structural Database, then it will include bibliographic, chemical, 
# crystal, experimental, refinement or atomic coordinate data resulting 
# from the CCDC's data processing and validation procedures.
#
#######################################################################

data_SANGAS
_chemical_formula_moiety         'C13 H17 N1 O5 S1'
_chemical_name_systematic        
5-(3,4-Dimethoxyphenyl)-4-methyl-4-nitrotetrahydrothiophene-3-ol
_symmetry_cell_setting           orthorhombic
_symmetry_space_group_name_H-M   'P 21 21 21'
_symmetry_Int_Tables_number      19
_space_group_name_Hall           'P 2ac 2ab'
loop_
_symmetry_equiv_pos_site_id
_symmetry_equiv_pos_as_xyz
1 x,y,z
2 1/2-x,-y,1/2+z
3 1/2+x,1/2-y,-z
4 -x,1/2+y,1/2-z
_cell_length_a                   7.0971(8)
_cell_length_b                   10.2415(11)
_cell_length_c                   19.154(2)
_cell_angle_alpha                90
_cell_angle_beta                 90
_cell_angle_gamma                90
_cell_volume                     1392.21
_exptl_crystal_colour            colorless
_exptl_crystal_description       block
_cell_formula_units_Z            4
loop_
_atom_site_label
_atom_site_type_symbol
_atom_site_fract_x
_atom_site_fract_y
_atom_site_fract_z
C1 C 0.3381(2) 0.78194(13) 0.09604(7)
C2 C 0.4658(2) 0.85185(12) 0.14934(6)
C3 C 0.4934(2) 0.98860(13) 0.11727(7)
C4 C 0.5728(2) 0.96287(14) 0.04465(8)
C5 C 0.6483(2) 0.78283(15) 0.16668(9)
C6 C 0.3075(2) 0.63766(13) 0.10697(7)
C7 C 0.1462(2) 0.59836(13) 0.14215(7)
C8 C 0.1098(2) 0.46699(14) 0.15463(7)
C9 C 0.2329(2) 0.37310(13) 0.13081(7)
C10 C 0.39734(19) 0.41140(13) 0.09479(7)
C11 C 0.4335(2) 0.54254(12) 0.08324(7)
C12 C 0.6726(2) 0.34611(16) 0.03326(9)
C13 C 0.0345(2) 0.20051(16) 0.16839(10)
N1 N 0.3505(2) 0.86889(12) 0.21641(7)
O1 O 0.61423(19) 1.06482(11) 0.15892(6)
O2 O 0.1972(2) 0.92218(15) 0.21141(8)
O3 O 0.4107(2) 0.82688(14) 0.27071(6)
O4 O 0.20959(15) 0.24154(10) 0.13889(6)
O5 O 0.50990(14) 0.31091(9) 0.07269(5)
S1 S 0.44325(5) 0.82310(3) 0.011261(18)
H1 H 0.2117 0.8250 0.0980
H2 H 0.3684 1.0331 0.1131
H3 H 0.7092 0.9432 0.0472
H4 H 0.5543 1.0398 0.0141
H5 H 0.7273 0.8401 0.1953
H6 H 0.7149 0.7612 0.1234
H7 H 0.6208 0.7025 0.1925
H8 H 0.0592 0.6623 0.1580
H9 H 0.0000 0.4420 0.1796
H10 H 0.5445 0.5680 0.0591
H11 H 0.6336 0.3912 -0.0095
H12 H 0.7433 0.2672 0.0210
H13 H 0.7526 0.4041 0.0612
H14 H 0.0251 0.2325 0.2165
H15 H 0.0281 0.1049 0.1682
H16 H -0.0697 0.2360 0.1407
H17 H 0.5804 1.1338 0.1565
loop_
_geom_bond_atom_site_label_1
_geom_bond_atom_site_label_2
_geom_bond_site_symmetry_1
_geom_bond_site_symmetry_2
C1 C2 1_555 1_555
C2 C3 1_555 1_555
C3 C4 1_555 1_555
C4 S1 1_555 1_555
C5 C2 1_555 1_555
C6 C1 1_555 1_555
C7 C6 1_555 1_555
C8 C7 1_555 1_555
C9 C8 1_555 1_555
C10 C9 1_555 1_555
C11 C6 1_555 1_555
C12 O5 1_555 1_555
C13 O4 1_555 1_555
N1 C2 1_555 1_555
O1 C3 1_555 1_555
O2 N1 1_555 1_555
O3 N1 1_555 1_555
O4 C9 1_555 1_555
O5 C10 1_555 1_555
S1 C1 1_555 1_555
H1 C1 1_555 1_555
H2 C3 1_555 1_555
H3 C4 1_555 1_555
H4 C4 1_555 1_555
H5 C5 1_555 1_555
H6 C5 1_555 1_555
H7 C5 1_555 1_555
H8 C7 1_555 1_555
H9 C8 1_555 1_555
H10 C11 1_555 1_555
H11 C12 1_555 1_555
H12 C12 1_555 1_555
H13 C12 1_555 1_555
H14 C13 1_555 1_555
H15 C13 1_555 1_555
H16 C13 1_555 1_555
H17 O1 1_555 1_555
C10 C11 1_555 1_555

#END
