
#######################################################################
#
#                 Cambridge Crystallographic Data Centre
#                                CCDC 
#
#######################################################################
#
# If this CIF has been generated from an entry in the Cambridge 
# Structural Database, then it will include bibliographic, chemical, 
# crystal, experimental, refinement or atomic coordinate data resulting 
# from the CCDC's data processing and validation procedures.
#
#######################################################################

data_SANHAS
_chemical_formula_moiety         'C72 H86 N4 O7,2(C1 H2 Cl2),2(C1 H4 O1),H2 O1'
_chemical_name_systematic        
'25,27-((2,7,7,12,17,17-Hexamethylcalix(4)pyrrol-2,12-diyl)dipentoxy)-26,28-(3,6,9-trioxaundecane-1,11-dioxy)calix(4)arene dichloromethane methanol solvate monohydrate'
_symmetry_cell_setting           triclinic
_symmetry_space_group_name_H-M   'P -1'
_symmetry_Int_Tables_number      2
_space_group_name_Hall           '-P 1'
loop_
_symmetry_equiv_pos_site_id
_symmetry_equiv_pos_as_xyz
1 x,y,z
2 -x,-y,-z
_cell_length_a                   13.2387(3)
_cell_length_b                   16.7314(3)
_cell_length_c                   18.2737(4)
_cell_angle_alpha                65.837(1)
_cell_angle_beta                 79.697(1)
_cell_angle_gamma                89.316(1)
_cell_volume                     3625
_exptl_crystal_colour            yellow
_exptl_crystal_description       plate
_cell_formula_units_Z            2
loop_
_atom_site_label
_atom_site_type_symbol
_atom_site_fract_x
_atom_site_fract_y
_atom_site_fract_z
Cl1 Cl -0.19898(12) 0.99491(10) 0.26441(11)
Cl2 Cl -0.13555(19) 0.97489(13) 0.11085(14)
C74 C -0.1429(5) 1.0450(4) 0.1606(4)
H93 H -0.1833 1.0949 0.1330
H94 H -0.0726 1.0689 0.1551
O1 O 0.4743(2) 0.92380(18) 0.35253(18)
O2 O 0.3205(3) 1.1617(2) 0.2531(3)
O3 O 0.3471(2) 0.9771(2) 0.16608(19)
O4 O 0.1162(2) 0.9357(2) 0.3305(2)
N1 N 0.0618(3) 0.6363(2) 0.7067(2)
H1 H 0.1066 0.6471 0.6613
N2 N 0.3087(3) 0.6262(2) 0.7141(2)
H2 H 0.2893 0.6386 0.6672
N3 N 0.3051(3) 0.4290(2) 0.7192(2)
H3 H 0.2694 0.4407 0.7588
N4 N 0.0528(3) 0.4381(2) 0.7128(2)
H4 H 0.0712 0.4513 0.7507
C1 C -0.0330(3) 0.5910(3) 0.7282(3)
C2 C -0.0786(4) 0.5885(3) 0.8015(3)
H5 H -0.1449 0.5619 0.8312
C3 C -0.0099(4) 0.6325(3) 0.8262(3)
H6 H -0.0219 0.6399 0.8758
C4 C 0.0757(4) 0.6622(3) 0.7671(3)
C5 C 0.1737(3) 0.7136(3) 0.7613(3)
C6 C 0.2635(3) 0.6554(3) 0.7725(3)
C7 C 0.3152(4) 0.6219(3) 0.8355(3)
H7 H 0.3012 0.6304 0.8846
C8 C 0.3937(4) 0.5721(3) 0.8151(3)
H8 H 0.4419 0.5418 0.8478
C9 C 0.3876(3) 0.5754(3) 0.7402(3)
C10 C 0.4561(3) 0.5395(3) 0.6867(3)
C11 C 0.3986(3) 0.4705(3) 0.6728(3)
C12 C 0.4275(4) 0.4336(3) 0.6189(3)
H9 H 0.4892 0.4488 0.5791
C13 C 0.3504(4) 0.3691(3) 0.6323(3)
H10 H 0.3509 0.3338 0.6027
C14 C 0.2754(4) 0.3663(3) 0.6948(3)
C15 C 0.1720(4) 0.3137(3) 0.7304(3)
C16 C 0.0886(3) 0.3695(3) 0.6938(3)
C17 C 0.0406(4) 0.3706(3) 0.6331(4)
H11 H 0.0496 0.3309 0.6077
C18 C -0.0245(4) 0.4409(3) 0.6144(4)
H12 H -0.0670 0.4565 0.5746
C19 C -0.0158(3) 0.4830(3) 0.6641(3)
C20 C -0.0728(3) 0.5596(3) 0.6705(3)
C21 C 0.1547(4) 0.7453(4) 0.8305(4)
H13 H 0.1399 0.6944 0.8834
H14 H 0.0960 0.7821 0.8245
H15 H 0.2161 0.7794 0.8275
C22 C 0.1977(4) 0.7943(3) 0.6798(3)
H16 H 0.2606 0.8265 0.6772
H17 H 0.1403 0.8325 0.6751
H18 H 0.2077 0.7756 0.6348
C23 C 0.5448(3) 0.4953(3) 0.7300(3)
H19 H 0.5818 0.5377 0.7417
H20 H 0.5922 0.4749 0.6945
H21 H 0.5166 0.4451 0.7813
C24 C 0.4991(3) 0.6135(3) 0.6026(3)
H22 H 0.5464 0.5885 0.5702
H23 H 0.4414 0.6361 0.5737
C25 C 0.5570(3) 0.6908(3) 0.6055(3)
H24 H 0.5106 0.7151 0.6389
H25 H 0.6162 0.6688 0.6328
C26 C 0.5963(3) 0.7641(3) 0.5213(3)
H26 H 0.6367 0.8094 0.5278
H27 H 0.6434 0.7397 0.4883
C27 C 0.5119(3) 0.8079(3) 0.4747(3)
H28 H 0.4753 0.7645 0.4630
H29 H 0.4614 0.8287 0.5089
C28 C 0.5559(3) 0.8843(3) 0.3957(3)
H30 H 0.5916 0.9284 0.4071
H31 H 0.6067 0.8639 0.3614
C29 C 0.5142(3) 0.9931(3) 0.2772(3)
C30 C 0.5223(4) 1.0768(3) 0.2733(4)
C31 C 0.5718(6) 1.1430(4) 0.1973(6)
H32 H 0.5791 1.2019 0.1915
C32 C 0.6094(6) 1.1228(7) 0.1316(6)
H33 H 0.6464 1.1667 0.0822
C33 C 0.5935(5) 1.0422(6) 0.1380(4)
H34 H 0.6164 1.0305 0.0912
C34 C 0.5453(4) 0.9740(4) 0.2094(3)
C35 C 0.4820(5) 1.0967(4) 0.3455(5)
H35 H 0.4964 1.1602 0.3293
H36 H 0.5210 1.0646 0.3890
C36 C 0.3684(5) 1.0743(4) 0.3813(4)
C37 C 0.2919(5) 1.1067(4) 0.3347(4)
C38 C 0.1877(5) 1.0814(4) 0.3682(4)
C39 C 0.1606(6) 1.0277(4) 0.4498(5)
H37 H 0.0901 1.0113 0.4741
C40 C 0.2364(9) 0.9966(4) 0.4979(5)
H38 H 0.2172 0.9600 0.5545
C41 C 0.3384(8) 1.0196(5) 0.4623(5)
H39 H 0.3894 0.9971 0.4947
C42 C 0.3290(6) 1.2526(4) 0.2380(4)
H40 H 0.3811 1.2629 0.2664
H41 H 0.2621 1.2706 0.2584
C43 C 0.3601(7) 1.3044(6) 0.1479(5)
H42 H 0.3923 1.2664 0.1244
H43 H 0.4102 1.3504 0.1381
O5 O 0.2833(7) 1.3394(6) 0.1106(5)
C44 C 0.2952(11) 1.3977(7) 0.0269(7)
H44 H 0.3614 1.4287 0.0119
H45 H 0.2442 1.4400 0.0215
C45 C 0.2940(11) 1.3599(9) -0.0295(8)
H46 H 0.2965 1.4042 -0.0838
H47 H 0.2318 1.3230 -0.0130
O6 O 0.3824(6) 1.3122(6) -0.0255(5)
C46 C 0.3928(10) 1.2739(8) -0.0868(7)
H48 H 0.3978 1.3225 -0.1392
H49 H 0.3289 1.2410 -0.0763
C47 C 0.4494(12) 1.2304(8) -0.0898(8)
H50 H 0.5110 1.2613 -0.0916
H51 H 0.4545 1.2314 -0.1433
O7 O 0.4580(7) 1.1289(5) -0.0305(5)
C48 C 0.3915(5) 1.1061(4) 0.0456(3)
H52 H 0.4373 1.1233 0.0725
H53 H 0.3263 1.1300 0.0537
C49 C 0.3782(4) 1.0068(4) 0.0799(3)
H54 H 0.3252 0.9884 0.0569
H55 H 0.4438 0.9822 0.0666
C50 C 0.3356(4) 0.8856(3) 0.2098(3)
C51 C 0.4201(4) 0.8407(3) 0.2377(3)
C52 C 0.4057(5) 0.7509(4) 0.2845(3)
H56 H 0.4623 0.7189 0.3036
C53 C 0.3105(5) 0.7075(4) 0.3036(4)
H57 H 0.3017 0.6460 0.3362
C54 C 0.2276(5) 0.7532(4) 0.2754(3)
H58 H 0.1624 0.7225 0.2885
C55 C 0.2381(4) 0.8436(3) 0.2281(3)
C56 C 0.5288(4) 0.8829(4) 0.2138(3)
H59 H 0.5693 0.8434 0.2531
H60 H 0.5589 0.8845 0.1595
C57 C 0.1456(4) 0.8885(4) 0.1953(4)
H61 H 0.0832 0.8522 0.2317
H62 H 0.1483 0.8880 0.1410
C58 C 0.1318(4) 0.9824(3) 0.1860(3)
C59 C 0.1205(3) 1.0027(3) 0.2530(3)
C60 C 0.1140(4) 1.0896(3) 0.2438(4)
C61 C 0.1156(4) 1.1537(4) 0.1653(5)
H63 H 0.1137 1.2136 0.1568
C62 C 0.1199(5) 1.1323(5) 0.0996(4)
H64 H 0.1161 1.1766 0.0473
C63 C 0.1295(4) 1.0485(5) 0.1101(4)
H65 H 0.1348 1.0344 0.0642
C64 C 0.1063(5) 1.1139(4) 0.3160(5)
H66 H 0.1088 1.1788 0.2951
H67 H 0.0381 1.0911 0.3516
C65 C 0.0110(3) 0.9028(3) 0.3696(3)
H68 H -0.0219 0.8841 0.3340
H69 H -0.0283 0.9498 0.3784
C66 C 0.0095(3) 0.8258(3) 0.4506(3)
H70 H 0.0422 0.8447 0.4861
H71 H 0.0496 0.7792 0.4417
C67 C -0.1004(3) 0.7896(3) 0.4925(3)
H72 H -0.1420 0.8387 0.4939
H73 H -0.1295 0.7649 0.4593
C68 C -0.1111(4) 0.7193(3) 0.5790(3)
H74 H -0.1851 0.7050 0.6035
H75 H -0.0796 0.7431 0.6117
C69 C -0.0609(3) 0.6347(3) 0.5842(3)
H76 H 0.0135 0.6493 0.5611
H77 H -0.0903 0.6129 0.5491
C70 C -0.1879(4) 0.5292(3) 0.7037(3)
H78 H -0.2151 0.5119 0.6655
H79 H -0.2258 0.5775 0.7098
H80 H -0.1957 0.4790 0.7570
C71 C 0.1791(4) 0.2345(4) 0.7069(4)
H81 H 0.1146 0.1976 0.7309
H82 H 0.2362 0.2000 0.7276
H83 H 0.1911 0.2558 0.6473
C72 C 0.1485(5) 0.2773(4) 0.8231(4)
H84 H 0.1493 0.3258 0.8401
H85 H 0.2007 0.2370 0.8452
H86 H 0.0805 0.2457 0.8438
O8 O 0.2692(2) 0.83179(19) 0.42953(19)
H87 H 0.3364 0.8559 0.4053
H88 H 0.2239 0.8560 0.4017
O9 O 0.2275(2) 0.6722(2) 0.56008(18)
H89 H 0.2449 0.7346 0.5125
C73 C 0.2336(4) 0.6042(3) 0.5304(3)
H90 H 0.1801 0.6090 0.5000
H91 H 0.2260 0.5475 0.5755
H92 H 0.2993 0.6099 0.4958
Cl3 Cl -0.1265(3) 0.2126(2) 0.95962(17)
Cl4 Cl -0.2506(4) 0.3611(2) 0.93933(17)
C76 C -0.1757(13) 0.3039(7) 0.8912(6)
H99 H -0.2180 0.2846 0.8611
H100 H -0.1180 0.3438 0.8509
O10 O 0.1347(4) 0.4629(2) 0.8490(2)
H95 H 0.1413 0.5177 0.8326
C75 C 0.0819(12) 0.4261(6) 0.9289(5)
H96 H 0.1276 0.4063 0.9672
H97 H 0.0383 0.3773 0.9355
H98 H 0.0393 0.4684 0.9396
C77? C 0.3963(12) 1.4260(9) 0.0496(8)
C78? C 0.4787(12) 1.3941(11) 0.0086(10)
C79? C 0.5014(13) 1.2824(11) -0.0502(11)
C80? C 0.4843(13) 1.2266(10) -0.0630(10)
H101? H 0.3140 1.2918 0.1184
H102? H 0.4280 1.2901 0.1303
H103? H 0.4146 1.4860 0.0376
H104? H 0.3381 1.4256 0.0251
H105? H 0.5202 1.3624 0.0479
H106? H 0.5211 1.4411 -0.0362
H107? H 0.5518 1.2634 -0.0158
H108? H 0.5376 1.3249 -0.1017
H109? H 0.5433 1.1937 -0.0493
H110? H 0.4967 1.2524 -0.1217
O11? O 0.3627(8) 1.3800(7) 0.1350(6)
O12? O 0.4349(10) 1.3361(8) -0.0173(8)
O13? O 0.4012(11) 1.1466(8) -0.0417(8)
loop_
_geom_bond_atom_site_label_1
_geom_bond_atom_site_label_2
_geom_bond_site_symmetry_1
_geom_bond_site_symmetry_2
Cl1 C74 1_555 1_555
Cl2 C74 1_555 1_555
O1 C28 1_555 1_555
O2 C37 1_555 1_555
O3 C49 1_555 1_555
O4 C59 1_555 1_555
N1 H1 1_555 1_555
N2 H2 1_555 1_555
N3 H3 1_555 1_555
N4 H4 1_555 1_555
C1 N1 1_555 1_555
C2 C1 1_555 1_555
H5 C2 1_555 1_555
C3 C2 1_555 1_555
H6 C3 1_555 1_555
C4 N1 1_555 1_555
C5 C4 1_555 1_555
C6 N2 1_555 1_555
C7 C6 1_555 1_555
H7 C7 1_555 1_555
C8 C7 1_555 1_555
H8 C8 1_555 1_555
C9 N2 1_555 1_555
C10 C9 1_555 1_555
C11 N3 1_555 1_555
C12 C11 1_555 1_555
H9 C12 1_555 1_555
C13 C12 1_555 1_555
H10 C13 1_555 1_555
C14 N3 1_555 1_555
C15 C14 1_555 1_555
C16 N4 1_555 1_555
C17 C16 1_555 1_555
H11 C17 1_555 1_555
C18 C17 1_555 1_555
H12 C18 1_555 1_555
C19 N4 1_555 1_555
C20 C1 1_555 1_555
C21 C5 1_555 1_555
H13 C21 1_555 1_555
H14 C21 1_555 1_555
H15 C21 1_555 1_555
C22 C5 1_555 1_555
H16 C22 1_555 1_555
H17 C22 1_555 1_555
H18 C22 1_555 1_555
C23 C10 1_555 1_555
H19 C23 1_555 1_555
H20 C23 1_555 1_555
H21 C23 1_555 1_555
C24 C10 1_555 1_555
H22 C24 1_555 1_555
H23 C24 1_555 1_555
C25 C24 1_555 1_555
H24 C25 1_555 1_555
H25 C25 1_555 1_555
C26 C25 1_555 1_555
H26 C26 1_555 1_555
H27 C26 1_555 1_555
C27 C26 1_555 1_555
H28 C27 1_555 1_555
H29 C27 1_555 1_555
C28 C27 1_555 1_555
H30 C28 1_555 1_555
H31 C28 1_555 1_555
C29 O1 1_555 1_555
C30 C29 1_555 1_555
C31 C30 1_555 1_555
H32 C31 1_555 1_555
C32 C31 1_555 1_555
H33 C32 1_555 1_555
C33 C32 1_555 1_555
H34 C33 1_555 1_555
C34 C29 1_555 1_555
C35 C30 1_555 1_555
H35 C35 1_555 1_555
H36 C35 1_555 1_555
C36 C35 1_555 1_555
C37 C36 1_555 1_555
C38 C37 1_555 1_555
C39 C38 1_555 1_555
H37 C39 1_555 1_555
C40 C39 1_555 1_555
H38 C40 1_555 1_555
C41 C36 1_555 1_555
H39 C41 1_555 1_555
C42 O2 1_555 1_555
H40 C42 1_555 1_555
H41 C42 1_555 1_555
C43 C42 1_555 1_555
H42 C43 1_555 1_555
H43 C43 1_555 1_555
O5 C43 1_555 1_555
C44 O5 1_555 1_555
H44 C44 1_555 1_555
H45 C44 1_555 1_555
C45 C44 1_555 1_555
H46 C45 1_555 1_555
H47 C45 1_555 1_555
O6 C45 1_555 1_555
C46 O6 1_555 1_555
H48 C46 1_555 1_555
H49 C46 1_555 1_555
C47 C46 1_555 1_555
H50 C47 1_555 1_555
H51 C47 1_555 1_555
O7 C47 1_555 1_555
C48 O7 1_555 1_555
H52 C48 1_555 1_555
H53 C48 1_555 1_555
C49 C48 1_555 1_555
H54 C49 1_555 1_555
H55 C49 1_555 1_555
C50 O3 1_555 1_555
C51 C50 1_555 1_555
C52 C51 1_555 1_555
H56 C52 1_555 1_555
C53 C52 1_555 1_555
H57 C53 1_555 1_555
C54 C53 1_555 1_555
H58 C54 1_555 1_555
C55 C50 1_555 1_555
C56 C34 1_555 1_555
H59 C56 1_555 1_555
H60 C56 1_555 1_555
C57 C55 1_555 1_555
H61 C57 1_555 1_555
H62 C57 1_555 1_555
C58 C57 1_555 1_555
C59 C58 1_555 1_555
C60 C59 1_555 1_555
C61 C60 1_555 1_555
H63 C61 1_555 1_555
C62 C61 1_555 1_555
H64 C62 1_555 1_555
C63 C58 1_555 1_555
H65 C63 1_555 1_555
C64 C38 1_555 1_555
H66 C64 1_555 1_555
H67 C64 1_555 1_555
C65 O4 1_555 1_555
H68 C65 1_555 1_555
H69 C65 1_555 1_555
C66 C65 1_555 1_555
H70 C66 1_555 1_555
H71 C66 1_555 1_555
C67 C66 1_555 1_555
H72 C67 1_555 1_555
H73 C67 1_555 1_555
C68 C67 1_555 1_555
H74 C68 1_555 1_555
H75 C68 1_555 1_555
C69 C20 1_555 1_555
H76 C69 1_555 1_555
H77 C69 1_555 1_555
C70 C20 1_555 1_555
H78 C70 1_555 1_555
H79 C70 1_555 1_555
H80 C70 1_555 1_555
C71 C15 1_555 1_555
H81 C71 1_555 1_555
H82 C71 1_555 1_555
H83 C71 1_555 1_555
C72 C15 1_555 1_555
H84 C72 1_555 1_555
H85 C72 1_555 1_555
H86 C72 1_555 1_555
O8 H87 1_555 1_555
H88 O8 1_555 1_555
O9 H89 1_555 1_555
C73 O9 1_555 1_555
H90 C73 1_555 1_555
H91 C73 1_555 1_555
H92 C73 1_555 1_555
C74 H93 1_555 1_555
H94 C74 1_555 1_555
Cl3 C76 1_555 1_555
Cl4 C76 1_555 1_555
O10 H95 1_555 1_555
C75 O10 1_555 1_555
H96 C75 1_555 1_555
H97 C75 1_555 1_555
H98 C75 1_555 1_555
C76 H99 1_555 1_555
H100 C76 1_555 1_555
C3 C4 1_555 1_555
C5 C6 1_555 1_555
C8 C9 1_555 1_555
C10 C11 1_555 1_555
C13 C14 1_555 1_555
C15 C16 1_555 1_555
C18 C19 1_555 1_555
C19 C20 1_555 1_555
C33 C34 1_555 1_555
C40 C41 1_555 1_555
C51 C56 1_555 1_555
C54 C55 1_555 1_555
C60 C64 1_555 1_555
C62 C63 1_555 1_555
C68 C69 1_555 1_555

#END
