
#######################################################################
#
#                 Cambridge Crystallographic Data Centre
#                                CCDC 
#
#######################################################################
#
# If this CIF has been generated from an entry in the Cambridge 
# Structural Database, then it will include bibliographic, chemical, 
# crystal, experimental, refinement or atomic coordinate data resulting 
# from the CCDC's data processing and validation procedures.
#
#######################################################################

data_SANNUT
_chemical_name_common            
'bis(4-bromobutoxy)octamethoxycopillar[5]arene unknown solvate'
_chemical_formula_moiety         'C51 H60 Br2 O10'
_chemical_name_systematic        
'4,34-bis(4-bromobutoxy)-9,14,19,24,26,28,30,32-octamethoxyhexacyclo[21.2.2.2^3,6^.2^8,11^.2^13,16^.2^18,21^]pentatriaconta-1(25),3,5,8,10,13,15,18,20,23,26,28,30,32,34-pentadecaene unknown solvate'
_symmetry_cell_setting           triclinic
_symmetry_space_group_name_H-M   'P -1'
_symmetry_Int_Tables_number      2
_space_group_name_Hall           '-P 1'
loop_
_symmetry_equiv_pos_site_id
_symmetry_equiv_pos_as_xyz
1 x,y,z
2 -x,-y,-z
_cell_length_a                   11.8851(10)
_cell_length_b                   12.1025(10)
_cell_length_c                   21.0450(13)
_cell_angle_alpha                82.412(7)
_cell_angle_beta                 76.788(7)
_cell_angle_gamma                60.595(9)
_cell_volume                     2566.62
_exptl_crystal_colour            'dark yellow'
_exptl_crystal_description       block
_cell_formula_units_Z            2
loop_
_atom_site_label
_atom_site_type_symbol
_atom_site_fract_x
_atom_site_fract_y
_atom_site_fract_z
Br1 Br 0.33836(11) 1.19685(12) 0.60013(4)
Br2 Br -0.01206(14) 1.20141(14) -0.10540(5)
O1 O 0.2532(5) 0.7827(5) 0.4991(2)
O2 O -0.0984(6) 1.0318(6) 0.3320(3)
O3 O 0.6284(5) 0.4111(6) 0.3562(3)
O4 O 0.1069(6) 0.5518(6) 0.3590(3)
O5 O 0.8380(5) 0.5349(7) 0.1484(3)
O6 O 0.4516(6) 0.4040(5) 0.1533(3)
O7 O 0.5782(7) 1.0144(7) 0.1638(3)
O8 O 0.4658(5) 0.7707(5) 0.0034(2)
O9 O 0.2269(8) 1.2066(10) 0.3582(3)
O10 O 0.1163(6) 1.1440(7) 0.1287(3)
C1 C 0.1650(7) 0.8496(7) 0.4575(3)
C2 C 0.1268(7) 0.9721(7) 0.4375(3)
H1 H 0.1619 1.0162 0.4517
C3 C 0.0355(7) 1.0338(8) 0.3959(3)
C4 C -0.0116(7) 0.9681(8) 0.3742(4)
C5 C 0.0220(7) 0.8448(8) 0.3956(3)
H2 H -0.0152 0.8027 0.3815
C6 C 0.1099(7) 0.7825(7) 0.4377(3)
C7 C 0.1532(8) 0.6461(7) 0.4575(4)
H3 H 0.0790 0.6300 0.4638
H4 H 0.1831 0.6289 0.4986
C8 C 0.2622(6) 0.5585(7) 0.4069(3)
C9 C 0.3939(7) 0.5225(7) 0.4078(3)
C10 C 0.4966(8) 0.4471(7) 0.3585(3)
C11 C 0.4700(8) 0.3999(7) 0.3095(4)
C12 C 0.3400(8) 0.4356(7) 0.3101(4)
H5 H 0.3203 0.4051 0.2782
C13 C 0.2383(8) 0.5153(8) 0.3567(4)
C14 C 0.5805(9) 0.3168(8) 0.2583(4)
H6 H 0.5555 0.2625 0.2417
H7 H 0.6572 0.2628 0.2777
C15 C 0.6150(7) 0.3930(7) 0.2027(4)
C16 C 0.7140(8) 0.4253(8) 0.2015(4)
H8 H 0.7613 0.3960 0.2353
C17 C 0.7432(7) 0.4993(8) 0.1519(4)
C18 C 0.6728(9) 0.5429(7) 0.1009(4)
C19 C 0.5800(7) 0.5113(7) 0.0996(4)
H9 H 0.5369 0.5376 0.0644
C20 C 0.5467(8) 0.4391(7) 0.1508(3)
C21 C 0.6988(7) 0.6308(8) 0.0478(3)
H10 H 0.7896 0.6124 0.0424
H11 H 0.6860 0.6147 0.0068
C22 C 0.6096(8) 0.7684(8) 0.0639(3)
C23 C 0.6388(8) 0.8271(8) 0.1045(4)
H12 H 0.7174 0.7816 0.1198
C24 C 0.5563(8) 0.9504(8) 0.1231(4)
C25 C 0.4346(9) 1.0206(8) 0.1011(4)
C26 C 0.4067(7) 0.9609(8) 0.0599(3)
H13 H 0.3297 1.0063 0.0432
C27 C 0.4899(7) 0.8359(7) 0.0428(3)
C28 C 0.3436(9) 1.1574(8) 0.1195(4)
H14 H 0.2919 1.2019 0.0858
H15 H 0.3950 1.1980 0.1225
C29 C 0.2518(8) 1.1655(7) 0.1849(4)
C30 C 0.2815(9) 1.1790(9) 0.2417(4)
H16 H 0.3568 1.1855 0.2403
C31 C 0.1993(9) 1.1831(9) 0.3016(4)
C32 C 0.0878(8) 1.1723(7) 0.3062(3)
C33 C 0.0589(8) 1.1603(8) 0.2476(4)
H17 H -0.0173 1.1555 0.2488
C34 C 0.1394(8) 1.1552(8) 0.1880(3)
C35 C 0.0020(8) 1.1700(7) 0.3705(4)
H18 H -0.0893 1.2156 0.3656
H19 H 0.0124 1.2136 0.4025
C36 C 0.3183(9) 0.8420(9) 0.5170(4)
H20 H 0.3629 0.8664 0.4784
H21 H 0.3812 0.7838 0.5430
H22 H 0.2550 0.9159 0.5418
C37 C -0.1231(15) 0.9570(12) 0.2948(7)
H23 H -0.1663 1.0085 0.2601
H24 H -0.1784 0.9262 0.3227
H25 H -0.0413 0.8865 0.2767
C38 C 0.6538(8) 0.4823(9) 0.3929(4)
H26 H 0.6031 0.5710 0.3829
H27 H 0.7457 0.4583 0.3824
H28 H 0.6299 0.4664 0.4386
C39 C 0.0712(10) 0.5367(11) 0.3016(5)
H29 H 0.1156 0.5636 0.2639
H30 H -0.0222 0.5873 0.3045
H31 H 0.0961 0.4491 0.2977
C40 C 0.8863(11) 0.5179(11) 0.2056(5)
H32 H 0.9451 0.5529 0.1992
H33 H 0.9325 0.4289 0.2161
H34 H 0.8142 0.5601 0.2407
C41 C 0.3607(9) 0.4725(10) 0.1111(5)
H35 H 0.4020 0.4441 0.0672
H36 H 0.3327 0.5614 0.1126
H37 H 0.2858 0.4586 0.1248
C42 C 0.6488(12) 0.9378(14) 0.2132(6)
H38 H 0.7416 0.9024 0.1964
H39 H 0.6271 0.8705 0.2264
H40 H 0.6255 0.9889 0.2501
C43 C 0.3425(8) 0.8302(10) -0.0168(5)
H41 H 0.3421 0.7763 -0.0462
H42 H 0.3283 0.9097 -0.0384
H43 H 0.2738 0.8448 0.0207
C44 C 0.3452(9) 1.1371(9) 0.3759(4)
H44 H 0.4150 1.0691 0.3521
C45 C 0.3536(10) 1.1781(13) 0.4355(4)
H45 H 0.4000 1.2273 0.4235
H46 H 0.4074 1.1031 0.4594
C46 C 0.2316(12) 1.2528(13) 0.4797(5)
H47 H 0.1921 1.1982 0.4954
H48 H 0.1738 1.3197 0.4535
C47 C 0.2257(12) 1.3150(11) 0.5387(5)
H49 H 0.1353 1.3567 0.5620
H50 H 0.2518 1.3799 0.5241
C48 C -0.0002(9) 1.1413(11) 0.1284(4)
H51 H -0.0741 1.2085 0.1550
H52 H 0.0062 1.0607 0.1460
C49 C -0.0201(10) 1.1598(12) 0.0579(5)
H53 H -0.1089 1.1771 0.0577
H54 H 0.0403 1.0816 0.0349
C50 C 0.0016(14) 1.2687(11) 0.0210(5)
H55 H 0.0960 1.2362 0.0095
H56 H -0.0313 1.3343 0.0526
C51 C -0.0543(12) 1.3377(16) -0.0420(6)
H57 H -0.0141 1.3900 -0.0621
H58 H -0.1486 1.3918 -0.0309
H59? H 0.3990 0.5999 0.4084
H60? H 0.4128 0.4781 0.4490
loop_
_geom_bond_atom_site_label_1
_geom_bond_atom_site_label_2
_geom_bond_site_symmetry_1
_geom_bond_site_symmetry_2
Br1 C47 1_555 1_555
Br2 C51 1_555 1_555
O1 C1 1_555 1_555
O2 C4 1_555 1_555
O3 C10 1_555 1_555
O4 C13 1_555 1_555
O5 C17 1_555 1_555
O6 C20 1_555 1_555
O7 C24 1_555 1_555
O8 C27 1_555 1_555
O9 C31 1_555 1_555
O10 C34 1_555 1_555
C1 C2 1_555 1_555
C2 H1 1_555 1_555
C3 C2 1_555 1_555
C4 C3 1_555 1_555
C5 C4 1_555 1_555
H2 C5 1_555 1_555
C6 C1 1_555 1_555
C7 C6 1_555 1_555
H3 C7 1_555 1_555
H4 C7 1_555 1_555
C8 C7 1_555 1_555
C9 C8 1_555 1_555
C10 C9 1_555 1_555
C11 C10 1_555 1_555
C12 C11 1_555 1_555
H5 C12 1_555 1_555
C13 C8 1_555 1_555
C14 C11 1_555 1_555
H6 C14 1_555 1_555
H7 C14 1_555 1_555
C15 C14 1_555 1_555
C16 C15 1_555 1_555
H8 C16 1_555 1_555
C17 C16 1_555 1_555
C18 C17 1_555 1_555
C19 C18 1_555 1_555
H9 C19 1_555 1_555
C20 C15 1_555 1_555
C21 C18 1_555 1_555
H10 C21 1_555 1_555
H11 C21 1_555 1_555
C22 C21 1_555 1_555
C23 C22 1_555 1_555
H12 C23 1_555 1_555
C24 C23 1_555 1_555
C25 C24 1_555 1_555
C26 C25 1_555 1_555
H13 C26 1_555 1_555
C27 C22 1_555 1_555
C28 C25 1_555 1_555
H14 C28 1_555 1_555
H15 C28 1_555 1_555
C29 C28 1_555 1_555
C30 C29 1_555 1_555
H16 C30 1_555 1_555
C31 C30 1_555 1_555
C32 C31 1_555 1_555
C33 C32 1_555 1_555
H17 C33 1_555 1_555
C34 C29 1_555 1_555
C35 C3 1_555 1_555
H18 C35 1_555 1_555
H19 C35 1_555 1_555
C36 O1 1_555 1_555
H20 C36 1_555 1_555
H21 C36 1_555 1_555
H22 C36 1_555 1_555
C37 O2 1_555 1_555
H23 C37 1_555 1_555
H24 C37 1_555 1_555
H25 C37 1_555 1_555
C38 O3 1_555 1_555
H26 C38 1_555 1_555
H27 C38 1_555 1_555
H28 C38 1_555 1_555
C39 O4 1_555 1_555
H29 C39 1_555 1_555
H30 C39 1_555 1_555
H31 C39 1_555 1_555
C40 O5 1_555 1_555
H32 C40 1_555 1_555
H33 C40 1_555 1_555
H34 C40 1_555 1_555
C41 O6 1_555 1_555
H35 C41 1_555 1_555
H36 C41 1_555 1_555
H37 C41 1_555 1_555
C42 O7 1_555 1_555
H38 C42 1_555 1_555
H39 C42 1_555 1_555
H40 C42 1_555 1_555
C43 O8 1_555 1_555
H41 C43 1_555 1_555
H42 C43 1_555 1_555
H43 C43 1_555 1_555
C44 O9 1_555 1_555
H44 C44 1_555 1_555
C45 C44 1_555 1_555
H45 C45 1_555 1_555
H46 C45 1_555 1_555
C46 C45 1_555 1_555
H47 C46 1_555 1_555
H48 C46 1_555 1_555
C47 C46 1_555 1_555
H49 C47 1_555 1_555
H50 C47 1_555 1_555
C48 O10 1_555 1_555
H51 C48 1_555 1_555
H52 C48 1_555 1_555
C49 C48 1_555 1_555
H53 C49 1_555 1_555
H54 C49 1_555 1_555
C50 C49 1_555 1_555
H55 C50 1_555 1_555
H56 C50 1_555 1_555
C51 C50 1_555 1_555
H57 C51 1_555 1_555
H58 C51 1_555 1_555
C5 C6 1_555 1_555
C12 C13 1_555 1_555
C19 C20 1_555 1_555
C26 C27 1_555 1_555
C32 C35 1_555 1_555
C33 C34 1_555 1_555

#END
