
#######################################################################
#
#                 Cambridge Crystallographic Data Centre
#                                CCDC 
#
#######################################################################
#
# If this CIF has been generated from an entry in the Cambridge 
# Structural Database, then it will include bibliographic, chemical, 
# crystal, experimental, refinement or atomic coordinate data resulting 
# from the CCDC's data processing and validation procedures.
#
#######################################################################

data_SANPOO
_chemical_formula_moiety         'C26 H19 Br1 O2,C4 H10 O1'
_chemical_name_systematic        
'2-(4-Bromophenyl)-9-methyl-4-phenyl-9H-fluorene-3,9-diol diethyl ether solvate'
_symmetry_cell_setting           monoclinic
_symmetry_space_group_name_H-M   'P 21/n'
_symmetry_Int_Tables_number      14
_space_group_name_Hall           '-P 2yn'
loop_
_symmetry_equiv_pos_site_id
_symmetry_equiv_pos_as_xyz
1 x,y,z
2 1/2-x,1/2+y,1/2-z
3 -x,-y,-z
4 1/2+x,1/2-y,1/2+z
_cell_length_a                   12.793(4)
_cell_length_b                   14.029(4)
_cell_length_c                   15.807(4)
_cell_angle_alpha                90
_cell_angle_beta                 106.590(4)
_cell_angle_gamma                90
_cell_volume                     2718.84
_exptl_crystal_colour            colorless
_exptl_crystal_description       plate
_chemical_melting_point          '195-196 deg.C'
_cell_formula_units_Z            4
loop_
_atom_site_label
_atom_site_type_symbol
_atom_site_fract_x
_atom_site_fract_y
_atom_site_fract_z
Br1 Br 0.43199(8) 1.29659(5) 0.12121(6)
O1 O 0.4383(4) 0.8350(3) 0.1549(2)
H1 H 0.4701 0.7891 0.1829
O2 O 0.0672(3) 0.7493(3) -0.2012(2)
H2 H 0.0393 0.7396 -0.1613
C1 C 0.2619(5) 0.8499(4) -0.0698(3)
H3 H 0.2322 0.8961 -0.1120
C2 C 0.3256(5) 0.8774(4) 0.0154(3)
C3 C 0.3718(5) 0.8047(4) 0.0756(3)
C4 C 0.3544(4) 0.7077(4) 0.0558(3)
C5 C 0.2892(4) 0.6835(4) -0.0287(3)
C6 C 0.2440(5) 0.7555(4) -0.0902(3)
C7 C 0.1760(5) 0.7118(4) -0.1766(3)
C8 C 0.1811(4) 0.6071(4) -0.1541(3)
C9 C 0.2501(5) 0.5902(4) -0.0682(3)
C10 C 0.2679(5) 0.4980(4) -0.0378(4)
H4 H 0.3136 0.4857 0.0185
C11 C 0.2173(5) 0.4237(4) -0.0915(4)
H5 H 0.2303 0.3614 -0.0712
C12 C 0.1480(5) 0.4403(4) -0.1744(4)
H6 H 0.1132 0.3893 -0.2087
C13 C 0.1296(5) 0.5324(4) -0.2073(4)
H7 H 0.0838 0.5438 -0.2637
C14 C 0.2212(6) 0.7336(5) -0.2530(4)
H8 H 0.1779 0.7020 -0.3051
H9 H 0.2951 0.7114 -0.2394
H10 H 0.2193 0.8011 -0.2630
C15 C 0.4063(5) 0.6344(4) 0.1239(3)
C16 C 0.3632(5) 0.6136(5) 0.1908(4)
H11 H 0.3000 0.6444 0.1939
C17 C 0.4124(7) 0.5466(5) 0.2550(4)
H12 H 0.3822 0.5323 0.3004
C18 C 0.5066(6) 0.5019(5) 0.2501(5)
H13 H 0.5403 0.4572 0.2925
C19 C 0.5496(6) 0.5228(5) 0.1843(4)
H14 H 0.6135 0.4928 0.1818
C20 C 0.5006(5) 0.5878(4) 0.1209(4)
H15 H 0.5310 0.6008 0.0753
C21 C 0.3445(5) 0.9797(4) 0.0384(3)
C22 C 0.3728(5) 1.0428(4) -0.0177(4)
H16 H 0.3759 1.0215 -0.0727
C23 C 0.3967(6) 1.1370(4) 0.0050(5)
H17 H 0.4155 1.1785 -0.0341
C24 C 0.3923(6) 1.1690(5) 0.0864(5)
C25 C 0.3610(6) 1.1087(5) 0.1425(4)
H18 H 0.3558 1.1311 0.1965
C26 C 0.3373(5) 1.0149(4) 0.1194(4)
H19 H 0.3161 0.9744 0.1580
O3 O 0.9738(7) 0.7268(8) 0.9358(5)
C27 C 0.931(3) 0.6421(18) 0.9449(14)
H20 H 0.8810 0.6502 0.9800
H21 H 0.9897 0.6008 0.9776
C28 C 0.8759(13) 0.5961(15) 0.8653(11)
H22 H 0.8145 0.6341 0.8341
H23 H 0.8509 0.5348 0.8782
H24 H 0.9244 0.5882 0.8294
C29 C 1.024(2) 0.7590(16) 1.0292(13)
H25 H 0.9869 0.7330 1.0697
H26 H 1.1014 0.7454 1.0502
C30 C 1.002(2) 0.8573(16) 1.0119(14)
H27 H 0.9933 0.8700 0.9506
H28 H 1.0613 0.8944 1.0475
H29 H 0.9359 0.8741 1.0259
loop_
_geom_bond_atom_site_label_1
_geom_bond_atom_site_label_2
_geom_bond_site_symmetry_1
_geom_bond_site_symmetry_2
Br1 C24 1_555 1_555
O1 H1 1_555 1_555
O2 H2 1_555 1_555
O3 C27 1_555 1_555
C1 H3 1_555 1_555
C2 C1 1_555 1_555
C3 O1 1_555 1_555
C4 C3 1_555 1_555
C5 C4 1_555 1_555
C6 C1 1_555 1_555
C7 O2 1_555 1_555
C8 C7 1_555 1_555
C9 C5 1_555 1_555
C10 C9 1_555 1_555
H4 C10 1_555 1_555
C11 C10 1_555 1_555
H5 C11 1_555 1_555
C12 C11 1_555 1_555
H6 C12 1_555 1_555
C13 C8 1_555 1_555
H7 C13 1_555 1_555
C14 C7 1_555 1_555
H8 C14 1_555 1_555
H9 C14 1_555 1_555
H10 C14 1_555 1_555
C15 C4 1_555 1_555
C16 C15 1_555 1_555
H11 C16 1_555 1_555
C17 C16 1_555 1_555
H12 C17 1_555 1_555
C18 C17 1_555 1_555
H13 C18 1_555 1_555
C19 C18 1_555 1_555
H14 C19 1_555 1_555
C20 C15 1_555 1_555
H15 C20 1_555 1_555
C21 C2 1_555 1_555
C22 C21 1_555 1_555
H16 C22 1_555 1_555
C23 C22 1_555 1_555
H17 C23 1_555 1_555
C24 C23 1_555 1_555
C25 C24 1_555 1_555
H18 C25 1_555 1_555
C26 C21 1_555 1_555
H19 C26 1_555 1_555
C27 H20 1_555 1_555
H21 C27 1_555 1_555
C28 C27 1_555 1_555
H22 C28 1_555 1_555
H23 C28 1_555 1_555
H24 C28 1_555 1_555
C29 O3 1_555 1_555
H25 C29 1_555 1_555
H26 C29 1_555 1_555
C30 C29 1_555 1_555
H27 C30 1_555 1_555
H28 C30 1_555 1_555
H29 C30 1_555 1_555
C2 C3 1_555 1_555
C5 C6 1_555 1_555
C6 C7 1_555 1_555
C8 C9 1_555 1_555
C12 C13 1_555 1_555
C19 C20 1_555 1_555
C25 C26 1_555 1_555

#END
