
#######################################################################
#
#                 Cambridge Crystallographic Data Centre
#                                CCDC 
#
#######################################################################
#
# If this CIF has been generated from an entry in the Cambridge 
# Structural Database, then it will include bibliographic, chemical, 
# crystal, experimental, refinement or atomic coordinate data resulting 
# from the CCDC's data processing and validation procedures.
#
#######################################################################

data_SANTIM
_chemical_formula_moiety         'C23 H22 Br2 Cl1 N1 O2 S1'
_chemical_name_systematic        
cis-7-(4-Bromophenyl)-3-((4-bromophenyl)sulfonyl)-5-(1-chloro-2-methylprop-1-en-1-yl)-3-azabicyclo[4.2.0]oct-5-ene
_symmetry_cell_setting           monoclinic
_symmetry_space_group_name_H-M   'P 21/c'
_symmetry_Int_Tables_number      14
_space_group_name_Hall           '-P 2ybc'
loop_
_symmetry_equiv_pos_site_id
_symmetry_equiv_pos_as_xyz
1 x,y,z
2 -x,1/2+y,1/2-z
3 -x,-y,-z
4 x,1/2-y,1/2+z
_cell_length_a                   11.1188(11)
_cell_length_b                   24.550(2)
_cell_length_c                   17.2369(17)
_cell_angle_alpha                90
_cell_angle_beta                 91.134(2)
_cell_angle_gamma                90
_cell_volume                     4704.18
_exptl_crystal_colour            colorless
_exptl_crystal_description       prismatic
_chemical_melting_point          '169-171 deg.C'
_cell_formula_units_Z            8
loop_
_atom_site_label
_atom_site_type_symbol
_atom_site_fract_x
_atom_site_fract_y
_atom_site_fract_z
Br1 Br -0.33101(6) 0.61164(3) 0.19421(4)
Br2 Br 0.00028(7) 0.50942(3) 0.89063(4)
S1 S 0.29257(13) 0.67043(7) 0.67146(8)
Cl1 Cl 0.05773(13) 0.54437(5) 0.44135(8)
N1 N 0.2286(4) 0.67780(17) 0.5880(2)
O1 O 0.4051(3) 0.64345(17) 0.6595(2)
O2 O 0.2916(4) 0.72220(16) 0.7086(2)
C1 C 0.1758(4) 0.6396(2) 0.4577(3)
C2 C 0.2114(5) 0.6276(2) 0.5414(3)
H1 H 0.1494 0.6055 0.5646
H2 H 0.2855 0.6067 0.5426
C3 C 0.1418(5) 0.7232(2) 0.5725(3)
H3 H 0.1579 0.7536 0.6071
H4 H 0.0598 0.7110 0.5796
C4 C 0.1616(5) 0.7395(2) 0.4887(3)
H5 H 0.2359 0.7605 0.4834
C5 C 0.1599(4) 0.6909(2) 0.4368(3)
C6 C 0.0922(5) 0.7208(2) 0.3727(3)
H6 H 0.1493 0.7373 0.3370
C7 C 0.0599(6) 0.7626(2) 0.4372(3)
H7 H 0.0721 0.8003 0.4222
H8 H -0.0196 0.7574 0.4582
C8 C -0.0065(5) 0.6927(2) 0.3273(3)
C9 C -0.0935(5) 0.6630(2) 0.3664(3)
H9 H -0.0880 0.6601 0.4201
C10 C -0.1882(5) 0.6375(2) 0.3268(3)
H10 H -0.2457 0.6179 0.3535
C11 C -0.1948(5) 0.6420(2) 0.2473(3)
C12 C -0.1093(6) 0.6702(2) 0.2065(3)
H11 H -0.1146 0.6728 0.1527
C13 C -0.0159(5) 0.6944(2) 0.2472(3)
H12 H 0.0431 0.7126 0.2198
C14 C 0.1570(4) 0.5935(2) 0.4053(3)
C15 C 0.2021(5) 0.5866(2) 0.3339(3)
C16 C 0.2873(5) 0.6269(3) 0.3003(3)
H13 H 0.2469 0.6472 0.2599
H14 H 0.3547 0.6080 0.2791
H15 H 0.3151 0.6514 0.3402
C17 C 0.1709(6) 0.5392(3) 0.2840(3)
H16 H 0.1902 0.5061 0.3111
H17 H 0.2158 0.5410 0.2370
H18 H 0.0864 0.5399 0.2714
C18 C 0.2053(5) 0.6246(2) 0.7273(3)
C19 C 0.2486(5) 0.5734(3) 0.7401(3)
H19 H 0.3189 0.5617 0.7170
C20 C 0.1849(6) 0.5386(3) 0.7888(3)
H20 H 0.2139 0.5038 0.7991
C21 C 0.0804(5) 0.5556(2) 0.8213(3)
C22 C 0.0372(5) 0.6066(3) 0.8057(3)
H21 H -0.0349 0.6179 0.8270
C23 C 0.0990(5) 0.6412(2) 0.7588(3)
H22 H 0.0692 0.6759 0.7484
Br3 Br 0.17646(6) 0.61221(3) 1.07725(4)
Br4 Br 0.50032(6) 0.51189(3) 0.37090(4)
S2 S 0.79450(13) 0.66763(7) 0.60429(8)
Cl2 Cl 0.56144(14) 0.53565(6) 0.82418(8)
N2 N 0.7285(4) 0.67279(18) 0.6870(2)
O3 O 0.7943(4) 0.72053(16) 0.5692(2)
O4 O 0.9067(3) 0.63985(18) 0.6177(2)
C24 C 0.6771(4) 0.6328(2) 0.8143(3)
C25 C 0.7088(5) 0.6219(2) 0.7300(3)
H23 H 0.7810 0.5998 0.7285
H24 H 0.6440 0.6016 0.7050
C26 C 0.6462(5) 0.7189(2) 0.7026(3)
H25 H 0.5632 0.7082 0.6930
H26 H 0.6645 0.7497 0.6697
C27 C 0.6661(5) 0.7333(2) 0.7867(3)
H27 H 0.7414 0.7536 0.7943
C28 C 0.6639(4) 0.6836(2) 0.8376(3)
C29 C 0.6007(5) 0.7133(2) 0.9022(3)
H28 H 0.6601 0.7287 0.9387
C30 C 0.5670(5) 0.7564(2) 0.8379(3)
H29 H 0.4865 0.7519 0.8160
H30 H 0.5807 0.7938 0.8539
C31 C 0.5019(5) 0.6864(2) 0.9457(3)
C32 C 0.4922(5) 0.6916(2) 1.0246(3)
H31 H 0.5510 0.7111 1.0517
C33 C 0.3987(5) 0.6690(2) 1.0657(3)
H32 H 0.3941 0.6733 1.1192
C34 C 0.3129(5) 0.6400(2) 1.0244(3)
C35 C 0.3186(5) 0.6330(2) 0.9458(3)
H33 H 0.2600 0.6131 0.9191
C36 C 0.4132(5) 0.6561(2) 0.9071(3)
H34 H 0.4179 0.6513 0.8537
C37 C 0.6583(4) 0.5855(2) 0.8661(3)
C38 C 0.7016(5) 0.5782(2) 0.9371(3)
C39 C 0.7875(5) 0.6183(2) 0.9751(3)
H35 H 0.8252 0.6397 0.9359
H36 H 0.8479 0.5988 1.0044
H37 H 0.7440 0.6417 1.0091
C40 C 0.6683(6) 0.5309(3) 0.9872(3)
H38 H 0.6305 0.5441 1.0332
H39 H 0.7394 0.5108 1.0014
H40 H 0.6135 0.5076 0.9591
C41 C 0.7089(5) 0.6241(2) 0.5442(3)
C42 C 0.5966(5) 0.6398(2) 0.5154(3)
H41 H 0.5635 0.6729 0.5302
C43 C 0.5347(5) 0.6063(2) 0.4652(3)
H42 H 0.4594 0.6168 0.4460
C44 C 0.5833(5) 0.5571(2) 0.4427(3)
C45 C 0.6914(6) 0.5400(3) 0.4729(3)
H43 H 0.7229 0.5063 0.4594
C46 C 0.7534(5) 0.5741(2) 0.5242(3)
H44 H 0.8266 0.5627 0.5455
loop_
_geom_bond_atom_site_label_1
_geom_bond_atom_site_label_2
_geom_bond_site_symmetry_1
_geom_bond_site_symmetry_2
Br1 C11 1_555 1_555
Br2 C21 1_555 1_555
Br3 C34 1_555 1_555
Br4 C44 1_555 1_555
S1 N1 1_555 1_555
S2 N2 1_555 1_555
Cl1 C14 1_555 1_555
Cl2 C37 1_555 1_555
N1 C2 1_555 1_555
N2 C25 1_555 1_555
O1 S1 1_555 1_555
O2 S1 1_555 1_555
O3 S2 1_555 1_555
O4 S2 1_555 1_555
C1 C2 1_555 1_555
C2 H1 1_555 1_555
H2 C2 1_555 1_555
C3 N1 1_555 1_555
H3 C3 1_555 1_555
H4 C3 1_555 1_555
C4 C3 1_555 1_555
H5 C4 1_555 1_555
C5 C1 1_555 1_555
C6 C5 1_555 1_555
H6 C6 1_555 1_555
C7 C4 1_555 1_555
H7 C7 1_555 1_555
H8 C7 1_555 1_555
C8 C6 1_555 1_555
C9 C8 1_555 1_555
H9 C9 1_555 1_555
C10 C9 1_555 1_555
H10 C10 1_555 1_555
C11 C10 1_555 1_555
C12 C11 1_555 1_555
H11 C12 1_555 1_555
C13 C8 1_555 1_555
H12 C13 1_555 1_555
C14 C1 1_555 1_555
C15 C14 1_555 1_555
C16 C15 1_555 1_555
H13 C16 1_555 1_555
H14 C16 1_555 1_555
H15 C16 1_555 1_555
C17 C15 1_555 1_555
H16 C17 1_555 1_555
H17 C17 1_555 1_555
H18 C17 1_555 1_555
C18 S1 1_555 1_555
C19 C18 1_555 1_555
H19 C19 1_555 1_555
C20 C19 1_555 1_555
H20 C20 1_555 1_555
C21 C20 1_555 1_555
C22 C21 1_555 1_555
H21 C22 1_555 1_555
C23 C18 1_555 1_555
H22 C23 1_555 1_555
C24 C25 1_555 1_555
C25 H23 1_555 1_555
H24 C25 1_555 1_555
C26 N2 1_555 1_555
H25 C26 1_555 1_555
H26 C26 1_555 1_555
C27 C26 1_555 1_555
H27 C27 1_555 1_555
C28 C24 1_555 1_555
C29 C28 1_555 1_555
H28 C29 1_555 1_555
C30 C27 1_555 1_555
H29 C30 1_555 1_555
H30 C30 1_555 1_555
C31 C29 1_555 1_555
C32 C31 1_555 1_555
H31 C32 1_555 1_555
C33 C32 1_555 1_555
H32 C33 1_555 1_555
C34 C33 1_555 1_555
C35 C34 1_555 1_555
H33 C35 1_555 1_555
C36 C31 1_555 1_555
H34 C36 1_555 1_555
C37 C24 1_555 1_555
C38 C37 1_555 1_555
C39 C38 1_555 1_555
H35 C39 1_555 1_555
H36 C39 1_555 1_555
H37 C39 1_555 1_555
C40 C38 1_555 1_555
H38 C40 1_555 1_555
H39 C40 1_555 1_555
H40 C40 1_555 1_555
C41 S2 1_555 1_555
C42 C41 1_555 1_555
H41 C42 1_555 1_555
C43 C42 1_555 1_555
H42 C43 1_555 1_555
C44 C43 1_555 1_555
C45 C44 1_555 1_555
H43 C45 1_555 1_555
C46 C41 1_555 1_555
H44 C46 1_555 1_555
C4 C5 1_555 1_555
C6 C7 1_555 1_555
C12 C13 1_555 1_555
C22 C23 1_555 1_555
C27 C28 1_555 1_555
C29 C30 1_555 1_555
C35 C36 1_555 1_555
C45 C46 1_555 1_555

#END
