
#######################################################################
#
#                 Cambridge Crystallographic Data Centre
#                                CCDC 
#
#######################################################################
#
# If this CIF has been generated from an entry in the Cambridge 
# Structural Database, then it will include bibliographic, chemical, 
# crystal, experimental, refinement or atomic coordinate data resulting 
# from the CCDC's data processing and validation procedures.
#
#######################################################################

data_SANYIQ
_chemical_formula_moiety         'C14 H18 N2 O2 S1'
_chemical_name_systematic        
4-(o-Methoxyphenyl)-1,3,4,4a,5,6,7,8a-octahydro-2H-pyrano(2,3-d)pyrimidin-2-thione
_symmetry_cell_setting           monoclinic
_symmetry_space_group_name_H-M   'P 21/c'
_symmetry_Int_Tables_number      14
_space_group_name_Hall           '-P 2ybc'
loop_
_symmetry_equiv_pos_site_id
_symmetry_equiv_pos_as_xyz
1 x,y,z
2 -x,1/2+y,1/2-z
3 -x,-y,-z
4 x,1/2-y,1/2+z
_cell_length_a                   8.5277(8)
_cell_length_b                   14.2285(13)
_cell_length_c                   11.5972(11)
_cell_angle_alpha                90
_cell_angle_beta                 93.590(2)
_cell_angle_gamma                90
_cell_volume                     1404.4
_exptl_crystal_colour            colorless
_exptl_crystal_description       prism
_cell_formula_units_Z            4
_exptl_crystal_recrystallization_method DMF
loop_
_atom_site_label
_atom_site_type_symbol
_atom_site_fract_x
_atom_site_fract_y
_atom_site_fract_z
S1 S 0.25941(4) 1.03808(2) 0.50902(3)
O1 O 0.52757(12) 0.62301(7) 0.32986(8)
O2 O 0.05112(11) 0.78727(6) 0.28608(8)
N1 N 0.09723(12) 0.88751(7) 0.44083(10)
H1 H 0.0176 0.9243 0.4438
N2 N 0.36430(11) 0.86875(7) 0.45926(9)
H2 H 0.4553 0.8935 0.4741
C1 C 0.24014(13) 0.92390(8) 0.46682(11)
C2 C 0.35904(13) 0.76851(8) 0.42744(11)
H3 H 0.3701 0.7624 0.3442
C3 C 0.17041(17) 0.62802(9) 0.41244(13)
H4 H 0.2632 0.5903 0.4313
H5 H 0.0839 0.6007 0.4514
C4 C 0.13230(19) 0.62462(11) 0.28285(14)
H6 H 0.2258 0.6390 0.2428
H7 H 0.0978 0.5619 0.2605
C5 C 0.00511(18) 0.69443(11) 0.24897(14)
H8 H -0.0152 0.6938 0.1657
H9 H -0.0910 0.6768 0.2839
C6 C 0.06775(14) 0.79185(9) 0.40848(11)
H10 H -0.0310 0.7718 0.4397
C7 C 0.19946(14) 0.72839(8) 0.45717(11)
H11 H 0.1961 0.7275 0.5415
C8 C 0.49464(14) 0.71785(8) 0.49245(11)
C9 C 0.57727(14) 0.64627(8) 0.44041(11)
C10 C 0.70307(16) 0.60268(9) 0.50094(13)
H12 H 0.7608 0.5570 0.4650
C11 C 0.74240(17) 0.62693(10) 0.61368(15)
H13 H 0.8268 0.5976 0.6536
C12 C 0.65802(17) 0.69419(10) 0.66778(13)
H14 H 0.6827 0.7091 0.7449
C13 C 0.53596(16) 0.73958(9) 0.60660(12)
H15 H 0.4802 0.7859 0.6431
C14 C 0.5777(2) 0.53592(11) 0.28420(15)
H16 H 0.6868 0.5400 0.2689
H17 H 0.5169 0.5223 0.2137
H18 H 0.5632 0.4867 0.3392
loop_
_geom_bond_atom_site_label_1
_geom_bond_atom_site_label_2
_geom_bond_site_symmetry_1
_geom_bond_site_symmetry_2
S1 C1 1_555 1_555
O1 C9 1_555 1_555
O2 C5 1_555 1_555
N1 H1 1_555 1_555
N2 H2 1_555 1_555
C1 N1 1_555 1_555
C2 N2 1_555 1_555
H3 C2 1_555 1_555
C3 H4 1_555 1_555
H5 C3 1_555 1_555
C4 C3 1_555 1_555
H6 C4 1_555 1_555
H7 C4 1_555 1_555
C5 C4 1_555 1_555
H8 C5 1_555 1_555
H9 C5 1_555 1_555
C6 O2 1_555 1_555
H10 C6 1_555 1_555
C7 C2 1_555 1_555
H11 C7 1_555 1_555
C8 C2 1_555 1_555
C9 C8 1_555 1_555
C10 C9 1_555 1_555
H12 C10 1_555 1_555
C11 C10 1_555 1_555
H13 C11 1_555 1_555
C12 C11 1_555 1_555
H14 C12 1_555 1_555
C13 C8 1_555 1_555
H15 C13 1_555 1_555
C14 O1 1_555 1_555
H16 C14 1_555 1_555
H17 C14 1_555 1_555
H18 C14 1_555 1_555
N1 C6 1_555 1_555
N2 C1 1_555 1_555
C3 C7 1_555 1_555
C6 C7 1_555 1_555
C12 C13 1_555 1_555

#END
