
#######################################################################
#
#                 Cambridge Crystallographic Data Centre
#                                CCDC 
#
#######################################################################
#
# If this CIF has been generated from an entry in the Cambridge 
# Structural Database, then it will include bibliographic, chemical, 
# crystal, experimental, refinement or atomic coordinate data resulting 
# from the CCDC's data processing and validation procedures.
#
#######################################################################

data_SAPFEV
_chemical_formula_moiety         'C30 H28 N1 O3 P1'
_chemical_name_systematic        
'(Z)-Ethyl 3-(4-methoxyphenyl)-2-((triphenylphosphoranylidene)amino)prop-2-enoate'
_symmetry_cell_setting           monoclinic
_symmetry_space_group_name_H-M   'P 21/c'
_symmetry_Int_Tables_number      14
_space_group_name_Hall           '-P 2ybc'
loop_
_symmetry_equiv_pos_site_id
_symmetry_equiv_pos_as_xyz
1 x,y,z
2 -x,1/2+y,1/2-z
3 -x,-y,-z
4 x,1/2-y,1/2+z
_cell_length_a                   10.1565(11)
_cell_length_b                   18.879(2)
_cell_length_c                   14.2904(15)
_cell_angle_alpha                90
_cell_angle_beta                 107.548(2)
_cell_angle_gamma                90
_cell_volume                     2612.59
_exptl_crystal_colour            colorless
_exptl_crystal_description       block
_chemical_melting_point          '405-407 K'
_cell_formula_units_Z            4
_exptl_crystal_recrystallization_method ethanol
loop_
_atom_site_label
_atom_site_type_symbol
_atom_site_fract_x
_atom_site_fract_y
_atom_site_fract_z
P1 P 0.85704(7) 0.19485(4) 0.50903(5)
O1 O 1.1079(2) 0.19238(11) 0.66043(14)
O2 O 1.1344(2) 0.14564(11) 0.80869(14)
O3 O 0.3580(2) -0.00170(13) 0.77374(16)
N1 N 0.8324(2) 0.14648(12) 0.59240(16)
C1 C 0.5986(3) 0.14283(16) 0.4019(2)
H1 H 0.6140 0.1077 0.4496
C2 C 0.4807(3) 0.1410(2) 0.3232(3)
H2 H 0.4170 0.1048 0.3183
C3 C 0.4562(4) 0.1918(2) 0.2520(3)
H3 H 0.3765 0.1901 0.1987
C4 C 0.5497(4) 0.2452(2) 0.2598(3)
H4 H 0.5336 0.2800 0.2116
C5 C 0.6675(4) 0.24774(17) 0.3386(2)
H5 H 0.7300 0.2845 0.3432
C6 C 0.6946(3) 0.19633(14) 0.4111(2)
C7 C 0.7944(3) 0.32383(17) 0.5703(2)
H6 H 0.7150 0.3006 0.5734
C8 C 0.8153(4) 0.39460(19) 0.5975(2)
H7 H 0.7497 0.4188 0.6186
C9 C 0.9317(5) 0.42868(18) 0.5934(2)
H8 H 0.9453 0.4760 0.6119
C10 C 1.0281(4) 0.39380(17) 0.5622(2)
H9 H 1.1072 0.4174 0.5594
C11 C 1.0090(3) 0.32347(15) 0.5347(2)
H10 H 1.0752 0.2999 0.5134
C12 C 0.8920(3) 0.28805(14) 0.5387(2)
C13 C 0.9980(3) 0.19274(15) 0.3662(2)
H11 H 0.9595 0.2370 0.3462
C14 C 1.0757(3) 0.15992(16) 0.3152(2)
H12 H 1.0894 0.1822 0.2608
C15 C 1.1336(3) 0.09465(17) 0.3434(2)
H13 H 1.1855 0.0727 0.3082
C16 C 1.1141(3) 0.06194(15) 0.4245(2)
H14 H 1.1537 0.0179 0.4446
C17 C 1.0354(3) 0.09471(14) 0.4758(2)
H15 H 1.0220 0.0723 0.5301
C18 C 0.9764(3) 0.16027(13) 0.44733(18)
C19 C 1.3439(4) 0.1423(3) 0.9391(3)
H16 H 1.3034 0.1647 0.9841
H17 H 1.4409 0.1527 0.9578
H18 H 1.3309 0.0920 0.9404
C20 C 1.2771(3) 0.1691(2) 0.8389(2)
H19 H 1.2811 0.2205 0.8382
H20 H 1.3243 0.1510 0.7941
C21 C 1.0599(3) 0.16080(14) 0.7161(2)
C22 C 0.9130(3) 0.13545(13) 0.68701(19)
C23 C 0.8687(3) 0.10311(14) 0.75679(19)
H21 H 0.9357 0.0976 0.8172
C24 C 0.7332(3) 0.07573(13) 0.75237(19)
C25 C 0.6162(3) 0.07673(16) 0.6707(2)
H22 H 0.6230 0.0949 0.6119
C26 C 0.4897(3) 0.05147(17) 0.6746(2)
H23 H 0.4131 0.0528 0.6190
C27 C 0.4781(3) 0.02441(15) 0.7614(2)
C28 C 0.5915(3) 0.02268(17) 0.8430(2)
H24 H 0.5838 0.0045 0.9016
C29 C 0.7161(3) 0.04763(15) 0.8387(2)
H25 H 0.7918 0.0459 0.8949
C30 C 0.2376(3) -0.0010(2) 0.6925(3)
H26 H 0.2195 0.0464 0.6679
H27 H 0.1609 -0.0178 0.7125
H28 H 0.2504 -0.0313 0.6420
loop_
_geom_bond_atom_site_label_1
_geom_bond_atom_site_label_2
_geom_bond_site_symmetry_1
_geom_bond_site_symmetry_2
P1 N1 1_555 1_555
O1 C21 1_555 1_555
O2 C20 1_555 1_555
O3 C27 1_555 1_555
N1 C22 1_555 1_555
C1 H1 1_555 1_555
C2 C1 1_555 1_555
H2 C2 1_555 1_555
C3 C2 1_555 1_555
H3 C3 1_555 1_555
C4 C3 1_555 1_555
H4 C4 1_555 1_555
C5 C4 1_555 1_555
H5 C5 1_555 1_555
C6 P1 1_555 1_555
C7 H6 1_555 1_555
C8 C7 1_555 1_555
H7 C8 1_555 1_555
C9 C8 1_555 1_555
H8 C9 1_555 1_555
C10 C9 1_555 1_555
H9 C10 1_555 1_555
C11 C10 1_555 1_555
H10 C11 1_555 1_555
C12 P1 1_555 1_555
C13 H11 1_555 1_555
C14 C13 1_555 1_555
H12 C14 1_555 1_555
C15 C14 1_555 1_555
H13 C15 1_555 1_555
C16 C15 1_555 1_555
H14 C16 1_555 1_555
C17 C16 1_555 1_555
H15 C17 1_555 1_555
C18 P1 1_555 1_555
C19 H16 1_555 1_555
H17 C19 1_555 1_555
H18 C19 1_555 1_555
C20 C19 1_555 1_555
H19 C20 1_555 1_555
H20 C20 1_555 1_555
C21 O2 1_555 1_555
C22 C21 1_555 1_555
C23 C22 1_555 1_555
H21 C23 1_555 1_555
C24 C23 1_555 1_555
C25 C24 1_555 1_555
H22 C25 1_555 1_555
C26 C25 1_555 1_555
H23 C26 1_555 1_555
C27 C26 1_555 1_555
C28 C27 1_555 1_555
H24 C28 1_555 1_555
C29 C24 1_555 1_555
H25 C29 1_555 1_555
C30 O3 1_555 1_555
H26 C30 1_555 1_555
H27 C30 1_555 1_555
H28 C30 1_555 1_555
C1 C6 1_555 1_555
C5 C6 1_555 1_555
C7 C12 1_555 1_555
C11 C12 1_555 1_555
C13 C18 1_555 1_555
C17 C18 1_555 1_555
C28 C29 1_555 1_555

#END
