
#######################################################################
#
#                 Cambridge Crystallographic Data Centre
#                                CCDC 
#
#######################################################################
#
# If this CIF has been generated from an entry in the Cambridge 
# Structural Database, then it will include bibliographic, chemical, 
# crystal, experimental, refinement or atomic coordinate data resulting 
# from the CCDC's data processing and validation procedures.
#
#######################################################################

data_SAPGEW
_chemical_formula_moiety         'C15 H17 N1 O2'
_chemical_name_systematic        1-Morpholinomethyl-2-naphthol
_symmetry_cell_setting           monoclinic
_symmetry_space_group_name_H-M   'P 21/c'
_symmetry_Int_Tables_number      14
_space_group_name_Hall           '-P 2ybc'
loop_
_symmetry_equiv_pos_site_id
_symmetry_equiv_pos_as_xyz
1 x,y,z
2 -x,1/2+y,1/2-z
3 -x,-y,-z
4 x,1/2-y,1/2+z
_cell_length_a                   22.162(6)
_cell_length_b                   5.8941(17)
_cell_length_c                   9.743(3)
_cell_angle_alpha                90
_cell_angle_beta                 91.120(4)
_cell_angle_gamma                90
_cell_volume                     1272.44
_exptl_crystal_colour            colorless
_exptl_crystal_description       block
_chemical_melting_point          '388-389 K'
_cell_formula_units_Z            4
_exptl_crystal_recrystallization_method '95% alcohol'
loop_
_atom_site_label
_atom_site_type_symbol
_atom_site_fract_x
_atom_site_fract_y
_atom_site_fract_z
N1 N 0.34428(5) 0.6766(2) 0.41978(12)
O1 O 0.31060(5) 0.3988(2) 0.61056(12)
H1 H 0.3316(8) 0.496(3) 0.5649(18)
O2 O 0.45996(5) 0.6207(2) 0.30210(14)
C1 C 0.23684(7) 0.5785(2) 0.46180(15)
C2 C 0.25363(7) 0.4140(3) 0.55596(15)
C3 C 0.21193(8) 0.2517(3) 0.60067(18)
H2 H 0.2241 0.1422 0.6641
C4 C 0.15450(8) 0.2530(3) 0.55275(19)
H3 H 0.1277 0.1434 0.5832
C5 C 0.13429(7) 0.4173(3) 0.45740(17)
C6 C 0.17602(7) 0.5838(3) 0.41225(15)
C7 C 0.15384(7) 0.7494(3) 0.31923(18)
H4 H 0.1798 0.8611 0.2878
C8 C 0.09514(8) 0.7486(4) 0.2746(2)
H5 H 0.0818 0.8597 0.2134
C9 C 0.05502(9) 0.5846(4) 0.3191(2)
H6 H 0.0151 0.5860 0.2880
C10 C 0.07437(8) 0.4229(4) 0.4078(2)
H7 H 0.0474 0.3127 0.4367
C11 C 0.28129(7) 0.7560(3) 0.41663(17)
H8 H 0.2707 0.8034 0.3239
H9 H 0.2780 0.8875 0.4759
C12 C 0.35504(7) 0.5130(3) 0.30967(16)
H10 H 0.3464 0.5831 0.2214
H11 H 0.3284 0.3837 0.3194
C13 C 0.41922(8) 0.4359(3) 0.3161(2)
H12 H 0.4271 0.3607 0.4032
H13 H 0.4259 0.3269 0.2434
C14 C 0.45005(7) 0.7817(3) 0.40741(19)
H14 H 0.4772 0.9090 0.3960
H15 H 0.4591 0.7126 0.4958
C15 C 0.38623(7) 0.8662(3) 0.40550(16)
H16 H 0.3809 0.9727 0.4802
H17 H 0.3778 0.9450 0.3198
loop_
_geom_bond_atom_site_label_1
_geom_bond_atom_site_label_2
_geom_bond_site_symmetry_1
_geom_bond_site_symmetry_2
N1 C11 1_555 1_555
O1 H1 1_555 1_555
O2 C13 1_555 1_555
C1 C2 1_555 1_555
C2 O1 1_555 1_555
C3 C2 1_555 1_555
H2 C3 1_555 1_555
C4 C3 1_555 1_555
H3 C4 1_555 1_555
C5 C4 1_555 1_555
C6 C1 1_555 1_555
C7 C6 1_555 1_555
H4 C7 1_555 1_555
C8 C7 1_555 1_555
H5 C8 1_555 1_555
C9 C8 1_555 1_555
H6 C9 1_555 1_555
C10 C5 1_555 1_555
H7 C10 1_555 1_555
C11 C1 1_555 1_555
H8 C11 1_555 1_555
H9 C11 1_555 1_555
C12 N1 1_555 1_555
H10 C12 1_555 1_555
H11 C12 1_555 1_555
C13 C12 1_555 1_555
H12 C13 1_555 1_555
H13 C13 1_555 1_555
C14 O2 1_555 1_555
H14 C14 1_555 1_555
H15 C14 1_555 1_555
C15 N1 1_555 1_555
H16 C15 1_555 1_555
H17 C15 1_555 1_555
C5 C6 1_555 1_555
C9 C10 1_555 1_555
C14 C15 1_555 1_555

#END
