
#######################################################################
#
#                 Cambridge Crystallographic Data Centre
#                                CCDC 
#
#######################################################################
#
# If this CIF has been generated from an entry in the Cambridge 
# Structural Database, then it will include bibliographic, chemical, 
# crystal, experimental, refinement or atomic coordinate data resulting 
# from the CCDC's data processing and validation procedures.
#
#######################################################################

data_SAPHUN
_chemical_formula_moiety         'C15 H10 O4 S7'
_chemical_name_systematic        
4,5-bis(Phenylsulfonylthio)-1,3-dithiolane-2-thione
_symmetry_cell_setting           monoclinic
_symmetry_space_group_name_H-M   'P 21/c'
_symmetry_Int_Tables_number      14
_space_group_name_Hall           '-P 2ybc'
loop_
_symmetry_equiv_pos_site_id
_symmetry_equiv_pos_as_xyz
1 x,y,z
2 -x,1/2+y,1/2-z
3 -x,-y,-z
4 x,1/2-y,1/2+z
_cell_length_a                   12.3011(17)
_cell_length_b                   12.3846(13)
_cell_length_c                   14.187(2)
_cell_angle_alpha                90
_cell_angle_beta                 114.338(11)
_cell_angle_gamma                90
_cell_volume                     1969.23
_exptl_crystal_colour            yellow
_exptl_crystal_description       prism
_cell_formula_units_Z            4
_exptl_crystal_recrystallization_method acetone
loop_
_atom_site_label
_atom_site_type_symbol
_atom_site_fract_x
_atom_site_fract_y
_atom_site_fract_z
C1 C 0.2457(6) 0.0431(6) 0.7436(6)
C2 C 0.2542(6) 0.2114(5) 0.6363(6)
C3 C 0.2592(6) 0.1257(5) 0.5788(6)
C4 C 0.0041(7) 0.2093(5) 0.3911(6)
C5 C -0.0152(7) 0.3075(6) 0.3411(6)
H1 H 0.0103 0.3195 0.2887
C6 C -0.0735(8) 0.3883(7) 0.3705(8)
H2 H -0.0903 0.4545 0.3365
C7 C -0.1064(9) 0.3681(8) 0.4520(9)
H3 H -0.1434 0.4226 0.4731
C8 C -0.0860(8) 0.2715(7) 0.5012(8)
H4 H -0.1104 0.2599 0.5543
C9 C -0.0288(7) 0.1904(6) 0.4723(6)
H5 H -0.0127 0.1244 0.5066
C10 C 0.5008(7) 0.3092(6) 0.6254(7)
C11 C 0.5045(8) 0.3362(7) 0.5339(7)
H6 H 0.4677 0.3989 0.4993
C12 C 0.5636(9) 0.2693(8) 0.4930(8)
H7 H 0.5686 0.2871 0.4312
C13 C 0.6146(10) 0.1771(9) 0.5439(9)
H8 H 0.6514 0.1309 0.5143
C14 C 0.6139(10) 0.1487(9) 0.6390(9)
H9 H 0.6522 0.0866 0.6738
C15 C 0.5540(8) 0.2165(7) 0.6798(8)
H10 H 0.5497 0.2001 0.7422
O1 O 0.0505(5) 0.0036(4) 0.3867(5)
O2 O 0.0800(5) 0.1239(4) 0.2604(4)
O3 O 0.4577(6) 0.3687(5) 0.7831(5)
O4 O 0.4231(6) 0.5022(4) 0.6431(5)
S1 S 0.2345(2) -0.0353(2) 0.8307(2)
S2 S 0.2488(2) 0.18389(17) 0.75328(18)
S3 S 0.25720(19) -0.00028(15) 0.63162(18)
S4 S 0.26486(18) 0.13498(16) 0.45786(17)
S5 S 0.08245(19) 0.10653(15) 0.35960(17)
S6 S 0.24298(19) 0.34592(16) 0.59385(19)
S7 S 0.4226(2) 0.39319(16) 0.67563(17)
loop_
_geom_bond_atom_site_label_1
_geom_bond_atom_site_label_2
_geom_bond_site_symmetry_1
_geom_bond_site_symmetry_2
C1 S1 1_555 1_555
C2 C3 1_555 1_555
C3 S3 1_555 1_555
C4 C5 1_555 1_555
C5 H1 1_555 1_555
C6 C5 1_555 1_555
H2 C6 1_555 1_555
C7 C6 1_555 1_555
H3 C7 1_555 1_555
C8 C7 1_555 1_555
H4 C8 1_555 1_555
C9 C4 1_555 1_555
H5 C9 1_555 1_555
C10 C11 1_555 1_555
C11 H6 1_555 1_555
C12 C11 1_555 1_555
H7 C12 1_555 1_555
C13 C12 1_555 1_555
H8 C13 1_555 1_555
C14 C13 1_555 1_555
H9 C14 1_555 1_555
C15 C10 1_555 1_555
H10 C15 1_555 1_555
O1 S5 1_555 1_555
O2 S5 1_555 1_555
O3 S7 1_555 1_555
O4 S7 1_555 1_555
S2 C1 1_555 1_555
S3 C1 1_555 1_555
S4 C3 1_555 1_555
S5 C4 1_555 1_555
S6 C2 1_555 1_555
S7 C10 1_555 1_555
C2 S2 1_555 1_555
C8 C9 1_555 1_555
C14 C15 1_555 1_555
S4 S5 1_555 1_555
S6 S7 1_555 1_555

#END
