
#######################################################################
#
#                 Cambridge Crystallographic Data Centre
#                                CCDC 
#
#######################################################################
#
# If this CIF has been generated from an entry in the Cambridge 
# Structural Database, then it will include bibliographic, chemical, 
# crystal, experimental, refinement or atomic coordinate data resulting 
# from the CCDC's data processing and validation procedures.
#
#######################################################################

data_SAPMAA
_chemical_formula_moiety         'C24 H44 Cl1 F3 O1 Si5'
_chemical_name_systematic        
(1-chloro-2,2,5,5-tetrakis(trimethylsilyl)silolan-1-yl)(4-(trifluoromethyl)phenyl)methanone
_symmetry_cell_setting           triclinic
_symmetry_space_group_name_H-M   'P -1'
_symmetry_Int_Tables_number      2
_space_group_name_Hall           '-P 1'
loop_
_symmetry_equiv_pos_site_id
_symmetry_equiv_pos_as_xyz
1 x,y,z
2 -x,-y,-z
_cell_length_a                   9.1059(10)
_cell_length_b                   11.4480(13)
_cell_length_c                   17.1330(19)
_cell_angle_alpha                72.731(2)
_cell_angle_beta                 88.767(2)
_cell_angle_gamma                70.304(2)
_cell_volume                     1599.59
_exptl_crystal_colour            colorless
_exptl_crystal_description       prism
_cell_formula_units_Z            2
loop_
_atom_site_label
_atom_site_type_symbol
_atom_site_fract_x
_atom_site_fract_y
_atom_site_fract_z
Si1 Si 0.58411(5) 0.64456(4) 0.22898(3)
Si2 Si 0.62311(7) 0.34102(5) 0.25886(4)
Si3 Si 0.78612(7) 0.48197(7) 0.11696(4)
Si4 Si 0.28706(7) 0.89609(5) 0.13280(4)
Si5 Si 0.25375(6) 0.73797(6) 0.31091(3)
C1 C 0.6137(2) 0.50816(17) 0.18390(11)
C2 C 0.4552(2) 0.56931(18) 0.12875(12)
H1 H 0.4628 0.6354 0.0796
H2 H 0.4336 0.5022 0.1123
C3 C 0.3221(2) 0.63042(18) 0.17572(12)
H3 H 0.3022 0.5622 0.2191
H4 H 0.2274 0.6782 0.1389
C4 C 0.36475(18) 0.72687(16) 0.21437(11)
C5 C 0.5153(4) 0.3447(3) 0.35260(18)
H5 H 0.5029 0.2619 0.3771
H6 H 0.4142 0.4119 0.3377
H7 H 0.5735 0.3622 0.3911
C6 C 0.8256(3) 0.2240(2) 0.29679(19)
H8 H 0.8736 0.2556 0.3315
H9 H 0.8864 0.2159 0.2509
H10 H 0.8211 0.1403 0.3274
C7 C 0.5254(4) 0.2628(3) 0.2041(2)
H11 H 0.5567 0.1711 0.2327
H12 H 0.5559 0.2754 0.1491
H13 H 0.4138 0.3019 0.2026
C8 C 0.9735(3) 0.4581(3) 0.17302(19)
H14 H 1.0367 0.3673 0.1902
H15 H 0.9506 0.4877 0.2203
H16 H 1.0292 0.5072 0.1373
C9 C 0.8122(4) 0.3390(3) 0.0785(2)
H17 H 0.7129 0.3454 0.0563
H18 H 0.8533 0.2595 0.1230
H19 H 0.8838 0.3392 0.0365
C10 C 0.7499(3) 0.6191(3) 0.01913(16)
H20 H 0.7349 0.6988 0.0314
H21 H 0.6580 0.6277 -0.0116
H22 H 0.8384 0.6014 -0.0126
C11 C 0.0664(3) 0.9512(3) 0.12005(18)
H23 H 0.0251 0.9577 0.1712
H24 H 0.0357 0.8891 0.1035
H25 H 0.0263 1.0349 0.0789
C12 C 0.3460(4) 1.0254(2) 0.15510(17)
H26 H 0.4502 1.0170 0.1397
H27 H 0.3433 1.0157 0.2127
H28 H 0.2747 1.1098 0.1244
C13 C 0.3453(3) 0.8961(2) 0.02718(14)
H29 H 0.3018 0.9829 -0.0102
H30 H 0.3064 0.8389 0.0097
H31 H 0.4573 0.8665 0.0279
C14 C 0.1872(4) 0.9026(3) 0.32620(18)
H32 H 0.1201 0.9032 0.3702
H33 H 0.1308 0.9674 0.2767
H34 H 0.2766 0.9218 0.3396
C15 C 0.3620(3) 0.6314(3) 0.41196(14)
H35 H 0.2899 0.6307 0.4537
H36 H 0.4394 0.6643 0.4248
H37 H 0.4124 0.5443 0.4095
C16 C 0.0780(3) 0.6906(4) 0.30491(19)
H38 H 0.1109 0.6020 0.3042
H39 H 0.0126 0.7469 0.2557
H40 H 0.0203 0.6986 0.3517
C17 C 0.70372(19) 0.58658(18) 0.33396(12)
O1 O 0.78342(19) 0.47134(14) 0.35766(10)
C18 C 0.71670(18) 0.67205(17) 0.38325(11)
C19 C 0.6441(2) 0.80635(19) 0.35587(13)
H41 H 0.5837 0.8458 0.3058
C20 C 0.6607(3) 0.8820(2) 0.40224(14)
H42 H 0.6116 0.9721 0.3835
C21 C 0.7504(2) 0.8235(2) 0.47650(13)
C22 C 0.8219(2) 0.6898(2) 0.50461(13)
H43 H 0.8815 0.6506 0.5549
C23 C 0.8054(2) 0.61447(19) 0.45848(12)
H44 H 0.8538 0.5244 0.4778
C24 C 0.7716(4) 0.9051(3) 0.52668(17)
Cl1 Cl 0.69706(6) 0.77273(5) 0.16517(3)
F1 F 0.6912(16) 1.0300(6) 0.4957(6)
F2 F 0.7313(17) 0.8696(11) 0.6014(5)
F3 F 0.9119(6) 0.8990(9) 0.5364(7)
F4? F 0.6517(19) 1.004(2) 0.5210(17)
F5? F 0.800(4) 0.834(2) 0.6057(9)
F6? F 0.897(3) 0.933(3) 0.5077(14)
loop_
_geom_bond_atom_site_label_1
_geom_bond_atom_site_label_2
_geom_bond_site_symmetry_1
_geom_bond_site_symmetry_2
Si1 C1 1_555 1_555
Si2 C1 1_555 1_555
Si3 C1 1_555 1_555
Si4 C4 1_555 1_555
Si5 C4 1_555 1_555
C1 C2 1_555 1_555
C2 H1 1_555 1_555
H2 C2 1_555 1_555
C3 C2 1_555 1_555
H3 C3 1_555 1_555
H4 C3 1_555 1_555
C4 Si1 1_555 1_555
C5 Si2 1_555 1_555
H5 C5 1_555 1_555
H6 C5 1_555 1_555
H7 C5 1_555 1_555
C6 Si2 1_555 1_555
H8 C6 1_555 1_555
H9 C6 1_555 1_555
H10 C6 1_555 1_555
C7 Si2 1_555 1_555
H11 C7 1_555 1_555
H12 C7 1_555 1_555
H13 C7 1_555 1_555
C8 Si3 1_555 1_555
H14 C8 1_555 1_555
H15 C8 1_555 1_555
H16 C8 1_555 1_555
C9 Si3 1_555 1_555
H17 C9 1_555 1_555
H18 C9 1_555 1_555
H19 C9 1_555 1_555
C10 Si3 1_555 1_555
H20 C10 1_555 1_555
H21 C10 1_555 1_555
H22 C10 1_555 1_555
C11 Si4 1_555 1_555
H23 C11 1_555 1_555
H24 C11 1_555 1_555
H25 C11 1_555 1_555
C12 Si4 1_555 1_555
H26 C12 1_555 1_555
H27 C12 1_555 1_555
H28 C12 1_555 1_555
C13 Si4 1_555 1_555
H29 C13 1_555 1_555
H30 C13 1_555 1_555
H31 C13 1_555 1_555
C14 Si5 1_555 1_555
H32 C14 1_555 1_555
H33 C14 1_555 1_555
H34 C14 1_555 1_555
C15 Si5 1_555 1_555
H35 C15 1_555 1_555
H36 C15 1_555 1_555
H37 C15 1_555 1_555
C16 Si5 1_555 1_555
H38 C16 1_555 1_555
H39 C16 1_555 1_555
H40 C16 1_555 1_555
C17 Si1 1_555 1_555
O1 C17 1_555 1_555
C18 C17 1_555 1_555
C19 C18 1_555 1_555
H41 C19 1_555 1_555
C20 C19 1_555 1_555
H42 C20 1_555 1_555
C21 C20 1_555 1_555
C22 C21 1_555 1_555
H43 C22 1_555 1_555
C23 C18 1_555 1_555
H44 C23 1_555 1_555
C24 C21 1_555 1_555
Cl1 Si1 1_555 1_555
F1 C24 1_555 1_555
F2 C24 1_555 1_555
F3 C24 1_555 1_555
C3 C4 1_555 1_555
C22 C23 1_555 1_555

#END
