
#######################################################################
#
#                 Cambridge Crystallographic Data Centre
#                                CCDC 
#
#######################################################################
#
# If this CIF has been generated from an entry in the Cambridge 
# Structural Database, then it will include bibliographic, chemical, 
# crystal, experimental, refinement or atomic coordinate data resulting 
# from the CCDC's data processing and validation procedures.
#
#######################################################################

data_SAPMEC
_chemical_formula_moiety         'C20 H18 N2 O2'
_chemical_name_systematic        
1-Amino-2-cyano-3-(4-hydoxyphenyl)-3,3a,4,5-tetrahydro-9bH-cyclopenta[a]naphthalen-9b-ol
_symmetry_cell_setting           monoclinic
_symmetry_space_group_name_H-M   'P 21/n'
_symmetry_Int_Tables_number      14
_space_group_name_Hall           '-P 2yn'
loop_
_symmetry_equiv_pos_site_id
_symmetry_equiv_pos_as_xyz
1 x,y,z
2 1/2-x,1/2+y,1/2-z
3 -x,-y,-z
4 1/2+x,1/2-y,1/2+z
_cell_length_a                   7.701(1)
_cell_length_b                   9.841(1)
_cell_length_c                   20.768(3)
_cell_angle_alpha                90
_cell_angle_beta                 92.40(1)
_cell_angle_gamma                90
_cell_volume                     1572.53
_exptl_crystal_colour            colorless
_exptl_crystal_description       block
_chemical_melting_point          '486-487 K'
_cell_formula_units_Z            4
_exptl_crystal_recrystallization_method 'petroleum ether/acetone'
loop_
_atom_site_label
_atom_site_type_symbol
_atom_site_fract_x
_atom_site_fract_y
_atom_site_fract_z
O1 O 0.56101(19) 0.56734(15) 0.22314(6)
H1 H 0.5700 0.5857 0.1849
O2 O 0.1301(2) 0.37134(18) 0.58066(6)
H2 H 0.0358 0.3334 0.5753
N1 N 0.6338(2) 0.2527(2) 0.21392(9)
N2 N 0.7609(3) 0.1795(2) 0.38651(9)
C1 C 0.4401(2) 0.45626(18) 0.22934(8)
C2 C 0.3370(2) 0.43275(18) 0.16611(8)
C3 C 0.4220(3) 0.4256(2) 0.10836(9)
H3 H 0.5424 0.4342 0.1091
C4 C 0.3323(3) 0.40588(19) 0.04991(9)
H4 H 0.3917 0.3995 0.0120
C5 C 0.1546(3) 0.3960(2) 0.04883(10)
H5 H 0.0928 0.3835 0.0098
C6 C 0.0670(3) 0.4045(2) 0.10537(10)
H6 H -0.0536 0.3981 0.1038
C7 C 0.1552(2) 0.42257(19) 0.16481(9)
C8 C 0.0567(3) 0.4350(3) 0.22529(10)
H7 H -0.0415 0.3732 0.2228
H8 H 0.0113 0.5267 0.2282
C9 C 0.1653(3) 0.4044(2) 0.28568(9)
H9 H 0.1939 0.3084 0.2869
H10 H 0.0992 0.4251 0.3232
C10 C 0.3315(2) 0.48747(19) 0.28780(8)
H11 H 0.3028 0.5845 0.2883
C11 C 0.4554(2) 0.45331(19) 0.34642(8)
H12 H 0.5333 0.5310 0.3538
C12 C 0.5613(2) 0.3380(2) 0.31925(8)
C13 C 0.5507(2) 0.33561(19) 0.25413(8)
C14 C 0.3662(2) 0.42540(19) 0.40847(8)
C15 C 0.3186(3) 0.5348(2) 0.44590(9)
H13 H 0.3429 0.6224 0.4321
C16 C 0.2359(3) 0.5176(2) 0.50319(9)
H14 H 0.2032 0.5919 0.5276
C17 C 0.2038(3) 0.3880(2) 0.52268(9)
C18 C 0.2433(3) 0.2769(2) 0.48740(10)
H15 H 0.2164 0.1900 0.5016
C19 C 0.3247(3) 0.2956(2) 0.42970(9)
H16 H 0.3518 0.2205 0.4049
C20 C 0.6714(3) 0.2518(2) 0.35672(9)
H17 H 0.608(3) 0.252(3) 0.1729(13)
H18 H 0.711(3) 0.187(3) 0.2287(11)
loop_
_geom_bond_atom_site_label_1
_geom_bond_atom_site_label_2
_geom_bond_site_symmetry_1
_geom_bond_site_symmetry_2
O1 H1 1_555 1_555
O2 H2 1_555 1_555
N1 C13 1_555 1_555
N2 C20 1_555 1_555
C1 O1 1_555 1_555
C2 C1 1_555 1_555
C3 C2 1_555 1_555
H3 C3 1_555 1_555
C4 C3 1_555 1_555
H4 C4 1_555 1_555
C5 C4 1_555 1_555
H5 C5 1_555 1_555
C6 C5 1_555 1_555
H6 C6 1_555 1_555
C7 C2 1_555 1_555
C8 C7 1_555 1_555
H7 C8 1_555 1_555
H8 C8 1_555 1_555
C9 C8 1_555 1_555
H9 C9 1_555 1_555
H10 C9 1_555 1_555
C10 C1 1_555 1_555
H11 C10 1_555 1_555
C11 C10 1_555 1_555
H12 C11 1_555 1_555
C12 C11 1_555 1_555
C13 C1 1_555 1_555
C14 C11 1_555 1_555
C15 C14 1_555 1_555
H13 C15 1_555 1_555
C16 C15 1_555 1_555
H14 C16 1_555 1_555
C17 O2 1_555 1_555
C18 C17 1_555 1_555
H15 C18 1_555 1_555
C19 C14 1_555 1_555
H16 C19 1_555 1_555
C20 C12 1_555 1_555
H17 N1 1_555 1_555
H18 N1 1_555 1_555
C6 C7 1_555 1_555
C9 C10 1_555 1_555
C12 C13 1_555 1_555
C16 C17 1_555 1_555
C18 C19 1_555 1_555

#END
