
#######################################################################
#
#                 Cambridge Crystallographic Data Centre
#                                CCDC 
#
#######################################################################
#
# If this CIF has been generated from an entry in the Cambridge 
# Structural Database, then it will include bibliographic, chemical, 
# crystal, experimental, refinement or atomic coordinate data resulting 
# from the CCDC's data processing and validation procedures.
#
#######################################################################

data_SAPMAY
_chemical_name_common            
1-Amino-2-cyano-3-(4-methoxyphenyl)-3,3a,4,5-tetrahydro-9bH-cyclopenta[a]naphthalen-9b-ol
_chemical_formula_moiety         'C21 H20 N2 O2'
_chemical_name_systematic        
3-(4'-Methoxyphenyl)-1-amino-3a,4,5,9b-tetrahydro-9b-hydroxy-3H-cyclopenta(a)naphthalene-2-carbonitrile
_symmetry_cell_setting           orthorhombic
_symmetry_space_group_name_H-M   'P 21 21 21'
_symmetry_Int_Tables_number      19
_space_group_name_Hall           'P 2ac 2ab'
loop_
_symmetry_equiv_pos_site_id
_symmetry_equiv_pos_as_xyz
1 x,y,z
2 1/2-x,-y,1/2+z
3 -x,1/2+y,1/2-z
4 1/2+x,1/2-y,-z
_cell_length_a                   7.820(2)
_cell_length_b                   7.911(2)
_cell_length_c                   28.766(7)
_cell_angle_alpha                90
_cell_angle_beta                 90
_cell_angle_gamma                90
_cell_volume                     1779.58
_exptl_crystal_colour            colorless
_exptl_crystal_description       block
_chemical_melting_point          470-471K
_cell_formula_units_Z            4
_exptl_crystal_recrystallization_method 'petroleum ether/acetone'
loop_
_atom_site_label
_atom_site_type_symbol
_atom_site_fract_x
_atom_site_fract_y
_atom_site_fract_z
O1 O 0.6098(2) 0.6557(2) 0.72417(5)
H1 H 0.7101 0.6847 0.7220
O2 O 0.0985(3) 1.2230(3) 0.50819(7)
N1 N 0.3013(4) 0.4190(3) 0.70625(9)
N2 N -0.0439(3) 0.7417(3) 0.70147(9)
C1 C 0.5498(3) 0.5968(3) 0.67960(8)
C2 C 0.6552(3) 0.4446(3) 0.66496(8)
C3 C 0.6898(3) 0.3170(3) 0.69721(8)
H2 H 0.6465 0.3265 0.7272
C4 C 0.7862(4) 0.1778(4) 0.68574(10)
H3 H 0.8062 0.0936 0.7076
C5 C 0.8531(4) 0.1641(4) 0.64147(10)
H4 H 0.9179 0.0702 0.6332
C6 C 0.8228(4) 0.2905(3) 0.60970(9)
H5 H 0.8692 0.2810 0.5800
C7 C 0.7256(3) 0.4315(3) 0.62038(8)
C8 C 0.7038(4) 0.5717(4) 0.58556(9)
H6 H 0.6967 0.5235 0.5546
H7 H 0.8035 0.6446 0.5865
C9 C 0.5445(3) 0.6767(3) 0.59479(8)
H8 H 0.4435 0.6079 0.5898
H9 H 0.5405 0.7709 0.5732
C10 C 0.5448(3) 0.7436(3) 0.64473(8)
H10 H 0.6449 0.8162 0.6494
C11 C 0.3800(3) 0.8431(3) 0.65750(8)
H11 H 0.4078 0.9211 0.6829
C12 C 0.2687(3) 0.7037(3) 0.67699(8)
C13 C 0.3594(3) 0.5642(3) 0.68808(8)
C14 C 0.3031(3) 0.9448(3) 0.61810(8)
C15 C 0.3502(3) 1.1107(3) 0.61192(9)
H12 H 0.4267 1.1595 0.6327
C16 C 0.2866(4) 1.2079(4) 0.57531(9)
H13 H 0.3210 1.3197 0.5718
C17 C 0.1728(4) 1.1375(3) 0.54459(9)
C18 C 0.1232(4) 0.9710(3) 0.55016(9)
H14 H 0.0457 0.9228 0.5295
C19 C 0.1886(3) 0.8764(3) 0.58629(9)
H15 H 0.1553 0.7641 0.5894
C20 C 0.1429(5) 1.3971(4) 0.50290(12)
H16 H 0.1205 1.4561 0.5314
H17 H 0.0759 1.4459 0.4784
H18 H 0.2621 1.4062 0.4954
C21 C 0.0956(3) 0.7253(3) 0.68986(9)
H19 H 0.365(4) 0.339(4) 0.7156(9)
H20 H 0.195(4) 0.405(4) 0.7101(9)
loop_
_geom_bond_atom_site_label_1
_geom_bond_atom_site_label_2
_geom_bond_site_symmetry_1
_geom_bond_site_symmetry_2
O1 H1 1_555 1_555
O2 C17 1_555 1_555
N1 C13 1_555 1_555
N2 C21 1_555 1_555
C1 O1 1_555 1_555
C2 C1 1_555 1_555
C3 C2 1_555 1_555
H2 C3 1_555 1_555
C4 C3 1_555 1_555
H3 C4 1_555 1_555
C5 C4 1_555 1_555
H4 C5 1_555 1_555
C6 C5 1_555 1_555
H5 C6 1_555 1_555
C7 C2 1_555 1_555
C8 C7 1_555 1_555
H6 C8 1_555 1_555
H7 C8 1_555 1_555
C9 C8 1_555 1_555
H8 C9 1_555 1_555
H9 C9 1_555 1_555
C10 C1 1_555 1_555
H10 C10 1_555 1_555
C11 C10 1_555 1_555
H11 C11 1_555 1_555
C12 C11 1_555 1_555
C13 C1 1_555 1_555
C14 C11 1_555 1_555
C15 C14 1_555 1_555
H12 C15 1_555 1_555
C16 C15 1_555 1_555
H13 C16 1_555 1_555
C17 C16 1_555 1_555
C18 C17 1_555 1_555
H14 C18 1_555 1_555
C19 C14 1_555 1_555
H15 C19 1_555 1_555
C20 O2 1_555 1_555
H16 C20 1_555 1_555
H17 C20 1_555 1_555
H18 C20 1_555 1_555
C21 C12 1_555 1_555
H19 N1 1_555 1_555
H20 N1 1_555 1_555
C6 C7 1_555 1_555
C9 C10 1_555 1_555
C12 C13 1_555 1_555
C18 C19 1_555 1_555

#END
