
#######################################################################
#
#                 Cambridge Crystallographic Data Centre
#                                CCDC 
#
#######################################################################
#
# If this CIF has been generated from an entry in the Cambridge 
# Structural Database, then it will include bibliographic, chemical, 
# crystal, experimental, refinement or atomic coordinate data resulting 
# from the CCDC's data processing and validation procedures.
#
#######################################################################

data_SAPRIL
_chemical_formula_moiety         'C23 H25 N1 O5 S1'
_chemical_name_systematic        
3-Acetyl-1-benzyl-5-methoxy-6-methylene-3-(toluene-4-sulfonyl)piperidin-2-one
_symmetry_cell_setting           orthorhombic
_symmetry_space_group_name_H-M   'P 21 21 21'
_symmetry_Int_Tables_number      19
_space_group_name_Hall           'P 2ac 2ab'
loop_
_symmetry_equiv_pos_site_id
_symmetry_equiv_pos_as_xyz
1 x,y,z
2 1/2-x,-y,1/2+z
3 1/2+x,1/2-y,-z
4 -x,1/2+y,1/2-z
_cell_length_a                   7.2690(2)
_cell_length_b                   14.3170(3)
_cell_length_c                   20.3790(6)
_cell_angle_alpha                90
_cell_angle_beta                 90
_cell_angle_gamma                90
_cell_volume                     2120.85
_exptl_crystal_colour            colorless
_exptl_crystal_description       prism
_chemical_melting_point          139-140deg.C
_cell_formula_units_Z            4
_exptl_crystal_recrystallization_method 'ethyl acetate'
loop_
_atom_site_label
_atom_site_type_symbol
_atom_site_fract_x
_atom_site_fract_y
_atom_site_fract_z
S1 S 0.49674(8) 0.24101(4) 0.27450(3)
O1 O 0.4071(3) 0.17728(12) 0.23065(9)
O2 O 0.6737(2) 0.27667(12) 0.25601(9)
O3 O 0.6693(3) 0.30782(14) 0.40723(10)
O4 O 0.6663(3) 0.08789(13) 0.45894(9)
O5 O 0.2084(3) 0.14594(13) 0.35917(11)
N1 N 0.3936(3) 0.01915(14) 0.36239(10)
C1 C 0.0026(5) 0.5750(2) 0.31812(17)
H1 H 0.0758 0.6289 0.3282
H2 H -0.0804 0.5627 0.3538
H3 H -0.0665 0.5863 0.2788
C2 C 0.1242(4) 0.49132(18) 0.30843(13)
C3 C 0.0500(4) 0.40453(19) 0.29361(14)
H4 H -0.0811 0.3992 0.2893
C4 C 0.1607(4) 0.32718(17) 0.28400(13)
H5 H 0.1061 0.2678 0.2741
C5 C 0.3501(3) 0.33715(17) 0.28917(11)
C6 C 0.4281(4) 0.42324(17) 0.30372(12)
H6 H 0.5592 0.4303 0.3064
C7 C 0.3148(4) 0.49976(17) 0.31280(13)
H7 H 0.3689 0.5593 0.3228
C8 C 0.5297(3) 0.17905(15) 0.35345(12)
C9 C 0.5411(4) 0.25508(19) 0.40868(13)
C10 C 0.3962(6) 0.2600(3) 0.45997(18)
H8 H 0.3070 0.2118 0.4524
H9 H 0.3374 0.3200 0.4574
H10 H 0.4494 0.2521 0.5027
C11 C 0.7154(3) 0.12855(17) 0.34841(12)
H11 H 0.7300 0.1063 0.3043
H12 H 0.8136 0.1709 0.3587
C12 C 0.7097(4) 0.04780(17) 0.39661(12)
H13 H 0.8275 0.0178 0.3988
C13 C 0.6683(5) 0.0237(3) 0.51248(16)
H14 H 0.6382 0.0553 0.5526
H15 H 0.7886 -0.0035 0.5162
H16 H 0.5795 -0.0246 0.5044
C14 C 0.5673(3) -0.02141(17) 0.37607(11)
C15 C 0.5994(4) -0.11207(18) 0.37407(14)
H17 H 0.7194 -0.1367 0.3835
H18 H 0.5007 -0.1537 0.3628
C16 C 0.2329(4) -0.04229(18) 0.35788(13)
H19 H 0.1300 -0.0072 0.3417
H20 H 0.2581 -0.0933 0.3287
C17 C 0.1781(4) -0.08289(18) 0.42390(14)
C18 C 0.1836(4) -0.0301(2) 0.48071(14)
H21 H 0.2218 0.0340 0.4786
C19 C 0.1334(5) -0.0668(3) 0.54040(16)
H22 H 0.1410 -0.0290 0.5792
C20 C 0.0732(6) -0.1571(3) 0.5444(2)
H23 H 0.0415 -0.1836 0.5862
C21 C 0.0618(5) -0.2104(2) 0.4889(2)
H24 H 0.0140 -0.2727 0.4919
C22 C 0.1157(5) -0.1744(2) 0.42781(18)
H25 H 0.1091 -0.2138 0.3897
C23 C 0.3632(3) 0.11320(17) 0.35953(12)
loop_
_geom_bond_atom_site_label_1
_geom_bond_atom_site_label_2
_geom_bond_site_symmetry_1
_geom_bond_site_symmetry_2
S1 O1 1_555 1_555
O2 S1 1_555 1_555
O3 C9 1_555 1_555
O4 C12 1_555 1_555
O5 C23 1_555 1_555
N1 C14 1_555 1_555
C1 H1 1_555 1_555
H2 C1 1_555 1_555
H3 C1 1_555 1_555
C2 C1 1_555 1_555
C3 C2 1_555 1_555
H4 C3 1_555 1_555
C4 C3 1_555 1_555
H5 C4 1_555 1_555
C5 S1 1_555 1_555
C6 C5 1_555 1_555
H6 C6 1_555 1_555
C7 C2 1_555 1_555
H7 C7 1_555 1_555
C8 S1 1_555 1_555
C9 C8 1_555 1_555
C10 C9 1_555 1_555
H8 C10 1_555 1_555
H9 C10 1_555 1_555
H10 C10 1_555 1_555
C11 C8 1_555 1_555
H11 C11 1_555 1_555
H12 C11 1_555 1_555
C12 C11 1_555 1_555
H13 C12 1_555 1_555
C13 O4 1_555 1_555
H14 C13 1_555 1_555
H15 C13 1_555 1_555
H16 C13 1_555 1_555
C14 C12 1_555 1_555
C15 C14 1_555 1_555
H17 C15 1_555 1_555
H18 C15 1_555 1_555
C16 N1 1_555 1_555
H19 C16 1_555 1_555
H20 C16 1_555 1_555
C17 C16 1_555 1_555
C18 C17 1_555 1_555
H21 C18 1_555 1_555
C19 C18 1_555 1_555
H22 C19 1_555 1_555
C20 C19 1_555 1_555
H23 C20 1_555 1_555
C21 C20 1_555 1_555
H24 C21 1_555 1_555
C22 C17 1_555 1_555
H25 C22 1_555 1_555
C23 N1 1_555 1_555
C4 C5 1_555 1_555
C6 C7 1_555 1_555
C8 C23 1_555 1_555
C21 C22 1_555 1_555

#END
