
#######################################################################
#
#                 Cambridge Crystallographic Data Centre
#                                CCDC 
#
#######################################################################
#
# If this CIF has been generated from an entry in the Cambridge 
# Structural Database, then it will include bibliographic, chemical, 
# crystal, experimental, refinement or atomic coordinate data resulting 
# from the CCDC's data processing and validation procedures.
#
#######################################################################

data_SAPSUA
_chemical_formula_moiety         'C30 H22 N2 O2 S1'
_chemical_name_systematic        
9-[(4-methylphenyl)sulfonyl]-2,4-diphenyl-9H-pyrido[2,3-b]indole
_symmetry_cell_setting           triclinic
_symmetry_space_group_name_H-M   'P -1'
_symmetry_Int_Tables_number      2
_space_group_name_Hall           '-P 1'
loop_
_symmetry_equiv_pos_site_id
_symmetry_equiv_pos_as_xyz
1 x,y,z
2 -x,-y,-z
_cell_length_a                   9.003(2)
_cell_length_b                   10.963(3)
_cell_length_c                   12.428(3)
_cell_angle_alpha                72.805(5)
_cell_angle_beta                 85.559(5)
_cell_angle_gamma                79.074(5)
_cell_volume                     1150.28
_exptl_crystal_colour            colorless
_exptl_crystal_description       prismatic
_cell_formula_units_Z            2
loop_
_atom_site_label
_atom_site_type_symbol
_atom_site_fract_x
_atom_site_fract_y
_atom_site_fract_z
S1 S 0.37847(6) 0.15512(5) 0.70291(5)
N1 N 0.05952(19) 0.29904(16) 0.62213(15)
N2 N 0.29260(19) 0.30420(16) 0.70144(15)
O1 O 0.34956(17) 0.13598(15) 0.59911(13)
O2 O 0.52893(16) 0.14459(15) 0.73609(14)
C1 C 0.3372(2) 0.3832(2) 0.76239(18)
C2 C 0.4789(3) 0.3816(2) 0.8001(2)
H1 H 0.5616 0.3193 0.7922
C3 C 0.4922(3) 0.4754(3) 0.8496(2)
H2 H 0.5854 0.4750 0.8774
C4 C 0.3716(3) 0.5706(3) 0.8593(2)
H3 H 0.3851 0.6337 0.8920
C5 C 0.2319(3) 0.5726(2) 0.8211(2)
H4 H 0.1507 0.6366 0.8279
C6 C 0.2132(2) 0.4780(2) 0.77225(18)
C7 C 0.0865(2) 0.45650(19) 0.71935(17)
C8 C 0.1376(2) 0.35140(19) 0.67656(17)
C9 C -0.0851(2) 0.3587(2) 0.60204(17)
C10 C -0.1465(2) 0.4661(2) 0.63857(18)
H5 H -0.2464 0.5050 0.6219
C11 C -0.0641(2) 0.51711(19) 0.69892(17)
C12 C -0.1406(2) 0.6248(2) 0.74402(19)
C13 C -0.2155(3) 0.7383(2) 0.6723(2)
H6 H -0.2112 0.7495 0.5950
C14 C -0.2961(3) 0.8345(2) 0.7143(2)
H7 H -0.3439 0.9113 0.6654
C15 C -0.3059(3) 0.8171(3) 0.8289(3)
H8 H -0.3618 0.8817 0.8574
C16 C -0.2338(3) 0.7053(3) 0.9007(2)
H9 H -0.2410 0.6937 0.9780
C17 C -0.1502(3) 0.6092(2) 0.85910(19)
H10 H -0.1002 0.5337 0.9084
C18 C -0.1760(2) 0.2996(2) 0.54335(18)
C19 C -0.3136(3) 0.3638(2) 0.4958(2)
H11 H -0.3509 0.4475 0.4997
C20 C -0.3961(3) 0.3059(3) 0.4430(2)
H12 H -0.4879 0.3511 0.4110
C21 C -0.3445(3) 0.1827(3) 0.4369(2)
H13 H -0.4008 0.1437 0.4013
C22 C -0.2094(3) 0.1172(3) 0.4837(2)
H14 H -0.1739 0.0329 0.4806
C23 C -0.1259(3) 0.1754(3) 0.5351(2)
H15 H -0.0332 0.1302 0.5653
C24 C 0.2866(2) 0.05207(19) 0.81112(18)
C25 C 0.1814(3) -0.0118(2) 0.7864(2)
H16 H 0.1551 0.0025 0.7122
C26 C 0.1159(3) -0.0970(2) 0.8731(2)
H17 H 0.0444 -0.1396 0.8565
C27 C 0.1535(3) -0.1209(2) 0.9839(2)
C28 C 0.2571(3) -0.0541(2) 1.0067(2)
H18 H 0.2821 -0.0677 1.0811
C29 C 0.3239(3) 0.0317(2) 0.92232(19)
H19 H 0.3934 0.0758 0.9393
C30 C 0.0849(3) -0.2179(3) 1.0770(3)
H20 H 0.0528 -0.1816 1.1382
H21 H 0.1589 -0.2951 1.1030
H22 H -0.0006 -0.2390 1.0492
loop_
_geom_bond_atom_site_label_1
_geom_bond_atom_site_label_2
_geom_bond_site_symmetry_1
_geom_bond_site_symmetry_2
S1 N2 1_555 1_555
N1 C8 1_555 1_555
N2 C1 1_555 1_555
O1 S1 1_555 1_555
O2 S1 1_555 1_555
C1 C2 1_555 1_555
C2 H1 1_555 1_555
C3 C2 1_555 1_555
H2 C3 1_555 1_555
C4 C3 1_555 1_555
H3 C4 1_555 1_555
C5 C4 1_555 1_555
H4 C5 1_555 1_555
C6 C1 1_555 1_555
C7 C6 1_555 1_555
C8 N2 1_555 1_555
C9 N1 1_555 1_555
C10 C9 1_555 1_555
H5 C10 1_555 1_555
C11 C7 1_555 1_555
C12 C11 1_555 1_555
C13 C12 1_555 1_555
H6 C13 1_555 1_555
C14 C13 1_555 1_555
H7 C14 1_555 1_555
C15 C14 1_555 1_555
H8 C15 1_555 1_555
C16 C15 1_555 1_555
H9 C16 1_555 1_555
C17 C12 1_555 1_555
H10 C17 1_555 1_555
C18 C9 1_555 1_555
C19 C18 1_555 1_555
H11 C19 1_555 1_555
C20 C19 1_555 1_555
H12 C20 1_555 1_555
C21 C20 1_555 1_555
H13 C21 1_555 1_555
C22 C21 1_555 1_555
H14 C22 1_555 1_555
C23 C18 1_555 1_555
H15 C23 1_555 1_555
C24 S1 1_555 1_555
C25 C24 1_555 1_555
H16 C25 1_555 1_555
C26 C25 1_555 1_555
H17 C26 1_555 1_555
C27 C26 1_555 1_555
C28 C27 1_555 1_555
H18 C28 1_555 1_555
C29 C24 1_555 1_555
H19 C29 1_555 1_555
C30 C27 1_555 1_555
H20 C30 1_555 1_555
H21 C30 1_555 1_555
H22 C30 1_555 1_555
C5 C6 1_555 1_555
C7 C8 1_555 1_555
C10 C11 1_555 1_555
C16 C17 1_555 1_555
C22 C23 1_555 1_555
C28 C29 1_555 1_555

#END
