
#######################################################################
#
#                 Cambridge Crystallographic Data Centre
#                                CCDC 
#
#######################################################################
#
# If this CIF has been generated from an entry in the Cambridge 
# Structural Database, then it will include bibliographic, chemical, 
# crystal, experimental, refinement or atomic coordinate data resulting 
# from the CCDC's data processing and validation procedures.
#
#######################################################################

data_SAPTEL
_chemical_formula_moiety         'C33 H25 N3 O4 S1'
_chemical_name_systematic        
3-{5-[(4-methylphenyl)sulfonyl]-2,4-diphenyl-5H-pyrido[3,2-b]indol-3-yl}-1,3-oxazolidin-2-one
_symmetry_cell_setting           monoclinic
_symmetry_space_group_name_H-M   'C c'
_symmetry_Int_Tables_number      9
_space_group_name_Hall           'C -2yc'
loop_
_symmetry_equiv_pos_site_id
_symmetry_equiv_pos_as_xyz
1 x,y,z
2 x,-y,1/2+z
3 1/2+x,1/2+y,z
4 1/2+x,1/2-y,1/2+z
_cell_length_a                   10.6286(18)
_cell_length_b                   25.115(4)
_cell_length_c                   10.7465(18)
_cell_angle_alpha                90
_cell_angle_beta                 104.224(4)
_cell_angle_gamma                90
_cell_volume                     2780.7
_exptl_crystal_colour            colorless
_exptl_crystal_description       block
_cell_formula_units_Z            4
loop_
_atom_site_label
_atom_site_type_symbol
_atom_site_fract_x
_atom_site_fract_y
_atom_site_fract_z
S1 S 0.63671(12) 0.28290(5) 0.53928(13)
O1 O 0.1875(4) 0.46421(17) 0.3157(4)
O2 O 0.0328(3) 0.46578(14) 0.4241(4)
O3 O 0.5069(3) 0.26679(14) 0.4826(4)
O4 O 0.7322(4) 0.24413(13) 0.5962(4)
N1 N 0.5778(4) 0.46840(16) 0.6234(4)
N2 N 0.6283(4) 0.32650(15) 0.6584(4)
N3 N 0.2278(4) 0.43842(16) 0.5269(4)
C1 C 0.4498(5) 0.47333(19) 0.5721(5)
C2 C 0.3639(5) 0.42941(19) 0.5543(5)
C3 C 0.4126(5) 0.37690(19) 0.5736(4)
C4 C 0.5465(5) 0.37267(18) 0.6209(4)
C5 C 0.6219(5) 0.41875(18) 0.6516(5)
C6 C 0.7516(5) 0.40357(18) 0.7210(5)
C7 C 0.7548(5) 0.34789(18) 0.7250(5)
C8 C 0.8638(5) 0.32051(19) 0.7908(5)
H1 H 0.8651 0.2827 0.7945
C9 C 0.9710(5) 0.3504(2) 0.8513(5)
H2 H 1.0475 0.3326 0.8964
C10 C 0.9695(5) 0.4059(2) 0.8476(5)
H3 H 1.0451 0.4252 0.8887
C11 C 0.8594(5) 0.43303(19) 0.7850(5)
H4 H 0.8570 0.4708 0.7854
C12 C 0.4072(5) 0.52930(19) 0.5348(5)
C13 C 0.3225(5) 0.55658(19) 0.5912(5)
H5 H 0.2833 0.5389 0.6502
C14 C 0.2945(5) 0.6104(2) 0.5611(5)
H6 H 0.2374 0.6293 0.6007
C15 C 0.3501(5) 0.6357(2) 0.4738(5)
H7 H 0.3311 0.6721 0.4533
C16 C 0.4334(5) 0.6082(2) 0.4161(5)
H8 H 0.4712 0.6258 0.3558
C17 C 0.4624(5) 0.5547(2) 0.4461(5)
H9 H 0.5194 0.5358 0.4062
C18 C 0.1513(5) 0.4300(2) 0.6206(5)
H10 H 0.1932 0.4463 0.7045
H11 H 0.1362 0.3917 0.6328
C19 C 0.0267(6) 0.4586(2) 0.5561(6)
H12 H -0.0498 0.4369 0.5608
H13 H 0.0212 0.4934 0.5977
C20 C 0.1552(5) 0.4569(2) 0.4146(5)
C21 C 0.3193(5) 0.33115(18) 0.5480(5)
C22 C 0.3120(5) 0.2957(2) 0.6446(5)
H14 H 0.3664 0.3002 0.7284
C23 C 0.2248(6) 0.2533(2) 0.6189(6)
H15 H 0.2185 0.2295 0.6857
C24 C 0.1471(6) 0.2459(2) 0.4958(7)
H16 H 0.0878 0.2170 0.4784
C25 C 0.1561(5) 0.2807(2) 0.3990(6)
H17 H 0.1042 0.2752 0.3145
C26 C 0.2407(5) 0.3237(2) 0.4246(5)
H18 H 0.2451 0.3480 0.3581
C27 C 0.6931(5) 0.3217(2) 0.4278(5)
C28 C 0.6041(5) 0.3495(2) 0.3343(5)
H19 H 0.5140 0.3478 0.3310
C29 C 0.6475(6) 0.3797(2) 0.2465(5)
H20 H 0.5861 0.3986 0.1827
C30 C 0.7779(6) 0.3833(2) 0.2482(5)
C31 C 0.8662(6) 0.3552(2) 0.3446(6)
H21 H 0.9563 0.3572 0.3483
C32 C 0.8247(5) 0.3248(2) 0.4346(5)
H22 H 0.8856 0.3064 0.4999
C33 C 0.8241(7) 0.4137(2) 0.1483(6)
H23 H 0.8182 0.3911 0.0727
H24 H 0.9146 0.4245 0.1830
H25 H 0.7700 0.4454 0.1238
loop_
_geom_bond_atom_site_label_1
_geom_bond_atom_site_label_2
_geom_bond_site_symmetry_1
_geom_bond_site_symmetry_2
S1 O3 1_555 1_555
O1 C20 1_555 1_555
O2 C19 1_555 1_555
O4 S1 1_555 1_555
N1 C1 1_555 1_555
N2 S1 1_555 1_555
N3 C2 1_555 1_555
C1 C2 1_555 1_555
C2 C3 1_555 1_555
C3 C4 1_555 1_555
C4 N2 1_555 1_555
C5 N1 1_555 1_555
C6 C5 1_555 1_555
C7 N2 1_555 1_555
C8 C7 1_555 1_555
H1 C8 1_555 1_555
C9 C8 1_555 1_555
H2 C9 1_555 1_555
C10 C9 1_555 1_555
H3 C10 1_555 1_555
C11 C6 1_555 1_555
H4 C11 1_555 1_555
C12 C1 1_555 1_555
C13 C12 1_555 1_555
H5 C13 1_555 1_555
C14 C13 1_555 1_555
H6 C14 1_555 1_555
C15 C14 1_555 1_555
H7 C15 1_555 1_555
C16 C15 1_555 1_555
H8 C16 1_555 1_555
C17 C12 1_555 1_555
H9 C17 1_555 1_555
C18 N3 1_555 1_555
H10 C18 1_555 1_555
H11 C18 1_555 1_555
C19 C18 1_555 1_555
H12 C19 1_555 1_555
H13 C19 1_555 1_555
C20 O2 1_555 1_555
C21 C3 1_555 1_555
C22 C21 1_555 1_555
H14 C22 1_555 1_555
C23 C22 1_555 1_555
H15 C23 1_555 1_555
C24 C23 1_555 1_555
H16 C24 1_555 1_555
C25 C24 1_555 1_555
H17 C25 1_555 1_555
C26 C21 1_555 1_555
H18 C26 1_555 1_555
C27 S1 1_555 1_555
C28 C27 1_555 1_555
H19 C28 1_555 1_555
C29 C28 1_555 1_555
H20 C29 1_555 1_555
C30 C29 1_555 1_555
C31 C30 1_555 1_555
H21 C31 1_555 1_555
C32 C27 1_555 1_555
H22 C32 1_555 1_555
C33 C30 1_555 1_555
H23 C33 1_555 1_555
H24 C33 1_555 1_555
H25 C33 1_555 1_555
N3 C20 1_555 1_555
C4 C5 1_555 1_555
C6 C7 1_555 1_555
C10 C11 1_555 1_555
C16 C17 1_555 1_555
C25 C26 1_555 1_555
C31 C32 1_555 1_555

#END
