
#######################################################################
#
#                 Cambridge Crystallographic Data Centre
#                                CCDC 
#
#######################################################################
#
# If this CIF has been generated from an entry in the Cambridge 
# Structural Database, then it will include bibliographic, chemical, 
# crystal, experimental, refinement or atomic coordinate data resulting 
# from the CCDC's data processing and validation procedures.
#
#######################################################################

data_SAPXUF
_chemical_formula_moiety         'C11 H7 F3 O2'
_chemical_name_systematic        6-methyl-3-(trifluoromethyl)-4H-chromen-4-one
_symmetry_cell_setting           orthorhombic
_symmetry_space_group_name_H-M   'P n m a'
_symmetry_Int_Tables_number      62
_space_group_name_Hall           '-P 2ac 2n'
loop_
_symmetry_equiv_pos_site_id
_symmetry_equiv_pos_as_xyz
1 x,y,z
2 1/2-x,-y,1/2+z
3 1/2+x,1/2-y,1/2-z
4 -x,1/2+y,-z
5 -x,-y,-z
6 1/2+x,y,1/2-z
7 1/2-x,1/2+y,1/2+z
8 x,1/2-y,z
_cell_length_a                   12.6569(14)
_cell_length_b                   6.8697(7)
_cell_length_c                   11.6339(13)
_cell_angle_alpha                90
_cell_angle_beta                 90
_cell_angle_gamma                90
_cell_volume                     1011.56
_exptl_crystal_colour            colorless
_exptl_crystal_description       cube
_cell_formula_units_Z            4
loop_
_atom_site_label
_atom_site_type_symbol
_atom_site_fract_x
_atom_site_fract_y
_atom_site_fract_z
F1 F 0.00734(18) 0.7500 0.45152(17)
F2 F 0.14432(13) 0.5962(3) 0.39758(12)
O1 O 0.21452(14) 0.7500 0.17235(19)
O2 O -0.10373(12) 0.7500 0.13165(15)
C1 C 0.0827(2) 0.7500 -0.1617(2)
C2 C -0.0278(3) 0.7500 -0.1667(2)
H1 H -0.0607 0.7500 -0.2381
C3 C -0.0888(2) 0.7500 -0.0694(2)
H2 H -0.1621 0.7500 -0.0745
C4 C -0.03942(18) 0.7500 0.0364(2)
C5 C 0.06937(17) 0.7500 0.0458(2)
C6 C 0.1293(2) 0.7500 -0.0553(2)
H3 H 0.2026 0.7500 -0.0501
C7 C 0.1482(3) 0.7500 -0.2694(3)
C8 C 0.11899(19) 0.7500 0.1589(2)
C9 C 0.04483(19) 0.7500 0.2545(2)
C10 C -0.05868(19) 0.7500 0.2358(2)
H4 H -0.1030 0.7500 0.2995
C11 C 0.0848(3) 0.7500 0.3746(3)
F2G F 0.14432(13) 0.9038(3) 0.39758(12)
H5? H 0.1071 0.8009 -0.3319
H6? H 0.1697 0.6193 -0.2869
H7? H 0.2096 0.8298 -0.2582
loop_
_geom_bond_atom_site_label_1
_geom_bond_atom_site_label_2
_geom_bond_site_symmetry_1
_geom_bond_site_symmetry_2
F1 C11 1_555 1_555
F2 C11 1_555 1_555
O1 C8 1_555 1_555
O2 C4 1_555 1_555
C1 C2 1_555 1_555
C2 H1 1_555 1_555
C3 C2 1_555 1_555
H2 C3 1_555 1_555
C4 C3 1_555 1_555
C5 C4 1_555 1_555
C6 C1 1_555 1_555
H3 C6 1_555 1_555
C7 C1 1_555 1_555
C8 C5 1_555 1_555
C9 C8 1_555 1_555
C10 O2 1_555 1_555
H4 C10 1_555 1_555
C11 C9 1_555 1_555
F2G C11 1_555 1_555
C5 C6 1_555 1_555
C9 C10 1_555 1_555

#END
