
#######################################################################
#
#                 Cambridge Crystallographic Data Centre
#                                CCDC 
#
#######################################################################
#
# If this CIF has been generated from an entry in the Cambridge 
# Structural Database, then it will include bibliographic, chemical, 
# crystal, experimental, refinement or atomic coordinate data resulting 
# from the CCDC's data processing and validation procedures.
#
#######################################################################

data_SAPXIT
_chemical_name_common            beta-2,3,6,12,13,16-hexaethylporphycene
_chemical_formula_moiety         'C32 H38 N4'
_chemical_name_systematic        
3,4,10,13,14,20-hexaethyl-21,22,23,24-tetraazapentacyclo[16.2.1.1^2,5^.1^8,11^.1^12,15^]tetracosa-1(21),2,4,6,8(23),9,11,13,15,17,19-undecaene
_symmetry_cell_setting           monoclinic
_symmetry_space_group_name_H-M   'P 21/n'
_symmetry_Int_Tables_number      14
_space_group_name_Hall           '-P 2yn'
loop_
_symmetry_equiv_pos_site_id
_symmetry_equiv_pos_as_xyz
1 x,y,z
2 1/2-x,1/2+y,1/2-z
3 -x,-y,-z
4 1/2+x,1/2-y,1/2+z
_cell_length_a                   12.907(14)
_cell_length_b                   5.227(6)
_cell_length_c                   19.57(2)
_cell_angle_alpha                90
_cell_angle_beta                 99.198(18)
_cell_angle_gamma                90
_cell_volume                     1303.31
_exptl_crystal_colour            brown
_exptl_crystal_description       plate
_cell_formula_units_Z            2
loop_
_atom_site_label
_atom_site_type_symbol
_atom_site_fract_x
_atom_site_fract_y
_atom_site_fract_z
N1 N 0.52419(19) 1.0098(5) 0.09813(12)
N2 N 0.4026(2) 0.7055(5) 0.00588(13)
C1 C 0.4969(3) 0.7977(6) 0.19859(16)
C2 C 0.6559(3) 1.3174(6) 0.15524(18)
H1 H 0.6868 1.3631 0.1998
C3 C 0.5863(2) 1.1119(6) 0.15404(16)
C4 C 0.4676(2) 0.8199(5) 0.12314(15)
C5 C 0.3986(2) 0.6726(5) 0.07496(16)
C6 C 0.3205(3) 0.4816(6) 0.08006(17)
C7 C 0.6885(3) 1.4664(7) 0.10485(17)
H2 H 0.7340 1.5978 0.1219
C8 C 0.3344(3) 0.5441(7) -0.03266(18)
C9 C 0.5698(3) 0.9810(6) 0.21531(16)
H3 H 0.6040 1.0167 0.2598
C10 C 0.2716(3) 0.4040(7) 0.14158(18)
H4 H 0.3266 0.3562 0.1792
H5 H 0.2275 0.2551 0.1296
C11 C 0.4653(3) 0.6079(6) 0.24900(17)
H6 H 0.4702 0.4371 0.2304
H7 H 0.3924 0.6376 0.2533
C12 C 0.2847(3) 0.3979(7) 0.01409(18)
C13 C 0.2067(4) 0.1820(10) -0.0069(2)
H8 H 0.2195 0.1041 -0.0497
H9 H 0.2135 0.0515 0.0288
C14 C 0.5304(4) 0.6186(9) 0.3198(2)
H10 H 0.6027 0.5880 0.3162
H11 H 0.5066 0.4901 0.3488
H12 H 0.5236 0.7844 0.3397
C15 C 0.2055(3) 0.6174(8) 0.1660(2)
H13 H 0.2486 0.7657 0.1777
H14 H 0.1776 0.5610 0.2061
H15 H 0.1489 0.6596 0.1297
C16 C 0.1037(4) 0.2926(10) -0.0158(3)
H16 H 0.0915 0.3660 0.0272
H17 H 0.0523 0.1622 -0.0299
H18 H 0.0984 0.4234 -0.0506
H19 H 0.445(3) 0.814(6) -0.0182(19)
N1B N 0.47581(19) 0.9902(5) -0.09813(12)
N2B N 0.5974(2) 1.2945(5) -0.00588(13)
C1B C 0.5031(3) 1.2023(6) -0.19859(16)
C2B C 0.3441(3) 0.6826(6) -0.15524(18)
H1B H 0.3132 0.6369 -0.1998
C3B C 0.4137(2) 0.8881(6) -0.15404(16)
C4B C 0.5324(2) 1.1801(5) -0.12314(15)
C5B C 0.6014(2) 1.3274(5) -0.07496(16)
C6B C 0.6795(3) 1.5184(6) -0.08006(17)
C7B C 0.3115(3) 0.5336(7) -0.10485(17)
H2B H 0.2660 0.4022 -0.1219
C8B C 0.6656(3) 1.4559(7) 0.03266(18)
C9B C 0.4302(3) 1.0190(6) -0.21531(16)
H3B H 0.3960 0.9833 -0.2598
C10B C 0.7284(3) 1.5960(7) -0.14158(18)
H4B H 0.6734 1.6438 -0.1792
H5B H 0.7725 1.7449 -0.1296
C11B C 0.5347(3) 1.3921(6) -0.24900(17)
H6B H 0.5298 1.5629 -0.2304
H7B H 0.6076 1.3624 -0.2533
C12B C 0.7153(3) 1.6021(7) -0.01409(18)
C13B C 0.7933(4) 1.8180(10) 0.0069(2)
H8B H 0.7805 1.8959 0.0497
H9B H 0.7865 1.9485 -0.0288
C14B C 0.4696(4) 1.3814(9) -0.3198(2)
H10B H 0.3973 1.4120 -0.3162
H11B H 0.4934 1.5099 -0.3488
H12B H 0.4764 1.2156 -0.3397
C15B C 0.7945(3) 1.3826(8) -0.1660(2)
H13B H 0.7514 1.2343 -0.1777
H14B H 0.8224 1.4390 -0.2061
H15B H 0.8511 1.3404 -0.1297
C16B C 0.8963(4) 1.7074(10) 0.0158(3)
H16B H 0.9085 1.6340 -0.0272
H17B H 0.9477 1.8378 0.0299
H18B H 0.9016 1.5766 0.0506
H19B H 0.555(3) 1.186(6) 0.0182(19)
loop_
_geom_bond_atom_site_label_1
_geom_bond_atom_site_label_2
_geom_bond_site_symmetry_1
_geom_bond_site_symmetry_2
N1 C3 1_555 1_555
N2 C5 1_555 1_555
C1 C4 1_555 1_555
C2 H1 1_555 1_555
C3 C2 1_555 1_555
C4 N1 1_555 1_555
C5 C4 1_555 1_555
C6 C5 1_555 1_555
C7 C2 1_555 1_555
H2 C7 1_555 1_555
C8 N2 1_555 1_555
C9 C1 1_555 1_555
H3 C9 1_555 1_555
C10 C6 1_555 1_555
H4 C10 1_555 1_555
H5 C10 1_555 1_555
C11 C1 1_555 1_555
H6 C11 1_555 1_555
H7 C11 1_555 1_555
C12 C6 1_555 1_555
C13 C12 1_555 1_555
H8 C13 1_555 1_555
H9 C13 1_555 1_555
C14 C11 1_555 1_555
H10 C14 1_555 1_555
H11 C14 1_555 1_555
H12 C14 1_555 1_555
C15 C10 1_555 1_555
H13 C15 1_555 1_555
H14 C15 1_555 1_555
H15 C15 1_555 1_555
C16 C13 1_555 1_555
H16 C16 1_555 1_555
H17 C16 1_555 1_555
H18 C16 1_555 1_555
H19 N2 1_555 1_555
N1B C3B 1_555 1_555
N2B C5B 1_555 1_555
C1B C4B 1_555 1_555
C2B H1B 1_555 1_555
C3B C2B 1_555 1_555
C4B N1B 1_555 1_555
C5B C4B 1_555 1_555
C6B C5B 1_555 1_555
C7B C8 1_555 1_555
H2B C7B 1_555 1_555
C8B C7 1_555 1_555
C9B C1B 1_555 1_555
H3B C9B 1_555 1_555
C10B C6B 1_555 1_555
H4B C10B 1_555 1_555
H5B C10B 1_555 1_555
C11B C1B 1_555 1_555
H6B C11B 1_555 1_555
H7B C11B 1_555 1_555
C12B C6B 1_555 1_555
C13B C12B 1_555 1_555
H8B C13B 1_555 1_555
H9B C13B 1_555 1_555
C14B C11B 1_555 1_555
H10B C14B 1_555 1_555
H11B C14B 1_555 1_555
H12B C14B 1_555 1_555
C15B C10B 1_555 1_555
H13B C15B 1_555 1_555
H14B C15B 1_555 1_555
H15B C15B 1_555 1_555
C16B C13B 1_555 1_555
H16B C16B 1_555 1_555
H17B C16B 1_555 1_555
H18B C16B 1_555 1_555
H19B N2B 1_555 1_555
C3 C9 1_555 1_555
C8 C12 1_555 1_555
N2B C8B 1_555 1_555
C2B C7B 1_555 1_555
C3B C9B 1_555 1_555
C8B C12B 1_555 1_555

#END
