
#######################################################################
#
#                 Cambridge Crystallographic Data Centre
#                                CCDC 
#
#######################################################################
#
# If this CIF has been generated from an entry in the Cambridge 
# Structural Database, then it will include bibliographic, chemical, 
# crystal, experimental, refinement or atomic coordinate data resulting 
# from the CCDC's data processing and validation procedures.
#
#######################################################################

data_SAPZOB
_chemical_formula_moiety         'C20 H12 N2 O3'
_chemical_name_systematic        3,4-bis(1H-indol-3-yl)furan-2,5-dione
_symmetry_cell_setting           monoclinic
_symmetry_space_group_name_H-M   'P c'
_symmetry_Int_Tables_number      7
_space_group_name_Hall           'P -2yc'
loop_
_symmetry_equiv_pos_site_id
_symmetry_equiv_pos_as_xyz
1 x,y,z
2 x,-y,1/2+z
_cell_length_a                   7.2537(3)
_cell_length_b                   6.7653(3)
_cell_length_c                   15.6473(7)
_cell_angle_alpha                90
_cell_angle_beta                 97.694(4)
_cell_angle_gamma                90
_cell_volume                     760.954
_cell_formula_units_Z            2
loop_
_atom_site_label
_atom_site_type_symbol
_atom_site_fract_x
_atom_site_fract_y
_atom_site_fract_z
O1 O -0.2384(5) -0.2095(5) -0.5439(2)
N1 N 0.1292(5) -0.9447(6) -0.5030(3)
H1 H 0.1892 -1.0216 -0.5332
O2 O 0.0000(6) -0.3614(6) -0.5927(3)
C1 C 0.1020(6) -0.9779(6) -0.4187(3)
O3 O -0.4774(5) -0.1425(5) -0.4710(3)
C2 C -0.0021(5) -0.8178(6) -0.3925(3)
N2 N -0.5458(5) -0.7383(6) -0.3007(3)
H2 H -0.6024 -0.8445 -0.2888
C3 C -0.0399(5) -0.6887(6) -0.4662(3)
C4 C -0.3912(5) -0.5223(6) -0.3717(3)
C5 C -0.4262(5) -0.4337(6) -0.2918(3)
C6 C -0.1143(6) -0.3651(7) -0.5441(3)
C7 C -0.5230(5) -0.5756(7) -0.2492(3)
C8 C -0.3508(6) -0.2507(6) -0.4808(3)
C9 C -0.0355(6) -0.8111(7) -0.3064(3)
H3 H -0.0973 -0.7042 -0.2860
C10 C -0.2909(5) -0.4382(6) -0.4376(2)
C11 C 0.0467(6) -0.7714(7) -0.5312(3)
H4 H 0.0484 -0.7171 -0.5857
C12 C -0.4661(6) -0.7088(6) -0.3739(3)
H5 H -0.4630 -0.8003 -0.4180
C13 C -0.1491(5) -0.5110(6) -0.4774(2)
C14 C 0.1612(6) -1.1355(7) -0.3651(3)
H6 H 0.2262 -1.2413 -0.3845
C15 C 0.1190(7) -1.1278(8) -0.2816(4)
H7 H 0.1537 -1.2321 -0.2442
C16 C -0.5783(7) -0.5382(9) -0.1686(3)
H8 H -0.6466 -0.6304 -0.1419
C17 C -0.4271(8) -0.2194(10) -0.1703(4)
H9 H -0.3928 -0.1014 -0.1421
C18 C -0.3775(6) -0.2535(8) -0.2515(3)
H10 H -0.3131 -0.1583 -0.2785
C19 C 0.0251(7) -0.9660(8) -0.2525(3)
H11 H 0.0029 -0.9627 -0.1954
C20 C -0.5279(8) -0.3596(10) -0.1302(3)
H12 H -0.5618 -0.3316 -0.0763
loop_
_geom_bond_atom_site_label_1
_geom_bond_atom_site_label_2
_geom_bond_site_symmetry_1
_geom_bond_site_symmetry_2
O1 C6 1_555 1_555
N1 H1 1_555 1_555
O2 C6 1_555 1_555
C1 N1 1_555 1_555
O3 C8 1_555 1_555
C2 C1 1_555 1_555
N2 H2 1_555 1_555
C3 C2 1_555 1_555
C4 C5 1_555 1_555
C5 C7 1_555 1_555
C6 C13 1_555 1_555
C7 N2 1_555 1_555
C8 O1 1_555 1_555
C9 C2 1_555 1_555
H3 C9 1_555 1_555
C10 C4 1_555 1_555
C11 N1 1_555 1_555
H4 C11 1_555 1_555
C12 N2 1_555 1_555
H5 C12 1_555 1_555
C13 C3 1_555 1_555
C14 C1 1_555 1_555
H6 C14 1_555 1_555
C15 C14 1_555 1_555
H7 C15 1_555 1_555
C16 C7 1_555 1_555
H8 C16 1_555 1_555
C17 H9 1_555 1_555
C18 C5 1_555 1_555
H10 C18 1_555 1_555
C19 C9 1_555 1_555
H11 C19 1_555 1_555
C20 C16 1_555 1_555
H12 C20 1_555 1_555
C3 C11 1_555 1_555
C4 C12 1_555 1_555
C8 C10 1_555 1_555
C10 C13 1_555 1_555
C15 C19 1_555 1_555
C17 C18 1_555 1_555
C17 C20 1_555 1_555

#END
