
#######################################################################
#
#                 Cambridge Crystallographic Data Centre
#                                CCDC 
#
#######################################################################
#
# If this CIF has been generated from an entry in the Cambridge 
# Structural Database, then it will include bibliographic, chemical, 
# crystal, experimental, refinement or atomic coordinate data resulting 
# from the CCDC's data processing and validation procedures.
#
#######################################################################

data_SAQHAW
_chemical_compound_source        
'obtained from an endophytic fungus, Phomopsis sp.917'
_chemical_name_common            'Phomopsiketone C monohydrate'
_chemical_formula_moiety         'C11 H12 O5,H2 O1'
_chemical_name_systematic        
'3,4,8-trihydroxy-6-methoxy-3,4-dihydronaphthalen-1(2H)-one monohydrate'
_symmetry_cell_setting           orthorhombic
_symmetry_space_group_name_H-M   'P 21 21 21'
_symmetry_Int_Tables_number      19
_space_group_name_Hall           'P 2ac 2ab'
loop_
_symmetry_equiv_pos_site_id
_symmetry_equiv_pos_as_xyz
1 x,y,z
2 1/2+x,1/2-y,-z
3 -x,1/2+y,1/2-z
4 1/2-x,-y,1/2+z
_cell_length_a                   4.61940(10)
_cell_length_b                   8.02750(10)
_cell_length_c                   30.3266(5)
_cell_angle_alpha                90
_cell_angle_beta                 90
_cell_angle_gamma                90
_cell_volume                     1124.58
_exptl_crystal_colour            colorless
_exptl_crystal_description       prism
_chemical_melting_point          '120-122 deg.C'
_cell_formula_units_Z            4
loop_
_atom_site_label
_atom_site_type_symbol
_atom_site_fract_x
_atom_site_fract_y
_atom_site_fract_z
O1 O 0.9714(2) 0.86857(11) 0.80021(3)
H1 H 0.9988 0.8114 0.8199
H2 H 0.8091 0.9181 0.8072
O2 O 0.0790(3) 0.64432(12) 0.86802(3)
O3 O -0.0447(3) -0.07221(11) 0.95368(3)
O4 O -0.1746(2) 0.51117(12) 0.93453(3)
H3 H -0.1157 0.5897 0.9186
O5 O 0.0822(2) 0.27591(13) 0.78576(3)
H4 H 0.0594 0.2972 0.7589
O6 O 0.4776(2) 0.03090(11) 0.81605(3)
H5 H 0.3106 -0.0009 0.8090
C1 C 0.1900(3) 0.50770(18) 0.85857(4)
C2 C 0.1418(3) 0.36108(18) 0.88527(4)
C3 C -0.0475(3) 0.36811(17) 0.92178(4)
C4 C -0.1125(3) 0.22581(17) 0.94606(4)
H6 H -0.2375 0.2318 0.9709
C5 C 0.0083(4) 0.07501(16) 0.93338(4)
C6 C -0.2426(4) -0.0704(2) 0.99023(4)
H7 H -0.1637 -0.0005 1.0139
H8 H -0.2698 -0.1841 1.0012
H9 H -0.4292 -0.0251 0.9806
C7 C 0.3779(3) 0.49344(18) 0.81799(5)
H10 H 0.5802 0.5215 0.8258
H11 H 0.3111 0.5745 0.7956
C8 C 0.3680(3) 0.31862(18) 0.79855(4)
H12 H 0.5002 0.3117 0.7725
C9 C 0.4632(3) 0.19434(16) 0.83355(4)
H13 H 0.6622 0.2263 0.8434
C10 C 0.2631(3) 0.20468(18) 0.87345(4)
C11 C 0.1983(4) 0.06473(17) 0.89720(4)
H14 H 0.2814 -0.0393 0.8893
loop_
_geom_bond_atom_site_label_1
_geom_bond_atom_site_label_2
_geom_bond_site_symmetry_1
_geom_bond_site_symmetry_2
O1 H1 1_555 1_555
H2 O1 1_555 1_555
O2 C1 1_555 1_555
O3 C5 1_555 1_555
O4 H3 1_555 1_555
O5 H4 1_555 1_555
O6 H5 1_555 1_555
C1 C2 1_555 1_555
C2 C3 1_555 1_555
C3 O4 1_555 1_555
C4 C3 1_555 1_555
H6 C4 1_555 1_555
C5 C4 1_555 1_555
C6 O3 1_555 1_555
H7 C6 1_555 1_555
H8 C6 1_555 1_555
H9 C6 1_555 1_555
C7 C1 1_555 1_555
H10 C7 1_555 1_555
H11 C7 1_555 1_555
C8 O5 1_555 1_555
H12 C8 1_555 1_555
C9 O6 1_555 1_555
H13 C9 1_555 1_555
C10 C2 1_555 1_555
C11 C5 1_555 1_555
H14 C11 1_555 1_555
C7 C8 1_555 1_555
C8 C9 1_555 1_555
C9 C10 1_555 1_555
C10 C11 1_555 1_555

#END
