
#######################################################################
#
#                 Cambridge Crystallographic Data Centre
#                                CCDC 
#
#######################################################################
#
# If this CIF has been generated from an entry in the Cambridge 
# Structural Database, then it will include bibliographic, chemical, 
# crystal, experimental, refinement or atomic coordinate data resulting 
# from the CCDC's data processing and validation procedures.
#
#######################################################################

data_SAQPEF
_chemical_formula_moiety         'C42 H36 Br4 O4,2(C10 H12)'
_chemical_name_systematic        
'18,37,40,44-Tetrabromo-11,16,30,35-tetraoxaheptacyclo(34.2.2.2^17,20^.1^3,7^.1^6,10^.1^22,26^.1^25,29^)-hexatetraconta-3,5,7(46),8,10(45),17,19,22,24,26(42),27,29(41),36,38,39,43-hexadecaene bis(1,2,3,4-tetrahydronaphthalene) clathrate'
_symmetry_cell_setting           monoclinic
_symmetry_space_group_name_H-M   'P 21/c'
_symmetry_Int_Tables_number      14
_space_group_name_Hall           '-P 2ybc'
loop_
_symmetry_equiv_pos_site_id
_symmetry_equiv_pos_as_xyz
1 x,y,z
2 -x,1/2+y,1/2-z
3 -x,-y,-z
4 x,1/2-y,1/2+z
_cell_length_a                   11.772(8)
_cell_length_b                   9.320(4)
_cell_length_c                   24.858(11)
_cell_angle_alpha                90
_cell_angle_beta                 102.31(2)
_cell_angle_gamma                90
_cell_volume                     2664.59
_exptl_crystal_colour            white
_chemical_melting_point          'above 240deg.C'
_cell_formula_units_Z            2
loop_
_atom_site_label
_atom_site_type_symbol
_atom_site_fract_x
_atom_site_fract_y
_atom_site_fract_z
Br1 Br -0.6343(1) -0.3372(1) -0.1137(1)
Br2 Br -0.2894(1) 0.0962(1) -0.0690(1)
C1 C 0.4174(9) 0.1928(10) -0.0296(4)
C2 C 0.3990(10) 0.2253(11) -0.0908(5)
C3 C 0.2751(11) 0.2009(12) -0.1201(5)
C4 C 0.1890(10) 0.2970(17) -0.1089(6)
C5 C 0.0777(17) 0.2850(17) -0.1290(6)
C6 C 0.0435(12) 0.1705(11) -0.1630(4)
C7 C 0.1077(16) 0.0756(11) -0.1790(5)
C8 C 0.2511(12) 0.0854(18) -0.1539(6)
C9 C 0.0806(19) -0.0366(19) -0.2134(7)
C10 C -0.0391(14) -0.0530(17) -0.2345(6)
C11 C -0.1212(13) 0.0471(14) -0.2191(4)
C12 C -0.1023(15) 0.1613(16) -0.1862(5)
O1 O -0.2395(8) 0.0163(9) -0.2434(3)
C13 C -0.2699(21) -0.1143(28) -0.2563(10)
C15 C -0.3981(24) -0.1297(30) -0.2734(12)
C17 C -0.4625(31) -0.1304(43) -0.2263(15)
C19 C -0.4050(13) -0.1678(13) -0.1681(5)
O2 O -0.4792(7) -0.0944(7) -0.1374(3)
C20 C -0.4568(9) -0.1266(10) -0.0828(5)
C21 C -0.3762(8) -0.0546(9) -0.0445(4)
C22 C 0.3532(9) 0.0835(10) -0.0113(4)
C23 C -0.5008(10) -0.2699(10) -0.0078(5)
C24 C -0.5187(10) -0.2342(10) -0.0635(5)
C21B C 0.3762(8) 0.0546(9) 0.0445(4)
Br2B Br 0.2894(1) -0.0962(1) 0.0690(1)
C20B C 0.4568(9) 0.1266(10) 0.0828(5)
O2B O 0.4792(7) 0.0944(7) 0.1374(3)
C19B C 0.4050(13) 0.1678(13) 0.1681(5)
C17B C 0.4625(31) 0.1304(43) 0.2263(15)
C15B C 0.3981(24) 0.1297(30) 0.2734(12)
C13B C 0.2699(21) 0.1143(28) 0.2563(10)
O1B O 0.2395(8) -0.0163(9) 0.2434(3)
C11B C 0.1212(13) -0.0471(14) 0.2191(4)
C10B C 0.0391(14) 0.0530(17) 0.2345(6)
C9B C -0.0806(19) 0.0366(19) 0.2134(7)
C7B C -0.1077(16) -0.0756(11) 0.1790(5)
C6B C -0.0435(12) -0.1705(11) 0.1630(4)
C5B C -0.0777(17) -0.2850(17) 0.1290(6)
C4B C -0.1890(10) -0.2970(17) 0.1089(6)
C3B C -0.2751(11) -0.2009(12) 0.1201(5)
C2B C -0.3990(10) -0.2253(11) 0.0908(5)
C1B C -0.4174(9) -0.1928(10) 0.0296(4)
C22B C -0.3532(9) -0.0835(10) 0.0113(4)
C8B C -0.2511(12) -0.0854(18) 0.1539(6)
C12B C 0.1023(15) -0.1613(16) 0.1862(5)
C24B C 0.5187(10) 0.2342(10) 0.0635(5)
Br1B Br 0.6343(1) 0.3372(1) 0.1137(1)
C23B C 0.5008(10) 0.2699(10) 0.0078(5)
C25 C -0.1438(10) -0.3754(17) -0.0679(5)
C26 C -0.2721(20) -0.4965(17) -0.0829(9)
C27 C -0.2935(13) -0.5424(16) -0.1321(8)
C28 C -0.2464(18) -0.4971(18) -0.1703(9)
C29 C -0.1576(12) -0.4211(19) -0.1612(7)
C30 C -0.1042(8) -0.3632(11) -0.1138(4)
C31 C 0.0016(15) -0.2833(22) -0.1176(9)
C32 C 0.0260(20) -0.1705(27) -0.0511(8)
C33 C -0.0179(30) -0.2409(25) -0.0123(10)
C34 C -0.0973(19) -0.3397(30) -0.0116(8)
C14? C -0.3234(17) 0.0788(21) -0.2261(8)
C16? C -0.4657(30) -0.0262(41) -0.2326(14)
C18? C -0.4200(31) -0.1594(38) -0.2257(16)
loop_
_geom_bond_atom_site_label_1
_geom_bond_atom_site_label_2
_geom_bond_site_symmetry_1
_geom_bond_site_symmetry_2
Br1 C24 1_555 1_555
Br2 C21 1_555 1_555
C1 C2 1_555 1_555
C2 C3 1_555 1_555
C3 C4 1_555 1_555
C4 C5 1_555 1_555
C5 C6 1_555 1_555
C6 C7 1_555 1_555
C7 C8 1_555 1_555
C8 C3 1_555 1_555
C9 C7 1_555 1_555
C10 C9 1_555 1_555
C11 C10 1_555 1_555
C12 C6 1_555 1_555
O1 C11 1_555 1_555
C13 O1 1_555 1_555
C15 C13 1_555 1_555
C17 C15 1_555 1_555
C19 C17 1_555 1_555
O2 C19 1_555 1_555
C20 O2 1_555 1_555
C21 C20 1_555 1_555
C22 C1 1_555 1_555
C23 C24 1_555 1_555
C24 C20 1_555 1_555
C25 C26 1_555 1_555
C26 C27 1_555 1_555
C27 C28 1_555 1_555
C28 C29 1_555 1_555
C29 C30 1_555 1_555
C30 C25 1_555 1_555
C31 C30 1_555 1_555
C32 C31 1_555 1_555
C33 C32 1_555 1_555
C34 C25 1_555 1_555
C21B C22 1_555 1_555
Br2B C21B 1_555 1_555
C20B C21B 1_555 1_555
O2B C20B 1_555 1_555
C19B O2B 1_555 1_555
C17B C19B 1_555 1_555
C15B C17B 1_555 1_555
C13B C15B 1_555 1_555
O1B C13B 1_555 1_555
C11B O1B 1_555 1_555
C10B C11B 1_555 1_555
C9B C10B 1_555 1_555
C7B C9B 1_555 1_555
C6B C7B 1_555 1_555
C5B C6B 1_555 1_555
C4B C5B 1_555 1_555
C3B C4B 1_555 1_555
C2B C3B 1_555 1_555
C1B C23 1_555 1_555
C22B C21 1_555 1_555
C8B C7B 1_555 1_555
C12B C11B 1_555 1_555
C24B C20B 1_555 1_555
Br1B C24B 1_555 1_555
C23B C1 1_555 1_555
C11 C12 1_555 1_555
C33 C34 1_555 1_555
C6B C12B 1_555 1_555
C3B C8B 1_555 1_555
C2B C1B 1_555 1_555
C1B C22B 1_555 1_555
C24B C23B 1_555 1_555

#END
