
#######################################################################
#
#                 Cambridge Crystallographic Data Centre
#                                CCDC 
#
#######################################################################
#
# If this CIF has been generated from an entry in the Cambridge 
# Structural Database, then it will include bibliographic, chemical, 
# crystal, experimental, refinement or atomic coordinate data resulting 
# from the CCDC's data processing and validation procedures.
#
#######################################################################

data_SAQPAB
_chemical_formula_moiety         'C42 H36 Br4 O4,C8 H10'
_chemical_name_systematic        
'18,37,40,44-Tetrabromo-11,16,30,35-tetraoxaheptacyclo(34.2.2.2^17,20^.1^3,7^.1^6,10^.1^22,26^.1^25,29^)-hexatetraconta-3,5,7(46),8,10(45),17,19,22,24,26(42),27,29(41),36,38,39,43-hexadecaene p-xylene clathrate'
_symmetry_cell_setting           monoclinic
_symmetry_space_group_name_H-M   'P 21/n'
_symmetry_Int_Tables_number      14
_space_group_name_Hall           '-P 2yn'
loop_
_symmetry_equiv_pos_site_id
_symmetry_equiv_pos_as_xyz
1 x,y,z
2 1/2-x,1/2+y,1/2-z
3 -x,-y,-z
4 1/2+x,1/2-y,1/2+z
_cell_length_a                   8.798(1)
_cell_length_b                   21.136(6)
_cell_length_c                   12.195(5)
_cell_angle_alpha                90
_cell_angle_beta                 90.41(2)
_cell_angle_gamma                90
_cell_volume                     2267.66
_exptl_crystal_colour            white
_chemical_melting_point          'above 240deg.C'
_cell_formula_units_Z            2
loop_
_atom_site_label
_atom_site_type_symbol
_atom_site_fract_x
_atom_site_fract_y
_atom_site_fract_z
Br1 Br 0.7651(1) 0.1854(1) -0.0582(1)
Br2 Br 0.1589(1) 0.2050(1) 0.0926(1)
C1 C -0.3468(5) -0.1879(2) 0.2168(3)
C2 C -0.2858(5) -0.1829(2) 0.3341(3)
C3 C -0.1778(5) -0.1280(2) 0.3472(3)
C4 C -0.2314(5) -0.0657(2) 0.3316(3)
C5 C -0.1367(5) -0.0148(2) 0.3379(3)
C6 C 0.0186(4) -0.0225(2) 0.3629(3)
C7 C 0.0734(5) -0.0847(2) 0.3815(3)
C8 C -0.0282(5) -0.1361(2) 0.3727(3)
C9 C 0.2301(5) -0.0917(2) 0.4109(4)
C10 C 0.3251(5) -0.0410(2) 0.4164(4)
C11 C 0.2702(5) 0.0205(2) 0.3939(3)
C12 C 0.1199(5) 0.0298(2) 0.3688(3)
O1 O 0.3782(3) 0.0672(1) 0.3995(3)
C13 C 0.3332(5) 0.1289(2) 0.3622(4)
C14 C 0.4753(5) 0.1683(2) 0.3489(3)
C15 C 0.5906(5) 0.1403(2) 0.2699(3)
C16 C 0.5334(5) 0.1338(2) 0.1534(3)
O2 O 0.5053(3) 0.1960(1) 0.1085(2)
C17 C 0.4536(5) 0.1939(2) 0.0023(3)
C18 C 0.3001(5) 0.1974(2) -0.0232(3)
C19 C -0.2459(5) -0.1939(2) 0.1301(3)
C20 C 0.5009(5) 0.1862(2) -0.1937(3)
C21 C 0.5528(5) 0.1893(2) -0.0865(3)
H1 H -0.2337 -0.2214 0.3530
H2 H -0.3694 -0.1779 0.3835
H3 H -0.3375 -0.0590 0.3168
H4 H -0.1757 0.0269 0.3247
H5 H 0.0090 -0.1782 0.3859
H6 H 0.2690 -0.1331 0.4276
H7 H 0.4302 -0.0471 0.4355
H8 H 0.0825 0.0718 0.3553
H9 H 0.2662 0.1482 0.4143
H10 H 0.2807 0.1258 0.2931
H11 H 0.5224 0.1733 0.4196
H12 H 0.4471 0.2095 0.3229
H13 H 0.6201 0.0994 0.2966
H14 H 0.6796 0.1666 0.2697
H15 H 0.4410 0.1096 0.1525
H16 H 0.6072 0.1120 0.1097
H17 H -0.1386 -0.1957 0.1444
H18 H 0.5724 0.1832 -0.2526
C18B C -0.3001(5) -0.1974(2) 0.0232(3)
Br2B Br -0.1589(1) -0.2050(1) -0.0926(1)
C17B C -0.4536(5) -0.1939(2) -0.0023(3)
O2B O -0.5053(3) -0.1960(1) -0.1085(2)
C16B C -0.5334(5) -0.1338(2) -0.1534(3)
C15B C -0.5906(5) -0.1403(2) -0.2699(3)
C14B C -0.4753(5) -0.1683(2) -0.3489(3)
C13B C -0.3332(5) -0.1289(2) -0.3622(4)
O1B O -0.3782(3) -0.0672(1) -0.3995(3)
C11B C -0.2702(5) -0.0205(2) -0.3939(3)
C10B C -0.3251(5) 0.0410(2) -0.4164(4)
C9B C -0.2301(5) 0.0917(2) -0.4109(4)
C7B C -0.0734(5) 0.0847(2) -0.3815(3)
C6B C -0.0186(4) 0.0225(2) -0.3629(3)
C5B C 0.1367(5) 0.0148(2) -0.3379(3)
C4B C 0.2314(5) 0.0657(2) -0.3316(3)
C3B C 0.1778(5) 0.1280(2) -0.3472(3)
C2B C 0.2858(5) 0.1829(2) -0.3341(3)
C1B C 0.3468(5) 0.1879(2) -0.2168(3)
C19B C 0.2459(5) 0.1939(2) -0.1301(3)
H17B H 0.1386 0.1957 -0.1444
H1B H 0.2337 0.2214 -0.3530
H2B H 0.3694 0.1779 -0.3835
C8B C 0.0282(5) 0.1361(2) -0.3727(3)
H5B H -0.0090 0.1782 -0.3859
H3B H 0.3375 0.0590 -0.3168
H4B H 0.1757 -0.0269 -0.3247
C12B C -0.1199(5) -0.0298(2) -0.3688(3)
H8B H -0.0825 -0.0718 -0.3553
H6B H -0.2690 0.1331 -0.4276
H7B H -0.4302 0.0471 -0.4355
H9B H -0.2662 -0.1482 -0.4143
H10B H -0.2807 -0.1258 -0.2931
H11B H -0.5224 -0.1733 -0.4196
H12B H -0.4471 -0.2095 -0.3229
H13B H -0.6201 -0.0994 -0.2966
H14B H -0.6796 -0.1666 -0.2697
H15B H -0.4410 -0.1096 -0.1525
H16B H -0.6072 -0.1120 -0.1097
C21B C -0.5528(5) -0.1893(2) 0.0865(3)
Br1B Br -0.7651(1) -0.1854(1) 0.0582(1)
C20B C -0.5009(5) -0.1862(2) 0.1937(3)
H18B H -0.5724 -0.1832 0.2526
C22 C 1.1875(9) -0.0002(4) -0.9244(7)
C23 C 1.3481(7) -0.0005(2) -0.9635(4)
C24 C 1.4634(7) -0.0261(2) -0.9009(4)
C25 C 1.3885(7) 0.0263(2) -1.0631(4)
H19 H 1.1836 -0.0206 -0.8542
H20 H 1.1510 0.0424 -0.9179
H21 H 1.1249 -0.0230 -0.9758
H22 H 1.4394 -0.0445 -0.8312
H23 H 1.3107 0.0451 -1.1081
C25B C 1.6115(7) -0.0263(2) -0.9369(4)
C23B C 1.6519(7) 0.0005(2) -1.0365(4)
C22B C 1.8125(9) 0.0002(4) -1.0756(7)
H19B H 1.8164 0.0206 -1.1458
H20B H 1.8490 -0.0424 -1.0821
H21B H 1.8751 0.0230 -1.0242
C24B C 1.5366(7) 0.0261(2) -1.0991(4)
H22B H 1.5606 0.0445 -1.1688
H23B H 1.6893 -0.0451 -0.8919
loop_
_geom_bond_atom_site_label_1
_geom_bond_atom_site_label_2
_geom_bond_site_symmetry_1
_geom_bond_site_symmetry_2
Br1 C21 1_555 1_555
Br2 C18 1_555 1_555
C1 C2 1_555 1_555
C2 C3 1_555 1_555
C3 C4 1_555 1_555
C4 C5 1_555 1_555
C5 C6 1_555 1_555
C6 C7 1_555 1_555
C7 C8 1_555 1_555
C8 C3 1_555 1_555
C9 C7 1_555 1_555
C10 C9 1_555 1_555
C11 C10 1_555 1_555
C12 C6 1_555 1_555
O1 C11 1_555 1_555
C13 O1 1_555 1_555
C14 C13 1_555 1_555
C15 C14 1_555 1_555
C16 C15 1_555 1_555
O2 C16 1_555 1_555
C17 O2 1_555 1_555
C18 C17 1_555 1_555
C19 C1 1_555 1_555
C20 C21 1_555 1_555
C21 C17 1_555 1_555
C22 C23 1_555 1_555
C23 C24 1_555 1_555
C24 H22 1_555 1_555
C25 C23 1_555 1_555
H1 C2 1_555 1_555
H2 C2 1_555 1_555
H3 C4 1_555 1_555
H4 C5 1_555 1_555
H5 C8 1_555 1_555
H6 C9 1_555 1_555
H7 C10 1_555 1_555
H8 C12 1_555 1_555
H9 C13 1_555 1_555
H10 C13 1_555 1_555
H11 C14 1_555 1_555
H12 C14 1_555 1_555
H13 C15 1_555 1_555
H14 C15 1_555 1_555
H15 C16 1_555 1_555
H16 C16 1_555 1_555
H17 C19 1_555 1_555
H18 C20 1_555 1_555
H19 C22 1_555 1_555
H20 C22 1_555 1_555
H21 C22 1_555 1_555
H23 C25 1_555 1_555
C18B C19 1_555 1_555
Br2B C18B 1_555 1_555
C17B C18B 1_555 1_555
O2B C17B 1_555 1_555
C16B O2B 1_555 1_555
C15B C16B 1_555 1_555
C14B C15B 1_555 1_555
C13B C14B 1_555 1_555
O1B C13B 1_555 1_555
C11B O1B 1_555 1_555
C10B C11B 1_555 1_555
C9B C10B 1_555 1_555
C7B C9B 1_555 1_555
C6B C7B 1_555 1_555
C5B C6B 1_555 1_555
C4B C5B 1_555 1_555
C3B C4B 1_555 1_555
C2B C3B 1_555 1_555
C1B C20 1_555 1_555
C19B C18 1_555 1_555
H17B C19B 1_555 1_555
H1B C2B 1_555 1_555
H2B C2B 1_555 1_555
C8B C7B 1_555 1_555
H5B C8B 1_555 1_555
H3B C4B 1_555 1_555
H4B C5B 1_555 1_555
C12B C11B 1_555 1_555
H8B C12B 1_555 1_555
H6B C9B 1_555 1_555
H7B C10B 1_555 1_555
H9B C13B 1_555 1_555
H10B C13B 1_555 1_555
H11B C14B 1_555 1_555
H12B C14B 1_555 1_555
H13B C15B 1_555 1_555
H14B C15B 1_555 1_555
H15B C16B 1_555 1_555
H16B C16B 1_555 1_555
C21B C17B 1_555 1_555
Br1B C21B 1_555 1_555
C20B C1 1_555 1_555
H18B C20B 1_555 1_555
C25B C24 1_555 1_555
C23B C25B 1_555 1_555
C22B C23B 1_555 1_555
H19B C22B 1_555 1_555
H20B C22B 1_555 1_555
H21B C22B 1_555 1_555
C24B C25 1_555 1_555
H22B C24B 1_555 1_555
H23B C25B 1_555 1_555
C11 C12 1_555 1_555
C6B C12B 1_555 1_555
C3B C8B 1_555 1_555
C2B C1B 1_555 1_555
C1B C19B 1_555 1_555
C21B C20B 1_555 1_555
C23B C24B 1_555 1_555

#END
