
#######################################################################
#
#                 Cambridge Crystallographic Data Centre
#                                CCDC 
#
#######################################################################
#
# If this CIF has been generated from an entry in the Cambridge 
# Structural Database, then it will include bibliographic, chemical, 
# crystal, experimental, refinement or atomic coordinate data resulting 
# from the CCDC's data processing and validation procedures.
#
#######################################################################

data_SAQTOV
_chemical_formula_moiety         'C16 H12 Cl1 N1 O1'
_chemical_name_systematic        
6-(4-Chlorobenzylidene)-5,6-dihydro-7H-pyrrolo[1,2-a]azepin-7-one
_symmetry_cell_setting           monoclinic
_symmetry_space_group_name_H-M   'P 21/n'
_symmetry_Int_Tables_number      14
_space_group_name_Hall           '-P 2yn'
loop_
_symmetry_equiv_pos_site_id
_symmetry_equiv_pos_as_xyz
1 x,y,z
2 1/2-x,1/2+y,1/2-z
3 -x,-y,-z
4 1/2+x,1/2-y,1/2+z
_cell_length_a                   15.803(4)
_cell_length_b                   8.275(2)
_cell_length_c                   22.001(6)
_cell_angle_alpha                90
_cell_angle_beta                 110.987(5)
_cell_angle_gamma                90
_cell_volume                     2686.21
_exptl_crystal_colour            yellow
_exptl_crystal_description       prismatic
_cell_formula_units_Z            8
loop_
_atom_site_label
_atom_site_type_symbol
_atom_site_fract_x
_atom_site_fract_y
_atom_site_fract_z
Cl1 Cl 0.27622(15) -0.2187(3) 1.17599(11)
N1 N -0.0184(3) 0.1913(6) 0.8717(2)
O1 O 0.0840(4) 0.6764(6) 0.9525(3)
C1 C -0.0226(4) 0.0287(7) 0.8581(3)
H1 H -0.0105 -0.0542 0.8885
C2 C -0.0475(4) 0.0093(8) 0.7925(3)
H2 H -0.0544 -0.0887 0.7705
C3 C -0.0607(4) 0.1621(8) 0.7642(3)
H3 H -0.0791 0.1846 0.7200
C4 C -0.0417(4) 0.2736(7) 0.8136(3)
C5 C -0.0414(4) 0.4486(8) 0.8085(3)
H4 H -0.0684 0.4884 0.7664
C6 C -0.0085(5) 0.5622(8) 0.8543(4)
H5 H -0.0247 0.6672 0.8398
C7 C 0.0482(5) 0.5503(7) 0.9233(3)
C8 C 0.0651(4) 0.3904(7) 0.9579(3)
C9 C -0.0092(4) 0.2640(7) 0.9343(3)
H6 H 0.0031 0.1791 0.9668
H7 H -0.0664 0.3136 0.9307
C10 C 0.1411(4) 0.3736(8) 1.0103(3)
H8 H 0.1778 0.4647 1.0225
C11 C 0.1738(4) 0.2291(7) 1.0509(3)
C12 C 0.2105(4) 0.2406(8) 1.1187(3)
H9 H 0.2148 0.3411 1.1386
C13 C 0.2408(4) 0.1030(10) 1.1569(3)
H10 H 0.2633 0.1112 1.2020
C14 C 0.2373(4) -0.0452(9) 1.1274(3)
C15 C 0.2048(4) -0.0615(8) 1.0606(3)
H11 H 0.2042 -0.1615 1.0412
C16 C 0.1726(4) 0.0780(8) 1.0228(3)
H12 H 0.1499 0.0689 0.9776
Cl2 Cl 0.62522(17) -0.2294(3) 0.22998(11)
N2 N 0.3234(3) 0.1802(6) -0.0679(2)
O2 O 0.3867(4) 0.6658(6) 0.0236(3)
C17 C 0.3063(4) 0.0175(7) -0.0755(3)
H13 H 0.3448 -0.0647 -0.0526
C18 C 0.2221(4) -0.0025(8) -0.1229(3)
H14 H 0.1934 -0.1006 -0.1377
C19 C 0.1877(4) 0.1489(8) -0.1447(3)
H15 H 0.1319 0.1705 -0.1770
C20 C 0.2502(4) 0.2623(7) -0.1104(3)
C21 C 0.2446(5) 0.4379(8) -0.1140(3)
H16 H 0.1978 0.4775 -0.1502
C22 C 0.2951(5) 0.5526(8) -0.0745(4)
H17 H 0.2835 0.6570 -0.0911
C23 C 0.3647(4) 0.5418(8) -0.0103(3)
C24 C 0.4080(4) 0.3822(7) 0.0165(3)
C25 C 0.4115(4) 0.2548(7) -0.0325(3)
H18 H 0.4342 0.3042 -0.0636
H19 H 0.4539 0.1710 -0.0097
C26 C 0.4487(4) 0.3669(8) 0.0808(3)
H20 H 0.4497 0.4583 0.1057
C27 C 0.4925(4) 0.2197(8) 0.1168(3)
C28 C 0.5764(4) 0.2302(8) 0.1669(3)
H21 H 0.6046 0.3301 0.1780
C29 C 0.6184(5) 0.0930(9) 0.2005(3)
H22 H 0.6760 0.1004 0.2322
C30 C 0.5743(5) -0.0560(9) 0.1869(3)
C31 C 0.4890(5) -0.0684(9) 0.1389(3)
H23 H 0.4589 -0.1670 0.1302
C32 C 0.4489(4) 0.0700(8) 0.1038(3)
H24 H 0.3921 0.0621 0.0712
loop_
_geom_bond_atom_site_label_1
_geom_bond_atom_site_label_2
_geom_bond_site_symmetry_1
_geom_bond_site_symmetry_2
Cl1 C14 1_555 1_555
Cl2 C30 1_555 1_555
N1 C1 1_555 1_555
N2 C17 1_555 1_555
O1 C7 1_555 1_555
O2 C23 1_555 1_555
C1 H1 1_555 1_555
C2 C1 1_555 1_555
H2 C2 1_555 1_555
C3 C2 1_555 1_555
H3 C3 1_555 1_555
C4 N1 1_555 1_555
C5 C4 1_555 1_555
H4 C5 1_555 1_555
C6 C5 1_555 1_555
H5 C6 1_555 1_555
C7 C6 1_555 1_555
C8 C7 1_555 1_555
C9 N1 1_555 1_555
H6 C9 1_555 1_555
H7 C9 1_555 1_555
C10 C8 1_555 1_555
H8 C10 1_555 1_555
C11 C10 1_555 1_555
C12 C11 1_555 1_555
H9 C12 1_555 1_555
C13 C12 1_555 1_555
H10 C13 1_555 1_555
C14 C13 1_555 1_555
C15 C14 1_555 1_555
H11 C15 1_555 1_555
C16 C11 1_555 1_555
H12 C16 1_555 1_555
C17 H13 1_555 1_555
C18 C17 1_555 1_555
H14 C18 1_555 1_555
C19 C18 1_555 1_555
H15 C19 1_555 1_555
C20 N2 1_555 1_555
C21 C20 1_555 1_555
H16 C21 1_555 1_555
C22 C21 1_555 1_555
H17 C22 1_555 1_555
C23 C22 1_555 1_555
C24 C23 1_555 1_555
C25 N2 1_555 1_555
H18 C25 1_555 1_555
H19 C25 1_555 1_555
C26 C24 1_555 1_555
H20 C26 1_555 1_555
C27 C26 1_555 1_555
C28 C27 1_555 1_555
H21 C28 1_555 1_555
C29 C28 1_555 1_555
H22 C29 1_555 1_555
C30 C29 1_555 1_555
C31 C30 1_555 1_555
H23 C31 1_555 1_555
C32 C27 1_555 1_555
H24 C32 1_555 1_555
C3 C4 1_555 1_555
C8 C9 1_555 1_555
C15 C16 1_555 1_555
C19 C20 1_555 1_555
C24 C25 1_555 1_555
C31 C32 1_555 1_555

#END
