
#######################################################################
#
#                 Cambridge Crystallographic Data Centre
#                                CCDC 
#
#######################################################################
#
# If this CIF has been generated from an entry in the Cambridge 
# Structural Database, then it will include bibliographic, chemical, 
# crystal, experimental, refinement or atomic coordinate data resulting 
# from the CCDC's data processing and validation procedures.
#
#######################################################################

data_SAQTEL
_chemical_formula_moiety         'C32 H24 N4 O4'
_chemical_name_systematic        
8,16-bis(4-nitrophenyl)-8,8a,16,16a-tetrahydroisoquinolino[2',1':4,5]pyrazino[2,1-a]isoquinoline
_symmetry_cell_setting           orthorhombic
_symmetry_space_group_name_H-M   'P n a 21'
_symmetry_Int_Tables_number      33
_space_group_name_Hall           'P 2c -2n'
loop_
_symmetry_equiv_pos_site_id
_symmetry_equiv_pos_as_xyz
1 x,y,z
2 -x,-y,1/2+z
3 1/2+x,1/2-y,z
4 1/2-x,1/2+y,1/2+z
_cell_length_a                   24.754(4)
_cell_length_b                   7.9738(13)
_cell_length_c                   13.336(2)
_cell_angle_alpha                90
_cell_angle_beta                 90
_cell_angle_gamma                90
_cell_volume                     2632.31
_cell_formula_units_Z            4
loop_
_atom_site_label
_atom_site_type_symbol
_atom_site_fract_x
_atom_site_fract_y
_atom_site_fract_z
C1 C 0.14695(18) -0.1219(5) 0.9954(3)
H1 H 0.1230 -0.1735 1.0394
C2 C 0.20024(18) -0.1426(6) 1.0107(3)
H2 H 0.2125 -0.2100 1.0628
C3 C 0.23825(17) -0.0591(5) 0.9453(3)
C4 C 0.2939(2) -0.0471(6) 0.9685(4)
H3 H 0.3076 -0.0970 1.0262
C5 C 0.3277(2) 0.0395(7) 0.9046(5)
H4 H 0.3645 0.0434 0.9187
C6 C 0.3088(2) 0.1191(6) 0.8217(5)
H5 H 0.3323 0.1783 0.7803
C7 C 0.25381(16) 0.1115(6) 0.7990(4)
H6 H 0.2405 0.1672 0.7430
C8 C 0.21905(14) 0.0211(5) 0.8598(3)
C9 C 0.16012(13) 0.0020(5) 0.8296(3)
H7 H 0.1482 0.1062 0.7976
C10 C 0.15127(12) -0.1457(4) 0.7549(3)
H8 H 0.1685 -0.2452 0.7837
C11 C 0.17737(12) -0.1137(4) 0.6541(3)
C12 C 0.22802(14) -0.1794(5) 0.6352(3)
H9 H 0.2440 -0.2491 0.6826
C13 C 0.25554(14) -0.1442(4) 0.5478(3)
H10 H 0.2903 -0.1849 0.5373
C14 C 0.23026(14) -0.0478(5) 0.4771(3)
C15 C 0.17887(15) 0.0171(4) 0.4916(3)
H11 H 0.1623 0.0815 0.4422
C16 C 0.15283(14) -0.0161(4) 0.5811(3)
H12 H 0.1185 0.0275 0.5925
C17 C 0.07707(15) -0.3452(5) 0.7651(3)
H13 H 0.1035 -0.4281 0.7671
C18 C 0.02543(18) -0.3886(5) 0.7772(3)
H14 H 0.0168 -0.4997 0.7911
C19 C -0.01712(16) -0.2664(5) 0.7690(3)
C20 C -0.07068(17) -0.3097(7) 0.7571(3)
H15 H -0.0807 -0.4220 0.7590
C21 C -0.10902(19) -0.1893(9) 0.7427(4)
H16 H -0.1450 -0.2209 0.7363
C22 C -0.09568(18) -0.0235(8) 0.7373(3)
H17 H -0.1224 0.0565 0.7266
C23 C -0.04093(16) 0.0269(6) 0.7481(3)
H18 H -0.0312 0.1393 0.7438
C24 C -0.00222(13) -0.0968(5) 0.7654(3)
C25 C 0.05621(13) -0.0482(4) 0.7873(3)
H19 H 0.0643 0.0567 0.7520
C26 C 0.06748(13) -0.0220(5) 0.9026(2)
H20 H 0.0514 -0.1169 0.9386
C27 C 0.04293(13) 0.1367(4) 0.9444(3)
C28 C 0.07349(15) 0.2800(5) 0.9568(3)
H21 H 0.1099 0.2784 0.9399
C29 C 0.05067(17) 0.4269(5) 0.9941(3)
H22 H 0.0716 0.5230 1.0018
C30 C -0.00287(17) 0.4281(5) 1.0193(3)
C31 C -0.03430(15) 0.2860(5) 1.0112(3)
H23 H -0.0704 0.2879 1.0303
C32 C -0.01127(14) 0.1408(5) 0.9742(3)
H24 H -0.0321 0.0442 0.9691
N1 N -0.02786(19) 0.5855(5) 1.0544(3)
N2 N 0.12614(11) -0.0287(4) 0.9185(2)
N3 N 0.25892(15) -0.0105(4) 0.3830(3)
N4 N 0.09263(10) -0.1795(3) 0.7497(2)
O1 O 0.00282(16) 0.7013(4) 1.0730(3)
O2 O -0.07650(15) 0.5930(4) 1.0645(3)
O3 O 0.30665(12) -0.0454(4) 0.3765(2)
O4 O 0.23369(13) 0.0530(4) 0.3157(2)
H25? H -0.0147 0.7828 1.0919
H26? H 0.2069 -0.0039 0.3037
loop_
_geom_bond_atom_site_label_1
_geom_bond_atom_site_label_2
_geom_bond_site_symmetry_1
_geom_bond_site_symmetry_2
C1 H1 1_555 1_555
C2 C1 1_555 1_555
H2 C2 1_555 1_555
C3 C2 1_555 1_555
C4 C3 1_555 1_555
H3 C4 1_555 1_555
C5 C4 1_555 1_555
H4 C5 1_555 1_555
C6 C5 1_555 1_555
H5 C6 1_555 1_555
C7 C6 1_555 1_555
H6 C7 1_555 1_555
C8 C3 1_555 1_555
C9 C8 1_555 1_555
H7 C9 1_555 1_555
C10 C9 1_555 1_555
H8 C10 1_555 1_555
C11 C10 1_555 1_555
C12 C11 1_555 1_555
H9 C12 1_555 1_555
C13 C12 1_555 1_555
H10 C13 1_555 1_555
C14 C13 1_555 1_555
C15 C14 1_555 1_555
H11 C15 1_555 1_555
C16 C11 1_555 1_555
H12 C16 1_555 1_555
C17 H13 1_555 1_555
C18 C17 1_555 1_555
H14 C18 1_555 1_555
C19 C18 1_555 1_555
C20 C19 1_555 1_555
H15 C20 1_555 1_555
C21 C20 1_555 1_555
H16 C21 1_555 1_555
C22 C21 1_555 1_555
H17 C22 1_555 1_555
C23 C22 1_555 1_555
H18 C23 1_555 1_555
C24 C19 1_555 1_555
C25 C24 1_555 1_555
H19 C25 1_555 1_555
C26 C25 1_555 1_555
H20 C26 1_555 1_555
C27 C26 1_555 1_555
C28 C27 1_555 1_555
H21 C28 1_555 1_555
C29 C28 1_555 1_555
H22 C29 1_555 1_555
C30 C29 1_555 1_555
C31 C30 1_555 1_555
H23 C31 1_555 1_555
C32 C27 1_555 1_555
H24 C32 1_555 1_555
N1 C30 1_555 1_555
N2 C1 1_555 1_555
N3 C14 1_555 1_555
N4 C10 1_555 1_555
O1 N1 1_555 1_555
O2 N1 1_555 1_555
O3 N3 1_555 1_555
O4 N3 1_555 1_555
C7 C8 1_555 1_555
C9 N2 1_555 1_555
C15 C16 1_555 1_555
C17 N4 1_555 1_555
C23 C24 1_555 1_555
C25 N4 1_555 1_555
C26 N2 1_555 1_555
C31 C32 1_555 1_555

#END
