
#######################################################################
#
#                 Cambridge Crystallographic Data Centre
#                                CCDC 
#
#######################################################################
#
# If this CIF has been generated from an entry in the Cambridge 
# Structural Database, then it will include bibliographic, chemical, 
# crystal, experimental, refinement or atomic coordinate data resulting 
# from the CCDC's data processing and validation procedures.
#
#######################################################################

data_SAQVIQ
_chemical_formula_moiety         'C22 H25 N2 P1'
_chemical_name_systematic        
N-(2-(Dimethylamino)ethyl)-2-diphenylphosphinoaniline
_symmetry_cell_setting           orthorhombic
_symmetry_space_group_name_H-M   'P 21 21 21'
_symmetry_Int_Tables_number      19
_space_group_name_Hall           'P 2ac 2ab'
loop_
_symmetry_equiv_pos_site_id
_symmetry_equiv_pos_as_xyz
1 x,y,z
2 1/2-x,-y,1/2+z
3 1/2+x,1/2-y,-z
4 -x,1/2+y,1/2-z
_cell_length_a                   7.2152(2)
_cell_length_b                   11.5571(3)
_cell_length_c                   23.8166(8)
_cell_angle_alpha                90
_cell_angle_beta                 90
_cell_angle_gamma                90
_cell_volume                     1985.99
_exptl_crystal_colour            colorless
_exptl_crystal_description       prism
_cell_formula_units_Z            4
_exptl_crystal_recrystallization_method 'pentane/diethyl ether'
loop_
_atom_site_label
_atom_site_type_symbol
_atom_site_fract_x
_atom_site_fract_y
_atom_site_fract_z
P1 P 0.73254(13) 0.10077(8) 0.12805(4)
N1 N 1.0076(4) 0.1602(2) 0.04023(13)
H1 H 0.9207 0.0974 0.0422
N2 N 1.1252(6) -0.0466(3) -0.00343(16)
C1 C 0.8982(5) -0.0171(3) 0.14178(15)
C2 C 1.0626(6) -0.0012(4) 0.17057(18)
H2 H 1.0861 0.0746 0.1855
C3 C 1.1830(6) -0.0935(4) 0.1799(2)
H3 H 1.2973 -0.0792 0.1994
C4 C 1.1411(7) -0.2019(4) 0.15948(19)
H4 H 1.2289 -0.2630 0.1657
C5 C 0.9794(7) -0.2178(4) 0.1303(2)
H5 H 0.9472 -0.2934 0.1168
C6 C 0.8591(6) -0.1269(3) 0.12135(18)
H6 H 0.7470 -0.1401 0.1006
C7 C 0.6089(5) 0.1135(3) 0.19481(15)
C8 C 0.6379(5) 0.0413(3) 0.24087(17)
H7 H 0.7486 -0.0048 0.2418
C9 C 0.5277(6) 0.0500(4) 0.28847(17)
H8 H 0.5370 -0.0052 0.3186
C10 C 0.3885(6) 0.1322(4) 0.29145(19)
H9 H 0.3180 0.1381 0.3256
C11 C 0.3583(6) 0.2042(4) 0.2464(2)
H10 H 0.2636 0.2619 0.2506
C12 C 0.4647(6) 0.1942(4) 0.19816(19)
H11 H 0.4275 0.2361 0.1652
C13 C 0.8857(5) 0.2276(3) 0.12858(16)
C14 C 0.8806(6) 0.3132(3) 0.16987(16)
H12 H 0.8079 0.3003 0.2031
C15 C 0.9861(6) 0.4135(4) 0.16455(17)
H13 H 0.9688 0.4754 0.1909
C16 C 1.0950(5) 0.4293(3) 0.11809(18)
H14 H 1.1792 0.4935 0.1158
C17 C 1.1059(5) 0.3450(3) 0.07686(17)
H15 H 1.1808 0.3536 0.0439
C18 C 1.0026(5) 0.2433(3) 0.08131(16)
C19 C 1.1383(6) 0.1648(3) -0.00548(18)
H16 H 1.1139 0.2324 -0.0277
H17 H 1.2606 0.1697 0.0101
C20 C 1.1206(6) 0.0554(3) -0.03948(18)
H18 H 0.9977 0.0549 -0.0549
H19 H 1.2096 0.0508 -0.0694
C21 C 1.3077(8) -0.0667(5) 0.0186(2)
H20 H 1.3074 -0.1342 0.0421
H21 H 1.3454 -0.0007 0.0403
H22 H 1.3927 -0.0780 -0.0119
C22 C 1.0555(10) -0.1489(4) -0.0314(2)
H23 H 0.9333 -0.1340 -0.0456
H24 H 1.0509 -0.2120 -0.0052
H25 H 1.1363 -0.1686 -0.0620
loop_
_geom_bond_atom_site_label_1
_geom_bond_atom_site_label_2
_geom_bond_site_symmetry_1
_geom_bond_site_symmetry_2
P1 C1 1_555 1_555
N1 H1 1_555 1_555
N2 C20 1_555 1_555
C1 C2 1_555 1_555
C2 H2 1_555 1_555
C3 C2 1_555 1_555
H3 C3 1_555 1_555
C4 C3 1_555 1_555
H4 C4 1_555 1_555
C5 C4 1_555 1_555
H5 C5 1_555 1_555
C6 C1 1_555 1_555
H6 C6 1_555 1_555
C7 P1 1_555 1_555
C8 C7 1_555 1_555
H7 C8 1_555 1_555
C9 C8 1_555 1_555
H8 C9 1_555 1_555
C10 C9 1_555 1_555
H9 C10 1_555 1_555
C11 C10 1_555 1_555
H10 C11 1_555 1_555
C12 C7 1_555 1_555
H11 C12 1_555 1_555
C13 P1 1_555 1_555
C14 C13 1_555 1_555
H12 C14 1_555 1_555
C15 C14 1_555 1_555
H13 C15 1_555 1_555
C16 C15 1_555 1_555
H14 C16 1_555 1_555
C17 C16 1_555 1_555
H15 C17 1_555 1_555
C18 N1 1_555 1_555
C19 N1 1_555 1_555
H16 C19 1_555 1_555
H17 C19 1_555 1_555
C20 C19 1_555 1_555
H18 C20 1_555 1_555
H19 C20 1_555 1_555
C21 N2 1_555 1_555
H20 C21 1_555 1_555
H21 C21 1_555 1_555
H22 C21 1_555 1_555
C22 N2 1_555 1_555
H23 C22 1_555 1_555
H24 C22 1_555 1_555
H25 C22 1_555 1_555
C5 C6 1_555 1_555
C11 C12 1_555 1_555
C13 C18 1_555 1_555
C17 C18 1_555 1_555

#END
