
#######################################################################
#
#                 Cambridge Crystallographic Data Centre
#                                CCDC 
#
#######################################################################
#
# If this CIF has been generated from an entry in the Cambridge 
# Structural Database, then it will include bibliographic, chemical, 
# crystal, experimental, refinement or atomic coordinate data resulting 
# from the CCDC's data processing and validation procedures.
#
#######################################################################

data_SAQWIS
_chemical_formula_moiety         'C26 H22 B1 F2 N3 S1'
_chemical_name_systematic        
8-[5-(quinolin-2-yl)thiophene]-4,4-difluoro-1,3,5,7-tetramethyl-4-bora-3a,4a-diaza-s-indacene
_symmetry_cell_setting           monoclinic
_symmetry_space_group_name_H-M   'P 21/c'
_symmetry_Int_Tables_number      14
_space_group_name_Hall           '-P 2ybc'
loop_
_symmetry_equiv_pos_site_id
_symmetry_equiv_pos_as_xyz
1 x,y,z
2 -x,1/2+y,1/2-z
3 -x,-y,-z
4 x,1/2-y,1/2+z
_cell_length_a                   16.0905(14)
_cell_length_b                   10.5629(9)
_cell_length_c                   13.9165(12)
_cell_angle_alpha                90
_cell_angle_beta                 106.691(2)
_cell_angle_gamma                90
_cell_volume                     2265.63
_exptl_crystal_colour            red
_exptl_crystal_description       block
_cell_formula_units_Z            4
loop_
_atom_site_label
_atom_site_type_symbol
_atom_site_fract_x
_atom_site_fract_y
_atom_site_fract_z
B1 B 0.12248(11) 0.60464(18) 0.16915(13)
C1 C 0.17725(10) 0.42649(15) 0.29853(12)
C2 C 0.25666(11) 0.37784(16) 0.35601(12)
H1 H 0.2638 0.3103 0.4005
C3 C 0.32290(10) 0.44630(15) 0.33597(11)
C4 C 0.28179(9) 0.53886(14) 0.26338(10)
C5 C 0.31555(9) 0.63114(14) 0.21267(10)
C6 C 0.26127(9) 0.70668(14) 0.13854(11)
C7 C 0.27908(10) 0.80272(16) 0.07484(12)
C8 C 0.19972(11) 0.84216(18) 0.01451(13)
H2 H 0.1909 0.9041 -0.0349
C9 C 0.13426(11) 0.77383(17) 0.03968(13)
C10 C 0.08812(12) 0.3831(2) 0.29592(15)
H3 H 0.0550 0.4539 0.3078
H4 H 0.0921 0.3203 0.3469
H5 H 0.0601 0.3473 0.2313
C11 C 0.41721(10) 0.42064(16) 0.38161(12)
H6 H 0.4243 0.3532 0.4295
H7 H 0.4451 0.4956 0.4147
H8 H 0.4429 0.3967 0.3300
C12 C 0.36489(11) 0.85203(18) 0.07031(14)
H9 H 0.3560 0.9229 0.0253
H10 H 0.3954 0.7865 0.0467
H11 H 0.3983 0.8784 0.1360
C13 C 0.03887(12) 0.7825(2) -0.00671(16)
H12 H 0.0166 0.7008 -0.0315
H13 H 0.0268 0.8419 -0.0612
H14 H 0.0117 0.8104 0.0426
C14 C 0.41111(9) 0.64876(14) 0.23998(10)
C15 C 0.46989(10) 0.59390(15) 0.19927(12)
H15 H 0.4548 0.5381 0.1453
C16 C 0.55636(10) 0.63100(15) 0.24792(12)
H16 H 0.6040 0.6014 0.2295
C17 C 0.56277(9) 0.71445(14) 0.32447(11)
C18 C 0.63895(9) 0.77851(13) 0.38927(10)
C19 C 0.72327(9) 0.75422(15) 0.38026(11)
H17 H 0.7313 0.6954 0.3340
C20 C 0.79211(9) 0.81854(15) 0.44053(11)
H18 H 0.8476 0.8042 0.4352
C21 C 0.77924(9) 0.90711(15) 0.51112(11)
C22 C 0.84723(11) 0.97534(17) 0.57793(12)
H19 H 0.9042 0.9626 0.5770
C23 C 0.82967(12) 1.05997(19) 0.64391(14)
H20 H 0.8747 1.1044 0.6878
C24 C 0.74361(12) 1.08013(18) 0.64555(14)
H21 H 0.7324 1.1386 0.6902
C25 C 0.67636(11) 1.01511(16) 0.58251(12)
H22 H 0.6198 1.0295 0.5843
C26 C 0.69281(9) 0.92592(14) 0.51455(11)
F1 F 0.06456(6) 0.52746(9) 0.10112(7)
F2 F 0.07715(6) 0.67670(10) 0.22155(8)
N1 N 0.19199(8) 0.52347(12) 0.24218(9)
N2 N 0.17096(8) 0.69271(13) 0.11453(9)
N3 N 0.62408(7) 0.86095(11) 0.45401(9)
S1 S 0.46142(2) 0.74818(4) 0.33793(3)
loop_
_geom_bond_atom_site_label_1
_geom_bond_atom_site_label_2
_geom_bond_site_symmetry_1
_geom_bond_site_symmetry_2
B1 F1 1_555 1_555
C1 C2 1_555 1_555
C2 H1 1_555 1_555
C3 C2 1_555 1_555
C4 C3 1_555 1_555
C5 C4 1_555 1_555
C6 C5 1_555 1_555
C7 C6 1_555 1_555
C8 C7 1_555 1_555
H2 C8 1_555 1_555
C9 C8 1_555 1_555
C10 C1 1_555 1_555
H3 C10 1_555 1_555
H4 C10 1_555 1_555
H5 C10 1_555 1_555
C11 C3 1_555 1_555
H6 C11 1_555 1_555
H7 C11 1_555 1_555
H8 C11 1_555 1_555
C12 C7 1_555 1_555
H9 C12 1_555 1_555
H10 C12 1_555 1_555
H11 C12 1_555 1_555
C13 C9 1_555 1_555
H12 C13 1_555 1_555
H13 C13 1_555 1_555
H14 C13 1_555 1_555
C14 C5 1_555 1_555
C15 C14 1_555 1_555
H15 C15 1_555 1_555
C16 C15 1_555 1_555
H16 C16 1_555 1_555
C17 C16 1_555 1_555
C18 C17 1_555 1_555
C19 C18 1_555 1_555
H17 C19 1_555 1_555
C20 C19 1_555 1_555
H18 C20 1_555 1_555
C21 C20 1_555 1_555
C22 C21 1_555 1_555
H19 C22 1_555 1_555
C23 C22 1_555 1_555
H20 C23 1_555 1_555
C24 C23 1_555 1_555
H21 C24 1_555 1_555
C25 C24 1_555 1_555
H22 C25 1_555 1_555
C26 C21 1_555 1_555
F2 B1 1_555 1_555
N1 B1 1_555 1_555
N2 B1 1_555 1_555
N3 C18 1_555 1_555
S1 C14 1_555 1_555
C1 N1 1_555 1_555
C4 N1 1_555 1_555
C6 N2 1_555 1_555
C9 N2 1_555 1_555
C17 S1 1_555 1_555
C25 C26 1_555 1_555
C26 N3 1_555 1_555

#END
