
#######################################################################
#
#                 Cambridge Crystallographic Data Centre
#                                CCDC 
#
#######################################################################
#
# If this CIF has been generated from an entry in the Cambridge 
# Structural Database, then it will include bibliographic, chemical, 
# crystal, experimental, refinement or atomic coordinate data resulting 
# from the CCDC's data processing and validation procedures.
#
#######################################################################

data_SAQYOA
_chemical_formula_moiety         'C45 H30 O3'
_chemical_name_systematic        
(1,3,4,6-Tetraphenyl-4H-cyclopenta[c]furan-4,5-diyl)bis(phenylmethanone)
_symmetry_cell_setting           monoclinic
_symmetry_space_group_name_H-M   'P 21/c'
_symmetry_Int_Tables_number      14
_space_group_name_Hall           '-P 2ybc'
loop_
_symmetry_equiv_pos_site_id
_symmetry_equiv_pos_as_xyz
1 x,y,z
2 -x,1/2+y,1/2-z
3 -x,-y,-z
4 x,1/2-y,1/2+z
_cell_length_a                   19.726(4)
_cell_length_b                   9.4866(19)
_cell_length_c                   20.005(4)
_cell_angle_alpha                90
_cell_angle_beta                 119.02(3)
_cell_angle_gamma                90
_cell_volume                     3273.58
_exptl_crystal_colour            yellow
_exptl_crystal_description       block
_cell_formula_units_Z            4
loop_
_atom_site_label
_atom_site_type_symbol
_atom_site_fract_x
_atom_site_fract_y
_atom_site_fract_z
C1 C 0.3501(2) 0.3205(4) 0.5200(2)
C2 C 0.3008(2) 0.3368(5) 0.5492(2)
H1 H 0.2691 0.4161 0.5359
C3 C 0.2969(3) 0.2385(5) 0.5980(2)
H2 H 0.2617 0.2508 0.6159
C4 C 0.3438(3) 0.1248(6) 0.6199(3)
H3 H 0.3418 0.0589 0.6533
C5 C 0.3936(4) 0.1083(6) 0.5922(4)
H4 H 0.4265 0.0307 0.6073
C6 C 0.3967(3) 0.2044(6) 0.5418(3)
H5 H 0.4307 0.1898 0.5226
C7 C 0.46020(18) 0.4640(4) 0.3647(2)
C8 C 0.51468(19) 0.3574(4) 0.3941(2)
H6 H 0.5160 0.2981 0.4317
C9 C 0.5672(2) 0.3384(5) 0.3679(3)
H7 H 0.6029 0.2650 0.3874
C10 C 0.5676(2) 0.4255(5) 0.3139(3)
H8 H 0.6024 0.4108 0.2958
C11 C 0.5154(2) 0.5362(5) 0.2864(2)
H9 H 0.5163 0.5983 0.2509
C12 C 0.4623(2) 0.5548(4) 0.3112(2)
H10 H 0.4272 0.6291 0.2920
C13 C 0.31782(19) 0.8097(4) 0.3124(2)
C14 C 0.3854(2) 0.8512(5) 0.3751(2)
H11 H 0.4138 0.7869 0.4138
C15 C 0.4114(3) 0.9884(5) 0.3810(3)
H12 H 0.4578 1.0154 0.4232
C16 C 0.3693(3) 1.0848(5) 0.3251(3)
H13 H 0.3864 1.1775 0.3299
C17 C 0.3034(3) 1.0447(5) 0.2635(3)
H14 H 0.2752 1.1101 0.2254
C18 C 0.2767(2) 0.9078(4) 0.2558(2)
H15 H 0.2310 0.8816 0.2126
C19 C 0.1261(2) 0.8711(4) 0.3208(2)
C20 C 0.1805(3) 0.9491(5) 0.3818(3)
H16 H 0.2331 0.9298 0.4025
C21 C 0.1552(4) 1.0567(5) 0.4118(3)
H17 H 0.1907 1.1108 0.4525
C22 C 0.0772(4) 1.0817(6) 0.3802(4)
H18 H 0.0605 1.1536 0.4003
C23 C 0.0237(3) 1.0053(6) 0.3208(4)
H19 H -0.0290 1.0230 0.3010
C24 C 0.0486(2) 0.9023(5) 0.2909(3)
H20 H 0.0124 0.8513 0.2490
C25 C 0.15127(19) 0.7644(4) 0.2842(2)
C26 C 0.18554(19) 0.5923(4) 0.4301(2)
C27 C 0.2023(2) 0.6672(4) 0.4958(2)
H21 H 0.2443 0.7288 0.5164
C28 C 0.1577(3) 0.6516(5) 0.5308(2)
H22 H 0.1692 0.7027 0.5747
C29 C 0.0961(3) 0.5600(5) 0.5007(3)
H23 H 0.0666 0.5477 0.5250
C30 C 0.0781(2) 0.4876(5) 0.4358(3)
H24 H 0.0356 0.4271 0.4151
C31 C 0.1228(2) 0.5038(4) 0.4006(2)
H25 H 0.1102 0.4538 0.3561
C32 C 0.1989(2) 0.4732(4) 0.2018(2)
C33 C 0.1949(2) 0.3711(4) 0.2487(3)
H26 H 0.2288 0.3748 0.3010
C34 C 0.1413(3) 0.2634(5) 0.2194(3)
H27 H 0.1396 0.1953 0.2521
C35 C 0.0907(3) 0.2561(6) 0.1427(4)
H28 H 0.0539 0.1846 0.1230
C36 C 0.0949(3) 0.3553(7) 0.0953(3)
H29 H 0.0613 0.3501 0.0429
C37 C 0.1480(3) 0.4622(5) 0.1238(3)
H30 H 0.1501 0.5284 0.0906
C38 C 0.2540(2) 0.5942(4) 0.2272(2)
C39 C 0.35236(19) 0.4175(4) 0.4649(2)
O1 O 0.41160(12) 0.3942(2) 0.44863(13)
C40 C 0.40254(19) 0.4811(4) 0.3892(2)
C41 C 0.33811(18) 0.5602(4) 0.3690(2)
C42 C 0.28400(18) 0.6615(4) 0.30769(19)
C43 C 0.22047(18) 0.6770(4) 0.3304(2)
C44 C 0.23537(18) 0.6028(4) 0.3939(2)
C45 C 0.30717(19) 0.5230(4) 0.4178(2)
O2 O 0.27691(15) 0.6409(3) 0.18518(15)
O3 O 0.11622(14) 0.7490(3) 0.21401(16)
loop_
_geom_bond_atom_site_label_1
_geom_bond_atom_site_label_2
_geom_bond_site_symmetry_1
_geom_bond_site_symmetry_2
C1 C2 1_555 1_555
C2 H1 1_555 1_555
C3 C2 1_555 1_555
H2 C3 1_555 1_555
C4 C3 1_555 1_555
H3 C4 1_555 1_555
C5 C4 1_555 1_555
H4 C5 1_555 1_555
C6 C1 1_555 1_555
H5 C6 1_555 1_555
C7 C8 1_555 1_555
C8 H6 1_555 1_555
C9 C8 1_555 1_555
H7 C9 1_555 1_555
C10 C9 1_555 1_555
H8 C10 1_555 1_555
C11 C10 1_555 1_555
H9 C11 1_555 1_555
C12 C7 1_555 1_555
H10 C12 1_555 1_555
C13 C14 1_555 1_555
C14 H11 1_555 1_555
C15 C14 1_555 1_555
H12 C15 1_555 1_555
C16 C15 1_555 1_555
H13 C16 1_555 1_555
C17 C16 1_555 1_555
H14 C17 1_555 1_555
C18 C13 1_555 1_555
H15 C18 1_555 1_555
C19 C20 1_555 1_555
C20 H16 1_555 1_555
C21 C20 1_555 1_555
H17 C21 1_555 1_555
C22 C21 1_555 1_555
H18 C22 1_555 1_555
C23 C22 1_555 1_555
H19 C23 1_555 1_555
C24 C19 1_555 1_555
H20 C24 1_555 1_555
C25 C19 1_555 1_555
C26 C27 1_555 1_555
C27 H21 1_555 1_555
C28 C27 1_555 1_555
H22 C28 1_555 1_555
C29 C28 1_555 1_555
H23 C29 1_555 1_555
C30 C29 1_555 1_555
H24 C30 1_555 1_555
C31 C26 1_555 1_555
H25 C31 1_555 1_555
C32 C33 1_555 1_555
C33 H26 1_555 1_555
C34 C33 1_555 1_555
H27 C34 1_555 1_555
C35 C34 1_555 1_555
H28 C35 1_555 1_555
C36 C35 1_555 1_555
H29 C36 1_555 1_555
C37 C32 1_555 1_555
H30 C37 1_555 1_555
C38 C32 1_555 1_555
C39 C1 1_555 1_555
O1 C39 1_555 1_555
C40 C7 1_555 1_555
C41 C40 1_555 1_555
C42 C13 1_555 1_555
C43 C25 1_555 1_555
C44 C26 1_555 1_555
C45 C39 1_555 1_555
O2 C38 1_555 1_555
O3 C25 1_555 1_555
C5 C6 1_555 1_555
C11 C12 1_555 1_555
C17 C18 1_555 1_555
C23 C24 1_555 1_555
C30 C31 1_555 1_555
C36 C37 1_555 1_555
C38 C42 1_555 1_555
O1 C40 1_555 1_555
C41 C42 1_555 1_555
C41 C45 1_555 1_555
C42 C43 1_555 1_555
C43 C44 1_555 1_555
C44 C45 1_555 1_555

#END
