
#######################################################################
#
#                 Cambridge Crystallographic Data Centre
#                                CCDC 
#
#######################################################################
#
# If this CIF has been generated from an entry in the Cambridge 
# Structural Database, then it will include bibliographic, chemical, 
# crystal, experimental, refinement or atomic coordinate data resulting 
# from the CCDC's data processing and validation procedures.
#
#######################################################################

data_SAQZAN
_chemical_formula_moiety         'C28 H22 F1 N1 O2 S2'
_chemical_name_systematic        
'S-Phenyl 2-(benzoylamino)-3-(4-fluorophenyl)-3-(phenylsulfanyl)propanethioate'
_symmetry_cell_setting           triclinic
_symmetry_space_group_name_H-M   'P 1'
_symmetry_Int_Tables_number      1
_space_group_name_Hall           'P 1'
loop_
_symmetry_equiv_pos_site_id
_symmetry_equiv_pos_as_xyz
1 x,y,z
_cell_length_a                   5.3494(11)
_cell_length_b                   10.901(2)
_cell_length_c                   11.123(2)
_cell_angle_alpha                73.698(13)
_cell_angle_beta                 82.129(15)
_cell_angle_gamma                81.024(15)
_cell_volume                     611.948
_exptl_crystal_colour            colorless
_exptl_crystal_description       block
_cell_formula_units_Z            1
loop_
_atom_site_label
_atom_site_type_symbol
_atom_site_fract_x
_atom_site_fract_y
_atom_site_fract_z
S1 S 0.3643(2) 0.50237(13) 1.17312(11)
S2 S 0.70664(18) 0.67781(10) 0.74091(9)
F1 F 0.5720(6) 0.0950(3) 0.7159(3)
O1 O -0.1347(6) 0.7214(3) 0.9988(3)
O2 O 0.1040(6) 0.4068(3) 1.0437(3)
N1 N 0.2872(7) 0.7145(3) 0.9525(3)
H1 H 0.417(8) 0.744(4) 0.959(4)
C1 C 0.2983(7) 0.5940(4) 0.9209(4)
H2 H 0.1731 0.6041 0.8611
C2 C 0.0592(7) 0.7685(4) 0.9960(4)
C3 C 0.0593(8) 0.8826(4) 1.0443(4)
C4 C -0.1461(8) 0.9070(5) 1.1307(4)
H3 H -0.2736 0.8534 1.1547
C5 C -0.1582(10) 1.0115(5) 1.1803(5)
H4 H -0.2933 1.0269 1.2385
C6 C 0.0266(10) 1.0922(5) 1.1445(5)
H5 H 0.0173 1.1619 1.1783
C7 C 0.2261(9) 1.0696(5) 1.0581(5)
H6 H 0.3495 1.1254 1.0321
C8 C 0.2441(8) 0.9648(4) 1.0099(5)
H7 H 0.3825 0.9491 0.9535
C9 C 0.2278(8) 0.4884(4) 1.0408(4)
C10 C 0.2547(9) 0.3702(4) 1.2915(4)
C11 C 0.0239(13) 0.3828(8) 1.3582(6)
H8 H -0.0812 0.4607 1.3382
C12 C -0.0567(15) 0.2835(9) 1.4540(6)
H9 H -0.2155 0.2938 1.4984
C13 C 0.0921(15) 0.1723(8) 1.4835(5)
H10 H 0.0355 0.1051 1.5487
C14 C 0.3255(17) 0.1541(7) 1.4206(7)
H11 H 0.4289 0.0759 1.4422
C15 C 0.4050(12) 0.2559(6) 1.3232(5)
H12 H 0.5639 0.2454 1.2789
C16 C 0.5626(7) 0.5494(4) 0.8610(4)
H13 H 0.6733 0.5244 0.9294
C17 C 0.5334(8) 0.7036(5) 0.6089(4)
C18 C 0.3141(9) 0.7887(5) 0.5958(5)
H14 H 0.2504 0.8302 0.6581
C19 C 0.1860(11) 0.8127(6) 0.4870(6)
H15 H 0.0346 0.8680 0.4777
C20 C 0.2892(15) 0.7529(7) 0.3954(5)
H16 H 0.2084 0.7698 0.3226
C21 C 0.5043(13) 0.6703(7) 0.4081(5)
H17 H 0.5695 0.6307 0.3445
C22 C 0.6284(12) 0.6440(6) 0.5139(5)
H18 H 0.7765 0.5862 0.5223
C23 C 0.5626(7) 0.4285(4) 0.8207(4)
C24 C 0.7431(8) 0.3238(4) 0.8590(4)
H19 H 0.8634 0.3285 0.9100
C25 C 0.7471(9) 0.2128(5) 0.8228(4)
H20 H 0.8713 0.1434 0.8474
C26 C 0.5683(10) 0.2058(5) 0.7511(4)
C27 C 0.3845(9) 0.3057(5) 0.7100(5)
H21 H 0.2661 0.2989 0.6590
C28 C 0.3809(8) 0.4176(5) 0.7470(4)
H22 H 0.2552 0.4862 0.7223
loop_
_geom_bond_atom_site_label_1
_geom_bond_atom_site_label_2
_geom_bond_site_symmetry_1
_geom_bond_site_symmetry_2
S1 C9 1_555 1_555
S2 C16 1_555 1_555
F1 C26 1_555 1_555
O1 C2 1_555 1_555
O2 C9 1_555 1_555
N1 H1 1_555 1_555
C1 N1 1_555 1_555
H2 C1 1_555 1_555
C2 N1 1_555 1_555
C3 C2 1_555 1_555
C4 C3 1_555 1_555
H3 C4 1_555 1_555
C5 C4 1_555 1_555
H4 C5 1_555 1_555
C6 C5 1_555 1_555
H5 C6 1_555 1_555
C7 C6 1_555 1_555
H6 C7 1_555 1_555
C8 C3 1_555 1_555
H7 C8 1_555 1_555
C9 C1 1_555 1_555
C10 S1 1_555 1_555
C11 C10 1_555 1_555
H8 C11 1_555 1_555
C12 C11 1_555 1_555
H9 C12 1_555 1_555
C13 C12 1_555 1_555
H10 C13 1_555 1_555
C14 C13 1_555 1_555
H11 C14 1_555 1_555
C15 C10 1_555 1_555
H12 C15 1_555 1_555
C16 C1 1_555 1_555
H13 C16 1_555 1_555
C17 S2 1_555 1_555
C18 C17 1_555 1_555
H14 C18 1_555 1_555
C19 C18 1_555 1_555
H15 C19 1_555 1_555
C20 C19 1_555 1_555
H16 C20 1_555 1_555
C21 C20 1_555 1_555
H17 C21 1_555 1_555
C22 C17 1_555 1_555
H18 C22 1_555 1_555
C23 C16 1_555 1_555
C24 C23 1_555 1_555
H19 C24 1_555 1_555
C25 C24 1_555 1_555
H20 C25 1_555 1_555
C26 C25 1_555 1_555
C27 C26 1_555 1_555
H21 C27 1_555 1_555
C28 C23 1_555 1_555
H22 C28 1_555 1_555
C7 C8 1_555 1_555
C14 C15 1_555 1_555
C21 C22 1_555 1_555
C27 C28 1_555 1_555

#END
