
#######################################################################
#
#                 Cambridge Crystallographic Data Centre
#                                CCDC 
#
#######################################################################
#
# If this CIF has been generated from an entry in the Cambridge 
# Structural Database, then it will include bibliographic, chemical, 
# crystal, experimental, refinement or atomic coordinate data resulting 
# from the CCDC's data processing and validation procedures.
#
#######################################################################

data_SARDIB
_chemical_formula_moiety         'C16 H20 O6'
_chemical_name_systematic        
'4-acetyl-3-hydroxy-3,7-dimethyl-1-oxo-7a-(prop-1-en-1-yl)-1,3,3a,4,7,7a-hexahydro-2-benzofuran-5-carboxylic acid'
_symmetry_cell_setting           monoclinic
_symmetry_space_group_name_H-M   'P 21/c'
_symmetry_Int_Tables_number      14
_space_group_name_Hall           '-P 2ybc'
loop_
_symmetry_equiv_pos_site_id
_symmetry_equiv_pos_as_xyz
1 x,y,z
2 -x,1/2+y,1/2-z
3 -x,-y,-z
4 x,1/2-y,1/2+z
_cell_length_a                   12.0977(4)
_cell_length_b                   7.9305(3)
_cell_length_c                   15.6127(5)
_cell_angle_alpha                90
_cell_angle_beta                 93.798(2)
_cell_angle_gamma                90
_cell_volume                     1494.61
_exptl_crystal_colour            colorless
_exptl_crystal_description       plate
_chemical_melting_point          '170-174 deg.C'
_cell_formula_units_Z            4
_exptl_crystal_recrystallization_method 
'dichloromethane/pentane/ethyl acetate(5%)'
loop_
_atom_site_label
_atom_site_type_symbol
_atom_site_fract_x
_atom_site_fract_y
_atom_site_fract_z
O1 O 0.50729(12) 0.0809(2) 0.68969(11)
H1 H 0.5653 0.0259 0.7030
O2 O 0.62886(12) 0.2807(2) 0.65922(11)
O3 O 0.14878(12) 0.43551(19) 0.45078(9)
O4 O 0.31191(12) 0.2774(2) 0.45214(9)
H2 H 0.3031 0.2402 0.4018
O5 O 0.11516(13) 0.7036(2) 0.48352(10)
O6 O 0.32848(12) 0.3176(2) 0.78111(9)
C1 C 0.53432(18) 0.2327(3) 0.66012(13)
C2 C 0.43447(17) 0.3303(3) 0.62856(13)
C3 C 0.44653(17) 0.4854(3) 0.59879(13)
H3 H 0.5187 0.5331 0.6042
C4 C 0.35570(17) 0.5913(3) 0.55731(14)
H4 H 0.3581 0.5723 0.4941
C5 C 0.23824(17) 0.5317(3) 0.58095(13)
C6 C 0.20434(18) 0.6099(3) 0.66392(14)
H5 H 0.2625 0.6421 0.7045
C7 C 0.10274(18) 0.6375(3) 0.68524(14)
H6 H 0.0437 0.6145 0.6437
C8 C 0.0740(2) 0.7027(3) 0.77077(15)
H7 H 0.1422 0.7300 0.8054
H8 H 0.0326 0.6165 0.8002
H9 H 0.0285 0.8044 0.7628
C9 C 0.32395(16) 0.2438(3) 0.63175(13)
H10 H 0.3301 0.1293 0.6056
C10 C 0.22845(16) 0.3384(3) 0.58226(13)
H11 H 0.1590 0.3105 0.6106
C11 C 0.16010(17) 0.5730(3) 0.50270(14)
C12 C 0.20932(17) 0.2895(3) 0.48750(13)
C13 C 0.13667(18) 0.1376(3) 0.46889(15)
H12 H 0.1291 0.1178 0.4068
H13 H 0.0634 0.1578 0.4901
H14 H 0.1703 0.0385 0.4977
C14 C 0.3760(2) 0.7786(3) 0.57124(17)
H15 H 0.3768 0.8041 0.6327
H16 H 0.3168 0.8430 0.5404
H17 H 0.4475 0.8095 0.5496
C15 C 0.29385(17) 0.2215(3) 0.72445(13)
C16 C 0.22045(19) 0.0764(3) 0.74204(14)
H18 H 0.2659 -0.0218 0.7591
H19 H 0.1738 0.0494 0.6901
H20 H 0.1733 0.1061 0.7884
loop_
_geom_bond_atom_site_label_1
_geom_bond_atom_site_label_2
_geom_bond_site_symmetry_1
_geom_bond_site_symmetry_2
O1 H1 1_555 1_555
O2 C1 1_555 1_555
O3 C11 1_555 1_555
O4 H2 1_555 1_555
O5 C11 1_555 1_555
O6 C15 1_555 1_555
C1 O1 1_555 1_555
C2 C1 1_555 1_555
C3 C2 1_555 1_555
H3 C3 1_555 1_555
C4 C3 1_555 1_555
H4 C4 1_555 1_555
C5 C4 1_555 1_555
C6 C5 1_555 1_555
H5 C6 1_555 1_555
C7 C6 1_555 1_555
H6 C7 1_555 1_555
C8 C7 1_555 1_555
H7 C8 1_555 1_555
H8 C8 1_555 1_555
H9 C8 1_555 1_555
C9 C2 1_555 1_555
H10 C9 1_555 1_555
C10 C5 1_555 1_555
H11 C10 1_555 1_555
C11 C5 1_555 1_555
C12 O3 1_555 1_555
C13 C12 1_555 1_555
H12 C13 1_555 1_555
H13 C13 1_555 1_555
H14 C13 1_555 1_555
C14 C4 1_555 1_555
H15 C14 1_555 1_555
H16 C14 1_555 1_555
H17 C14 1_555 1_555
C15 C9 1_555 1_555
C16 C15 1_555 1_555
H18 C16 1_555 1_555
H19 C16 1_555 1_555
H20 C16 1_555 1_555
O4 C12 1_555 1_555
C9 C10 1_555 1_555
C10 C12 1_555 1_555

#END
