
#######################################################################
#
#                 Cambridge Crystallographic Data Centre
#                                CCDC 
#
#######################################################################
#
# If this CIF has been generated from an entry in the Cambridge 
# Structural Database, then it will include bibliographic, chemical, 
# crystal, experimental, refinement or atomic coordinate data resulting 
# from the CCDC's data processing and validation procedures.
#
#######################################################################

data_SARMEF
_chemical_formula_moiety         'C39 H30 N10 O8,C1 H2 Cl2'
_chemical_name_systematic        
'M-Methyl 6-(((6-(((6-(((6-(((6-(((benzyloxy)carbonyl)amino)pyridin-2-yl)carbonyl)amino)pyridin-2-yl)carbonyl)amino)pyridin-2-yl)carbonyl)amino)pyridin-2-yl)carbonyl)amino)pyridine-2-carboxylate dichloromethane solvate'
_symmetry_cell_setting           orthorhombic
_symmetry_space_group_name_H-M   'P 21 21 21'
_symmetry_Int_Tables_number      19
_space_group_name_Hall           'P 2ac 2ab'
loop_
_symmetry_equiv_pos_site_id
_symmetry_equiv_pos_as_xyz
1 x,y,z
2 1/2-x,-y,1/2+z
3 -x,1/2+y,1/2-z
4 1/2+x,1/2-y,-z
_cell_length_a                   10.5103(13)
_cell_length_b                   13.6620(16)
_cell_length_c                   25.537(3)
_cell_angle_alpha                90
_cell_angle_beta                 90
_cell_angle_gamma                90
_cell_volume                     3666.9
_exptl_crystal_colour            colorless
_exptl_crystal_description       rod
_cell_formula_units_Z            4
loop_
_atom_site_label
_atom_site_type_symbol
_atom_site_fract_x
_atom_site_fract_y
_atom_site_fract_z
C1 C 0.1643(11) 0.287(2) 0.9511(8)
H1 H 0.1700 0.2565 0.9159
H2 H 0.1565 0.3587 0.9469
Cl1 Cl 0.2986(7) 0.2568(4) 0.9894(2)
Cl2 Cl 0.0327(7) 0.2388(4) 0.9867(2)
O1 O 0.2354(4) 0.2025(2) 0.75644(13)
O2 O 0.2380(4) 0.2716(2) 0.83556(15)
O3 O 0.1920(3) -0.1569(2) 0.97699(13)
O4 O 0.0694(4) 0.1775(3) 1.20771(13)
O5 O 0.0400(3) 0.6460(2) 1.04908(12)
O6 O -0.0485(3) 0.3924(2) 0.78867(12)
O7 O -0.1294(4) -0.1122(2) 0.90990(12)
O8 O -0.1650(3) -0.0418(2) 0.98873(12)
N1 N 0.2020(4) 0.0926(3) 0.88174(16)
N2 N 0.1702(4) 0.0059(3) 0.95676(16)
H3 H 0.155(5) 0.064(2) 0.970(2)
N3 N 0.1325(4) 0.0466(3) 1.05901(15)
N4 N 0.0893(4) 0.1676(3) 1.11856(15)
H4 H 0.094(5) 0.210(3) 1.0919(14)
N5 N 0.0435(4) 0.3580(3) 1.10785(14)
N6 N 0.0159(4) 0.4795(3) 1.04797(15)
H5 H 0.011(5) 0.423(2) 1.0319(18)
N7 N -0.0308(4) 0.4800(3) 0.94617(14)
N8 N -0.0771(4) 0.3806(3) 0.87733(14)
H6 H -0.104(5) 0.334(3) 0.8994(16)
N9 N -0.1168(3) 0.1897(3) 0.87117(13)
N10 N -0.1529(4) 0.0540(3) 0.92092(14)
H7 H -0.181(5) 0.101(3) 0.9425(17)
C2 C 0.2478(6) 0.3007(4) 0.7342(2)
H8 H 0.3266 0.3308 0.7468
H9 H 0.1750 0.3407 0.7449
H10 H 0.2500 0.2962 0.6959
C3 C 0.2313(5) 0.2002(4) 0.8086(2)
C4 C 0.2159(5) 0.0975(3) 0.8289(2)
C5 C 0.2111(4) 0.0174(4) 0.7966(2)
H11 H 0.2202 0.0238 0.7597
C6 C 0.1926(5) -0.0730(4) 0.81960(19)
H12 H 0.1901 -0.1298 0.7982
C7 C 0.1778(4) -0.0826(3) 0.8724(2)
H13 H 0.1636 -0.1445 0.8883
C8 C 0.1848(5) 0.0043(4) 0.9026(2)
C9 C 0.1737(4) -0.0727(3) 0.99013(19)
C10 C 0.1527(4) -0.0468(3) 1.04723(19)
C11 C 0.1539(5) -0.1228(3) 1.08349(19)
H14 H 0.1664 -0.1889 1.0731
C12 C 0.1358(5) -0.0973(4) 1.1354(2)
H15 H 0.1385 -0.1466 1.1617
C13 C 0.1138(5) -0.0018(3) 1.1495(2)
H16 H 0.0999 0.0158 1.1850
C14 C 0.1128(4) 0.0689(4) 1.10963(18)
C15 C 0.0704(5) 0.2167(4) 1.1645(2)
C16 C 0.0506(5) 0.3238(3) 1.15751(18)
C17 C 0.0395(5) 0.3845(4) 1.20071(18)
H17 H 0.0403 0.3582 1.2352
C18 C 0.0275(5) 0.4839(4) 1.19267(18)
H18 H 0.0224 0.5269 1.2218
C19 C 0.0227(5) 0.5217(4) 1.14174(17)
H19 H 0.0156 0.5900 1.1353
C20 C 0.0289(5) 0.4533(4) 1.10055(17)
C21 C 0.0196(4) 0.5707(3) 1.02551(18)
C22 C -0.0036(4) 0.5683(4) 0.96725(17)
C23 C 0.0048(4) 0.6535(3) 0.93822(18)
H20 H 0.0258 0.7143 0.9541
C24 C -0.0187(5) 0.6465(3) 0.88510(19)
H21 H -0.0156 0.7037 0.8640
C25 C -0.0465(4) 0.5583(3) 0.86240(17)
H22 H -0.0627 0.5533 0.8259
C26 C -0.0501(4) 0.4761(3) 0.89480(17)
C27 C -0.0704(4) 0.3436(3) 0.82761(17)
C28 C -0.0909(4) 0.2352(3) 0.82540(16)
C29 C -0.0772(4) 0.1851(3) 0.77879(17)
H23 H -0.0600 0.2187 0.7470
C30 C -0.0896(4) 0.0841(3) 0.78011(16)
H24 H -0.0811 0.0478 0.7486
C31 C -0.1141(4) 0.0354(3) 0.82637(17)
H25 H -0.1212 -0.0339 0.8277
C32 C -0.1280(4) 0.0937(3) 0.87126(16)
C33 C -0.1471(4) -0.0411(3) 0.93649(17)
C34 C -0.1599(5) -0.1363(3) 1.01440(16)
H26 H -0.0775 -0.1688 1.0072
H27 H -0.2293 -0.1790 1.0016
C35 C -0.1746(4) -0.1175(3) 1.07234(18)
C36 C -0.1557(4) -0.1947(3) 1.10695(17)
H28 H -0.1342 -0.2577 1.0939
C37 C -0.1680(5) -0.1800(4) 1.16080(18)
H29 H -0.1549 -0.2330 1.1843
C38 C -0.1993(5) -0.0887(4) 1.17997(18)
H30 H -0.2071 -0.0791 1.2167
C39 C -0.2193(6) -0.0116(4) 1.1466(2)
H31 H -0.2419 0.0509 1.1599
C40 C -0.2059(5) -0.0263(4) 1.0920(2)
H32 H -0.2186 0.0270 1.0686
C41? C 0.3209(10) 0.2717(16) 0.9438(5)
Cl3? Cl 0.1684(6) 0.2835(4) 0.9714(2)
Cl4? Cl 0.4286(7) 0.2616(4) 0.99664(19)
H33? H 0.3414 0.3298 0.9222
H34? H 0.3252 0.2127 0.9213
loop_
_geom_bond_atom_site_label_1
_geom_bond_atom_site_label_2
_geom_bond_site_symmetry_1
_geom_bond_site_symmetry_2
C1 H1 1_555 1_555
H2 C1 1_555 1_555
Cl1 C1 1_555 1_555
Cl2 C1 1_555 1_555
O1 C2 1_555 1_555
O2 C3 1_555 1_555
O3 C9 1_555 1_555
O4 C15 1_555 1_555
O5 C21 1_555 1_555
O6 C27 1_555 1_555
O7 C33 1_555 1_555
O8 C33 1_555 1_555
N1 C4 1_555 1_555
N2 H3 1_555 1_555
N3 C10 1_555 1_555
N4 H4 1_555 1_555
N5 C16 1_555 1_555
N6 H5 1_555 1_555
N7 C22 1_555 1_555
N8 H6 1_555 1_555
N9 C28 1_555 1_555
N10 H7 1_555 1_555
C2 H8 1_555 1_555
H9 C2 1_555 1_555
H10 C2 1_555 1_555
C3 O1 1_555 1_555
C4 C3 1_555 1_555
C5 C4 1_555 1_555
H11 C5 1_555 1_555
C6 C5 1_555 1_555
H12 C6 1_555 1_555
C7 C6 1_555 1_555
H13 C7 1_555 1_555
C8 N1 1_555 1_555
C9 N2 1_555 1_555
C10 C9 1_555 1_555
C11 C10 1_555 1_555
H14 C11 1_555 1_555
C12 C11 1_555 1_555
H15 C12 1_555 1_555
C13 C12 1_555 1_555
H16 C13 1_555 1_555
C14 N3 1_555 1_555
C15 N4 1_555 1_555
C16 C15 1_555 1_555
C17 C16 1_555 1_555
H17 C17 1_555 1_555
C18 C17 1_555 1_555
H18 C18 1_555 1_555
C19 C18 1_555 1_555
H19 C19 1_555 1_555
C20 N5 1_555 1_555
C21 N6 1_555 1_555
C22 C21 1_555 1_555
C23 C22 1_555 1_555
H20 C23 1_555 1_555
C24 C23 1_555 1_555
H21 C24 1_555 1_555
C25 C24 1_555 1_555
H22 C25 1_555 1_555
C26 N7 1_555 1_555
C27 N8 1_555 1_555
C28 C27 1_555 1_555
C29 C28 1_555 1_555
H23 C29 1_555 1_555
C30 C29 1_555 1_555
H24 C30 1_555 1_555
C31 C30 1_555 1_555
H25 C31 1_555 1_555
C32 N9 1_555 1_555
C33 N10 1_555 1_555
C34 O8 1_555 1_555
H26 C34 1_555 1_555
H27 C34 1_555 1_555
C35 C34 1_555 1_555
C36 C35 1_555 1_555
H28 C36 1_555 1_555
C37 C36 1_555 1_555
H29 C37 1_555 1_555
C38 C37 1_555 1_555
H30 C38 1_555 1_555
C39 C38 1_555 1_555
H31 C39 1_555 1_555
C40 C35 1_555 1_555
H32 C40 1_555 1_555
N2 C8 1_555 1_555
N4 C14 1_555 1_555
N6 C20 1_555 1_555
N8 C26 1_555 1_555
N10 C32 1_555 1_555
C7 C8 1_555 1_555
C13 C14 1_555 1_555
C19 C20 1_555 1_555
C25 C26 1_555 1_555
C31 C32 1_555 1_555
C39 C40 1_555 1_555

#END
