
#######################################################################
#
#                 Cambridge Crystallographic Data Centre
#                                CCDC 
#
#######################################################################
#
# If this CIF has been generated from an entry in the Cambridge 
# Structural Database, then it will include bibliographic, chemical, 
# crystal, experimental, refinement or atomic coordinate data resulting 
# from the CCDC's data processing and validation procedures.
#
#######################################################################

data_SARMIJ
_chemical_formula_moiety         'C39 H30 N10 O8,C1 H2 Cl2'
_chemical_name_systematic        
'P-Methyl 6-(((6-(((6-(((6-(((6-(((benzyloxy)carbonyl)amino)pyridin-2-yl)carbonyl)amino)pyridin-2-yl)carbonyl)amino)pyridin-2-yl)carbonyl)amino)pyridin-2-yl)carbonyl)amino)pyridine-2-carboxylate dichloromethane solvate'
_symmetry_cell_setting           orthorhombic
_symmetry_space_group_name_H-M   'P 21 21 21'
_symmetry_Int_Tables_number      19
_space_group_name_Hall           'P 2ac 2ab'
loop_
_symmetry_equiv_pos_site_id
_symmetry_equiv_pos_as_xyz
1 x,y,z
2 1/2-x,-y,1/2+z
3 -x,1/2+y,1/2-z
4 1/2+x,1/2-y,-z
_cell_length_a                   10.5003(13)
_cell_length_b                   13.6695(17)
_cell_length_c                   25.510(3)
_cell_angle_alpha                90
_cell_angle_beta                 90
_cell_angle_gamma                90
_cell_volume                     3661.55
_exptl_crystal_colour            colorless
_exptl_crystal_description       block
_cell_formula_units_Z            4
loop_
_atom_site_label
_atom_site_type_symbol
_atom_site_fract_x
_atom_site_fract_y
_atom_site_fract_z
C1 C 0.8362(10) 0.7093(17) 0.0475(7)
H1 H 0.8442 0.6373 0.0496
H2 H 0.8305 0.7360 0.0835
Cl1 Cl 0.7019(6) 0.7427(3) 0.01044(16)
Cl2 Cl 0.9686(6) 0.7612(2) 0.01332(15)
O1 O 0.7642(3) 0.79776(18) 0.24377(10)
O2 O 0.7622(3) 0.72822(19) 0.16417(12)
O3 O 0.8084(3) 1.15662(18) 0.02334(10)
O4 O 0.9316(3) 0.8222(2) -0.20792(10)
O5 O 0.9593(3) 0.35452(17) -0.04924(9)
O6 O 1.0483(3) 0.60778(17) 0.21137(9)
O7 O 1.1294(3) 1.11153(17) 0.09044(9)
O8 O 1.1658(3) 1.04216(16) 0.01152(9)
N1 N 0.7980(3) 0.9078(2) 0.11842(12)
N2 N 0.8303(3) 0.9944(2) 0.04308(12)
H3 H 0.834(4) 0.9370(19) 0.0280(15)
N3 N 0.8678(3) 0.9538(2) -0.05925(11)
N4 N 0.9105(3) 0.8323(2) -0.11852(11)
H4 H 0.911(4) 0.788(2) -0.0936(13)
N5 N 0.9557(3) 0.6423(2) -0.10814(11)
N6 N 0.9848(3) 0.5209(2) -0.04806(11)
H5 H 0.998(4) 0.575(2) -0.0297(14)
N7 N 1.0314(3) 0.52002(19) 0.05364(10)
N8 N 1.0776(3) 0.61934(19) 0.12264(11)
H6 H 1.093(4) 0.664(2) 0.0978(12)
N9 N 1.1179(3) 0.80993(19) 0.12896(10)
N10 N 1.1531(3) 0.9455(2) 0.07939(10)
H7 H 1.171(4) 0.900(2) 0.0567(13)
C2 C 0.7520(4) 0.7000(3) 0.26568(16)
H8 H 0.6691 0.6725 0.2559
H9 H 0.7585 0.7034 0.3040
H10 H 0.8201 0.6582 0.2519
C3 C 0.7688(3) 0.7996(3) 0.19150(15)
C4 C 0.7845(3) 0.9023(2) 0.17086(14)
C5 C 0.7886(3) 0.9828(3) 0.20368(14)
H11 H 0.7789 0.9760 0.2405
C6 C 0.8073(3) 1.0739(3) 0.18088(14)
H12 H 0.8106 1.1307 0.2022
C7 C 0.8210(3) 1.0820(2) 0.12764(15)
H13 H 0.8342 1.1439 0.1116
C8 C 0.8151(3) 0.9958(3) 0.09719(14)
C9 C 0.8266(3) 1.0728(2) 0.00971(14)
C10 C 0.8471(3) 1.0469(3) -0.04726(14)
C11 C 0.8459(3) 1.1233(2) -0.08396(14)
H14 H 0.8326 1.1893 -0.0737
C12 C 0.8649(3) 1.0981(3) -0.13544(15)
H15 H 0.8631 1.1474 -0.1617
C13 C 0.8865(3) 1.0017(3) -0.14963(14)
H16 H 0.9003 0.9838 -0.1852
C14 C 0.8873(3) 0.9316(3) -0.10946(14)
C15 C 0.9296(3) 0.7845(3) -0.16458(14)
C16 C 0.9499(3) 0.6758(3) -0.15741(13)
C17 C 0.9600(3) 0.6158(3) -0.20095(14)
H17 H 0.9584 0.6420 -0.2354
C18 C 0.9724(3) 0.5158(3) -0.19241(13)
H18 H 0.9779 0.4725 -0.2214
C19 C 0.9768(3) 0.4792(3) -0.14224(13)
H19 H 0.9833 0.4109 -0.1359
C20 C 0.9713(3) 0.5464(2) -0.10065(13)
C21 C 0.9803(3) 0.4301(2) -0.02579(13)
C22 C 1.0038(3) 0.4323(2) 0.03249(13)
C23 C 0.9958(3) 0.3463(2) 0.06155(14)
H20 H 0.9754 0.2856 0.0455
C24 C 1.0189(3) 0.3531(2) 0.11481(13)
H21 H 1.0155 0.2958 0.1359
C25 C 1.0467(3) 0.4419(2) 0.13775(13)
H22 H 1.0627 0.4471 0.1743
C26 C 1.0506(3) 0.5244(2) 0.10489(12)
C27 C 1.0711(3) 0.6558(2) 0.17248(12)
C28 C 1.0917(3) 0.7650(2) 0.17446(12)
C29 C 1.0773(3) 0.8147(2) 0.22166(12)
H23 H 1.0607 0.7809 0.2535
C30 C 1.0882(3) 0.9165(2) 0.22018(12)
H24 H 1.0779 0.9532 0.2515
C31 C 1.1137(3) 0.9642(2) 0.17400(12)
H25 H 1.1216 1.0334 0.1727
C32 C 1.1278(3) 0.9066(2) 0.12888(12)
C33 C 1.1478(3) 1.0408(2) 0.06351(12)
C34 C 1.1606(3) 1.1362(2) -0.01446(12)
H26 H 1.2303 1.1788 -0.0018
H27 H 1.0784 1.1688 -0.0071
C35 C 1.1747(3) 1.1177(2) -0.07229(12)
C36 C 1.1559(3) 1.1950(2) -0.10697(12)
H28 H 1.1343 1.2579 -0.0939
C37 C 1.1684(3) 1.1807(3) -0.16062(13)
H29 H 1.1557 1.2338 -0.1841
C38 C 1.1996(3) 1.0890(3) -0.17997(13)
H30 H 1.2081 1.0793 -0.2167
C39 C 1.2183(4) 1.0119(3) -0.14595(15)
H31 H 1.2401 0.9492 -0.1593
C40 C 1.2053(4) 1.0256(3) -0.09211(14)
H32 H 1.2174 0.9722 -0.0688
C41? C 0.6805(9) 0.7288(13) 0.0545(5)
Cl3? Cl 0.8328(5) 0.7168(3) 0.02839(18)
Cl4? Cl 0.5689(7) 0.7375(3) 0.00361(15)
H33? H 0.6763 0.7882 0.0767
H34? H 0.6607 0.6715 0.0768
loop_
_geom_bond_atom_site_label_1
_geom_bond_atom_site_label_2
_geom_bond_site_symmetry_1
_geom_bond_site_symmetry_2
C1 H1 1_555 1_555
H2 C1 1_555 1_555
Cl1 C1 1_555 1_555
Cl2 C1 1_555 1_555
O1 C2 1_555 1_555
O2 C3 1_555 1_555
O3 C9 1_555 1_555
O4 C15 1_555 1_555
O5 C21 1_555 1_555
O6 C27 1_555 1_555
O7 C33 1_555 1_555
O8 C33 1_555 1_555
N1 C4 1_555 1_555
N2 H3 1_555 1_555
N3 C10 1_555 1_555
N4 H4 1_555 1_555
N5 C16 1_555 1_555
N6 H5 1_555 1_555
N7 C22 1_555 1_555
N8 H6 1_555 1_555
N9 C28 1_555 1_555
N10 H7 1_555 1_555
C2 H8 1_555 1_555
H9 C2 1_555 1_555
H10 C2 1_555 1_555
C3 O1 1_555 1_555
C4 C3 1_555 1_555
C5 C4 1_555 1_555
H11 C5 1_555 1_555
C6 C5 1_555 1_555
H12 C6 1_555 1_555
C7 C6 1_555 1_555
H13 C7 1_555 1_555
C8 N1 1_555 1_555
C9 N2 1_555 1_555
C10 C9 1_555 1_555
C11 C10 1_555 1_555
H14 C11 1_555 1_555
C12 C11 1_555 1_555
H15 C12 1_555 1_555
C13 C12 1_555 1_555
H16 C13 1_555 1_555
C14 N3 1_555 1_555
C15 N4 1_555 1_555
C16 C15 1_555 1_555
C17 C16 1_555 1_555
H17 C17 1_555 1_555
C18 C17 1_555 1_555
H18 C18 1_555 1_555
C19 C18 1_555 1_555
H19 C19 1_555 1_555
C20 N5 1_555 1_555
C21 N6 1_555 1_555
C22 C21 1_555 1_555
C23 C22 1_555 1_555
H20 C23 1_555 1_555
C24 C23 1_555 1_555
H21 C24 1_555 1_555
C25 C24 1_555 1_555
H22 C25 1_555 1_555
C26 N7 1_555 1_555
C27 N8 1_555 1_555
C28 C27 1_555 1_555
C29 C28 1_555 1_555
H23 C29 1_555 1_555
C30 C29 1_555 1_555
H24 C30 1_555 1_555
C31 C30 1_555 1_555
H25 C31 1_555 1_555
C32 N9 1_555 1_555
C33 N10 1_555 1_555
C34 O8 1_555 1_555
H26 C34 1_555 1_555
H27 C34 1_555 1_555
C35 C34 1_555 1_555
C36 C35 1_555 1_555
H28 C36 1_555 1_555
C37 C36 1_555 1_555
H29 C37 1_555 1_555
C38 C37 1_555 1_555
H30 C38 1_555 1_555
C39 C38 1_555 1_555
H31 C39 1_555 1_555
C40 C35 1_555 1_555
H32 C40 1_555 1_555
N2 C8 1_555 1_555
N4 C14 1_555 1_555
N6 C20 1_555 1_555
N8 C26 1_555 1_555
N10 C32 1_555 1_555
C7 C8 1_555 1_555
C13 C14 1_555 1_555
C19 C20 1_555 1_555
C25 C26 1_555 1_555
C31 C32 1_555 1_555
C39 C40 1_555 1_555

#END
