
#######################################################################
#
#                 Cambridge Crystallographic Data Centre
#                                CCDC 
#
#######################################################################
#
# If this CIF has been generated from an entry in the Cambridge 
# Structural Database, then it will include bibliographic, chemical, 
# crystal, experimental, refinement or atomic coordinate data resulting 
# from the CCDC's data processing and validation procedures.
#
#######################################################################

data_SARPUY
_chemical_formula_moiety         'C16 H18 O2 S2'
_chemical_name_systematic        
2-(1,3-Dithian-2-yl)-7-phenyl-3-oxabicyclo[3.1.1]heptan-6-one
_symmetry_cell_setting           monoclinic
_symmetry_space_group_name_H-M   'P 21/c'
_symmetry_Int_Tables_number      14
_space_group_name_Hall           '-P 2ybc'
loop_
_symmetry_equiv_pos_site_id
_symmetry_equiv_pos_as_xyz
1 x,y,z
2 -x,1/2+y,1/2-z
3 -x,-y,-z
4 x,1/2-y,1/2+z
_cell_length_a                   7.089(2)
_cell_length_b                   15.631(5)
_cell_length_c                   13.579(4)
_cell_angle_alpha                90
_cell_angle_beta                 92.518(3)
_cell_angle_gamma                90
_cell_volume                     1503.21
_exptl_crystal_colour            colorless
_exptl_crystal_description       block
_cell_formula_units_Z            4
loop_
_atom_site_label
_atom_site_type_symbol
_atom_site_fract_x
_atom_site_fract_y
_atom_site_fract_z
C1 C 0.6236(3) 0.53642(13) 0.31549(16)
H1 H 0.6351 0.5225 0.3821
C2 C 0.7428(3) 0.59677(15) 0.27767(18)
H2 H 0.8337 0.6230 0.3189
C3 C 0.7280(3) 0.61826(15) 0.18001(19)
H3 H 0.8076 0.6593 0.1548
C4 C 0.5938(4) 0.57841(18) 0.1191(2)
H4 H 0.5846 0.5918 0.0524
C5 C 0.4727(3) 0.51844(16) 0.15729(17)
H5 H 0.3807 0.4929 0.1161
C6 C 0.4870(2) 0.49620(12) 0.25562(14)
C7 C 0.3557(2) 0.42900(11) 0.29378(13)
H6 H 0.3618 0.3748 0.2579
C8 C 0.3570(3) 0.41681(12) 0.40754(13)
H7 H 0.4770 0.4264 0.4444
C9 C 0.2147(3) 0.48887(12) 0.40622(14)
C10 C 0.1484(2) 0.46254(11) 0.30268(13)
H8 H 0.1067 0.5084 0.2575
C11 C 0.0124(2) 0.38604(11) 0.31385(13)
H9 H -0.0815 0.4018 0.3615
C12 C 0.2502(3) 0.33395(12) 0.42907(15)
H10 H 0.3397 0.2873 0.4373
H11 H 0.1858 0.3403 0.4902
C13 C -0.0914(2) 0.36041(12) 0.21786(13)
H12 H -0.1760 0.4078 0.1990
C14 C -0.1204(3) 0.33324(16) 0.02039(16)
H13 H -0.1941 0.3855 0.0172
H14 H -0.0615 0.3266 -0.0423
C15 C -0.2516(3) 0.25875(16) 0.03464(18)
H15 H -0.3343 0.2529 -0.0238
H16 H -0.1771 0.2068 0.0411
C16 C -0.3709(3) 0.26692(16) 0.12316(17)
H17 H -0.4592 0.2195 0.1231
H18 H -0.4440 0.3193 0.1170
O1 O 0.1801(2) 0.54673(10) 0.46020(11)
O2 O 0.11568(18) 0.31375(8) 0.35141(10)
S1 S 0.06282(7) 0.34397(4) 0.11688(4)
S2 S -0.23871(8) 0.26831(4) 0.24001(4)
loop_
_geom_bond_atom_site_label_1
_geom_bond_atom_site_label_2
_geom_bond_site_symmetry_1
_geom_bond_site_symmetry_2
C1 H1 1_555 1_555
C2 C1 1_555 1_555
H2 C2 1_555 1_555
C3 C2 1_555 1_555
H3 C3 1_555 1_555
C4 C3 1_555 1_555
H4 C4 1_555 1_555
C5 C4 1_555 1_555
H5 C5 1_555 1_555
C6 C1 1_555 1_555
C7 C6 1_555 1_555
H6 C7 1_555 1_555
C8 C7 1_555 1_555
H7 C8 1_555 1_555
C9 C8 1_555 1_555
C10 C7 1_555 1_555
H8 C10 1_555 1_555
C11 C10 1_555 1_555
H9 C11 1_555 1_555
C12 C8 1_555 1_555
H10 C12 1_555 1_555
H11 C12 1_555 1_555
C13 C11 1_555 1_555
H12 C13 1_555 1_555
C14 H13 1_555 1_555
H14 C14 1_555 1_555
C15 C14 1_555 1_555
H15 C15 1_555 1_555
H16 C15 1_555 1_555
C16 C15 1_555 1_555
H17 C16 1_555 1_555
H18 C16 1_555 1_555
O1 C9 1_555 1_555
O2 C11 1_555 1_555
S1 C13 1_555 1_555
S2 C13 1_555 1_555
C5 C6 1_555 1_555
C9 C10 1_555 1_555
C12 O2 1_555 1_555
C14 S1 1_555 1_555
C16 S2 1_555 1_555

#END
