
#######################################################################
#
#                 Cambridge Crystallographic Data Centre
#                                CCDC 
#
#######################################################################
#
# If this CIF has been generated from an entry in the Cambridge 
# Structural Database, then it will include bibliographic, chemical, 
# crystal, experimental, refinement or atomic coordinate data resulting 
# from the CCDC's data processing and validation procedures.
#
#######################################################################

data_SARPOS
_chemical_formula_moiety         'C13 H14 O3'
_chemical_name_systematic        7-(Benzyloxy)-3-oxabicyclo[3.1.1]heptan-6-one
_symmetry_cell_setting           triclinic
_symmetry_space_group_name_H-M   'P -1'
_symmetry_Int_Tables_number      2
_space_group_name_Hall           '-P 1'
loop_
_symmetry_equiv_pos_site_id
_symmetry_equiv_pos_as_xyz
1 x,y,z
2 -x,-y,-z
_cell_length_a                   9.013(16)
_cell_length_b                   9.018(15)
_cell_length_c                   28.90(5)
_cell_angle_alpha                87.731(19)
_cell_angle_beta                 87.947(19)
_cell_angle_gamma                89.841(19)
_cell_volume                     2345.62
_exptl_crystal_colour            colorless
_exptl_crystal_description       block
_cell_formula_units_Z            8
loop_
_atom_site_label
_atom_site_type_symbol
_atom_site_fract_x
_atom_site_fract_y
_atom_site_fract_z
C1 C 0.4852(9) 0.3652(9) 0.0737(3)
C2 C 0.6112(9) 0.3373(9) 0.0373(3)
H1 H 0.6706 0.4231 0.0261
C3 C 0.5470(9) 0.2389(10) 0.0005(3)
H2 H 0.5186 0.3005 -0.0260
H3 H 0.6223 0.1695 -0.0100
C4 C 0.4416(11) 0.0973(11) 0.0643(3)
H4 H 0.5048 0.0103 0.0625
H5 H 0.3464 0.0665 0.0782
C5 C 0.5143(9) 0.2136(9) 0.0954(3)
H6 H 0.4996 0.2004 0.1290
C6 C 0.6763(8) 0.2364(9) 0.0755(3)
H7 H 0.7243 0.1462 0.0644
C7 C 0.8303(14) 0.2376(11) 0.1402(4)
H8 H 0.8911 0.1588 0.1276
H9 H 0.7522 0.1929 0.1601
C8 C 0.9239(10) 0.3381(9) 0.1676(3)
C9 C 0.8609(10) 0.4228(11) 0.2023(4)
H10 H 0.7593 0.4161 0.2087
C10 C 0.9424(16) 0.5143(12) 0.2269(4)
H11 H 0.8962 0.5673 0.2504
C11 C 1.0898(16) 0.5308(14) 0.2182(4)
H12 H 1.1454 0.5952 0.2350
C12 C 1.1547(12) 0.4497(14) 0.1840(4)
H13 H 1.2558 0.4599 0.1771
C13 C 1.0715(10) 0.3522(11) 0.1594(3)
H14 H 1.1183 0.2959 0.1369
O1 O 0.4096(8) 0.4705(8) 0.0827(3)
O2 O 0.4212(7) 0.1593(7) 0.0191(2)
O3 O 0.7670(6) 0.3243(6) 0.1035(2)
C14 C 0.6307(9) 0.0023(9) 0.4268(3)
C15 C 0.7850(8) 0.0357(9) 0.4059(3)
H15 H 0.7983 0.0307 0.3722
C16 C 0.8966(10) -0.0477(11) 0.4352(3)
H16 H 0.9214 -0.1410 0.4213
H17 H 0.9869 0.0103 0.4361
C17 C 0.7577(10) 0.0465(10) 0.5001(3)
H18 H 0.8266 0.1191 0.5107
H19 H 0.6959 0.0117 0.5264
C18 C 0.6610(9) 0.1187(8) 0.4635(3)
H20 H 0.5760 0.1771 0.4746
C19 C 0.7612(8) 0.1902(8) 0.4256(3)
H21 H 0.8516 0.2343 0.4369
C20 C 0.7621(10) 0.3609(12) 0.3611(4)
H22 H 0.8074 0.2866 0.3417
H23 H 0.8406 0.4190 0.3736
C21 C 0.6644(9) 0.4587(10) 0.3332(3)
C22 C 0.5731(11) 0.4043(13) 0.2995(4)
H24 H 0.5740 0.3032 0.2944
C23 C 0.4847(12) 0.493(2) 0.2745(4)
H25 H 0.4297 0.4549 0.2511
C24 C 0.4761(16) 0.6453(19) 0.2840(5)
H26 H 0.4109 0.7072 0.2682
C25 C 0.5646(15) 0.7017(13) 0.3170(5)
H27 H 0.5616 0.8025 0.3227
C26 C 0.6568(11) 0.6093(11) 0.3413(3)
H28 H 0.7155 0.6481 0.3637
O4 O 0.5276(8) -0.0676(8) 0.4172(3)
O5 O 0.8391(7) -0.0761(7) 0.4814(2)
O6 O 0.6752(6) 0.2900(6) 0.3981(2)
C27 C 0.8685(9) 0.4833(9) 0.5728(3)
C28 C 0.8377(9) 0.6077(9) 0.5380(3)
H29 H 0.9220 0.6690 0.5267
C29 C 0.7379(10) 0.5446(10) 0.5015(3)
H30 H 0.6690 0.6208 0.4912
H31 H 0.7989 0.5169 0.4749
C30 C 0.6002(10) 0.4342(11) 0.5655(3)
H32 H 0.5747 0.3370 0.5790
H33 H 0.5105 0.4940 0.5652
C31 C 0.7163(9) 0.5080(9) 0.5953(3)
H34 H 0.7061 0.4912 0.6290
C32 C 0.7389(8) 0.6677(8) 0.5770(3)
H35 H 0.6480 0.7161 0.5664
C33 C 0.7450(11) 0.8143(14) 0.6440(4)
H36 H 0.7124 0.7327 0.6647
H37 H 0.6581 0.8681 0.6338
C34 C 0.8439(9) 0.9154(10) 0.6688(3)
C35 C 0.8512(10) 1.0636(10) 0.6598(3)
H38 H 0.7913 1.1059 0.6373
C36 C 0.9426(14) 1.1530(12) 0.6824(4)
H39 H 0.9423 1.2549 0.6761
C37 C 1.0386(14) 1.0904(15) 0.7159(4)
H40 H 1.1051 1.1491 0.7308
C38 C 1.0301(12) 0.9431(13) 0.7252(4)
H41 H 1.0899 0.9008 0.7477
C39 C 0.9385(11) 0.8553(10) 0.7031(4)
H42 H 0.9367 0.7540 0.7104
O7 O 0.9738(8) 0.4073(8) 0.5814(3)
O8 O 0.6572(7) 0.4193(7) 0.5191(2)
O9 O 0.8274(6) 0.7582(6) 0.6046(2)
C40 C 0.0002(9) 0.1328(9) 0.9279(3)
C41 C 0.0312(9) 0.2860(8) 0.9056(3)
H43 H 0.0234 0.2977 0.8719
C42 C -0.0506(10) 0.3995(10) 0.9356(3)
H44 H 0.0084 0.4890 0.9364
H45 H -0.1446 0.4255 0.9221
C43 C 0.0485(10) 0.2608(10) 0.9998(3)
H46 H 0.0163 0.2002 1.0267
H47 H 0.1217 0.3310 1.0094
C44 C 0.1180(9) 0.1626(9) 0.9633(3)
H48 H 0.1765 0.0774 0.9744
C45 C 0.1888(9) 0.2625(9) 0.9249(3)
H49 H 0.2342 0.3528 0.9358
C46 C 0.3518(13) 0.2622(10) 0.8594(4)
H50 H 0.4069 0.3440 0.8712
H51 H 0.2764 0.3024 0.8393
C47 C 0.4543(9) 0.1616(9) 0.8332(3)
C48 C 0.6043(10) 0.1574(11) 0.8405(4)
H52 H 0.6441 0.2200 0.8616
C49 C 0.6963(14) 0.0621(19) 0.8169(6)
H53 H 0.7966 0.0535 0.8231
C50 C 0.633(3) -0.020(2) 0.7838(6)
H54 H 0.6952 -0.0769 0.7654
C51 C 0.488(3) -0.0237(16) 0.7762(5)
H55 H 0.4491 -0.0885 0.7555
C52 C 0.3989(12) 0.0732(12) 0.8003(4)
H56 H 0.2984 0.0787 0.7942
O10 O -0.0720(8) 0.0299(8) 0.9185(3)
O11 O -0.0766(7) 0.3400(7) 0.9814(2)
O12 O 0.2847(6) 0.1760(6) 0.8968(2)
loop_
_geom_bond_atom_site_label_1
_geom_bond_atom_site_label_2
_geom_bond_site_symmetry_1
_geom_bond_site_symmetry_2
C1 C2 1_555 1_555
C2 H1 1_555 1_555
C3 C2 1_555 1_555
H2 C3 1_555 1_555
H3 C3 1_555 1_555
C4 H4 1_555 1_555
H5 C4 1_555 1_555
C5 C1 1_555 1_555
H6 C5 1_555 1_555
C6 C2 1_555 1_555
H7 C6 1_555 1_555
C7 H8 1_555 1_555
H9 C7 1_555 1_555
C8 C7 1_555 1_555
C9 C8 1_555 1_555
H10 C9 1_555 1_555
C10 C9 1_555 1_555
H11 C10 1_555 1_555
C11 C10 1_555 1_555
H12 C11 1_555 1_555
C12 C11 1_555 1_555
H13 C12 1_555 1_555
C13 C8 1_555 1_555
H14 C13 1_555 1_555
C14 C15 1_555 1_555
C15 H15 1_555 1_555
C16 C15 1_555 1_555
H16 C16 1_555 1_555
H17 C16 1_555 1_555
C17 H18 1_555 1_555
H19 C17 1_555 1_555
C18 C14 1_555 1_555
H20 C18 1_555 1_555
C19 C15 1_555 1_555
H21 C19 1_555 1_555
C20 H22 1_555 1_555
H23 C20 1_555 1_555
C21 C20 1_555 1_555
C22 C21 1_555 1_555
H24 C22 1_555 1_555
C23 C22 1_555 1_555
H25 C23 1_555 1_555
C24 C23 1_555 1_555
H26 C24 1_555 1_555
C25 C24 1_555 1_555
H27 C25 1_555 1_555
C26 C21 1_555 1_555
H28 C26 1_555 1_555
C27 C28 1_555 1_555
C28 H29 1_555 1_555
C29 C28 1_555 1_555
H30 C29 1_555 1_555
H31 C29 1_555 1_555
C30 H32 1_555 1_555
H33 C30 1_555 1_555
C31 C27 1_555 1_555
H34 C31 1_555 1_555
C32 C28 1_555 1_555
H35 C32 1_555 1_555
C33 H36 1_555 1_555
H37 C33 1_555 1_555
C34 C33 1_555 1_555
C35 C34 1_555 1_555
H38 C35 1_555 1_555
C36 C35 1_555 1_555
H39 C36 1_555 1_555
C37 C36 1_555 1_555
H40 C37 1_555 1_555
C38 C37 1_555 1_555
H41 C38 1_555 1_555
C39 C34 1_555 1_555
H42 C39 1_555 1_555
C40 C41 1_555 1_555
C41 H43 1_555 1_555
C42 C41 1_555 1_555
H44 C42 1_555 1_555
H45 C42 1_555 1_555
C43 H46 1_555 1_555
H47 C43 1_555 1_555
C44 C40 1_555 1_555
H48 C44 1_555 1_555
C45 C41 1_555 1_555
H49 C45 1_555 1_555
C46 H50 1_555 1_555
H51 C46 1_555 1_555
C47 C46 1_555 1_555
C48 C47 1_555 1_555
H52 C48 1_555 1_555
C49 C48 1_555 1_555
H53 C49 1_555 1_555
C50 C49 1_555 1_555
H54 C50 1_555 1_555
C51 C50 1_555 1_555
H55 C51 1_555 1_555
C52 C47 1_555 1_555
H56 C52 1_555 1_555
O1 C1 1_555 1_555
O2 C3 1_555 1_555
O3 C6 1_555 1_555
O4 C14 1_555 1_555
O5 C16 1_555 1_555
O6 C19 1_555 1_555
O7 C27 1_555 1_555
O8 C29 1_555 1_555
O9 C32 1_555 1_555
O10 C40 1_555 1_555
O11 C42 1_555 1_555
O12 C45 1_555 1_555
C4 C5 1_555 1_555
C4 O2 1_555 1_555
C5 C6 1_555 1_555
C7 O3 1_555 1_555
C12 C13 1_555 1_555
C17 C18 1_555 1_555
C17 O5 1_555 1_555
C18 C19 1_555 1_555
C20 O6 1_555 1_555
C25 C26 1_555 1_555
C30 C31 1_555 1_555
C30 O8 1_555 1_555
C31 C32 1_555 1_555
C33 O9 1_555 1_555
C38 C39 1_555 1_555
C43 C44 1_555 1_555
C43 O11 1_555 1_555
C44 C45 1_555 1_555
C46 O12 1_555 1_555
C51 C52 1_555 1_555

#END
