
#######################################################################
#
#                 Cambridge Crystallographic Data Centre
#                                CCDC 
#
#######################################################################
#
# If this CIF has been generated from an entry in the Cambridge 
# Structural Database, then it will include bibliographic, chemical, 
# crystal, experimental, refinement or atomic coordinate data resulting 
# from the CCDC's data processing and validation procedures.
#
#######################################################################

data_SARPIM
_chemical_formula_moiety         'C12 H12 O3'
_chemical_name_systematic        7-Phenoxy-3-oxabicyclo[3.1.1]heptan-6-one
_symmetry_cell_setting           monoclinic
_symmetry_space_group_name_H-M   'P 21/c'
_symmetry_Int_Tables_number      14
_space_group_name_Hall           '-P 2ybc'
loop_
_symmetry_equiv_pos_site_id
_symmetry_equiv_pos_as_xyz
1 x,y,z
2 -x,1/2+y,1/2-z
3 -x,-y,-z
4 x,1/2-y,1/2+z
_cell_length_a                   11.846(3)
_cell_length_b                   6.8888(16)
_cell_length_c                   12.417(3)
_cell_angle_alpha                90
_cell_angle_beta                 99.999(2)
_cell_angle_gamma                90
_cell_volume                     997.895
_exptl_crystal_colour            colorless
_exptl_crystal_description       block
_cell_formula_units_Z            4
loop_
_atom_site_label
_atom_site_type_symbol
_atom_site_fract_x
_atom_site_fract_y
_atom_site_fract_z
C1 C 0.13658(15) 0.5077(2) 0.41745(14)
H1 H 0.1318 0.6070 0.4719
H2 H 0.1661 0.5678 0.3574
C2 C 0.21926(14) 0.3489(2) 0.46791(13)
H3 H 0.2887 0.3899 0.5175
C3 C 0.23370(12) 0.2037(2) 0.37787(12)
H4 H 0.2358 0.2612 0.3060
C4 C 0.11720(12) 0.1162(2) 0.39182(12)
H5 H 0.1076 -0.0244 0.3820
C5 C 0.02248(13) 0.2462(2) 0.33089(13)
H6 H 0.0319 0.2580 0.2551
H7 H -0.0515 0.1868 0.3323
C6 C 0.14640(13) 0.1918(2) 0.50852(12)
C7 C 0.34270(12) -0.0806(2) 0.35499(12)
C8 C 0.28753(14) -0.1074(2) 0.24838(13)
H8 H 0.2342 -0.0172 0.2151
C9 C 0.31285(16) -0.2702(3) 0.19201(15)
H9 H 0.2764 -0.2889 0.1202
C10 C 0.39130(17) -0.4051(3) 0.24080(19)
H10 H 0.4079 -0.5139 0.2021
C11 C 0.44482(16) -0.3778(3) 0.34722(19)
H11 H 0.4975 -0.4690 0.3805
C12 C 0.42105(14) -0.2164(3) 0.40502(15)
H12 H 0.4573 -0.1988 0.4770
O1 O 0.02500(11) 0.43291(17) 0.37836(10)
O2 O 0.12905(13) 0.1401(2) 0.59589(10)
O3 O 0.32693(9) 0.07822(17) 0.41814(9)
loop_
_geom_bond_atom_site_label_1
_geom_bond_atom_site_label_2
_geom_bond_site_symmetry_1
_geom_bond_site_symmetry_2
C1 H1 1_555 1_555
H2 C1 1_555 1_555
C2 C1 1_555 1_555
H3 C2 1_555 1_555
C3 C2 1_555 1_555
H4 C3 1_555 1_555
C4 C3 1_555 1_555
H5 C4 1_555 1_555
C5 C4 1_555 1_555
H6 C5 1_555 1_555
H7 C5 1_555 1_555
C6 C2 1_555 1_555
C7 C8 1_555 1_555
C8 H8 1_555 1_555
C9 C8 1_555 1_555
H9 C9 1_555 1_555
C10 C9 1_555 1_555
H10 C10 1_555 1_555
C11 C10 1_555 1_555
H11 C11 1_555 1_555
C12 C7 1_555 1_555
H12 C12 1_555 1_555
O1 C1 1_555 1_555
O2 C6 1_555 1_555
O3 C3 1_555 1_555
C4 C6 1_555 1_555
C5 O1 1_555 1_555
C7 O3 1_555 1_555
C11 C12 1_555 1_555

#END
