
#######################################################################
#
#                 Cambridge Crystallographic Data Centre
#                                CCDC 
#
#######################################################################
#
# If this CIF has been generated from an entry in the Cambridge 
# Structural Database, then it will include bibliographic, chemical, 
# crystal, experimental, refinement or atomic coordinate data resulting 
# from the CCDC's data processing and validation procedures.
#
#######################################################################

data_SARQUA
_chemical_compound_source        'Aspergillus iizukae'
_chemical_name_common            
'methyl 3, 5-dichloroasterric acid methanol solvate'
_chemical_formula_moiety         'C18 H16 Cl2 O8,C1 H4 O1'
_chemical_name_systematic        
'methyl 3,5-dichloro-2-hydroxy-6-(4-hydroxy-2-methoxy-6-(methoxycarbonyl)phenoxy)-4-methylbenzoate methanol solvate'
_symmetry_cell_setting           monoclinic
_symmetry_space_group_name_H-M   'P 21/n'
_symmetry_Int_Tables_number      14
_space_group_name_Hall           '-P 2yn'
loop_
_symmetry_equiv_pos_site_id
_symmetry_equiv_pos_as_xyz
1 x,y,z
2 1/2-x,1/2+y,1/2-z
3 -x,-y,-z
4 1/2+x,1/2-y,1/2+z
_cell_length_a                   11.156(5)
_cell_length_b                   15.368(5)
_cell_length_c                   12.130(5)
_cell_angle_alpha                90
_cell_angle_beta                 94.784(5)
_cell_angle_gamma                90
_cell_volume                     2072.39
_exptl_crystal_colour            colorless
_exptl_crystal_description       blocks
_cell_formula_units_Z            4
loop_
_atom_site_label
_atom_site_type_symbol
_atom_site_fract_x
_atom_site_fract_y
_atom_site_fract_z
Cl1 Cl 0.62344(5) 0.27160(4) 0.31407(5)
Cl2 Cl 0.53052(6) 0.04707(5) 0.63877(5)
O1 O 0.86548(11) 0.22409(8) 0.36618(10)
O2 O 0.78289(12) 0.08173(9) 0.24732(12)
O3 O 1.13345(13) 0.08033(10) 0.04864(12)
H1 H 1.1990 0.1043 0.0471
O4 O 1.03836(12) 0.15745(12) 0.50630(13)
O5 O 1.20954(13) 0.30899(10) 0.33067(13)
O6 O 1.03446(16) 0.34745(10) 0.39027(15)
O7 O 0.78149(18) 0.01818(12) 0.65395(15)
H2 H 0.8550 0.0146 0.6625
C1 C 0.93409(15) 0.18517(11) 0.28993(14)
C2 C 0.67084(17) 0.19752(12) 0.41606(16)
O8 O 0.99724(18) 0.04973(15) 0.61655(19)
C3 C 0.89272(16) 0.11324(12) 0.22648(15)
C4 C 1.11357(16) 0.18783(12) 0.19068(15)
H3 H 1.1874 0.2126 0.1785
C5 C 0.83535(17) 0.12022(12) 0.51444(16)
C6 C 0.7503(2) 0.07790(13) 0.57589(17)
C7 C 1.04458(16) 0.22278(11) 0.27139(14)
C8 C 0.79227(15) 0.17790(11) 0.43055(14)
C9 C 0.74420(19) 0.00240(14) 0.1963(2)
H4 H 0.7307 0.0109 0.1178
H5 H 0.6708 -0.0161 0.2251
H6 H 0.8049 -0.0413 0.2113
C10 C 0.96219(16) 0.07916(12) 0.14732(15)
H7 H 0.9352 0.0309 0.1061
C11 C 0.58693(17) 0.15900(14) 0.47968(18)
C12 C 0.9640(2) 0.10514(15) 0.54900(18)
C13 C 1.07221(17) 0.11692(12) 0.12934(15)
C14 C 1.2647(2) 0.38147(17) 0.3915(2)
H8 H 1.2220 0.4340 0.3707
H9 H 1.3470 0.3869 0.3747
H10 H 1.2618 0.3717 0.4694
C15 C 0.62934(19) 0.09870(14) 0.55693(17)
C16 C 1.1660(2) 0.1455(2) 0.5363(2)
H11 H 1.2097 0.1543 0.4724
H12 H 1.1801 0.0876 0.5640
H13 H 1.1926 0.1868 0.5925
C17 C 1.09166(18) 0.29916(13) 0.33757(16)
C18 C 0.4558(2) 0.1822(2) 0.4640(3)
H14 H 0.4333 0.2132 0.5278
H15 H 0.4088 0.1301 0.4545
H16 H 0.4416 0.2183 0.3996
O9 O 0.85778(14) 0.36139(13) 0.54052(15)
H17 H 0.8931 0.3511 0.4853
C19 C 0.9382(3) 0.3915(3) 0.6232(3)
H18 H 0.9784 0.4420 0.5979
H19 H 0.9964 0.3470 0.6434
H20 H 0.8962 0.4066 0.6865
loop_
_geom_bond_atom_site_label_1
_geom_bond_atom_site_label_2
_geom_bond_site_symmetry_1
_geom_bond_site_symmetry_2
Cl1 C2 1_555 1_555
Cl2 C15 1_555 1_555
O1 C1 1_555 1_555
O2 C3 1_555 1_555
O3 H1 1_555 1_555
O4 C12 1_555 1_555
O5 C14 1_555 1_555
O6 C17 1_555 1_555
O7 H2 1_555 1_555
C1 C3 1_555 1_555
C2 C8 1_555 1_555
O8 C12 1_555 1_555
C3 C10 1_555 1_555
C4 H3 1_555 1_555
C5 C6 1_555 1_555
C6 O7 1_555 1_555
C7 C1 1_555 1_555
C8 O1 1_555 1_555
C9 O2 1_555 1_555
H4 C9 1_555 1_555
H5 C9 1_555 1_555
H6 C9 1_555 1_555
C10 H7 1_555 1_555
C11 C2 1_555 1_555
C12 C5 1_555 1_555
C13 O3 1_555 1_555
C14 H8 1_555 1_555
H9 C14 1_555 1_555
H10 C14 1_555 1_555
C15 C6 1_555 1_555
C16 O4 1_555 1_555
H11 C16 1_555 1_555
H12 C16 1_555 1_555
H13 C16 1_555 1_555
C17 O5 1_555 1_555
C18 C11 1_555 1_555
H14 C18 1_555 1_555
H15 C18 1_555 1_555
H16 C18 1_555 1_555
O9 H17 1_555 1_555
C19 O9 1_555 1_555
H18 C19 1_555 1_555
H19 C19 1_555 1_555
H20 C19 1_555 1_555
C4 C7 1_555 1_555
C4 C13 1_555 1_555
C5 C8 1_555 1_555
C7 C17 1_555 1_555
C10 C13 1_555 1_555
C11 C15 1_555 1_555

#END
