
#######################################################################
#
#                 Cambridge Crystallographic Data Centre
#                                CCDC 
#
#######################################################################
#
# If this CIF has been generated from an entry in the Cambridge 
# Structural Database, then it will include bibliographic, chemical, 
# crystal, experimental, refinement or atomic coordinate data resulting 
# from the CCDC's data processing and validation procedures.
#
#######################################################################

data_SARRAH
_chemical_formula_moiety         'C17 H15 Cl1 O8'
_chemical_name_systematic        
'3-chloro-2-hydroxy-6-(4-hydroxy-2-methoxy-6-(methoxycarbonyl)phenoxy)-4-methylbenzoic acid'
_symmetry_cell_setting           triclinic
_symmetry_space_group_name_H-M   'P -1'
_symmetry_Int_Tables_number      2
_space_group_name_Hall           '-P 1'
loop_
_symmetry_equiv_pos_site_id
_symmetry_equiv_pos_as_xyz
1 x,y,z
2 -x,-y,-z
_cell_length_a                   8.4443(8)
_cell_length_b                   9.1059(11)
_cell_length_c                   12.1018(10)
_cell_angle_alpha                72.292(9)
_cell_angle_beta                 82.629(7)
_cell_angle_gamma                67.918(10)
_cell_volume                     821.326
_exptl_crystal_colour            colorless
_exptl_crystal_description       blocks
_cell_formula_units_Z            2
loop_
_atom_site_label
_atom_site_type_symbol
_atom_site_fract_x
_atom_site_fract_y
_atom_site_fract_z
Cl1 Cl 0.46146(10) 0.26650(10) -0.15783(6)
O1 O 0.6571(3) -0.2780(3) 0.58041(19)
O2 O 0.7669(3) -0.0198(2) -0.11705(15)
H1 H 0.8546 -0.1016 -0.1032
O3 O 0.7593(3) 0.1879(3) 0.65103(16)
H2 H 0.7353 0.1263 0.7102
O4 O 0.8518(3) -0.0494(2) 0.27144(15)
O5 O 1.0013(3) -0.2569(3) 0.00566(17)
O6 O 1.0365(4) -0.2861(3) 0.1864(2)
H3 H 0.9860 -0.2451 0.2385
C1 C 0.7176(3) 0.0360(3) -0.0220(2)
C2 C 0.8111(3) -0.0440(3) 0.0815(2)
C3 C 0.8253(4) 0.2121(3) 0.4556(2)
H4 H 0.8474 0.3063 0.4512
O7 O 0.9091(3) 0.2233(3) 0.25468(16)
C4 C 0.7299(4) -0.0086(3) 0.5671(2)
H5 H 0.6882 -0.0611 0.6366
C5 C 0.7519(3) 0.0275(3) 0.1742(2)
C6 C 0.8484(4) 0.1547(3) 0.3585(2)
C7 C 0.7531(4) -0.0683(3) 0.4696(2)
C8 C 0.5713(3) 0.1749(3) -0.0284(2)
C9 C 0.7688(4) 0.1274(3) 0.5592(2)
C10 C 0.6058(4) 0.1624(3) 0.1673(2)
H6 H 0.5688 0.2036 0.2312
C11 C 0.7284(4) -0.2253(4) 0.4808(3)
C12 C 0.5112(4) 0.2395(3) 0.0658(2)
C13 C 0.9369(5) 0.3731(4) 0.2399(3)
H7 H 0.9635 0.4164 0.1600
H8 H 1.0303 0.3520 0.2872
H9 H 0.8355 0.4519 0.2627
C14 C 0.8113(4) 0.0149(3) 0.3667(2)
C15 C 0.9553(4) -0.2003(3) 0.0886(2)
C16 C 0.3504(4) 0.3864(4) 0.0598(3)
H10 H 0.3602 0.4779 -0.0024
H11 H 0.3324 0.4147 0.1317
H12 H 0.2554 0.3609 0.0461
C17 C 0.6411(6) -0.4369(4) 0.6037(3)
H13 H 0.5802 -0.4369 0.5419
H14 H 0.5797 -0.4587 0.6756
H15 H 0.7528 -0.5208 0.6091
O8 O 0.7726(6) -0.3015(4) 0.4106(3)
loop_
_geom_bond_atom_site_label_1
_geom_bond_atom_site_label_2
_geom_bond_site_symmetry_1
_geom_bond_site_symmetry_2
Cl1 C8 1_555 1_555
O1 C11 1_555 1_555
O2 H1 1_555 1_555
O3 H2 1_555 1_555
O4 C5 1_555 1_555
O5 C15 1_555 1_555
O6 H3 1_555 1_555
C1 O2 1_555 1_555
C2 C1 1_555 1_555
C3 H4 1_555 1_555
O7 C6 1_555 1_555
C4 H5 1_555 1_555
C5 C2 1_555 1_555
C6 C3 1_555 1_555
C7 C4 1_555 1_555
C8 C1 1_555 1_555
C9 O3 1_555 1_555
C10 C5 1_555 1_555
H6 C10 1_555 1_555
C11 C7 1_555 1_555
C12 C8 1_555 1_555
C13 O7 1_555 1_555
H7 C13 1_555 1_555
H8 C13 1_555 1_555
H9 C13 1_555 1_555
C14 O4 1_555 1_555
C15 O6 1_555 1_555
C16 C12 1_555 1_555
H10 C16 1_555 1_555
H11 C16 1_555 1_555
H12 C16 1_555 1_555
C17 O1 1_555 1_555
H13 C17 1_555 1_555
H14 C17 1_555 1_555
H15 C17 1_555 1_555
O8 C11 1_555 1_555
C2 C15 1_555 1_555
C3 C9 1_555 1_555
C4 C9 1_555 1_555
C6 C14 1_555 1_555
C7 C14 1_555 1_555
C10 C12 1_555 1_555

#END
