
#######################################################################
#
#                 Cambridge Crystallographic Data Centre
#                                CCDC 
#
#######################################################################
#
# If this CIF has been generated from an entry in the Cambridge 
# Structural Database, then it will include bibliographic, chemical, 
# crystal, experimental, refinement or atomic coordinate data resulting 
# from the CCDC's data processing and validation procedures.
#
#######################################################################

data_SARXIV
_chemical_formula_moiety         'C16 H17 N1 O2 S1'
_chemical_name_systematic        
N,4-dimethyl-N-(2-phenylethenyl)benzene-1-sulfonamide
_symmetry_cell_setting           orthorhombic
_symmetry_space_group_name_H-M   'P 21 21 21'
_symmetry_Int_Tables_number      19
_space_group_name_Hall           'P 2ac 2ab'
loop_
_symmetry_equiv_pos_site_id
_symmetry_equiv_pos_as_xyz
1 x,y,z
2 1/2-x,-y,1/2+z
3 -x,1/2+y,1/2-z
4 1/2+x,1/2-y,-z
_cell_length_a                   6.2587(6)
_cell_length_b                   7.7978(7)
_cell_length_c                   29.508(2)
_cell_angle_alpha                90
_cell_angle_beta                 90
_cell_angle_gamma                90
_cell_volume                     1440.11
_exptl_crystal_colour            colorless
_exptl_crystal_description       Block
_cell_formula_units_Z            4
loop_
_atom_site_label
_atom_site_type_symbol
_atom_site_fract_x
_atom_site_fract_y
_atom_site_fract_z
C1 C 0.6046(5) 0.5372(4) 0.31348(10)
H1 H 0.7351 0.4840 0.3220
C2 C 0.5835(5) 0.5913(4) 0.27052(11)
H2 H 0.4531 0.6453 0.2622
C3 C 0.7484(5) 0.5728(4) 0.23549(10)
C4 C 0.7180(6) 0.6591(4) 0.19421(11)
H3 H 0.5890 0.7202 0.1890
C5 C 0.8753(6) 0.6560(5) 0.16082(11)
H4 H 0.8540 0.7176 0.1334
C6 C 1.0610(6) 0.5649(5) 0.16710(12)
H5 H 1.1687 0.5640 0.1444
C7 C 1.0886(5) 0.4739(4) 0.20732(11)
H6 H 1.2157 0.4096 0.2119
C8 C 0.9337(5) 0.4757(4) 0.24059(10)
H7 H 0.9538 0.4100 0.2674
C9 C 0.2561(5) 0.6603(5) 0.33670(11)
H8 H 0.3014 0.7776 0.3296
H9 H 0.1618 0.6618 0.3632
H10 H 0.1794 0.6121 0.3107
C10 C 0.6414(5) 0.6838(4) 0.42242(10)
C11 C 0.5410(5) 0.8437(4) 0.42489(10)
H11 H 0.3980 0.8575 0.4147
C12 C 0.6527(5) 0.9811(4) 0.44232(10)
H12 H 0.5859 1.0904 0.4438
C13 C 0.8620(6) 0.9626(4) 0.45774(10)
C14 C 0.9854(7) 1.1162(4) 0.47453(12)
H13 H 0.9114 1.1665 0.5006
H14 H 0.9959 1.2015 0.4503
H15 H 1.1292 1.0802 0.4836
C15 C 0.9548(5) 0.8015(4) 0.45630(11)
H16 H 1.0954 0.7863 0.4678
C16 C 0.8456(5) 0.6616(4) 0.43837(10)
H17 H 0.9116 0.5520 0.4372
N1 N 0.4445(4) 0.5548(3) 0.34651(9)
O1 O 0.6477(4) 0.3651(3) 0.39799(8)
O2 O 0.3024(3) 0.4902(3) 0.42247(7)
S1 S 0.50290(12) 0.50727(9) 0.39944(2)
loop_
_geom_bond_atom_site_label_1
_geom_bond_atom_site_label_2
_geom_bond_site_symmetry_1
_geom_bond_site_symmetry_2
C1 H1 1_555 1_555
C2 C1 1_555 1_555
H2 C2 1_555 1_555
C3 C2 1_555 1_555
C4 C3 1_555 1_555
H3 C4 1_555 1_555
C5 C4 1_555 1_555
H4 C5 1_555 1_555
C6 C5 1_555 1_555
H5 C6 1_555 1_555
C7 C6 1_555 1_555
H6 C7 1_555 1_555
C8 C3 1_555 1_555
H7 C8 1_555 1_555
C9 H8 1_555 1_555
H9 C9 1_555 1_555
H10 C9 1_555 1_555
C10 C11 1_555 1_555
C11 H11 1_555 1_555
C12 C11 1_555 1_555
H12 C12 1_555 1_555
C13 C12 1_555 1_555
C14 C13 1_555 1_555
H13 C14 1_555 1_555
H14 C14 1_555 1_555
H15 C14 1_555 1_555
C15 C13 1_555 1_555
H16 C15 1_555 1_555
C16 C10 1_555 1_555
H17 C16 1_555 1_555
N1 C1 1_555 1_555
O1 S1 1_555 1_555
O2 S1 1_555 1_555
S1 C10 1_555 1_555
C7 C8 1_555 1_555
C9 N1 1_555 1_555
C15 C16 1_555 1_555
N1 S1 1_555 1_555

#END
