
#######################################################################
#
#                 Cambridge Crystallographic Data Centre
#                                CCDC 
#
#######################################################################
#
# If this CIF has been generated from an entry in the Cambridge 
# Structural Database, then it will include bibliographic, chemical, 
# crystal, experimental, refinement or atomic coordinate data resulting 
# from the CCDC's data processing and validation procedures.
#
#######################################################################

data_SARZAO
_chemical_name_common            11275a
_chemical_formula_moiety         'C18 H24 N1 O5 P1'
_chemical_name_systematic        
2-((5,5-Dimethyl-2-oxido-1,3,2-dioxaphosphinan-2-yl)amino)-5-methyl-1-phenylhex-2-ene-1,4-dione
_symmetry_cell_setting           monoclinic
_symmetry_space_group_name_H-M   'P 21/c'
_symmetry_Int_Tables_number      14
_space_group_name_Hall           '-P 2ybc'
loop_
_symmetry_equiv_pos_site_id
_symmetry_equiv_pos_as_xyz
1 x,y,z
2 -x,1/2+y,1/2-z
3 -x,-y,-z
4 x,1/2-y,1/2+z
_cell_length_a                   10.8692(15)
_cell_length_b                   5.7913(8)
_cell_length_c                   29.339(4)
_cell_angle_alpha                90
_cell_angle_beta                 93.771(2)
_cell_angle_gamma                90
_cell_volume                     1842.8
_exptl_crystal_colour            colorless
_exptl_crystal_description       needle
_cell_formula_units_Z            4
loop_
_atom_site_label
_atom_site_type_symbol
_atom_site_fract_x
_atom_site_fract_y
_atom_site_fract_z
N1 N 0.4204(2) 0.4374(4) 0.63578(8)
H1 H 0.348(3) 0.379(5) 0.6358(10)
C1 C 0.4836(2) 0.3661(5) 0.59963(11)
C2 C 0.4408(10) 0.192(2) 0.5732(5)
H2 H 0.4944 0.1267 0.5523
C3 C 0.3179(9) 0.0964(12) 0.5743(3)
O1 O 0.2454(15) 0.162(3) 0.6025(4)
C4 C 0.2770(7) -0.0806(11) 0.5384(2)
H3 H 0.3507 -0.1711 0.5302
C5 C 0.2278(9) 0.0526(13) 0.4969(2)
H4 H 0.2034 -0.0555 0.4722
H5 H 0.2920 0.1562 0.4868
H6 H 0.1561 0.1436 0.5046
C6 C 0.1825(5) -0.2452(9) 0.55486(19)
H7 H 0.2155 -0.3206 0.5830
H8 H 0.1631 -0.3624 0.5314
H9 H 0.1075 -0.1600 0.5609
C7 C 0.6068(3) 0.4768(5) 0.59165(10)
O2 O 0.60589(19) 0.6653(4) 0.57359(9)
C8 C 0.7214(2) 0.3457(5) 0.60356(9)
C9 C 0.8339(3) 0.4401(5) 0.59277(10)
H10 H 0.8361 0.5868 0.5784
C10 C 0.9421(3) 0.3202(6) 0.60301(11)
H11 H 1.0187 0.3839 0.5955
C11 C 0.9387(3) 0.1072(6) 0.62426(10)
H12 H 1.0132 0.0247 0.6312
C12 C 0.8283(3) 0.0147(6) 0.63531(10)
H13 H 0.8267 -0.1309 0.6502
C13 C 0.7194(3) 0.1320(5) 0.62493(10)
H14 H 0.6431 0.0664 0.6324
P1 P 0.45940(7) 0.62189(13) 0.67693(3)
O3 O 0.59157(17) 0.6694(3) 0.68001(7)
O4 O 0.40672(17) 0.4992(3) 0.71911(6)
C14 C 0.3335(2) 0.6195(5) 0.75206(9)
H15 H 0.3883 0.7182 0.7721
H16 H 0.2943 0.5048 0.7715
C15 C 0.2347(2) 0.7675(5) 0.72757(10)
C16 C 0.2978(3) 0.9436(5) 0.69905(10)
H17 H 0.2345 1.0396 0.6823
H18 H 0.3490 1.0466 0.7195
O5 O 0.37517(19) 0.8365(3) 0.66667(7)
C17 C 0.1653(3) 0.8989(5) 0.76318(11)
H19 H 0.1057 1.0043 0.7477
H20 H 0.2241 0.9877 0.7830
H21 H 0.1217 0.7888 0.7817
C18 C 0.1446(3) 0.6177(5) 0.69799(11)
H22 H 0.1879 0.5487 0.6731
H23 H 0.0766 0.7137 0.6852
H24 H 0.1120 0.4950 0.7168
C19? C 0.4267(15) 0.244(3) 0.5621(7)
C20? C 0.3028(13) 0.1512(18) 0.5623(4)
C21? C 0.2593(9) 0.0003(19) 0.5220(4)
C22? C 0.1219(8) 0.021(2) 0.5125(3)
C23? C 0.3015(9) -0.2451(16) 0.5313(3)
H25? H 0.4715 0.2222 0.5357
H26? H 0.2998 0.0569 0.4945
H27? H 0.0993 0.1848 0.5099
H28? H 0.0799 -0.0490 0.5376
H29? H 0.0972 -0.0583 0.4839
H30? H 0.2806 -0.3406 0.5043
H31? H 0.2603 -0.3066 0.5574
H32? H 0.3910 -0.2471 0.5381
O6? O 0.234(2) 0.190(5) 0.5933(6)
loop_
_geom_bond_atom_site_label_1
_geom_bond_atom_site_label_2
_geom_bond_site_symmetry_1
_geom_bond_site_symmetry_2
N1 H1 1_555 1_555
C1 N1 1_555 1_555
C2 C1 1_555 1_555
H2 C2 1_555 1_555
C3 C2 1_555 1_555
O1 C3 1_555 1_555
C4 C3 1_555 1_555
H3 C4 1_555 1_555
C5 C4 1_555 1_555
H4 C5 1_555 1_555
H5 C5 1_555 1_555
H6 C5 1_555 1_555
C6 C4 1_555 1_555
H7 C6 1_555 1_555
H8 C6 1_555 1_555
H9 C6 1_555 1_555
C7 C1 1_555 1_555
O2 C7 1_555 1_555
C8 C7 1_555 1_555
C9 C8 1_555 1_555
H10 C9 1_555 1_555
C10 C9 1_555 1_555
H11 C10 1_555 1_555
C11 C10 1_555 1_555
H12 C11 1_555 1_555
C12 C11 1_555 1_555
H13 C12 1_555 1_555
C13 C8 1_555 1_555
H14 C13 1_555 1_555
P1 N1 1_555 1_555
O3 P1 1_555 1_555
O4 P1 1_555 1_555
C14 O4 1_555 1_555
H15 C14 1_555 1_555
H16 C14 1_555 1_555
C15 C14 1_555 1_555
C16 C15 1_555 1_555
H17 C16 1_555 1_555
H18 C16 1_555 1_555
O5 P1 1_555 1_555
C17 C15 1_555 1_555
H19 C17 1_555 1_555
H20 C17 1_555 1_555
H21 C17 1_555 1_555
C18 C15 1_555 1_555
H22 C18 1_555 1_555
H23 C18 1_555 1_555
H24 C18 1_555 1_555
C12 C13 1_555 1_555
C16 O5 1_555 1_555

#END
