
#######################################################################
#
#                 Cambridge Crystallographic Data Centre
#                                CCDC 
#
#######################################################################
#
# If this CIF has been generated from an entry in the Cambridge 
# Structural Database, then it will include bibliographic, chemical, 
# crystal, experimental, refinement or atomic coordinate data resulting 
# from the CCDC's data processing and validation procedures.
#
#######################################################################

data_SARZET
_chemical_formula_moiety         'C15 H15 F3 N2 O1'
_chemical_name_systematic        
3-(4,9-dihydro-3H-\b-carbolin-1-yl)-1,1,1-trifluoro-2-methylpropan-2-ol
_symmetry_cell_setting           monoclinic
_symmetry_space_group_name_H-M   'P 21/n'
_symmetry_Int_Tables_number      14
_space_group_name_Hall           '-P 2yn'
loop_
_symmetry_equiv_pos_site_id
_symmetry_equiv_pos_as_xyz
1 x,y,z
2 1/2-x,1/2+y,1/2-z
3 -x,-y,-z
4 1/2+x,1/2-y,1/2+z
_cell_length_a                   6.9263(1)
_cell_length_b                   8.7238(1)
_cell_length_c                   22.5349(4)
_cell_angle_alpha                90
_cell_angle_beta                 95.292(1)
_cell_angle_gamma                90
_cell_volume                     1355.84
_exptl_crystal_colour            silver
_exptl_crystal_description       block
_cell_formula_units_Z            4
loop_
_atom_site_label
_atom_site_type_symbol
_atom_site_fract_x
_atom_site_fract_y
_atom_site_fract_z
F1 F 0.63850(12) 0.07315(10) 0.14735(4)
F2 F 0.79966(11) -0.00533(11) 0.22781(4)
F3 F 0.62260(13) -0.16415(10) 0.17351(4)
O1 O 0.48732(13) 0.16695(10) 0.25305(4)
H1 H 0.4881 0.2302 0.2250
N1 N 0.14273(16) -0.10546(13) 0.32162(5)
N2 N 0.54039(16) 0.14868(13) 0.38021(5)
H2 H 0.6285 0.1552 0.3546
C1 C 0.31243(19) -0.04294(14) 0.32543(6)
C2 C 0.00231(19) -0.04567(16) 0.36136(6)
H3 H -0.1030 -0.1218 0.3631
H4 H -0.0563 0.0491 0.3435
C3 C 0.08607(19) -0.00980(16) 0.42505(6)
H5 H -0.0083 0.0504 0.4459
H6 H 0.1141 -0.1061 0.4474
C4 C 0.3621(2) 0.22231(16) 0.52214(6)
H7 H 0.2527 0.1925 0.5419
C5 C 0.5038(2) 0.31479(17) 0.55018(6)
H8 H 0.4918 0.3483 0.5898
C6 C 0.6657(2) 0.36052(16) 0.52133(6)
H9 H 0.7599 0.4255 0.5417
C7 C 0.6911(2) 0.31321(16) 0.46401(6)
H10 H 0.8006 0.3447 0.4446
C8 C 0.36746(18) 0.06767(15) 0.37213(6)
C9 C 0.26856(19) 0.08010(15) 0.42180(6)
C10 C 0.38270(19) 0.17298(15) 0.46361(6)
C11 C 0.54945(19) 0.21723(15) 0.43571(6)
C12 C 0.45596(18) -0.09300(15) 0.28282(6)
H11 H 0.4221 -0.1972 0.2679
H12 H 0.5874 -0.0971 0.3041
C13 C 0.45617(18) 0.01852(14) 0.22961(6)
C14 C 0.6298(2) -0.01932(16) 0.19483(6)
C15 C 0.27071(19) 0.00504(16) 0.18781(6)
H13 H 0.2757 0.0773 0.1547
H14 H 0.1586 0.0288 0.2097
H15 H 0.2586 -0.0996 0.1721
loop_
_geom_bond_atom_site_label_1
_geom_bond_atom_site_label_2
_geom_bond_site_symmetry_1
_geom_bond_site_symmetry_2
F1 C14 1_555 1_555
F2 C14 1_555 1_555
F3 C14 1_555 1_555
O1 H1 1_555 1_555
N1 C1 1_555 1_555
N2 H2 1_555 1_555
C1 C8 1_555 1_555
C2 N1 1_555 1_555
H3 C2 1_555 1_555
H4 C2 1_555 1_555
C3 C2 1_555 1_555
H5 C3 1_555 1_555
H6 C3 1_555 1_555
C4 H7 1_555 1_555
C5 C4 1_555 1_555
H8 C5 1_555 1_555
C6 C5 1_555 1_555
H9 C6 1_555 1_555
C7 C6 1_555 1_555
H10 C7 1_555 1_555
C8 N2 1_555 1_555
C9 C3 1_555 1_555
C10 C4 1_555 1_555
C11 N2 1_555 1_555
C12 C1 1_555 1_555
H11 C12 1_555 1_555
H12 C12 1_555 1_555
C13 O1 1_555 1_555
C14 C13 1_555 1_555
C15 C13 1_555 1_555
H13 C15 1_555 1_555
H14 C15 1_555 1_555
H15 C15 1_555 1_555
C7 C11 1_555 1_555
C8 C9 1_555 1_555
C9 C10 1_555 1_555
C10 C11 1_555 1_555
C12 C13 1_555 1_555

#END
