
#######################################################################
#
#                 Cambridge Crystallographic Data Centre
#                                CCDC 
#
#######################################################################
#
# If this CIF has been generated from an entry in the Cambridge 
# Structural Database, then it will include bibliographic, chemical, 
# crystal, experimental, refinement or atomic coordinate data resulting 
# from the CCDC's data processing and validation procedures.
#
#######################################################################

data_SARZOA02
_chemical_formula_moiety         'C7 H16 N2 O1'
_chemical_name_systematic        1,3-Diisopropylurea
_symmetry_cell_setting           triclinic
_symmetry_space_group_name_H-M   'P 1'
_symmetry_Int_Tables_number      1
_space_group_name_Hall           'P 1'
loop_
_symmetry_equiv_pos_site_id
_symmetry_equiv_pos_as_xyz
1 x,y,z
_cell_length_a                   4.7078(6)
_cell_length_b                   9.1590(12)
_cell_length_c                   10.4321(14)
_cell_angle_alpha                90.00
_cell_angle_beta                 90.00
_cell_angle_gamma                90.00
_cell_volume                     449.819
_cell_formula_units_Z            2
loop_
_atom_site_label
_atom_site_type_symbol
_atom_site_fract_x
_atom_site_fract_y
_atom_site_fract_z
C1 C 0.4046(6) 0.4192(3) 0.5493(2)
H1 H 0.4376 0.3252 0.5872
H2 H 0.3111 0.4813 0.6102
H3 H 0.5829 0.4620 0.5251
C2 C 0.4045(6) 0.0156(3) -0.0265(2)
H4 H 0.4283 0.1086 -0.0675
H5 H 0.3157 -0.0512 -0.0851
H6 H 0.5867 -0.0219 -0.0016
C3 C 0.1645(8) 0.5469(3) 0.3696(3)
H7 H 0.3405 0.5879 0.3401
H8 H 0.0784 0.6120 0.4304
H9 H 0.0389 0.5334 0.2981
C4 C 0.1643(8) -0.1114(3) 0.1543(3)
H10 H 0.3390 -0.1498 0.1878
H11 H 0.0873 -0.1784 0.0926
H12 H 0.0311 -0.0984 0.2230
C5 C 0.2204(4) 0.40210(19) 0.43256(16)
H13 H 0.0376 0.3618 0.4602
C6 C 0.2199(4) 0.03317(19) 0.09079(16)
H14 H 0.0370 0.0735 0.0632
C7 C 0.1959(3) 0.21767(19) 0.26150(17)
N1 N 0.3496(3) 0.13672(16) 0.17861(14)
H15 H 0.5312 0.1468 0.1777
N2 N 0.3492(3) 0.29856(16) 0.34447(14)
H16 H 0.5308 0.2884 0.3453
O1 O -0.0675(2) 0.21766(15) 0.26167(14)
C8 C 0.8479(3) 0.71766(19) 0.76153(17)
N3 N 0.6939(3) 0.79854(16) 0.67870(13)
H17 H 0.5123 0.7884 0.6779
N4 N 0.6939(3) 0.63680(16) 0.84465(13)
H18 H 0.5124 0.6471 0.8457
C9 C 0.6394(6) 0.9195(3) 0.4735(2)
H19 H 0.6168 0.8266 0.4322
H20 H 0.7276 0.9868 0.4153
H21 H 0.4565 0.9563 0.4984
C10 C 0.6383(6) 0.5157(3) 1.0496(2)
H22 H 0.6041 0.6097 1.0873
H23 H 0.7324 0.4540 1.1107
H24 H 0.4607 0.4723 1.0253
C11 C 0.8796(8) 0.3886(3) 0.8692(3)
H25 H 0.7032 0.3466 0.8414
H26 H 0.9699 0.3241 0.9292
H27 H 1.0015 0.4027 0.7964
C12 C 0.8787(8) 1.0469(3) 0.6542(3)
H28 H 0.7022 1.0884 0.6824
H29 H 0.9677 1.1117 0.5941
H30 H 1.0016 1.0330 0.7266
C13 C 0.8232(4) 0.90199(19) 0.59079(16)
H31 H 1.0062 0.8617 0.5633
C14 C 0.8236(4) 0.53313(19) 0.93244(16)
H32 H 1.0064 0.5735 0.9602
O2 O 1.1109(2) 0.71773(16) 0.76156(14)
loop_
_geom_bond_atom_site_label_1
_geom_bond_atom_site_label_2
_geom_bond_site_symmetry_1
_geom_bond_site_symmetry_2
C1 H1 1_555 1_555
H2 C1 1_555 1_555
H3 C1 1_555 1_555
C2 H4 1_555 1_555
H5 C2 1_555 1_555
H6 C2 1_555 1_555
C3 H7 1_555 1_555
H8 C3 1_555 1_555
H9 C3 1_555 1_555
C4 H10 1_555 1_555
H11 C4 1_555 1_555
H12 C4 1_555 1_555
C5 C1 1_555 1_555
H13 C5 1_555 1_555
C6 C2 1_555 1_555
H14 C6 1_555 1_555
C7 N1 1_555 1_555
N1 C6 1_555 1_555
H15 N1 1_555 1_555
N2 C5 1_555 1_555
H16 N2 1_555 1_555
O1 C7 1_555 1_555
C8 N3 1_555 1_555
N3 H17 1_555 1_555
N4 C8 1_555 1_555
H18 N4 1_555 1_555
C9 H19 1_555 1_555
H20 C9 1_555 1_555
H21 C9 1_555 1_555
C10 H22 1_555 1_555
H23 C10 1_555 1_555
H24 C10 1_555 1_555
C11 H25 1_555 1_555
H26 C11 1_555 1_555
H27 C11 1_555 1_555
C12 H28 1_555 1_555
H29 C12 1_555 1_555
H30 C12 1_555 1_555
C13 N3 1_555 1_555
H31 C13 1_555 1_555
C14 N4 1_555 1_555
H32 C14 1_555 1_555
O2 C8 1_555 1_555
C3 C5 1_555 1_555
C4 C6 1_555 1_555
C7 N2 1_555 1_555
C9 C13 1_555 1_555
C10 C14 1_555 1_555
C11 C14 1_555 1_555
C12 C13 1_555 1_555

#END
