
#######################################################################
#
#                 Cambridge Crystallographic Data Centre
#                                CCDC 
#
#######################################################################
#
# If this CIF has been generated from an entry in the Cambridge 
# Structural Database, then it will include bibliographic, chemical, 
# crystal, experimental, refinement or atomic coordinate data resulting 
# from the CCDC's data processing and validation procedures.
#
#######################################################################

data_SASHIG
_chemical_formula_moiety         'C13 H14 O2'
_chemical_name_systematic        2-(2-hydroxybenzylidene)cyclohexanone
_symmetry_cell_setting           monoclinic
_symmetry_space_group_name_H-M   'P 21/n'
_symmetry_Int_Tables_number      14
_space_group_name_Hall           '-P 2yn'
loop_
_symmetry_equiv_pos_site_id
_symmetry_equiv_pos_as_xyz
1 x,y,z
2 1/2-x,1/2+y,1/2-z
3 -x,-y,-z
4 1/2+x,1/2-y,1/2+z
_cell_length_a                   17.070(2)
_cell_length_b                   7.2073(9)
_cell_length_c                   17.140(3)
_cell_angle_alpha                90
_cell_angle_beta                 104.202(17)
_cell_angle_gamma                90
_cell_volume                     2044.26
_exptl_crystal_colour            colorless
_exptl_crystal_description       prism
_cell_formula_units_Z            8
loop_
_atom_site_label
_atom_site_type_symbol
_atom_site_fract_x
_atom_site_fract_y
_atom_site_fract_z
O1 O 0.48940(18) 0.2093(5) 0.26162(17)
H1 H 0.4859 0.1934 0.2112
O2 O 0.60663(19) 0.2587(5) 0.51990(17)
C1 C 0.4120(3) 0.2573(7) 0.2620(3)
C2 C 0.3516(3) 0.2712(7) 0.1916(3)
H2 H 0.3629 0.2427 0.1426
C3 C 0.2749(3) 0.3268(7) 0.1934(3)
H3 H 0.2349 0.3371 0.1457
C4 C 0.2572(3) 0.3673(7) 0.2661(3)
H4 H 0.2057 0.4067 0.2674
C5 C 0.3165(3) 0.3491(6) 0.3370(3)
H5 H 0.3038 0.3748 0.3857
C6 C 0.3954(3) 0.2927(6) 0.3375(3)
C7 C 0.4620(3) 0.2767(6) 0.4092(3)
H6 H 0.5130 0.2782 0.3989
C8 C 0.4627(3) 0.2602(6) 0.4871(2)
C9 C 0.5446(3) 0.2506(7) 0.5442(3)
C10 C 0.5522(3) 0.2248(7) 0.6327(3)
H7 H 0.5942 0.3069 0.6620
H8 H 0.5695 0.0985 0.6470
C11 C 0.4750(3) 0.2616(8) 0.6608(3)
H9 H 0.4815 0.2148 0.7150
H10 H 0.4654 0.3941 0.6614
C12 C 0.4034(3) 0.1671(8) 0.6047(3)
H11 H 0.3557 0.1834 0.6252
H12 H 0.4140 0.0352 0.6028
C13 C 0.3882(3) 0.2486(7) 0.5201(3)
H13 H 0.3479 0.1733 0.4840
H14 H 0.3659 0.3723 0.5206
O3 O 0.7563(2) 0.2363(5) 0.48933(18)
H15 H 0.7094 0.2218 0.4986
O4 O 1.01643(19) 0.2683(5) 0.60877(17)
C14 C 0.7580(3) 0.2966(6) 0.4143(3)
C15 C 0.6872(3) 0.3300(7) 0.3555(3)
H16 H 0.6373 0.3086 0.3666
C16 C 0.6909(3) 0.3946(7) 0.2808(3)
H17 H 0.6435 0.4179 0.2418
C17 C 0.7652(3) 0.4253(7) 0.2634(3)
H18 H 0.7675 0.4703 0.2132
C18 C 0.8356(3) 0.3888(7) 0.3211(3)
H19 H 0.8851 0.4074 0.3086
C19 C 0.8343(3) 0.3238(7) 0.3985(3)
C20 C 0.9058(3) 0.2957(6) 0.4645(2)
H20 H 0.8951 0.2945 0.5151
C21 C 0.9841(3) 0.2712(6) 0.4657(2)
C22 C 1.0404(3) 0.2523(6) 0.5472(3)
C23 C 1.1285(3) 0.2064(7) 0.5542(3)
H21 H 1.1372 0.0768 0.5690
H22 H 1.1613 0.2797 0.5976
C24 C 1.1579(3) 0.2403(7) 0.4786(3)
H23 H 1.1635 0.3726 0.4711
H24 H 1.2104 0.1832 0.4843
C25 C 1.0987(3) 0.1600(7) 0.4062(3)
H25 H 1.0914 0.0288 0.4147
H26 H 1.1201 0.1733 0.3590
C26 C 1.0179(3) 0.2586(7) 0.3921(3)
H27 H 1.0239 0.3832 0.3730
H28 H 0.9792 0.1940 0.3500
loop_
_geom_bond_atom_site_label_1
_geom_bond_atom_site_label_2
_geom_bond_site_symmetry_1
_geom_bond_site_symmetry_2
O1 H1 1_555 1_555
O2 C9 1_555 1_555
C1 O1 1_555 1_555
C2 C1 1_555 1_555
H2 C2 1_555 1_555
C3 C2 1_555 1_555
H3 C3 1_555 1_555
C4 C3 1_555 1_555
H4 C4 1_555 1_555
C5 C4 1_555 1_555
H5 C5 1_555 1_555
C6 C1 1_555 1_555
C7 C6 1_555 1_555
H6 C7 1_555 1_555
C8 C7 1_555 1_555
C9 C8 1_555 1_555
C10 C9 1_555 1_555
H7 C10 1_555 1_555
H8 C10 1_555 1_555
C11 C10 1_555 1_555
H9 C11 1_555 1_555
H10 C11 1_555 1_555
C12 C11 1_555 1_555
H11 C12 1_555 1_555
H12 C12 1_555 1_555
C13 C8 1_555 1_555
H13 C13 1_555 1_555
H14 C13 1_555 1_555
O3 H15 1_555 1_555
O4 C22 1_555 1_555
C14 O3 1_555 1_555
C15 C14 1_555 1_555
H16 C15 1_555 1_555
C16 C15 1_555 1_555
H17 C16 1_555 1_555
C17 C16 1_555 1_555
H18 C17 1_555 1_555
C18 C17 1_555 1_555
H19 C18 1_555 1_555
C19 C14 1_555 1_555
C20 C19 1_555 1_555
H20 C20 1_555 1_555
C21 C20 1_555 1_555
C22 C21 1_555 1_555
C23 C22 1_555 1_555
H21 C23 1_555 1_555
H22 C23 1_555 1_555
C24 C23 1_555 1_555
H23 C24 1_555 1_555
H24 C24 1_555 1_555
C25 C24 1_555 1_555
H25 C25 1_555 1_555
H26 C25 1_555 1_555
C26 C21 1_555 1_555
H27 C26 1_555 1_555
H28 C26 1_555 1_555
C5 C6 1_555 1_555
C12 C13 1_555 1_555
C18 C19 1_555 1_555
C25 C26 1_555 1_555

#END
