
#######################################################################
#
#                 Cambridge Crystallographic Data Centre
#                                CCDC 
#
#######################################################################
#
# If this CIF has been generated from an entry in the Cambridge 
# Structural Database, then it will include bibliographic, chemical, 
# crystal, experimental, refinement or atomic coordinate data resulting 
# from the CCDC's data processing and validation procedures.
#
#######################################################################

data_SASJAA
_chemical_formula_moiety         'C27 H28 O3'
_chemical_name_systematic        
4a'-methoxy-2,2',3,3',4',4a',9',9a'-octahydro-1H,1'H-4,9'-bixanthene
_symmetry_cell_setting           triclinic
_symmetry_space_group_name_H-M   'P -1'
_symmetry_Int_Tables_number      2
_space_group_name_Hall           '-P 1'
loop_
_symmetry_equiv_pos_site_id
_symmetry_equiv_pos_as_xyz
1 x,y,z
2 -x,-y,-z
_cell_length_a                   8.0572(8)
_cell_length_b                   11.6405(9)
_cell_length_c                   11.7201(9)
_cell_angle_alpha                85.318(6)
_cell_angle_beta                 83.526(8)
_cell_angle_gamma                74.506(8)
_cell_volume                     1051
_exptl_crystal_colour            colorless
_exptl_crystal_description       prism
_cell_formula_units_Z            2
loop_
_atom_site_label
_atom_site_type_symbol
_atom_site_fract_x
_atom_site_fract_y
_atom_site_fract_z
O1 O -0.24167(19) 0.43037(13) 0.79532(14)
O2 O 0.1897(2) 0.02597(13) 0.59047(13)
O3 O 0.18879(19) 0.07565(12) 0.77901(13)
C1 C -0.1842(3) 0.5621(2) 0.9168(2)
H1 H -0.0684 0.5198 0.9088
C2 C -0.2374(3) 0.6599(2) 0.9847(2)
H2 H -0.1576 0.6838 1.0223
C3 C -0.4095(4) 0.7214(2) 0.9960(2)
H3 H -0.4459 0.7870 1.0415
C4 C -0.5280(3) 0.6863(2) 0.9403(2)
H4 H -0.6439 0.7281 0.9496
C5 C -0.4779(3) 0.58930(19) 0.8703(2)
C6 C -0.3036(3) 0.52794(18) 0.8611(2)
C7 C -0.5920(3) 0.5479(2) 0.8072(2)
H5 H -0.7090 0.5876 0.8118
C8 C -0.5335(3) 0.4534(2) 0.7419(2)
C9 C -0.6474(3) 0.4011(2) 0.6806(2)
H6 H -0.7490 0.4634 0.6619
H7 H -0.6859 0.3412 0.7312
C10 C -0.5548(3) 0.3449(2) 0.5716(2)
H8 H -0.6297 0.3074 0.5374
H9 H -0.5286 0.4065 0.5171
C11 C -0.3893(3) 0.2530(2) 0.5952(2)
H10 H -0.4175 0.1821 0.6322
H11 H -0.3222 0.2308 0.5226
C12 C -0.2804(3) 0.29565(19) 0.6701(2)
C13 C -0.3514(3) 0.39048(19) 0.7324(2)
C14 C -0.0939(3) 0.22503(18) 0.6742(2)
H12 H -0.0456 0.2587 0.7327
C15 C 0.0178(3) 0.23209(19) 0.5622(2)
C16 C -0.0066(3) 0.3345(2) 0.4895(2)
H13 H -0.0956 0.4009 0.5101
C17 C 0.0962(3) 0.3414(2) 0.3878(2)
H14 H 0.0759 0.4110 0.3407
C18 C 0.2293(3) 0.2437(2) 0.3572(2)
H15 H 0.2997 0.2472 0.2892
C19 C 0.2579(3) 0.1410(2) 0.4272(2)
H16 H 0.3483 0.0754 0.4067
C20 C 0.1525(3) 0.1349(2) 0.5283(2)
C21 C 0.1075(3) 0.02154(19) 0.7049(2)
C22 C 0.1214(3) -0.10953(19) 0.7366(2)
H17 H 0.2423 -0.1536 0.7329
H18 H 0.0659 -0.1415 0.6820
C23 C 0.0352(3) -0.1253(2) 0.8580(2)
H19 H 0.0400 -0.2090 0.8752
H20 H 0.0980 -0.1006 0.9133
C24 C -0.1523(3) -0.05221(19) 0.8693(2)
H21 H -0.2002 -0.0579 0.9486
H22 H -0.2187 -0.0847 0.8223
C25 C -0.1685(3) 0.07845(19) 0.8319(2)
H23 H -0.2900 0.1207 0.8334
H24 H -0.1169 0.1140 0.8861
C26 C -0.0807(3) 0.09340(18) 0.7118(2)
H25 H -0.1393 0.0613 0.6580
C27 C 0.3674(3) 0.0218(2) 0.7890(2)
H26 H 0.4274 0.0089 0.7138
H27 H 0.3805 -0.0533 0.8322
H28 H 0.4148 0.0735 0.8279
loop_
_geom_bond_atom_site_label_1
_geom_bond_atom_site_label_2
_geom_bond_site_symmetry_1
_geom_bond_site_symmetry_2
O1 C6 1_555 1_555
O2 C20 1_555 1_555
O3 C21 1_555 1_555
C1 H1 1_555 1_555
C2 C1 1_555 1_555
H2 C2 1_555 1_555
C3 C2 1_555 1_555
H3 C3 1_555 1_555
C4 C3 1_555 1_555
H4 C4 1_555 1_555
C5 C4 1_555 1_555
C6 C1 1_555 1_555
C7 C5 1_555 1_555
H5 C7 1_555 1_555
C8 C7 1_555 1_555
C9 C8 1_555 1_555
H6 C9 1_555 1_555
H7 C9 1_555 1_555
C10 C9 1_555 1_555
H8 C10 1_555 1_555
H9 C10 1_555 1_555
C11 C10 1_555 1_555
H10 C11 1_555 1_555
H11 C11 1_555 1_555
C12 C11 1_555 1_555
C13 O1 1_555 1_555
C14 C12 1_555 1_555
H12 C14 1_555 1_555
C15 C14 1_555 1_555
C16 C15 1_555 1_555
H13 C16 1_555 1_555
C17 C16 1_555 1_555
H14 C17 1_555 1_555
C18 C17 1_555 1_555
H15 C18 1_555 1_555
C19 C18 1_555 1_555
H16 C19 1_555 1_555
C20 C15 1_555 1_555
C21 O2 1_555 1_555
C22 C21 1_555 1_555
H17 C22 1_555 1_555
H18 C22 1_555 1_555
C23 C22 1_555 1_555
H19 C23 1_555 1_555
H20 C23 1_555 1_555
C24 C23 1_555 1_555
H21 C24 1_555 1_555
H22 C24 1_555 1_555
C25 C24 1_555 1_555
H23 C25 1_555 1_555
H24 C25 1_555 1_555
C26 C14 1_555 1_555
H25 C26 1_555 1_555
C27 O3 1_555 1_555
H26 C27 1_555 1_555
H27 C27 1_555 1_555
H28 C27 1_555 1_555
C5 C6 1_555 1_555
C8 C13 1_555 1_555
C12 C13 1_555 1_555
C19 C20 1_555 1_555
C21 C26 1_555 1_555
C25 C26 1_555 1_555

#END
