
#######################################################################
#
#                 Cambridge Crystallographic Data Centre
#                                CCDC 
#
#######################################################################
#
# If this CIF has been generated from an entry in the Cambridge 
# Structural Database, then it will include bibliographic, chemical, 
# crystal, experimental, refinement or atomic coordinate data resulting 
# from the CCDC's data processing and validation procedures.
#
#######################################################################

data_SASJAZ
_chemical_formula_moiety         'C12 H15 Cl1 F2 O5'
_chemical_name_systematic        
'Methyl 6-(chloro(difluoro)methyl)-3-ethyl-6-hydroxy-4-methoxy-2-oxocyclohex-3-ene-1-carboxylate'
_symmetry_cell_setting           monoclinic
_symmetry_space_group_name_H-M   'P 21/c'
_symmetry_Int_Tables_number      14
_space_group_name_Hall           '-P 2ybc'
loop_
_symmetry_equiv_pos_site_id
_symmetry_equiv_pos_as_xyz
1 x,y,z
2 -x,1/2+y,1/2-z
3 -x,-y,-z
4 x,1/2-y,1/2+z
_cell_length_a                   17.879(13)
_cell_length_b                   8.373(7)
_cell_length_c                   9.397(7)
_cell_angle_alpha                90
_cell_angle_beta                 103.472(12)
_cell_angle_gamma                90
_cell_volume                     1368.03
_exptl_crystal_colour            colorless
_exptl_crystal_description       block
_cell_formula_units_Z            4
loop_
_atom_site_label
_atom_site_type_symbol
_atom_site_fract_x
_atom_site_fract_y
_atom_site_fract_z
O1 O 0.27715(5) 0.64552(10) 0.00746(10)
O2 O 0.16116(6) 0.85938(11) -0.19892(9)
O3 O 0.09326(5) 0.74018(11) -0.05619(10)
O4 O 0.25831(5) 1.09888(10) -0.04920(9)
O5 O 0.41429(4) 1.00911(10) 0.34657(9)
F1 F 0.09910(4) 1.11964(9) -0.05664(9)
F2 F 0.12398(4) 1.11523(9) 0.17908(9)
Cl1 Cl 0.171649(19) 1.35939(3) 0.06710(3)
H1 H 0.2346(11) 1.047(2) -0.122(2)
C1 C 0.28101(6) 0.77148(12) 0.07539(11)
C2 C 0.20746(6) 0.87187(12) 0.06178(11)
H2 H 0.1839 0.8450 0.1454
C3 C 0.22713(6) 1.05109(12) 0.06887(10)
C4 C 0.28559(6) 1.08662(13) 0.21192(11)
H3 H 0.3071 1.1948 0.2064
H4 H 0.2590 1.0862 0.2933
C5 C 0.35037(6) 0.96793(13) 0.24447(11)
C6 C 0.35071(6) 0.82608(13) 0.17652(11)
C7 C 0.15193(6) 0.82407(13) -0.07969(12)
C8 C 0.03679(7) 0.6907(2) -0.18632(17)
H5 H 0.0163 0.7850 -0.2442
H6 H -0.0053 0.6339 -0.1575
H7 H 0.0612 0.6198 -0.2451
C9 C 0.41476(9) 0.58532(17) 0.31698(16)
H8 H 0.4110 0.6347 0.4096
H9 H 0.4611 0.5189 0.3331
H10 H 0.3693 0.5188 0.2798
C10 C 0.41926(6) 0.71505(13) 0.20598(12)
H11 H 0.4666 0.7785 0.2423
H12 H 0.4232 0.6642 0.1129
C11 C 0.41018(7) 1.13728(14) 0.44668(13)
H13 H 0.4032 1.2389 0.3935
H14 H 0.4579 1.1408 0.5232
H15 H 0.3666 1.1193 0.4915
C12 C 0.15438(6) 1.15228(13) 0.06467(12)
loop_
_geom_bond_atom_site_label_1
_geom_bond_atom_site_label_2
_geom_bond_site_symmetry_1
_geom_bond_site_symmetry_2
O1 C1 1_555 1_555
O2 C7 1_555 1_555
O3 C7 1_555 1_555
O4 H1 1_555 1_555
O5 C5 1_555 1_555
F1 C12 1_555 1_555
F2 C12 1_555 1_555
Cl1 C12 1_555 1_555
C1 C2 1_555 1_555
C2 H2 1_555 1_555
C3 O4 1_555 1_555
C4 C3 1_555 1_555
H3 C4 1_555 1_555
H4 C4 1_555 1_555
C5 C4 1_555 1_555
C6 C1 1_555 1_555
C7 C2 1_555 1_555
C8 O3 1_555 1_555
H5 C8 1_555 1_555
H6 C8 1_555 1_555
H7 C8 1_555 1_555
C9 H8 1_555 1_555
H9 C9 1_555 1_555
H10 C9 1_555 1_555
C10 C6 1_555 1_555
H11 C10 1_555 1_555
H12 C10 1_555 1_555
C11 O5 1_555 1_555
H13 C11 1_555 1_555
H14 C11 1_555 1_555
H15 C11 1_555 1_555
C12 C3 1_555 1_555
C2 C3 1_555 1_555
C5 C6 1_555 1_555
C9 C10 1_555 1_555

#END
