
#######################################################################
#
#                 Cambridge Crystallographic Data Centre
#                                CCDC 
#
#######################################################################
#
# If this CIF has been generated from an entry in the Cambridge 
# Structural Database, then it will include bibliographic, chemical, 
# crystal, experimental, refinement or atomic coordinate data resulting 
# from the CCDC's data processing and validation procedures.
#
#######################################################################

data_SASKII01
_chemical_formula_moiety         'C6 H2 N3 O7 1-,C5 H9 N2 1+'
_chemical_name_systematic        
'3,5-Dimethylpyrazolium 2,4,6-trinitrophenolate'
_symmetry_cell_setting           monoclinic
_symmetry_space_group_name_H-M   'P 21'
_symmetry_Int_Tables_number      4
_space_group_name_Hall           'P 2yb'
loop_
_symmetry_equiv_pos_site_id
_symmetry_equiv_pos_as_xyz
1 x,y,z
2 -x,1/2+y,-z
_cell_length_a                   8.1001(4)
_cell_length_b                   6.0482(3)
_cell_length_c                   14.7037(8)
_cell_angle_alpha                90
_cell_angle_beta                 97.823(5)
_cell_angle_gamma                90
_cell_volume                     713.645
_exptl_crystal_colour            yellow
_exptl_crystal_description       needle
_cell_formula_units_Z            2
_chemical_properties_physical    air-sensitive
loop_
_atom_site_label
_atom_site_type_symbol
_atom_site_fract_x
_atom_site_fract_y
_atom_site_fract_z
C1 C 0.7265(3) 0.4215(5) 0.82019(16)
O1 O 0.7727(2) 0.7066(4) 0.71148(12)
N1 N 0.8245(2) 0.5234(5) 0.89841(14)
C2 C 0.7094(3) 0.5270(5) 0.73135(16)
O2 O 0.8934(3) 0.7023(4) 0.89009(13)
C3 C 0.5477(3) 0.1201(5) 0.76731(17)
C4 C 0.5997(3) 0.4033(5) 0.66282(16)
O3 O 0.3735(3) -0.1745(4) 0.72393(18)
C5 C 0.6485(3) 0.2231(5) 0.83732(16)
H1 H 0.6646 0.1611 0.8957
C6 C 0.5197(3) 0.2097(5) 0.67840(17)
N2 N 0.4650(3) -0.0843(5) 0.78670(18)
O4 O 0.8390(3) 0.4261(5) 0.97220(13)
O5 O 0.4899(3) -0.1579(5) 0.86586(17)
N3 N 0.5701(3) 0.4966(5) 0.57017(15)
O6 O 0.6907(3) 0.5364(6) 0.53133(14)
O7 O 0.4259(3) 0.5274(6) 0.53674(15)
N4 N 0.0727(3) 0.0922(4) 0.84358(16)
N5 N -0.0014(3) 0.0143(5) 0.76212(14)
C7 C 0.1339(3) 0.3183(6) 0.7371(2)
H2 H 0.1770 0.4364 0.7073
C8 C 0.1580(3) 0.2789(5) 0.83058(19)
C9 C 0.2548(4) 0.3972(7) 0.9091(2)
H3 H 0.1836 0.4288 0.9546
H4 H 0.2973 0.5331 0.8878
H5 H 0.3459 0.3061 0.9356
C10 C 0.0342(3) 0.1502(6) 0.69552(18)
C11 C -0.0279(4) 0.1004(8) 0.5977(2)
H6 H 0.0626 0.0479 0.5676
H7 H -0.0734 0.2323 0.5678
H8 H -0.1129 -0.0110 0.5946
H9 H 0.066(3) 0.025(6) 0.894(2)
H10 H -0.074(4) -0.117(8) 0.759(2)
loop_
_geom_bond_atom_site_label_1
_geom_bond_atom_site_label_2
_geom_bond_site_symmetry_1
_geom_bond_site_symmetry_2
C1 N1 1_555 1_555
O1 C2 1_555 1_555
N1 O2 1_555 1_555
C2 C1 1_555 1_555
C3 C5 1_555 1_555
C4 C2 1_555 1_555
O3 N2 1_555 1_555
C5 C1 1_555 1_555
H1 C5 1_555 1_555
C6 C3 1_555 1_555
N2 C3 1_555 1_555
O4 N1 1_555 1_555
O5 N2 1_555 1_555
N3 C4 1_555 1_555
O6 N3 1_555 1_555
O7 N3 1_555 1_555
N4 N5 1_555 1_555
N5 C10 1_555 1_555
C7 H2 1_555 1_555
C8 N4 1_555 1_555
C9 C8 1_555 1_555
H3 C9 1_555 1_555
H4 C9 1_555 1_555
H5 C9 1_555 1_555
C10 C7 1_555 1_555
C11 C10 1_555 1_555
H6 C11 1_555 1_555
H7 C11 1_555 1_555
H8 C11 1_555 1_555
H9 N4 1_555 1_555
H10 N5 1_555 1_555
C4 C6 1_555 1_555
C7 C8 1_555 1_555

#END
