
#######################################################################
#
#                 Cambridge Crystallographic Data Centre
#                                CCDC 
#
#######################################################################
#
# If this CIF has been generated from an entry in the Cambridge 
# Structural Database, then it will include bibliographic, chemical, 
# crystal, experimental, refinement or atomic coordinate data resulting 
# from the CCDC's data processing and validation procedures.
#
#######################################################################

data_SASKOO01
_chemical_formula_moiety         'C6 H2 N3 O7 1-,C3 H5 N2 1+,0.5(H2 O1)'
_chemical_name_systematic        
'1H-pyrazol-2-ium 2,4,6-trinitrophenolate hemihydrate'
_symmetry_cell_setting           triclinic
_symmetry_space_group_name_H-M   'P -1'
_symmetry_Int_Tables_number      2
_space_group_name_Hall           '-P 1'
loop_
_symmetry_equiv_pos_site_id
_symmetry_equiv_pos_as_xyz
1 x,y,z
2 -x,-y,-z
_cell_length_a                   7.7080(5)
_cell_length_b                   12.0453(4)
_cell_length_c                   13.6002(8)
_cell_angle_alpha                97.795(4)
_cell_angle_beta                 101.785(5)
_cell_angle_gamma                92.377(4)
_cell_volume                     1221.56
_exptl_crystal_colour            yellow
_exptl_crystal_description       block
_cell_formula_units_Z            4
loop_
_atom_site_label
_atom_site_type_symbol
_atom_site_fract_x
_atom_site_fract_y
_atom_site_fract_z
O1 O 0.4423(2) 0.71182(13) 0.41867(12)
N1 N 0.5197(3) 0.69997(16) 0.63527(14)
C1 C 0.3973(3) 0.62245(17) 0.55943(16)
C2 C 0.3733(3) 0.63385(17) 0.45264(16)
O2 O 0.5436(3) 0.6858(2) 0.72291(14)
C3 C 0.2102(3) 0.45447(19) 0.52834(18)
N2 N 0.2272(3) 0.53362(17) 0.27874(15)
C4 C 0.1769(3) 0.45698(19) 0.42457(18)
H1 H 0.1013 0.4018 0.3799
N3 N 0.1348(3) 0.36031(18) 0.56558(19)
O3 O 0.6103(4) 0.7708(2) 0.60964(15)
C5 C 0.2572(3) 0.54201(18) 0.38910(17)
O4 O 0.3476(4) 0.56981(19) 0.24134(15)
O5 O 0.0924(3) 0.4838(2) 0.22762(16)
C6 C 0.3176(3) 0.53697(19) 0.59546(17)
H2 H 0.3363 0.5350 0.6649
O6 O 0.0356(3) 0.29074(18) 0.50419(19)
O7 O 0.1740(3) 0.3551(2) 0.65634(18)
O8 O 0.2482(2) 0.78649(17) 0.05214(12)
C7 C 0.0379(3) 0.80360(19) -0.10057(17)
N4 N 0.1416(3) 0.74786(19) -0.16864(15)
C8 C -0.0322(3) 0.85828(19) 0.06230(17)
O9 O 0.1142(3) 0.7668(2) -0.25642(15)
O10 O 0.2446(3) 0.6796(2) -0.13783(15)
C9 C 0.0984(3) 0.81180(19) 0.00872(17)
N5 N 0.0008(3) 0.8689(2) 0.17291(16)
N6 N -0.3970(3) 0.92691(19) -0.13739(19)
C10 C -0.1167(3) 0.84383(18) -0.14679(17)
H3 H -0.1449 0.8409 -0.2170
O11 O -0.4049(4) 0.9586(2) -0.21986(18)
C11 C -0.1902(3) 0.8953(2) 0.01629(19)
H4 H -0.2691 0.9243 0.0549
O12 O -0.5214(3) 0.9251(2) -0.0945(2)
O13 O 0.1011(4) 0.8056(3) 0.21652(18)
C12 C -0.2304(3) 0.88883(19) -0.08797(19)
O14 O -0.0794(5) 0.9322(3) 0.21813(19)
O15 O 0.5184(2) 0.20594(15) 0.75510(12)
H5 H 0.6089 0.1906 0.7970
H6 H 0.5514 0.2461 0.7146
N7 N 0.4671(3) 0.32800(18) 0.98011(15)
H7 H 0.5613 0.2919 0.9921
N8 N 0.3700(3) 0.33561(19) 0.88858(15)
H8 H 0.3909 0.3049 0.8317
C13 C 0.2474(4) 0.4308(3) 1.0008(2)
H9 H 0.1707 0.4751 1.0307
C14 C 0.2364(4) 0.3979(3) 0.8994(2)
H10 H 0.1497 0.4163 0.8470
C15 C 0.3947(4) 0.3850(2) 1.04914(19)
H11 H 0.4367 0.3928 1.1190
N9 N 0.3411(3) 0.08761(16) 0.52490(15)
H12 H 0.3953 0.1512 0.5240
N10 N 0.3300(3) 0.04275(18) 0.60750(16)
H13 H 0.3759 0.0725 0.6689
C16 C 0.2548(3) 0.0181(2) 0.44406(19)
H14 H 0.2429 0.0298 0.3769
C17 C 0.2367(4) -0.0553(2) 0.5799(2)
H15 H 0.2100 -0.1035 0.6235
C18 C 0.1863(4) -0.0736(2) 0.4760(2)
H16 H 0.1194 -0.1356 0.4358
loop_
_geom_bond_atom_site_label_1
_geom_bond_atom_site_label_2
_geom_bond_site_symmetry_1
_geom_bond_site_symmetry_2
O1 C2 1_555 1_555
N1 C1 1_555 1_555
C1 C2 1_555 1_555
C2 C5 1_555 1_555
O2 N1 1_555 1_555
C3 C4 1_555 1_555
N2 C5 1_555 1_555
C4 H1 1_555 1_555
N3 C3 1_555 1_555
O3 N1 1_555 1_555
C5 C4 1_555 1_555
O4 N2 1_555 1_555
O5 N2 1_555 1_555
C6 C1 1_555 1_555
H2 C6 1_555 1_555
O6 N3 1_555 1_555
O7 N3 1_555 1_555
O8 C9 1_555 1_555
C7 N4 1_555 1_555
N4 O9 1_555 1_555
C8 C9 1_555 1_555
O10 N4 1_555 1_555
C9 C7 1_555 1_555
N5 C8 1_555 1_555
N6 O11 1_555 1_555
C10 C7 1_555 1_555
H3 C10 1_555 1_555
C11 C8 1_555 1_555
H4 C11 1_555 1_555
O12 N6 1_555 1_555
O13 N5 1_555 1_555
C12 N6 1_555 1_555
O14 N5 1_555 1_555
O15 H5 1_555 1_555
H6 O15 1_555 1_555
N7 H7 1_555 1_555
N8 N7 1_555 1_555
H8 N8 1_555 1_555
C13 H9 1_555 1_555
C14 N8 1_555 1_555
H10 C14 1_555 1_555
C15 N7 1_555 1_555
H11 C15 1_555 1_555
N9 H12 1_555 1_555
N10 N9 1_555 1_555
H13 N10 1_555 1_555
C16 N9 1_555 1_555
H14 C16 1_555 1_555
C17 N10 1_555 1_555
H15 C17 1_555 1_555
C18 C16 1_555 1_555
H16 C18 1_555 1_555
C3 C6 1_555 1_555
C10 C12 1_555 1_555
C11 C12 1_555 1_555
C13 C14 1_555 1_555
C13 C15 1_555 1_555
C17 C18 1_555 1_555

#END
