
#######################################################################
#
#                 Cambridge Crystallographic Data Centre
#                                CCDC 
#
#######################################################################
#
# If this CIF has been generated from an entry in the Cambridge 
# Structural Database, then it will include bibliographic, chemical, 
# crystal, experimental, refinement or atomic coordinate data resulting 
# from the CCDC's data processing and validation procedures.
#
#######################################################################

data_SASMIJ
_chemical_formula_moiety         'C17 H26 O4'
_chemical_name_systematic        
(+-)-4-Acetoxy-9-hydroxy-1,5-dimethyl-8-(propen-2-yl)-tricyclo[8.1.0.0^5,10^]undecane
_symmetry_cell_setting           monoclinic
_symmetry_space_group_name_H-M   'C 2/c'
_symmetry_Int_Tables_number      15
_space_group_name_Hall           '-C 2yn'
loop_
_symmetry_equiv_pos_site_id
_symmetry_equiv_pos_as_xyz
1 x,y,z
2 1/2+x,1/2+y,z
3 -x,y,1/2-z
4 1/2-x,1/2+y,1/2-z
5 -x,-y,-z
6 1/2-x,1/2-y,-z
7 x,-y,1/2+z
8 1/2+x,1/2-y,1/2+z
_cell_length_a                   16.846(8)
_cell_length_b                   18.842(8)
_cell_length_c                   11.732(5)
_cell_angle_alpha                90
_cell_angle_beta                 121.761(5)
_cell_angle_gamma                90
_cell_volume                     3166.23
_exptl_crystal_colour            colorless
_exptl_crystal_description       block
_chemical_melting_point          111-112deg.C
_cell_formula_units_Z            8
loop_
_atom_site_label
_atom_site_type_symbol
_atom_site_fract_x
_atom_site_fract_y
_atom_site_fract_z
O1 O 0.36432(7) 0.01162(6) 0.83930(10)
O2 O 0.19633(8) -0.17209(5) 0.78616(11)
O3 O 0.14294(13) -0.20057(8) 0.91808(16)
O4 O 0.22435(8) 0.09806(6) 0.64595(11)
H1 H 0.1933 0.1334 0.6073
C1 C 0.15230(14) 0.23190(10) 0.8264(2)
H2 H 0.1241 0.2774 0.7923
H3 H 0.2171 0.2338 0.8546
H4 H 0.1468 0.2195 0.9014
C2 C 0.03810(14) 0.19542(11) 0.59688(19)
H5 H 0.0211 0.2428 0.5765
H6 H 0.0085 0.1609 0.5308
C3 C 0.10385(11) 0.17722(8) 0.71873(16)
C4 C 0.13706(10) 0.10181(8) 0.75867(14)
H7 H 0.1465 0.0944 0.8477
C5 C 0.07160(10) 0.04382(8) 0.66841(15)
H8 H 0.0099 0.0510 0.6540
H9 H 0.0664 0.0454 0.5821
C6 C 0.10958(10) -0.02743(8) 0.73398(15)
H10 H 0.0667 -0.0640 0.6762
H11 H 0.1108 -0.0288 0.8176
C7 C 0.20825(9) -0.04572(8) 0.76388(14)
C8 C 0.20457(12) -0.06547(9) 0.63382(16)
H12 H 0.2656 -0.0797 0.6549
H13 H 0.1843 -0.0251 0.5751
H14 H 0.1615 -0.1039 0.5904
C9 C 0.27438(9) 0.01876(8) 0.82805(13)
C10 C 0.23223(10) 0.09104(8) 0.77283(14)
H15 H 0.2753 0.1275 0.8334
C11 C 0.36333(10) 0.01289(8) 0.96196(15)
C12 C 0.41111(11) 0.07539(10) 1.05289(17)
H16 H 0.4771 0.0668 1.1062
H17 H 0.3873 0.0819 1.1106
H18 H 0.3994 0.1173 0.9998
C13 C 0.39082(11) -0.05726(9) 1.03467(16)
H19 H 0.3718 -0.0580 1.0996
H20 H 0.4582 -0.0619 1.0832
C14 C 0.34722(11) -0.11983(9) 0.94070(17)
H21 H 0.3701 -0.1226 0.8802
H22 H 0.3628 -0.1637 0.9913
C15 C 0.24312(10) -0.10843(8) 0.86278(15)
H23 H 0.2236 -0.1003 0.9270
C16 C 0.15000(11) -0.21291(8) 0.82404(17)
C17 C 0.10656(12) -0.27474(9) 0.73382(18)
H24 H 0.1238 -0.3175 0.7861
H25 H 0.1279 -0.2771 0.6724
H26 H 0.0399 -0.2697 0.6845
loop_
_geom_bond_atom_site_label_1
_geom_bond_atom_site_label_2
_geom_bond_site_symmetry_1
_geom_bond_site_symmetry_2
O1 C9 1_555 1_555
O2 C15 1_555 1_555
O3 C16 1_555 1_555
O4 H1 1_555 1_555
C1 H2 1_555 1_555
H3 C1 1_555 1_555
H4 C1 1_555 1_555
C2 H5 1_555 1_555
H6 C2 1_555 1_555
C3 C1 1_555 1_555
C4 C3 1_555 1_555
H7 C4 1_555 1_555
C5 C4 1_555 1_555
H8 C5 1_555 1_555
H9 C5 1_555 1_555
C6 C5 1_555 1_555
H10 C6 1_555 1_555
H11 C6 1_555 1_555
C7 C6 1_555 1_555
C8 C7 1_555 1_555
H12 C8 1_555 1_555
H13 C8 1_555 1_555
H14 C8 1_555 1_555
C9 C7 1_555 1_555
C10 O4 1_555 1_555
H15 C10 1_555 1_555
C11 O1 1_555 1_555
C12 C11 1_555 1_555
H16 C12 1_555 1_555
H17 C12 1_555 1_555
H18 C12 1_555 1_555
C13 C11 1_555 1_555
H19 C13 1_555 1_555
H20 C13 1_555 1_555
C14 C13 1_555 1_555
H21 C14 1_555 1_555
H22 C14 1_555 1_555
C15 C7 1_555 1_555
H23 C15 1_555 1_555
C16 O2 1_555 1_555
C17 C16 1_555 1_555
H24 C17 1_555 1_555
H25 C17 1_555 1_555
H26 C17 1_555 1_555
C2 C3 1_555 1_555
C4 C10 1_555 1_555
C9 C10 1_555 1_555
C9 C11 1_555 1_555
C14 C15 1_555 1_555

#END
