
#######################################################################
#
#                 Cambridge Crystallographic Data Centre
#                                CCDC 
#
#######################################################################
#
# If this CIF has been generated from an entry in the Cambridge 
# Structural Database, then it will include bibliographic, chemical, 
# crystal, experimental, refinement or atomic coordinate data resulting 
# from the CCDC's data processing and validation procedures.
#
#######################################################################

data_SASNAC
_chemical_formula_moiety         'C11 H13 Br1 O1'
_chemical_name_systematic        
8-Bromo-tetracyclo[8.1.0^1,5^.0^2,9^.0^6,10^]undecane-3-one
_symmetry_cell_setting           triclinic
_symmetry_space_group_name_H-M   'P -1'
_symmetry_Int_Tables_number      2
_space_group_name_Hall           '-P 1'
loop_
_symmetry_equiv_pos_site_id
_symmetry_equiv_pos_as_xyz
1 x,y,z
2 -x,-y,-z
_cell_length_a                   7.2260(14)
_cell_length_b                   7.5716(15)
_cell_length_c                   8.7892(18)
_cell_angle_alpha                91.31(3)
_cell_angle_beta                 104.42(3)
_cell_angle_gamma                95.06(3)
_cell_volume                     463.413
_exptl_crystal_colour            colorless
_exptl_crystal_description       plates
_chemical_melting_point          185-186deg.C
_cell_formula_units_Z            2
loop_
_atom_site_label
_atom_site_type_symbol
_atom_site_fract_x
_atom_site_fract_y
_atom_site_fract_z
Br1 Br 0.41920(4) 0.23517(3) 0.43605(3)
O1 O 0.2046(3) -0.1289(2) 0.8387(2)
C1 C 0.3463(4) 0.1872(3) 0.6357(3)
H1 H 0.362(4) 0.067(4) 0.649(3)
C2 C 0.4690(4) 0.3118(4) 0.7703(3)
H2 H 0.550(4) 0.392(4) 0.734(4)
H3 H 0.543(4) 0.242(4) 0.854(3)
C3 C 0.3252(3) 0.4199(3) 0.8265(3)
H4 H 0.388(4) 0.535(4) 0.862(3)
C4 C 0.1584(3) 0.4254(3) 0.6789(3)
H5 H 0.186(4) 0.508(4) 0.608(3)
C5 C -0.0179(4) 0.4442(4) 0.7403(3)
H6 H -0.139(4) 0.424(4) 0.663(3)
H7 H -0.018(4) 0.554(4) 0.800(3)
C6 C 0.0144(3) 0.2896(3) 0.8486(3)
H8 H -0.075(3) 0.260(3) 0.910(3)
C7 C 0.2234(3) 0.3302(3) 0.9484(3)
H9 H 0.232(4) 0.414(4) 1.040(3)
C8 C 0.2799(4) 0.1464(4) 0.9985(3)
H10 H 0.414(4) 0.140(4) 1.027(3)
H11 H 0.228(4) 0.106(4) 1.083(3)
C9 C 0.1802(4) 0.0260(3) 0.8576(3)
C10 C 0.0430(4) 0.1325(3) 0.7443(3)
H12 H -0.074(4) 0.058(4) 0.696(3)
C11 C 0.1393(4) 0.2295(3) 0.6204(3)
H13 H 0.060(4) 0.206(4) 0.518(4)
loop_
_geom_bond_atom_site_label_1
_geom_bond_atom_site_label_2
_geom_bond_site_symmetry_1
_geom_bond_site_symmetry_2
Br1 C1 1_555 1_555
O1 C9 1_555 1_555
C1 H1 1_555 1_555
C2 C1 1_555 1_555
H2 C2 1_555 1_555
H3 C2 1_555 1_555
C3 C2 1_555 1_555
H4 C3 1_555 1_555
C4 C3 1_555 1_555
H5 C4 1_555 1_555
C5 C4 1_555 1_555
H6 C5 1_555 1_555
H7 C5 1_555 1_555
C6 C5 1_555 1_555
H8 C6 1_555 1_555
C7 C3 1_555 1_555
H9 C7 1_555 1_555
C8 C7 1_555 1_555
H10 C8 1_555 1_555
H11 C8 1_555 1_555
C9 C8 1_555 1_555
C10 C6 1_555 1_555
H12 C10 1_555 1_555
C11 C1 1_555 1_555
H13 C11 1_555 1_555
C4 C11 1_555 1_555
C6 C7 1_555 1_555
C9 C10 1_555 1_555
C10 C11 1_555 1_555

#END
