
#######################################################################
#
#                 Cambridge Crystallographic Data Centre
#                                CCDC 
#
#######################################################################
#
# If this CIF has been generated from an entry in the Cambridge 
# Structural Database, then it will include bibliographic, chemical, 
# crystal, experimental, refinement or atomic coordinate data resulting 
# from the CCDC's data processing and validation procedures.
#
#######################################################################

data_SASPAF
_chemical_formula_moiety         'C28 H8 F14 N4'
_chemical_name_systematic        
2,9-bis(heptafluoropropyl)pyrimido[4',5',6':6,7]-phenaleno[1,2,3-gh]perimidine
_symmetry_cell_setting           triclinic
_symmetry_space_group_name_H-M   'P -1'
_symmetry_Int_Tables_number      2
_space_group_name_Hall           '-P 1'
loop_
_symmetry_equiv_pos_site_id
_symmetry_equiv_pos_as_xyz
1 x,y,z
2 -x,-y,-z
_cell_length_a                   4.905(2)
_cell_length_b                   9.603(5)
_cell_length_c                   13.345(7)
_cell_angle_alpha                110.800(8)
_cell_angle_beta                 91.275(15)
_cell_angle_gamma                101.904(11)
_cell_volume                     571.839
_exptl_crystal_colour            yellow
_exptl_crystal_description       needle
_cell_formula_units_Z            1
loop_
_atom_site_label
_atom_site_type_symbol
_atom_site_fract_x
_atom_site_fract_y
_atom_site_fract_z
F1 F 0.0184(3) 0.85273(16) 0.26684(11)
F2 F -0.1272(3) 0.61619(15) 0.15556(11)
F3 F 0.5062(3) 0.87133(16) 0.16639(11)
F4 F 0.3307(3) 0.64060(16) 0.04909(11)
F5 F 0.0792(3) 0.97292(16) 0.11046(12)
F6 F -0.1251(3) 0.74709(17) 0.00100(11)
F7 F 0.2821(3) 0.85644(18) -0.02502(12)
N1 N 0.4212(4) 0.7867(2) 0.36350(15)
N2 N 0.2890(4) 0.5290(2) 0.23277(15)
C1 C 0.5947(5) 0.7429(3) 0.42039(18)
C2 C 0.7529(5) 0.8517(3) 0.51760(19)
H1 H 0.736(5) 0.955(3) 0.544(2)
C3 C 0.9344(5) 0.8094(3) 0.57286(19)
H2 H 1.040(5) 0.886(3) 0.638(2)
C4 C 0.9736(5) 0.6560(3) 0.53888(18)
C5 C 0.8152(5) 0.5446(2) 0.44275(17)
C6 C 0.6267(5) 0.5902(3) 0.38443(18)
C7 C 0.4643(5) 0.4852(3) 0.28872(18)
C8 C 0.4916(5) 0.3306(3) 0.25087(19)
H3 H 0.381(6) 0.264(3) 0.188(2)
C9 C 0.6698(5) 0.2858(3) 0.30522(19)
H4 H 0.690(6) 0.189(3) 0.282(2)
C10 C 0.8395(5) 0.3899(2) 0.40340(18)
C11 C 0.2855(5) 0.6765(3) 0.27392(18)
C12 C 0.1046(5) 0.7270(3) 0.20491(18)
C13 C 0.2651(5) 0.7668(3) 0.11729(18)
C14 C 0.1201(5) 0.8371(3) 0.05025(19)
F1A F 1.9816(3) 0.14727(16) 0.73316(11)
F2A F 2.1272(3) 0.38381(15) 0.84444(11)
F3A F 1.4938(3) 0.12867(16) 0.83361(11)
F4A F 1.6693(3) 0.35940(16) 0.95091(11)
F5A F 1.9208(3) 0.02708(16) 0.88954(12)
F6A F 2.1251(3) 0.25291(17) 0.99900(11)
F7A F 1.7179(3) 0.14356(18) 1.02502(12)
N1A N 1.5788(4) 0.2133(2) 0.63650(15)
N2A N 1.7110(4) 0.4710(2) 0.76723(15)
C1A C 1.4053(5) 0.2571(3) 0.57961(18)
C2A C 1.2471(5) 0.1483(3) 0.48240(19)
H1A H 1.264(5) 0.045(3) 0.456(2)
C3A C 1.0656(5) 0.1906(3) 0.42714(19)
H2A H 0.960(5) 0.114(3) 0.362(2)
C4A C 1.0264(5) 0.3440(3) 0.46112(18)
C5A C 1.1848(5) 0.4554(2) 0.55725(17)
C6A C 1.3733(5) 0.4098(3) 0.61557(18)
C7A C 1.5357(5) 0.5148(3) 0.71128(18)
C8A C 1.5084(5) 0.6694(3) 0.74913(19)
H3A H 1.619(6) 0.736(3) 0.812(2)
C9A C 1.3302(5) 0.7142(3) 0.69478(19)
H4A H 1.310(6) 0.811(3) 0.718(2)
C10A C 1.1605(5) 0.6101(2) 0.59660(18)
C11A C 1.7145(5) 0.3235(3) 0.72608(18)
C12A C 1.8954(5) 0.2730(3) 0.79509(18)
C13A C 1.7349(5) 0.2332(3) 0.88271(18)
C14A C 1.8799(5) 0.1629(3) 0.94975(19)
loop_
_geom_bond_atom_site_label_1
_geom_bond_atom_site_label_2
_geom_bond_site_symmetry_1
_geom_bond_site_symmetry_2
F1 C12 1_555 1_555
F2 C12 1_555 1_555
F3 C13 1_555 1_555
F4 C13 1_555 1_555
F5 C14 1_555 1_555
F6 C14 1_555 1_555
F7 C14 1_555 1_555
N1 C1 1_555 1_555
N2 C7 1_555 1_555
C1 C2 1_555 1_555
C2 H1 1_555 1_555
C3 C2 1_555 1_555
H2 C3 1_555 1_555
C4 C3 1_555 1_555
C5 C4 1_555 1_555
C6 C1 1_555 1_555
C7 C6 1_555 1_555
C8 C7 1_555 1_555
H3 C8 1_555 1_555
C9 C8 1_555 1_555
H4 C9 1_555 1_555
C10 C5 1_555 1_555
C11 N1 1_555 1_555
C12 C11 1_555 1_555
C13 C12 1_555 1_555
C14 C13 1_555 1_555
F1A C12A 1_555 1_555
F2A C12A 1_555 1_555
F3A C13A 1_555 1_555
F4A C13A 1_555 1_555
F5A C14A 1_555 1_555
F6A C14A 1_555 1_555
F7A C14A 1_555 1_555
N1A C1A 1_555 1_555
N2A C7A 1_555 1_555
C1A C2A 1_555 1_555
C2A H1A 1_555 1_555
C3A C2A 1_555 1_555
H2A C3A 1_555 1_555
C4A C10 1_555 1_555
C5A C4A 1_555 1_555
C6A C1A 1_555 1_555
C7A C6A 1_555 1_555
C8A C7A 1_555 1_555
H3A C8A 1_555 1_555
C9A C8A 1_555 1_555
H4A C9A 1_555 1_555
C10A C4 1_555 1_555
C11A N1A 1_555 1_555
C12A C11A 1_555 1_555
C13A C12A 1_555 1_555
C14A C13A 1_555 1_555
N2 C11 1_555 1_555
C5 C6 1_555 1_555
C9 C10 1_555 1_555
N2A C11A 1_555 1_555
C3A C4A 1_555 1_555
C5A C6A 1_555 1_555
C5A C10A 1_555 1_555
C9A C10A 1_555 1_555

#END
