
#######################################################################
#
#                 Cambridge Crystallographic Data Centre
#                                CCDC 
#
#######################################################################
#
# If this CIF has been generated from an entry in the Cambridge 
# Structural Database, then it will include bibliographic, chemical, 
# crystal, experimental, refinement or atomic coordinate data resulting 
# from the CCDC's data processing and validation procedures.
#
#######################################################################

data_SASPOT
_chemical_formula_moiety         'C20 H22 N2 O3 S1'
_chemical_name_systematic        
2-(1-(((4-Methylphenyl)sulfonyl)(phenyl)methyl)-1H-pyrazol-5-yl)propan-2-ol
_symmetry_cell_setting           triclinic
_symmetry_space_group_name_H-M   'P -1'
_symmetry_Int_Tables_number      2
_space_group_name_Hall           '-P 1'
loop_
_symmetry_equiv_pos_site_id
_symmetry_equiv_pos_as_xyz
1 x,y,z
2 -x,-y,-z
_cell_length_a                   9.653(7)
_cell_length_b                   9.843(7)
_cell_length_c                   11.296(8)
_cell_angle_alpha                85.270(13)
_cell_angle_beta                 79.422(13)
_cell_angle_gamma                65.608(11)
_cell_volume                     960.846
_exptl_crystal_colour            colorless
_exptl_crystal_description       prismatic
_cell_formula_units_Z            2
loop_
_atom_site_label
_atom_site_type_symbol
_atom_site_fract_x
_atom_site_fract_y
_atom_site_fract_z
S1 S 0.52623(6) 0.64635(6) 0.72039(5)
N1 N 0.7362(2) 0.3567(2) 0.70929(15)
N2 N 0.7857(3) 0.3540(2) 0.58847(16)
O1 O 0.4764(2) 0.75843(18) 0.81204(14)
O2 O 0.4205(2) 0.5860(2) 0.69973(17)
O3 O 0.5673(2) 0.30581(19) 0.93432(15)
H1 H 0.5504 0.2952 1.0076
C1 C 0.8262(3) 0.2148(3) 0.5585(2)
H2 H 0.8656 0.1787 0.4805
C2 C 0.8032(3) 0.1281(3) 0.6570(2)
H3 H 0.8239 0.0271 0.6572
C3 C 0.7440(3) 0.2214(2) 0.7535(2)
C4 C 0.7055(3) 0.1848(2) 0.8849(2)
C5 C 0.8323(4) 0.1689(4) 0.9499(3)
H4 H 0.8511 0.2580 0.9389
H5 H 0.9243 0.0852 0.9186
H6 H 0.8033 0.1534 1.0342
C6 C 0.6779(5) 0.0437(4) 0.8958(3)
H7 H 0.6589 0.0184 0.9794
H8 H 0.7673 -0.0362 0.8557
H9 H 0.5902 0.0590 0.8594
C7 C 0.6904(3) 0.4940(2) 0.77448(18)
H10 H 0.6510 0.4738 0.8573
C8 C 0.8178(3) 0.5413(2) 0.78452(19)
C9 C 0.9355(3) 0.5313(3) 0.6893(2)
H11 H 0.9391 0.4922 0.6161
C10 C 1.0466(3) 0.5794(3) 0.7034(3)
H12 H 1.1248 0.5724 0.6392
C11 C 1.0438(3) 0.6375(3) 0.8107(3)
H13 H 1.1197 0.6694 0.8193
C12 C 0.9275(3) 0.6481(3) 0.9055(3)
H14 H 0.9243 0.6879 0.9783
C13 C 0.8161(3) 0.6000(3) 0.8928(2)
H15 H 0.7386 0.6068 0.9575
C14 C 0.5895(2) 0.7200(2) 0.58516(19)
C15 C 0.5714(3) 0.6771(3) 0.4772(2)
H16 H 0.5235 0.6124 0.4765
C16 C 0.6252(3) 0.7318(3) 0.3712(2)
H17 H 0.6121 0.7043 0.2986
C17 C 0.6984(3) 0.8265(3) 0.3700(2)
C18 C 0.7116(3) 0.8703(3) 0.4793(3)
H18 H 0.7583 0.9360 0.4800
C19 C 0.6574(3) 0.8190(3) 0.5868(2)
H19 H 0.6662 0.8503 0.6595
C20 C 0.7649(4) 0.8783(4) 0.2526(3)
H20 H 0.7340 0.8479 0.1869
H21 H 0.8754 0.8350 0.2438
H22 H 0.7277 0.9851 0.2525
loop_
_geom_bond_atom_site_label_1
_geom_bond_atom_site_label_2
_geom_bond_site_symmetry_1
_geom_bond_site_symmetry_2
S1 O1 1_555 1_555
N1 N2 1_555 1_555
N2 C1 1_555 1_555
O2 S1 1_555 1_555
O3 H1 1_555 1_555
C1 H2 1_555 1_555
C2 C1 1_555 1_555
H3 C2 1_555 1_555
C3 N1 1_555 1_555
C4 O3 1_555 1_555
C5 C4 1_555 1_555
H4 C5 1_555 1_555
H5 C5 1_555 1_555
H6 C5 1_555 1_555
C6 C4 1_555 1_555
H7 C6 1_555 1_555
H8 C6 1_555 1_555
H9 C6 1_555 1_555
C7 S1 1_555 1_555
H10 C7 1_555 1_555
C8 C7 1_555 1_555
C9 C8 1_555 1_555
H11 C9 1_555 1_555
C10 C9 1_555 1_555
H12 C10 1_555 1_555
C11 C10 1_555 1_555
H13 C11 1_555 1_555
C12 C11 1_555 1_555
H14 C12 1_555 1_555
C13 C8 1_555 1_555
H15 C13 1_555 1_555
C14 S1 1_555 1_555
C15 C14 1_555 1_555
H16 C15 1_555 1_555
C16 C15 1_555 1_555
H17 C16 1_555 1_555
C17 C16 1_555 1_555
C18 C17 1_555 1_555
H18 C18 1_555 1_555
C19 C14 1_555 1_555
H19 C19 1_555 1_555
C20 C17 1_555 1_555
H20 C20 1_555 1_555
H21 C20 1_555 1_555
H22 C20 1_555 1_555
N1 C7 1_555 1_555
C2 C3 1_555 1_555
C3 C4 1_555 1_555
C12 C13 1_555 1_555
C18 C19 1_555 1_555

#END
