
#######################################################################
#
#                 Cambridge Crystallographic Data Centre
#                                CCDC 
#
#######################################################################
#
# If this CIF has been generated from an entry in the Cambridge 
# Structural Database, then it will include bibliographic, chemical, 
# crystal, experimental, refinement or atomic coordinate data resulting 
# from the CCDC's data processing and validation procedures.
#
#######################################################################

data_SASPUZ
_chemical_formula_moiety         'C13 H14 N2 O1'
_chemical_name_systematic        
5-Isopropylidene-6-phenyl-5,6-dihydropyridazin-4(1H)-one
_symmetry_cell_setting           orthorhombic
_symmetry_space_group_name_H-M   'P n a 21'
_symmetry_Int_Tables_number      33
_space_group_name_Hall           'P 2c -2n'
loop_
_symmetry_equiv_pos_site_id
_symmetry_equiv_pos_as_xyz
1 x,y,z
2 -x,-y,1/2+z
3 1/2-x,1/2+y,1/2+z
4 1/2+x,1/2-y,z
_cell_length_a                   13.6812(18)
_cell_length_b                   12.4567(16)
_cell_length_c                   6.5866(9)
_cell_angle_alpha                90
_cell_angle_beta                 90
_cell_angle_gamma                90
_cell_volume                     1122.51
_exptl_crystal_colour            colorless
_exptl_crystal_description       prismatic
_cell_formula_units_Z            4
loop_
_atom_site_label
_atom_site_type_symbol
_atom_site_fract_x
_atom_site_fract_y
_atom_site_fract_z
C1 C -0.00432(11) 0.11076(12) 0.0915(3)
H1 H 0.0415 0.1049 -0.0163
C2 C -0.09395(12) 0.05739(13) 0.0787(4)
H2 H -0.1087 0.0151 -0.0374
C3 C -0.16112(12) 0.06602(13) 0.2341(4)
H3 H -0.2225 0.0308 0.2242
C4 C -0.13862(12) 0.12649(14) 0.4055(3)
H4 H -0.1844 0.1320 0.5135
C5 C -0.04954(12) 0.17865(13) 0.4184(3)
H5 H -0.0344 0.2193 0.5363
C6 C 0.01814(10) 0.17233(11) 0.2612(3)
C7 C 0.11665(10) 0.23116(11) 0.2813(2)
H6 H 0.1568 0.1936 0.3864
C8 C 0.07543(10) 0.39791(11) 0.0274(3)
H7 H 0.0426 0.4455 -0.0623
C9 C 0.12995(11) 0.30888(12) -0.0623(3)
C10 C 0.17355(10) 0.23317(11) 0.0847(2)
C11 C 0.25565(11) 0.17454(11) 0.0504(3)
C12 C 0.31500(12) 0.18263(13) -0.1408(3)
H8 H 0.2783 0.2233 -0.2429
H9 H 0.3287 0.1104 -0.1926
H10 H 0.3767 0.2195 -0.1118
C13 C 0.29721(12) 0.09873(13) 0.2041(3)
H11 H 0.2569 0.1003 0.3271
H12 H 0.3641 0.1205 0.2377
H13 H 0.2978 0.0258 0.1482
N1 N 0.10067(9) 0.34212(10) 0.3471(2)
H14 H 0.1128 0.3596 0.4741
N2 N 0.06859(9) 0.41668(10) 0.2211(2)
O1 O 0.14028(10) 0.30320(11) -0.2476(2)
loop_
_geom_bond_atom_site_label_1
_geom_bond_atom_site_label_2
_geom_bond_site_symmetry_1
_geom_bond_site_symmetry_2
C1 H1 1_555 1_555
C2 C1 1_555 1_555
H2 C2 1_555 1_555
C3 C2 1_555 1_555
H3 C3 1_555 1_555
C4 C3 1_555 1_555
H4 C4 1_555 1_555
C5 C4 1_555 1_555
H5 C5 1_555 1_555
C6 C1 1_555 1_555
C7 C6 1_555 1_555
H6 C7 1_555 1_555
C8 H7 1_555 1_555
C9 C8 1_555 1_555
C10 C7 1_555 1_555
C11 C10 1_555 1_555
C12 C11 1_555 1_555
H8 C12 1_555 1_555
H9 C12 1_555 1_555
H10 C12 1_555 1_555
C13 C11 1_555 1_555
H11 C13 1_555 1_555
H12 C13 1_555 1_555
H13 C13 1_555 1_555
N1 C7 1_555 1_555
H14 N1 1_555 1_555
N2 C8 1_555 1_555
O1 C9 1_555 1_555
C5 C6 1_555 1_555
C9 C10 1_555 1_555
N1 N2 1_555 1_555

#END
