
#######################################################################
#
#                 Cambridge Crystallographic Data Centre
#                                CCDC 
#
#######################################################################
#
# If this CIF has been generated from an entry in the Cambridge 
# Structural Database, then it will include bibliographic, chemical, 
# crystal, experimental, refinement or atomic coordinate data resulting 
# from the CCDC's data processing and validation procedures.
#
#######################################################################

data_SASROU
_chemical_formula_moiety         'C17 H14 S5'
_chemical_name_systematic        4,5-bis(Benzylthio)-1,3-dithiole-2-thione
_symmetry_cell_setting           orthorhombic
_symmetry_space_group_name_H-M   'P n a 21'
_symmetry_Int_Tables_number      33
_space_group_name_Hall           'P 2c -2n'
loop_
_symmetry_equiv_pos_site_id
_symmetry_equiv_pos_as_xyz
1 x,y,z
2 -x,-y,1/2+z
3 1/2-x,1/2+y,1/2+z
4 1/2+x,1/2-y,z
_cell_length_a                   13.415(4)
_cell_length_b                   22.432(5)
_cell_length_c                   5.594(2)
_cell_angle_alpha                90
_cell_angle_beta                 90
_cell_angle_gamma                90
_cell_volume                     1683.38
_chemical_melting_point          '182-184 deg.C'
_cell_formula_units_Z            4
loop_
_atom_site_label
_atom_site_type_symbol
_atom_site_fract_x
_atom_site_fract_y
_atom_site_fract_z
S1 S 0.3098(1) 0.1867(1) 0.0329(1)
S2 S 0.3462(1) 0.2697(1) 0.4295(1)
S3 S 0.1451(1) 0.2432(1) 0.3049(1)
S4 S 0.2864(1) 0.3496(1) 0.8433(1)
S5 S 0.0586(1) 0.3116(1) 0.7169(1)
C1 C 0.2684(1) 0.2309(1) 0.2431(3)
C2 C 0.2559(1) 0.3040(1) 0.6052(3)
C3 C 0.1612(1) 0.2906(1) 0.5450(3)
C4 C 0.4202(1) 0.3462(1) 0.8539(3)
C5 C 0.5892(2) 0.4417(1) 0.3372(5)
C6 C 0.4764(1) 0.3811(1) 0.6671(3)
C7 C 0.6344(1) 0.4059(1) 0.4986(5)
C8 C 0.5787(1) 0.3762(1) 0.6645(4)
C9 C 0.4874(2) 0.4467(1) 0.3397(4)
C10 C 0.4318(1) 0.4174(1) 0.5024(4)
C11 C 0.0025(1) 0.3687(1) 0.5266(3)
C12 C 0.0686(1) 0.4207(1) 0.4869(3)
C13 C 0.0734(1) 0.4661(1) 0.6529(3)
C14 C 0.1361(1) 0.5140(1) 0.6153(4)
C15 C 0.1934(1) 0.5177(1) 0.4154(4)
C16 C 0.1890(1) 0.4726(1) 0.2506(3)
C17 C 0.1262(1) 0.4242(1) 0.2841(3)
loop_
_geom_bond_atom_site_label_1
_geom_bond_atom_site_label_2
_geom_bond_site_symmetry_1
_geom_bond_site_symmetry_2
S1 C1 1_555 1_555
S2 C1 1_555 1_555
S3 C1 1_555 1_555
S4 C2 1_555 1_555
S5 C3 1_555 1_555
C2 S2 1_555 1_555
C3 S3 1_555 1_555
C4 S4 1_555 1_555
C5 C7 1_555 1_555
C6 C4 1_555 1_555
C7 C8 1_555 1_555
C8 C6 1_555 1_555
C9 C5 1_555 1_555
C10 C6 1_555 1_555
C11 S5 1_555 1_555
C12 C11 1_555 1_555
C13 C12 1_555 1_555
C14 C13 1_555 1_555
C15 C14 1_555 1_555
C16 C15 1_555 1_555
C17 C12 1_555 1_555
C2 C3 1_555 1_555
C9 C10 1_555 1_555
C16 C17 1_555 1_555

#END
