
#######################################################################
#
#                 Cambridge Crystallographic Data Centre
#                                CCDC 
#
#######################################################################
#
# If this CIF has been generated from an entry in the Cambridge 
# Structural Database, then it will include bibliographic, chemical, 
# crystal, experimental, refinement or atomic coordinate data resulting 
# from the CCDC's data processing and validation procedures.
#
#######################################################################

data_SASSOV
_chemical_formula_moiety         'C11 H15 N1 O5 S1'
_chemical_name_systematic        
2Z-((1,3)-Dioxolan-2-ylmethylene)-3,3-dimethyl-4,4-dioxo-4-thia-1-azabicyclo(3.2.0)heptane-7-one
_symmetry_cell_setting           orthorhombic
_symmetry_space_group_name_H-M   'P 21 21 21'
_symmetry_Int_Tables_number      19
_space_group_name_Hall           'P 2ac 2ab'
loop_
_symmetry_equiv_pos_site_id
_symmetry_equiv_pos_as_xyz
1 x,y,z
2 1/2-x,-y,1/2+z
3 1/2+x,1/2-y,-z
4 -x,1/2+y,1/2-z
_cell_length_a                   8.2835(3)
_cell_length_b                   8.7673(5)
_cell_length_c                   17.6458(10)
_cell_angle_alpha                90
_cell_angle_beta                 90
_cell_angle_gamma                90
_cell_volume                     1281.51
_cell_formula_units_Z            4
loop_
_atom_site_label
_atom_site_type_symbol
_atom_site_fract_x
_atom_site_fract_y
_atom_site_fract_z
S1 S 0.8494(1) 0.2955(1) 0.4068(1)
C1 C 0.6897(3) 0.2684(3) 0.3362(1)
C2 C 0.7861(3) 0.2468(3) 0.2637(1)
N1 N 0.9440(2) 0.1920(3) 0.2807(1)
C3 C 0.9830(3) 0.1640(3) 0.3608(1)
C4 C 1.1564(3) 0.2192(4) 0.3463(2)
C5 C 1.0964(3) 0.2558(3) 0.2661(2)
O1 O 1.1483(3) 0.3167(3) 0.2105(1)
O2 O 0.9139(3) 0.4459(2) 0.3975(1)
O3 O 0.8006(3) 0.2460(3) 0.4806(1)
C6 C 0.5797(4) 0.4072(4) 0.3364(2)
C7 C 0.5969(4) 0.1233(4) 0.3551(2)
C8 C 0.7310(3) 0.2697(3) 0.1944(1)
C9 C 0.8153(3) 0.2267(3) 0.1235(1)
O4 O 0.8392(3) 0.3543(2) 0.0761(1)
C10 C 0.8098(5) 0.3059(5) 0.0007(2)
C11 C 0.7671(5) 0.1437(5) 0.0063(2)
O5 O 0.7171(3) 0.1256(2) 0.0827(1)
H1 H 0.9732 0.0577 0.3774
H2 H 1.1878 0.3078 0.3757
H3 H 1.2375 0.1396 0.3486
H4 H 0.5296 0.4169 0.3853
H5 H 0.4980 0.3953 0.2983
H6 H 0.6421 0.4970 0.3259
H7 H 0.6708 0.0392 0.3586
H8 H 0.5192 0.1032 0.3160
H9 H 0.5422 0.1359 0.4027
H10 H 0.6309 0.3168 0.1897
H11 H 0.9190 0.1785 0.1353
H12 H 0.9054 0.3194 -0.0303
H13 H 0.7219 0.3637 -0.0215
H14 H 0.6803 0.1184 -0.0284
H15 H 0.8595 0.0795 -0.0049
loop_
_geom_bond_atom_site_label_1
_geom_bond_atom_site_label_2
_geom_bond_site_symmetry_1
_geom_bond_site_symmetry_2
S1 C1 1_555 1_555
C1 C2 1_555 1_555
C2 N1 1_555 1_555
N1 C3 1_555 1_555
C3 S1 1_555 1_555
C4 C3 1_555 1_555
C5 N1 1_555 1_555
O1 C5 1_555 1_555
O2 S1 1_555 1_555
O3 S1 1_555 1_555
C6 C1 1_555 1_555
C7 C1 1_555 1_555
C8 C2 1_555 1_555
C9 C8 1_555 1_555
O4 C9 1_555 1_555
C10 O4 1_555 1_555
C11 C10 1_555 1_555
O5 C9 1_555 1_555
H1 C3 1_555 1_555
H2 C4 1_555 1_555
H3 C4 1_555 1_555
H4 C6 1_555 1_555
H5 C6 1_555 1_555
H6 C6 1_555 1_555
H7 C7 1_555 1_555
H8 C7 1_555 1_555
H9 C7 1_555 1_555
H10 C8 1_555 1_555
H11 C9 1_555 1_555
H12 C10 1_555 1_555
H13 C10 1_555 1_555
H14 C11 1_555 1_555
H15 C11 1_555 1_555
C4 C5 1_555 1_555
C11 O5 1_555 1_555

#END
