
#######################################################################
#
#                 Cambridge Crystallographic Data Centre
#                                CCDC 
#
#######################################################################
#
# If this CIF has been generated from an entry in the Cambridge 
# Structural Database, then it will include bibliographic, chemical, 
# crystal, experimental, refinement or atomic coordinate data resulting 
# from the CCDC's data processing and validation procedures.
#
#######################################################################

data_SASYAP
_chemical_compound_source        'whole plant of Caryopteris nepetaefolia'
_chemical_name_common            'Nepetaefolin C'
_chemical_formula_moiety         'C20 H32 O4'
_chemical_name_systematic        
(1R,2S,5S,6S,7S,12S)-6-(hydroxymethyl)-12-isopropyl-2,6-dimethyl-13,14-dioxatetracyclo[10.2.2.0^1,10^.0^2,7^]hexadec-10-en-5-ol
_symmetry_cell_setting           orthorhombic
_symmetry_space_group_name_H-M   'P 21 21 21'
_symmetry_Int_Tables_number      19
_space_group_name_Hall           'P 2ac 2ab'
loop_
_symmetry_equiv_pos_site_id
_symmetry_equiv_pos_as_xyz
1 x,y,z
2 1/2+x,1/2-y,-z
3 -x,1/2+y,1/2-z
4 1/2-x,-y,1/2+z
_cell_length_a                   10.4472(6)
_cell_length_b                   13.1345(7)
_cell_length_c                   13.1746(9)
_cell_angle_alpha                90
_cell_angle_beta                 90
_cell_angle_gamma                90
_cell_volume                     1807.8
_exptl_crystal_colour            colorless
_exptl_crystal_description       block
_chemical_melting_point          '148.3-149.6 deg.C'
_cell_formula_units_Z            4
loop_
_atom_site_label
_atom_site_type_symbol
_atom_site_fract_x
_atom_site_fract_y
_atom_site_fract_z
O1 O -0.1774(2) -0.70648(14) -1.0066(2)
O2 O -0.4324(2) -0.70355(15) -1.0200(2)
H1 H -0.3649 -0.7344 -1.0280
O3 O -0.17161(16) -0.20708(11) -0.96632(12)
O4 O -0.15033(16) -0.10730(11) -0.91586(14)
C1 C -0.1043(2) -0.42596(17) -0.99914(19)
H2 H -0.0679 -0.3804 -1.0494
H3 H -0.0450 -0.4298 -0.9426
C2 C -0.1192(2) -0.53148(18) -1.0457(2)
H4 H -0.1775 -0.5282 -1.1029
H5 H -0.0369 -0.5553 -1.0702
C3 C -0.1706(2) -0.60468(15) -0.96727(19)
H6 H -0.1113 -0.6049 -0.9096
C4 C -0.30435(19) -0.57512(15) -0.92721(16)
C5 C -0.30219(18) -0.46030(14) -0.89242(15)
H7 H -0.2545 -0.4600 -0.8284
C6 C -0.4367(2) -0.42168(17) -0.86502(19)
H8 H -0.4892 -0.4228 -0.9258
H9 H -0.4746 -0.4685 -0.8167
C7 C -0.4409(2) -0.31698(17) -0.8210(2)
H10 H -0.4541 -0.3233 -0.7484
H11 H -0.5152 -0.2825 -0.8486
C8 C -0.32662(18) -0.25001(15) -0.83770(16)
C9 C -0.20824(17) -0.28575(14) -0.89393(15)
C10 C -0.23221(17) -0.38167(15) -0.96151(15)
C11 C -0.0981(2) -0.29123(16) -0.81642(18)
H12 H -0.1155 -0.3441 -0.7669
H13 H -0.0187 -0.3080 -0.8508
C12 C -0.0851(2) -0.18838(18) -0.76303(19)
H14 H -0.1013 -0.1964 -0.6910
H15 H 0.0012 -0.1625 -0.7715
C13 C -0.1807(2) -0.11365(16) -0.80845(18)
C14 C -0.3118(2) -0.15856(17) -0.79718(19)
H16 H -0.3779 -0.1247 -0.7641
C15 C -0.1646(2) -0.00440(19) -0.7692(3)
H17 H -0.0747 0.0147 -0.7787
C16 C -0.1938(3) 0.0021(3) -0.6552(3)
H18 H -0.2797 -0.0208 -0.6430
H19 H -0.1851 0.0713 -0.6329
H20 H -0.1350 -0.0403 -0.6185
C17 C -0.2456(4) 0.0716(2) -0.8277(4)
H21 H -0.3346 0.0575 -0.8163
H22 H -0.2270 0.0661 -0.8988
H23 H -0.2263 0.1393 -0.8048
C18 C -0.3319(3) -0.63907(17) -0.8321(2)
H24 H -0.2720 -0.6215 -0.7797
H25 H -0.3235 -0.7100 -0.8483
H26 H -0.4174 -0.6257 -0.8090
C19 C -0.4067(2) -0.59790(18) -1.0083(2)
H27 H -0.4854 -0.5633 -0.9899
H28 H -0.3783 -0.5705 -1.0729
C20 C -0.3140(3) -0.35060(19) -1.05347(17)
H29 H -0.3876 -0.3134 -1.0306
H30 H -0.3413 -0.4105 -1.0892
H31 H -0.2641 -0.3085 -1.0980
H32 H -0.106(3) -0.735(2) -1.007(3)
loop_
_geom_bond_atom_site_label_1
_geom_bond_atom_site_label_2
_geom_bond_site_symmetry_1
_geom_bond_site_symmetry_2
O1 C3 1_555 1_555
O2 H1 1_555 1_555
O3 O4 1_555 1_555
O4 C13 1_555 1_555
C1 H2 1_555 1_555
H3 C1 1_555 1_555
C2 C1 1_555 1_555
H4 C2 1_555 1_555
H5 C2 1_555 1_555
C3 C2 1_555 1_555
H6 C3 1_555 1_555
C4 C3 1_555 1_555
C5 C4 1_555 1_555
H7 C5 1_555 1_555
C6 C5 1_555 1_555
H8 C6 1_555 1_555
H9 C6 1_555 1_555
C7 C6 1_555 1_555
H10 C7 1_555 1_555
H11 C7 1_555 1_555
C8 C7 1_555 1_555
C9 O3 1_555 1_555
C10 C1 1_555 1_555
C11 C9 1_555 1_555
H12 C11 1_555 1_555
H13 C11 1_555 1_555
C12 C11 1_555 1_555
H14 C12 1_555 1_555
H15 C12 1_555 1_555
C13 C12 1_555 1_555
C14 C8 1_555 1_555
H16 C14 1_555 1_555
C15 C13 1_555 1_555
H17 C15 1_555 1_555
C16 C15 1_555 1_555
H18 C16 1_555 1_555
H19 C16 1_555 1_555
H20 C16 1_555 1_555
C17 C15 1_555 1_555
H21 C17 1_555 1_555
H22 C17 1_555 1_555
H23 C17 1_555 1_555
C18 C4 1_555 1_555
H24 C18 1_555 1_555
H25 C18 1_555 1_555
H26 C18 1_555 1_555
C19 O2 1_555 1_555
H27 C19 1_555 1_555
H28 C19 1_555 1_555
C20 C10 1_555 1_555
H29 C20 1_555 1_555
H30 C20 1_555 1_555
H31 C20 1_555 1_555
H32 O1 1_555 1_555
C4 C19 1_555 1_555
C5 C10 1_555 1_555
C8 C9 1_555 1_555
C9 C10 1_555 1_555
C13 C14 1_555 1_555

#END
