
#######################################################################
#
#                 Cambridge Crystallographic Data Centre
#                                CCDC 
#
#######################################################################
#
# If this CIF has been generated from an entry in the Cambridge 
# Structural Database, then it will include bibliographic, chemical, 
# crystal, experimental, refinement or atomic coordinate data resulting 
# from the CCDC's data processing and validation procedures.
#
#######################################################################

data_SATFOI
_chemical_formula_moiety         'C24 H17 P1 S1'
_chemical_name_systematic        4-Diphenylphosphino-dibenzothiophene
_symmetry_cell_setting           triclinic
_symmetry_space_group_name_H-M   'P -1'
_symmetry_Int_Tables_number      2
_space_group_name_Hall           '-P 1'
loop_
_symmetry_equiv_pos_site_id
_symmetry_equiv_pos_as_xyz
1 x,y,z
2 -x,-y,-z
_cell_length_a                   10.218(1)
_cell_length_b                   10.257(1)
_cell_length_c                   9.577(1)
_cell_angle_alpha                90.11(1)
_cell_angle_beta                 110.37(1)
_cell_angle_gamma                92.68(1)
_cell_volume                     939.752
_exptl_crystal_colour            colorless
_cell_formula_units_Z            2
loop_
_atom_site_label
_atom_site_type_symbol
_atom_site_fract_x
_atom_site_fract_y
_atom_site_fract_z
S1 S 0.55052(7) 0.84945(7) 0.92273(8)
P1 P 0.37058(7) 0.79074(7) 0.56742(8)
C1 C 0.5605(3) 0.7773(2) 0.6447(3)
C2 C 0.6434(3) 0.7478(3) 0.5612(4)
C3 C 0.7887(3) 0.7513(3) 0.6248(4)
C4 C 0.8561(3) 0.7841(3) 0.7725(4)
C5 C 0.7774(3) 0.8140(3) 0.8610(3)
C6 C 0.6311(3) 0.8093(2) 0.7953(3)
C7 C 0.7126(3) 0.8765(3) 1.0645(3)
C8 C 0.8247(3) 0.8539(3) 1.0163(3)
C9 C 0.9606(3) 0.8715(3) 1.1187(4)
C10 C 0.9817(4) 0.9103(3) 1.2635(4)
C11 C 0.8691(4) 0.9334(3) 1.3073(4)
C12 C 0.7344(3) 0.9159(3) 1.2105(3)
C13 C 0.3053(3) 0.6503(3) 0.6461(3)
C14 C 0.3864(3) 0.5496(3) 0.7187(4)
C15 C 0.3287(4) 0.4459(3) 0.7733(4)
C16 C 0.1890(4) 0.4411(3) 0.7551(4)
C17 C 0.1072(4) 0.5409(4) 0.6839(4)
C18 C 0.1652(3) 0.6457(3) 0.6319(4)
C19 C 0.3298(3) 0.7399(3) 0.3734(3)
C20 C 0.3443(3) 0.8349(3) 0.2756(3)
C21 C 0.3168(3) 0.8052(4) 0.1272(4)
C22 C 0.2736(4) 0.6803(4) 0.0742(4)
C23 C 0.2560(4) 0.5859(4) 0.1680(4)
C24 C 0.2846(3) 0.6149(3) 0.3171(4)
H1 H 0.597(3) 0.727(3) 0.458(4)
H2 H 0.837(3) 0.726(3) 0.557(3)
H3 H 0.958(3) 0.785(3) 0.812(3)
H4 H 1.035(3) 0.864(3) 1.090(3)
H5 H 1.079(4) 0.926(3) 1.335(4)
H6 H 0.877(3) 0.958(3) 1.405(4)
H7 H 0.661(3) 0.928(3) 1.244(3)
H8 H 0.484(4) 0.550(3) 0.736(4)
H9 H 0.393(4) 0.387(3) 0.833(4)
H10 H 0.144(4) 0.371(4) 0.784(4)
H11 H 0.007(4) 0.544(3) 0.664(4)
H12 H 0.109(4) 0.711(3) 0.576(4)
H13 H 0.374(3) 0.923(3) 0.310(3)
H14 H 0.322(4) 0.873(4) 0.060(4)
H15 H 0.247(3) 0.663(3) -0.025(4)
H16 H 0.220(4) 0.497(4) 0.133(4)
H17 H 0.269(3) 0.547(3) 0.382(4)
loop_
_geom_bond_atom_site_label_1
_geom_bond_atom_site_label_2
_geom_bond_site_symmetry_1
_geom_bond_site_symmetry_2
S1 C6 1_555 1_555
P1 C1 1_555 1_555
C1 C2 1_555 1_555
C2 C3 1_555 1_555
C3 C4 1_555 1_555
C4 C5 1_555 1_555
C5 C6 1_555 1_555
C6 C1 1_555 1_555
C7 S1 1_555 1_555
C8 C5 1_555 1_555
C9 C8 1_555 1_555
C10 C9 1_555 1_555
C11 C10 1_555 1_555
C12 C7 1_555 1_555
C13 P1 1_555 1_555
C14 C13 1_555 1_555
C15 C14 1_555 1_555
C16 C15 1_555 1_555
C17 C16 1_555 1_555
C18 C13 1_555 1_555
C19 P1 1_555 1_555
C20 C19 1_555 1_555
C21 C20 1_555 1_555
C22 C21 1_555 1_555
C23 C22 1_555 1_555
C24 C19 1_555 1_555
H1 C2 1_555 1_555
H2 C3 1_555 1_555
H3 C4 1_555 1_555
H4 C9 1_555 1_555
H5 C10 1_555 1_555
H6 C11 1_555 1_555
H7 C12 1_555 1_555
H8 C14 1_555 1_555
H9 C15 1_555 1_555
H10 C16 1_555 1_555
H11 C17 1_555 1_555
H12 C18 1_555 1_555
H13 C20 1_555 1_555
H14 C21 1_555 1_555
H15 C22 1_555 1_555
H16 C23 1_555 1_555
H17 C24 1_555 1_555
C7 C8 1_555 1_555
C11 C12 1_555 1_555
C17 C18 1_555 1_555
C23 C24 1_555 1_555

#END
