
#######################################################################
#
#                 Cambridge Crystallographic Data Centre
#                                CCDC 
#
#######################################################################
#
# If this CIF has been generated from an entry in the Cambridge 
# Structural Database, then it will include bibliographic, chemical, 
# crystal, experimental, refinement or atomic coordinate data resulting 
# from the CCDC's data processing and validation procedures.
#
#######################################################################

data_SATGOJ
_chemical_formula_moiety         'C19 H21 Cl2 N3 O3,0.34(C4 H8 O2)'
_chemical_name_systematic        
'Ethyl (Z)-(3-(3-(3,5-dichloro-2,4,6-trimethylphenyl)isoxazol-4-yl)-2-butenylidene)carbazate ethyl acetate solvate'
_symmetry_cell_setting           monoclinic
_symmetry_space_group_name_H-M   'P 21/c'
_symmetry_Int_Tables_number      14
_space_group_name_Hall           '-P 2ybc'
loop_
_symmetry_equiv_pos_site_id
_symmetry_equiv_pos_as_xyz
1 x,y,z
2 -x,1/2+y,1/2-z
3 -x,-y,-z
4 x,1/2-y,1/2+z
_cell_length_a                   8.230(5)
_cell_length_b                   35.82(1)
_cell_length_c                   8.042(2)
_cell_angle_alpha                90
_cell_angle_beta                 103.11(3)
_cell_angle_gamma                90
_cell_volume                     2308.98
_exptl_crystal_colour            colorless
_exptl_crystal_description       'thin plate'
_cell_formula_units_Z            4
_exptl_crystal_recrystallization_method 'ethyl acetate/light petroleum ether'
loop_
_atom_site_label
_atom_site_type_symbol
_atom_site_fract_x
_atom_site_fract_y
_atom_site_fract_z
O1 O 0.2756(6) 0.1471(1) -0.1837(4)
N1 N 0.3465(6) 0.1118(1) -0.1460(5)
C1 C 0.3725(6) 0.1077(1) 0.0191(6)
C2 C 0.3226(6) 0.1400(1) 0.0982(6)
C3 C 0.2631(7) 0.1631(1) -0.0342(6)
C4 C 0.4443(6) 0.0732(1) 0.1031(6)
C5 C 0.3418(7) 0.0416(1) 0.1035(6)
C6 C 0.4146(8) 0.0102(1) 0.1905(7)
C7 C 0.5804(8) 0.0083(1) 0.2754(7)
C8 C 0.6754(7) 0.0398(2) 0.2693(6)
C9 C 0.6148(7) 0.0724(2) 0.1859(6)
C10 C 0.1594(8) 0.0423(2) 0.0182(7)
Cl1 Cl 0.2879(3) -0.02854(4) 0.1949(2)
C11 C 0.6516(9) -0.0272(2) 0.3725(8)
Cl2 Cl 0.8862(2) 0.03848(5) 0.3723(2)
C12 C 0.7254(8) 0.1040(2) 0.1779(8)
C13 C 0.3321(6) 0.1473(2) 0.2824(6)
C14 C 0.2632(8) 0.1177(2) 0.3778(7)
C15 C 0.4000(6) 0.1788(1) 0.3574(6)
C16 C 0.4746(6) 0.2080(2) 0.2752(6)
N2 N 0.5274(5) 0.2379(1) 0.3528(5)
N3 N 0.5946(6) 0.2632(1) 0.2579(5)
C17 C 0.6573(7) 0.2953(2) 0.3279(7)
O2 O 0.6620(6) 0.3051(1) 0.4718(5)
O3 O 0.7142(5) 0.3156(1) 0.2142(5)
C18 C 0.813(3) 0.3491(3) 0.281(1)
C20 C 0.816(2) 0.3713(3) 0.146(1)
H1 H 0.21940 0.18880 -0.02218
H2 H 0.12100 0.06680 -0.04660
H3 H 0.09332 0.03904 0.10729
H4 H 0.13616 0.02131 -0.06491
H5 H 0.57950 -0.03470 0.44720
H6 H 0.76756 -0.02088 0.44699
H7 H 0.66489 -0.04706 0.29216
H8 H 0.78440 0.11100 0.29530
H9 H 0.65480 0.12530 0.12322
H10 H 0.80130 0.10000 0.11120
H11 H 0.26150 0.13020 0.48580
H12 H 0.32120 0.09380 0.38850
H13 H 0.14627 0.11321 0.31471
H14 H 0.40000 0.18220 0.48130
H15 H 0.48430 0.20450 0.15430
H16 H 0.59690 0.25760 0.13740
H17 H 0.93139 0.34134 0.34745
H18 H 0.76205 0.36214 0.37265
H21 H 0.88207 0.39406 0.18974
H22 H 0.69838 0.37937 0.08165
H23 H 0.86772 0.35857 0.05645
C19? C 0.737(4) 0.3556(6) 0.259(2)
H19? H 0.81057 0.35895 0.37849
H20? H 0.62765 0.36844 0.25724
H24? H 0.83045 0.39888 0.17098
H25? H 0.74161 0.36914 0.02252
H26? H 0.92453 0.35965 0.14377
loop_
_geom_bond_atom_site_label_1
_geom_bond_atom_site_label_2
_geom_bond_site_symmetry_1
_geom_bond_site_symmetry_2
O1 N1 1_555 1_555
N1 C1 1_555 1_555
C1 C2 1_555 1_555
C2 C3 1_555 1_555
C3 O1 1_555 1_555
C4 C1 1_555 1_555
C5 C4 1_555 1_555
C6 C5 1_555 1_555
C7 C6 1_555 1_555
C8 C7 1_555 1_555
C9 C4 1_555 1_555
C10 C5 1_555 1_555
Cl1 C6 1_555 1_555
C11 C7 1_555 1_555
Cl2 C8 1_555 1_555
C12 C9 1_555 1_555
C13 C2 1_555 1_555
C14 C13 1_555 1_555
C15 C13 1_555 1_555
C16 C15 1_555 1_555
N2 C16 1_555 1_555
N3 N2 1_555 1_555
C17 N3 1_555 1_555
O2 C17 1_555 1_555
O3 C17 1_555 1_555
C18 O3 1_555 1_555
C20 C18 1_555 1_555
H1 C3 1_555 1_555
H2 C10 1_555 1_555
H3 C10 1_555 1_555
H4 C10 1_555 1_555
H5 C11 1_555 1_555
H6 C11 1_555 1_555
H7 C11 1_555 1_555
H8 C12 1_555 1_555
H9 C12 1_555 1_555
H10 C12 1_555 1_555
H11 C14 1_555 1_555
H12 C14 1_555 1_555
H13 C14 1_555 1_555
H14 C15 1_555 1_555
H15 C16 1_555 1_555
H16 N3 1_555 1_555
H17 C18 1_555 1_555
H18 C18 1_555 1_555
H21 C20 1_555 1_555
H22 C20 1_555 1_555
H23 C20 1_555 1_555
C8 C9 1_555 1_555

#END
