
#######################################################################
#
#                 Cambridge Crystallographic Data Centre
#                                CCDC 
#
#######################################################################
#
# If this CIF has been generated from an entry in the Cambridge 
# Structural Database, then it will include bibliographic, chemical, 
# crystal, experimental, refinement or atomic coordinate data resulting 
# from the CCDC's data processing and validation procedures.
#
#######################################################################

data_SATJED
_chemical_formula_moiety         'C14 H30 N4 S2'
_chemical_name_systematic        N,N'-bis(2-(Diethylamino)ethyl)dithio-oxamide
_symmetry_cell_setting           monoclinic
_symmetry_space_group_name_H-M   'P 21/c'
_symmetry_Int_Tables_number      14
_space_group_name_Hall           '-P 2ybc'
loop_
_symmetry_equiv_pos_site_id
_symmetry_equiv_pos_as_xyz
1 x,y,z
2 -x,1/2+y,1/2-z
3 -x,-y,-z
4 x,1/2-y,1/2+z
_cell_length_a                   7.264(4)
_cell_length_b                   5.317(3)
_cell_length_c                   24.239(15)
_cell_angle_alpha                90
_cell_angle_beta                 93.158(10)
_cell_angle_gamma                90
_cell_volume                     934.754
_exptl_crystal_colour            orange
_exptl_crystal_description       prism
_chemical_melting_point          '322 K'
_cell_formula_units_Z            2
_exptl_crystal_recrystallization_method n-hexane
loop_
_atom_site_label
_atom_site_type_symbol
_atom_site_fract_x
_atom_site_fract_y
_atom_site_fract_z
S1 S 0.2195(2) 0.5434(3) 1.06257(6)
N1 N 0.1238(5) 0.7289(8) 0.96547(18)
H1 H 0.040(7) 0.732(9) 0.933(2)
N2 N 0.2648(5) 0.9283(8) 0.86445(18)
C1 C 0.0879(6) 0.5765(9) 1.0056(2)
C2 C 0.2814(7) 0.8948(10) 0.9652(2)
H2 H 0.3936 0.7967 0.9639
H3 H 0.2889 0.9948 0.9987
C3 C 0.2619(7) 1.0650(10) 0.9155(2)
H4 H 0.1468 1.1570 0.9164
H5 H 0.3618 1.1864 0.9172
C4 C 0.4603(7) 0.8907(11) 0.8499(2)
H6 H 0.5053 1.0445 0.8339
H7 H 0.5355 0.8567 0.8834
C5 C 0.4813(9) 0.6809(12) 0.8105(3)
H8 H 0.6097 0.6565 0.8046
H9 H 0.4166 0.7207 0.7760
H10 H 0.4313 0.5298 0.8253
C6 C 0.1583(8) 1.0509(13) 0.8189(3)
H11 H 0.2032 0.9934 0.7841
H12 H 0.1778 1.2311 0.8212
C7 C -0.0415(8) 0.9981(15) 0.8196(3)
H13 H -0.1033 1.0665 0.7869
H14 H -0.0900 1.0739 0.8517
H15 H -0.0609 0.8196 0.8206
S1B S -0.2195(2) 0.4566(3) 0.93743(6)
N1B N -0.1238(5) 0.2711(8) 1.03453(18)
H1B H -0.040(7) 0.268(9) 1.067(2)
N2B N -0.2648(5) 0.0717(8) 1.13555(18)
C1B C -0.0879(6) 0.4235(9) 0.9944(2)
C2B C -0.2814(7) 0.1052(10) 1.0348(2)
H2B H -0.3936 0.2033 1.0361
H3B H -0.2889 0.0052 1.0013
C3B C -0.2619(7) -0.0650(10) 1.0845(2)
H4B H -0.1468 -0.1570 1.0836
H5B H -0.3618 -0.1864 1.0828
C4B C -0.4603(7) 0.1093(11) 1.1501(2)
H6B H -0.5053 -0.0445 1.1661
H7B H -0.5355 0.1433 1.1166
C5B C -0.4813(9) 0.3191(12) 1.1895(3)
H8B H -0.6097 0.3435 1.1954
H9B H -0.4166 0.2793 1.2240
H10B H -0.4313 0.4702 1.1747
C6B C -0.1583(8) -0.0509(13) 1.1811(3)
H11B H -0.2032 0.0066 1.2159
H12B H -0.1778 -0.2311 1.1788
C7B C 0.0415(8) 0.0019(15) 1.1804(3)
H13B H 0.1033 -0.0665 1.2131
H14B H 0.0900 -0.0739 1.1483
H15B H 0.0609 0.1804 1.1794
loop_
_geom_bond_atom_site_label_1
_geom_bond_atom_site_label_2
_geom_bond_site_symmetry_1
_geom_bond_site_symmetry_2
S1 C1 1_555 1_555
N1 H1 1_555 1_555
N2 C3 1_555 1_555
C1 N1 1_555 1_555
C2 N1 1_555 1_555
H2 C2 1_555 1_555
H3 C2 1_555 1_555
C3 C2 1_555 1_555
H4 C3 1_555 1_555
H5 C3 1_555 1_555
C4 N2 1_555 1_555
H6 C4 1_555 1_555
H7 C4 1_555 1_555
C5 C4 1_555 1_555
H8 C5 1_555 1_555
H9 C5 1_555 1_555
H10 C5 1_555 1_555
C6 N2 1_555 1_555
H11 C6 1_555 1_555
H12 C6 1_555 1_555
C7 C6 1_555 1_555
H13 C7 1_555 1_555
H14 C7 1_555 1_555
H15 C7 1_555 1_555
S1B C1B 1_555 1_555
N1B H1B 1_555 1_555
N2B C3B 1_555 1_555
C1B C1 1_555 1_555
C2B N1B 1_555 1_555
H2B C2B 1_555 1_555
H3B C2B 1_555 1_555
C3B C2B 1_555 1_555
H4B C3B 1_555 1_555
H5B C3B 1_555 1_555
C4B N2B 1_555 1_555
H6B C4B 1_555 1_555
H7B C4B 1_555 1_555
C5B C4B 1_555 1_555
H8B C5B 1_555 1_555
H9B C5B 1_555 1_555
H10B C5B 1_555 1_555
C6B N2B 1_555 1_555
H11B C6B 1_555 1_555
H12B C6B 1_555 1_555
C7B C6B 1_555 1_555
H13B C7B 1_555 1_555
H14B C7B 1_555 1_555
H15B C7B 1_555 1_555
N1B C1B 1_555 1_555

#END
