
#######################################################################
#
#                 Cambridge Crystallographic Data Centre
#                                CCDC 
#
#######################################################################
#
# If this CIF has been generated from an entry in the Cambridge 
# Structural Database, then it will include bibliographic, chemical, 
# crystal, experimental, refinement or atomic coordinate data resulting 
# from the CCDC's data processing and validation procedures.
#
#######################################################################

data_SATJEF
_chemical_formula_moiety         'C8 H7 N1 O3 S1'
_chemical_name_systematic        
'5-oxo-2,3-dihydro-5H-[1,3]thiazolo[3,2-a]pyridine-7-carboxylic acid'
_symmetry_cell_setting           monoclinic
_symmetry_space_group_name_H-M   'P 21/c'
_symmetry_Int_Tables_number      14
_space_group_name_Hall           '-P 2ybc'
loop_
_symmetry_equiv_pos_site_id
_symmetry_equiv_pos_as_xyz
1 x,y,z
2 -x,1/2+y,1/2-z
3 -x,-y,-z
4 x,1/2-y,1/2+z
_cell_length_a                   16.9261(9)
_cell_length_b                   5.0626(3)
_cell_length_c                   20.5210(9)
_cell_angle_alpha                90
_cell_angle_beta                 102.542(5)
_cell_angle_gamma                90
_cell_volume                     1716.48
_exptl_crystal_colour            'light yellow'
_exptl_crystal_description       needle
_cell_formula_units_Z            8
loop_
_atom_site_label
_atom_site_type_symbol
_atom_site_fract_x
_atom_site_fract_y
_atom_site_fract_z
S1 S 0.52149(6) 1.3650(2) 0.57962(5)
O1 O 0.38652(17) 0.6726(6) 0.67431(13)
O2 O 0.2451(2) 1.0750(8) 0.40446(16)
H1 H 0.2036(18) 1.041(11) 0.376(2)
N1 N 0.43944(17) 0.9917(6) 0.61924(14)
C1 C 0.3796(2) 0.8107(8) 0.62277(18)
C2 C 0.3143(2) 0.8038(8) 0.56578(18)
H2 H 0.2730 0.6812 0.5642
C3 C 0.3109(2) 0.9714(8) 0.51375(18)
C4 C 0.3730(2) 1.1553(8) 0.51362(18)
H3 H 0.3706 1.2701 0.4779
C5 C 0.4370(2) 1.1617(7) 0.56716(17)
C6 C 0.5731(3) 1.1700(9) 0.6501(2)
H4 H 0.6100 1.0461 0.6363
H5 H 0.6039 1.2835 0.6846
C7 C 0.5090(2) 1.0253(8) 0.67574(18)
H6 H 0.5290 0.8544 0.6934
H7 H 0.4931 1.1255 0.7111
C8 C 0.2385(3) 0.9526(11) 0.4573(2)
O3 O 0.1718(3) 0.8866(15) 0.4675(3)
S2 S 0.02568(8) 0.7984(3) 0.06768(5)
O5 O 0.12359(16) 1.0067(6) 0.30078(12)
O6 O 0.27529(19) 0.1707(6) 0.16695(14)
H8 H 0.3118 0.0610 0.1747
O7 O 0.32802(18) 0.3017(6) 0.27116(14)
N2 N 0.08623(17) 0.8699(6) 0.19351(14)
C9 C 0.1371(2) 0.8550(8) 0.25598(17)
C10 C 0.2000(2) 0.6660(7) 0.26200(18)
H9 H 0.2354 0.6431 0.3031
C11 C 0.2101(2) 0.5177(7) 0.20936(17)
C12 C 0.1589(2) 0.5483(8) 0.14591(18)
H10 H 0.1670 0.4507 0.1095
C13 C 0.0974(2) 0.7247(8) 0.13958(17)
C14 C -0.0325(3) 0.9915(12) 0.1126(2)
H11 H -0.0491 1.1547 0.0888
H12 H -0.0809 0.8953 0.1165
C15 C 0.0163(2) 1.0514(8) 0.17973(19)
H13 H -0.0161 1.0283 0.2129
H14 H 0.0349 1.2331 0.1816
C16 C 0.2783(2) 0.3174(8) 0.2198(2)
O4? O 0.2068(9) 0.715(3) 0.4438(7)
loop_
_geom_bond_atom_site_label_1
_geom_bond_atom_site_label_2
_geom_bond_site_symmetry_1
_geom_bond_site_symmetry_2
S1 C5 1_555 1_555
O1 C1 1_555 1_555
O2 H1 1_555 1_555
N1 C1 1_555 1_555
C1 C2 1_555 1_555
C2 H2 1_555 1_555
C3 C2 1_555 1_555
C4 C3 1_555 1_555
H3 C4 1_555 1_555
C5 N1 1_555 1_555
C6 S1 1_555 1_555
H4 C6 1_555 1_555
H5 C6 1_555 1_555
C7 N1 1_555 1_555
H6 C7 1_555 1_555
H7 C7 1_555 1_555
C8 O2 1_555 1_555
O3 C8 1_555 1_555
S2 C13 1_555 1_555
O5 C9 1_555 1_555
O6 H8 1_555 1_555
O7 C16 1_555 1_555
N2 C9 1_555 1_555
C9 C10 1_555 1_555
C10 H9 1_555 1_555
C11 C10 1_555 1_555
C12 C11 1_555 1_555
H10 C12 1_555 1_555
C13 N2 1_555 1_555
C14 S2 1_555 1_555
H11 C14 1_555 1_555
H12 C14 1_555 1_555
C15 N2 1_555 1_555
H13 C15 1_555 1_555
H14 C15 1_555 1_555
C16 O6 1_555 1_555
C3 C8 1_555 1_555
C4 C5 1_555 1_555
C6 C7 1_555 1_555
C11 C16 1_555 1_555
C12 C13 1_555 1_555
C14 C15 1_555 1_555

#END
