
#######################################################################
#
#                 Cambridge Crystallographic Data Centre
#                                CCDC 
#
#######################################################################
#
# If this CIF has been generated from an entry in the Cambridge 
# Structural Database, then it will include bibliographic, chemical, 
# crystal, experimental, refinement or atomic coordinate data resulting 
# from the CCDC's data processing and validation procedures.
#
#######################################################################

data_SATJEE
_chemical_formula_moiety         'C88 H64 N6 O6'
_chemical_name_systematic        
"2,2':7,7':11,11'-tris(ethane-1,2-diylbis((6-hydroxy-3,1-phenylene)methylylideneazanylylidene))-bis(triptycene) unknown solvate"
_symmetry_cell_setting           rhombohedral
_symmetry_space_group_name_H-M   'R -3'
_symmetry_Int_Tables_number      148
_space_group_name_Hall           '-R 3'
loop_
_symmetry_equiv_pos_site_id
_symmetry_equiv_pos_as_xyz
1 x,y,z
2 -y,x-y,z
3 -x+y,-x,z
4 2/3+x,1/3+y,1/3+z
5 2/3-y,1/3+x-y,1/3+z
6 2/3-x+y,1/3-x,1/3+z
7 1/3+x,2/3+y,2/3+z
8 1/3-y,2/3+x-y,2/3+z
9 1/3-x+y,2/3-x,2/3+z
10 -x,-y,-z
11 y,-x+y,-z
12 x-y,x,-z
13 1/3-x,2/3-y,2/3-z
14 1/3+y,2/3-x+y,2/3-z
15 1/3+x-y,2/3+x,2/3-z
16 2/3-x,1/3-y,1/3-z
17 2/3+y,1/3-x+y,1/3-z
18 2/3+x-y,1/3+x,1/3-z
_cell_length_a                   19.129(3)
_cell_length_b                   19.129(3)
_cell_length_c                   50.923(6)
_cell_angle_alpha                90
_cell_angle_beta                 90
_cell_angle_gamma                120
_cell_volume                     16137.2
_exptl_crystal_colour            red
_exptl_crystal_description       cube
_cell_formula_units_Z            6
loop_
_atom_site_label
_atom_site_type_symbol
_atom_site_fract_x
_atom_site_fract_y
_atom_site_fract_z
O1 O 0.31658(13) 0.41838(16) 0.21352(3)
H1 H 0.3112 0.3773 0.2212
O2 O 0.28866(18) 0.3680(2) -0.02116(4)
H2 H 0.3282 0.3642 -0.0264
N1 N 0.42768(16) 0.37880(14) 0.21282(4)
N2 N 0.42978(13) 0.38127(11) -0.01923(3)
C1 C 0.4111(2) 0.36381(16) 0.18784(4)
H3 H 0.4377 0.3423 0.1785
C2 C 0.35552(17) 0.37828(15) 0.17432(4)
C3 C 0.30904(18) 0.40521(19) 0.18725(5)
C4 C 0.2560(2) 0.4190(2) 0.17317(6)
H4 H 0.2248 0.4365 0.1819
C5 C 0.24789(17) 0.40762(19) 0.14629(5)
H5 H 0.2130 0.4195 0.1371
C6 C 0.29150(16) 0.37843(15) 0.13275(5)
C7 C 0.34347(17) 0.36432(15) 0.14691(4)
H6 H 0.3726 0.3445 0.1382
C8 C 0.28146(16) 0.36432(15) 0.10348(4)
H7 H 0.3049 0.3316 0.0983
H8 H 0.2243 0.3341 0.0994
C9 C 0.43266(16) 0.39971(13) 0.00524(4)
H9 H 0.4783 0.4106 0.0149
C10 C 0.36842(17) 0.40420(14) 0.01827(4)
C11 C 0.2976(2) 0.3873(2) 0.00514(5)
C12 C 0.2386(3) 0.3907(3) 0.01834(7)
H10 H 0.1920 0.3806 0.0094
C13 C 0.2451(2) 0.4088(3) 0.04473(6)
H11 H 0.2026 0.4094 0.0534
C14 C 0.31493(19) 0.42638(16) 0.05870(5)
C15 C 0.37481(17) 0.42232(15) 0.04520(4)
H12 H 0.4211 0.4319 0.0542
C16 C 0.31966(18) 0.44019(16) 0.08779(5)
H13 H 0.3759 0.4722 0.0928
H14 H 0.2935 0.4710 0.0920
C17 C 0.6667 0.3333 0.26514(7)
H15 H 0.6667 0.3333 0.2844
C18 C 0.6667 0.3333 0.21479(6)
H16 H 0.6667 0.3333 0.1955
C19 C 0.6018(2) 0.3468(2) 0.25396(4)
C20 C 0.5442(2) 0.3584(2) 0.26693(5)
H17 H 0.5430 0.3582 0.2852
C21 C 0.4886(2) 0.3703(2) 0.25295(5)
H18 H 0.4517 0.3796 0.2620
C22 C 0.4873(2) 0.36861(18) 0.22555(4)
C23 C 0.54451(19) 0.35683(18) 0.21237(4)
H19 H 0.5448 0.3560 0.1941
C24 C 0.6004(2) 0.34640(19) 0.22614(4)
C25 C 0.6667 0.3333 -0.07065(5)
H20 H 0.6667 0.3333 -0.0899
C26 C 0.6667 0.3333 -0.01987(5)
H21 H 0.6667 0.3333 -0.0006
C27 C 0.60341(15) 0.34913(14) -0.03127(3)
C28 C 0.54726(15) 0.36056(14) -0.01747(4)
H22 H 0.5470 0.3603 0.0008
C29 C 0.49058(15) 0.37251(13) -0.03157(4)
C30 C 0.49154(15) 0.37194(13) -0.05887(4)
H23 H 0.4538 0.3793 -0.0681
C31 C 0.54768(15) 0.36056(13) -0.07247(3)
H24 H 0.5478 0.3607 -0.0907
C32 C 0.60305(15) 0.34915(14) -0.05894(3)
O1A O 0.58162(16) -0.10180(21) 0.21352(3)
O1B O 1.10180(21) 0.68342(13) 0.21352(3)
H1A H 0.6227 -0.0661 0.2212
H1B H 1.0661 0.6888 0.2212
O2A O 0.6320(2) -0.07934(27) -0.02116(4)
O2B O 1.07934(27) 0.71134(18) -0.02116(4)
H2A H 0.6358 -0.0360 -0.0264
H2B H 1.0360 0.6718 -0.0264
N1A N 0.62120(14) 0.04888(21) 0.21282(4)
N1B N 0.95112(21) 0.57232(16) 0.21282(4)
N2A N 0.61873(11) 0.04851(17) -0.01923(3)
N2B N 0.95149(17) 0.57022(13) -0.01923(3)
C1A C 0.63619(16) 0.04729(26) 0.18784(4)
C1B C 0.95271(26) 0.5889(2) 0.18784(4)
H3A H 0.6577 0.0954 0.1785
H3B H 0.9046 0.5623 0.1785
C2A C 0.62172(15) -0.02276(23) 0.17432(4)
C2B C 1.02276(23) 0.64448(17) 0.17432(4)
C3A C 0.59479(19) -0.09617(26) 0.18725(5)
C3B C 1.09617(26) 0.69096(18) 0.18725(5)
C4A C 0.5810(2) -0.1630(3) 0.17317(6)
C4B C 1.1630(3) 0.7440(2) 0.17317(6)
H4A H 0.5635 -0.2117 0.1819
H4B H 1.2117 0.7752 0.1819
C5A C 0.59238(19) -0.15973(25) 0.14629(5)
C5B C 1.15973(25) 0.75211(17) 0.14629(5)
H5A H 0.5805 -0.2065 0.1371
H5B H 1.2065 0.7870 0.1371
C6A C 0.62157(15) -0.08693(22) 0.13275(5)
C6B C 1.08693(22) 0.70850(16) 0.13275(5)
C7A C 0.63568(15) -0.02085(23) 0.14691(4)
C7B C 1.02085(23) 0.65653(17) 0.14691(4)
H6A H 0.6555 0.0281 0.1382
H6B H 0.9719 0.6274 0.1382
C8A C 0.63568(15) -0.08286(22) 0.10348(4)
C8B C 1.08286(22) 0.71854(16) 0.10348(4)
H7A H 0.6684 -0.0267 0.0983
H7B H 1.0267 0.6951 0.0983
H8A H 0.6659 -0.1098 0.0994
H8B H 1.1098 0.7757 0.0994
C9A C 0.60029(13) 0.03295(21) 0.00524(4)
C9B C 0.96705(21) 0.56734(16) 0.00524(4)
H9A H 0.5894 0.0677 0.0149
H9B H 0.9323 0.5217 0.0149
C10A C 0.59580(14) -0.03578(22) 0.01827(4)
C10B C 1.03578(22) 0.63158(17) 0.01827(4)
C11A C 0.6127(2) -0.0897(3) 0.00514(5)
C11B C 1.0897(3) 0.7024(2) 0.00514(5)
C12A C 0.6093(3) -0.1521(4) 0.01834(7)
C12B C 1.1521(4) 0.7614(3) 0.01834(7)
H10A H 0.6194 -0.1886 0.0094
H10B H 1.1886 0.8080 0.0094
C13A C 0.5912(3) -0.1637(4) 0.04473(6)
C13B C 1.1637(4) 0.7549(2) 0.04473(6)
H11A H 0.5906 -0.2068 0.0534
H11B H 1.2068 0.7974 0.0534
C14A C 0.57362(16) -0.11145(25) 0.05870(5)
C14B C 1.11145(25) 0.68507(19) 0.05870(5)
C15A C 0.57768(15) -0.04751(23) 0.04520(4)
C15B C 1.04751(23) 0.62519(17) 0.04520(4)
H12A H 0.5681 -0.0108 0.0542
H12B H 1.0108 0.5789 0.0542
C16A C 0.55981(16) -0.12053(24) 0.08779(5)
C16B C 1.12053(24) 0.68034(18) 0.08779(5)
H13A H 0.5278 -0.0963 0.0928
H13B H 1.0963 0.6241 0.0928
H14A H 0.5290 -0.1775 0.0920
H14B H 1.1775 0.7065 0.0920
C19A C 0.6532(2) 0.2550(3) 0.25396(4)
C19B C 0.7450(3) 0.3982(2) 0.25396(4)
C20A C 0.6416(2) 0.1858(3) 0.26693(5)
C20B C 0.8142(3) 0.4558(2) 0.26693(5)
H17A H 0.6418 0.1848 0.2852
H17B H 0.8152 0.4570 0.2852
C21A C 0.6297(2) 0.1183(3) 0.25295(5)
C21B C 0.8817(3) 0.5114(2) 0.25295(5)
H18A H 0.6204 0.0721 0.2620
H18B H 0.9279 0.5483 0.2620
C22A C 0.63139(18) 0.11869(27) 0.22555(4)
C22B C 0.88131(27) 0.5127(2) 0.22555(4)
C23A C 0.64317(18) 0.18768(26) 0.21237(4)
C23B C 0.81232(26) 0.45549(19) 0.21237(4)
H19A H 0.6440 0.1888 0.1941
H19B H 0.8112 0.4552 0.1941
C24A C 0.65360(19) 0.25400(28) 0.22614(4)
C24B C 0.74600(28) 0.3996(2) 0.22614(4)
C27A C 0.65087(14) 0.25428(21) -0.03127(3)
C27B C 0.74572(21) 0.39659(15) -0.03127(3)
C28A C 0.63944(14) 0.18670(21) -0.01747(4)
C28B C 0.81330(21) 0.45274(15) -0.01747(4)
H22A H 0.6397 0.1867 0.0008
H22B H 0.8133 0.4530 0.0008
C29A C 0.62749(13) 0.11807(20) -0.03157(4)
C29B C 0.88193(20) 0.50942(15) -0.03157(4)
C30A C 0.62806(13) 0.11960(20) -0.05887(4)
C30B C 0.88040(20) 0.50846(15) -0.05887(4)
H23A H 0.6207 0.0745 -0.0681
H23B H 0.9255 0.5462 -0.0681
C31A C 0.63944(13) 0.18712(20) -0.07247(3)
C31B C 0.81288(20) 0.45232(15) -0.07247(3)
H24A H 0.6393 0.1871 -0.0907
H24B H 0.8129 0.4522 -0.0907
C32A C 0.65085(14) 0.25390(21) -0.05894(3)
C32B C 0.74610(21) 0.39695(15) -0.05894(3)
loop_
_geom_bond_atom_site_label_1
_geom_bond_atom_site_label_2
_geom_bond_site_symmetry_1
_geom_bond_site_symmetry_2
O1 H1 1_555 1_555
O2 H2 1_555 1_555
N1 C1 1_555 1_555
N2 C9 1_555 1_555
C1 H3 1_555 1_555
C2 C1 1_555 1_555
C3 O1 1_555 1_555
C4 C3 1_555 1_555
H4 C4 1_555 1_555
C5 C4 1_555 1_555
H5 C5 1_555 1_555
C6 C5 1_555 1_555
C7 C2 1_555 1_555
H6 C7 1_555 1_555
C8 C6 1_555 1_555
H7 C8 1_555 1_555
H8 C8 1_555 1_555
C9 H9 1_555 1_555
C10 C9 1_555 1_555
C11 O2 1_555 1_555
C12 C11 1_555 1_555
H10 C12 1_555 1_555
C13 C12 1_555 1_555
H11 C13 1_555 1_555
C14 C13 1_555 1_555
C15 C10 1_555 1_555
H12 C15 1_555 1_555
C16 C8 1_555 1_555
H13 C16 1_555 1_555
H14 C16 1_555 1_555
C17 H15 1_555 1_555
C18 H16 1_555 1_555
C19 C17 1_555 1_555
C20 C19 1_555 1_555
H17 C20 1_555 1_555
C21 C20 1_555 1_555
H18 C21 1_555 1_555
C22 N1 1_555 1_555
C23 C22 1_555 1_555
H19 C23 1_555 1_555
C24 C18 1_555 1_555
C25 H20 1_555 1_555
C26 H21 1_555 1_555
C27 C26 1_555 1_555
C28 C27 1_555 1_555
H22 C28 1_555 1_555
C29 N2 1_555 1_555
C30 C29 1_555 1_555
H23 C30 1_555 1_555
C31 C30 1_555 1_555
H24 C31 1_555 1_555
C32 C25 1_555 1_555
O1A H1A 1_555 1_555
O1B H1B 1_555 1_555
O2A H2A 1_555 1_555
O2B H2B 1_555 1_555
N1A C1A 1_555 1_555
N1B C1B 1_555 1_555
N2A C9A 1_555 1_555
N2B C9B 1_555 1_555
C1A H3A 1_555 1_555
C1B H3B 1_555 1_555
C2A C1A 1_555 1_555
C2B C1B 1_555 1_555
C3A O1A 1_555 1_555
C3B O1B 1_555 1_555
C4A C3A 1_555 1_555
C4B C3B 1_555 1_555
H4A C4A 1_555 1_555
H4B C4B 1_555 1_555
C5A C4A 1_555 1_555
C5B C4B 1_555 1_555
H5A C5A 1_555 1_555
H5B C5B 1_555 1_555
C6A C5A 1_555 1_555
C6B C5B 1_555 1_555
C7A C2A 1_555 1_555
C7B C2B 1_555 1_555
H6A C7A 1_555 1_555
H6B C7B 1_555 1_555
C8A C6A 1_555 1_555
C8B C6B 1_555 1_555
H7A C8A 1_555 1_555
H7B C8B 1_555 1_555
H8A C8A 1_555 1_555
H8B C8B 1_555 1_555
C9A H9A 1_555 1_555
C9B H9B 1_555 1_555
C10A C9A 1_555 1_555
C10B C9B 1_555 1_555
C11A O2A 1_555 1_555
C11B O2B 1_555 1_555
C12A C11A 1_555 1_555
C12B C11B 1_555 1_555
H10A C12A 1_555 1_555
H10B C12B 1_555 1_555
C13A C12A 1_555 1_555
C13B C12B 1_555 1_555
H11A C13A 1_555 1_555
H11B C13B 1_555 1_555
C14A C13A 1_555 1_555
C14B C13B 1_555 1_555
C15A C10A 1_555 1_555
C15B C10B 1_555 1_555
H12A C15A 1_555 1_555
H12B C15B 1_555 1_555
C16A C8A 1_555 1_555
C16B C8B 1_555 1_555
H13A C16A 1_555 1_555
H13B C16B 1_555 1_555
H14A C16A 1_555 1_555
H14B C16B 1_555 1_555
C19A C17 1_555 1_555
C19B C17 1_555 1_555
C20A C19A 1_555 1_555
C20B C19B 1_555 1_555
H17A C20A 1_555 1_555
H17B C20B 1_555 1_555
C21A C20A 1_555 1_555
C21B C20B 1_555 1_555
H18A C21A 1_555 1_555
H18B C21B 1_555 1_555
C22A N1A 1_555 1_555
C22B N1B 1_555 1_555
C23A C22A 1_555 1_555
C23B C22B 1_555 1_555
H19A C23A 1_555 1_555
H19B C23B 1_555 1_555
C24A C18 1_555 1_555
C24B C18 1_555 1_555
C27A C26 1_555 1_555
C27B C26 1_555 1_555
C28A C27A 1_555 1_555
C28B C27B 1_555 1_555
H22A C28A 1_555 1_555
H22B C28B 1_555 1_555
C29A N2A 1_555 1_555
C29B N2B 1_555 1_555
C30A C29A 1_555 1_555
C30B C29B 1_555 1_555
H23A C30A 1_555 1_555
H23B C30B 1_555 1_555
C31A C30A 1_555 1_555
C31B C30B 1_555 1_555
H24A C31A 1_555 1_555
H24B C31B 1_555 1_555
C32A C25 1_555 1_555
C32B C25 1_555 1_555
C2 C3 1_555 1_555
C6 C7 1_555 1_555
C10 C11 1_555 1_555
C14 C15 1_555 1_555
C14 C16 1_555 1_555
C19 C24 1_555 1_555
C21 C22 1_555 1_555
C23 C24 1_555 1_555
C27 C32 1_555 1_555
C28 C29 1_555 1_555
C31 C32 1_555 1_555
C2A C3A 1_555 1_555
C2B C3B 1_555 1_555
C6A C7A 1_555 1_555
C6B C7B 1_555 1_555
C10A C11A 1_555 1_555
C10B C11B 1_555 1_555
C14A C15A 1_555 1_555
C14A C16A 1_555 1_555
C14B C15B 1_555 1_555
C14B C16B 1_555 1_555
C19A C24A 1_555 1_555
C19B C24B 1_555 1_555
C21A C22A 1_555 1_555
C21B C22B 1_555 1_555
C23A C24A 1_555 1_555
C23B C24B 1_555 1_555
C27A C32A 1_555 1_555
C27B C32B 1_555 1_555
C28A C29A 1_555 1_555
C28B C29B 1_555 1_555
C31A C32A 1_555 1_555
C31B C32B 1_555 1_555

#END
