
#######################################################################
#
#                 Cambridge Crystallographic Data Centre
#                                CCDC 
#
#######################################################################
#
# If this CIF has been generated from an entry in the Cambridge 
# Structural Database, then it will include bibliographic, chemical, 
# crystal, experimental, refinement or atomic coordinate data resulting 
# from the CCDC's data processing and validation procedures.
#
#######################################################################

data_SATMUY
_chemical_formula_moiety         'C26 H24 F3 N3 O3,C2 H6 O1'
_chemical_name_systematic        
'3-(1-(piperidin-1-ylacetyl)-5-(2-(trifluoromethyl)phenyl)-4,5-dihydro-1H-pyrazol-3-yl)-2H-chromen-2-one ethanol solvate'
_chemical_properties_biological  'anti-inflammatory activity'
_symmetry_cell_setting           triclinic
_symmetry_space_group_name_H-M   'P -1'
_symmetry_Int_Tables_number      2
_space_group_name_Hall           '-P 1'
loop_
_symmetry_equiv_pos_site_id
_symmetry_equiv_pos_as_xyz
1 x,y,z
2 -x,-y,-z
_cell_length_a                   8.976(7)
_cell_length_b                   10.537(8)
_cell_length_c                   15.453(12)
_cell_angle_alpha                101.639(8)
_cell_angle_beta                 103.663(9)
_cell_angle_gamma                99.998(9)
_cell_volume                     1352.87
_exptl_crystal_colour            yellow
_exptl_crystal_description       block
_chemical_melting_point          '186-187 deg.C'
_cell_formula_units_Z            2
loop_
_atom_site_label
_atom_site_type_symbol
_atom_site_fract_x
_atom_site_fract_y
_atom_site_fract_z
C1 C 0.6025(5) 0.7269(4) 0.5470(3)
C2 C 0.3598(5) 0.7934(4) 0.4931(3)
C3 C 0.2897(5) 0.8755(4) 0.4456(3)
H1 H 0.3471 0.9324 0.4201
C4 C 0.1344(6) 0.8706(5) 0.4372(3)
H2 H 0.0858 0.9258 0.4059
C5 C 0.0465(5) 0.7854(5) 0.4742(3)
H3 H -0.0597 0.7833 0.4674
C6 C 0.1180(5) 0.7043(5) 0.5209(3)
H4 H 0.0592 0.6468 0.5454
C7 C 0.2772(5) 0.7066(4) 0.5321(3)
C8 C 0.3627(5) 0.6291(4) 0.5807(3)
H5 H 0.3103 0.5711 0.6077
C9 C 0.5168(5) 0.6364(4) 0.5891(2)
C10 C 0.6077(4) 0.5573(4) 0.6401(2)
C11 C 0.7830(4) 0.5737(4) 0.6685(3)
H6 H 0.8362 0.6649 0.7019
H7 H 0.8217 0.5491 0.6154
C12 C 0.8072(5) 0.4780(4) 0.7309(3)
H8 H 0.8694 0.4169 0.7096
C13 C 0.8831(6) 0.5498(4) 0.8321(3)
C14 C 0.7886(6) 0.5913(5) 0.8856(3)
H9 H 0.6801 0.5726 0.8597
C15 C 0.8529(10) 0.6603(6) 0.9770(4)
H10 H 0.7876 0.6873 1.0121
C16 C 1.0115(12) 0.6890(6) 1.0158(5)
H11 H 1.0544 0.7349 1.0774
C17 C 1.1079(9) 0.6500(6) 0.9637(5)
H12 H 1.2163 0.6699 0.9904
C18 C 1.0449(7) 0.5807(5) 0.8712(4)
C19 C 1.1546(7) 0.5390(8) 0.8200(5)
C20 C 0.6032(5) 0.2947(4) 0.7434(3)
C21 C 0.4293(5) 0.2297(4) 0.7161(3)
H13 H 0.3717 0.2965 0.7323
H14 H 0.3924 0.1932 0.6499
C22 C 0.4100(5) 0.1808(4) 0.8590(3)
H15 H 0.3332 0.2345 0.8628
H16 H 0.5141 0.2383 0.8890
C23 C 0.3826(7) 0.0737(6) 0.9079(4)
H17 H 0.3889 0.1138 0.9713
H18 H 0.4641 0.0240 0.9081
C24 C 0.2229(8) -0.0200(6) 0.8615(5)
H19 H 0.1407 0.0270 0.8678
H20 H 0.2108 -0.0931 0.8906
C25 C 0.2075(7) -0.0742(5) 0.7597(4)
H21 H 0.2817 -0.1299 0.7533
H22 H 0.1020 -0.1285 0.7287
C26 C 0.2401(5) 0.0393(5) 0.7159(3)
H23 H 0.2308 0.0039 0.6513
H24 H 0.1623 0.0921 0.7196
F1 F 1.1348(4) 0.5737(3) 0.7396(3)
F2 F 1.1341(4) 0.4057(4) 0.7949(3)
F3 F 1.3050(4) 0.5856(5) 0.8644(3)
N1 N 0.6440(4) 0.4058(3) 0.7145(2)
N2 N 0.5335(4) 0.4606(3) 0.6646(2)
N3 N 0.3973(4) 0.1240(3) 0.7614(2)
O1 O 0.7385(4) 0.7418(3) 0.5492(2)
O2 O 0.5166(3) 0.8002(2) 0.50001(16)
O3 O 0.7069(3) 0.2520(3) 0.7875(2)
C27 C 0.7612(8) 0.9367(7) 0.8570(5)
H25 H 0.7394 1.0115 0.8947
H26 H 0.8643 0.9264 0.8852
H27 H 0.6841 0.8575 0.8509
C28 C 0.7549(7) 0.9589(5) 0.7666(4)
H28 H 0.8134 1.0487 0.7737
H29 H 0.8052 0.8973 0.7350
O4 O 0.5955(5) 0.9412(3) 0.7114(2)
H30 H 0.5570 1.0005 0.7338
loop_
_geom_bond_atom_site_label_1
_geom_bond_atom_site_label_2
_geom_bond_site_symmetry_1
_geom_bond_site_symmetry_2
C1 C9 1_555 1_555
C2 C3 1_555 1_555
C3 H1 1_555 1_555
C4 C3 1_555 1_555
H2 C4 1_555 1_555
C5 C4 1_555 1_555
H3 C5 1_555 1_555
C6 C5 1_555 1_555
H4 C6 1_555 1_555
C7 C2 1_555 1_555
C8 C7 1_555 1_555
H5 C8 1_555 1_555
C9 C8 1_555 1_555
C10 C9 1_555 1_555
C11 C10 1_555 1_555
H6 C11 1_555 1_555
H7 C11 1_555 1_555
C12 C11 1_555 1_555
H8 C12 1_555 1_555
C13 C12 1_555 1_555
C14 C13 1_555 1_555
H9 C14 1_555 1_555
C15 C14 1_555 1_555
H10 C15 1_555 1_555
C16 C15 1_555 1_555
H11 C16 1_555 1_555
C17 C16 1_555 1_555
H12 C17 1_555 1_555
C18 C13 1_555 1_555
C19 C18 1_555 1_555
C20 C21 1_555 1_555
C21 H13 1_555 1_555
H14 C21 1_555 1_555
C22 H15 1_555 1_555
H16 C22 1_555 1_555
C23 C22 1_555 1_555
H17 C23 1_555 1_555
H18 C23 1_555 1_555
C24 C23 1_555 1_555
H19 C24 1_555 1_555
H20 C24 1_555 1_555
C25 C24 1_555 1_555
H21 C25 1_555 1_555
H22 C25 1_555 1_555
C26 C25 1_555 1_555
H23 C26 1_555 1_555
H24 C26 1_555 1_555
F1 C19 1_555 1_555
F2 C19 1_555 1_555
F3 C19 1_555 1_555
N1 C12 1_555 1_555
N2 C10 1_555 1_555
N3 C21 1_555 1_555
O1 C1 1_555 1_555
O2 C1 1_555 1_555
O3 C20 1_555 1_555
C27 H25 1_555 1_555
H26 C27 1_555 1_555
H27 C27 1_555 1_555
C28 C27 1_555 1_555
H28 C28 1_555 1_555
H29 C28 1_555 1_555
O4 C28 1_555 1_555
H30 O4 1_555 1_555
C2 O2 1_555 1_555
C6 C7 1_555 1_555
C17 C18 1_555 1_555
C20 N1 1_555 1_555
C22 N3 1_555 1_555
C26 N3 1_555 1_555
N1 N2 1_555 1_555

#END
