
#######################################################################
#
#                 Cambridge Crystallographic Data Centre
#                                CCDC 
#
#######################################################################
#
# If this CIF has been generated from an entry in the Cambridge 
# Structural Database, then it will include bibliographic, chemical, 
# crystal, experimental, refinement or atomic coordinate data resulting 
# from the CCDC's data processing and validation procedures.
#
#######################################################################

data_SATMEI
_chemical_formula_moiety         'C18 H15 Cl2 I1 N2 O3,C2 H3 N1'
_chemical_name_systematic        
'(4S*,5R*,6S*)-5-benzoyl-4-(dichloromethyl)-4-hydroxy-6-(3-iodophenyl)tetrahydropyrimidin-2(1H)-one acetonitrile solvate'
_symmetry_cell_setting           triclinic
_symmetry_space_group_name_H-M   'P -1'
_symmetry_Int_Tables_number      2
_space_group_name_Hall           '-P 1'
loop_
_symmetry_equiv_pos_site_id
_symmetry_equiv_pos_as_xyz
1 x,y,z
2 -x,-y,-z
_cell_length_a                   6.604(6)
_cell_length_b                   12.680(6)
_cell_length_c                   13.971(7)
_cell_angle_alpha                109.70(4)
_cell_angle_beta                 94.70(5)
_cell_angle_gamma                95.10(5)
_cell_volume                     1089.24
_exptl_crystal_colour            colorless
_exptl_crystal_description       needle
_cell_formula_units_Z            2
loop_
_atom_site_label
_atom_site_type_symbol
_atom_site_fract_x
_atom_site_fract_y
_atom_site_fract_z
I1 I 0.23882(12) 0.30237(7) 0.34484(8)
Cl1 Cl 0.3790(4) 0.9120(2) 0.1811(2)
Cl2 Cl -0.0083(5) 0.9574(2) 0.2594(2)
O1 O 0.1426(8) 0.7051(5) 0.0282(4)
H1 H 0.2649 0.7135 0.0491
O2 O -0.4699(8) 0.6359(5) -0.0125(5)
O3 O 0.3815(8) 0.6577(6) 0.1925(4)
N1 N -0.2450(9) 0.5667(5) 0.0746(5)
H2 H -0.3277 0.5053 0.0580
N2 N -0.1754(9) 0.7458(5) 0.0678(5)
H3 H -0.2228 0.8034 0.0593
C1 C 0.2510(12) 0.7025(7) 0.2434(6)
C2 C -0.3039(11) 0.6465(7) 0.0421(6)
C3 C -0.0501(11) 0.5733(6) 0.1368(6)
H4 H 0.0475 0.5347 0.0920
C4 C 0.0558(13) 0.4488(7) 0.2349(7)
H5 H 0.1620 0.4296 0.1949
C5 C -0.0829(11) 0.5175(6) 0.2159(7)
C6 C 0.0372(11) 0.6978(6) 0.1916(6)
H6 H -0.0503 0.7339 0.2435
C7 C -0.2457(14) 0.5391(8) 0.2731(7)
H7 H -0.3421 0.5829 0.2594
C8 C 0.3036(13) 0.7628(7) 0.3543(6)
C9 C 0.0311(15) 0.4092(8) 0.3162(8)
C10 C 0.0353(12) 0.7564(7) 0.1085(7)
C11 C -0.2651(16) 0.4949(10) 0.3512(7)
H8 H -0.3724 0.5117 0.3908
C12 C -0.1287(14) 0.4274(8) 0.3705(8)
H9 H -0.1464 0.3949 0.4202
C13 C 0.1102(13) 0.8845(7) 0.1515(7)
H10 H 0.0728 0.9151 0.0977
C14 C 0.5081(16) 0.8104(9) 0.3922(9)
H11 H 0.6059 0.8048 0.3470
C15 C 0.1638(17) 0.7738(10) 0.4233(8)
H12 H 0.0281 0.7428 0.4001
C16 C 0.421(2) 0.8736(9) 0.5618(8)
H13 H 0.4608 0.9096 0.6316
C17 C 0.563(2) 0.8643(10) 0.4942(11)
H14 H 0.6986 0.8952 0.5183
C18 C 0.222(2) 0.8307(9) 0.5279(9)
H15 H 0.1247 0.8392 0.5738
N3 N -0.282(3) 0.9046(16) -0.0477(18)
C19 C -0.443(3) 0.8765(16) -0.0799(16)
C20 C -0.677(5) 0.826(4) -0.142(2)
H16 H -0.7761 0.8674 -0.1038
H17 H -0.7052 0.7476 -0.1498
H18 H -0.6840 0.8332 -0.2084
N3A N -0.718(3) 1.0954(16) 0.0477(18)
C19A C -0.557(3) 1.1235(16) 0.0799(16)
C20A C -0.323(5) 1.174(4) 0.142(2)
H16A H -0.2239 1.1326 0.1038
H17A H -0.2948 1.2524 0.1498
H18A H -0.3160 1.1668 0.2084
N4? N -0.236(4) 0.972(2) 0.021(2)
C21? C -0.268(4) 1.058(2) 0.068(2)
C22? C -0.375(6) 1.174(4) 0.126(4)
H19? H -0.5191 1.1542 0.1245
H20? H -0.3531 1.2269 0.0913
H21? H -0.3136 1.2078 0.1961
loop_
_geom_bond_atom_site_label_1
_geom_bond_atom_site_label_2
_geom_bond_site_symmetry_1
_geom_bond_site_symmetry_2
I1 C9 1_555 1_555
Cl1 C13 1_555 1_555
Cl2 C13 1_555 1_555
O1 H1 1_555 1_555
O2 C2 1_555 1_555
O3 C1 1_555 1_555
N1 H2 1_555 1_555
N2 H3 1_555 1_555
C1 C6 1_555 1_555
C2 N1 1_555 1_555
C3 N1 1_555 1_555
H4 C3 1_555 1_555
C4 H5 1_555 1_555
C5 C3 1_555 1_555
C6 C3 1_555 1_555
H6 C6 1_555 1_555
C7 C5 1_555 1_555
H7 C7 1_555 1_555
C8 C1 1_555 1_555
C9 C4 1_555 1_555
C10 O1 1_555 1_555
C11 C7 1_555 1_555
H8 C11 1_555 1_555
C12 C9 1_555 1_555
H9 C12 1_555 1_555
C13 C10 1_555 1_555
H10 C13 1_555 1_555
C14 C8 1_555 1_555
H11 C14 1_555 1_555
C15 C8 1_555 1_555
H12 C15 1_555 1_555
C16 H13 1_555 1_555
C17 C14 1_555 1_555
H14 C17 1_555 1_555
C18 C15 1_555 1_555
H15 C18 1_555 1_555
N3 C19 1_555 1_555
C19 C20 1_555 1_555
C20 H16 1_555 1_555
H17 C20 1_555 1_555
H18 C20 1_555 1_555
N3A C19A 1_555 1_555
C19A C20A 1_555 1_555
C20A H16A 1_555 1_555
H17A C20A 1_555 1_555
H18A C20A 1_555 1_555
N2 C2 1_555 1_555
N2 C10 1_555 1_555
C4 C5 1_555 1_555
C6 C10 1_555 1_555
C11 C12 1_555 1_555
C16 C17 1_555 1_555
C16 C18 1_555 1_555

#END
