
#######################################################################
#
#                 Cambridge Crystallographic Data Centre
#                                CCDC 
#
#######################################################################
#
# If this CIF has been generated from an entry in the Cambridge 
# Structural Database, then it will include bibliographic, chemical, 
# crystal, experimental, refinement or atomic coordinate data resulting 
# from the CCDC's data processing and validation procedures.
#
#######################################################################

data_SATSAH
_chemical_formula_moiety         'C23 H20 O3'
_chemical_name_systematic        
8-Methoxy-5-methyl-3,4-cis-diphenylisochroman-1-one
_symmetry_cell_setting           monoclinic
_symmetry_space_group_name_H-M   'P 21/c'
_symmetry_Int_Tables_number      14
_space_group_name_Hall           '-P 2ybc'
loop_
_symmetry_equiv_pos_site_id
_symmetry_equiv_pos_as_xyz
1 x,y,z
2 -x,1/2+y,1/2-z
3 -x,-y,-z
4 x,1/2-y,1/2+z
_cell_length_a                   6.254(6)
_cell_length_b                   18.266(3)
_cell_length_c                   15.536(3)
_cell_angle_alpha                90
_cell_angle_beta                 93.35(1)
_cell_angle_gamma                90
_cell_volume                     1771.73
_exptl_crystal_colour            colorless
_cell_formula_units_Z            4
loop_
_atom_site_label
_atom_site_type_symbol
_atom_site_fract_x
_atom_site_fract_y
_atom_site_fract_z
O1 O 0.2417(9) 0.4872(2) 0.6679(2)
O2 O 0.5255(9) 0.4250(2) 0.7128(2)
O3 O 0.4590(8) 0.3168(2) 0.8208(2)
C1 C 0.0409(10) 0.4561(3) 0.8219(3)
C2 C -0.0647(10) 0.4378(3) 0.8956(3)
C3 C 0.0108(11) 0.3782(3) 0.9436(3)
C4 C 0.1825(12) 0.3373(3) 0.9208(3)
C5 C 0.2881(11) 0.3552(3) 0.8478(3)
C6 C 0.2185(10) 0.4156(3) 0.7982(3)
C7 C -0.0362(9) 0.5189(2) 0.7644(3)
C8 C 0.0124(13) 0.4983(3) 0.6718(3)
C9 C 0.3436(15) 0.4404(3) 0.7244(3)
C10 C -0.0529(13) 0.5535(3) 0.6029(3)
C11 C -0.2632(15) 0.5536(3) 0.5701(3)
C12 C -0.3315(10) 0.6020(3) 0.5051(3)
C13 C -0.1861(15) 0.6509(3) 0.4742(3)
C14 C 0.0216(14) 0.6524(3) 0.5078(4)
C15 C 0.0882(10) 0.6037(3) 0.5719(3)
C16 C 0.0546(13) 0.5932(3) 0.7917(3)
C17 C -0.0654(11) 0.6556(3) 0.7772(3)
C18 C 0.0187(17) 0.7245(4) 0.7964(4)
C19 C 0.2228(17) 0.7313(4) 0.8319(4)
C20 C 0.3419(11) 0.6701(4) 0.8484(3)
C21 C 0.2582(12) 0.6011(3) 0.8287(3)
C22 C -0.2560(10) 0.4795(3) 0.9228(3)
C23 C 0.5437(10) 0.2594(3) 0.8737(4)
H1 H -0.0598 0.3651 0.9946
H2 H 0.2296 0.2962 0.9556
H3 H -0.1874 0.5253 0.7692
H4 H -0.0720 0.4553 0.6595
H5 H -0.3634 0.5197 0.5925
H6 H -0.4773 0.6014 0.4820
H7 H -0.2308 0.6841 0.4288
H8 H 0.1207 0.6873 0.4867
H9 H 0.2339 0.6048 0.5951
H10 H -0.2100 0.6514 0.7533
H11 H -0.0668 0.7674 0.7847
H12 H 0.2815 0.7789 0.8451
H13 H 0.4849 0.6745 0.8739
H14 H 0.3441 0.5584 0.8410
H15 H -0.2873 0.5188 0.8830
H16 H -0.2261 0.4991 0.9796
H17 H -0.3771 0.4472 0.9233
H18 H 0.6625 0.2373 0.8471
H19 H 0.4349 0.2232 0.8809
H20 H 0.5913 0.2787 0.9291
loop_
_geom_bond_atom_site_label_1
_geom_bond_atom_site_label_2
_geom_bond_site_symmetry_1
_geom_bond_site_symmetry_2
O1 C8 1_555 1_555
O2 C9 1_555 1_555
O3 C5 1_555 1_555
C1 C2 1_555 1_555
C2 C3 1_555 1_555
C3 C4 1_555 1_555
C4 C5 1_555 1_555
C5 C6 1_555 1_555
C6 C1 1_555 1_555
C7 C1 1_555 1_555
C8 C7 1_555 1_555
C9 O1 1_555 1_555
C10 C8 1_555 1_555
C11 C10 1_555 1_555
C12 C11 1_555 1_555
C13 C12 1_555 1_555
C14 C13 1_555 1_555
C15 C10 1_555 1_555
C16 C7 1_555 1_555
C17 C16 1_555 1_555
C18 C17 1_555 1_555
C19 C18 1_555 1_555
C20 C19 1_555 1_555
C21 C16 1_555 1_555
C22 C2 1_555 1_555
C23 O3 1_555 1_555
H1 C3 1_555 1_555
H2 C4 1_555 1_555
H3 C7 1_555 1_555
H4 C8 1_555 1_555
H5 C11 1_555 1_555
H6 C12 1_555 1_555
H7 C13 1_555 1_555
H8 C14 1_555 1_555
H9 C15 1_555 1_555
H10 C17 1_555 1_555
H11 C18 1_555 1_555
H12 C19 1_555 1_555
H13 C20 1_555 1_555
H14 C21 1_555 1_555
H15 C22 1_555 1_555
H16 C22 1_555 1_555
H17 C22 1_555 1_555
H18 C23 1_555 1_555
H19 C23 1_555 1_555
H20 C23 1_555 1_555
C6 C9 1_555 1_555
C14 C15 1_555 1_555
C20 C21 1_555 1_555

#END
