
#######################################################################
#
#                 Cambridge Crystallographic Data Centre
#                                CCDC 
#
#######################################################################
#
# If this CIF has been generated from an entry in the Cambridge 
# Structural Database, then it will include bibliographic, chemical, 
# crystal, experimental, refinement or atomic coordinate data resulting 
# from the CCDC's data processing and validation procedures.
#
#######################################################################

data_SATTUD
_chemical_formula_moiety         'C15 H14 N2 O3'
_chemical_name_systematic        N-(Phenylacetyl)salicylhydrazide
_symmetry_cell_setting           monoclinic
_symmetry_space_group_name_H-M   'P 21/n'
_symmetry_Int_Tables_number      14
_space_group_name_Hall           '-P 2yn'
loop_
_symmetry_equiv_pos_site_id
_symmetry_equiv_pos_as_xyz
1 x,y,z
2 1/2-x,1/2+y,1/2-z
3 -x,-y,-z
4 1/2+x,1/2-y,1/2+z
_cell_length_a                   5.2239(13)
_cell_length_b                   10.145(3)
_cell_length_c                   25.113(6)
_cell_angle_alpha                90
_cell_angle_beta                 91.289(5)
_cell_angle_gamma                90
_cell_volume                     1330.56
_exptl_crystal_colour            colorless
_exptl_crystal_description       needle
_chemical_melting_point          '227-229 deg.C'
_cell_formula_units_Z            4
loop_
_atom_site_label
_atom_site_type_symbol
_atom_site_fract_x
_atom_site_fract_y
_atom_site_fract_z
O1 O 0.3652(3) 0.62779(14) -0.04394(6)
O2 O 0.7386(2) 0.98905(12) -0.03911(5)
O3 O 0.8773(3) 0.59691(13) 0.05677(6)
N1 N 0.7214(3) 0.78274(16) -0.00774(6)
N2 N 0.9239(3) 0.80269(16) 0.02785(6)
C1 C 0.2919(4) 0.72454(18) -0.07868(8)
C2 C 0.4187(3) 0.84589(17) -0.07652(7)
C3 C 0.3371(4) 0.9449(2) -0.11163(8)
C4 C 0.1373(4) 0.9248(2) -0.14780(8)
C5 C 0.0168(4) 0.8032(2) -0.14971(8)
C6 C 0.0921(4) 0.7041(2) -0.11564(8)
C7 C 0.6373(3) 0.87873(17) -0.03985(7)
C8 C 0.9949(4) 0.70268(19) 0.05864(8)
C9 C 1.2234(5) 0.7259(3) 0.09549(10)
C10 C 1.2047(4) 0.6520(2) 0.14709(8)
C11 C 1.3745(4) 0.5524(2) 0.16056(9)
C12 C 1.3493(6) 0.4836(3) 0.20790(11)
C13 C 1.1584(6) 0.5148(4) 0.24185(12)
C14 C 0.9899(6) 0.6138(3) 0.22927(11)
C15 C 1.0129(5) 0.6822(3) 0.18232(10)
H1 H 0.653(4) 0.703(2) -0.0073(8)
H2 H 1.010(4) 0.877(2) 0.0262(7)
H3 H 0.272(4) 0.556(2) -0.0499(8)
H4 H 0.007(4) 0.621(2) -0.1149(7)
H5 H -0.125(4) 0.787(2) -0.1751(9)
H6 H 0.080(3) 0.9911(19) -0.1715(8)
H7 H 0.431(4) 1.029(2) -0.1100(8)
H8 H 1.369(4) 0.6947(19) 0.0763(8)
H9 H 1.246(4) 0.823(2) 0.0999(8)
H10 H 1.508(4) 0.530(2) 0.1368(9)
H11 H 1.468(5) 0.420(3) 0.2149(11)
H12 H 1.137(5) 0.472(3) 0.2741(12)
H13 H 0.864(5) 0.635(3) 0.2539(11)
H14 H 0.885(5) 0.749(3) 0.1717(11)
loop_
_geom_bond_atom_site_label_1
_geom_bond_atom_site_label_2
_geom_bond_site_symmetry_1
_geom_bond_site_symmetry_2
O1 C1 1_555 1_555
O2 C7 1_555 1_555
O3 C8 1_555 1_555
N1 N2 1_555 1_555
N2 C8 1_555 1_555
C1 C2 1_555 1_555
C2 C3 1_555 1_555
C3 C4 1_555 1_555
C4 C5 1_555 1_555
C5 C6 1_555 1_555
C6 C1 1_555 1_555
C7 N1 1_555 1_555
C8 C9 1_555 1_555
C9 C10 1_555 1_555
C10 C11 1_555 1_555
C11 C12 1_555 1_555
C12 C13 1_555 1_555
C13 C14 1_555 1_555
C14 C15 1_555 1_555
C15 C10 1_555 1_555
H1 N1 1_555 1_555
H2 N2 1_555 1_555
H3 O1 1_555 1_555
H4 C6 1_555 1_555
H5 C5 1_555 1_555
H6 C4 1_555 1_555
H7 C3 1_555 1_555
H8 C9 1_555 1_555
H9 C9 1_555 1_555
H10 C11 1_555 1_555
H11 C12 1_555 1_555
H12 C13 1_555 1_555
H13 C14 1_555 1_555
H14 C15 1_555 1_555
C2 C7 1_555 1_555

#END
