
#######################################################################
#
#                 Cambridge Crystallographic Data Centre
#                                CCDC 
#
#######################################################################
#
# If this CIF has been generated from an entry in the Cambridge 
# Structural Database, then it will include bibliographic, chemical, 
# crystal, experimental, refinement or atomic coordinate data resulting 
# from the CCDC's data processing and validation procedures.
#
#######################################################################

data_SATYOE
_chemical_formula_moiety         'C17 H16 F1 N3 O1'
_chemical_name_systematic        
2-(5-(4-(dimethylamino)phenyl)-1H-pyrazol-3-yl)-5-fluorophenol
_symmetry_cell_setting           monoclinic
_symmetry_space_group_name_H-M   'P 21/c'
_symmetry_Int_Tables_number      14
_space_group_name_Hall           '-P 2ybc'
loop_
_symmetry_equiv_pos_site_id
_symmetry_equiv_pos_as_xyz
1 x,y,z
2 -x,1/2+y,1/2-z
3 -x,-y,-z
4 x,1/2-y,1/2+z
_cell_length_a                   6.2423(18)
_cell_length_b                   7.698(4)
_cell_length_c                   30.617(9)
_cell_angle_alpha                90
_cell_angle_beta                 94.29(2)
_cell_angle_gamma                90
_cell_volume                     1467.12
_exptl_crystal_colour            colorless
_exptl_crystal_description       flaky
_cell_formula_units_Z            4
loop_
_atom_site_label
_atom_site_type_symbol
_atom_site_fract_x
_atom_site_fract_y
_atom_site_fract_z
F1 F -0.0844(4) 0.2092(3) 0.55628(7)
O1 O -0.3972(4) 0.4675(4) 0.42923(9)
H1 H -0.3786 0.4821 0.4033
N1 N -0.1859(4) 0.4687(4) 0.35802(9)
N2 N -0.1194(4) 0.4842(3) 0.31729(9)
H2 H -0.2059 0.5409 0.2947
N3 N 0.4925(4) 0.4016(3) 0.15430(8)
C1 C -0.2262(5) 0.3809(4) 0.44892(11)
C2 C -0.2406(6) 0.3365(5) 0.49232(12)
H3 H -0.371(6) 0.365(4) 0.5072(11)
C3 C -0.0713(7) 0.2517(5) 0.51340(11)
C4 C 0.1128(7) 0.2082(5) 0.49434(12)
H4 H 0.244(6) 0.146(5) 0.5119(13)
C5 C 0.1208(6) 0.2537(4) 0.45061(11)
H5 H 0.243(5) 0.234(4) 0.4354(10)
C6 C -0.0465(5) 0.3391(4) 0.42663(10)
C7 C -0.0282(5) 0.3816(3) 0.38077(10)
C8 C 0.1346(5) 0.3411(4) 0.35337(10)
H6 H 0.271(4) 0.294(4) 0.3614(9)
C9 C 0.0729(5) 0.4083(3) 0.31257(10)
C10 C 0.1786(4) 0.4075(3) 0.27177(9)
C11 C 0.0934(5) 0.4912(4) 0.23392(11)
H7 H -0.037(4) 0.539(4) 0.2343(9)
C12 C 0.1948(5) 0.4892(4) 0.19590(13)
H8 H 0.128(5) 0.530(4) 0.1713(11)
C13 C 0.3883(4) 0.4017(3) 0.19222(9)
C14 C 0.4743(5) 0.3158(3) 0.23049(10)
H9 H 0.604(4) 0.251(4) 0.2278(9)
C15 C 0.3709(5) 0.3211(3) 0.26825(11)
H10 H 0.433(4) 0.269(4) 0.2948(9)
C16 C 0.6718(6) 0.2891(5) 0.14909(11)
H11 H 0.7788 0.3071 0.1728
H12 H 0.7319 0.3144 0.1218
H13 H 0.6246 0.1704 0.1491
C17 C 0.3844(6) 0.4666(5) 0.11428(12)
H14 H 0.2585 0.3981 0.1068
H15 H 0.4794 0.4596 0.0911
H16 H 0.3436 0.5855 0.1183
loop_
_geom_bond_atom_site_label_1
_geom_bond_atom_site_label_2
_geom_bond_site_symmetry_1
_geom_bond_site_symmetry_2
F1 C3 1_555 1_555
O1 H1 1_555 1_555
N1 N2 1_555 1_555
N2 H2 1_555 1_555
N3 C13 1_555 1_555
C1 O1 1_555 1_555
C2 C1 1_555 1_555
H3 C2 1_555 1_555
C3 C2 1_555 1_555
C4 C3 1_555 1_555
H4 C4 1_555 1_555
C5 C4 1_555 1_555
H5 C5 1_555 1_555
C6 C1 1_555 1_555
C7 N1 1_555 1_555
C8 C7 1_555 1_555
H6 C8 1_555 1_555
C9 N2 1_555 1_555
C10 C9 1_555 1_555
C11 C10 1_555 1_555
H7 C11 1_555 1_555
C12 C11 1_555 1_555
H8 C12 1_555 1_555
C13 C12 1_555 1_555
C14 C13 1_555 1_555
H9 C14 1_555 1_555
C15 C10 1_555 1_555
H10 C15 1_555 1_555
C16 N3 1_555 1_555
H11 C16 1_555 1_555
H12 C16 1_555 1_555
H13 C16 1_555 1_555
C17 N3 1_555 1_555
H14 C17 1_555 1_555
H15 C17 1_555 1_555
H16 C17 1_555 1_555
C5 C6 1_555 1_555
C6 C7 1_555 1_555
C8 C9 1_555 1_555
C14 C15 1_555 1_555

#END
