
#######################################################################
#
#                 Cambridge Crystallographic Data Centre
#                                CCDC 
#
#######################################################################
#
# If this CIF has been generated from an entry in the Cambridge 
# Structural Database, then it will include bibliographic, chemical, 
# crystal, experimental, refinement or atomic coordinate data resulting 
# from the CCDC's data processing and validation procedures.
#
#######################################################################

data_SATYUK
_chemical_formula_moiety         'C18 H19 N3 O2'
_chemical_name_systematic        
2-(5-(4-(dimethylamino)phenyl)-1H-pyrazol-3-yl)-5-methoxyphenol
_symmetry_cell_setting           triclinic
_symmetry_space_group_name_H-M   'P -1'
_symmetry_Int_Tables_number      2
_space_group_name_Hall           '-P 1'
loop_
_symmetry_equiv_pos_site_id
_symmetry_equiv_pos_as_xyz
1 x,y,z
2 -x,-y,-z
_cell_length_a                   8.516(4)
_cell_length_b                   10.555(5)
_cell_length_c                   35.019(14)
_cell_angle_alpha                90.00
_cell_angle_beta                 90.00
_cell_angle_gamma                90.00
_cell_volume                     3147.73
_exptl_crystal_colour            colorless
_exptl_crystal_description       flaky
_cell_formula_units_Z            8
loop_
_atom_site_label
_atom_site_type_symbol
_atom_site_fract_x
_atom_site_fract_y
_atom_site_fract_z
N1 N 0.5022(12) 0.9679(9) 0.1873(3)
H1 H 0.5745 1.0078 0.1996
O1 O 0.1255(11) 0.8767(8) -0.0087(3)
O2 O 0.4977(10) 1.0363(9) 0.0766(2)
H2 H 0.5206 1.0469 0.0992
N2 N 0.3224(12) 0.8582(10) 0.3665(3)
C1 C 0.3669(16) 0.8980(11) 0.1420(4)
C2 C 0.2689(11) 0.7800(10) 0.3027(4)
H3 H 0.2029 0.7176 0.3124
C3 C 0.2906(13) 0.7880(10) 0.2637(4)
H4 H 0.2405 0.7289 0.2482
C4 C 0.3744(16) 0.9584(11) 0.0742(5)
C5 C 0.3961(13) 0.8943(11) 0.2052(4)
C6 C 0.3860(12) 0.8823(10) 0.2459(4)
N3 N 0.4879(12) 0.9750(10) 0.1492(3)
C7 C 0.3019(16) 0.8893(10) 0.1025(4)
C8 C 0.3443(15) 0.8644(12) 0.3286(4)
C9 C 0.3056(16) 0.9536(11) 0.0367(5)
H5 H 0.3463 1.0053 0.0176
C10 C 0.1831(17) 0.8762(11) 0.0283(4)
C11 C 0.1141(14) 0.8037(11) 0.0572(4)
H6 H 0.0265 0.7535 0.0524
C12 C 0.4278(12) 0.9643(12) 0.3103(4)
H7 H 0.4704 1.0285 0.3253
C13 C 0.1823(16) 0.8096(11) 0.0935(4)
H8 H 0.1437 0.7563 0.1124
C14 C 0.3811(15) 0.9594(12) 0.3911(4)
H9 H 0.4926 0.9507 0.3941
H10 H 0.3312 0.9542 0.4156
H11 H 0.3581 1.0400 0.3797
C15 C 0.4477(12) 0.9695(11) 0.2719(4)
H12 H 0.5069 1.0361 0.2621
C16 C 0.2989(15) 0.8499(11) 0.1753(4)
H13 H 0.2095 0.7998 0.1773
C17 C 0.2327(14) 0.7558(12) 0.3820(3)
H14 H 0.1235 0.7688 0.3764
H15 H 0.2474 0.7524 0.4091
H16 H 0.2669 0.6776 0.3708
C18 C -0.0127(16) 0.8078(12) -0.0170(4)
H17 H 0.0124 0.7195 -0.0195
H18 H -0.0575 0.8383 -0.0404
H19 H -0.0868 0.8188 0.0034
O3 O 0.8748(11) 0.6227(8) 0.4914(3)
O4 O 0.5047(11) 0.4623(9) 0.5770(3)
H20 H 0.4623 0.4748 0.5977
N4 N 0.6755(12) 0.6433(10) 0.8663(3)
N5 N 0.5124(12) 0.5250(11) 0.6501(3)
C19 C 0.6256(14) 0.5409(12) 0.5730(4)
C20 C 0.6315(16) 0.5990(11) 0.6421(4)
N6 N 0.4974(13) 0.5316(10) 0.6876(3)
H21 H 0.4241 0.4925 0.6997
C21 C 0.6046(13) 0.6036(11) 0.7055(4)
C22 C 0.6562(15) 0.6338(11) 0.8276(4)
C23 C 0.8867(13) 0.6959(11) 0.5575(4)
H22 H 0.9739 0.7466 0.5528
C24 C 0.5711(12) 0.5357(12) 0.8097(5)
H23 H 0.5241 0.4742 0.8249
C25 C 0.7312(12) 0.7217(11) 0.8019(4)
H24 H 0.7942 0.7863 0.8115
C26 C 0.5550(12) 0.5271(12) 0.7713(4)
H25 H 0.5003 0.4586 0.7612
C27 C 0.7097(14) 0.7098(12) 0.7635(4)
H26 H 0.7601 0.7675 0.7476
C28 C 0.8173(17) 0.6232(12) 0.5285(4)
C29 C 0.6957(17) 0.5459(11) 0.5361(4)
H27 H 0.6563 0.4945 0.5168
C30 C 0.6972(15) 0.6113(11) 0.6030(4)
C31 C 0.8191(15) 0.6890(11) 0.5937(4)
H28 H 0.8599 0.7408 0.6128
C32 C 0.6182(14) 0.5397(12) 0.8909(4)
H29 H 0.5076 0.5500 0.8952
H30 H 0.6727 0.5419 0.9149
H31 H 0.6369 0.4599 0.8786
C33 C 0.6167(13) 0.6162(11) 0.7466(4)
C34 C 1.0135(16) 0.6938(12) 0.4833(3)
H32 H 0.9876 0.7821 0.4816
H33 H 1.0573 0.6658 0.4595
H34 H 1.0888 0.6812 0.5033
C35 C 0.7659(13) 0.7433(12) 0.8835(4)
H35 H 0.8752 0.7310 0.8779
H36 H 0.7505 0.7423 0.9106
H37 H 0.7323 0.8235 0.8734
C36 C 0.6995(15) 0.6482(11) 0.6758(4)
H38 H 0.7882 0.6991 0.6778
O5 O 0.3738(12) 0.3779(8) 1.0081(3)
N7 N 0.1807(13) 0.3590(11) 0.6340(4)
O6 O 0.0046(11) 0.5328(9) 0.9219(3)
H39 H 0.0211 0.5995 0.9332
C37 C 0.1305(19) 0.3991(13) 0.8570(5)
C38 C 0.2302(13) 0.2780(11) 0.6981(4)
H40 H 0.2919 0.2131 0.6882
N8 N -0.0024(13) 0.4666(10) 0.8124(4)
H41 H -0.0757 0.5059 0.8004
N9 N 0.0117(15) 0.4748(12) 0.8511(4)
C39 C 0.0698(11) 0.4635(12) 0.6893(4)
H42 H 0.0226 0.5247 0.6740
C40 C 0.1260(16) 0.4536(12) 0.9273(5)
C41 C 0.319(2) 0.3113(12) 0.9058(4)
H43 H 0.3603 0.2603 0.8866
C42 C 0.2123(13) 0.2886(11) 0.7371(4)
H44 H 0.2645 0.2334 0.7535
C43 C 0.1009(14) 0.3961(12) 0.7941(5)
C44 C 0.1535(16) 0.3673(13) 0.6717(5)
C45 C 0.196(2) 0.4553(14) 0.9641(5)
H45 H 0.1600 0.5101 0.9829
C46 C 0.3864(14) 0.3026(12) 0.9422(5)
H46 H 0.4726 0.2507 0.9469
C47 C 0.318(2) 0.3751(13) 0.9712(5)
C48 C 0.0535(12) 0.4727(11) 0.7278(4)
H47 H -0.0006 0.5415 0.7379
C49 C 0.1165(15) 0.4605(13) 0.6088(4)
H48 H 0.0056 0.4686 0.6130
H49 H 0.1354 0.4388 0.5825
H50 H 0.1673 0.5394 0.6145
C50 C 0.1963(18) 0.3903(12) 0.8967(5)
C51 C 0.1134(13) 0.3849(12) 0.7520(4)
C52 C 0.2673(14) 0.2547(12) 0.6176(4)
H51 H 0.3766 0.2635 0.6237
H52 H 0.2542 0.2549 0.5904
H53 H 0.2286 0.1763 0.6278
C53 C 0.5123(18) 0.3050(13) 1.0169(4)
H54 H 0.4900 0.2164 1.0138
H55 H 0.5435 0.3210 1.0428
H56 H 0.5958 0.3289 0.9999
C54 C 0.2002(16) 0.3497(12) 0.8235(4)
H57 H 0.2892 0.2992 0.8212
O7 O 0.3758(11) 0.8753(8) 0.4920(3)
N10 N 0.1771(13) 0.8582(10) 0.8654(4)
O8 O 0.0034(12) 1.0362(9) 0.5767(3)
N11 N -0.0055(14) 0.9687(11) 0.6882(4)
H58 H -0.0784 1.0074 0.7005
C55 C 0.1278(18) 0.9033(12) 0.6420(4)
N12 N 0.0102(13) 0.9755(10) 0.6502(4)
C56 C 0.1296(18) 0.9577(13) 0.5727(5)
C57 C 0.1035(14) 0.8956(12) 0.7053(5)
C58 C 0.0709(12) 0.9650(12) 0.8112(5)
H59 H 0.0265 1.0265 0.8268
C59 C 0.2293(13) 0.7788(12) 0.8023(4)
H60 H 0.2917 0.7152 0.8126
C60 C 0.2119(14) 0.7875(12) 0.7635(5)
H61 H 0.2632 0.7303 0.7476
C61 C 0.3840(13) 0.8029(11) 0.5585(5)
H62 H 0.4691 0.7500 0.5538
C62 C 0.3207(17) 0.8108(13) 0.5947(4)
H63 H 0.3638 0.7622 0.6142
C63 C 0.1182(14) 0.9590(13) 0.8907(4)
H64 H 0.1906 1.0288 0.8906
H65 H 0.1082 0.9267 0.9162
H66 H 0.0175 0.9873 0.8818
C64 C 0.1950(17) 0.8889(12) 0.6026(4)
C65 C 0.1536(17) 0.8650(14) 0.8263(4)
C66 C 0.1144(14) 0.8848(12) 0.7472(4)
C67 C 0.192(2) 0.9516(13) 0.5356(5)
H67 H 0.1488 0.9987 0.5158
C68 C 0.0560(12) 0.9710(12) 0.7719(5)
H68 H 0.0017 1.0395 0.7617
C69 C 0.321(2) 0.8734(15) 0.5293(5)
C70 C 0.5154(18) 0.8059(13) 0.4837(4)
H69 H 0.5982 0.8331 0.5004
H70 H 0.5455 0.8208 0.4576
H71 H 0.4965 0.7171 0.4874
C71 C 0.2662(13) 0.7555(13) 0.8830(4)
H72 H 0.2346 0.6761 0.8720
H73 H 0.2464 0.7543 0.9100
H74 H 0.3763 0.7684 0.8785
C72 C 0.1987(16) 0.8499(12) 0.6758(5)
H75 H 0.2865 0.7978 0.6776
H76 H -0.007(12) 1.051(10) 0.603(3)
loop_
_geom_bond_atom_site_label_1
_geom_bond_atom_site_label_2
_geom_bond_site_symmetry_1
_geom_bond_site_symmetry_2
N1 H1 1_555 1_555
O1 C10 1_555 1_555
O2 H2 1_555 1_555
N2 C8 1_555 1_555
C1 N3 1_555 1_555
C2 H3 1_555 1_555
C3 C2 1_555 1_555
H4 C3 1_555 1_555
C4 O2 1_555 1_555
C5 N1 1_555 1_555
C6 C3 1_555 1_555
N3 N1 1_555 1_555
C7 C1 1_555 1_555
C8 C2 1_555 1_555
C9 C4 1_555 1_555
H5 C9 1_555 1_555
C10 C9 1_555 1_555
C11 C10 1_555 1_555
H6 C11 1_555 1_555
C12 C8 1_555 1_555
H7 C12 1_555 1_555
C13 C7 1_555 1_555
H8 C13 1_555 1_555
C14 N2 1_555 1_555
H9 C14 1_555 1_555
H10 C14 1_555 1_555
H11 C14 1_555 1_555
C15 C6 1_555 1_555
H12 C15 1_555 1_555
C16 C1 1_555 1_555
H13 C16 1_555 1_555
C17 N2 1_555 1_555
H14 C17 1_555 1_555
H15 C17 1_555 1_555
H16 C17 1_555 1_555
C18 O1 1_555 1_555
H17 C18 1_555 1_555
H18 C18 1_555 1_555
H19 C18 1_555 1_555
O3 C28 1_555 1_555
O4 H20 1_555 1_555
N4 C22 1_555 1_555
N5 C20 1_555 1_555
C19 O4 1_555 1_555
C20 C30 1_555 1_555
N6 N5 1_555 1_555
H21 N6 1_555 1_555
C21 N6 1_555 1_555
C22 C24 1_555 1_555
C23 H22 1_555 1_555
C24 H23 1_555 1_555
C25 C22 1_555 1_555
H24 C25 1_555 1_555
C26 C24 1_555 1_555
H25 C26 1_555 1_555
C27 C25 1_555 1_555
H26 C27 1_555 1_555
C28 C23 1_555 1_555
C29 C19 1_555 1_555
H27 C29 1_555 1_555
C30 C19 1_555 1_555
C31 C23 1_555 1_555
H28 C31 1_555 1_555
C32 N4 1_555 1_555
H29 C32 1_555 1_555
H30 C32 1_555 1_555
H31 C32 1_555 1_555
C33 C21 1_555 1_555
C34 O3 1_555 1_555
H32 C34 1_555 1_555
H33 C34 1_555 1_555
H34 C34 1_555 1_555
C35 N4 1_555 1_555
H35 C35 1_555 1_555
H36 C35 1_555 1_555
H37 C35 1_555 1_555
C36 C20 1_555 1_555
H38 C36 1_555 1_555
O5 C47 1_555 1_555
N7 C44 1_555 1_555
O6 H39 1_555 1_555
C37 N9 1_555 1_555
C38 H40 1_555 1_555
N8 H41 1_555 1_555
N9 N8 1_555 1_555
C39 H42 1_555 1_555
C40 O6 1_555 1_555
C41 H43 1_555 1_555
C42 C38 1_555 1_555
H44 C42 1_555 1_555
C43 N8 1_555 1_555
C44 C38 1_555 1_555
C45 C40 1_555 1_555
H45 C45 1_555 1_555
C46 C41 1_555 1_555
H46 C46 1_555 1_555
C47 C45 1_555 1_555
C48 C39 1_555 1_555
H47 C48 1_555 1_555
C49 N7 1_555 1_555
H48 C49 1_555 1_555
H49 C49 1_555 1_555
H50 C49 1_555 1_555
C50 C37 1_555 1_555
C51 C42 1_555 1_555
C52 N7 1_555 1_555
H51 C52 1_555 1_555
H52 C52 1_555 1_555
H53 C52 1_555 1_555
C53 O5 1_555 1_555
H54 C53 1_555 1_555
H55 C53 1_555 1_555
H56 C53 1_555 1_555
C54 C37 1_555 1_555
H57 C54 1_555 1_555
O7 C69 1_555 1_555
N10 C63 1_555 1_555
O8 C56 1_555 1_555
N11 H58 1_555 1_555
C55 N12 1_555 1_555
N12 N11 1_555 1_555
C56 C64 1_555 1_555
C57 N11 1_555 1_555
C58 H59 1_555 1_555
C59 H60 1_555 1_555
C60 C59 1_555 1_555
H61 C60 1_555 1_555
C61 H62 1_555 1_555
C62 C61 1_555 1_555
H63 C62 1_555 1_555
C63 H64 1_555 1_555
H65 C63 1_555 1_555
H66 C63 1_555 1_555
C64 C55 1_555 1_555
C65 N10 1_555 1_555
C66 C57 1_555 1_555
C67 C56 1_555 1_555
H67 C67 1_555 1_555
C68 C58 1_555 1_555
H68 C68 1_555 1_555
C69 C61 1_555 1_555
C70 O7 1_555 1_555
H69 C70 1_555 1_555
H70 C70 1_555 1_555
H71 C70 1_555 1_555
C71 N10 1_555 1_555
H72 C71 1_555 1_555
H73 C71 1_555 1_555
H74 C71 1_555 1_555
C72 C55 1_555 1_555
H75 C72 1_555 1_555
H76 O8 1_555 1_555
C4 C7 1_555 1_555
C5 C6 1_555 1_555
C5 C16 1_555 1_555
C11 C13 1_555 1_555
C12 C15 1_555 1_555
C21 C36 1_555 1_555
C26 C33 1_555 1_555
C27 C33 1_555 1_555
C28 C29 1_555 1_555
C30 C31 1_555 1_555
C39 C44 1_555 1_555
C40 C50 1_555 1_555
C41 C50 1_555 1_555
C43 C51 1_555 1_555
C43 C54 1_555 1_555
C46 C47 1_555 1_555
C48 C51 1_555 1_555
C57 C72 1_555 1_555
C58 C65 1_555 1_555
C59 C65 1_555 1_555
C60 C66 1_555 1_555
C62 C64 1_555 1_555
C66 C68 1_555 1_555
C67 C69 1_555 1_555

#END
