
#######################################################################
#
#                 Cambridge Crystallographic Data Centre
#                                CCDC 
#
#######################################################################
#
# If this CIF has been generated from an entry in the Cambridge 
# Structural Database, then it will include bibliographic, chemical, 
# crystal, experimental, refinement or atomic coordinate data resulting 
# from the CCDC's data processing and validation procedures.
#
#######################################################################

data_SAVBAS
_chemical_name_common            4-Isopropylidene(4)peristylane-2,6-dione
_chemical_formula_moiety         'C15 H16 O2'
_chemical_name_systematic        
4-Isopropylidenepentacyclo(5.4.1.0^3,10^.0^5,9^.0^8,11^)dodecane-2,6-dione
_symmetry_cell_setting           orthorhombic
_symmetry_space_group_name_H-M   'P n m a'
_symmetry_Int_Tables_number      62
_space_group_name_Hall           '-P 2ac 2n'
loop_
_symmetry_equiv_pos_site_id
_symmetry_equiv_pos_as_xyz
1 x,y,z
2 1/2-x,1/2+y,1/2+z
3 x,1/2-y,z
4 1/2-x,-y,1/2+z
5 -x,-y,-z
6 1/2+x,1/2-y,1/2-z
7 -x,1/2+y,-z
8 1/2+x,y,1/2-z
_cell_length_a                   10.805(6)
_cell_length_b                   11.398(8)
_cell_length_c                   9.161(6)
_cell_angle_alpha                90
_cell_angle_beta                 90
_cell_angle_gamma                90
_cell_volume                     1128.23
_exptl_crystal_colour            colorless
_chemical_melting_point          183-184deg.C
_cell_formula_units_Z            4
loop_
_atom_site_label
_atom_site_type_symbol
_atom_site_fract_x
_atom_site_fract_y
_atom_site_fract_z
O1 O 0.4438(2) 0.4676(2) 0.2171(3)
C1 C 0.3688(3) 0.4039(2) 0.1605(3)
C2 C 0.2514(2) 0.3591(2) 0.2362(3)
C3 C 0.2813(3) 0.2500 0.3273(4)
C4 C 0.4591(4) 0.2500 -0.0117(6)
C5 C 0.3753(3) 0.3590(3) 0.0042(3)
C6 C 0.1673(2) 0.3185(2) 0.1125(3)
C7 C 0.2435(3) 0.3189(2) -0.0329(3)
C8 C 0.3215(4) 0.2500 0.4649(4)
C9 C 0.3423(3) 0.3612(3) 0.5509(3)
H1 H 0.197(3) 0.358(3) -0.119(3)
H2 H 0.446(4) 0.354(3) 0.609(4)
H3 H 0.290(3) 0.362(3) 0.631(4)
H4 H 0.346(3) 0.425(3) 0.494(4)
H5 H 0.214(2) 0.419(2) 0.298(3)
H6 H 0.531(4) 0.2500 0.064(5)
H7 H 0.500(5) 0.2499(1) -0.125(5)
H8 H 0.415(3) 0.418(3) -0.058(3)
H9 H 0.084(3) 0.358(3) 0.109(3)
C2B C 0.2514(2) 0.1409(2) 0.2362(3)
C5B C 0.3753(3) 0.1410(3) 0.0042(3)
C6B C 0.1673(2) 0.1815(2) 0.1125(3)
C7B C 0.2435(3) 0.1811(2) -0.0329(3)
C9B C 0.3423(3) 0.1388(3) 0.5509(3)
C1B C 0.3688(3) 0.0961(2) 0.1605(3)
H5B H 0.214(2) 0.081(2) 0.298(3)
H8B H 0.415(3) 0.082(3) -0.058(3)
H9B H 0.084(3) 0.142(3) 0.109(3)
H1B H 0.197(3) 0.142(3) -0.119(3)
H2B H 0.446(4) 0.146(3) 0.609(4)
H3B H 0.290(3) 0.138(3) 0.631(4)
H4B H 0.346(3) 0.075(3) 0.494(4)
O1B O 0.4438(2) 0.0324(2) 0.2171(3)
loop_
_geom_bond_atom_site_label_1
_geom_bond_atom_site_label_2
_geom_bond_site_symmetry_1
_geom_bond_site_symmetry_2
O1 C1 1_555 1_555
C1 C2 1_555 1_555
C2 C3 1_555 1_555
C3 C8 1_555 1_555
C4 C5 1_555 1_555
C5 C1 1_555 1_555
C6 C2 1_555 1_555
C7 C5 1_555 1_555
C8 C9 1_555 1_555
C9 H2 1_555 1_555
H1 C7 1_555 1_555
H3 C9 1_555 1_555
H4 C9 1_555 1_555
H5 C2 1_555 1_555
H6 C4 1_555 1_555
H7 C4 1_555 1_555
H8 C5 1_555 1_555
H9 C6 1_555 1_555
C2B C3 1_555 1_555
C5B C4 1_555 1_555
C6B C6 1_555 1_555
C7B C7 1_555 1_555
C9B C8 1_555 1_555
C1B C2B 1_555 1_555
H5B C2B 1_555 1_555
H8B C5B 1_555 1_555
H9B C6B 1_555 1_555
H1B C7B 1_555 1_555
H2B C9B 1_555 1_555
H3B C9B 1_555 1_555
H4B C9B 1_555 1_555
O1B C1B 1_555 1_555
C6 C7 1_555 1_555
C2B C6B 1_555 1_555
C5B C1B 1_555 1_555
C5B C7B 1_555 1_555
C6B C7B 1_555 1_555

#END
