
#######################################################################
#
#                 Cambridge Crystallographic Data Centre
#                                CCDC 
#
#######################################################################
#
# If this CIF has been generated from an entry in the Cambridge 
# Structural Database, then it will include bibliographic, chemical, 
# crystal, experimental, refinement or atomic coordinate data resulting 
# from the CCDC's data processing and validation procedures.
#
#######################################################################

data_SAVDOL
_chemical_compound_source        
'obtained from the leaves of the Australian rainforest vine, Celastrus subspicata'
_chemical_name_common            'celastrofuran D'
_chemical_formula_moiety         'C29 H32 O9'
_chemical_name_systematic        
'7-(acetyloxy)-5-[(benzenecarbonyl)oxy]-2,2,5a,9-tetramethyl-4-oxooctahydro-2H-3,9a-methano-1-benzoxepin-6-yl furan-3-carboxylate'
_chemical_properties_biological  
'Inhibitory activity on leucine transport in the human prostate cancer cell line LNCaP.'
_symmetry_cell_setting           monoclinic
_symmetry_space_group_name_H-M   'P 21'
_symmetry_Int_Tables_number      4
_space_group_name_Hall           'P 2yb'
loop_
_symmetry_equiv_pos_site_id
_symmetry_equiv_pos_as_xyz
1 x,y,z
2 -x,1/2+y,-z
_cell_length_a                   9.8482(2)
_cell_length_b                   14.0081(3)
_cell_length_c                   10.8615(2)
_cell_angle_alpha                90
_cell_angle_beta                 115.636(3)
_cell_angle_gamma                90
_cell_volume                     1350.89
_exptl_crystal_colour            colorless
_exptl_crystal_description       block
_cell_formula_units_Z            2
loop_
_atom_site_label
_atom_site_type_symbol
_atom_site_fract_x
_atom_site_fract_y
_atom_site_fract_z
C1 C 0.18174(19) 0.47586(12) 0.35802(17)
H1 H 0.2857 0.4495 0.3888
C2 C 0.1245(2) 0.45443(14) 0.46490(19)
H2 H 0.0281 0.4892 0.4431
C3 C 0.1053(2) 0.34846(15) 0.4809(2)
H3 H 0.0595 0.3394 0.5452
H4 H 0.2058 0.3179 0.5214
C4 C 0.0076(2) 0.29862(15) 0.3469(2)
H5 H 0.0287 0.2289 0.3648
C5 C 0.0628(2) 0.32481(13) 0.2387(2)
C6 C -0.0231(2) 0.27490(15) 0.1018(2)
H6 H -0.1064 0.3149 0.0375
H7 H -0.0634 0.2124 0.1129
C7 C 0.1023(2) 0.26341(14) 0.05592(19)
H8 H 0.0756 0.2168 -0.0208
C8 C 0.1408(2) 0.36031(15) 0.02081(19)
C9 C 0.1449(2) 0.44754(13) 0.11167(18)
H9 H 0.0870 0.5002 0.0487
C10 C 0.07765(19) 0.43386(13) 0.21696(18)
C11 C 0.2337(2) 0.22821(14) 0.18902(19)
C12 C 0.3891(3) 0.24520(16) 0.1964(2)
H10 H 0.4036 0.3137 0.1880
H11 H 0.3986 0.2109 0.1219
H12 H 0.4657 0.2220 0.2842
C13 C 0.2161(3) 0.12268(16) 0.2171(2)
H13 H 0.2896 0.1063 0.3099
H14 H 0.2333 0.0828 0.1511
H15 H 0.1141 0.1116 0.2084
C14 C -0.1619(3) 0.31039(18) 0.3057(3)
H16 H -0.1911 0.2695 0.3635
H17 H -0.2191 0.2920 0.2099
H18 H -0.1834 0.3772 0.3176
C15 C -0.0751(2) 0.48615(15) 0.15636(19)
H19 H -0.1241 0.4784 0.2174
H20 H -0.1395 0.4591 0.0667
H21 H -0.0588 0.5542 0.1465
C16 C 0.3171(2) 0.62471(13) 0.41623(17)
C17 C 0.3049(2) 0.72743(14) 0.38686(18)
C18 C 0.4297(3) 0.79212(16) 0.4305(2)
H22 H 0.5330 0.7773 0.4832
C19 C 0.3705(3) 0.87809(18) 0.3817(3)
H23 H 0.4272 0.9353 0.3964
C20 C 0.1791(3) 0.77985(16) 0.3133(2)
H24 H 0.0792 0.7556 0.2720
C21 C 0.2023(2) 0.53517(15) 0.6799(2)
C22 C 0.3369(3) 0.55250(18) 0.8124(2)
H25 H 0.3209 0.6104 0.8551
H26 H 0.4263 0.5606 0.7956
H27 H 0.3515 0.4979 0.8732
C23 C 0.3334(2) 0.56289(13) 0.13857(18)
C24 C 0.4968(2) 0.58535(14) 0.21053(18)
C25 C 0.5499(2) 0.66446(15) 0.1665(2)
H28 H 0.4832 0.7006 0.0903
C26 C 0.7005(3) 0.69032(16) 0.2345(2)
H29 H 0.7379 0.7429 0.2031
C27 C 0.7960(2) 0.63920(16) 0.3480(2)
H30 H 0.8986 0.6576 0.3954
C28 C 0.7431(2) 0.56131(15) 0.3934(2)
H31 H 0.8091 0.5273 0.4724
C29 C 0.5943(2) 0.53303(15) 0.32370(19)
H32 H 0.5588 0.4784 0.3527
O1 O 0.18485(13) 0.57926(9) 0.34308(12)
O2 O 0.43137(14) 0.58616(10) 0.49373(14)
O3 O 0.2185(2) 0.87209(13) 0.3081(2)
O4 O 0.24119(15) 0.48668(12) 0.59433(13)
O5 O 0.0748(2) 0.55786(18) 0.6539(2)
O6 O 0.21589(15) 0.28720(9) 0.29038(13)
O7 O 0.1710(2) 0.37401(12) -0.07426(16)
O8 O 0.30101(14) 0.47657(9) 0.17584(12)
O9 O 0.24102(17) 0.61505(11) 0.05878(16)
loop_
_geom_bond_atom_site_label_1
_geom_bond_atom_site_label_2
_geom_bond_site_symmetry_1
_geom_bond_site_symmetry_2
C1 H1 1_555 1_555
C2 C1 1_555 1_555
H2 C2 1_555 1_555
C3 C2 1_555 1_555
H3 C3 1_555 1_555
H4 C3 1_555 1_555
C4 C3 1_555 1_555
H5 C4 1_555 1_555
C5 C4 1_555 1_555
C6 C5 1_555 1_555
H6 C6 1_555 1_555
H7 C6 1_555 1_555
C7 C6 1_555 1_555
H8 C7 1_555 1_555
C8 C7 1_555 1_555
C9 C8 1_555 1_555
H9 C9 1_555 1_555
C10 C1 1_555 1_555
C11 C7 1_555 1_555
C12 C11 1_555 1_555
H10 C12 1_555 1_555
H11 C12 1_555 1_555
H12 C12 1_555 1_555
C13 C11 1_555 1_555
H13 C13 1_555 1_555
H14 C13 1_555 1_555
H15 C13 1_555 1_555
C14 C4 1_555 1_555
H16 C14 1_555 1_555
H17 C14 1_555 1_555
H18 C14 1_555 1_555
C15 C10 1_555 1_555
H19 C15 1_555 1_555
H20 C15 1_555 1_555
H21 C15 1_555 1_555
C16 C17 1_555 1_555
C17 C18 1_555 1_555
C18 H22 1_555 1_555
C19 C18 1_555 1_555
H23 C19 1_555 1_555
C20 C17 1_555 1_555
H24 C20 1_555 1_555
C21 C22 1_555 1_555
C22 H25 1_555 1_555
H26 C22 1_555 1_555
H27 C22 1_555 1_555
C23 C24 1_555 1_555
C24 C25 1_555 1_555
C25 H28 1_555 1_555
C26 C25 1_555 1_555
H29 C26 1_555 1_555
C27 C26 1_555 1_555
H30 C27 1_555 1_555
C28 C27 1_555 1_555
H31 C28 1_555 1_555
C29 C24 1_555 1_555
H32 C29 1_555 1_555
O1 C1 1_555 1_555
O2 C16 1_555 1_555
O3 C19 1_555 1_555
O4 C2 1_555 1_555
O5 C21 1_555 1_555
O6 C5 1_555 1_555
O7 C8 1_555 1_555
O8 C9 1_555 1_555
O9 C23 1_555 1_555
C5 C10 1_555 1_555
C9 C10 1_555 1_555
C11 O6 1_555 1_555
C16 O1 1_555 1_555
C20 O3 1_555 1_555
C21 O4 1_555 1_555
C23 O8 1_555 1_555
C28 C29 1_555 1_555

#END
