
#######################################################################
#
#                 Cambridge Crystallographic Data Centre
#                                CCDC 
#
#######################################################################
#
# If this CIF has been generated from an entry in the Cambridge 
# Structural Database, then it will include bibliographic, chemical, 
# crystal, experimental, refinement or atomic coordinate data resulting 
# from the CCDC's data processing and validation procedures.
#
#######################################################################

data_SAVHIJ
_chemical_formula_moiety         'C33 H27 O2 P1'
_chemical_name_systematic        
7-(4-methoxyphenyl)-6a-phenyl-6,6a,7,13c-tetrahydro-5H-7-benzo[e]naphtho[2,1-b]phosphindol-7-one
_symmetry_cell_setting           orthorhombic
_symmetry_space_group_name_H-M   'P 21 21 21'
_symmetry_Int_Tables_number      19
_space_group_name_Hall           'P 2ac 2ab'
loop_
_symmetry_equiv_pos_site_id
_symmetry_equiv_pos_as_xyz
1 x,y,z
2 1/2-x,-y,1/2+z
3 -x,1/2+y,1/2-z
4 1/2+x,1/2-y,-z
_cell_length_a                   9.0757(2)
_cell_length_b                   10.4623(2)
_cell_length_c                   26.2445(5)
_cell_angle_alpha                90
_cell_angle_beta                 90
_cell_angle_gamma                90
_cell_volume                     2491.99
_exptl_crystal_colour            colorless
_exptl_crystal_description       block
_cell_formula_units_Z            4
loop_
_atom_site_label
_atom_site_type_symbol
_atom_site_fract_x
_atom_site_fract_y
_atom_site_fract_z
P1 P 0.68932(6) 0.32070(5) 0.68056(2)
O1 O 0.69631(19) 0.32686(17) 0.73701(6)
O2 O 0.2339(2) 0.69065(19) 0.61155(8)
C1 C 0.8344(2) 0.30512(19) 0.54930(8)
C2 C 0.7637(3) 0.0118(2) 0.59451(9)
C3 C 0.7588(2) 0.1377(2) 0.61580(8)
C4 C 0.5501(2) 0.4286(2) 0.65722(8)
C5 C 0.6581(2) 0.1661(2) 0.65315(8)
C6 C 0.3349(2) 0.6054(2) 0.62942(9)
C7 C 0.8684(2) 0.3435(2) 0.64671(8)
C8 C 0.8629(2) 0.24488(19) 0.60127(8)
H1 H 0.9612 0.2065 0.5994
C9 C 0.9118(2) 0.4179(2) 0.53790(9)
C10 C 0.6588(3) -0.0793(2) 0.61244(9)
C11 C 0.3894(3) 0.5181(2) 0.59409(9)
H2 H 0.3537 0.5189 0.5609
C12 C 0.5541(3) 0.0753(2) 0.67017(9)
H3 H 0.4852 0.0974 0.6949
C13 C 0.8888(3) 0.4813(2) 0.62708(9)
H4 H 0.7937 0.5168 0.6179
H5 H 0.9305 0.5339 0.6539
C14 C 0.7481(3) 0.2490(2) 0.51175(9)
H6 H 0.6935 0.1761 0.5192
C15 C 0.4928(3) 0.5145(2) 0.69226(9)
H7 H 0.5274 0.5126 0.7256
C16 C 0.9905(3) 0.4831(2) 0.58076(10)
H8 H 1.0139 0.5705 0.5715
H9 H 1.0816 0.4387 0.5884
C17 C 0.4953(3) 0.4307(2) 0.60771(9)
H10 H 0.5304 0.3727 0.5838
C18 C 0.8669(3) -0.0264(2) 0.55754(10)
H11 H 0.9367 0.0319 0.5460
C19 C 0.3857(3) 0.6033(2) 0.67919(10)
H12 H 0.3489 0.6601 0.7033
C20 C 0.5552(3) -0.0442(2) 0.65036(10)
H13 H 0.4871 -0.1041 0.6618
C21 C 0.9036(3) 0.4692(2) 0.48932(10)
H14 H 0.9545 0.5441 0.4819
C22 C 0.7431(3) 0.3013(3) 0.46318(10)
H15 H 0.6867 0.2623 0.4380
C23 C 0.8215(4) 0.4112(3) 0.45191(10)
H16 H 0.8186 0.4455 0.4192
C24 C 0.9900(2) 0.3059(2) 0.68494(9)
C25 C 0.6607(3) -0.2036(2) 0.59114(11)
H17 H 0.5926 -0.2640 0.6022
C26 C 1.0495(3) 0.1835(2) 0.68757(11)
H18 H 1.0153 0.1209 0.6654
C27 C 0.8666(4) -0.1477(2) 0.53821(11)
H19 H 0.9365 -0.1717 0.5141
C28 C 0.7605(4) -0.2360(2) 0.55482(12)
H20 H 0.7585 -0.3176 0.5408
C29 C 1.1587(3) 0.1529(3) 0.72257(12)
H21 H 1.1973 0.0705 0.7232
C30 C 1.0425(3) 0.3940(3) 0.72029(12)
H22 H 1.0034 0.4761 0.7206
C31 C 1.1512(4) 0.3625(4) 0.75494(13)
H23 H 1.1847 0.4240 0.7778
C32 C 1.2102(3) 0.2424(3) 0.75610(13)
H24 H 1.2840 0.2219 0.7793
C33 C 0.1599(3) 0.7699(3) 0.64755(15)
H25 H 0.0855 0.8191 0.6304
H26 H 0.2296 0.8265 0.6633
H27 H 0.1146 0.7174 0.6732
loop_
_geom_bond_atom_site_label_1
_geom_bond_atom_site_label_2
_geom_bond_site_symmetry_1
_geom_bond_site_symmetry_2
P1 O1 1_555 1_555
O2 C6 1_555 1_555
C1 C8 1_555 1_555
C2 C3 1_555 1_555
C3 C5 1_555 1_555
C4 P1 1_555 1_555
C5 P1 1_555 1_555
C6 C11 1_555 1_555
C7 P1 1_555 1_555
C8 C3 1_555 1_555
H1 C8 1_555 1_555
C9 C1 1_555 1_555
C10 C2 1_555 1_555
C11 H2 1_555 1_555
C12 C5 1_555 1_555
H3 C12 1_555 1_555
C13 C7 1_555 1_555
H4 C13 1_555 1_555
H5 C13 1_555 1_555
C14 C1 1_555 1_555
H6 C14 1_555 1_555
C15 C4 1_555 1_555
H7 C15 1_555 1_555
C16 C9 1_555 1_555
H8 C16 1_555 1_555
H9 C16 1_555 1_555
C17 C4 1_555 1_555
H10 C17 1_555 1_555
C18 C2 1_555 1_555
H11 C18 1_555 1_555
C19 C6 1_555 1_555
H12 C19 1_555 1_555
C20 C10 1_555 1_555
H13 C20 1_555 1_555
C21 C9 1_555 1_555
H14 C21 1_555 1_555
C22 C14 1_555 1_555
H15 C22 1_555 1_555
C23 C21 1_555 1_555
H16 C23 1_555 1_555
C24 C7 1_555 1_555
C25 C10 1_555 1_555
H17 C25 1_555 1_555
C26 C24 1_555 1_555
H18 C26 1_555 1_555
C27 C18 1_555 1_555
H19 C27 1_555 1_555
C28 C25 1_555 1_555
H20 C28 1_555 1_555
C29 C26 1_555 1_555
H21 C29 1_555 1_555
C30 C24 1_555 1_555
H22 C30 1_555 1_555
C31 C30 1_555 1_555
H23 C31 1_555 1_555
C32 C29 1_555 1_555
H24 C32 1_555 1_555
C33 O2 1_555 1_555
H25 C33 1_555 1_555
H26 C33 1_555 1_555
H27 C33 1_555 1_555
C7 C8 1_555 1_555
C11 C17 1_555 1_555
C12 C20 1_555 1_555
C13 C16 1_555 1_555
C15 C19 1_555 1_555
C22 C23 1_555 1_555
C27 C28 1_555 1_555
C31 C32 1_555 1_555

#END
