
#######################################################################
#
#                 Cambridge Crystallographic Data Centre
#                                CCDC 
#
#######################################################################
#
# If this CIF has been generated from an entry in the Cambridge 
# Structural Database, then it will include bibliographic, chemical, 
# crystal, experimental, refinement or atomic coordinate data resulting 
# from the CCDC's data processing and validation procedures.
#
#######################################################################

data_SAVNEL
_chemical_formula_moiety         'C22 H19 N1 O5 S1'
_chemical_name_systematic        
'ethyl 1,1-dioxo-3-(2-oxo-2-phenylethyl)-2,3-dihydro-1H-1-naphtho[2,1-d][1,2]thiazole-3-carboxylate'
_symmetry_cell_setting           orthorhombic
_symmetry_space_group_name_H-M   'P 21 21 21'
_symmetry_Int_Tables_number      19
_space_group_name_Hall           'P 2ac 2ab'
loop_
_symmetry_equiv_pos_site_id
_symmetry_equiv_pos_as_xyz
1 x,y,z
2 1/2-x,-y,1/2+z
3 1/2+x,1/2-y,-z
4 -x,1/2+y,1/2-z
_cell_length_a                   8.8173(4)
_cell_length_b                   14.3926(7)
_cell_length_c                   15.3659(7)
_cell_angle_alpha                90
_cell_angle_beta                 90
_cell_angle_gamma                90
_cell_volume                     1949.99
_cell_formula_units_Z            4
loop_
_atom_site_label
_atom_site_type_symbol
_atom_site_fract_x
_atom_site_fract_y
_atom_site_fract_z
S1 S 0.02160(4) 0.89742(2) 0.86919(2)
O1 O -0.08686(13) 0.70418(8) 0.62467(7)
O2 O -0.00920(14) 0.85324(8) 0.62950(8)
O3 O 0.09174(14) 0.87865(9) 0.95120(8)
C1 C -0.28292(18) 0.85831(11) 0.91461(9)
O4 O 0.01486(14) 0.99298(7) 0.84225(8)
C2 C 0.46668(19) 0.56575(11) 0.69177(10)
H1 H 0.4937 0.6115 0.6519
O5 O 0.26034(15) 0.71082(8) 0.66289(9)
C3 C 0.5235(2) 0.42291(11) 0.76618(11)
H2 H 0.5889 0.3734 0.7766
C4 C -0.29877(19) 0.93804(11) 0.96820(10)
H3 H -0.2180 0.9790 0.9751
C5 C -0.02724(19) 0.77816(10) 0.66262(10)
C6 C -0.4333(2) 0.95434(13) 1.00964(11)
H4 H -0.4443 1.0074 1.0436
C7 C 0.28834(19) 0.50215(11) 0.79425(10)
H5 H 0.1957 0.5051 0.8231
C8 C -0.15207(17) 0.83824(10) 0.86447(10)
C9 C -0.54148(19) 0.81365(12) 0.95182(10)
H6 H -0.6223 0.7724 0.9477
C10 C -0.40520(18) 0.79490(11) 0.90641(10)
C11 C 0.22933(18) 0.65403(10) 0.71882(10)
C12 C -0.55542(18) 0.89184(13) 1.00168(10)
H7 H -0.6461 0.9038 1.0305
C13 C 0.08740(18) 0.66547(10) 0.77391(10)
H8 H 0.1145 0.6599 0.8349
H9 H 0.0170 0.6158 0.7602
C14 C 0.56352(18) 0.49186(12) 0.70707(11)
H10 H 0.6556 0.4883 0.6777
C15 C -0.26194(18) 0.70064(10) 0.80304(10)
H11 H -0.2552 0.6492 0.7666
N1 N 0.10385(16) 0.83600(9) 0.79060(10)
H12 H 0.1260 0.8731 0.7486
C16 C 0.32866(18) 0.57203(11) 0.73587(10)
C17 C -0.1272(2) 0.71542(13) 0.53275(11)
H13 H -0.0375 0.7296 0.4987
H14 H -0.1991 0.7659 0.5259
C18 C 0.00864(18) 0.75883(10) 0.75933(10)
C19 C -0.38953(19) 0.71610(11) 0.85151(10)
H15 H -0.4687 0.6736 0.8484
C20 C 0.3855(2) 0.42830(12) 0.80959(11)
H16 H 0.3582 0.3822 0.8490
C21 C -0.14065(17) 0.76439(10) 0.80950(10)
C22 C -0.1958(3) 0.62644(14) 0.50280(12)
H17 H -0.2233 0.6316 0.4425
H18 H -0.2847 0.6133 0.5367
H19 H -0.1237 0.5770 0.5098
loop_
_geom_bond_atom_site_label_1
_geom_bond_atom_site_label_2
_geom_bond_site_symmetry_1
_geom_bond_site_symmetry_2
S1 O3 1_555 1_555
O1 C5 1_555 1_555
O2 C5 1_555 1_555
C1 C4 1_555 1_555
O4 S1 1_555 1_555
C2 H1 1_555 1_555
O5 C11 1_555 1_555
C3 H2 1_555 1_555
C4 H3 1_555 1_555
C5 C18 1_555 1_555
C6 C4 1_555 1_555
H4 C6 1_555 1_555
C7 H5 1_555 1_555
C8 S1 1_555 1_555
C9 H6 1_555 1_555
C10 C1 1_555 1_555
C11 C13 1_555 1_555
C12 C6 1_555 1_555
H7 C12 1_555 1_555
C13 H8 1_555 1_555
H9 C13 1_555 1_555
C14 C2 1_555 1_555
H10 C14 1_555 1_555
C15 H11 1_555 1_555
N1 S1 1_555 1_555
H12 N1 1_555 1_555
C16 C2 1_555 1_555
C17 O1 1_555 1_555
H13 C17 1_555 1_555
H14 C17 1_555 1_555
C18 C13 1_555 1_555
C19 C10 1_555 1_555
H15 C19 1_555 1_555
C20 C3 1_555 1_555
H16 C20 1_555 1_555
C21 C8 1_555 1_555
C22 C17 1_555 1_555
H17 C22 1_555 1_555
H18 C22 1_555 1_555
H19 C22 1_555 1_555
C1 C8 1_555 1_555
C3 C14 1_555 1_555
C7 C16 1_555 1_555
C7 C20 1_555 1_555
C9 C10 1_555 1_555
C9 C12 1_555 1_555
C11 C16 1_555 1_555
C15 C19 1_555 1_555
C15 C21 1_555 1_555
N1 C18 1_555 1_555
C18 C21 1_555 1_555

#END
