
#######################################################################
#
#                 Cambridge Crystallographic Data Centre
#                                CCDC 
#
#######################################################################
#
# If this CIF has been generated from an entry in the Cambridge 
# Structural Database, then it will include bibliographic, chemical, 
# crystal, experimental, refinement or atomic coordinate data resulting 
# from the CCDC's data processing and validation procedures.
#
#######################################################################

data_SAVPOW
_chemical_formula_moiety         'C26 H30 N1 O5 1+,Cl1 1-'
_chemical_name_systematic        
'1-Ethynyl-8,9-dimethoxy-3-(methoxycarbonyl)-2-(4-methoxyphenyl)-3-methyl-1,2,3,5,6,10b-hexahydropyrrolo[2,1-a]isoquinolinium chloride'
_symmetry_cell_setting           orthorhombic
_symmetry_space_group_name_H-M   'P 21 21 21'
_symmetry_Int_Tables_number      19
_space_group_name_Hall           'P 2ac 2ab'
loop_
_symmetry_equiv_pos_site_id
_symmetry_equiv_pos_as_xyz
1 x,y,z
2 1/2-x,-y,1/2+z
3 1/2+x,1/2-y,-z
4 -x,1/2+y,1/2-z
_cell_length_a                   6.64625(9)
_cell_length_b                   14.4044(2)
_cell_length_c                   24.2500(3)
_cell_angle_alpha                90
_cell_angle_beta                 90
_cell_angle_gamma                90
_cell_volume                     2321.58
_exptl_crystal_colour            'light white'
_exptl_crystal_description       block
_cell_formula_units_Z            4
loop_
_atom_site_label
_atom_site_type_symbol
_atom_site_fract_x
_atom_site_fract_y
_atom_site_fract_z
Cl1 Cl -0.33753(5) -0.16751(2) -0.210511(13)
O1 O -0.47329(15) -0.54116(7) -0.40458(4)
O2 O 0.06429(15) -0.42789(7) -0.03558(4)
N1 N -0.31847(16) -0.53658(7) -0.27169(4)
H1 H -0.4028 -0.5843 -0.2800
O3 O -0.15863(17) -0.58182(8) -0.38053(4)
O4 O -0.22010(15) -0.31185(7) -0.05551(4)
O5 O -0.60538(15) -0.12206(7) -0.46686(4)
C1 C -0.32045(19) -0.47391(9) -0.32285(5)
C2 C -0.50524(19) -0.39406(9) -0.25189(5)
H2 H -0.4062 -0.3443 -0.2471
C3 C -0.6980(2) -0.36374(9) -0.22832(5)
C4 C -0.51815(19) -0.41929(9) -0.31397(5)
H3 H -0.6305 -0.4626 -0.3188
C5 C -0.3201(2) -0.39322(9) -0.13961(5)
H4 H -0.4185 -0.3495 -0.1479
C6 C -0.0492(2) -0.44742(10) -0.08123(5)
C7 C -0.2025(2) -0.38273(9) -0.09279(5)
C8 C -0.54978(18) -0.33892(9) -0.35316(5)
C9 C -0.1205(2) -0.61772(9) -0.19968(5)
H5 H -0.2293 -0.6618 -0.1947
H6 H 0.0055 -0.6490 -0.1918
C10 C -0.4738(2) -0.18307(10) -0.38515(5)
H7 H -0.4053 -0.1273 -0.3804
C11 C -0.67836(19) -0.34854(9) -0.39831(5)
H8 H -0.7486 -0.4039 -0.4028
C12 C -0.0248(2) -0.52389(10) -0.11509(5)
H9 H 0.0744 -0.5674 -0.1071
C13 C -0.70481(19) -0.27761(10) -0.43701(5)
H10 H -0.7922 -0.2856 -0.4666
C14 C -0.1201(2) -0.58179(10) -0.25839(5)
H11 H -0.0123 -0.5371 -0.2629
H12 H -0.0963 -0.6328 -0.2837
C15 C -0.3322(2) -0.53669(9) -0.37421(5)
C16 C -0.1476(2) -0.53642(9) -0.16123(5)
C17 C -0.42378(19) -0.48342(9) -0.22447(5)
H13 H -0.5400 -0.5204 -0.2129
C18 C -0.29058(18) -0.46976(9) -0.17436(5)
C19 C -0.59905(19) -0.19511(10) -0.43076(5)
C20 C -0.8507(2) -0.33838(10) -0.20810(6)
H14 H -0.9706 -0.3185 -0.1922
C21 C -0.13360(19) -0.41278(10) -0.32622(6)
H15 H -0.0165 -0.4512 -0.3303
H16 H -0.1219 -0.3767 -0.2931
H17 H -0.1447 -0.3719 -0.3574
C22 C -0.4508(2) -0.25340(9) -0.34689(5)
H18 H -0.3682 -0.2439 -0.3164
C23 C -0.1455(3) -0.64707(12) -0.42605(6)
H19 H -0.2076 -0.7046 -0.4156
H20 H -0.0068 -0.6578 -0.4350
H21 H -0.2137 -0.6219 -0.4576
C24 C 0.2362(2) -0.48488(11) -0.02623(6)
H22 H 0.3039 -0.4647 0.0066
H23 H 0.3260 -0.4801 -0.0571
H24 H 0.1944 -0.5483 -0.0219
C25 C -0.7513(3) -0.12624(12) -0.50972(6)
H25 H -0.8810 -0.1395 -0.4942
H26 H -0.7154 -0.1743 -0.5353
H27 H -0.7559 -0.0677 -0.5286
C26 C -0.3925(2) -0.25323(10) -0.06119(6)
H28 H -0.3978 -0.2106 -0.0308
H29 H -0.5122 -0.2906 -0.0614
H30 H -0.3834 -0.2192 -0.0951
loop_
_geom_bond_atom_site_label_1
_geom_bond_atom_site_label_2
_geom_bond_site_symmetry_1
_geom_bond_site_symmetry_2
O1 C15 1_555 1_555
O2 C6 1_555 1_555
N1 H1 1_555 1_555
O3 C15 1_555 1_555
O4 C7 1_555 1_555
O5 C19 1_555 1_555
C1 N1 1_555 1_555
C2 H2 1_555 1_555
C3 C2 1_555 1_555
C4 C1 1_555 1_555
H3 C4 1_555 1_555
C5 H4 1_555 1_555
C6 C7 1_555 1_555
C7 C5 1_555 1_555
C8 C4 1_555 1_555
C9 H5 1_555 1_555
H6 C9 1_555 1_555
C10 H7 1_555 1_555
C11 C8 1_555 1_555
H8 C11 1_555 1_555
C12 C6 1_555 1_555
H9 C12 1_555 1_555
C13 C11 1_555 1_555
H10 C13 1_555 1_555
C14 N1 1_555 1_555
H11 C14 1_555 1_555
H12 C14 1_555 1_555
C15 C1 1_555 1_555
C16 C9 1_555 1_555
C17 N1 1_555 1_555
H13 C17 1_555 1_555
C18 C5 1_555 1_555
C19 C10 1_555 1_555
C20 C3 1_555 1_555
H14 C20 1_555 1_555
C21 C1 1_555 1_555
H15 C21 1_555 1_555
H16 C21 1_555 1_555
H17 C21 1_555 1_555
C22 C8 1_555 1_555
H18 C22 1_555 1_555
C23 O3 1_555 1_555
H19 C23 1_555 1_555
H20 C23 1_555 1_555
H21 C23 1_555 1_555
C24 O2 1_555 1_555
H22 C24 1_555 1_555
H23 C24 1_555 1_555
H24 C24 1_555 1_555
C25 O5 1_555 1_555
H25 C25 1_555 1_555
H26 C25 1_555 1_555
H27 C25 1_555 1_555
C26 O4 1_555 1_555
H28 C26 1_555 1_555
H29 C26 1_555 1_555
H30 C26 1_555 1_555
C2 C4 1_555 1_555
C2 C17 1_555 1_555
C9 C14 1_555 1_555
C10 C22 1_555 1_555
C12 C16 1_555 1_555
C13 C19 1_555 1_555
C16 C18 1_555 1_555
C17 C18 1_555 1_555

#END
