
#######################################################################
#
#                 Cambridge Crystallographic Data Centre
#                                CCDC 
#
#######################################################################
#
# If this CIF has been generated from an entry in the Cambridge 
# Structural Database, then it will include bibliographic, chemical, 
# crystal, experimental, refinement or atomic coordinate data resulting 
# from the CCDC's data processing and validation procedures.
#
#######################################################################

data_SAVRUE
_chemical_formula_moiety         'C13 H8 O1 S1'
_chemical_name_systematic        Naphtho[2,1-b]thiophene-4-carbaldehyde
_symmetry_cell_setting           monoclinic
_symmetry_space_group_name_H-M   'P 21/n'
_symmetry_Int_Tables_number      14
_space_group_name_Hall           '-P 2yn'
loop_
_symmetry_equiv_pos_site_id
_symmetry_equiv_pos_as_xyz
1 x,y,z
2 1/2-x,1/2+y,1/2-z
3 -x,-y,-z
4 1/2+x,1/2-y,1/2+z
_cell_length_a                   11.9288(4)
_cell_length_b                   5.2617(2)
_cell_length_c                   15.7573(5)
_cell_angle_alpha                90
_cell_angle_beta                 92.946(3)
_cell_angle_gamma                90
_cell_volume                     987.712
_cell_formula_units_Z            4
loop_
_atom_site_label
_atom_site_type_symbol
_atom_site_fract_x
_atom_site_fract_y
_atom_site_fract_z
S1 S 0.92123(5) 0.04431(11) 0.12109(3)
O1 O 0.80144(13) 0.4580(3) 0.19718(11)
C1 C 1.0094(2) -0.2068(4) 0.10479(14)
H1 H 1.0104 -0.2950 0.0537
C2 C 1.07721(18) -0.2638(4) 0.17325(13)
H2 H 1.1296 -0.3948 0.1745
C3 C 1.05959(14) -0.1004(3) 0.24363(12)
C4 C 1.11500(14) -0.1007(3) 0.32662(12)
C5 C 1.19906(17) -0.2768(4) 0.35093(14)
H3 H 1.2208 -0.3991 0.3125
C6 C 1.24894(18) -0.2688(4) 0.43094(15)
H4 H 1.3035 -0.3887 0.4466
C7 C 1.22032(19) -0.0873(4) 0.48892(14)
H5 H 1.2568 -0.0827 0.5425
C8 C 1.13805(19) 0.0866(4) 0.46758(14)
H6 H 1.1178 0.2068 0.5073
C9 C 1.08346(14) 0.0844(4) 0.38518(12)
C10 C 0.99680(16) 0.2612(4) 0.36215(12)
H7 H 0.9760 0.3804 0.4020
C11 C 0.94362(15) 0.2616(3) 0.28416(11)
C12 C 0.97600(15) 0.0768(3) 0.22356(12)
C13 C 0.85362(16) 0.4448(4) 0.26304(16)
H8 H 0.8361 0.5605 0.3050
loop_
_geom_bond_atom_site_label_1
_geom_bond_atom_site_label_2
_geom_bond_site_symmetry_1
_geom_bond_site_symmetry_2
S1 C1 1_555 1_555
O1 C13 1_555 1_555
C1 H1 1_555 1_555
C2 C1 1_555 1_555
H2 C2 1_555 1_555
C3 C2 1_555 1_555
C4 C3 1_555 1_555
C5 C4 1_555 1_555
H3 C5 1_555 1_555
C6 C5 1_555 1_555
H4 C6 1_555 1_555
C7 C6 1_555 1_555
H5 C7 1_555 1_555
C8 C7 1_555 1_555
H6 C8 1_555 1_555
C9 C4 1_555 1_555
C10 C9 1_555 1_555
H7 C10 1_555 1_555
C11 C10 1_555 1_555
C12 S1 1_555 1_555
C13 C11 1_555 1_555
H8 C13 1_555 1_555
C3 C12 1_555 1_555
C8 C9 1_555 1_555
C11 C12 1_555 1_555

#END
