
#######################################################################
#
#                 Cambridge Crystallographic Data Centre
#                                CCDC 
#
#######################################################################
#
# If this CIF has been generated from an entry in the Cambridge 
# Structural Database, then it will include bibliographic, chemical, 
# crystal, experimental, refinement or atomic coordinate data resulting 
# from the CCDC's data processing and validation procedures.
#
#######################################################################

data_SAVROZ
_chemical_formula_moiety         'C21 H23 N1 O5 S1'
_chemical_name_systematic        
'ethyl 2-ethyl-1,1-dioxo-3-(1-oxo-1-phenylpropan-2-yl)-2,3-dihydro-1H-1,2-benzothiazole-3-carboxylate'
_symmetry_cell_setting           monoclinic
_symmetry_space_group_name_H-M   'P 21'
_symmetry_Int_Tables_number      4
_space_group_name_Hall           'P 2yb'
loop_
_symmetry_equiv_pos_site_id
_symmetry_equiv_pos_as_xyz
1 x,y,z
2 -x,1/2+y,-z
_cell_length_a                   8.2203(5)
_cell_length_b                   9.1263(5)
_cell_length_c                   13.0906(7)
_cell_angle_alpha                90
_cell_angle_beta                 102.302(6)
_cell_angle_gamma                90
_cell_volume                     959.519
_cell_formula_units_Z            2
loop_
_atom_site_label
_atom_site_type_symbol
_atom_site_fract_x
_atom_site_fract_y
_atom_site_fract_z
S1 S 0.13678(8) 0.31598(7) 0.90134(5)
O1 O -0.3799(3) 0.0962(2) 0.61780(16)
O2 O 0.2968(3) 0.3307(3) 0.8740(2)
O3 O -0.0406(3) -0.0203(2) 0.65075(16)
C1 C -0.4767(3) -0.1824(4) 0.7948(2)
H1 H -0.4039 -0.1559 0.8587
C2 C -0.0168(4) 0.5715(3) 0.8150(2)
H2 H 0.0657 0.6284 0.8597
O4 O 0.1333(3) 0.3409(3) 1.00922(17)
O5 O 0.0421(3) 0.2120(2) 0.63355(16)
C3 C -0.1321(3) 0.3307(3) 0.75800(19)
C4 C -0.4767(3) -0.1012(3) 0.7039(2)
N1 N 0.0483(3) 0.1563(3) 0.86303(18)
C5 C -0.2653(4) 0.5497(3) 0.6814(2)
H3 H -0.3536 0.5957 0.6334
C6 C -0.2378(3) 0.0715(3) 0.7966(2)
H4 H -0.1862 -0.0205 0.8304
C7 C -0.6872(4) -0.3433(4) 0.6986(3)
H5 H -0.7587 -0.4254 0.6970
C8 C -0.0956(3) 0.1676(3) 0.7713(2)
C9 C -0.0329(3) 0.1071(3) 0.6758(2)
C10 C 0.1627(4) 0.0302(3) 0.8700(2)
H6 H 0.2359 0.0444 0.8197
H7 H 0.0968 -0.0600 0.8497
C11 C 0.2701(4) 0.0103(4) 0.9793(2)
H8 H 0.3413 -0.0760 0.9802
H9 H 0.1983 -0.0032 1.0294
H10 H 0.3398 0.0973 0.9984
C12 C -0.2619(4) 0.3975(3) 0.6881(2)
H11 H -0.3467 0.3403 0.6457
C13 C -0.1435(4) 0.6365(3) 0.7427(2)
H12 H -0.1473 0.7401 0.7349
C14 C -0.0154(4) 0.4197(3) 0.8197(2)
C15 C -0.3225(4) 0.1492(3) 0.8757(2)
H13 H -0.2372 0.1879 0.9334
H14 H -0.3928 0.0792 0.9032
H15 H -0.3913 0.2300 0.8410
C16 C -0.5829(4) -0.1447(3) 0.6107(2)
H16 H -0.5837 -0.0911 0.5484
C17 C -0.6868(4) -0.2647(4) 0.6077(2)
H17 H -0.7576 -0.2933 0.5436
C18 C -0.5824(4) -0.3012(4) 0.7918(2)
H18 H -0.5834 -0.3543 0.8540
C19 C 0.2611(4) 0.2896(4) 0.5550(3)
H19 H 0.3255 0.2681 0.5019
H20 H 0.3365 0.2964 0.6238
H21 H 0.2023 0.3829 0.5385
C20 C 0.1380(4) 0.1702(4) 0.5564(2)
H22 H 0.0639 0.1593 0.4866
H23 H 0.1959 0.0760 0.5760
C21 C -0.3662(3) 0.0273(3) 0.6995(2)
loop_
_geom_bond_atom_site_label_1
_geom_bond_atom_site_label_2
_geom_bond_site_symmetry_1
_geom_bond_site_symmetry_2
S1 O2 1_555 1_555
O1 C21 1_555 1_555
O3 C9 1_555 1_555
C1 H1 1_555 1_555
C2 H2 1_555 1_555
O4 S1 1_555 1_555
O5 C9 1_555 1_555
C3 C8 1_555 1_555
C4 C1 1_555 1_555
N1 S1 1_555 1_555
C5 H3 1_555 1_555
C6 H4 1_555 1_555
C7 H5 1_555 1_555
C8 N1 1_555 1_555
C9 C8 1_555 1_555
C10 N1 1_555 1_555
H6 C10 1_555 1_555
H7 C10 1_555 1_555
C11 C10 1_555 1_555
H8 C11 1_555 1_555
H9 C11 1_555 1_555
H10 C11 1_555 1_555
C12 C3 1_555 1_555
H11 C12 1_555 1_555
C13 C2 1_555 1_555
H12 C13 1_555 1_555
C14 S1 1_555 1_555
C15 C6 1_555 1_555
H13 C15 1_555 1_555
H14 C15 1_555 1_555
H15 C15 1_555 1_555
C16 C4 1_555 1_555
H16 C16 1_555 1_555
C17 C7 1_555 1_555
H17 C17 1_555 1_555
C18 C1 1_555 1_555
H18 C18 1_555 1_555
C19 H19 1_555 1_555
H20 C19 1_555 1_555
H21 C19 1_555 1_555
C20 O5 1_555 1_555
H22 C20 1_555 1_555
H23 C20 1_555 1_555
C21 C4 1_555 1_555
C2 C14 1_555 1_555
C3 C14 1_555 1_555
C5 C12 1_555 1_555
C5 C13 1_555 1_555
C6 C8 1_555 1_555
C6 C21 1_555 1_555
C7 C18 1_555 1_555
C16 C17 1_555 1_555
C19 C20 1_555 1_555

#END
