
#######################################################################
#
#                 Cambridge Crystallographic Data Centre
#                                CCDC 
#
#######################################################################
#
# If this CIF has been generated from an entry in the Cambridge 
# Structural Database, then it will include bibliographic, chemical, 
# crystal, experimental, refinement or atomic coordinate data resulting 
# from the CCDC's data processing and validation procedures.
#
#######################################################################

data_SAVSUF
_chemical_formula_moiety         'C24 H26 Cl1 N1 O3 S1'
_chemical_name_systematic        
(8-(Chloro((4-methylphenyl)sulfinyl)methyl)-1,4-dioxaspiro[4.5]dec-8-yl)(phenyl)acetonitrile
_symmetry_cell_setting           monoclinic
_symmetry_space_group_name_H-M   'P 21/n'
_symmetry_Int_Tables_number      14
_space_group_name_Hall           '-P 2yn'
loop_
_symmetry_equiv_pos_site_id
_symmetry_equiv_pos_as_xyz
1 x,y,z
2 1/2-x,1/2+y,1/2-z
3 -x,-y,-z
4 1/2+x,1/2-y,1/2+z
_cell_length_a                   9.3441(4)
_cell_length_b                   8.9794(4)
_cell_length_c                   26.0925(11)
_cell_angle_alpha                90
_cell_angle_beta                 91.7520(10)
_cell_angle_gamma                90
_cell_volume                     2188.25
_exptl_crystal_colour            colorless
_exptl_crystal_description       block
_cell_formula_units_Z            4
loop_
_atom_site_label
_atom_site_type_symbol
_atom_site_fract_x
_atom_site_fract_y
_atom_site_fract_z
S1 S 0.39671(3) 0.17401(3) 0.104234(12)
Cl1 Cl 0.22399(3) -0.05859(3) 0.161269(12)
O1 O -0.13630(10) 0.17381(10) -0.01641(4)
O2 O 0.38613(10) 0.21222(12) 0.04851(4)
O3 O -0.19532(10) 0.33183(11) 0.04834(4)
C1 C 0.21563(13) 0.08927(13) 0.11522(5)
H1 H 0.1836 0.0431 0.0819
C2 C -0.09916(13) 0.08856(14) 0.06996(5)
H2 H -0.0365 0.0085 0.0573
H3 H -0.1982 0.0496 0.0703
C3 C 0.09967(12) 0.20560(13) 0.12856(5)
C4 C 0.61466(15) -0.19999(15) 0.07063(5)
H4 H 0.6238 -0.2646 0.0421
C5 C 0.10089(13) 0.33612(13) 0.08996(5)
H5 H 0.0357 0.4151 0.1017
H6 H 0.1986 0.3785 0.0895
N1 N -0.08112(14) 0.43473(16) 0.21669(5)
C6 C 0.12363(13) 0.26134(14) 0.18546(5)
H7 H 0.1209 0.1707 0.2077
C7 C -0.09365(13) 0.22102(14) 0.03407(5)
C8 C 0.00588(14) 0.35829(16) 0.20161(5)
C9 C 0.05502(13) 0.28994(14) 0.03521(5)
H8 H 0.0552 0.3784 0.0126
H9 H 0.1245 0.2172 0.0221
C10 C -0.05051(13) 0.13170(15) 0.12461(5)
H10 H -0.0495 0.0411 0.1463
H11 H -0.1215 0.2013 0.1386
C11 C 0.50520(13) 0.01090(14) 0.10947(5)
C12 C 0.37177(14) 0.26205(17) 0.22593(5)
H12 H 0.3531 0.1648 0.2384
C13 C 0.51877(14) -0.08244(15) 0.06753(5)
H13 H 0.4629 -0.0659 0.0370
C14 C 0.50506(16) 0.32722(19) 0.23522(6)
H14 H 0.5776 0.2737 0.2537
C15 C 0.69815(14) -0.22483(15) 0.11513(5)
C16 C 0.58559(14) -0.01269(16) 0.15440(5)
H15 H 0.5760 0.0518 0.1830
C17 C 0.26560(14) 0.33914(15) 0.19833(5)
C18 C 0.67991(14) -0.13157(16) 0.15695(5)
H16 H 0.7332 -0.1498 0.1879
C19 C -0.21004(15) 0.29742(15) -0.03935(5)
H17 H -0.2777 0.2645 -0.0670
H18 H -0.1421 0.3703 -0.0534
C20 C 0.29224(15) 0.48455(16) 0.18264(5)
H19 H 0.2186 0.5401 0.1655
C21 C -0.28834(15) 0.36221(17) 0.00518(5)
H20 H -0.3031 0.4707 0.0008
H21 H -0.3825 0.3135 0.0089
C22 C 0.53252(17) 0.4690(2) 0.21782(7)
H22 H 0.6244 0.5121 0.2236
C23 C 0.42547(17) 0.54860(19) 0.19185(6)
H23 H 0.4436 0.6470 0.1804
C24 C 0.8092(2) -0.3463(2) 0.11672(7)
H24 H 0.8677 -0.3378 0.1484
H25 H 0.8705 -0.3366 0.0871
H26 H 0.7616 -0.4435 0.1157
loop_
_geom_bond_atom_site_label_1
_geom_bond_atom_site_label_2
_geom_bond_site_symmetry_1
_geom_bond_site_symmetry_2
S1 O2 1_555 1_555
Cl1 C1 1_555 1_555
O1 C7 1_555 1_555
O3 C7 1_555 1_555
C1 S1 1_555 1_555
H1 C1 1_555 1_555
C2 H2 1_555 1_555
H3 C2 1_555 1_555
C3 C1 1_555 1_555
C4 H4 1_555 1_555
C5 C3 1_555 1_555
H5 C5 1_555 1_555
H6 C5 1_555 1_555
N1 C8 1_555 1_555
C6 C3 1_555 1_555
H7 C6 1_555 1_555
C7 C2 1_555 1_555
C8 C6 1_555 1_555
C9 C5 1_555 1_555
H8 C9 1_555 1_555
H9 C9 1_555 1_555
C10 C2 1_555 1_555
H10 C10 1_555 1_555
H11 C10 1_555 1_555
C11 S1 1_555 1_555
C12 H12 1_555 1_555
C13 C4 1_555 1_555
H13 C13 1_555 1_555
C14 C12 1_555 1_555
H14 C14 1_555 1_555
C15 C4 1_555 1_555
C16 C11 1_555 1_555
H15 C16 1_555 1_555
C17 C6 1_555 1_555
C18 C15 1_555 1_555
H16 C18 1_555 1_555
C19 O1 1_555 1_555
H17 C19 1_555 1_555
H18 C19 1_555 1_555
C20 C17 1_555 1_555
H19 C20 1_555 1_555
C21 O3 1_555 1_555
H20 C21 1_555 1_555
H21 C21 1_555 1_555
C22 C14 1_555 1_555
H22 C22 1_555 1_555
C23 C20 1_555 1_555
H23 C23 1_555 1_555
C24 C15 1_555 1_555
H24 C24 1_555 1_555
H25 C24 1_555 1_555
H26 C24 1_555 1_555
C3 C10 1_555 1_555
C7 C9 1_555 1_555
C11 C13 1_555 1_555
C12 C17 1_555 1_555
C16 C18 1_555 1_555
C19 C21 1_555 1_555
C22 C23 1_555 1_555

#END
