
#######################################################################
#
#                 Cambridge Crystallographic Data Centre
#                                CCDC 
#
#######################################################################
#
# If this CIF has been generated from an entry in the Cambridge 
# Structural Database, then it will include bibliographic, chemical, 
# crystal, experimental, refinement or atomic coordinate data resulting 
# from the CCDC's data processing and validation procedures.
#
#######################################################################

data_SAVYEW
_chemical_formula_moiety         'C32 H23 N1 O2'
_chemical_name_systematic        
4',4''-(phenylazanediyl)bis([1,1'-biphenyl]-4-carbaldehyde)
_symmetry_cell_setting           monoclinic
_symmetry_space_group_name_H-M   'C 2/c'
_symmetry_Int_Tables_number      15
_space_group_name_Hall           '-C 2yn'
loop_
_symmetry_equiv_pos_site_id
_symmetry_equiv_pos_as_xyz
1 x,y,z
2 -x,y,1/2-z
3 1/2+x,1/2+y,z
4 1/2-x,1/2+y,1/2-z
5 -x,-y,-z
6 x,-y,1/2+z
7 1/2-x,1/2-y,-z
8 1/2+x,1/2-y,1/2+z
_cell_length_a                   11.7425(8)
_cell_length_b                   9.4287(6)
_cell_length_c                   20.7695(14)
_cell_angle_alpha                90
_cell_angle_beta                 105.662(2)
_cell_angle_gamma                90
_cell_volume                     2214.15
_exptl_crystal_colour            yellow
_exptl_crystal_description       block
_cell_formula_units_Z            4
loop_
_atom_site_label
_atom_site_type_symbol
_atom_site_fract_x
_atom_site_fract_y
_atom_site_fract_z
N1 N 0.5000 0.02141(19) 0.2500
C1 C 0.32025(14) 0.48185(17) 0.56065(8)
O1 O 0.23827(12) 0.67401(14) 0.60764(6)
C2 C 0.39299(14) 0.33487(17) 0.46143(8)
C3 C 0.42363(14) 0.25424(16) 0.40719(7)
C4 C 0.40092(14) 0.27291(17) 0.52366(8)
H1 H 0.4313 0.1817 0.5323
C5 C 0.5000 -0.1279(2) 0.2500
C6 C 0.42404(15) -0.20310(17) 0.27862(8)
H2 H 0.3727 -0.1545 0.2979
C7 C 0.36480(14) 0.34426(17) 0.57187(8)
H3 H 0.3700 0.3006 0.6127
C8 C 0.47448(14) 0.09891(16) 0.30305(8)
C9 C 0.39236(14) 0.20768(17) 0.28900(8)
H4 H 0.3538 0.2297 0.2448
C10 C 0.35148(14) 0.47415(17) 0.45129(8)
H5 H 0.3481 0.5185 0.4108
C11 C 0.27587(15) 0.55494(19) 0.61151(8)
H6 H 0.2770 0.5045 0.6502
C12 C 0.53151(15) 0.06796(17) 0.36924(8)
H7 H 0.5871 -0.0047 0.3792
C13 C 0.36749(14) 0.28369(17) 0.34049(8)
H8 H 0.3119 0.3563 0.3303
C14 C 0.50608(14) 0.14466(17) 0.42041(8)
H9 H 0.5448 0.1226 0.4645
C15 C 0.31565(14) 0.54702(17) 0.49926(8)
H10 H 0.2883 0.6396 0.4912
C16 C 0.42470(16) -0.34950(18) 0.27846(8)
H11 H 0.3737 -0.3987 0.2978
C17 C 0.5000 -0.4238(3) 0.2500
H12 H 0.5000 -0.5224 0.2500
C1A C 0.67975(14) 0.48185(17) -0.06065(8)
O1A O 0.76173(12) 0.67401(14) -0.10764(6)
C2A C 0.60701(14) 0.33487(17) 0.03857(8)
C3A C 0.57637(14) 0.25424(16) 0.09281(7)
C4A C 0.59908(14) 0.27291(17) -0.02366(8)
H1A H 0.5687 0.1817 -0.0323
C6A C 0.57596(15) -0.20310(17) 0.22138(8)
H2A H 0.6273 -0.1545 0.2021
C7A C 0.63520(14) 0.34426(17) -0.07187(8)
H3A H 0.6300 0.3006 -0.1127
C8A C 0.52552(14) 0.09891(16) 0.19695(8)
C9A C 0.60764(14) 0.20768(17) 0.21100(8)
H4A H 0.6462 0.2297 0.2552
C10A C 0.64852(14) 0.47415(17) 0.04871(8)
H5A H 0.6519 0.5185 0.0892
C11A C 0.72413(15) 0.55494(19) -0.11151(8)
H6A H 0.7230 0.5045 -0.1502
C12A C 0.46849(15) 0.06796(17) 0.13076(8)
H7A H 0.4129 -0.0047 0.1208
C13A C 0.63251(14) 0.28369(17) 0.15951(8)
H8A H 0.6881 0.3563 0.1697
C14A C 0.49392(14) 0.14466(17) 0.07959(8)
H9A H 0.4552 0.1226 0.0355
C15A C 0.68435(14) 0.54702(17) 0.00074(8)
H10A H 0.7117 0.6396 0.0088
C16A C 0.57530(16) -0.34950(18) 0.22154(8)
H11A H 0.6263 -0.3987 0.2022
loop_
_geom_bond_atom_site_label_1
_geom_bond_atom_site_label_2
_geom_bond_site_symmetry_1
_geom_bond_site_symmetry_2
N1 C5 1_555 1_555
C1 C7 1_555 1_555
O1 C11 1_555 1_555
C2 C3 1_555 1_555
C3 C13 1_555 1_555
C4 C2 1_555 1_555
H1 C4 1_555 1_555
C5 C6 1_555 1_555
C6 H2 1_555 1_555
C7 C4 1_555 1_555
H3 C7 1_555 1_555
C8 N1 1_555 1_555
C9 C8 1_555 1_555
H4 C9 1_555 1_555
C10 C2 1_555 1_555
H5 C10 1_555 1_555
C11 C1 1_555 1_555
H6 C11 1_555 1_555
C12 C8 1_555 1_555
H7 C12 1_555 1_555
C13 C9 1_555 1_555
H8 C13 1_555 1_555
C14 C3 1_555 1_555
H9 C14 1_555 1_555
C15 C1 1_555 1_555
H10 C15 1_555 1_555
C16 C6 1_555 1_555
H11 C16 1_555 1_555
C17 C16 1_555 1_555
H12 C17 1_555 1_555
C1A C7A 1_555 1_555
O1A C11A 1_555 1_555
C2A C3A 1_555 1_555
C3A C13A 1_555 1_555
C4A C2A 1_555 1_555
H1A C4A 1_555 1_555
C6A C5 1_555 1_555
H2A C6A 1_555 1_555
C7A C4A 1_555 1_555
H3A C7A 1_555 1_555
C8A N1 1_555 1_555
C9A C8A 1_555 1_555
H4A C9A 1_555 1_555
C10A C2A 1_555 1_555
H5A C10A 1_555 1_555
C11A C1A 1_555 1_555
H6A C11A 1_555 1_555
C12A C8A 1_555 1_555
H7A C12A 1_555 1_555
C13A C9A 1_555 1_555
H8A C13A 1_555 1_555
C14A C3A 1_555 1_555
H9A C14A 1_555 1_555
C15A C1A 1_555 1_555
H10A C15A 1_555 1_555
C16A C17 1_555 1_555
H11A C16A 1_555 1_555
C10 C15 1_555 1_555
C12 C14 1_555 1_555
C6A C16A 1_555 1_555
C10A C15A 1_555 1_555
C12A C14A 1_555 1_555

#END
