
#######################################################################
#
#                 Cambridge Crystallographic Data Centre
#                                CCDC 
#
#######################################################################
#
# If this CIF has been generated from an entry in the Cambridge 
# Structural Database, then it will include bibliographic, chemical, 
# crystal, experimental, refinement or atomic coordinate data resulting 
# from the CCDC's data processing and validation procedures.
#
#######################################################################

data_SAWBOJ
_chemical_compound_source        'South China Sea sponge Acanthella cavernosa'
_chemical_name_common            'Kalihinol N'
_chemical_formula_moiety         'C22 H35 Cl1 N2 O3 S1'
_chemical_name_systematic        
N-(8-(5-Chloro-2,6,6-trimethyltetrahydro-2H-pyran-2-yl)-1-hydroxy-5-isothiocyanato-2,5-dimethyldecahydronaphthalen-2-yl)formamide
_symmetry_cell_setting           orthorhombic
_symmetry_space_group_name_H-M   'P 21 21 21'
_symmetry_Int_Tables_number      19
_space_group_name_Hall           'P 2ac 2ab'
loop_
_symmetry_equiv_pos_site_id
_symmetry_equiv_pos_as_xyz
1 x,y,z
2 1/2+x,1/2-y,-z
3 -x,1/2+y,1/2-z
4 1/2-x,-y,1/2+z
_cell_length_a                   10.0999(15)
_cell_length_b                   11.0528(15)
_cell_length_c                   20.9740(30)
_cell_angle_alpha                90
_cell_angle_beta                 90
_cell_angle_gamma                90
_cell_volume                     2341.37
_exptl_crystal_colour            colorless
_exptl_crystal_description       block
_cell_formula_units_Z            4
loop_
_atom_site_label
_atom_site_type_symbol
_atom_site_fract_x
_atom_site_fract_y
_atom_site_fract_z
S1 S 0.75942(8) -0.02724(7) 1.20662(3)
Cl1 Cl -0.03691(9) -0.02287(10) 0.87216(5)
O1 O 0.4668(2) 0.21714(15) 0.83905(8)
H1 H 0.3945 0.1878 0.8302
O2 O 0.26640(16) 0.07074(13) 0.84296(6)
O3 O 0.6794(3) 0.5533(2) 0.94512(14)
N1 N 0.6340(3) -0.0375(3) 1.09067(11)
N2 N 0.5371(2) 0.41558(17) 0.90156(12)
C1 C 0.5690(2) 0.0769(2) 0.99712(10)
H2 H 0.4898 0.0984 1.0216
C2 C 0.6713(3) 0.1740(2) 1.01130(12)
H3 H 0.6897 0.1746 1.0567
H4 H 0.7530 0.1544 0.9893
C3 C 0.6264(3) 0.2977(2) 0.99119(13)
H5 H 0.6943 0.3566 1.0014
H6 H 0.5467 0.3194 1.0143
C4 C 0.5986(2) 0.29997(18) 0.91975(11)
C5 C 0.4907(2) 0.20439(17) 0.90532(9)
H7 H 0.4100 0.2281 0.9281
C6 C 0.5260(2) 0.07427(17) 0.92549(9)
H8 H 0.6016 0.0472 0.8999
C7 C 0.4119(2) -0.02055(17) 0.91808(10)
H9 H 0.3419 0.0042 0.9477
C8 C 0.4645(3) -0.1440(2) 0.94266(13)
H10 H 0.3964 -0.2049 0.9370
H11 H 0.5406 -0.1677 0.9174
C9 C 0.5040(3) -0.1396(2) 1.01227(14)
H12 H 0.5334 -0.2190 1.0259
H13 H 0.4281 -0.1170 1.0380
C10 C 0.6144(2) -0.0486(2) 1.02205(11)
C11 C 0.3435(2) -0.03977(19) 0.85186(10)
C12 C 0.2459(3) -0.1453(2) 0.85616(12)
H14 H 0.2949 -0.2208 0.8545
H15 H 0.2007 -0.1418 0.8969
C13 C 0.1438(3) -0.1447(3) 0.80327(14)
H16 H 0.1879 -0.1560 0.7626
H17 H 0.0831 -0.2117 0.8094
C14 C 0.0672(3) -0.0283(3) 0.80199(12)
H18 H 0.0098 -0.0289 0.7643
C15 C 0.1589(3) 0.0806(2) 0.79721(11)
C16 C 0.0914(3) 0.1989(3) 0.81565(16)
H19 H 0.0585 0.1929 0.8585
H20 H 0.0191 0.2142 0.7871
H21 H 0.1541 0.2640 0.8130
C17 C 0.2102(4) 0.0906(3) 0.72846(12)
H22 H 0.2522 0.0160 0.7165
H23 H 0.2732 0.1554 0.7257
H24 H 0.1375 0.1065 0.7002
C18 C 0.4452(3) -0.0594(3) 0.79882(13)
H25 H 0.4001 -0.0708 0.7590
H26 H 0.4973 -0.1298 0.8083
H27 H 0.5020 0.0100 0.7959
C19 C 0.7224(3) 0.2801(2) 0.87938(14)
H28 H 0.7871 0.3408 0.8896
H29 H 0.6997 0.2857 0.8350
H30 H 0.7583 0.2014 0.8881
C20 C 0.7436(3) -0.0921(3) 0.99306(16)
H31 H 0.7656 -0.1701 1.0102
H32 H 0.8129 -0.0357 1.0030
H33 H 0.7341 -0.0981 0.9476
C21 C 0.6892(3) -0.0332(2) 1.13888(12)
C22 C 0.5842(3) 0.5265(2) 0.91350(16)
H34 H 0.5380 0.5905 0.8952
H35 H 0.489(3) 0.410(3) 0.8724(14)
loop_
_geom_bond_atom_site_label_1
_geom_bond_atom_site_label_2
_geom_bond_site_symmetry_1
_geom_bond_site_symmetry_2
S1 C21 1_555 1_555
Cl1 C14 1_555 1_555
O1 H1 1_555 1_555
O2 C11 1_555 1_555
O3 C22 1_555 1_555
N1 C10 1_555 1_555
N2 C4 1_555 1_555
C1 H2 1_555 1_555
C2 C1 1_555 1_555
H3 C2 1_555 1_555
H4 C2 1_555 1_555
C3 C2 1_555 1_555
H5 C3 1_555 1_555
H6 C3 1_555 1_555
C4 C3 1_555 1_555
C5 O1 1_555 1_555
H7 C5 1_555 1_555
C6 C1 1_555 1_555
H8 C6 1_555 1_555
C7 C6 1_555 1_555
H9 C7 1_555 1_555
C8 C7 1_555 1_555
H10 C8 1_555 1_555
H11 C8 1_555 1_555
C9 C8 1_555 1_555
H12 C9 1_555 1_555
H13 C9 1_555 1_555
C10 C1 1_555 1_555
C11 C7 1_555 1_555
C12 C11 1_555 1_555
H14 C12 1_555 1_555
H15 C12 1_555 1_555
C13 C12 1_555 1_555
H16 C13 1_555 1_555
H17 C13 1_555 1_555
C14 C13 1_555 1_555
H18 C14 1_555 1_555
C15 O2 1_555 1_555
C16 C15 1_555 1_555
H19 C16 1_555 1_555
H20 C16 1_555 1_555
H21 C16 1_555 1_555
C17 C15 1_555 1_555
H22 C17 1_555 1_555
H23 C17 1_555 1_555
H24 C17 1_555 1_555
C18 C11 1_555 1_555
H25 C18 1_555 1_555
H26 C18 1_555 1_555
H27 C18 1_555 1_555
C19 C4 1_555 1_555
H28 C19 1_555 1_555
H29 C19 1_555 1_555
H30 C19 1_555 1_555
C20 C10 1_555 1_555
H31 C20 1_555 1_555
H32 C20 1_555 1_555
H33 C20 1_555 1_555
C21 N1 1_555 1_555
C22 N2 1_555 1_555
H34 C22 1_555 1_555
H35 N2 1_555 1_555
C4 C5 1_555 1_555
C5 C6 1_555 1_555
C9 C10 1_555 1_555
C14 C15 1_555 1_555

#END
