
#######################################################################
#
#                 Cambridge Crystallographic Data Centre
#                                CCDC 
#
#######################################################################
#
# If this CIF has been generated from an entry in the Cambridge 
# Structural Database, then it will include bibliographic, chemical, 
# crystal, experimental, refinement or atomic coordinate data resulting 
# from the CCDC's data processing and validation procedures.
#
#######################################################################

data_SAWBAW
_chemical_formula_moiety         'C22 H29 F2 N2 O7 P1 S1'
_chemical_name_systematic        
'benzyl 3-amino-4-(diethoxyphosphoryl)-4,4-difluoro-2-(((4-methylphenyl)sulfonyl)amino)butanoate'
_symmetry_cell_setting           orthorhombic
_symmetry_space_group_name_H-M   'P 21 21 21'
_symmetry_Int_Tables_number      19
_space_group_name_Hall           'P 2ac 2ab'
loop_
_symmetry_equiv_pos_site_id
_symmetry_equiv_pos_as_xyz
1 x,y,z
2 1/2-x,-y,1/2+z
3 -x,1/2+y,1/2-z
4 1/2+x,1/2-y,-z
_cell_length_a                   8.1435(16)
_cell_length_b                   11.604(2)
_cell_length_c                   27.478(5)
_cell_angle_alpha                90
_cell_angle_beta                 90
_cell_angle_gamma                90
_cell_volume                     2596.59
_cell_formula_units_Z            4
loop_
_atom_site_label
_atom_site_type_symbol
_atom_site_fract_x
_atom_site_fract_y
_atom_site_fract_z
C1 C 0.8403(11) 0.5901(8) 0.8206(2)
H1 H 0.8305 0.5093 0.8137
H2 H 0.7467 0.6151 0.8391
H3 H 0.9385 0.6036 0.8391
C2 C 0.8483(8) 0.6573(6) 0.7730(2)
C3 C 0.9396(8) 0.6193(5) 0.7344(2)
H4 H 1.0008 0.5521 0.7379
C4 C 0.9439(7) 0.6775(5) 0.6905(2)
H5 H 1.0070 0.6499 0.6648
C5 C 0.8532(6) 0.7768(4) 0.6853(2)
C6 C 0.7657(9) 0.8194(5) 0.7241(2)
H6 H 0.7091 0.8887 0.7213
C7 C 0.7624(10) 0.7578(6) 0.7674(2)
H7 H 0.7003 0.7855 0.7933
C8 C 0.5151(6) 0.8313(4) 0.61704(16)
H8 H 0.5212 0.9069 0.6328
C9 C 0.4438(6) 0.7467(5) 0.65416(18)
C10 C 0.4662(9) 0.5644(5) 0.6909(2)
H9 H 0.3471 0.5616 0.6905
H10 H 0.5018 0.5860 0.7233
C11 C 0.5356(7) 0.4485(5) 0.67749(19)
C12 C 0.5006(10) 0.3998(6) 0.6326(2)
H11 H 0.4402 0.4413 0.6098
C13 C 0.5535(14) 0.2927(7) 0.6217(3)
H12 H 0.5259 0.2597 0.5920
C14 C 0.6466(14) 0.2327(7) 0.6539(4)
H13 H 0.6827 0.1591 0.6459
C15 C 0.6881(11) 0.2798(8) 0.6981(4)
H14 H 0.7535 0.2390 0.7198
C16 C 0.6314(8) 0.3888(6) 0.7100(2)
H15 H 0.6582 0.4215 0.7398
C17 C 0.3898(6) 0.8411(4) 0.57494(17)
H16 H 0.2857 0.8663 0.5893
C18 C 0.4398(6) 0.9328(4) 0.53815(19)
C19 C 0.4269(13) 1.0231(9) 0.4129(3)
H17 H 0.4698 0.9455 0.4162
H18 H 0.3349 1.0202 0.3904
C20 C 0.5513(16) 1.0955(12) 0.3931(5)
H19 H 0.5199 1.1747 0.3970
H20 H 0.5651 1.0787 0.3592
H21 H 0.6529 1.0820 0.4099
C21 C 0.0159(15) 1.0499(9) 0.5301(5)
H22 H -0.0172 0.9841 0.5107
H23 H -0.0047 1.0291 0.5638
C22 C -0.1033(14) 1.1451(11) 0.5182(6)
H24 H -0.0761 1.1777 0.4871
H25 H -0.0970 1.2038 0.5428
H26 H -0.2128 1.1145 0.5171
F1 F 0.5686(4) 0.8956(3) 0.51041(12)
F2 F 0.4945(4) 1.0295(3) 0.56159(12)
N1 N 0.3607(6) 0.7289(3) 0.55352(16)
H27 H 0.2748 0.7333 0.5336
H28 H 0.3396 0.6784 0.5771
N2 N 0.6801(5) 0.8025(3) 0.60016(15)
H29 H 0.6846 0.7267 0.5845
O1 O 0.9772(5) 0.8114(4) 0.59927(18)
O2 O 0.8165(6) 0.9659(3) 0.63815(18)
O3 O 0.5249(5) 0.6486(3) 0.65540(13)
O4 O 0.3258(5) 0.7707(4) 0.67872(14)
O5 O 0.1990(5) 0.8810(4) 0.47092(14)
O6 O 0.1720(6) 1.0574(5) 0.52575(18)
O7 O 0.3697(6) 1.0629(3) 0.45964(15)
P1 P 0.27894(18) 0.97795(12) 0.49419(5)
S1 S 0.84177(17) 0.84696(12) 0.62804(6)
loop_
_geom_bond_atom_site_label_1
_geom_bond_atom_site_label_2
_geom_bond_site_symmetry_1
_geom_bond_site_symmetry_2
C1 H1 1_555 1_555
H2 C1 1_555 1_555
H3 C1 1_555 1_555
C2 C1 1_555 1_555
C3 C2 1_555 1_555
H4 C3 1_555 1_555
C4 C3 1_555 1_555
H5 C4 1_555 1_555
C5 C4 1_555 1_555
C6 C5 1_555 1_555
H6 C6 1_555 1_555
C7 C2 1_555 1_555
H7 C7 1_555 1_555
C8 H8 1_555 1_555
C9 C8 1_555 1_555
C10 H9 1_555 1_555
H10 C10 1_555 1_555
C11 C10 1_555 1_555
C12 C11 1_555 1_555
H11 C12 1_555 1_555
C13 C12 1_555 1_555
H12 C13 1_555 1_555
C14 C13 1_555 1_555
H13 C14 1_555 1_555
C15 C14 1_555 1_555
H14 C15 1_555 1_555
C16 C11 1_555 1_555
H15 C16 1_555 1_555
C17 C8 1_555 1_555
H16 C17 1_555 1_555
C18 C17 1_555 1_555
C19 H17 1_555 1_555
H18 C19 1_555 1_555
C20 C19 1_555 1_555
H19 C20 1_555 1_555
H20 C20 1_555 1_555
H21 C20 1_555 1_555
C21 H22 1_555 1_555
H23 C21 1_555 1_555
C22 C21 1_555 1_555
H24 C22 1_555 1_555
H25 C22 1_555 1_555
H26 C22 1_555 1_555
F1 C18 1_555 1_555
F2 C18 1_555 1_555
N1 C17 1_555 1_555
H27 N1 1_555 1_555
H28 N1 1_555 1_555
N2 C8 1_555 1_555
H29 N2 1_555 1_555
O1 S1 1_555 1_555
O2 S1 1_555 1_555
O3 C9 1_555 1_555
O4 C9 1_555 1_555
O5 P1 1_555 1_555
O6 C21 1_555 1_555
O7 C19 1_555 1_555
P1 C18 1_555 1_555
S1 C5 1_555 1_555
C6 C7 1_555 1_555
C10 O3 1_555 1_555
C15 C16 1_555 1_555
N2 S1 1_555 1_555
O6 P1 1_555 1_555
O7 P1 1_555 1_555

#END
