
#######################################################################
#
#                 Cambridge Crystallographic Data Centre
#                                CCDC 
#
#######################################################################
#
# If this CIF has been generated from an entry in the Cambridge 
# Structural Database, then it will include bibliographic, chemical, 
# crystal, experimental, refinement or atomic coordinate data resulting 
# from the CCDC's data processing and validation procedures.
#
#######################################################################

data_SAWBUP
_chemical_compound_source        'South China Sea sponge Acanthella cavernosa'
_chemical_name_common            'Kalihinol O'
_chemical_formula_moiety         'C22 H33 Cl1 N2 O2 S1'
_chemical_name_systematic        
8-(5-Chloro-2,6,6-trimethyltetrahydro-2H-pyran-2-yl)-5-isothiocyanato-2,5-dimethyl-1-isocyanodecahydronaphthalen-2-ol
_symmetry_cell_setting           orthorhombic
_symmetry_space_group_name_H-M   'P 21 21 21'
_symmetry_Int_Tables_number      19
_space_group_name_Hall           'P 2ac 2ab'
loop_
_symmetry_equiv_pos_site_id
_symmetry_equiv_pos_as_xyz
1 x,y,z
2 1/2-x,-y,1/2+z
3 -x,1/2+y,1/2-z
4 1/2+x,1/2-y,-z
_cell_length_a                   11.78810(10)
_cell_length_b                   13.2064(2)
_cell_length_c                   15.0081(2)
_cell_angle_alpha                90
_cell_angle_beta                 90
_cell_angle_gamma                90
_cell_volume                     2336.44
_exptl_crystal_colour            colorless
_exptl_crystal_description       block
_cell_formula_units_Z            4
loop_
_atom_site_label
_atom_site_type_symbol
_atom_site_fract_x
_atom_site_fract_y
_atom_site_fract_z
S1 S 1.46346(11) 0.23164(9) 0.77653(7)
Cl1 Cl 0.68617(6) 0.14623(6) 0.96289(6)
O1 O 0.86301(11) -0.04268(11) 0.91834(8)
O2 O 1.13958(16) -0.27560(12) 0.82216(11)
H1 H 1.0976 -0.3241 0.8135
N1 N 1.39548(16) 0.07480(16) 0.88359(15)
N2 N 1.01256(14) -0.03514(14) 0.75662(11)
C1 C 1.22956(16) -0.02957(15) 0.85565(13)
H2 H 1.2093 0.0240 0.8133
C2 C 1.29506(19) -0.11072(18) 0.80361(16)
H3 H 1.3645 -0.0815 0.7802
H4 H 1.3157 -0.1654 0.8436
C3 C 1.22527(19) -0.15284(19) 0.72735(15)
H5 H 1.2684 -0.2051 0.6970
H6 H 1.2098 -0.0993 0.6849
C4 C 1.11336(19) -0.19735(16) 0.76029(14)
C5 C 1.04801(17) -0.11657(14) 0.81492(12)
H7 H 0.9798 -0.1485 0.8396
C6 C 1.11804(15) -0.07279(14) 0.89331(12)
H8 H 1.1384 -0.1298 0.9319
C7 C 1.05068(16) 0.00377(14) 0.95161(12)
H9 H 1.0278 0.0592 0.9121
C8 C 1.12989(18) 0.05019(19) 1.02202(14)
H10 H 1.0891 0.1015 1.0554
H11 H 1.1536 -0.0021 1.0635
C9 C 1.23349(18) 0.09731(18) 0.97941(16)
H12 H 1.2799 0.1283 1.0253
H13 H 1.2097 0.1502 0.9387
C10 C 1.30440(17) 0.01941(17) 0.92866(14)
C11 C 0.93976(17) -0.03901(16) 0.99353(12)
C12 C 0.89147(19) 0.0345(2) 1.06326(14)
H14 H 0.9357 0.0291 1.1176
H15 H 0.8987 0.1032 1.0413
C13 C 0.7674(2) 0.0133(2) 1.08443(16)
H16 H 0.7607 -0.0529 1.1120
H17 H 0.7397 0.0634 1.1264
C14 C 0.6962(2) 0.01634(18) 1.00070(16)
H18 H 0.6196 -0.0064 1.0163
C15 C 0.74178(17) -0.05456(17) 0.92849(15)
C16 C 0.7089(2) -0.1634(2) 0.9519(2)
H19 H 0.7372 -0.2085 0.9070
H20 H 0.6278 -0.1688 0.9550
H21 H 0.7412 -0.1812 1.0086
C17 C 0.6961(2) -0.0310(2) 0.83603(17)
H22 H 0.7277 -0.0778 0.7938
H23 H 0.7169 0.0368 0.8197
H24 H 0.6150 -0.0372 0.8362
C18 C 0.9592(2) -0.1442(2) 1.03503(16)
H25 H 0.8895 -0.1684 1.0602
H26 H 1.0157 -0.1393 1.0809
H27 H 0.9846 -0.1903 0.9898
C19 C 1.0417(2) -0.23714(19) 0.68332(16)
H28 H 1.0842 -0.2869 0.6507
H29 H 1.0222 -0.1822 0.6444
H30 H 0.9737 -0.2674 0.7063
C20 C 1.3606(2) -0.0561(2) 0.99159(17)
H31 H 1.4053 -0.0203 1.0347
H32 H 1.4086 -0.1008 0.9580
H33 H 1.3033 -0.0949 1.0216
C21 C 1.4205(2) 0.1424(2) 0.83751(16)
C22 C 0.9849(2) 0.0300(2) 0.71150(15)
loop_
_geom_bond_atom_site_label_1
_geom_bond_atom_site_label_2
_geom_bond_site_symmetry_1
_geom_bond_site_symmetry_2
S1 C21 1_555 1_555
Cl1 C14 1_555 1_555
O1 C11 1_555 1_555
O2 H1 1_555 1_555
N1 C10 1_555 1_555
N2 C5 1_555 1_555
C1 H2 1_555 1_555
C2 C1 1_555 1_555
H3 C2 1_555 1_555
H4 C2 1_555 1_555
C3 C2 1_555 1_555
H5 C3 1_555 1_555
H6 C3 1_555 1_555
C4 O2 1_555 1_555
C5 C4 1_555 1_555
H7 C5 1_555 1_555
C6 C1 1_555 1_555
H8 C6 1_555 1_555
C7 C6 1_555 1_555
H9 C7 1_555 1_555
C8 C7 1_555 1_555
H10 C8 1_555 1_555
H11 C8 1_555 1_555
C9 C8 1_555 1_555
H12 C9 1_555 1_555
H13 C9 1_555 1_555
C10 C1 1_555 1_555
C11 C7 1_555 1_555
C12 C11 1_555 1_555
H14 C12 1_555 1_555
H15 C12 1_555 1_555
C13 C12 1_555 1_555
H16 C13 1_555 1_555
H17 C13 1_555 1_555
C14 C13 1_555 1_555
H18 C14 1_555 1_555
C15 O1 1_555 1_555
C16 C15 1_555 1_555
H19 C16 1_555 1_555
H20 C16 1_555 1_555
H21 C16 1_555 1_555
C17 C15 1_555 1_555
H22 C17 1_555 1_555
H23 C17 1_555 1_555
H24 C17 1_555 1_555
C18 C11 1_555 1_555
H25 C18 1_555 1_555
H26 C18 1_555 1_555
H27 C18 1_555 1_555
C19 C4 1_555 1_555
H28 C19 1_555 1_555
H29 C19 1_555 1_555
H30 C19 1_555 1_555
C20 C10 1_555 1_555
H31 C20 1_555 1_555
H32 C20 1_555 1_555
H33 C20 1_555 1_555
C21 N1 1_555 1_555
C22 N2 1_555 1_555
C3 C4 1_555 1_555
C5 C6 1_555 1_555
C9 C10 1_555 1_555
C14 C15 1_555 1_555

#END
