
#######################################################################
#
#                 Cambridge Crystallographic Data Centre
#                                CCDC 
#
#######################################################################
#
# If this CIF has been generated from an entry in the Cambridge 
# Structural Database, then it will include bibliographic, chemical, 
# crystal, experimental, refinement or atomic coordinate data resulting 
# from the CCDC's data processing and validation procedures.
#
#######################################################################

data_SAWBEZ
_chemical_formula_moiety         'C11 H12 F3 N1 O2'
_chemical_name_systematic        
2,2,2-Trifluoro-N-(1-hydroxy-3-phenylpropan-2-yl)acetamide
_symmetry_cell_setting           monoclinic
_symmetry_space_group_name_H-M   'P 21'
_symmetry_Int_Tables_number      4
_space_group_name_Hall           'P 2yb'
loop_
_symmetry_equiv_pos_site_id
_symmetry_equiv_pos_as_xyz
1 x,y,z
2 -x,1/2+y,-z
_cell_length_a                   8.247(3)
_cell_length_b                   5.0946(16)
_cell_length_c                   14.235(5)
_cell_angle_alpha                90
_cell_angle_beta                 100.136(4)
_cell_angle_gamma                90
_cell_volume                     588.751
_cell_formula_units_Z            2
loop_
_atom_site_label
_atom_site_type_symbol
_atom_site_fract_x
_atom_site_fract_y
_atom_site_fract_z
C1 C 1.0870(5) 0.3755(10) 0.2701(3)
H1 H 1.0593 0.2444 0.3099
C2 C 1.2205(5) 0.5330(11) 0.3016(3)
H2 H 1.2818 0.5080 0.3624
C3 C 1.2646(5) 0.7294(10) 0.2434(3)
H3 H 1.3538 0.8384 0.2651
C4 C 1.1750(5) 0.7602(9) 0.1538(3)
H4 H 1.2051 0.8884 0.1137
C5 C 1.0410(5) 0.6036(10) 0.1225(3)
H5 H 0.9812 0.6287 0.0614
C6 C 0.9925(5) 0.4076(8) 0.1802(2)
C7 C 0.8401(5) 0.2483(8) 0.1479(3)
H6 H 0.8561 0.0732 0.1747
H7 H 0.8217 0.2324 0.0790
C8 C 0.6882(4) 0.3711(6) 0.1780(2)
H8 H 0.6803 0.5541 0.1565
C9 C 0.5297(5) 0.2314(8) 0.1350(2)
H9 H 0.5347 0.0516 0.1578
H10 H 0.4380 0.3167 0.1569
C10 C 0.7140(4) 0.5826(8) 0.3345(2)
C11 C 0.7358(5) 0.5403(8) 0.4416(3)
F1 F 0.8693(4) 0.6462(8) 0.4862(2)
F2 F 0.6148(4) 0.6453(9) 0.4758(2)
F3 F 0.7407(5) 0.2896(6) 0.46600(19)
N1 N 0.7027(3) 0.3684(5) 0.28126(18)
H11 H 0.7041 0.2188 0.3094
O1 O 0.5006(4) 0.2304(5) 0.03403(18)
H12 H 0.4959 0.3820 0.0143
O2 O 0.7089(4) 0.8078(5) 0.30499(18)
loop_
_geom_bond_atom_site_label_1
_geom_bond_atom_site_label_2
_geom_bond_site_symmetry_1
_geom_bond_site_symmetry_2
C1 H1 1_555 1_555
C2 C1 1_555 1_555
H2 C2 1_555 1_555
C3 C2 1_555 1_555
H3 C3 1_555 1_555
C4 C3 1_555 1_555
H4 C4 1_555 1_555
C5 C4 1_555 1_555
H5 C5 1_555 1_555
C6 C1 1_555 1_555
C7 C6 1_555 1_555
H6 C7 1_555 1_555
H7 C7 1_555 1_555
C8 C7 1_555 1_555
H8 C8 1_555 1_555
C9 C8 1_555 1_555
H9 C9 1_555 1_555
H10 C9 1_555 1_555
C10 C11 1_555 1_555
C11 F1 1_555 1_555
F2 C11 1_555 1_555
F3 C11 1_555 1_555
N1 C8 1_555 1_555
H11 N1 1_555 1_555
O1 C9 1_555 1_555
H12 O1 1_555 1_555
O2 C10 1_555 1_555
C5 C6 1_555 1_555
C10 N1 1_555 1_555

#END
