
#######################################################################
#
#                 Cambridge Crystallographic Data Centre
#                                CCDC 
#
#######################################################################
#
# If this CIF has been generated from an entry in the Cambridge 
# Structural Database, then it will include bibliographic, chemical, 
# crystal, experimental, refinement or atomic coordinate data resulting 
# from the CCDC's data processing and validation procedures.
#
#######################################################################

data_SAWDIF
_chemical_formula_moiety         'C13 H14 N2 O3'
_chemical_name_systematic        
(5,6-Dimethoxy-1-oxo-1,2,3,4-tetrahydroisoquinolin-3-yl)acetonitrile
_symmetry_cell_setting           monoclinic
_symmetry_space_group_name_H-M   'P 21/n'
_symmetry_Int_Tables_number      14
_space_group_name_Hall           '-P 2yn'
loop_
_symmetry_equiv_pos_site_id
_symmetry_equiv_pos_as_xyz
1 x,y,z
2 1/2-x,1/2+y,1/2-z
3 -x,-y,-z
4 1/2+x,1/2-y,1/2+z
_cell_length_a                   7.338(6)
_cell_length_b                   10.441(6)
_cell_length_c                   15.846(3)
_cell_angle_alpha                90
_cell_angle_beta                 90.60(3)
_cell_angle_gamma                90
_cell_volume                     1213.99
_exptl_crystal_colour            colorless
_exptl_crystal_description       rod
_cell_formula_units_Z            4
loop_
_atom_site_label
_atom_site_type_symbol
_atom_site_fract_x
_atom_site_fract_y
_atom_site_fract_z
O1 O 0.3209(4) 0.6163(3) 0.46412(16)
O2 O -0.4246(3) 0.7697(3) 0.63715(18)
O3 O -0.2735(3) 0.5656(3) 0.71632(17)
N1 N 0.3372(4) 0.4959(3) 0.58320(19)
N2 N 0.2868(6) 0.1457(4) 0.6457(2)
C1 C 0.2576(5) 0.5844(4) 0.5333(2)
C2 C 0.0836(5) 0.6405(4) 0.5650(2)
C3 C 0.0092(5) 0.7465(4) 0.5249(2)
H1 H 0.0724 0.7860 0.4814
C4 C -0.1580(5) 0.7941(4) 0.5490(2)
H2 H -0.2062 0.8661 0.5224
C5 C -0.2540(5) 0.7347(4) 0.6127(2)
C6 C -0.1771(5) 0.6302(4) 0.6554(2)
C7 C -0.0079(5) 0.5835(3) 0.6319(2)
C8 C 0.0780(5) 0.4694(4) 0.6751(2)
H3 H 0.0377 0.3912 0.6476
H4 H 0.0403 0.4663 0.7336
C9 C 0.2837(5) 0.4793(4) 0.6710(2)
H5 H 0.3214 0.5558 0.7024
C10 C 0.3844(5) 0.3646(4) 0.7082(3)
H6 H 0.5140 0.3761 0.6994
H7 H 0.3644 0.3628 0.7686
C11 C 0.3301(5) 0.2422(5) 0.6730(3)
C12 C -0.5138(6) 0.8647(4) 0.5871(3)
H8 H -0.6322 0.8817 0.6098
H9 H -0.5265 0.8345 0.5302
H10 H -0.4429 0.9420 0.5878
C13 C -0.3034(6) 0.6333(5) 0.7937(2)
H11 H -0.3713 0.5801 0.8315
H12 H -0.3706 0.7103 0.7823
H13 H -0.1881 0.6547 0.8193
H14 H 0.474(7) 0.459(5) 0.555(3)
loop_
_geom_bond_atom_site_label_1
_geom_bond_atom_site_label_2
_geom_bond_site_symmetry_1
_geom_bond_site_symmetry_2
O1 C1 1_555 1_555
O2 C5 1_555 1_555
O3 C6 1_555 1_555
N1 C1 1_555 1_555
N2 C11 1_555 1_555
C1 C2 1_555 1_555
C2 C3 1_555 1_555
C3 H1 1_555 1_555
C4 C3 1_555 1_555
H2 C4 1_555 1_555
C5 C4 1_555 1_555
C6 C5 1_555 1_555
C7 C2 1_555 1_555
C8 C7 1_555 1_555
H3 C8 1_555 1_555
H4 C8 1_555 1_555
C9 N1 1_555 1_555
H5 C9 1_555 1_555
C10 C9 1_555 1_555
H6 C10 1_555 1_555
H7 C10 1_555 1_555
C11 C10 1_555 1_555
C12 O2 1_555 1_555
H8 C12 1_555 1_555
H9 C12 1_555 1_555
H10 C12 1_555 1_555
C13 O3 1_555 1_555
H11 C13 1_555 1_555
H12 C13 1_555 1_555
H13 C13 1_555 1_555
H14 N1 1_555 1_555
C6 C7 1_555 1_555
C8 C9 1_555 1_555

#END
