
#######################################################################
#
#                 Cambridge Crystallographic Data Centre
#                                CCDC 
#
#######################################################################
#
# If this CIF has been generated from an entry in the Cambridge 
# Structural Database, then it will include bibliographic, chemical, 
# crystal, experimental, refinement or atomic coordinate data resulting 
# from the CCDC's data processing and validation procedures.
#
#######################################################################

data_SAWDAW
_chemical_formula_moiety         'C26 H32 B1 N1 O5'
_chemical_name_systematic        
'cis-2-Butyl-1-oxo-3-(4-(4,4,5,5-tetramethyl-1,3,2-dioxaborolan-2-yl)phenyl)-1,2,3,4-tetrahydro-4-isoquinolinecarboxylic acid'
_chemical_properties_biological  
'no antifungal activity against Candida albicans, Saccharomyces cerevisiae, Aspergillus niger and Aspergillus flavus'
_symmetry_cell_setting           orthorhombic
_symmetry_space_group_name_H-M   'P b c a'
_symmetry_Int_Tables_number      61
_space_group_name_Hall           '-P 2ac 2ab'
loop_
_symmetry_equiv_pos_site_id
_symmetry_equiv_pos_as_xyz
1 x,y,z
2 1/2-x,-y,1/2+z
3 -x,1/2+y,1/2-z
4 1/2+x,1/2-y,-z
5 -x,-y,-z
6 1/2+x,y,1/2-z
7 x,1/2-y,1/2+z
8 1/2-x,1/2+y,z
_cell_length_a                   16.8716(17)
_cell_length_b                   9.8494(9)
_cell_length_c                   29.863(3)
_cell_angle_alpha                90
_cell_angle_beta                 90
_cell_angle_gamma                90
_cell_volume                     4962.49
_exptl_crystal_colour            colorless
_exptl_crystal_description       plate
_chemical_melting_point          208-210deg.C
_cell_formula_units_Z            8
_exptl_crystal_recrystallization_method ethanol
loop_
_atom_site_label
_atom_site_type_symbol
_atom_site_fract_x
_atom_site_fract_y
_atom_site_fract_z
C1 C 0.41990(10) 0.69507(17) 0.28772(6)
C2 C 0.42918(10) 0.72948(17) 0.23752(6)
C3 C 0.36644(10) 0.82733(17) 0.22116(6)
C4 C 0.29193(10) 0.82268(17) 0.24155(6)
C5 C 0.27499(10) 0.72616(17) 0.27869(6)
N1 N 0.33686(8) 0.66194(14) 0.29772(5)
C6 C 0.32190(12) 0.55916(19) 0.33213(6)
C7 C 0.3249(2) 0.6117(3) 0.37904(8)
C8 C 0.30066(19) 0.5028(3) 0.41276(9)
C9 C 0.3518(2) 0.3785(4) 0.41205(15)
C10 C 0.45403(10) 0.80096(17) 0.31946(6)
C11 C 0.41543(12) 0.92072(19) 0.33060(7)
C12 C 0.44963(12) 1.0124(2) 0.36005(7)
C13 C 0.52300(12) 0.98752(19) 0.37978(7)
C14 C 0.56187(12) 0.8674(2) 0.36806(7)
C15 C 0.52789(11) 0.7757(2) 0.33866(7)
B1 B 0.56211(15) 1.0882(2) 0.41332(8)
O1 O 0.63050(10) 1.05984(15) 0.43559(6)
O2 O 0.53261(10) 1.21355(16) 0.42280(6)
C16 C 0.65523(17) 1.1817(2) 0.45909(9)
C17 C 0.57683(15) 1.2652(2) 0.46101(8)
C18 C 0.7190(2) 1.2465(4) 0.42892(16)
C19 C 0.6900(3) 1.1446(4) 0.50348(15)
C20 C 0.5881(2) 1.4169(3) 0.45416(13)
C21 C 0.5270(3) 1.2402(4) 0.50179(12)
C22 C 0.51510(10) 0.76962(18) 0.22932(6)
O3 O 0.53755(8) 0.88008(14) 0.21769(6)
O4 O 0.56298(8) 0.66777(13) 0.23794(5)
C23 C 0.37684(12) 0.9128(2) 0.18441(7)
C24 C 0.31492(13) 0.9941(2) 0.16955(8)
C25 C 0.24199(13) 0.99039(19) 0.19023(7)
C26 C 0.22988(11) 0.90445(18) 0.22607(7)
O5 O 0.20610(7) 0.70327(14) 0.29160(5)
H1 H 0.4489(11) 0.6114(18) 0.2927(6)
H2 H 0.4206(11) 0.6427(19) 0.2218(6)
H3 H 0.3592(12) 0.483(2) 0.3256(7)
H4 H 0.2710(15) 0.523(2) 0.3262(8)
H5 H 0.3767(19) 0.642(3) 0.3845(10)
H6 H 0.2968(18) 0.700(3) 0.3825(10)
H7 H 0.3004(19) 0.548(3) 0.4419(11)
H8 H 0.2456(19) 0.464(3) 0.4038(10)
H9 H 0.404(3) 0.401(5) 0.4156(15)
H10 H 0.345(2) 0.331(5) 0.3807(18)
H11 H 0.343(2) 0.312(4) 0.4344(13)
H12 H 0.3662(14) 0.942(2) 0.3171(7)
H13 H 0.4215(13) 1.095(2) 0.3677(7)
H14 H 0.6118(14) 0.846(2) 0.3818(8)
H15 H 0.5545(12) 0.692(2) 0.3307(7)
H16 H 0.763(2) 1.169(3) 0.4272(11)
H17 H 0.690(2) 1.266(4) 0.3942(15)
H18 H 0.738(2) 1.342(4) 0.4486(12)
H19 H 0.6338(17) 1.060(3) 0.5145(9)
H20 H 0.706(2) 1.236(4) 0.5198(13)
H21 H 0.725(3) 1.080(5) 0.5006(15)
H22 H 0.612(2) 1.440(4) 0.4235(13)
H23 H 0.6254(19) 1.456(3) 0.4780(11)
H24 H 0.534(2) 1.458(3) 0.4542(11)
H25 H 0.5501(16) 1.285(3) 0.5290(10)
H26 H 0.5244(18) 1.133(4) 0.5071(11)
H27 H 0.472(2) 1.278(3) 0.4991(12)
H28 H 0.6163(15) 0.695(2) 0.2298(8)
H29 H 0.4260(15) 0.916(2) 0.1692(8)
H30 H 0.3250(13) 1.051(2) 0.1441(8)
H31 H 0.2010(14) 1.048(2) 0.1786(7)
H32 H 0.1765(13) 0.902(2) 0.2401(7)
loop_
_geom_bond_atom_site_label_1
_geom_bond_atom_site_label_2
_geom_bond_site_symmetry_1
_geom_bond_site_symmetry_2
C1 C2 1_555 1_555
C2 C3 1_555 1_555
C3 C4 1_555 1_555
C4 C5 1_555 1_555
C5 N1 1_555 1_555
N1 C1 1_555 1_555
C6 N1 1_555 1_555
C7 C6 1_555 1_555
C8 C7 1_555 1_555
C9 C8 1_555 1_555
C10 C1 1_555 1_555
C11 C10 1_555 1_555
C12 C11 1_555 1_555
C13 C12 1_555 1_555
C14 C13 1_555 1_555
C15 C10 1_555 1_555
B1 C13 1_555 1_555
O1 B1 1_555 1_555
O2 B1 1_555 1_555
C16 O1 1_555 1_555
C17 O2 1_555 1_555
C18 C16 1_555 1_555
C19 C16 1_555 1_555
C20 C17 1_555 1_555
C21 C17 1_555 1_555
C22 C2 1_555 1_555
O3 C22 1_555 1_555
O4 C22 1_555 1_555
C23 C3 1_555 1_555
C24 C23 1_555 1_555
C25 C24 1_555 1_555
C26 C4 1_555 1_555
O5 C5 1_555 1_555
H1 C1 1_555 1_555
H2 C2 1_555 1_555
H3 C6 1_555 1_555
H4 C6 1_555 1_555
H5 C7 1_555 1_555
H6 C7 1_555 1_555
H7 C8 1_555 1_555
H8 C8 1_555 1_555
H9 C9 1_555 1_555
H10 C9 1_555 1_555
H11 C9 1_555 1_555
H12 C11 1_555 1_555
H13 C12 1_555 1_555
H14 C14 1_555 1_555
H15 C15 1_555 1_555
H16 C18 1_555 1_555
H17 C18 1_555 1_555
H18 C18 1_555 1_555
H19 C19 1_555 1_555
H20 C19 1_555 1_555
H21 C19 1_555 1_555
H22 C20 1_555 1_555
H23 C20 1_555 1_555
H24 C20 1_555 1_555
H25 C21 1_555 1_555
H26 C21 1_555 1_555
H27 C21 1_555 1_555
H28 O4 1_555 1_555
H29 C23 1_555 1_555
H30 C24 1_555 1_555
H31 C25 1_555 1_555
H32 C26 1_555 1_555
C14 C15 1_555 1_555
C16 C17 1_555 1_555
C25 C26 1_555 1_555

#END
