
#######################################################################
#
#                 Cambridge Crystallographic Data Centre
#                                CCDC 
#
#######################################################################
#
# If this CIF has been generated from an entry in the Cambridge 
# Structural Database, then it will include bibliographic, chemical, 
# crystal, experimental, refinement or atomic coordinate data resulting 
# from the CCDC's data processing and validation procedures.
#
#######################################################################

data_SAWDUQ
_chemical_formula_moiety         'C12 H13 N1 O2'
_chemical_name_systematic        4-Benzyl-5-ethenyloxazolidin-2-one
_symmetry_cell_setting           monoclinic
_symmetry_space_group_name_H-M   'P 21/n'
_symmetry_Int_Tables_number      14
_space_group_name_Hall           '-P 2yn'
loop_
_symmetry_equiv_pos_site_id
_symmetry_equiv_pos_as_xyz
1 x,y,z
2 1/2-x,1/2+y,1/2-z
3 -x,-y,-z
4 1/2+x,1/2-y,1/2+z
_cell_length_a                   11.9882(8)
_cell_length_b                   6.5925(4)
_cell_length_c                   13.7272(9)
_cell_angle_alpha                90
_cell_angle_beta                 93.5450(10)
_cell_angle_gamma                90
_cell_volume                     1082.82
_exptl_crystal_colour            colorless
_exptl_crystal_description       block
_cell_formula_units_Z            4
loop_
_atom_site_label
_atom_site_type_symbol
_atom_site_fract_x
_atom_site_fract_y
_atom_site_fract_z
O1 O 0.32259(8) 0.62799(15) 0.66536(7)
O2 O 0.49256(8) 0.65278(16) 0.60759(7)
N1 N 0.36555(9) 0.41086(18) 0.55052(8)
H1 H 0.4071 0.3410 0.5142
C1 C 0.03948(14) 0.5694(3) 0.70700(13)
H2 H 0.0467 0.4654 0.7527
H3 H -0.0254 0.6469 0.7017
C2 C 0.12145(12) 0.6071(2) 0.64960(11)
H4 H 0.1123 0.7120 0.6045
C3 C 0.22740(11) 0.4906(2) 0.65355(10)
H5 H 0.2289 0.3962 0.7088
C4 C 0.24740(11) 0.3723(2) 0.55926(10)
H6 H 0.2036 0.4321 0.5038
C5 C 0.40244(11) 0.5678(2) 0.60562(9)
C6 C 0.21712(13) 0.1489(2) 0.57016(10)
H7 H 0.2687 0.0886 0.6191
H8 H 0.1428 0.1403 0.5940
C7 C 0.21955(11) 0.02607(19) 0.47774(9)
C8 C 0.31508(13) -0.0767(2) 0.45379(11)
H9 H 0.3801 -0.0656 0.4940
C9 C 0.31439(17) -0.1958(3) 0.37038(13)
H10 H 0.3785 -0.2661 0.3557
C10 C 0.21894(19) -0.2103(3) 0.30922(12)
H11 H 0.2186 -0.2899 0.2533
C11 C 0.12493(16) -0.1070(3) 0.33141(12)
H12 H 0.0608 -0.1151 0.2899
C12 C 0.12460(12) 0.0092(2) 0.41489(11)
H13 H 0.0598 0.0773 0.4294
loop_
_geom_bond_atom_site_label_1
_geom_bond_atom_site_label_2
_geom_bond_site_symmetry_1
_geom_bond_site_symmetry_2
O1 C3 1_555 1_555
O2 C5 1_555 1_555
N1 H1 1_555 1_555
C1 H2 1_555 1_555
H3 C1 1_555 1_555
C2 C1 1_555 1_555
H4 C2 1_555 1_555
C3 C2 1_555 1_555
H5 C3 1_555 1_555
C4 N1 1_555 1_555
H6 C4 1_555 1_555
C5 O1 1_555 1_555
C6 C4 1_555 1_555
H7 C6 1_555 1_555
H8 C6 1_555 1_555
C7 C6 1_555 1_555
C8 C7 1_555 1_555
H9 C8 1_555 1_555
C9 C8 1_555 1_555
H10 C9 1_555 1_555
C10 C9 1_555 1_555
H11 C10 1_555 1_555
C11 C10 1_555 1_555
H12 C11 1_555 1_555
C12 C7 1_555 1_555
H13 C12 1_555 1_555
N1 C5 1_555 1_555
C3 C4 1_555 1_555
C11 C12 1_555 1_555

#END
