
#######################################################################
#
#                 Cambridge Crystallographic Data Centre
#                                CCDC 
#
#######################################################################
#
# If this CIF has been generated from an entry in the Cambridge 
# Structural Database, then it will include bibliographic, chemical, 
# crystal, experimental, refinement or atomic coordinate data resulting 
# from the CCDC's data processing and validation procedures.
#
#######################################################################

data_SAWFUS
_chemical_formula_moiety         'C15 H12 N2 O4'
_chemical_name_systematic        
'Methyl (2E)-((4-nitrophenyl)imino)(phenyl)acetate'
_symmetry_cell_setting           monoclinic
_symmetry_space_group_name_H-M   'P 21/n'
_symmetry_Int_Tables_number      14
_space_group_name_Hall           '-P 2yn'
loop_
_symmetry_equiv_pos_site_id
_symmetry_equiv_pos_as_xyz
1 x,y,z
2 1/2-x,1/2+y,1/2-z
3 -x,-y,-z
4 1/2+x,1/2-y,1/2+z
_cell_length_a                   11.0730(10)
_cell_length_b                   7.6470(10)
_cell_length_c                   16.643(2)
_cell_angle_alpha                90
_cell_angle_beta                 99.800(10)
_cell_angle_gamma                90
_cell_volume                     1388.69
_exptl_crystal_colour            yellow
_chemical_melting_point          93.1-94.1deg.C
_cell_formula_units_Z            4
_exptl_crystal_recrystallization_method 'hexane/ethyl acetate'
loop_
_atom_site_label
_atom_site_type_symbol
_atom_site_fract_x
_atom_site_fract_y
_atom_site_fract_z
O1 O 0.85464(10) 0.18006(16) 0.05854(7)
O2 O 0.78124(11) 0.41017(16) 0.11844(8)
O3 O 1.27068(11) 0.03615(18) 0.36829(9)
O4 O 1.29102(12) -0.1666(2) 0.28232(9)
N1 N 0.73036(11) 0.00180(17) 0.17643(8)
N2 N 1.22905(13) -0.0592(2) 0.31153(10)
C1 C 0.51912(14) 0.2569(2) 0.03077(10)
H1 H 0.5754 0.3226 0.0080
C2 C 0.39573(16) 0.2701(2) -0.00066(11)
H2 H 0.3691 0.3434 -0.0447
C3 C 0.31255(16) 0.1741(2) 0.03368(11)
H3 H 0.2294 0.1826 0.0126
C4 C 0.35140(15) 0.0654(2) 0.09895(11)
H4 H 0.2947 0.0010 0.1219
C5 C 0.47437(14) 0.0526(2) 0.13008(10)
H5 H 0.5004 -0.0200 0.1745
C6 C 0.55995(13) 0.14686(19) 0.09588(9)
C7 C 0.69195(13) 0.12625(19) 0.12785(9)
C8 C 0.77960(14) 0.2580(2) 0.10129(10)
C9 C 0.95062(17) 0.2888(3) 0.03570(13)
H6 H 0.9149 0.3915 0.0082
H7 H 0.9939 0.2244 0.0000
H8 H 1.0066 0.3224 0.0838
C10 C 0.85602(13) -0.0123(2) 0.21034(9)
C11 C 0.91046(14) 0.1065(2) 0.26781(10)
H9 H 0.8648 0.1984 0.2837
C12 C 1.03247(14) 0.0890(2) 0.30173(10)
H10 H 1.0691 0.1677 0.3411
C13 C 1.09896(13) -0.0452(2) 0.27698(9)
C14 C 1.04596(15) -0.1666(2) 0.22064(10)
H11 H 1.0925 -0.2571 0.2045
C15 C 0.92314(14) -0.1522(2) 0.18853(10)
H12 H 0.8854 -0.2361 0.1523
loop_
_geom_bond_atom_site_label_1
_geom_bond_atom_site_label_2
_geom_bond_site_symmetry_1
_geom_bond_site_symmetry_2
O1 C8 1_555 1_555
O2 C8 1_555 1_555
O3 N2 1_555 1_555
O4 N2 1_555 1_555
N1 C7 1_555 1_555
N2 C13 1_555 1_555
C1 H1 1_555 1_555
C2 C1 1_555 1_555
H2 C2 1_555 1_555
C3 C2 1_555 1_555
H3 C3 1_555 1_555
C4 C3 1_555 1_555
H4 C4 1_555 1_555
C5 C4 1_555 1_555
H5 C5 1_555 1_555
C6 C1 1_555 1_555
C7 C6 1_555 1_555
C8 C7 1_555 1_555
C9 O1 1_555 1_555
H6 C9 1_555 1_555
H7 C9 1_555 1_555
H8 C9 1_555 1_555
C10 N1 1_555 1_555
C11 C10 1_555 1_555
H9 C11 1_555 1_555
C12 C11 1_555 1_555
H10 C12 1_555 1_555
C13 C12 1_555 1_555
C14 C13 1_555 1_555
H11 C14 1_555 1_555
C15 C10 1_555 1_555
H12 C15 1_555 1_555
C5 C6 1_555 1_555
C14 C15 1_555 1_555

#END
