
#######################################################################
#
#                 Cambridge Crystallographic Data Centre
#                                CCDC 
#
#######################################################################
#
# If this CIF has been generated from an entry in the Cambridge 
# Structural Database, then it will include bibliographic, chemical, 
# crystal, experimental, refinement or atomic coordinate data resulting 
# from the CCDC's data processing and validation procedures.
#
#######################################################################

data_SAWNUB
_chemical_formula_moiety         'C25 H20 Cl1 N3'
_chemical_name_systematic        
N-((2-Chloro-6-methylquinolin-3-yl)methylene)-9-ethyl-9H-carbazol-3-amine
_symmetry_cell_setting           monoclinic
_symmetry_space_group_name_H-M   'P 21/n'
_symmetry_Int_Tables_number      14
_space_group_name_Hall           '-P 2yn'
loop_
_symmetry_equiv_pos_site_id
_symmetry_equiv_pos_as_xyz
1 x,y,z
2 1/2-x,1/2+y,1/2-z
3 -x,-y,-z
4 1/2+x,1/2-y,1/2+z
_cell_length_a                   8.4061(8)
_cell_length_b                   27.671(3)
_cell_length_c                   25.479(2)
_cell_angle_alpha                90
_cell_angle_beta                 97.819(2)
_cell_angle_gamma                90
_cell_volume                     5871.45
_exptl_crystal_colour            red
_exptl_crystal_description       needle
_cell_formula_units_Z            12
loop_
_atom_site_label
_atom_site_type_symbol
_atom_site_fract_x
_atom_site_fract_y
_atom_site_fract_z
C1 C 0.4712(2) 1.15720(6) 1.07932(7)
C2 C 0.5348(2) 1.20049(7) 1.10300(7)
H1 H 0.5072 1.2307 1.0865
C3 C 0.6361(2) 1.19889(7) 1.14974(7)
H2 H 0.6770 1.2283 1.1655
C4 C 0.6816(2) 1.15464(7) 1.17519(7)
C5 C 0.6218(2) 1.11259(7) 1.15229(7)
H3 H 0.6530 1.0827 1.1689
C6 C 0.5144(2) 1.11259(6) 1.10437(7)
C7 C 0.4488(2) 1.07034(7) 1.07959(7)
H4 H 0.4755 1.0398 1.0955
C8 C 0.3466(2) 1.07260(7) 1.03266(7)
C9 C 0.3147(2) 1.11949(7) 1.01156(7)
C10 C 0.7944(2) 1.15439(8) 1.22644(7)
H5 H 0.7395 1.1677 1.2548
H6 H 0.8887 1.1742 1.2226
H7 H 0.8283 1.1212 1.2353
C11 C 0.2781(3) 1.02929(7) 1.00548(7)
H8 H 0.2137 1.0331 0.9721
C12 C 0.1179(2) 0.95078(7) 0.94875(7)
H9 H 0.0825 0.9815 0.9351
C13 C 0.2295(2) 0.94741(7) 0.99455(7)
C14 C 0.2804(2) 0.90166(7) 1.01411(7)
H10 H 0.3576 0.8998 1.0449
C15 C 0.2219(2) 0.85936(7) 0.99003(7)
H11 H 0.2562 0.8287 1.0042
C16 C 0.1107(2) 0.86312(6) 0.94419(7)
C17 C 0.0598(2) 0.90875(6) 0.92348(7)
C18 C -0.0509(2) 0.89953(7) 0.87593(7)
C19 C -0.1338(2) 0.92905(8) 0.83719(8)
H12 H -0.1244 0.9632 0.8396
C20 C -0.2300(2) 0.90782(8) 0.79505(8)
H13 H -0.2865 0.9276 0.7683
C21 C -0.2451(2) 0.85772(8) 0.79140(8)
H14 H -0.3137 0.8440 0.7625
C22 C -0.1626(2) 0.82772(7) 0.82878(7)
H15 H -0.1729 0.7936 0.8260
C23 C -0.0634(2) 0.84902(7) 0.87076(7)
C24 C 0.0481(2) 0.77577(6) 0.92358(7)
H16 H 0.1593 0.7679 0.9394
H17 H 0.0239 0.7573 0.8902
C25 C -0.0666(3) 0.76069(7) 0.96133(8)
H18 H -0.0482 0.7806 0.9934
H19 H -0.0487 0.7266 0.9708
H20 H -0.1774 0.7651 0.9442
Cl1 Cl 0.18749(6) 1.125756(18) 0.951555(18)
N1 N 0.37144(18) 1.15995(5) 1.03230(6)
N2 N 0.2994(2) 0.98786(6) 1.02352(6)
N3 N 0.03647(19) 0.82743(5) 0.91193(6)
C26 C -0.0101(2) 0.94456(6) 0.57348(7)
C27 C -0.1096(2) 0.98592(7) 0.56522(7)
H21 H -0.1425 0.9974 0.5303
C28 C -0.1582(2) 1.00936(7) 0.60766(8)
H22 H -0.2245 1.0371 0.6016
C29 C -0.1124(2) 0.99336(6) 0.66041(7)
C30 C -0.0159(2) 0.95340(6) 0.66867(7)
H23 H 0.0156 0.9423 0.7038
C31 C 0.0379(2) 0.92821(6) 0.62589(7)
C32 C 0.1389(2) 0.88762(6) 0.63299(7)
H24 H 0.1738 0.8762 0.6678
C33 C 0.1885(2) 0.86402(6) 0.59054(7)
C34 C 0.1310(2) 0.88387(7) 0.54004(7)
C35 C -0.1683(2) 1.01972(7) 0.70608(8)
H25 H -0.2835 1.0142 0.7059
H26 H -0.1484 1.0544 0.7027
H27 H -0.1094 1.0078 0.7394
C36 C 0.2942(2) 0.82152(6) 0.59851(7)
H28 H 0.3238 0.8049 0.5687
C37 C 0.5086(2) 0.75492(6) 0.70525(7)
H29 H 0.4817 0.7748 0.7332
C38 C 0.4474(2) 0.76545(6) 0.65294(7)
C39 C 0.4882(2) 0.73546(6) 0.61199(7)
H30 H 0.4441 0.7423 0.5764
C40 C 0.5900(2) 0.69651(6) 0.62214(7)
H31 H 0.6172 0.6769 0.5941
C41 C 0.6521(2) 0.68664(6) 0.67452(7)
C42 C 0.6095(2) 0.71516(6) 0.71650(6)
C43 C 0.6920(2) 0.69410(6) 0.76481(7)
C44 C 0.6965(2) 0.70455(7) 0.81860(7)
H32 H 0.6358 0.7306 0.8298
C45 C 0.7911(2) 0.67623(7) 0.85540(7)
H33 H 0.7955 0.6831 0.8921
C46 C 0.8802(2) 0.63761(7) 0.83917(7)
H34 H 0.9440 0.6187 0.8652
C47 C 0.8776(2) 0.62625(7) 0.78619(7)
H35 H 0.9388 0.6001 0.7753
C48 C 0.7817(2) 0.65461(6) 0.74937(7)
C49 C 0.8327(2) 0.61549(6) 0.66342(7)
H36 H 0.9388 0.6066 0.6828
H37 H 0.8510 0.6306 0.6296
C50 C 0.7342(3) 0.56996(7) 0.65155(8)
H38 H 0.7147 0.5548 0.6849
H39 H 0.7929 0.5474 0.6316
H40 H 0.6314 0.5782 0.6305
Cl3 Cl 0.18912(7) 0.85666(2) 0.483579(18)
N4 N 0.03789(19) 0.92149(6) 0.53065(6)
N5 N 0.34648(18) 0.80674(5) 0.64494(6)
N6 N 0.75692(17) 0.65069(5) 0.69463(6)
C51 C 0.3888(2) 0.72396(6) 0.07951(7)
C52 C 0.4924(2) 0.76414(7) 0.07824(8)
H41 H 0.5123 0.7772 0.0453
C53 C 0.5637(2) 0.78411(7) 0.12465(8)
H42 H 0.6337 0.8109 0.1232
C54 C 0.5366(2) 0.76614(7) 0.17484(8)
C55 C 0.4354(2) 0.72755(6) 0.17626(7)
H43 H 0.4153 0.7153 0.2096
C56 C 0.3600(2) 0.70543(6) 0.12932(7)
C57 C 0.2594(2) 0.66479(6) 0.12954(7)
H44 H 0.2380 0.6518 0.1624
C58 C 0.1919(2) 0.64363(6) 0.08312(7)
C59 C 0.2297(2) 0.66575(7) 0.03602(7)
C60 C 0.6206(2) 0.78834(7) 0.22507(8)
H45 H 0.5706 0.7768 0.2553
H46 H 0.6116 0.8236 0.2228
H47 H 0.7342 0.7791 0.2298
C61 C 0.0907(2) 0.60008(6) 0.08378(7)
H48 H 0.0487 0.5846 0.0516
C62 C -0.0608(2) 0.52990(6) 0.18258(7)
H49 H -0.0162 0.5495 0.2116
C63 C -0.0359(2) 0.54182(6) 0.13160(7)
C64 C -0.1047(2) 0.51313(6) 0.08869(7)
H50 H -0.0861 0.5213 0.0538
C65 C -0.1990(2) 0.47327(6) 0.09626(7)
H51 H -0.2467 0.4546 0.0670
C66 C -0.2219(2) 0.46135(6) 0.14788(7)
C67 C -0.1511(2) 0.48921(6) 0.19148(7)
C68 C -0.1969(2) 0.46701(6) 0.23848(7)
C69 C -0.1634(2) 0.47671(7) 0.29262(7)
H52 H -0.0967 0.5032 0.3049
C70 C -0.2282(2) 0.44730(7) 0.32827(8)
H53 H -0.2056 0.4536 0.3652
C71 C -0.3269(2) 0.40837(7) 0.31012(8)
H54 H -0.3713 0.3888 0.3351
C72 C -0.3615(2) 0.39764(7) 0.25688(8)
H55 H -0.4283 0.3710 0.2450
C73 C -0.2955(2) 0.42707(6) 0.22104(7)
C74 C -0.4043(2) 0.38800(6) 0.13399(7)
H56 H -0.4145 0.3980 0.0964
H57 H -0.5135 0.3869 0.1444
C75 C -0.3313(2) 0.33767(6) 0.13939(8)
H58 H -0.2205 0.3389 0.1315
H59 H -0.3944 0.3157 0.1145
H60 H -0.3320 0.3260 0.1757
Cl2 Cl 0.14823(7) 0.640478(19) -0.024960(19)
N7 N 0.31978(19) 0.70362(6) 0.03273(6)
N8 N 0.06020(18) 0.58352(5) 0.12787(6)
N9 N -0.30946(18) 0.42395(5) 0.16635(6)
loop_
_geom_bond_atom_site_label_1
_geom_bond_atom_site_label_2
_geom_bond_site_symmetry_1
_geom_bond_site_symmetry_2
C1 C2 1_555 1_555
C2 H1 1_555 1_555
C3 C2 1_555 1_555
H2 C3 1_555 1_555
C4 C3 1_555 1_555
C5 C4 1_555 1_555
H3 C5 1_555 1_555
C6 C1 1_555 1_555
C7 C6 1_555 1_555
H4 C7 1_555 1_555
C8 C7 1_555 1_555
C9 C8 1_555 1_555
C10 C4 1_555 1_555
H5 C10 1_555 1_555
H6 C10 1_555 1_555
H7 C10 1_555 1_555
C11 C8 1_555 1_555
H8 C11 1_555 1_555
C12 H9 1_555 1_555
C13 C12 1_555 1_555
C14 C13 1_555 1_555
H10 C14 1_555 1_555
C15 C14 1_555 1_555
H11 C15 1_555 1_555
C16 C15 1_555 1_555
C17 C12 1_555 1_555
C18 C17 1_555 1_555
C19 C18 1_555 1_555
H12 C19 1_555 1_555
C20 C19 1_555 1_555
H13 C20 1_555 1_555
C21 C20 1_555 1_555
H14 C21 1_555 1_555
C22 C21 1_555 1_555
H15 C22 1_555 1_555
C23 C18 1_555 1_555
C24 H16 1_555 1_555
H17 C24 1_555 1_555
C25 C24 1_555 1_555
H18 C25 1_555 1_555
H19 C25 1_555 1_555
H20 C25 1_555 1_555
C26 C27 1_555 1_555
C27 H21 1_555 1_555
C28 C27 1_555 1_555
H22 C28 1_555 1_555
C29 C28 1_555 1_555
C30 C29 1_555 1_555
H23 C30 1_555 1_555
C31 C26 1_555 1_555
C32 C31 1_555 1_555
H24 C32 1_555 1_555
C33 C32 1_555 1_555
C34 C33 1_555 1_555
C35 C29 1_555 1_555
H25 C35 1_555 1_555
H26 C35 1_555 1_555
H27 C35 1_555 1_555
C36 C33 1_555 1_555
H28 C36 1_555 1_555
C37 H29 1_555 1_555
C38 C37 1_555 1_555
C39 C38 1_555 1_555
H30 C39 1_555 1_555
C40 C39 1_555 1_555
H31 C40 1_555 1_555
C41 C40 1_555 1_555
C42 C37 1_555 1_555
C43 C42 1_555 1_555
C44 C43 1_555 1_555
H32 C44 1_555 1_555
C45 C44 1_555 1_555
H33 C45 1_555 1_555
C46 C45 1_555 1_555
H34 C46 1_555 1_555
C47 C46 1_555 1_555
H35 C47 1_555 1_555
C48 C43 1_555 1_555
C49 H36 1_555 1_555
H37 C49 1_555 1_555
C50 C49 1_555 1_555
H38 C50 1_555 1_555
H39 C50 1_555 1_555
H40 C50 1_555 1_555
C51 C52 1_555 1_555
C52 H41 1_555 1_555
C53 C52 1_555 1_555
H42 C53 1_555 1_555
C54 C53 1_555 1_555
C55 C54 1_555 1_555
H43 C55 1_555 1_555
C56 C51 1_555 1_555
C57 C56 1_555 1_555
H44 C57 1_555 1_555
C58 C57 1_555 1_555
C59 C58 1_555 1_555
C60 C54 1_555 1_555
H45 C60 1_555 1_555
H46 C60 1_555 1_555
H47 C60 1_555 1_555
C61 C58 1_555 1_555
H48 C61 1_555 1_555
C62 H49 1_555 1_555
C63 C62 1_555 1_555
C64 C63 1_555 1_555
H50 C64 1_555 1_555
C65 C64 1_555 1_555
H51 C65 1_555 1_555
C66 C65 1_555 1_555
C67 C62 1_555 1_555
C68 C67 1_555 1_555
C69 C68 1_555 1_555
H52 C69 1_555 1_555
C70 C69 1_555 1_555
H53 C70 1_555 1_555
C71 C70 1_555 1_555
H54 C71 1_555 1_555
C72 C71 1_555 1_555
H55 C72 1_555 1_555
C73 C68 1_555 1_555
C74 H56 1_555 1_555
H57 C74 1_555 1_555
C75 C74 1_555 1_555
H58 C75 1_555 1_555
H59 C75 1_555 1_555
H60 C75 1_555 1_555
Cl1 C9 1_555 1_555
Cl2 C59 1_555 1_555
Cl3 C34 1_555 1_555
N1 C1 1_555 1_555
N2 C11 1_555 1_555
N3 C16 1_555 1_555
N4 C26 1_555 1_555
N5 C36 1_555 1_555
N6 C41 1_555 1_555
N7 C51 1_555 1_555
N8 C61 1_555 1_555
N9 C66 1_555 1_555
C5 C6 1_555 1_555
C9 N1 1_555 1_555
C13 N2 1_555 1_555
C16 C17 1_555 1_555
C22 C23 1_555 1_555
C23 N3 1_555 1_555
C24 N3 1_555 1_555
C30 C31 1_555 1_555
C34 N4 1_555 1_555
C38 N5 1_555 1_555
C41 C42 1_555 1_555
C47 C48 1_555 1_555
C48 N6 1_555 1_555
C49 N6 1_555 1_555
C55 C56 1_555 1_555
C59 N7 1_555 1_555
C63 N8 1_555 1_555
C66 C67 1_555 1_555
C72 C73 1_555 1_555
C73 N9 1_555 1_555
C74 N9 1_555 1_555

#END
