
#######################################################################
#
#                 Cambridge Crystallographic Data Centre
#                                CCDC 
#
#######################################################################
#
# If this CIF has been generated from an entry in the Cambridge 
# Structural Database, then it will include bibliographic, chemical, 
# crystal, experimental, refinement or atomic coordinate data resulting 
# from the CCDC's data processing and validation procedures.
#
#######################################################################

data_SAWROA
_chemical_formula_moiety         'C30 H19 N1 O1'
_chemical_name_systematic        2-(spiro[fluorene-9,9'-xanthen]-2-yl)pyridine
_symmetry_cell_setting           orthorhombic
_symmetry_space_group_name_H-M   'P n c a'
_symmetry_Int_Tables_number      60
_space_group_name_Hall           '-P 2a 2n'
loop_
_symmetry_equiv_pos_site_id
_symmetry_equiv_pos_as_xyz
1 x,y,z
2 1/2-x,-y,z
3 1/2+x,1/2-y,1/2-z
4 -x,1/2+y,1/2-z
5 -x,-y,-z
6 1/2+x,y,-z
7 1/2-x,1/2+y,1/2+z
8 x,1/2-y,1/2+z
_cell_length_a                   14.615(9)
_cell_length_b                   16.663(10)
_cell_length_c                   17.269(10)
_cell_angle_alpha                90
_cell_angle_beta                 90
_cell_angle_gamma                90
_cell_volume                     4205.52
_exptl_crystal_colour            colorless
_exptl_crystal_description       Prism
_cell_formula_units_Z            8
loop_
_atom_site_label
_atom_site_type_symbol
_atom_site_fract_x
_atom_site_fract_y
_atom_site_fract_z
O1 O 0.34747(14) 0.38808(13) 0.58862(10)
C1 C 0.35828(14) 0.35447(13) 0.83176(11)
C2 C 0.36537(15) 0.43247(13) 0.85805(12)
H1 H 0.3671 0.4750 0.8232
C3 C 0.26626(16) 0.35431(13) 0.70725(12)
C4 C 0.35551(15) 0.29017(13) 0.88327(12)
C5 C 0.35044(15) 0.21509(13) 0.83880(13)
C6 C 0.43651(16) 0.34650(13) 0.70034(12)
C7 C 0.34827(15) 0.23369(14) 0.75994(13)
C8 C 0.35242(15) 0.32462(13) 0.74752(12)
C9 C 0.36989(16) 0.44686(14) 0.93798(12)
C10 C 0.37949(17) 0.52968(16) 0.96940(14)
C11 C 0.26791(18) 0.38286(16) 0.63232(13)
C12 C 0.52394(17) 0.33507(17) 0.72983(15)
H2 H 0.5304 0.3172 0.7805
C13 C 0.42976(18) 0.37427(15) 0.62500(14)
C14 C 0.36606(19) 0.38195(16) 0.98841(13)
H3 H 0.3685 0.3914 1.0414
C15 C 0.35874(19) 0.30389(17) 0.96227(14)
H4 H 0.3560 0.2614 0.9971
C16 C 0.18138(18) 0.35065(18) 0.74373(15)
H5 H 0.1780 0.3313 0.7942
N1 N 0.3624(4) 0.5301(3) 1.0502(3)
C17 C 0.34877(17) 0.13513(15) 0.86236(17)
H6 H 0.3495 0.1218 0.9147
C18 C 0.34495(19) 0.17410(16) 0.70478(17)
H7 H 0.3437 0.1870 0.6524
C19 C 0.5077(2) 0.38951(18) 0.58109(16)
H8 H 0.5021 0.4083 0.5306
C20 C 0.3956(6) 0.5897(4) 0.9265(5)
H9 H 0.3927 0.5819 0.8732
C21 C 0.1887(2) 0.40864(19) 0.59533(17)
H10 H 0.1915 0.4286 0.5451
C22 C 0.5924(2) 0.37698(18) 0.61200(17)
H11 H 0.6444 0.3872 0.5825
C23 C 0.6013(2) 0.34928(18) 0.68664(17)
H12 H 0.6590 0.3403 0.7077
C24 C 0.3460(2) 0.07614(16) 0.8063(2)
H13 H 0.3458 0.0226 0.8214
C25 C 0.3434(2) 0.09470(17) 0.7285(2)
H14 H 0.3407 0.0538 0.6919
C26 C 0.1063(2) 0.40440(19) 0.63341(18)
H15 H 0.0532 0.4217 0.6089
C27 C 0.1022(2) 0.3748(2) 0.70722(17)
H16 H 0.0463 0.3710 0.7326
C28 C 0.3931(3) 0.6796(2) 1.0295(3)
H17 H 0.3964 0.7309 1.0505
C29 C 0.4170(3) 0.6660(2) 0.9527(2)
H18 H 0.4449 0.7046 0.9218
C30 C 0.3651(3) 0.6171(3) 1.0729(2)
H19 H 0.3451 0.6293 1.1226
H20? H 0.4301 0.7104 0.9221
H21? H 0.3557 0.6209 1.1260
N2? N 0.4229(4) 0.5897(4) 0.9183(4)
C31? C 0.3533(5) 0.5568(4) 1.0375(4)
H22? H 0.3170 0.5202 1.0641
loop_
_geom_bond_atom_site_label_1
_geom_bond_atom_site_label_2
_geom_bond_site_symmetry_1
_geom_bond_site_symmetry_2
O1 C11 1_555 1_555
C1 C2 1_555 1_555
C2 H1 1_555 1_555
C3 C8 1_555 1_555
C4 C1 1_555 1_555
C5 C4 1_555 1_555
C6 C8 1_555 1_555
C7 C5 1_555 1_555
C8 C1 1_555 1_555
C9 C2 1_555 1_555
C10 C9 1_555 1_555
C11 C3 1_555 1_555
C12 C6 1_555 1_555
H2 C12 1_555 1_555
C13 O1 1_555 1_555
C14 C9 1_555 1_555
H3 C14 1_555 1_555
C15 C4 1_555 1_555
H4 C15 1_555 1_555
C16 C3 1_555 1_555
H5 C16 1_555 1_555
N1 C10 1_555 1_555
C17 C5 1_555 1_555
H6 C17 1_555 1_555
C18 C7 1_555 1_555
H7 C18 1_555 1_555
C19 C13 1_555 1_555
H8 C19 1_555 1_555
C20 C10 1_555 1_555
H9 C20 1_555 1_555
C21 C11 1_555 1_555
H10 C21 1_555 1_555
C22 C19 1_555 1_555
H11 C22 1_555 1_555
C23 C12 1_555 1_555
H12 C23 1_555 1_555
C24 C17 1_555 1_555
H13 C24 1_555 1_555
C25 C18 1_555 1_555
H14 C25 1_555 1_555
C26 C21 1_555 1_555
H15 C26 1_555 1_555
C27 C16 1_555 1_555
H16 C27 1_555 1_555
C28 H17 1_555 1_555
C29 C20 1_555 1_555
H18 C29 1_555 1_555
C30 N1 1_555 1_555
H19 C30 1_555 1_555
C6 C13 1_555 1_555
C7 C8 1_555 1_555
C14 C15 1_555 1_555
C22 C23 1_555 1_555
C24 C25 1_555 1_555
C26 C27 1_555 1_555
C28 C29 1_555 1_555
C28 C30 1_555 1_555

#END
