
#######################################################################
#
#                 Cambridge Crystallographic Data Centre
#                                CCDC 
#
#######################################################################
#
# If this CIF has been generated from an entry in the Cambridge 
# Structural Database, then it will include bibliographic, chemical, 
# crystal, experimental, refinement or atomic coordinate data resulting 
# from the CCDC's data processing and validation procedures.
#
#######################################################################

data_SAWTIW
_chemical_formula_moiety         'C15 H12 N2'
_chemical_name_systematic        7-(pyridin-4-yl)naphthalen-1-amine
_symmetry_cell_setting           monoclinic
_symmetry_space_group_name_H-M   'P 21/c'
_symmetry_Int_Tables_number      14
_space_group_name_Hall           '-P 2ybc'
loop_
_symmetry_equiv_pos_site_id
_symmetry_equiv_pos_as_xyz
1 x,y,z
2 -x,1/2+y,1/2-z
3 -x,-y,-z
4 x,1/2-y,1/2+z
_cell_length_a                   8.4396(5)
_cell_length_b                   8.3007(5)
_cell_length_c                   16.3165(9)
_cell_angle_alpha                90
_cell_angle_beta                 94.995(2)
_cell_angle_gamma                90
_cell_volume                     1138.7
_exptl_crystal_colour            yellow
_exptl_crystal_description       block
_cell_formula_units_Z            4
_exptl_crystal_recrystallization_method dichloromethane/hexane
loop_
_atom_site_label
_atom_site_type_symbol
_atom_site_fract_x
_atom_site_fract_y
_atom_site_fract_z
N1 N 0.60560(15) 0.47095(15) 0.36897(8)
N2 N 0.11561(17) 0.84342(15) 0.01377(9)
C1 C 0.46672(19) 0.41778(18) 0.39259(10)
C2 C 0.32325(19) 0.42660(17) 0.34420(10)
C3 C 0.31885(16) 0.49402(15) 0.26550(9)
C4 C 0.46342(17) 0.55029(18) 0.24101(10)
C5 C 0.60063(18) 0.53725(19) 0.29388(10)
C6 C 0.16860(16) 0.50376(16) 0.21078(9)
C7 C 0.14987(17) 0.61669(16) 0.14882(9)
C8 C 0.00911(16) 0.62698(16) 0.09484(9)
C9 C -0.00780(17) 0.74091(16) 0.02839(9)
C10 C -0.14843(18) 0.74162(17) -0.02285(10)
C11 C -0.27178(18) 0.63362(19) -0.01061(10)
C12 C -0.25929(18) 0.5243(2) 0.05203(10)
C13 C -0.11817(16) 0.51789(17) 0.10597(10)
C14 C -0.09650(18) 0.40260(19) 0.17040(10)
C15 C 0.04089(18) 0.39497(18) 0.22084(10)
H1 H 0.467(2) 0.371(2) 0.4482(11)
H2 H 0.229(2) 0.385(2) 0.3667(10)
H3 H 0.093(2) 0.916(2) -0.0255(12)
H4 H 0.194(2) 0.866(2) 0.0550(12)
H5 H 0.471(2) 0.598(2) 0.1863(11)
H6 H 0.705(2) 0.580(2) 0.2759(10)
H7 H 0.2350(18) 0.6955(18) 0.1436(9)
H8 H -0.1578(19) 0.821(2) -0.0683(10)
H9 H -0.367(2) 0.636(2) -0.0498(11)
H10 H -0.338(2) 0.449(2) 0.0580(11)
H11 H -0.182(2) 0.323(2) 0.1757(10)
H12 H 0.0551(18) 0.313(2) 0.2640(10)
loop_
_geom_bond_atom_site_label_1
_geom_bond_atom_site_label_2
_geom_bond_site_symmetry_1
_geom_bond_site_symmetry_2
N1 C1 1_555 1_555
N2 C9 1_555 1_555
C1 C2 1_555 1_555
C2 C3 1_555 1_555
C3 C4 1_555 1_555
C4 C5 1_555 1_555
C5 N1 1_555 1_555
C6 C3 1_555 1_555
C7 C6 1_555 1_555
C8 C7 1_555 1_555
C9 C8 1_555 1_555
C10 C9 1_555 1_555
C11 C10 1_555 1_555
C12 C11 1_555 1_555
C13 C8 1_555 1_555
C14 C13 1_555 1_555
C15 C6 1_555 1_555
H1 C1 1_555 1_555
H2 C2 1_555 1_555
H3 N2 1_555 1_555
H4 N2 1_555 1_555
H5 C4 1_555 1_555
H6 C5 1_555 1_555
H7 C7 1_555 1_555
H8 C10 1_555 1_555
H9 C11 1_555 1_555
H10 C12 1_555 1_555
H11 C14 1_555 1_555
H12 C15 1_555 1_555
C12 C13 1_555 1_555
C14 C15 1_555 1_555

#END
