
#######################################################################
#
#                 Cambridge Crystallographic Data Centre
#                                CCDC 
#
#######################################################################
#
# If this CIF has been generated from an entry in the Cambridge 
# Structural Database, then it will include bibliographic, chemical, 
# crystal, experimental, refinement or atomic coordinate data resulting 
# from the CCDC's data processing and validation procedures.
#
#######################################################################

data_SAWYOG
_chemical_formula_moiety         'C16 H19 N1 O4 S1'
_chemical_name_systematic        
'3-(4-hydroxybenzyl)-6-(methylsulfanyl)-2-oxo-1-oxa-4-azaspiro[4.5]dec-3-ene 4-oxide'
_symmetry_cell_setting           monoclinic
_symmetry_space_group_name_H-M   'P 21/n'
_symmetry_Int_Tables_number      14
_space_group_name_Hall           '-P 2yn'
loop_
_symmetry_equiv_pos_site_id
_symmetry_equiv_pos_as_xyz
1 x,y,z
2 1/2-x,1/2+y,1/2-z
3 -x,-y,-z
4 1/2+x,1/2-y,1/2+z
_cell_length_a                   12.5282(4)
_cell_length_b                   7.1080(2)
_cell_length_c                   17.7905(5)
_cell_angle_alpha                90
_cell_angle_beta                 96.2020(10)
_cell_angle_gamma                90
_cell_volume                     1574.98
_exptl_crystal_colour            colorless
_exptl_crystal_description       block
_cell_formula_units_Z            4
loop_
_atom_site_label
_atom_site_type_symbol
_atom_site_fract_x
_atom_site_fract_y
_atom_site_fract_z
O1 O 0.92900(9) 0.23948(18) 1.02944(6)
S1 S 0.75846(4) -0.07607(6) 0.89371(3)
C1 C 0.97205(17) 0.1959(3) 0.77060(12)
H1 H 0.9751 0.1917 0.7164
H2 H 1.0403 0.1509 0.7950
C2 C 0.95486(16) 0.3981(3) 0.79462(10)
H3 H 1.0152 0.4746 0.7832
H4 H 0.8905 0.4479 0.7664
C3 C 0.79544(17) -0.1577(3) 0.98846(11)
H5 H 0.8595 -0.2324 0.9899
H6 H 0.7383 -0.2327 1.0045
H7 H 0.8083 -0.0518 1.0217
C4 C 0.88289(16) 0.0677(3) 0.79113(10)
H8 H 0.8984 -0.0604 0.7770
H9 H 0.8159 0.1050 0.7626
C5 C 0.94386(14) 0.4083(3) 0.87882(9)
H10 H 1.0115 0.3732 0.9071
H11 H 0.9276 0.5366 0.8923
C6 C 0.74817(14) 0.0904(3) 1.15696(9)
H12 H 0.8172 0.1310 1.1739
C7 C 0.72454(16) 0.3833(2) 1.07608(10)
H13 H 0.6688 0.4783 1.0744
H14 H 0.7857 0.4279 1.1094
C8 C 0.71219(13) -0.0800(3) 1.18199(9)
H15 H 0.7568 -0.1528 1.2156
C9 C 0.54369(13) -0.0304(3) 1.10849(9)
H16 H 0.4742 -0.0700 1.0923
C10 C 0.58037(13) 0.1392(2) 1.08399(9)
H17 H 0.5352 0.2133 1.0513
C11 C 0.61014(13) -0.1419(2) 1.15712(8)
C12 C 0.69271(13) 0.3881(2) 0.92656(9)
C13 C 0.68335(13) 0.2013(2) 1.10721(8)
C14 C 0.75697(13) 0.3553(2) 0.99886(8)
C15 C 0.86990(12) 0.0740(2) 0.87593(8)
H18 H 0.9354 0.0240 0.9039
O2 O 0.60181(10) 0.44326(19) 0.91535(8)
C16 C 0.85572(11) 0.2784(2) 0.90019(8)
O3 O 0.57848(10) -0.31197(19) 1.18327(8)
H19 H 0.5210 -0.3425 1.1601
N1 N 0.84956(10) 0.29031(17) 0.98390(6)
O4 O 0.75276(8) 0.34779(15) 0.86990(6)
loop_
_geom_bond_atom_site_label_1
_geom_bond_atom_site_label_2
_geom_bond_site_symmetry_1
_geom_bond_site_symmetry_2
O1 N1 1_555 1_555
S1 C3 1_555 1_555
C1 H1 1_555 1_555
H2 C1 1_555 1_555
C2 C1 1_555 1_555
H3 C2 1_555 1_555
H4 C2 1_555 1_555
C3 H5 1_555 1_555
H6 C3 1_555 1_555
H7 C3 1_555 1_555
C4 C1 1_555 1_555
H8 C4 1_555 1_555
H9 C4 1_555 1_555
C5 C2 1_555 1_555
H10 C5 1_555 1_555
H11 C5 1_555 1_555
C6 H12 1_555 1_555
C7 H13 1_555 1_555
H14 C7 1_555 1_555
C8 C6 1_555 1_555
H15 C8 1_555 1_555
C9 H16 1_555 1_555
C10 C9 1_555 1_555
H17 C10 1_555 1_555
C11 C8 1_555 1_555
C12 C14 1_555 1_555
C13 C6 1_555 1_555
C14 C7 1_555 1_555
C15 S1 1_555 1_555
H18 C15 1_555 1_555
O2 C12 1_555 1_555
C16 C5 1_555 1_555
O3 C11 1_555 1_555
H19 O3 1_555 1_555
N1 C14 1_555 1_555
O4 C12 1_555 1_555
C4 C15 1_555 1_555
C7 C13 1_555 1_555
C9 C11 1_555 1_555
C10 C13 1_555 1_555
C15 C16 1_555 1_555
C16 N1 1_555 1_555
C16 O4 1_555 1_555

#END
