
#######################################################################
#
#                 Cambridge Crystallographic Data Centre
#                                CCDC 
#
#######################################################################
#
# If this CIF has been generated from an entry in the Cambridge 
# Structural Database, then it will include bibliographic, chemical, 
# crystal, experimental, refinement or atomic coordinate data resulting 
# from the CCDC's data processing and validation procedures.
#
#######################################################################

data_SAWYUM
_chemical_formula_moiety         'C41 H30 Cl1 F2 N3 O13'
_chemical_name_systematic        
'2-(4-Chloro-3-(4-methylbenzyl)phenyl)-5,5-difluoro-6-(((4-nitrobenzoyl)oxy)methyl)tetrahydro-2H-pyran-3,4-diyl bis(4-nitrobenzoate)'
_symmetry_cell_setting           orthorhombic
_symmetry_space_group_name_H-M   'P 21 21 21'
_symmetry_Int_Tables_number      19
_space_group_name_Hall           'P 2ac 2ab'
loop_
_symmetry_equiv_pos_site_id
_symmetry_equiv_pos_as_xyz
1 x,y,z
2 1/2-x,-y,1/2+z
3 -x,1/2+y,1/2-z
4 1/2+x,1/2-y,-z
_cell_length_a                   12.1372(19)
_cell_length_b                   15.480(3)
_cell_length_c                   20.659(3)
_cell_angle_alpha                90
_cell_angle_beta                 90
_cell_angle_gamma                90
_cell_volume                     3881.49
_exptl_crystal_colour            colorless
_exptl_crystal_description       prismatic
_cell_formula_units_Z            4
loop_
_atom_site_label
_atom_site_type_symbol
_atom_site_fract_x
_atom_site_fract_y
_atom_site_fract_z
Cl1 Cl 0.87903(7) 0.61686(6) -0.01972(3)
F1 F 0.95866(12) 0.55589(10) 0.39594(7)
F2 F 0.81505(14) 0.53887(11) 0.45708(6)
N1 N 1.4781(2) 0.41898(16) 0.28455(17)
N2 N 1.45590(18) 0.68250(16) 0.25644(10)
N3 N 0.1853(3) 0.7147(3) 0.44847(13)
O1 O 0.82718(12) 0.49914(10) 0.28664(7)
O2 O 1.0283(2) 0.3482(2) 0.43930(11)
O3 O 0.96687(14) 0.39034(12) 0.34397(8)
O4 O 0.94033(12) 0.65626(11) 0.28648(8)
O5 O 0.95654(14) 0.79327(12) 0.31990(9)
O6 O 0.69054(13) 0.64314(11) 0.38607(7)
O7 O 0.69793(17) 0.78589(14) 0.39774(12)
O8 O 1.55289(19) 0.4186(2) 0.32268(13)
O9 O 1.48871(18) 0.42765(14) 0.22661(14)
O10 O 1.51475(17) 0.74402(14) 0.25227(13)
O11 O 1.48956(16) 0.60984(14) 0.25763(12)
O12 O 0.1409(2) 0.7854(3) 0.45334(13)
O13 O 0.1394(2) 0.6458(3) 0.45081(16)
C1 C 0.80585(19) 0.48087(16) 0.35254(10)
H1 H 0.7259 0.4768 0.3583
C2 C 0.8475(2) 0.55376(18) 0.39455(11)
C3 C 0.80768(19) 0.64114(17) 0.37342(11)
H2 H 0.8454 0.6868 0.3977
C4 C 0.82407(18) 0.65347(16) 0.30082(11)
H3 H 0.7885 0.7070 0.2866
C5 C 0.77840(18) 0.57703(15) 0.26329(11)
H4 H 0.6985 0.5742 0.2697
C6 C 0.80252(19) 0.58408(16) 0.19209(11)
C7 C 0.88707(19) 0.53818(15) 0.16367(11)
H5 H 0.9283 0.5010 0.1894
C8 C 0.9136(2) 0.54494(17) 0.09833(12)
C9 C 0.8499(2) 0.60206(19) 0.06250(11)
C10 C 0.7637(2) 0.6481(2) 0.08915(14)
H6 H 0.7220 0.6852 0.0636
C11 C 0.7400(2) 0.63856(18) 0.15361(12)
H7 H 0.6815 0.6689 0.1717
C12 C 1.0075(2) 0.49407(18) 0.07142(12)
H8 H 0.9939 0.4838 0.0258
H9 H 1.0094 0.4383 0.0928
C13 C 1.1201(2) 0.53635(18) 0.07856(11)
C14 C 1.2114(3) 0.4859(2) 0.08599(15)
H10 H 1.2042 0.4261 0.0881
C15 C 1.3157(3) 0.5237(4) 0.09045(18)
H11 H 1.3769 0.4880 0.0949
C16 C 1.3310(3) 0.6103(3) 0.08849(14)
C17 C 1.2397(3) 0.6596(2) 0.08086(15)
H12 H 1.2472 0.7193 0.0788
C18 C 1.1362(2) 0.6238(2) 0.07605(13)
H13 H 1.0756 0.6600 0.0710
C19 C 1.4450(3) 0.6486(4) 0.09307(17)
H14 H 1.4948 0.6063 0.1104
H15 H 1.4434 0.6982 0.1210
H16 H 1.4694 0.6657 0.0507
C20 C 0.8550(2) 0.39378(18) 0.36734(12)
H17 H 0.8539 0.3838 0.4137
H18 H 0.8117 0.3489 0.3467
C21 C 1.0456(3) 0.3717(2) 0.38565(13)
C22 C 1.1575(2) 0.38320(17) 0.35739(12)
C23 C 1.1745(2) 0.39117(17) 0.29235(12)
H19 H 1.1145 0.3908 0.2643
C24 C 1.2796(2) 0.39983(17) 0.26756(13)
H20 H 1.2915 0.4026 0.2231
C25 C 1.3653(2) 0.40426(17) 0.30989(14)
C26 C 1.3508(2) 0.3968(2) 0.37527(15)
H21 H 1.4109 0.3991 0.4031
C27 C 1.2461(3) 0.3858(2) 0.39924(14)
H22 H 1.2350 0.3801 0.4436
C28 C 0.9964(2) 0.72904(17) 0.29880(11)
C29 C 1.11592(18) 0.71656(15) 0.28387(10)
C30 C 1.1580(2) 0.63665(17) 0.26766(13)
H23 H 1.1110 0.5895 0.2635
C31 C 1.2694(2) 0.62648(17) 0.25757(13)
H24 H 1.2985 0.5726 0.2473
C32 C 1.33574(19) 0.69638(15) 0.26293(10)
C33 C 1.2970(2) 0.77668(17) 0.27677(11)
H25 H 1.3444 0.8238 0.2788
C34 C 1.1850(2) 0.78638(16) 0.28779(12)
H26 H 1.1566 0.8405 0.2979
C35 C 0.6458(2) 0.7205(2) 0.39866(12)
C36 C 0.5264(2) 0.71517(19) 0.41300(11)
C37 C 0.4711(3) 0.7917(2) 0.42465(14)
H27 H 0.5096 0.8436 0.4239
C38 C 0.3601(3) 0.7918(3) 0.43739(14)
H28 H 0.3229 0.8433 0.4452
C39 C 0.3061(2) 0.7153(3) 0.43840(12)
C40 C 0.3578(2) 0.6377(2) 0.42817(11)
H29 H 0.3186 0.5861 0.4299
C41 C 0.4701(2) 0.6377(2) 0.41520(11)
H30 H 0.5071 0.5860 0.4081
loop_
_geom_bond_atom_site_label_1
_geom_bond_atom_site_label_2
_geom_bond_site_symmetry_1
_geom_bond_site_symmetry_2
Cl1 C9 1_555 1_555
F1 C2 1_555 1_555
F2 C2 1_555 1_555
N1 O8 1_555 1_555
N2 O10 1_555 1_555
N3 O12 1_555 1_555
O1 C1 1_555 1_555
O2 C21 1_555 1_555
O3 C20 1_555 1_555
O4 C4 1_555 1_555
O5 C28 1_555 1_555
O6 C3 1_555 1_555
O7 C35 1_555 1_555
O9 N1 1_555 1_555
O11 N2 1_555 1_555
O13 N3 1_555 1_555
C1 H1 1_555 1_555
C2 C1 1_555 1_555
C3 C2 1_555 1_555
H2 C3 1_555 1_555
C4 C3 1_555 1_555
H3 C4 1_555 1_555
C5 O1 1_555 1_555
H4 C5 1_555 1_555
C6 C5 1_555 1_555
C7 C6 1_555 1_555
H5 C7 1_555 1_555
C8 C7 1_555 1_555
C9 C8 1_555 1_555
C10 C9 1_555 1_555
H6 C10 1_555 1_555
C11 C6 1_555 1_555
H7 C11 1_555 1_555
C12 C8 1_555 1_555
H8 C12 1_555 1_555
H9 C12 1_555 1_555
C13 C12 1_555 1_555
C14 C13 1_555 1_555
H10 C14 1_555 1_555
C15 C14 1_555 1_555
H11 C15 1_555 1_555
C16 C15 1_555 1_555
C17 C16 1_555 1_555
H12 C17 1_555 1_555
C18 C13 1_555 1_555
H13 C18 1_555 1_555
C19 C16 1_555 1_555
H14 C19 1_555 1_555
H15 C19 1_555 1_555
H16 C19 1_555 1_555
C20 C1 1_555 1_555
H17 C20 1_555 1_555
H18 C20 1_555 1_555
C21 O3 1_555 1_555
C22 C21 1_555 1_555
C23 C22 1_555 1_555
H19 C23 1_555 1_555
C24 C23 1_555 1_555
H20 C24 1_555 1_555
C25 N1 1_555 1_555
C26 C25 1_555 1_555
H21 C26 1_555 1_555
C27 C22 1_555 1_555
H22 C27 1_555 1_555
C28 O4 1_555 1_555
C29 C28 1_555 1_555
C30 C29 1_555 1_555
H23 C30 1_555 1_555
C31 C30 1_555 1_555
H24 C31 1_555 1_555
C32 N2 1_555 1_555
C33 C32 1_555 1_555
H25 C33 1_555 1_555
C34 C29 1_555 1_555
H26 C34 1_555 1_555
C35 O6 1_555 1_555
C36 C35 1_555 1_555
C37 C36 1_555 1_555
H27 C37 1_555 1_555
C38 C37 1_555 1_555
H28 C38 1_555 1_555
C39 N3 1_555 1_555
C40 C39 1_555 1_555
H29 C40 1_555 1_555
C41 C36 1_555 1_555
H30 C41 1_555 1_555
C4 C5 1_555 1_555
C10 C11 1_555 1_555
C17 C18 1_555 1_555
C24 C25 1_555 1_555
C26 C27 1_555 1_555
C31 C32 1_555 1_555
C33 C34 1_555 1_555
C38 C39 1_555 1_555
C40 C41 1_555 1_555

#END
