
#######################################################################
#
#                 Cambridge Crystallographic Data Centre
#                                CCDC 
#
#######################################################################
#
# If this CIF has been generated from an entry in the Cambridge 
# Structural Database, then it will include bibliographic, chemical, 
# crystal, experimental, refinement or atomic coordinate data resulting 
# from the CCDC's data processing and validation procedures.
#
#######################################################################

data_SAWYIA
_chemical_formula_moiety         'C18 H17 N1 O3'
_chemical_name_systematic        5,6-Dimethoxy-1-(4-methoxyphenyl)isoquinoline
_symmetry_cell_setting           monoclinic
_symmetry_space_group_name_H-M   'P 21/c'
_symmetry_Int_Tables_number      14
_space_group_name_Hall           '-P 2ybc'
loop_
_symmetry_equiv_pos_site_id
_symmetry_equiv_pos_as_xyz
1 x,y,z
2 -x,1/2+y,1/2-z
3 -x,-y,-z
4 x,1/2-y,1/2+z
_cell_length_a                   7.9935(3)
_cell_length_b                   7.3253(2)
_cell_length_c                   25.8167(8)
_cell_angle_alpha                90
_cell_angle_beta                 94.1100(10)
_cell_angle_gamma                90
_cell_volume                     1507.8
_exptl_crystal_colour            colorless
_cell_formula_units_Z            4
loop_
_atom_site_label
_atom_site_type_symbol
_atom_site_fract_x
_atom_site_fract_y
_atom_site_fract_z
O1 O 1.4095(2) 0.2925(2) 0.79167(6)
O2 O 0.96575(19) 0.2372(2) 0.41720(6)
O3 O 0.6664(2) 0.3189(2) 0.45174(6)
N1 N 0.7402(2) 0.3241(3) 0.64759(7)
C1 C 1.5549(3) 0.4055(4) 0.78861(10)
H1 H 1.6029 0.3849 0.7561
H2 H 1.6358 0.3759 0.8166
H3 H 1.5233 0.5315 0.7911
C2 C 1.2882(3) 0.3055(3) 0.75146(8)
C3 C 1.1529(3) 0.1886(3) 0.75356(8)
H4 H 1.1480 0.1085 0.7814
C4 C 1.0260(3) 0.1899(3) 0.71490(8)
H5 H 0.9343 0.1131 0.7174
C5 C 1.0322(2) 0.3048(2) 0.67188(7)
C6 C 0.8923(3) 0.3076(2) 0.63091(8)
C7 C 0.9205(2) 0.2909(2) 0.57694(8)
C8 C 0.7799(2) 0.3066(3) 0.54011(8)
C9 C 0.8025(3) 0.2907(3) 0.48664(8)
C10 C 0.9583(3) 0.2536(3) 0.46975(8)
C11 C 1.1235(3) 0.2007(3) 0.39728(9)
H6 H 1.1992 0.2996 0.4060
H7 H 1.1092 0.1884 0.3602
H8 H 1.1688 0.0895 0.4122
C12 C 1.2954(2) 0.4232(3) 0.70962(7)
H9 H 1.3850 0.5035 0.7080
C13 C 1.1691(2) 0.4207(3) 0.67049(7)
H10 H 1.1758 0.4988 0.6423
C14 C 0.6094(3) 0.3374(3) 0.61147(10)
H11 H 0.5029 0.3491 0.6234
C15 C 0.6205(3) 0.3350(3) 0.55941(9)
H12 H 0.5257 0.3516 0.5369
C16 C 1.0778(2) 0.2535(3) 0.55798(8)
H13 H 1.1714 0.2411 0.5813
C17 C 1.0956(3) 0.2349(3) 0.50594(8)
H14 H 1.2008 0.2094 0.4945
C18 C 0.5928(4) 0.1567(5) 0.43052(12)
H15 H 0.6765 0.0861 0.4147
H16 H 0.5044 0.1876 0.4049
H17 H 0.5476 0.0866 0.4577
loop_
_geom_bond_atom_site_label_1
_geom_bond_atom_site_label_2
_geom_bond_site_symmetry_1
_geom_bond_site_symmetry_2
O1 C1 1_555 1_555
O2 C10 1_555 1_555
O3 C9 1_555 1_555
N1 C6 1_555 1_555
C1 H1 1_555 1_555
H2 C1 1_555 1_555
H3 C1 1_555 1_555
C2 O1 1_555 1_555
C3 C2 1_555 1_555
H4 C3 1_555 1_555
C4 C3 1_555 1_555
H5 C4 1_555 1_555
C5 C4 1_555 1_555
C6 C5 1_555 1_555
C7 C6 1_555 1_555
C8 C7 1_555 1_555
C9 C8 1_555 1_555
C10 C9 1_555 1_555
C11 O2 1_555 1_555
H6 C11 1_555 1_555
H7 C11 1_555 1_555
H8 C11 1_555 1_555
C12 C2 1_555 1_555
H9 C12 1_555 1_555
C13 C5 1_555 1_555
H10 C13 1_555 1_555
C14 N1 1_555 1_555
H11 C14 1_555 1_555
C15 C8 1_555 1_555
H12 C15 1_555 1_555
C16 C7 1_555 1_555
H13 C16 1_555 1_555
C17 C10 1_555 1_555
H14 C17 1_555 1_555
C18 O3 1_555 1_555
H15 C18 1_555 1_555
H16 C18 1_555 1_555
H17 C18 1_555 1_555
C12 C13 1_555 1_555
C14 C15 1_555 1_555
C16 C17 1_555 1_555

#END
