
#######################################################################
#
#                 Cambridge Crystallographic Data Centre
#                                CCDC 
#
#######################################################################
#
# If this CIF has been generated from an entry in the Cambridge 
# Structural Database, then it will include bibliographic, chemical, 
# crystal, experimental, refinement or atomic coordinate data resulting 
# from the CCDC's data processing and validation procedures.
#
#######################################################################

data_SAXCUS
_chemical_formula_moiety         
'C59 H57 N5 O2,C16 H36 N1 1+,2(C1 H1 Cl3),Cl1 1-,C6 H14'
_chemical_name_systematic        
'tetra-n-butylammonium chloride 1,19,24,24,33,33-hexamethyl-10-[(pyren-1-yl)methyl]-7,13-dioxa-10,38,39,40,41-pentaazaoctacyclo[17.9.9.1^2,6^.1^14,18^.1^20,23^.1^25,28^.1^29,32^.1^34,37^]tritetraconta-2(43),3,5,14(42),15,17,20,22,25,27,29,31,34,36-tetradecaene chloroform n-hexane solvate'
_symmetry_cell_setting           monoclinic
_symmetry_space_group_name_H-M   'P 21/n'
_symmetry_Int_Tables_number      14
_space_group_name_Hall           '-P 2yn'
loop_
_symmetry_equiv_pos_site_id
_symmetry_equiv_pos_as_xyz
1 x,y,z
2 1/2-x,1/2+y,1/2-z
3 -x,-y,-z
4 1/2+x,1/2-y,1/2+z
_cell_length_a                   12.685(5)
_cell_length_b                   22.113(9)
_cell_length_c                   26.855(11)
_cell_angle_alpha                90
_cell_angle_beta                 91.384(7)
_cell_angle_gamma                90
_cell_volume                     7530.72
_exptl_crystal_colour            colorless
_exptl_crystal_description       prism
_cell_formula_units_Z            4
loop_
_atom_site_label
_atom_site_type_symbol
_atom_site_fract_x
_atom_site_fract_y
_atom_site_fract_z
C60 C 0.7716(4) 0.27879(19) 0.76318(18)
H58 H 0.7962 0.2469 0.7866
H59 H 0.8200 0.2788 0.7348
C61 C 0.6616(4) 0.2614(2) 0.74342(19)
H60 H 0.6631 0.2177 0.7354
H61 H 0.6122 0.2665 0.7711
C62 C 0.6145(4) 0.2939(2) 0.6986(2)
H62 H 0.5912 0.3348 0.7084
H63 H 0.6684 0.2983 0.6728
C63 C 0.5210(4) 0.2582(2) 0.6776(2)
H64 H 0.5451 0.2186 0.6662
H65 H 0.4887 0.2804 0.6496
H66 H 0.4690 0.2527 0.7037
C64 C 0.7728(4) 0.3921(2) 0.75325(17)
H67 H 0.7747 0.4303 0.7724
H68 H 0.7030 0.3896 0.7361
C65 C 0.8563(5) 0.3953(2) 0.7142(2)
H69 H 0.9259 0.3921 0.7314
H70 H 0.8482 0.3592 0.6926
C66 C 0.8592(12) 0.4506(10) 0.6803(9)
H71 H 0.8553 0.4882 0.7003
H72 H 0.9253 0.4512 0.6615
C67 C 0.7677(10) 0.4460(6) 0.6461(5)
H73 H 0.7743 0.4097 0.6255
H74 H 0.7646 0.4819 0.6246
H75 H 0.7031 0.4435 0.6652
C68 C 0.6929(3) 0.3484(2) 0.82546(18)
H76 H 0.6258 0.3499 0.8059
H77 H 0.7021 0.3881 0.8420
C69 C 0.6826(4) 0.3002(2) 0.86577(19)
H78 H 0.6852 0.2594 0.8507
H79 H 0.7417 0.3038 0.8904
C70 C 0.5782(5) 0.3091(3) 0.8914(3)
H80 H 0.5201 0.3075 0.8661
H81 H 0.5773 0.3497 0.9069
C71 C 0.5594(6) 0.2617(3) 0.9310(3)
H82 H 0.5586 0.2215 0.9157
H83 H 0.4914 0.2693 0.9464
H84 H 0.6159 0.2637 0.9565
C72 C 0.8909(3) 0.3390(2) 0.81640(19)
H85 H 0.8890 0.3080 0.8429
H86 H 0.9432 0.3255 0.7920
C73 C 0.9308(4) 0.3968(2) 0.83951(19)
H87 H 1.0084 0.3934 0.8432
H88 H 0.9161 0.4298 0.8154
C74 C 0.8903(5) 0.4162(3) 0.8881(2)
H89 H 0.8839 0.3804 0.9100
H90 H 0.8190 0.4337 0.8830
C75 C 0.9624(5) 0.4636(3) 0.9143(2)
H91 H 1.0349 0.4482 0.9163
H92 H 0.9374 0.4711 0.9480
H93 H 0.9606 0.5014 0.8952
N6 N 0.7817(3) 0.33998(16) 0.78980(14)
Cl1 Cl 0.38206(8) 0.61045(5) 0.72601(4)
Cl2 Cl 0.07801(13) 0.51190(7) 0.75228(7)
Cl3 Cl 0.24880(17) 0.51461(9) 0.82245(11)
Cl4 Cl 0.09164(12) 0.60763(7) 0.82447(8)
C78 C 0.1643(4) 0.5583(2) 0.7873(3)
H99 H 0.2066 0.5830 0.7638
C1 C 0.6424(3) 0.6526(2) 0.82078(15)
C2 C 0.6855(4) 0.6938(2) 0.85341(17)
H1 H 0.7550 0.6927 0.8674
C3 C 0.6085(4) 0.7385(2) 0.86279(17)
H2 H 0.6175 0.7726 0.8839
C4 C 0.5187(4) 0.7240(2) 0.83607(16)
C5 C 0.4108(3) 0.7540(2) 0.83480(18)
C6 C 0.3855(3) 0.7856(2) 0.78549(16)
C7 C 0.3680(3) 0.84516(19) 0.77477(18)
H3 H 0.3762 0.8777 0.7977
C8 C 0.3362(3) 0.85083(19) 0.72474(18)
H4 H 0.3181 0.8873 0.7078
C9 C 0.3360(3) 0.79389(18) 0.70483(16)
C10 C 0.3084(3) 0.77107(18) 0.65199(15)
C11 C 0.4091(3) 0.75258(17) 0.62697(15)
C12 C 0.4591(3) 0.77738(19) 0.58701(15)
H5 H 0.4377 0.8123 0.5688
C13 C 0.5487(3) 0.74102(19) 0.57801(15)
H6 H 0.5988 0.7479 0.5529
C14 C 0.5513(3) 0.69432(18) 0.61145(14)
C15 C 0.6204(3) 0.63834(18) 0.61462(15)
C16 C 0.6832(3) 0.63084(17) 0.66269(16)
C17 C 0.7896(3) 0.62481(18) 0.67033(17)
H7 H 0.8420 0.6301 0.6460
C18 C 0.8076(3) 0.60935(19) 0.72077(17)
H8 H 0.8742 0.6010 0.7362
C19 C 0.7126(3) 0.60854(18) 0.74359(15)
C20 C 0.6885(3) 0.5965(2) 0.79797(16)
C21 C 0.4087(5) 0.8005(2) 0.8770(2)
H9 H 0.4264 0.7805 0.9087
H10 H 0.3381 0.8183 0.8786
H11 H 0.4603 0.8324 0.8708
C22 C 0.3255(4) 0.7061(2) 0.8437(2)
H12 H 0.3282 0.6751 0.8176
H13 H 0.2559 0.7254 0.8427
H14 H 0.3379 0.6872 0.8763
C23 C 0.2568(4) 0.8230(2) 0.62215(18)
H15 H 0.2443 0.8101 0.5876
H16 H 0.3036 0.8582 0.6228
H17 H 0.1895 0.8338 0.6370
C24 C 0.6978(3) 0.6406(2) 0.57103(17)
H18 H 0.6580 0.6444 0.5395
H19 H 0.7398 0.6034 0.5707
H20 H 0.7448 0.6755 0.5753
C25 C 0.5499(3) 0.58201(19) 0.60641(17)
H21 H 0.5142 0.5846 0.5737
H22 H 0.4972 0.5802 0.6324
H23 H 0.5936 0.5455 0.6079
C26 C 0.7938(4) 0.5820(2) 0.82560(18)
H24 H 0.8218 0.5436 0.8132
H25 H 0.7817 0.5786 0.8614
H26 H 0.8446 0.6144 0.8197
C27 C 0.2291(3) 0.71922(19) 0.65389(16)
C28 C 0.2310(3) 0.67228(19) 0.62027(17)
H27 H 0.2832 0.6718 0.5955
C29 C 0.1580(3) 0.6255(2) 0.62197(17)
C30 C 0.0793(3) 0.6268(2) 0.65630(19)
H28 H 0.0287 0.5952 0.6572
C31 C 0.0746(4) 0.6738(2) 0.6891(2)
H29 H 0.0200 0.6750 0.7127
C32 C 0.1487(3) 0.7198(2) 0.68833(18)
H30 H 0.1447 0.7521 0.7115
C33 C 0.2540(4) 0.5440(2) 0.5852(2)
H31 H 0.3151 0.5702 0.5938
H32 H 0.2624 0.5290 0.5508
C34 C 0.2517(4) 0.4913(2) 0.62062(18)
H33 H 0.2517 0.5065 0.6553
H34 H 0.1861 0.4679 0.6147
C35 C 0.3724(4) 0.4176(2) 0.65878(19)
H35 H 0.4036 0.3782 0.6495
H36 H 0.3087 0.4096 0.6783
C36 C 0.4510(3) 0.4536(2) 0.68972(17)
H37 H 0.5187 0.4563 0.6723
H38 H 0.4242 0.4951 0.6948
C37 C 0.5068(3) 0.46007(19) 0.77393(18)
C38 C 0.5755(3) 0.50690(19) 0.76539(17)
H39 H 0.5979 0.5148 0.7325
C39 C 0.6124(3) 0.54267(19) 0.80468(17)
C40 C 0.5806(4) 0.5282(2) 0.85258(19)
H40 H 0.6045 0.5525 0.8798
C41 C 0.5158(4) 0.4799(2) 0.8614(2)
H41 H 0.4970 0.4700 0.8945
C42 C 0.4777(4) 0.4454(2) 0.8213(2)
H42 H 0.4322 0.4121 0.8268
C43 C 0.3335(4) 0.4128(2) 0.56973(19)
H43 H 0.3037 0.4368 0.5416
H44 H 0.2842 0.3793 0.5765
C44 C 0.4394(4) 0.3871(2) 0.55546(18)
C45 C 0.5180(4) 0.4281(2) 0.54727(19)
H45 H 0.5028 0.4700 0.5499
C46 C 0.6180(4) 0.4106(2) 0.53544(18)
H46 H 0.6703 0.4403 0.5298
C47 C 0.6437(4) 0.3493(2) 0.53166(17)
C48 C 0.7470(4) 0.3297(3) 0.51911(19)
H47 H 0.8000 0.3589 0.5128
C49 C 0.7703(5) 0.2699(3) 0.5161(2)
H48 H 0.8396 0.2577 0.5079
C50 C 0.6921(4) 0.2253(3) 0.52494(17)
C51 C 0.7146(5) 0.1626(3) 0.5228(2)
H49 H 0.7839 0.1494 0.5158
C52 C 0.6369(6) 0.1209(3) 0.5309(2)
H50 H 0.6529 0.0791 0.5288
C53 C 0.5375(5) 0.1385(3) 0.5418(2)
H51 H 0.4853 0.1086 0.5474
C54 C 0.5101(4) 0.1997(2) 0.54509(18)
C55 C 0.4070(4) 0.2196(2) 0.55624(17)
H52 H 0.3535 0.1905 0.5619
C56 C 0.3838(4) 0.2786(2) 0.55886(17)
H53 H 0.3136 0.2900 0.5659
C57 C 0.4608(4) 0.3254(2) 0.55147(16)
C58 C 0.5632(3) 0.3059(2) 0.53965(15)
C59 C 0.5889(4) 0.2429(2) 0.53694(17)
N1 N 0.5401(3) 0.67181(15) 0.81077(13)
H54 H 0.4949 0.6530 0.7908
N2 N 0.3669(3) 0.75490(15) 0.74213(13)
H55 H 0.3738 0.7156 0.7386
N3 N 0.4662(2) 0.70175(15) 0.64180(12)
H56 H 0.4504 0.6779 0.6668
N4 N 0.6373(2) 0.62162(14) 0.70766(12)
H57 H 0.5691 0.6238 0.7128
N5 N 0.3437(3) 0.45146(17) 0.61406(14)
O1 O 0.1582(2) 0.57865(14) 0.58788(13)
O2 O 0.4666(3) 0.42457(14) 0.73614(12)
C76? C 0.8112(13) 0.4488(10) 0.6815(9)
H94? H 0.7377 0.4398 0.6706
H95? H 0.8111 0.4866 0.7012
C77? C 0.8811(10) 0.4568(5) 0.6353(4)
H96? H 0.9535 0.4663 0.6463
H97? H 0.8533 0.4898 0.6146
H98? H 0.8808 0.4192 0.6159
loop_
_geom_bond_atom_site_label_1
_geom_bond_atom_site_label_2
_geom_bond_site_symmetry_1
_geom_bond_site_symmetry_2
C1 C2 1_555 1_555
C2 H1 1_555 1_555
C3 C2 1_555 1_555
H2 C3 1_555 1_555
C4 C3 1_555 1_555
C5 C4 1_555 1_555
C6 C5 1_555 1_555
C7 C6 1_555 1_555
H3 C7 1_555 1_555
C8 C7 1_555 1_555
H4 C8 1_555 1_555
C9 C8 1_555 1_555
C10 C9 1_555 1_555
C11 C10 1_555 1_555
C12 C11 1_555 1_555
H5 C12 1_555 1_555
C13 C12 1_555 1_555
H6 C13 1_555 1_555
C14 C13 1_555 1_555
C15 C14 1_555 1_555
C16 C15 1_555 1_555
C17 C16 1_555 1_555
H7 C17 1_555 1_555
C18 C17 1_555 1_555
H8 C18 1_555 1_555
C19 C18 1_555 1_555
C20 C1 1_555 1_555
C21 C5 1_555 1_555
H9 C21 1_555 1_555
H10 C21 1_555 1_555
H11 C21 1_555 1_555
C22 C5 1_555 1_555
H12 C22 1_555 1_555
H13 C22 1_555 1_555
H14 C22 1_555 1_555
C23 C10 1_555 1_555
H15 C23 1_555 1_555
H16 C23 1_555 1_555
H17 C23 1_555 1_555
C24 C15 1_555 1_555
H18 C24 1_555 1_555
H19 C24 1_555 1_555
H20 C24 1_555 1_555
C25 C15 1_555 1_555
H21 C25 1_555 1_555
H22 C25 1_555 1_555
H23 C25 1_555 1_555
C26 C20 1_555 1_555
H24 C26 1_555 1_555
H25 C26 1_555 1_555
H26 C26 1_555 1_555
C27 C10 1_555 1_555
C28 C27 1_555 1_555
H27 C28 1_555 1_555
C29 C28 1_555 1_555
C30 C29 1_555 1_555
H28 C30 1_555 1_555
C31 C30 1_555 1_555
H29 C31 1_555 1_555
C32 C27 1_555 1_555
H30 C32 1_555 1_555
C33 H31 1_555 1_555
H32 C33 1_555 1_555
C34 C33 1_555 1_555
H33 C34 1_555 1_555
H34 C34 1_555 1_555
C35 H35 1_555 1_555
H36 C35 1_555 1_555
C36 C35 1_555 1_555
H37 C36 1_555 1_555
H38 C36 1_555 1_555
C37 C38 1_555 1_555
C38 H39 1_555 1_555
C39 C20 1_555 1_555
C40 C39 1_555 1_555
H40 C40 1_555 1_555
C41 C40 1_555 1_555
H41 C41 1_555 1_555
C42 C37 1_555 1_555
H42 C42 1_555 1_555
C43 H43 1_555 1_555
H44 C43 1_555 1_555
C44 C43 1_555 1_555
C45 C44 1_555 1_555
H45 C45 1_555 1_555
C46 C45 1_555 1_555
H46 C46 1_555 1_555
C47 C46 1_555 1_555
C48 C47 1_555 1_555
H47 C48 1_555 1_555
C49 C48 1_555 1_555
H48 C49 1_555 1_555
C50 C49 1_555 1_555
C51 C50 1_555 1_555
H49 C51 1_555 1_555
C52 C51 1_555 1_555
H50 C52 1_555 1_555
C53 C52 1_555 1_555
H51 C53 1_555 1_555
C54 C53 1_555 1_555
C55 C54 1_555 1_555
H52 C55 1_555 1_555
C56 C55 1_555 1_555
H53 C56 1_555 1_555
C57 C44 1_555 1_555
C58 C47 1_555 1_555
C59 C50 1_555 1_555
N1 C1 1_555 1_555
H54 N1 1_555 1_555
N2 C6 1_555 1_555
H55 N2 1_555 1_555
N3 C11 1_555 1_555
H56 N3 1_555 1_555
N4 C16 1_555 1_555
H57 N4 1_555 1_555
N5 C34 1_555 1_555
O1 C29 1_555 1_555
O2 C36 1_555 1_555
C60 H58 1_555 1_555
H59 C60 1_555 1_555
C61 C60 1_555 1_555
H60 C61 1_555 1_555
H61 C61 1_555 1_555
C62 C61 1_555 1_555
H62 C62 1_555 1_555
H63 C62 1_555 1_555
C63 C62 1_555 1_555
H64 C63 1_555 1_555
H65 C63 1_555 1_555
H66 C63 1_555 1_555
C64 H67 1_555 1_555
H68 C64 1_555 1_555
C65 C64 1_555 1_555
H69 C65 1_555 1_555
H70 C65 1_555 1_555
C66 C65 1_555 1_555
H71 C66 1_555 1_555
H72 C66 1_555 1_555
C67 C66 1_555 1_555
H73 C67 1_555 1_555
H74 C67 1_555 1_555
H75 C67 1_555 1_555
C68 H76 1_555 1_555
H77 C68 1_555 1_555
C69 C68 1_555 1_555
H78 C69 1_555 1_555
H79 C69 1_555 1_555
C70 C69 1_555 1_555
H80 C70 1_555 1_555
H81 C70 1_555 1_555
C71 C70 1_555 1_555
H82 C71 1_555 1_555
H83 C71 1_555 1_555
H84 C71 1_555 1_555
C72 H85 1_555 1_555
H86 C72 1_555 1_555
C73 C72 1_555 1_555
H87 C73 1_555 1_555
H88 C73 1_555 1_555
C74 C73 1_555 1_555
H89 C74 1_555 1_555
H90 C74 1_555 1_555
C75 C74 1_555 1_555
H91 C75 1_555 1_555
H92 C75 1_555 1_555
H93 C75 1_555 1_555
N6 C60 1_555 1_555
Cl2 C78 1_555 1_555
Cl3 C78 1_555 1_555
Cl4 C78 1_555 1_555
C78 H99 1_555 1_555
C4 N1 1_555 1_555
C9 N2 1_555 1_555
C14 N3 1_555 1_555
C19 C20 1_555 1_555
C19 N4 1_555 1_555
C31 C32 1_555 1_555
C33 O1 1_555 1_555
C35 N5 1_555 1_555
C37 O2 1_555 1_555
C38 C39 1_555 1_555
C41 C42 1_555 1_555
C43 N5 1_555 1_555
C54 C59 1_555 1_555
C56 C57 1_555 1_555
C57 C58 1_555 1_555
C58 C59 1_555 1_555
C64 N6 1_555 1_555
C68 N6 1_555 1_555
C72 N6 1_555 1_555

#END
