
#######################################################################
#
#                 Cambridge Crystallographic Data Centre
#                                CCDC 
#
#######################################################################
#
# If this CIF has been generated from an entry in the Cambridge 
# Structural Database, then it will include bibliographic, chemical, 
# crystal, experimental, refinement or atomic coordinate data resulting 
# from the CCDC's data processing and validation procedures.
#
#######################################################################

data_SAXDUS
_chemical_formula_moiety         'C35 H40 N4 O2 S2'
_chemical_name_systematic        
"Diallyl (3',6'-bis(diethylamino)-3-oxospiro[isoindole-1,9'-xanthen]-2(3H)-yl)carbonodithioimidate"
_symmetry_cell_setting           triclinic
_symmetry_space_group_name_H-M   'P -1'
_symmetry_Int_Tables_number      2
_space_group_name_Hall           '-P 1'
loop_
_symmetry_equiv_pos_site_id
_symmetry_equiv_pos_as_xyz
1 x,y,z
2 -x,-y,-z
_cell_length_a                   8.9958(7)
_cell_length_b                   12.6734(9)
_cell_length_c                   15.9692(11)
_cell_angle_alpha                78.933(4)
_cell_angle_beta                 78.407(5)
_cell_angle_gamma                71.675(5)
_cell_volume                     1676.71
_exptl_crystal_colour            colorless
_exptl_crystal_description       needle
_cell_formula_units_Z            2
loop_
_atom_site_label
_atom_site_type_symbol
_atom_site_fract_x
_atom_site_fract_y
_atom_site_fract_z
S1 S 0.22748(16) 0.12898(11) 0.87810(8)
S2 S 0.42739(15) 0.08629(13) 0.70796(9)
N1 N -0.1608(6) -0.2429(3) 0.8276(2)
N2 N -0.2387(6) 0.3873(3) 0.3917(2)
N3 N -0.0229(4) 0.2378(2) 0.77191(18)
N4 N 0.1255(4) 0.1958(3) 0.7231(2)
O1 O -0.2063(3) 0.0875(2) 0.62384(15)
O2 O 0.0300(4) 0.3712(3) 0.83356(17)
C1 C -0.1546(4) 0.0950(3) 0.7654(2)
C2 C -0.1290(5) 0.0335(3) 0.8455(2)
H1 H -0.1104 0.0687 0.8868
C3 C -0.1296(5) -0.0770(3) 0.8672(3)
H2 H -0.1124 -0.1141 0.9221
C4 C -0.1562(5) -0.1343(3) 0.8064(3)
C5 C -0.1776(5) -0.0734(3) 0.7250(3)
H3 H -0.1928 -0.1083 0.6825
C6 C -0.1767(4) 0.0380(3) 0.7059(2)
C7 C -0.1974(5) 0.1966(3) 0.5963(2)
C8 C -0.2209(5) 0.2371(3) 0.5118(2)
H4 H -0.2434 0.1924 0.4789
C9 C -0.2111(5) 0.3446(4) 0.4753(2)
C10 C -0.1729(6) 0.4067(4) 0.5272(3)
H5 H -0.1606 0.4772 0.5044
C11 C -0.1533(5) 0.3642(3) 0.6118(2)
H6 H -0.1293 0.4080 0.6448
C12 C -0.1678(4) 0.2593(3) 0.6498(2)
C13 C -0.1600(4) 0.2181(3) 0.7453(2)
C14 C -0.1518(8) -0.3033(4) 0.9161(3)
H7 H -0.2084 -0.3593 0.9258
H8 H -0.2040 -0.2505 0.9570
C15 C 0.0153(10) -0.3598(6) 0.9328(4)
H9 H 0.0143 -0.3977 0.9909
H10 H 0.0713 -0.3046 0.9247
H11 H 0.0671 -0.4133 0.8933
C16 C -0.1512(10) -0.3142(6) 0.7536(5)
H12 H -0.0935 -0.2885 0.6994
H13 H -0.1028 -0.3937 0.7700
C17 C -0.3041(11) -0.2921(7) 0.7492(6)
H14 H -0.3162 -0.3311 0.7062
H15 H -0.3486 -0.2128 0.7340
H16 H -0.3580 -0.3165 0.8043
C18 C -0.3512(14) 0.3366(6) 0.3511(4)
H17 H -0.4118 0.2972 0.3962
H18 H -0.4237 0.3959 0.3183
C19 C -0.2521(13) 0.2694(11) 0.3021(6)
H19 H -0.3080 0.2351 0.2752
H20 H -0.1810 0.2123 0.3358
H21 H -0.1930 0.3102 0.2585
C20 C -0.2390(7) 0.5020(4) 0.3551(3)
H22 H -0.2270 0.5091 0.2927
H23 H -0.1488 0.5172 0.3697
C21 C -0.3873(8) 0.5872(5) 0.3869(4)
H24 H -0.3814 0.6611 0.3613
H25 H -0.3989 0.5815 0.4486
H26 H -0.4768 0.5738 0.3714
C22 C -0.2951(5) 0.2930(3) 0.8002(2)
C23 C -0.4553(5) 0.3040(3) 0.8109(2)
H27 H -0.4930 0.2589 0.7858
C24 C -0.5580(6) 0.3837(4) 0.8599(3)
H28 H -0.6661 0.3918 0.8685
C25 C -0.5018(7) 0.4518(4) 0.8964(3)
H29 H -0.5729 0.5064 0.9278
C26 C -0.3417(6) 0.4395(3) 0.8868(3)
H30 H -0.3041 0.4842 0.9122
C27 C -0.2376(5) 0.3586(3) 0.8381(2)
C28 C -0.0623(5) 0.3282(3) 0.8163(2)
C29 C 0.2398(5) 0.1438(4) 0.7650(3)
C30 C 0.3824(7) 0.0005(6) 0.9035(4)
H31 H 0.4792 0.0025 0.8641
H32 H 0.4027 -0.0034 0.9616
C31 C 0.3394(11) -0.1034(7) 0.8970(5)
H33 H 0.3056 -0.1030 0.8456
C32 C 0.3425(13) -0.1859(9) 0.9482(7)
H34 H 0.3752 -0.1922 1.0011
H35 H 0.3123 -0.2440 0.9352
C33 C 0.3919(7) 0.1138(6) 0.5961(4)
H36 H 0.3268 0.1906 0.5843
H37 H 0.4924 0.1062 0.5581
C34 C 0.3162(10) 0.0405(7) 0.5777(5)
H38 H 0.3548 -0.0362 0.5951
C35 C 0.1907(11) 0.0781(9) 0.5360(6)
H39 H 0.1508 0.1545 0.5182
H40 H 0.1433 0.0278 0.5248
loop_
_geom_bond_atom_site_label_1
_geom_bond_atom_site_label_2
_geom_bond_site_symmetry_1
_geom_bond_site_symmetry_2
S1 C29 1_555 1_555
S2 C29 1_555 1_555
N1 C4 1_555 1_555
N2 C9 1_555 1_555
N3 N4 1_555 1_555
N4 C29 1_555 1_555
O1 C6 1_555 1_555
O2 C28 1_555 1_555
C1 C2 1_555 1_555
C2 H1 1_555 1_555
C3 C2 1_555 1_555
H2 C3 1_555 1_555
C4 C3 1_555 1_555
C5 C4 1_555 1_555
H3 C5 1_555 1_555
C6 C1 1_555 1_555
C7 O1 1_555 1_555
C8 C7 1_555 1_555
H4 C8 1_555 1_555
C9 C8 1_555 1_555
C10 C9 1_555 1_555
H5 C10 1_555 1_555
C11 C10 1_555 1_555
H6 C11 1_555 1_555
C12 C7 1_555 1_555
C13 N3 1_555 1_555
C14 N1 1_555 1_555
H7 C14 1_555 1_555
H8 C14 1_555 1_555
C15 C14 1_555 1_555
H9 C15 1_555 1_555
H10 C15 1_555 1_555
H11 C15 1_555 1_555
C16 N1 1_555 1_555
H12 C16 1_555 1_555
H13 C16 1_555 1_555
C17 C16 1_555 1_555
H14 C17 1_555 1_555
H15 C17 1_555 1_555
H16 C17 1_555 1_555
C18 N2 1_555 1_555
H17 C18 1_555 1_555
H18 C18 1_555 1_555
C19 C18 1_555 1_555
H19 C19 1_555 1_555
H20 C19 1_555 1_555
H21 C19 1_555 1_555
C20 N2 1_555 1_555
H22 C20 1_555 1_555
H23 C20 1_555 1_555
C21 C20 1_555 1_555
H24 C21 1_555 1_555
H25 C21 1_555 1_555
H26 C21 1_555 1_555
C22 C13 1_555 1_555
C23 C22 1_555 1_555
H27 C23 1_555 1_555
C24 C23 1_555 1_555
H28 C24 1_555 1_555
C25 C24 1_555 1_555
H29 C25 1_555 1_555
C26 C25 1_555 1_555
H30 C26 1_555 1_555
C27 C22 1_555 1_555
C28 N3 1_555 1_555
C30 S1 1_555 1_555
H31 C30 1_555 1_555
H32 C30 1_555 1_555
C31 C30 1_555 1_555
H33 C31 1_555 1_555
C32 C31 1_555 1_555
H34 C32 1_555 1_555
H35 C32 1_555 1_555
C33 S2 1_555 1_555
H36 C33 1_555 1_555
H37 C33 1_555 1_555
C34 C33 1_555 1_555
H38 C34 1_555 1_555
C35 C34 1_555 1_555
H39 C35 1_555 1_555
H40 C35 1_555 1_555
C1 C13 1_555 1_555
C5 C6 1_555 1_555
C11 C12 1_555 1_555
C12 C13 1_555 1_555
C26 C27 1_555 1_555
C27 C28 1_555 1_555

#END
