
#######################################################################
#
#                 Cambridge Crystallographic Data Centre
#                                CCDC 
#
#######################################################################
#
# If this CIF has been generated from an entry in the Cambridge 
# Structural Database, then it will include bibliographic, chemical, 
# crystal, experimental, refinement or atomic coordinate data resulting 
# from the CCDC's data processing and validation procedures.
#
#######################################################################

data_SAXJUX
_chemical_name_common            'Fluorescin dialdehyde acetone solvate'
_chemical_formula_moiety         'C22 H12 O7,0.5(C3 H6 O1)'
_chemical_name_systematic        
"4',5'-Diformyl-3',6'-dihydroxy-spiro(isobenzofuran-3-one-1(3H),9'(9H)-xanthene) acetone solvate"
_symmetry_cell_setting           monoclinic
_symmetry_space_group_name_H-M   'C 2/c'
_symmetry_Int_Tables_number      15
_space_group_name_Hall           '-C 2yn'
loop_
_symmetry_equiv_pos_site_id
_symmetry_equiv_pos_as_xyz
1 x,y,z
2 1/2+x,1/2+y,z
3 -x,y,1/2-z
4 1/2-x,1/2+y,1/2-z
5 -x,-y,-z
6 1/2-x,1/2-y,-z
7 x,-y,1/2+z
8 1/2+x,1/2-y,1/2+z
_cell_length_a                   19.388(6)
_cell_length_b                   7.897(2)
_cell_length_c                   24.479(9)
_cell_angle_alpha                90
_cell_angle_beta                 91.407(10)
_cell_angle_gamma                90
_cell_volume                     3746.78
_exptl_crystal_colour            colorless
_exptl_crystal_description       needle
_cell_formula_units_Z            8
loop_
_atom_site_label
_atom_site_type_symbol
_atom_site_fract_x
_atom_site_fract_y
_atom_site_fract_z
O1 O 0.47740(9) 0.23881(19) 0.52159(8)
O2 O 0.30624(10) 0.3479(2) 0.65314(9)
H1 H 0.2810(16) 0.291(4) 0.6249(14)
O3 O 0.63095(11) 0.1534(2) 0.37665(9)
H2 H 0.5910(17) 0.103(4) 0.3620(14)
O4 O 0.28030(10) 0.1844(2) 0.56100(9)
O5 O 0.50498(10) 0.0415(2) 0.37446(9)
O6 O 0.59402(9) 0.60806(18) 0.58466(8)
O7 O 0.65989(9) 0.8015(2) 0.62792(9)
C1 C 0.39099(13) 0.2906(3) 0.58571(12)
C2 C 0.37151(13) 0.3584(3) 0.63593(12)
C3 C 0.41903(15) 0.4413(3) 0.66984(13)
H3 H 0.4054 0.4855 0.7040
C4 C 0.48591(14) 0.4588(3) 0.65350(13)
H4 H 0.5180 0.5158 0.6769
C5 C 0.50857(13) 0.3956(3) 0.60336(12)
C6 C 0.58165(13) 0.4222(3) 0.58599(12)
C7 C 0.59272(13) 0.3523(3) 0.53013(12)
C8 C 0.65709(14) 0.3701(3) 0.50484(12)
H5 H 0.6931 0.4292 0.5237
C9 C 0.66947(14) 0.3055(3) 0.45432(12)
H6 H 0.7132 0.3210 0.4383
C10 C 0.61724(14) 0.2162(3) 0.42633(12)
C11 C 0.55264(14) 0.1940(3) 0.44979(12)
C12 C 0.54227(14) 0.2654(3) 0.50154(12)
C13 C 0.46062(13) 0.3120(3) 0.57062(11)
C14 C 0.34128(15) 0.2072(3) 0.54940(13)
H7 H 0.3564 0.1682 0.5150
C15 C 0.49829(15) 0.1019(3) 0.42052(13)
H8 H 0.4553 0.0874 0.4378
C16 C 0.63539(13) 0.3636(3) 0.62782(11)
C17 C 0.65180(14) 0.2009(3) 0.64428(12)
H9 H 0.6275 0.1058 0.6299
C18 C 0.70511(14) 0.1815(3) 0.68265(12)
H10 H 0.7178 0.0708 0.6943
C19 C 0.74050(14) 0.3201(3) 0.70453(12)
H11 H 0.7762 0.3032 0.7312
C20 C 0.72379(14) 0.4830(3) 0.68747(12)
H12 H 0.7478 0.5785 0.7019
C21 C 0.67116(13) 0.5017(3) 0.64884(12)
C22 C 0.64437(13) 0.6550(3) 0.62185(12)
O8? O 0.0323(3) 0.7551(5) 0.2483(2)
C23? C 0.0000 0.6134(5) 0.2500
C24? C 0.0552(4) 0.4588(9) 0.2544(3)
C25? C 0.0699(4) 0.5824(13) 0.2499(3)
loop_
_geom_bond_atom_site_label_1
_geom_bond_atom_site_label_2
_geom_bond_site_symmetry_1
_geom_bond_site_symmetry_2
O1 C12 1_555 1_555
O2 H1 1_555 1_555
O3 H2 1_555 1_555
O4 C14 1_555 1_555
O5 C15 1_555 1_555
O6 C6 1_555 1_555
O7 C22 1_555 1_555
C1 C2 1_555 1_555
C2 O2 1_555 1_555
C3 C2 1_555 1_555
H3 C3 1_555 1_555
C4 C3 1_555 1_555
H4 C4 1_555 1_555
C5 C4 1_555 1_555
C6 C5 1_555 1_555
C7 C6 1_555 1_555
C8 C7 1_555 1_555
H5 C8 1_555 1_555
C9 C8 1_555 1_555
H6 C9 1_555 1_555
C10 O3 1_555 1_555
C11 C10 1_555 1_555
C12 C7 1_555 1_555
C13 O1 1_555 1_555
C14 C1 1_555 1_555
H7 C14 1_555 1_555
C15 C11 1_555 1_555
H8 C15 1_555 1_555
C16 C6 1_555 1_555
C17 C16 1_555 1_555
H9 C17 1_555 1_555
C18 C17 1_555 1_555
H10 C18 1_555 1_555
C19 C18 1_555 1_555
H11 C19 1_555 1_555
C20 C19 1_555 1_555
H12 C20 1_555 1_555
C21 C16 1_555 1_555
C22 O6 1_555 1_555
C1 C13 1_555 1_555
C5 C13 1_555 1_555
C9 C10 1_555 1_555
C11 C12 1_555 1_555
C20 C21 1_555 1_555
C21 C22 1_555 1_555

#END
