
#######################################################################
#
#                 Cambridge Crystallographic Data Centre
#                                CCDC 
#
#######################################################################
#
# If this CIF has been generated from an entry in the Cambridge 
# Structural Database, then it will include bibliographic, chemical, 
# crystal, experimental, refinement or atomic coordinate data resulting 
# from the CCDC's data processing and validation procedures.
#
#######################################################################

data_SAXLOS
_chemical_formula_moiety         'C20 H20 O2'
_chemical_name_systematic        
trans-1,6-bis(o-Methoxyphenyl)-1,3,5-hexatriene
_symmetry_cell_setting           monoclinic
_symmetry_space_group_name_H-M   'P 21/c'
_symmetry_Int_Tables_number      14
_space_group_name_Hall           '-P 2ybc'
loop_
_symmetry_equiv_pos_site_id
_symmetry_equiv_pos_as_xyz
1 x,y,z
2 -x,1/2+y,1/2-z
3 -x,-y,-z
4 x,1/2-y,1/2+z
_cell_length_a                   11.089(6)
_cell_length_b                   5.4886(8)
_cell_length_c                   14.351(2)
_cell_angle_alpha                90
_cell_angle_beta                 110.34(3)
_cell_angle_gamma                90
_cell_volume                     818.984
_exptl_crystal_colour            yellow-orange
_cell_formula_units_Z            2
loop_
_atom_site_label
_atom_site_type_symbol
_atom_site_fract_x
_atom_site_fract_y
_atom_site_fract_z
O1 O 0.3398(2) 0.2823(3) 0.6132(1)
C1 C 0.0358(2) -0.3992(4) 0.5054(2)
C2 C 0.0906(2) -0.2648(4) 0.5965(2)
C3 C 0.1597(2) -0.0615(4) 0.6041(2)
C4 C 0.2127(2) 0.0920(4) 0.6921(2)
C5 C 0.1739(3) 0.0738(5) 0.7745(2)
C6 C 0.2226(3) 0.2258(5) 0.8555(2)
C7 C 0.3107(3) 0.4019(5) 0.8558(2)
C8 C 0.3517(3) 0.4265(5) 0.7760(2)
C9 C 0.3030(3) 0.2725(4) 0.6949(2)
C10 C 0.4210(3) 0.4765(7) 0.6062(3)
H1 H 0.057(2) -0.330(4) 0.446(2)
H2 H 0.072(2) -0.329(4) 0.656(2)
H3 H 0.180(2) -0.006(4) 0.547(2)
H4 H 0.107(2) -0.047(4) 0.773(2)
H5 H 0.192(3) 0.212(5) 0.910(2)
H6 H 0.344(2) 0.509(5) 0.915(2)
H7 H 0.415(2) 0.546(5) 0.776(2)
H8 H 0.433(3) 0.451(6) 0.540(2)
H9 H 0.390(3) 0.640(5) 0.616(2)
H10 H 0.508(3) 0.458(5) 0.661(2)
C1B C -0.0358(2) -0.6008(4) 0.4946(2)
C2B C -0.0906(2) -0.7352(4) 0.4035(2)
H1B H -0.057(2) -0.670(4) 0.554(2)
C3B C -0.1597(2) -0.9385(4) 0.3959(2)
H2B H -0.072(2) -0.671(4) 0.344(2)
C4B C -0.2127(2) -1.0920(4) 0.3079(2)
H3B H -0.180(2) -0.994(4) 0.453(2)
C5B C -0.1739(3) -1.0738(5) 0.2255(2)
C9B C -0.3030(3) -1.2725(4) 0.3051(2)
C6B C -0.2226(3) -1.2258(5) 0.1445(2)
H4B H -0.107(2) -0.953(4) 0.227(2)
O1B O -0.3398(2) -1.2823(3) 0.3868(1)
C8B C -0.3517(3) -1.4265(5) 0.2240(2)
C7B C -0.3107(3) -1.4019(5) 0.1442(2)
H5B H -0.192(3) -1.212(5) 0.090(2)
C10B C -0.4210(3) -1.4765(7) 0.3938(3)
H7B H -0.415(2) -1.546(5) 0.224(2)
H6B H -0.344(2) -1.509(5) 0.085(2)
H8B H -0.433(3) -1.451(6) 0.460(2)
H9B H -0.390(3) -1.640(5) 0.384(2)
H10B H -0.508(3) -1.458(5) 0.339(2)
loop_
_geom_bond_atom_site_label_1
_geom_bond_atom_site_label_2
_geom_bond_site_symmetry_1
_geom_bond_site_symmetry_2
O1 C9 1_555 1_555
C1 C2 1_555 1_555
C2 C3 1_555 1_555
C3 C4 1_555 1_555
C4 C5 1_555 1_555
C5 C6 1_555 1_555
C6 C7 1_555 1_555
C7 C8 1_555 1_555
C8 C9 1_555 1_555
C9 C4 1_555 1_555
C10 O1 1_555 1_555
H1 C1 1_555 1_555
H2 C2 1_555 1_555
H3 C3 1_555 1_555
H4 C5 1_555 1_555
H5 C6 1_555 1_555
H6 C7 1_555 1_555
H7 C8 1_555 1_555
H8 C10 1_555 1_555
H9 C10 1_555 1_555
H10 C10 1_555 1_555
C1B C1 1_555 1_555
C2B C1B 1_555 1_555
H1B C1B 1_555 1_555
C3B C2B 1_555 1_555
H2B C2B 1_555 1_555
C4B C3B 1_555 1_555
H3B C3B 1_555 1_555
C5B C4B 1_555 1_555
C9B C4B 1_555 1_555
C6B C5B 1_555 1_555
H4B C5B 1_555 1_555
O1B C9B 1_555 1_555
C8B C9B 1_555 1_555
C7B C6B 1_555 1_555
H5B C6B 1_555 1_555
C10B O1B 1_555 1_555
H7B C8B 1_555 1_555
H6B C7B 1_555 1_555
H8B C10B 1_555 1_555
H9B C10B 1_555 1_555
H10B C10B 1_555 1_555
C8B C7B 1_555 1_555

#END
