
#######################################################################
#
#                 Cambridge Crystallographic Data Centre
#                                CCDC 
#
#######################################################################
#
# If this CIF has been generated from an entry in the Cambridge 
# Structural Database, then it will include bibliographic, chemical, 
# crystal, experimental, refinement or atomic coordinate data resulting 
# from the CCDC's data processing and validation procedures.
#
#######################################################################

data_SAXMUC
_chemical_formula_moiety         'C27 H22 F3 N5 O1,1(C1 H2 Cl2)'
_chemical_name_systematic        
'6-amino-4-isopropyl-3-methyl-4-(3-(quinolin-4-yl)-5-(trifluoromethyl)phenyl)-2,4-dihydropyrano[2,3-c]pyrazole-5-carbonitrile dichloromethane solvate'
_symmetry_cell_setting           monoclinic
_symmetry_space_group_name_H-M   'P 21/c'
_symmetry_Int_Tables_number      14
_space_group_name_Hall           '-P 2ybc'
loop_
_symmetry_equiv_pos_site_id
_symmetry_equiv_pos_as_xyz
1 x,y,z
2 -x,1/2+y,1/2-z
3 -x,-y,-z
4 x,1/2-y,1/2+z
_cell_length_a                   20.4652(10)
_cell_length_b                   9.7295(6)
_cell_length_c                   21.3194(13)
_cell_angle_alpha                90
_cell_angle_beta                 137.384(2)
_cell_angle_gamma                90
_cell_volume                     2874.24
_exptl_crystal_colour            colorless
_exptl_crystal_description       plate
_chemical_melting_point          '448 K'
_cell_formula_units_Z            4
_exptl_crystal_recrystallization_method dichloromethane/hexane
loop_
_atom_site_label
_atom_site_type_symbol
_atom_site_fract_x
_atom_site_fract_y
_atom_site_fract_z
O1 O 0.91604(14) 0.07991(19) 0.91464(13)
F1 F 0.56036(16) 0.5776(2) 0.48043(15)
F2 F 0.45812(15) 0.4226(2) 0.38638(15)
N1 N 0.86594(17) -0.1382(2) 0.85154(16)
F3 F 0.5452(2) 0.5070(3) 0.37494(18)
N2 N 0.78882(18) -0.1862(2) 0.76419(16)
H1 H 0.785(3) -0.275(2) 0.756(2)
N3 N 0.9034(2) 0.0180(3) 0.5136(2)
C1 C 0.83020(19) 0.2663(3) 0.80667(18)
C2 C 0.65840(19) 0.2212(3) 0.71877(18)
H2 H 0.648(2) 0.318(4) 0.708(2)
N4 N 0.98947(18) 0.2805(2) 0.96516(17)
C3 C 0.76702(18) 0.0367(3) 0.75090(17)
C4 C 0.90955(19) 0.2143(3) 0.89259(18)
C5 C 0.73838(18) 0.1848(3) 0.72650(17)
C6 C 0.76010(19) 0.1649(3) 0.62424(19)
H3 H 0.8089 0.0988 0.6672
N5 N 0.82268(19) 0.5233(3) 0.77663(18)
C7 C 0.85018(19) -0.0050(3) 0.84037(18)
C8 C 0.64050(19) 0.3221(3) 0.57607(19)
H4 H 0.6056 0.3649 0.5844
C9 C 0.7410(2) 0.2005(3) 0.54907(19)
C10 C 0.70965(18) 0.2232(3) 0.63875(17)
C11 C 0.82834(19) 0.4086(3) 0.79242(18)
C12 C 0.7285(2) -0.0865(3) 0.70184(19)
C13 C 0.5476(3) 0.4667(4) 0.4361(2)
C14 C 0.7962(2) 0.1363(3) 0.5361(2)
C15 C 0.6222(2) 0.3585(3) 0.5014(2)
C16 C 0.8113(2) -0.0237(3) 0.4603(2)
C17 C 0.6709(2) 0.2981(3) 0.4865(2)
H5 H 0.6567 0.3229 0.4344
C18 C 0.6605(2) -0.0202(4) 0.4122(2)
H6 H 0.6217 0.0159 0.4175
C19 C 0.7725(2) -0.1280(4) 0.3943(2)
H7 H 0.8099 -0.1647 0.3874
C20 C 0.8875(2) 0.1768(3) 0.5877(2)
H8 H 0.9167 0.2478 0.6323
C21 C 0.5652(2) 0.1431(4) 0.6419(2)
H9 H 0.5462 0.1520 0.5844
H10 H 0.5143 0.1811 0.6327
H11 H 0.5748 0.0458 0.6588
C22 C 0.9393(2) 0.1136(4) 0.5751(3)
H12 H 1.0039 0.1422 0.6134
C23 C 0.6906(2) 0.1939(3) 0.8088(2)
H13 H 0.7002 0.0950 0.8216
H14 H 0.6409 0.2267 0.8028
H15 H 0.7512 0.2424 0.8598
C24 C 0.6810(3) -0.1763(4) 0.3403(3)
H16 H 0.6555 -0.2471 0.2965
C25 C 0.6248(3) -0.1219(5) 0.3493(3)
H17 H 0.5614 -0.1560 0.3114
C26 C 0.6436(2) -0.1200(3) 0.6020(2)
H18 H 0.6623 -0.1872 0.5833
H19 H 0.6202 -0.0362 0.5650
H20 H 0.5922 -0.1587 0.5919
C27 C 0.7547(2) 0.0315(3) 0.4694(2)
H21 H 1.036(4) 0.244(7) 1.023(2)
H22 H 1.001(5) 0.368(3) 0.962(5)
Cl5 Cl 0.96773(16) 0.5658(2) 0.65944(16)
Cl6 Cl 0.87552(14) 0.7832(2) 0.66907(13)
C30 C 0.9296(7) 0.7379(4) 0.6355(7)
H27 H 0.8828 0.7543 0.5682
H28 H 0.9859 0.7984 0.6680
Cl1? Cl 0.9018(7) 0.5449(11) 0.5602(7)
Cl2? Cl 0.8449(10) 0.6202(16) 0.6478(9)
C28? C 0.8056(6) 0.573(5) 0.5444(10)
H23? H 0.7664 0.4884 0.5198
H24? H 0.7637 0.6468 0.4980
Cl3? Cl 0.9009(11) 0.5678(13) 0.6035(11)
Cl4? Cl 0.9145(16) 0.8323(16) 0.6785(14)
C29? C 0.8422(17) 0.688(3) 0.610(3)
H25? H 0.8235 0.6430 0.6370
H26? H 0.7824 0.7195 0.5471
loop_
_geom_bond_atom_site_label_1
_geom_bond_atom_site_label_2
_geom_bond_site_symmetry_1
_geom_bond_site_symmetry_2
O1 C4 1_555 1_555
F1 C13 1_555 1_555
F2 C13 1_555 1_555
N1 N2 1_555 1_555
F3 C13 1_555 1_555
N2 H1 1_555 1_555
N3 C16 1_555 1_555
C1 C4 1_555 1_555
C2 H2 1_555 1_555
N4 C4 1_555 1_555
C3 C5 1_555 1_555
C5 C1 1_555 1_555
C6 H3 1_555 1_555
N5 C11 1_555 1_555
C7 O1 1_555 1_555
C8 H4 1_555 1_555
C9 C6 1_555 1_555
C10 C5 1_555 1_555
C11 C1 1_555 1_555
C12 N2 1_555 1_555
C13 C15 1_555 1_555
C14 C9 1_555 1_555
C15 C8 1_555 1_555
C16 C19 1_555 1_555
C17 C9 1_555 1_555
H5 C17 1_555 1_555
C18 H6 1_555 1_555
C19 H7 1_555 1_555
C20 C14 1_555 1_555
H8 C20 1_555 1_555
C21 C2 1_555 1_555
H9 C21 1_555 1_555
H10 C21 1_555 1_555
H11 C21 1_555 1_555
C22 N3 1_555 1_555
H12 C22 1_555 1_555
C23 C2 1_555 1_555
H13 C23 1_555 1_555
H14 C23 1_555 1_555
H15 C23 1_555 1_555
C24 C19 1_555 1_555
H16 C24 1_555 1_555
C25 C18 1_555 1_555
H17 C25 1_555 1_555
C26 C12 1_555 1_555
H18 C26 1_555 1_555
H19 C26 1_555 1_555
H20 C26 1_555 1_555
C27 C14 1_555 1_555
H21 N4 1_555 1_555
H22 N4 1_555 1_555
Cl5 C30 1_555 1_555
Cl6 C30 1_555 1_555
C30 H27 1_555 1_555
H28 C30 1_555 1_555
N1 C7 1_555 1_555
C2 C5 1_555 1_555
C3 C7 1_555 1_555
C3 C12 1_555 1_555
C6 C10 1_555 1_555
C8 C10 1_555 1_555
C15 C17 1_555 1_555
C16 C27 1_555 1_555
C18 C27 1_555 1_555
C20 C22 1_555 1_555
C24 C25 1_555 1_555

#END
