
#######################################################################
#
#                 Cambridge Crystallographic Data Centre
#                                CCDC 
#
#######################################################################
#
# If this CIF has been generated from an entry in the Cambridge 
# Structural Database, then it will include bibliographic, chemical, 
# crystal, experimental, refinement or atomic coordinate data resulting 
# from the CCDC's data processing and validation procedures.
#
#######################################################################

data_SAXMIQ
_chemical_formula_moiety         'C24 H23 N5 O2 S1,0.5(C6 H14)'
_chemical_name_systematic        
'6-amino-4-{3-cyano-5-[5-(methoxymethyl)thiophen-2-yl]phenyl}-3-methyl-4-(propan-2-yl)-2,4-dihydropyrano[2,3-c]pyrazole-5-carbonitrile hexane solvate'
_chemical_properties_biological  
'Plasmodium falciparum serine hydroxymethyltransferase inhibition'
_symmetry_cell_setting           monoclinic
_symmetry_space_group_name_H-M   'P 21'
_symmetry_Int_Tables_number      4
_space_group_name_Hall           'P 2yb'
loop_
_symmetry_equiv_pos_site_id
_symmetry_equiv_pos_as_xyz
1 x,y,z
2 -x,1/2+y,-z
_cell_length_a                   11.664(3)
_cell_length_b                   16.775(4)
_cell_length_c                   13.975(3)
_cell_angle_alpha                90
_cell_angle_beta                 105.749(5)
_cell_angle_gamma                90
_cell_volume                     2631.75
_exptl_crystal_colour            colorless
_exptl_crystal_description       plate
_chemical_melting_point          '438 K'
_cell_formula_units_Z            4
_exptl_crystal_recrystallization_method dichloromethane/hexane
loop_
_atom_site_label
_atom_site_type_symbol
_atom_site_fract_x
_atom_site_fract_y
_atom_site_fract_z
S1 S 0.24496(8) 0.74093(5) 0.48026(7)
O1 O -0.3029(2) 0.80035(16) 0.38357(17)
N1 N -0.1150(3) 0.64595(18) 0.4691(2)
H1 H -0.074(3) 0.616(2) 0.518(3)
N2 N -0.1931(3) 0.70186(18) 0.4836(2)
O2 O 0.4495(3) 0.65163(18) 0.6571(2)
N3 N -0.2585(3) 0.9360(2) 0.0990(2)
N4 N -0.3879(3) 0.9060(2) 0.2951(2)
H2 H -0.457(3) 0.885(3) 0.296(4)
H3 H -0.374(4) 0.930(3) 0.355(2)
C1 C -0.2233(3) 0.7382(2) 0.3971(2)
C2 C -0.2557(3) 0.6983(2) 0.1360(3)
H4 H -0.2708 0.7328 0.0755
C3 C -0.1684(3) 0.7094(2) 0.3260(2)
C4 C -0.2502(3) 0.8270(2) 0.2313(2)
C5 C 0.1566(3) 0.7931(2) 0.2852(2)
C6 C -0.1821(3) 0.7495(2) 0.2263(2)
C7 C 0.0686(3) 0.8176(3) 0.1115(3)
C8 C -0.0584(3) 0.7722(2) 0.2122(2)
C9 C -0.0971(3) 0.6476(2) 0.3773(3)
C10 C -0.0446(3) 0.7942(2) 0.1193(3)
H5 H -0.1108 0.7933 0.0620
C11 C 0.0418(3) 0.7747(2) 0.2936(2)
H6 H 0.0324 0.7634 0.3577
C12 C -0.3116(3) 0.8448(2) 0.2995(2)
C13 C 0.3729(3) 0.8167(2) 0.3878(3)
H7 H 0.3988 0.8443 0.3380
C14 C -0.2565(3) 0.8861(2) 0.1567(2)
C15 C 0.2593(3) 0.7886(2) 0.3739(3)
C16 C 0.4484(3) 0.8004(3) 0.4848(3)
H8 H 0.5297 0.8159 0.5063
N5 N 0.0896(4) 0.8676(4) -0.0590(3)
C17 C 0.4383(4) 0.7348(3) 0.6502(3)
H9 H 0.4579 0.7702 0.7052
C18 C -0.1915(4) 0.6241(3) 0.1150(3)
H10 H -0.1123 0.6388 0.1094
H11 H -0.2375 0.5997 0.0527
H12 H -0.1834 0.5859 0.1696
C19 C -0.0115(4) 0.5920(2) 0.3504(3)
H13 H 0.0600 0.5873 0.4064
H14 H 0.0104 0.6126 0.2922
H15 H -0.0486 0.5395 0.3349
C20 C 0.3911(3) 0.7599(2) 0.5436(3)
C21 C 0.1685(3) 0.8158(3) 0.1922(3)
H16 H 0.2443 0.8300 0.1844
C22 C -0.3768(4) 0.6752(3) 0.1491(3)
H17 H -0.3657 0.6407 0.2075
H18 H -0.4227 0.6467 0.0899
H19 H -0.4200 0.7234 0.1585
C23 C 0.0797(4) 0.8444(4) 0.0162(3)
C24 C 0.4794(6) 0.6254(3) 0.7602(4)
H20 H 0.5064 0.5699 0.7644
H21 H 0.4088 0.6296 0.7852
H22 H 0.5430 0.6592 0.8003
S2 S 0.80202(8) 0.45070(6) 0.46155(7)
O3 O 0.2604(2) 0.37933(17) 0.40499(18)
N6 N 0.3490(3) 0.48417(19) 0.5052(2)
N7 N 0.4168(3) 0.54751(19) 0.4909(2)
H23 H 0.441(4) 0.584(2) 0.539(3)
N8 N 0.2821(3) 0.2723(2) 0.0985(2)
O4 O 1.0356(3) 0.5366(2) 0.6024(3)
N9 N 0.2033(4) 0.2674(2) 0.3199(3)
H24 H 0.194(5) 0.248(3) 0.378(3)
H25 H 0.190(5) 0.239(3) 0.262(3)
C25 C 0.2908(3) 0.3172(2) 0.1627(2)
C26 C 0.3237(3) 0.4493(2) 0.4173(2)
C27 C 0.5733(3) 0.43113(19) 0.2869(2)
H26 H 0.5707 0.4302 0.3542
C28 C 0.3700(3) 0.4863(2) 0.3464(3)
C29 C 0.3494(3) 0.4537(2) 0.2416(2)
C30 C 0.6829(3) 0.4182(2) 0.2662(3)
C31 C 0.2568(3) 0.3386(2) 0.3192(3)
C32 C 0.4683(3) 0.4453(2) 0.2132(2)
C33 C 0.4312(3) 0.5509(2) 0.3981(3)
C34 C 0.5814(3) 0.4324(3) 0.0923(3)
C35 C 0.3009(3) 0.3691(2) 0.2457(2)
C36 C 0.4726(3) 0.4456(3) 0.1139(2)
H27 H 0.4023 0.4546 0.0617
C37 C 0.6865(3) 0.4184(2) 0.1662(3)
H28 H 0.7592 0.4093 0.1496
C38 C 0.5103(4) 0.6141(2) 0.3734(3)
H29 H 0.4623 0.6610 0.3460
H30 H 0.5485 0.5933 0.3242
H31 H 0.5714 0.6293 0.4338
C39 C 0.7927(3) 0.4083(2) 0.3475(3)
C40 C 0.2549(3) 0.5041(3) 0.1632(3)
H32 H 0.2442 0.4785 0.0967
N10 N 0.5842(4) 0.4374(4) -0.0926(3)
C41 C 0.9503(4) 0.4222(3) 0.5065(4)
C42 C 0.8990(4) 0.3724(3) 0.3467(4)
H33 H 0.9113 0.3453 0.2907
C43 C 0.5831(4) 0.4345(3) -0.0109(3)
C44 C 0.9870(4) 0.3803(3) 0.4378(4)
H34 H 1.0647 0.3583 0.4497
C45 C 0.1340(4) 0.5029(4) 0.1867(4)
H35 H 0.1012 0.4488 0.1775
H36 H 0.0792 0.5395 0.1418
H37 H 0.1443 0.5197 0.2557
C46 C 1.0242(6) 0.4510(3) 0.6050(5)
H38 H 0.9861 0.4358 0.6576
H39 H 1.1040 0.4260 0.6205
C47 C 1.1489(5) 0.5615(3) 0.6513(5)
H40 H 1.2068 0.5348 0.6229
H41 H 1.1657 0.5482 0.7221
H42 H 1.1549 0.6193 0.6439
C48 C 0.2960(6) 0.5902(3) 0.1556(4)
H43 H 0.2935 0.6197 0.2155
H44 H 0.2431 0.6158 0.0971
H45 H 0.3776 0.5900 0.1492
C49 C 0.8558(7) 0.5717(5) 0.8445(5)
H46 H 0.8098 0.6208 0.8477
H47 H 0.8697 0.5446 0.9095
C50 C 0.7778(14) 0.5170(10) 0.7648(12)
H48 H 0.8284 0.4722 0.7544
H49 H 0.7156 0.4940 0.7927
C51 C 0.7233(12) 0.5471(8) 0.6754(10)
H50 H 0.6691 0.5898 0.6829
H51 H 0.6778 0.5049 0.6331
H52 H 0.7830 0.5685 0.6447
C52 C 1.1698(8) 0.6715(7) 0.8928(7)
H53 H 1.2099 0.7107 0.9428
H54 H 1.2159 0.6219 0.9024
H55 H 1.1635 0.6926 0.8262
C53 C 0.9717(12) 0.5956(10) 0.8321(13)
H56 H 0.9583 0.6179 0.7644
H57 H 1.0204 0.5469 0.8353
C54 C 1.0437(14) 0.6547(13) 0.9041(15)
H58 H 1.0516 0.6351 0.9724
H59 H 0.9993 0.7057 0.8963
H60? H 0.8318 0.5286 0.8834
H61? H 0.8037 0.6183 0.8448
H62? H 0.6679 0.5192 0.7055
H63? H 0.7232 0.5212 0.6125
H64? H 0.6983 0.6027 0.6628
C55? C 0.9868(14) 0.5952(12) 0.8947(12)
H65? H 0.9914 0.6138 0.9629
H66? H 1.0358 0.5463 0.9012
H67? H 1.2013 0.7128 0.8573
H68? H 1.1794 0.6885 0.9617
H69? H 1.2134 0.6216 0.8924
C56? C 0.8385(17) 0.5443(13) 0.7404(11)
H70? H 0.8911 0.5767 0.7107
H71? H 0.8668 0.4885 0.7427
C57? C 1.0445(12) 0.6590(10) 0.8443(10)
H72? H 1.0355 0.6432 0.7744
H73? H 1.0015 0.7100 0.8436
loop_
_geom_bond_atom_site_label_1
_geom_bond_atom_site_label_2
_geom_bond_site_symmetry_1
_geom_bond_site_symmetry_2
S1 C15 1_555 1_555
O1 C1 1_555 1_555
N1 H1 1_555 1_555
N2 N1 1_555 1_555
O2 C17 1_555 1_555
N3 C14 1_555 1_555
N4 H2 1_555 1_555
H3 N4 1_555 1_555
C1 N2 1_555 1_555
C2 H4 1_555 1_555
C3 C1 1_555 1_555
C4 C6 1_555 1_555
C5 C11 1_555 1_555
C6 C2 1_555 1_555
C7 C10 1_555 1_555
C8 C6 1_555 1_555
C9 N1 1_555 1_555
C10 C8 1_555 1_555
H5 C10 1_555 1_555
C11 C8 1_555 1_555
H6 C11 1_555 1_555
C12 O1 1_555 1_555
C13 H7 1_555 1_555
C14 C4 1_555 1_555
C15 C5 1_555 1_555
C16 C13 1_555 1_555
H8 C16 1_555 1_555
N5 C23 1_555 1_555
C17 H9 1_555 1_555
C18 C2 1_555 1_555
H10 C18 1_555 1_555
H11 C18 1_555 1_555
H12 C18 1_555 1_555
C19 C9 1_555 1_555
H13 C19 1_555 1_555
H14 C19 1_555 1_555
H15 C19 1_555 1_555
C20 S1 1_555 1_555
C21 C5 1_555 1_555
H16 C21 1_555 1_555
C22 C2 1_555 1_555
H17 C22 1_555 1_555
H18 C22 1_555 1_555
H19 C22 1_555 1_555
C23 C7 1_555 1_555
C24 O2 1_555 1_555
H20 C24 1_555 1_555
H21 C24 1_555 1_555
H22 C24 1_555 1_555
S2 C39 1_555 1_555
O3 C26 1_555 1_555
N6 N7 1_555 1_555
N7 H23 1_555 1_555
N8 C25 1_555 1_555
O4 C46 1_555 1_555
N9 H24 1_555 1_555
H25 N9 1_555 1_555
C25 C35 1_555 1_555
C26 N6 1_555 1_555
C27 H26 1_555 1_555
C28 C26 1_555 1_555
C29 C28 1_555 1_555
C30 C27 1_555 1_555
C31 O3 1_555 1_555
C32 C27 1_555 1_555
C33 N7 1_555 1_555
C34 C36 1_555 1_555
C35 C29 1_555 1_555
C36 C32 1_555 1_555
H27 C36 1_555 1_555
C37 C30 1_555 1_555
H28 C37 1_555 1_555
C38 C33 1_555 1_555
H29 C38 1_555 1_555
H30 C38 1_555 1_555
H31 C38 1_555 1_555
C39 C30 1_555 1_555
C40 C29 1_555 1_555
H32 C40 1_555 1_555
N10 C43 1_555 1_555
C41 S2 1_555 1_555
C42 C39 1_555 1_555
H33 C42 1_555 1_555
C43 C34 1_555 1_555
C44 C41 1_555 1_555
H34 C44 1_555 1_555
C45 C40 1_555 1_555
H35 C45 1_555 1_555
H36 C45 1_555 1_555
H37 C45 1_555 1_555
C46 C41 1_555 1_555
H38 C46 1_555 1_555
H39 C46 1_555 1_555
C47 O4 1_555 1_555
H40 C47 1_555 1_555
H41 C47 1_555 1_555
H42 C47 1_555 1_555
C48 C40 1_555 1_555
H43 C48 1_555 1_555
H44 C48 1_555 1_555
H45 C48 1_555 1_555
C49 H46 1_555 1_555
H47 C49 1_555 1_555
C50 C49 1_555 1_555
H48 C50 1_555 1_555
H49 C50 1_555 1_555
C51 C50 1_555 1_555
H50 C51 1_555 1_555
H51 C51 1_555 1_555
H52 C51 1_555 1_555
C52 H53 1_555 1_555
H54 C52 1_555 1_555
H55 C52 1_555 1_555
C53 C49 1_555 1_555
H56 C53 1_555 1_555
H57 C53 1_555 1_555
C54 C52 1_555 1_555
H58 C54 1_555 1_555
H59 C54 1_555 1_555
N4 C12 1_555 1_555
C3 C6 1_555 1_555
C3 C9 1_555 1_555
C4 C12 1_555 1_555
C7 C21 1_555 1_555
C13 C15 1_555 1_555
C16 C20 1_555 1_555
C17 C20 1_555 1_555
N9 C31 1_555 1_555
C28 C33 1_555 1_555
C29 C32 1_555 1_555
C31 C35 1_555 1_555
C34 C37 1_555 1_555
C42 C44 1_555 1_555
C53 C54 1_555 1_555

#END
