
#######################################################################
#
#                 Cambridge Crystallographic Data Centre
#                                CCDC 
#
#######################################################################
#
# If this CIF has been generated from an entry in the Cambridge 
# Structural Database, then it will include bibliographic, chemical, 
# crystal, experimental, refinement or atomic coordinate data resulting 
# from the CCDC's data processing and validation procedures.
#
#######################################################################

data_SAXQUG
_chemical_formula_moiety         'C33 H40 O4'
_chemical_name_systematic        
9-benzoyl-4,4,8,8-tetramethyl-11-(3-methylbut-2-en-1-yl)-3-(prop-1-en-2-yl)tetracyclo[7.3.1.1^7,11^.0^1,5^]tetradecane-10,12,13-trione
_symmetry_cell_setting           orthorhombic
_symmetry_space_group_name_H-M   'P 21 21 21'
_symmetry_Int_Tables_number      19
_space_group_name_Hall           'P 2ac 2ab'
loop_
_symmetry_equiv_pos_site_id
_symmetry_equiv_pos_as_xyz
1 x,y,z
2 1/2-x,-y,1/2+z
3 -x,1/2+y,1/2-z
4 1/2+x,1/2-y,-z
_cell_length_a                   7.7835(6)
_cell_length_b                   12.1558(8)
_cell_length_c                   28.405(3)
_cell_angle_alpha                90
_cell_angle_beta                 90
_cell_angle_gamma                90
_cell_volume                     2687.53
_exptl_crystal_colour            colorless
_exptl_crystal_description       block
_cell_formula_units_Z            4
loop_
_atom_site_label
_atom_site_type_symbol
_atom_site_fract_x
_atom_site_fract_y
_atom_site_fract_z
O1 O 0.5025(5) 0.8710(3) 0.64200(15)
O2 O 0.3847(6) 0.6002(4) 0.54002(16)
O3 O 0.3287(6) 0.7907(4) 0.75367(15)
O4 O 0.1370(6) 0.6059(3) 0.68566(16)
C1 C 0.4040(7) 0.6168(4) 0.5817(2)
C2 C 0.1549(7) 0.8564(5) 0.6916(2)
C3 C 0.5341(8) 0.7038(4) 0.5969(2)
C4 C 0.2996(8) 0.7866(5) 0.7117(2)
C5 C 0.3024(7) 0.5527(5) 0.6180(2)
C6 C 0.2659(8) 0.6215(5) 0.6620(2)
C7 C 0.1370(8) 0.5028(5) 0.5963(3)
H1 H 0.110728 0.539371 0.566847
H2 H 0.040973 0.513544 0.617597
C8 C 0.6538(8) 0.5770(5) 0.6637(2)
H3 H 0.766897 0.562969 0.677614
C9 C 0.4470(9) 0.8455(5) 0.5353(2)
H4 H 0.350412 0.807717 0.524851
C10 C 0.5901(8) 0.7779(5) 0.5553(2)
H5 H 0.680860 0.826662 0.565840
H6 H 0.636948 0.731776 0.530511
C11 C 0.1071(8) 0.8543(5) 0.6448(2)
H7 H 0.163874 0.808299 0.623804
C12 C -0.1074(9) 0.9923(5) 0.6603(3)
H8 H -0.195743 1.037580 0.649793
C13 C 0.3982(8) 0.4504(5) 0.6381(2)
H9 H 0.340045 0.433874 0.667884
C14 C 0.3950(7) 0.7068(4) 0.6786(2)
C15 C 0.5587(8) 0.6456(5) 0.7016(2)
C16 C 0.4443(9) 0.9563(5) 0.5311(2)
C17 C 0.4719(7) 0.7715(5) 0.6382(2)
C18 C 0.0725(8) 0.9294(5) 0.7222(2)
H10 H 0.106512 0.932789 0.753578
C19 C 0.0247(9) 0.3076(5) 0.6074(3)
C20 C 0.6946(8) 0.6450(5) 0.6185(2)
H11 H 0.743515 0.596282 0.595015
H12 H 0.780500 0.700039 0.626106
C21 C -0.0581(9) 0.9962(5) 0.7066(3)
H13 H -0.112795 1.043891 0.727368
C22 C -0.0269(8) 0.9215(5) 0.6290(2)
H14 H -0.061799 0.918707 0.597748
C23 C 0.3504(9) 0.3533(5) 0.6049(3)
C24 C 0.5864(8) 0.4615(5) 0.6509(2)
H15 H 0.653574 0.434534 0.624520
H16 H 0.608990 0.413197 0.677322
C25 C 0.5022(9) 0.5706(5) 0.7423(2)
H17 H 0.413686 0.521691 0.731543
H18 H 0.458904 0.614763 0.767680
H19 H 0.598769 0.528428 0.753119
C26 C 0.6847(9) 0.7317(6) 0.7211(2)
H20 H 0.776389 0.695238 0.737479
H21 H 0.625210 0.779639 0.742504
H22 H 0.731106 0.774123 0.695619
C27 C 0.5921(10) 1.0273(5) 0.5461(3)
H23 H 0.591832 1.034290 0.579795
H24 H 0.580918 1.098815 0.532104
H25 H 0.697973 0.994287 0.536126
C28 C 0.3757(10) 0.2433(5) 0.6311(3)
H26 H 0.496241 0.228993 0.634765
H27 H 0.324002 0.184874 0.613272
H28 H 0.322476 0.247425 0.661533
C29 C 0.4648(10) 0.3454(5) 0.5599(3)
H29 H 0.453466 0.411685 0.541856
H30 H 0.428746 0.283702 0.541282
H31 H 0.582715 0.335808 0.569008
C30 C 0.2932(11) 1.0150(6) 0.5119(3)
H32 H 0.325666 1.053623 0.483761
H33 H 0.251478 1.066521 0.534772
H34 H 0.204410 0.962862 0.504577
C31 C 0.1649(9) 0.3779(5) 0.5876(3)
H35 H 0.164322 0.366900 0.553393
C32 C -0.0152(12) 0.3175(7) 0.6581(3)
H36 H 0.078396 0.288320 0.676242
H37 H -0.118031 0.277006 0.665043
H38 H -0.031852 0.393549 0.665975
C33 C -0.0593(11) 0.2350(7) 0.5803(3)
H39 H -0.143620 0.190244 0.593388
H40 H -0.033221 0.229462 0.548455
loop_
_geom_bond_atom_site_label_1
_geom_bond_atom_site_label_2
_geom_bond_site_symmetry_1
_geom_bond_site_symmetry_2
O1 C17 1_555 1_555
O2 C1 1_555 1_555
O3 C4 1_555 1_555
O4 C6 1_555 1_555
C1 C3 1_555 1_555
C2 C4 1_555 1_555
C3 C10 1_555 1_555
C4 C14 1_555 1_555
C5 C1 1_555 1_555
C6 C5 1_555 1_555
C7 C5 1_555 1_555
H1 C7 1_555 1_555
H2 C7 1_555 1_555
C8 H3 1_555 1_555
C9 H4 1_555 1_555
C10 C9 1_555 1_555
H5 C10 1_555 1_555
H6 C10 1_555 1_555
C11 C2 1_555 1_555
H7 C11 1_555 1_555
C12 H8 1_555 1_555
C13 C5 1_555 1_555
H9 C13 1_555 1_555
C14 C6 1_555 1_555
C15 C8 1_555 1_555
C16 C9 1_555 1_555
C17 C3 1_555 1_555
C18 C2 1_555 1_555
H10 C18 1_555 1_555
C19 C31 1_555 1_555
C20 C3 1_555 1_555
H11 C20 1_555 1_555
H12 C20 1_555 1_555
C21 C12 1_555 1_555
H13 C21 1_555 1_555
C22 C11 1_555 1_555
H14 C22 1_555 1_555
C23 C13 1_555 1_555
C24 C8 1_555 1_555
H15 C24 1_555 1_555
H16 C24 1_555 1_555
C25 C15 1_555 1_555
H17 C25 1_555 1_555
H18 C25 1_555 1_555
H19 C25 1_555 1_555
C26 C15 1_555 1_555
H20 C26 1_555 1_555
H21 C26 1_555 1_555
H22 C26 1_555 1_555
C27 C16 1_555 1_555
H23 C27 1_555 1_555
H24 C27 1_555 1_555
H25 C27 1_555 1_555
C28 C23 1_555 1_555
H26 C28 1_555 1_555
H27 C28 1_555 1_555
H28 C28 1_555 1_555
C29 C23 1_555 1_555
H29 C29 1_555 1_555
H30 C29 1_555 1_555
H31 C29 1_555 1_555
C30 C16 1_555 1_555
H32 C30 1_555 1_555
H33 C30 1_555 1_555
H34 C30 1_555 1_555
C31 C7 1_555 1_555
H35 C31 1_555 1_555
C32 C19 1_555 1_555
H36 C32 1_555 1_555
H37 C32 1_555 1_555
H38 C32 1_555 1_555
C33 C19 1_555 1_555
H39 C33 1_555 1_555
H40 C33 1_555 1_555
C8 C20 1_555 1_555
C12 C22 1_555 1_555
C13 C24 1_555 1_555
C14 C15 1_555 1_555
C14 C17 1_555 1_555
C18 C21 1_555 1_555
C23 C31 1_555 1_555

#END
