
#######################################################################
#
#                 Cambridge Crystallographic Data Centre
#                                CCDC 
#
#######################################################################
#
# If this CIF has been generated from an entry in the Cambridge 
# Structural Database, then it will include bibliographic, chemical, 
# crystal, experimental, refinement or atomic coordinate data resulting 
# from the CCDC's data processing and validation procedures.
#
#######################################################################

data_SAYHUW
_chemical_compound_source        'soft coral Paralemnalia thyrsoides'
_chemical_formula_moiety         'C14 H19 Cl1 O2'
_chemical_name_systematic        'paralemnolin A'
_chemical_properties_biological  
'not active against a number of cancer cell lines'
_symmetry_cell_setting           orthorhombic
_symmetry_space_group_name_H-M   'P 21 21 21'
_symmetry_Int_Tables_number      19
_space_group_name_Hall           'P 2ac 2ab'
loop_
_symmetry_equiv_pos_site_id
_symmetry_equiv_pos_as_xyz
1 x,y,z
2 1/2-x,-y,1/2+z
3 -x,1/2+y,1/2-z
4 1/2+x,1/2-y,-z
_cell_length_a                   12.1264(7)
_cell_length_b                   15.3996(9)
_cell_length_c                   7.0347(4)
_cell_angle_alpha                90
_cell_angle_beta                 90
_cell_angle_gamma                90
_cell_volume                     1313.67
_cell_formula_units_Z            4
loop_
_atom_site_label
_atom_site_type_symbol
_atom_site_fract_x
_atom_site_fract_y
_atom_site_fract_z
Cl1 Cl 0.34353(6) 0.82166(4) 1.12349(9)
O1 O 0.39723(9) 1.01476(7) 0.7581(2)
O2 O 0.73880(11) 1.05003(12) 0.8422(3)
C1 C 0.32676(14) 0.89529(12) 0.9260(3)
H1 H 0.2683 0.9367 0.9586
C2 C 0.28945(14) 0.84417(13) 0.7534(4)
H2 H 0.2625 0.8841 0.6574
H3 H 0.2289 0.8064 0.7893
C3 C 0.38177(14) 0.78981(11) 0.6697(3)
H4 H 0.3542 0.7580 0.5606
H5 H 0.4066 0.7480 0.7635
C4 C 0.47926(13) 0.84665(10) 0.6083(3)
H6 H 0.4508 0.8887 0.5159
C5 C 0.52610(11) 0.89978(9) 0.7786(2)
C6 C 0.58286(12) 0.98233(9) 0.6992(3)
H7 H 0.6305 0.9699 0.5900
C7 C 0.64306(14) 1.02920(11) 0.8571(3)
C8 C 0.57500(16) 1.05237(12) 1.0281(3)
H8 H 0.5471 1.1109 1.0115
H9 H 0.6227 1.0527 1.1388
C9 C 0.47673(15) 0.99168(12) 1.0687(3)
H10 H 0.4994 0.9478 1.1596
H11 H 0.4177 1.0252 1.1259
C10 C 0.43304(12) 0.94684(10) 0.8901(3)
C11 C 0.56717(17) 0.79278(12) 0.5062(3)
H12 H 0.5894 0.7453 0.5861
H13 H 0.6299 0.8287 0.4789
H14 H 0.5374 0.7705 0.3896
C12 C 0.60361(15) 0.84600(11) 0.9030(3)
H15 H 0.6677 0.8301 0.8308
H16 H 0.5663 0.7945 0.9448
H17 H 0.6256 0.8796 1.0115
C13 C 0.48483(14) 1.03802(10) 0.6473(3)
C14 C 0.4796(2) 1.10149(12) 0.5235(3)
H18 H 0.4144 1.1326 0.5086
H19 H 0.5411 1.1154 0.4505
loop_
_geom_bond_atom_site_label_1
_geom_bond_atom_site_label_2
_geom_bond_site_symmetry_1
_geom_bond_site_symmetry_2
Cl1 C1 1_555 1_555
O1 C10 1_555 1_555
O2 C7 1_555 1_555
C1 H1 1_555 1_555
C2 C1 1_555 1_555
H2 C2 1_555 1_555
H3 C2 1_555 1_555
C3 C2 1_555 1_555
H4 C3 1_555 1_555
H5 C3 1_555 1_555
C4 C3 1_555 1_555
H6 C4 1_555 1_555
C5 C4 1_555 1_555
C6 C5 1_555 1_555
H7 C6 1_555 1_555
C7 C6 1_555 1_555
C8 C7 1_555 1_555
H8 C8 1_555 1_555
H9 C8 1_555 1_555
C9 C8 1_555 1_555
H10 C9 1_555 1_555
H11 C9 1_555 1_555
C10 C1 1_555 1_555
C11 C4 1_555 1_555
H12 C11 1_555 1_555
H13 C11 1_555 1_555
H14 C11 1_555 1_555
C12 C5 1_555 1_555
H15 C12 1_555 1_555
H16 C12 1_555 1_555
H17 C12 1_555 1_555
C13 O1 1_555 1_555
C14 C13 1_555 1_555
H18 C14 1_555 1_555
H19 C14 1_555 1_555
C5 C10 1_555 1_555
C6 C13 1_555 1_555
C9 C10 1_555 1_555

#END
