
#######################################################################
#
#                 Cambridge Crystallographic Data Centre
#                                CCDC 
#
#######################################################################
#
# If this CIF has been generated from an entry in the Cambridge 
# Structural Database, then it will include bibliographic, chemical, 
# crystal, experimental, refinement or atomic coordinate data resulting 
# from the CCDC's data processing and validation procedures.
#
#######################################################################

data_SAYHUY
_chemical_formula_moiety         'C25 H30 N2 S2'
_chemical_name_systematic        
'[(phenylmethylene)bis(thiene-5,2-diyl)]bis(N-t-butylmethanimine)'
_symmetry_cell_setting           monoclinic
_symmetry_space_group_name_H-M   'P 21/n'
_symmetry_Int_Tables_number      14
_space_group_name_Hall           '-P 2yn'
loop_
_symmetry_equiv_pos_site_id
_symmetry_equiv_pos_as_xyz
1 x,y,z
2 1/2-x,1/2+y,1/2-z
3 -x,-y,-z
4 1/2+x,1/2-y,1/2+z
_cell_length_a                   14.1650(4)
_cell_length_b                   5.96736(15)
_cell_length_c                   27.6601(7)
_cell_angle_alpha                90
_cell_angle_beta                 96.238(2)
_cell_angle_gamma                90
_cell_volume                     2324.2
_exptl_crystal_colour            yellow
_exptl_crystal_description       plate
_cell_formula_units_Z            4
loop_
_atom_site_label
_atom_site_type_symbol
_atom_site_fract_x
_atom_site_fract_y
_atom_site_fract_z
S1 S 0.42850(4) 0.55978(11) 0.35983(2)
S2 S 0.23959(5) 0.79976(10) 0.47450(2)
N1 N 0.12089(16) 0.7361(4) 0.55796(8)
N2 N 0.55646(15) 0.1956(4) 0.32787(7)
C1 C 0.26886(17) 0.9058(4) 0.35499(8)
C2 C 0.20491(17) 0.9979(4) 0.51435(9)
C3 C 0.41455(17) 0.7469(4) 0.40587(8)
C4 C 0.34431(16) 0.9385(4) 0.39852(8)
H1 H 0.3821 1.0727 0.3906
C5 C 0.20935(18) 0.7192(4) 0.35095(9)
H2 H 0.2165 0.6067 0.3754
C6 C 0.29978(17) 0.9981(4) 0.44391(8)
C7 C 0.29325(19) 1.2022(4) 0.46415(9)
H3 H 0.3225 1.3322 0.4527
C8 C 0.52297(18) 0.4295(4) 0.39316(9)
C9 C 0.14292(18) 0.9378(4) 0.55073(9)
H4 H 0.1183 1.0527 0.5696
C10 C 0.61744(19) 0.0364(4) 0.30483(10)
C11 C 0.54084(19) 0.5268(5) 0.43798(9)
H5 H 0.5893 0.4773 0.4620
C12 C 0.57569(18) 0.2548(4) 0.37174(9)
H6 H 0.6262 0.1825 0.3912
C13 C 0.2559(2) 1.0678(4) 0.31886(9)
H7 H 0.2953 1.1970 0.3208
C14 C 0.2386(2) 1.2042(4) 0.50409(10)
H8 H 0.2267 1.3357 0.5218
C15 C 0.14109(19) 0.6951(5) 0.31263(10)
H9 H 0.1019 0.5654 0.3105
C16 C 0.12823(19) 0.8562(5) 0.27702(9)
H10 H 0.0801 0.8394 0.2506
C17 C 0.47955(19) 0.7090(5) 0.44482(9)
H11 H 0.4835 0.7958 0.4738
C18 C 0.0549(2) 0.6765(5) 0.59436(10)
C19 C 0.1865(2) 1.0435(5) 0.28020(10)
H12 H 0.1785 1.1555 0.2557
C20 C 0.5529(2) -0.1186(5) 0.27227(10)
H13 H 0.5167 -0.2139 0.2924
H14 H 0.5916 -0.2128 0.2531
H15 H 0.5090 -0.0288 0.2503
C21 C 0.6739(2) 0.1823(5) 0.27223(12)
H16 H 0.6298 0.2676 0.2495
H17 H 0.7134 0.0860 0.2539
H18 H 0.7146 0.2861 0.2925
C22 C 0.6828(2) -0.1043(6) 0.33998(11)
H19 H 0.7297 -0.0069 0.3582
H20 H 0.7156 -0.2153 0.3217
H21 H 0.6453 -0.1813 0.3627
C23 C 0.1114(2) 0.5288(5) 0.63140(11)
H22 H 0.1417 0.4083 0.6146
H23 H 0.0688 0.4638 0.6533
H24 H 0.1603 0.6187 0.6503
C24 C -0.0218(2) 0.5339(7) 0.56680(12)
H25 H -0.0631 0.6293 0.5448
H26 H -0.0595 0.4607 0.5899
H27 H 0.0078 0.4197 0.5479
C25 C 0.0138(3) 0.8731(6) 0.61921(16)
H28 H 0.0648 0.9528 0.6390
H29 H -0.0329 0.8192 0.6402
H30 H -0.0173 0.9751 0.5946
loop_
_geom_bond_atom_site_label_1
_geom_bond_atom_site_label_2
_geom_bond_site_symmetry_1
_geom_bond_site_symmetry_2
S1 C3 1_555 1_555
S2 C2 1_555 1_555
N1 C9 1_555 1_555
N2 C10 1_555 1_555
C1 C4 1_555 1_555
C2 C9 1_555 1_555
C3 C4 1_555 1_555
C4 H1 1_555 1_555
C5 C1 1_555 1_555
H2 C5 1_555 1_555
C6 S2 1_555 1_555
C7 C6 1_555 1_555
H3 C7 1_555 1_555
C8 S1 1_555 1_555
C9 H4 1_555 1_555
C10 C20 1_555 1_555
C11 C8 1_555 1_555
H5 C11 1_555 1_555
C12 N2 1_555 1_555
H6 C12 1_555 1_555
C13 C1 1_555 1_555
H7 C13 1_555 1_555
C14 C2 1_555 1_555
H8 C14 1_555 1_555
C15 C5 1_555 1_555
H9 C15 1_555 1_555
C16 C15 1_555 1_555
H10 C16 1_555 1_555
C17 C3 1_555 1_555
H11 C17 1_555 1_555
C18 N1 1_555 1_555
C19 C13 1_555 1_555
H12 C19 1_555 1_555
C20 H13 1_555 1_555
H14 C20 1_555 1_555
H15 C20 1_555 1_555
C21 C10 1_555 1_555
H16 C21 1_555 1_555
H17 C21 1_555 1_555
H18 C21 1_555 1_555
C22 C10 1_555 1_555
H19 C22 1_555 1_555
H20 C22 1_555 1_555
H21 C22 1_555 1_555
C23 C18 1_555 1_555
H22 C23 1_555 1_555
H23 C23 1_555 1_555
H24 C23 1_555 1_555
C24 C18 1_555 1_555
H25 C24 1_555 1_555
H26 C24 1_555 1_555
H27 C24 1_555 1_555
C25 C18 1_555 1_555
H28 C25 1_555 1_555
H29 C25 1_555 1_555
H30 C25 1_555 1_555
C4 C6 1_555 1_555
C7 C14 1_555 1_555
C8 C12 1_555 1_555
C11 C17 1_555 1_555
C16 C19 1_555 1_555

#END
