
#######################################################################
#
#                 Cambridge Crystallographic Data Centre
#                                CCDC 
#
#######################################################################
#
# If this CIF has been generated from an entry in the Cambridge 
# Structural Database, then it will include bibliographic, chemical, 
# crystal, experimental, refinement or atomic coordinate data resulting 
# from the CCDC's data processing and validation procedures.
#
#######################################################################

data_SAYJAG
_chemical_formula_moiety         'C58 H74 K2 N4 O2 S4,2(C6 H6)'
_chemical_name_systematic        
'bis(\m-N-({5-[{5-[(t-butylimino)methyl]thiophen-2-yl}(phenyl)methylidene]thiophen-2(5H)-ylidene}methyl)-2-methylpropan-2-amino)-bis(\m-tetrahydrofuran)-di-potassium benzene solvate'
_symmetry_cell_setting           orthorhombic
_symmetry_space_group_name_H-M   'P b c a'
_symmetry_Int_Tables_number      61
_space_group_name_Hall           '-P 2ac 2ab'
loop_
_symmetry_equiv_pos_site_id
_symmetry_equiv_pos_as_xyz
1 x,y,z
2 1/2-x,-y,1/2+z
3 -x,1/2+y,1/2-z
4 1/2+x,1/2-y,-z
5 -x,-y,-z
6 1/2+x,y,1/2-z
7 x,1/2-y,1/2+z
8 1/2-x,1/2+y,z
_cell_length_a                   15.8437(2)
_cell_length_b                   18.2093(3)
_cell_length_c                   22.8804(4)
_cell_angle_alpha                90
_cell_angle_beta                 90
_cell_angle_gamma                90
_cell_volume                     6601.06
_exptl_crystal_colour            brown
_exptl_crystal_description       prism
_cell_formula_units_Z            4
loop_
_atom_site_label
_atom_site_type_symbol
_atom_site_fract_x
_atom_site_fract_y
_atom_site_fract_z
K1 K 0.41820(2) 0.51448(2) 0.56351(2)
S1 S 0.28312(2) 0.48816(2) 0.45306(2)
S2 S 0.40683(2) 0.46427(2) 0.35465(2)
O1 O 0.49023(5) 0.39429(4) 0.51038(4)
N1 N 0.27034(6) 0.59983(5) 0.55316(4)
N2 N 0.57769(6) 0.53371(5) 0.31794(4)
C1 C 0.26917(7) 0.37009(6) 0.37502(5)
C2 C 0.22150(7) 0.30401(6) 0.35476(4)
C3 C 0.33991(7) 0.38881(6) 0.34101(5)
C4 C 0.23952(7) 0.40622(6) 0.42533(5)
C5 C 0.20976(7) 0.49256(6) 0.51009(5)
C6 C 0.20992(7) 0.55249(6) 0.55042(5)
H1 H 0.1645 0.5576 0.5758
C7 C 0.54773(7) 0.48361(6) 0.28398(5)
H2 H 0.5764 0.4737 0.2494
C8 C 0.36987(8) 0.35145(6) 0.29116(5)
H3 H 0.3432 0.3103 0.2757
C9 C 0.47333(7) 0.44252(6) 0.29626(5)
C10 C 0.17074(7) 0.38577(6) 0.46099(5)
H4 H 0.1385 0.3439 0.4541
C11 C 0.65240(7) 0.57602(6) 0.29817(5)
C12 C 0.15521(7) 0.43338(6) 0.50715(5)
H5 H 0.1118 0.4261 0.5339
C13 C 0.13775(8) 0.17891(6) 0.31209(5)
H6 H 0.1100 0.1375 0.2980
C14 C 0.11573(8) 0.24817(7) 0.29195(5)
H7 H 0.0731 0.2533 0.2643
C15 C 0.54382(8) 0.36370(6) 0.55580(5)
H8 H 0.5409 0.3934 0.5910
H9 H 0.6020 0.3616 0.5428
C16 C 0.24242(7) 0.23368(6) 0.37454(5)
H10 H 0.2846 0.2282 0.4024
C17 C 0.44266(8) 0.38141(6) 0.26717(5)
H11 H 0.4687 0.3620 0.2342
C18 C 0.20122(8) 0.17185(6) 0.35327(5)
H12 H 0.2164 0.1255 0.3668
C19 C 0.26400(8) 0.66436(6) 0.59203(5)
C20 C 0.15734(8) 0.31021(6) 0.31314(5)
H13 H 0.1422 0.3564 0.2994
C21 C 0.51009(8) 0.28710(6) 0.56732(5)
H14 H 0.4646 0.2879 0.5957
H15 H 0.5543 0.2545 0.5810
C22 C 0.47851(8) 0.26472(6) 0.50700(5)
H16 H 0.5245 0.2486 0.4822
H17 H 0.4367 0.2260 0.5096
C23 C 0.43999(9) 0.33562(7) 0.48488(6)
H18 H 0.4423 0.3377 0.4425
H19 H 0.3816 0.3396 0.4971
C24 C 0.70120(8) 0.59633(7) 0.35323(5)
H20 H 0.6641 0.6205 0.3802
H21 H 0.7468 0.6286 0.3432
H22 H 0.7234 0.5526 0.3709
C25 C 0.71071(8) 0.53467(7) 0.25612(6)
H23 H 0.7235 0.4871 0.2720
H24 H 0.7620 0.5619 0.2510
H25 H 0.6831 0.5290 0.2190
C26 C 0.18566(10) 0.66677(7) 0.63084(6)
H26 H 0.1360 0.6681 0.6068
H27 H 0.1875 0.7099 0.6550
H28 H 0.1842 0.6238 0.6552
C27 C 0.34316(10) 0.66502(7) 0.63038(6)
H29 H 0.3446 0.6213 0.6538
H30 H 0.3421 0.7073 0.6554
H31 H 0.3924 0.6668 0.6060
C28 C 0.62028(9) 0.64619(7) 0.26886(6)
H32 H 0.5902 0.6337 0.2338
H33 H 0.6673 0.6772 0.2593
H34 H 0.5832 0.6717 0.2951
C29 C 0.26536(10) 0.73164(7) 0.55177(6)
H35 H 0.3145 0.7297 0.5272
H36 H 0.2669 0.7755 0.5750
H37 H 0.2156 0.7318 0.5279
K1D K 0.58180(2) 0.48552(2) 0.43649(2)
S1D S 0.71688(2) 0.51184(2) 0.54694(2)
S2D S 0.59317(2) 0.53573(2) 0.64535(2)
O1D O 0.50977(5) 0.60571(4) 0.48962(4)
N1D N 0.72966(6) 0.40017(5) 0.44684(4)
N2D N 0.42231(6) 0.46629(5) 0.68206(4)
C1D C 0.73083(7) 0.62991(6) 0.62498(5)
C2D C 0.77850(7) 0.69599(6) 0.64524(4)
C3D C 0.66009(7) 0.61119(6) 0.65899(5)
C4D C 0.76048(7) 0.59378(6) 0.57467(5)
C5D C 0.79024(7) 0.50744(6) 0.48991(5)
C6D C 0.79008(7) 0.44751(6) 0.44958(5)
H1D H 0.8355 0.4424 0.4242
C7D C 0.45227(7) 0.51639(6) 0.71602(5)
H2D H 0.4236 0.5263 0.7506
C8D C 0.63013(8) 0.64855(6) 0.70884(5)
H3D H 0.6568 0.6897 0.7243
C9D C 0.52667(7) 0.55748(6) 0.70374(5)
C10D C 0.82926(7) 0.61423(6) 0.53901(5)
H4D H 0.8615 0.6561 0.5459
C11D C 0.34760(7) 0.42398(6) 0.70183(5)
C12D C 0.84479(7) 0.56662(6) 0.49285(5)
H5D H 0.8882 0.5739 0.4661
C13D C 0.86225(8) 0.82109(6) 0.68791(5)
H6D H 0.8900 0.8625 0.7020
C14D C 0.88427(8) 0.75183(7) 0.70805(5)
H7D H 0.9269 0.7467 0.7357
C15D C 0.45618(8) 0.63630(6) 0.44420(5)
H8D H 0.4591 0.6066 0.4090
H9D H 0.3980 0.6384 0.4572
C16D C 0.75758(7) 0.76632(6) 0.62546(5)
H10D H 0.7154 0.7718 0.5976
C17D C 0.55734(8) 0.61859(6) 0.73283(5)
H11D H 0.5313 0.6380 0.7658
C18D C 0.79878(8) 0.82815(6) 0.64673(5)
H12D H 0.7836 0.8745 0.6332
C19D C 0.73600(8) 0.33564(6) 0.40797(5)
C20D C 0.84266(8) 0.68979(6) 0.68686(5)
H13D H 0.8578 0.6436 0.7006
C21D C 0.48991(8) 0.71290(6) 0.43268(5)
H14D H 0.5354 0.7121 0.4043
H15D H 0.4457 0.7455 0.4190
C22D C 0.52149(8) 0.73528(6) 0.49300(5)
H16D H 0.4755 0.7514 0.5178
H17D H 0.5633 0.7740 0.4904
C23D C 0.56001(9) 0.66438(7) 0.51512(6)
H18D H 0.5577 0.6623 0.5575
H19D H 0.6184 0.6604 0.5029
C24D C 0.29880(8) 0.40367(7) 0.64677(5)
H20D H 0.3359 0.3795 0.6198
H21D H 0.2532 0.3714 0.6568
H22D H 0.2766 0.4474 0.6291
C25D C 0.28929(8) 0.46533(7) 0.74388(6)
H23D H 0.2765 0.5129 0.7280
H24D H 0.2380 0.4381 0.7490
H25D H 0.3169 0.4710 0.7810
C26D C 0.81434(10) 0.33323(7) 0.36916(6)
H26D H 0.8640 0.3319 0.3932
H27D H 0.8125 0.2901 0.3450
H28D H 0.8158 0.3762 0.3448
C27D C 0.65684(10) 0.33498(7) 0.36962(6)
H29D H 0.6554 0.3787 0.3462
H30D H 0.6579 0.2927 0.3446
H31D H 0.6076 0.3332 0.3940
C28D C 0.37972(9) 0.35381(7) 0.73114(6)
H32D H 0.4098 0.3663 0.7662
H33D H 0.3327 0.3228 0.7407
H34D H 0.4168 0.3283 0.7049
C29D C 0.73464(10) 0.26836(7) 0.44823(6)
H35D H 0.6855 0.2703 0.4728
H36D H 0.7331 0.2245 0.4250
H37D H 0.7844 0.2682 0.4721
C30 C 0.49322(10) 0.50765(8) 0.13730(6)
H38 H 0.4897 0.4569 0.1408
C31 C 0.43462(9) 0.55135(9) 0.16455(6)
H39 H 0.3916 0.5302 0.1864
C32 C 0.55740(9) 0.53860(9) 0.10465(6)
H40 H 0.5970 0.5088 0.0863
C33 C 0.43969(10) 0.62684(9) 0.15941(6)
H41 H 0.3999 0.6566 0.1777
C34 C 0.56247(10) 0.61367(9) 0.09947(6)
H42 H 0.6054 0.6347 0.0774
C35 C 0.50400(11) 0.65799(8) 0.12701(6)
H43 H 0.5079 0.7088 0.1238
loop_
_geom_bond_atom_site_label_1
_geom_bond_atom_site_label_2
_geom_bond_site_symmetry_1
_geom_bond_site_symmetry_2
K1 S1 1_555 1_555
S1 C4 1_555 1_555
S2 C3 1_555 1_555
O1 K1 1_555 1_555
N1 K1 1_555 1_555
N2 C7 1_555 1_555
C1 C2 1_555 1_555
C2 C16 1_555 1_555
C3 C1 1_555 1_555
C4 C1 1_555 1_555
C5 S1 1_555 1_555
C6 N1 1_555 1_555
H1 C6 1_555 1_555
C7 H2 1_555 1_555
C8 C3 1_555 1_555
H3 C8 1_555 1_555
C9 S2 1_555 1_555
C10 C4 1_555 1_555
H4 C10 1_555 1_555
C11 N2 1_555 1_555
C12 C5 1_555 1_555
H5 C12 1_555 1_555
C13 H6 1_555 1_555
C14 C13 1_555 1_555
H7 C14 1_555 1_555
C15 O1 1_555 1_555
H8 C15 1_555 1_555
H9 C15 1_555 1_555
C16 H10 1_555 1_555
C17 C8 1_555 1_555
H11 C17 1_555 1_555
C18 C13 1_555 1_555
H12 C18 1_555 1_555
C19 N1 1_555 1_555
C20 C2 1_555 1_555
H13 C20 1_555 1_555
C21 C15 1_555 1_555
H14 C21 1_555 1_555
H15 C21 1_555 1_555
C22 C21 1_555 1_555
H16 C22 1_555 1_555
H17 C22 1_555 1_555
C23 O1 1_555 1_555
H18 C23 1_555 1_555
H19 C23 1_555 1_555
C24 C11 1_555 1_555
H20 C24 1_555 1_555
H21 C24 1_555 1_555
H22 C24 1_555 1_555
C25 C11 1_555 1_555
H23 C25 1_555 1_555
H24 C25 1_555 1_555
H25 C25 1_555 1_555
C26 C19 1_555 1_555
H26 C26 1_555 1_555
H27 C26 1_555 1_555
H28 C26 1_555 1_555
C27 C19 1_555 1_555
H29 C27 1_555 1_555
H30 C27 1_555 1_555
H31 C27 1_555 1_555
C28 C11 1_555 1_555
H32 C28 1_555 1_555
H33 C28 1_555 1_555
H34 C28 1_555 1_555
C29 C19 1_555 1_555
H35 C29 1_555 1_555
H36 C29 1_555 1_555
H37 C29 1_555 1_555
C30 H38 1_555 1_555
C31 C30 1_555 1_555
H39 C31 1_555 1_555
C32 C30 1_555 1_555
H40 C32 1_555 1_555
C33 C31 1_555 1_555
H41 C33 1_555 1_555
C34 C32 1_555 1_555
H42 C34 1_555 1_555
C35 C33 1_555 1_555
H43 C35 1_555 1_555
K1D S2 1_555 1_555
S1D K1D 1_555 1_555
S2D K1 1_555 1_555
O1D K1 1_555 1_555
N1D K1D 1_555 1_555
N2D K1 1_555 1_555
C1D C2D 1_555 1_555
C2D C16D 1_555 1_555
C3D S2D 1_555 1_555
C4D S1D 1_555 1_555
C5D S1D 1_555 1_555
C6D N1D 1_555 1_555
H1D C6D 1_555 1_555
C7D N2D 1_555 1_555
H2D C7D 1_555 1_555
C8D C3D 1_555 1_555
H3D C8D 1_555 1_555
C9D S2D 1_555 1_555
C10D C4D 1_555 1_555
H4D C10D 1_555 1_555
C11D N2D 1_555 1_555
C12D C5D 1_555 1_555
H5D C12D 1_555 1_555
C13D H6D 1_555 1_555
C14D C13D 1_555 1_555
H7D C14D 1_555 1_555
C15D O1D 1_555 1_555
H8D C15D 1_555 1_555
H9D C15D 1_555 1_555
C16D H10D 1_555 1_555
C17D C8D 1_555 1_555
H11D C17D 1_555 1_555
C18D C13D 1_555 1_555
H12D C18D 1_555 1_555
C19D N1D 1_555 1_555
C20D C2D 1_555 1_555
H13D C20D 1_555 1_555
C21D C15D 1_555 1_555
H14D C21D 1_555 1_555
H15D C21D 1_555 1_555
C22D C21D 1_555 1_555
H16D C22D 1_555 1_555
H17D C22D 1_555 1_555
C23D O1D 1_555 1_555
H18D C23D 1_555 1_555
H19D C23D 1_555 1_555
C24D C11D 1_555 1_555
H20D C24D 1_555 1_555
H21D C24D 1_555 1_555
H22D C24D 1_555 1_555
C25D C11D 1_555 1_555
H23D C25D 1_555 1_555
H24D C25D 1_555 1_555
H25D C25D 1_555 1_555
C26D C19D 1_555 1_555
H26D C26D 1_555 1_555
H27D C26D 1_555 1_555
H28D C26D 1_555 1_555
C27D C19D 1_555 1_555
H29D C27D 1_555 1_555
H30D C27D 1_555 1_555
H31D C27D 1_555 1_555
C28D C11D 1_555 1_555
H32D C28D 1_555 1_555
H33D C28D 1_555 1_555
H34D C28D 1_555 1_555
C29D C19D 1_555 1_555
H35D C29D 1_555 1_555
H36D C29D 1_555 1_555
H37D C29D 1_555 1_555
O1 K1D 1_555 1_555
N2 K1D 1_555 1_555
C5 C6 1_555 1_555
C7 C9 1_555 1_555
C9 C17 1_555 1_555
C10 C12 1_555 1_555
C14 C20 1_555 1_555
C16 C18 1_555 1_555
C22 C23 1_555 1_555
C34 C35 1_555 1_555
K1D O1D 1_555 1_555
C1D C3D 1_555 1_555
C1D C4D 1_555 1_555
C5D C6D 1_555 1_555
C7D C9D 1_555 1_555
C9D C17D 1_555 1_555
C10D C12D 1_555 1_555
C14D C20D 1_555 1_555
C16D C18D 1_555 1_555
C22D C23D 1_555 1_555

#END
