
#######################################################################
#
#                 Cambridge Crystallographic Data Centre
#                                CCDC 
#
#######################################################################
#
# If this CIF has been generated from an entry in the Cambridge 
# Structural Database, then it will include bibliographic, chemical, 
# crystal, experimental, refinement or atomic coordinate data resulting 
# from the CCDC's data processing and validation procedures.
#
#######################################################################

data_SAYJUA
_chemical_formula_moiety         'C29 H32 F5 K1 N4 O1'
_chemical_name_systematic        
(2-[(t-butylimino)methyl]-5-[{5-[(t-butylimino)methyl]-2H-pyrrol-2-ylidene}(pentafluorophenyl)methyl]pyrrol-1-yl)-(tetrahydrofuran)-potassium
_symmetry_cell_setting           monoclinic
_symmetry_space_group_name_H-M   'P 21/n'
_symmetry_Int_Tables_number      14
_space_group_name_Hall           '-P 2yn'
loop_
_symmetry_equiv_pos_site_id
_symmetry_equiv_pos_as_xyz
1 x,y,z
2 1/2-x,1/2+y,1/2-z
3 -x,-y,-z
4 1/2+x,1/2-y,1/2+z
_cell_length_a                   11.8073(4)
_cell_length_b                   10.3062(4)
_cell_length_c                   24.1283(9)
_cell_angle_alpha                90
_cell_angle_beta                 99.897(3)
_cell_angle_gamma                90
_cell_volume                     2892.44
_exptl_crystal_colour            'metallic dark yellow'
_exptl_crystal_description       rhombohedral
_cell_formula_units_Z            4
loop_
_atom_site_label
_atom_site_type_symbol
_atom_site_fract_x
_atom_site_fract_y
_atom_site_fract_z
K1 K 0.08991(3) 0.47380(4) 0.33110(2)
F1 F 0.44106(11) 0.85387(12) 0.44150(5)
F2 F 0.63327(10) 0.57426(13) 0.33443(5)
F3 F 0.64109(14) 0.97128(13) 0.48144(6)
F4 F 0.83317(11) 0.68989(17) 0.37589(6)
F5 F 0.83869(12) 0.88854(17) 0.45005(6)
N1 N 0.23164(12) 0.66466(14) 0.30447(6)
O1 O 0.09707(14) 0.53825(15) 0.44285(6)
N2 N 0.31480(12) 0.43634(14) 0.37234(6)
N3 N 0.00180(12) 0.65282(15) 0.24320(6)
N4 N 0.15787(13) 0.22388(15) 0.37028(6)
C1 C 0.18636(15) 0.75464(17) 0.26780(7)
C2 C 0.06990(15) 0.74393(17) 0.23568(7)
H1 H 0.0441 0.8079 0.2080
C3 C 0.33956(15) 0.32671(18) 0.40124(7)
C4 C 0.41900(15) 0.64115(18) 0.36611(7)
C5 C 0.35939(16) 0.83301(18) 0.30221(8)
H2 H 0.4266 0.8850 0.3106
C6 C 0.26300(16) 0.86122(18) 0.26500(8)
C7 C 0.40799(15) 0.51696(18) 0.38865(7)
C8 C 0.53001(15) 0.70913(18) 0.38697(7)
C9 C 0.26112(16) 0.21609(18) 0.39545(8)
H3 H 0.2885 0.1351 0.4112
C10 C 0.34040(15) 0.70919(17) 0.32654(7)
C11 C 0.44828(16) 0.33328(19) 0.43743(8)
H4 H 0.4837 0.2672 0.4619
C12 C 0.53647(17) 0.81179(19) 0.42433(8)
C13 C 0.49103(16) 0.45304(19) 0.42993(7)
H5 H 0.5621 0.4877 0.4484
C14 C -0.11566(16) 0.65021(19) 0.20926(8)
C15 C 0.63262(17) 0.6717(2) 0.37135(8)
C16 C 0.08059(17) 0.11049(19) 0.36465(8)
C17 C 0.6385(2) 0.8721(2) 0.44546(8)
C18 C 0.73568(17) 0.7306(2) 0.39197(9)
C19 C 0.73801(19) 0.8310(2) 0.42943(9)
C20 C 0.0353(2) 0.0969(2) 0.30157(9)
H6 H -0.0038 0.1772 0.2874
H7 H -0.0190 0.0243 0.2952
H8 H 0.0997 0.0805 0.2818
C21 C 0.1549(2) 0.4756(2) 0.49233(9)
H9 H 0.2269 0.4346 0.4853
H10 H 0.1054 0.4080 0.5049
C22 C -0.0182(2) 0.1463(2) 0.39520(11)
H11 H 0.0113 0.1563 0.4355
H12 H -0.0763 0.0775 0.3896
H13 H -0.0528 0.2282 0.3801
C23 C 0.1349(2) -0.0168(2) 0.38772(10)
H14 H 0.2014 -0.0362 0.3698
H15 H 0.0784 -0.0869 0.3797
H16 H 0.1599 -0.0093 0.4285
C24 C -0.17015(19) 0.5240(2) 0.22425(11)
H17 H -0.1239 0.4505 0.2152
H18 H -0.2481 0.5170 0.2026
H19 H -0.1735 0.5232 0.2646
C25 C 0.1804(2) 0.5805(2) 0.53578(10)
H20 H 0.2470 0.5575 0.5650
H21 H 0.1130 0.5987 0.5539
C26 C -0.1113(2) 0.6508(3) 0.14666(9)
H22 H -0.0850 0.7359 0.1359
H23 H -0.1882 0.6333 0.1254
H24 H -0.0579 0.5837 0.1383
C27 C 0.1312(2) 0.6714(2) 0.44500(11)
H25 H 0.0628 0.7283 0.4413
H26 H 0.1733 0.6911 0.4139
C28 C -0.1843(2) 0.7641(2) 0.22523(12)
H27 H -0.1807 0.7652 0.2661
H28 H -0.2645 0.7557 0.2066
H29 H -0.1521 0.8450 0.2133
C29 C 0.2075(3) 0.6934(3) 0.50074(12)
H30 H 0.1893 0.7769 0.5176
H31 H 0.2896 0.6933 0.4968
H32 H 0.2468(18) 0.933(2) 0.2411(9)
loop_
_geom_bond_atom_site_label_1
_geom_bond_atom_site_label_2
_geom_bond_site_symmetry_1
_geom_bond_site_symmetry_2
K1 N1 1_555 1_555
F1 C12 1_555 1_555
F2 C15 1_555 1_555
F3 C17 1_555 1_555
F4 C18 1_555 1_555
F5 C19 1_555 1_555
N1 C1 1_555 1_555
O1 K1 1_555 1_555
N2 K1 1_555 1_555
N3 K1 1_555 1_555
N4 K1 1_555 1_555
C1 C2 1_555 1_555
C2 N3 1_555 1_555
H1 C2 1_555 1_555
C3 N2 1_555 1_555
C4 C7 1_555 1_555
C5 H2 1_555 1_555
C6 C1 1_555 1_555
C7 N2 1_555 1_555
C8 C4 1_555 1_555
C9 N4 1_555 1_555
H3 C9 1_555 1_555
C10 N1 1_555 1_555
C11 C3 1_555 1_555
H4 C11 1_555 1_555
C12 C8 1_555 1_555
C13 C7 1_555 1_555
H5 C13 1_555 1_555
C14 N3 1_555 1_555
C15 C8 1_555 1_555
C16 N4 1_555 1_555
C17 C12 1_555 1_555
C18 C15 1_555 1_555
C19 C17 1_555 1_555
C20 C16 1_555 1_555
H6 C20 1_555 1_555
H7 C20 1_555 1_555
H8 C20 1_555 1_555
C21 O1 1_555 1_555
H9 C21 1_555 1_555
H10 C21 1_555 1_555
C22 C16 1_555 1_555
H11 C22 1_555 1_555
H12 C22 1_555 1_555
H13 C22 1_555 1_555
C23 C16 1_555 1_555
H14 C23 1_555 1_555
H15 C23 1_555 1_555
H16 C23 1_555 1_555
C24 C14 1_555 1_555
H17 C24 1_555 1_555
H18 C24 1_555 1_555
H19 C24 1_555 1_555
C25 C21 1_555 1_555
H20 C25 1_555 1_555
H21 C25 1_555 1_555
C26 C14 1_555 1_555
H22 C26 1_555 1_555
H23 C26 1_555 1_555
H24 C26 1_555 1_555
C27 O1 1_555 1_555
H25 C27 1_555 1_555
H26 C27 1_555 1_555
C28 C14 1_555 1_555
H27 C28 1_555 1_555
H28 C28 1_555 1_555
H29 C28 1_555 1_555
C29 C25 1_555 1_555
H30 C29 1_555 1_555
H31 C29 1_555 1_555
H32 C6 1_555 1_555
C3 C9 1_555 1_555
C4 C10 1_555 1_555
C5 C6 1_555 1_555
C5 C10 1_555 1_555
C11 C13 1_555 1_555
C18 C19 1_555 1_555
C27 C29 1_555 1_555

#END
