
#######################################################################
#
#                 Cambridge Crystallographic Data Centre
#                                CCDC 
#
#######################################################################
#
# If this CIF has been generated from an entry in the Cambridge 
# Structural Database, then it will include bibliographic, chemical, 
# crystal, experimental, refinement or atomic coordinate data resulting 
# from the CCDC's data processing and validation procedures.
#
#######################################################################

data_SAYMUB01
_chemical_formula_moiety         '0.67(C9 H6 O6),C12 H12 N2'
_chemical_name_systematic        
'bis(Benzene-1,3,5-tricarboxylic acid) tris(1,2-bis(4-pyridyl)ethane)'
_symmetry_cell_setting           orthorhombic
_symmetry_space_group_name_H-M   'P b c a'
_symmetry_Int_Tables_number      61
_space_group_name_Hall           '-P 2ac 2ab'
loop_
_symmetry_equiv_pos_site_id
_symmetry_equiv_pos_as_xyz
1 x,y,z
2 1/2-x,-y,1/2+z
3 -x,1/2+y,1/2-z
4 1/2+x,1/2-y,-z
5 -x,-y,-z
6 1/2+x,y,1/2-z
7 x,1/2-y,1/2+z
8 1/2-x,1/2+y,z
_cell_length_a                   19.270(3)
_cell_length_b                   19.906(3)
_cell_length_c                   25.249(3)
_cell_angle_alpha                90
_cell_angle_beta                 90
_cell_angle_gamma                90
_cell_volume                     9685.23
_exptl_crystal_colour            colorless
_exptl_crystal_description       block
_cell_formula_units_Z            24
_exptl_crystal_recrystallization_method dimethylsulfoxide
loop_
_atom_site_label
_atom_site_type_symbol
_atom_site_fract_x
_atom_site_fract_y
_atom_site_fract_z
O1 O 0.53765(12) 0.08494(11) 0.32692(8)
O2 O 0.54003(10) 0.09775(10) 0.41514(7)
H1 H 0.5366 0.0493 0.4166
O3 O 0.62351(11) 0.30507(10) 0.49458(7)
H2 H 0.6298 0.3413 0.5206
O4 O 0.63865(11) 0.39764(11) 0.44499(8)
O5 O 0.64397(11) 0.36953(11) 0.24814(8)
H3 H 0.6551 0.3804 0.2093
O6 O 0.62617(15) 0.26766(13) 0.21413(8)
C1 C 0.57302(14) 0.19017(14) 0.36238(11)
C2 C 0.58561(14) 0.22953(15) 0.40700(11)
H4 H 0.5766 0.2118 0.4413
C3 C 0.61128(15) 0.29457(15) 0.40182(11)
C4 C 0.62411(15) 0.32078(15) 0.35153(11)
H5 H 0.6409 0.3654 0.3478
C5 C 0.61233(16) 0.28146(16) 0.30657(11)
C6 C 0.58672(15) 0.21656(15) 0.31237(11)
H6 H 0.5785 0.1899 0.2818
C7 C 0.54799(15) 0.11910(15) 0.36592(11)
C8 C 0.62593(15) 0.33825(15) 0.44928(11)
C9 C 0.62825(18) 0.30535(17) 0.25176(12)
O7 O 0.94697(11) 0.10535(10) 0.55054(8)
O8 O 0.96249(10) 0.11151(10) 0.63845(7)
H7 H 0.9865 0.0545 0.6366
O9 O 0.87434(11) 0.30079(10) 0.74060(8)
O10 O 0.83523(11) 0.39205(10) 0.69811(7)
H8 H 0.8236 0.4093 0.7343
O11 O 0.80622(11) 0.38605(10) 0.50198(7)
O12 O 0.80788(10) 0.28361(10) 0.46409(7)
H9 H 0.8047 0.3101 0.4311
C10 C 0.90601(14) 0.20171(15) 0.59637(10)
C11 C 0.90073(15) 0.23607(14) 0.64424(11)
H10 H 0.9198 0.2168 0.6755
C12 C 0.86803(15) 0.29802(14) 0.64692(10)
C13 C 0.84045(15) 0.32689(15) 0.60098(10)
H11 H 0.8187 0.3697 0.6025
C14 C 0.84493(14) 0.29268(14) 0.55301(10)
C15 C 0.87755(14) 0.23052(14) 0.55086(11)
H12 H 0.8805 0.2073 0.5180
C16 C 0.94109(15) 0.13450(15) 0.59281(11)
C17 C 0.86015(15) 0.33050(15) 0.69998(11)
C18 C 0.81705(14) 0.32608(16) 0.50410(11)
N1 N 0.99148(12) 0.00849(12) 0.36792(10)
N2 N 0.97744(12) 0.46819(12) 0.41737(9)
C19 C 0.98134(15) 0.03555(16) 0.41581(12)
H13 H 0.9848 0.0075 0.4461
C20 C 0.96603(15) 0.10243(15) 0.42272(12)
H14 H 0.9592 0.1199 0.4573
C21 C 0.96051(14) 0.14437(14) 0.37890(11)
C22 C 0.97093(14) 0.11586(15) 0.32923(11)
H15 H 0.9676 0.1426 0.2982
C23 C 0.98610(15) 0.04837(16) 0.32556(11)
H16 H 0.9930 0.0294 0.2914
C24 C 0.94690(15) 0.21801(15) 0.38519(12)
H17 H 0.9074 0.2246 0.4098
H18 H 0.9338 0.2373 0.3505
C25 C 1.01076(17) 0.25544(16) 0.40667(14)
H19 H 1.0226 0.2375 0.4421
H20 H 1.0508 0.2471 0.3830
C26 C 0.99866(15) 0.32969(16) 0.41080(13)
C27 C 0.98237(16) 0.36063(16) 0.45870(13)
H21 H 0.9785 0.3347 0.4901
C28 C 0.97187(15) 0.42933(15) 0.46019(12)
H22 H 0.9602 0.4497 0.4930
C29 C 0.99268(15) 0.43823(16) 0.37137(12)
H23 H 0.9966 0.4653 0.3405
C30 C 1.00283(16) 0.37060(16) 0.36660(13)
H24 H 1.0128 0.3516 0.3329
N3 N 0.65107(12) 0.38260(13) 0.57586(9)
N4 N 0.69516(12) 0.65282(12) 0.87386(9)
C31 C 0.65607(15) 0.36229(16) 0.62612(11)
H25 H 0.6505 0.3158 0.6335
C32 C 0.66887(15) 0.40513(16) 0.66768(11)
H26 H 0.6719 0.3881 0.7028
C33 C 0.67738(14) 0.47318(16) 0.65827(11)
C34 C 0.67107(15) 0.49443(16) 0.60599(11)
H27 H 0.6756 0.5407 0.5975
C35 C 0.65825(15) 0.44823(16) 0.56674(11)
H28 H 0.6543 0.4638 0.5313
C36 C 0.69275(15) 0.52205(16) 0.70220(11)
H29 H 0.7046 0.5661 0.6865
H30 H 0.7339 0.5061 0.7220
C37 C 0.63241(15) 0.53152(15) 0.74114(11)
H31 H 0.5930 0.5532 0.7227
H32 H 0.6167 0.4871 0.7541
C38 C 0.65431(14) 0.57422(15) 0.78724(11)
C39 C 0.66797(15) 0.54624(15) 0.83635(11)
H33 H 0.6634 0.4991 0.8413
C40 C 0.68822(15) 0.58638(15) 0.87832(11)
H34 H 0.6975 0.5659 0.9115
C41 C 0.68248(15) 0.68039(15) 0.82608(11)
H35 H 0.6872 0.7276 0.8222
C42 C 0.66298(15) 0.64325(15) 0.78268(11)
H36 H 0.6554 0.6648 0.7496
N5 N 0.16968(13) 0.39743(13) 0.35137(9)
N6 N 0.29588(12) 0.42223(12) 0.70526(9)
C43 C 0.18787(16) 0.34575(17) 0.38227(12)
H37 H 0.1953 0.3032 0.3662
C44 C 0.19630(15) 0.35118(16) 0.43614(11)
H38 H 0.2093 0.3131 0.4565
C45 C 0.18572(15) 0.41264(15) 0.46048(11)
C46 C 0.16643(15) 0.46611(16) 0.42855(11)
H39 H 0.1584 0.5092 0.4436
C47 C 0.15902(15) 0.45635(16) 0.37480(11)
H40 H 0.1457 0.4935 0.3535
C48 C 0.19636(16) 0.42145(17) 0.51907(11)
H41 H 0.1632 0.3923 0.5383
H42 H 0.1862 0.4686 0.5288
C49 C 0.27041(16) 0.40410(18) 0.53663(11)
H43 H 0.2812 0.3574 0.5261
H44 H 0.3036 0.4342 0.5184
C50 C 0.27941(15) 0.41114(16) 0.59574(11)
C51 C 0.25455(15) 0.36166(16) 0.62979(11)
H45 H 0.2315 0.3232 0.6162
C52 C 0.26382(15) 0.36938(15) 0.68356(12)
H46 H 0.2465 0.3354 0.7064
C53 C 0.31879(15) 0.47000(15) 0.67262(11)
H47 H 0.3409 0.5083 0.6874
C54 C 0.31188(15) 0.46635(15) 0.61809(11)
H48 H 0.3292 0.5014 0.5962
loop_
_geom_bond_atom_site_label_1
_geom_bond_atom_site_label_2
_geom_bond_site_symmetry_1
_geom_bond_site_symmetry_2
O1 C7 1_555 1_555
O2 H1 1_555 1_555
O3 H2 1_555 1_555
O4 C8 1_555 1_555
O5 H3 1_555 1_555
O6 C9 1_555 1_555
C1 C2 1_555 1_555
C2 H4 1_555 1_555
C3 C2 1_555 1_555
C4 C3 1_555 1_555
H5 C4 1_555 1_555
C5 C4 1_555 1_555
C6 C1 1_555 1_555
H6 C6 1_555 1_555
C7 O2 1_555 1_555
C8 O3 1_555 1_555
C9 O5 1_555 1_555
O7 C16 1_555 1_555
O8 H7 1_555 1_555
O9 C17 1_555 1_555
O10 H8 1_555 1_555
O11 C18 1_555 1_555
O12 H9 1_555 1_555
C10 C11 1_555 1_555
C11 H10 1_555 1_555
C12 C11 1_555 1_555
C13 C12 1_555 1_555
H11 C13 1_555 1_555
C14 C13 1_555 1_555
C15 C10 1_555 1_555
H12 C15 1_555 1_555
C16 O8 1_555 1_555
C17 O10 1_555 1_555
C18 O12 1_555 1_555
N1 C19 1_555 1_555
N2 C28 1_555 1_555
C19 H13 1_555 1_555
C20 C19 1_555 1_555
H14 C20 1_555 1_555
C21 C20 1_555 1_555
C22 C21 1_555 1_555
H15 C22 1_555 1_555
C23 N1 1_555 1_555
H16 C23 1_555 1_555
C24 C21 1_555 1_555
H17 C24 1_555 1_555
H18 C24 1_555 1_555
C25 C24 1_555 1_555
H19 C25 1_555 1_555
H20 C25 1_555 1_555
C26 C25 1_555 1_555
C27 C26 1_555 1_555
H21 C27 1_555 1_555
C28 C27 1_555 1_555
H22 C28 1_555 1_555
C29 N2 1_555 1_555
H23 C29 1_555 1_555
C30 C26 1_555 1_555
H24 C30 1_555 1_555
N3 C31 1_555 1_555
N4 C40 1_555 1_555
C31 H25 1_555 1_555
C32 C31 1_555 1_555
H26 C32 1_555 1_555
C33 C32 1_555 1_555
C34 C33 1_555 1_555
H27 C34 1_555 1_555
C35 N3 1_555 1_555
H28 C35 1_555 1_555
C36 C33 1_555 1_555
H29 C36 1_555 1_555
H30 C36 1_555 1_555
C37 C36 1_555 1_555
H31 C37 1_555 1_555
H32 C37 1_555 1_555
C38 C37 1_555 1_555
C39 C38 1_555 1_555
H33 C39 1_555 1_555
C40 C39 1_555 1_555
H34 C40 1_555 1_555
C41 N4 1_555 1_555
H35 C41 1_555 1_555
C42 C38 1_555 1_555
H36 C42 1_555 1_555
N5 C43 1_555 1_555
N6 C52 1_555 1_555
C43 H37 1_555 1_555
C44 C43 1_555 1_555
H38 C44 1_555 1_555
C45 C44 1_555 1_555
C46 C45 1_555 1_555
H39 C46 1_555 1_555
C47 N5 1_555 1_555
H40 C47 1_555 1_555
C48 C45 1_555 1_555
H41 C48 1_555 1_555
H42 C48 1_555 1_555
C49 C48 1_555 1_555
H43 C49 1_555 1_555
H44 C49 1_555 1_555
C50 C49 1_555 1_555
C51 C50 1_555 1_555
H45 C51 1_555 1_555
C52 C51 1_555 1_555
H46 C52 1_555 1_555
C53 N6 1_555 1_555
H47 C53 1_555 1_555
C54 C50 1_555 1_555
H48 C54 1_555 1_555
C1 C7 1_555 1_555
C3 C8 1_555 1_555
C5 C6 1_555 1_555
C5 C9 1_555 1_555
C10 C16 1_555 1_555
C12 C17 1_555 1_555
C14 C15 1_555 1_555
C14 C18 1_555 1_555
C22 C23 1_555 1_555
C29 C30 1_555 1_555
C34 C35 1_555 1_555
C41 C42 1_555 1_555
C46 C47 1_555 1_555
C53 C54 1_555 1_555

#END
