
#######################################################################
#
#                 Cambridge Crystallographic Data Centre
#                                CCDC 
#
#######################################################################
#
# If this CIF has been generated from an entry in the Cambridge 
# Structural Database, then it will include bibliographic, chemical, 
# crystal, experimental, refinement or atomic coordinate data resulting 
# from the CCDC's data processing and validation procedures.
#
#######################################################################

data_SAYNOY
_chemical_formula_moiety         '2(C15 H11 F4 I1 N2),C10 H8 N2'
_chemical_name_systematic        
"bis(N,N-dimethyl-4-{[(2,3,5,6-tetrafluoro-4-iodophenyl)imino]methyl}aniline) 4,4'-bipyridine"
_symmetry_cell_setting           monoclinic
_symmetry_space_group_name_H-M   'C 2/c'
_symmetry_Int_Tables_number      15
_space_group_name_Hall           '-C 2yn'
loop_
_symmetry_equiv_pos_site_id
_symmetry_equiv_pos_as_xyz
1 x,y,z
2 -x,y,1/2-z
3 1/2+x,1/2+y,z
4 1/2-x,1/2+y,1/2-z
5 -x,-y,-z
6 x,-y,1/2+z
7 1/2-x,1/2-y,-z
8 1/2+x,1/2-y,1/2+z
_cell_length_a                   27.217(5)
_cell_length_b                   10.277(2)
_cell_length_c                   14.795(3)
_cell_angle_alpha                90
_cell_angle_beta                 110.06(3)
_cell_angle_gamma                90
_cell_volume                     3887.24
_exptl_crystal_colour            colorless
_exptl_crystal_description       block
_cell_formula_units_Z            4
loop_
_atom_site_label
_atom_site_type_symbol
_atom_site_fract_x
_atom_site_fract_y
_atom_site_fract_z
C1 C 0.29174(9) 0.2066(2) 0.15427(18)
C2 C 0.31103(10) 0.3094(2) 0.11595(19)
C3 C 0.35900(9) 0.3059(2) 0.10615(18)
C4 C 0.39176(9) 0.1976(2) 0.13335(17)
C5 C 0.37227(9) 0.0949(2) 0.17183(18)
C6 C 0.32412(9) 0.0989(2) 0.18182(18)
C7 C 0.47201(10) 0.2723(3) 0.13333(18)
H1 H 0.4643 0.3513 0.1561
C8 C 0.52130(9) 0.2574(3) 0.11647(17)
C9 C 0.55399(10) 0.3654(3) 0.1239(2)
H2 H 0.5440 0.4460 0.1403
C10 C 0.60026(10) 0.3543(3) 0.1073(2)
H3 H 0.6209 0.4280 0.1125
C11 C 0.61760(9) 0.2352(2) 0.08279(18)
C12 C 0.58450(9) 0.1270(2) 0.07572(19)
H4 H 0.5943 0.0460 0.0595
C13 C 0.53784(9) 0.1395(2) 0.09252(19)
H5 H 0.5169 0.0663 0.0876
C14 C 0.69717(11) 0.3370(3) 0.0756(3)
H6 H 0.6794 0.4018 0.0292
H7 H 0.7286 0.3111 0.0648
H8 H 0.7059 0.3723 0.1393
C15 C 0.68163(13) 0.1031(3) 0.0419(3)
H9 H 0.6856 0.0418 0.0929
H10 H 0.7147 0.1159 0.0335
H11 H 0.6568 0.0702 -0.0167
F1 F 0.28145(6) 0.41717(16) 0.08565(14)
F2 F 0.37432(6) 0.40825(15) 0.06495(13)
F3 F 0.30842(6) -0.00460(16) 0.21966(15)
F4 F 0.40148(6) -0.01291(15) 0.19899(14)
I1 I 0.217841(6) 0.210197(17) 0.168710(12)
N1 N 0.43931(8) 0.1800(2) 0.11770(15)
N2 N 0.66335(9) 0.2247(2) 0.0659(2)
C16 C 0.11673(10) 0.1699(3) 0.2840(2)
H12 H 0.1480 0.1447 0.3308
C17 C 0.07196(10) 0.1699(3) 0.30796(18)
H13 H 0.0733 0.1455 0.3693
C18 C 0.02492(9) 0.2067(2) 0.23921(17)
C19 C 0.02603(10) 0.2422(3) 0.15042(19)
H14 H -0.0046 0.2670 0.1018
C20 C 0.07300(11) 0.2406(3) 0.1342(2)
H15 H 0.0731 0.2673 0.0742
N3 N 0.11785(9) 0.2036(2) 0.19864(19)
C16A C -0.11673(10) 0.1699(3) 0.2160(2)
H12A H -0.1480 0.1447 0.1692
C17A C -0.07196(10) 0.1699(3) 0.19204(18)
H13A H -0.0733 0.1455 0.1307
C18A C -0.02492(9) 0.2067(2) 0.26079(17)
C19A C -0.02603(10) 0.2422(3) 0.34958(19)
H14A H 0.0046 0.2670 0.3982
C20A C -0.07300(11) 0.2406(3) 0.3658(2)
H15A H -0.0731 0.2673 0.4258
N3A N -0.11785(9) 0.2036(2) 0.30136(19)
loop_
_geom_bond_atom_site_label_1
_geom_bond_atom_site_label_2
_geom_bond_site_symmetry_1
_geom_bond_site_symmetry_2
C1 C2 1_555 1_555
C2 C3 1_555 1_555
C3 C4 1_555 1_555
C4 C5 1_555 1_555
C5 C6 1_555 1_555
C6 C1 1_555 1_555
C7 H1 1_555 1_555
C8 C7 1_555 1_555
C9 C8 1_555 1_555
H2 C9 1_555 1_555
C10 C9 1_555 1_555
H3 C10 1_555 1_555
C11 C10 1_555 1_555
C12 C11 1_555 1_555
H4 C12 1_555 1_555
C13 C8 1_555 1_555
H5 C13 1_555 1_555
C14 H6 1_555 1_555
H7 C14 1_555 1_555
H8 C14 1_555 1_555
C15 H9 1_555 1_555
H10 C15 1_555 1_555
H11 C15 1_555 1_555
F1 C2 1_555 1_555
F2 C3 1_555 1_555
F3 C6 1_555 1_555
F4 C5 1_555 1_555
I1 C1 1_555 1_555
N1 C4 1_555 1_555
N2 C11 1_555 1_555
C16 H12 1_555 1_555
C17 C16 1_555 1_555
H13 C17 1_555 1_555
C18 C17 1_555 1_555
C19 C18 1_555 1_555
H14 C19 1_555 1_555
C20 C19 1_555 1_555
H15 C20 1_555 1_555
N3 C16 1_555 1_555
C16A H12A 1_555 1_555
C17A C16A 1_555 1_555
H13A C17A 1_555 1_555
C18A C18 1_555 1_555
C19A C18A 1_555 1_555
H14A C19A 1_555 1_555
C20A C19A 1_555 1_555
H15A C20A 1_555 1_555
N3A C16A 1_555 1_555
C7 N1 1_555 1_555
C12 C13 1_555 1_555
C14 N2 1_555 1_555
C15 N2 1_555 1_555
C20 N3 1_555 1_555
C17A C18A 1_555 1_555
C20A N3A 1_555 1_555

#END
