
#######################################################################
#
#                 Cambridge Crystallographic Data Centre
#                                CCDC 
#
#######################################################################
#
# If this CIF has been generated from an entry in the Cambridge 
# Structural Database, then it will include bibliographic, chemical, 
# crystal, experimental, refinement or atomic coordinate data resulting 
# from the CCDC's data processing and validation procedures.
#
#######################################################################

data_SAYREP
_chemical_compound_source        'Bulbs of Fritillaria ebeiensis var. purpurea'
_chemical_formula_moiety         'C31 H49 N1 O4'
_chemical_name_systematic        'Ebeiedine 3,6-diacetate'
_chemical_properties_biological  'antitussive and expectorant agent'
_symmetry_cell_setting           monoclinic
_symmetry_space_group_name_H-M   'C 2'
_symmetry_Int_Tables_number      5
_space_group_name_Hall           'C 2y'
loop_
_symmetry_equiv_pos_site_id
_symmetry_equiv_pos_as_xyz
1 x,y,z
2 1/2+x,1/2+y,z
3 -x,y,-z
4 1/2-x,1/2+y,-z
_cell_length_a                   31.994(6)
_cell_length_b                   8.802(1)
_cell_length_c                   24.745(4)
_cell_angle_alpha                90
_cell_angle_beta                 121.36(1)
_cell_angle_gamma                90
_cell_volume                     5950.48
_chemical_melting_point          143.5-146deg.C
_cell_formula_units_Z            8
loop_
_atom_site_label
_atom_site_type_symbol
_atom_site_fract_x
_atom_site_fract_y
_atom_site_fract_z
C1 C 0.4601(3) 0.8672(10) 0.1140(4)
C2 C 0.4251(3) 0.9491(10) 0.0516(4)
C3 C 0.4323(3) 0.8951(10) -0.0019(4)
C4 C 0.4250(3) 0.7221(10) -0.0102(3)
C5 C 0.4620(2) 0.6434(10) 0.0534(3)
C6 C 0.4654(3) 0.4741(10) 0.0458(3)
C7 C 0.5032(3) 0.3957(11) 0.1069(4)
C8 C 0.4956(2) 0.4406(10) 0.1603(3)
C9 C 0.4953(3) 0.6157 0.1668(3)
C10 C 0.4541(2) 0.6917(9) 0.1078(3)
C11 C 0.4988(3) 0.6360(10) 0.2315(3)
C12 C 0.5227(3) 0.4886(11) 0.2698(3)
C13 C 0.4877(3) 0.4045(11) 0.2852(3)
C14 C 0.5357(3) 0.3943(11) 0.2278(4)
C15 C 0.5437(3) 0.2243(10) 0.2415(4)
C16 C 0.5045(3) 0.1559(11) 0.2526(4)
C17 C 0.5024(3) 0.2410(10) 0.3046(4)
C18 C 0.4828(4) 0.4928(11) 0.3344(4)
C19 C 0.4026(2) 0.6464(10) 0.0963(3)
C20 C 0.4671(3) 0.1685(10) 0.3225(3)
C21 C 0.4846(5) 0.0035(14) 0.3486(6)
C22 C 0.4624(3) 0.2658(13) 0.3691(4)
C23 C 0.4243(4) 0.1954(13) 0.3814(5)
C24 C 0.4126(7) 0.2909(20) 0.4229(7)
C25 C 0.3941(7) 0.4607(16) 0.3917(7)
C26 C 0.4398(7) 0.5156(16) 0.3890(7)
C27 C 0.3447(7) 0.4560(21) 0.3289(9)
C28 C 0.4043(3) 0.9856(12) -0.1069(4)
C29 C 0.3633(4) 1.0635(12) -0.1640(4)
C30 C 0.3910(3) 0.3514(9) -0.0330(3)
C31 C 0.3446(3) 0.2849(11) -0.0448(4)
N1 N 0.4475(3) 0.4166(9) 0.3457(3)
O1 O 0.3943(2) 0.9676(7) -0.0600(3)
O2 O 0.4418(3) 0.9478(13) -0.1008(4)
O3 O 0.4181(2) 0.3999(7) 0.0259(2)
O4 O 0.4019(2) 0.3665(9) -0.0722(3)
C32 C 0.1296(3) 0.2708(9) 0.3040(3)
C33 C 0.1208(2) 0.3709(10) 0.3497(3)
C34 C 0.1333(3) 0.2787(9) 0.4076(3)
C35 C 0.1864(3) 0.2285(8) 0.4427(3)
C36 C 0.1947(3) 0.1287(9) 0.3977(3)
C37 C 0.2417(3) 0.0403(9) 0.4284(3)
C38 C 0.2453(3) -0.0701(9) 0.3835(4)
C39 C 0.2350(3) 0.0106(10) 0.3241(3)
C40 C 0.1859(2) 0.0930(9) 0.2932(3)
C41 C 0.1832(2) 0.2143(9) 0.3363(3)
C42 C 0.1755(3) 0.1338(11) 0.2277(3)
C43 C 0.2048(3) 0.0212(11) 0.2121(3)
C44 C 0.2427(3) 0.0990(10) 0.2024(3)
C45 C 0.2265(3) -0.0918(10) 0.2692(4)
C46 C 0.2709(4) -0.1824(12) 0.2778(4)
C47 C 0.3070(3) -0.0905(12) 0.2689(4)
C48 C 0.2807(3) -0.0092(11) 0.2042(4)
C49 C 0.2181(3) 0.1849(11) 0.1415(3)
C50 C 0.2176(3) 0.3510(9) 0.3478(3)
C51 C 0.3155(3) 0.0778(12) 0.1878(5)
C52 C 0.3503(4) -0.0425(15) 0.1841(6)
C53 C 0.2872(3) 0.1702(13) 0.1282(4)
C54 C 0.3230(4) 0.2638(15) 0.1170(5)
C55 C 0.2939(4) 0.3652(14) 0.0567(6)
C56 C 0.2570(4) 0.4679(13) 0.0614(5)
C57 C 0.2245(3) 0.3639(12) 0.0737(4)
C58 C 0.2817(4) 0.5888(15) 0.1125(6)
C59 C 0.1115(4) 0.3003(13) 0.4858(4)
C60 C 0.1027(5) 0.4097(17) 0.5257(5)
C61 C 0.3079(3) 0.1861(11) 0.5152(3)
C62 C 0.3495(3) 0.2878(16) 0.5316(5)
N2 N 0.2524(2) 0.2705(9) 0.1307(3)
O5 O 0.1242(2) 0.3721(7) 0.4483(2)
O6 O 0.1079(4) 0.1672(11) 0.4855(5)
O7 O 0.2846(2) 0.1421(7) 0.4539(2)
O8 O 0.2948(2) 0.1473(9) 0.5515(2)
loop_
_geom_bond_atom_site_label_1
_geom_bond_atom_site_label_2
_geom_bond_site_symmetry_1
_geom_bond_site_symmetry_2
C1 C2 1_555 1_555
C2 C3 1_555 1_555
C3 C4 1_555 1_555
C4 C5 1_555 1_555
C5 C6 1_555 1_555
C6 C7 1_555 1_555
C7 C8 1_555 1_555
C8 C9 1_555 1_555
C9 C10 1_555 1_555
C10 C1 1_555 1_555
C11 C9 1_555 1_555
C12 C11 1_555 1_555
C13 C12 1_555 1_555
C14 C8 1_555 1_555
C15 C14 1_555 1_555
C16 C15 1_555 1_555
C17 C13 1_555 1_555
C18 C13 1_555 1_555
C19 C10 1_555 1_555
C20 C17 1_555 1_555
C21 C20 1_555 1_555
C22 C20 1_555 1_555
C23 C22 1_555 1_555
C24 C23 1_555 1_555
C25 C24 1_555 1_555
C26 C25 1_555 1_555
C27 C25 1_555 1_555
C28 C29 1_555 1_555
C30 C31 1_555 1_555
N1 C18 1_555 1_555
O1 C3 1_555 1_555
O2 C28 1_555 1_555
O3 C6 1_555 1_555
O4 C30 1_555 1_555
C32 C33 1_555 1_555
C33 C34 1_555 1_555
C34 C35 1_555 1_555
C35 C36 1_555 1_555
C36 C37 1_555 1_555
C37 C38 1_555 1_555
C38 C39 1_555 1_555
C39 C40 1_555 1_555
C40 C41 1_555 1_555
C41 C32 1_555 1_555
C42 C40 1_555 1_555
C43 C42 1_555 1_555
C44 C43 1_555 1_555
C45 C39 1_555 1_555
C46 C45 1_555 1_555
C47 C46 1_555 1_555
C48 C44 1_555 1_555
C49 C44 1_555 1_555
C50 C41 1_555 1_555
C51 C48 1_555 1_555
C52 C51 1_555 1_555
C53 C51 1_555 1_555
C54 C53 1_555 1_555
C55 C54 1_555 1_555
C56 C55 1_555 1_555
C57 C56 1_555 1_555
C58 C56 1_555 1_555
C59 C60 1_555 1_555
C61 C62 1_555 1_555
N2 C49 1_555 1_555
O5 C34 1_555 1_555
O6 C59 1_555 1_555
O7 C37 1_555 1_555
O8 C61 1_555 1_555
C5 C10 1_555 1_555
C12 C14 1_555 1_555
C16 C17 1_555 1_555
C22 N1 1_555 1_555
C26 N1 1_555 1_555
C28 O1 1_555 1_555
C30 O3 1_555 1_555
C36 C41 1_555 1_555
C43 C45 1_555 1_555
C47 C48 1_555 1_555
C53 N2 1_555 1_555
C57 N2 1_555 1_555
C59 O5 1_555 1_555
C61 O7 1_555 1_555

#END
