
#######################################################################
#
#                 Cambridge Crystallographic Data Centre
#                                CCDC 
#
#######################################################################
#
# If this CIF has been generated from an entry in the Cambridge 
# Structural Database, then it will include bibliographic, chemical, 
# crystal, experimental, refinement or atomic coordinate data resulting 
# from the CCDC's data processing and validation procedures.
#
#######################################################################

data_SAYWEX
_chemical_formula_moiety         'C26 H38 O2 Si1'
_chemical_name_systematic        
(2-butyl-3-(methoxymethyl)-2-methyl-3-phenylcyclopropyl)(phenyl)(trimethylsilyl)methanol
_symmetry_cell_setting           monoclinic
_symmetry_space_group_name_H-M   'P 21/c'
_symmetry_Int_Tables_number      14
_space_group_name_Hall           '-P 2ybc'
loop_
_symmetry_equiv_pos_site_id
_symmetry_equiv_pos_as_xyz
1 x,y,z
2 -x,1/2+y,1/2-z
3 -x,-y,-z
4 x,1/2-y,1/2+z
_cell_length_a                   8.961(4)
_cell_length_b                   24.452(7)
_cell_length_c                   12.927(4)
_cell_angle_alpha                90
_cell_angle_beta                 117.90(3)
_cell_angle_gamma                90
_cell_volume                     2503.26
_exptl_crystal_colour            colorless
_exptl_crystal_description       block
_cell_formula_units_Z            4
loop_
_atom_site_label
_atom_site_type_symbol
_atom_site_fract_x
_atom_site_fract_y
_atom_site_fract_z
Si1 Si 0.50141(9) 0.74696(3) 0.70481(6)
O1 O 0.2563(2) 0.71487(7) 0.49090(13)
H1 H 0.3184 0.6908 0.4885
O2 O 0.4026(2) 0.61254(7) 0.50058(14)
C1 C 0.6578(3) 0.70253(11) 0.6890(3)
H2 H 0.7699 0.7134 0.7447
H3 H 0.6447 0.7061 0.6112
H4 H 0.6396 0.6652 0.7028
C2 C 0.5139(4) 0.81711(11) 0.6536(3)
H5 H 0.4838 0.8160 0.5720
H6 H 0.6270 0.8308 0.6974
H7 H 0.4374 0.8407 0.6651
C3 C 0.5500(4) 0.74876(13) 0.8618(2)
H8 H 0.6583 0.7655 0.9075
H9 H 0.5518 0.7121 0.8892
H10 H 0.4649 0.7696 0.8696
C4 C 0.2774(3) 0.71899(9) 0.60906(18)
C5 C 0.1513(3) 0.76131(9) 0.60557(19)
C6 C 0.1075(3) 0.76530(10) 0.6949(2)
H11 H 0.1519 0.7403 0.7561
C7 C -0.0005(3) 0.80562(11) 0.6952(2)
H12 H -0.0273 0.8074 0.7564
C8 C -0.0679(4) 0.84276(12) 0.6064(3)
H13 H -0.1407 0.8698 0.6068
C9 C -0.0274(4) 0.83994(12) 0.5167(3)
H14 H -0.0729 0.8652 0.4559
C10 C 0.0812(4) 0.79955(11) 0.5160(2)
H15 H 0.1075 0.7981 0.4544
C11 C 0.2519(3) 0.66432(8) 0.65715(18)
H16 H 0.3094 0.6648 0.7429
C12 C 0.2459(3) 0.59626(10) 0.4948(2)
H17 H 0.2263 0.5577 0.4752
H18 H 0.1542 0.6169 0.4342
C13 C 0.0910(3) 0.63120(9) 0.61133(19)
C14 C -0.0580(3) 0.64797(11) 0.4961(2)
H19 H -0.0188 0.6701 0.4523
H20 H -0.1368 0.6686 0.5114
H21 H -0.1126 0.6159 0.4517
C15 C 0.0392(3) 0.61042(10) 0.7003(2)
H22 H -0.0064 0.6408 0.7250
H23 H 0.1392 0.5976 0.7686
C16 C -0.0906(4) 0.56453(12) 0.6569(3)
H24 H -0.1927 0.5779 0.5909
H25 H -0.0473 0.5348 0.6290
C17 C -0.1356(4) 0.54239(13) 0.7475(3)
H26 H -0.1584 0.5727 0.7863
H27 H -0.2380 0.5208 0.7087
C18 C 0.0011(5) 0.5076(2) 0.8376(4)
H28 H -0.0412 0.4893 0.8842
H29 H 0.0952 0.5303 0.8870
H30 H 0.0369 0.4810 0.7993
C19 C 0.2508(3) 0.60648(9) 0.61181(19)
C20 C 0.4195(4) 0.59476(14) 0.4022(3)
H31 H 0.5218 0.6093 0.4066
H32 H 0.3247 0.6074 0.3318
H33 H 0.4233 0.5555 0.4016
C21 C 0.3486(3) 0.56320(9) 0.7004(2)
C22 C 0.4914(3) 0.57468(11) 0.8049(2)
H34 H 0.5297 0.6106 0.8217
C23 C 0.5780(4) 0.53389(13) 0.8846(3)
H35 H 0.6739 0.5425 0.9539
C24 C 0.5234(5) 0.48082(13) 0.8622(3)
H36 H 0.5810 0.4535 0.9163
C25 C 0.3840(5) 0.46836(12) 0.7597(3)
H37 H 0.3467 0.4324 0.7438
C26 C 0.2977(4) 0.50900(10) 0.6792(2)
H38 H 0.2035 0.4998 0.6094
loop_
_geom_bond_atom_site_label_1
_geom_bond_atom_site_label_2
_geom_bond_site_symmetry_1
_geom_bond_site_symmetry_2
Si1 C1 1_555 1_555
O1 H1 1_555 1_555
O2 C12 1_555 1_555
C1 H2 1_555 1_555
H3 C1 1_555 1_555
H4 C1 1_555 1_555
C2 Si1 1_555 1_555
H5 C2 1_555 1_555
H6 C2 1_555 1_555
H7 C2 1_555 1_555
C3 Si1 1_555 1_555
H8 C3 1_555 1_555
H9 C3 1_555 1_555
H10 C3 1_555 1_555
C4 Si1 1_555 1_555
C5 C4 1_555 1_555
C6 C5 1_555 1_555
H11 C6 1_555 1_555
C7 C6 1_555 1_555
H12 C7 1_555 1_555
C8 C7 1_555 1_555
H13 C8 1_555 1_555
C9 C8 1_555 1_555
H14 C9 1_555 1_555
C10 C5 1_555 1_555
H15 C10 1_555 1_555
C11 C4 1_555 1_555
H16 C11 1_555 1_555
C12 H17 1_555 1_555
H18 C12 1_555 1_555
C13 C11 1_555 1_555
C14 C13 1_555 1_555
H19 C14 1_555 1_555
H20 C14 1_555 1_555
H21 C14 1_555 1_555
C15 C13 1_555 1_555
H22 C15 1_555 1_555
H23 C15 1_555 1_555
C16 C15 1_555 1_555
H24 C16 1_555 1_555
H25 C16 1_555 1_555
C17 C16 1_555 1_555
H26 C17 1_555 1_555
H27 C17 1_555 1_555
C18 C17 1_555 1_555
H28 C18 1_555 1_555
H29 C18 1_555 1_555
H30 C18 1_555 1_555
C19 C11 1_555 1_555
C20 O2 1_555 1_555
H31 C20 1_555 1_555
H32 C20 1_555 1_555
H33 C20 1_555 1_555
C21 C19 1_555 1_555
C22 C21 1_555 1_555
H34 C22 1_555 1_555
C23 C22 1_555 1_555
H35 C23 1_555 1_555
C24 C23 1_555 1_555
H36 C24 1_555 1_555
C25 C24 1_555 1_555
H37 C25 1_555 1_555
C26 C21 1_555 1_555
H38 C26 1_555 1_555
O1 C4 1_555 1_555
C9 C10 1_555 1_555
C12 C19 1_555 1_555
C13 C19 1_555 1_555
C25 C26 1_555 1_555

#END
