
#######################################################################
#
#                 Cambridge Crystallographic Data Centre
#                                CCDC 
#
#######################################################################
#
# If this CIF has been generated from an entry in the Cambridge 
# Structural Database, then it will include bibliographic, chemical, 
# crystal, experimental, refinement or atomic coordinate data resulting 
# from the CCDC's data processing and validation procedures.
#
#######################################################################

data_SAYWIB
_chemical_formula_moiety         'C23 H25 N1 O4'
_chemical_name_systematic        
'(4-butyl-4-methyl-2-phenylcyclobut-2-en-1-yl)methyl 4-nitrobenzoate'
_symmetry_cell_setting           monoclinic
_symmetry_space_group_name_H-M   'P 21/c'
_symmetry_Int_Tables_number      14
_space_group_name_Hall           '-P 2ybc'
loop_
_symmetry_equiv_pos_site_id
_symmetry_equiv_pos_as_xyz
1 x,y,z
2 -x,1/2+y,1/2-z
3 -x,-y,-z
4 x,1/2-y,1/2+z
_cell_length_a                   14.4140(5)
_cell_length_b                   5.5220(2)
_cell_length_c                   28.1160(14)
_cell_angle_alpha                90
_cell_angle_beta                 113.2450(14)
_cell_angle_gamma                90
_cell_volume                     2056.21
_exptl_crystal_colour            colorless
_exptl_crystal_description       prism
_cell_formula_units_Z            4
loop_
_atom_site_label
_atom_site_type_symbol
_atom_site_fract_x
_atom_site_fract_y
_atom_site_fract_z
O1 O 0.5409(4) -0.3067(12) 1.0482(2)
O2 O 0.6251(5) -0.6407(12) 1.0699(3)
O3 O 0.9522(4) -0.2334(10) 0.9617(2)
O4 O 0.8499(4) 0.0911(9) 0.93254(19)
N1 N 0.6098(5) -0.4379(14) 1.0498(3)
C1 C 0.6791(5) -0.3543(14) 1.0262(3)
C2 C 0.7638(5) -0.4897(14) 1.0329(3)
H1 H 0.7776 -0.6314 1.0524
C3 C 0.8280(6) -0.4108(14) 1.0102(3)
H2 H 0.8853 -0.5000 1.0141
C4 C 0.8064(5) -0.1985(13) 0.9816(3)
C5 C 0.7203(5) -0.0666(14) 0.9754(3)
H3 H 0.7061 0.0750 0.9559
C6 C 0.6553(6) -0.1433(14) 0.9978(3)
H4 H 0.5976 -0.0554 0.9938
C7 C 0.8780(6) -0.1203(13) 0.9580(3)
C8 C 0.9150(6) 0.1911(15) 0.9096(3)
H5 H 0.9811 0.1161 0.9249
H6 H 0.9231 0.3637 0.9164
C9 C 0.8704(5) 0.1475(14) 0.8519(3)
H7 H 0.8628 -0.0252 0.8432
C10 C 0.9261(5) 0.2854(13) 0.8239(3)
C11 C 0.8463(6) 0.4177(14) 0.7962(3)
H8 H 0.8372 0.5400 0.7721
C12 C 0.7743(6) 0.3016(14) 0.8174(3)
C13 C 0.7324(7) 0.4756(17) 0.8458(3)
H9 H 0.7007 0.3855 0.8644
H10 H 0.6837 0.5802 0.8212
H11 H 0.7865 0.5711 0.8696
C14 C 0.6933(6) 0.1508(17) 0.7778(3)
H12 H 0.6527 0.0761 0.7943
H13 H 0.7253 0.0218 0.7664
C15 C 0.6228(7) 0.293(2) 0.7299(4)
H14 H 0.5859 0.4120 0.7410
H15 H 0.6639 0.3809 0.7154
C16 C 0.5501(7) 0.144(3) 0.6891(4)
H16 H 0.5073 0.0588 0.7028
H17 H 0.5861 0.0250 0.6775
C17 C 0.4837(7) 0.302(3) 0.6425(4)
H18 H 0.4317 0.2032 0.6181
H19 H 0.5248 0.3698 0.6260
H20 H 0.4533 0.4300 0.6544
C18 C 1.0298(6) 0.2665(13) 0.8281(3)
C19 C 1.0921(6) 0.0715(14) 0.8531(3)
H21 H 1.0671 -0.0508 0.8676
C20 C 1.1899(6) 0.0595(17) 0.8566(3)
H22 H 1.2302 -0.0717 0.8731
C21 C 1.2289(7) 0.2384(18) 0.8359(3)
H23 H 1.2952 0.2287 0.8387
C22 C 1.1697(7) 0.4305(17) 0.8113(3)
H24 H 1.1958 0.5517 0.7971
C23 C 1.0717(7) 0.4453(15) 0.8073(3)
H25 H 1.0324 0.5772 0.7905
loop_
_geom_bond_atom_site_label_1
_geom_bond_atom_site_label_2
_geom_bond_site_symmetry_1
_geom_bond_site_symmetry_2
O1 N1 1_555 1_555
O2 N1 1_555 1_555
O3 C7 1_555 1_555
O4 C7 1_555 1_555
N1 C1 1_555 1_555
C1 C2 1_555 1_555
C2 H1 1_555 1_555
C3 C2 1_555 1_555
H2 C3 1_555 1_555
C4 C3 1_555 1_555
C5 C4 1_555 1_555
H3 C5 1_555 1_555
C6 C1 1_555 1_555
H4 C6 1_555 1_555
C7 C4 1_555 1_555
C8 O4 1_555 1_555
H5 C8 1_555 1_555
H6 C8 1_555 1_555
C9 C8 1_555 1_555
H7 C9 1_555 1_555
C10 C9 1_555 1_555
C11 C10 1_555 1_555
H8 C11 1_555 1_555
C12 C9 1_555 1_555
C13 C12 1_555 1_555
H9 C13 1_555 1_555
H10 C13 1_555 1_555
H11 C13 1_555 1_555
C14 C12 1_555 1_555
H12 C14 1_555 1_555
H13 C14 1_555 1_555
C15 C14 1_555 1_555
H14 C15 1_555 1_555
H15 C15 1_555 1_555
C16 C15 1_555 1_555
H16 C16 1_555 1_555
H17 C16 1_555 1_555
C17 C16 1_555 1_555
H18 C17 1_555 1_555
H19 C17 1_555 1_555
H20 C17 1_555 1_555
C18 C10 1_555 1_555
C19 C18 1_555 1_555
H21 C19 1_555 1_555
C20 C19 1_555 1_555
H22 C20 1_555 1_555
C21 C20 1_555 1_555
H23 C21 1_555 1_555
C22 C21 1_555 1_555
H24 C22 1_555 1_555
C23 C18 1_555 1_555
H25 C23 1_555 1_555
C5 C6 1_555 1_555
C11 C12 1_555 1_555
C22 C23 1_555 1_555

#END
