
#######################################################################
#
#                 Cambridge Crystallographic Data Centre
#                                CCDC 
#
#######################################################################
#
# If this CIF has been generated from an entry in the Cambridge 
# Structural Database, then it will include bibliographic, chemical, 
# crystal, experimental, refinement or atomic coordinate data resulting 
# from the CCDC's data processing and validation procedures.
#
#######################################################################

data_SAYXAS
_chemical_formula_moiety         'C19 H11 N7 O2 S2'
_chemical_name_systematic        
N-(4-Methylpyrimidin-2-yl)-bis(1,2,3-benzothiadiazole-7-carbonyl)amine
_symmetry_cell_setting           monoclinic
_symmetry_space_group_name_H-M   'P 21'
_symmetry_Int_Tables_number      4
_space_group_name_Hall           'P 2yb'
loop_
_symmetry_equiv_pos_site_id
_symmetry_equiv_pos_as_xyz
1 x,y,z
2 -x,1/2+y,-z
_cell_length_a                   11.689(3)
_cell_length_b                   12.283(3)
_cell_length_c                   13.223(3)
_cell_angle_alpha                90
_cell_angle_beta                 95.771(4)
_cell_angle_gamma                90
_cell_volume                     1888.88
_exptl_crystal_colour            'light yellow'
_exptl_crystal_description       prism
_cell_formula_units_Z            4
_exptl_crystal_recrystallization_method 'petroleum ether/ethyl acetate'
loop_
_atom_site_label
_atom_site_type_symbol
_atom_site_fract_x
_atom_site_fract_y
_atom_site_fract_z
S1 S 0.64205(9) 0.80495(8) 0.02637(7)
S2 S 0.58035(10) 0.77804(10) 0.64852(8)
O1 O 0.4912(2) 0.7378(2) 0.1655(2)
O2 O 0.6199(2) 0.7827(2) 0.42626(19)
N1 N 0.5269(2) 0.6563(2) 0.32147(19)
N2 N 0.3591(2) 0.6388(2) 0.3984(2)
N3 N 0.3786(3) 0.5501(3) 0.2406(2)
N4 N 0.7626(3) 0.8221(3) -0.0345(2)
N5 N 0.8543(3) 0.7876(3) 0.0158(2)
N6 N 0.5913(4) 0.7315(5) 0.7708(3)
N7 N 0.6050(3) 0.6288(5) 0.7763(3)
C1 C 0.4136(3) 0.6117(3) 0.3186(3)
C2 C 0.2718(3) 0.5132(3) 0.2415(3)
H1 H 0.2401 0.4721 0.1867
C3 C 0.2060(3) 0.5333(3) 0.3205(3)
H2 H 0.1318 0.5057 0.3198
C4 C 0.2537(3) 0.5955(3) 0.4001(3)
C5 C 0.1941(4) 0.6186(4) 0.4925(3)
H3 H 0.2153 0.6898 0.5179
H4 H 0.2162 0.5652 0.5438
H5 H 0.1124 0.6156 0.4753
C6 C 0.5605(3) 0.7026(3) 0.2301(3)
C7 C 0.6854(3) 0.7013(2) 0.2179(2)
C8 C 0.7694(3) 0.6533(3) 0.2830(2)
H6 H 0.7488 0.6203 0.3419
C9 C 0.8848(3) 0.6523(3) 0.2639(3)
H7 H 0.9396 0.6202 0.3104
C10 C 0.9175(3) 0.6980(3) 0.1772(3)
H8 H 0.9943 0.6980 0.1644
C11 C 0.8343(3) 0.7443(3) 0.1087(3)
C12 C 0.7188(3) 0.7481(3) 0.1286(2)
C13 C 0.5797(3) 0.6922(3) 0.4166(2)
C14 C 0.5884(3) 0.6120(3) 0.5015(2)
C15 C 0.6004(3) 0.5018(3) 0.4864(3)
H9 H 0.5978 0.4744 0.4206
C16 C 0.6166(3) 0.4308(3) 0.5693(4)
H10 H 0.6263 0.3569 0.5577
C17 C 0.6185(3) 0.4672(4) 0.6659(4)
H11 H 0.6276 0.4191 0.7204
C18 C 0.6065(3) 0.5781(4) 0.6819(3)
C19 C 0.5920(3) 0.6497(3) 0.6005(3)
S3 S 0.13445(9) -0.14450(9) -0.24325(7)
S4 S 0.06695(11) -0.12617(9) 0.37299(7)
O3 O -0.01431(19) -0.0520(2) -0.11421(17)
O4 O 0.1135(2) -0.1220(2) 0.15091(17)
N8 N 0.0207(2) 0.0090(2) 0.0499(2)
N9 N -0.1469(2) 0.0240(3) 0.1275(2)
N10 N -0.1241(3) 0.1255(2) -0.0225(2)
N11 N 0.2550(4) -0.1690(3) -0.3034(3)
N12 N 0.3453(3) -0.1354(3) -0.2537(3)
N13 N 0.0774(4) -0.0831(4) 0.4964(3)
N14 N 0.0953(3) 0.0184(4) 0.5052(3)
C20 C -0.0916(3) 0.0560(3) 0.0502(3)
C21 C -0.2302(3) 0.1666(3) -0.0182(3)
H12 H -0.2602 0.2140 -0.0690
C22 C -0.2942(3) 0.1410(3) 0.0578(3)
H13 H -0.3668 0.1714 0.0599
C23 C -0.2515(3) 0.0701(4) 0.1314(3)
C24 C -0.3134(4) 0.0369(4) 0.2214(4)
H14 H -0.3409 0.1007 0.2532
H15 H -0.2614 -0.0019 0.2694
H16 H -0.3773 -0.0092 0.1988
C25 C 0.0560(3) -0.0322(3) -0.0431(2)
C26 C 0.1806(3) -0.0392(3) -0.0532(2)
C27 C 0.2668(3) 0.0067(3) 0.0132(3)
H17 H 0.2476 0.0405 0.0721
C28 C 0.3815(3) 0.0033(3) -0.0066(3)
H18 H 0.4376 0.0329 0.0404
C29 C 0.4131(3) -0.0426(3) -0.0934(3)
H19 H 0.4896 -0.0427 -0.1070
C30 C 0.3290(3) -0.0888(3) -0.1608(3)
C31 C 0.2129(3) -0.0863(3) -0.1420(2)
C32 C 0.0734(3) -0.0325(3) 0.1436(2)
C33 C 0.0816(3) 0.0446(3) 0.2304(3)
C34 C 0.0976(3) 0.1547(3) 0.2208(3)
H20 H 0.0961 0.1852 0.1563
C35 C 0.1162(3) 0.2217(3) 0.3058(4)
H21 H 0.1284 0.2957 0.2966
C36 C 0.1172(3) 0.1823(4) 0.4015(4)
H22 H 0.1294 0.2282 0.4575
C37 C 0.0992(3) 0.0708(3) 0.4136(3)
C38 C 0.0843(3) 0.0029(3) 0.3301(2)
loop_
_geom_bond_atom_site_label_1
_geom_bond_atom_site_label_2
_geom_bond_site_symmetry_1
_geom_bond_site_symmetry_2
S1 N4 1_555 1_555
S2 N6 1_555 1_555
S3 N11 1_555 1_555
S4 N13 1_555 1_555
O1 C6 1_555 1_555
O2 C13 1_555 1_555
O3 C25 1_555 1_555
O4 C32 1_555 1_555
N1 C1 1_555 1_555
N2 C1 1_555 1_555
N3 C1 1_555 1_555
N4 N5 1_555 1_555
N5 C11 1_555 1_555
N6 N7 1_555 1_555
N7 C18 1_555 1_555
N8 C20 1_555 1_555
N9 C20 1_555 1_555
N10 C20 1_555 1_555
N11 N12 1_555 1_555
N12 C30 1_555 1_555
N13 N14 1_555 1_555
N14 C37 1_555 1_555
C2 N3 1_555 1_555
H1 C2 1_555 1_555
C3 C2 1_555 1_555
H2 C3 1_555 1_555
C4 N2 1_555 1_555
C5 C4 1_555 1_555
H3 C5 1_555 1_555
H4 C5 1_555 1_555
H5 C5 1_555 1_555
C6 N1 1_555 1_555
C7 C6 1_555 1_555
C8 C7 1_555 1_555
H6 C8 1_555 1_555
C9 C8 1_555 1_555
H7 C9 1_555 1_555
C10 C9 1_555 1_555
H8 C10 1_555 1_555
C11 C10 1_555 1_555
C12 S1 1_555 1_555
C13 N1 1_555 1_555
C14 C13 1_555 1_555
C15 C14 1_555 1_555
H9 C15 1_555 1_555
C16 C15 1_555 1_555
H10 C16 1_555 1_555
C17 C16 1_555 1_555
H11 C17 1_555 1_555
C18 C17 1_555 1_555
C19 S2 1_555 1_555
C21 N10 1_555 1_555
H12 C21 1_555 1_555
C22 C21 1_555 1_555
H13 C22 1_555 1_555
C23 N9 1_555 1_555
C24 C23 1_555 1_555
H14 C24 1_555 1_555
H15 C24 1_555 1_555
H16 C24 1_555 1_555
C25 N8 1_555 1_555
C26 C25 1_555 1_555
C27 C26 1_555 1_555
H17 C27 1_555 1_555
C28 C27 1_555 1_555
H18 C28 1_555 1_555
C29 C28 1_555 1_555
H19 C29 1_555 1_555
C30 C29 1_555 1_555
C31 S3 1_555 1_555
C32 N8 1_555 1_555
C33 C32 1_555 1_555
C34 C33 1_555 1_555
H20 C34 1_555 1_555
C35 C34 1_555 1_555
H21 C35 1_555 1_555
C36 C35 1_555 1_555
H22 C36 1_555 1_555
C37 C36 1_555 1_555
C38 S4 1_555 1_555
C3 C4 1_555 1_555
C7 C12 1_555 1_555
C11 C12 1_555 1_555
C14 C19 1_555 1_555
C18 C19 1_555 1_555
C22 C23 1_555 1_555
C26 C31 1_555 1_555
C30 C31 1_555 1_555
C33 C38 1_555 1_555
C37 C38 1_555 1_555

#END
