
#######################################################################
#
#                 Cambridge Crystallographic Data Centre
#                                CCDC 
#
#######################################################################
#
# If this CIF has been generated from an entry in the Cambridge 
# Structural Database, then it will include bibliographic, chemical, 
# crystal, experimental, refinement or atomic coordinate data resulting 
# from the CCDC's data processing and validation procedures.
#
#######################################################################

data_SAYXUN
_chemical_formula_moiety         
'C18 H22 N2 O4 2+,2(F6 P1 1-),2(C37 H45 N1 O14),2(C3 H6 O1)'
_chemical_name_systematic        
"[3]-(1,1'-Ethane-1,2-diylbis(4-(ethoxycarbonyl)pyridinium))-bis(4,7,10,13,16,22,25,28,31,34,38,46-dodecaoxa-48-azapentacyclo[17.17.11.1^3,35^.1^17,21^.1^40,44^]pentaconta-1,3(49),17(50),18,20,35,40(48),41,43-nonaene-39,45-dione)-rotaxane bis(hexafluorophosphate) acetone solvate"
_symmetry_cell_setting           triclinic
_symmetry_space_group_name_H-M   'P -1'
_symmetry_Int_Tables_number      2
_space_group_name_Hall           '-P 1'
loop_
_symmetry_equiv_pos_site_id
_symmetry_equiv_pos_as_xyz
1 x,y,z
2 -x,-y,-z
_cell_length_a                   14.0344(3)
_cell_length_b                   18.4366(4)
_cell_length_c                   22.9640(5)
_cell_angle_alpha                99.5446(17)
_cell_angle_beta                 104.4477(18)
_cell_angle_gamma                108.5331(19)
_cell_volume                     5257.54
_exptl_crystal_colour            yellow
_exptl_crystal_description       block
_cell_formula_units_Z            2
loop_
_atom_site_label
_atom_site_type_symbol
_atom_site_fract_x
_atom_site_fract_y
_atom_site_fract_z
P1 P 0.73507(12) -0.28847(8) 0.09280(8)
F1 F 0.6599(3) -0.2789(3) 0.1322(2)
F2 F 0.6669(5) -0.2819(5) 0.0343(3)
F3 F 0.6643(11) -0.3741(3) 0.0716(5)
F4 F 0.8027(6) -0.3091(8) 0.0586(4)
F5 F 0.7905(10) -0.2014(4) 0.1152(4)
F11 F 0.8066(9) -0.2889(8) 0.1554(4)
P2 P 0.44755(13) -0.45024(13) 0.32015(7)
F6 F 0.4497(3) -0.4835(3) 0.37979(17)
F7 F 0.4846(4) -0.5166(3) 0.2901(2)
F8 F 0.5685(4) -0.3992(3) 0.3526(2)
F9 F 0.4448(6) -0.4204(4) 0.2603(2)
F10 F 0.4222(10) -0.3825(7) 0.3511(3)
F12 F 0.3328(4) -0.5087(8) 0.2898(2)
O1 O 0.49367(19) -0.19504(16) 0.21913(11)
O2 O 0.3975(2) -0.29563(17) 0.13223(12)
O12 O 0.1935(2) 0.13926(17) 0.15005(14)
O13 O 0.1937(2) -0.09932(17) 0.21518(15)
O15 O 0.0529(2) -0.38260(17) 0.19596(15)
O16 O 0.1528(2) 0.04175(17) 0.24878(14)
O19 O 0.3774(2) -0.2299(2) -0.05733(12)
O20 O 0.1712(2) 0.0740(2) 0.02308(15)
O25 O -0.2634(3) -0.5263(2) -0.01267(17)
O26 O 0.1521(2) -0.0551(2) -0.07661(17)
O27 O 0.5200(3) -0.1518(3) -0.07328(16)
O33 O -0.0727(5) -0.3411(4) -0.1745(3)
O34 O -0.143(3) -0.4930(9) 0.1155(15)
O35 O -0.2187(8) -0.4551(8) -0.0999(7)
N3 N 0.4768(2) -0.2000(2) 0.06268(14)
C2 C 0.4635(3) -0.2303(2) 0.15763(16)
C6 C 0.2355(3) -0.3103(2) 0.22331(16)
H1 H 0.2465 -0.3572 0.2247
C9 C 0.5206(3) -0.1763(2) 0.12484(16)
C12 C 0.3208(3) -0.2403(2) 0.23538(16)
C13 C 0.3046(3) -0.1705(3) 0.23283(17)
H4 H 0.3621 -0.1235 0.2408
C14 C 0.2020(3) -0.1708(2) 0.21830(18)
C15 C 0.1155(3) -0.2407(2) 0.20717(18)
H5 H 0.0472 -0.2407 0.1986
C16 C 0.4317(3) -0.2408(3) 0.25225(17)
H6 H 0.4668 -0.2185 0.2969
H7 H 0.4278 -0.2951 0.2418
C19 C 0.1332(3) -0.3105(2) 0.20902(17)
C28 C 0.6098(3) -0.1085(2) 0.15637(18)
H16 H 0.6349 -0.0928 0.1998
C30 C -0.1268(3) -0.4684(3) 0.1712(2)
H19 H -0.0967 -0.4997 0.1944
H20 H -0.1924 -0.4711 0.1791
C35 C 0.5263(3) -0.1561(3) 0.03051(18)
C37 C 0.0890(3) -0.0969(3) 0.2007(2)
H27 H 0.0612 -0.1055 0.2347
H28 H 0.0414 -0.1383 0.1633
C40 C 0.0383(4) -0.1938(3) -0.1115(2)
H33 H -0.0213 -0.1830 -0.1093
C45 C 0.6198(3) -0.0897(3) 0.05782(19)
H42 H 0.6539 -0.0628 0.0333
C48 C 0.0668(3) -0.0354(3) -0.0644(2)
H46 H 0.0439 -0.0610 -0.0340
H47 H 0.0069 -0.0534 -0.1025
C49 C 0.0963(3) -0.0175(2) 0.19109(19)
H48 H 0.1327 -0.0061 0.1609
H49 H 0.0256 -0.0174 0.1749
C53 C 0.2100(4) 0.1563(3) 0.0513(2)
H54 H 0.1515 0.1745 0.0459
H55 H 0.2583 0.1847 0.0318
C57 C 0.1633(4) 0.1201(3) 0.2459(2)
H61 H 0.1848 0.1531 0.2881
H62 H 0.0942 0.1191 0.2236
C58 C 0.2157(3) -0.2266(3) -0.11949(18)
C59 C 0.0317(4) -0.2705(4) -0.1297(3)
C60 C -0.0503(3) -0.3841(3) 0.1902(2)
H63 H -0.0708 -0.3573 0.1591
H64 H -0.0513 -0.3566 0.2297
C62 C 0.2667(4) 0.1724(3) 0.1194(2)
H67 H 0.3206 0.1495 0.1248
H68 H 0.3016 0.2293 0.1380
C63 C 0.6612(3) -0.0643(3) 0.12226(19)
H69 H 0.7219 -0.0187 0.1422
C64 C 0.1057(4) 0.0524(3) -0.0401(2)
H70 H 0.1460 0.0782 -0.0646
H71 H 0.0461 0.0690 -0.0427
C66 C 0.1352(3) -0.1335(3) -0.0966(2)
C68 C 0.4757(3) -0.1791(3) -0.03889(18)
C70 C 0.2237(4) -0.1497(4) -0.1011(2)
H77 H 0.2886 -0.1082 -0.0916
C72 C 0.2417(4) 0.1584(3) 0.2148(2)
H78 H 0.2699 0.2155 0.2317
H79 H 0.3004 0.1404 0.2236
C73 C 0.1199(4) -0.2876(3) -0.1340(2)
H80 H 0.1138 -0.3399 -0.1465
C74 C 0.3131(4) -0.2424(4) -0.12191(18)
H81 H 0.2937 -0.2965 -0.1458
H82 H 0.3528 -0.2065 -0.1415
C77 C -0.0678(8) -0.3975(6) -0.1432(5)
H87 H -0.0202 -0.4066 -0.1091
H88 H -0.0475 -0.4086 -0.1801
C78 C -0.3098(5) -0.5506(4) 0.0336(4)
H89 H -0.3760 -0.5960 0.0134
H90 H -0.3254 -0.5078 0.0546
C79 C -0.2365(4) -0.5717(4) 0.0796(3)
H91 H -0.2703 -0.5857 0.1103
H92 H -0.2315 -0.6195 0.0580
C80 C -0.1812(9) -0.4532(7) -0.1552(5)
H93 H -0.2341 -0.4385 -0.1811
H94 H -0.1935 -0.5086 -0.1713
C99 C -0.3033(7) -0.5053(4) -0.1094(4)
H125 H -0.3541 -0.4938 -0.1399
H127 H -0.3015 -0.5568 -0.1254
C100 C -0.3321(6) -0.5048(5) -0.0551(4)
H129 H -0.3283 -0.4521 -0.0368
H130 H -0.4045 -0.5418 -0.0653
O3 O 0.5113(2) 0.16655(17) 0.27671(11)
O4 O 0.8443(2) -0.06741(16) 0.50071(13)
O5 O 0.7968(2) -0.17279(17) 0.37955(13)
O6 O 0.8032(2) 0.06116(17) 0.26207(13)
O7 O 0.6084(2) 0.22933(16) 0.55254(11)
O8 O 0.8243(2) -0.07187(17) 0.29805(13)
O9 O 0.6052(2) 0.26953(17) 0.36145(13)
O10 O 0.8594(2) 0.07460(16) 0.58335(14)
O11 O 1.2457(2) 0.51200(16) 0.50198(13)
O14 O 0.9639(2) 0.34368(17) 0.31206(14)
O17 O 1.0484(2) 0.36055(16) 0.63735(15)
O18 O 1.1289(2) 0.50518(18) 0.37439(14)
O21 O 0.4825(3) 0.1342(2) 0.57033(14)
O24 O 1.2147(3) 0.4645(2) 0.60603(16)
N4 N 0.5184(2) 0.18093(18) 0.43269(13)
C1 C 0.6842(3) 0.2080(2) 0.25945(16)
C3 C 0.7992(3) 0.1353(2) 0.27001(17)
C4 C 0.8726(3) 0.2773(2) 0.29347(17)
C5 C 0.4768(3) 0.1538(2) 0.37033(17)
C7 C 0.9633(3) 0.2166(2) 0.61106(17)
H2 H 1.0253 0.2093 0.6096
C8 C 0.8689(3) 0.1516(2) 0.59850(17)
C10 C 0.5394(3) 0.2043(2) 0.33759(16)
C11 C 0.8879(3) 0.2055(2) 0.29016(17)
H3 H 0.9559 0.2048 0.3012
C17 C 0.9621(3) 0.2921(2) 0.62562(17)
C18 C 0.7774(3) 0.2394(2) 0.61638(15)
C20 C 0.5188(3) 0.1677(2) 0.53539(17)
C21 C 0.7719(3) 0.2791(2) 0.27910(17)
H8 H 0.7628 0.3273 0.2825
C22 C 0.6971(3) 0.1368(3) 0.25430(17)
H9 H 0.6379 0.0896 0.2404
C23 C 0.4668(3) 0.1412(2) 0.46593(17)
C24 C 0.8698(3) 0.3044(2) 0.62815(17)
H10 H 0.8703 0.3556 0.6376
C25 C 0.9046(3) 0.0546(3) 0.2826(2)
H11 H 0.9368 0.0772 0.3274
H12 H 0.9514 0.0832 0.2624
C26 C 0.7768(3) 0.1637(2) 0.60161(17)
H13 H 0.7146 0.1203 0.5936
C27 C 0.7960(3) -0.1553(2) 0.27938(19)
H14 H 0.8594 -0.1677 0.2864
H15 H 0.7555 -0.1759 0.2353
C29 C 0.9206(3) -0.0296(2) 0.56097(19)
H17 H 0.9838 -0.0414 0.5630
H18 H 0.8920 -0.0494 0.5921
C32 C 0.7381(3) -0.1876(3) 0.4213(2)
H21 H 0.7031 -0.2443 0.4145
H22 H 0.6842 -0.1648 0.4141
C34 C 0.9487(3) 0.0582(2) 0.57427(19)
H24 H 1.0103 0.0852 0.6114
H25 H 0.9655 0.0768 0.5396
C38 C 1.1949(4) 0.4620(3) 0.3903(2)
H29 H 1.2232 0.4508 0.3569
H30 H 1.1536 0.4119 0.3957
C39 C 0.6768(3) 0.2520(3) 0.61717(16)
H31 H 0.6418 0.2197 0.6407
H32 H 0.6927 0.3073 0.6365
C41 C 1.2287(3) 0.4387(3) 0.6603(2)
H34 H 1.2180 0.4734 0.6926
H35 H 1.3001 0.4396 0.6753
C42 C 0.9525(4) 0.4155(3) 0.3034(2)
H36 H 0.9229 0.4352 0.3336
H37 H 0.9045 0.4059 0.2619
C43 C 0.7310(3) -0.1922(3) 0.3168(2)
H38 H 0.6740 -0.1728 0.3152
H39 H 0.6997 -0.2494 0.2997
C44 C 0.5742(3) 0.2105(3) 0.24301(17)
H40 H 0.5800 0.2653 0.2532
H41 H 0.5384 0.1879 0.1985
C46 C 0.3849(3) 0.0872(3) 0.33998(18)
H43 H 0.3604 0.0688 0.2967
C47 C 1.2845(3) 0.5096(3) 0.4496(2)
H44 H 1.3376 0.4859 0.4555
H45 H 1.3177 0.5632 0.4468
C50 C 0.3305(3) 0.0489(3) 0.37544(19)
H50 H 0.2669 0.0054 0.3563
C51 C 0.3712(3) 0.0757(3) 0.43934(19)
H51 H 0.3360 0.0508 0.4642
C52 C 1.3307(3) 0.5395(3) 0.5592(2)
H52 H 1.3790 0.5923 0.5627
H53 H 1.3699 0.5046 0.5601
C54 C 0.8883(4) -0.0310(3) 0.2663(2)
H56 H 0.8545 -0.0537 0.2217
H57 H 0.9565 -0.0366 0.2778
C55 C 1.0604(4) 0.4761(3) 0.3117(2)
H58 H 1.0939 0.4521 0.2862
H59 H 1.0510 0.5204 0.2967
C61 C 1.1495(3) 0.3562(3) 0.6450(2)
H65 H 1.1495 0.3242 0.6069
H66 H 1.1673 0.3320 0.6785
C65 C 0.8127(4) -0.1511(2) 0.4871(2)
H72 H 0.7776 -0.1709 0.5159
H73 H 0.8746 -0.1653 0.4918
C75 C 1.2885(4) 0.5415(3) 0.6125(2)
H83 H 1.3464 0.5584 0.6514
H84 H 1.2536 0.5792 0.6134
O22 O 0.1150(3) -0.10799(18) 0.06067(15)
O23 O 0.2727(3) -0.11711(19) 0.06391(17)
N2 N 0.0563(3) -0.3919(2) 0.04108(17)
C31 C 0.1308(3) -0.2335(2) 0.05004(18)
C33 C 0.1598(3) -0.3534(2) 0.0493(2)
H23 H 0.2053 -0.3808 0.0525
C36 C 0.1983(3) -0.2742(2) 0.05277(19)
H26 H 0.2692 -0.2481 0.0570
C56 C -0.0120(3) -0.3545(3) 0.0368(2)
H60 H -0.0833 -0.3827 0.0305
C67 C 0.0166(4) -0.4787(2) 0.0342(2)
H74 H -0.0435 -0.4943 0.0494
H75 H 0.0720 -0.4928 0.0584
C69 C 0.0237(3) -0.2745(3) 0.0418(2)
H76 H -0.0228 -0.2479 0.0396
C71 C 0.1707(4) -0.1456(2) 0.05838(19)
C76 C 0.3256(5) -0.0313(3) 0.0772(3)
H85 H 0.3712 -0.0189 0.0517
H86 H 0.2733 -0.0073 0.0675
C81 C 0.3872(6) -0.0007(4) 0.1417(4)
H95 H 0.4418 -0.0219 0.1503
H96 H 0.3422 -0.0157 0.1665
H97 H 0.4191 0.0561 0.1517
O22A O -0.1150(3) -0.89201(18) -0.06067(15)
O23A O -0.2727(3) -0.88289(19) -0.06391(17)
N2A N -0.0563(3) -0.6081(2) -0.04108(17)
C31A C -0.1308(3) -0.7665(2) -0.05004(18)
C33A C -0.1598(3) -0.6466(2) -0.0493(2)
H23A H -0.2053 -0.6192 -0.0525
C36A C -0.1983(3) -0.7258(2) -0.05277(19)
H26A H -0.2692 -0.7519 -0.0570
C56A C 0.0120(3) -0.6455(3) -0.0368(2)
H60A H 0.0833 -0.6173 -0.0305
C67A C -0.0166(4) -0.5213(2) -0.0342(2)
H74A H 0.0435 -0.5057 -0.0494
H75A H -0.0720 -0.5072 -0.0584
C69A C -0.0237(3) -0.7255(3) -0.0418(2)
H76A H 0.0228 -0.7521 -0.0396
C71A C -0.1707(4) -0.8544(2) -0.05838(19)
C76A C -0.3256(5) -0.9687(3) -0.0772(3)
H85A H -0.3712 -0.9811 -0.0517
H86A H -0.2733 -0.9927 -0.0675
C81A C -0.3872(6) -0.9993(4) -0.1417(4)
H95A H -0.4418 -0.9781 -0.1503
H96A H -0.3422 -0.9843 -0.1665
H97A H -0.4191 -1.0561 -0.1517
O29 O 0.6537(3) -0.5865(2) 0.20417(17)
C82 C 0.5831(4) -0.5691(3) 0.1753(2)
C83 C 0.5932(5) -0.4860(4) 0.1766(3)
H98 H 0.5732 -0.4813 0.1347
H99 H 0.6655 -0.4508 0.1985
H100 H 0.5476 -0.4723 0.1975
C98 C 0.478(3) -0.632(2) 0.1460(13)
H122 H 0.4369 -0.6316 0.1737
H123 H 0.4849 -0.6822 0.1370
H124 H 0.4428 -0.6228 0.1079
O30 O 0.2144(7) -0.7104(5) 0.4249(4)
C84 C 0.3963(7) -0.6611(4) 0.4890(4)
H101 H 0.4343 -0.6959 0.4869
H102 H 0.3695 -0.6634 0.5236
H103 H 0.4431 -0.6077 0.4946
C85 C 0.3363(9) -0.6803(5) 0.3716(4)
H104 H 0.3728 -0.7153 0.3645
H105 H 0.3819 -0.6268 0.3767
H106 H 0.2733 -0.6952 0.3365
C86 C 0.3059(6) -0.6862(4) 0.4300(5)
O31 O 0.8884(3) 0.10869(19) 0.42536(15)
O32 O 0.7270(3) 0.10964(18) 0.4201(2)
N1 N 0.9537(2) 0.39269(18) 0.49965(14)
C87 C 1.0155(3) 0.3554(2) 0.48395(18)
H107 H 1.0860 0.3847 0.4892
C88 C 0.8697(3) 0.2316(2) 0.45255(16)
C89 C 0.8060(3) 0.2713(2) 0.46780(17)
H108 H 0.7348 0.2433 0.4620
C90 C 0.9998(3) 0.4797(2) 0.52626(18)
H109 H 1.0718 0.4957 0.5540
H110 H 0.9583 0.4954 0.5502
C91 C 0.8302(4) 0.1425(2) 0.43079(18)
C92 C 0.9755(3) 0.2749(2) 0.46032(18)
H111 H 1.0185 0.2493 0.4495
C93 C 0.8500(3) 0.3518(2) 0.49143(17)
H112 H 0.8084 0.3789 0.5020
C94 C 0.6240(8) -0.0117(6) 0.3454(5)
H113 H 0.5807 0.0194 0.3396
H114 H 0.5839 -0.0614 0.3511
H115 H 0.6457 -0.0214 0.3094
C97 C 0.6936(8) 0.0202(5) 0.3863(5)
H120 H 0.7537 0.0155 0.3747
H121 H 0.6857 -0.0089 0.4174
O31A O 1.1116(3) 0.89131(19) 0.57464(15)
O32A O 1.2730(3) 0.89036(18) 0.5799(2)
N1A N 1.0463(2) 0.60731(18) 0.50035(14)
C87A C 0.9845(3) 0.6446(2) 0.51605(18)
H107A H 0.9140 0.6153 0.5108
C88A C 1.1303(3) 0.7684(2) 0.54745(16)
C89A C 1.1940(3) 0.7287(2) 0.53220(17)
H108A H 1.2652 0.7567 0.5380
C90A C 1.0002(3) 0.5203(2) 0.47374(18)
H109A H 0.9282 0.5043 0.4460
H110A H 1.0417 0.5046 0.4498
C91A C 1.1698(4) 0.8575(2) 0.56921(18)
C92A C 1.0245(3) 0.7251(2) 0.53968(18)
H111A H 0.9815 0.7507 0.5505
C93A C 1.1500(3) 0.6482(2) 0.50857(17)
H112A H 1.1916 0.6211 0.4980
C94A C 1.3760(8) 1.0117(6) 0.6546(5)
H113A H 1.4193 0.9806 0.6604
H114A H 1.4161 1.0614 0.6489
H115A H 1.3543 1.0214 0.6906
C97A C 1.3064(8) 0.9798(5) 0.6137(5)
H120A H 1.2463 0.9845 0.6253
H121A H 1.3143 1.0089 0.5826
O28? O -0.0587(5) -0.3242(4) -0.1293(3)
O36? O -0.1707(8) -0.4336(9) -0.0951(7)
C95? C -0.1627(8) -0.3390(6) -0.1607(5)
H116? H -0.2244 -0.3799 -0.1927
H117? H -0.1676 -0.2883 -0.1632
C96? C -0.1683(10) -0.3496(6) -0.1024(5)
H118? H -0.2142 -0.3246 -0.0902
H119? H -0.0980 -0.3225 -0.0718
H126? H -0.3065 -0.5580 -0.1270
H128? H -0.3565 -0.4972 -0.1410
C101? C 0.5778(8) -0.0058(6) 0.3541(5)
C102? C 0.483(3) -0.632(2) 0.1200(13)
C103? C 0.6688(8) 0.0251(5) 0.4151(5)
H131? H 0.5951 0.0264 0.3265
H132? H 0.5147 -0.0035 0.3621
H133? H 0.5660 -0.0597 0.3352
H134? H -0.1968 -0.4681 0.1683
H135? H -0.1072 -0.4928 0.2041
H136? H 0.4760 -0.6127 0.0834
H137? H 0.4204 -0.6396 0.1317
H138? H 0.4927 -0.6814 0.1114
H139? H 0.6421 0.0201 0.4499
H140? H 0.7149 -0.0045 0.4148
O37? O -0.134(3) -0.5188(9) 0.1118(15)
loop_
_geom_bond_atom_site_label_1
_geom_bond_atom_site_label_2
_geom_bond_site_symmetry_1
_geom_bond_site_symmetry_2
P1 F1 1_555 1_555
P2 F6 1_555 1_555
F2 P1 1_555 1_555
F3 P1 1_555 1_555
F4 P1 1_555 1_555
F5 P1 1_555 1_555
F7 P2 1_555 1_555
F8 P2 1_555 1_555
F9 P2 1_555 1_555
F10 P2 1_555 1_555
F11 P1 1_555 1_555
F12 P2 1_555 1_555
O1 C2 1_555 1_555
O2 C2 1_555 1_555
O3 C10 1_555 1_555
O4 C29 1_555 1_555
O5 C32 1_555 1_555
O6 C3 1_555 1_555
O7 C20 1_555 1_555
O8 C27 1_555 1_555
O9 C10 1_555 1_555
O10 C8 1_555 1_555
O11 C47 1_555 1_555
O12 C62 1_555 1_555
O13 C14 1_555 1_555
O14 C4 1_555 1_555
O15 C19 1_555 1_555
O16 C49 1_555 1_555
O17 C17 1_555 1_555
O18 C38 1_555 1_555
O19 C68 1_555 1_555
O20 C53 1_555 1_555
O21 C20 1_555 1_555
O22 C71 1_555 1_555
O23 C71 1_555 1_555
O24 C41 1_555 1_555
O25 C78 1_555 1_555
O26 C48 1_555 1_555
O27 C68 1_555 1_555
O29 C82 1_555 1_555
O30 C86 1_555 1_555
O31 C91 1_555 1_555
O32 C91 1_555 1_555
O33 C59 1_555 1_555
O34 C30 1_555 1_555
O35 C80 1_555 1_555
N1 C87 1_555 1_555
N2 C33 1_555 1_555
N3 C9 1_555 1_555
N4 C5 1_555 1_555
C1 C21 1_555 1_555
C2 C9 1_555 1_555
C3 C11 1_555 1_555
C4 C11 1_555 1_555
C5 C10 1_555 1_555
C6 H1 1_555 1_555
C7 H2 1_555 1_555
C8 C7 1_555 1_555
C9 C28 1_555 1_555
C11 H3 1_555 1_555
C12 C6 1_555 1_555
C13 C12 1_555 1_555
H4 C13 1_555 1_555
C14 C13 1_555 1_555
C15 C14 1_555 1_555
H5 C15 1_555 1_555
C16 O1 1_555 1_555
H6 C16 1_555 1_555
H7 C16 1_555 1_555
C17 C7 1_555 1_555
C18 C24 1_555 1_555
C19 C6 1_555 1_555
C20 C23 1_555 1_555
C21 C4 1_555 1_555
H8 C21 1_555 1_555
C22 C1 1_555 1_555
H9 C22 1_555 1_555
C23 N4 1_555 1_555
C24 C17 1_555 1_555
H10 C24 1_555 1_555
C25 O6 1_555 1_555
H11 C25 1_555 1_555
H12 C25 1_555 1_555
C26 C8 1_555 1_555
H13 C26 1_555 1_555
C27 H14 1_555 1_555
H15 C27 1_555 1_555
C28 H16 1_555 1_555
C29 H17 1_555 1_555
H18 C29 1_555 1_555
C30 H19 1_555 1_555
H20 C30 1_555 1_555
C31 C36 1_555 1_555
C32 H21 1_555 1_555
H22 C32 1_555 1_555
C33 H23 1_555 1_555
C34 O10 1_555 1_555
H24 C34 1_555 1_555
H25 C34 1_555 1_555
C35 N3 1_555 1_555
C36 C33 1_555 1_555
H26 C36 1_555 1_555
C37 O13 1_555 1_555
H27 C37 1_555 1_555
H28 C37 1_555 1_555
C38 H29 1_555 1_555
H30 C38 1_555 1_555
C39 O7 1_555 1_555
H31 C39 1_555 1_555
H32 C39 1_555 1_555
C40 H33 1_555 1_555
C41 H34 1_555 1_555
H35 C41 1_555 1_555
C42 O14 1_555 1_555
H36 C42 1_555 1_555
H37 C42 1_555 1_555
C43 O5 1_555 1_555
H38 C43 1_555 1_555
H39 C43 1_555 1_555
C44 O3 1_555 1_555
H40 C44 1_555 1_555
H41 C44 1_555 1_555
C45 C35 1_555 1_555
H42 C45 1_555 1_555
C46 C5 1_555 1_555
H43 C46 1_555 1_555
C47 C38 1_555 1_555
H44 C47 1_555 1_555
H45 C47 1_555 1_555
C48 H46 1_555 1_555
H47 C48 1_555 1_555
C49 C37 1_555 1_555
H48 C49 1_555 1_555
H49 C49 1_555 1_555
C50 C46 1_555 1_555
H50 C50 1_555 1_555
C51 C23 1_555 1_555
H51 C51 1_555 1_555
C52 O11 1_555 1_555
H52 C52 1_555 1_555
H53 C52 1_555 1_555
C53 H54 1_555 1_555
H55 C53 1_555 1_555
C54 O8 1_555 1_555
H56 C54 1_555 1_555
H57 C54 1_555 1_555
C55 O18 1_555 1_555
H58 C55 1_555 1_555
H59 C55 1_555 1_555
C56 N2 1_555 1_555
H60 C56 1_555 1_555
C57 O16 1_555 1_555
H61 C57 1_555 1_555
H62 C57 1_555 1_555
C58 C70 1_555 1_555
C59 C40 1_555 1_555
C60 O15 1_555 1_555
H63 C60 1_555 1_555
H64 C60 1_555 1_555
C61 O17 1_555 1_555
H65 C61 1_555 1_555
H66 C61 1_555 1_555
C62 C53 1_555 1_555
H67 C62 1_555 1_555
H68 C62 1_555 1_555
C63 C28 1_555 1_555
H69 C63 1_555 1_555
C64 O20 1_555 1_555
H70 C64 1_555 1_555
H71 C64 1_555 1_555
C65 O4 1_555 1_555
H72 C65 1_555 1_555
H73 C65 1_555 1_555
C66 O26 1_555 1_555
C67 N2 1_555 1_555
H74 C67 1_555 1_555
H75 C67 1_555 1_555
C68 C35 1_555 1_555
C69 C31 1_555 1_555
H76 C69 1_555 1_555
C70 C66 1_555 1_555
H77 C70 1_555 1_555
C71 C31 1_555 1_555
C72 O12 1_555 1_555
H78 C72 1_555 1_555
H79 C72 1_555 1_555
C73 C58 1_555 1_555
H80 C73 1_555 1_555
C74 O19 1_555 1_555
H81 C74 1_555 1_555
H82 C74 1_555 1_555
C75 O24 1_555 1_555
H83 C75 1_555 1_555
H84 C75 1_555 1_555
C76 O23 1_555 1_555
H85 C76 1_555 1_555
H86 C76 1_555 1_555
C77 O33 1_555 1_555
H87 C77 1_555 1_555
H88 C77 1_555 1_555
C78 H89 1_555 1_555
H90 C78 1_555 1_555
C79 O34 1_555 1_555
H91 C79 1_555 1_555
H92 C79 1_555 1_555
C80 C77 1_555 1_555
H93 C80 1_555 1_555
H94 C80 1_555 1_555
C81 C76 1_555 1_555
H95 C81 1_555 1_555
H96 C81 1_555 1_555
H97 C81 1_555 1_555
C82 C83 1_555 1_555
C83 H98 1_555 1_555
H99 C83 1_555 1_555
H100 C83 1_555 1_555
C84 H101 1_555 1_555
H102 C84 1_555 1_555
H103 C84 1_555 1_555
C85 H104 1_555 1_555
H105 C85 1_555 1_555
H106 C85 1_555 1_555
C86 C84 1_555 1_555
C87 H107 1_555 1_555
C88 C89 1_555 1_555
C89 H108 1_555 1_555
C90 N1 1_555 1_555
H109 C90 1_555 1_555
H110 C90 1_555 1_555
C91 C88 1_555 1_555
C92 C87 1_555 1_555
H111 C92 1_555 1_555
C93 N1 1_555 1_555
H112 C93 1_555 1_555
C94 H113 1_555 1_555
H114 C94 1_555 1_555
H115 C94 1_555 1_555
C97 O32 1_555 1_555
H120 C97 1_555 1_555
H121 C97 1_555 1_555
C98 C82 1_555 1_555
H122 C98 1_555 1_555
H123 C98 1_555 1_555
H124 C98 1_555 1_555
C99 O35 1_555 1_555
H125 C99 1_555 1_555
H127 C99 1_555 1_555
C100 O25 1_555 1_555
H129 C100 1_555 1_555
H130 C100 1_555 1_555
O22A C71A 1_555 1_555
O23A C71A 1_555 1_555
O31A C91A 1_555 1_555
O32A C91A 1_555 1_555
N1A C87A 1_555 1_555
N2A C33A 1_555 1_555
C31A C36A 1_555 1_555
C33A H23A 1_555 1_555
C36A C33A 1_555 1_555
H26A C36A 1_555 1_555
C56A N2A 1_555 1_555
H60A C56A 1_555 1_555
C67A C67 1_555 1_555
H74A C67A 1_555 1_555
H75A C67A 1_555 1_555
C69A C31A 1_555 1_555
H76A C69A 1_555 1_555
C71A C31A 1_555 1_555
C76A O23A 1_555 1_555
H85A C76A 1_555 1_555
H86A C76A 1_555 1_555
C81A C76A 1_555 1_555
H95A C81A 1_555 1_555
H96A C81A 1_555 1_555
H97A C81A 1_555 1_555
C87A H107A 1_555 1_555
C88A C89A 1_555 1_555
C89A H108A 1_555 1_555
C90A C90 1_555 1_555
H109A C90A 1_555 1_555
H110A C90A 1_555 1_555
C91A C88A 1_555 1_555
C92A C87A 1_555 1_555
H111A C92A 1_555 1_555
C93A N1A 1_555 1_555
H112A C93A 1_555 1_555
C94A H113A 1_555 1_555
H114A C94A 1_555 1_555
H115A C94A 1_555 1_555
C97A O32A 1_555 1_555
H120A C97A 1_555 1_555
H121A C97A 1_555 1_555
C1 C44 1_555 1_555
C3 C22 1_555 1_555
C12 C16 1_555 1_555
C15 C19 1_555 1_555
C18 C26 1_555 1_555
C18 C39 1_555 1_555
C25 C54 1_555 1_555
C27 C43 1_555 1_555
C29 C34 1_555 1_555
C30 C60 1_555 1_555
C32 C65 1_555 1_555
C40 C66 1_555 1_555
C41 C61 1_555 1_555
C42 C55 1_555 1_555
C45 C63 1_555 1_555
C48 C64 1_555 1_555
C50 C51 1_555 1_555
C52 C75 1_555 1_555
C56 C69 1_555 1_555
C57 C72 1_555 1_555
C58 C74 1_555 1_555
C59 C73 1_555 1_555
C78 C79 1_555 1_555
C85 C86 1_555 1_555
C88 C92 1_555 1_555
C89 C93 1_555 1_555
C94 C97 1_555 1_555
C99 C100 1_555 1_555
N1A C90A 1_555 1_555
N2A C67A 1_555 1_555
C56A C69A 1_555 1_555
C88A C92A 1_555 1_555
C89A C93A 1_555 1_555
C94A C97A 1_555 1_555

#END
