
#######################################################################
#
#                 Cambridge Crystallographic Data Centre
#                                CCDC 
#
#######################################################################
#
# If this CIF has been generated from an entry in the Cambridge 
# Structural Database, then it will include bibliographic, chemical, 
# crystal, experimental, refinement or atomic coordinate data resulting 
# from the CCDC's data processing and validation procedures.
#
#######################################################################

data_SAZCIG
_chemical_formula_moiety         'C21 H21 N3 O2'
_chemical_name_systematic        
2-Diethylamino-3-(3-methylphenyl)-1-benzofuro(3,2-d)pyrimidin-4(3H)-one
_symmetry_cell_setting           monoclinic
_symmetry_space_group_name_H-M   'P 21/n'
_symmetry_Int_Tables_number      14
_space_group_name_Hall           '-P 2yn'
loop_
_symmetry_equiv_pos_site_id
_symmetry_equiv_pos_as_xyz
1 x,y,z
2 1/2-x,1/2+y,1/2-z
3 -x,-y,-z
4 1/2+x,1/2-y,1/2+z
_cell_length_a                   16.164(2)
_cell_length_b                   7.0063(9)
_cell_length_c                   17.627(2)
_cell_angle_alpha                90
_cell_angle_beta                 113.685(2)
_cell_angle_gamma                90
_cell_volume                     1828.11
_exptl_crystal_colour            colorless
_exptl_crystal_description       block
_chemical_melting_point          '420 K'
_cell_formula_units_Z            4
_exptl_crystal_recrystallization_method ethanol/dichloromethane
loop_
_atom_site_label
_atom_site_type_symbol
_atom_site_fract_x
_atom_site_fract_y
_atom_site_fract_z
C1 C 0.95360(17) 0.7410(3) 0.98052(16)
C2 C 0.87591(18) 0.7069(4) 0.99426(19)
H1 H 0.8197 0.6966 0.9504
C3 C 0.8853(2) 0.6889(4) 1.0754(2)
H2 H 0.8346 0.6654 1.0865
C4 C 0.9698(3) 0.7056(4) 1.1407(2)
H3 H 0.9738 0.6945 1.1946
C5 C 1.0471(2) 0.7376(4) 1.12877(18)
H4 H 1.1032 0.7485 1.1728
C6 C 1.03678(18) 0.7524(3) 1.04780(16)
C7 C 0.97333(15) 0.7684(3) 0.90768(16)
C8 C 1.06472(15) 0.7894(3) 0.93737(16)
C9 C 1.11201(17) 0.8024(4) 0.88575(17)
C10 C 0.95607(15) 0.8036(3) 0.77603(16)
C11 C 0.81104(16) 0.7555(4) 0.66205(18)
H5 H 0.7780 0.7999 0.6057
H6 H 0.7832 0.8114 0.6964
C12 C 0.8040(2) 0.5421(5) 0.6641(2)
H7 H 0.8283 0.4864 0.6277
H8 H 0.7417 0.5062 0.6464
H9 H 0.8374 0.4973 0.7195
C13 C 0.91523(18) 0.9989(4) 0.65194(16)
H10 H 0.9735 1.0553 0.6850
H11 H 0.8688 1.0882 0.6507
C14 C 0.9083(2) 0.9687(5) 0.56471(18)
H12 H 0.9580 0.8917 0.5661
H13 H 0.9100 1.0900 0.5400
H14 H 0.8525 0.9053 0.5326
C15 C 1.09034(16) 0.7812(4) 0.74123(16)
C16 C 1.14573(17) 0.9188(4) 0.73121(17)
H15 H 1.1564 1.0317 0.7614
C17 C 1.18547(18) 0.8880(5) 0.67595(19)
H16 H 1.2226 0.9808 0.6685
C18 C 1.17019(19) 0.7215(5) 0.63244(19)
H17 H 1.1977 0.7027 0.5958
C19 C 1.11495(17) 0.5793(4) 0.64104(17)
C20 C 1.07530(16) 0.6136(4) 0.69651(16)
H18 H 1.0377 0.5213 0.7037
C21 C 1.0999(2) 0.3947(5) 0.5943(2)
H19 H 1.0808 0.4207 0.5363
H20 H 1.0540 0.3223 0.6031
H21 H 1.1551 0.3229 0.6137
N1 N 0.91649(13) 0.7793(3) 0.82638(13)
N2 N 1.04982(12) 0.8066(3) 0.80046(12)
N3 N 0.90515(13) 0.8210(3) 0.69147(13)
O1 O 1.10616(11) 0.7816(2) 1.02253(10)
O2 O 1.19323(11) 0.8035(3) 0.90580(11)
loop_
_geom_bond_atom_site_label_1
_geom_bond_atom_site_label_2
_geom_bond_site_symmetry_1
_geom_bond_site_symmetry_2
C1 C2 1_555 1_555
C2 H1 1_555 1_555
C3 C2 1_555 1_555
H2 C3 1_555 1_555
C4 C3 1_555 1_555
H3 C4 1_555 1_555
C5 C4 1_555 1_555
H4 C5 1_555 1_555
C6 C1 1_555 1_555
C7 C1 1_555 1_555
C8 C7 1_555 1_555
C9 C8 1_555 1_555
C10 N1 1_555 1_555
C11 H5 1_555 1_555
H6 C11 1_555 1_555
C12 C11 1_555 1_555
H7 C12 1_555 1_555
H8 C12 1_555 1_555
H9 C12 1_555 1_555
C13 H10 1_555 1_555
H11 C13 1_555 1_555
C14 C13 1_555 1_555
H12 C14 1_555 1_555
H13 C14 1_555 1_555
H14 C14 1_555 1_555
C15 C16 1_555 1_555
C16 H15 1_555 1_555
C17 C16 1_555 1_555
H16 C17 1_555 1_555
C18 C17 1_555 1_555
H17 C18 1_555 1_555
C19 C18 1_555 1_555
C20 C15 1_555 1_555
H18 C20 1_555 1_555
C21 C19 1_555 1_555
H19 C21 1_555 1_555
H20 C21 1_555 1_555
H21 C21 1_555 1_555
N1 C7 1_555 1_555
N2 C9 1_555 1_555
N3 C10 1_555 1_555
O1 C6 1_555 1_555
O2 C9 1_555 1_555
C5 C6 1_555 1_555
C8 O1 1_555 1_555
C10 N2 1_555 1_555
C11 N3 1_555 1_555
C13 N3 1_555 1_555
C15 N2 1_555 1_555
C19 C20 1_555 1_555

#END
