
#######################################################################
#
#                 Cambridge Crystallographic Data Centre
#                                CCDC 
#
#######################################################################
#
# If this CIF has been generated from an entry in the Cambridge 
# Structural Database, then it will include bibliographic, chemical, 
# crystal, experimental, refinement or atomic coordinate data resulting 
# from the CCDC's data processing and validation procedures.
#
#######################################################################

data_SAZDAZ
_chemical_formula_moiety         'C14 H22 O4 S1'
_chemical_name_systematic        
(4aSR,7RS,9aSR)-7-t-Butyl-9a-methyl-5,5-dioxo-1,2,4a,9a-tetrahydro-8-oxa-5\l^6^-thiabenzocycloheptan-9-one
_symmetry_cell_setting           triclinic
_symmetry_space_group_name_H-M   'P -1'
_symmetry_Int_Tables_number      2
_space_group_name_Hall           '-P 1'
loop_
_symmetry_equiv_pos_site_id
_symmetry_equiv_pos_as_xyz
1 x,y,z
2 -x,-y,-z
_cell_length_a                   5.6949(5)
_cell_length_b                   11.1309(10)
_cell_length_c                   12.3085(11)
_cell_angle_alpha                112.539(2)
_cell_angle_beta                 90.278(2)
_cell_angle_gamma                100.160(2)
_cell_volume                     707.076
_exptl_crystal_colour            colorless
_exptl_crystal_description       block
_cell_formula_units_Z            2
_exptl_crystal_recrystallization_method 'ethyl acetate/hexanes'
loop_
_atom_site_label
_atom_site_type_symbol
_atom_site_fract_x
_atom_site_fract_y
_atom_site_fract_z
C1 C 0.5899(2) 0.79692(11) 0.24787(10)
H1 H 0.6928 0.7904 0.3097
H2 H 0.6815 0.7835 0.1774
O1 O 0.58397(14) 0.64822(8) 0.42340(7)
C2 C 0.5279(2) 0.93488(11) 0.29225(10)
H3 H 0.6738 1.0020 0.3309
H4 H 0.4711 0.9518 0.2242
O2 O 0.23163(15) 0.69741(8) 0.53791(7)
C3 C 0.3392(2) 0.94932(11) 0.37784(10)
H5 H 0.3137 1.0362 0.4230
O3 O 0.62698(15) 0.52763(8) 0.14649(7)
C4 C 0.2049(2) 0.84889(11) 0.39487(10)
H6 H 0.0946 0.8681 0.4540
C5 C 0.21794(19) 0.70603(11) 0.32544(9)
H7 H 0.0507 0.6570 0.2954
S1 S 0.32699(5) 0.63747(3) 0.42553(2)
C6 C 0.1931(2) 0.46497(10) 0.36741(9)
H8 H 0.2306 0.4264 0.4242
H9 H 0.0171 0.4556 0.3590
C7 C 0.27879(19) 0.38690(10) 0.24789(9)
H10 H 0.4534 0.3874 0.2578
O4 O 0.24300(14) 0.45871(7) 0.17398(6)
C8 C 0.4354(2) 0.55294(11) 0.17472(9)
C9 C 0.36523(19) 0.68776(10) 0.21616(9)
C10 C 0.1434(2) 0.24316(11) 0.18638(10)
C11 C 0.1893(2) 0.16651(11) 0.26202(11)
H11 H 0.1190 0.0724 0.2198
H12 H 0.1161 0.2014 0.3369
H13 H 0.3621 0.1767 0.2777
C12 C 0.2411(2) 0.18335(11) 0.06519(10)
H14 H 0.4145 0.1906 0.0754
H15 H 0.2068 0.2315 0.0168
H16 H 0.1645 0.0898 0.0259
C13 C -0.1261(2) 0.23669(11) 0.16971(10)
H17 H -0.1532 0.2980 0.1334
H18 H -0.1936 0.2617 0.2466
H19 H -0.2037 0.1462 0.1185
C14 C 0.2036(2) 0.68826(11) 0.11570(10)
H20 H 0.2933 0.6751 0.0456
H21 H 0.1513 0.7735 0.1406
H22 H 0.0634 0.6165 0.0970
loop_
_geom_bond_atom_site_label_1
_geom_bond_atom_site_label_2
_geom_bond_site_symmetry_1
_geom_bond_site_symmetry_2
C1 H1 1_555 1_555
H2 C1 1_555 1_555
O1 S1 1_555 1_555
C2 C1 1_555 1_555
H3 C2 1_555 1_555
H4 C2 1_555 1_555
O2 S1 1_555 1_555
C3 C2 1_555 1_555
H5 C3 1_555 1_555
O3 C8 1_555 1_555
C4 C3 1_555 1_555
H6 C4 1_555 1_555
C5 C4 1_555 1_555
H7 C5 1_555 1_555
S1 C5 1_555 1_555
C6 S1 1_555 1_555
H8 C6 1_555 1_555
H9 C6 1_555 1_555
C7 C6 1_555 1_555
H10 C7 1_555 1_555
O4 C7 1_555 1_555
C8 O4 1_555 1_555
C9 C1 1_555 1_555
C10 C7 1_555 1_555
C11 C10 1_555 1_555
H11 C11 1_555 1_555
H12 C11 1_555 1_555
H13 C11 1_555 1_555
C12 C10 1_555 1_555
H14 C12 1_555 1_555
H15 C12 1_555 1_555
H16 C12 1_555 1_555
C13 C10 1_555 1_555
H17 C13 1_555 1_555
H18 C13 1_555 1_555
H19 C13 1_555 1_555
C14 C9 1_555 1_555
H20 C14 1_555 1_555
H21 C14 1_555 1_555
H22 C14 1_555 1_555
C5 C9 1_555 1_555
C8 C9 1_555 1_555

#END
