
#######################################################################
#
#                 Cambridge Crystallographic Data Centre
#                                CCDC 
#
#######################################################################
#
# If this CIF has been generated from an entry in the Cambridge 
# Structural Database, then it will include bibliographic, chemical, 
# crystal, experimental, refinement or atomic coordinate data resulting 
# from the CCDC's data processing and validation procedures.
#
#######################################################################

data_SAZFOQ
_chemical_formula_moiety         'C15 H17 N1 O4 S1'
_chemical_name_systematic        
"Ethyl 4'-hydroxy-1-methyl-2-oxo-1,2,4',5'-tetrahydrospiro[indole-3,3'-thiophene]-2'-carboxylate"
_symmetry_cell_setting           orthorhombic
_symmetry_space_group_name_H-M   'P 21 21 21'
_symmetry_Int_Tables_number      19
_space_group_name_Hall           'P 2ac 2ab'
loop_
_symmetry_equiv_pos_site_id
_symmetry_equiv_pos_as_xyz
1 x,y,z
2 1/2+x,1/2-y,-z
3 -x,1/2+y,1/2-z
4 1/2-x,-y,1/2+z
_cell_length_a                   9.6237(6)
_cell_length_b                   11.9478(7)
_cell_length_c                   12.4395(8)
_cell_angle_alpha                90
_cell_angle_beta                 90
_cell_angle_gamma                90
_cell_volume                     1430.32
_exptl_crystal_description       block
_cell_formula_units_Z            4
loop_
_atom_site_label
_atom_site_type_symbol
_atom_site_fract_x
_atom_site_fract_y
_atom_site_fract_z
C1 C 0.59164(10) 0.56275(8) 0.38003(8)
C2 C 0.54448(9) 0.51157(8) 0.28570(8)
C3 C 0.63143(10) 0.43817(9) 0.23235(9)
H1 H 0.6025 0.4035 0.1693
C4 C 0.76399(11) 0.41669(9) 0.27457(9)
H2 H 0.8232 0.3676 0.2390
C5 C 0.80779(10) 0.46776(10) 0.36866(9)
H3 H 0.8958 0.4520 0.3957
C6 C 0.72185(10) 0.54244(9) 0.42345(9)
H4 H 0.7507 0.5772 0.4865
C7 C 0.37314(9) 0.63318(8) 0.35812(8)
C8 C 0.39547(9) 0.54817(8) 0.26723(8)
C9 C 0.50137(12) 0.69766(10) 0.51984(8)
H5 H 0.4237 0.7475 0.5268
H6 H 0.5860 0.7402 0.5184
H7 H 0.5031 0.6472 0.5798
C10 C 0.29235(9) 0.44823(8) 0.28081(8)
H8 H 0.3156 0.4037 0.3445
C11 C 0.30648(11) 0.37882(8) 0.17896(8)
H9 H 0.2246 0.3328 0.1685
H10 H 0.3871 0.3303 0.1835
C12 C 0.35481(9) 0.59706(8) 0.15765(7)
H11 H 0.2656 0.6355 0.1666
C13 C 0.45577(10) 0.68012(8) 0.11026(8)
C14 C 0.49736(11) 0.79619(9) -0.04086(8)
H12 H 0.5940 0.7736 -0.0459
H13 H 0.4923 0.8652 0.0001
C15 C 0.43700(12) 0.81280(11) -0.15116(9)
H14 H 0.4444 0.7444 -0.1913
H15 H 0.4871 0.8710 -0.1877
H16 H 0.3410 0.8336 -0.1450
N1 N 0.48843(8) 0.63442(7) 0.42107(7)
O1 O 0.26730(7) 0.68796(6) 0.37348(6)
O2 O 0.15217(7) 0.48634(6) 0.28539(6)
H17 H 0.1462 0.5381 0.3285
O3 O 0.55572(8) 0.71778(7) 0.15584(6)
O4 O 0.41544(7) 0.70883(6) 0.01111(6)
S1 S 0.32592(3) 0.47801(2) 0.067953(19)
loop_
_geom_bond_atom_site_label_1
_geom_bond_atom_site_label_2
_geom_bond_site_symmetry_1
_geom_bond_site_symmetry_2
C1 C2 1_555 1_555
C2 C3 1_555 1_555
C3 H1 1_555 1_555
C4 C3 1_555 1_555
H2 C4 1_555 1_555
C5 C4 1_555 1_555
H3 C5 1_555 1_555
C6 C1 1_555 1_555
H4 C6 1_555 1_555
C7 C8 1_555 1_555
C8 C2 1_555 1_555
C9 H5 1_555 1_555
H6 C9 1_555 1_555
H7 C9 1_555 1_555
C10 C8 1_555 1_555
H8 C10 1_555 1_555
C11 C10 1_555 1_555
H9 C11 1_555 1_555
H10 C11 1_555 1_555
C12 C8 1_555 1_555
H11 C12 1_555 1_555
C13 C12 1_555 1_555
C14 H12 1_555 1_555
H13 C14 1_555 1_555
C15 C14 1_555 1_555
H14 C15 1_555 1_555
H15 C15 1_555 1_555
H16 C15 1_555 1_555
N1 C1 1_555 1_555
O1 C7 1_555 1_555
O2 C10 1_555 1_555
H17 O2 1_555 1_555
O3 C13 1_555 1_555
O4 C13 1_555 1_555
S1 C11 1_555 1_555
C5 C6 1_555 1_555
C7 N1 1_555 1_555
C9 N1 1_555 1_555
C12 S1 1_555 1_555
C14 O4 1_555 1_555

#END
