
#######################################################################
#
#                 Cambridge Crystallographic Data Centre
#                                CCDC 
#
#######################################################################
#
# If this CIF has been generated from an entry in the Cambridge 
# Structural Database, then it will include bibliographic, chemical, 
# crystal, experimental, refinement or atomic coordinate data resulting 
# from the CCDC's data processing and validation procedures.
#
#######################################################################

data_SAZFIJ
_chemical_formula_moiety         'C13 H17 N1 O4'
_chemical_name_systematic        
'Diethyl 2,6-dimethylpyridine-3,5-dicarboxylate'
_symmetry_cell_setting           monoclinic
_symmetry_space_group_name_H-M   'P 21/c'
_symmetry_Int_Tables_number      14
_space_group_name_Hall           '-P 2ybc'
loop_
_symmetry_equiv_pos_site_id
_symmetry_equiv_pos_as_xyz
1 x,y,z
2 -x,1/2+y,1/2-z
3 -x,-y,-z
4 x,1/2-y,1/2+z
_cell_length_a                   4.593(2)
_cell_length_b                   15.950(9)
_cell_length_c                   18.795(10)
_cell_angle_alpha                90
_cell_angle_beta                 90.656(9)
_cell_angle_gamma                90
_cell_volume                     1376.8
_exptl_crystal_colour            colorless
_exptl_crystal_description       block
_chemical_melting_point          '343-344 K'
_cell_formula_units_Z            4
_exptl_crystal_recrystallization_method ethanol
loop_
_atom_site_label
_atom_site_type_symbol
_atom_site_fract_x
_atom_site_fract_y
_atom_site_fract_z
O1 O 1.2765(6) 1.00909(17) 0.29361(13)
O2 O 1.0690(5) 0.93288(15) 0.20975(12)
O3 O 0.3313(5) 0.65999(15) 0.35320(11)
O4 O 0.4211(4) 0.71868(12) 0.24860(11)
N1 N 0.9495(5) 0.83212(18) 0.44323(13)
C1 C 1.0658(6) 0.8888(2) 0.39946(17)
C2 C 0.9964(5) 0.88958(18) 0.32672(15)
C3 C 0.7966(5) 0.83108(18) 0.30156(14)
H1 H 0.7449 0.8310 0.2536
C4 C 0.6733(5) 0.77302(17) 0.34672(14)
C5 C 0.7594(6) 0.7747(2) 0.41872(15)
C6 C 1.2721(7) 0.9495(2) 0.43497(17)
H2 H 1.1845 1.0041 0.4363
H3 H 1.4497 0.9521 0.4086
H4 H 1.3136 0.9310 0.4826
C7 C 0.6517(8) 0.7147(2) 0.47389(16)
H5 H 0.7351 0.7289 0.5194
H6 H 0.7076 0.6586 0.4614
H7 H 0.4433 0.7180 0.4763
C8 C 1.1295(7) 0.9500(2) 0.27714(18)
C11 C 1.229(3) 0.9867(7) 0.1600(4)
H13 H 1.4378 0.9824 0.1682
H14 H 1.1710 1.0448 0.1646
C12 C 1.145(4) 0.9524(8) 0.0878(3)
H15 H 1.2066 0.8950 0.0844
H16 H 1.2384 0.9848 0.0515
H17 H 0.9381 0.9556 0.0816
C13 C 0.4586(6) 0.71134(19) 0.31846(16)
C14 C 0.2205(6) 0.6604(2) 0.21440(16)
H18 H 0.0285 0.6654 0.2349
H19 H 0.2879 0.6032 0.2208
C15 C 0.2095(10) 0.6817(3) 0.13845(18)
H20 H 0.1485 0.7389 0.1329
H21 H 0.0736 0.6454 0.1144
H22 H 0.3992 0.6747 0.1184
C9? C 1.126(4) 0.9914(10) 0.1507(9)
H8? H 1.2256 1.0415 0.1675
H9? H 0.9473 1.0075 0.1265
C10? C 1.321(5) 0.9396(10) 0.1025(8)
H10? H 1.4833 0.9184 0.1295
H11? H 1.3903 0.9741 0.0644
H12? H 1.2112 0.8935 0.0830
loop_
_geom_bond_atom_site_label_1
_geom_bond_atom_site_label_2
_geom_bond_site_symmetry_1
_geom_bond_site_symmetry_2
O1 C8 1_555 1_555
O2 C8 1_555 1_555
O3 C13 1_555 1_555
O4 C13 1_555 1_555
N1 C1 1_555 1_555
C1 C2 1_555 1_555
C2 C3 1_555 1_555
C3 H1 1_555 1_555
C4 C3 1_555 1_555
C5 N1 1_555 1_555
C6 C1 1_555 1_555
H2 C6 1_555 1_555
H3 C6 1_555 1_555
H4 C6 1_555 1_555
C7 C5 1_555 1_555
H5 C7 1_555 1_555
H6 C7 1_555 1_555
H7 C7 1_555 1_555
C8 C2 1_555 1_555
C11 O2 1_555 1_555
H13 C11 1_555 1_555
H14 C11 1_555 1_555
C12 C11 1_555 1_555
H15 C12 1_555 1_555
H16 C12 1_555 1_555
H17 C12 1_555 1_555
C13 C4 1_555 1_555
C14 O4 1_555 1_555
H18 C14 1_555 1_555
H19 C14 1_555 1_555
C15 C14 1_555 1_555
H20 C15 1_555 1_555
H21 C15 1_555 1_555
H22 C15 1_555 1_555
C4 C5 1_555 1_555

#END
