
#######################################################################
#
#                 Cambridge Crystallographic Data Centre
#                                CCDC 
#
#######################################################################
#
# If this CIF has been generated from an entry in the Cambridge 
# Structural Database, then it will include bibliographic, chemical, 
# crystal, experimental, refinement or atomic coordinate data resulting 
# from the CCDC's data processing and validation procedures.
#
#######################################################################

data_SAZGOR
_chemical_formula_moiety         'C27 H28 N2 O7'
_chemical_name_systematic        
"1-t-Butyl 4'-ethyl 5'-methyl 2-oxo-5'-phenyl-4',5'-dihydrospiro[indole-3,3'-pyrrole]-1,4',5'(2H)-tricarboxylate"
_symmetry_cell_setting           orthorhombic
_symmetry_space_group_name_H-M   'P 21 21 21'
_symmetry_Int_Tables_number      19
_space_group_name_Hall           'P 2ac 2ab'
loop_
_symmetry_equiv_pos_site_id
_symmetry_equiv_pos_as_xyz
1 x,y,z
2 1/2+x,1/2-y,-z
3 -x,1/2+y,1/2-z
4 1/2-x,-y,1/2+z
_cell_length_a                   12.0989(2)
_cell_length_b                   12.7731(2)
_cell_length_c                   16.3369(3)
_cell_angle_alpha                90
_cell_angle_beta                 90
_cell_angle_gamma                90
_cell_volume                     2524.71
_exptl_crystal_colour            colorless
_exptl_crystal_description       block
_cell_formula_units_Z            4
loop_
_atom_site_label
_atom_site_type_symbol
_atom_site_fract_x
_atom_site_fract_y
_atom_site_fract_z
O1 O 0.82751(9) -0.12697(8) 0.91659(6)
O2 O 0.64623(9) -0.14956(8) 0.88762(7)
O3 O 0.90168(9) 0.06794(8) 0.90484(6)
O4 O 0.67084(10) 0.26884(8) 0.93467(7)
O5 O 0.71310(10) 0.42521(8) 0.87896(7)
O6 O 0.89253(9) 0.50788(8) 0.73708(7)
O7 O 0.75899(10) 0.39634(9) 0.70052(7)
N1 N 0.73508(10) 0.00224(10) 0.85358(7)
N2 N 0.93575(11) 0.25414(10) 0.72871(7)
C1 C 1.19010(14) 0.44907(12) 0.91904(10)
H1 H 1.2534 0.4719 0.9485
C2 C 1.08492(15) 0.46469(12) 0.95084(10)
H2 H 1.0760 0.5003 1.0014
C3 C 0.99267(13) 0.42827(12) 0.90881(9)
H3 H 0.9211 0.4383 0.9313
C4 C 1.00441(13) 0.37712(11) 0.83381(9)
C5 C 0.90262(12) 0.33320(11) 0.79033(8)
C6 C 0.82492(12) 0.27326(11) 0.85045(8)
H4 H 0.8727 0.2525 0.8977
C7 C 0.79405(12) 0.16915(11) 0.80657(8)
C8 C 0.82152(12) 0.07479(11) 0.86220(8)
C9 C 0.73034(12) -0.09925(11) 0.88784(8)
C10 C 0.84170(13) -0.22883(12) 0.96050(9)
C11 C 0.96267(15) -0.22428(15) 0.98351(10)
H5 H 1.0077 -0.2207 0.9337
H6 H 0.9824 -0.2872 1.0146
H7 H 0.9763 -0.1620 1.0171
C12 C 0.76821(15) -0.23025(15) 1.03567(10)
H8 H 0.7836 -0.1684 1.0693
H9 H 0.7830 -0.2937 1.0676
H10 H 0.6905 -0.2295 1.0187
C13 C 0.87770(12) 0.17210(11) 0.73690(9)
H11 H 0.8861 0.1144 0.7008
C14 C 0.72956(12) 0.33334(11) 0.88735(8)
C15 C 0.57276(14) 0.31156(13) 0.97450(10)
H12 H 0.5820 0.3878 0.9828
H13 H 0.5629 0.2784 1.0288
C16 C 0.47248(16) 0.29126(19) 0.92229(11)
H14 H 0.4789 0.3304 0.8709
H15 H 0.4060 0.3139 0.9516
H16 H 0.4673 0.2162 0.9103
C17 C 1.20197(14) 0.39976(12) 0.84372(10)
H17 H 1.2736 0.3899 0.8211
C18 C 1.10932(14) 0.36478(11) 0.80125(9)
H18 H 1.1181 0.3321 0.7494
C19 C 0.84085(13) 0.41591(11) 0.73857(8)
C20 C 0.84273(15) 0.58415(12) 0.68299(11)
H19 H 0.8347 0.5539 0.6282
H20 H 0.8899 0.6464 0.6801
H21 H 0.7698 0.6039 0.7041
C21 C 0.67780(12) 0.14561(11) 0.77881(8)
C22 C 0.64720(12) 0.04641(11) 0.80598(8)
C23 C 0.54551(13) 0.00316(12) 0.78615(9)
H22 H 0.5253 -0.0647 0.8047
C24 C 0.47409(13) 0.06249(13) 0.73809(9)
H23 H 0.4042 0.0344 0.7232
C25 C 0.50311(13) 0.16171(13) 0.71165(9)
H24 H 0.4527 0.2011 0.6794
C26 C 0.60568(13) 0.20443(12) 0.73194(8)
H25 H 0.6256 0.2726 0.7139
C27 C 0.81878(17) -0.31865(13) 0.90247(12)
H26 H 0.7405 -0.3182 0.8871
H27 H 0.8366 -0.3850 0.9295
H28 H 0.8644 -0.3109 0.8533
loop_
_geom_bond_atom_site_label_1
_geom_bond_atom_site_label_2
_geom_bond_site_symmetry_1
_geom_bond_site_symmetry_2
O1 C9 1_555 1_555
O2 C9 1_555 1_555
O3 C8 1_555 1_555
O4 C14 1_555 1_555
O5 C14 1_555 1_555
O6 C19 1_555 1_555
O7 C19 1_555 1_555
N1 C8 1_555 1_555
N2 C5 1_555 1_555
C1 H1 1_555 1_555
C2 C1 1_555 1_555
H2 C2 1_555 1_555
C3 C2 1_555 1_555
H3 C3 1_555 1_555
C4 C3 1_555 1_555
C5 C4 1_555 1_555
C6 C5 1_555 1_555
H4 C6 1_555 1_555
C7 C6 1_555 1_555
C8 C7 1_555 1_555
C9 N1 1_555 1_555
C10 O1 1_555 1_555
C11 C10 1_555 1_555
H5 C11 1_555 1_555
H6 C11 1_555 1_555
H7 C11 1_555 1_555
C12 C10 1_555 1_555
H8 C12 1_555 1_555
H9 C12 1_555 1_555
H10 C12 1_555 1_555
C13 N2 1_555 1_555
H11 C13 1_555 1_555
C14 C6 1_555 1_555
C15 O4 1_555 1_555
H12 C15 1_555 1_555
H13 C15 1_555 1_555
C16 C15 1_555 1_555
H14 C16 1_555 1_555
H15 C16 1_555 1_555
H16 C16 1_555 1_555
C17 C1 1_555 1_555
H17 C17 1_555 1_555
C18 C4 1_555 1_555
H18 C18 1_555 1_555
C19 C5 1_555 1_555
C20 O6 1_555 1_555
H19 C20 1_555 1_555
H20 C20 1_555 1_555
H21 C20 1_555 1_555
C21 C7 1_555 1_555
C22 N1 1_555 1_555
C23 C22 1_555 1_555
H22 C23 1_555 1_555
C24 C23 1_555 1_555
H23 C24 1_555 1_555
C25 C24 1_555 1_555
H24 C25 1_555 1_555
C26 C21 1_555 1_555
H25 C26 1_555 1_555
C27 C10 1_555 1_555
H26 C27 1_555 1_555
H27 C27 1_555 1_555
H28 C27 1_555 1_555
C7 C13 1_555 1_555
C17 C18 1_555 1_555
C21 C22 1_555 1_555
C25 C26 1_555 1_555

#END
