
#######################################################################
#
#                 Cambridge Crystallographic Data Centre
#                                CCDC 
#
#######################################################################
#
# If this CIF has been generated from an entry in the Cambridge 
# Structural Database, then it will include bibliographic, chemical, 
# crystal, experimental, refinement or atomic coordinate data resulting 
# from the CCDC's data processing and validation procedures.
#
#######################################################################

data_SAZGUX
_chemical_formula_moiety         'C13 H13 N1 O4'
_chemical_name_systematic        
5-Methyl-5-(2-nitro-1-phenylethyl)furan-2(5H)-one
_symmetry_cell_setting           monoclinic
_symmetry_space_group_name_H-M   'C 2'
_symmetry_Int_Tables_number      5
_space_group_name_Hall           'C 2y'
loop_
_symmetry_equiv_pos_site_id
_symmetry_equiv_pos_as_xyz
1 x,y,z
2 -x,y,-z
3 1/2+x,1/2+y,z
4 1/2-x,1/2+y,-z
_cell_length_a                   14.8379(12)
_cell_length_b                   6.4738(6)
_cell_length_c                   13.3730(11)
_cell_angle_alpha                90
_cell_angle_beta                 98.932(6)
_cell_angle_gamma                90
_cell_volume                     1269
_exptl_crystal_colour            colorless
_exptl_crystal_description       block
_cell_formula_units_Z            4
loop_
_atom_site_label
_atom_site_type_symbol
_atom_site_fract_x
_atom_site_fract_y
_atom_site_fract_z
O1 O -0.3489(2) -1.3055(4) -0.2549(2)
O2 O -0.29514(14) -1.0275(3) -0.16645(17)
C1 C -0.4049(2) -0.9651(5) -0.3020(3)
O3 O -0.0696(3) -0.4329(8) -0.1267(3)
C2 C -0.3080(2) -0.8044(5) -0.1750(2)
C3 C -0.3509(2) -1.1209(6) -0.2437(3)
C4 C -0.2164(2) -0.7049(5) -0.1907(2)
H1 H -0.2267 -0.5554 -0.1947
C5 C -0.1843(2) -0.7682(5) -0.2883(2)
C6 C -0.1923(3) -0.6285(7) -0.3675(3)
H2 H -0.2180 -0.4996 -0.3596
C7 C -0.1633(3) -0.6754(10) -0.4572(3)
H3 H -0.1711 -0.5806 -0.5101
C8 C -0.1235(3) -0.8594(11) -0.4687(4)
H4 H -0.1019 -0.8888 -0.5288
C9 C -0.3796(2) -0.7843(5) -0.2651(2)
H5 H -0.4033 -0.6594 -0.2916
C10 C -0.1436(2) -0.7421(7) -0.1004(3)
H6 H -0.1655 -0.6997 -0.0388
H7 H -0.1287 -0.8880 -0.0950
N1 N -0.0598(3) -0.6193(9) -0.1135(2)
O4 O 0.0104(2) -0.7087(8) -0.1105(2)
C11 C -0.1146(3) -1.0039(9) -0.3923(4)
H8 H -0.0884 -1.1319 -0.4013
C12 C -0.1449(3) -0.9572(7) -0.3013(3)
H9 H -0.1386 -1.0538 -0.2492
C13 C -0.3419(2) -0.7242(6) -0.0807(3)
H10 H -0.4001 -0.7846 -0.0759
H11 H -0.3478 -0.5767 -0.0847
H12 H -0.2991 -0.7608 -0.0220
H13 H -0.451(3) -0.998(6) -0.358(3)
loop_
_geom_bond_atom_site_label_1
_geom_bond_atom_site_label_2
_geom_bond_site_symmetry_1
_geom_bond_site_symmetry_2
O1 C3 1_555 1_555
O2 C2 1_555 1_555
C1 C3 1_555 1_555
O3 N1 1_555 1_555
C2 C4 1_555 1_555
C3 O2 1_555 1_555
C4 H1 1_555 1_555
C5 C4 1_555 1_555
C6 C5 1_555 1_555
H2 C6 1_555 1_555
C7 C6 1_555 1_555
H3 C7 1_555 1_555
C8 C7 1_555 1_555
H4 C8 1_555 1_555
C9 C1 1_555 1_555
H5 C9 1_555 1_555
C10 C4 1_555 1_555
H6 C10 1_555 1_555
H7 C10 1_555 1_555
N1 C10 1_555 1_555
O4 N1 1_555 1_555
C11 C8 1_555 1_555
H8 C11 1_555 1_555
C12 C5 1_555 1_555
H9 C12 1_555 1_555
C13 C2 1_555 1_555
H10 C13 1_555 1_555
H11 C13 1_555 1_555
H12 C13 1_555 1_555
H13 C1 1_555 1_555
C2 C9 1_555 1_555
C11 C12 1_555 1_555

#END
