
#######################################################################
#
#                 Cambridge Crystallographic Data Centre
#                                CCDC 
#
#######################################################################
#
# If this CIF has been generated from an entry in the Cambridge 
# Structural Database, then it will include bibliographic, chemical, 
# crystal, experimental, refinement or atomic coordinate data resulting 
# from the CCDC's data processing and validation procedures.
#
#######################################################################

data_SAZKEK
_chemical_formula_moiety         'C12 H8 N4 O1,C6 H6 O2'
_chemical_name_systematic        
'2,5-Di-4-pyridyl-1,3,4-oxadiazole hydroquinone'
_symmetry_cell_setting           orthorhombic
_symmetry_space_group_name_H-M   'P b c a'
_symmetry_Int_Tables_number      61
_space_group_name_Hall           '-P 2ac 2ab'
loop_
_symmetry_equiv_pos_site_id
_symmetry_equiv_pos_as_xyz
1 x,y,z
2 1/2-x,-y,1/2+z
3 -x,1/2+y,1/2-z
4 1/2+x,1/2-y,-z
5 -x,-y,-z
6 1/2+x,y,1/2-z
7 x,1/2-y,1/2+z
8 1/2-x,1/2+y,z
_cell_length_a                   13.811(7)
_cell_length_b                   5.855(2)
_cell_length_c                   38.550(15)
_cell_angle_alpha                90
_cell_angle_beta                 90
_cell_angle_gamma                90
_cell_volume                     3117.28
_exptl_crystal_colour            'light yellow'
_exptl_crystal_description       block
_cell_formula_units_Z            8
_exptl_crystal_recrystallization_method methanol/water
loop_
_atom_site_label
_atom_site_type_symbol
_atom_site_fract_x
_atom_site_fract_y
_atom_site_fract_z
O1 O 0.61549(10) 0.0640(2) 0.62018(3)
N1 N 0.61118(15) -0.0496(4) 0.74922(5)
N2 N 0.67316(14) 0.3979(3) 0.63654(5)
N3 N 0.67319(14) 0.3892(3) 0.60024(5)
N4 N 0.61335(14) -0.1088(4) 0.49237(5)
C1 C 0.6497(2) 0.1561(5) 0.74287(6)
C2 C 0.65888(17) 0.2464(4) 0.71016(6)
H3 H 0.6887(17) 0.399(4) 0.7071(6)
C3 C 0.62756(15) 0.1189(4) 0.68211(5)
C4 C 0.58750(18) -0.0932(4) 0.68825(6)
H4 H 0.5684(17) -0.186(4) 0.6709(6)
C5 C 0.58048(19) -0.1683(5) 0.72196(6)
H5 H 0.5523(18) -0.315(5) 0.7273(6)
C6 C 0.63957(15) 0.2038(4) 0.64682(5)
C7 C 0.63962(15) 0.1908(4) 0.59200(5)
C8 C 0.62817(15) 0.0895(4) 0.55778(5)
C9 C 0.66074(17) 0.2023(4) 0.52846(6)
H6 H 0.6917(16) 0.345(4) 0.5305(6)
C10 C 0.65182(18) 0.0981(5) 0.49675(6)
H7 H 0.6760(17) 0.171(4) 0.4757(6)
C11 C 0.58156(18) -0.2145(5) 0.52080(6)
H8 H 0.5536(16) -0.363(4) 0.5177(6)
C12 C 0.58769(17) -0.1248(4) 0.55363(6)
H9 H 0.5658(15) -0.205(4) 0.5724(6)
H14 H 0.6713(18) 0.245(5) 0.7619(7)
O2 O 0.58636(16) -0.4144(4) 0.43791(5)
H1 H 0.598(2) -0.310(6) 0.4528(8)
O3 O 0.64782(16) -0.1372(4) 0.30290(5)
H2 H 0.636(3) -0.248(7) 0.2877(10)
C13 C 0.60192(17) -0.3397(4) 0.40463(6)
C14 C 0.64135(19) -0.1283(4) 0.39694(6)
H10 H 0.6606(17) -0.027(4) 0.4144(6)
C15 C 0.65631(18) -0.0637(4) 0.36299(7)
H11 H 0.6845(17) 0.073(4) 0.3576(6)
C16 C 0.63140(16) -0.2082(4) 0.33618(6)
C17 C 0.59244(18) -0.4188(4) 0.34389(6)
H12 H 0.5774(17) -0.522(4) 0.3254(6)
C18 C 0.57754(19) -0.4835(5) 0.37778(6)
H13 H 0.5537(18) -0.622(4) 0.3831(6)
loop_
_geom_bond_atom_site_label_1
_geom_bond_atom_site_label_2
_geom_bond_site_symmetry_1
_geom_bond_site_symmetry_2
O1 C6 1_555 1_555
O2 H1 1_555 1_555
O3 H2 1_555 1_555
N1 C1 1_555 1_555
N2 N3 1_555 1_555
N3 C7 1_555 1_555
N4 C10 1_555 1_555
C1 C2 1_555 1_555
C2 H3 1_555 1_555
C3 C2 1_555 1_555
C4 C3 1_555 1_555
H4 C4 1_555 1_555
C5 N1 1_555 1_555
H5 C5 1_555 1_555
C6 N2 1_555 1_555
C7 O1 1_555 1_555
C8 C7 1_555 1_555
C9 C8 1_555 1_555
H6 C9 1_555 1_555
C10 C9 1_555 1_555
H7 C10 1_555 1_555
C11 N4 1_555 1_555
H8 C11 1_555 1_555
C12 C8 1_555 1_555
H9 C12 1_555 1_555
C13 O2 1_555 1_555
C14 C13 1_555 1_555
H10 C14 1_555 1_555
C15 C14 1_555 1_555
H11 C15 1_555 1_555
C16 O3 1_555 1_555
C17 C16 1_555 1_555
H12 C17 1_555 1_555
C18 C13 1_555 1_555
H13 C18 1_555 1_555
H14 C1 1_555 1_555
C3 C6 1_555 1_555
C4 C5 1_555 1_555
C11 C12 1_555 1_555
C15 C16 1_555 1_555
C17 C18 1_555 1_555

#END
