
#######################################################################
#
#                 Cambridge Crystallographic Data Centre
#                                CCDC 
#
#######################################################################
#
# If this CIF has been generated from an entry in the Cambridge 
# Structural Database, then it will include bibliographic, chemical, 
# crystal, experimental, refinement or atomic coordinate data resulting 
# from the CCDC's data processing and validation procedures.
#
#######################################################################

data_SAZKIO
_chemical_formula_moiety         'C24 H17 N5'
_chemical_name_systematic        
4'-(4-(Imidazol-1-yl)phenyl)-2,2':6',2''-terpyridine
_symmetry_cell_setting           monoclinic
_symmetry_space_group_name_H-M   'P 21/n'
_symmetry_Int_Tables_number      14
_space_group_name_Hall           '-P 2yn'
loop_
_symmetry_equiv_pos_site_id
_symmetry_equiv_pos_as_xyz
1 x,y,z
2 1/2-x,1/2+y,1/2-z
3 -x,-y,-z
4 1/2+x,1/2-y,1/2+z
_cell_length_a                   5.4807(5)
_cell_length_b                   38.653(5)
_cell_length_c                   8.9530(10)
_cell_angle_alpha                90
_cell_angle_beta                 103.470(9)
_cell_angle_gamma                90
_cell_volume                     1844.48
_exptl_crystal_colour            'pale yellow'
_exptl_crystal_description       plate
_cell_formula_units_Z            4
_exptl_crystal_recrystallization_method ethanol
loop_
_atom_site_label
_atom_site_type_symbol
_atom_site_fract_x
_atom_site_fract_y
_atom_site_fract_z
C1 C -0.4512(7) -0.04771(9) 0.2268(3)
H1 H -0.4764 -0.0707 0.1969
C2 C -0.2582(7) -0.02841(9) 0.2078(4)
H2 H -0.1282 -0.0354 0.1640
C3 C -0.4990(6) 0.00118(9) 0.3178(4)
H3 H -0.5633 0.0193 0.3654
C4 C -0.1317(5) 0.03304(7) 0.2661(3)
C5 C -0.0669(6) 0.04179(7) 0.1325(3)
H4 H -0.1328 0.0295 0.0428
C6 C 0.0977(6) 0.06907(7) 0.1314(3)
H5 H 0.1413 0.0748 0.0401
C7 C 0.1989(5) 0.08803(7) 0.2626(3)
C8 C 0.1219(6) 0.07932(7) 0.3943(3)
H6 H 0.1809 0.0921 0.4834
C9 C -0.0417(6) 0.05193(7) 0.3969(3)
H7 H -0.0897 0.0465 0.4871
C10 C 0.3796(5) 0.11633(6) 0.2575(3)
C11 C 0.5083(5) 0.11794(7) 0.1412(3)
H8 H 0.4864 0.1006 0.0674
C12 C 0.6693(5) 0.14529(7) 0.1343(3)
C13 C 0.7993(5) 0.14817(7) 0.0071(3)
C14 C 0.9829(6) 0.17280(8) 0.0081(3)
H9 H 1.0220 0.1888 0.0876
C15 C 1.1069(6) 0.17355(9) -0.1083(4)
H10 H 1.2316 0.1899 -0.1079
C16 C 1.0451(7) 0.15002(10) -0.2246(4)
H11 H 1.1280 0.1497 -0.3042
C17 C 0.8564(7) 0.12678(9) -0.2208(4)
H12 H 0.8114 0.1111 -0.3012
C18 C 0.4279(5) 0.14264(7) 0.3670(3)
H13 H 0.3462 0.1428 0.4471
C19 C 0.5981(5) 0.16861(6) 0.3561(3)
C20 C 0.6595(5) 0.19635(6) 0.4745(3)
C21 C 0.8600(6) 0.21828(7) 0.4796(3)
H14 H 0.9587 0.2160 0.4086
C22 C 0.9126(6) 0.24360(7) 0.5913(4)
H15 H 1.0456 0.2588 0.5957
C23 C 0.7665(6) 0.24595(8) 0.6951(4)
H16 H 0.7980 0.2625 0.7726
C24 C 0.5715(6) 0.22305(8) 0.6814(4)
H17 H 0.4714 0.2249 0.7519
N1 N -0.6040(5) -0.02951(7) 0.2949(3)
N2 N -0.2893(4) 0.00369(6) 0.2655(3)
N3 N 0.7155(4) 0.17048(5) 0.2408(2)
N4 N 0.5142(5) 0.19843(6) 0.5750(3)
N5 N 0.7345(5) 0.12550(6) -0.1082(3)
loop_
_geom_bond_atom_site_label_1
_geom_bond_atom_site_label_2
_geom_bond_site_symmetry_1
_geom_bond_site_symmetry_2
C1 H1 1_555 1_555
C2 C1 1_555 1_555
H2 C2 1_555 1_555
C3 H3 1_555 1_555
C4 C5 1_555 1_555
C5 H4 1_555 1_555
C6 C5 1_555 1_555
H5 C6 1_555 1_555
C7 C6 1_555 1_555
C8 C7 1_555 1_555
H6 C8 1_555 1_555
C9 C4 1_555 1_555
H7 C9 1_555 1_555
C10 C7 1_555 1_555
C11 C10 1_555 1_555
H8 C11 1_555 1_555
C12 C11 1_555 1_555
C13 C12 1_555 1_555
C14 C13 1_555 1_555
H9 C14 1_555 1_555
C15 C14 1_555 1_555
H10 C15 1_555 1_555
C16 C15 1_555 1_555
H11 C16 1_555 1_555
C17 C16 1_555 1_555
H12 C17 1_555 1_555
C18 C10 1_555 1_555
H13 C18 1_555 1_555
C19 C18 1_555 1_555
C20 C19 1_555 1_555
C21 C20 1_555 1_555
H14 C21 1_555 1_555
C22 C21 1_555 1_555
H15 C22 1_555 1_555
C23 C22 1_555 1_555
H16 C23 1_555 1_555
C24 C23 1_555 1_555
H17 C24 1_555 1_555
N1 C1 1_555 1_555
N2 C2 1_555 1_555
N3 C12 1_555 1_555
N4 C20 1_555 1_555
N5 C13 1_555 1_555
C3 N1 1_555 1_555
C3 N2 1_555 1_555
C4 N2 1_555 1_555
C8 C9 1_555 1_555
C17 N5 1_555 1_555
C19 N3 1_555 1_555
C24 N4 1_555 1_555

#END
