
#######################################################################
#
#                 Cambridge Crystallographic Data Centre
#                                CCDC 
#
#######################################################################
#
# If this CIF has been generated from an entry in the Cambridge 
# Structural Database, then it will include bibliographic, chemical, 
# crystal, experimental, refinement or atomic coordinate data resulting 
# from the CCDC's data processing and validation procedures.
#
#######################################################################

data_SAZLIP
_chemical_formula_moiety         'C25 H25 N5 O6'
_chemical_name_systematic        
'3-Benzotriazol-1-yl 5-t-butyl 2,6-dimethyl-4-(3-nitrophenyl)-1,4-dihydropyridine-3,5-dicarboxylate'
_symmetry_cell_setting           monoclinic
_symmetry_space_group_name_H-M   'P 21/n'
_symmetry_Int_Tables_number      14
_space_group_name_Hall           '-P 2yn'
loop_
_symmetry_equiv_pos_site_id
_symmetry_equiv_pos_as_xyz
1 x,y,z
2 1/2-x,1/2+y,1/2-z
3 -x,-y,-z
4 1/2+x,1/2-y,1/2+z
_cell_length_a                   10.332(2)
_cell_length_b                   15.163(3)
_cell_length_c                   16.010(3)
_cell_angle_alpha                90
_cell_angle_beta                 90.96(3)
_cell_angle_gamma                90
_cell_volume                     2507.84
_exptl_crystal_colour            yellow
_exptl_crystal_description       rod
_chemical_melting_point          '458.5 K'
_cell_formula_units_Z            4
_exptl_crystal_recrystallization_method methanol
loop_
_atom_site_label
_atom_site_type_symbol
_atom_site_fract_x
_atom_site_fract_y
_atom_site_fract_z
O1 O 0.21060(13) 0.82239(9) 0.03233(10)
O2 O 0.01379(15) 0.88373(12) 0.01864(15)
O3 O 0.59163(18) 0.73312(19) 0.32341(14)
O4 O 0.60069(18) 0.6879(3) 0.19826(16)
O5 O 0.13680(15) 0.42128(10) 0.10564(12)
O6 O 0.28262(12) 0.52457(9) 0.06732(9)
C1 C 0.2502(3) 0.9710(2) 0.0842(3)
H1 H 0.1616 0.9891 0.0775
H2 H 0.3057 1.0215 0.0792
H3 H 0.2628 0.9447 0.1382
C2 C 0.4217(2) 0.87458(18) 0.0260(3)
H4 H 0.4397 0.8327 -0.0173
H5 H 0.4353 0.8473 0.0796
H6 H 0.4785 0.9244 0.0210
C3 C 0.2523(3) 0.9399(2) -0.0684(2)
H7 H 0.2747 0.8963 -0.1092
H8 H 0.3015 0.9926 -0.0777
H9 H 0.1616 0.9530 -0.0732
C4 C 0.2824(2) 0.90503(15) 0.01778(18)
C5 C 0.08078(19) 0.82103(14) 0.03572(14)
C6 C 0.03497(17) 0.73447(12) 0.06462(11)
C7 C -0.09284(17) 0.71889(13) 0.07393(12)
C8 C -0.20410(18) 0.77928(15) 0.05539(14)
H10 H -0.1720 0.8346 0.0351
H11 H -0.2520 0.7890 0.1054
H12 H -0.2597 0.7530 0.0137
C9 C -0.05415(17) 0.56482(13) 0.10834(12)
C10 C -0.1234(2) 0.48118(15) 0.12917(16)
H13 H -0.2140 0.4931 0.1352
H14 H -0.0888 0.4577 0.1806
H15 H -0.1117 0.4391 0.0851
C11 C 0.07512(16) 0.57427(12) 0.09479(11)
C12 C 0.13589(16) 0.66574(11) 0.08816(11)
H16 H 0.2005 0.6641 0.0441
C13 C 0.20542(16) 0.68733(12) 0.17079(11)
C14 C 0.13566(18) 0.69983(15) 0.24284(13)
H17 H 0.0458 0.6966 0.2403
C15 C 0.1969(2) 0.71708(18) 0.31872(15)
H18 H 0.1479 0.7255 0.3662
C16 C 0.3304(2) 0.72190(16) 0.32439(14)
H19 H 0.3725 0.7340 0.3749
C17 C 0.39835(18) 0.70814(14) 0.25279(13)
C18 C 0.33990(17) 0.69122(13) 0.17594(12)
H20 H 0.3896 0.6826 0.1287
C19 C 0.15671(18) 0.49738(13) 0.09263(13)
C20 C 0.45053(17) 0.43242(13) 0.12995(12)
C21 C 0.4629(2) 0.45512(16) 0.21367(15)
H21 H 0.4104 0.4973 0.2382
C22 C 0.5578(2) 0.41114(19) 0.25773(16)
H22 H 0.5696 0.4235 0.3142
C23 C 0.6377(2) 0.34806(17) 0.22041(17)
H23 H 0.7013 0.3204 0.2528
C24 C 0.62516(18) 0.32625(15) 0.13851(15)
H24 H 0.6786 0.2844 0.1144
C25 C 0.52793(17) 0.36951(13) 0.09160(14)
N1 N -0.13211(14) 0.63705(11) 0.10347(11)
H25 H -0.2107 0.6318 0.1197
N2 N 0.54023(19) 0.71073(17) 0.25835(15)
N3 N 0.37061(14) 0.45709(10) 0.06648(10)
N4 N 0.39499(15) 0.41572(11) -0.00536(11)
N5 N 0.49052(15) 0.36102(12) 0.00933(11)
loop_
_geom_bond_atom_site_label_1
_geom_bond_atom_site_label_2
_geom_bond_site_symmetry_1
_geom_bond_site_symmetry_2
O1 C4 1_555 1_555
O2 C5 1_555 1_555
O3 N2 1_555 1_555
O4 N2 1_555 1_555
O5 C19 1_555 1_555
O6 C19 1_555 1_555
C1 H1 1_555 1_555
H2 C1 1_555 1_555
H3 C1 1_555 1_555
C2 H4 1_555 1_555
H5 C2 1_555 1_555
H6 C2 1_555 1_555
C3 H7 1_555 1_555
H8 C3 1_555 1_555
H9 C3 1_555 1_555
C4 C1 1_555 1_555
C5 O1 1_555 1_555
C6 C5 1_555 1_555
C7 C6 1_555 1_555
C8 C7 1_555 1_555
H10 C8 1_555 1_555
H11 C8 1_555 1_555
H12 C8 1_555 1_555
C9 C10 1_555 1_555
C10 H13 1_555 1_555
H14 C10 1_555 1_555
H15 C10 1_555 1_555
C11 C9 1_555 1_555
C12 C6 1_555 1_555
H16 C12 1_555 1_555
C13 C12 1_555 1_555
C14 C13 1_555 1_555
H17 C14 1_555 1_555
C15 C14 1_555 1_555
H18 C15 1_555 1_555
C16 C15 1_555 1_555
H19 C16 1_555 1_555
C17 C16 1_555 1_555
C18 C13 1_555 1_555
H20 C18 1_555 1_555
C19 C11 1_555 1_555
C20 C21 1_555 1_555
C21 H21 1_555 1_555
C22 C21 1_555 1_555
H22 C22 1_555 1_555
C23 C22 1_555 1_555
H23 C23 1_555 1_555
C24 C23 1_555 1_555
H24 C24 1_555 1_555
C25 C20 1_555 1_555
N1 C7 1_555 1_555
H25 N1 1_555 1_555
N2 C17 1_555 1_555
N3 O6 1_555 1_555
N4 N3 1_555 1_555
N5 C25 1_555 1_555
C2 C4 1_555 1_555
C3 C4 1_555 1_555
C9 N1 1_555 1_555
C11 C12 1_555 1_555
C17 C18 1_555 1_555
C20 N3 1_555 1_555
C24 C25 1_555 1_555
N4 N5 1_555 1_555

#END
