
#######################################################################
#
#                 Cambridge Crystallographic Data Centre
#                                CCDC 
#
#######################################################################
#
# If this CIF has been generated from an entry in the Cambridge 
# Structural Database, then it will include bibliographic, chemical, 
# crystal, experimental, refinement or atomic coordinate data resulting 
# from the CCDC's data processing and validation procedures.
#
#######################################################################

data_SAZLEM
_chemical_formula_moiety         'C26 H24 N4 O6 S2'
_chemical_name_systematic        
N-(But-2-yn-1-yl)-4-methyl-N'-((1-((4-nitrophenyl)sulfonyl)-3-phenylaziridin-2-yl)methylene)benzenesulfonohydrazide
_symmetry_cell_setting           triclinic
_symmetry_space_group_name_H-M   'P -1'
_symmetry_Int_Tables_number      2
_space_group_name_Hall           '-P 1'
loop_
_symmetry_equiv_pos_site_id
_symmetry_equiv_pos_as_xyz
1 x,y,z
2 -x,-y,-z
_cell_length_a                   9.682(2)
_cell_length_b                   10.655(2)
_cell_length_c                   15.011(3)
_cell_angle_alpha                107.220(4)
_cell_angle_beta                 96.011(4)
_cell_angle_gamma                110.395(3)
_cell_volume                     1348.53
_exptl_crystal_colour            yellow
_exptl_crystal_description       prismatic
_cell_formula_units_Z            2
loop_
_atom_site_label
_atom_site_type_symbol
_atom_site_fract_x
_atom_site_fract_y
_atom_site_fract_z
S1 S 0.76657(8) 0.68007(8) 1.01927(5)
S2 S 0.64380(9) 0.00487(8) 0.69355(5)
N1 N 0.7059(2) 0.2300(2) 0.83959(15)
N2 N 0.5999(2) 0.1376(3) 0.75537(16)
N3 N 0.8367(2) 0.5718(2) 1.04633(15)
N4 N 1.2438(6) 0.9492(4) 0.8309(3)
O1 O 0.6257(2) 0.6062(3) 0.94863(18)
O2 O 0.7722(3) 0.7795(2) 1.10984(16)
O3 O 0.5103(3) -0.0900(2) 0.61892(15)
O4 O 0.7019(3) -0.0458(2) 0.76090(16)
O5 O 1.1979(5) 0.9377(3) 0.7470(3)
O6 O 1.3731(4) 1.0023(4) 0.8749(3)
C1 C 0.7367(3) 0.4592(3) 1.07960(19)
H1 H 0.6301 0.4459 1.0695
C2 C 0.7905(3) 0.4159(3) 0.98873(18)
H2 H 0.8719 0.3826 0.9966
C3 C 0.6822(3) 0.3350(3) 0.89519(19)
H3 H 0.6019 0.3579 0.8772
C4 C 0.4745(3) 0.1686(4) 0.7155(2)
H4 H 0.4068 0.0847 0.6612
H5 H 0.4174 0.1863 0.7637
C5 C 0.5253(4) 0.2931(5) 0.6841(2)
C6 C 0.5585(4) 0.3894(6) 0.6571(3)
C7 C 0.6003(6) 0.5123(7) 0.6208(4)
H6 H 0.5908 0.4762 0.5528
H7 H 0.7030 0.5782 0.6520
H8 H 0.5337 0.5608 0.6346
C8 C 0.7996(3) 0.4514(3) 1.17180(19)
C9 C 0.6996(4) 0.3757(3) 1.2166(2)
H9 H 0.5960 0.3327 1.1895
C10 C 0.7567(5) 0.3650(4) 1.3028(2)
H10 H 0.6906 0.3141 1.3326
C11 C 0.9096(5) 0.4291(4) 1.3434(2)
H11 H 0.9466 0.4220 1.4006
C12 C 1.0087(4) 0.5046(4) 1.2990(2)
H12 H 1.1121 0.5486 1.3267
C13 C 0.9539(3) 0.5144(3) 1.2135(2)
H13 H 1.0211 0.5637 1.1835
C14 C 0.9079(3) 0.7671(3) 0.9663(2)
C15 C 1.0555(3) 0.8428(3) 1.0194(2)
H14 H 1.0801 0.8525 1.0833
C16 C 1.1674(4) 0.9049(4) 0.9752(3)
H15 H 1.2683 0.9552 1.0083
C17 C 1.1219(5) 0.8884(3) 0.8794(3)
C18 C 0.9754(5) 0.8185(4) 0.8281(3)
H16 H 0.9493 0.8136 0.7653
C19 C 0.8667(4) 0.7549(4) 0.8719(2)
H17 H 0.7661 0.7041 0.8382
C20 C 0.7908(3) 0.0789(3) 0.64004(19)
C21 C 0.9399(3) 0.1110(3) 0.6804(2)
H18 H 0.9641 0.0962 0.7370
C22 C 1.0531(4) 0.1654(4) 0.6355(3)
H19 H 1.1531 0.1868 0.6628
C23 C 1.0202(4) 0.1887(3) 0.5506(2)
C24 C 0.8692(4) 0.1551(4) 0.5116(2)
H20 H 0.8446 0.1689 0.4547
C25 C 0.7545(3) 0.1015(3) 0.5555(2)
H21 H 0.6545 0.0809 0.5287
C26 C 1.1437(4) 0.2487(4) 0.5024(3)
H22 H 1.1002 0.2264 0.4363
H23 H 1.2165 0.2070 0.5063
H24 H 1.1930 0.3508 0.5340
loop_
_geom_bond_atom_site_label_1
_geom_bond_atom_site_label_2
_geom_bond_site_symmetry_1
_geom_bond_site_symmetry_2
S1 N3 1_555 1_555
S2 N2 1_555 1_555
N1 N2 1_555 1_555
N2 C4 1_555 1_555
N3 C1 1_555 1_555
N4 O5 1_555 1_555
O1 S1 1_555 1_555
O2 S1 1_555 1_555
O3 S2 1_555 1_555
O4 S2 1_555 1_555
O6 N4 1_555 1_555
C1 H1 1_555 1_555
C2 N3 1_555 1_555
H2 C2 1_555 1_555
C3 N1 1_555 1_555
H3 C3 1_555 1_555
C4 H4 1_555 1_555
H5 C4 1_555 1_555
C5 C4 1_555 1_555
C6 C5 1_555 1_555
C7 C6 1_555 1_555
H6 C7 1_555 1_555
H7 C7 1_555 1_555
H8 C7 1_555 1_555
C8 C1 1_555 1_555
C9 C8 1_555 1_555
H9 C9 1_555 1_555
C10 C9 1_555 1_555
H10 C10 1_555 1_555
C11 C10 1_555 1_555
H11 C11 1_555 1_555
C12 C11 1_555 1_555
H12 C12 1_555 1_555
C13 C8 1_555 1_555
H13 C13 1_555 1_555
C14 S1 1_555 1_555
C15 C14 1_555 1_555
H14 C15 1_555 1_555
C16 C15 1_555 1_555
H15 C16 1_555 1_555
C17 N4 1_555 1_555
C18 C17 1_555 1_555
H16 C18 1_555 1_555
C19 C14 1_555 1_555
H17 C19 1_555 1_555
C20 S2 1_555 1_555
C21 C20 1_555 1_555
H18 C21 1_555 1_555
C22 C21 1_555 1_555
H19 C22 1_555 1_555
C23 C22 1_555 1_555
C24 C23 1_555 1_555
H20 C24 1_555 1_555
C25 C20 1_555 1_555
H21 C25 1_555 1_555
C26 C23 1_555 1_555
H22 C26 1_555 1_555
H23 C26 1_555 1_555
H24 C26 1_555 1_555
C1 C2 1_555 1_555
C2 C3 1_555 1_555
C12 C13 1_555 1_555
C16 C17 1_555 1_555
C18 C19 1_555 1_555
C24 C25 1_555 1_555

#END
