
#######################################################################
#
#                 Cambridge Crystallographic Data Centre
#                                CCDC 
#
#######################################################################
#
# If this CIF has been generated from an entry in the Cambridge 
# Structural Database, then it will include bibliographic, chemical, 
# crystal, experimental, refinement or atomic coordinate data resulting 
# from the CCDC's data processing and validation procedures.
#
#######################################################################

data_SAZLAH
_chemical_formula_moiety         'C15 H18 N2 O6'
_chemical_name_systematic        
'2,2-bis(Hydroxymethyl)propane-1,3-diyl bis(1H-pyrrole-2-carboxylate)'
_symmetry_cell_setting           triclinic
_symmetry_space_group_name_H-M   'P -1'
_symmetry_Int_Tables_number      2
_space_group_name_Hall           '-P 1'
loop_
_symmetry_equiv_pos_site_id
_symmetry_equiv_pos_as_xyz
1 x,y,z
2 -x,-y,-z
_cell_length_a                   6.434(2)
_cell_length_b                   9.212(3)
_cell_length_c                   13.715(4)
_cell_angle_alpha                73.202(5)
_cell_angle_beta                 85.533(5)
_cell_angle_gamma                89.330(5)
_cell_volume                     775.788
_exptl_crystal_colour            colorless
_exptl_crystal_description       block
_chemical_melting_point          '411 K'
_cell_formula_units_Z            2
loop_
_atom_site_label
_atom_site_type_symbol
_atom_site_fract_x
_atom_site_fract_y
_atom_site_fract_z
O1 O 0.1565(2) 0.2613(2) 1.17072(12)
O2 O 0.4200(2) 0.28789(16) 1.04926(10)
O3 O 0.6099(2) 0.3316(2) 0.82510(12)
H1 H 0.598(4) 0.377(3) 0.765(2)
O4 O -0.1119(2) 0.2491(2) 0.97534(12)
H2 H -0.185(4) 0.288(3) 0.923(2)
O5 O 0.0965(2) 0.38472(16) 0.72687(10)
O6 O 0.4046(2) 0.45053(19) 0.63450(11)
N1 N 0.6851(3) 0.1343(2) 1.18723(15)
H3 H 0.738(3) 0.174(2) 1.1290(16)
N2 N 0.2372(4) 0.3609(2) 0.47449(14)
H4 H 0.355(4) 0.407(3) 0.457(2)
C1 C 0.7764(4) 0.0464(3) 1.26842(19)
H5 H 0.9171 0.0222 1.2700
C2 C 0.6284(4) -0.0015(3) 1.34805(17)
H6 H 0.6494 -0.0643 1.4129
C3 C 0.4411(4) 0.0611(3) 1.31409(16)
H7 H 0.3134 0.0484 1.3525
C4 C 0.4770(3) 0.1454(2) 1.21380(15)
C5 C 0.3338(3) 0.2349(2) 1.14564(15)
C6 C 0.2990(3) 0.3878(2) 0.97391(15)
H8 H 0.3781 0.4802 0.9409
H9 H 0.1722 0.4148 1.0074
C7 C 0.2428(3) 0.3129(2) 0.89353(14)
C8 C 0.4321(3) 0.2343(2) 0.85818(15)
H10 H 0.4671 0.1478 0.9140
H11 H 0.3961 0.1966 0.8025
C9 C 0.0738(3) 0.1922(2) 0.93779(15)
H12 H 0.0406 0.1467 0.8853
H13 H 0.1278 0.1132 0.9930
C10 C 0.1661(3) 0.4408(2) 0.80711(14)
H14 H 0.0519 0.4917 0.8336
H15 H 0.2779 0.5143 0.7792
C11 C 0.2267(3) 0.3999(2) 0.64317(15)
C12 C 0.1320(3) 0.3482(2) 0.56765(15)
C13 C -0.0548(4) 0.2787(2) 0.56928(17)
H16 H -0.1572 0.2549 0.6233
C14 C -0.0646(4) 0.2495(3) 0.4755(2)
H17 H -0.1740 0.2025 0.4555
C15 C 0.1164(5) 0.3030(3) 0.41866(19)
H18 H 0.1509 0.3000 0.3522
loop_
_geom_bond_atom_site_label_1
_geom_bond_atom_site_label_2
_geom_bond_site_symmetry_1
_geom_bond_site_symmetry_2
O1 C5 1_555 1_555
O2 C5 1_555 1_555
O3 H1 1_555 1_555
O4 H2 1_555 1_555
O5 C10 1_555 1_555
O6 C11 1_555 1_555
N1 H3 1_555 1_555
N2 H4 1_555 1_555
C1 N1 1_555 1_555
H5 C1 1_555 1_555
C2 C1 1_555 1_555
H6 C2 1_555 1_555
C3 C2 1_555 1_555
H7 C3 1_555 1_555
C4 N1 1_555 1_555
C5 C4 1_555 1_555
C6 O2 1_555 1_555
H8 C6 1_555 1_555
H9 C6 1_555 1_555
C7 C6 1_555 1_555
C8 O3 1_555 1_555
H10 C8 1_555 1_555
H11 C8 1_555 1_555
C9 O4 1_555 1_555
H12 C9 1_555 1_555
H13 C9 1_555 1_555
C10 C7 1_555 1_555
H14 C10 1_555 1_555
H15 C10 1_555 1_555
C11 O5 1_555 1_555
C12 N2 1_555 1_555
C13 C12 1_555 1_555
H16 C13 1_555 1_555
C14 C13 1_555 1_555
H17 C14 1_555 1_555
C15 N2 1_555 1_555
H18 C15 1_555 1_555
C3 C4 1_555 1_555
C7 C8 1_555 1_555
C7 C9 1_555 1_555
C11 C12 1_555 1_555
C14 C15 1_555 1_555

#END
