
#######################################################################
#
#                 Cambridge Crystallographic Data Centre
#                                CCDC 
#
#######################################################################
#
# If this CIF has been generated from an entry in the Cambridge 
# Structural Database, then it will include bibliographic, chemical, 
# crystal, experimental, refinement or atomic coordinate data resulting 
# from the CCDC's data processing and validation procedures.
#
#######################################################################

data_SAZLEL02
_chemical_formula_moiety         'C8 H8 F1 N1 O1'
_chemical_name_systematic        N-(4-Fluorophenyl)acetamide
_symmetry_cell_setting           orthorhombic
_symmetry_space_group_name_H-M   'P b c a'
_symmetry_Int_Tables_number      61
_space_group_name_Hall           '-P 2ac 2ab'
loop_
_symmetry_equiv_pos_site_id
_symmetry_equiv_pos_as_xyz
1 x,y,z
2 1/2+x,1/2-y,-z
3 -x,1/2+y,1/2-z
4 1/2-x,-y,1/2+z
5 -x,-y,-z
6 1/2-x,1/2+y,z
7 x,1/2-y,1/2+z
8 1/2+x,y,1/2-z
_cell_length_a                   9.4117(4)
_cell_length_b                   7.7523(3)
_cell_length_c                   20.2204(7)
_cell_angle_alpha                90
_cell_angle_beta                 90
_cell_angle_gamma                90
_cell_volume                     1475.33
_exptl_crystal_colour            colorless
_exptl_crystal_description       Needle
_cell_formula_units_Z            8
loop_
_atom_site_label
_atom_site_type_symbol
_atom_site_fract_x
_atom_site_fract_y
_atom_site_fract_z
N1 N 0.45081(10) 0.80556(12) 0.02653(5)
H1 H 0.5389 0.7718 0.0198
O1 O 0.23532(9) 0.83655(12) -0.02320(4)
F1 F 0.34075(9) 1.03141(10) 0.28075(3)
C1 C 0.41955(12) 0.87178(13) 0.09021(5)
C2 C 0.30084(13) 0.97367(14) 0.10398(6)
H2 H 0.2377 1.0057 0.0695
C3 C 0.27552(13) 1.02792(15) 0.16837(6)
H3 H 0.1945 1.0962 0.1784
C4 C 0.36908(14) 0.98156(15) 0.21735(6)
C5 C 0.48993(13) 0.88639(15) 0.20502(6)
H4 H 0.5544 0.8591 0.2396
C6 C 0.51499(13) 0.83149(15) 0.14076(6)
H5 H 0.5977 0.7660 0.1311
C7 C 0.36009(12) 0.78839(14) -0.02510(6)
C8 C 0.42099(13) 0.70346(15) -0.08566(6)
H6 H 0.3777 0.5895 -0.0915
H7 H 0.5240 0.6907 -0.0804
H8 H 0.4010 0.7749 -0.1246
loop_
_geom_bond_atom_site_label_1
_geom_bond_atom_site_label_2
_geom_bond_site_symmetry_1
_geom_bond_site_symmetry_2
N1 H1 1_555 1_555
O1 C7 1_555 1_555
F1 C4 1_555 1_555
C1 N1 1_555 1_555
C2 C1 1_555 1_555
H2 C2 1_555 1_555
C3 C2 1_555 1_555
H3 C3 1_555 1_555
C4 C3 1_555 1_555
C5 C4 1_555 1_555
H4 C5 1_555 1_555
C6 C1 1_555 1_555
H5 C6 1_555 1_555
C7 N1 1_555 1_555
C8 C7 1_555 1_555
H6 C8 1_555 1_555
H7 C8 1_555 1_555
H8 C8 1_555 1_555
C5 C6 1_555 1_555

#END
