
#######################################################################
#
#                 Cambridge Crystallographic Data Centre
#                                CCDC 
#
#######################################################################
#
# If this CIF has been generated from an entry in the Cambridge 
# Structural Database, then it will include bibliographic, chemical, 
# crystal, experimental, refinement or atomic coordinate data resulting 
# from the CCDC's data processing and validation procedures.
#
#######################################################################

data_SAZNIR
_chemical_formula_moiety         'C20 H15 F1 N4 O1'
_chemical_name_systematic        
4-(4-Fluorophenyl)-3-methyl-6-oxo-1-phenyl-4,5,6,7-tetrahydro-1H-pyrazolo(3,4-b)pyridine-5-carbonitrile
_symmetry_cell_setting           orthorhombic
_symmetry_space_group_name_H-M   'P b c a'
_symmetry_Int_Tables_number      61
_space_group_name_Hall           '-P 2ac 2ab'
loop_
_symmetry_equiv_pos_site_id
_symmetry_equiv_pos_as_xyz
1 x,y,z
2 1/2-x,-y,1/2+z
3 -x,1/2+y,1/2-z
4 1/2+x,1/2-y,-z
5 -x,-y,-z
6 1/2+x,y,1/2-z
7 x,1/2-y,1/2+z
8 1/2-x,1/2+y,z
_cell_length_a                   10.856(5)
_cell_length_b                   8.245(4)
_cell_length_c                   38.898(17)
_cell_angle_alpha                90
_cell_angle_beta                 90
_cell_angle_gamma                90
_cell_volume                     3481.67
_exptl_crystal_colour            colorless
_exptl_crystal_description       block
_chemical_melting_point          '497-498 K'
_cell_formula_units_Z            8
_exptl_crystal_recrystallization_method '95% ethanol'
loop_
_atom_site_label
_atom_site_type_symbol
_atom_site_fract_x
_atom_site_fract_y
_atom_site_fract_z
F1 F 0.5985(3) 0.3427(4) 0.49399(7)
N1 N 0.4743(2) 0.1085(3) 0.66799(7)
H1 H 0.4430 0.1726 0.6831
N2 N 0.2834(2) -0.0461(3) 0.66026(7)
N3 N 0.2384(2) -0.1592(3) 0.63736(7)
N4 N 0.8660(3) 0.0407(4) 0.61601(9)
O1 O 0.6632(2) 0.2236(3) 0.67158(6)
C1 C 0.5971(3) 0.1169(4) 0.66039(8)
C2 C 0.6450(2) -0.0233(4) 0.63825(9)
H2 H 0.6520 -0.1179 0.6534
C3 C 0.5599(3) -0.0737(4) 0.60773(8)
H3 H 0.5860 -0.1817 0.6001
C4 C 0.4338(3) -0.0907(4) 0.62334(8)
C5 C 0.4001(3) -0.0040(4) 0.65128(8)
C6 C 0.3311(3) -0.1871(4) 0.61542(9)
C7 C 0.7699(3) 0.0152(4) 0.62641(9)
C8 C 0.5677(3) 0.0389(4) 0.57698(9)
C9 C 0.6277(4) -0.0099(5) 0.54775(10)
H4 H 0.6622 -0.1131 0.5468
C10 C 0.6378(5) 0.0929(7) 0.51946(11)
H5 H 0.6781 0.0592 0.4996
C11 C 0.5878(4) 0.2421(6) 0.52155(10)
C12 C 0.5286(4) 0.2951(5) 0.54961(10)
H6 H 0.4950 0.3989 0.5502
C13 C 0.5183(3) 0.1936(4) 0.57759(9)
H7 H 0.4774 0.2296 0.5972
C14 C 0.2059(3) 0.0187(4) 0.68625(9)
C15 C 0.0829(3) 0.0493(5) 0.67888(10)
H8 H 0.0513 0.0240 0.6573
C16 C 0.0082(4) 0.1170(6) 0.70340(12)
H9 H -0.0749 0.1343 0.6988
C17 C 0.0563(4) 0.1593(6) 0.73481(13)
H10 H 0.0064 0.2096 0.7511
C18 C 0.1774(4) 0.1280(6) 0.74243(11)
H11 H 0.2088 0.1552 0.7639
C19 C 0.2525(4) 0.0561(5) 0.71824(9)
H12 H 0.3342 0.0331 0.7235
C20 C 0.3188(3) -0.3058(5) 0.58706(9)
H13 H 0.2540 -0.3810 0.5923
H14 H 0.3949 -0.3637 0.5843
H15 H 0.2996 -0.2497 0.5661
loop_
_geom_bond_atom_site_label_1
_geom_bond_atom_site_label_2
_geom_bond_site_symmetry_1
_geom_bond_site_symmetry_2
F1 C11 1_555 1_555
N1 H1 1_555 1_555
N2 N3 1_555 1_555
N3 C6 1_555 1_555
N4 C7 1_555 1_555
O1 C1 1_555 1_555
C1 N1 1_555 1_555
C2 C1 1_555 1_555
H2 C2 1_555 1_555
C3 C2 1_555 1_555
H3 C3 1_555 1_555
C4 C3 1_555 1_555
C5 N1 1_555 1_555
C6 C4 1_555 1_555
C7 C2 1_555 1_555
C8 C3 1_555 1_555
C9 C8 1_555 1_555
H4 C9 1_555 1_555
C10 C9 1_555 1_555
H5 C10 1_555 1_555
C11 C10 1_555 1_555
C12 C11 1_555 1_555
H6 C12 1_555 1_555
C13 C8 1_555 1_555
H7 C13 1_555 1_555
C14 N2 1_555 1_555
C15 C14 1_555 1_555
H8 C15 1_555 1_555
C16 C15 1_555 1_555
H9 C16 1_555 1_555
C17 C16 1_555 1_555
H10 C17 1_555 1_555
C18 C17 1_555 1_555
H11 C18 1_555 1_555
C19 C14 1_555 1_555
H12 C19 1_555 1_555
C20 C6 1_555 1_555
H13 C20 1_555 1_555
H14 C20 1_555 1_555
H15 C20 1_555 1_555
N2 C5 1_555 1_555
C4 C5 1_555 1_555
C12 C13 1_555 1_555
C18 C19 1_555 1_555

#END
