
#######################################################################
#
#                 Cambridge Crystallographic Data Centre
#                                CCDC 
#
#######################################################################
#
# If this CIF has been generated from an entry in the Cambridge 
# Structural Database, then it will include bibliographic, chemical, 
# crystal, experimental, refinement or atomic coordinate data resulting 
# from the CCDC's data processing and validation procedures.
#
#######################################################################

data_SAZRUI
_chemical_name_common            
'meso-Tetra(3,4,5-trimethoxyphenyl)-2(R),3(S),12(S),13(R)-tetramethoxybacteriochlorin dichloromethane solvate'
_chemical_formula_moiety         'C60 H66 N4 O16,4(C1 H2 Cl2)'
_chemical_name_systematic        
'meso-2,3,12,13-Tetramethoxy-5,10,15,20-tetrakis(3,4,5-trimethoxyphenyl)-2,3,12,13-tetrahydroporphyrin dichloromethane solvate'
_symmetry_cell_setting           triclinic
_symmetry_space_group_name_H-M   'P -1'
_symmetry_Int_Tables_number      2
_space_group_name_Hall           '-P 1'
loop_
_symmetry_equiv_pos_site_id
_symmetry_equiv_pos_as_xyz
1 x,y,z
2 -x,-y,-z
_cell_length_a                   10.8723(15)
_cell_length_b                   12.237(3)
_cell_length_c                   14.380(2)
_cell_angle_alpha                108.550(3)
_cell_angle_beta                 111.400(2)
_cell_angle_gamma                95.110(3)
_cell_volume                     1642.49
_exptl_crystal_colour            brown
_exptl_crystal_description       plate
_cell_formula_units_Z            1
loop_
_atom_site_label
_atom_site_type_symbol
_atom_site_fract_x
_atom_site_fract_y
_atom_site_fract_z
C1 C 0.9857(2) 1.21494(17) 0.67893(16)
C2 C 0.9218(2) 1.25473(18) 0.75872(17)
H1 H 0.9893 1.2680 0.8329
C3 C 0.8058(2) 1.14631(17) 0.71947(17)
H2 H 0.8011 1.1262 0.7805
C4 C 0.8457(2) 1.05109(17) 0.64611(16)
C5 C 0.7842(2) 0.93186(17) 0.61018(16)
C6 C 0.7945(2) 0.83800(17) 0.52890(16)
C7 C 0.7236(2) 0.71776(18) 0.48552(17)
H3 H 0.6641 0.6854 0.5097
C8 C 0.7555(2) 0.65603(18) 0.40267(17)
H4 H 0.7199 0.5742 0.3584
C9 C 0.8510(2) 0.73576(17) 0.39459(16)
C10 C 0.9141(2) 0.70749(17) 0.32335(16)
C11 C 0.8969(3) 1.4379(2) 0.8630(2)
H5 H 0.8539 1.3958 0.8950
H6 H 0.8566 1.5052 0.8570
H7 H 0.9945 1.4667 0.9089
C12 C 0.5984(2) 1.2058(2) 0.7079(2)
H8 H 0.5910 1.1606 0.7517
H9 H 0.5075 1.2005 0.6557
H10 H 0.6422 1.2890 0.7548
C13 C 0.7049(2) 0.89905(17) 0.66779(16)
C14 C 0.5692(2) 0.90423(17) 0.64040(16)
H11 H 0.5215 0.9249 0.5809
C15 C 0.5040(2) 0.87879(17) 0.70138(16)
C16 C 0.5739(2) 0.84620(17) 0.78740(16)
C17 C 0.7091(2) 0.83899(18) 0.81358(16)
C18 C 0.7747(2) 0.86602(18) 0.75369(17)
H12 H 0.8669 0.8620 0.7713
C19 C 0.2942(2) 0.9117(2) 0.59607(19)
H13 H 0.3347 0.9919 0.6064
H14 H 0.2014 0.9079 0.5911
H15 H 0.2919 0.8547 0.5294
C20 C 0.4458(3) 0.7019(2) 0.8100(2)
H16 H 0.3626 0.6832 0.7446
H17 H 0.4229 0.6859 0.8651
H18 H 0.5071 0.6528 0.7931
C21 C 0.9048(2) 0.7976(3) 0.9281(2)
H19 H 0.9133 0.7396 0.8669
H20 H 0.9343 0.7724 0.9895
H21 H 0.9619 0.8752 0.9483
C22 C 0.8651(2) 0.58273(17) 0.24085(17)
C23 C 0.9068(2) 0.48923(18) 0.26976(17)
H22 H 0.9602 0.5028 0.3431
C24 C 0.8701(2) 0.37600(18) 0.19076(18)
C25 C 0.7914(2) 0.35471(18) 0.08277(17)
C26 C 0.7406(2) 0.44717(18) 0.05613(16)
C27 C 0.7790(2) 0.56098(18) 0.13490(17)
H23 H 0.7462 0.6237 0.1160
C28 C 0.9681(3) 0.2938(2) 0.3232(2)
H24 H 1.0582 0.3478 0.3596
H25 H 0.9766 0.2165 0.3280
H26 H 0.9100 0.3267 0.3581
C29 C 0.7087(3) 0.1418(2) 0.0006(2)
H27 H 0.7806 0.1103 0.0408
H28 H 0.6587 0.0840 -0.0735
H29 H 0.6463 0.1570 0.0356
C30 C 0.6054(2) 0.5098(2) -0.08157(19)
H30 H 0.5550 0.5456 -0.0402
H31 H 0.5451 0.4770 -0.1587
H32 H 0.6822 0.5703 -0.0677
N1 N 0.93963(17) 1.09723(14) 0.61845(13)
N2 N 0.87185(17) 0.84500(14) 0.47238(14)
H37 H 0.9268 0.9101 0.4844
O1 O 0.87617(17) 1.35943(13) 0.75866(14)
O2 O 0.67773(15) 1.15826(13) 0.65170(12)
O3 O 0.37351(15) 0.88352(14) 0.68543(12)
O4 O 0.51111(15) 0.82414(13) 0.84972(12)
O5 O 0.76610(15) 0.80558(15) 0.89843(13)
O6 O 0.90923(17) 0.28005(13) 0.21267(13)
O7 O 0.76756(18) 0.24953(13) -0.00115(13)
O8 O 0.65460(16) 0.41726(13) -0.04965(12)
C1A C 1.0143(2) 0.78506(17) 0.32107(16)
C2A C 1.0782(2) 0.74527(18) 0.24128(17)
H1A H 1.0107 0.7320 0.1671
C3A C 1.1942(2) 0.85369(17) 0.28053(17)
H2A H 1.1989 0.8738 0.2195
C4A C 1.1543(2) 0.94891(17) 0.35389(16)
C5A C 1.2158(2) 1.06814(17) 0.38982(16)
C6A C 1.2055(2) 1.16200(17) 0.47110(16)
C7A C 1.2764(2) 1.28224(18) 0.51448(17)
H3A H 1.3359 1.3146 0.4903
C8A C 1.2445(2) 1.34397(18) 0.59733(17)
H4A H 1.2801 1.4258 0.6416
C9A C 1.1490(2) 1.26424(17) 0.60541(16)
C10A C 1.0859(2) 1.29251(17) 0.67665(16)
C11A C 1.1031(3) 0.5621(2) 0.1370(2)
H5A H 1.1461 0.6042 0.1050
H6A H 1.1434 0.4948 0.1430
H7A H 1.0055 0.5333 0.0911
C12A C 1.4016(2) 0.7942(2) 0.2921(2)
H8A H 1.4090 0.8394 0.2483
H9A H 1.4925 0.7995 0.3443
H10A H 1.3578 0.7110 0.2452
C13A C 1.2951(2) 1.10095(17) 0.33221(16)
C14A C 1.4308(2) 1.09577(17) 0.35960(16)
H11A H 1.4785 1.0751 0.4191
C15A C 1.4960(2) 1.12121(17) 0.29862(16)
C16A C 1.4261(2) 1.15380(17) 0.21260(16)
C17A C 1.2909(2) 1.16101(18) 0.18642(16)
C18A C 1.2253(2) 1.13398(18) 0.24631(17)
H12A H 1.1331 1.1380 0.2287
C19A C 1.7058(2) 1.0883(2) 0.40393(19)
H13A H 1.6653 1.0081 0.3936
H14A H 1.7986 1.0921 0.4089
H15A H 1.7081 1.1453 0.4706
C20A C 1.5542(3) 1.2981(2) 0.1900(2)
H16A H 1.6374 1.3168 0.2554
H17A H 1.5771 1.3141 0.1349
H18A H 1.4929 1.3472 0.2069
C21A C 1.0952(2) 1.2024(3) 0.0719(2)
H19A H 1.0867 1.2604 0.1331
H20A H 1.0657 1.2276 0.0105
H21A H 1.0381 1.1248 0.0517
C22A C 1.1349(2) 1.41727(17) 0.75915(17)
C23A C 1.0932(2) 1.51077(18) 0.73024(17)
H22A H 1.0398 1.4972 0.6569
C24A C 1.1299(2) 1.62400(18) 0.80924(18)
C25A C 1.2086(2) 1.64529(18) 0.91723(17)
C26A C 1.2594(2) 1.55283(18) 0.94387(16)
C27A C 1.2210(2) 1.43902(18) 0.86510(17)
H23A H 1.2538 1.3763 0.8840
C28A C 1.0319(3) 1.7062(2) 0.6768(2)
H24A H 0.9418 1.6522 0.6404
H25A H 1.0234 1.7835 0.6720
H26A H 1.0900 1.6733 0.6419
C29A C 1.2913(3) 1.8582(2) 0.9994(2)
H27A H 1.2194 1.8897 0.9592
H28A H 1.3413 1.9160 1.0735
H29A H 1.3537 1.8430 0.9644
C30A C 1.3946(2) 1.4902(2) 1.08157(19)
H30A H 1.4450 1.4544 1.0402
H31A H 1.4549 1.5230 1.1587
H32A H 1.3178 1.4297 1.0677
N1A N 1.06037(17) 0.90277(14) 0.38155(13)
N2A N 1.12815(17) 1.15500(14) 0.52762(14)
H37A H 1.0732 1.0899 0.5156
O1A O 1.12383(17) 0.64057(13) 0.24134(14)
O2A O 1.32227(15) 0.84174(13) 0.34830(12)
O3A O 1.62649(15) 1.11648(14) 0.31457(12)
O4A O 1.48889(15) 1.17586(13) 0.15028(12)
O5A O 1.23390(15) 1.19442(15) 0.10157(13)
O6A O 1.09077(17) 1.71995(13) 0.78733(13)
O7A O 1.23244(18) 1.75047(13) 1.00115(13)
O8A O 1.34540(16) 1.58274(13) 1.04965(12)
C31 C 0.6517(3) 0.3930(2) 0.5641(2)
H33 H 0.6966 0.3514 0.6112
H34 H 0.5604 0.3426 0.5124
Cl1 Cl 0.74691(7) 0.41350(6) 0.49280(5)
Cl2 Cl 0.63479(9) 0.52998(7) 0.64394(6)
C32 C 0.6845(2) 0.9327(2) 0.11572(19)
H35 H 0.6529 0.9104 0.0369
H36 H 0.6535 1.0048 0.1440
Cl3 Cl 0.61207(8) 0.81616(6) 0.14116(7)
Cl4 Cl 0.86324(7) 0.96409(6) 0.17651(6)
loop_
_geom_bond_atom_site_label_1
_geom_bond_atom_site_label_2
_geom_bond_site_symmetry_1
_geom_bond_site_symmetry_2
C1 C2 1_555 1_555
C2 H1 1_555 1_555
C3 C2 1_555 1_555
H2 C3 1_555 1_555
C4 C3 1_555 1_555
C5 C4 1_555 1_555
C6 C5 1_555 1_555
C7 C6 1_555 1_555
H3 C7 1_555 1_555
C8 C7 1_555 1_555
H4 C8 1_555 1_555
C9 C8 1_555 1_555
C10 C9 1_555 1_555
C11 H5 1_555 1_555
H6 C11 1_555 1_555
H7 C11 1_555 1_555
C12 H8 1_555 1_555
H9 C12 1_555 1_555
H10 C12 1_555 1_555
C13 C5 1_555 1_555
C14 C13 1_555 1_555
H11 C14 1_555 1_555
C15 C14 1_555 1_555
C16 C15 1_555 1_555
C17 C16 1_555 1_555
C18 C13 1_555 1_555
H12 C18 1_555 1_555
C19 H13 1_555 1_555
H14 C19 1_555 1_555
H15 C19 1_555 1_555
C20 H16 1_555 1_555
H17 C20 1_555 1_555
H18 C20 1_555 1_555
C21 H19 1_555 1_555
H20 C21 1_555 1_555
H21 C21 1_555 1_555
C22 C10 1_555 1_555
C23 C22 1_555 1_555
H22 C23 1_555 1_555
C24 C23 1_555 1_555
C25 C24 1_555 1_555
C26 C25 1_555 1_555
C27 C22 1_555 1_555
H23 C27 1_555 1_555
C28 H24 1_555 1_555
H25 C28 1_555 1_555
H26 C28 1_555 1_555
C29 H27 1_555 1_555
H28 C29 1_555 1_555
H29 C29 1_555 1_555
C30 H30 1_555 1_555
H31 C30 1_555 1_555
H32 C30 1_555 1_555
C31 H33 1_555 1_555
H34 C31 1_555 1_555
C32 H35 1_555 1_555
H36 C32 1_555 1_555
Cl1 C31 1_555 1_555
Cl2 C31 1_555 1_555
Cl3 C32 1_555 1_555
Cl4 C32 1_555 1_555
N1 C1 1_555 1_555
N2 C6 1_555 1_555
H37 N2 1_555 1_555
O1 C2 1_555 1_555
O2 C3 1_555 1_555
O3 C15 1_555 1_555
O4 C16 1_555 1_555
O5 C17 1_555 1_555
O6 C24 1_555 1_555
O7 C25 1_555 1_555
O8 C26 1_555 1_555
C1A C10 1_555 1_555
C2A C1A 1_555 1_555
H1A C2A 1_555 1_555
C3A C2A 1_555 1_555
H2A C3A 1_555 1_555
C4A C3A 1_555 1_555
C5A C4A 1_555 1_555
C6A C5A 1_555 1_555
C7A C6A 1_555 1_555
H3A C7A 1_555 1_555
C8A C7A 1_555 1_555
H4A C8A 1_555 1_555
C9A C8A 1_555 1_555
C10A C1 1_555 1_555
C11A H5A 1_555 1_555
H6A C11A 1_555 1_555
H7A C11A 1_555 1_555
C12A H8A 1_555 1_555
H9A C12A 1_555 1_555
H10A C12A 1_555 1_555
C13A C5A 1_555 1_555
C14A C13A 1_555 1_555
H11A C14A 1_555 1_555
C15A C14A 1_555 1_555
C16A C15A 1_555 1_555
C17A C16A 1_555 1_555
C18A C13A 1_555 1_555
H12A C18A 1_555 1_555
C19A H13A 1_555 1_555
H14A C19A 1_555 1_555
H15A C19A 1_555 1_555
C20A H16A 1_555 1_555
H17A C20A 1_555 1_555
H18A C20A 1_555 1_555
C21A H19A 1_555 1_555
H20A C21A 1_555 1_555
H21A C21A 1_555 1_555
C22A C10A 1_555 1_555
C23A C22A 1_555 1_555
H22A C23A 1_555 1_555
C24A C23A 1_555 1_555
C25A C24A 1_555 1_555
C26A C25A 1_555 1_555
C27A C22A 1_555 1_555
H23A C27A 1_555 1_555
C28A H24A 1_555 1_555
H25A C28A 1_555 1_555
H26A C28A 1_555 1_555
C29A H27A 1_555 1_555
H28A C29A 1_555 1_555
H29A C29A 1_555 1_555
C30A H30A 1_555 1_555
H31A C30A 1_555 1_555
H32A C30A 1_555 1_555
N1A C1A 1_555 1_555
N2A C6A 1_555 1_555
H37A N2A 1_555 1_555
O1A C2A 1_555 1_555
O2A C3A 1_555 1_555
O3A C15A 1_555 1_555
O4A C16A 1_555 1_555
O5A C17A 1_555 1_555
O6A C24A 1_555 1_555
O7A C25A 1_555 1_555
O8A C26A 1_555 1_555
C4 N1 1_555 1_555
C9 N2 1_555 1_555
C11 O1 1_555 1_555
C12 O2 1_555 1_555
C17 C18 1_555 1_555
C19 O3 1_555 1_555
C20 O4 1_555 1_555
C21 O5 1_555 1_555
C26 C27 1_555 1_555
C28 O6 1_555 1_555
C29 O7 1_555 1_555
C30 O8 1_555 1_555
C4A N1A 1_555 1_555
C9A C10A 1_555 1_555
C9A N2A 1_555 1_555
C11A O1A 1_555 1_555
C12A O2A 1_555 1_555
C17A C18A 1_555 1_555
C19A O3A 1_555 1_555
C20A O4A 1_555 1_555
C21A O5A 1_555 1_555
C26A C27A 1_555 1_555
C28A O6A 1_555 1_555
C29A O7A 1_555 1_555
C30A O8A 1_555 1_555

#END
