
#######################################################################
#
#                 Cambridge Crystallographic Data Centre
#                                CCDC 
#
#######################################################################
#
# If this CIF has been generated from an entry in the Cambridge 
# Structural Database, then it will include bibliographic, chemical, 
# crystal, experimental, refinement or atomic coordinate data resulting 
# from the CCDC's data processing and validation procedures.
#
#######################################################################

data_SAZSUK
_chemical_formula_moiety         'C26 H26 N2 O4 S1'
_chemical_name_systematic        
1-((4-methylphenyl)sulfonyl)-17,18-didehydro-2,7-dihydroyohimban-5,16-dione
_symmetry_cell_setting           orthorhombic
_symmetry_space_group_name_H-M   'P 21 21 21'
_symmetry_Int_Tables_number      19
_space_group_name_Hall           'P 2ac 2ab'
loop_
_symmetry_equiv_pos_site_id
_symmetry_equiv_pos_as_xyz
1 x,y,z
2 1/2-x,-y,1/2+z
3 1/2+x,1/2-y,-z
4 -x,1/2+y,1/2-z
_cell_length_a                   9.5523(9)
_cell_length_b                   9.7572(10)
_cell_length_c                   24.493(3)
_cell_angle_alpha                90
_cell_angle_beta                 90
_cell_angle_gamma                90
_cell_volume                     2282.84
_exptl_crystal_description       block
_cell_formula_units_Z            4
loop_
_atom_site_label
_atom_site_type_symbol
_atom_site_fract_x
_atom_site_fract_y
_atom_site_fract_z
S1 S 0.39990(13) 0.49229(13) 0.75004(6)
O1 O 0.1953(5) -0.0795(4) 0.61025(17)
O2 O 0.4569(5) 0.4577(5) 0.53253(18)
O3 O 0.5451(3) 0.4733(3) 0.74014(14)
O4 O 0.3421(4) 0.6280(3) 0.75271(16)
N1 N 0.3433(4) 0.0999(4) 0.61413(17)
N2 N 0.3177(4) 0.4165(4) 0.69906(16)
C1 C 0.2369(6) 0.0223(6) 0.6339(2)
C2 C 0.1768(6) 0.0568(5) 0.6883(2)
H1 H 0.2121 -0.0097 0.7143
H2 H 0.0763 0.0439 0.6861
C3 C 0.2034(5) 0.2004(5) 0.7121(2)
H3 H 0.2081 0.1915 0.7519
C4 C 0.0981(6) 0.3120(5) 0.6991(2)
C5 C -0.0449(6) 0.3082(6) 0.6939(2)
H4 H -0.0931 0.2264 0.6989
C6 C -0.1165(6) 0.4267(7) 0.6811(2)
H5 H -0.2135 0.4253 0.6778
C7 C -0.0436(7) 0.5477(7) 0.6731(2)
H6 H -0.0924 0.6262 0.6630
C8 C 0.1005(6) 0.5550(5) 0.6796(2)
H7 H 0.1487 0.6370 0.6750
C9 C 0.1695(5) 0.4352(5) 0.69344(19)
C10 C 0.3417(5) 0.2637(5) 0.6928(2)
H8 H 0.4204 0.2327 0.7153
C11 C 0.3718(5) 0.2428(5) 0.6319(2)
H9 H 0.3104 0.3041 0.6111
C12 C 0.5230(5) 0.2841(6) 0.6207(2)
H10 H 0.5837 0.2358 0.6459
H11 H 0.5333 0.3814 0.6276
C13 C 0.5709(6) 0.2536(6) 0.5623(2)
H12 H 0.6724 0.2681 0.5611
C14 C 0.5064(6) 0.3458(7) 0.5200(3)
C15 C 0.5052(7) 0.2989(8) 0.4640(3)
H13 H 0.4769 0.3586 0.4365
C16 C 0.5436(7) 0.1726(9) 0.4510(3)
H14 H 0.5421 0.1479 0.4143
C17 C 0.5885(6) 0.0685(7) 0.4911(2)
H15 H 0.6897 0.0604 0.4898
H16 H 0.5492 -0.0195 0.4809
C18 C 0.5443(6) 0.1019(6) 0.5499(2)
H17 H 0.6009 0.0464 0.5749
C19 C 0.3915(6) 0.0673(6) 0.5590(2)
H18 H 0.3351 0.1176 0.5328
H19 H 0.3775 -0.0297 0.5522
C20 C 0.3565(5) 0.4063(5) 0.8108(2)
C21 C 0.2285(6) 0.4308(5) 0.8350(2)
H20 H 0.1662 0.4920 0.8189
C22 C 0.1922(6) 0.3646(6) 0.8831(3)
H21 H 0.1053 0.3808 0.8990
C23 C 0.2851(7) 0.2746(6) 0.9074(3)
C24 C 0.4128(8) 0.2505(6) 0.8826(3)
H22 H 0.4756 0.1896 0.8985
C25 C 0.4483(6) 0.3159(5) 0.8345(2)
H23 H 0.5344 0.2986 0.8182
C26 C 0.2437(7) 0.2044(7) 0.9606(3)
H24 H 0.1586 0.1538 0.9552
H25 H 0.2296 0.2723 0.9884
H26 H 0.3168 0.1429 0.9717
loop_
_geom_bond_atom_site_label_1
_geom_bond_atom_site_label_2
_geom_bond_site_symmetry_1
_geom_bond_site_symmetry_2
S1 O3 1_555 1_555
O1 C1 1_555 1_555
O2 C14 1_555 1_555
O4 S1 1_555 1_555
N1 C1 1_555 1_555
N2 S1 1_555 1_555
C1 C2 1_555 1_555
C2 H1 1_555 1_555
H2 C2 1_555 1_555
C3 C2 1_555 1_555
H3 C3 1_555 1_555
C4 C3 1_555 1_555
C5 C4 1_555 1_555
H4 C5 1_555 1_555
C6 C5 1_555 1_555
H5 C6 1_555 1_555
C7 C6 1_555 1_555
H6 C7 1_555 1_555
C8 C7 1_555 1_555
H7 C8 1_555 1_555
C9 N2 1_555 1_555
C10 N2 1_555 1_555
H8 C10 1_555 1_555
C11 N1 1_555 1_555
H9 C11 1_555 1_555
C12 C11 1_555 1_555
H10 C12 1_555 1_555
H11 C12 1_555 1_555
C13 C12 1_555 1_555
H12 C13 1_555 1_555
C14 C13 1_555 1_555
C15 C14 1_555 1_555
H13 C15 1_555 1_555
C16 C15 1_555 1_555
H14 C16 1_555 1_555
C17 C16 1_555 1_555
H15 C17 1_555 1_555
H16 C17 1_555 1_555
C18 C13 1_555 1_555
H17 C18 1_555 1_555
C19 N1 1_555 1_555
H18 C19 1_555 1_555
H19 C19 1_555 1_555
C20 S1 1_555 1_555
C21 C20 1_555 1_555
H20 C21 1_555 1_555
C22 C21 1_555 1_555
H21 C22 1_555 1_555
C23 C22 1_555 1_555
C24 C23 1_555 1_555
H22 C24 1_555 1_555
C25 C20 1_555 1_555
H23 C25 1_555 1_555
C26 C23 1_555 1_555
H24 C26 1_555 1_555
H25 C26 1_555 1_555
H26 C26 1_555 1_555
C3 C10 1_555 1_555
C4 C9 1_555 1_555
C8 C9 1_555 1_555
C10 C11 1_555 1_555
C17 C18 1_555 1_555
C18 C19 1_555 1_555
C24 C25 1_555 1_555

#END
