
#######################################################################
#
#                 Cambridge Crystallographic Data Centre
#                                CCDC 
#
#######################################################################
#
# If this CIF has been generated from an entry in the Cambridge 
# Structural Database, then it will include bibliographic, chemical, 
# crystal, experimental, refinement or atomic coordinate data resulting 
# from the CCDC's data processing and validation procedures.
#
#######################################################################

data_SAZSAP
_chemical_name_common            meso-Tetraphenyl-2-hydroxychlorin
_chemical_formula_moiety         'C44 H32 N4 O1'
_chemical_name_systematic        
meso-5,10,15,20-tetraphenyl-2,3-dihydroporphyrin-2-ol
_symmetry_cell_setting           tetragonal
_symmetry_space_group_name_H-M   'I -4 2 d'
_symmetry_Int_Tables_number      122
_space_group_name_Hall           'I -4 2bw'
loop_
_symmetry_equiv_pos_site_id
_symmetry_equiv_pos_as_xyz
1 x,y,z
2 -x,-y,z
3 y,-x,-z
4 -y,x,-z
5 1/2-x,y,3/4-z
6 1/2+x,-y,3/4-z
7 1/2-y,-x,3/4+z
8 1/2+y,x,3/4+z
9 1/2+x,1/2+y,1/2+z
10 1/2-x,1/2-y,1/2+z
11 1/2+y,1/2-x,1/2-z
12 1/2-y,1/2+x,1/2-z
13 -x,1/2+y,1/4-z
14 x,1/2-y,1/4-z
15 -y,1/2-x,1/4+z
16 y,1/2+x,1/4+z
_cell_length_a                   15.0677(9)
_cell_length_b                   15.0677(9)
_cell_length_c                   13.8543(17)
_cell_angle_alpha                90
_cell_angle_beta                 90
_cell_angle_gamma                90
_cell_volume                     3145.42
_exptl_crystal_colour            red
_exptl_crystal_description       block
_cell_formula_units_Z            4
loop_
_atom_site_label
_atom_site_type_symbol
_atom_site_fract_x
_atom_site_fract_y
_atom_site_fract_z
C1 C 0.30064(12) 0.46585(13) 1.01642(17)
C2 C 0.2380(2) 0.3935(2) 1.0148(4)
C3 C 0.2821(2) 0.3164(3) 0.9948(3)
C4 C 0.37429(12) 0.34167(11) 0.98542(15)
C5 C 0.28080(12) 0.55595(12) 1.02752(16)
C6 C 0.18700(12) 0.58109(12) 1.05277(16)
C7 C 0.12100(17) 0.58402(14) 0.98355(19)
H3 H 0.1343 0.5687 0.9186
C8 C 0.03492(18) 0.60936(14) 1.00857(19)
H4 H -0.0101 0.6113 0.9606
C9 C 0.01525(14) 0.63139(13) 1.10193(18)
H5 H -0.0434 0.6487 1.1188
C10 C 0.08056(17) 0.62848(15) 1.17158(19)
H6 H 0.0668 0.6436 1.2364
C11 C 0.16627(15) 0.60353(14) 1.14718(17)
H7 H 0.2110 0.6018 1.1954
N1 N 0.38295(10) 0.43135(10) 0.99736(14)
H8 H 0.4327 0.4616 0.9935
O1 O 0.2140(9) 0.3812(10) 1.1383(11)
H15 H 0.2549 0.2918 0.9247
C1C C 0.53415(13) 0.30064(12) 0.98358(17)
C1A C 0.69936(12) 0.53415(13) 1.01642(17)
C1B C 0.46585(13) 0.69936(12) 0.98358(17)
C2C C 0.6065(2) 0.2380(2) 0.9852(4)
C2A C 0.7620(2) 0.6065(2) 1.0148(4)
C2B C 0.3935(2) 0.7620(2) 0.9852(4)
C3C C 0.6836(3) 0.2821(2) 1.0052(3)
C3A C 0.7179(2) 0.6836(3) 0.9948(3)
C3B C 0.3164(3) 0.7179(2) 1.0052(3)
C4C C 0.65833(11) 0.37429(12) 1.01458(15)
C4A C 0.62571(12) 0.65833(11) 0.98542(15)
C4B C 0.34167(11) 0.62571(12) 1.01458(15)
C5C C 0.44405(12) 0.28080(12) 0.97248(16)
C5A C 0.71920(12) 0.44405(12) 1.02752(16)
C5B C 0.55595(12) 0.71920(12) 0.97248(16)
C6B C 0.58109(12) 0.81300(12) 0.94723(16)
C6A C 0.81300(12) 0.41891(12) 1.05277(16)
C6C C 0.41891(12) 0.18700(12) 0.94723(16)
C7B C 0.58402(14) 0.87900(17) 1.01645(19)
C7A C 0.87900(17) 0.41598(14) 0.98355(19)
C7C C 0.41598(14) 0.12100(17) 1.01645(19)
H3B H 0.5687 0.8657 1.0814
H3A H 0.8657 0.4313 0.9186
H3C H 0.4313 0.1343 1.0814
C8B C 0.60936(14) 0.96508(18) 0.99143(19)
C8A C 0.96508(18) 0.39064(14) 1.00857(19)
C8C C 0.39064(14) 0.03492(18) 0.99143(19)
H4B H 0.6113 1.0101 1.0394
H4A H 1.0101 0.3887 0.9606
H4C H 0.3887 -0.0101 1.0394
C9B C 0.63139(13) 0.98475(14) 0.89807(18)
C9A C 0.98475(14) 0.36861(13) 1.10193(18)
C9C C 0.36861(13) 0.01525(14) 0.89807(18)
H5B H 0.6487 1.0434 0.8812
H5A H 1.0434 0.3513 1.1188
H5C H 0.3513 -0.0434 0.8812
C10B C 0.62848(15) 0.91944(17) 0.82842(19)
C10A C 0.91944(17) 0.37152(15) 1.17158(19)
C10C C 0.37152(15) 0.08056(17) 0.82842(19)
H6B H 0.6436 0.9332 0.7636
H6A H 0.9332 0.3564 1.2364
H6C H 0.3564 0.0668 0.7636
C11B C 0.60353(14) 0.83373(15) 0.85282(17)
C11A C 0.83373(15) 0.39647(14) 1.14718(17)
C11C C 0.39647(14) 0.16627(15) 0.85282(17)
H7B H 0.6018 0.7890 0.8046
H7A H 0.7890 0.3982 1.1954
H7C H 0.3982 0.2110 0.8046
N1B N 0.43135(10) 0.61705(10) 1.00264(14)
N1A N 0.61705(10) 0.56865(10) 0.99736(14)
N1C N 0.56865(10) 0.38295(10) 1.00264(14)
H8B H 0.4616 0.5673 1.0065
H8A H 0.5673 0.5384 0.9935
H8C H 0.5384 0.4327 1.0065
O1B O 0.3812(10) 0.7860(9) 0.8617(11)
O1A O 0.7860(9) 0.6188(10) 1.1383(11)
O1C O 0.6188(10) 0.2140(9) 0.8617(11)
H15B H 0.2918 0.7451 1.0753
H15A H 0.7451 0.7082 0.9247
H15C H 0.7082 0.2549 1.0753
H1? H 0.1760 0.3986 1.0259
H2? H 0.2574 0.2587 0.9883
C12? C 0.2279(10) 0.4020(9) 1.0420(13)
H9? H 0.1718 0.4122 1.0051
C13? C 0.2792(10) 0.3250(11) 1.0078(5)
H10? H 0.2502 0.3017 0.9488
H11? H 0.2759 0.2780 1.0576
H12? H 0.1791 0.3379 1.1423
C14? C 0.2282(15) 0.3963(12) 1.025(3)
H13? H 0.1766 0.4108 0.9834
H14? H 0.2082 0.3891 1.0924
C15? C 0.2774(12) 0.3136(16) 0.988(2)
O2? O 0.2554(16) 0.2566(12) 1.0662(16)
H16? H 0.2670 0.2820 1.1187
loop_
_geom_bond_atom_site_label_1
_geom_bond_atom_site_label_2
_geom_bond_site_symmetry_1
_geom_bond_site_symmetry_2
C1 C2 1_555 1_555
C2 C3 1_555 1_555
C3 C4 1_555 1_555
C4 N1 1_555 1_555
C5 C1 1_555 1_555
C6 C5 1_555 1_555
C7 C6 1_555 1_555
H3 C7 1_555 1_555
C8 C7 1_555 1_555
H4 C8 1_555 1_555
C9 C8 1_555 1_555
H5 C9 1_555 1_555
C10 C9 1_555 1_555
H6 C10 1_555 1_555
C11 C6 1_555 1_555
H7 C11 1_555 1_555
N1 C1 1_555 1_555
H8 N1 1_555 1_555
O1 C2 1_555 1_555
H15 C3 1_555 1_555
C1C C2C 1_555 1_555
C1A C2A 1_555 1_555
C1B C2B 1_555 1_555
C2C C3C 1_555 1_555
C2A C3A 1_555 1_555
C2B C3B 1_555 1_555
C3C C4C 1_555 1_555
C3A C4A 1_555 1_555
C3B C4B 1_555 1_555
C4C C5A 1_555 1_555
C4A C5B 1_555 1_555
C4B C5 1_555 1_555
C5C C4 1_555 1_555
C5A C1A 1_555 1_555
C5B C1B 1_555 1_555
C6B C5B 1_555 1_555
C6A C5A 1_555 1_555
C6C C5C 1_555 1_555
C7B C6B 1_555 1_555
C7A C6A 1_555 1_555
C7C C6C 1_555 1_555
H3B C7B 1_555 1_555
H3A C7A 1_555 1_555
H3C C7C 1_555 1_555
C8B C7B 1_555 1_555
C8A C7A 1_555 1_555
C8C C7C 1_555 1_555
H4B C8B 1_555 1_555
H4A C8A 1_555 1_555
H4C C8C 1_555 1_555
C9B C8B 1_555 1_555
C9A C8A 1_555 1_555
C9C C8C 1_555 1_555
H5B C9B 1_555 1_555
H5A C9A 1_555 1_555
H5C C9C 1_555 1_555
C10B C9B 1_555 1_555
C10A C9A 1_555 1_555
C10C C9C 1_555 1_555
H6B C10B 1_555 1_555
H6A C10A 1_555 1_555
H6C C10C 1_555 1_555
C11B C6B 1_555 1_555
C11A C6A 1_555 1_555
C11C C6C 1_555 1_555
H7B C11B 1_555 1_555
H7A C11A 1_555 1_555
H7C C11C 1_555 1_555
N1B C1B 1_555 1_555
N1A C1A 1_555 1_555
N1C C1C 1_555 1_555
H8B N1B 1_555 1_555
H8A N1A 1_555 1_555
H8C N1C 1_555 1_555
O1B C2B 1_555 1_555
O1A C2A 1_555 1_555
O1C C2C 1_555 1_555
H15B C3B 1_555 1_555
H15A C3A 1_555 1_555
H15C C3C 1_555 1_555
C10 C11 1_555 1_555
C1C C5C 1_555 1_555
C4C N1C 1_555 1_555
C4A N1A 1_555 1_555
C4B N1B 1_555 1_555
C10B C11B 1_555 1_555
C10A C11A 1_555 1_555
C10C C11C 1_555 1_555

#END
