
#######################################################################
#
#                 Cambridge Crystallographic Data Centre
#                                CCDC 
#
#######################################################################
#
# If this CIF has been generated from an entry in the Cambridge 
# Structural Database, then it will include bibliographic, chemical, 
# crystal, experimental, refinement or atomic coordinate data resulting 
# from the CCDC's data processing and validation procedures.
#
#######################################################################

data_SAZWIZ
_chemical_name_common            'N-Cyanomethylbenzoic sulfimide'
_chemical_formula_moiety         'C9 H6 N2 O3 S1'
_chemical_name_systematic        
N-Cyanomethyl-1,2-benzisothiazole-1,1,3-trione
_symmetry_cell_setting           monoclinic
_symmetry_space_group_name_H-M   'P 21/n'
_symmetry_Int_Tables_number      14
_space_group_name_Hall           '-P 2yn'
loop_
_symmetry_equiv_pos_site_id
_symmetry_equiv_pos_as_xyz
1 x,y,z
2 1/2-x,1/2+y,1/2-z
3 -x,-y,-z
4 1/2+x,1/2-y,1/2+z
_cell_length_a                   12.584(4)
_cell_length_b                   10.788(3)
_cell_length_c                   15.124(4)
_cell_angle_alpha                90
_cell_angle_beta                 106.83(2)
_cell_angle_gamma                90
_cell_volume                     1965.24
_exptl_crystal_colour            colorless
_chemical_melting_point          142-143deg.C
_cell_formula_units_Z            8
loop_
_atom_site_label
_atom_site_type_symbol
_atom_site_fract_x
_atom_site_fract_y
_atom_site_fract_z
S1 S 0.0076(2) 0.3530(2) 0.3984(2)
N1 N 0.1718(7) 0.7111(8) 0.4039(6)
O1 O -0.1091(4) 0.3441(6) 0.3876(4)
O2 O 0.0804(5) 0.3793(5) 0.4886(4)
O3 O 0.0966(5) 0.4513(7) 0.1952(4)
C1 C 0.0511(7) 0.2238(7) 0.3497(6)
C2 C 0.0620(8) 0.1036(8) 0.3796(7)
C3 C 0.1062(10) 0.0189(10) 0.3319(8)
C4 C 0.1394(7) 0.0516(12) 0.2594(8)
C5 C 0.1319(7) 0.1730(11) 0.2288(7)
C6 C 0.0892(7) 0.2595(9) 0.2748(6)
C7 C 0.0756(7) 0.3925(10) 0.2565(6)
C8 C 0.0029(7) 0.5762(8) 0.3192(6)
C9 C 0.0963(7) 0.6535(8) 0.3673(6)
N2 N 0.0310(5) 0.4471(6) 0.3207(4)
S2 S 0.1170(2) 0.8250(2) 0.0035(2)
N3 N 0.0753(7) 1.1709(8) -0.2049(6)
O4 O 0.1892(4) 0.8620(6) 0.0914(4)
O5 O 0.0013(4) 0.8371(6) -0.0094(4)
O6 O 0.2386(4) 0.8674(5) -0.1927(4)
C10 C 0.1518(7) 0.6814(8) -0.0351(5)
C11 C 0.1394(7) 0.5679(9) 0.0029(6)
C12 C 0.1732(8) 0.4640(9) -0.0357(7)
C13 C 0.2173(7) 0.4764(8) -0.1099(7)
C14 C 0.2268(7) 0.5917(8) -0.1462(5)
C15 C 0.1945(7) 0.6959(8) -0.1077(5)
C16 C 0.2007(6) 0.8271(8) -0.1337(5)
C17 C 0.1802(7) 1.0331(7) -0.0685(5)
C18 C 0.1214(7) 1.1095(8) -0.1458(6)
N4 N 0.1546(5) 0.9015(6) -0.0801(4)
loop_
_geom_bond_atom_site_label_1
_geom_bond_atom_site_label_2
_geom_bond_site_symmetry_1
_geom_bond_site_symmetry_2
S1 O1 1_555 1_555
N1 C9 1_555 1_555
O2 S1 1_555 1_555
O3 C7 1_555 1_555
C1 S1 1_555 1_555
C2 C1 1_555 1_555
C3 C2 1_555 1_555
C4 C3 1_555 1_555
C5 C4 1_555 1_555
C6 C1 1_555 1_555
C7 C6 1_555 1_555
C8 C9 1_555 1_555
N2 S1 1_555 1_555
S2 O4 1_555 1_555
N3 C18 1_555 1_555
O5 S2 1_555 1_555
O6 C16 1_555 1_555
C10 S2 1_555 1_555
C11 C10 1_555 1_555
C12 C11 1_555 1_555
C13 C12 1_555 1_555
C14 C13 1_555 1_555
C15 C10 1_555 1_555
C16 C15 1_555 1_555
C17 C18 1_555 1_555
N4 S2 1_555 1_555
C5 C6 1_555 1_555
C7 N2 1_555 1_555
C8 N2 1_555 1_555
C14 C15 1_555 1_555
C16 N4 1_555 1_555
C17 N4 1_555 1_555

#END
