
#######################################################################
#
#                 Cambridge Crystallographic Data Centre
#                                CCDC 
#
#######################################################################
#
# If this CIF has been generated from an entry in the Cambridge 
# Structural Database, then it will include bibliographic, chemical, 
# crystal, experimental, refinement or atomic coordinate data resulting 
# from the CCDC's data processing and validation procedures.
#
#######################################################################

data_SAZYAT
_chemical_formula_moiety         'C22 H29 N2 O3 S1 1+,Cl1 1-'
_chemical_name_systematic        
'Methyl 4-(N-(1-oxopropyl)anilino)-1-(2-(2-thienyl)ethyl)-4-piperidinecarboxylate hydrochloride'
_chemical_properties_biological  'analgesic activity'
_symmetry_cell_setting           triclinic
_symmetry_space_group_name_H-M   'P -1'
_symmetry_Int_Tables_number      2
_space_group_name_Hall           '-P 1'
loop_
_symmetry_equiv_pos_site_id
_symmetry_equiv_pos_as_xyz
1 x,y,z
2 -x,-y,-z
_cell_length_a                   8.557(3)
_cell_length_b                   10.299(2)
_cell_length_c                   13.894(2)
_cell_angle_alpha                99.25(1)
_cell_angle_beta                 86.64(2)
_cell_angle_gamma                107.68(2)
_cell_volume                     1151.39
_exptl_crystal_colour            colorless
_cell_formula_units_Z            2
loop_
_atom_site_label
_atom_site_type_symbol
_atom_site_fract_x
_atom_site_fract_y
_atom_site_fract_z
Cl1 Cl 0.0664(1) 0.5089(1) 0.1844(1)
S1 S -0.5685(1) 0.3834(1) 1.1074(1)
C1 C 0.1714(3) 0.1673(3) 0.7764(2)
C2 C -0.0024(3) 0.1573(3) 0.7499(2)
C3 C -0.1271(3) 0.1343(3) 0.8364(2)
C4 C 0.0851(3) 0.2610(3) 0.9509(2)
C5 C 0.2155(3) 0.2763(3) 0.8665(2)
C6 C -0.2027(3) 0.2420(3) 1.0028(2)
C7 C -0.3639(4) 0.2545(4) 0.9808(2)
C8 C -0.4728(3) 0.2582(3) 1.0744(2)
C9 C -0.6550(4) 0.3204(4) 1.2114(2)
C10 C -0.6135(4) 0.2068(4) 1.2221(2)
C11 C -0.5096(4) 0.1683(3) 1.1428(2)
C12 C 0.1693(3) 0.0248(3) 0.7967(2)
C13 C 0.1440(6) -0.2042(3) 0.7271(3)
C14 C 0.4467(4) 0.1900(3) 0.6948(2)
C15 C 0.5718(5) 0.2399(5) 0.6150(3)
C16 C 0.6954(7) 0.1758(8) 0.5904(4)
C17 C 0.2556(3) 0.2725(3) 0.6185(2)
C18 C 0.2851(5) 0.4128(3) 0.6291(2)
C19 C 0.2428(5) 0.4698(4) 0.5544(3)
C20 C 0.1738(5) 0.3896(4) 0.4735(3)
C21 C 0.1447(5) 0.2512(4) 0.4639(2)
C22 C 0.1856(4) 0.1908(3) 0.5360(2)
N1 N -0.0797(3) 0.2509(2) 0.9172(2)
N2 N 0.2941(3) 0.2083(2) 0.6938(2)
O1 O 0.4758(3) 0.1342(2) 0.7589(2)
O2 O 0.1625(3) -0.0060(2) 0.8763(1)
O3 O 0.1562(3) -0.0632(2) 0.7146(1)
loop_
_geom_bond_atom_site_label_1
_geom_bond_atom_site_label_2
_geom_bond_site_symmetry_1
_geom_bond_site_symmetry_2
S1 C8 1_555 1_555
C1 C2 1_555 1_555
C2 C3 1_555 1_555
C3 N1 1_555 1_555
C4 C5 1_555 1_555
C5 C1 1_555 1_555
C6 C7 1_555 1_555
C7 C8 1_555 1_555
C8 C11 1_555 1_555
C9 S1 1_555 1_555
C10 C9 1_555 1_555
C11 C10 1_555 1_555
C12 C1 1_555 1_555
C13 O3 1_555 1_555
C14 C15 1_555 1_555
C15 C16 1_555 1_555
C17 C18 1_555 1_555
C18 C19 1_555 1_555
C19 C20 1_555 1_555
C20 C21 1_555 1_555
C21 C22 1_555 1_555
C22 C17 1_555 1_555
N1 C4 1_555 1_555
N2 C1 1_555 1_555
O1 C14 1_555 1_555
O2 C12 1_555 1_555
O3 C12 1_555 1_555
C6 N1 1_555 1_555
C14 N2 1_555 1_555
C17 N2 1_555 1_555

#END
