
#######################################################################
#
#                 Cambridge Crystallographic Data Centre
#                                CCDC 
#
#######################################################################
#
# If this CIF has been generated from an entry in the Cambridge 
# Structural Database, then it will include bibliographic, chemical, 
# crystal, experimental, refinement or atomic coordinate data resulting 
# from the CCDC's data processing and validation procedures.
#
#######################################################################

data_SCGMPT10
_chemical_formula_moiety         'C10 H11 N5 O7 P1 1-,Na1 1+,4(H2 O1)'
_chemical_name_systematic        
"Sodium guanosine-3',5'-cyclic monophosphate tetrahydrate"
_symmetry_cell_setting           orthorhombic
_symmetry_space_group_name_H-M   'P 21 21 21'
_symmetry_Int_Tables_number      19
_space_group_name_Hall           'P 2ac 2ab'
loop_
_symmetry_equiv_pos_site_id
_symmetry_equiv_pos_as_xyz
1 x,y,z
2 1/2+x,1/2-y,-z
3 -x,1/2+y,1/2-z
4 1/2-x,-y,1/2+z
_cell_length_a                   18.664(3)
_cell_length_b                   7.384(1)
_cell_length_c                   12.706(3)
_cell_angle_alpha                90
_cell_angle_beta                 90
_cell_angle_gamma                90
_cell_volume                     1751.08
_cell_formula_units_Z            4
loop_
_atom_site_label
_atom_site_type_symbol
_atom_site_fract_x
_atom_site_fract_y
_atom_site_fract_z
C1 C 0.28770 -0.18410 -0.22760
C2 C 0.51340 -0.21430 -0.31720
C3 C 0.28420 -0.05670 -0.32380
C4 C 0.28480 -0.19230 -0.41260
C5 C 0.42350 -0.19990 -0.20390
C6 C 0.24680 -0.35240 -0.36580
C7 C 0.46510 -0.21280 -0.11530
C8 C 0.25810 -0.51640 -0.43280
C9 C 0.54060 -0.23710 -0.12840
C10 C 0.35840 -0.17950 -0.05980
H1 H 0.60300 -0.23400 -0.24300
H2 H 0.25100 -0.15300 -0.18000
H3 H 0.32000 0.02800 -0.32800
H4 H 0.51900 -0.16600 -0.46900
H5 H 0.58500 -0.22500 -0.41700
H6 H 0.22200 0.11600 -0.26400
H7 H 0.33400 -0.22600 -0.42300
H8 H 0.20100 -0.31100 -0.35900
H9 H 0.31300 -0.54700 -0.44300
H10 H 0.23000 -0.64000 -0.40500
H11 H 0.31800 -0.16200 -0.01000
N1 N 0.55980 -0.22900 -0.23390
N2 N 0.54220 -0.21410 -0.41310
N3 N 0.44320 -0.20220 -0.30600
N4 N 0.42370 -0.19930 -0.02430
N5 N 0.35420 -0.18040 -0.16820
O1 O 0.27820 -0.36520 -0.26400
O2 O 0.21780 0.03990 -0.32450
O3 O 0.25170 -0.13730 -0.50890
O4 O 0.22770 -0.47030 -0.53550
O5 O 0.58670 -0.26400 -0.06010
O6 O 0.32440 -0.31130 -0.64130
O7 O 0.19380 -0.24360 -0.67210
P1 P 0.25110 -0.29280 -0.59770
H12 H -0.44800 -0.46100 0.38700
H13 H -0.38300 -0.45600 0.32700
O8 O -0.43340 -0.40680 0.34510
H14 H 0.39700 -0.33400 0.21600
H15 H 0.42400 -0.30100 0.10700
O9 O 0.42930 -0.34980 0.18730
H16 H -0.41700 -0.19100 0.08000
H17 H -0.37000 -0.02700 0.11900
O10 O -0.39500 -0.15340 0.14680
H18 H 0.41200 -0.16300 0.41600
H19 H 0.42900 -0.00400 0.44700
O11 O 0.43990 -0.09220 0.41800
Na1 Na -0.48600 -0.13200 0.27100
loop_
_geom_bond_atom_site_label_1
_geom_bond_atom_site_label_2
_geom_bond_site_symmetry_1
_geom_bond_site_symmetry_2
C1 C3 1_555 1_555
C2 N1 1_555 1_555
C3 C4 1_555 1_555
C4 C6 1_555 1_555
C5 C7 1_555 1_555
C6 C8 1_555 1_555
C7 C9 1_555 1_555
C8 H9 1_555 1_555
C9 N1 1_555 1_555
C10 H11 1_555 1_555
H1 N1 1_555 1_555
H2 C1 1_555 1_555
H3 C3 1_555 1_555
H4 N2 1_555 1_555
H5 N2 1_555 1_555
H6 O2 1_555 1_555
H7 C4 1_555 1_555
H8 C6 1_555 1_555
H10 C8 1_555 1_555
N2 C2 1_555 1_555
N3 C2 1_555 1_555
N4 C7 1_555 1_555
N5 C1 1_555 1_555
O1 C1 1_555 1_555
O2 C3 1_555 1_555
O3 C4 1_555 1_555
O4 C8 1_555 1_555
O5 C9 1_555 1_555
O6 P1 1_555 1_555
O7 P1 1_555 1_555
P1 O3 1_555 1_555
H12 O8 1_555 1_555
H13 O8 1_555 1_555
H14 O9 1_555 1_555
H15 O9 1_555 1_555
H16 O10 1_555 1_555
H17 O10 1_555 1_555
H18 O11 1_555 1_555
H19 O11 1_555 1_555
C5 N3 1_555 1_555
C5 N5 1_555 1_555
C6 O1 1_555 1_555
C10 N4 1_555 1_555
C10 N5 1_555 1_555
O4 P1 1_555 1_555

#END
