
#######################################################################
#
#                 Cambridge Crystallographic Data Centre
#                                CCDC 
#
#######################################################################
#
# If this CIF has been generated from an entry in the Cambridge 
# Structural Database, then it will include bibliographic, chemical, 
# crystal, experimental, refinement or atomic coordinate data resulting 
# from the CCDC's data processing and validation procedures.
#
#######################################################################

data_SEBCIO
_chemical_formula_moiety         'C35 H21 N1'
_chemical_name_systematic        9,14-diphenylpyreno[4,5-g]isoquinoline
_symmetry_cell_setting           monoclinic
_symmetry_space_group_name_H-M   'P 21/c'
_symmetry_Int_Tables_number      14
_space_group_name_Hall           '-P 2ybc'
loop_
_symmetry_equiv_pos_site_id
_symmetry_equiv_pos_as_xyz
1 x,y,z
2 -x,1/2+y,1/2-z
3 -x,-y,-z
4 x,1/2-y,1/2+z
_cell_length_a                   12.3921(4)
_cell_length_b                   25.1925(9)
_cell_length_c                   7.4650(2)
_cell_angle_alpha                90
_cell_angle_beta                 97.265(3)
_cell_angle_gamma                90
_cell_volume                     2311.77
_exptl_crystal_colour            yellow
_exptl_crystal_description       needle
_cell_formula_units_Z            4
loop_
_atom_site_label
_atom_site_type_symbol
_atom_site_fract_x
_atom_site_fract_y
_atom_site_fract_z
C1 C -0.11296(14) 0.40580(8) 1.0656(2)
H1 H -0.1626 0.3822 1.0053
C2 C -0.07471(15) 0.47299(8) 1.2758(2)
H2 H -0.0989 0.4968 1.3573
C3 C 0.02900(14) 0.47458(7) 1.2467(2)
H3 H 0.0751 0.4995 1.3084
C4 C 0.18422(12) 0.43446(6) 1.10811(19)
C5 C 0.33160(12) 0.37896(6) 0.9928(2)
C6 C 0.47257(14) 0.33148(7) 0.8532(3)
C7 C 0.50494(17) 0.30472(8) 0.6998(3)
H4 H 0.5763 0.2929 0.7036
C8 C 0.43504(19) 0.29628(8) 0.5510(3)
H5 H 0.4594 0.2795 0.4527
C9 C 0.32362(16) 0.31243(7) 0.5394(2)
C10 C 0.17598(13) 0.35144(6) 0.6867(2)
C11 C 0.02816(12) 0.37553(6) 0.8765(2)
C12 C 0.07150(12) 0.43927(6) 1.1236(2)
C13 C 0.21761(12) 0.39771(6) 0.98491(19)
C14 C 0.36345(12) 0.34938(6) 0.8464(2)
C15 C 0.40696(13) 0.38452(7) 1.1468(2)
H6 H 0.3861 0.4015 1.2475
C16 C 0.51238(15) 0.36528(8) 1.1534(3)
H7 H 0.5608 0.3696 1.2581
C17 C 0.54576(15) 0.34013(8) 1.0081(3)
H8 H 0.6174 0.3288 1.0124
C18 C 0.28719(14) 0.33790(6) 0.6909(2)
C19 C 0.25051(19) 0.30428(7) 0.3832(3)
H9 H 0.2732 0.2866 0.2851
C20 C 0.14620(18) 0.32216(8) 0.3741(2)
H10 H 0.0996 0.3188 0.2669
C21 C 0.10871(15) 0.34547(7) 0.5236(2)
H11 H 0.0371 0.3573 0.5145
C22 C 0.13774(12) 0.37467(6) 0.84985(19)
C23 C -0.00456(12) 0.40612(6) 1.0201(2)
C24 C -0.05717(12) 0.34384(6) 0.7651(2)
C25 C -0.05237(15) 0.28899(7) 0.7688(2)
H12 H 0.0040 0.2721 0.8410
C26 C -0.13045(19) 0.25929(9) 0.6664(3)
H13 H -0.1266 0.2224 0.6699
C27 C -0.21422(18) 0.28379(11) 0.5590(3)
H14 H -0.2661 0.2636 0.4885
C28 C -0.22103(17) 0.33780(11) 0.5560(3)
H15 H -0.2780 0.3543 0.4839
C29 C -0.14379(15) 0.36808(8) 0.6593(3)
H16 H -0.1497 0.4049 0.6581
C30 C 0.26079(13) 0.47052(6) 1.2194(2)
C31 C 0.26933(15) 0.47112(8) 1.4070(2)
H17 H 0.2282 0.4477 1.4668
C32 C 0.33911(18) 0.50669(12) 1.5050(3)
H18 H 0.3442 0.5073 1.6303
C33 C 0.40083(19) 0.54111(10) 1.4168(4)
H19 H 0.4473 0.5650 1.4827
C34 C 0.39401(19) 0.54020(8) 1.2331(4)
H20 H 0.4367 0.5631 1.1743
C35 C 0.32422(15) 0.50555(7) 1.1345(3)
H21 H 0.3195 0.5056 1.0092
N1 N -0.14662(13) 0.43742(8) 1.1895(2)
loop_
_geom_bond_atom_site_label_1
_geom_bond_atom_site_label_2
_geom_bond_site_symmetry_1
_geom_bond_site_symmetry_2
C1 H1 1_555 1_555
C2 H2 1_555 1_555
C3 C2 1_555 1_555
H3 C3 1_555 1_555
C4 C12 1_555 1_555
C5 C13 1_555 1_555
C6 C7 1_555 1_555
C7 H4 1_555 1_555
C8 C7 1_555 1_555
H5 C8 1_555 1_555
C9 C8 1_555 1_555
C10 C18 1_555 1_555
C11 C22 1_555 1_555
C12 C3 1_555 1_555
C13 C4 1_555 1_555
C14 C5 1_555 1_555
C15 C5 1_555 1_555
H6 C15 1_555 1_555
C16 C15 1_555 1_555
H7 C16 1_555 1_555
C17 C6 1_555 1_555
H8 C17 1_555 1_555
C18 C9 1_555 1_555
C19 C9 1_555 1_555
H9 C19 1_555 1_555
C20 C19 1_555 1_555
H10 C20 1_555 1_555
C21 C10 1_555 1_555
H11 C21 1_555 1_555
C22 C10 1_555 1_555
C23 C1 1_555 1_555
C24 C11 1_555 1_555
C25 C24 1_555 1_555
H12 C25 1_555 1_555
C26 C25 1_555 1_555
H13 C26 1_555 1_555
C27 C26 1_555 1_555
H14 C27 1_555 1_555
C28 C27 1_555 1_555
H15 C28 1_555 1_555
C29 C24 1_555 1_555
H16 C29 1_555 1_555
C30 C4 1_555 1_555
C31 C30 1_555 1_555
H17 C31 1_555 1_555
C32 C31 1_555 1_555
H18 C32 1_555 1_555
C33 C32 1_555 1_555
H19 C33 1_555 1_555
C34 C33 1_555 1_555
H20 C34 1_555 1_555
C35 C30 1_555 1_555
H21 C35 1_555 1_555
N1 C1 1_555 1_555
C2 N1 1_555 1_555
C6 C14 1_555 1_555
C11 C23 1_555 1_555
C12 C23 1_555 1_555
C13 C22 1_555 1_555
C14 C18 1_555 1_555
C16 C17 1_555 1_555
C20 C21 1_555 1_555
C28 C29 1_555 1_555
C34 C35 1_555 1_555

#END
