
#######################################################################
#
#                 Cambridge Crystallographic Data Centre
#                                CCDC 
#
#######################################################################
#
# If this CIF has been generated from an entry in the Cambridge 
# Structural Database, then it will include bibliographic, chemical, 
# crystal, experimental, refinement or atomic coordinate data resulting 
# from the CCDC's data processing and validation procedures.
#
#######################################################################

data_SEBHAL
_chemical_formula_moiety         'C11 H13 N5 O6,H2 O1'
_chemical_name_systematic        
'5-amino-8-[3,4-dihydroxy-5-(hydroxymethyl)oxolan-2-yl]pyrimido[4,5-d]pyrimidine-2,4(3H,8H)-dione monohydrate'
_symmetry_cell_setting           monoclinic
_symmetry_space_group_name_H-M   'P 21'
_symmetry_Int_Tables_number      4
_space_group_name_Hall           'P 2yb'
loop_
_symmetry_equiv_pos_site_id
_symmetry_equiv_pos_as_xyz
1 x,y,z
2 -x,1/2+y,-z
_cell_length_a                   5.6160(3)
_cell_length_b                   27.7211(12)
_cell_length_c                   8.4312(3)
_cell_angle_alpha                90
_cell_angle_beta                 96.182(3)
_cell_angle_gamma                90
_cell_volume                     1304.95
_exptl_crystal_colour            colorless
_exptl_crystal_description       block
_cell_formula_units_Z            4
loop_
_atom_site_label
_atom_site_type_symbol
_atom_site_fract_x
_atom_site_fract_y
_atom_site_fract_z
O1 O 0.5507(8) 0.39551(14) 0.9523(6)
H1 H 0.4522 0.3923 0.8739
O2 O 1.4667(7) 0.54702(13) 0.6209(5)
O3 O 0.8272(7) 0.49791(14) 1.1458(4)
O4 O 1.1067(7) 0.69159(13) 0.6700(4)
N1 N 0.7187(8) 0.69398(16) 0.8503(5)
H2 H 0.6041 0.7068 0.8957
H3 H 0.8026 0.7114 0.7928
N2 N 1.1547(8) 0.54649(16) 0.7709(5)
O5 O 0.5824(8) 0.46852(18) 1.4109(5)
H4 H 0.4785 0.4771 1.4660
N3 N 1.2767(8) 0.61750(17) 0.6441(5)
H5 H 1.3705 0.6300 0.5811
C1 C 0.7658(10) 0.6476(2) 0.8689(6)
O6 O 1.0099(8) 0.42622(16) 0.9121(5)
H6 H 0.9747 0.4032 0.8531
H7 H 0.7877 0.4308 1.1891
C2 C 1.3043(10) 0.5693(2) 0.6767(7)
C3 C 0.9903(10) 0.5746(2) 0.8287(7)
N4 N 0.8467(8) 0.55182(15) 0.9333(5)
C4 C 0.9152(10) 0.5033(2) 0.9949(6)
H8 H 1.0904 0.5015 1.0105
C5 C 0.6845(10) 0.4546(2) 1.1486(7)
C6 C 0.4833(11) 0.4646(2) 1.2514(7)
H9 H 0.4020 0.4943 1.2174
H10 H 0.3675 0.4385 1.2405
C7 C 1.1123(10) 0.6480(2) 0.7027(6)
C8 C 0.9515(11) 0.6240(2) 0.8000(6)
N5 N 0.6230(8) 0.62246(16) 0.9627(5)
C9 C 0.6750(11) 0.5769(2) 0.9900(6)
H11 H 0.5808 0.5605 1.0565
C10 C 0.8225(11) 0.4612(2) 0.8930(6)
C11 C 0.6072(12) 0.4442(2) 0.9737(8)
H12 H 0.748(9) 0.4682(19) 0.783(6)
H13 H 0.485(9) 0.4645(9) 0.947(5)
O7 O 0.4909(7) 0.79738(13) 0.3910(5)
O8 O 0.6892(8) 0.89608(16) 0.3503(5)
H14 H 0.6138 0.9167 0.3934
O9 O 1.3603(7) 0.73840(13) 0.0312(5)
O10 O 1.1673(7) 0.59154(14) 0.2131(4)
O11 O 1.0255(8) 0.83976(16) 0.2650(5)
H15 H 1.1257 0.8204 0.2406
O12 O 0.7895(8) 0.78293(16) 0.7000(5)
H16 H 0.9053 0.8000 0.7287
N6 N 0.7486(8) 0.73209(16) 0.3525(6)
N7 N 0.6212(8) 0.65913(16) 0.4575(5)
N8 N 0.7866(8) 0.58662(17) 0.3993(5)
H17 H 0.6869 0.5732 0.4562
H18 H 0.8865 0.5692 0.3540
N9 N 1.0583(8) 0.73771(17) 0.1926(5)
N10 N 1.2581(8) 0.66561(16) 0.1262(5)
H19 H 1.3679 0.6529 0.0760
C12 C 0.5788(12) 0.8118(3) 0.6794(7)
H20 H 0.5889 0.8370 0.7596
H21 H 0.4402 0.7920 0.6935
C13 C 0.5491(11) 0.8343(2) 0.5144(8)
C14 C 0.6999(11) 0.7850(2) 0.3183(7)
H22 H 0.6700 0.7899 0.2028
C15 C 0.6108(10) 0.7055(2) 0.4393(7)
H23 H 0.4973 0.7220 0.4912
C16 C 0.7863(10) 0.6337(2) 0.3815(6)
C17 C 0.7669(12) 0.8592(2) 0.4644(8)
H24 H 0.8650 0.8729 0.5567
C18 C 0.9272(11) 0.7097(2) 0.2762(7)
C19 C 1.2285(11) 0.7152(2) 0.1139(7)
C20 C 1.1264(10) 0.6346(2) 0.2122(6)
C21 C 0.9438(10) 0.6588(2) 0.2914(6)
C22 C 0.8989(11) 0.8196(2) 0.3883(7)
H25 H 1.0097 0.8031 0.4682
H26 H 0.404(5) 0.8537(14) 0.496(7)
O13 O 0.0679(8) 0.47255(16) 0.5286(5)
H27 H -0.0811 0.4678 0.5050
H28 H 0.0980 0.5025 0.5217
O14 O 0.8663(8) 0.32117(17) 0.0932(6)
H29 H 0.8061 0.3482 0.0629
H30 H 0.7754 0.2985 0.0550
loop_
_geom_bond_atom_site_label_1
_geom_bond_atom_site_label_2
_geom_bond_site_symmetry_1
_geom_bond_site_symmetry_2
O1 H1 1_555 1_555
O2 C2 1_555 1_555
O3 C4 1_555 1_555
O4 C7 1_555 1_555
N1 H2 1_555 1_555
H3 N1 1_555 1_555
N2 C2 1_555 1_555
O5 H4 1_555 1_555
N3 H5 1_555 1_555
C1 N1 1_555 1_555
O6 H6 1_555 1_555
H7 C5 1_555 1_555
C2 N3 1_555 1_555
C3 N2 1_555 1_555
N4 C3 1_555 1_555
C4 N4 1_555 1_555
H8 C4 1_555 1_555
C5 O3 1_555 1_555
C6 O5 1_555 1_555
H9 C6 1_555 1_555
H10 C6 1_555 1_555
C7 N3 1_555 1_555
C8 C1 1_555 1_555
N5 C1 1_555 1_555
C9 N4 1_555 1_555
H11 C9 1_555 1_555
C10 O6 1_555 1_555
C11 O1 1_555 1_555
H12 C10 1_555 1_555
H13 C11 1_555 1_555
O7 C13 1_555 1_555
O8 H14 1_555 1_555
O9 C19 1_555 1_555
O10 C20 1_555 1_555
O11 H15 1_555 1_555
O12 H16 1_555 1_555
N6 C14 1_555 1_555
N7 C15 1_555 1_555
N8 H17 1_555 1_555
H18 N8 1_555 1_555
N9 C18 1_555 1_555
N10 H19 1_555 1_555
C12 O12 1_555 1_555
H20 C12 1_555 1_555
H21 C12 1_555 1_555
C13 C12 1_555 1_555
C14 O7 1_555 1_555
H22 C14 1_555 1_555
C15 N6 1_555 1_555
H23 C15 1_555 1_555
C16 N7 1_555 1_555
C17 O8 1_555 1_555
H24 C17 1_555 1_555
C18 N6 1_555 1_555
C19 N9 1_555 1_555
C20 N10 1_555 1_555
C21 C16 1_555 1_555
C22 O11 1_555 1_555
H25 C22 1_555 1_555
H26 C13 1_555 1_555
O13 H27 1_555 1_555
H28 O13 1_555 1_555
O14 H29 1_555 1_555
H30 O14 1_555 1_555
C3 C8 1_555 1_555
C4 C10 1_555 1_555
C5 C6 1_555 1_555
C5 C11 1_555 1_555
C7 C8 1_555 1_555
N5 C9 1_555 1_555
C10 C11 1_555 1_555
N8 C16 1_555 1_555
N10 C19 1_555 1_555
C13 C17 1_555 1_555
C14 C22 1_555 1_555
C17 C22 1_555 1_555
C18 C21 1_555 1_555
C20 C21 1_555 1_555

#END
