
#######################################################################
#
#                 Cambridge Crystallographic Data Centre
#                                CCDC 
#
#######################################################################
#
# If this CIF has been generated from an entry in the Cambridge 
# Structural Database, then it will include bibliographic, chemical, 
# crystal, experimental, refinement or atomic coordinate data resulting 
# from the CCDC's data processing and validation procedures.
#
#######################################################################

data_SEBHIQ
_chemical_formula_moiety         'C14 H14 N4 O2'
_chemical_name_systematic        4'-Dimethylamino-2-nitroazobenzene
_symmetry_cell_setting           monoclinic
_symmetry_space_group_name_H-M   'P 21/c'
_symmetry_Int_Tables_number      14
_space_group_name_Hall           '-P 2ybc'
loop_
_symmetry_equiv_pos_site_id
_symmetry_equiv_pos_as_xyz
1 x,y,z
2 -x,1/2+y,1/2-z
3 -x,-y,-z
4 x,1/2-y,1/2+z
_cell_length_a                   12.556(2)
_cell_length_b                   7.618(1)
_cell_length_c                   15.260(2)
_cell_angle_alpha                90
_cell_angle_beta                 109.76(1)
_cell_angle_gamma                90
_cell_volume                     1373.7
_exptl_crystal_colour            red
_exptl_crystal_description       prism
_chemical_melting_point          399-400K
_cell_formula_units_Z            4
_exptl_crystal_recrystallization_method dichloromethane/tetrahydrofuran
loop_
_atom_site_label
_atom_site_type_symbol
_atom_site_fract_x
_atom_site_fract_y
_atom_site_fract_z
O1 O 0.9013(2) 0.5237(3) 0.84490(15)
O2 O 0.9057(2) 0.3015(3) 0.76196(14)
N1 N 0.8886(2) 0.3688(4) 0.8263(2)
N2 N 0.6832(2) 0.2011(2) 0.76773(12)
N3 N 0.5881(2) 0.1261(2) 0.74669(12)
N4 N 0.2960(2) 0.1787(2) 0.37996(13)
C1 C 0.8565(2) 0.2572(3) 0.89257(15)
C2 C 0.9306(2) 0.2457(4) 0.9821(2)
C3 C 0.9019(3) 0.1420(4) 1.0445(2)
C4 C 0.8006(3) 0.0521(4) 1.0155(2)
C5 C 0.7268(2) 0.0655(3) 0.9252(2)
C6 C 0.7531(2) 0.1707(3) 0.8613(2)
C7 C 0.5184(2) 0.1511(3) 0.6542(2)
C8 C 0.4127(2) 0.0705(3) 0.6281(2)
C9 C 0.3388(2) 0.0811(3) 0.5386(2)
C10 C 0.3677(2) 0.1706(3) 0.4697(2)
C11 C 0.4749(2) 0.2533(3) 0.4974(2)
C12 C 0.5471(2) 0.2423(3) 0.5864(2)
C13 C 0.1872(3) 0.0916(6) 0.3517(3)
C14 C 0.3278(3) 0.2681(5) 0.3093(2)
H1 H 1.0023(19) 0.3082(27) 1.0022(14)
H2 H 0.9490(18) 0.1357(31) 1.1086(16)
H3 H 0.7818(20) -0.0163(36) 1.0613(17)
H4 H 0.6559(19) 0.0030(32) 0.9083(15)
H5 H 0.3934(15) 0.0158(26) 0.6784(13)
H6 H 0.2680(17) 0.0212(28) 0.5230(13)
H7 H 0.4956(16) 0.3186(27) 0.4490(13)
H8 H 0.6214(17) 0.2938(26) 0.6062(13)
H9 H 0.1432(25) 0.1167(40) 0.2831(22)
H10 H 0.1450(24) 0.1309(43) 0.3878(20)
H11 H 0.1854(33) -0.0366(61) 0.3556(25)
H12 H 0.2714(20) 0.2534(30) 0.2505(17)
H13 H 0.4016(22) 0.2306(35) 0.3051(17)
H14 H 0.3382(21) 0.3921(37) 0.3203(16)
loop_
_geom_bond_atom_site_label_1
_geom_bond_atom_site_label_2
_geom_bond_site_symmetry_1
_geom_bond_site_symmetry_2
O1 N1 1_555 1_555
O2 N1 1_555 1_555
N1 C1 1_555 1_555
N2 N3 1_555 1_555
N3 C7 1_555 1_555
N4 C10 1_555 1_555
C1 C2 1_555 1_555
C2 C3 1_555 1_555
C3 C4 1_555 1_555
C4 C5 1_555 1_555
C5 C6 1_555 1_555
C6 N2 1_555 1_555
C7 C8 1_555 1_555
C8 C9 1_555 1_555
C9 C10 1_555 1_555
C10 C11 1_555 1_555
C11 C12 1_555 1_555
C12 C7 1_555 1_555
C13 N4 1_555 1_555
C14 N4 1_555 1_555
H1 C2 1_555 1_555
H2 C3 1_555 1_555
H3 C4 1_555 1_555
H4 C5 1_555 1_555
H5 C8 1_555 1_555
H6 C9 1_555 1_555
H7 C11 1_555 1_555
H8 C12 1_555 1_555
H9 C13 1_555 1_555
H10 C13 1_555 1_555
H11 C13 1_555 1_555
H12 C14 1_555 1_555
H13 C14 1_555 1_555
H14 C14 1_555 1_555
C1 C6 1_555 1_555

#END
