
#######################################################################
#
#                 Cambridge Crystallographic Data Centre
#                                CCDC 
#
#######################################################################
#
# If this CIF has been generated from an entry in the Cambridge 
# Structural Database, then it will include bibliographic, chemical, 
# crystal, experimental, refinement or atomic coordinate data resulting 
# from the CCDC's data processing and validation procedures.
#
#######################################################################

data_SEBKOC
_chemical_formula_moiety         'C10 H11 N3,C7 H4 N2 O6'
_chemical_name_systematic        
'3,5-dinitrobenzoic acid 5,7-dimethyl-1,8-naphthyridin-2-amine'
_symmetry_cell_setting           monoclinic
_symmetry_space_group_name_H-M   'P 21'
_symmetry_Int_Tables_number      4
_space_group_name_Hall           'P 2yb'
loop_
_symmetry_equiv_pos_site_id
_symmetry_equiv_pos_as_xyz
1 x,y,z
2 -x,1/2+y,-z
_cell_length_a                   7.5015(11)
_cell_length_b                   7.0905(10)
_cell_length_c                   16.175(2)
_cell_angle_alpha                90
_cell_angle_beta                 92.9000(10)
_cell_angle_gamma                90
_cell_volume                     859.237
_exptl_crystal_colour            colorless
_exptl_crystal_description       block
_cell_formula_units_Z            2
loop_
_atom_site_label
_atom_site_type_symbol
_atom_site_fract_x
_atom_site_fract_y
_atom_site_fract_z
N1 N 0.0854(7) 0.1269(10) 0.2964(3)
N2 N 0.1114(8) 0.1687(10) 0.1574(4)
N3 N 0.0540(8) 0.0649(10) 0.4352(4)
H1 H 0.0032 -0.0409 0.4229
H2 H 0.0697 0.0986 0.4861
C1 C 0.1076(9) 0.1748(11) 0.3762(5)
C2 C 0.1934(9) 0.3553(12) 0.3971(5)
H3 H 0.2116 0.3915 0.4522
C3 C 0.2463(10) 0.4694(11) 0.3354(5)
H4 H 0.2995 0.5847 0.3486
C4 C 0.2213(10) 0.4151(10) 0.2513(5)
C5 C 0.1403(9) 0.2402(11) 0.2333(5)
C6 C 0.1658(11) 0.2756(12) 0.0950(5)
C7 C 0.2425(11) 0.4536(13) 0.1068(5)
H5 H 0.2751 0.5234 0.0613
C8 C 0.2701(10) 0.5261(11) 0.1843(5)
C9 C 0.1380(12) 0.1944(17) 0.0087(5)
H6 H 0.2308 0.1051 -0.0009
H7 H 0.1413 0.2942 -0.0313
H8 H 0.0242 0.1324 0.0037
C10 C 0.3465(11) 0.7204(14) 0.1948(5)
H9 H 0.4531 0.7303 0.1646
H10 H 0.3748 0.7437 0.2524
H11 H 0.2608 0.8115 0.1741
N4 N 0.6615(10) 0.2136(13) 0.1164(5)
N5 N 0.5620(9) 0.0906(11) 0.4082(5)
O1 O 0.8761(7) 0.7264(8) 0.4055(3)
O2 O 0.8989(7) 0.7922(8) 0.2703(3)
H12 H 0.9450 0.8896 0.2885
O3 O 0.7064(10) 0.3197(10) 0.0629(4)
O4 O 0.6019(10) 0.0565(10) 0.1013(4)
O5 O 0.4768(9) -0.0514(10) 0.3845(4)
O6 O 0.5871(8) 0.1379(10) 0.4808(4)
C11 C 0.8526(10) 0.6893(12) 0.3305(6)
C12 C 0.7659(9) 0.5039(11) 0.3062(5)
C13 C 0.7532(9) 0.4468(11) 0.2236(5)
H13 H 0.7940 0.5248 0.1824
C14 C 0.6793(9) 0.2734(12) 0.2038(5)
C15 C 0.6178(10) 0.1553(11) 0.2614(5)
H14 H 0.5689 0.0388 0.2466
C16 C 0.6299(10) 0.2135(11) 0.3432(5)
C17 C 0.7028(9) 0.3873(11) 0.3653(5)
H15 H 0.7087 0.4246 0.4205
loop_
_geom_bond_atom_site_label_1
_geom_bond_atom_site_label_2
_geom_bond_site_symmetry_1
_geom_bond_site_symmetry_2
N1 C1 1_555 1_555
N2 C5 1_555 1_555
N3 H1 1_555 1_555
H2 N3 1_555 1_555
C1 N3 1_555 1_555
C2 C1 1_555 1_555
H3 C2 1_555 1_555
C3 C2 1_555 1_555
H4 C3 1_555 1_555
C4 C3 1_555 1_555
C5 N1 1_555 1_555
C6 N2 1_555 1_555
C7 C6 1_555 1_555
H5 C7 1_555 1_555
C8 C4 1_555 1_555
C9 C6 1_555 1_555
H6 C9 1_555 1_555
H7 C9 1_555 1_555
H8 C9 1_555 1_555
C10 C8 1_555 1_555
H9 C10 1_555 1_555
H10 C10 1_555 1_555
H11 C10 1_555 1_555
N4 O3 1_555 1_555
N5 O5 1_555 1_555
O1 C11 1_555 1_555
O2 H12 1_555 1_555
O4 N4 1_555 1_555
O6 N5 1_555 1_555
C11 O2 1_555 1_555
C12 C11 1_555 1_555
C13 C12 1_555 1_555
H13 C13 1_555 1_555
C14 N4 1_555 1_555
C15 C14 1_555 1_555
H14 C15 1_555 1_555
C16 N5 1_555 1_555
C17 C12 1_555 1_555
H15 C17 1_555 1_555
C4 C5 1_555 1_555
C7 C8 1_555 1_555
C13 C14 1_555 1_555
C15 C16 1_555 1_555
C16 C17 1_555 1_555

#END
