
#######################################################################
#
#                 Cambridge Crystallographic Data Centre
#                                CCDC 
#
#######################################################################
#
# If this CIF has been generated from an entry in the Cambridge 
# Structural Database, then it will include bibliographic, chemical, 
# crystal, experimental, refinement or atomic coordinate data resulting 
# from the CCDC's data processing and validation procedures.
#
#######################################################################

data_SEBLAP
_chemical_formula_moiety         'C10 H12 N3 1+,C10 H11 N3,C12 H7 O4 1-'
_chemical_name_systematic        
'2-amino-5,7-dimethyl-1,8-naphthyridin-1-ium 4-carboxy-1-naphthoate 5,7-dimethyl-1,8-naphthyridin-2-amine'
_symmetry_cell_setting           triclinic
_symmetry_space_group_name_H-M   'P -1'
_symmetry_Int_Tables_number      2
_space_group_name_Hall           '-P 1'
loop_
_symmetry_equiv_pos_site_id
_symmetry_equiv_pos_as_xyz
1 x,y,z
2 -x,-y,-z
_cell_length_a                   9.6263(8)
_cell_length_b                   11.6696(9)
_cell_length_c                   12.7238(11)
_cell_angle_alpha                83.520(2)
_cell_angle_beta                 82.415(2)
_cell_angle_gamma                75.2020(10)
_cell_volume                     1365.15
_exptl_crystal_colour            colorless
_exptl_crystal_description       block
_cell_formula_units_Z            2
loop_
_atom_site_label
_atom_site_type_symbol
_atom_site_fract_x
_atom_site_fract_y
_atom_site_fract_z
N1 N 0.62234(19) 0.84770(16) 0.63646(15)
N2 N 0.4661(2) 0.84896(16) 0.51409(15)
N3 N 0.7825(2) 0.84390(18) 0.75589(16)
H1 H 0.8521 0.8134 0.7100
H2 H 0.8006 0.8575 0.8171
C1 C 0.6463(3) 0.87013(19) 0.73225(19)
C2 C 0.5319(3) 0.9207(2) 0.8087(2)
H3 H 0.5517 0.9344 0.8752
C3 C 0.3943(3) 0.9487(2) 0.7841(2)
H4 H 0.3192 0.9832 0.8332
C4 C 0.3637(3) 0.92561(19) 0.68367(19)
C5 C 0.4817(2) 0.87492(18) 0.61196(18)
C6 C 0.3333(3) 0.8702(2) 0.4849(2)
C7 C 0.2121(3) 0.9205(2) 0.5523(2)
H5 H 0.1211 0.9348 0.5291
C8 C 0.2227(3) 0.9496(2) 0.6518(2)
C9 C 0.3205(3) 0.8377(2) 0.3769(2)
H6 H 0.3492 0.8949 0.3238
H7 H 0.2221 0.8371 0.3717
H8 H 0.3819 0.7602 0.3657
C10 C 0.0918(3) 1.0031(3) 0.7246(2)
H9 H 0.0068 1.0157 0.6887
H10 H 0.1005 1.0778 0.7443
H11 H 0.0843 0.9501 0.7874
N4 N -0.13257(19) 0.72500(16) 0.48964(14)
H12 H -0.1979 0.7682 0.5312
N5 N 0.0146(2) 0.68782(16) 0.62528(15)
N6 N -0.2923(2) 0.75900(18) 0.36352(15)
H13 H -0.3584 0.7984 0.4072
H14 H -0.3114 0.7505 0.3011
C11 C -0.1620(3) 0.7117(2) 0.39222(18)
C12 C -0.0514(3) 0.6453(2) 0.32111(18)
H15 H -0.0695 0.6388 0.2523
C13 C 0.0785(3) 0.5922(2) 0.35323(18)
H16 H 0.1500 0.5492 0.3063
C14 C 0.1086(2) 0.60092(19) 0.45770(17)
C15 C 0.0003(2) 0.67084(18) 0.52475(17)
C16 C 0.1393(2) 0.6316(2) 0.66334(18)
C17 C 0.2513(2) 0.5580(2) 0.60246(19)
H17 H 0.3353 0.5189 0.6327
C18 C 0.2397(2) 0.5424(2) 0.49921(19)
C19 C 0.1547(3) 0.6481(3) 0.7756(2)
H18 H 0.2417 0.6733 0.7777
H19 H 0.1594 0.5742 0.8182
H20 H 0.0730 0.7073 0.8029
C20 C 0.3598(3) 0.4650(2) 0.4324(2)
H21 H 0.4033 0.5140 0.3791
H22 H 0.3217 0.4119 0.3987
H23 H 0.4313 0.4198 0.4768
O1 O 0.60853(16) 0.79996(16) 0.06203(14)
H24 H 0.6928 0.7854 0.0751
O2 O 0.59278(18) 0.66406(16) 0.19722(13)
O3 O -0.0843(7) 0.8547(9) -0.0583(5)
O4 O -0.1343(6) 0.7524(11) 0.0983(4)
C21 C 0.5424(2) 0.7288(2) 0.12228(19)
C22 C -0.0497(2) 0.79469(19) 0.02590(19)
C23 C 0.3927(2) 0.73797(19) 0.09461(16)
C24 C 0.3107(2) 0.8473(2) 0.06531(19)
H25 H 0.3501 0.9130 0.0600
C25 C 0.1676(2) 0.8634(2) 0.04284(19)
H26 H 0.1138 0.9394 0.0235
C26 C 0.1062(2) 0.76930(18) 0.04892(16)
C27 C 0.1900(2) 0.65264(18) 0.07510(15)
C28 C 0.3344(2) 0.63596(18) 0.10024(15)
C29 C 0.4157(2) 0.5186(2) 0.12411(17)
H27 H 0.5096 0.5062 0.1415
C30 C 0.3586(3) 0.4236(2) 0.12203(19)
H28 H 0.4140 0.3471 0.1377
C31 C 0.2181(3) 0.4399(2) 0.0967(2)
H29 H 0.1805 0.3743 0.0951
C32 C 0.1362(3) 0.5504(2) 0.07430(17)
H30 H 0.0423 0.5597 0.0580
O5? O -0.081(2) 0.8163(17) -0.0594(18)
O6? O -0.145(2) 0.802(2) 0.0974(15)
loop_
_geom_bond_atom_site_label_1
_geom_bond_atom_site_label_2
_geom_bond_site_symmetry_1
_geom_bond_site_symmetry_2
N1 C1 1_555 1_555
N2 C5 1_555 1_555
N3 H1 1_555 1_555
H2 N3 1_555 1_555
C1 N3 1_555 1_555
C2 C1 1_555 1_555
H3 C2 1_555 1_555
C3 C2 1_555 1_555
H4 C3 1_555 1_555
C4 C3 1_555 1_555
C5 N1 1_555 1_555
C6 N2 1_555 1_555
C7 C6 1_555 1_555
H5 C7 1_555 1_555
C8 C4 1_555 1_555
C9 C6 1_555 1_555
H6 C9 1_555 1_555
H7 C9 1_555 1_555
H8 C9 1_555 1_555
C10 C8 1_555 1_555
H9 C10 1_555 1_555
H10 C10 1_555 1_555
H11 C10 1_555 1_555
N4 H12 1_555 1_555
N5 C15 1_555 1_555
N6 H13 1_555 1_555
H14 N6 1_555 1_555
C11 N4 1_555 1_555
C12 C11 1_555 1_555
H15 C12 1_555 1_555
C13 C12 1_555 1_555
H16 C13 1_555 1_555
C14 C13 1_555 1_555
C15 N4 1_555 1_555
C16 N5 1_555 1_555
C17 C16 1_555 1_555
H17 C17 1_555 1_555
C18 C14 1_555 1_555
C19 C16 1_555 1_555
H18 C19 1_555 1_555
H19 C19 1_555 1_555
H20 C19 1_555 1_555
C20 C18 1_555 1_555
H21 C20 1_555 1_555
H22 C20 1_555 1_555
H23 C20 1_555 1_555
O1 H24 1_555 1_555
O2 C21 1_555 1_555
O3 C22 1_555 1_555
O4 C22 1_555 1_555
C21 O1 1_555 1_555
C22 C26 1_555 1_555
C23 C21 1_555 1_555
C24 C23 1_555 1_555
H25 C24 1_555 1_555
C25 C24 1_555 1_555
H26 C25 1_555 1_555
C26 C25 1_555 1_555
C27 C26 1_555 1_555
C28 C23 1_555 1_555
C29 C28 1_555 1_555
H27 C29 1_555 1_555
C30 C29 1_555 1_555
H28 C30 1_555 1_555
C31 C30 1_555 1_555
H29 C31 1_555 1_555
C32 C27 1_555 1_555
H30 C32 1_555 1_555
C4 C5 1_555 1_555
C7 C8 1_555 1_555
N6 C11 1_555 1_555
C14 C15 1_555 1_555
C17 C18 1_555 1_555
C27 C28 1_555 1_555
C31 C32 1_555 1_555

#END
