
#######################################################################
#
#                 Cambridge Crystallographic Data Centre
#                                CCDC 
#
#######################################################################
#
# If this CIF has been generated from an entry in the Cambridge 
# Structural Database, then it will include bibliographic, chemical, 
# crystal, experimental, refinement or atomic coordinate data resulting 
# from the CCDC's data processing and validation procedures.
#
#######################################################################

data_SEBLOD
_chemical_formula_moiety         'C26 H26 N2 O4 S1'
_chemical_name_systematic        
1-((4-methylphenyl)sulfonyl)-17,18-didehydro-2,7-dihydroyohimban-5,16-dione
_symmetry_cell_setting           monoclinic
_symmetry_space_group_name_H-M   'P 21'
_symmetry_Int_Tables_number      4
_space_group_name_Hall           'P 2yb'
loop_
_symmetry_equiv_pos_site_id
_symmetry_equiv_pos_as_xyz
1 x,y,z
2 -x,1/2+y,-z
_cell_length_a                   12.6729(5)
_cell_length_b                   6.6828(3)
_cell_length_c                   15.4137(8)
_cell_angle_alpha                90
_cell_angle_beta                 101.748(5)
_cell_angle_gamma                90
_cell_volume                     1278.05
_cell_formula_units_Z            2
loop_
_atom_site_label
_atom_site_type_symbol
_atom_site_fract_x
_atom_site_fract_y
_atom_site_fract_z
S1 S 0.22388(8) 0.29646(15) 0.23806(7)
O1 O 0.6532(3) 0.9147(5) 0.2916(2)
O2 O 0.6534(3) 0.0913(6) 0.0225(3)
O3 O 0.1926(2) 0.1923(5) 0.3091(2)
O4 O 0.2350(2) 0.1936(5) 0.1599(2)
N1 N 0.3437(2) 0.3977(5) 0.2793(2)
N2 N 0.5926(2) 0.5961(5) 0.2667(2)
C1 C 0.3522(3) 0.5205(6) 0.3584(3)
C2 C 0.3379(4) 0.4575(8) 0.4405(3)
H1 H 0.3199 0.3261 0.4512
C3 C 0.3523(4) 0.6047(11) 0.5070(3)
H2 H 0.3434 0.5700 0.5635
C4 C 0.3796(4) 0.8016(12) 0.4907(3)
H3 H 0.3900 0.8954 0.5362
C5 C 0.3910(4) 0.8554(7) 0.4084(3)
H4 H 0.4085 0.9867 0.3971
C6 C 0.3763(3) 0.7135(6) 0.3406(3)
C7 C 0.3805(3) 0.7368(5) 0.2449(3)
H5 H 0.3109 0.7880 0.2130
C8 C 0.4695(4) 0.8713(6) 0.2253(3)
H6 H 0.4622 0.8823 0.1616
H7 H 0.4607 1.0042 0.2482
C9 C 0.5794(3) 0.7973(7) 0.2644(2)
C10 C 0.7019(3) 0.5132(7) 0.2833(3)
H8 H 0.7055 0.3963 0.3211
H9 H 0.7525 0.6117 0.3136
C11 C 0.7325(3) 0.4552(6) 0.1964(3)
H10 H 0.8026 0.3878 0.2105
C12 C 0.7441(4) 0.6371(7) 0.1398(3)
H11 H 0.6816 0.7227 0.1369
H12 H 0.8072 0.7124 0.1679
C13 C 0.7543(4) 0.5840(9) 0.0482(3)
H13 H 0.7829 0.6789 0.0154
C14 C 0.7250(4) 0.4103(9) 0.0110(3)
H14 H 0.7362 0.3859 -0.0458
C15 C 0.6757(3) 0.2542(7) 0.0559(3)
C16 C 0.6508(3) 0.3070(7) 0.1457(2)
H15 H 0.6547 0.1839 0.1807
C17 C 0.5351(3) 0.3903(6) 0.1338(3)
H16 H 0.5272 0.5054 0.0946
H17 H 0.4839 0.2891 0.1069
C18 C 0.5116(3) 0.4518(5) 0.2237(3)
H18 H 0.5211 0.3315 0.2608
C19 C 0.3927(3) 0.5205(5) 0.2169(3)
H19 H 0.3522 0.5006 0.1562
C20 C 0.1354(3) 0.5007(6) 0.2080(3)
C21 C 0.1158(4) 0.5761(8) 0.1236(3)
H20 H 0.1430 0.5109 0.0796
C22 C 0.0568(4) 0.7454(8) 0.1041(4)
H21 H 0.0441 0.7938 0.0464
C23 C 0.0157(3) 0.8470(7) 0.1662(4)
C24 C 0.0350(4) 0.7710(8) 0.2520(4)
H22 H 0.0074 0.8375 0.2955
C25 C 0.0947(4) 0.5973(8) 0.2737(3)
H23 H 0.1072 0.5469 0.3311
C26 C -0.0472(4) 1.0390(8) 0.1459(4)
H24 H -0.0715 1.0831 0.1978
H25 H -0.1083 1.0163 0.0987
H26 H -0.0019 1.1398 0.1282
loop_
_geom_bond_atom_site_label_1
_geom_bond_atom_site_label_2
_geom_bond_site_symmetry_1
_geom_bond_site_symmetry_2
S1 O3 1_555 1_555
O1 C9 1_555 1_555
O2 C15 1_555 1_555
O4 S1 1_555 1_555
N1 S1 1_555 1_555
N2 C9 1_555 1_555
C1 N1 1_555 1_555
C2 C1 1_555 1_555
H1 C2 1_555 1_555
C3 C2 1_555 1_555
H2 C3 1_555 1_555
C4 C3 1_555 1_555
H3 C4 1_555 1_555
C5 C4 1_555 1_555
H4 C5 1_555 1_555
C6 C1 1_555 1_555
C7 C6 1_555 1_555
H5 C7 1_555 1_555
C8 C7 1_555 1_555
H6 C8 1_555 1_555
H7 C8 1_555 1_555
C9 C8 1_555 1_555
C10 N2 1_555 1_555
H8 C10 1_555 1_555
H9 C10 1_555 1_555
C11 C10 1_555 1_555
H10 C11 1_555 1_555
C12 C11 1_555 1_555
H11 C12 1_555 1_555
H12 C12 1_555 1_555
C13 C12 1_555 1_555
H13 C13 1_555 1_555
C14 C13 1_555 1_555
H14 C14 1_555 1_555
C15 C14 1_555 1_555
C16 C11 1_555 1_555
H15 C16 1_555 1_555
C17 C16 1_555 1_555
H16 C17 1_555 1_555
H17 C17 1_555 1_555
C18 N2 1_555 1_555
H18 C18 1_555 1_555
C19 N1 1_555 1_555
H19 C19 1_555 1_555
C20 S1 1_555 1_555
C21 C20 1_555 1_555
H20 C21 1_555 1_555
C22 C21 1_555 1_555
H21 C22 1_555 1_555
C23 C22 1_555 1_555
C24 C23 1_555 1_555
H22 C24 1_555 1_555
C25 C20 1_555 1_555
H23 C25 1_555 1_555
C26 C23 1_555 1_555
H24 C26 1_555 1_555
H25 C26 1_555 1_555
H26 C26 1_555 1_555
C5 C6 1_555 1_555
C7 C19 1_555 1_555
C15 C16 1_555 1_555
C17 C18 1_555 1_555
C18 C19 1_555 1_555
C24 C25 1_555 1_555

#END
