
#######################################################################
#
#                 Cambridge Crystallographic Data Centre
#                                CCDC 
#
#######################################################################
#
# If this CIF has been generated from an entry in the Cambridge 
# Structural Database, then it will include bibliographic, chemical, 
# crystal, experimental, refinement or atomic coordinate data resulting 
# from the CCDC's data processing and validation procedures.
#
#######################################################################

data_SEBQUO
_chemical_formula_moiety         'C12 H11 N3 O1 S3'
_chemical_name_systematic        
3-(2-((5-methyl-1,3,4-thiadiazol-2-yl)sulfanyl)ethoxy)-1,2-benzothiazole
_symmetry_cell_setting           triclinic
_symmetry_space_group_name_H-M   'P -1'
_symmetry_Int_Tables_number      2
_space_group_name_Hall           '-P 1'
loop_
_symmetry_equiv_pos_site_id
_symmetry_equiv_pos_as_xyz
1 x,y,z
2 -x,-y,-z
_cell_length_a                   4.2286(4)
_cell_length_b                   11.1332(10)
_cell_length_c                   14.6688(12)
_cell_angle_alpha                81.455(7)
_cell_angle_beta                 83.380(7)
_cell_angle_gamma                88.550(8)
_cell_volume                     678.333
_cell_formula_units_Z            2
loop_
_atom_site_label
_atom_site_type_symbol
_atom_site_fract_x
_atom_site_fract_y
_atom_site_fract_z
S1 S 0.3132(2) 0.55938(6) 0.14567(5)
S2 S 0.3577(2) 1.04578(7) 0.28633(5)
S3 S 0.6465(2) 1.28845(7) 0.28552(5)
C1 C 0.6210(7) 1.3454(3) 0.38892(19)
N1 N 0.2699(6) 0.64175(19) 0.23366(15)
O1 O 0.0444(5) 0.82676(16) 0.26356(12)
N2 N 0.3666(6) 1.1681(2) 0.43271(15)
C2 C -0.1553(7) 0.8561(2) 0.07363(19)
H1 H -0.2268 0.9207 0.1044
C3 C 0.1130(6) 0.7407(2) 0.20893(18)
C4 C 0.1171(6) 0.6634(2) 0.07125(18)
C5 C 0.1661(7) 0.9379(2) 0.38037(18)
H2 H 0.2732 0.9364 0.4356
H3 H -0.0544 0.9613 0.3948
C6 C 0.1840(8) 0.8143(2) 0.34984(19)
H4 H 0.4038 0.7872 0.3409
H5 H 0.0672 0.7556 0.3962
N3 N 0.4724(7) 1.2756(2) 0.45733(16)
C7 C 0.0602(7) 0.6618(3) -0.02063(19)
H6 H 0.1337 0.5982 -0.0522
C8 C 0.7592(8) 1.4652(3) 0.3958(2)
H7 H 0.9689 1.4716 0.3626
H8 H 0.7714 1.4718 0.4598
H9 H 0.6264 1.5293 0.3694
C9 C 0.4425(6) 1.1630(2) 0.34523(17)
C10 C 0.0140(6) 0.7602(2) 0.11742(17)
C11 C -0.1073(7) 0.7570(3) -0.0624(2)
H10 H -0.1506 0.7573 -0.1232
C12 C -0.2147(7) 0.8534(3) -0.0162(2)
H11 H -0.3282 0.9168 -0.0465
loop_
_geom_bond_atom_site_label_1
_geom_bond_atom_site_label_2
_geom_bond_site_symmetry_1
_geom_bond_site_symmetry_2
S1 N1 1_555 1_555
S2 C5 1_555 1_555
S3 C1 1_555 1_555
C1 N3 1_555 1_555
N1 C3 1_555 1_555
O1 C3 1_555 1_555
N2 N3 1_555 1_555
C2 H1 1_555 1_555
C3 C10 1_555 1_555
C4 S1 1_555 1_555
C5 H2 1_555 1_555
H3 C5 1_555 1_555
C6 O1 1_555 1_555
H4 C6 1_555 1_555
H5 C6 1_555 1_555
C7 C4 1_555 1_555
H6 C7 1_555 1_555
C8 C1 1_555 1_555
H7 C8 1_555 1_555
H8 C8 1_555 1_555
H9 C8 1_555 1_555
C9 S2 1_555 1_555
C10 C2 1_555 1_555
C11 C7 1_555 1_555
H10 C11 1_555 1_555
C12 C2 1_555 1_555
H11 C12 1_555 1_555
S3 C9 1_555 1_555
N2 C9 1_555 1_555
C4 C10 1_555 1_555
C5 C6 1_555 1_555
C11 C12 1_555 1_555

#END
