
#######################################################################
#
#                 Cambridge Crystallographic Data Centre
#                                CCDC 
#
#######################################################################
#
# If this CIF has been generated from an entry in the Cambridge 
# Structural Database, then it will include bibliographic, chemical, 
# crystal, experimental, refinement or atomic coordinate data resulting 
# from the CCDC's data processing and validation procedures.
#
#######################################################################

data_SEBRAV
_chemical_formula_moiety         'C11 H11 N5 O1 S2'
_chemical_name_systematic        
3-(2-((1-methyl-1H-tetrazol-5-yl)sulfanyl)ethoxy)-1,2-benzothiazole
_symmetry_cell_setting           monoclinic
_symmetry_space_group_name_H-M   'P 21/c'
_symmetry_Int_Tables_number      14
_space_group_name_Hall           '-P 2ybc'
loop_
_symmetry_equiv_pos_site_id
_symmetry_equiv_pos_as_xyz
1 x,y,z
2 -x,1/2+y,1/2-z
3 -x,-y,-z
4 x,1/2-y,1/2+z
_cell_length_a                   8.3357(3)
_cell_length_b                   11.2682(5)
_cell_length_c                   14.3875(6)
_cell_angle_alpha                90
_cell_angle_beta                 104.673(4)
_cell_angle_gamma                90
_cell_volume                     1307.32
_cell_formula_units_Z            4
loop_
_atom_site_label
_atom_site_type_symbol
_atom_site_fract_x
_atom_site_fract_y
_atom_site_fract_z
S1 S -0.06066(6) 0.28001(5) 0.13437(3)
S2 S 0.73905(5) 0.49370(5) 0.35168(3)
O1 O 0.36215(14) 0.39527(13) 0.13336(8)
N1 N 0.13876(19) 0.31775(15) 0.18339(10)
N2 N 0.47171(17) 0.62724(15) 0.37101(11)
N3 N 0.66849(16) 0.60775(14) 0.50135(10)
C1 C 0.61930(19) 0.57982(16) 0.40775(11)
N4 N 0.54936(18) 0.67441(16) 0.52373(11)
N5 N 0.43253(18) 0.68498(17) 0.44553(11)
C2 C 0.1030(2) 0.35909(15) 0.01977(11)
C3 C -0.0559(2) 0.31835(15) 0.01823(11)
C4 C 0.2048(2) 0.35642(16) 0.11656(11)
C5 C -0.1795(2) 0.31465(17) -0.06788(12)
H1 H -0.2861 0.2889 -0.0693
C6 C 0.1420(2) 0.39538(16) -0.06499(12)
H2 H 0.2478 0.4223 -0.0642
C7 C 0.4552(2) 0.39921(19) 0.23194(12)
H3 H 0.4928 0.3205 0.2548
H4 H 0.3884 0.4312 0.2722
C8 C 0.8217(2) 0.5772(2) 0.57229(13)
H5 H 0.8280 0.4927 0.5809
H6 H 0.8229 0.6147 0.6324
H7 H 0.9150 0.6041 0.5503
C9 C 0.0200(2) 0.39025(18) -0.14935(12)
H8 H 0.0437 0.4137 -0.2064
C10 C -0.1388(2) 0.35036(18) -0.15059(12)
H9 H -0.2192 0.3478 -0.2087
C11 C 0.6011(2) 0.47945(19) 0.23312(13)
H10 H 0.5604 0.5574 0.2100
H11 H 0.6625 0.4479 0.1897
loop_
_geom_bond_atom_site_label_1
_geom_bond_atom_site_label_2
_geom_bond_site_symmetry_1
_geom_bond_site_symmetry_2
S1 N1 1_555 1_555
S2 C1 1_555 1_555
O1 C4 1_555 1_555
N1 C4 1_555 1_555
N2 C1 1_555 1_555
N3 C1 1_555 1_555
N4 N3 1_555 1_555
N5 N2 1_555 1_555
C2 C3 1_555 1_555
C3 S1 1_555 1_555
C4 C2 1_555 1_555
C5 C3 1_555 1_555
H1 C5 1_555 1_555
C6 C2 1_555 1_555
H2 C6 1_555 1_555
C7 O1 1_555 1_555
H3 C7 1_555 1_555
H4 C7 1_555 1_555
C8 N3 1_555 1_555
H5 C8 1_555 1_555
H6 C8 1_555 1_555
H7 C8 1_555 1_555
C9 C6 1_555 1_555
H8 C9 1_555 1_555
C10 C5 1_555 1_555
H9 C10 1_555 1_555
C11 S2 1_555 1_555
H10 C11 1_555 1_555
H11 C11 1_555 1_555
N4 N5 1_555 1_555
C7 C11 1_555 1_555
C9 C10 1_555 1_555

#END
