
#######################################################################
#
#                 Cambridge Crystallographic Data Centre
#                                CCDC 
#
#######################################################################
#
# If this CIF has been generated from an entry in the Cambridge 
# Structural Database, then it will include bibliographic, chemical, 
# crystal, experimental, refinement or atomic coordinate data resulting 
# from the CCDC's data processing and validation procedures.
#
#######################################################################

data_SEBREW
_chemical_formula_moiety         'C19 H20 Cl1 N1 O1'
_chemical_name_systematic        
cis(-)-(6aR,13bR)-11-Chloro-6,6a,7,8,9,13b-hexahydro-7-methyl-5H-benzo(d)naphth(2,1-b)azepin-12-ol
_symmetry_cell_setting           monoclinic
_symmetry_space_group_name_H-M   'P 21'
_symmetry_Int_Tables_number      4
_space_group_name_Hall           'P 2yb'
loop_
_symmetry_equiv_pos_site_id
_symmetry_equiv_pos_as_xyz
1 x,y,z
2 -x,1/2+y,-z
_cell_length_a                   10.315(2)
_cell_length_b                   18.156(5)
_cell_length_c                   8.935(2)
_cell_angle_alpha                90
_cell_angle_beta                 106.93(2)
_cell_angle_gamma                90
_cell_volume                     1600.82
_cell_formula_units_Z            4
loop_
_atom_site_label
_atom_site_type_symbol
_atom_site_fract_x
_atom_site_fract_y
_atom_site_fract_z
C1 C -0.6247(3) 0.1101(2) 0.5647(4)
C2 C -0.6662(4) 0.0548(2) 0.6490(4)
C3 C -0.5736(4) 0.0221(2) 0.7748(4)
C4 C -0.4395(4) 0.0437(2) 0.8169(4)
C5 C -0.3952(3) 0.0990(2) 0.7336(4)
C6 C -0.2486(4) 0.1220(3) 0.7836(4)
C7 C -0.2023(3) 0.1673(2) 0.6624(4)
C8 C -0.3050(2) 0.1669(2) 0.5029(3)
N1 N -0.2528(2) 0.2038(2) 0.3834(3)
C9 C -0.2335(3) 0.2838(2) 0.3995(4)
C10 C -0.3601(4) 0.3297(2) 0.3839(4)
C11 C -0.4037(3) 0.3322(2) 0.5315(3)
C12 C -0.4098(3) 0.3996(2) 0.6009(4)
C13 C -0.4543(3) 0.4050(2) 0.7323(4)
C14 C -0.4918(3) 0.3437(2) 0.8004(3)
C15 C -0.4833(3) 0.2755(2) 0.7310(3)
C16 C -0.4424(2) 0.2685(2) 0.5965(3)
C17 C -0.4436(3) 0.1923(2) 0.5193(3)
C18 C -0.4885(3) 0.1320(2) 0.6087(3)
C19 C -0.3280(4) 0.1813(3) 0.2240(4)
Cl1 Cl -0.4685(1) 0.49175(6) 0.8099(1)
O1 O -0.5353(2) 0.3495(1) 0.9292(2)
H1 H -0.696(4) 0.133(2) 0.459(5)
H2 H -0.760(4) 0.040(2) 0.624(5)
H3 H -0.593(3) -0.015(2) 0.841(3)
H4 H -0.372(5) 0.014(3) 0.896(5)
H5 H -0.194(5) 0.074(3) 0.809(6)
H6 H -0.235(5) 0.157(3) 0.862(5)
H7 H -0.116(3) 0.155(2) 0.660(4)
H8 H -0.183(5) 0.218(3) 0.703(6)
H9 H -0.323(4) 0.118(2) 0.471(4)
H10 H -0.199(3) 0.291(2) 0.307(4)
H11 H -0.173(4) 0.298(2) 0.516(4)
H12 H -0.419(4) 0.304(3) 0.322(5)
H13 H -0.339(4) 0.383(3) 0.357(5)
H14 H -0.378(5) 0.454(3) 0.552(5)
H15 H -0.510(3) 0.230(2) 0.785(4)
H16 H -0.508(3) 0.199(2) 0.405(3)
H17 H -0.327(5) 0.128(3) 0.209(6)
H18 H -0.427(5) 0.183(3) 0.173(6)
H19 H -0.291(4) 0.214(3) 0.142(5)
H20 H -0.633(5) 0.316(3) 0.922(5)
C20 C 0.2320(4) 0.3990(2) 0.3481(3)
C21 C 0.1850(4) 0.4558(2) 0.4232(4)
C22 C 0.0529(5) 0.4797(2) 0.3683(4)
C23 C -0.0326(4) 0.4478(2) 0.2378(4)
C24 C 0.0110(3) 0.3911(2) 0.1583(3)
C25 C -0.0854(3) 0.3578(2) 0.0139(4)
C26 C -0.0178(3) 0.3172(2) -0.0946(3)
C27 C 0.1358(2) 0.3287(2) -0.0473(3)
N2 N 0.2086(2) 0.2960(2) -0.1523(2)
C28 C 0.2002(3) 0.2159(2) -0.1712(3)
C29 C 0.2743(3) 0.1757(2) -0.0235(3)
C30 C 0.1929(3) 0.1680(2) 0.0925(3)
C31 C 0.1530(3) 0.0985(2) 0.1251(4)
C32 C 0.0789(3) 0.0891(2) 0.2290(4)
C33 C 0.0422(3) 0.1474(2) 0.3050(3)
C34 C 0.0807(2) 0.2179(2) 0.2709(3)
C35 C 0.1551(2) 0.2293(1) 0.1651(3)
C36 C 0.1939(2) 0.3070(2) 0.1272(3)
C37 C 0.1443(3) 0.3664(2) 0.2149(3)
C38 C 0.1649(4) 0.3328(3) -0.3065(3)
Cl2 Cl 0.0326(1) 0.0000 0.2669(1)
O2 O -0.0208(2) 0.1353(1) 0.4171(2)
H21 H 0.341(3) 0.388(2) 0.385(4)
H22 H 0.246(5) 0.481(4) 0.487(6)
H23 H 0.022(5) 0.522(3) 0.441(5)
H24 H -0.131(5) 0.456(3) 0.187(5)
H25 H -0.137(5) 0.407(3) -0.041(5)
H26 H -0.159(4) 0.316(3) 0.052(5)
H27 H -0.046(4) 0.335(2) -0.201(4)
H28 H -0.036(4) 0.264(3) -0.073(4)
H29 H 0.158(3) 0.382(2) -0.055(3)
H30 H 0.254(3) 0.203(3) -0.257(4)
H31 H 0.094(3) 0.196(2) -0.221(4)
H32 H 0.361(4) 0.205(2) 0.022(4)
H33 H 0.286(3) 0.130(2) -0.058(4)
H34 H 0.176(4) 0.058(2) 0.087(4)
H35 H 0.059(2) 0.258(1) 0.317(3)
H36 H 0.298(3) 0.310(2) 0.161(3)
H37 H 0.195(5) 0.389(3) -0.290(5)
H38 H 0.220(4) 0.315(2) -0.355(4)
H39 H 0.082(5) 0.314(3) -0.352(5)
H40 H -0.081(3) 0.167(2) 0.410(4)
loop_
_geom_bond_atom_site_label_1
_geom_bond_atom_site_label_2
_geom_bond_site_symmetry_1
_geom_bond_site_symmetry_2
C1 C2 1_555 1_555
C2 C3 1_555 1_555
C3 C4 1_555 1_555
C4 C5 1_555 1_555
C5 C6 1_555 1_555
C6 C7 1_555 1_555
C7 C8 1_555 1_555
C8 N1 1_555 1_555
N1 C9 1_555 1_555
C9 C10 1_555 1_555
C10 C11 1_555 1_555
C11 C12 1_555 1_555
C12 C13 1_555 1_555
C13 C14 1_555 1_555
C14 C15 1_555 1_555
C15 C16 1_555 1_555
C16 C11 1_555 1_555
C17 C8 1_555 1_555
C18 C1 1_555 1_555
C19 N1 1_555 1_555
Cl1 C13 1_555 1_555
O1 C14 1_555 1_555
C20 C21 1_555 1_555
C21 C22 1_555 1_555
C22 C23 1_555 1_555
C23 C24 1_555 1_555
C24 C25 1_555 1_555
C25 C26 1_555 1_555
C26 C27 1_555 1_555
C27 N2 1_555 1_555
N2 C28 1_555 1_555
C28 C29 1_555 1_555
C29 C30 1_555 1_555
C30 C31 1_555 1_555
C31 C32 1_555 1_555
C32 C33 1_555 1_555
C33 C34 1_555 1_555
C34 C35 1_555 1_555
C35 C30 1_555 1_555
C36 C27 1_555 1_555
C37 C20 1_555 1_555
C38 N2 1_555 1_555
Cl2 C32 1_555 1_555
O2 C33 1_555 1_555
H1 C1 1_555 1_555
H2 C2 1_555 1_555
H3 C3 1_555 1_555
H4 C4 1_555 1_555
H5 C6 1_555 1_555
H6 C6 1_555 1_555
H7 C7 1_555 1_555
H8 C7 1_555 1_555
H9 C8 1_555 1_555
H10 C9 1_555 1_555
H11 C9 1_555 1_555
H12 C10 1_555 1_555
H13 C10 1_555 1_555
H14 C12 1_555 1_555
H15 C15 1_555 1_555
H16 C17 1_555 1_555
H17 C19 1_555 1_555
H18 C19 1_555 1_555
H19 C19 1_555 1_555
H20 O1 1_555 1_555
H21 C20 1_555 1_555
H22 C21 1_555 1_555
H23 C22 1_555 1_555
H24 C23 1_555 1_555
H25 C25 1_555 1_555
H26 C25 1_555 1_555
H27 C26 1_555 1_555
H28 C26 1_555 1_555
H29 C27 1_555 1_555
H30 C28 1_555 1_555
H31 C28 1_555 1_555
H32 C29 1_555 1_555
H33 C29 1_555 1_555
H34 C31 1_555 1_555
H35 C34 1_555 1_555
H36 C36 1_555 1_555
H37 C38 1_555 1_555
H38 C38 1_555 1_555
H39 C38 1_555 1_555
H40 O2 1_555 1_555
C5 C18 1_555 1_555
C16 C17 1_555 1_555
C17 C18 1_555 1_555
C24 C37 1_555 1_555
C35 C36 1_555 1_555
C36 C37 1_555 1_555

#END
