
#######################################################################
#
#                 Cambridge Crystallographic Data Centre
#                                CCDC 
#
#######################################################################
#
# If this CIF has been generated from an entry in the Cambridge 
# Structural Database, then it will include bibliographic, chemical, 
# crystal, experimental, refinement or atomic coordinate data resulting 
# from the CCDC's data processing and validation procedures.
#
#######################################################################

data_SEBROG
_chemical_formula_moiety         'C17 H19 Cl1 N1 O1 1+,C4 H3 O4 1-'
_chemical_name_systematic        
'8-Chloro-7-hydroxy-3-methyl-5-phenyl-1,2,4,5-tetrahydro-3-benzazepinium hydrogen maleate'
_chemical_properties_biological  'D!1$ antagonist activity'
_symmetry_cell_setting           orthorhombic
_symmetry_space_group_name_H-M   'P 21 21 21'
_symmetry_Int_Tables_number      19
_space_group_name_Hall           'P 2ac 2ab'
loop_
_symmetry_equiv_pos_site_id
_symmetry_equiv_pos_as_xyz
1 x,y,z
2 1/2+x,1/2-y,-z
3 -x,1/2+y,1/2-z
4 1/2-x,-y,1/2+z
_cell_length_a                   10.830(1)
_cell_length_b                   21.196(3)
_cell_length_c                   8.872(2)
_cell_angle_alpha                90
_cell_angle_beta                 90
_cell_angle_gamma                90
_cell_volume                     2036.59
_cell_formula_units_Z            4
loop_
_atom_site_label
_atom_site_type_symbol
_atom_site_fract_x
_atom_site_fract_y
_atom_site_fract_z
C1 C -0.1539(3) 0.3323(2) 0.2981(5)
C2 C -0.1154(4) 0.3443(2) 0.4574(5)
N1 N 0.0073(3) 0.3174(2) 0.5001(4)
C3 C 0.1156(3) 0.3451(2) 0.4171(4)
C4 C 0.1168(3) 0.3282(2) 0.2493(4)
C5 C 0.0345(3) 0.3724(2) 0.1540(4)
C6 C 0.0848(3) 0.4102(2) 0.0443(4)
C7 C 0.0118(3) 0.4500(2) -0.0434(4)
C8 C -0.1149(3) 0.4493(2) -0.0187(4)
C9 C -0.1658(3) 0.4121(2) 0.0887(4)
C10 C -0.0934(3) 0.3730(2) 0.1781(4)
C11 C 0.0277(5) 0.3230(3) 0.6658(5)
O1 O 0.0583(3) 0.4876(1) -0.1523(4)
Cl1 Cl -0.20743(9) 0.49842(6) -0.12875(15)
C12 C 0.2499(3) 0.3265(2) 0.1932(4)
C13 C 0.3355(4) 0.3723(2) 0.2361(5)
C14 C 0.4541(4) 0.3708(2) 0.1819(6)
C15 C 0.4901(3) 0.3252(2) 0.0805(5)
C16 C 0.4080(4) 0.2799(2) 0.0398(5)
C17 C 0.2873(4) 0.2800(2) 0.0964(5)
H1 H -0.2497 0.3395 0.2914
H2 H -0.1336 0.2850 0.2731
H3 H -0.1824 0.3246 0.5288
H4 H -0.1119 0.3933 0.4739
H5 H 0.0033 0.2721 0.4693
H6 H 0.1972 0.3281 0.4664
H7 H 0.1122 0.3944 0.4275
H8 H 0.0779 0.2831 0.2364
H9 H 0.1760 0.4091 0.0269
H10 H -0.2573 0.4128 0.1040
H11 H 0.1142 0.3039 0.6936
H12 H 0.0251 0.3708 0.6971
H13 H -0.0419 0.2983 0.7233
H14 H 0.1460 0.4880 -0.1530
H15 H 0.3101 0.4066 0.3071
H16 H 0.5151 0.4032 0.2164
H17 H 0.5754 0.3255 0.0375
H18 H 0.4341 0.2460 -0.0317
H19 H 0.2283 0.2460 0.0660
C18 C 0.5196(4) 0.3375(2) -0.3942(5)
C19 C 0.5536(4) 0.3992(2) -0.3300(6)
C20 C 0.4855(4) 0.4427(2) -0.2600(6)
C21 C 0.3510(4) 0.4439(2) -0.2254(5)
O2 O 0.6013(4) 0.3047(2) -0.4497(5)
O3 O 0.4084(3) 0.3187(2) -0.3899(4)
O4 O 0.2834(3) 0.3979(2) -0.2674(5)
O5 O 0.3087(3) 0.4892(2) -0.1552(4)
H20 H 0.6429 0.4104 -0.3407
H21 H 0.5324 0.4806 -0.2251
H22 H 0.3460 0.3450 -0.3450
H23? H 0.3180 0.3630 -0.3210
loop_
_geom_bond_atom_site_label_1
_geom_bond_atom_site_label_2
_geom_bond_site_symmetry_1
_geom_bond_site_symmetry_2
C1 C2 1_555 1_555
C2 N1 1_555 1_555
N1 C3 1_555 1_555
C3 C4 1_555 1_555
C4 C5 1_555 1_555
C5 C6 1_555 1_555
C6 C7 1_555 1_555
C7 C8 1_555 1_555
C8 C9 1_555 1_555
C9 C10 1_555 1_555
C10 C1 1_555 1_555
C11 N1 1_555 1_555
O1 C7 1_555 1_555
Cl1 C8 1_555 1_555
C12 C4 1_555 1_555
C13 C12 1_555 1_555
C14 C13 1_555 1_555
C15 C14 1_555 1_555
C16 C15 1_555 1_555
C17 C12 1_555 1_555
C18 C19 1_555 1_555
C19 C20 1_555 1_555
C20 C21 1_555 1_555
C21 O4 1_555 1_555
O2 C18 1_555 1_555
O3 C18 1_555 1_555
O5 C21 1_555 1_555
H1 C1 1_555 1_555
H2 C1 1_555 1_555
H3 C2 1_555 1_555
H4 C2 1_555 1_555
H5 N1 1_555 1_555
H6 C3 1_555 1_555
H7 C3 1_555 1_555
H8 C4 1_555 1_555
H9 C6 1_555 1_555
H10 C9 1_555 1_555
H11 C11 1_555 1_555
H12 C11 1_555 1_555
H13 C11 1_555 1_555
H14 O1 1_555 1_555
H15 C13 1_555 1_555
H16 C14 1_555 1_555
H17 C15 1_555 1_555
H18 C16 1_555 1_555
H19 C17 1_555 1_555
H20 C19 1_555 1_555
H21 C20 1_555 1_555
H22 O3 1_555 1_555
C5 C10 1_555 1_555
C16 C17 1_555 1_555

#END
