
#######################################################################
#
#                 Cambridge Crystallographic Data Centre
#                                CCDC 
#
#######################################################################
#
# If this CIF has been generated from an entry in the Cambridge 
# Structural Database, then it will include bibliographic, chemical, 
# crystal, experimental, refinement or atomic coordinate data resulting 
# from the CCDC's data processing and validation procedures.
#
#######################################################################

data_SEBRAS
_chemical_formula_moiety         'C21 H25 N1 O2'
_chemical_name_systematic        
6,6a,7,8,9,13b-Hexahydro-11,12-Dimethoxy-7-methyl-5H-benzo(d)naphth(2,1-b)azepine
_symmetry_cell_setting           orthorhombic
_symmetry_space_group_name_H-M   'P c a 21'
_symmetry_Int_Tables_number      29
_space_group_name_Hall           'P 2c -2ac'
loop_
_symmetry_equiv_pos_site_id
_symmetry_equiv_pos_as_xyz
1 x,y,z
2 1/2-x,y,1/2+z
3 1/2+x,-y,z
4 -x,-y,1/2+z
_cell_length_a                   13.185(3)
_cell_length_b                   9.019(2)
_cell_length_c                   14.638(2)
_cell_angle_alpha                90
_cell_angle_beta                 90
_cell_angle_gamma                90
_cell_volume                     1740.69
_chemical_melting_point          114-116deg.C
_cell_formula_units_Z            4
loop_
_atom_site_label
_atom_site_type_symbol
_atom_site_fract_x
_atom_site_fract_y
_atom_site_fract_z
C1 C 0.2069(2) 0.6583(4) 0.1686(3)
C2 C 0.2061(3) 0.8115(4) 0.1842(3)
C3 C 0.1809(3) 0.9054(4) 0.1144(3)
C4 C 0.1599(3) 0.8501(4) 0.0291(3)
C5 C 0.1609(2) 0.6980(4) 0.0119(2)
C6 C 0.1348(3) 0.6433(4) -0.0822(3)
C7 C 0.1582(3) 0.4780(4) -0.0978(2)
C8 C 0.1231(2) 0.3865(4) -0.0159(2)
N1 N 0.0131(2) 0.4093(3) 0.0000
C9 C -0.0270(2) 0.3251(4) 0.0765(3)
C10 C 0.0042(2) 0.3810(4) 0.1711(3)
C11 C 0.1043(2) 0.3184(3) 0.2017(2)
C12 C 0.1099(2) 0.2347(3) 0.2813(2)
C13 C 0.1993(2) 0.1683(4) 0.3093(2)
C14 C 0.2857(2) 0.1842(4) 0.2554(2)
C15 C 0.2817(2) 0.2701(3) 0.1778(2)
C16 C 0.1907(2) 0.3391(3) 0.1498(2)
C17 C 0.1927(2) 0.4334(4) 0.0643(2)
C18 C 0.1842(2) 0.6008(3) 0.0830(2)
C19 C -0.0447(3) 0.3697(5) -0.0815(3)
O1 O 0.2089(2) 0.0835(3) 0.3864(2)
O2 O 0.3705(2) 0.1109(3) 0.2854(2)
C20 C 0.1251(4) 0.0775(5) 0.4469(3)
C21 C 0.4544(3) 0.1080(5) 0.2252(3)
H1 H 0.224 0.589 0.220
H2 H 0.224 0.852 0.246
H3 H 0.178 1.015 0.126
H4 H 0.144 0.920 -0.022
H5 H 0.176 0.706 -0.130
H6 H 0.057 0.660 -0.093
H7 H 0.237 0.464 -0.107
H8 H 0.120 0.442 -0.157
H9 H 0.130 0.272 -0.026
H10 H -0.002 0.215 0.070
H11 H -0.107 0.328 0.073
H12 H -0.052 0.350 0.218
H13 H 0.010 0.497 0.169
H14 H 0.048 0.222 0.319
H15 H 0.345 0.284 0.141
H16 H 0.266 0.410 0.040
H17 H -0.017 0.429 -0.138
H18 H -0.037 0.256 -0.094
H19 H -0.122 0.396 -0.071
H20 H 0.143 0.009 0.503
H21 H 0.109 0.185 0.471
H22 H 0.062 0.034 0.412
H23 H 0.514 0.049 0.256
H24 H 0.433 0.056 0.164
H25 H 0.478 0.217 0.211
loop_
_geom_bond_atom_site_label_1
_geom_bond_atom_site_label_2
_geom_bond_site_symmetry_1
_geom_bond_site_symmetry_2
C1 C2 1_555 1_555
C2 C3 1_555 1_555
C3 C4 1_555 1_555
C4 C5 1_555 1_555
C5 C6 1_555 1_555
C6 C7 1_555 1_555
C7 C8 1_555 1_555
C8 N1 1_555 1_555
N1 C9 1_555 1_555
C9 C10 1_555 1_555
C10 C11 1_555 1_555
C11 C12 1_555 1_555
C12 C13 1_555 1_555
C13 C14 1_555 1_555
C14 C15 1_555 1_555
C15 C16 1_555 1_555
C16 C11 1_555 1_555
C17 C8 1_555 1_555
C18 C1 1_555 1_555
C19 N1 1_555 1_555
O1 C13 1_555 1_555
O2 C14 1_555 1_555
C20 O1 1_555 1_555
C21 O2 1_555 1_555
H1 C1 1_555 1_555
H2 C2 1_555 1_555
H3 C3 1_555 1_555
H4 C4 1_555 1_555
H5 C6 1_555 1_555
H6 C6 1_555 1_555
H7 C7 1_555 1_555
H8 C7 1_555 1_555
H9 C8 1_555 1_555
H10 C9 1_555 1_555
H11 C9 1_555 1_555
H12 C10 1_555 1_555
H13 C10 1_555 1_555
H14 C12 1_555 1_555
H15 C15 1_555 1_555
H16 C17 1_555 1_555
H17 C19 1_555 1_555
H18 C19 1_555 1_555
H19 C19 1_555 1_555
H20 C20 1_555 1_555
H21 C20 1_555 1_555
H22 C20 1_555 1_555
H23 C21 1_555 1_555
H24 C21 1_555 1_555
H25 C21 1_555 1_555
C5 C18 1_555 1_555
C16 C17 1_555 1_555
C17 C18 1_555 1_555

#END
