
#######################################################################
#
#                 Cambridge Crystallographic Data Centre
#                                CCDC 
#
#######################################################################
#
# If this CIF has been generated from an entry in the Cambridge 
# Structural Database, then it will include bibliographic, chemical, 
# crystal, experimental, refinement or atomic coordinate data resulting 
# from the CCDC's data processing and validation procedures.
#
#######################################################################

data_SEBRIA
_chemical_formula_moiety         'C19 H20 Cl1 N1 O1'
_chemical_name_systematic        
trans-(-)-(6aS,13bR)-11-Chloro-6,6a,7,8,9,13b-hexahydro-7-methyl-5H-benzo(d)naphth(2,1-b)azepin-12-ol
_chemical_properties_biological  'D!1$ receptor affinity activity'
_symmetry_cell_setting           orthorhombic
_symmetry_space_group_name_H-M   'P 21 21 21'
_symmetry_Int_Tables_number      19
_space_group_name_Hall           'P 2ac 2ab'
loop_
_symmetry_equiv_pos_site_id
_symmetry_equiv_pos_as_xyz
1 x,y,z
2 1/2+x,1/2-y,-z
3 -x,1/2+y,1/2-z
4 1/2-x,-y,1/2+z
_cell_length_a                   15.016(1)
_cell_length_b                   24.105(5)
_cell_length_c                   8.799(1)
_cell_angle_alpha                90
_cell_angle_beta                 90
_cell_angle_gamma                90
_cell_volume                     3184.89
_chemical_melting_point          239-241deg.C
_cell_formula_units_Z            8
loop_
_atom_site_label
_atom_site_type_symbol
_atom_site_fract_x
_atom_site_fract_y
_atom_site_fract_z
C1 C -0.2148(3) 0.05986(18) 0.5542(5)
C2 C -0.2782(3) 0.09571(20) 0.4930(6)
C3 C -0.2749(3) 0.11064(21) 0.3420(6)
C4 C -0.2076(3) 0.09004(19) 0.2514(5)
C5 C -0.1423(3) 0.05513(19) 0.3103(5)
C6 C -0.0708(4) 0.03132(23) 0.2087(5)
C7 C -0.0477(3) -0.02664(21) 0.2608(6)
C8 C -0.0097(3) -0.02526(17) 0.4218(5)
N1 N 0.0220(2) -0.08010(13) 0.4674(4)
C9 C 0.0768(3) -0.08081(17) 0.6024(5)
C10 C 0.0331(3) -0.06217(16) 0.7533(5)
C11 C 0.0290(3) 0.00090(16) 0.7619(5)
C12 C 0.0810(3) 0.02810(16) 0.8679(5)
C13 C 0.0876(3) 0.08525(16) 0.8696(4)
C14 C 0.0403(3) 0.11719(16) 0.7669(4)
C15 C -0.0155(3) 0.09024(15) 0.6656(4)
C16 C -0.0210(3) 0.03243(16) 0.6582(4)
C17 C -0.0753(3) 0.00294(15) 0.5366(4)
C18 C -0.1457(3) 0.04056(16) 0.4631(5)
C19 C -0.0443(4) -0.12451(19) 0.4661(6)
Cl1 Cl 0.15952(8) 0.11672(5) 0.99854(12)
O1 O 0.0496(2) 0.17360(11) 0.7694(3)
H1 H -0.219 0.0481 0.663
H2 H -0.327 0.1107 0.559
H3 H -0.321 0.1361 0.299
H4 H -0.206 0.1004 0.141
H5 H -0.014 0.0565 0.214
H6 H -0.094 0.0299 0.096
H7 H 0.000 -0.0437 0.187
H8 H -0.105 -0.0512 0.260
H9 H 0.047 0.0004 0.423
H10 H 0.131 -0.0546 0.582
H11 H 0.099 -0.1217 0.618
H12 H 0.071 -0.0773 0.845
H13 H -0.032 -0.0783 0.759
H14 H 0.115 0.0059 0.945
H15 H -0.053 0.1129 0.595
H16 H -0.114 -0.0285 0.587
H17 H -0.082 -0.1221 0.366
H18 H -0.012 -0.1631 0.471
H19 H -0.087 -0.1203 0.561
H20 H 0.034 0.1941 0.681
C20 C -0.1679(3) 0.39226(15) 0.3315(4)
C21 C -0.2237(3) 0.43674(16) 0.3621(5)
C22 C -0.2729(3) 0.43761(17) 0.4940(5)
C23 C -0.2656(3) 0.39516(17) 0.5970(5)
C24 C -0.2110(3) 0.34959(15) 0.5685(5)
C25 C -0.1995(3) 0.30383(18) 0.6832(5)
C26 C -0.1038(3) 0.28173(16) 0.6781(4)
C27 C -0.0861(2) 0.25706(15) 0.5219(4)
N2 N 0.0043(2) 0.23148(12) 0.5187(4)
C28 C 0.0192(3) 0.19572(17) 0.3858(5)
C29 C 0.0135(3) 0.22204(18) 0.2265(5)
C30 C -0.0805(3) 0.23174(17) 0.1742(4)
C31 C -0.1147(3) 0.20226(16) 0.0505(5)
C32 C -0.2021(3) 0.20792(16) 0.0075(5)
C33 C -0.2600(3) 0.24191(15) 0.0860(4)
C34 C -0.2270(3) 0.27256(16) 0.2069(4)
C35 C -0.1375(3) 0.26799(15) 0.2527(4)
C36 C -0.1029(3) 0.29915(15) 0.3916(4)
C37 C -0.1630(3) 0.34818(15) 0.4328(4)
C38 C 0.0786(3) 0.27137(18) 0.5374(6)
Cl2 Cl -0.24007(9) 0.16960(5) -0.14796(13)
O2 O -0.3476(2) 0.24513(12) 0.0443(4)
H21 H -0.131 0.3919 0.237
H22 H -0.228 0.4682 0.288
H23 H -0.314 0.4693 0.515
H24 H -0.300 0.3969 0.694
H25 H -0.244 0.2715 0.658
H26 H -0.213 0.3193 0.792
H27 H -0.096 0.2510 0.762
H28 H -0.059 0.3143 0.699
H29 H -0.132 0.2253 0.502
H30 H -0.028 0.1639 0.390
H31 H 0.083 0.1786 0.397
H32 H 0.045 0.1955 0.149
H33 H 0.047 0.2603 0.229
H34 H -0.075 0.1766 -0.008
H35 H -0.268 0.2984 0.263
H36 H -0.041 0.3178 0.368
H37 H 0.067 0.2965 0.633
H38 H 0.138 0.2495 0.553
H39 H 0.083 0.2964 0.440
H40 H -0.381 0.2711 0.103
loop_
_geom_bond_atom_site_label_1
_geom_bond_atom_site_label_2
_geom_bond_site_symmetry_1
_geom_bond_site_symmetry_2
C1 C2 1_555 1_555
C2 C3 1_555 1_555
C3 C4 1_555 1_555
C4 C5 1_555 1_555
C5 C6 1_555 1_555
C6 C7 1_555 1_555
C7 C8 1_555 1_555
C8 N1 1_555 1_555
N1 C9 1_555 1_555
C9 C10 1_555 1_555
C10 C11 1_555 1_555
C11 C12 1_555 1_555
C12 C13 1_555 1_555
C13 C14 1_555 1_555
C14 C15 1_555 1_555
C15 C16 1_555 1_555
C16 C11 1_555 1_555
C17 C8 1_555 1_555
C18 C1 1_555 1_555
C19 N1 1_555 1_555
Cl1 C13 1_555 1_555
O1 C14 1_555 1_555
C20 C21 1_555 1_555
C21 C22 1_555 1_555
C22 C23 1_555 1_555
C23 C24 1_555 1_555
C24 C25 1_555 1_555
C25 C26 1_555 1_555
C26 C27 1_555 1_555
C27 N2 1_555 1_555
N2 C28 1_555 1_555
C28 C29 1_555 1_555
C29 C30 1_555 1_555
C30 C31 1_555 1_555
C31 C32 1_555 1_555
C32 C33 1_555 1_555
C33 C34 1_555 1_555
C34 C35 1_555 1_555
C35 C30 1_555 1_555
C36 C27 1_555 1_555
C37 C20 1_555 1_555
C38 N2 1_555 1_555
Cl2 C32 1_555 1_555
O2 C33 1_555 1_555
H1 C1 1_555 1_555
H2 C2 1_555 1_555
H3 C3 1_555 1_555
H4 C4 1_555 1_555
H5 C6 1_555 1_555
H6 C6 1_555 1_555
H7 C7 1_555 1_555
H8 C7 1_555 1_555
H9 C8 1_555 1_555
H10 C9 1_555 1_555
H11 C9 1_555 1_555
H12 C10 1_555 1_555
H13 C10 1_555 1_555
H14 C12 1_555 1_555
H15 C15 1_555 1_555
H16 C17 1_555 1_555
H17 C19 1_555 1_555
H18 C19 1_555 1_555
H19 C19 1_555 1_555
H20 O1 1_555 1_555
H21 C20 1_555 1_555
H22 C21 1_555 1_555
H23 C22 1_555 1_555
H24 C23 1_555 1_555
H25 C25 1_555 1_555
H26 C25 1_555 1_555
H27 C26 1_555 1_555
H28 C26 1_555 1_555
H29 C27 1_555 1_555
H30 C28 1_555 1_555
H31 C28 1_555 1_555
H32 C29 1_555 1_555
H33 C29 1_555 1_555
H34 C31 1_555 1_555
H35 C34 1_555 1_555
H36 C36 1_555 1_555
H37 C38 1_555 1_555
H38 C38 1_555 1_555
H39 C38 1_555 1_555
H40 O2 1_555 1_555
C5 C18 1_555 1_555
C16 C17 1_555 1_555
C17 C18 1_555 1_555
C24 C37 1_555 1_555
C35 C36 1_555 1_555
C36 C37 1_555 1_555

#END
