
#######################################################################
#
#                 Cambridge Crystallographic Data Centre
#                                CCDC 
#
#######################################################################
#
# If this CIF has been generated from an entry in the Cambridge 
# Structural Database, then it will include bibliographic, chemical, 
# crystal, experimental, refinement or atomic coordinate data resulting 
# from the CCDC's data processing and validation procedures.
#
#######################################################################

data_SEBSIB
_chemical_name_common            
'2-(2-Hydroxybenzylidene)-1-(2-picoloyl)hydrazine hemihydrate'
_chemical_formula_moiety         'C13 H11 N3 O2,0.5(H2 O1)'
_chemical_name_systematic        
'2-Hydroxybenzaldehyde 2-pyridylcarbonylhydrazone hemihydrate'
_symmetry_cell_setting           orthorhombic
_symmetry_space_group_name_H-M   'P b c n'
_symmetry_Int_Tables_number      60
_space_group_name_Hall           '-P 2n 2ab'
loop_
_symmetry_equiv_pos_site_id
_symmetry_equiv_pos_as_xyz
1 x,y,z
2 1/2-x,1/2-y,1/2+z
3 -x,y,1/2-z
4 1/2+x,1/2-y,-z
5 -x,-y,-z
6 1/2+x,1/2+y,1/2-z
7 x,-y,1/2+z
8 1/2-x,1/2+y,z
_cell_length_a                   11.800(2)
_cell_length_b                   16.538(4)
_cell_length_c                   12.565(3)
_cell_angle_alpha                90
_cell_angle_beta                 90
_cell_angle_gamma                90
_cell_volume                     2452.04
_exptl_crystal_colour            'pale yellow'
_exptl_crystal_description       'hexagonal prism'
_cell_formula_units_Z            8
_exptl_crystal_recrystallization_method ethanol
loop_
_atom_site_label
_atom_site_type_symbol
_atom_site_fract_x
_atom_site_fract_y
_atom_site_fract_z
O1 O 0.2527(3) 0.0152(2) -0.1346(2)
H1 H 0.2000(3) 0.0381(2) -0.1046(2)
O2 O -0.0370(3) 0.1487(2) -0.0672(2)
N1 N 0.1229(3) 0.0541(2) 0.0316(3)
N2 N 0.0340(3) 0.0925(2) 0.0836(2)
H2 H 0.0264(3) 0.0867(2) 0.1513(2)
N3 N -0.1268(3) 0.1627(2) 0.2034(3)
C1 C 0.3141(4) -0.0270(3) -0.0620(4)
C2 C 0.4069(5) -0.0700(3) -0.0997(4)
H3 H 0.4249(5) -0.0684(3) -0.1717(4)
C3 C 0.4717(5) -0.1145(3) -0.0314(5)
H4 H 0.5342(5) -0.1425(3) -0.0575(5)
C4 C 0.4464(5) -0.1187(3) 0.0752(5)
H5 H 0.4905(5) -0.1499(3) 0.1207(5)
C5 C 0.3547(4) -0.0759(3) 0.1138(4)
H6 H 0.3376(4) -0.0782(3) 0.1860(4)
C6 C 0.2868(4) -0.0289(3) 0.0457(3)
C7 C 0.1911(4) 0.0135(3) 0.0906(3)
H7 H 0.1786(4) 0.0113(3) 0.1636(3)
C8 C -0.0397(4) 0.1383(2) 0.0301(3)
C9 C -0.1273(4) 0.1788(2) 0.0989(3)
C10 C -0.2023(4) 0.2316(3) 0.0519(4)
H8 H -0.2002(4) 0.2409(3) -0.0210(4)
C11 C -0.2815(4) 0.2707(3) 0.1162(4)
H9 H -0.3331(4) 0.3071(3) 0.0871(4)
C12 C -0.2815(5) 0.2543(3) 0.2229(4)
H10 H -0.3334(5) 0.2792(3) 0.2680(4)
C13 C -0.2044(5) 0.2010(3) 0.2621(4)
H11 H -0.2058(5) 0.1905(3) 0.3348(4)
O3 O 0.0000 0.0509(3) -0.2500
H12 H -0.0113(58) 0.0873(42) -0.1868(44)
H12B H 0.0113(58) 0.0873(42) -0.3132(44)
loop_
_geom_bond_atom_site_label_1
_geom_bond_atom_site_label_2
_geom_bond_site_symmetry_1
_geom_bond_site_symmetry_2
O1 H1 1_555 1_555
O2 C8 1_555 1_555
N1 N2 1_555 1_555
N2 H2 1_555 1_555
N3 C9 1_555 1_555
C1 O1 1_555 1_555
C2 C1 1_555 1_555
H3 C2 1_555 1_555
C3 C2 1_555 1_555
H4 C3 1_555 1_555
C4 C3 1_555 1_555
H5 C4 1_555 1_555
C5 C4 1_555 1_555
H6 C5 1_555 1_555
C6 C1 1_555 1_555
C7 N1 1_555 1_555
H7 C7 1_555 1_555
C8 N2 1_555 1_555
C9 C8 1_555 1_555
C10 C9 1_555 1_555
H8 C10 1_555 1_555
C11 C10 1_555 1_555
H9 C11 1_555 1_555
C12 C11 1_555 1_555
H10 C12 1_555 1_555
C13 N3 1_555 1_555
H11 C13 1_555 1_555
O3 H12 1_555 1_555
H12B O3 1_555 1_555
C5 C6 1_555 1_555
C6 C7 1_555 1_555
C12 C13 1_555 1_555

#END
