
#######################################################################
#
#                 Cambridge Crystallographic Data Centre
#                                CCDC 
#
#######################################################################
#
# If this CIF has been generated from an entry in the Cambridge 
# Structural Database, then it will include bibliographic, chemical, 
# crystal, experimental, refinement or atomic coordinate data resulting 
# from the CCDC's data processing and validation procedures.
#
#######################################################################

data_SEBXUS
_chemical_formula_moiety         'C34 H56 O11'
_chemical_name_systematic        
'7-(\a-D-Glucopyranosyl)-12-deoxy-3-O-ethoxycarbonyl-cholic acid methyl ester'
_symmetry_cell_setting           monoclinic
_symmetry_space_group_name_H-M   'P 21'
_symmetry_Int_Tables_number      4
_space_group_name_Hall           'P 2yb'
loop_
_symmetry_equiv_pos_site_id
_symmetry_equiv_pos_as_xyz
1 x,y,z
2 -x,1/2+y,-z
_cell_length_a                   11.167(4)
_cell_length_b                   6.153(3)
_cell_length_c                   25.486(10)
_cell_angle_alpha                90
_cell_angle_beta                 97.93(3)
_cell_angle_gamma                90
_cell_volume                     1734.41
_exptl_crystal_colour            colorless
_cell_formula_units_Z            2
loop_
_atom_site_label
_atom_site_type_symbol
_atom_site_fract_x
_atom_site_fract_y
_atom_site_fract_z
C1 C 0.4256(3) 0.0950 0.7079(1)
C2 C 0.4269(3) -0.0866(7) 0.7483(1)
C3 C 0.4439(3) 0.0056(7) 0.8038(1)
C4 C 0.5540(3) 0.1476(6) 0.8137(1)
C5 C 0.5589(3) 0.3269(6) 0.7721(1)
C6 C 0.6755(3) 0.4596(5) 0.7847(1)
C7 C 0.7894(3) 0.3489(5) 0.7719(1)
C8 C 0.7711(2) 0.2538(5) 0.7156(1)
C9 C 0.6561(3) 0.1118(5) 0.7043(1)
C10 C 0.5397(3) 0.2380(6) 0.7148(1)
C11 C 0.6457(3) 0.0111(7) 0.6487(1)
C12 C 0.7599(3) -0.1059(6) 0.6375(1)
C13 C 0.8706(3) 0.0413(6) 0.6462(1)
C14 C 0.8812(3) 0.1240(5) 0.7038(1)
C15 C 1.0050(3) 0.2285(7) 0.7130(1)
C16 C 1.0824(3) 0.0773(8) 0.6845(1)
C17 C 0.9956(3) -0.0716(7) 0.6474(1)
C18 C 0.8585(3) 0.2290(7) 0.6063(1)
C19 C 0.5124(3) 0.4247(7) 0.6751(1)
C20 C 1.0449(3) -0.1213(7) 0.5949(1)
C21 C 0.9564(3) -0.2366(8) 0.5527(1)
C22 C 1.1609(3) -0.2543(9) 0.6073(2)
C23 C 1.2374(4) -0.2750(10) 0.5617(2)
C24 C 1.2959(3) -0.0741(10) 0.5486(1)
C25 C 1.4139(5) 0.0870(15) 0.4896(2)
C26 C 0.9234(2) 0.2362(5) 0.8487(1)
C27 C 0.9961(3) 0.0342(6) 0.8685(1)
C28 C 0.9279(2) -0.1115(5) 0.9018(1)
C29 C 0.8803(3) 0.0181(5) 0.9452(1)
C30 C 0.8046(2) 0.2057(5) 0.9205(1)
C31 C 0.7497(3) 0.3457(6) 0.9595(1)
C32 C 0.3698(3) -0.2730(7) 0.8564(1)
C33 C 0.3171(4) -0.5674(10) 0.9078(2)
C34 C 0.3824(5) -0.7357(10) 0.9428(2)
O1 O 0.8299(2) 0.1781(4) 0.8092(1)
O2 O 1.3019(3) 0.0943(8) 0.5726(1)
O3 O 1.3472(3) -0.1007(9) 0.5049(1)
O4 O 1.0297(2) -0.0771(5) 0.8242(1)
O5 O 1.0095(2) -0.2771(4) 0.9247(1)
O6 O 0.8051(2) -0.1061(4) 0.9741(1)
O7 O 0.8367(2) 0.4481(4) 0.9972(1)
O8 O 0.8801(2) 0.3428(4) 0.8923(1)
O9 O 0.4647(2) -0.1682(5) 0.8430(1)
O10 O 0.2671(2) -0.2324(7) 0.8408(1)
O11 O 0.4096(2) -0.4325(6) 0.8892(1)
H1 H 0.4174 0.0310 0.6733
H2 H 0.3571 0.1863 0.7108
H3 H 0.4921 -0.1845 0.7445
H4 H 0.3515 -0.1638 0.7422
H5 H 0.3717 0.0864 0.8070
H6 H 0.5554 0.2152 0.8477
H7 H 0.6242 0.0573 0.8140
H8 H 0.4921 0.4235 0.7741
H9 H 0.6867 0.4926 0.8219
H10 H 0.6656 0.5922 0.7647
H11 H 0.8507 0.4593 0.7745
H12 H 0.7610 0.3773 0.6924
H13 H 0.6635 -0.0069 0.7290
H14 H 0.6282 0.1251 0.6231
H15 H 0.5804 -0.0916 0.6451
H16 H 0.7485 -0.1547 0.6014
H17 H 0.7736 -0.2290 0.6607
H18 H 0.8779 0.0125 0.7299
H19 H 1.0029 0.3720 0.6981
H20 H 1.0348 0.2358 0.7501
H21 H 1.1318 0.1608 0.6639
H22 H 1.1332 -0.0095 0.7097
H23 H 0.9877 -0.2184 0.6591
H24 H 0.9327 0.3099 0.6098
H25 H 0.7937 0.3229 0.6131
H26 H 0.8416 0.1718 0.5710
H27 H 0.4396 0.4972 0.6814
H28 H 0.5023 0.3676 0.6397
H29 H 0.5783 0.5262 0.6794
H30 H 1.0596 0.0168 0.5794
H31 H 0.8882 -0.1438 0.5421
H32 H 0.9293 -0.3691 0.5671
H33 H 0.9961 -0.2691 0.5226
H34 H 1.2101 -0.1870 0.6367
H35 H 1.1390 -0.3981 0.6171
H36 H 1.1855 -0.3230 0.5307
H37 H 1.2990 -0.3819 0.5715
H38 H 1.3835 0.2163 0.5043
H39 H 1.4038 0.0983 0.4517
H40 H 1.4981 0.0703 0.5029
H41 H 0.9743 0.3370 0.8333
H42 H 1.0672 0.0789 0.8915
H43 H 0.8600 -0.1757 0.8801
H44 H 0.9496 0.0659 0.9688
H45 H 0.7386 0.1416 0.8976
H46 H 0.6990 0.2560 0.9780
H47 H 0.7015 0.4562 0.9402
H48 H 0.2669 -0.4613 0.9274
H49 H 0.2681 -0.6349 0.8784
H50 H 0.4483 -0.7923 0.9264
H51 H 0.3277 -0.8514 0.9482
H52 H 0.4132 -0.6717 0.9763
H53 H 1.1157 -0.1506 0.8366
H54 H 0.9732 -0.4088 0.9238
H55 H 0.8317 -0.2674 0.9867
H56 H 0.8810 0.3469 1.0218
loop_
_geom_bond_atom_site_label_1
_geom_bond_atom_site_label_2
_geom_bond_site_symmetry_1
_geom_bond_site_symmetry_2
C1 C2 1_555 1_555
C2 C3 1_555 1_555
C3 C4 1_555 1_555
C4 C5 1_555 1_555
C5 C6 1_555 1_555
C6 C7 1_555 1_555
C7 C8 1_555 1_555
C8 C9 1_555 1_555
C9 C10 1_555 1_555
C10 C1 1_555 1_555
C11 C9 1_555 1_555
C12 C11 1_555 1_555
C13 C12 1_555 1_555
C14 C8 1_555 1_555
C15 C14 1_555 1_555
C16 C15 1_555 1_555
C17 C13 1_555 1_555
C18 C13 1_555 1_555
C19 C10 1_555 1_555
C20 C17 1_555 1_555
C21 C20 1_555 1_555
C22 C20 1_555 1_555
C23 C22 1_555 1_555
C24 C23 1_555 1_555
C25 O3 1_555 1_555
C26 C27 1_555 1_555
C27 C28 1_555 1_555
C28 C29 1_555 1_555
C29 C30 1_555 1_555
C30 C31 1_555 1_555
C31 O7 1_555 1_555
C32 O9 1_555 1_555
C33 C34 1_555 1_555
C34 H50 1_555 1_555
O1 C7 1_555 1_555
O2 C24 1_555 1_555
O3 C24 1_555 1_555
O4 C27 1_555 1_555
O5 C28 1_555 1_555
O6 C29 1_555 1_555
O7 H56 1_555 1_555
O8 C26 1_555 1_555
O9 C3 1_555 1_555
O10 C32 1_555 1_555
O11 C32 1_555 1_555
H1 C1 1_555 1_555
H2 C1 1_555 1_555
H3 C2 1_555 1_555
H4 C2 1_555 1_555
H5 C3 1_555 1_555
H6 C4 1_555 1_555
H7 C4 1_555 1_555
H8 C5 1_555 1_555
H9 C6 1_555 1_555
H10 C6 1_555 1_555
H11 C7 1_555 1_555
H12 C8 1_555 1_555
H13 C9 1_555 1_555
H14 C11 1_555 1_555
H15 C11 1_555 1_555
H16 C12 1_555 1_555
H17 C12 1_555 1_555
H18 C14 1_555 1_555
H19 C15 1_555 1_555
H20 C15 1_555 1_555
H21 C16 1_555 1_555
H22 C16 1_555 1_555
H23 C17 1_555 1_555
H24 C18 1_555 1_555
H25 C18 1_555 1_555
H26 C18 1_555 1_555
H27 C19 1_555 1_555
H28 C19 1_555 1_555
H29 C19 1_555 1_555
H30 C20 1_555 1_555
H31 C21 1_555 1_555
H32 C21 1_555 1_555
H33 C21 1_555 1_555
H34 C22 1_555 1_555
H35 C22 1_555 1_555
H36 C23 1_555 1_555
H37 C23 1_555 1_555
H38 C25 1_555 1_555
H39 C25 1_555 1_555
H40 C25 1_555 1_555
H41 C26 1_555 1_555
H42 C27 1_555 1_555
H43 C28 1_555 1_555
H44 C29 1_555 1_555
H45 C30 1_555 1_555
H46 C31 1_555 1_555
H47 C31 1_555 1_555
H48 C33 1_555 1_555
H49 C33 1_555 1_555
H51 C34 1_555 1_555
H52 C34 1_555 1_555
H53 O4 1_555 1_555
H54 O5 1_555 1_555
H55 O6 1_555 1_555
C5 C10 1_555 1_555
C13 C14 1_555 1_555
C16 C17 1_555 1_555
C26 O1 1_555 1_555
C30 O8 1_555 1_555
C33 O11 1_555 1_555

#END
