
#######################################################################
#
#                 Cambridge Crystallographic Data Centre
#                                CCDC 
#
#######################################################################
#
# If this CIF has been generated from an entry in the Cambridge 
# Structural Database, then it will include bibliographic, chemical, 
# crystal, experimental, refinement or atomic coordinate data resulting 
# from the CCDC's data processing and validation procedures.
#
#######################################################################

data_SECALA
_chemical_name_common            
"6,6',7,7'-Tetrahydro-1,1',5beta,5'beta,8,8'-hexahydroxy-6alpha,6'alpha-dimethyl-9,9'-dioxo-(2,2'-bixanthene)-10abeta,10'abeta-(5H,5'H)-dicarboxylic acid dimethyl ester acetic acid solvate"
_chemical_formula_moiety         'C32 H30 O14,2(C2 H4 O2)'
_chemical_name_systematic        'Secalonic acid A acetic acid solvate'
_symmetry_cell_setting           monoclinic
_symmetry_space_group_name_H-M   'C 2'
_symmetry_Int_Tables_number      5
_space_group_name_Hall           'C 2y'
loop_
_symmetry_equiv_pos_site_id
_symmetry_equiv_pos_as_xyz
1 x,y,z
2 1/2+x,1/2+y,z
3 -x,y,-z
4 1/2-x,1/2+y,-z
_cell_length_a                   17.561(2)
_cell_length_b                   7.185(1)
_cell_length_c                   13.891(1)
_cell_angle_alpha                90
_cell_angle_beta                 91.11(1)
_cell_angle_gamma                90
_cell_volume                     1752.38
_chemical_melting_point          208-9deg.C
_cell_formula_units_Z            2
loop_
_atom_site_label
_atom_site_type_symbol
_atom_site_fract_x
_atom_site_fract_y
_atom_site_fract_z
C1 C 0.10700 0.45390 0.00640
C2 C 0.03270 0.49880 0.03510
C3 C 0.02470 0.55550 0.13070
C4 C 0.08530 0.56840 0.19590
C5 C 0.15740 0.52160 0.16680
O1 O 0.21850 0.54250 0.23210
C6 C 0.28620 0.44420 0.21520
C7 C 0.34510 0.54480 0.28060
C8 C 0.42710 0.48870 0.26000
C9 C 0.44540 0.51260 0.15440
C10 C 0.38210 0.47210 0.08500
C11 C 0.30760 0.45300 0.11060
C12 C 0.24780 0.44060 0.03960
C13 C 0.16980 0.46370 0.07170
O2 O 0.26230 0.42220 -0.04010
O3 O 0.11840 0.40170 -0.08540
C14 C 0.27940 0.23970 0.24660
O4 O 0.33170 0.13490 0.24290
O5 O 0.21060 0.19420 0.27670
C15 C 0.20320 0.00300 0.30760
O6 O 0.33140 0.50570 0.37840
C16 C 0.48220 0.60410 0.32260
O7 O 0.40200 0.46640 -0.00650
H1 H -0.02700 0.59300 0.15100
H2 H 0.46000 0.64900 0.14200
H3 H 0.33800 0.68200 0.27300
H5 H 0.47200 0.74800 0.30900
H6 H 0.49000 0.43900 0.13700
H7 H 0.07800 0.60900 0.26000
H8 H 0.43500 0.34400 0.28200
H9 H 0.47500 0.59500 0.38900
H10 H 0.53000 0.59900 0.30300
H11 H 0.24700 -0.02300 0.35100
H12 H 0.29100 0.55100 0.39600
H14 H 0.35800 0.44200 -0.04000
H15 H 0.14800 -0.01600 0.32300
H16 H 0.21200 -0.08000 0.25500
C2B C -0.03270 0.49880 -0.03510
C1B C -0.10700 0.45390 -0.00640
C3B C -0.02470 0.55550 -0.13070
C13B C -0.16980 0.46370 -0.07170
O3B O -0.11840 0.40170 0.08540
C4B C -0.08530 0.56840 -0.19590
H1B H 0.02700 0.59300 -0.15100
C5B C -0.15740 0.52160 -0.16680
C12B C -0.24780 0.44060 -0.03960
H7B H -0.07800 0.60900 -0.26000
O1B O -0.21850 0.54250 -0.23210
C11B C -0.30760 0.45300 -0.11060
O2B O -0.26230 0.42220 0.04010
C6B C -0.28620 0.44420 -0.21520
C10B C -0.38210 0.47210 -0.08500
C7B C -0.34510 0.54480 -0.28060
C14B C -0.27940 0.23970 -0.24660
C9B C -0.44540 0.51260 -0.15440
O7B O -0.40200 0.46640 0.00650
C8B C -0.42710 0.48870 -0.26000
O6B O -0.33140 0.50570 -0.37840
H3B H -0.33800 0.68200 -0.27300
O4B O -0.33170 0.13490 -0.24290
O5B O -0.21060 0.19420 -0.27670
H2B H -0.46000 0.64900 -0.14200
H6B H -0.49000 0.43900 -0.13700
H14B H -0.35800 0.44200 0.04000
C16B C -0.48220 0.60410 -0.32260
H8B H -0.43500 0.34400 -0.28200
H12B H -0.29100 0.55100 -0.39600
C15B C -0.20320 0.00300 -0.30760
H5B H -0.47200 0.74800 -0.30900
H9B H -0.47500 0.59500 -0.38900
H10B H -0.53000 0.59900 -0.30300
H11B H -0.24700 -0.02300 -0.35100
H15B H -0.14800 -0.01600 -0.32300
H16B H -0.21200 -0.08000 -0.25500
C17 C 0.11830 0.42300 0.45900
C18 C 0.14890 0.60830 0.48740
O8 O 0.21120 0.66510 0.46720
O9 O 0.10150 0.70970 0.53730
H4 H 0.05900 0.46400 0.43800
H13 H 0.12400 0.34800 0.50600
H17 H 0.12400 0.80500 0.55700
loop_
_geom_bond_atom_site_label_1
_geom_bond_atom_site_label_2
_geom_bond_site_symmetry_1
_geom_bond_site_symmetry_2
C1 C2 1_555 1_555
C2 C3 1_555 1_555
C3 C4 1_555 1_555
C4 C5 1_555 1_555
C5 O1 1_555 1_555
O1 C6 1_555 1_555
C6 C7 1_555 1_555
C7 C8 1_555 1_555
C8 C9 1_555 1_555
C9 C10 1_555 1_555
C10 C11 1_555 1_555
C11 C6 1_555 1_555
C12 C11 1_555 1_555
C13 C1 1_555 1_555
O2 C12 1_555 1_555
O3 C1 1_555 1_555
C14 C6 1_555 1_555
O4 C14 1_555 1_555
O5 C14 1_555 1_555
C15 O5 1_555 1_555
O6 C7 1_555 1_555
C16 C8 1_555 1_555
O7 C10 1_555 1_555
C17 C18 1_555 1_555
C18 O8 1_555 1_555
O9 C18 1_555 1_555
H1 C3 1_555 1_555
H2 C9 1_555 1_555
H3 C7 1_555 1_555
H4 C17 1_555 1_555
H5 C16 1_555 1_555
H6 C9 1_555 1_555
H7 C4 1_555 1_555
H8 C8 1_555 1_555
H9 C16 1_555 1_555
H10 C16 1_555 1_555
H11 C15 1_555 1_555
H12 O6 1_555 1_555
H13 C17 1_555 1_555
H14 O7 1_555 1_555
H15 C15 1_555 1_555
H16 C15 1_555 1_555
H17 O9 1_555 1_555
C2B C2 1_555 1_555
C1B C2B 1_555 1_555
C3B C2B 1_555 1_555
C13B C1B 1_555 1_555
O3B C1B 1_555 1_555
C4B C3B 1_555 1_555
H1B C3B 1_555 1_555
C5B C13B 1_555 1_555
C12B C13B 1_555 1_555
H7B C4B 1_555 1_555
O1B C5B 1_555 1_555
C11B C12B 1_555 1_555
O2B C12B 1_555 1_555
C6B O1B 1_555 1_555
C10B C11B 1_555 1_555
C7B C6B 1_555 1_555
C14B C6B 1_555 1_555
C9B C10B 1_555 1_555
O7B C10B 1_555 1_555
C8B C7B 1_555 1_555
O6B C7B 1_555 1_555
H3B C7B 1_555 1_555
O4B C14B 1_555 1_555
O5B C14B 1_555 1_555
H2B C9B 1_555 1_555
H6B C9B 1_555 1_555
H14B O7B 1_555 1_555
C16B C8B 1_555 1_555
H8B C8B 1_555 1_555
H12B O6B 1_555 1_555
C15B O5B 1_555 1_555
H5B C16B 1_555 1_555
H9B C16B 1_555 1_555
H10B C16B 1_555 1_555
H11B C15B 1_555 1_555
H15B C15B 1_555 1_555
H16B C15B 1_555 1_555
C5 C13 1_555 1_555
C12 C13 1_555 1_555
C4B C5B 1_555 1_555
C11B C6B 1_555 1_555
C9B C8B 1_555 1_555

#END
