
#######################################################################
#
#                 Cambridge Crystallographic Data Centre
#                                CCDC 
#
#######################################################################
#
# If this CIF has been generated from an entry in the Cambridge 
# Structural Database, then it will include bibliographic, chemical, 
# crystal, experimental, refinement or atomic coordinate data resulting 
# from the CCDC's data processing and validation procedures.
#
#######################################################################

data_SECAZC04
_chemical_formula_moiety         'C1 H6 N3 O1 1+,Cl1 1-'
_chemical_name_systematic        'Semicarbazide hydrochloride'
_symmetry_cell_setting           orthorhombic
_symmetry_space_group_name_H-M   'P 21 21 21'
_symmetry_Int_Tables_number      19
_space_group_name_Hall           'P 2ac 2ab'
loop_
_symmetry_equiv_pos_site_id
_symmetry_equiv_pos_as_xyz
1 x,y,z
2 1/2-x,-y,1/2+z
3 -x,1/2+y,1/2-z
4 1/2+x,1/2-y,-z
_cell_length_a                   4.672(1)
_cell_length_b                   7.547(1)
_cell_length_c                   13.209(2)
_cell_angle_alpha                90
_cell_angle_beta                 90
_cell_angle_gamma                90
_cell_volume                     465.744
_cell_formula_units_Z            4
loop_
_atom_site_label
_atom_site_type_symbol
_atom_site_fract_x
_atom_site_fract_y
_atom_site_fract_z
Cl1 Cl 0.53549(8) 0.74571(6) 0.85994(3)
O1 O -0.3217(2) 0.24307(19) 0.91268(8)
N1 N 0.0423(3) 0.50898(19) 0.93432(12)
N2 N 0.1031(3) 0.36668(18) 0.86702(12)
N3 N 0.0209(4) 0.0726(2) 0.83946(14)
C1 C -0.0817(3) 0.2247(2) 0.87544(11)
H1 H 0.224(7) 0.600(4) 0.920(2)
H2 H 0.029(5) 0.473(3) 1.0001(16)
H3 H -0.135(6) 0.555(3) 0.9205(18)
H4 H 0.301(5) 0.346(3) 0.8671(16)
H5 H -0.087(5) -0.015(3) 0.8356(15)
H6 H 0.191(5) 0.072(3) 0.8078(19)
loop_
_geom_bond_atom_site_label_1
_geom_bond_atom_site_label_2
_geom_bond_site_symmetry_1
_geom_bond_site_symmetry_2
O1 C1 1_555 1_555
N1 N2 1_555 1_555
N2 C1 1_555 1_555
N3 C1 1_555 1_555
H1 N1 1_555 1_555
H2 N1 1_555 1_555
H3 N1 1_555 1_555
H4 N2 1_555 1_555
H5 N3 1_555 1_555
H6 N3 1_555 1_555

#END
