
#######################################################################
#
#                 Cambridge Crystallographic Data Centre
#                                CCDC 
#
#######################################################################
#
# If this CIF has been generated from an entry in the Cambridge 
# Structural Database, then it will include bibliographic, chemical, 
# crystal, experimental, refinement or atomic coordinate data resulting 
# from the CCDC's data processing and validation procedures.
#
#######################################################################

data_SECCIM
_chemical_formula_moiety         'C20 H30 O5'
_chemical_name_systematic        
3,4,4a,5a,8,8a,9a,10,11,12,13a,14,14a,15a,16,16a-Hexadecahydro-8a-methyl-2H-tetrapyrano(3,2-b:3,2-b:3',2'-b:2',3'-g)oxocine
_symmetry_cell_setting           orthorhombic
_symmetry_space_group_name_H-M   'P 21 21 21'
_symmetry_Int_Tables_number      19
_space_group_name_Hall           'P 2ac 2ab'
loop_
_symmetry_equiv_pos_site_id
_symmetry_equiv_pos_as_xyz
1 x,y,z
2 1/2+x,1/2-y,-z
3 -x,1/2+y,1/2-z
4 1/2-x,-y,1/2+z
_cell_length_a                   11.712(1)
_cell_length_b                   12.550(1)
_cell_length_c                   12.573(1)
_cell_angle_alpha                90
_cell_angle_beta                 90
_cell_angle_gamma                90
_cell_volume                     1848.05
_exptl_crystal_colour            colorless
_chemical_melting_point          209-210deg.C
_cell_formula_units_Z            4
loop_
_atom_site_label
_atom_site_type_symbol
_atom_site_fract_x
_atom_site_fract_y
_atom_site_fract_z
C1 C 0.2817(4) 0.8043(4) 1.1119(3)
C2 C 0.2637(4) 0.6870(4) 1.1277(3)
C3 C 0.2613(4) 0.6310(3) 1.0211(3)
C4 C 0.1782(3) 0.6837(3) 0.9483(3)
C5 C 0.2053(3) 0.8011(3) 0.9391(3)
C6 C 0.1218(3) 0.8545(3) 0.8658(3)
C7 C 0.1209(3) 0.7986(3) 0.7576(3)
C8 C 0.1028(3) 0.6767(3) 0.7710(3)
C9 C 0.1198(3) 0.6144(3) 0.6715(3)
C10 C 0.0481(3) 0.6077(3) 0.5899(3)
C11 C -0.0641(3) 0.6608(3) 0.5827(3)
C12 C -0.0635(3) 0.7767(3) 0.5410(3)
C13 C 0.0391(3) 0.8386(3) 0.5856(2)
C14 C 0.0494(4) 0.9498(3) 0.5382(3)
C15 C 0.0579(3) 0.9372(3) 0.4183(3)
C16 C -0.0404(3) 0.8707(3) 0.3753(3)
C17 C -0.0275(4) 0.8534(3) 0.2572(3)
C18 C -0.0159(4) 0.9636(4) 0.2026(4)
C19 C 0.0749(5) 1.0306(4) 0.2556(4)
C20 C -0.1779(4) 0.8275(4) 0.5689(3)
O1 O 0.1988(2) 0.8507(2) 1.0411(2)
O2 O 0.1843(2) 0.6361(2) 0.8457(2)
O3 O 0.0285(2) 0.8450(2) 0.6995(2)
O4 O -0.0464(2) 0.7698(2) 0.4275(2)
O5 O 0.0559(3) 1.0394(2) 0.3686(2)
H1 H 0.1030 0.6753 0.9758
H2 H 0.2801 0.8073 0.9112
H3 H 0.1912 0.8083 0.7209
H4 H 0.0257 0.6678 0.7934
H5 H 0.1070 0.8014 0.5666
H6 H 0.1277 0.9004 0.4024
H7 H -0.1099 0.9093 0.3888
H8 H 0.2766 0.8386 1.1784
H9 H 0.3555 0.8144 1.0823
H10 H 0.3239 0.6603 1.1702
H11 H 0.1929 0.6770 1.1631
H12 H 0.3358 0.6322 0.9909
H13 H 0.2396 0.5582 1.0324
H14 H 0.0474 0.8515 0.8967
H15 H 0.1433 0.9272 0.8575
H16 H 0.1897 0.5755 0.6666
H17 H 0.0721 0.5655 0.5305
H18 H -0.1114 0.6192 0.5356
H19 H -0.0979 0.6602 0.6514
H20 H -0.0168 0.9904 0.5558
H21 H 0.1150 0.9844 0.5653
H22 H 0.0386 0.8121 0.2427
H23 H -0.0928 0.8181 0.2287
H24 H 0.0023 0.9536 0.1304
H25 H -0.0859 1.0004 0.2097
H26 H 0.1483 0.9963 0.2422
H27 H 0.0768 1.0984 0.2218
H28 H -0.2391 0.7867 0.5432
H29 H -0.1819 0.8979 0.5358
H30 H -0.1845 0.8375 0.6435
loop_
_geom_bond_atom_site_label_1
_geom_bond_atom_site_label_2
_geom_bond_site_symmetry_1
_geom_bond_site_symmetry_2
C1 C2 1_555 1_555
C2 C3 1_555 1_555
C3 C4 1_555 1_555
C4 C5 1_555 1_555
C5 C6 1_555 1_555
C6 C7 1_555 1_555
C7 C8 1_555 1_555
C8 C9 1_555 1_555
C9 C10 1_555 1_555
C10 C11 1_555 1_555
C11 C12 1_555 1_555
C12 C13 1_555 1_555
C13 C14 1_555 1_555
C14 C15 1_555 1_555
C15 C16 1_555 1_555
C16 C17 1_555 1_555
C17 C18 1_555 1_555
C18 C19 1_555 1_555
C19 O5 1_555 1_555
C20 C12 1_555 1_555
O1 C1 1_555 1_555
O2 C4 1_555 1_555
O3 C7 1_555 1_555
O4 C12 1_555 1_555
O5 C15 1_555 1_555
H1 C4 1_555 1_555
H2 C5 1_555 1_555
H3 C7 1_555 1_555
H4 C8 1_555 1_555
H5 C13 1_555 1_555
H6 C15 1_555 1_555
H7 C16 1_555 1_555
H8 C1 1_555 1_555
H9 C1 1_555 1_555
H10 C2 1_555 1_555
H11 C2 1_555 1_555
H12 C3 1_555 1_555
H13 C3 1_555 1_555
H14 C6 1_555 1_555
H15 C6 1_555 1_555
H16 C9 1_555 1_555
H17 C10 1_555 1_555
H18 C11 1_555 1_555
H19 C11 1_555 1_555
H20 C14 1_555 1_555
H21 C14 1_555 1_555
H22 C17 1_555 1_555
H23 C17 1_555 1_555
H24 C18 1_555 1_555
H25 C18 1_555 1_555
H26 C19 1_555 1_555
H27 C19 1_555 1_555
H28 C20 1_555 1_555
H29 C20 1_555 1_555
H30 C20 1_555 1_555
C5 O1 1_555 1_555
C8 O2 1_555 1_555
C13 O3 1_555 1_555
C16 O4 1_555 1_555

#END
