
#######################################################################
#
#                 Cambridge Crystallographic Data Centre
#                                CCDC 
#
#######################################################################
#
# If this CIF has been generated from an entry in the Cambridge 
# Structural Database, then it will include bibliographic, chemical, 
# crystal, experimental, refinement or atomic coordinate data resulting 
# from the CCDC's data processing and validation procedures.
#
#######################################################################

data_SECDUB
_chemical_formula_moiety         'C6 H6 N1 O2 1+,C4 H3 O4 1-'
_chemical_name_systematic        '2-Carboxypyridinium maleate'
_symmetry_cell_setting           monoclinic
_symmetry_space_group_name_H-M   'P 21/c'
_symmetry_Int_Tables_number      14
_space_group_name_Hall           '-P 2ybc'
loop_
_symmetry_equiv_pos_site_id
_symmetry_equiv_pos_as_xyz
1 x,y,z
2 -x,1/2+y,1/2-z
3 -x,-y,-z
4 x,1/2-y,1/2+z
_cell_length_a                   14.6498(9)
_cell_length_b                   10.3976(8)
_cell_length_c                   6.9067(5)
_cell_angle_alpha                90
_cell_angle_beta                 100.089(3)
_cell_angle_gamma                90
_cell_volume                     1035.78
_exptl_crystal_colour            colorless
_exptl_crystal_description       block
_cell_formula_units_Z            4
loop_
_atom_site_label
_atom_site_type_symbol
_atom_site_fract_x
_atom_site_fract_y
_atom_site_fract_z
C1 C 0.57261(18) -0.0804(3) 0.3125(4)
C2 C 0.6336(2) -0.1778(3) 0.3751(5)
H1 H 0.6170 -0.2628 0.3454
C3 C 0.7201(2) -0.1492(3) 0.4825(5)
H2 H 0.7618 -0.2149 0.5261
C4 C 0.7440(2) -0.0230(3) 0.5246(5)
H3 H 0.8020 -0.0027 0.5963
C5 C 0.6817(2) 0.0725(3) 0.4599(5)
H4 H 0.6971 0.1582 0.4869
N1 N 0.59856(15) 0.0413(2) 0.3575(4)
H5 H 0.5599 0.1021 0.3187
C6 C 0.47635(19) -0.1001(3) 0.1946(4)
O1 O 0.45516(17) -0.2082(2) 0.1321(4)
O2 O 0.42766(14) 0.0007(2) 0.1721(4)
H6 H 0.3766 -0.0161 0.1075
C7 C 0.79780(19) 0.0490(3) 0.0421(4)
C8 C 0.8827(2) -0.0055(3) 0.1646(5)
H7 H 0.8762 -0.0878 0.2130
C9 C 0.9664(2) 0.0462(3) 0.2149(5)
H8 H 1.0084 -0.0061 0.2955
C10 C 1.0058(2) 0.1714(3) 0.1674(5)
O3 O 0.72935(14) -0.0300(2) 0.0195(4)
O4 O 0.79341(16) 0.1568(2) -0.0311(4)
O5 O 0.95136(17) 0.2604(2) 0.0741(4)
H9 H 0.8978 0.2340 0.0523
O6 O 1.08852(16) 0.1899(3) 0.2139(4)
loop_
_geom_bond_atom_site_label_1
_geom_bond_atom_site_label_2
_geom_bond_site_symmetry_1
_geom_bond_site_symmetry_2
C1 C2 1_555 1_555
C2 H1 1_555 1_555
C3 C2 1_555 1_555
H2 C3 1_555 1_555
C4 C3 1_555 1_555
H3 C4 1_555 1_555
C5 C4 1_555 1_555
H4 C5 1_555 1_555
N1 C1 1_555 1_555
H5 N1 1_555 1_555
C6 C1 1_555 1_555
O1 C6 1_555 1_555
O2 C6 1_555 1_555
H6 O2 1_555 1_555
C7 C8 1_555 1_555
C8 H7 1_555 1_555
C9 C8 1_555 1_555
H8 C9 1_555 1_555
C10 C9 1_555 1_555
O3 C7 1_555 1_555
O4 C7 1_555 1_555
O5 C10 1_555 1_555
H9 O5 1_555 1_555
O6 C10 1_555 1_555
C5 N1 1_555 1_555

#END
