
#######################################################################
#
#                 Cambridge Crystallographic Data Centre
#                                CCDC 
#
#######################################################################
#
# If this CIF has been generated from an entry in the Cambridge 
# Structural Database, then it will include bibliographic, chemical, 
# crystal, experimental, refinement or atomic coordinate data resulting 
# from the CCDC's data processing and validation procedures.
#
#######################################################################

data_SECGAK
_chemical_formula_moiety         'C14 H16 N2'
_chemical_name_systematic        
2,5-Dimethyl-N-(1-(1H-pyrrol-2-yl)ethylidene)aniline
_symmetry_cell_setting           monoclinic
_symmetry_space_group_name_H-M   'P 21/n'
_symmetry_Int_Tables_number      14
_space_group_name_Hall           '-P 2yn'
loop_
_symmetry_equiv_pos_site_id
_symmetry_equiv_pos_as_xyz
1 x,y,z
2 1/2-x,1/2+y,1/2-z
3 -x,-y,-z
4 1/2+x,1/2-y,1/2+z
_cell_length_a                   12.5894(17)
_cell_length_b                   7.3109(10)
_cell_length_c                   14.8425(19)
_cell_angle_alpha                90
_cell_angle_beta                 113.118(2)
_cell_angle_gamma                90
_cell_volume                     1256.4
_exptl_crystal_colour            colorless
_exptl_crystal_description       block
_cell_formula_units_Z            4
_exptl_crystal_recrystallization_method ethanol
loop_
_atom_site_label
_atom_site_type_symbol
_atom_site_fract_x
_atom_site_fract_y
_atom_site_fract_z
N1 N 0.02765(11) 0.93936(18) 0.15136(9)
H1 H -0.0111 0.9621 0.0903
N2 N 0.16704(11) 0.92217(17) 0.04350(9)
C1 C -0.01726(14) 0.9302(2) 0.22049(12)
H2 H -0.0944 0.9481 0.2098
C2 C 0.06832(16) 0.8908(2) 0.30727(13)
H3 H 0.0608 0.8759 0.3667
C3 C 0.17118(15) 0.8764(2) 0.29152(12)
H4 H 0.2441 0.8510 0.3388
C4 C 0.14446(13) 0.90679(19) 0.19355(11)
C5 C 0.21617(12) 0.90262(18) 0.13711(11)
C6 C 0.34366(13) 0.8754(3) 0.19343(12)
H5 H 0.3790 0.8420 0.1491
H6 H 0.3559 0.7799 0.2409
H7 H 0.3774 0.9870 0.2263
C7 C 0.23363(12) 0.9170(2) -0.01501(11)
C8 C 0.29383(12) 1.0713(2) -0.02269(11)
H8 H 0.2956 1.1732 0.0154
C9 C 0.35159(13) 1.0782(2) -0.08547(12)
C10 C 0.34733(15) 0.9243(2) -0.14132(12)
H9 H 0.3852 0.9247 -0.1840
C11 C 0.28748(15) 0.7705(2) -0.13432(12)
H10 H 0.2865 0.6689 -0.1723
C12 C 0.22837(14) 0.7620(2) -0.07228(11)
C13 C 0.41634(15) 1.2478(3) -0.09201(14)
H11 H 0.4961 1.2359 -0.0489
H12 H 0.3837 1.3525 -0.0733
H13 H 0.4104 1.2630 -0.1581
C14 C 0.16000(19) 0.5964(3) -0.06737(16)
H14 H 0.1561 0.5120 -0.1181
H15 H 0.0833 0.6330 -0.0762
H16 H 0.1969 0.5386 -0.0047
loop_
_geom_bond_atom_site_label_1
_geom_bond_atom_site_label_2
_geom_bond_site_symmetry_1
_geom_bond_site_symmetry_2
N1 H1 1_555 1_555
N2 C5 1_555 1_555
C1 N1 1_555 1_555
H2 C1 1_555 1_555
C2 C1 1_555 1_555
H3 C2 1_555 1_555
C3 C2 1_555 1_555
H4 C3 1_555 1_555
C4 N1 1_555 1_555
C5 C4 1_555 1_555
C6 C5 1_555 1_555
H5 C6 1_555 1_555
H6 C6 1_555 1_555
H7 C6 1_555 1_555
C7 N2 1_555 1_555
C8 C7 1_555 1_555
H8 C8 1_555 1_555
C9 C8 1_555 1_555
C10 C9 1_555 1_555
H9 C10 1_555 1_555
C11 C10 1_555 1_555
H10 C11 1_555 1_555
C12 C7 1_555 1_555
C13 C9 1_555 1_555
H11 C13 1_555 1_555
H12 C13 1_555 1_555
H13 C13 1_555 1_555
C14 C12 1_555 1_555
H14 C14 1_555 1_555
H15 C14 1_555 1_555
H16 C14 1_555 1_555
C3 C4 1_555 1_555
C11 C12 1_555 1_555

#END
