
#######################################################################
#
#                 Cambridge Crystallographic Data Centre
#                                CCDC 
#
#######################################################################
#
# If this CIF has been generated from an entry in the Cambridge 
# Structural Database, then it will include bibliographic, chemical, 
# crystal, experimental, refinement or atomic coordinate data resulting 
# from the CCDC's data processing and validation procedures.
#
#######################################################################

data_SECHOA
_chemical_compound_source        
'culture of a deep-sea sediment-derived fungus Leptosphaeria sp. SCSIO 41005'
_chemical_name_common            'Clearanol I'
_chemical_formula_moiety         'C13 H16 O5'
_chemical_name_systematic        
(3R,4S)-8-hydroxy-3-(hydroxymethyl)-6-methoxy-4,5-dimethyliso-chroman-1-one
_symmetry_cell_setting           orthorhombic
_symmetry_space_group_name_H-M   'P 21 21 21'
_symmetry_Int_Tables_number      19
_space_group_name_Hall           'P 2ac 2ab'
loop_
_symmetry_equiv_pos_site_id
_symmetry_equiv_pos_as_xyz
1 x,y,z
2 1/2-x,-y,1/2+z
3 -x,1/2+y,1/2-z
4 1/2+x,1/2-y,-z
_cell_length_a                   4.91205(6)
_cell_length_b                   13.99641(14)
_cell_length_c                   17.18834(19)
_cell_angle_alpha                90
_cell_angle_beta                 90
_cell_angle_gamma                90
_cell_volume                     1181.72
_exptl_crystal_colour            colorless
_exptl_crystal_description       block
_cell_formula_units_Z            4
_exptl_crystal_recrystallization_method methanol
loop_
_atom_site_label
_atom_site_type_symbol
_atom_site_fract_x
_atom_site_fract_y
_atom_site_fract_z
C1 C 0.1572(3) 0.59863(11) 0.22835(9)
C2 C 0.4842(3) 0.70564(11) 0.17349(9)
H1 H 0.6212 0.6550 0.1612
C3 C 0.5504(3) 0.74767(10) 0.25312(9)
H2 H 0.7474 0.7656 0.2529
C4 C 0.5122(3) 0.67128(10) 0.31481(8)
C5 C 0.6579(3) 0.67226(11) 0.38382(9)
C6 C 0.6190(4) 0.59482(11) 0.43556(9)
C7 C 0.4234(4) 0.52521(11) 0.42323(9)
H3 H 0.3961 0.4759 0.4604
C8 C 0.2674(3) 0.52820(11) 0.35583(9)
C9 C 0.3180(3) 0.59901(11) 0.29938(9)
C10 C 0.4871(4) 0.77896(12) 0.10899(9)
H4 H 0.3275 0.8216 0.1147
H5 H 0.6532 0.8186 0.1136
C11 C 0.3871(4) 0.83820(11) 0.27220(9)
H6 H 0.1937 0.8269 0.2617
H7 H 0.4520 0.8912 0.2399
H8 H 0.4113 0.8544 0.3272
C12 C 0.8548(4) 0.74985(12) 0.40695(9)
H9 H 0.8553 0.8000 0.3671
H10 H 1.0380 0.7228 0.4118
H11 H 0.7989 0.7772 0.4570
C13 C 0.7992(5) 0.50935(13) 0.54407(11)
H12 H 0.8244 0.4540 0.5099
H13 H 0.6289 0.5022 0.5732
H14 H 0.9521 0.5134 0.5806
O1 O -0.0354(3) 0.54404(8) 0.21696(7)
O2 O 0.2123(2) 0.66276(8) 0.17227(6)
O3 O 0.4808(3) 0.73561(10) 0.03383(6)
H15 H 0.328(6) 0.7407(19) 0.0141(15)
O4 O 0.7880(3) 0.59465(8) 0.49817(6)
O5 O 0.0743(3) 0.46059(8) 0.34647(7)
H16 H -0.004(6) 0.4740(18) 0.3015(16)
loop_
_geom_bond_atom_site_label_1
_geom_bond_atom_site_label_2
_geom_bond_site_symmetry_1
_geom_bond_site_symmetry_2
C1 C9 1_555 1_555
C2 H1 1_555 1_555
C3 C2 1_555 1_555
H2 C3 1_555 1_555
C4 C3 1_555 1_555
C5 C4 1_555 1_555
C6 C5 1_555 1_555
C7 C6 1_555 1_555
H3 C7 1_555 1_555
C8 C7 1_555 1_555
C9 C4 1_555 1_555
C10 C2 1_555 1_555
H4 C10 1_555 1_555
H5 C10 1_555 1_555
C11 C3 1_555 1_555
H6 C11 1_555 1_555
H7 C11 1_555 1_555
H8 C11 1_555 1_555
C12 C5 1_555 1_555
H9 C12 1_555 1_555
H10 C12 1_555 1_555
H11 C12 1_555 1_555
C13 H12 1_555 1_555
H13 C13 1_555 1_555
H14 C13 1_555 1_555
O1 C1 1_555 1_555
O2 C1 1_555 1_555
O3 C10 1_555 1_555
H15 O3 1_555 1_555
O4 C6 1_555 1_555
O5 C8 1_555 1_555
H16 O5 1_555 1_555
C2 O2 1_555 1_555
C8 C9 1_555 1_555
C13 O4 1_555 1_555

#END
