
#######################################################################
#
#                 Cambridge Crystallographic Data Centre
#                                CCDC 
#
#######################################################################
#
# If this CIF has been generated from an entry in the Cambridge 
# Structural Database, then it will include bibliographic, chemical, 
# crystal, experimental, refinement or atomic coordinate data resulting 
# from the CCDC's data processing and validation procedures.
#
#######################################################################

data_SECJOB
_chemical_formula_moiety         'C8 H10 Cl1 N3 O2 S1'
_chemical_name_systematic        
3-((2-Chloro-1,3-thiazol-5-yl)methyl)-5-methyl-1,3,5-oxadiazinan-4-one
_symmetry_cell_setting           orthorhombic
_symmetry_space_group_name_H-M   'P 21 21 21'
_symmetry_Int_Tables_number      19
_space_group_name_Hall           'P 2ac 2ab'
loop_
_symmetry_equiv_pos_site_id
_symmetry_equiv_pos_as_xyz
1 x,y,z
2 1/2-x,-y,1/2+z
3 -x,1/2+y,1/2-z
4 1/2+x,1/2-y,-z
_cell_length_a                   4.6141(2)
_cell_length_b                   11.7335(4)
_cell_length_c                   20.1460(8)
_cell_angle_alpha                90
_cell_angle_beta                 90
_cell_angle_gamma                90
_cell_volume                     1090.7
_exptl_crystal_colour            white
_exptl_crystal_description       needle
_chemical_melting_point          372K
_cell_formula_units_Z            4
loop_
_atom_site_label
_atom_site_type_symbol
_atom_site_fract_x
_atom_site_fract_y
_atom_site_fract_z
S1 S 0.29172(13) 0.85031(5) 0.83926(3)
Cl1 Cl 0.64157(15) 0.83860(6) 0.96232(3)
O1 O 0.4809(4) 1.08899(16) 0.64448(10)
C1 C 0.2262(7) 1.1021(2) 0.68003(16)
H1 H 0.0844 1.1412 0.6527
H2 H 0.2630 1.1487 0.7189
N1 N 0.1108(5) 0.99332(17) 0.70052(10)
C2 C 0.1836(6) 0.8940(2) 0.67011(12)
N2 N 0.3433(6) 0.90503(19) 0.61443(11)
C3 C 0.4364(9) 1.0158(3) 0.59173(14)
H3 H 0.6149 1.0079 0.5667
H4 H 0.2905 1.0475 0.5624
C4 C -0.0657(6) 0.9905(3) 0.76014(14)
H5 H -0.2048 0.9289 0.7564
H6 H -0.1734 1.0613 0.7634
O2 O 0.1066(5) 0.80128(15) 0.69297(10)
C5 C 0.4470(9) 0.8075(3) 0.57872(19)
H7 H 0.3872 0.7392 0.6012
H8 H 0.6547 0.8098 0.5765
H9 H 0.3684 0.8080 0.5346
C6 C 0.1052(5) 0.9747(2) 0.82176(12)
C7 C 0.4123(5) 0.9127(2) 0.91085(12)
N3 N 0.3276(6) 1.01443(19) 0.92255(12)
C8 C 0.1516(7) 1.0488(2) 0.87096(15)
H10 H 0.0683 1.1210 0.8704
loop_
_geom_bond_atom_site_label_1
_geom_bond_atom_site_label_2
_geom_bond_site_symmetry_1
_geom_bond_site_symmetry_2
S1 C6 1_555 1_555
Cl1 C7 1_555 1_555
O1 C1 1_555 1_555
C1 H1 1_555 1_555
H2 C1 1_555 1_555
N1 C1 1_555 1_555
C2 N1 1_555 1_555
N2 C2 1_555 1_555
C3 O1 1_555 1_555
H3 C3 1_555 1_555
H4 C3 1_555 1_555
C4 N1 1_555 1_555
H5 C4 1_555 1_555
H6 C4 1_555 1_555
O2 C2 1_555 1_555
C5 N2 1_555 1_555
H7 C5 1_555 1_555
H8 C5 1_555 1_555
H9 C5 1_555 1_555
C6 C4 1_555 1_555
C7 S1 1_555 1_555
N3 C7 1_555 1_555
C8 C6 1_555 1_555
H10 C8 1_555 1_555
N2 C3 1_555 1_555
N3 C8 1_555 1_555

#END
