
#######################################################################
#
#                 Cambridge Crystallographic Data Centre
#                                CCDC 
#
#######################################################################
#
# If this CIF has been generated from an entry in the Cambridge 
# Structural Database, then it will include bibliographic, chemical, 
# crystal, experimental, refinement or atomic coordinate data resulting 
# from the CCDC's data processing and validation procedures.
#
#######################################################################

data_SECNIX
_chemical_formula_moiety         'C13 H16 O3'
_chemical_name_systematic        
'(5-Methyl-3-phenyltetrahydrofuran-2-yl)acetic acid'
_symmetry_cell_setting           monoclinic
_symmetry_space_group_name_H-M   'P 21/c'
_symmetry_Int_Tables_number      14
_space_group_name_Hall           '-P 2ybc'
loop_
_symmetry_equiv_pos_site_id
_symmetry_equiv_pos_as_xyz
1 x,y,z
2 -x,1/2+y,1/2-z
3 -x,-y,-z
4 x,1/2-y,1/2+z
_cell_length_a                   13.612(4)
_cell_length_b                   7.374(2)
_cell_length_c                   12.147(3)
_cell_angle_alpha                90
_cell_angle_beta                 101.69(2)
_cell_angle_gamma                90
_cell_volume                     1193.96
_cell_formula_units_Z            4
loop_
_atom_site_label
_atom_site_type_symbol
_atom_site_fract_x
_atom_site_fract_y
_atom_site_fract_z
O1 O 0.1593(1) 0.4422(2) -0.1193(1)
C1 C 0.1778(1) 0.6098(3) -0.0601(2)
C2 C 0.2373(1) 0.5621(3) 0.0579(2)
C3 C 0.2742(2) 0.3698(3) 0.0433(2)
C4 C 0.1927(2) 0.2909(3) -0.0460(2)
C5 C 0.0826(2) 0.7119(3) -0.0604(2)
C6 C 0.0308(2) 0.7818(3) -0.1727(2)
O2 O 0.0649(1) 0.7790(3) -0.2557(1)
O3 O -0.0581(1) 0.8517(3) -0.1709(1)
C7 C 0.3175(1) 0.7002(3) 0.1028(2)
C8 C 0.4030(2) 0.7170(3) 0.0580(2)
C9 C 0.4755(2) 0.8455(4) 0.0987(2)
C10 C 0.4635(2) 0.9594(4) 0.1852(2)
C11 C 0.3785(2) 0.9461(4) 0.2281(2)
C12 C 0.3062(2) 0.8187(3) 0.1879(2)
C13 C 0.2264(2) 0.1393(4) -0.1145(3)
H1 H 0.2165 0.6917 -0.0958
H2 H 0.1981 0.5658 0.1153
H3 H 0.2814 0.3024 0.1121
H4 H 0.3371 0.3716 0.0191
H5 H 0.1423 0.2364 -0.0116
H6 H 0.0981 0.8135 -0.0105
H7 H 0.0371 0.6323 -0.0330
H8 H -0.0875 0.8950 -0.2528
H9 H 0.4120 0.6383 -0.0021
H10 H 0.5343 0.8553 0.0667
H11 H 0.5143 1.0468 0.2148
H12 H 0.3691 1.0368 0.2871
H13 H 0.2470 0.8119 0.2193
H14 H 0.2729 0.1864 -0.1570
H15 H 0.1692 0.0897 -0.1649
H16 H 0.2583 0.0458 -0.0648
loop_
_geom_bond_atom_site_label_1
_geom_bond_atom_site_label_2
_geom_bond_site_symmetry_1
_geom_bond_site_symmetry_2
O1 C1 1_555 1_555
C1 C2 1_555 1_555
C2 C3 1_555 1_555
C3 C4 1_555 1_555
C4 O1 1_555 1_555
C5 C1 1_555 1_555
C6 C5 1_555 1_555
O2 C6 1_555 1_555
O3 C6 1_555 1_555
C7 C2 1_555 1_555
C8 C7 1_555 1_555
C9 C8 1_555 1_555
C10 C9 1_555 1_555
C11 C10 1_555 1_555
C12 C7 1_555 1_555
C13 C4 1_555 1_555
H1 C1 1_555 1_555
H2 C2 1_555 1_555
H3 C3 1_555 1_555
H4 C3 1_555 1_555
H5 C4 1_555 1_555
H6 C5 1_555 1_555
H7 C5 1_555 1_555
H8 O3 1_555 1_555
H9 C8 1_555 1_555
H10 C9 1_555 1_555
H11 C10 1_555 1_555
H12 C11 1_555 1_555
H13 C12 1_555 1_555
H14 C13 1_555 1_555
H15 C13 1_555 1_555
H16 C13 1_555 1_555
C11 C12 1_555 1_555

#END
