
#######################################################################
#
#                 Cambridge Crystallographic Data Centre
#                                CCDC 
#
#######################################################################
#
# If this CIF has been generated from an entry in the Cambridge 
# Structural Database, then it will include bibliographic, chemical, 
# crystal, experimental, refinement or atomic coordinate data resulting 
# from the CCDC's data processing and validation procedures.
#
#######################################################################

data_SECNOF
_chemical_formula_moiety         'C16 H14 N2 O1 S2'
_chemical_name_systematic        
2-(1,3-Benzothiazol-2-ylsulfanyl)-N-(2-methylphenyl)acetamide
_symmetry_cell_setting           monoclinic
_symmetry_space_group_name_H-M   'P 21/n'
_symmetry_Int_Tables_number      14
_space_group_name_Hall           '-P 2yn'
loop_
_symmetry_equiv_pos_site_id
_symmetry_equiv_pos_as_xyz
1 x,y,z
2 1/2-x,1/2+y,1/2-z
3 -x,-y,-z
4 1/2+x,1/2-y,1/2+z
_cell_length_a                   4.7957(8)
_cell_length_b                   27.496(4)
_cell_length_c                   10.9906(13)
_cell_angle_alpha                90
_cell_angle_beta                 97.048(4)
_cell_angle_gamma                90
_cell_volume                     1438.3
_exptl_crystal_colour            colorless
_exptl_crystal_description       prism
_cell_formula_units_Z            4
loop_
_atom_site_label
_atom_site_type_symbol
_atom_site_fract_x
_atom_site_fract_y
_atom_site_fract_z
S1 S 0.48672(11) 0.112141(18) 0.29125(5)
S2 S 0.16105(11) 0.158557(18) 0.47479(5)
O1 O 0.1342(3) 0.09883(5) 0.03414(14)
N1 N 0.5406(4) 0.08369(6) -0.04653(15)
N2 N 0.1583(3) 0.19259(6) 0.25292(15)
C1 C 0.6969(4) 0.10401(7) -0.2868(2)
H1 H 0.7119 0.1064 -0.3747
H2 H 0.8819 0.0965 -0.2424
H3 H 0.6295 0.1350 -0.2573
C2 C 0.4933(4) 0.06418(7) -0.26509(18)
C3 C 0.3715(4) 0.03516(7) -0.36122(19)
H4 H 0.4183 0.0407 -0.4416
C4 C 0.1835(4) -0.00162(7) -0.3421(2)
H5 H 0.1010 -0.0206 -0.4092
C5 C 0.1159(4) -0.01059(7) -0.2249(2)
H6 H -0.0119 -0.0359 -0.2115
C6 C 0.2356(4) 0.01747(7) -0.12783(19)
H7 H 0.1916 0.0112 -0.0473
C7 C 0.4210(4) 0.05501(7) -0.14794(18)
C8 C 0.3912(4) 0.10278(7) 0.03867(18)
C9 C 0.5622(4) 0.13057(7) 0.14044(18)
H8 H 0.5228 0.1658 0.1296
H9 H 0.7645 0.1254 0.1346
C10 C 0.2600(4) 0.15837(7) 0.32579(18)
C11 C -0.0382(4) 0.21033(7) 0.43540(18)
C12 C -0.2001(4) 0.23768(8) 0.50696(19)
H10 H -0.2147 0.2290 0.5896
C13 C -0.3391(4) 0.27784(8) 0.4536(2)
H11 H -0.4518 0.2970 0.5004
C14 C -0.3167(4) 0.29069(8) 0.3323(2)
H12 H -0.4140 0.3185 0.2980
C15 C -0.1551(4) 0.26352(7) 0.26125(19)
H13 H -0.1412 0.2724 0.1786
C16 C -0.0131(4) 0.22287(7) 0.31355(18)
H14 H 0.710(5) 0.0869(8) -0.034(2)
loop_
_geom_bond_atom_site_label_1
_geom_bond_atom_site_label_2
_geom_bond_site_symmetry_1
_geom_bond_site_symmetry_2
S1 C9 1_555 1_555
S2 C10 1_555 1_555
O1 C8 1_555 1_555
N1 C7 1_555 1_555
N2 C10 1_555 1_555
C1 H1 1_555 1_555
H2 C1 1_555 1_555
H3 C1 1_555 1_555
C2 C1 1_555 1_555
C3 C2 1_555 1_555
H4 C3 1_555 1_555
C4 C3 1_555 1_555
H5 C4 1_555 1_555
C5 C4 1_555 1_555
H6 C5 1_555 1_555
C6 C5 1_555 1_555
H7 C6 1_555 1_555
C7 C2 1_555 1_555
C8 N1 1_555 1_555
C9 C8 1_555 1_555
H8 C9 1_555 1_555
H9 C9 1_555 1_555
C10 S1 1_555 1_555
C11 S2 1_555 1_555
C12 C11 1_555 1_555
H10 C12 1_555 1_555
C13 C12 1_555 1_555
H11 C13 1_555 1_555
C14 C13 1_555 1_555
H12 C14 1_555 1_555
C15 C14 1_555 1_555
H13 C15 1_555 1_555
C16 N2 1_555 1_555
H14 N1 1_555 1_555
C6 C7 1_555 1_555
C11 C16 1_555 1_555
C15 C16 1_555 1_555

#END
