
#######################################################################
#
#                 Cambridge Crystallographic Data Centre
#                                CCDC 
#
#######################################################################
#
# If this CIF has been generated from an entry in the Cambridge 
# Structural Database, then it will include bibliographic, chemical, 
# crystal, experimental, refinement or atomic coordinate data resulting 
# from the CCDC's data processing and validation procedures.
#
#######################################################################

data_SECNET
_chemical_formula_moiety         'C13 H16 O3'
_chemical_name_systematic        
'(5-Methyl-3-phenyltetrahydrofuran-2-yl)acetic acid'
_symmetry_cell_setting           monoclinic
_symmetry_space_group_name_H-M   'P 21'
_symmetry_Int_Tables_number      4
_space_group_name_Hall           'P 2yb'
loop_
_symmetry_equiv_pos_site_id
_symmetry_equiv_pos_as_xyz
1 x,y,z
2 -x,1/2+y,-z
_cell_length_a                   5.603(1)
_cell_length_b                   7.606(2)
_cell_length_c                   13.964(3)
_cell_angle_alpha                90
_cell_angle_beta                 99.88(2)
_cell_angle_gamma                90
_cell_volume                     586.27
_exptl_crystal_colour            colorless
_cell_formula_units_Z            2
loop_
_atom_site_label
_atom_site_type_symbol
_atom_site_fract_x
_atom_site_fract_y
_atom_site_fract_z
O1 O 0.1567(4) 0.2805 0.8451(2)
C1 C 0.2372(5) 0.1076(5) 0.8255(2)
C2 C 0.4326(5) 0.1354(5) 0.7612(2)
C3 C 0.3920(6) 0.3277(5) 0.7255(2)
C4 C 0.1628(6) 0.3855(5) 0.7608(2)
C5 C 0.3218(5) 0.0133(5) 0.9186(2)
C6 C 0.1208(5) -0.0560(5) 0.9675(2)
O2 O -0.0858(4) -0.0677(7) 0.9286(2)
O3 O 0.1947(4) -0.1181(5) 1.0546(2)
C7 C 0.4138(5) 0.0004(5) 0.6822(2)
C8 C 0.5961(5) -0.1234(5) 0.6797(2)
C9 C 0.5755(6) -0.2493(6) 0.6071(3)
C10 C 0.3785(7) -0.2557(6) 0.5360(3)
C11 C 0.1922(6) -0.1352(6) 0.5369(2)
C12 C 0.2106(5) -0.0104(5) 0.6082(2)
C13 C 0.1560(10) 0.5773(6) 0.7877(4)
H1 H 0.1121 0.0334 0.7914
H2 H 0.5956 0.1197 0.7948
H3 H 0.3709 0.3331 0.6559
H4 H 0.5265 0.4003 0.7531
H5 H 0.0265 0.3706 0.7095
H6 H 0.4199 -0.0843 0.9055
H7 H 0.4180 0.0931 0.9625
H8 H 0.0432 -0.1548 1.0804
H9 H 0.7382 -0.1213 0.7291
H10 H 0.7033 -0.3335 0.6072
H11 H 0.3674 -0.3425 0.4855
H12 H 0.0504 -0.1396 0.4874
H13 H 0.0808 0.0722 0.6076
H14 H 0.0202 0.5984 0.8197
H15 H 0.1404 0.6478 0.7299
H16 H 0.3031 0.6078 0.8305
loop_
_geom_bond_atom_site_label_1
_geom_bond_atom_site_label_2
_geom_bond_site_symmetry_1
_geom_bond_site_symmetry_2
O1 C1 1_555 1_555
C1 C2 1_555 1_555
C2 C3 1_555 1_555
C3 C4 1_555 1_555
C4 O1 1_555 1_555
C5 C1 1_555 1_555
C6 C5 1_555 1_555
O2 C6 1_555 1_555
O3 C6 1_555 1_555
C7 C2 1_555 1_555
C8 C7 1_555 1_555
C9 C8 1_555 1_555
C10 C9 1_555 1_555
C11 C10 1_555 1_555
C12 C7 1_555 1_555
C13 C4 1_555 1_555
H1 C1 1_555 1_555
H2 C2 1_555 1_555
H3 C3 1_555 1_555
H4 C3 1_555 1_555
H5 C4 1_555 1_555
H6 C5 1_555 1_555
H7 C5 1_555 1_555
H8 O3 1_555 1_555
H9 C8 1_555 1_555
H10 C9 1_555 1_555
H11 C10 1_555 1_555
H12 C11 1_555 1_555
H13 C12 1_555 1_555
H14 C13 1_555 1_555
H15 C13 1_555 1_555
H16 C13 1_555 1_555
C11 C12 1_555 1_555

#END
