
#######################################################################
#
#                 Cambridge Crystallographic Data Centre
#                                CCDC 
#
#######################################################################
#
# If this CIF has been generated from an entry in the Cambridge 
# Structural Database, then it will include bibliographic, chemical, 
# crystal, experimental, refinement or atomic coordinate data resulting 
# from the CCDC's data processing and validation procedures.
#
#######################################################################

data_SECPOF
_chemical_formula_moiety         'C11 H15 Br1 O3'
_chemical_name_systematic        
Bicyclo(4.2.0)octane-7-spiro-4'-(5'-bromomethyl-1',3'-dioxolan-2'-one)
_symmetry_cell_setting           monoclinic
_symmetry_space_group_name_H-M   'P 21/n'
_symmetry_Int_Tables_number      14
_space_group_name_Hall           '-P 2yn'
loop_
_symmetry_equiv_pos_site_id
_symmetry_equiv_pos_as_xyz
1 x,y,z
2 1/2-x,1/2+y,1/2-z
3 -x,-y,-z
4 1/2+x,1/2-y,1/2+z
_cell_length_a                   7.183(1)
_cell_length_b                   15.565(2)
_cell_length_c                   10.203(2)
_cell_angle_alpha                90
_cell_angle_beta                 93.89(1)
_cell_angle_gamma                90
_cell_volume                     1138.1
_exptl_crystal_colour            colorless
_chemical_melting_point          84-85deg.C
_cell_formula_units_Z            4
loop_
_atom_site_label
_atom_site_type_symbol
_atom_site_fract_x
_atom_site_fract_y
_atom_site_fract_z
Br1 Br 0.2047(1) 0.19006(7) 0.76058(9)
O1 O -0.0282(5) 0.1149(3) 1.0180(4)
O2 O -0.2833(6) 0.1863(4) 0.9431(5)
O3 O -0.0175(6) 0.2562(3) 0.9973(5)
C1 C 0.3919(8) 0.0983(4) 1.1946(7)
C2 C 0.4942(9) 0.0324(5) 1.2814(7)
C3 C 0.367(1) -0.0384(5) 1.3250(7)
C4 C 0.194(1) -0.0017(6) 1.3826(7)
C5 C 0.0797(9) 0.0484(5) 1.2758(7)
C6 C 0.1901(8) 0.1233(4) 1.2246(6)
C7 C 0.1556(8) 0.1379(4) 1.0751(6)
C8 C 0.3169(8) 0.0764(4) 1.0527(6)
C9 C 0.1726(9) 0.2317(4) 1.0318(8)
C10 C 0.288(1) 0.2522(6) 0.9246(9)
C11 C -0.1251(8) 0.1858(4) 0.9830(6)
H1 H 0.461(8) 0.151(4) 1.189(6)
H2 H 0.554(8) 0.065(4) 1.366(6)
H3 H 0.591(8) 0.012(4) 1.242(6)
H4 H 0.442(7) -0.066(3) 1.381(5)
H5 H 0.326(9) -0.080(4) 1.250(7)
H6 H 0.238(9) 0.034(5) 1.452(7)
H7 H 0.11(1) -0.053(5) 1.410(8)
H8 H -0.037(9) 0.071(4) 1.305(6)
H9 H 0.046(8) 0.005(4) 1.200(6)
H10 H 0.177(8) 0.174(4) 1.278(6)
H11 H 0.397(8) 0.087(4) 0.978(6)
H12 H 0.270(7) 0.018(4) 1.041(5)
H13 H 0.218(9) 0.265(4) 1.111(6)
H14 H 0.29(1) 0.323(5) 0.899(8)
H15 H 0.46(1) 0.230(7) 0.94(1)
loop_
_geom_bond_atom_site_label_1
_geom_bond_atom_site_label_2
_geom_bond_site_symmetry_1
_geom_bond_site_symmetry_2
Br1 C10 1_555 1_555
O1 C7 1_555 1_555
O2 C11 1_555 1_555
O3 C9 1_555 1_555
C1 C2 1_555 1_555
C2 C3 1_555 1_555
C3 C4 1_555 1_555
C4 C5 1_555 1_555
C5 C6 1_555 1_555
C6 C1 1_555 1_555
C7 C6 1_555 1_555
C8 C1 1_555 1_555
C9 C7 1_555 1_555
C10 C9 1_555 1_555
C11 O1 1_555 1_555
H1 C1 1_555 1_555
H2 C2 1_555 1_555
H3 C2 1_555 1_555
H4 C3 1_555 1_555
H5 C3 1_555 1_555
H6 C4 1_555 1_555
H7 C4 1_555 1_555
H8 C5 1_555 1_555
H9 C5 1_555 1_555
H10 C6 1_555 1_555
H11 C8 1_555 1_555
H12 C8 1_555 1_555
H13 C9 1_555 1_555
H14 C10 1_555 1_555
H15 C10 1_555 1_555
O3 C11 1_555 1_555
C7 C8 1_555 1_555

#END
