
#######################################################################
#
#                 Cambridge Crystallographic Data Centre
#                                CCDC 
#
#######################################################################
#
# If this CIF has been generated from an entry in the Cambridge 
# Structural Database, then it will include bibliographic, chemical, 
# crystal, experimental, refinement or atomic coordinate data resulting 
# from the CCDC's data processing and validation procedures.
#
#######################################################################

data_SECRIE
_chemical_formula_moiety         'C23 H25 Cl1 N2 O1 Si1'
_chemical_name_systematic        
(3-(3-chlorophenyl)-5-(trimethylsilyl)-4,4a,5,7a-tetrahydro-1H-cyclopenta[c]pyridazin-1-yl)(phenyl)methanone
_symmetry_cell_setting           orthorhombic
_symmetry_space_group_name_H-M   'P 21 21 21'
_symmetry_Int_Tables_number      19
_space_group_name_Hall           'P 2ac 2ab'
loop_
_symmetry_equiv_pos_site_id
_symmetry_equiv_pos_as_xyz
1 x,y,z
2 1/2-x,-y,1/2+z
3 -x,1/2+y,1/2-z
4 1/2+x,1/2-y,-z
_cell_length_a                   9.1095(9)
_cell_length_b                   13.4961(14)
_cell_length_c                   18.2345(18)
_cell_angle_alpha                90
_cell_angle_beta                 90
_cell_angle_gamma                90
_cell_volume                     2241.8
_exptl_crystal_colour            colorless
_exptl_crystal_description       block
_cell_formula_units_Z            4
loop_
_atom_site_label
_atom_site_type_symbol
_atom_site_fract_x
_atom_site_fract_y
_atom_site_fract_z
Si1 Si 1.16942(6) 0.34127(5) 0.88898(4)
N1 N 0.71965(17) 0.52576(13) 0.97956(8)
N2 N 0.62602(16) 0.55697(12) 0.92506(9)
C1 C 0.6720(2) 0.56067(14) 0.85864(10)
C2 C 0.8950(2) 0.45651(15) 0.88564(12)
H1 H 0.8596 0.3901 0.8729
C3 C 0.8644(2) 0.48019(15) 0.96671(11)
H2 H 0.8688 0.4181 0.9945
C4 C 0.8253(2) 0.53517(18) 0.83617(12)
H3 H 0.8850 0.5946 0.8375
H4 H 0.8243 0.5111 0.7861
C5 C 0.9934(2) 0.54253(17) 0.98848(14)
H5 H 0.9965 0.5830 1.0297
C6 C 1.0652(2) 0.46235(16) 0.88011(13)
H6 H 1.0917 0.4938 0.8335
C7 C 1.1010(2) 0.53224(17) 0.94169(16)
H7 H 1.1905 0.5648 0.9461
C8 C 1.1059(3) 0.2531(2) 0.81784(19)
H8 H 1.1560 0.1910 0.8237
H9 H 1.1267 0.2796 0.7701
H10 H 1.0021 0.2429 0.8228
C9 C 1.3660(3) 0.3704(2) 0.8738(2)
H11 H 1.4227 0.3106 0.8763
H12 H 1.3991 0.4157 0.9109
H13 H 1.3780 0.4001 0.8263
C10 C 1.1415(5) 0.2860(3) 0.98048(18)
H14 H 1.0383 0.2773 0.9891
H15 H 1.1816 0.3292 1.0172
H16 H 1.1899 0.2229 0.9827
C11 C 0.6643(2) 0.52242(15) 1.04956(11)
C12 C 0.5215(2) 0.57155(15) 1.06744(10)
C13 C 0.4816(2) 0.66440(16) 1.04175(11)
H17 H 0.5409 0.6971 1.0080
C14 C 0.3542(3) 0.70820(18) 1.06626(13)
H18 H 0.3277 0.7705 1.0489
C15 C 0.4328(3) 0.52529(19) 1.11843(13)
H19 H 0.4594 0.4637 1.1370
C16 C 0.2663(3) 0.6610(2) 1.11587(15)
H20 H 0.1801 0.6908 1.1320
C17 C 0.3058(3) 0.5695(2) 1.14185(15)
H21 H 0.2460 0.5373 1.1756
O1 O 0.7342(2) 0.48027(13) 1.09761(8)
C18 C 0.5642(2) 0.59926(14) 0.80504(10)
C19 C 0.4511(2) 0.66048(18) 0.82828(11)
H22 H 0.4414 0.6756 0.8778
C20 C 0.5740(2) 0.57764(17) 0.73065(11)
H23 H 0.6490 0.5370 0.7135
C21 C 0.3632(3) 0.67751(19) 0.70540(12)
H24 H 0.2964 0.7042 0.6722
C22 C 0.4732(3) 0.61608(19) 0.68230(12)
H25 H 0.4801 0.6000 0.6328
C23 C 0.3539(2) 0.69853(18) 0.77869(12)
Cl1 Cl 0.21708(10) 0.77817(9) 0.81015(5)
loop_
_geom_bond_atom_site_label_1
_geom_bond_atom_site_label_2
_geom_bond_site_symmetry_1
_geom_bond_site_symmetry_2
Si1 C6 1_555 1_555
N1 N2 1_555 1_555
N2 C1 1_555 1_555
C1 C4 1_555 1_555
C2 H1 1_555 1_555
C3 N1 1_555 1_555
H2 C3 1_555 1_555
C4 C2 1_555 1_555
H3 C4 1_555 1_555
H4 C4 1_555 1_555
C5 C3 1_555 1_555
H5 C5 1_555 1_555
C6 C2 1_555 1_555
H6 C6 1_555 1_555
C7 C5 1_555 1_555
H7 C7 1_555 1_555
C8 Si1 1_555 1_555
H8 C8 1_555 1_555
H9 C8 1_555 1_555
H10 C8 1_555 1_555
C9 Si1 1_555 1_555
H11 C9 1_555 1_555
H12 C9 1_555 1_555
H13 C9 1_555 1_555
C10 Si1 1_555 1_555
H14 C10 1_555 1_555
H15 C10 1_555 1_555
H16 C10 1_555 1_555
C11 N1 1_555 1_555
C12 C11 1_555 1_555
C13 C12 1_555 1_555
H17 C13 1_555 1_555
C14 C13 1_555 1_555
H18 C14 1_555 1_555
C15 C12 1_555 1_555
H19 C15 1_555 1_555
C16 C14 1_555 1_555
H20 C16 1_555 1_555
C17 C15 1_555 1_555
H21 C17 1_555 1_555
O1 C11 1_555 1_555
C18 C1 1_555 1_555
C19 C18 1_555 1_555
H22 C19 1_555 1_555
C20 C18 1_555 1_555
H23 C20 1_555 1_555
C21 H24 1_555 1_555
C22 C20 1_555 1_555
H25 C22 1_555 1_555
C23 C19 1_555 1_555
Cl1 C23 1_555 1_555
C2 C3 1_555 1_555
C6 C7 1_555 1_555
C16 C17 1_555 1_555
C21 C22 1_555 1_555
C21 C23 1_555 1_555

#END
