
#######################################################################
#
#                 Cambridge Crystallographic Data Centre
#                                CCDC 
#
#######################################################################
#
# If this CIF has been generated from an entry in the Cambridge 
# Structural Database, then it will include bibliographic, chemical, 
# crystal, experimental, refinement or atomic coordinate data resulting 
# from the CCDC's data processing and validation procedures.
#
#######################################################################

data_SECVIH
_chemical_compound_source        'Burkholderia thailandensis MSMB43'
_chemical_name_common            cyclo(L-prolyl-L-valyl)
_chemical_formula_moiety         'C10 H16 N2 O2'
_chemical_name_systematic        
(3S,8aS)-3-isopropylhexahydropyrrolo[1,2-a]pyrazine-1,4-dione
_symmetry_cell_setting           orthorhombic
_symmetry_space_group_name_H-M   'P 21 21 21'
_symmetry_Int_Tables_number      19
_space_group_name_Hall           'P 2ac 2ab'
loop_
_symmetry_equiv_pos_site_id
_symmetry_equiv_pos_as_xyz
1 x,y,z
2 1/2+x,1/2-y,-z
3 -x,1/2+y,1/2-z
4 1/2-x,-y,1/2+z
_cell_length_a                   5.62270(10)
_cell_length_b                   10.2571(2)
_cell_length_c                   34.2115(6)
_cell_angle_alpha                90
_cell_angle_beta                 90
_cell_angle_gamma                90
_cell_volume                     1973.07
_exptl_crystal_colour            colorless
_exptl_crystal_description       needle
_cell_formula_units_Z            8
loop_
_atom_site_label
_atom_site_type_symbol
_atom_site_fract_x
_atom_site_fract_y
_atom_site_fract_z
O1 O -0.0686(2) 0.57786(10) 0.42809(3)
O2 O 0.6845(2) 0.29334(10) 0.46538(3)
N1 N 0.1607(2) 0.39828(12) 0.41718(4)
H1 H 0.120(3) 0.3984(17) 0.3926(6)
N2 N 0.4056(2) 0.44278(12) 0.48284(4)
C1 C 0.0698(3) 0.49203(15) 0.43957(4)
C2 C 0.1570(3) 0.48683(15) 0.48164(4)
H2 H 0.0559 0.4246 0.4968
C3 C 0.1676(3) 0.61678(15) 0.50308(5)
H3 H 0.0138 0.6373 0.5157
H4 H 0.2109 0.6886 0.4851
C4 C 0.3622(3) 0.59338(16) 0.53340(4)
H5 H 0.4259 0.6767 0.5436
H6 H 0.3025 0.5404 0.5555
C5 C 0.5497(3) 0.51970(15) 0.51009(4)
H7 H 0.6562 0.5804 0.4960
H8 H 0.6463 0.4628 0.5272
C6 C 0.4837(3) 0.34091(14) 0.46205(4)
C7 C 0.2933(3) 0.28844(14) 0.43410(4)
H9 H 0.1787 0.2360 0.4500
C8 C 0.3954(3) 0.19864(15) 0.40270(4)
H10 H 0.4958 0.1321 0.4163
C9 C 0.1969(3) 0.12534(16) 0.38147(5)
H11 H 0.1029 0.1870 0.3660
H12 H 0.0940 0.0825 0.4007
H13 H 0.2668 0.0596 0.3641
C10 C 0.5556(3) 0.27055(17) 0.37385(5)
H14 H 0.4603 0.3323 0.3586
H15 H 0.6305 0.2075 0.3562
H16 H 0.6790 0.3180 0.3882
O3 O 1.0544(2) 0.43773(11) 0.33589(3)
O4 O 0.4323(2) 0.77776(12) 0.27683(3)
N3 N 0.7596(2) 0.58471(13) 0.34599(4)
H17 H 0.799(3) 0.5861(18) 0.3720(6)
N4 N 0.6766(3) 0.60603(14) 0.26780(4)
C11 C 0.8856(3) 0.50385(15) 0.32357(4)
C12 C 0.8103(3) 0.49229(16) 0.28135(4)
H18 H 0.7014 0.4155 0.2795
C13 C 1.0062(5) 0.4726(3) 0.25090(7)
H19 H 0.9797 0.3906 0.2363
H20 H 1.1637 0.4680 0.2638
C14 C 0.9952(6) 0.5904(3) 0.22307(7)
H21 H 1.0389 0.5656 0.1960
H22 H 1.1001 0.6619 0.2320
C15 C 0.7235(3) 0.62958(18) 0.22612(5)
H23 H 0.6982 0.7222 0.2191
H24 H 0.6228 0.5738 0.2093
C16 C 0.5464(3) 0.68536(16) 0.28998(5)
C17 C 0.5431(3) 0.65377(15) 0.33383(4)
H25 H 0.4041 0.5954 0.3390
C18 C 0.5085(3) 0.77939(15) 0.35758(4)
H26 H 0.3758 0.8289 0.3450
C19 C 0.4322(3) 0.75127(17) 0.39963(5)
H27 H 0.5601 0.7050 0.4133
H28 H 0.2885 0.6972 0.3995
H29 H 0.3990 0.8336 0.4131
C20 C 0.7283(3) 0.86638(17) 0.35596(5)
H30 H 0.6927 0.9504 0.3683
H31 H 0.7740 0.8805 0.3286
H32 H 0.8595 0.8241 0.3699
C21? C 1.0460(10) 0.5041(11) 0.25504(12)
C22? C 0.9032(14) 0.5445(9) 0.21869(9)
H33? H 0.7274 0.4081 0.2756
H34? H 1.1567 0.5726 0.2642
H35? H 1.1306 0.4201 0.2518
H36? H 1.0131 0.5846 0.1996
H37? H 0.8355 0.4652 0.2065
H38? H 0.7743 0.7210 0.2220
H39? H 0.5790 0.6131 0.2104
loop_
_geom_bond_atom_site_label_1
_geom_bond_atom_site_label_2
_geom_bond_site_symmetry_1
_geom_bond_site_symmetry_2
O1 C1 1_555 1_555
O2 C6 1_555 1_555
N1 H1 1_555 1_555
N2 C2 1_555 1_555
C1 N1 1_555 1_555
C2 C1 1_555 1_555
H2 C2 1_555 1_555
C3 C2 1_555 1_555
H3 C3 1_555 1_555
H4 C3 1_555 1_555
C4 C3 1_555 1_555
H5 C4 1_555 1_555
H6 C4 1_555 1_555
C5 N2 1_555 1_555
H7 C5 1_555 1_555
H8 C5 1_555 1_555
C6 N2 1_555 1_555
C7 N1 1_555 1_555
H9 C7 1_555 1_555
C8 C7 1_555 1_555
H10 C8 1_555 1_555
C9 C8 1_555 1_555
H11 C9 1_555 1_555
H12 C9 1_555 1_555
H13 C9 1_555 1_555
C10 C8 1_555 1_555
H14 C10 1_555 1_555
H15 C10 1_555 1_555
H16 C10 1_555 1_555
O3 C11 1_555 1_555
O4 C16 1_555 1_555
N3 H17 1_555 1_555
N4 C12 1_555 1_555
C11 N3 1_555 1_555
C12 C11 1_555 1_555
H18 C12 1_555 1_555
C13 C12 1_555 1_555
H19 C13 1_555 1_555
H20 C13 1_555 1_555
C14 C13 1_555 1_555
H21 C14 1_555 1_555
H22 C14 1_555 1_555
C15 N4 1_555 1_555
H23 C15 1_555 1_555
H24 C15 1_555 1_555
C16 N4 1_555 1_555
C17 N3 1_555 1_555
H25 C17 1_555 1_555
C18 C17 1_555 1_555
H26 C18 1_555 1_555
C19 C18 1_555 1_555
H27 C19 1_555 1_555
H28 C19 1_555 1_555
H29 C19 1_555 1_555
C20 C18 1_555 1_555
H30 C20 1_555 1_555
H31 C20 1_555 1_555
H32 C20 1_555 1_555
C4 C5 1_555 1_555
C6 C7 1_555 1_555
C14 C15 1_555 1_555
C16 C17 1_555 1_555

#END
