
#######################################################################
#
#                 Cambridge Crystallographic Data Centre
#                                CCDC 
#
#######################################################################
#
# If this CIF has been generated from an entry in the Cambridge 
# Structural Database, then it will include bibliographic, chemical, 
# crystal, experimental, refinement or atomic coordinate data resulting 
# from the CCDC's data processing and validation procedures.
#
#######################################################################

data_SECWEF01
_chemical_name_common            
'4-(acetoxy(5-(2-iodovinyl)-1,3,3,6-tetramethyl-2,3,3a,4,5,7a-hexahydro-1H-inden-4-yl)methyl)phenyl acetate'
_chemical_formula_moiety         'C26 H33 I1 O4'
_chemical_name_systematic        
'4-((R)-acetoxy((1S,3aS,4R,5S,7aR)-5-((Z)-2-iodovinyl)-1,3,3,6-tetramethyl-2,3,3a,4,5,7a-hexahydro-1H-inden-4-yl)methyl)phenyl acetate'
_symmetry_cell_setting           monoclinic
_symmetry_space_group_name_H-M   'P 21/c'
_symmetry_Int_Tables_number      14
_space_group_name_Hall           '-P 2ybc'
loop_
_symmetry_equiv_pos_site_id
_symmetry_equiv_pos_as_xyz
1 x,y,z
2 -x,1/2+y,1/2-z
3 -x,-y,-z
4 x,1/2-y,1/2+z
_cell_length_a                   10.8144(9)
_cell_length_b                   23.7085(18)
_cell_length_c                   10.8315(9)
_cell_angle_alpha                90
_cell_angle_beta                 115.943(3)
_cell_angle_gamma                90
_cell_volume                     2497.27
_exptl_crystal_colour            colorless
_exptl_crystal_description       plate
_cell_formula_units_Z            4
_exptl_crystal_recrystallization_method 'ethyl acetate/n-pentane'
loop_
_atom_site_label
_atom_site_type_symbol
_atom_site_fract_x
_atom_site_fract_y
_atom_site_fract_z
I1 I 0.66504(2) 0.39011(2) 0.67695(2)
O1 O 0.19394(16) 0.41587(7) 0.30810(15)
O2 O 0.0575(2) 0.49118(9) 0.2230(2)
C1 C 0.0899(2) 0.30479(9) 0.3672(2)
H1 H 0.1367 0.2964 0.3097
C2 C 0.3276(2) 0.33182(9) 0.5418(2)
H2 H 0.3744 0.3557 0.623
C3 C 0.1741(2) 0.35039(8) 0.4699(2)
H3 H 0.1427 0.3495 0.5422
C4 C 0.2212(2) 0.45398(9) 0.5296(2)
C5 C 0.1504(2) 0.41139(9) 0.4168(2)
H4 H 0.0514 0.4189 0.3767
C6 C -0.0658(2) 0.31038(10) 0.2702(2)
C7 C 0.0946(2) 0.25109(9) 0.4478(2)
H5 H 0.0473 0.2601 0.5045
C8 C 0.2371(2) 0.23473(10) 0.5443(2)
H6 H 0.2535 0.1975 0.5739
C9 C 0.3422(2) 0.27042(10) 0.5905(2)
C10 C 0.1606(2) 0.46810(10) 0.6146(2)
H7 H 0.0759 0.4526 0.5982
C11 C 0.0015(3) 0.20899(10) 0.3380(2)
H8 H -0.0486 0.1859 0.3762
C12 C 0.4037(2) 0.33744(10) 0.4542(2)
H9 H 0.3552 0.3259 0.3634
C13 C 0.1363(2) 0.45758(11) 0.2154(2)
C14 C 0.3462(2) 0.47812(10) 0.5547(3)
H10 H 0.3876 0.4694 0.4977
C15 C 0.5294(2) 0.35635(11) 0.4880(3)
H11 H 0.5606 0.3544 0.4206
C16 C -0.1007(3) 0.24797(11) 0.2256(3)
H12 H -0.1937 0.2396 0.2114
H13 H -0.0949 0.2416 0.1398
C17 C -0.1505(2) 0.33121(13) 0.3438(3)
H14 H -0.1191 0.368 0.3815
H15 H -0.1395 0.3055 0.4164
H16 H -0.2458 0.3331 0.2794
C18 C 0.2237(3) 0.50486(12) 0.7236(3)
H17 H 0.1828 0.5138 0.7808
C19 C -0.0972(3) 0.34701(12) 0.1442(2)
H18 H -0.0899 0.3861 0.1698
H19 H -0.1887 0.3393 0.0757
H20 H -0.0326 0.3387 0.1079
C20 C 0.3494(3) 0.52807(11) 0.7456(3)
C21 C 0.4110(3) 0.51496(11) 0.6627(3)
H21 H 0.4955 0.5307 0.6789
C22 C 0.0779(3) 0.17077(13) 0.2830(3)
H22 H 0.013 0.1496 0.2065
H23 H 0.1351 0.1453 0.3539
H24 H 0.1342 0.1932 0.2537
C23 C 0.4838(3) 0.25265(12) 0.6923(3)
H25 H 0.4827 0.2134 0.7139
H26 H 0.5116 0.2747 0.7745
H27 H 0.5474 0.2585 0.6536
C24 C 0.1835(3) 0.45536(15) 0.1050(3)
H28 H 0.1074 0.4457 0.0194
H29 H 0.2543 0.4274 0.1277
H30 H 0.219 0.4916 0.0968
O3 O 0.3740(4) 0.53464(16) 1.0010(3)
C25 C 0.4326(4) 0.5683(2) 0.9649(5)
O4 O 0.4247(3) 0.57167(13) 0.8372(3)
C26 C 0.5270(19) 0.6102(8) 1.055(2)
H31 H 0.617 0.5939 1.1024
H32 H 0.4955 0.6223 1.1213
H33 H 0.5309 0.642 1.0022
C27? C 0.528(3) 0.6210(16) 1.055(3)
H34? H 0.4617 0.649 1.0488
H35? H 0.6164 0.6387 1.0822
H36? H 0.5346 0.593 1.1211
O5? O 0.5202(9) 0.6117(2) 0.8357(7)
O6? O 0.3966(7) 0.5505(3) 0.8920(9)
C28? C 0.4850(8) 0.5937(4) 0.9173(10)
loop_
_geom_bond_atom_site_label_1
_geom_bond_atom_site_label_2
_geom_bond_site_symmetry_1
_geom_bond_site_symmetry_2
I1 C15 1_555 1_555
O1 C5 1_555 1_555
O2 C13 1_555 1_555
C1 H1 1_555 1_555
C2 H2 1_555 1_555
C3 C1 1_555 1_555
H3 C3 1_555 1_555
C4 C5 1_555 1_555
C5 C3 1_555 1_555
H4 C5 1_555 1_555
C6 C1 1_555 1_555
C7 C1 1_555 1_555
H5 C7 1_555 1_555
C8 C7 1_555 1_555
H6 C8 1_555 1_555
C9 C2 1_555 1_555
C10 C4 1_555 1_555
H7 C10 1_555 1_555
C11 C7 1_555 1_555
H8 C11 1_555 1_555
C12 C2 1_555 1_555
H9 C12 1_555 1_555
C13 O1 1_555 1_555
C14 C4 1_555 1_555
H10 C14 1_555 1_555
C15 C12 1_555 1_555
H11 C15 1_555 1_555
C16 C6 1_555 1_555
H12 C16 1_555 1_555
H13 C16 1_555 1_555
C17 C6 1_555 1_555
H14 C17 1_555 1_555
H15 C17 1_555 1_555
H16 C17 1_555 1_555
C18 C10 1_555 1_555
H17 C18 1_555 1_555
C19 C6 1_555 1_555
H18 C19 1_555 1_555
H19 C19 1_555 1_555
H20 C19 1_555 1_555
C20 C18 1_555 1_555
C21 C14 1_555 1_555
H21 C21 1_555 1_555
C22 C11 1_555 1_555
H22 C22 1_555 1_555
H23 C22 1_555 1_555
H24 C22 1_555 1_555
C23 C9 1_555 1_555
H25 C23 1_555 1_555
H26 C23 1_555 1_555
H27 C23 1_555 1_555
C24 C13 1_555 1_555
H28 C24 1_555 1_555
H29 C24 1_555 1_555
H30 C24 1_555 1_555
O3 C25 1_555 1_555
C25 O4 1_555 1_555
O4 C20 1_555 1_555
C26 C25 1_555 1_555
H31 C26 1_555 1_555
H32 C26 1_555 1_555
H33 C26 1_555 1_555
C2 C3 1_555 1_555
C8 C9 1_555 1_555
C11 C16 1_555 1_555
C20 C21 1_555 1_555

#END
