
#######################################################################
#
#                 Cambridge Crystallographic Data Centre
#                                CCDC 
#
#######################################################################
#
# If this CIF has been generated from an entry in the Cambridge 
# Structural Database, then it will include bibliographic, chemical, 
# crystal, experimental, refinement or atomic coordinate data resulting 
# from the CCDC's data processing and validation procedures.
#
#######################################################################

data_SECWAA
_chemical_formula_moiety         'C35 H32 F2 N3 O2 P1'
_chemical_name_systematic        
"N,N,N',N'-Tetrabenzyl-N''-(2,6-difluorobenzoyl)phosphoric triamide"
_symmetry_cell_setting           monoclinic
_symmetry_space_group_name_H-M   'P 21/c'
_symmetry_Int_Tables_number      14
_space_group_name_Hall           '-P 2ybc'
loop_
_symmetry_equiv_pos_site_id
_symmetry_equiv_pos_as_xyz
1 x,y,z
2 -x,1/2+y,1/2-z
3 -x,-y,-z
4 x,1/2-y,1/2+z
_cell_length_a                   12.3079(7)
_cell_length_b                   19.5089(12)
_cell_length_c                   13.0131(6)
_cell_angle_alpha                90
_cell_angle_beta                 105.430(3)
_cell_angle_gamma                90
_cell_volume                     3012
_exptl_crystal_colour            colorless
_exptl_crystal_description       block
_cell_formula_units_Z            4
loop_
_atom_site_label
_atom_site_type_symbol
_atom_site_fract_x
_atom_site_fract_y
_atom_site_fract_z
P1 P 0.59266(4) 0.54027(3) 0.16718(4)
F1 F 0.85267(11) 0.58682(6) -0.04221(9)
F2 F 0.78767(12) 0.36483(7) 0.05916(11)
O1 O 0.84569(11) 0.52129(7) 0.18588(11)
O2 O 0.47271(11) 0.53813(7) 0.10611(10)
N1 N 0.66497(13) 0.50969(8) 0.08388(13)
H1 H 0.6240(16) 0.4957(10) 0.0232(13)
N2 N 0.62881(13) 0.61912(8) 0.20347(12)
N3 N 0.63429(13) 0.49405(8) 0.27580(12)
C1 C 0.85840(17) 0.51846(10) -0.05653(16)
C2 C 0.90366(17) 0.49400(11) -0.13495(16)
H2 H 0.9310 0.5245 -0.1792
C3 C 0.90846(17) 0.42409(12) -0.14784(16)
H3 H 0.9400 0.4062 -0.2014
C4 C 0.86834(19) 0.37989(12) -0.08434(18)
H4 H 0.8703 0.3317 -0.0941
C5 C 0.82520(18) 0.40748(11) -0.00619(17)
C6 C 0.81866(16) 0.47654(10) 0.01110(15)
C7 C 0.77876(17) 0.50491(10) 0.10290(16)
C8 C 0.72603(16) 0.63857(10) 0.29096(15)
H5 H 0.7710 0.5970 0.3171
H6 H 0.6984 0.6567 0.3504
C9 C 0.80209(16) 0.69147(10) 0.26126(16)
C10 C 0.84585(16) 0.74433(10) 0.33157(16)
H7 H 0.8213 0.7496 0.3944
C11 C 0.92460(18) 0.78945(11) 0.31167(18)
H8 H 0.9546 0.8247 0.3614
C12 C 0.95970(18) 0.78337(11) 0.21971(18)
H9 H 1.0141 0.8141 0.2061
C13 C 0.91462(17) 0.73200(11) 0.14762(17)
H10 H 0.9376 0.7279 0.0837
C14 C 0.83644(17) 0.68657(10) 0.16778(16)
H11 H 0.8059 0.6517 0.1174
C15 C 0.55331(17) 0.67630(10) 0.15645(15)
H12 H 0.4978 0.6601 0.0912
H13 H 0.5982 0.7133 0.1356
C16 C 0.49147(17) 0.70473(10) 0.23293(15)
C17 C 0.39712(17) 0.67077(11) 0.24741(16)
H14 H 0.3712 0.6300 0.2086
C18 C 0.34077(19) 0.69638(12) 0.31862(17)
H15 H 0.2757 0.6735 0.3275
C19 C 0.3792(2) 0.75492(12) 0.37635(17)
H16 H 0.3412 0.7719 0.4258
C20 C 0.4724(2) 0.78869(12) 0.36247(17)
H17 H 0.4986 0.8290 0.4024
C21 C 0.52835(19) 0.76405(10) 0.29027(16)
H18 H 0.5920 0.7879 0.2802
C22 C 0.67520(17) 0.42326(10) 0.27705(16)
H19 H 0.7078 0.4168 0.2159
H20 H 0.6104 0.3916 0.2675
C23 C 0.76288(17) 0.40440(10) 0.37836(16)
C24 C 0.77030(18) 0.33680(11) 0.41232(16)
H21 H 0.7203 0.3035 0.3721
C25 C 0.84993(19) 0.31741(11) 0.50427(17)
H22 H 0.8552 0.2707 0.5258
C26 C 0.92163(18) 0.36505(12) 0.56484(18)
H23 H 0.9759 0.3514 0.6281
C27 C 0.91417(19) 0.43264(12) 0.53319(19)
H24 H 0.9623 0.4660 0.5754
C28 C 0.83611(18) 0.45199(11) 0.43947(18)
H25 H 0.8328 0.4984 0.4169
C29 C 0.57861(17) 0.50956(10) 0.36177(15)
H26 H 0.5423 0.5551 0.3480
H27 H 0.6370 0.5121 0.4307
C30 C 0.49109(16) 0.45744(10) 0.37099(15)
C31 C 0.38563(18) 0.45573(11) 0.29768(17)
H28 H 0.3682 0.4874 0.2402
C32 C 0.30626(18) 0.40808(11) 0.30833(18)
H29 H 0.2345 0.4073 0.2579
C33 C 0.33008(18) 0.36155(11) 0.39148(16)
H30 H 0.2748 0.3293 0.3987
C34 C 0.43417(17) 0.36235(10) 0.46344(16)
H31 H 0.4515 0.3303 0.5204
C35 C 0.51438(17) 0.41011(10) 0.45299(15)
H32 H 0.5864 0.4102 0.5030
loop_
_geom_bond_atom_site_label_1
_geom_bond_atom_site_label_2
_geom_bond_site_symmetry_1
_geom_bond_site_symmetry_2
P1 O2 1_555 1_555
F1 C1 1_555 1_555
F2 C5 1_555 1_555
O1 C7 1_555 1_555
N1 P1 1_555 1_555
H1 N1 1_555 1_555
N2 P1 1_555 1_555
N3 P1 1_555 1_555
C1 C2 1_555 1_555
C2 H2 1_555 1_555
C3 C2 1_555 1_555
H3 C3 1_555 1_555
C4 C3 1_555 1_555
H4 C4 1_555 1_555
C5 C4 1_555 1_555
C6 C1 1_555 1_555
C7 N1 1_555 1_555
C8 N2 1_555 1_555
H5 C8 1_555 1_555
H6 C8 1_555 1_555
C9 C8 1_555 1_555
C10 C9 1_555 1_555
H7 C10 1_555 1_555
C11 C10 1_555 1_555
H8 C11 1_555 1_555
C12 C11 1_555 1_555
H9 C12 1_555 1_555
C13 C12 1_555 1_555
H10 C13 1_555 1_555
C14 C9 1_555 1_555
H11 C14 1_555 1_555
C15 N2 1_555 1_555
H12 C15 1_555 1_555
H13 C15 1_555 1_555
C16 C15 1_555 1_555
C17 C16 1_555 1_555
H14 C17 1_555 1_555
C18 C17 1_555 1_555
H15 C18 1_555 1_555
C19 C18 1_555 1_555
H16 C19 1_555 1_555
C20 C19 1_555 1_555
H17 C20 1_555 1_555
C21 C16 1_555 1_555
H18 C21 1_555 1_555
C22 N3 1_555 1_555
H19 C22 1_555 1_555
H20 C22 1_555 1_555
C23 C22 1_555 1_555
C24 C23 1_555 1_555
H21 C24 1_555 1_555
C25 C24 1_555 1_555
H22 C25 1_555 1_555
C26 C25 1_555 1_555
H23 C26 1_555 1_555
C27 C26 1_555 1_555
H24 C27 1_555 1_555
C28 C23 1_555 1_555
H25 C28 1_555 1_555
C29 N3 1_555 1_555
H26 C29 1_555 1_555
H27 C29 1_555 1_555
C30 C29 1_555 1_555
C31 C30 1_555 1_555
H28 C31 1_555 1_555
C32 C31 1_555 1_555
H29 C32 1_555 1_555
C33 C32 1_555 1_555
H30 C33 1_555 1_555
C34 C33 1_555 1_555
H31 C34 1_555 1_555
C35 C30 1_555 1_555
H32 C35 1_555 1_555
C5 C6 1_555 1_555
C6 C7 1_555 1_555
C13 C14 1_555 1_555
C20 C21 1_555 1_555
C27 C28 1_555 1_555
C34 C35 1_555 1_555

#END
