
#######################################################################
#
#                 Cambridge Crystallographic Data Centre
#                                CCDC 
#
#######################################################################
#
# If this CIF has been generated from an entry in the Cambridge 
# Structural Database, then it will include bibliographic, chemical, 
# crystal, experimental, refinement or atomic coordinate data resulting 
# from the CCDC's data processing and validation procedures.
#
#######################################################################

data_SECWEF
_chemical_name_common            
'4-(acetoxy(5-(2-iodovinyl)-1,3,3,6-tetramethyl-2,3,3a,4,5,7a-hexahydro-1H-inden-4-yl)methyl)phenyl acetate'
_chemical_formula_moiety         'C26 H33 I1 O4'
_chemical_name_systematic        
'4-((S)-acetoxy((1S,3aR,4S,5R,7aS)-5-((Z)-2-iodovinyl)-1,3,3,6-tetramethyl-2,3,3a,4,5,7a-hexahydro-1H-inden-4-yl)methyl)phenyl acetate'
_symmetry_cell_setting           triclinic
_symmetry_space_group_name_H-M   'P -1'
_symmetry_Int_Tables_number      2
_space_group_name_Hall           '-P 1'
loop_
_symmetry_equiv_pos_site_id
_symmetry_equiv_pos_as_xyz
1 x,y,z
2 -x,-y,-z
_cell_length_a                   9.4014(13)
_cell_length_b                   10.4844(15)
_cell_length_c                   14.056(2)
_cell_angle_alpha                81.720(5)
_cell_angle_beta                 79.601(5)
_cell_angle_gamma                67.319(4)
_cell_volume                     1253.1
_exptl_crystal_colour            colorless
_exptl_crystal_description       plate
_cell_formula_units_Z            2
_exptl_crystal_recrystallization_method 'ethyl acetate/ n-pentane'
loop_
_atom_site_label
_atom_site_type_symbol
_atom_site_fract_x
_atom_site_fract_y
_atom_site_fract_z
I1 I 0.50671(4) 0.30088(3) 0.32816(2)
O1 O 0.5971(3) 0.7493(2) 0.31483(17)
O2 O 0.9958(3) 0.1652(3) 0.52751(19)
O3 O 0.6715(4) 0.8556(3) 0.4127(2)
O4 O 0.9115(4) 0.2447(3) 0.6738(2)
C1 C 0.7737(4) 0.6166(3) 0.1845(2)
H1 H 0.8868 0.5612 0.1668
C2 C 0.6881(4) 0.5169(3) 0.1794(2)
H2 H 0.7381 0.4292 0.2197
C3 C 0.7591(4) 0.6617(3) 0.2864(2)
H3 H 0.8244 0.7188 0.2825
C4 C 0.7315(4) 0.7338(3) 0.1028(2)
H4 H 0.6154 0.7727 0.1074
C5 C 0.8155(4) 0.5391(3) 0.3604(2)
C6 C 0.5707(5) 0.8429(4) 0.3787(3)
C7 C 0.9323(4) 0.2979(4) 0.4795(3)
C8 C 0.7942(5) 0.6701(4) 0.0054(3)
H5 H 0.9104 0.6351 -0.0016
C9 C 0.7045(4) 0.4791(4) 0.0755(3)
C10 C 0.9764(5) 0.1494(4) 0.6250(3)
C11 C 0.7844(5) 0.8589(4) 0.0882(3)
C12 C 0.9745(4) 0.4699(4) 0.3613(3)
H6 H 1.0446 0.5063 0.3205
C13 C 0.7493(5) 0.5507(4) -0.0011(3)
H7 H 0.753 0.5243 -0.0637
C14 C 0.5165(4) 0.5727(4) 0.2175(3)
H8 H 0.463 0.6683 0.2001
C15 C 0.7164(4) 0.4887(4) 0.4244(3)
H9 H 0.6071 0.5371 0.4279
C16 C 1.0336(4) 0.3492(4) 0.4203(3)
H10 H 1.1428 0.3029 0.4196
C17 C 0.7747(5) 0.3675(4) 0.4841(3)
H11 H 0.7054 0.3333 0.5278
C18 C 0.6860(6) 0.9728(4) 0.1558(3)
H12 H 0.5756 0.9891 0.158
H13 H 0.7039 1.0585 0.1316
H14 H 0.7153 0.9437 0.2212
C19 C 0.6654(6) 0.3563(5) 0.0652(3)
H15 H 0.6782 0.3423 -0.0037
H16 H 0.5574 0.3729 0.0939
H17 H 0.7351 0.2734 0.0987
C20 C 0.7406(6) 0.7973(5) -0.0679(3)
H18 H 0.6276 0.821 -0.0705
C21 C 0.9564(6) 0.8165(5) 0.0971(3)
H19 H 0.9861 0.8978 0.0813
H20 H 1.0192 0.746 0.052
H21 H 0.9743 0.7784 0.1637
C22 C 1.0494(6) 0.0008(4) 0.6600(3)
H22 H 1.1617 -0.0322 0.6381
H23 H 1.0038 -0.0542 0.6339
H24 H 1.0308 -0.009 0.7311
C23 C 0.4012(5) 0.9284(4) 0.3986(3)
H25 H 0.3795 0.9691 0.4606
H26 H 0.3407 0.8695 0.4018
H27 H 0.3722 1.0025 0.3465
C24 C 0.4298(5) 0.5083(4) 0.2715(3)
H28 H 0.3219 0.5615 0.2859
C25 C 0.7549(7) 0.9117(5) -0.0191(3)
H29 H 0.6581 0.995 -0.0201
H30 H 0.8423 0.9372 -0.0548
C26 C 0.8236(10) 0.7765(6) -0.1684(4)
H31 H 0.7876 0.8638 -0.2091
H32 H 0.8021 0.7053 -0.1948
H33 H 0.9358 0.7467 -0.1674
loop_
_geom_bond_atom_site_label_1
_geom_bond_atom_site_label_2
_geom_bond_site_symmetry_1
_geom_bond_site_symmetry_2
I1 C24 1_555 1_555
O1 C3 1_555 1_555
O2 C7 1_555 1_555
O3 C6 1_555 1_555
O4 C10 1_555 1_555
C1 H1 1_555 1_555
C2 C1 1_555 1_555
H2 C2 1_555 1_555
C3 C1 1_555 1_555
H3 C3 1_555 1_555
C4 C1 1_555 1_555
H4 C4 1_555 1_555
C5 C3 1_555 1_555
C6 O1 1_555 1_555
C7 C16 1_555 1_555
C8 C4 1_555 1_555
H5 C8 1_555 1_555
C9 C2 1_555 1_555
C10 O2 1_555 1_555
C11 C4 1_555 1_555
C12 C5 1_555 1_555
H6 C12 1_555 1_555
C13 C8 1_555 1_555
H7 C13 1_555 1_555
C14 C2 1_555 1_555
H8 C14 1_555 1_555
C15 C5 1_555 1_555
H9 C15 1_555 1_555
C16 C12 1_555 1_555
H10 C16 1_555 1_555
C17 C7 1_555 1_555
H11 C17 1_555 1_555
C18 C11 1_555 1_555
H12 C18 1_555 1_555
H13 C18 1_555 1_555
H14 C18 1_555 1_555
C19 C9 1_555 1_555
H15 C19 1_555 1_555
H16 C19 1_555 1_555
H17 C19 1_555 1_555
C20 C8 1_555 1_555
H18 C20 1_555 1_555
C21 C11 1_555 1_555
H19 C21 1_555 1_555
H20 C21 1_555 1_555
H21 C21 1_555 1_555
C22 C10 1_555 1_555
H22 C22 1_555 1_555
H23 C22 1_555 1_555
H24 C22 1_555 1_555
C23 C6 1_555 1_555
H25 C23 1_555 1_555
H26 C23 1_555 1_555
H27 C23 1_555 1_555
C24 C14 1_555 1_555
H28 C24 1_555 1_555
C25 C11 1_555 1_555
H29 C25 1_555 1_555
H30 C25 1_555 1_555
C26 C20 1_555 1_555
H31 C26 1_555 1_555
H32 C26 1_555 1_555
H33 C26 1_555 1_555
C9 C13 1_555 1_555
C15 C17 1_555 1_555
C20 C25 1_555 1_555

#END
