
#######################################################################
#
#                 Cambridge Crystallographic Data Centre
#                                CCDC 
#
#######################################################################
#
# If this CIF has been generated from an entry in the Cambridge 
# Structural Database, then it will include bibliographic, chemical, 
# crystal, experimental, refinement or atomic coordinate data resulting 
# from the CCDC's data processing and validation procedures.
#
#######################################################################

data_SECYOQ
_chemical_formula_moiety         'C10 H10 N4 O1'
_chemical_name_systematic        
2-Cyano-N'-(1-(pyridin-2-yl)ethylidene)acetohydrazide
_symmetry_cell_setting           monoclinic
_symmetry_space_group_name_H-M   'P 21/c'
_symmetry_Int_Tables_number      14
_space_group_name_Hall           '-P 2ybc'
loop_
_symmetry_equiv_pos_site_id
_symmetry_equiv_pos_as_xyz
1 x,y,z
2 -x,1/2+y,1/2-z
3 -x,-y,-z
4 x,1/2-y,1/2+z
_cell_length_a                   8.192(2)
_cell_length_b                   14.520(2)
_cell_length_c                   8.7340(17)
_cell_angle_alpha                90
_cell_angle_beta                 98.466(2)
_cell_angle_gamma                90
_cell_volume                     1027.57
_exptl_crystal_colour            colorless
_exptl_crystal_description       block
_cell_formula_units_Z            4
loop_
_atom_site_label
_atom_site_type_symbol
_atom_site_fract_x
_atom_site_fract_y
_atom_site_fract_z
N1 N 0.3684(2) 0.07074(13) 0.3032(2)
N2 N 0.6478(2) 0.10204(13) 0.0382(2)
N3 N 0.7946(2) 0.06818(13) 0.0033(2)
N4 N 0.8363(3) 0.17583(17) -0.4976(3)
O1 O 0.97937(19) 0.06914(12) -0.16256(18)
C1 C 0.4400(3) 0.11185(15) 0.1938(2)
C2 C 0.3705(3) 0.18833(17) 0.1157(3)
H1 H 0.4223 0.2167 0.0404
C3 C 0.2244(3) 0.22169(19) 0.1506(3)
H2 H 0.1764 0.2733 0.0993
C4 C 0.1494(3) 0.17926(19) 0.2605(3)
H3 H 0.0494 0.2006 0.2851
C5 C 0.2256(3) 0.10466(18) 0.3330(3)
H4 H 0.1747 0.0755 0.4082
C6 C 0.5976(3) 0.07141(15) 0.1606(2)
C7 C 0.6822(3) -0.00024(17) 0.2651(3)
H5 H 0.6830 -0.0574 0.2098
H6 H 0.6246 -0.0083 0.3522
H7 H 0.7936 0.0187 0.3006
C8 C 0.8458(3) 0.09339(15) -0.1295(3)
C9 C 0.7285(3) 0.15165(16) -0.2381(2)
H8 H 0.6215 0.1218 -0.2570
H9 H 0.7146 0.2109 -0.1904
C10 C 0.7896(3) 0.16532(16) -0.3836(3)
H10 H 0.860(2) 0.0304(13) 0.066(2)
loop_
_geom_bond_atom_site_label_1
_geom_bond_atom_site_label_2
_geom_bond_site_symmetry_1
_geom_bond_site_symmetry_2
N1 C1 1_555 1_555
N2 N3 1_555 1_555
N3 C8 1_555 1_555
N4 C10 1_555 1_555
O1 C8 1_555 1_555
C1 C2 1_555 1_555
C2 H1 1_555 1_555
C3 C2 1_555 1_555
H2 C3 1_555 1_555
C4 C3 1_555 1_555
H3 C4 1_555 1_555
C5 N1 1_555 1_555
H4 C5 1_555 1_555
C6 N2 1_555 1_555
C7 C6 1_555 1_555
H5 C7 1_555 1_555
H6 C7 1_555 1_555
H7 C7 1_555 1_555
C8 C9 1_555 1_555
C9 H8 1_555 1_555
H9 C9 1_555 1_555
C10 C9 1_555 1_555
H10 N3 1_555 1_555
C1 C6 1_555 1_555
C4 C5 1_555 1_555

#END
