
#######################################################################
#
#                 Cambridge Crystallographic Data Centre
#                                CCDC 
#
#######################################################################
#
# If this CIF has been generated from an entry in the Cambridge 
# Structural Database, then it will include bibliographic, chemical, 
# crystal, experimental, refinement or atomic coordinate data resulting 
# from the CCDC's data processing and validation procedures.
#
#######################################################################

data_SEDBUY
_chemical_formula_moiety         'C18 H18 O3'
_chemical_name_systematic        
4-Methyl-4-(2'-methoxycyclopentenyl)-2-phenylcyclopentene-3,5-dione
_symmetry_cell_setting           monoclinic
_symmetry_space_group_name_H-M   'P 21/a'
_symmetry_Int_Tables_number      14
_space_group_name_Hall           '-P 2yab'
loop_
_symmetry_equiv_pos_site_id
_symmetry_equiv_pos_as_xyz
1 x,y,z
2 1/2-x,1/2+y,-z
3 -x,-y,-z
4 1/2+x,1/2-y,z
_cell_length_a                   12.222(4)
_cell_length_b                   12.501(4)
_cell_length_c                   19.720(6)
_cell_angle_alpha                90
_cell_angle_beta                 93.06(3)
_cell_angle_gamma                90
_cell_volume                     3008.67
_chemical_melting_point          104-105deg.C
_cell_formula_units_Z            8
loop_
_atom_site_label
_atom_site_type_symbol
_atom_site_fract_x
_atom_site_fract_y
_atom_site_fract_z
O1 O 0.3754(2) 0.6234(2) -0.0123(1)
O2 O 0.2346(2) 0.3355(2) -0.1367(1)
O3 O 0.1246(2) 0.6166(2) 0.0016(1)
C1 C 0.2741(2) 0.5179(2) -0.0970(1)
C2 C 0.3216(2) 0.5448(2) -0.0265(1)
C3 C 0.3001(2) 0.4540(2) 0.0205(1)
C4 C 0.2646(2) 0.3711(2) -0.0179(1)
C5 C 0.2554(2) 0.3977(2) -0.0902(2)
C6 C 0.3529(2) 0.5463(3) -0.1522(1)
C7 C 0.1605(2) 0.5664(2) -0.1102(1)
C8 C 0.0950(2) 0.6064(2) -0.0653(1)
C9 C -0.0151(3) 0.6404(3) -0.0950(2)
C10 C -0.0077(3) 0.6163(3) -0.1698(2)
C11 C 0.1035(3) 0.5645(3) -0.1798(2)
C12 C 0.0492(3) 0.6586(3) 0.0467(1)
C13 C 0.3145(2) 0.4584(2) 0.0945(1)
C14 C 0.3259(3) 0.5552(2) 0.1284(2)
C15 C 0.3338(3) 0.5566(3) 0.1986(2)
C16 C 0.3332(3) 0.4639(3) 0.2352(2)
C17 C 0.3225(3) 0.3686(3) 0.2025(2)
C18 C 0.3142(3) 0.3657(2) 0.1331(2)
H1 H 0.2468 0.3022 -0.0001
H2 H 0.3208 0.5287 -0.1963
H3 H 0.4190 0.5059 -0.1439
H4 H 0.3694 0.6213 -0.1504
H5 H -0.0726 0.6004 -0.0754
H6 H -0.0266 0.7154 -0.0879
H7 H -0.0653 0.5676 -0.1839
H8 H -0.0149 0.6810 -0.1958
H9 H 0.1441 0.6052 -0.2112
H10 H 0.0951 0.4923 -0.1960
H11 H 0.0820 0.6606 0.0921
H12 H -0.0149 0.6142 0.0457
H13 H 0.0292 0.7297 0.0326
H14 H 0.3276 0.6205 0.1030
H15 H 0.3391 0.6237 0.2222
H16 H 0.3402 0.4660 0.2839
H17 H 0.3230 0.3031 0.2278
H18 H 0.3061 0.2984 0.1099
O4 O 0.3901(2) 0.8809(2) 0.4827(1)
O5 O 0.6514(2) 0.7405(2) 0.6383(1)
O6 O 0.3811(2) 0.6335(2) 0.4813(1)
C19 C 0.4775(2) 0.7921(2) 0.5811(1)
C20 C 0.4639(2) 0.8253(2) 0.5068(1)
C21 C 0.5610(2) 0.7872(2) 0.4699(1)
C22 C 0.6364(2) 0.7517(2) 0.5175(1)
C23 C 0.5981(2) 0.7601(3) 0.5859(1)
C24 C 0.4500(3) 0.8828(3) 0.6289(2)
C25 C 0.4159(2) 0.6904(2) 0.5947(1)
C26 C 0.3776(2) 0.6192(2) 0.5500(1)
C27 C 0.3274(3) 0.5239(3) 0.5806(2)
C28 C 0.3436(3) 0.5440(3) 0.6566(2)
C29 C 0.3972(3) 0.6535(3) 0.6655(1)
C30 C 0.3547(3) 0.5470(3) 0.4373(2)
C31 C 0.5693(2) 0.7856(2) 0.3965(1)
C32 C 0.4803(3) 0.8110(3) 0.3525(2)
C33 C 0.4895(3) 0.8037(3) 0.2825(2)
C34 C 0.5851(3) 0.7700(3) 0.2565(2)
C35 C 0.6722(3) 0.7448(3) 0.2993(2)
C36 C 0.6650(3) 0.7527(3) 0.3681(2)
H19 H 0.7074 0.7252 0.5073
H20 H 0.4913 0.9453 0.6181
H21 H 0.4674 0.8624 0.6751
H22 H 0.3731 0.8983 0.6230
H23 H 0.3631 0.4596 0.5670
H24 H 0.2507 0.5199 0.5677
H25 H 0.2750 0.5407 0.6780
H26 H 0.3924 0.4908 0.6760
H27 H 0.4650 0.6500 0.6924
H28 H 0.3477 0.7012 0.6867
H29 H 0.3601 0.5688 0.3910
H30 H 0.2810 0.5246 0.4444
H31 H 0.4041 0.4887 0.4472
H32 H 0.4133 0.8353 0.3706
H33 H 0.4277 0.8205 0.2523
H34 H 0.5904 0.7659 0.2082
H35 H 0.7390 0.7209 0.2807
H36 H 0.7268 0.7339 0.3978
loop_
_geom_bond_atom_site_label_1
_geom_bond_atom_site_label_2
_geom_bond_site_symmetry_1
_geom_bond_site_symmetry_2
O1 C2 1_555 1_555
O2 C5 1_555 1_555
O3 C8 1_555 1_555
C1 C2 1_555 1_555
C2 C3 1_555 1_555
C3 C4 1_555 1_555
C4 C5 1_555 1_555
C5 C1 1_555 1_555
C6 C1 1_555 1_555
C7 C1 1_555 1_555
C8 C7 1_555 1_555
C9 C8 1_555 1_555
C10 C9 1_555 1_555
C11 C7 1_555 1_555
C12 O3 1_555 1_555
C13 C3 1_555 1_555
C14 C13 1_555 1_555
C15 C14 1_555 1_555
C16 C15 1_555 1_555
C17 C16 1_555 1_555
C18 C13 1_555 1_555
O4 C20 1_555 1_555
O5 C23 1_555 1_555
O6 C26 1_555 1_555
C19 C20 1_555 1_555
C20 C21 1_555 1_555
C21 C22 1_555 1_555
C22 C23 1_555 1_555
C23 C19 1_555 1_555
C24 C19 1_555 1_555
C25 C19 1_555 1_555
C26 C25 1_555 1_555
C27 C26 1_555 1_555
C28 C27 1_555 1_555
C29 C25 1_555 1_555
C30 O6 1_555 1_555
C31 C21 1_555 1_555
C32 C31 1_555 1_555
C33 C32 1_555 1_555
C34 C33 1_555 1_555
C35 C34 1_555 1_555
C36 C31 1_555 1_555
H1 C4 1_555 1_555
H2 C6 1_555 1_555
H3 C6 1_555 1_555
H4 C6 1_555 1_555
H5 C9 1_555 1_555
H6 C9 1_555 1_555
H7 C10 1_555 1_555
H8 C10 1_555 1_555
H9 C11 1_555 1_555
H10 C11 1_555 1_555
H11 C12 1_555 1_555
H12 C12 1_555 1_555
H13 C12 1_555 1_555
H14 C14 1_555 1_555
H15 C15 1_555 1_555
H16 C16 1_555 1_555
H17 C17 1_555 1_555
H18 C18 1_555 1_555
H19 C22 1_555 1_555
H20 C24 1_555 1_555
H21 C24 1_555 1_555
H22 C24 1_555 1_555
H23 C27 1_555 1_555
H24 C27 1_555 1_555
H25 C28 1_555 1_555
H26 C28 1_555 1_555
H27 C29 1_555 1_555
H28 C29 1_555 1_555
H29 C30 1_555 1_555
H30 C30 1_555 1_555
H31 C30 1_555 1_555
H32 C32 1_555 1_555
H33 C33 1_555 1_555
H34 C34 1_555 1_555
H35 C35 1_555 1_555
H36 C36 1_555 1_555
C10 C11 1_555 1_555
C17 C18 1_555 1_555
C28 C29 1_555 1_555
C35 C36 1_555 1_555

#END
