
#######################################################################
#
#                 Cambridge Crystallographic Data Centre
#                                CCDC 
#
#######################################################################
#
# If this CIF has been generated from an entry in the Cambridge 
# Structural Database, then it will include bibliographic, chemical, 
# crystal, experimental, refinement or atomic coordinate data resulting 
# from the CCDC's data processing and validation procedures.
#
#######################################################################

data_SEDDIQ
_chemical_formula_moiety         'C23 H26 Cl2 N4 O4'
_chemical_name_systematic        
N-(3-(3-Chlorophenyl)-1-(((6-chloropyridin-3-yl)methyl)(ethyl)amino)-2-nitro-5-oxohex-1-en-1-yl)-N-methylacetamide
_symmetry_cell_setting           triclinic
_symmetry_space_group_name_H-M   'P -1'
_symmetry_Int_Tables_number      2
_space_group_name_Hall           '-P 1'
loop_
_symmetry_equiv_pos_site_id
_symmetry_equiv_pos_as_xyz
1 x,y,z
2 -x,-y,-z
_cell_length_a                   7.7948(13)
_cell_length_b                   12.649(2)
_cell_length_c                   13.021(2)
_cell_angle_alpha                91.364(3)
_cell_angle_beta                 98.765(2)
_cell_angle_gamma                107.878(3)
_cell_volume                     1204.16
_exptl_crystal_colour            yellow
_exptl_crystal_description       block
_cell_formula_units_Z            2
loop_
_atom_site_label
_atom_site_type_symbol
_atom_site_fract_x
_atom_site_fract_y
_atom_site_fract_z
C1 C 0.9628(4) 0.8187(2) 0.8649(3)
C2 C 0.9304(4) 0.8215(3) 0.7596(2)
H1 H 1.0030 0.8779 0.7259
C3 C 0.7857(4) 0.7376(3) 0.7052(2)
H2 H 0.7581 0.7367 0.6331
C4 C 0.6813(4) 0.6546(2) 0.7573(2)
C5 C 0.7293(4) 0.6599(3) 0.8637(2)
H3 H 0.6613 0.6036 0.8995
C6 C 0.5256(4) 0.5591(2) 0.6992(2)
H4 H 0.5205 0.5665 0.6249
H5 H 0.5492 0.4896 0.7142
C7 C 0.3021(4) 0.6592(2) 0.7287(2)
H6 H 0.4057 0.7180 0.7664
H7 H 0.1998 0.6501 0.7655
C8 C 0.2535(6) 0.6925(3) 0.6212(3)
H8 H 0.3540 0.7011 0.5843
H9 H 0.2277 0.7618 0.6258
H10 H 0.1475 0.6360 0.5846
C9 C 0.2212(3) 0.4559(2) 0.73211(18)
C10 C 0.1460(5) 0.4994(3) 0.9036(2)
H11 H 0.0962 0.5579 0.9175
H12 H 0.2771 0.5277 0.9188
H13 H 0.1029 0.4395 0.9465
C11 C -0.0970(4) 0.4176(3) 0.7564(2)
C12 C -0.1607(4) 0.3915(3) 0.6418(3)
H14 H -0.2290 0.3138 0.6283
H15 H -0.0569 0.4085 0.6066
H16 H -0.2373 0.4353 0.6169
C13 C 0.2214(3) 0.3532(2) 0.69263(19)
C14 C 0.1557(4) 0.2493(2) 0.7497(2)
H17 H 0.1153 0.2752 0.8105
C15 C 0.3084(4) 0.2029(2) 0.7966(2)
H18 H 0.2532 0.1285 0.8171
H19 H 0.3801 0.1969 0.7433
C16 C 0.4344(4) 0.2730(2) 0.8897(2)
C17 C 0.5633(6) 0.2214(3) 0.9493(3)
H20 H 0.6664 0.2789 0.9873
H21 H 0.6046 0.1792 0.9019
H22 H 0.5019 0.1731 0.9972
C18 C -0.0129(4) 0.1572(2) 0.6946(2)
C19 C -0.0443(5) 0.1205(3) 0.5905(3)
H23 H 0.0405 0.1535 0.5483
C20 C -0.2016(6) 0.0346(4) 0.5483(3)
H24 H -0.2201 0.0106 0.4782
C21 C -0.3293(5) -0.0151(3) 0.6078(3)
H25 H -0.4345 -0.0724 0.5793
C22 C -0.2985(5) 0.0214(3) 0.7100(3)
C23 C -0.1431(4) 0.1059(2) 0.7539(3)
H26 H -0.1258 0.1286 0.8242
Cl1 Cl 1.14377(13) 0.92531(8) 0.93748(8)
Cl2 Cl -0.45945(18) -0.04123(10) 0.78826(12)
N1 N 0.8686(4) 0.7416(2) 0.9194(2)
N2 N 0.3480(3) 0.55437(17) 0.72679(16)
N3 N 0.0879(3) 0.45855(18) 0.79346(17)
N4 N 0.2894(3) 0.34678(19) 0.59894(18)
O1 O -0.2039(3) 0.4098(2) 0.8168(2)
O2 O 0.2890(3) 0.41880(18) 0.53559(15)
O3 O 0.3403(3) 0.26542(19) 0.57805(18)
O4 O 0.4321(3) 0.36466(18) 0.91429(17)
loop_
_geom_bond_atom_site_label_1
_geom_bond_atom_site_label_2
_geom_bond_site_symmetry_1
_geom_bond_site_symmetry_2
C1 C2 1_555 1_555
C2 H1 1_555 1_555
C3 C2 1_555 1_555
H2 C3 1_555 1_555
C4 C3 1_555 1_555
C5 C4 1_555 1_555
H3 C5 1_555 1_555
C6 C4 1_555 1_555
H4 C6 1_555 1_555
H5 C6 1_555 1_555
C7 H6 1_555 1_555
H7 C7 1_555 1_555
C8 C7 1_555 1_555
H8 C8 1_555 1_555
H9 C8 1_555 1_555
H10 C8 1_555 1_555
C9 C13 1_555 1_555
C10 H11 1_555 1_555
H12 C10 1_555 1_555
H13 C10 1_555 1_555
C11 C12 1_555 1_555
C12 H14 1_555 1_555
H15 C12 1_555 1_555
H16 C12 1_555 1_555
C13 C14 1_555 1_555
C14 H17 1_555 1_555
C15 C14 1_555 1_555
H18 C15 1_555 1_555
H19 C15 1_555 1_555
C16 C15 1_555 1_555
C17 C16 1_555 1_555
H20 C17 1_555 1_555
H21 C17 1_555 1_555
H22 C17 1_555 1_555
C18 C14 1_555 1_555
C19 C18 1_555 1_555
H23 C19 1_555 1_555
C20 C19 1_555 1_555
H24 C20 1_555 1_555
C21 C20 1_555 1_555
H25 C21 1_555 1_555
C22 C21 1_555 1_555
C23 C18 1_555 1_555
H26 C23 1_555 1_555
Cl1 C1 1_555 1_555
Cl2 C22 1_555 1_555
N1 C1 1_555 1_555
N2 C6 1_555 1_555
N3 C9 1_555 1_555
N4 C13 1_555 1_555
O1 C11 1_555 1_555
O2 N4 1_555 1_555
O3 N4 1_555 1_555
O4 C16 1_555 1_555
C5 N1 1_555 1_555
C7 N2 1_555 1_555
C9 N2 1_555 1_555
C10 N3 1_555 1_555
C11 N3 1_555 1_555
C22 C23 1_555 1_555

#END
