
#######################################################################
#
#                 Cambridge Crystallographic Data Centre
#                                CCDC 
#
#######################################################################
#
# If this CIF has been generated from an entry in the Cambridge 
# Structural Database, then it will include bibliographic, chemical, 
# crystal, experimental, refinement or atomic coordinate data resulting 
# from the CCDC's data processing and validation procedures.
#
#######################################################################

data_SEDFIQ
_chemical_formula_moiety         'C8 H6 Br1 Cl2 N1 O1'
_chemical_name_systematic        N-Acetyl-4-bromo-2,6-dichloroaniline
_symmetry_cell_setting           monoclinic
_symmetry_space_group_name_H-M   'C 2/c'
_symmetry_Int_Tables_number      15
_space_group_name_Hall           '-C 2yn'
loop_
_symmetry_equiv_pos_site_id
_symmetry_equiv_pos_as_xyz
1 x,y,z
2 1/2+x,1/2+y,z
3 -x,y,1/2-z
4 1/2-x,1/2+y,1/2-z
5 -x,-y,-z
6 1/2-x,1/2-y,-z
7 x,-y,1/2+z
8 1/2+x,1/2-y,1/2+z
_cell_length_a                   16.7289(15)
_cell_length_b                   4.6993(5)
_cell_length_c                   25.928(3)
_cell_angle_alpha                90
_cell_angle_beta                 95.220(14)
_cell_angle_gamma                90
_cell_volume                     2029.85
_exptl_crystal_colour            colorless
_exptl_crystal_description       plate
_chemical_melting_point          '477-480 K'
_cell_formula_units_Z            8
_exptl_crystal_recrystallization_method ethanol
loop_
_atom_site_label
_atom_site_type_symbol
_atom_site_fract_x
_atom_site_fract_y
_atom_site_fract_z
Br1 Br 0.13311(2) 0.21657(11) 0.30226(2)
Cl1 Cl 0.46056(6) 0.1783(3) 0.30962(4)
Cl2 Cl 0.30865(6) -0.4364(2) 0.44704(4)
O1 O 0.49788(19) 0.2229(6) 0.42817(13)
N1 N 0.45290(16) -0.2107(6) 0.40251(12)
C1 C 0.37939(19) -0.1142(8) 0.37815(14)
C2 C 0.37460(19) 0.0722(9) 0.33643(14)
C3 C 0.3018(2) 0.1702(9) 0.31358(14)
C4 C 0.2321(2) 0.0781(9) 0.33240(14)
C5 C 0.2337(2) -0.1116(9) 0.37220(15)
C6 C 0.3068(2) -0.2048(7) 0.39512(15)
C7 C 0.5083(2) -0.0331(8) 0.42667(14)
C8 C 0.5818(2) -0.1726(9) 0.45134(16)
H1 H 0.4632 -0.3899 0.4021
H2 H 0.3001 0.2965 0.2859
H3 H 0.1861 -0.1776 0.3838
H4 H 0.5730 -0.3740 0.4533
H5 H 0.5938 -0.0978 0.4856
H6 H 0.6259 -0.1361 0.4311
H7? H 0.6222 -0.0312 0.4600
H8? H 0.6013 -0.3075 0.4277
H9? H 0.5693 -0.2692 0.4822
loop_
_geom_bond_atom_site_label_1
_geom_bond_atom_site_label_2
_geom_bond_site_symmetry_1
_geom_bond_site_symmetry_2
Br1 C4 1_555 1_555
Cl1 C2 1_555 1_555
Cl2 C6 1_555 1_555
O1 C7 1_555 1_555
N1 C1 1_555 1_555
C1 C2 1_555 1_555
C2 C3 1_555 1_555
C3 C4 1_555 1_555
C4 C5 1_555 1_555
C5 C6 1_555 1_555
C6 C1 1_555 1_555
C7 N1 1_555 1_555
C8 C7 1_555 1_555
H1 N1 1_555 1_555
H2 C3 1_555 1_555
H3 C5 1_555 1_555
H4 C8 1_555 1_555
H5 C8 1_555 1_555
H6 C8 1_555 1_555

#END
