
#######################################################################
#
#                 Cambridge Crystallographic Data Centre
#                                CCDC 
#
#######################################################################
#
# If this CIF has been generated from an entry in the Cambridge 
# Structural Database, then it will include bibliographic, chemical, 
# crystal, experimental, refinement or atomic coordinate data resulting 
# from the CCDC's data processing and validation procedures.
#
#######################################################################

data_SEDGAJ
_chemical_formula_moiety         'C7 H4 Br1 F2 N1 O1'
_chemical_name_systematic        N-Formyl-4-bromo-2,6-difluoroaniline
_symmetry_cell_setting           orthorhombic
_symmetry_space_group_name_H-M   'P 21 21 21'
_symmetry_Int_Tables_number      19
_space_group_name_Hall           'P 2ac 2ab'
loop_
_symmetry_equiv_pos_site_id
_symmetry_equiv_pos_as_xyz
1 x,y,z
2 1/2+x,1/2-y,-z
3 -x,1/2+y,1/2-z
4 1/2-x,-y,1/2+z
_cell_length_a                   4.5575(5)
_cell_length_b                   11.4987(12)
_cell_length_c                   15.026(2)
_cell_angle_alpha                90
_cell_angle_beta                 90
_cell_angle_gamma                90
_cell_volume                     787.442
_exptl_crystal_colour            colorless
_exptl_crystal_description       lath
_cell_formula_units_Z            4
loop_
_atom_site_label
_atom_site_type_symbol
_atom_site_fract_x
_atom_site_fract_y
_atom_site_fract_z
Br1 Br 0.1005(2) 0.03467(7) 0.03239(4)
F1 F 0.0476(10) 0.3418(3) -0.2178(2)
F2 F -0.5436(9) 0.0122(3) -0.2489(3)
O1 O 0.0793(11) 0.2348(4) -0.3927(3)
N1 N -0.3556(11) 0.2175(4) -0.3206(3)
C1 C -0.2452(13) 0.1771(5) -0.2381(4)
C2 C -0.0449(15) 0.2372(5) -0.1877(4)
C3 C 0.0644(17) 0.1986(5) -0.1078(4)
C4 C -0.0389(16) 0.0928(5) -0.0779(4)
C5 C -0.2424(15) 0.0284(6) -0.1232(4)
C6 C -0.3409(14) 0.0730(5) -0.2039(4)
C7 C -0.1893(14) 0.2407(6) -0.3907(4)
H1 H -0.5419 0.2275 -0.3255
H2 H 0.2007 0.2416 -0.0755
H3 H -0.3116 -0.0420 -0.1011
H4 H -0.2841 0.2635 -0.4427
loop_
_geom_bond_atom_site_label_1
_geom_bond_atom_site_label_2
_geom_bond_site_symmetry_1
_geom_bond_site_symmetry_2
Br1 C4 1_555 1_555
F1 C2 1_555 1_555
F2 C6 1_555 1_555
O1 C7 1_555 1_555
N1 C1 1_555 1_555
C1 C2 1_555 1_555
C2 C3 1_555 1_555
C3 C4 1_555 1_555
C4 C5 1_555 1_555
C5 C6 1_555 1_555
C6 C1 1_555 1_555
C7 N1 1_555 1_555
H1 N1 1_555 1_555
H2 C3 1_555 1_555
H3 C5 1_555 1_555
H4 C7 1_555 1_555

#END
