
#######################################################################
#
#                 Cambridge Crystallographic Data Centre
#                                CCDC 
#
#######################################################################
#
# If this CIF has been generated from an entry in the Cambridge 
# Structural Database, then it will include bibliographic, chemical, 
# crystal, experimental, refinement or atomic coordinate data resulting 
# from the CCDC's data processing and validation procedures.
#
#######################################################################

data_SEDHUH
_chemical_formula_moiety         'C88 H90 N12 O14'
_chemical_name_systematic        
'methyl 37-((2,2-dimethylpropanoyl)amino)-65,73,75,77-tetraisobutoxy-3,13,23,33,62-pentaoxo-43,50-dioxa-2,5,12,15,22,25,32,35,54,61,71-undecaazatridecacyclo[61.6.2.2^4,7^.2^14,17^.2^24,27^.1^34,42^.0^6,11^.0^16,21^.0^26,31^.0^36,41^.0^51,56^.0^55,60^.0^66,70^]octaheptaconta-1(69),4,6,8,10,14,16,18,20,24,26,28,30,34,36(41),37,39,42(72),51,53,55,57,59,63(71),64,66(70),67,73,75,77-triacontaene-53-carboxylate'
_symmetry_cell_setting           monoclinic
_symmetry_space_group_name_H-M   'P 21/c'
_symmetry_Int_Tables_number      14
_space_group_name_Hall           '-P 2ybc'
loop_
_symmetry_equiv_pos_site_id
_symmetry_equiv_pos_as_xyz
1 x,y,z
2 -x,1/2+y,1/2-z
3 -x,-y,-z
4 x,1/2-y,1/2+z
_cell_length_a                   10.95230(10)
_cell_length_b                   30.8853(3)
_cell_length_c                   23.0310(2)
_cell_angle_alpha                90
_cell_angle_beta                 90.3180(10)
_cell_angle_gamma                90
_cell_volume                     7790.46
_exptl_crystal_colour            yellow
_exptl_crystal_description       block
_cell_formula_units_Z            4
_exptl_crystal_recrystallization_method dichloromethane/hexane
loop_
_atom_site_label
_atom_site_type_symbol
_atom_site_fract_x
_atom_site_fract_y
_atom_site_fract_z
O1 O 0.75286(11) 0.39943(4) 0.48676(5)
O2 O 0.71185(13) 0.34989(4) 0.55485(5)
O3 O 1.03230(10) 0.37037(4) 0.22930(5)
O4 O 0.99694(10) 0.52920(4) 0.17662(5)
O5 O 0.49014(10) 0.50486(3) 0.40571(5)
O6 O 0.34082(10) 0.37607(4) 0.53347(5)
O7 O 0.65168(10) 0.25910(3) 0.28017(5)
O8 O 0.92262(10) 0.30920(4) 0.10915(5)
O9 O 0.51899(10) 0.50843(3) 0.16354(5)
O10 O 0.20424(10) 0.55730(3) 0.31326(5)
O11 O 0.21108(10) 0.31424(3) 0.37173(5)
O12 O 0.41544(12) 0.32117(4) 0.02739(5)
O13 O 0.38685(11) 0.17323(3) 0.29297(5)
O14 O 0.81611(11) 0.20705(4) 0.45490(6)
N1 N 0.83299(11) 0.33849(4) 0.41378(6)
N2 N 0.90971(11) 0.36361(4) 0.30906(6)
H1 H 0.8614 0.3781 0.3311
N3 N 0.82186(11) 0.44446(4) 0.28953(5)
N4 N 0.62515(12) 0.46792(4) 0.34798(6)
H2 H 0.6532 0.4422 0.3427
N5 N 0.53641(11) 0.39348(4) 0.38106(5)
N6 N 0.59978(11) 0.32615(4) 0.31562(5)
H3 H 0.6055 0.3532 0.3072
N7 N 0.65331(11) 0.36217(4) 0.21442(5)
N8 N 0.56551(11) 0.44039(4) 0.19650(5)
H4 H 0.5443 0.4218 0.2223
N9 N 0.36429(11) 0.44102(4) 0.26277(5)
N10 N 0.27987(11) 0.36446(4) 0.30604(5)
H5 H 0.3268 0.3670 0.2764
N11 N 0.34223(11) 0.29998(4) 0.23349(6)
N12 N 0.39066(13) 0.32244(4) 0.12519(6)
H6 H 0.3761 0.3399 0.1534
C1 C 0.72051(18) 0.43262(6) 0.52868(8)
H7 H 0.7273 0.4606 0.5109
H8 H 0.7747 0.4310 0.5615
H9 H 0.6381 0.4282 0.5413
C2 C 0.74538(14) 0.35924(5) 0.50667(7)
C3 C 0.78715(14) 0.32535(5) 0.46384(7)
C4 C 0.77664(14) 0.28166(5) 0.48122(7)
H10 H 0.7399 0.2744 0.5162
C5 C 0.82221(14) 0.25022(5) 0.44507(7)
C6 C 0.88229(14) 0.26253(5) 0.39307(7)
C7 C 0.87963(13) 0.30712(5) 0.37860(7)
C8 C 0.92804(13) 0.32018(5) 0.32374(7)
C9 C 0.98610(14) 0.29046(5) 0.28890(7)
H11 H 1.0211 0.2993 0.2542
C10 C 0.99242(14) 0.24669(5) 0.30591(8)
H12 H 1.0333 0.2270 0.2824
C11 C 0.94009(15) 0.23247(5) 0.35594(8)
H13 H 0.9424 0.2032 0.3656
C12 C 0.95935(13) 0.38553(5) 0.26404(7)
C13 C 0.91721(13) 0.43188(5) 0.25873(6)
C14 C 0.98143(14) 0.45823(5) 0.21985(7)
H14 H 1.0479 0.4475 0.1995
C15 C 0.94371(14) 0.50029(5) 0.21263(6)
C16 C 1.09462(14) 0.51299(5) 0.14125(7)
H15 H 1.0662 0.4885 0.1186
H16 H 1.1616 0.5034 0.1658
C17 C 1.13797(15) 0.54845(5) 0.10121(7)
H17 H 1.1678 0.5727 0.1248
C18 C 1.24450(15) 0.53036(6) 0.06597(8)
H18 H 1.3092 0.5218 0.0918
H19 H 1.2738 0.5522 0.0399
H20 H 1.2173 0.5057 0.0441
C19 C 1.03415(17) 0.56459(7) 0.06237(8)
H21 H 1.0040 0.5411 0.0391
H22 H 1.0638 0.5872 0.0376
H23 H 0.9694 0.5756 0.0861
C20 C 0.84054(14) 0.51586(5) 0.24390(6)
C21 C 0.78357(13) 0.48608(5) 0.28205(6)
C22 C 0.67827(13) 0.49994(5) 0.31381(6)
C23 C 0.63487(14) 0.54144(5) 0.30773(7)
H24 H 0.5672 0.5504 0.3287
C24 C 0.69339(15) 0.57037(5) 0.26953(7)
H25 H 0.6635 0.5984 0.2657
C25 C 0.79296(15) 0.55813(5) 0.23801(7)
H26 H 0.8294 0.5776 0.2127
C26 C 0.53586(13) 0.47109(5) 0.38835(6)
C27 C 0.49892(13) 0.42726(5) 0.41126(6)
C28 C 0.43051(13) 0.42499(5) 0.46274(6)
H27 H 0.4047 0.4500 0.4816
C29 C 0.40308(13) 0.38459(5) 0.48432(6)
C30 C 0.28642(15) 0.41137(6) 0.56434(7)
H28 H 0.3447 0.4349 0.5672
H29 H 0.2669 0.4021 0.6034
C31 C 0.17213(16) 0.42736(6) 0.53479(8)
H30 H 0.1931 0.4362 0.4952
C32 C 0.07475(18) 0.39156(8) 0.53099(10)
H31 H 0.1090 0.3664 0.5127
H32 H 0.0065 0.4017 0.5085
H33 H 0.0480 0.3842 0.5694
C33 C 0.1252(2) 0.46700(8) 0.56729(9)
H34 H 0.1030 0.4589 0.6060
H35 H 0.0550 0.4785 0.5474
H36 H 0.1881 0.4886 0.5688
C34 C 0.44299(13) 0.34703(5) 0.45414(6)
C35 C 0.41952(14) 0.30440(5) 0.47360(7)
H37 H 0.3755 0.2999 0.5075
C36 C 0.46167(14) 0.27001(5) 0.44252(7)
H38 H 0.4479 0.2421 0.4562
C37 C 0.52569(13) 0.27581(5) 0.39007(6)
H39 H 0.5542 0.2519 0.3698
C38 C 0.54589(13) 0.31678(5) 0.36900(6)
C39 C 0.50821(12) 0.35362(5) 0.40201(6)
C40 C 0.64438(13) 0.29843(5) 0.27516(6)
C41 C 0.69027(13) 0.32184(5) 0.22188(6)
C42 C 0.77448(13) 0.30038(5) 0.18616(6)
H40 H 0.7910 0.2711 0.1912
C43 C 0.83177(14) 0.32387(5) 0.14349(7)
C44 C 0.96910(15) 0.26630(5) 0.12103(7)
H41 H 0.9137 0.2448 0.1052
H42 H 0.9751 0.2619 0.1626
C45 C 1.09427(15) 0.26128(6) 0.09368(8)
H43 H 1.1469 0.2847 0.1080
C46 C 1.09061(17) 0.26350(7) 0.02783(8)
H44 H 1.0473 0.2388 0.0128
H45 H 1.1724 0.2635 0.0131
H46 H 1.0497 0.2895 0.0159
C47 C 1.14718(16) 0.21814(6) 0.11459(9)
H47 H 1.1547 0.2185 0.1561
H48 H 1.2262 0.2139 0.0977
H49 H 1.0939 0.1950 0.1031
C48 C 0.79728(13) 0.36790(5) 0.13396(6)
C49 C 0.85267(14) 0.39509(5) 0.09228(7)
H50 H 0.9151 0.3846 0.0690
C50 C 0.81358(14) 0.43700(5) 0.08654(7)
H51 H 0.8515 0.4548 0.0595
C51 C 0.71783(14) 0.45405(5) 0.12022(7)
H52 H 0.6921 0.4825 0.1149
C52 C 0.66278(13) 0.42817(5) 0.16110(6)
C53 C 0.70416(13) 0.38469(5) 0.16989(6)
C54 C 0.50018(13) 0.47763(5) 0.19562(6)
C55 C 0.39872(13) 0.47829(5) 0.23988(6)
C56 C 0.34943(14) 0.51911(5) 0.25344(7)
H53 H 0.3766 0.5441 0.2350
C57 C 0.25989(14) 0.52087(5) 0.29486(7)
C58 C 0.24069(15) 0.59774(5) 0.28767(8)
H54 H 0.2381 0.5956 0.2457
H55 H 0.3235 0.6048 0.2994
C59 C 0.15371(15) 0.63252(5) 0.30799(7)
H56 H 0.1540 0.6329 0.3505
C60 C 0.19883(17) 0.67619(6) 0.28642(10)
H57 H 0.2767 0.6825 0.3038
H58 H 0.1414 0.6983 0.2969
H59 H 0.2068 0.6754 0.2449
C61 C 0.02491(17) 0.62345(6) 0.28704(10)
H60 H 0.0229 0.6237 0.2454
H61 H -0.0291 0.6453 0.3016
H62 H -0.0007 0.5956 0.3009
C62 C 0.21908(13) 0.48195(5) 0.32161(6)
C63 C 0.12682(14) 0.48179(5) 0.36399(7)
H63 H 0.0906 0.5076 0.3755
C64 C 0.09094(14) 0.44347(5) 0.38798(7)
H64 H 0.0303 0.4435 0.4161
C65 C 0.14368(14) 0.40379(5) 0.37119(6)
H65 H 0.1190 0.3782 0.3889
C66 C 0.23172(13) 0.40279(5) 0.32871(6)
C67 C 0.27355(13) 0.44252(5) 0.30342(6)
C68 C 0.26026(13) 0.32350(5) 0.32595(7)
C69 C 0.30725(13) 0.28857(5) 0.28586(7)
C70 C 0.31207(14) 0.24613(5) 0.30823(7)
H66 H 0.2798 0.2397 0.3445
C71 C 0.36573(14) 0.21456(5) 0.27502(7)
C72 C 0.40559(14) 0.22474(5) 0.21791(7)
C73 C 0.46122(15) 0.19465(5) 0.18026(7)
H67 H 0.4729 0.1662 0.1922
C74 C 0.49771(16) 0.20731(5) 0.12654(8)
H68 H 0.5362 0.1874 0.1026
C75 C 0.47875(15) 0.24997(5) 0.10608(7)
H69 H 0.5041 0.2577 0.0690
C76 C 0.42261(14) 0.27997(5) 0.14120(7)
C77 C 0.38873(13) 0.26817(5) 0.19884(7)
C78 C 0.37969(15) 0.33959(5) 0.07131(7)
C79 C 0.31972(16) 0.38471(5) 0.06746(7)
C80 C 0.21805(18) 0.38200(7) 0.02173(9)
H70 H 0.2508 0.3710 -0.0139
H71 H 0.1846 0.4103 0.0152
H72 H 0.1549 0.3630 0.0352
C81 C 0.41845(17) 0.41649(6) 0.04726(8)
H73 H 0.4842 0.4169 0.0750
H74 H 0.3841 0.4450 0.0440
H75 H 0.4488 0.4075 0.0101
C82 C 0.26553(19) 0.40062(6) 0.12477(8)
H76 H 0.2041 0.3806 0.1375
H77 H 0.2295 0.4287 0.1191
H78 H 0.3290 0.4025 0.1536
C83 C 0.36804(17) 0.16324(5) 0.35366(7)
H79 H 0.2816 0.1597 0.3612
H80 H 0.3984 0.1867 0.3777
C84 C 0.43581(17) 0.12170(5) 0.36797(8)
H81 H 0.3990 0.0982 0.3462
H82 H 0.4255 0.1154 0.4089
C85 C 0.57136(17) 0.12299(6) 0.35474(8)
H83 H 0.5809 0.1274 0.3133
H84 H 0.6058 0.0949 0.3640
C86 C 0.64661(18) 0.15767(6) 0.38671(8)
H85 H 0.7256 0.1599 0.3681
H86 H 0.6059 0.1853 0.3819
C87 C 0.66738(17) 0.14998(6) 0.45148(8)
H87 H 0.5918 0.1399 0.4686
H88 H 0.7279 0.1273 0.4564
C88 C 0.70999(17) 0.19019(6) 0.48387(8)
H89 H 0.6456 0.2118 0.4841
H90 H 0.7301 0.1829 0.5238
loop_
_geom_bond_atom_site_label_1
_geom_bond_atom_site_label_2
_geom_bond_site_symmetry_1
_geom_bond_site_symmetry_2
O1 C1 1_555 1_555
O2 C2 1_555 1_555
O3 C12 1_555 1_555
O4 C15 1_555 1_555
O5 C26 1_555 1_555
O6 C29 1_555 1_555
O7 C40 1_555 1_555
O8 C43 1_555 1_555
O9 C54 1_555 1_555
O10 C57 1_555 1_555
O11 C68 1_555 1_555
O12 C78 1_555 1_555
O13 C71 1_555 1_555
O14 C5 1_555 1_555
N1 C3 1_555 1_555
N2 H1 1_555 1_555
N3 C13 1_555 1_555
N4 H2 1_555 1_555
N5 C27 1_555 1_555
N6 H3 1_555 1_555
N7 C41 1_555 1_555
N8 H4 1_555 1_555
N9 C55 1_555 1_555
N10 H5 1_555 1_555
N11 C69 1_555 1_555
N12 H6 1_555 1_555
C1 H7 1_555 1_555
H8 C1 1_555 1_555
H9 C1 1_555 1_555
C2 O1 1_555 1_555
C3 C2 1_555 1_555
C4 C3 1_555 1_555
H10 C4 1_555 1_555
C5 C4 1_555 1_555
C6 C5 1_555 1_555
C7 N1 1_555 1_555
C8 N2 1_555 1_555
C9 C8 1_555 1_555
H11 C9 1_555 1_555
C10 C9 1_555 1_555
H12 C10 1_555 1_555
C11 C6 1_555 1_555
H13 C11 1_555 1_555
C12 N2 1_555 1_555
C13 C12 1_555 1_555
C14 C13 1_555 1_555
H14 C14 1_555 1_555
C15 C14 1_555 1_555
C16 O4 1_555 1_555
H15 C16 1_555 1_555
H16 C16 1_555 1_555
C17 C16 1_555 1_555
H17 C17 1_555 1_555
C18 C17 1_555 1_555
H18 C18 1_555 1_555
H19 C18 1_555 1_555
H20 C18 1_555 1_555
C19 C17 1_555 1_555
H21 C19 1_555 1_555
H22 C19 1_555 1_555
H23 C19 1_555 1_555
C20 C15 1_555 1_555
C21 N3 1_555 1_555
C22 N4 1_555 1_555
C23 C22 1_555 1_555
H24 C23 1_555 1_555
C24 C23 1_555 1_555
H25 C24 1_555 1_555
C25 C20 1_555 1_555
H26 C25 1_555 1_555
C26 N4 1_555 1_555
C27 C26 1_555 1_555
C28 C27 1_555 1_555
H27 C28 1_555 1_555
C29 C28 1_555 1_555
C30 O6 1_555 1_555
H28 C30 1_555 1_555
H29 C30 1_555 1_555
C31 C30 1_555 1_555
H30 C31 1_555 1_555
C32 C31 1_555 1_555
H31 C32 1_555 1_555
H32 C32 1_555 1_555
H33 C32 1_555 1_555
C33 C31 1_555 1_555
H34 C33 1_555 1_555
H35 C33 1_555 1_555
H36 C33 1_555 1_555
C34 C29 1_555 1_555
C35 C34 1_555 1_555
H37 C35 1_555 1_555
C36 C35 1_555 1_555
H38 C36 1_555 1_555
C37 C36 1_555 1_555
H39 C37 1_555 1_555
C38 N6 1_555 1_555
C39 N5 1_555 1_555
C40 N6 1_555 1_555
C41 C40 1_555 1_555
C42 C41 1_555 1_555
H40 C42 1_555 1_555
C43 C42 1_555 1_555
C44 O8 1_555 1_555
H41 C44 1_555 1_555
H42 C44 1_555 1_555
C45 C44 1_555 1_555
H43 C45 1_555 1_555
C46 C45 1_555 1_555
H44 C46 1_555 1_555
H45 C46 1_555 1_555
H46 C46 1_555 1_555
C47 C45 1_555 1_555
H47 C47 1_555 1_555
H48 C47 1_555 1_555
H49 C47 1_555 1_555
C48 C43 1_555 1_555
C49 C48 1_555 1_555
H50 C49 1_555 1_555
C50 C49 1_555 1_555
H51 C50 1_555 1_555
C51 C50 1_555 1_555
H52 C51 1_555 1_555
C52 N8 1_555 1_555
C53 N7 1_555 1_555
C54 N8 1_555 1_555
C55 C54 1_555 1_555
C56 C55 1_555 1_555
H53 C56 1_555 1_555
C57 C56 1_555 1_555
C58 O10 1_555 1_555
H54 C58 1_555 1_555
H55 C58 1_555 1_555
C59 C58 1_555 1_555
H56 C59 1_555 1_555
C60 C59 1_555 1_555
H57 C60 1_555 1_555
H58 C60 1_555 1_555
H59 C60 1_555 1_555
C61 C59 1_555 1_555
H60 C61 1_555 1_555
H61 C61 1_555 1_555
H62 C61 1_555 1_555
C62 C57 1_555 1_555
C63 C62 1_555 1_555
H63 C63 1_555 1_555
C64 C63 1_555 1_555
H64 C64 1_555 1_555
C65 C64 1_555 1_555
H65 C65 1_555 1_555
C66 N10 1_555 1_555
C67 N9 1_555 1_555
C68 N10 1_555 1_555
C69 C68 1_555 1_555
C70 C69 1_555 1_555
H66 C70 1_555 1_555
C71 C70 1_555 1_555
C72 C71 1_555 1_555
C73 C72 1_555 1_555
H67 C73 1_555 1_555
C74 C73 1_555 1_555
H68 C74 1_555 1_555
C75 C74 1_555 1_555
H69 C75 1_555 1_555
C76 N12 1_555 1_555
C77 N11 1_555 1_555
C78 N12 1_555 1_555
C79 C78 1_555 1_555
C80 C79 1_555 1_555
H70 C80 1_555 1_555
H71 C80 1_555 1_555
H72 C80 1_555 1_555
C81 C79 1_555 1_555
H73 C81 1_555 1_555
H74 C81 1_555 1_555
H75 C81 1_555 1_555
C82 C79 1_555 1_555
H76 C82 1_555 1_555
H77 C82 1_555 1_555
H78 C82 1_555 1_555
C83 O13 1_555 1_555
H79 C83 1_555 1_555
H80 C83 1_555 1_555
C84 C83 1_555 1_555
H81 C84 1_555 1_555
H82 C84 1_555 1_555
C85 C84 1_555 1_555
H83 C85 1_555 1_555
H84 C85 1_555 1_555
C86 C85 1_555 1_555
H85 C86 1_555 1_555
H86 C86 1_555 1_555
C87 C86 1_555 1_555
H87 C87 1_555 1_555
H88 C87 1_555 1_555
C88 O14 1_555 1_555
H89 C88 1_555 1_555
H90 C88 1_555 1_555
C6 C7 1_555 1_555
C7 C8 1_555 1_555
C10 C11 1_555 1_555
C20 C21 1_555 1_555
C21 C22 1_555 1_555
C24 C25 1_555 1_555
C34 C39 1_555 1_555
C37 C38 1_555 1_555
C38 C39 1_555 1_555
C48 C53 1_555 1_555
C51 C52 1_555 1_555
C52 C53 1_555 1_555
C62 C67 1_555 1_555
C65 C66 1_555 1_555
C66 C67 1_555 1_555
C72 C77 1_555 1_555
C75 C76 1_555 1_555
C76 C77 1_555 1_555
C87 C88 1_555 1_555

#END
