
#######################################################################
#
#                 Cambridge Crystallographic Data Centre
#                                CCDC 
#
#######################################################################
#
# If this CIF has been generated from an entry in the Cambridge 
# Structural Database, then it will include bibliographic, chemical, 
# crystal, experimental, refinement or atomic coordinate data resulting 
# from the CCDC's data processing and validation procedures.
#
#######################################################################

data_SEDHIV
_chemical_formula_moiety         'C85 H82 N12 O15'
_chemical_name_systematic        
'methyl 67,75,77,79-tetraisobutoxy-37-nitro-3,13,23,33,64-pentaoxo-43,52-dioxa-2,5,12,15,22,25,32,35,56,63,73-undecaazatridecacyclo[63.6.2.2^4,7^.2^14,17^.2^24,27^.1^34,42^.0^6,11^.0^16,21^.0^26,31^.0^36,41^.0^53,58^.0^57,62^.0^68,72^]octaconta-1(71),4,6,8,10,14,16,18,20,24,26,28,30,34,36(41),37,39,42(74),46,53,55,57,59,61,65(73),66,68(72),69,75,77,79-hentriacontaene-55-carboxylate unknown solvate'
_symmetry_cell_setting           triclinic
_symmetry_space_group_name_H-M   'P 1'
_symmetry_Int_Tables_number      1
_space_group_name_Hall           'P 1'
loop_
_symmetry_equiv_pos_site_id
_symmetry_equiv_pos_as_xyz
1 x,y,z
_cell_length_a                   16.3984(4)
_cell_length_b                   18.7230(5)
_cell_length_c                   31.3139(7)
_cell_angle_alpha                93.7559(19)
_cell_angle_beta                 90.140(2)
_cell_angle_gamma                110.090(2)
_cell_volume                     9006.65
_exptl_crystal_colour            yellow
_exptl_crystal_description       block
_cell_formula_units_Z            4
_exptl_crystal_recrystallization_method dichloromethane/hexane
loop_
_atom_site_label
_atom_site_type_symbol
_atom_site_fract_x
_atom_site_fract_y
_atom_site_fract_z
C1 C -0.1010(8) 0.4645(6) 0.9740(3)
C2 C -0.1553(10) 0.5112(7) 0.9751(3)
H1 H -0.1316 0.5638 0.9806
C3 C -0.2405(10) 0.4764(8) 0.9681(3)
H2 H -0.2765 0.5055 0.9687
C4 C -0.2732(9) 0.4056(7) 0.9605(3)
H3 H -0.3334 0.3850 0.9573
C5 C -0.2268(8) 0.3539(6) 0.9565(2)
C6 C -0.1419(7) 0.3833(5) 0.9613(2)
C7 C -0.2636(7) 0.2769(6) 0.9471(2)
C8 C -0.2113(6) 0.2333(5) 0.9448(2)
H4 H -0.2356 0.1804 0.9418
C9 C -0.1194(6) 0.2698(4) 0.94712(19)
C10 C -0.0645(5) 0.2212(4) 0.9384(2)
C11 C 0.0903(5) 0.2432(4) 0.92046(18)
C12 C 0.0950(6) 0.1686(5) 0.9197(2)
H5 H 0.0445 0.1277 0.9239
C13 C 0.1690(6) 0.1548(6) 0.9132(2)
H6 H 0.1696 0.1054 0.9142
C14 C 0.2447(6) 0.2137(7) 0.9051(2)
H7 H 0.2958 0.2036 0.9004
C15 C 0.2449(6) 0.2888(5) 0.90414(19)
C16 C 0.1678(5) 0.3039(5) 0.91071(18)
C17 C 0.3215(6) 0.3576(7) 0.8977(2)
C18 C 0.4734(7) 0.4025(7) 0.8833(3)
H8 H 0.4559 0.4431 0.8732
H9 H 0.5072 0.4215 0.9097
C19 C 0.5213(10) 0.3815(10) 0.8541(6)
H10 H 0.5388 0.3484 0.8724
C20 C 0.4967(8) 0.3266(7) 0.8169(4)
H11 H 0.4387 0.2919 0.8201
H12 H 0.5361 0.2987 0.8148
H13 H 0.4991 0.3532 0.7915
C21 C 0.6124(9) 0.4493(9) 0.8575(5)
H14 H 0.6085 0.4910 0.8422
H15 H 0.6564 0.4319 0.8452
H16 H 0.6271 0.4661 0.8870
C22 C 0.3149(7) 0.4256(6) 0.8979(2)
H17 H 0.3637 0.4687 0.8949
C23 C 0.2342(6) 0.4314(6) 0.9026(2)
C24 C 0.2332(7) 0.5123(5) 0.8984(3)
C25 C 0.1225(8) 0.5739(5) 0.8847(3)
C26 C 0.1758(8) 0.6509(6) 0.8909(3)
H18 H 0.2340 0.6662 0.8994
C27 C 0.1335(12) 0.7026(9) 0.8831(5)
H19 H 0.1686 0.7536 0.8829
C28 C 0.0552(10) 0.6884(6) 0.8766(4)
H20 H 0.0334 0.7279 0.8749
C29 C 0.0002(8) 0.6138(4) 0.8716(2)
C30 C 0.0374(6) 0.5536(4) 0.8739(2)
C31 C -0.0906(7) 0.5930(5) 0.8629(3)
C32 C -0.2184(9) 0.6304(6) 0.8580(4)
H21 H -0.2474 0.5950 0.8790
H22 H -0.2381 0.6063 0.8297
C33 C -0.2402(10) 0.7072(7) 0.8650(4)
H23 H -0.2100 0.7414 0.8433
C34 C -0.3391(12) 0.6842(9) 0.8560(5)
H24 H -0.3542 0.6547 0.8290
H25 H -0.3542 0.7292 0.8549
H26 H -0.3703 0.6543 0.8783
C35 C -0.1948(12) 0.7436(9) 0.9111(5)
H27 H -0.2225 0.7105 0.9329
H28 H -0.2005 0.7925 0.9170
H29 H -0.1343 0.7493 0.9106
C36 C -0.1415(6) 0.5164(4) 0.8561(2)
H30 H -0.2012 0.5011 0.8510
C37 C -0.0989(6) 0.4634(3) 0.8572(2)
C38 C -0.1532(6) 0.3788(3) 0.84858(18)
C39 C -0.1274(4) 0.2566(3) 0.83485(16)
C40 C -0.2121(5) 0.2068(4) 0.83849(17)
H31 H -0.2564 0.2270 0.8418
C41 C -0.2333(5) 0.1278(3) 0.83744(19)
H32 H -0.2907 0.0961 0.8396
C42 C -0.1672(5) 0.0972(3) 0.83305(18)
H33 H -0.1798 0.0451 0.8348
C43 C -0.0824(5) 0.1440(3) 0.82610(18)
C44 C -0.0621(4) 0.2249(3) 0.82625(15)
C45 C -0.0100(5) 0.1177(3) 0.82000(18)
C46 C 0.0374(6) 0.0127(4) 0.8261(3)
H34 H 0.0856 0.0479 0.8432
H35 H 0.0576 0.0064 0.7975
C47 C 0.0056(7) -0.0631(4) 0.8456(3)
H36 H -0.0460 -0.0969 0.8295
C48 C -0.0179(9) -0.0515(6) 0.8911(4)
H37 H 0.0340 -0.0262 0.9082
H38 H -0.0484 -0.1001 0.9020
H39 H -0.0545 -0.0210 0.8924
C49 C 0.0765(9) -0.0983(5) 0.8430(4)
H40 H 0.0848 -0.1116 0.8136
H41 H 0.0598 -0.1433 0.8587
H42 H 0.1298 -0.0623 0.8552
C50 C 0.0719(4) 0.1679(3) 0.81179(18)
H43 H 0.1190 0.1516 0.8075
C51 C 0.0800(4) 0.2461(3) 0.81027(16)
C52 C 0.1710(4) 0.3017(3) 0.80060(17)
C53 C 0.2332(4) 0.4387(3) 0.79091(17)
C54 C 0.3222(4) 0.4514(4) 0.79666(18)
H44 H 0.3409 0.4107 0.8007
C55 C 0.3833(4) 0.5261(4) 0.79636(18)
H45 H 0.4420 0.5339 0.8004
C56 C 0.3576(5) 0.5885(4) 0.7901(2)
H46 H 0.3983 0.6376 0.7909
C57 C 0.2709(5) 0.5761(3) 0.7828(2)
C58 C 0.2070(4) 0.5038(3) 0.78381(16)
C59 C 0.2407(6) 0.6372(3) 0.7752(2)
C60 C 0.2748(9) 0.7675(4) 0.7624(3)
H47 H 0.2526 0.7558 0.7331
H48 H 0.2253 0.7643 0.7801
C61 C 0.3258(8) 0.8410(6) 0.7651(4)
H49 H 0.3759 0.8455 0.7472
C62 C 0.3604(9) 0.8521(8) 0.8158(5)
H50 H 0.3115 0.8417 0.8342
H51 H 0.3989 0.9035 0.8221
H52 H 0.3906 0.8174 0.8204
C63 C 0.2900(9) 0.8997(6) 0.7533(5)
H53 H 0.2647 0.8869 0.7250
H54 H 0.3358 0.9484 0.7542
H55 H 0.2463 0.9020 0.7732
C64 C 0.1542(5) 0.6217(3) 0.7688(2)
H56 H 0.1328 0.6608 0.7645
C65 C 0.0976(5) 0.5463(3) 0.7689(2)
C66 C 0.0032(5) 0.5288(3) 0.75904(19)
C67 C -0.1334(4) 0.4175(3) 0.74611(17)
C68 C -0.1949(5) 0.4518(4) 0.7495(2)
H57 H -0.1780 0.5046 0.7539
C69 C -0.2806(5) 0.4089(4) 0.7466(2)
H58 H -0.3205 0.4341 0.7491
C70 C -0.3125(5) 0.3304(4) 0.7401(2)
H59 H -0.3717 0.3028 0.7397
C71 C -0.2501(4) 0.2941(3) 0.73423(18)
C72 C -0.1608(4) 0.3360(3) 0.73658(15)
C73 C -0.2745(4) 0.2149(3) 0.7281(2)
C74 C -0.2135(3) 0.1819(3) 0.72078(16)
H60 H -0.2293 0.1295 0.7148
C75 C -0.1256(3) 0.2292(3) 0.72244(15)
C76 C -0.0570(3) 0.1936(2) 0.71335(14)
C77 C 0.0872(4) 0.2121(3) 0.69796(19)
H61 H 0.0719 0.1825 0.6711
H62 H 0.0931 0.1802 0.7197
H63 H 0.1412 0.2531 0.6955
C78 C -0.3887(7) 0.1698(6) 0.9369(3)
H64 H -0.3775 0.1481 0.9626
H65 H -0.3639 0.1496 0.9130
C79 C -0.4898(8) 0.1470(8) 0.9290(4)
H66 H -0.5182 0.0962 0.9384
H67 H -0.5102 0.1818 0.9465
C80 C -0.5159(8) 0.1479(8) 0.8850(3)
H68 H -0.5087 0.1952 0.8748
C81 C -0.5490(7) 0.0875(7) 0.8580(4)
H69 H -0.5677 0.0401 0.8694
C82 C -0.5586(7) 0.0891(7) 0.8117(3)
H70 H -0.5630 0.1375 0.8050
H71 H -0.6112 0.0487 0.8013
C83 C -0.4802(7) 0.0782(7) 0.7899(4)
H72 H -0.4719 0.0337 0.8006
H73 H -0.4293 0.1219 0.7986
C84 C -0.4837(5) 0.0686(5) 0.7407(3)
H74 H -0.5144 0.0158 0.7311
H75 H -0.5140 0.0997 0.7292
C85 C -0.3929(4) 0.0930(4) 0.7259(3)
H76 H -0.3574 0.0751 0.7443
H77 H -0.3911 0.0723 0.6969
N1 N -0.0083(7) 0.4993(5) 0.9848(2)
N2 N -0.0806(5) 0.3428(4) 0.95540(18)
N3 N 0.0210(4) 0.2660(4) 0.92927(16)
H78 H 0.0310 0.3142 0.9292
N4 N 0.1622(4) 0.3765(4) 0.90826(18)
N5 N 0.1506(6) 0.5122(4) 0.8893(2)
H79 H 0.1109 0.4679 0.8861
N6 N -0.0140(5) 0.4784(3) 0.86574(16)
N7 N -0.1018(4) 0.3345(3) 0.83984(14)
H80 H -0.0473 0.3589 0.8372
N8 N 0.0192(3) 0.2741(2) 0.81853(13)
N9 N 0.1664(3) 0.3706(2) 0.79453(15)
H81 H 0.1149 0.3725 0.7926
N10 N 0.1214(4) 0.4880(2) 0.77591(14)
N11 N -0.0444(3) 0.4539(2) 0.75169(15)
H82 H -0.0145 0.4240 0.7502
N12 N -0.0980(3) 0.3038(2) 0.73012(12)
O1 O 0.0252(7) 0.4629(5) 1.0090(3)
O2 O 0.0346(8) 0.5634(5) 0.9747(3)
O3 O -0.0894(4) 0.1524(3) 0.93844(16)
O4 O 0.3933(6) 0.3338(5) 0.8914(2)
O5 O 0.2965(6) 0.5677(5) 0.9035(2)
O6 O -0.1225(6) 0.6514(3) 0.86275(19)
O7 O -0.2282(4) 0.3579(3) 0.84978(16)
O8 O -0.0301(4) 0.0421(2) 0.82425(17)
O9 O 0.2345(3) 0.2819(2) 0.79826(15)
O10 O 0.3021(5) 0.7062(3) 0.77282(18)
O11 O -0.0275(4) 0.5801(2) 0.7585(2)
O12 O 0.0204(2) 0.24267(18) 0.70936(12)
O13 O -0.0753(2) 0.12452(19) 0.70897(14)
O14 O -0.3495(5) 0.2501(4) 0.94141(19)
O15 O -0.3610(3) 0.1756(3) 0.72775(16)
C86 C 0.6605(3) 0.8641(3) 0.75021(17)
C87 C 0.7121(4) 0.9386(3) 0.75082(18)
H83 H 0.6868 0.9761 0.7520
C88 C 0.8017(4) 0.9597(3) 0.74968(19)
H84 H 0.8357 1.0106 0.7479
C89 C 0.8397(3) 0.9063(3) 0.75111(18)
H85 H 0.8999 0.9213 0.7531
C90 C 0.7891(3) 0.8274(3) 0.74965(15)
C91 C 0.6965(3) 0.8043(2) 0.74777(15)
C92 C 0.8266(3) 0.7700(3) 0.75102(17)
C93 C 0.7739(3) 0.6943(3) 0.74881(18)
H86 H 0.7965 0.6555 0.7514
C94 C 0.6829(3) 0.6786(3) 0.74236(18)
C95 C 0.6272(4) 0.5968(3) 0.7353(2)
C96 C 0.4793(4) 0.5175(3) 0.70716(18)
C97 C 0.4840(4) 0.4475(3) 0.7132(2)
H87 H 0.5358 0.4427 0.7223
C98 C 0.4083(4) 0.3818(3) 0.7054(2)
H88 H 0.4112 0.3339 0.7091
C99 C 0.3310(4) 0.3877(3) 0.69236(19)
H89 H 0.2819 0.3442 0.6877
C100 C 0.3269(3) 0.4605(3) 0.68611(17)
C101 C 0.4027(3) 0.5251(3) 0.69237(16)
C102 C 0.2489(3) 0.4727(3) 0.67539(17)
C103 C 0.0926(3) 0.4158(3) 0.66889(19)
H90 H 0.0922 0.4606 0.6862
H91 H 0.0494 0.3717 0.6800
C104 C 0.0681(5) 0.4221(5) 0.6241(2)
H92 H 0.1012 0.4730 0.6152
C105 C 0.0816(7) 0.3619(7) 0.5929(3)
H93 H 0.1401 0.3624 0.5961
H94 H 0.0718 0.3727 0.5641
H95 H 0.0416 0.3126 0.5987
C106 C -0.0307(6) 0.4117(7) 0.6252(3)
H96 H -0.0633 0.3611 0.6327
H97 H -0.0499 0.4196 0.5974
H98 H -0.0394 0.4482 0.6460
C107 C 0.2493(3) 0.5453(3) 0.66935(16)
H99 H 0.1987 0.5547 0.6630
C108 C 0.3309(3) 0.6041(2) 0.67344(15)
C109 C 0.3333(3) 0.6846(3) 0.66322(16)
C110 C 0.4434(3) 0.8078(3) 0.65014(15)
C111 C 0.3911(3) 0.8504(3) 0.64848(17)
H100 H 0.3319 0.8288 0.6530
C112 C 0.4283(4) 0.9293(3) 0.6397(2)
H101 H 0.3920 0.9578 0.6376
C113 C 0.5147(4) 0.9632(3) 0.6342(2)
H102 H 0.5377 1.0145 0.6288
C114 C 0.5699(4) 0.9184(3) 0.63695(17)
C115 C 0.5357(3) 0.8413(3) 0.64330(16)
C116 C 0.6620(4) 0.9511(3) 0.63168(17)
C117 C 0.7839(4) 1.0576(4) 0.6155(2)
H103 H 0.7995 1.0235 0.5950
H104 H 0.8195 1.0644 0.6412
C118 C 0.8009(6) 1.1337(4) 0.5969(3)
H105 H 0.7831 1.1662 0.6180
C119 C 0.8949(6) 1.1716(5) 0.5898(3)
H106 H 0.9254 1.1872 0.6169
H107 H 0.9033 1.2155 0.5738
H108 H 0.9169 1.1366 0.5741
C120 C 0.7444(7) 1.1239(6) 0.5554(4)
H109 H 0.7563 1.0880 0.5352
H110 H 0.7582 1.1721 0.5431
H111 H 0.6841 1.1054 0.5622
C121 C 0.7101(3) 0.9045(3) 0.63490(17)
H112 H 0.7704 0.9243 0.6337
C122 C 0.6676(3) 0.8272(3) 0.63993(15)
C123 C 0.7211(4) 0.7763(4) 0.63950(18)
C124 C 0.6986(4) 0.6369(4) 0.63150(19)
C125 C 0.7794(5) 0.6380(5) 0.6444(2)
H113 H 0.8246 0.6837 0.6511
C126 C 0.7909(5) 0.5663(5) 0.6470(3)
H114 H 0.8457 0.5667 0.6553
C127 C 0.7295(5) 0.4993(5) 0.6386(3)
H115 H 0.7407 0.4545 0.6420
C128 C 0.6444(4) 0.4964(4) 0.6239(2)
C129 C 0.6303(4) 0.5666(3) 0.62063(19)
C130 C 0.5762(5) 0.4293(4) 0.6147(3)
C131 C 0.5173(8) 0.2913(6) 0.6152(4)
H116 H 0.5062 0.2791 0.5847
H117 H 0.4649 0.2946 0.6281
C132 C 0.5435(8) 0.2286(6) 0.6354(4)
H118 H 0.5537 0.2416 0.6662
C133 C 0.6149(11) 0.2226(9) 0.6188(5)
H119 H 0.6113 0.2227 0.5882
H120 H 0.6212 0.1758 0.6264
H121 H 0.6642 0.2649 0.6297
C134 C 0.4673(11) 0.1521(7) 0.6284(5)
H122 H 0.4153 0.1579 0.6396
H123 H 0.4804 0.1136 0.6430
H124 H 0.4589 0.1372 0.5984
C135 C 0.5004(5) 0.4338(4) 0.6010(2)
H125 H 0.4528 0.3896 0.5949
C136 C 0.4933(4) 0.5045(3) 0.59587(18)
C137 C 0.4086(4) 0.5069(3) 0.57952(18)
C138 C 0.3455(3) 0.6032(3) 0.55958(15)
C139 C 0.2584(4) 0.5588(4) 0.55933(17)
H126 H 0.2417 0.5070 0.5634
C140 C 0.1962(4) 0.5922(5) 0.5530(2)
H127 H 0.1379 0.5615 0.5522
C141 C 0.2157(4) 0.6648(5) 0.54816(19)
H128 H 0.1716 0.6849 0.5452
C142 C 0.3039(4) 0.7134(4) 0.54739(17)
C143 C 0.3702(4) 0.6819(3) 0.55126(16)
C144 C 0.3316(5) 0.7932(4) 0.5409(2)
C145 C 0.2969(7) 0.9075(6) 0.5366(3)
H129 H 0.3170 0.9212 0.5081
H130 H 0.3414 0.9361 0.5578
C146 C 0.2031(10) 0.9188(8) 0.5460(5)
H131 H 0.1583 0.8837 0.5264
C147 C 0.1738(11) 0.9078(10) 0.5917(6)
H132 H 0.1747 0.8595 0.5999
H133 H 0.1158 0.9089 0.5938
H134 H 0.2122 0.9480 0.6104
C148 C 0.2297(14) 1.0088(10) 0.5302(7)
H135 H 0.2747 1.0430 0.5489
H136 H 0.1795 1.0240 0.5313
H137 H 0.2500 1.0103 0.5014
C149 C 0.4178(5) 0.8340(4) 0.53628(19)
H138 H 0.4365 0.8853 0.5310
C150 C 0.4765(5) 0.7953(4) 0.53981(19)
C151 C 0.5714(5) 0.8368(4) 0.5332(2)
C152 C 0.7096(4) 0.8102(4) 0.5303(2)
C153 C 0.7688(6) 0.8847(5) 0.5333(3)
H139 H 0.7478 0.9250 0.5345
C154 C 0.8547(7) 0.9000(7) 0.5346(3)
H140 H 0.8922 0.9504 0.5367
C155 C 0.8881(5) 0.8415(6) 0.5330(3)
H141 H 0.9478 0.8527 0.5358
C156 C 0.8327(5) 0.7649(6) 0.5270(2)
C157 C 0.7415(4) 0.7503(5) 0.52681(19)
C158 C 0.8578(6) 0.6966(7) 0.5200(2)
C159 C 0.7986(6) 0.6259(6) 0.5173(2)
H142 H 0.8145 0.5826 0.5154
C160 C 0.7111(4) 0.6212(5) 0.51732(19)
C161 C 0.6438(5) 0.5425(5) 0.5091(2)
C162 C 0.6186(11) 0.4108(9) 0.5006(5)
H143 H 0.5737 0.4114 0.4810
H144 H 0.5931 0.3900 0.5266
H145 H 0.6496 0.3800 0.4879
C163 C 0.9588(4) 0.7436(4) 0.7579(2)
H146 H 0.9246 0.6929 0.7460
H147 H 0.9717 0.7410 0.7879
C164 C 1.0396(5) 0.7751(5) 0.7340(3)
H148 H 1.0592 0.8303 0.7378
H149 H 1.0841 0.7589 0.7464
C165 C 1.0317(8) 0.7539(7) 0.6909(3)
H150 H 0.9996 0.7781 0.6769
C166 C 1.0564(11) 0.7096(11) 0.6639(5)
H151 H 1.1160 0.7255 0.6693
C167 C 1.0420(10) 0.6482(9) 0.6296(4)
H152 H 0.9946 0.6021 0.6353
H153 H 1.0941 0.6366 0.6231
C168 C 1.0188(7) 0.6924(7) 0.5964(4)
H154 H 1.0692 0.7338 0.5880
H155 H 0.9744 0.7125 0.6061
C169 C 0.9808(8) 0.6233(8) 0.5558(3)
H156 H 1.0177 0.5924 0.5534
H157 H 0.9226 0.5903 0.5619
C170 C 0.9796(7) 0.6587(8) 0.5146(3)
H158 H 1.0380 0.6770 0.5038
H159 H 0.9434 0.6203 0.4937
N13 N 0.5683(3) 0.8479(3) 0.75459(19)
N14 N 0.6440(3) 0.7300(2) 0.74290(14)
N15 N 0.5494(3) 0.5866(2) 0.71727(16)
H160 H 0.5408 0.6275 0.7110
N16 N 0.4049(3) 0.5972(2) 0.68451(13)
N17 N 0.4164(3) 0.7321(2) 0.65932(14)
H161 H 0.4565 0.7130 0.6629
N18 N 0.5844(3) 0.7952(2) 0.64456(14)
N19 N 0.6739(3) 0.7017(3) 0.63186(15)
H162 H 0.6197 0.6923 0.6263
N20 N 0.5534(3) 0.5687(3) 0.60585(15)
N21 N 0.4133(3) 0.5773(3) 0.56843(14)
H163 H 0.4648 0.6100 0.5667
N22 N 0.4568(3) 0.7209(2) 0.54706(13)
N23 N 0.6200(3) 0.7910(3) 0.53261(16)
H164 H 0.5913 0.7432 0.5339
N24 N 0.6819(3) 0.6770(4) 0.52195(16)
O16 O 0.5239(3) 0.7910(3) 0.7739(2)
O17 O 0.5365(3) 0.8922(3) 0.74110(17)
O18 O 0.6519(3) 0.5466(2) 0.7456(2)
O19 O 0.1764(2) 0.4085(2) 0.67305(14)
O20 O 0.2677(2) 0.6988(2) 0.65975(14)
O21 O 0.6941(3) 1.0248(2) 0.62540(15)
O22 O 0.8009(2) 0.8008(3) 0.64633(14)
O23 O 0.5904(5) 0.3656(3) 0.6231(2)
O24 O 0.3437(3) 0.4510(2) 0.57568(15)
O25 O 0.2691(4) 0.8236(3) 0.54068(16)
O26 O 0.6001(5) 0.9055(3) 0.5301(2)
O27 O 0.6793(5) 0.4893(4) 0.5102(2)
O28 O 0.5671(4) 0.5272(3) 0.50273(16)
O29 O 0.9136(2) 0.7958(2) 0.75292(17)
O30 O 0.9468(4) 0.7221(5) 0.5191(2)
C171 C 0.1406(3) 0.8070(3) 0.20930(16)
C172 C 0.1912(3) 0.8830(3) 0.20968(17)
H165 H 0.1648 0.9198 0.2097
C173 C 0.2815(3) 0.9052(3) 0.20998(18)
H166 H 0.3154 0.9565 0.2107
C174 C 0.3199(3) 0.8503(2) 0.20920(18)
H167 H 0.3801 0.8645 0.2082
C175 C 0.2682(3) 0.7722(2) 0.20987(16)
C176 C 0.1767(3) 0.7482(2) 0.21220(14)
C177 C 0.3064(3) 0.7144(3) 0.20929(17)
C178 C 0.2547(3) 0.6412(3) 0.21306(16)
H168 H 0.2775 0.6020 0.2116
C179 C 0.1654(3) 0.6262(2) 0.21925(14)
C180 C 0.1101(3) 0.5449(3) 0.22685(17)
C181 C -0.0323(3) 0.4718(2) 0.25496(15)
C182 C -0.0305(3) 0.3997(3) 0.24909(18)
H169 H 0.0197 0.3923 0.2394
C183 C -0.1034(4) 0.3364(3) 0.25752(18)
H170 H -0.1009 0.2876 0.2537
C184 C -0.1795(3) 0.3465(2) 0.27152(16)
H171 H -0.2283 0.3045 0.2763
C185 C -0.1822(3) 0.4191(3) 0.27827(14)
C186 C -0.1085(3) 0.4839(2) 0.27178(14)
C187 C -0.2591(3) 0.4348(3) 0.29034(15)
C188 C -0.4142(4) 0.3786(3) 0.29886(17)
H172 H -0.4580 0.3326 0.2864
H173 H -0.4161 0.4208 0.2830
C189 C -0.4354(6) 0.3915(5) 0.3437(3)
H174 H -0.4043 0.4446 0.3539
C190 C -0.5371(7) 0.3753(8) 0.3424(4)
H175 H -0.5498 0.4094 0.3240
H176 H -0.5560 0.3831 0.3708
H177 H -0.5670 0.3236 0.3316
C191 C -0.4190(8) 0.3399(8) 0.3730(4)
H178 H -0.4687 0.2939 0.3728
H179 H -0.4086 0.3642 0.4015
H180 H -0.3690 0.3278 0.3641
C192 C -0.2567(3) 0.5077(3) 0.29649(15)
H181 H -0.3065 0.5184 0.3038
C193 C -0.1787(3) 0.5662(2) 0.29169(15)
C194 C -0.1744(3) 0.6484(3) 0.29998(15)
C195 C -0.0630(3) 0.7771(3) 0.31099(15)
C196 C -0.1131(4) 0.8211(3) 0.31336(19)
H182 H -0.1732 0.7988 0.3105
C197 C -0.0747(4) 0.9012(3) 0.3201(2)
H183 H -0.1099 0.9310 0.3209
C198 C 0.0128(4) 0.9356(3) 0.3256(2)
H184 H 0.0367 0.9883 0.3308
C199 C 0.0676(4) 0.8909(3) 0.32319(16)
C200 C 0.0306(3) 0.8107(3) 0.31659(15)
C201 C 0.1615(4) 0.9229(3) 0.32703(17)
C202 C 0.2840(4) 1.0348(4) 0.3450(2)
H185 H 0.3186 1.0359 0.3198
H186 H 0.3004 1.0056 0.3657
C203 C 0.3006(5) 1.1132(4) 0.3634(3)
H187 H 0.2806 1.1407 0.3425
C204 C 0.2468(7) 1.1106(5) 0.4047(3)
H188 H 0.1860 1.0871 0.3975
H189 H 0.2579 1.1616 0.4169
H190 H 0.2634 1.0816 0.4251
C205 C 0.3981(6) 1.1557(5) 0.3727(3)
H191 H 0.4122 1.1494 0.4016
H192 H 0.4116 1.2090 0.3688
H193 H 0.4313 1.1353 0.3534
C206 C 0.2075(3) 0.8764(3) 0.32402(16)
H194 H 0.2679 0.8966 0.3246
C207 C 0.1650(3) 0.7967(3) 0.31989(14)
C208 C 0.2163(3) 0.7453(3) 0.32075(15)
C209 C 0.1933(4) 0.6076(3) 0.32973(17)
C210 C 0.2729(4) 0.6046(4) 0.3159(2)
H195 H 0.3170 0.6481 0.3083
C211 C 0.2837(4) 0.5330(4) 0.3140(3)
H196 H 0.3369 0.5305 0.3053
C212 C 0.2211(4) 0.4674(4) 0.3240(3)
H197 H 0.2310 0.4213 0.3216
C213 C 0.1414(4) 0.4709(4) 0.3379(2)
C214 C 0.1270(3) 0.5411(3) 0.34128(16)
C215 C 0.0709(4) 0.4041(4) 0.3490(2)
C216 C 0.0156(6) 0.2697(4) 0.3511(3)
H198 H -0.0385 0.2707 0.3390
H199 H 0.0093 0.2640 0.3816
C217 C 0.0425(9) 0.2010(6) 0.3277(4)
H200 H 0.0432 0.2061 0.2967
C218 C 0.1154(10) 0.1977(7) 0.3397(5)
H201 H 0.1616 0.2377 0.3277
H202 H 0.1190 0.1492 0.3299
H203 H 0.1206 0.2038 0.3703
C219 C -0.0350(10) 0.1284(6) 0.3375(6)
H204 H -0.0340 0.1207 0.3675
H205 H -0.0301 0.0849 0.3212
H206 H -0.0887 0.1349 0.3300
C220 C -0.0025(4) 0.4123(3) 0.36315(19)
H207 H -0.0490 0.3701 0.3703
C221 C -0.0083(3) 0.4870(3) 0.36709(15)
C222 C -0.0910(4) 0.4949(3) 0.38530(17)
C223 C -0.1468(4) 0.5990(4) 0.40401(16)
C224 C -0.2342(4) 0.5579(4) 0.40531(17)
H208 H -0.2541 0.5050 0.4020
C225 C -0.2934(4) 0.5975(4) 0.4117(2)
H209 H -0.3522 0.5691 0.4131
C226 C -0.2692(5) 0.6735(4) 0.4159(2)
H210 H -0.3105 0.6971 0.4193
C227 C -0.1788(5) 0.7178(4) 0.41492(19)
C228 C -0.1167(5) 0.6798(3) 0.41140(17)
C229 C -0.1494(6) 0.7971(4) 0.4197(2)
C230 C -0.1813(7) 0.9128(5) 0.4225(3)
H211 H -0.1408 0.9322 0.4000
H212 H -0.1527 0.9337 0.4500
C231 C -0.2664(10) 0.9332(8) 0.4167(6)
H213 H -0.3069 0.9062 0.4381
C232 C -0.2432(14) 1.0171(10) 0.4291(8)
H214 H -0.2062 1.0304 0.4543
H215 H -0.2952 1.0282 0.4348
H216 H -0.2134 1.0460 0.4062
C233 C -0.3066(14) 0.9056(13) 0.3773(8)
H217 H -0.2665 0.9253 0.3551
H218 H -0.3561 0.9213 0.3742
H219 H -0.3252 0.8509 0.3751
C234 C -0.0612(6) 0.8359(4) 0.4226(2)
H220 H -0.0391 0.8888 0.4261
C235 C -0.0064(6) 0.7935(4) 0.4200(2)
C236 C 0.0913(5) 0.8349(4) 0.4239(2)
C237 C 0.2278(4) 0.8001(4) 0.42812(18)
C238 C 0.2874(5) 0.8696(4) 0.4234(2)
H221 H 0.2712 0.9122 0.4210
C239 C 0.3754(6) 0.8749(5) 0.4223(2)
H222 H 0.4169 0.9221 0.4180
C240 C 0.4031(5) 0.8151(5) 0.4273(2)
H223 H 0.4620 0.8216 0.4274
C241 C 0.3396(6) 0.7428(5) 0.4322(2)
C242 C 0.2503(5) 0.7350(4) 0.43345(17)
C243 C 0.3614(6) 0.6779(5) 0.4394(2)
C244 C 0.2995(5) 0.6090(5) 0.4450(2)
H224 H 0.3125 0.5649 0.4478
C245 C 0.2129(5) 0.6103(4) 0.4460(2)
C246 C 0.1436(5) 0.5381(5) 0.4545(2)
C247 C 0.1137(7) 0.4074(6) 0.4646(4)
H225 H 0.1414 0.3697 0.4622
H226 H 0.0643 0.3925 0.4453
H227 H 0.0952 0.4116 0.4934
C248 C 0.4413(4) 0.6890(3) 0.2059(2)
H228 H 0.4540 0.6755 0.1769
H229 H 0.4078 0.6427 0.2190
C249 C 0.5245(4) 0.7305(4) 0.2316(3)
H230 H 0.5680 0.7080 0.2237
H231 H 0.5464 0.7835 0.2248
C250 C 0.5096(5) 0.7262(5) 0.2777(3)
H232 H 0.4687 0.7461 0.2887
C251 C 0.5468(7) 0.6980(6) 0.3041(3)
H233 H 0.5932 0.6845 0.2941
C252 C 0.5216(7) 0.6834(6) 0.3534(4)
H234 H 0.5657 0.7192 0.3725
H235 H 0.4664 0.6901 0.3591
C253 C 0.5156(7) 0.6057(6) 0.3604(4)
H236 H 0.5736 0.6039 0.3638
H237 H 0.4880 0.5726 0.3355
C254 C 0.4636(7) 0.5765(7) 0.4000(3)
H238 H 0.4026 0.5645 0.3925
H239 H 0.4712 0.5289 0.4057
C255 C 0.4820(6) 0.6255(6) 0.4408(3)
H240 H 0.4543 0.5950 0.4641
H241 H 0.5441 0.6450 0.4468
N25 N 0.0456(3) 0.7883(2) 0.20586(16)
N26 N 0.1262(2) 0.6762(2) 0.21831(12)
N27 N 0.0345(2) 0.5385(2) 0.24506(13)
H242 H 0.0256 0.5805 0.2515
N28 N -0.1060(2) 0.5565(2) 0.27928(11)
N29 N -0.0920(3) 0.6978(2) 0.30312(12)
H243 H -0.0521 0.6780 0.2999
N30 N 0.0782(2) 0.7644(2) 0.31612(11)
N31 N 0.1690(3) 0.6729(2) 0.33000(13)
H244 H 0.1163 0.6659 0.3371
N32 N 0.0528(3) 0.5477(2) 0.35608(13)
N33 N -0.0822(3) 0.5679(3) 0.39476(13)
H245 H -0.0299 0.5998 0.3952
N34 N -0.0312(4) 0.7195(3) 0.41347(15)
N35 N 0.1358(4) 0.7854(3) 0.42691(16)
H246 H 0.1038 0.7384 0.4283
N36 N 0.1875(4) 0.6701(3) 0.43983(15)
O31 O 0.0021(3) 0.7285(2) 0.1875(2)
O32 O 0.0157(3) 0.8378(3) 0.21867(16)
O33 O 0.1348(3) 0.49164(18) 0.21608(15)
O34 O -0.3302(2) 0.37114(19) 0.29419(12)
O35 O -0.2397(2) 0.6636(2) 0.30577(13)
O36 O 0.1928(3) 0.9993(2) 0.33353(15)
O37 O 0.2954(2) 0.7685(2) 0.31359(13)
O38 O 0.0876(4) 0.3390(3) 0.3428(2)
O39 O -0.1559(3) 0.4400(2) 0.38885(13)
O40 O -0.2130(4) 0.8297(3) 0.42005(18)
O41 O 0.1251(5) 0.9040(3) 0.42639(17)
O42 O 0.1728(4) 0.4781(3) 0.45421(19)
O43 O 0.0701(4) 0.5312(3) 0.46089(15)
O44 O 0.3937(2) 0.7413(2) 0.20596(16)
O45 O 0.4506(4) 0.6888(4) 0.4388(2)
C256 C 0.3604(6) 0.3707(6) 0.0050(2)
C257 C 0.3106(8) 0.4190(7) 0.0041(3)
H247 H 0.3372 0.4703 -0.0005
C258 C 0.2196(8) 0.3886(7) 0.0104(3)
H248 H 0.1868 0.4205 0.0119
C259 C 0.1802(6) 0.3110(6) 0.0143(2)
H249 H 0.1200 0.2906 0.0155
C260 C 0.2285(5) 0.2622(5) 0.01632(19)
C261 C 0.3255(6) 0.2958(5) 0.0122(2)
C262 C 0.1929(5) 0.1840(6) 0.0201(2)
C263 C 0.2432(5) 0.1388(5) 0.0215(2)
H250 H 0.2184 0.0863 0.0231
C264 C 0.3340(5) 0.1751(5) 0.0206(2)
C265 C 0.3904(4) 0.1295(4) 0.02783(17)
C266 C 0.5461(5) 0.1491(4) 0.04192(19)
C267 C 0.5441(5) 0.0755(5) 0.0366(2)
H251 H 0.4921 0.0354 0.0312
C268 C 0.6224(5) 0.0626(5) 0.0394(2)
H252 H 0.6197 0.0121 0.0355
C269 C 0.7020(5) 0.1154(5) 0.0472(3)
H253 H 0.7517 0.1024 0.0486
C270 C 0.7049(4) 0.1919(5) 0.0532(2)
C271 C 0.6279(4) 0.2111(4) 0.05066(17)
C272 C 0.7833(5) 0.2568(6) 0.0596(2)
C273 C 0.9420(6) 0.2827(6) 0.0662(3)
H254 H 0.9489 0.3247 0.0484
H255 H 0.9809 0.2567 0.0558
C274 C 0.9692(7) 0.3136(7) 0.1093(3)
H256 H 0.9313 0.3415 0.1194
C275 C 1.0635(7) 0.3707(7) 0.1096(4)
H257 H 1.1033 0.3432 0.1097
H258 H 1.0739 0.4051 0.1347
H259 H 1.0717 0.3990 0.0846
C276 C 0.9607(7) 0.2519(6) 0.1386(3)
H260 H 0.9056 0.2120 0.1332
H261 H 0.9643 0.2722 0.1677
H262 H 1.0066 0.2318 0.1336
C277 C 0.7838(4) 0.3263(5) 0.06381(18)
H263 H 0.8356 0.3675 0.0668
C278 C 0.7024(5) 0.3373(5) 0.06357(18)
C279 C 0.7003(5) 0.4167(4) 0.07204(17)
C280 C 0.5971(5) 0.4816(4) 0.08729(19)
C281 C 0.6525(6) 0.5579(4) 0.0820(3)
H264 H 0.7113 0.5696 0.0768
C282 C 0.6148(8) 0.6134(6) 0.0852(3)
H265 H 0.6514 0.6632 0.0822
C283 C 0.5379(7) 0.6040(5) 0.0915(3)
H266 H 0.5189 0.6454 0.0910
C284 C 0.4761(6) 0.5298(4) 0.0995(2)
C285 C 0.5092(5) 0.4699(3) 0.0977(2)
C286 C 0.3816(6) 0.5115(4) 0.1070(2)
C287 C 0.2576(8) 0.5508(5) 0.1042(3)
H267 H 0.2338 0.5372 0.1321
H268 H 0.2301 0.5085 0.0834
C288 C 0.2439(8) 0.6230(6) 0.0916(4)
H269 H 0.2789 0.6663 0.1107
C289 C 0.2679(10) 0.6382(6) 0.0469(4)
H270 H 0.3263 0.6392 0.0428
H271 H 0.2641 0.6866 0.0408
H272 H 0.2290 0.5988 0.0280
C290 C 0.1494(10) 0.6107(7) 0.0974(4)
H273 H 0.1149 0.5645 0.0816
H274 H 0.1364 0.6529 0.0872
H275 H 0.1364 0.6069 0.1272
C291 C 0.3313(5) 0.4373(3) 0.1139(2)
H276 H 0.2721 0.4238 0.1187
C292 C 0.3729(5) 0.3832(3) 0.11330(19)
C293 C 0.3199(4) 0.3021(3) 0.12021(15)
C294 C 0.3436(3) 0.1808(3) 0.13134(15)
C295 C 0.2596(4) 0.1306(3) 0.12556(16)
H277 H 0.2141 0.1489 0.1225
C296 C 0.2428(4) 0.0513(3) 0.12425(18)
H278 H 0.1859 0.0178 0.1209
C297 C 0.3097(4) 0.0224(3) 0.12786(19)
H279 H 0.2982 -0.0299 0.1249
C298 C 0.3942(4) 0.0725(3) 0.13593(16)
C299 C 0.4123(3) 0.1523(3) 0.13839(15)
C300 C 0.4678(4) 0.0477(3) 0.13996(17)
C301 C 0.5203(5) -0.0573(3) 0.1340(2)
H280 H 0.5435 -0.0558 0.1627
H281 H 0.5666 -0.0272 0.1166
C302 C 0.4826(7) -0.1391(4) 0.1149(3)
H282 H 0.4363 -0.1694 0.1328
C303 C 0.4510(10) -0.1437(7) 0.0724(5)
H283 H 0.3989 -0.1313 0.0726
H284 H 0.4386 -0.1946 0.0598
H285 H 0.4940 -0.1084 0.0561
C304 C 0.5650(9) -0.1684(5) 0.1164(4)
H286 H 0.6177 -0.1262 0.1134
H287 H 0.5592 -0.2065 0.0934
H288 H 0.5668 -0.1899 0.1433
C305 C 0.5484(4) 0.1011(3) 0.14942(18)
H289 H 0.5962 0.0861 0.1534
C306 C 0.5577(4) 0.1789(3) 0.15297(15)
C307 C 0.6472(4) 0.2372(3) 0.16209(15)
C308 C 0.7103(3) 0.3780(3) 0.17433(14)
C309 C 0.7974(4) 0.3882(3) 0.16759(16)
H290 H 0.8155 0.3464 0.1635
C310 C 0.8585(4) 0.4638(3) 0.16696(16)
H291 H 0.9160 0.4707 0.1609
C311 C 0.8347(4) 0.5257(3) 0.17498(17)
H292 H 0.8759 0.5744 0.1744
C312 C 0.7489(4) 0.5169(3) 0.18403(16)
C313 C 0.6848(4) 0.4427(3) 0.18463(14)
C314 C 0.7191(5) 0.5790(3) 0.19350(17)
C315 C 0.7492(8) 0.7127(4) 0.2050(3)
H293 H 0.6962 0.7052 0.1888
H294 H 0.7341 0.7095 0.2350
C316 C 0.8048(7) 0.7873(5) 0.2002(3)
H295 H 0.8582 0.7981 0.2174
C317 C 0.8264(7) 0.7863(7) 0.1495(4)
H296 H 0.7990 0.7358 0.1364
H297 H 0.8881 0.8016 0.1462
H298 H 0.8048 0.8211 0.1359
C318 C 0.7637(6) 0.8430(5) 0.2122(4)
H299 H 0.7283 0.8470 0.1887
H300 H 0.8076 0.8917 0.2194
H301 H 0.7281 0.8270 0.2365
C319 C 0.6329(4) 0.5641(3) 0.20191(17)
H302 H 0.6117 0.6039 0.2072
C320 C 0.5769(4) 0.4880(3) 0.20242(16)
C321 C 0.4812(4) 0.4732(3) 0.21282(18)
C322 C 0.3497(4) 0.3639(3) 0.22285(17)
C323 C 0.2875(4) 0.3981(3) 0.21963(19)
H303 H 0.3046 0.4506 0.2179
C324 C 0.1985(4) 0.3538(4) 0.2189(2)
H304 H 0.1576 0.3772 0.2150
C325 C 0.1714(4) 0.2789(3) 0.2238(2)
H305 H 0.1123 0.2512 0.2237
C326 C 0.2322(3) 0.2412(3) 0.22928(17)
C327 C 0.3212(3) 0.2837(3) 0.22962(16)
C328 C 0.2080(3) 0.1630(3) 0.23401(17)
C329 C 0.2721(3) 0.1313(3) 0.24082(16)
H306 H 0.2576 0.0795 0.2444
C330 C 0.3606(3) 0.1808(2) 0.24204(14)
C331 C 0.4262(3) 0.1448(2) 0.24954(15)
C332 C 0.5743(3) 0.1674(3) 0.26430(18)
H307 H 0.5723 0.1275 0.2430
H308 H 0.5657 0.1472 0.2920
H309 H 0.6298 0.2073 0.2641
C333 C 0.0602(6) 0.0746(6) 0.0171(3)
H310 H 0.0715 0.0578 -0.0115
H311 H 0.0856 0.0505 0.0373
C334 C -0.0330(7) 0.0486(8) 0.0226(4)
H312 H -0.0570 -0.0055 0.0143
H313 H -0.0583 0.0748 0.0037
C335 C -0.0581(7) 0.0618(7) 0.0671(4)
H314 H -0.0637 0.1080 0.0765
C336 C -0.0733(6) 0.0026(6) 0.0945(3)
H315 H -0.0769 -0.0456 0.0832
C337 C -0.0836(6) 0.0148(6) 0.1402(3)
H316 H -0.1321 -0.0268 0.1501
H317 H -0.0947 0.0620 0.1464
C338 C 0.0006(5) 0.0185(5) 0.1626(3)
H318 H 0.0455 0.0656 0.1561
H319 H 0.0174 -0.0231 0.1504
C339 C -0.0015(4) 0.0146(4) 0.2114(3)
H320 H -0.0321 -0.0374 0.2184
H321 H -0.0323 0.0466 0.2237
C340 C 0.0919(4) 0.0418(3) 0.2303(2)
H322 H 0.0922 0.0254 0.2591
H323 H 0.1284 0.0212 0.2127
N37 N 0.4512(7) 0.4033(6) -0.0040(3)
N38 N 0.3730(4) 0.2488(4) 0.01714(16)
N39 N 0.4760(4) 0.1740(3) 0.03678(16)
H324 H 0.4873 0.2225 0.0395
N40 N 0.6274(3) 0.2814(3) 0.05703(14)
N41 N 0.6210(4) 0.4194(3) 0.08122(17)
H325 H 0.5806 0.3761 0.0835
N42 N 0.4575(4) 0.3967(3) 0.10504(15)
N43 N 0.3695(3) 0.2596(2) 0.12878(14)
H326 H 0.4240 0.2843 0.1332
N44 N 0.4934(3) 0.2049(2) 0.14652(12)
N45 N 0.6443(3) 0.3077(2) 0.17160(13)
H327 H 0.5934 0.3092 0.1768
N46 N 0.6002(3) 0.4287(2) 0.19368(13)
N47 N 0.4385(3) 0.3990(2) 0.21814(13)
H328 H 0.4695 0.3701 0.2187
N48 N 0.3850(3) 0.2530(2) 0.23595(12)
O46 O 0.4935(6) 0.3641(6) -0.0162(3)
O47 O 0.4840(6) 0.4737(5) -0.0022(3)
O48 O 0.3624(4) 0.0607(4) 0.02508(17)
O49 O 0.8567(4) 0.2318(4) 0.06080(19)
O50 O 0.7674(4) 0.4732(4) 0.07081(15)
O51 O 0.3535(5) 0.5699(3) 0.10535(19)
O52 O 0.2401(3) 0.2792(2) 0.11929(13)
O53 O 0.4501(3) -0.0282(2) 0.13495(16)
O54 O 0.7119(3) 0.2204(2) 0.16163(13)
O55 O 0.7771(4) 0.6490(2) 0.19305(15)
O56 O 0.4513(4) 0.5244(2) 0.21570(17)
O57 O 0.5066(2) 0.19757(18) 0.25505(11)
O58 O 0.4123(2) 0.07729(19) 0.25151(14)
O59 O 0.1034(4) 0.1570(4) 0.02322(18)
O60 O 0.1230(2) 0.1245(2) 0.23094(15)
loop_
_geom_bond_atom_site_label_1
_geom_bond_atom_site_label_2
_geom_bond_site_symmetry_1
_geom_bond_site_symmetry_2
C1 C2 1_555 1_555
C2 H1 1_555 1_555
C3 C2 1_555 1_555
H2 C3 1_555 1_555
C4 C3 1_555 1_555
H3 C4 1_555 1_555
C5 C4 1_555 1_555
C6 C1 1_555 1_555
C7 C5 1_555 1_555
C8 C7 1_555 1_555
H4 C8 1_555 1_555
C9 C8 1_555 1_555
C10 C9 1_555 1_555
C11 C12 1_555 1_555
C12 H5 1_555 1_555
C13 C12 1_555 1_555
H6 C13 1_555 1_555
C14 C13 1_555 1_555
H7 C14 1_555 1_555
C15 C14 1_555 1_555
C16 C11 1_555 1_555
C17 C15 1_555 1_555
C18 H8 1_555 1_555
H9 C18 1_555 1_555
C19 C18 1_555 1_555
H10 C19 1_555 1_555
C20 C19 1_555 1_555
H11 C20 1_555 1_555
H12 C20 1_555 1_555
H13 C20 1_555 1_555
C21 C19 1_555 1_555
H14 C21 1_555 1_555
H15 C21 1_555 1_555
H16 C21 1_555 1_555
C22 C17 1_555 1_555
H17 C22 1_555 1_555
C23 C22 1_555 1_555
C24 C23 1_555 1_555
C25 C26 1_555 1_555
C26 H18 1_555 1_555
C27 C26 1_555 1_555
H19 C27 1_555 1_555
C28 C27 1_555 1_555
H20 C28 1_555 1_555
C29 C28 1_555 1_555
C30 C25 1_555 1_555
C31 C29 1_555 1_555
C32 H21 1_555 1_555
H22 C32 1_555 1_555
C33 C32 1_555 1_555
H23 C33 1_555 1_555
C34 C33 1_555 1_555
H24 C34 1_555 1_555
H25 C34 1_555 1_555
H26 C34 1_555 1_555
C35 C33 1_555 1_555
H27 C35 1_555 1_555
H28 C35 1_555 1_555
H29 C35 1_555 1_555
C36 C31 1_555 1_555
H30 C36 1_555 1_555
C37 C36 1_555 1_555
C38 C37 1_555 1_555
C39 C40 1_555 1_555
C40 H31 1_555 1_555
C41 C40 1_555 1_555
H32 C41 1_555 1_555
C42 C41 1_555 1_555
H33 C42 1_555 1_555
C43 C42 1_555 1_555
C44 C39 1_555 1_555
C45 C43 1_555 1_555
C46 H34 1_555 1_555
H35 C46 1_555 1_555
C47 C46 1_555 1_555
H36 C47 1_555 1_555
C48 C47 1_555 1_555
H37 C48 1_555 1_555
H38 C48 1_555 1_555
H39 C48 1_555 1_555
C49 C47 1_555 1_555
H40 C49 1_555 1_555
H41 C49 1_555 1_555
H42 C49 1_555 1_555
C50 C45 1_555 1_555
H43 C50 1_555 1_555
C51 C50 1_555 1_555
C52 C51 1_555 1_555
C53 C54 1_555 1_555
C54 H44 1_555 1_555
C55 C54 1_555 1_555
H45 C55 1_555 1_555
C56 C55 1_555 1_555
H46 C56 1_555 1_555
C57 C56 1_555 1_555
C58 C53 1_555 1_555
C59 C57 1_555 1_555
C60 H47 1_555 1_555
H48 C60 1_555 1_555
C61 C60 1_555 1_555
H49 C61 1_555 1_555
C62 C61 1_555 1_555
H50 C62 1_555 1_555
H51 C62 1_555 1_555
H52 C62 1_555 1_555
C63 C61 1_555 1_555
H53 C63 1_555 1_555
H54 C63 1_555 1_555
H55 C63 1_555 1_555
C64 C59 1_555 1_555
H56 C64 1_555 1_555
C65 C64 1_555 1_555
C66 C65 1_555 1_555
C67 C68 1_555 1_555
C68 H57 1_555 1_555
C69 C68 1_555 1_555
H58 C69 1_555 1_555
C70 C69 1_555 1_555
H59 C70 1_555 1_555
C71 C70 1_555 1_555
C72 C67 1_555 1_555
C73 C71 1_555 1_555
C74 C73 1_555 1_555
H60 C74 1_555 1_555
C75 C74 1_555 1_555
C76 C75 1_555 1_555
C77 H61 1_555 1_555
H62 C77 1_555 1_555
H63 C77 1_555 1_555
C78 H64 1_555 1_555
H65 C78 1_555 1_555
C79 C78 1_555 1_555
H66 C79 1_555 1_555
H67 C79 1_555 1_555
C80 C79 1_555 1_555
H68 C80 1_555 1_555
C81 C80 1_555 1_555
H69 C81 1_555 1_555
C82 C81 1_555 1_555
H70 C82 1_555 1_555
H71 C82 1_555 1_555
C83 C82 1_555 1_555
H72 C83 1_555 1_555
H73 C83 1_555 1_555
C84 C83 1_555 1_555
H74 C84 1_555 1_555
H75 C84 1_555 1_555
C85 C84 1_555 1_555
H76 C85 1_555 1_555
H77 C85 1_555 1_555
N1 C1 1_555 1_555
N2 C6 1_555 1_555
N3 C10 1_555 1_555
H78 N3 1_555 1_555
N4 C16 1_555 1_555
N5 C24 1_555 1_555
H79 N5 1_555 1_555
N6 C30 1_555 1_555
N7 C38 1_555 1_555
H80 N7 1_555 1_555
N8 C44 1_555 1_555
N9 C52 1_555 1_555
H81 N9 1_555 1_555
N10 C58 1_555 1_555
N11 C66 1_555 1_555
H82 N11 1_555 1_555
N12 C72 1_555 1_555
O1 N1 1_555 1_555
O2 N1 1_555 1_555
O3 C10 1_555 1_555
O4 C17 1_555 1_555
O5 C24 1_555 1_555
O6 C31 1_555 1_555
O7 C38 1_555 1_555
O8 C45 1_555 1_555
O9 C52 1_555 1_555
O10 C59 1_555 1_555
O11 C66 1_555 1_555
O12 C76 1_555 1_555
O13 C76 1_555 1_555
O14 C7 1_555 1_555
O15 C73 1_555 1_555
C86 C87 1_555 1_555
C87 H83 1_555 1_555
C88 C87 1_555 1_555
H84 C88 1_555 1_555
C89 C88 1_555 1_555
H85 C89 1_555 1_555
C90 C89 1_555 1_555
C91 C86 1_555 1_555
C92 C90 1_555 1_555
C93 C92 1_555 1_555
H86 C93 1_555 1_555
C94 C93 1_555 1_555
C95 C94 1_555 1_555
C96 C97 1_555 1_555
C97 H87 1_555 1_555
C98 C97 1_555 1_555
H88 C98 1_555 1_555
C99 C98 1_555 1_555
H89 C99 1_555 1_555
C100 C99 1_555 1_555
C101 C96 1_555 1_555
C102 C100 1_555 1_555
C103 H90 1_555 1_555
H91 C103 1_555 1_555
C104 C103 1_555 1_555
H92 C104 1_555 1_555
C105 C104 1_555 1_555
H93 C105 1_555 1_555
H94 C105 1_555 1_555
H95 C105 1_555 1_555
C106 C104 1_555 1_555
H96 C106 1_555 1_555
H97 C106 1_555 1_555
H98 C106 1_555 1_555
C107 C102 1_555 1_555
H99 C107 1_555 1_555
C108 C107 1_555 1_555
C109 C108 1_555 1_555
C110 C111 1_555 1_555
C111 H100 1_555 1_555
C112 C111 1_555 1_555
H101 C112 1_555 1_555
C113 C112 1_555 1_555
H102 C113 1_555 1_555
C114 C113 1_555 1_555
C115 C110 1_555 1_555
C116 C114 1_555 1_555
C117 H103 1_555 1_555
H104 C117 1_555 1_555
C118 C117 1_555 1_555
H105 C118 1_555 1_555
C119 C118 1_555 1_555
H106 C119 1_555 1_555
H107 C119 1_555 1_555
H108 C119 1_555 1_555
C120 C118 1_555 1_555
H109 C120 1_555 1_555
H110 C120 1_555 1_555
H111 C120 1_555 1_555
C121 C116 1_555 1_555
H112 C121 1_555 1_555
C122 C121 1_555 1_555
C123 C122 1_555 1_555
C124 C125 1_555 1_555
C125 H113 1_555 1_555
C126 C125 1_555 1_555
H114 C126 1_555 1_555
C127 C126 1_555 1_555
H115 C127 1_555 1_555
C128 C127 1_555 1_555
C129 C124 1_555 1_555
C130 C128 1_555 1_555
C131 H116 1_555 1_555
H117 C131 1_555 1_555
C132 C131 1_555 1_555
H118 C132 1_555 1_555
C133 C132 1_555 1_555
H119 C133 1_555 1_555
H120 C133 1_555 1_555
H121 C133 1_555 1_555
C134 C132 1_555 1_555
H122 C134 1_555 1_555
H123 C134 1_555 1_555
H124 C134 1_555 1_555
C135 C130 1_555 1_555
H125 C135 1_555 1_555
C136 C135 1_555 1_555
C137 C136 1_555 1_555
C138 C139 1_555 1_555
C139 H126 1_555 1_555
C140 C139 1_555 1_555
H127 C140 1_555 1_555
C141 C140 1_555 1_555
H128 C141 1_555 1_555
C142 C141 1_555 1_555
C143 C138 1_555 1_555
C144 C142 1_555 1_555
C145 H129 1_555 1_555
H130 C145 1_555 1_555
C146 C145 1_555 1_555
H131 C146 1_555 1_555
C147 C146 1_555 1_555
H132 C147 1_555 1_555
H133 C147 1_555 1_555
H134 C147 1_555 1_555
C148 C146 1_555 1_555
H135 C148 1_555 1_555
H136 C148 1_555 1_555
H137 C148 1_555 1_555
C149 C144 1_555 1_555
H138 C149 1_555 1_555
C150 C149 1_555 1_555
C151 C150 1_555 1_555
C152 C153 1_555 1_555
C153 H139 1_555 1_555
C154 C153 1_555 1_555
H140 C154 1_555 1_555
C155 C154 1_555 1_555
H141 C155 1_555 1_555
C156 C155 1_555 1_555
C157 C152 1_555 1_555
C158 C156 1_555 1_555
C159 C158 1_555 1_555
H142 C159 1_555 1_555
C160 C159 1_555 1_555
C161 C160 1_555 1_555
C162 H143 1_555 1_555
H144 C162 1_555 1_555
H145 C162 1_555 1_555
C163 H146 1_555 1_555
H147 C163 1_555 1_555
C164 C163 1_555 1_555
H148 C164 1_555 1_555
H149 C164 1_555 1_555
C165 C164 1_555 1_555
H150 C165 1_555 1_555
C166 C165 1_555 1_555
H151 C166 1_555 1_555
C167 C166 1_555 1_555
H152 C167 1_555 1_555
H153 C167 1_555 1_555
C168 C167 1_555 1_555
H154 C168 1_555 1_555
H155 C168 1_555 1_555
C169 C168 1_555 1_555
H156 C169 1_555 1_555
H157 C169 1_555 1_555
C170 C169 1_555 1_555
H158 C170 1_555 1_555
H159 C170 1_555 1_555
N13 C86 1_555 1_555
N14 C91 1_555 1_555
N15 C95 1_555 1_555
H160 N15 1_555 1_555
N16 C101 1_555 1_555
N17 C109 1_555 1_555
H161 N17 1_555 1_555
N18 C115 1_555 1_555
N19 C123 1_555 1_555
H162 N19 1_555 1_555
N20 C129 1_555 1_555
N21 C137 1_555 1_555
H163 N21 1_555 1_555
N22 C143 1_555 1_555
N23 C151 1_555 1_555
H164 N23 1_555 1_555
N24 C157 1_555 1_555
O16 N13 1_555 1_555
O17 N13 1_555 1_555
O18 C95 1_555 1_555
O19 C102 1_555 1_555
O20 C109 1_555 1_555
O21 C116 1_555 1_555
O22 C123 1_555 1_555
O23 C130 1_555 1_555
O24 C137 1_555 1_555
O25 C144 1_555 1_555
O26 C151 1_555 1_555
O27 C161 1_555 1_555
O28 C161 1_555 1_555
O29 C92 1_555 1_555
O30 C158 1_555 1_555
C171 C172 1_555 1_555
C172 H165 1_555 1_555
C173 C172 1_555 1_555
H166 C173 1_555 1_555
C174 C173 1_555 1_555
H167 C174 1_555 1_555
C175 C174 1_555 1_555
C176 C171 1_555 1_555
C177 C175 1_555 1_555
C178 C177 1_555 1_555
H168 C178 1_555 1_555
C179 C178 1_555 1_555
C180 C179 1_555 1_555
C181 C182 1_555 1_555
C182 H169 1_555 1_555
C183 C182 1_555 1_555
H170 C183 1_555 1_555
C184 C183 1_555 1_555
H171 C184 1_555 1_555
C185 C184 1_555 1_555
C186 C181 1_555 1_555
C187 C185 1_555 1_555
C188 H172 1_555 1_555
H173 C188 1_555 1_555
C189 C188 1_555 1_555
H174 C189 1_555 1_555
C190 C189 1_555 1_555
H175 C190 1_555 1_555
H176 C190 1_555 1_555
H177 C190 1_555 1_555
C191 C189 1_555 1_555
H178 C191 1_555 1_555
H179 C191 1_555 1_555
H180 C191 1_555 1_555
C192 C187 1_555 1_555
H181 C192 1_555 1_555
C193 C192 1_555 1_555
C194 C193 1_555 1_555
C195 C196 1_555 1_555
C196 H182 1_555 1_555
C197 C196 1_555 1_555
H183 C197 1_555 1_555
C198 C197 1_555 1_555
H184 C198 1_555 1_555
C199 C198 1_555 1_555
C200 C195 1_555 1_555
C201 C199 1_555 1_555
C202 H185 1_555 1_555
H186 C202 1_555 1_555
C203 C202 1_555 1_555
H187 C203 1_555 1_555
C204 C203 1_555 1_555
H188 C204 1_555 1_555
H189 C204 1_555 1_555
H190 C204 1_555 1_555
C205 C203 1_555 1_555
H191 C205 1_555 1_555
H192 C205 1_555 1_555
H193 C205 1_555 1_555
C206 C201 1_555 1_555
H194 C206 1_555 1_555
C207 C206 1_555 1_555
C208 C207 1_555 1_555
C209 C210 1_555 1_555
C210 H195 1_555 1_555
C211 C210 1_555 1_555
H196 C211 1_555 1_555
C212 C211 1_555 1_555
H197 C212 1_555 1_555
C213 C212 1_555 1_555
C214 C209 1_555 1_555
C215 C213 1_555 1_555
C216 H198 1_555 1_555
H199 C216 1_555 1_555
C217 C216 1_555 1_555
H200 C217 1_555 1_555
C218 C217 1_555 1_555
H201 C218 1_555 1_555
H202 C218 1_555 1_555
H203 C218 1_555 1_555
C219 C217 1_555 1_555
H204 C219 1_555 1_555
H205 C219 1_555 1_555
H206 C219 1_555 1_555
C220 C215 1_555 1_555
H207 C220 1_555 1_555
C221 C220 1_555 1_555
C222 C221 1_555 1_555
C223 C224 1_555 1_555
C224 H208 1_555 1_555
C225 C224 1_555 1_555
H209 C225 1_555 1_555
C226 C225 1_555 1_555
H210 C226 1_555 1_555
C227 C226 1_555 1_555
C228 C223 1_555 1_555
C229 C227 1_555 1_555
C230 H211 1_555 1_555
H212 C230 1_555 1_555
C231 C230 1_555 1_555
H213 C231 1_555 1_555
C232 C231 1_555 1_555
H214 C232 1_555 1_555
H215 C232 1_555 1_555
H216 C232 1_555 1_555
C233 C231 1_555 1_555
H217 C233 1_555 1_555
H218 C233 1_555 1_555
H219 C233 1_555 1_555
C234 C229 1_555 1_555
H220 C234 1_555 1_555
C235 C234 1_555 1_555
C236 C235 1_555 1_555
C237 C238 1_555 1_555
C238 H221 1_555 1_555
C239 C238 1_555 1_555
H222 C239 1_555 1_555
C240 C239 1_555 1_555
H223 C240 1_555 1_555
C241 C240 1_555 1_555
C242 C237 1_555 1_555
C243 C241 1_555 1_555
C244 C243 1_555 1_555
H224 C244 1_555 1_555
C245 C244 1_555 1_555
C246 C245 1_555 1_555
C247 H225 1_555 1_555
H226 C247 1_555 1_555
H227 C247 1_555 1_555
C248 H228 1_555 1_555
H229 C248 1_555 1_555
C249 C248 1_555 1_555
H230 C249 1_555 1_555
H231 C249 1_555 1_555
C250 C249 1_555 1_555
H232 C250 1_555 1_555
C251 C250 1_555 1_555
H233 C251 1_555 1_555
C252 C251 1_555 1_555
H234 C252 1_555 1_555
H235 C252 1_555 1_555
C253 C252 1_555 1_555
H236 C253 1_555 1_555
H237 C253 1_555 1_555
C254 C253 1_555 1_555
H238 C254 1_555 1_555
H239 C254 1_555 1_555
C255 C254 1_555 1_555
H240 C255 1_555 1_555
H241 C255 1_555 1_555
N25 C171 1_555 1_555
N26 C176 1_555 1_555
N27 C180 1_555 1_555
H242 N27 1_555 1_555
N28 C186 1_555 1_555
N29 C194 1_555 1_555
H243 N29 1_555 1_555
N30 C200 1_555 1_555
N31 C208 1_555 1_555
H244 N31 1_555 1_555
N32 C214 1_555 1_555
N33 C222 1_555 1_555
H245 N33 1_555 1_555
N34 C228 1_555 1_555
N35 C236 1_555 1_555
H246 N35 1_555 1_555
N36 C242 1_555 1_555
O31 N25 1_555 1_555
O32 N25 1_555 1_555
O33 C180 1_555 1_555
O34 C187 1_555 1_555
O35 C194 1_555 1_555
O36 C201 1_555 1_555
O37 C208 1_555 1_555
O38 C215 1_555 1_555
O39 C222 1_555 1_555
O40 C229 1_555 1_555
O41 C236 1_555 1_555
O42 C246 1_555 1_555
O43 C246 1_555 1_555
O44 C177 1_555 1_555
O45 C243 1_555 1_555
C256 C257 1_555 1_555
C257 H247 1_555 1_555
C258 C257 1_555 1_555
H248 C258 1_555 1_555
C259 C258 1_555 1_555
H249 C259 1_555 1_555
C260 C259 1_555 1_555
C261 C256 1_555 1_555
C262 C260 1_555 1_555
C263 C262 1_555 1_555
H250 C263 1_555 1_555
C264 C263 1_555 1_555
C265 C264 1_555 1_555
C266 C267 1_555 1_555
C267 H251 1_555 1_555
C268 C267 1_555 1_555
H252 C268 1_555 1_555
C269 C268 1_555 1_555
H253 C269 1_555 1_555
C270 C269 1_555 1_555
C271 C266 1_555 1_555
C272 C270 1_555 1_555
C273 H254 1_555 1_555
H255 C273 1_555 1_555
C274 C273 1_555 1_555
H256 C274 1_555 1_555
C275 C274 1_555 1_555
H257 C275 1_555 1_555
H258 C275 1_555 1_555
H259 C275 1_555 1_555
C276 C274 1_555 1_555
H260 C276 1_555 1_555
H261 C276 1_555 1_555
H262 C276 1_555 1_555
C277 C272 1_555 1_555
H263 C277 1_555 1_555
C278 C277 1_555 1_555
C279 C278 1_555 1_555
C280 C281 1_555 1_555
C281 H264 1_555 1_555
C282 C281 1_555 1_555
H265 C282 1_555 1_555
C283 C282 1_555 1_555
H266 C283 1_555 1_555
C284 C283 1_555 1_555
C285 C280 1_555 1_555
C286 C284 1_555 1_555
C287 H267 1_555 1_555
H268 C287 1_555 1_555
C288 C287 1_555 1_555
H269 C288 1_555 1_555
C289 C288 1_555 1_555
H270 C289 1_555 1_555
H271 C289 1_555 1_555
H272 C289 1_555 1_555
C290 C288 1_555 1_555
H273 C290 1_555 1_555
H274 C290 1_555 1_555
H275 C290 1_555 1_555
C291 C286 1_555 1_555
H276 C291 1_555 1_555
C292 C291 1_555 1_555
C293 C292 1_555 1_555
C294 C295 1_555 1_555
C295 H277 1_555 1_555
C296 C295 1_555 1_555
H278 C296 1_555 1_555
C297 C296 1_555 1_555
H279 C297 1_555 1_555
C298 C297 1_555 1_555
C299 C294 1_555 1_555
C300 C298 1_555 1_555
C301 H280 1_555 1_555
H281 C301 1_555 1_555
C302 C301 1_555 1_555
H282 C302 1_555 1_555
C303 C302 1_555 1_555
H283 C303 1_555 1_555
H284 C303 1_555 1_555
H285 C303 1_555 1_555
C304 C302 1_555 1_555
H286 C304 1_555 1_555
H287 C304 1_555 1_555
H288 C304 1_555 1_555
C305 C300 1_555 1_555
H289 C305 1_555 1_555
C306 C305 1_555 1_555
C307 C306 1_555 1_555
C308 C309 1_555 1_555
C309 H290 1_555 1_555
C310 C309 1_555 1_555
H291 C310 1_555 1_555
C311 C310 1_555 1_555
H292 C311 1_555 1_555
C312 C311 1_555 1_555
C313 C308 1_555 1_555
C314 C312 1_555 1_555
C315 H293 1_555 1_555
H294 C315 1_555 1_555
C316 C315 1_555 1_555
H295 C316 1_555 1_555
C317 C316 1_555 1_555
H296 C317 1_555 1_555
H297 C317 1_555 1_555
H298 C317 1_555 1_555
C318 C316 1_555 1_555
H299 C318 1_555 1_555
H300 C318 1_555 1_555
H301 C318 1_555 1_555
C319 C314 1_555 1_555
H302 C319 1_555 1_555
C320 C319 1_555 1_555
C321 C320 1_555 1_555
C322 C323 1_555 1_555
C323 H303 1_555 1_555
C324 C323 1_555 1_555
H304 C324 1_555 1_555
C325 C324 1_555 1_555
H305 C325 1_555 1_555
C326 C325 1_555 1_555
C327 C322 1_555 1_555
C328 C326 1_555 1_555
C329 C328 1_555 1_555
H306 C329 1_555 1_555
C330 C329 1_555 1_555
C331 C330 1_555 1_555
C332 H307 1_555 1_555
H308 C332 1_555 1_555
H309 C332 1_555 1_555
C333 H310 1_555 1_555
H311 C333 1_555 1_555
C334 C333 1_555 1_555
H312 C334 1_555 1_555
H313 C334 1_555 1_555
C335 C334 1_555 1_555
H314 C335 1_555 1_555
C336 C335 1_555 1_555
H315 C336 1_555 1_555
C337 C336 1_555 1_555
H316 C337 1_555 1_555
H317 C337 1_555 1_555
C338 C337 1_555 1_555
H318 C338 1_555 1_555
H319 C338 1_555 1_555
C339 C338 1_555 1_555
H320 C339 1_555 1_555
H321 C339 1_555 1_555
C340 C339 1_555 1_555
H322 C340 1_555 1_555
H323 C340 1_555 1_555
N37 C256 1_555 1_555
N38 C261 1_555 1_555
N39 C265 1_555 1_555
H324 N39 1_555 1_555
N40 C271 1_555 1_555
N41 C279 1_555 1_555
H325 N41 1_555 1_555
N42 C285 1_555 1_555
N43 C293 1_555 1_555
H326 N43 1_555 1_555
N44 C299 1_555 1_555
N45 C307 1_555 1_555
H327 N45 1_555 1_555
N46 C313 1_555 1_555
N47 C321 1_555 1_555
H328 N47 1_555 1_555
N48 C327 1_555 1_555
O46 N37 1_555 1_555
O47 N37 1_555 1_555
O48 C265 1_555 1_555
O49 C272 1_555 1_555
O50 C279 1_555 1_555
O51 C286 1_555 1_555
O52 C293 1_555 1_555
O53 C300 1_555 1_555
O54 C307 1_555 1_555
O55 C314 1_555 1_555
O56 C321 1_555 1_555
O57 C331 1_555 1_555
O58 C331 1_555 1_555
O59 C262 1_555 1_555
O60 C328 1_555 1_555
C5 C6 1_555 1_555
C9 N2 1_555 1_555
C11 N3 1_555 1_555
C15 C16 1_555 1_555
C18 O4 1_555 1_555
C23 N4 1_555 1_555
C25 N5 1_555 1_555
C29 C30 1_555 1_555
C32 O6 1_555 1_555
C37 N6 1_555 1_555
C39 N7 1_555 1_555
C43 C44 1_555 1_555
C46 O8 1_555 1_555
C51 N8 1_555 1_555
C53 N9 1_555 1_555
C57 C58 1_555 1_555
C60 O10 1_555 1_555
C65 N10 1_555 1_555
C67 N11 1_555 1_555
C71 C72 1_555 1_555
C75 N12 1_555 1_555
C77 O12 1_555 1_555
C78 O14 1_555 1_555
C85 O15 1_555 1_555
C90 C91 1_555 1_555
C94 N14 1_555 1_555
C96 N15 1_555 1_555
C100 C101 1_555 1_555
C103 O19 1_555 1_555
C108 N16 1_555 1_555
C110 N17 1_555 1_555
C114 C115 1_555 1_555
C117 O21 1_555 1_555
C122 N18 1_555 1_555
C124 N19 1_555 1_555
C128 C129 1_555 1_555
C131 O23 1_555 1_555
C136 N20 1_555 1_555
C138 N21 1_555 1_555
C142 C143 1_555 1_555
C145 O25 1_555 1_555
C150 N22 1_555 1_555
C152 N23 1_555 1_555
C156 C157 1_555 1_555
C160 N24 1_555 1_555
C162 O27 1_555 1_555
C163 O29 1_555 1_555
C170 O30 1_555 1_555
C175 C176 1_555 1_555
C179 N26 1_555 1_555
C181 N27 1_555 1_555
C185 C186 1_555 1_555
C188 O34 1_555 1_555
C193 N28 1_555 1_555
C195 N29 1_555 1_555
C199 C200 1_555 1_555
C202 O36 1_555 1_555
C207 N30 1_555 1_555
C209 N31 1_555 1_555
C213 C214 1_555 1_555
C216 O38 1_555 1_555
C221 N32 1_555 1_555
C223 N33 1_555 1_555
C227 C228 1_555 1_555
C230 O40 1_555 1_555
C235 N34 1_555 1_555
C237 N35 1_555 1_555
C241 C242 1_555 1_555
C245 N36 1_555 1_555
C247 O42 1_555 1_555
C248 O44 1_555 1_555
C255 O45 1_555 1_555
C260 C261 1_555 1_555
C264 N38 1_555 1_555
C266 N39 1_555 1_555
C270 C271 1_555 1_555
C273 O49 1_555 1_555
C278 N40 1_555 1_555
C280 N41 1_555 1_555
C284 C285 1_555 1_555
C287 O51 1_555 1_555
C292 N42 1_555 1_555
C294 N43 1_555 1_555
C298 C299 1_555 1_555
C301 O53 1_555 1_555
C306 N44 1_555 1_555
C308 N45 1_555 1_555
C312 C313 1_555 1_555
C315 O55 1_555 1_555
C320 N46 1_555 1_555
C322 N47 1_555 1_555
C326 C327 1_555 1_555
C330 N48 1_555 1_555
C332 O57 1_555 1_555
C333 O59 1_555 1_555
C340 O60 1_555 1_555

#END
