
#######################################################################
#
#                 Cambridge Crystallographic Data Centre
#                                CCDC 
#
#######################################################################
#
# If this CIF has been generated from an entry in the Cambridge 
# Structural Database, then it will include bibliographic, chemical, 
# crystal, experimental, refinement or atomic coordinate data resulting 
# from the CCDC's data processing and validation procedures.
#
#######################################################################

data_SEDJUI
_chemical_formula_moiety         'C7 H10 N2,C7 H7 N1 O3'
_chemical_name_systematic        
'3-Methyl-4-nitrophenol 4-(dimethylamino)pyridine'
_symmetry_cell_setting           monoclinic
_symmetry_space_group_name_H-M   'P 21/c'
_symmetry_Int_Tables_number      14
_space_group_name_Hall           '-P 2ybc'
loop_
_symmetry_equiv_pos_site_id
_symmetry_equiv_pos_as_xyz
1 x,y,z
2 -x,1/2+y,1/2-z
3 -x,-y,-z
4 x,1/2-y,1/2+z
_cell_length_a                   11.4923(9)
_cell_length_b                   9.8362(8)
_cell_length_c                   12.7781(10)
_cell_angle_alpha                90
_cell_angle_beta                 103.870(5)
_cell_angle_gamma                90
_cell_volume                     1402.33
_exptl_crystal_colour            colorless
_exptl_crystal_description       block
_cell_formula_units_Z            4
loop_
_atom_site_label
_atom_site_type_symbol
_atom_site_fract_x
_atom_site_fract_y
_atom_site_fract_z
O1 O 0.15952(12) -0.10464(16) 0.99019(11)
H1 H 0.1231 -0.0878 0.9281
N2 N 0.55651(14) 0.22673(19) 1.12638(14)
O2 O 0.63106(15) 0.1883(2) 1.20437(15)
C2 C 0.38178(14) 0.15782(17) 0.97841(13)
C3 C 0.45173(14) 0.14230(17) 1.08398(13)
C5 C 0.32858(16) -0.0365(2) 1.12182(14)
H3 H 0.3113 -0.1011 1.1691
C7 C 0.28341(14) 0.07288(18) 0.94833(13)
H5 H 0.2347 0.0806 0.8791
C8 C 0.25448(14) -0.02386(17) 1.01789(13)
C10 C 0.42568(15) 0.0457(2) 1.15360(13)
H7 H 0.4749 0.0369 1.2226
O3 O 0.56459(19) 0.3367(2) 1.08688(19)
C12 C 0.40796(19) 0.2548(2) 0.89618(16)
H9 H 0.3587 0.2327 0.8264
H10 H 0.4909 0.2478 0.8948
H11 H 0.3910 0.3460 0.9148
N1 N -0.03318(13) 0.41197(16) 0.70694(12)
N3 N 0.17044(15) 0.41211(18) 1.02568(13)
C1 C 0.10524(14) 0.41079(16) 0.92229(13)
C4 C 0.13746(15) 0.48787(18) 0.84064(15)
H2 H 0.2061 0.5415 0.8567
C6 C 0.00038(16) 0.33308(18) 0.88898(16)
H4 H -0.0253 0.2778 0.9381
C9 C -0.06391(16) 0.33887(19) 0.78414(17)
H6 H -0.1342 0.2882 0.7652
C11 C 0.06747(16) 0.48361(18) 0.73744(15)
H8 H 0.0920 0.5343 0.6852
C13 C 0.1410(3) 0.3213(3) 1.10553(18)
H12 H 0.0657 0.3478 1.1194
H13 H 0.2026 0.3264 1.1711
H14 H 0.1353 0.2297 1.0787
C14 C 0.26892(19) 0.5044(3) 1.06203(19)
H15 H 0.3380 0.4714 1.0400
H16 H 0.2870 0.5109 1.1392
H17 H 0.2475 0.5926 1.0311
loop_
_geom_bond_atom_site_label_1
_geom_bond_atom_site_label_2
_geom_bond_site_symmetry_1
_geom_bond_site_symmetry_2
O1 H1 1_555 1_555
N1 C9 1_555 1_555
N2 O2 1_555 1_555
N3 C1 1_555 1_555
C1 C4 1_555 1_555
C2 C3 1_555 1_555
C3 N2 1_555 1_555
C4 H2 1_555 1_555
C5 H3 1_555 1_555
C6 C1 1_555 1_555
H4 C6 1_555 1_555
C7 C2 1_555 1_555
H5 C7 1_555 1_555
C8 O1 1_555 1_555
C9 C6 1_555 1_555
H6 C9 1_555 1_555
C10 C3 1_555 1_555
H7 C10 1_555 1_555
O3 N2 1_555 1_555
C11 N1 1_555 1_555
H8 C11 1_555 1_555
C12 C2 1_555 1_555
H9 C12 1_555 1_555
H10 C12 1_555 1_555
H11 C12 1_555 1_555
C13 N3 1_555 1_555
H12 C13 1_555 1_555
H13 C13 1_555 1_555
H14 C13 1_555 1_555
C14 N3 1_555 1_555
H15 C14 1_555 1_555
H16 C14 1_555 1_555
H17 C14 1_555 1_555
C4 C11 1_555 1_555
C5 C8 1_555 1_555
C5 C10 1_555 1_555
C7 C8 1_555 1_555

#END
