
#######################################################################
#
#                 Cambridge Crystallographic Data Centre
#                                CCDC 
#
#######################################################################
#
# If this CIF has been generated from an entry in the Cambridge 
# Structural Database, then it will include bibliographic, chemical, 
# crystal, experimental, refinement or atomic coordinate data resulting 
# from the CCDC's data processing and validation procedures.
#
#######################################################################

data_SEDMOD
_chemical_formula_moiety         'C13 H13 N1 O3'
_chemical_name_systematic        
'(E)-Ethyl 3-(4-methoxyphenyl)-2-cyanopropenoate'
_symmetry_cell_setting           monoclinic
_symmetry_space_group_name_H-M   'P 21/n'
_symmetry_Int_Tables_number      14
_space_group_name_Hall           '-P 2yn'
loop_
_symmetry_equiv_pos_site_id
_symmetry_equiv_pos_as_xyz
1 x,y,z
2 1/2-x,1/2+y,1/2-z
3 -x,-y,-z
4 1/2+x,1/2-y,1/2+z
_cell_length_a                   8.484(1)
_cell_length_b                   8.325(1)
_cell_length_c                   17.122(1)
_cell_angle_alpha                90
_cell_angle_beta                 91.27(1)
_cell_angle_gamma                90
_cell_volume                     1209.02
_exptl_crystal_colour            colorless
_cell_formula_units_Z            4
loop_
_atom_site_label
_atom_site_type_symbol
_atom_site_fract_x
_atom_site_fract_y
_atom_site_fract_z
O1 O 1.7828(2) 0.1031(3) 0.9732(1)
O2 O 0.8782(2) 0.4882(3) 0.9075(1)
O3 O 0.8338(2) 0.3895(2) 0.7873(1)
N1 N 1.1561(3) 0.2172(4) 0.7146(1)
C1 C 1.6334(3) 0.1584(3) 0.9621(1)
C2 C 1.5552(4) 0.1059(4) 0.8945(2)
C3 C 1.4063(3) 0.1601(4) 0.8762(1)
C4 C 1.3281(3) 0.2661(3) 0.9260(1)
C5 C 1.4052(3) 0.3092(3) 0.9951(1)
C6 C 1.5575(3) 0.2591(3) 1.0131(2)
C7 C 1.1729(3) 0.3336(3) 0.9115(2)
C8 C 1.0787(3) 0.3362(3) 0.8477(1)
C9 C 0.9215(3) 0.4133(3) 0.8518(1)
C10 C 0.6753(3) 0.4571(4) 0.7869(2)
C11 C 0.5890(4) 0.3874(6) 0.7173(2)
C12 C 1.1205(3) 0.2683(3) 0.7736(1)
C13 C 1.8674(4) 0.1578(5) 1.0414(2)
H1 H 1.6098(38) 0.0278(43) 0.8577(19)
H2 H 1.3552(35) 0.1257(36) 0.8291(18)
H3 H 1.3555(36) 0.3823(39) 1.0323(20)
H4 H 1.6070(35) 0.2900(34) 1.0569(18)
H5 H 1.1391(31) 0.3854(33) 0.9539(16)
H6 H 0.6270(34) 0.4370(35) 0.8376(18)
H7 H 0.6779(44) 0.5797(53) 0.7826(21)
H8 H 0.4779(43) 0.4336(39) 0.7203(18)
H9 H 0.5743(41) 0.2757(47) 0.7254(21)
H10 H 0.6370(40) 0.4217(42) 0.6713(21)
H11 H 1.9714(40) 0.1105(35) 1.0388(17)
H12 H 1.8197(37) 0.1126(38) 1.0877(19)
H13 H 1.8751(36) 0.2835(37) 1.0440(19)
loop_
_geom_bond_atom_site_label_1
_geom_bond_atom_site_label_2
_geom_bond_site_symmetry_1
_geom_bond_site_symmetry_2
O1 C1 1_555 1_555
O2 C9 1_555 1_555
O3 C9 1_555 1_555
N1 C12 1_555 1_555
C1 C2 1_555 1_555
C2 C3 1_555 1_555
C3 C4 1_555 1_555
C4 C5 1_555 1_555
C5 C6 1_555 1_555
C6 C1 1_555 1_555
C7 C4 1_555 1_555
C8 C7 1_555 1_555
C9 C8 1_555 1_555
C10 O3 1_555 1_555
C11 C10 1_555 1_555
C12 C8 1_555 1_555
C13 O1 1_555 1_555
H1 C2 1_555 1_555
H2 C3 1_555 1_555
H3 C5 1_555 1_555
H4 C6 1_555 1_555
H5 C7 1_555 1_555
H6 C10 1_555 1_555
H7 C10 1_555 1_555
H8 C11 1_555 1_555
H9 C11 1_555 1_555
H10 C11 1_555 1_555
H11 C13 1_555 1_555
H12 C13 1_555 1_555
H13 C13 1_555 1_555

#END
