
#######################################################################
#
#                 Cambridge Crystallographic Data Centre
#                                CCDC 
#
#######################################################################
#
# If this CIF has been generated from an entry in the Cambridge 
# Structural Database, then it will include bibliographic, chemical, 
# crystal, experimental, refinement or atomic coordinate data resulting 
# from the CCDC's data processing and validation procedures.
#
#######################################################################

data_SEDMOF
_chemical_formula_moiety         'C15 H20 O4'
_chemical_name_systematic        
6,8-Dihydroxy-8a-methyl-3,5-bis(methylene)decahydronaphtho[2,3-b]furan-2(3H)-one
_symmetry_cell_setting           tetragonal
_symmetry_space_group_name_H-M   'P 41 21 2'
_symmetry_Int_Tables_number      92
_space_group_name_Hall           'P 4abw 2nw'
loop_
_symmetry_equiv_pos_site_id
_symmetry_equiv_pos_as_xyz
1 x,y,z
2 -x,-y,1/2+z
3 1/2-y,1/2+x,1/4+z
4 1/2+y,1/2-x,3/4+z
5 1/2-x,1/2+y,1/4-z
6 1/2+x,1/2-y,3/4-z
7 y,x,-z
8 -y,-x,1/2-z
_cell_length_a                   6.4737(4)
_cell_length_b                   6.4737(4)
_cell_length_c                   62.438(8)
_cell_angle_alpha                90
_cell_angle_beta                 90
_cell_angle_gamma                90
_cell_volume                     2616.7
_exptl_crystal_colour            colorless
_exptl_crystal_description       block
_cell_formula_units_Z            8
loop_
_atom_site_label
_atom_site_type_symbol
_atom_site_fract_x
_atom_site_fract_y
_atom_site_fract_z
O1 O 0.6749(2) 0.7974(2) 0.09621(2)
O2 O 0.9609(2) 0.7729(3) 0.01700(2)
H1 H 0.903(5) 0.820(6) 0.0061(5)
O3 O 1.2633(3) 0.4894(3) 0.01385(3)
H2 H 1.216(8) 0.609(4) 0.0132(9)
O4 O 0.6433(3) 0.7218(3) 0.13102(3)
C1 C 0.8323(3) 0.6114(3) 0.02599(3)
H3 H 0.6856 0.6382 0.0218
C2 C 0.8995(3) 0.4040(4) 0.01641(3)
H4 H 0.8023 0.2947 0.0210
H5 H 0.8947 0.4124 0.0006
C3 C 1.1183(3) 0.3474(3) 0.02353(3)
H6 H 1.1504 0.2041 0.0186
C4 C 1.1394(3) 0.3561(3) 0.04749(3)
C5 C 1.0717(3) 0.5576(3) 0.05753(3)
H7 H 1.1636 0.6681 0.0517
C6 C 1.0932(3) 0.5634(3) 0.08181(3)
H8 H 1.2369 0.5273 0.0857
H9 H 1.0010 0.4578 0.0881
C7 C 1.0399(3) 0.7753(3) 0.09141(3)
H10 H 1.1590 0.8724 0.0898
C8 C 0.8417(3) 0.8722(3) 0.08222(3)
H11 H 0.8518 1.0254 0.0840
C9 C 0.7925(3) 0.8280(3) 0.05891(3)
H12 H 0.8663 0.9307 0.0500
H13 H 0.6427 0.8502 0.0567
C10 C 0.8472(3) 0.6116(3) 0.05061(3)
C11 C 0.9826(3) 0.7535(3) 0.11464(3)
C12 C 0.7532(3) 0.7548(3) 0.11580(3)
C13 C 1.1009(4) 0.7239(4) 0.13160(3)
H14 H 1.0399 0.7022 0.1453
H15 H 1.2470 0.7243 0.1301
C14 C 0.6907(3) 0.4523(3) 0.05931(4)
H16 H 0.6728 0.4728 0.0747
H17 H 0.7424 0.3124 0.0566
H18 H 0.5577 0.4707 0.0521
C15 C 1.2136(3) 0.1949(3) 0.05820(4)
H19 H 1.2536 0.0735 0.0507
H20 H 1.2267 0.2010 0.0733
H21? H 1.080(3) 0.727(4) 0.0149(8)
H22? H 1.329(7) 0.432(8) 0.0040(7)
loop_
_geom_bond_atom_site_label_1
_geom_bond_atom_site_label_2
_geom_bond_site_symmetry_1
_geom_bond_site_symmetry_2
O1 C8 1_555 1_555
O2 H1 1_555 1_555
O3 H2 1_555 1_555
O4 C12 1_555 1_555
C1 O2 1_555 1_555
H3 C1 1_555 1_555
C2 C1 1_555 1_555
H4 C2 1_555 1_555
H5 C2 1_555 1_555
C3 O3 1_555 1_555
H6 C3 1_555 1_555
C4 C3 1_555 1_555
C5 C4 1_555 1_555
H7 C5 1_555 1_555
C6 C5 1_555 1_555
H8 C6 1_555 1_555
H9 C6 1_555 1_555
C7 C6 1_555 1_555
H10 C7 1_555 1_555
C8 C7 1_555 1_555
H11 C8 1_555 1_555
C9 C8 1_555 1_555
H12 C9 1_555 1_555
H13 C9 1_555 1_555
C10 C1 1_555 1_555
C11 C7 1_555 1_555
C12 O1 1_555 1_555
C13 C11 1_555 1_555
H14 C13 1_555 1_555
H15 C13 1_555 1_555
C14 C10 1_555 1_555
H16 C14 1_555 1_555
H17 C14 1_555 1_555
H18 C14 1_555 1_555
C15 C4 1_555 1_555
H19 C15 1_555 1_555
H20 C15 1_555 1_555
C2 C3 1_555 1_555
C5 C10 1_555 1_555
C9 C10 1_555 1_555
C11 C12 1_555 1_555

#END
