
#######################################################################
#
#                 Cambridge Crystallographic Data Centre
#                                CCDC 
#
#######################################################################
#
# If this CIF has been generated from an entry in the Cambridge 
# Structural Database, then it will include bibliographic, chemical, 
# crystal, experimental, refinement or atomic coordinate data resulting 
# from the CCDC's data processing and validation procedures.
#
#######################################################################

data_SEDNOE
_chemical_formula_moiety         'C29 H22 O2'
_chemical_name_systematic        
3,3'-(Butane-1,3-diyl)-2,2'-spirobi(benzo(f)chromene)
_symmetry_cell_setting           monoclinic
_symmetry_space_group_name_H-M   'P 21'
_symmetry_Int_Tables_number      4
_space_group_name_Hall           'P 2yb'
loop_
_symmetry_equiv_pos_site_id
_symmetry_equiv_pos_as_xyz
1 x,y,z
2 -x,1/2+y,-z
_cell_length_a                   8.449(2)
_cell_length_b                   13.320(3)
_cell_length_c                   9.762(1)
_cell_angle_alpha                90
_cell_angle_beta                 103.41(1)
_cell_angle_gamma                90
_cell_volume                     1068.67
_exptl_crystal_colour            colorless
_chemical_melting_point          197-199deg.C
_cell_formula_units_Z            2
loop_
_atom_site_label
_atom_site_type_symbol
_atom_site_fract_x
_atom_site_fract_y
_atom_site_fract_z
O1 O -0.1065(4) 0.0432(3) 0.8715(3)
C1 C 0.0522(6) 0.0057 0.8670(5)
C2 C 0.0606(6) -0.1063(4) 0.8747(5)
C3 C -0.0730(6) -0.1586(4) 0.8224(5)
C4 C -0.2283(6) -0.1089(5) 0.7643(5)
C5 C -0.3700(7) -0.1588(5) 0.6855(6)
C6 C -0.3693(8) -0.2619(5) 0.6497(6)
C7 C -0.5090(9) -0.3062(6) 0.5723(7)
C8 C -0.6471(11) -0.2542(8) 0.5240(8)
C9 C -0.6554(8) -0.1559(8) 0.5601(8)
C10 C -0.5177(8) -0.1038(7) 0.6431(6)
C11 C -0.5202(7) -0.0009(6) 0.6810(7)
C12 C -0.3817(7) 0.0466(5) 0.7544(6)
C13 C -0.2393(6) -0.0081(5) 0.7925(5)
C14 C 0.2244(6) -0.1446(4) 0.9523(6)
C15 C 0.2472(8) -0.2579(4) 0.9390(7)
C16 C 0.2529(7) -0.1113(4) 1.1059(5)
C17 C 0.2103(8) -0.0014(4) 1.1231(5)
C18 C 0.1107(5) 0.1317(4) 0.7118(5)
C19 C 0.0685(6) 0.1667(4) 0.5721(5)
C20 C 0.0981(6) 0.2641(4) 0.5441(5)
C21 C 0.1715(7) 0.3302(4) 0.6522(5)
C22 C 0.2011(8) 0.4310(5) 0.6253(6)
C23 C 0.2743(9) 0.4959(5) 0.7311(7)
C24 C 0.3199(8) 0.4607(5) 0.8676(7)
C25 C 0.2949(7) 0.3629(4) 0.9018(5)
C26 C 0.2192(6) 0.2939(4) 0.7944(5)
C27 C 0.1864(6) 0.1920(4) 0.8221(5)
C28 C 0.2329(6) 0.1442(4) 0.9620(5)
C29 C 0.1742(6) 0.0567(4) 0.9838(4)
O2 O 0.0797(3) 0.0319(3) 0.7316(3)
loop_
_geom_bond_atom_site_label_1
_geom_bond_atom_site_label_2
_geom_bond_site_symmetry_1
_geom_bond_site_symmetry_2
O1 C1 1_555 1_555
C1 C2 1_555 1_555
C2 C3 1_555 1_555
C3 C4 1_555 1_555
C4 C5 1_555 1_555
C5 C6 1_555 1_555
C6 C7 1_555 1_555
C7 C8 1_555 1_555
C8 C9 1_555 1_555
C9 C10 1_555 1_555
C10 C5 1_555 1_555
C11 C10 1_555 1_555
C12 C11 1_555 1_555
C13 O1 1_555 1_555
C14 C2 1_555 1_555
C15 C14 1_555 1_555
C16 C14 1_555 1_555
C17 C16 1_555 1_555
C18 C19 1_555 1_555
C19 C20 1_555 1_555
C20 C21 1_555 1_555
C21 C22 1_555 1_555
C22 C23 1_555 1_555
C23 C24 1_555 1_555
C24 C25 1_555 1_555
C25 C26 1_555 1_555
C26 C21 1_555 1_555
C27 C18 1_555 1_555
C28 C27 1_555 1_555
C29 C1 1_555 1_555
O2 C1 1_555 1_555
C4 C13 1_555 1_555
C12 C13 1_555 1_555
C17 C29 1_555 1_555
C18 O2 1_555 1_555
C26 C27 1_555 1_555
C28 C29 1_555 1_555

#END
