
#######################################################################
#
#                 Cambridge Crystallographic Data Centre
#                                CCDC 
#
#######################################################################
#
# If this CIF has been generated from an entry in the Cambridge 
# Structural Database, then it will include bibliographic, chemical, 
# crystal, experimental, refinement or atomic coordinate data resulting 
# from the CCDC's data processing and validation procedures.
#
#######################################################################

data_SEDNUM
_chemical_formula_moiety         'C19 H17 N5 O2,C2 H6 O1,H2 O1'
_chemical_name_systematic        
"N,N'-bis(4-Aminophenyl)pyridine-2,6-dicarboxamide ethanol solvate monohydrate"
_symmetry_cell_setting           monoclinic
_symmetry_space_group_name_H-M   'P 21/n'
_symmetry_Int_Tables_number      14
_space_group_name_Hall           '-P 2yn'
loop_
_symmetry_equiv_pos_site_id
_symmetry_equiv_pos_as_xyz
1 x,y,z
2 1/2-x,1/2+y,1/2-z
3 -x,-y,-z
4 1/2+x,1/2-y,1/2+z
_cell_length_a                   8.375(5)
_cell_length_b                   13.948(8)
_cell_length_c                   17.937(10)
_cell_angle_alpha                90
_cell_angle_beta                 98.446(7)
_cell_angle_gamma                90
_cell_volume                     2072.58
_cell_formula_units_Z            4
loop_
_atom_site_label
_atom_site_type_symbol
_atom_site_fract_x
_atom_site_fract_y
_atom_site_fract_z
C1 C -0.2047(4) 0.8076(2) 0.82689(17)
C2 C -0.2462(4) 0.7208(2) 0.79321(17)
H1 H -0.3283 0.7188 0.7522
C3 C -0.1708(4) 0.6372(2) 0.81792(17)
H2 H -0.2024 0.5797 0.7940
C4 C -0.0460(3) 0.63837(19) 0.87931(16)
C5 C -0.0034(3) 0.7245(2) 0.91303(16)
H3 H 0.0790 0.7263 0.9539
C6 C -0.0794(4) 0.8086(2) 0.88802(18)
H4 H -0.0474 0.8662 0.9118
C7 C -0.0040(3) 0.4639(2) 0.89898(15)
C8 C 0.1237(3) 0.39340(19) 0.92976(15)
C9 C 0.1136(4) 0.2990(2) 0.90332(17)
H5 H 0.0275 0.2793 0.8678
C10 C 0.2343(4) 0.2357(2) 0.93111(19)
H6 H 0.2304 0.1724 0.9148
C11 C 0.3598(4) 0.2671(2) 0.98282(17)
H7 H 0.4433 0.2257 1.0013
C12 C 0.3610(3) 0.36165(19) 1.00753(16)
C13 C 0.4960(3) 0.3958(2) 1.06540(16)
C14 C 0.5663(3) 0.5158(2) 1.16631(15)
C15 C 0.6949(4) 0.4674(2) 1.20872(17)
H8 H 0.7170 0.4042 1.1974
C16 C 0.7894(4) 0.5137(2) 1.26755(18)
H9 H 0.8742 0.4806 1.2955
C17 C 0.7615(4) 0.6074(2) 1.28591(17)
C18 C 0.6322(4) 0.6551(2) 1.24349(18)
H10 H 0.6105 0.7184 1.2548
C19 C 0.5369(3) 0.6096(2) 1.18524(17)
H11 H 0.4510 0.6426 1.1580
N1 N -0.2842(4) 0.89307(19) 0.80190(16)
H18 H -0.3613 0.8920 0.7645
H19 H -0.2558 0.9464 0.8240
N2 N 0.0403(3) 0.55578(16) 0.90696(13)
H20 H 0.1341 0.5659 0.9324
N3 N 0.2448(3) 0.42462(15) 0.98080(12)
N4 N 0.4643(3) 0.47193(16) 1.10529(13)
H21 H 0.3711 0.4978 1.0927
N5 N 0.8583(4) 0.6501(2) 1.34787(15)
H22 H 0.9342 0.6176 1.3739
H23 H 0.8416 0.7086 1.3597
O2 O -0.1379(2) 0.43615(15) 0.86827(12)
O3 O 0.6257(2) 0.35160(14) 1.07404(12)
C20 C 0.2328(8) 0.9769(4) 0.9589(3)
H12 H 0.2666 1.0346 0.9366
H13 H 0.1198 0.9810 0.9627
H14 H 0.2515 0.9230 0.9281
C21 C 0.3173(14) 0.9659(7) 1.0281(5)
H15 H 0.2996 1.0228 1.0569
H16 H 0.4308 0.9653 1.0225
O1 O 0.2863(16) 0.8770(8) 1.0771(7)
H17 H 0.1918 0.8769 1.0842
O4 O 0.0617(15) 0.9376(5) 1.1290(8)
loop_
_geom_bond_atom_site_label_1
_geom_bond_atom_site_label_2
_geom_bond_site_symmetry_1
_geom_bond_site_symmetry_2
C1 C2 1_555 1_555
C2 H1 1_555 1_555
C3 C2 1_555 1_555
H2 C3 1_555 1_555
C4 C3 1_555 1_555
C5 C4 1_555 1_555
H3 C5 1_555 1_555
C6 C1 1_555 1_555
H4 C6 1_555 1_555
C7 C8 1_555 1_555
C8 C9 1_555 1_555
C9 H5 1_555 1_555
C10 C9 1_555 1_555
H6 C10 1_555 1_555
C11 C10 1_555 1_555
H7 C11 1_555 1_555
C12 C11 1_555 1_555
C13 C12 1_555 1_555
C14 C15 1_555 1_555
C15 H8 1_555 1_555
C16 C15 1_555 1_555
H9 C16 1_555 1_555
C17 C16 1_555 1_555
C18 C17 1_555 1_555
H10 C18 1_555 1_555
C19 C14 1_555 1_555
H11 C19 1_555 1_555
C20 H12 1_555 1_555
H13 C20 1_555 1_555
H14 C20 1_555 1_555
C21 C20 1_555 1_555
H15 C21 1_555 1_555
H16 C21 1_555 1_555
O1 C21 1_555 1_555
H17 O1 1_555 1_555
N1 C1 1_555 1_555
H18 N1 1_555 1_555
H19 N1 1_555 1_555
N2 C4 1_555 1_555
H20 N2 1_555 1_555
N3 C8 1_555 1_555
N4 C13 1_555 1_555
H21 N4 1_555 1_555
N5 C17 1_555 1_555
H22 N5 1_555 1_555
H23 N5 1_555 1_555
O2 C7 1_555 1_555
O3 C13 1_555 1_555
C5 C6 1_555 1_555
C7 N2 1_555 1_555
C12 N3 1_555 1_555
C14 N4 1_555 1_555
C18 C19 1_555 1_555

#END
