
#######################################################################
#
#                 Cambridge Crystallographic Data Centre
#                                CCDC 
#
#######################################################################
#
# If this CIF has been generated from an entry in the Cambridge 
# Structural Database, then it will include bibliographic, chemical, 
# crystal, experimental, refinement or atomic coordinate data resulting 
# from the CCDC's data processing and validation procedures.
#
#######################################################################

data_SEDRIE
_chemical_formula_moiety         'C10 H5 Br3 O3'
_chemical_name_systematic        
3,6,8-Tribromo-7-hydroxy-4-methyl-2H-chromen-2-one
_symmetry_cell_setting           orthorhombic
_symmetry_space_group_name_H-M   'P b c a'
_symmetry_Int_Tables_number      61
_space_group_name_Hall           '-P 2ac 2ab'
loop_
_symmetry_equiv_pos_site_id
_symmetry_equiv_pos_as_xyz
1 x,y,z
2 1/2-x,-y,1/2+z
3 1/2+x,1/2-y,-z
4 -x,1/2+y,1/2-z
5 -x,-y,-z
6 1/2+x,y,1/2-z
7 1/2-x,1/2+y,z
8 x,1/2-y,1/2+z
_cell_length_a                   8.3346(9)
_cell_length_b                   16.2420(19)
_cell_length_c                   16.726(2)
_cell_angle_alpha                90
_cell_angle_beta                 90
_cell_angle_gamma                90
_cell_volume                     2264.21
_cell_formula_units_Z            8
loop_
_atom_site_label
_atom_site_type_symbol
_atom_site_fract_x
_atom_site_fract_y
_atom_site_fract_z
Br1 Br 0.66561(12) 0.05129(6) 1.15564(5)
Br2 Br 0.86697(13) -0.07283(6) 0.85690(4)
Br3 Br 0.39780(14) 0.26695(6) 0.73430(5)
O1 O 0.8382(8) -0.0620(3) 1.0324(3)
H1 H 0.8276 -0.0616 1.0812
C1 C 0.5799(11) 0.1182(6) 1.0055(4)
H2 H 0.5206 0.1546 1.0366
O2 O 0.6761(7) 0.0702(4) 0.7976(3)
C2 C 0.6663(10) 0.0576(5) 1.0426(4)
O3 O 0.5995(8) 0.1230(4) 0.6822(3)
C3 C 0.7574(13) -0.0001(6) 1.0012(4)
C4 C 0.7563(13) 0.0070(5) 0.9159(4)
C5 C 0.6705(10) 0.0680(5) 0.8804(4)
C6 C 0.5921(12) 0.1277(5) 0.7550(5)
C7 C 0.4968(12) 0.1881(5) 0.7990(4)
C8 C 0.4887(11) 0.1880(5) 0.8795(4)
C9 C 0.5779(10) 0.1271(5) 0.9217(4)
C10 C 0.3859(11) 0.2452(5) 0.9238(5)
H3 H 0.3352 0.2824 0.8870
H4 H 0.4499 0.2759 0.9611
H5 H 0.3054 0.2148 0.9522
loop_
_geom_bond_atom_site_label_1
_geom_bond_atom_site_label_2
_geom_bond_site_symmetry_1
_geom_bond_site_symmetry_2
Br1 C2 1_555 1_555
Br2 C4 1_555 1_555
Br3 C7 1_555 1_555
O1 H1 1_555 1_555
C1 H2 1_555 1_555
O2 C5 1_555 1_555
C2 C1 1_555 1_555
O3 C6 1_555 1_555
C3 O1 1_555 1_555
C4 C3 1_555 1_555
C5 C4 1_555 1_555
C6 O2 1_555 1_555
C7 C6 1_555 1_555
C8 C7 1_555 1_555
C9 C1 1_555 1_555
C10 C8 1_555 1_555
H3 C10 1_555 1_555
H4 C10 1_555 1_555
H5 C10 1_555 1_555
C2 C3 1_555 1_555
C5 C9 1_555 1_555
C8 C9 1_555 1_555

#END
