
#######################################################################
#
#                 Cambridge Crystallographic Data Centre
#                                CCDC 
#
#######################################################################
#
# If this CIF has been generated from an entry in the Cambridge 
# Structural Database, then it will include bibliographic, chemical, 
# crystal, experimental, refinement or atomic coordinate data resulting 
# from the CCDC's data processing and validation procedures.
#
#######################################################################

data_SEDSEA
_chemical_name_common            
1-Methylene-2,8,9-trimethyl-1-phospha-2,5,8,9-tetra-azabicyclo(3.3.3)undecane
_chemical_formula_moiety         'C10 H23 N4 P1'
_chemical_name_systematic        N,N',N''-Trimethyl-P-methyleneazaphosphatrane
_symmetry_cell_setting           monoclinic
_symmetry_space_group_name_H-M   'P 21/c'
_symmetry_Int_Tables_number      14
_space_group_name_Hall           '-P 2ybc'
loop_
_symmetry_equiv_pos_site_id
_symmetry_equiv_pos_as_xyz
1 x,y,z
2 -x,1/2+y,1/2-z
3 -x,-y,-z
4 x,1/2-y,1/2+z
_cell_length_a                   13.3520(17)
_cell_length_b                   14.1997(19)
_cell_length_c                   13.8056(18)
_cell_angle_alpha                90
_cell_angle_beta                 110.457(3)
_cell_angle_gamma                90
_cell_volume                     2452.39
_exptl_crystal_colour            colorless
_exptl_crystal_description       prism
_chemical_melting_point          'sublimes at 80deg.C'
_cell_formula_units_Z            8
_chemical_properties_physical    'highly air- and moisture-sensitive'
loop_
_atom_site_label
_atom_site_type_symbol
_atom_site_fract_x
_atom_site_fract_y
_atom_site_fract_z
C1 C -0.14125(14) 0.16786(13) 0.39578(15)
C2 C 0.11223(12) 0.10390(10) 0.47000(11)
C3 C 0.15490(10) 0.26816(9) 0.43838(10)
C4 C 0.19927(10) 0.28016(10) 0.35087(11)
C5 C -0.08413(14) 0.38703(11) 0.40047(12)
C6 C -0.05955(11) 0.36795(9) 0.23250(10)
C7 C 0.05580(12) 0.38644(9) 0.24024(11)
C8 C -0.15852(11) 0.14673(10) 0.15306(11)
C9 C 0.03862(10) 0.14261(9) 0.20896(10)
C10 C 0.08485(11) 0.22942(9) 0.17426(10)
N1 N 0.07464(8) 0.19458(7) 0.42281(8)
N2 N -0.07119(9) 0.32284(7) 0.32329(8)
N3 N -0.05644(8) 0.15833(7) 0.23678(8)
N4 N 0.12077(9) 0.30302(8) 0.25110(9)
P1 P -0.05244(2) 0.20863(2) 0.34710(2)
H2 H -0.132(2) 0.110(2) 0.418(2)
H3 H -0.198(2) 0.200(2) 0.391(2)
H4 H 0.0556(17) 0.0607(15) 0.4571(16)
H5 H 0.1433(15) 0.1090(13) 0.5467(15)
H6 H 0.1651(16) 0.0783(14) 0.4476(15)
H7 H 0.2149(13) 0.2550(11) 0.5033(13)
H8 H 0.1261(12) 0.3297(11) 0.4504(12)
H9 H 0.2534(13) 0.3314(12) 0.3734(13)
H10 H 0.2346(13) 0.2205(12) 0.3436(13)
H11 H -0.0210(17) 0.4294(15) 0.4279(15)
H12 H -0.1475(17) 0.4275(15) 0.3701(16)
H13 H -0.0912(15) 0.3534(14) 0.4532(16)
H14 H -0.0976(12) 0.4273(11) 0.2203(12)
H15 H -0.0910(12) 0.3284(11) 0.1715(13)
H16 H 0.0903(14) 0.4277(12) 0.2994(13)
H17 H 0.0510(13) 0.4213(12) 0.1775(13)
H18 H -0.1687(14) 0.1933(13) 0.0980(14)
H19 H -0.2147(15) 0.1560(13) 0.1786(15)
H20 H -0.1626(14) 0.0859(14) 0.1232(14)
H21 H 0.0924(12) 0.1148(10) 0.2666(12)
H22 H 0.0169(12) 0.0990(11) 0.1522(12)
H23 H 0.1433(13) 0.2090(11) 0.1538(12)
H24 H 0.0336(14) 0.2562(12) 0.1134(14)
C11 C 0.66704(15) -0.04658(13) 0.67711(15)
C12 C 0.63150(13) 0.18306(10) 0.66086(13)
C13 C 0.43985(11) 0.15781(10) 0.63573(11)
C14 C 0.40775(12) 0.19167(10) 0.72574(12)
C15 C 0.68180(14) -0.04668(12) 0.91244(13)
C16 C 0.61226(11) 0.11631(10) 0.89246(11)
C17 C 0.50104(12) 0.12373(11) 0.90012(11)
C18 C 0.41111(14) -0.08306(12) 0.58834(12)
C19 C 0.41071(11) -0.05233(9) 0.76444(11)
C20 C 0.34997(11) 0.03662(11) 0.77328(13)
H1 H 0.6974(19) 0.1490(16) 0.6696(18)
N5 N 0.54774(8) 0.11903(7) 0.66471(8)
N6 N 0.63050(9) 0.03035(8) 0.84315(9)
N7 N 0.46651(9) -0.04465(8) 0.69088(9)
N8 N 0.41536(9) 0.11999(8) 0.80184(9)
P2 P 0.58125(2) 0.01231(2) 0.71625(2)
H25 H 0.6400(17) -0.0822(15) 0.6226(17)
H26 H 0.7237(18) -0.0271(15) 0.6939(17)
H27 H 0.6459(16) 0.2313(14) 0.7112(16)
H28 H 0.4373(13) 0.2108(12) 0.5883(13)
H29 H 0.3879(13) 0.1097(12) 0.5980(13)
H30 H 0.4533(14) 0.2441(13) 0.7585(14)
H31 H 0.3345(15) 0.2160(13) 0.6960(15)
H32 H 0.6416(17) -0.0647(15) 0.9546(16)
H33 H 0.7497(19) -0.0300(16) 0.9556(18)
H34 H 0.6877(16) -0.0983(16) 0.8737(17)
H35 H 0.6220(13) 0.1727(12) 0.8544(13)
H36 H 0.6663(14) 0.1195(12) 0.9623(14)
H37 H 0.4912(14) 0.0709(13) 0.9422(13)
H38 H 0.4988(14) 0.1836(12) 0.9361(13)
H39 H 0.3990(18) -0.1533(17) 0.5894(17)
H40 H 0.4500(19) -0.0720(16) 0.5447(18)
H41 H 0.3371(19) -0.0557(16) 0.5567(18)
H42 H 0.3617(13) -0.1034(12) 0.7426(13)
H43 H 0.4621(12) -0.0696(11) 0.8325(12)
H44 H 0.3183(14) 0.0230(13) 0.8238(14)
H45 H 0.2919(14) 0.0478(12) 0.7061(13)
H46 H 0.6129(17) 0.2143(15) 0.5932(17)
loop_
_geom_bond_atom_site_label_1
_geom_bond_atom_site_label_2
_geom_bond_site_symmetry_1
_geom_bond_site_symmetry_2
C1 P1 1_555 1_555
C2 N1 1_555 1_555
C3 C4 1_555 1_555
C4 N4 1_555 1_555
C5 N2 1_555 1_555
C6 C7 1_555 1_555
C7 N4 1_555 1_555
C8 N3 1_555 1_555
C9 C10 1_555 1_555
C10 N4 1_555 1_555
C11 P2 1_555 1_555
C12 H1 1_555 1_555
C13 C14 1_555 1_555
C14 N8 1_555 1_555
C15 N6 1_555 1_555
C16 C17 1_555 1_555
C17 N8 1_555 1_555
C18 N7 1_555 1_555
C19 C20 1_555 1_555
C20 N8 1_555 1_555
N1 C3 1_555 1_555
N2 C6 1_555 1_555
N3 C9 1_555 1_555
N5 C12 1_555 1_555
N6 C16 1_555 1_555
N7 C19 1_555 1_555
P1 N1 1_555 1_555
P2 N5 1_555 1_555
H2 C1 1_555 1_555
H3 C1 1_555 1_555
H4 C2 1_555 1_555
H5 C2 1_555 1_555
H6 C2 1_555 1_555
H7 C3 1_555 1_555
H8 C3 1_555 1_555
H9 C4 1_555 1_555
H10 C4 1_555 1_555
H11 C5 1_555 1_555
H12 C5 1_555 1_555
H13 C5 1_555 1_555
H14 C6 1_555 1_555
H15 C6 1_555 1_555
H16 C7 1_555 1_555
H17 C7 1_555 1_555
H18 C8 1_555 1_555
H19 C8 1_555 1_555
H20 C8 1_555 1_555
H21 C9 1_555 1_555
H22 C9 1_555 1_555
H23 C10 1_555 1_555
H24 C10 1_555 1_555
H25 C11 1_555 1_555
H26 C11 1_555 1_555
H27 C12 1_555 1_555
H28 C13 1_555 1_555
H29 C13 1_555 1_555
H30 C14 1_555 1_555
H31 C14 1_555 1_555
H32 C15 1_555 1_555
H33 C15 1_555 1_555
H34 C15 1_555 1_555
H35 C16 1_555 1_555
H36 C16 1_555 1_555
H37 C17 1_555 1_555
H38 C17 1_555 1_555
H39 C18 1_555 1_555
H40 C18 1_555 1_555
H41 C18 1_555 1_555
H42 C19 1_555 1_555
H43 C19 1_555 1_555
H44 C20 1_555 1_555
H45 C20 1_555 1_555
H46 C12 1_555 1_555
C13 N5 1_555 1_555
N2 P1 1_555 1_555
N3 P1 1_555 1_555
N6 P2 1_555 1_555
N7 P2 1_555 1_555

#END
