
#######################################################################
#
#                 Cambridge Crystallographic Data Centre
#                                CCDC 
#
#######################################################################
#
# If this CIF has been generated from an entry in the Cambridge 
# Structural Database, then it will include bibliographic, chemical, 
# crystal, experimental, refinement or atomic coordinate data resulting 
# from the CCDC's data processing and validation procedures.
#
#######################################################################

data_SEDSAX
_chemical_formula_moiety         'C19 H22 N1 O6 1+,Br1 1-'
_chemical_name_systematic        
'N-((7-Acetoxy-2-oxo-2H-chromen-4-yl)methyl)-2-(acryloyloxy)-N,N-dimethylethanaminium bromide'
_symmetry_cell_setting           monoclinic
_symmetry_space_group_name_H-M   'C 2/c'
_symmetry_Int_Tables_number      15
_space_group_name_Hall           '-C 2yn'
loop_
_symmetry_equiv_pos_site_id
_symmetry_equiv_pos_as_xyz
1 x,y,z
2 -x,y,1/2-z
3 1/2+x,1/2+y,z
4 1/2-x,1/2+y,1/2-z
5 -x,-y,-z
6 x,-y,1/2+z
7 1/2-x,1/2-y,-z
8 1/2+x,1/2-y,1/2+z
_cell_length_a                   22.799(5)
_cell_length_b                   12.122(2)
_cell_length_c                   14.580(3)
_cell_angle_alpha                90
_cell_angle_beta                 90.76(3)
_cell_angle_gamma                90
_cell_volume                     4029.11
_cell_formula_units_Z            8
loop_
_atom_site_label
_atom_site_type_symbol
_atom_site_fract_x
_atom_site_fract_y
_atom_site_fract_z
Br1 Br 0.29571(3) 0.62770(5) 0.16191(4)
N1 N 0.32170(17) 0.3845(3) 0.3567(3)
C1 C 0.3319(4) 0.9197(8) 0.4461(5)
H1 H 0.3717 0.9348 0.4529
H2 H 0.3050 0.9773 0.4423
O1 O 0.4065(3) 0.7310(5) 0.4572(5)
O2 O 0.3283(2) 0.6288(4) 0.4562(4)
C2 C 0.3142(4) 0.8207(7) 0.4418(5)
H3 H 0.2740 0.8102 0.4349
O3 O 0.49957(18) 0.4340(4) 0.1113(3)
C3 C 0.3506(5) 0.7206(8) 0.4466(6)
O4 O 0.48198(15) 0.2592(3) 0.1357(2)
C4 C 0.3668(3) 0.5303(4) 0.4597(3)
H4 H 0.3533 0.4786 0.5056
H5 H 0.4069 0.5512 0.4747
O5 O 0.4504(2) -0.1232(3) 0.1740(3)
C5 C 0.3633(3) 0.4803(4) 0.3669(3)
H6 H 0.4022 0.4557 0.3502
H7 H 0.3515 0.5371 0.3236
C6 C 0.3430(3) 0.2882(4) 0.4152(3)
H8 H 0.3467 0.3114 0.4780
H9 H 0.3805 0.2638 0.3938
H10 H 0.3153 0.2288 0.4108
O6 O 0.4242(3) -0.1360(4) 0.0291(4)
C7 C 0.2623(2) 0.4154(5) 0.3857(4)
H11 H 0.2635 0.4389 0.4486
H12 H 0.2366 0.3529 0.3796
H13 H 0.2479 0.4746 0.3479
C8 C 0.3167(2) 0.3479(4) 0.2564(3)
H14 H 0.2898 0.2861 0.2523
H15 H 0.3001 0.4079 0.2205
C9 C 0.3747(2) 0.3142(4) 0.2148(3)
C10 C 0.4095(2) 0.3922(4) 0.1788(3)
H16 H 0.3973 0.4654 0.1793
C11 C 0.4656(2) 0.3648(5) 0.1395(4)
C12 C 0.4452(2) 0.1768(5) 0.1654(3)
C13 C 0.3920(2) 0.1980(4) 0.2052(3)
C14 C 0.4655(3) 0.0687(6) 0.1504(4)
H17 H 0.5010 0.0559 0.1216
C15 C 0.4314(3) -0.0170(5) 0.1798(4)
C16 C 0.3777(3) 0.0046(5) 0.2231(4)
H18 H 0.3553 -0.0539 0.2445
C17 C 0.3586(2) 0.1069(4) 0.2338(4)
H19 H 0.3224 0.1188 0.2609
C18 C 0.4427(3) -0.1791(6) 0.0947(5)
C19 C 0.4614(3) -0.2966(5) 0.1052(5)
H20 H 0.4561 -0.3345 0.0479
H21 H 0.4381 -0.3316 0.1513
H22 H 0.5020 -0.2993 0.1233
loop_
_geom_bond_atom_site_label_1
_geom_bond_atom_site_label_2
_geom_bond_site_symmetry_1
_geom_bond_site_symmetry_2
N1 C5 1_555 1_555
C1 H1 1_555 1_555
H2 C1 1_555 1_555
O1 C3 1_555 1_555
O2 C3 1_555 1_555
C2 C1 1_555 1_555
H3 C2 1_555 1_555
O3 C11 1_555 1_555
C3 C2 1_555 1_555
O4 C11 1_555 1_555
C4 O2 1_555 1_555
H4 C4 1_555 1_555
H5 C4 1_555 1_555
O5 C15 1_555 1_555
C5 C4 1_555 1_555
H6 C5 1_555 1_555
H7 C5 1_555 1_555
C6 N1 1_555 1_555
H8 C6 1_555 1_555
H9 C6 1_555 1_555
H10 C6 1_555 1_555
O6 C18 1_555 1_555
C7 N1 1_555 1_555
H11 C7 1_555 1_555
H12 C7 1_555 1_555
H13 C7 1_555 1_555
C8 N1 1_555 1_555
H14 C8 1_555 1_555
H15 C8 1_555 1_555
C9 C8 1_555 1_555
C10 C9 1_555 1_555
H16 C10 1_555 1_555
C11 C10 1_555 1_555
C12 O4 1_555 1_555
C13 C9 1_555 1_555
C14 C12 1_555 1_555
H17 C14 1_555 1_555
C15 C14 1_555 1_555
C16 C15 1_555 1_555
H18 C16 1_555 1_555
C17 C13 1_555 1_555
H19 C17 1_555 1_555
C18 O5 1_555 1_555
C19 C18 1_555 1_555
H20 C19 1_555 1_555
H21 C19 1_555 1_555
H22 C19 1_555 1_555
C12 C13 1_555 1_555
C16 C17 1_555 1_555

#END
