
#######################################################################
#
#                 Cambridge Crystallographic Data Centre
#                                CCDC 
#
#######################################################################
#
# If this CIF has been generated from an entry in the Cambridge 
# Structural Database, then it will include bibliographic, chemical, 
# crystal, experimental, refinement or atomic coordinate data resulting 
# from the CCDC's data processing and validation procedures.
#
#######################################################################

data_SEDWOO
_chemical_formula_moiety         'C21 H15 N1'
_chemical_name_systematic        5-(1-naphthyl)-2-phenylpyridine
_symmetry_cell_setting           monoclinic
_symmetry_space_group_name_H-M   'P 21'
_symmetry_Int_Tables_number      4
_space_group_name_Hall           'P 2yb'
loop_
_symmetry_equiv_pos_site_id
_symmetry_equiv_pos_as_xyz
1 x,y,z
2 -x,1/2+y,-z
_cell_length_a                   7.099(1)
_cell_length_b                   12.943(2)
_cell_length_c                   7.928(1)
_cell_angle_alpha                90
_cell_angle_beta                 100.02(1)
_cell_angle_gamma                90
_cell_volume                     717.332
_exptl_crystal_colour            colorless
_exptl_crystal_description       plate
_chemical_melting_point          '130-132 deg.C'
_cell_formula_units_Z            2
loop_
_atom_site_label
_atom_site_type_symbol
_atom_site_fract_x
_atom_site_fract_y
_atom_site_fract_z
N1 N 0.4131(2) 0.60530(12) 0.2956(2)
C1 C 0.3246(2) 0.52836(13) 0.1994(2)
C2 C 0.1296(3) 0.53336(15) 0.1306(2)
H1 H 0.062(4) 0.475(2) 0.068(4)
C3 C 0.0258(3) 0.62028(15) 0.1611(2)
H2 H -0.107(4) 0.627(2) 0.118(4)
C4 C 0.1154(2) 0.70089(13) 0.2596(2)
C5 C 0.3103(3) 0.68728(14) 0.3249(2)
H3 H 0.376(4) 0.742(2) 0.394(4)
C6 C 0.0097(2) 0.79285(13) 0.3037(2)
C7 C -0.1603(2) 0.77854(14) 0.3622(2)
H4 H -0.217(4) 0.708(2) 0.375(4)
C8 C -0.2611(3) 0.86211(16) 0.4177(2)
H5 H -0.383(4) 0.849(2) 0.465(3)
C9 C -0.1923(3) 0.96050(15) 0.4125(2)
H6 H -0.254(4) 1.019(2) 0.453(4)
C10 C 0.0509(3) 1.08163(14) 0.3430(2)
H7 H -0.022(4) 1.138(2) 0.384(4)
C11 C 0.2148(3) 1.10122(14) 0.2804(2)
H8 H 0.267(4) 1.170(3) 0.278(4)
C12 C 0.3134(3) 1.01930(15) 0.2176(2)
H9 H 0.427(4) 1.029(2) 0.166(4)
C13 C 0.2485(3) 0.91930(14) 0.2225(2)
H10 H 0.319(4) 0.862(2) 0.177(3)
C14 C 0.0818(2) 0.89598(13) 0.2922(2)
C15 C -0.0209(3) 0.97957(13) 0.3493(2)
C16 C 0.4433(2) 0.43604(14) 0.1763(2)
C17 C 0.3747(3) 0.35728(14) 0.0616(2)
H11 H 0.249(4) 0.362(2) -0.016(3)
C18 C 0.4859(3) 0.27052(14) 0.0457(2)
H12 H 0.436(3) 0.219(2) -0.035(4)
C19 C 0.6678(3) 0.26155(16) 0.1431(2)
H13 H 0.748(4) 0.197(3) 0.134(4)
C20 C 0.7382(3) 0.33993(17) 0.2553(3)
H14 H 0.859(5) 0.330(3) 0.330(4)
C21 C 0.6275(3) 0.42677(15) 0.2728(2)
H15 H 0.681(4) 0.483(3) 0.355(4)
loop_
_geom_bond_atom_site_label_1
_geom_bond_atom_site_label_2
_geom_bond_site_symmetry_1
_geom_bond_site_symmetry_2
N1 C1 1_555 1_555
C1 C2 1_555 1_555
C2 H1 1_555 1_555
C3 C2 1_555 1_555
H2 C3 1_555 1_555
C4 C3 1_555 1_555
C5 N1 1_555 1_555
H3 C5 1_555 1_555
C6 C4 1_555 1_555
C7 C6 1_555 1_555
H4 C7 1_555 1_555
C8 C7 1_555 1_555
H5 C8 1_555 1_555
C9 C8 1_555 1_555
H6 C9 1_555 1_555
C10 H7 1_555 1_555
C11 C10 1_555 1_555
H8 C11 1_555 1_555
C12 C11 1_555 1_555
H9 C12 1_555 1_555
C13 C12 1_555 1_555
H10 C13 1_555 1_555
C14 C6 1_555 1_555
C15 C9 1_555 1_555
C16 C1 1_555 1_555
C17 C16 1_555 1_555
H11 C17 1_555 1_555
C18 C17 1_555 1_555
H12 C18 1_555 1_555
C19 C18 1_555 1_555
H13 C19 1_555 1_555
C20 C19 1_555 1_555
H14 C20 1_555 1_555
C21 C16 1_555 1_555
H15 C21 1_555 1_555
C4 C5 1_555 1_555
C10 C15 1_555 1_555
C13 C14 1_555 1_555
C14 C15 1_555 1_555
C20 C21 1_555 1_555

#END
