
#######################################################################
#
#                 Cambridge Crystallographic Data Centre
#                                CCDC 
#
#######################################################################
#
# If this CIF has been generated from an entry in the Cambridge 
# Structural Database, then it will include bibliographic, chemical, 
# crystal, experimental, refinement or atomic coordinate data resulting 
# from the CCDC's data processing and validation procedures.
#
#######################################################################

data_SEDWAA
_chemical_formula_moiety         'C24 H28 N2,C6 F6'
_chemical_name_systematic        
"4,4'-di-t-butyl-6-phenyl-2,2'-bipyridine hexafluorobenzene solvate"
_symmetry_cell_setting           orthorhombic
_symmetry_space_group_name_H-M   'P n m a'
_symmetry_Int_Tables_number      62
_space_group_name_Hall           '-P 2ac 2n'
loop_
_symmetry_equiv_pos_site_id
_symmetry_equiv_pos_as_xyz
1 x,y,z
2 1/2-x,-y,1/2+z
3 1/2+x,1/2-y,1/2-z
4 -x,1/2+y,-z
5 -x,-y,-z
6 1/2+x,y,1/2-z
7 1/2-x,1/2+y,1/2+z
8 x,1/2-y,z
_cell_length_a                   27.2125(17)
_cell_length_b                   6.7353(5)
_cell_length_c                   14.3175(10)
_cell_angle_alpha                90
_cell_angle_beta                 90
_cell_angle_gamma                90
_cell_volume                     2624.17
_exptl_crystal_colour            colorless
_exptl_crystal_description       plate
_cell_formula_units_Z            4
loop_
_atom_site_label
_atom_site_type_symbol
_atom_site_fract_x
_atom_site_fract_y
_atom_site_fract_z
N1 N 0.49637(6) 0.7500 0.40337(11)
N2 N 0.36613(5) 0.7500 0.35818(11)
C1 C 0.26696(7) 0.7500 0.40194(15)
H1 H 0.2928(8) 0.7500 0.4509(17)
C2 C 0.21738(8) 0.7500 0.42573(17)
H2 H 0.2087(9) 0.7500 0.4907(19)
C3 C 0.18180(8) 0.7500 0.35651(17)
H3 H 0.1469(9) 0.7500 0.3710(18)
C4 C 0.19567(8) 0.7500 0.26375(17)
H4 H 0.1722(10) 0.7500 0.2177(18)
C5 C 0.24518(7) 0.7500 0.23953(16)
H5 H 0.2537(9) 0.7500 0.1734(19)
C6 C 0.28169(7) 0.7500 0.30845(14)
C7 C 0.33509(7) 0.7500 0.28448(13)
C8 C 0.35194(7) 0.7500 0.19273(14)
H6 H 0.3270(7) 0.7500 0.1396(15)
C9 C 0.40253(7) 0.7500 0.17366(13)
C10 C 0.43368(7) 0.7500 0.25004(13)
H7 H 0.4670(8) 0.7500 0.2428(15)
C11 C 0.41447(7) 0.7500 0.34044(13)
C12 C 0.44777(7) 0.7500 0.42294(13)
C13 C 0.42962(7) 0.7500 0.51361(13)
H8 H 0.3949(8) 0.7500 0.5240(15)
C14 C 0.46169(7) 0.7500 0.58968(13)
C15 C 0.51157(7) 0.7500 0.56891(14)
H9 H 0.5366(8) 0.7500 0.6149(16)
C16 C 0.52678(7) 0.7500 0.47620(14)
H10 H 0.5629(8) 0.7500 0.4598(16)
C17 C 0.44207(7) 0.7500 0.68973(14)
C18 C 0.48353(9) 0.7500 0.76173(16)
H11 H 0.4700(9) 0.7500 0.8278(18)
H12 H 0.5046(6) 0.869(3) 0.7555(12)
C19 C 0.41044(6) 0.9369(2) 0.70490(11)
H13 H 0.3830(6) 0.942(3) 0.6607(12)
H14 H 0.3960(6) 0.936(3) 0.7706(13)
H15 H 0.4304(6) 1.061(3) 0.6967(13)
C20 C 0.42079(7) 0.7500 0.07269(13)
C21 C 0.40153(7) 0.5637(3) 0.02297(12)
H16 H 0.4138(6) 0.561(3) -0.0406(14)
H17 H 0.4134(6) 0.444(3) 0.0538(13)
H18 H 0.3650(7) 0.564(3) 0.0196(13)
C22 C 0.47709(8) 0.7500 0.06771(16)
H19 H 0.4875(9) 0.7500 0.0013(19)
H20 H 0.4912(6) 0.872(2) 0.0991(12)
H12G H 0.5046(6) 0.631(3) 0.7555(12)
C19G C 0.41044(6) 0.5631(2) 0.70490(11)
H13G H 0.3830(6) 0.558(3) 0.6607(12)
H14G H 0.3960(6) 0.564(3) 0.7706(13)
H15G H 0.4304(6) 0.439(3) 0.6967(13)
C21G C 0.40153(7) 0.9363(3) 0.02297(12)
H16G H 0.4138(6) 0.939(3) -0.0406(14)
H17G H 0.4134(6) 1.056(3) 0.0538(13)
H18G H 0.3650(7) 0.936(3) 0.0196(13)
H20G H 0.4912(6) 0.628(2) 0.0991(12)
C23 C 0.31234(9) 0.2500 0.40645(18)
C24 C 0.33306(8) 0.2500 0.31848(18)
C25 C 0.30321(8) 0.2500 0.24147(16)
C26 C 0.25296(8) 0.2500 0.25087(16)
C27 C 0.23242(8) 0.2500 0.33838(17)
C28 C 0.26204(9) 0.2500 0.41555(17)
F1 F 0.34090(7) 0.2500 0.48236(12)
F2 F 0.38180(5) 0.2500 0.30785(13)
F3 F 0.32340(6) 0.2500 0.15575(11)
F4 F 0.22451(5) 0.2500 0.17490(11)
F5 F 0.18356(5) 0.2500 0.34824(12)
F6 F 0.24149(7) 0.2500 0.50067(11)
loop_
_geom_bond_atom_site_label_1
_geom_bond_atom_site_label_2
_geom_bond_site_symmetry_1
_geom_bond_site_symmetry_2
N1 C12 1_555 1_555
N2 C7 1_555 1_555
C1 H1 1_555 1_555
C2 C1 1_555 1_555
H2 C2 1_555 1_555
C3 C2 1_555 1_555
H3 C3 1_555 1_555
C4 C3 1_555 1_555
H4 C4 1_555 1_555
C5 C4 1_555 1_555
H5 C5 1_555 1_555
C6 C1 1_555 1_555
C7 C6 1_555 1_555
C8 C7 1_555 1_555
H6 C8 1_555 1_555
C9 C8 1_555 1_555
C10 C9 1_555 1_555
H7 C10 1_555 1_555
C11 N2 1_555 1_555
C12 C11 1_555 1_555
C13 C12 1_555 1_555
H8 C13 1_555 1_555
C14 C13 1_555 1_555
C15 C14 1_555 1_555
H9 C15 1_555 1_555
C16 N1 1_555 1_555
H10 C16 1_555 1_555
C17 C14 1_555 1_555
C18 C17 1_555 1_555
H11 C18 1_555 1_555
H12 C18 1_555 1_555
C19 C17 1_555 1_555
H13 C19 1_555 1_555
H14 C19 1_555 1_555
H15 C19 1_555 1_555
C20 C9 1_555 1_555
C21 C20 1_555 1_555
H16 C21 1_555 1_555
H17 C21 1_555 1_555
H18 C21 1_555 1_555
C22 C20 1_555 1_555
H19 C22 1_555 1_555
H20 C22 1_555 1_555
C23 C24 1_555 1_555
C24 C25 1_555 1_555
C25 C26 1_555 1_555
C26 C27 1_555 1_555
C27 C28 1_555 1_555
C28 C23 1_555 1_555
F1 C23 1_555 1_555
F2 C24 1_555 1_555
F3 C25 1_555 1_555
F4 C26 1_555 1_555
F5 C27 1_555 1_555
F6 C28 1_555 1_555
H12G C18 1_555 1_555
C19G C17 1_555 1_555
H13G C19G 1_555 1_555
H14G C19G 1_555 1_555
H15G C19G 1_555 1_555
C21G C20 1_555 1_555
H16G C21G 1_555 1_555
H17G C21G 1_555 1_555
H18G C21G 1_555 1_555
H20G C22 1_555 1_555
C5 C6 1_555 1_555
C10 C11 1_555 1_555
C15 C16 1_555 1_555

#END
