
#######################################################################
#
#                 Cambridge Crystallographic Data Centre
#                                CCDC 
#
#######################################################################
#
# If this CIF has been generated from an entry in the Cambridge 
# Structural Database, then it will include bibliographic, chemical, 
# crystal, experimental, refinement or atomic coordinate data resulting 
# from the CCDC's data processing and validation procedures.
#
#######################################################################

data_SEDWEF
_chemical_formula_moiety         'C25 H21 N1 O4 S1'
_chemical_name_systematic        
(Z)-3-Benzyl-5-(4-(benzyloxy)-3-methoxybenzylidene)-1,3-thiazolidine-2,4-dione
_symmetry_cell_setting           triclinic
_symmetry_space_group_name_H-M   'P -1'
_symmetry_Int_Tables_number      2
_space_group_name_Hall           '-P 1'
loop_
_symmetry_equiv_pos_site_id
_symmetry_equiv_pos_as_xyz
1 x,y,z
2 -x,-y,-z
_cell_length_a                   9.098(4)
_cell_length_b                   10.585(5)
_cell_length_c                   11.609(5)
_cell_angle_alpha                80.549(6)
_cell_angle_beta                 88.159(6)
_cell_angle_gamma                71.587(5)
_cell_volume                     1046.11
_exptl_crystal_colour            yellow
_exptl_crystal_description       block
_cell_formula_units_Z            2
_exptl_crystal_recrystallization_method butanone
loop_
_atom_site_label
_atom_site_type_symbol
_atom_site_fract_x
_atom_site_fract_y
_atom_site_fract_z
S1 S 0.12279(15) 0.87127(12) 0.61174(12)
N1 N 0.3091(5) 0.8646(4) 0.7805(3)
O1 O 0.0982(4) 1.0575(3) 0.7434(4)
O2 O 0.4905(4) 0.6594(3) 0.7910(3)
O3 O 0.2550(4) 0.2521(3) 0.4205(3)
O4 O 0.0501(4) 0.4173(3) 0.2741(3)
C1 C 0.1720(6) 0.9497(5) 0.7213(4)
C2 C 0.3756(6) 0.7408(5) 0.7458(4)
C3 C 0.2799(5) 0.7277(4) 0.6489(3)
C4 C 0.3208(5) 0.6104(4) 0.6065(4)
H1 H 0.4102 0.5456 0.6401
C5 C 0.2438(5) 0.5683(4) 0.5132(4)
C6 C 0.2906(5) 0.4327(4) 0.5088(4)
H2 H 0.3678 0.3738 0.5601
C7 C 0.2232(5) 0.3826(5) 0.4279(4)
C8 C 0.1063(5) 0.4759(4) 0.3494(4)
C9 C 0.0597(5) 0.6116(4) 0.3545(4)
H3 H -0.0156 0.6720 0.3026
C10 C 0.1282(5) 0.6587(4) 0.4400(4)
H4 H 0.0952 0.7498 0.4465
C11 C 0.3720(6) 0.9093(5) 0.8759(4)
H5 H 0.4409 0.8311 0.9248
H6 H 0.2876 0.9523 0.9238
C12 C 0.4595(5) 1.0067(4) 0.8318(3)
C13 C 0.5936(5) 0.9662(5) 0.7705(4)
H7 H 0.6313 0.8781 0.7556
C14 C 0.6723(6) 1.0570(7) 0.7309(5)
H8 H 0.7646 1.0284 0.6916
C15 C 0.6162(6) 1.1885(6) 0.7487(4)
H9 H 0.6675 1.2498 0.7190
C16 C 0.4850(6) 1.2281(5) 0.8101(4)
H10 H 0.4486 1.3160 0.8255
C17 C 0.4058(5) 1.1398(5) 0.8497(4)
H11 H 0.3141 1.1696 0.8894
C18 C 0.3510(7) 0.1574(5) 0.5068(5)
H12 H 0.3644 0.0682 0.4911
H13 H 0.3046 0.1669 0.5816
H14 H 0.4499 0.1718 0.5070
C19 C -0.0634(5) 0.4960(4) 0.1891(4)
H15 H -0.0296 0.5675 0.1448
H16 H -0.1598 0.5368 0.2264
C20 C -0.0875(5) 0.4054(4) 0.1089(4)
C21 C 0.0109(6) 0.2768(4) 0.1104(4)
H17 H 0.0935 0.2419 0.1638
C22 C -0.0127(6) 0.1981(5) 0.0317(5)
H18 H 0.0549 0.1111 0.0331
C23 C -0.1319(6) 0.2461(6) -0.0465(4)
H19 H -0.1462 0.1932 -0.0990
C24 C -0.2300(6) 0.3723(6) -0.0474(4)
H20 H -0.3128 0.4058 -0.1007
C25 C -0.2099(5) 0.4523(5) 0.0293(4)
H21 H -0.2793 0.5387 0.0274
loop_
_geom_bond_atom_site_label_1
_geom_bond_atom_site_label_2
_geom_bond_site_symmetry_1
_geom_bond_site_symmetry_2
S1 C1 1_555 1_555
N1 C1 1_555 1_555
O1 C1 1_555 1_555
O2 C2 1_555 1_555
O3 C7 1_555 1_555
O4 C8 1_555 1_555
C2 N1 1_555 1_555
C3 S1 1_555 1_555
C4 C3 1_555 1_555
H1 C4 1_555 1_555
C5 C4 1_555 1_555
C6 C5 1_555 1_555
H2 C6 1_555 1_555
C7 C6 1_555 1_555
C8 C7 1_555 1_555
C9 C8 1_555 1_555
H3 C9 1_555 1_555
C10 C5 1_555 1_555
H4 C10 1_555 1_555
C11 N1 1_555 1_555
H5 C11 1_555 1_555
H6 C11 1_555 1_555
C12 C11 1_555 1_555
C13 C12 1_555 1_555
H7 C13 1_555 1_555
C14 C13 1_555 1_555
H8 C14 1_555 1_555
C15 C14 1_555 1_555
H9 C15 1_555 1_555
C16 C15 1_555 1_555
H10 C16 1_555 1_555
C17 C12 1_555 1_555
H11 C17 1_555 1_555
C18 O3 1_555 1_555
H12 C18 1_555 1_555
H13 C18 1_555 1_555
H14 C18 1_555 1_555
C19 O4 1_555 1_555
H15 C19 1_555 1_555
H16 C19 1_555 1_555
C20 C19 1_555 1_555
C21 C20 1_555 1_555
H17 C21 1_555 1_555
C22 C21 1_555 1_555
H18 C22 1_555 1_555
C23 C22 1_555 1_555
H19 C23 1_555 1_555
C24 C23 1_555 1_555
H20 C24 1_555 1_555
C25 C20 1_555 1_555
H21 C25 1_555 1_555
C2 C3 1_555 1_555
C9 C10 1_555 1_555
C16 C17 1_555 1_555
C24 C25 1_555 1_555

#END
