
#######################################################################
#
#                 Cambridge Crystallographic Data Centre
#                                CCDC 
#
#######################################################################
#
# If this CIF has been generated from an entry in the Cambridge 
# Structural Database, then it will include bibliographic, chemical, 
# crystal, experimental, refinement or atomic coordinate data resulting 
# from the CCDC's data processing and validation procedures.
#
#######################################################################

data_SEFDUF
_chemical_formula_moiety         'C27 H22 Br1 Cl1 N2 O6 S1'
_chemical_name_systematic        
'ethyl 2-{5-(4-bromophenyl)-3-(4-chlorophenyl)-1-[(4-nitrophenyl)sulfonyl]-2,3-dihydro-1H-pyrrol-2-yl}prop-2-enoate'
_symmetry_cell_setting           triclinic
_symmetry_space_group_name_H-M   'P -1'
_symmetry_Int_Tables_number      2
_space_group_name_Hall           '-P 1'
loop_
_symmetry_equiv_pos_site_id
_symmetry_equiv_pos_as_xyz
1 x,y,z
2 -x,-y,-z
_cell_length_a                   7.762(6)
_cell_length_b                   12.126(9)
_cell_length_c                   14.580(12)
_cell_angle_alpha                100.941(9)
_cell_angle_beta                 98.338(15)
_cell_angle_gamma                93.200(11)
_cell_volume                     1328.2
_exptl_crystal_colour            colorless
_exptl_crystal_description       Prism
_cell_formula_units_Z            2
loop_
_atom_site_label
_atom_site_type_symbol
_atom_site_fract_x
_atom_site_fract_y
_atom_site_fract_z
Br1 Br 0.03665(5) 0.15267(3) 1.12393(2)
S1 S 0.57785(9) 0.38792(6) 0.80353(5)
Cl1 Cl 0.17851(11) 0.82942(6) 0.54252(6)
O1 O 0.3151(3) 0.24672(18) 0.43885(15)
O2 O 0.2519(3) 0.06486(18) 0.44175(15)
O3 O 0.6004(3) 0.36486(18) 0.89695(15)
O4 O 0.7103(3) 0.36614(19) 0.74475(15)
O5 O 0.4077(4) 0.9211(2) 0.91110(19)
O6 O 0.4314(4) 0.9111(2) 0.7636(2)
N1 N 0.3995(3) 0.3123(2) 0.74333(17)
N2 N 0.4325(4) 0.8696(2) 0.8340(2)
C1 C 0.2736(4) 0.1931(3) 0.8947(2)
H1 H 0.3546 0.1546 0.8601
C2 C 0.2237(4) 0.1531(3) 0.9706(2)
H2 H 0.2684 0.0870 0.9874
C3 C 0.1078(4) 0.2108(3) 1.0216(2)
C4 C 0.0432(5) 0.3073(3) 0.9994(2)
H3 H -0.0341 0.3469 1.0360
C5 C 0.0929(4) 0.3462(3) 0.9224(2)
H4 H 0.0487 0.4127 0.9064
C6 C 0.2070(4) 0.2887(2) 0.8682(2)
C7 C 0.2341(4) 0.3215(2) 0.7785(2)
C8 C 0.1104(4) 0.3446(2) 0.7133(2)
H5 H -0.0081 0.3510 0.7216
C9 C 0.1799(4) 0.3594(2) 0.6248(2)
H6 H 0.1044 0.3093 0.5695
C10 C 0.3614(4) 0.3100(2) 0.6393(2)
H7 H 0.4526 0.3585 0.6202
C11 C 0.3582(4) 0.1886(2) 0.5872(2)
C12 C 0.4053(4) 0.1036(3) 0.6276(2)
H8 H 0.4067 0.0307 0.5899
H9 H 0.4377 0.1155 0.6944
C13 C 0.3069(4) 0.1711(2) 0.4822(2)
C14 C 0.1972(5) 0.0424(3) 0.3393(2)
H10 H 0.2997 0.0503 0.3070
H11 H 0.1135 0.0965 0.3217
C15 C 0.1122(5) -0.0760(3) 0.3104(3)
H12 H 0.1956 -0.1286 0.3290
H13 H 0.0758 -0.0943 0.2416
H14 H 0.0097 -0.0824 0.3418
C16 C 0.1845(4) 0.4793(2) 0.6075(2)
C17 C 0.2542(4) 0.5047(3) 0.5299(2)
H15 H 0.3027 0.4474 0.4900
C18 C 0.2537(4) 0.6125(3) 0.5105(2)
H16 H 0.3016 0.6291 0.4578
C19 C 0.1829(4) 0.6949(2) 0.5686(2)
C20 C 0.1133(4) 0.6727(3) 0.6461(2)
H17 H 0.0652 0.7306 0.6857
C21 C 0.1148(4) 0.5643(3) 0.6654(2)
H18 H 0.0677 0.5484 0.7185
C22 C 0.5370(4) 0.5313(2) 0.8129(2)
C23 C 0.5836(4) 0.5895(3) 0.7450(2)
H19 H 0.6402 0.5532 0.6954
C24 C 0.5462(4) 0.7008(3) 0.7509(2)
H20 H 0.5736 0.7419 0.7048
C25 C 0.4676(4) 0.7506(3) 0.8260(2)
C26 C 0.4216(4) 0.6944(3) 0.8944(2)
H21 H 0.3691 0.7319 0.9452
C27 C 0.4543(4) 0.5821(3) 0.8869(2)
H22 H 0.4210 0.5404 0.9314
loop_
_geom_bond_atom_site_label_1
_geom_bond_atom_site_label_2
_geom_bond_site_symmetry_1
_geom_bond_site_symmetry_2
Br1 C3 1_555 1_555
S1 O3 1_555 1_555
Cl1 C19 1_555 1_555
O1 C13 1_555 1_555
O2 C13 1_555 1_555
O4 S1 1_555 1_555
O5 N2 1_555 1_555
O6 N2 1_555 1_555
N1 S1 1_555 1_555
N2 C25 1_555 1_555
C1 H1 1_555 1_555
C2 C1 1_555 1_555
H2 C2 1_555 1_555
C3 C2 1_555 1_555
C4 C3 1_555 1_555
H3 C4 1_555 1_555
C5 C4 1_555 1_555
H4 C5 1_555 1_555
C6 C1 1_555 1_555
C7 N1 1_555 1_555
C8 C7 1_555 1_555
H5 C8 1_555 1_555
C9 C8 1_555 1_555
H6 C9 1_555 1_555
C10 N1 1_555 1_555
H7 C10 1_555 1_555
C11 C10 1_555 1_555
C12 C11 1_555 1_555
H8 C12 1_555 1_555
H9 C12 1_555 1_555
C13 C11 1_555 1_555
C14 O2 1_555 1_555
H10 C14 1_555 1_555
H11 C14 1_555 1_555
C15 C14 1_555 1_555
H12 C15 1_555 1_555
H13 C15 1_555 1_555
H14 C15 1_555 1_555
C16 C9 1_555 1_555
C17 C16 1_555 1_555
H15 C17 1_555 1_555
C18 C17 1_555 1_555
H16 C18 1_555 1_555
C19 C18 1_555 1_555
C20 C19 1_555 1_555
H17 C20 1_555 1_555
C21 C16 1_555 1_555
H18 C21 1_555 1_555
C22 S1 1_555 1_555
C23 C22 1_555 1_555
H19 C23 1_555 1_555
C24 C23 1_555 1_555
H20 C24 1_555 1_555
C25 C24 1_555 1_555
C26 C25 1_555 1_555
H21 C26 1_555 1_555
C27 C22 1_555 1_555
H22 C27 1_555 1_555
C5 C6 1_555 1_555
C6 C7 1_555 1_555
C9 C10 1_555 1_555
C20 C21 1_555 1_555
C26 C27 1_555 1_555

#END
