
#######################################################################
#
#                 Cambridge Crystallographic Data Centre
#                                CCDC 
#
#######################################################################
#
# If this CIF has been generated from an entry in the Cambridge 
# Structural Database, then it will include bibliographic, chemical, 
# crystal, experimental, refinement or atomic coordinate data resulting 
# from the CCDC's data processing and validation procedures.
#
#######################################################################

data_SEFFER
_chemical_formula_moiety         'C39 H35 N1 O2 P2'
_chemical_name_systematic        
'N-benzyl-N-{[2-(diphenylphosphanyl)phenyl]methyl}-P-(2-methoxyphenyl)-P-phenylphosphinic amide'
_symmetry_cell_setting           monoclinic
_symmetry_space_group_name_H-M   'P 21'
_symmetry_Int_Tables_number      4
_space_group_name_Hall           'P 2yb'
loop_
_symmetry_equiv_pos_site_id
_symmetry_equiv_pos_as_xyz
1 x,y,z
2 -x,1/2+y,-z
_cell_length_a                   8.275(6)
_cell_length_b                   22.390(18)
_cell_length_c                   9.224(7)
_cell_angle_alpha                90
_cell_angle_beta                 109.920(11)
_cell_angle_gamma                90
_cell_volume                     1606.75
_exptl_crystal_colour            colorless
_exptl_crystal_description       prism
_cell_formula_units_Z            2
_exptl_crystal_preparation       Fiber
loop_
_atom_site_label
_atom_site_type_symbol
_atom_site_fract_x
_atom_site_fract_y
_atom_site_fract_z
P1 P 0.70958(8) -0.01737(3) 0.04475(8)
P2 P 1.08250(8) 0.19004(3) 0.24327(8)
O1 O 0.8485(2) -0.04841(9) 0.0068(2)
O2 O 0.3893(3) 0.00031(10) 0.1385(3)
N1 N 0.7662(3) 0.02197(10) 0.2055(3)
C1 C 0.5997(4) 0.03376(13) -0.1093(3)
C2 C 0.6285(4) 0.02634(15) -0.2479(4)
H1 H 0.7153 -0.0004 -0.2533
C3 C 0.5313(5) 0.05779(17) -0.3793(4)
H2 H 0.5503 0.0519 -0.4742
C4 C 0.4075(5) 0.09741(16) -0.3705(4)
H3 H 0.3388 0.1182 -0.4601
C5 C 0.3834(5) 0.10690(15) -0.2319(4)
H4 H 0.3011 0.1354 -0.2254
C6 C 0.4780(4) 0.07533(15) -0.1022(4)
H5 H 0.4597 0.0821 -0.0073
C7 C 0.5524(3) -0.07084(13) 0.0607(3)
C8 C 0.5769(4) -0.12977(13) 0.0231(3)
H6 H 0.6763 -0.1398 -0.0012
C9 C 0.4587(4) -0.17375(13) 0.0209(4)
H7 H 0.4768 -0.2137 -0.0048
C10 C 0.3144(4) -0.15927(14) 0.0563(4)
H8 H 0.2333 -0.1896 0.0542
C11 C 0.2857(4) -0.10165(15) 0.0946(4)
H9 H 0.1853 -0.0922 0.1179
C12 C 0.4059(4) -0.05743(14) 0.0987(4)
C13 C 0.2375(5) 0.01637(18) 0.1707(6)
H10 H 0.1363 0.0099 0.0785
H11 H 0.2437 0.0586 0.2004
H12 H 0.2285 -0.0084 0.2553
C14 C 0.7839(4) -0.00559(14) 0.3551(3)
H13 H 0.6918 -0.0358 0.3379
H14 H 0.7636 0.0257 0.4228
C15 C 0.9537(4) -0.03534(13) 0.4405(4)
C16 C 1.0097(5) -0.08518(16) 0.3822(4)
H15 H 0.9443 -0.0996 0.2826
C17 C 1.1598(5) -0.11418(18) 0.4674(5)
H16 H 1.1961 -0.1485 0.4264
C18 C 1.2566(4) -0.09342(18) 0.6112(4)
H17 H 1.3603 -0.1131 0.6691
C19 C 1.2026(5) -0.04416(19) 0.6707(5)
H18 H 1.2681 -0.0301 0.7706
C20 C 1.0519(4) -0.01479(18) 0.5849(4)
H19 H 1.0163 0.0197 0.6261
C21 C 0.8682(3) 0.07610(12) 0.2142(3)
H20 H 0.8839 0.0822 0.1135
H21 H 0.9834 0.0701 0.2926
C22 C 0.7882(3) 0.13251(13) 0.2549(3)
C23 C 0.6308(3) 0.12974(13) 0.2786(3)
H22 H 0.5728 0.0926 0.2689
C24 C 0.5585(3) 0.18033(13) 0.3159(3)
H23 H 0.4520 0.1776 0.3333
C25 C 0.6391(4) 0.23488(14) 0.3281(3)
H24 H 0.5883 0.2696 0.3533
C26 C 0.7962(4) 0.23870(13) 0.3031(3)
H25 H 0.8518 0.2763 0.3103
C27 C 0.8720(3) 0.18743(13) 0.2676(3)
C28 C 1.0258(4) 0.20284(12) 0.0354(3)
C29 C 1.1533(4) 0.22384(15) -0.0193(4)
H26 H 1.2651 0.2318 0.0515
C30 C 1.1191(5) 0.23319(16) -0.1742(4)
H27 H 1.2058 0.2490 -0.2093
C31 C 0.9589(5) 0.21966(18) -0.2788(4)
H28 H 0.9359 0.2255 -0.3859
C32 C 0.8330(4) 0.19772(16) -0.2275(4)
H29 H 0.7233 0.1881 -0.2998
C33 C 0.8646(4) 0.18951(15) -0.0712(3)
H30 H 0.7762 0.1748 -0.0367
C34 C 1.1705(3) 0.26254(13) 0.3237(3)
C35 C 1.1407(4) 0.31539(14) 0.2421(4)
H31 H 1.0623 0.3159 0.1392
C36 C 1.2227(4) 0.36778(15) 0.3069(4)
H32 H 1.2006 0.4038 0.2489
C37 C 1.3361(4) 0.36733(15) 0.4556(4)
H33 H 1.3952 0.4029 0.4995
C38 C 1.3648(4) 0.31541(16) 0.5419(4)
H34 H 1.4407 0.3155 0.6458
C39 C 1.2821(4) 0.26317(14) 0.4757(3)
H35 H 1.3018 0.2275 0.5348
loop_
_geom_bond_atom_site_label_1
_geom_bond_atom_site_label_2
_geom_bond_site_symmetry_1
_geom_bond_site_symmetry_2
P1 O1 1_555 1_555
P2 C27 1_555 1_555
O2 C12 1_555 1_555
N1 P1 1_555 1_555
C1 P1 1_555 1_555
C2 C1 1_555 1_555
H1 C2 1_555 1_555
C3 C2 1_555 1_555
H2 C3 1_555 1_555
C4 C3 1_555 1_555
H3 C4 1_555 1_555
C5 C4 1_555 1_555
H4 C5 1_555 1_555
C6 C1 1_555 1_555
H5 C6 1_555 1_555
C7 P1 1_555 1_555
C8 C7 1_555 1_555
H6 C8 1_555 1_555
C9 C8 1_555 1_555
H7 C9 1_555 1_555
C10 C9 1_555 1_555
H8 C10 1_555 1_555
C11 C10 1_555 1_555
H9 C11 1_555 1_555
C12 C7 1_555 1_555
C13 O2 1_555 1_555
H10 C13 1_555 1_555
H11 C13 1_555 1_555
H12 C13 1_555 1_555
C14 N1 1_555 1_555
H13 C14 1_555 1_555
H14 C14 1_555 1_555
C15 C14 1_555 1_555
C16 C15 1_555 1_555
H15 C16 1_555 1_555
C17 C16 1_555 1_555
H16 C17 1_555 1_555
C18 C17 1_555 1_555
H17 C18 1_555 1_555
C19 C18 1_555 1_555
H18 C19 1_555 1_555
C20 C15 1_555 1_555
H19 C20 1_555 1_555
C21 N1 1_555 1_555
H20 C21 1_555 1_555
H21 C21 1_555 1_555
C22 C21 1_555 1_555
C23 C22 1_555 1_555
H22 C23 1_555 1_555
C24 C23 1_555 1_555
H23 C24 1_555 1_555
C25 C24 1_555 1_555
H24 C25 1_555 1_555
C26 C25 1_555 1_555
H25 C26 1_555 1_555
C27 C22 1_555 1_555
C28 P2 1_555 1_555
C29 C28 1_555 1_555
H26 C29 1_555 1_555
C30 C29 1_555 1_555
H27 C30 1_555 1_555
C31 C30 1_555 1_555
H28 C31 1_555 1_555
C32 C31 1_555 1_555
H29 C32 1_555 1_555
C33 C28 1_555 1_555
H30 C33 1_555 1_555
C34 P2 1_555 1_555
C35 C34 1_555 1_555
H31 C35 1_555 1_555
C36 C35 1_555 1_555
H32 C36 1_555 1_555
C37 C36 1_555 1_555
H33 C37 1_555 1_555
C38 C37 1_555 1_555
H34 C38 1_555 1_555
C39 C34 1_555 1_555
H35 C39 1_555 1_555
C5 C6 1_555 1_555
C11 C12 1_555 1_555
C19 C20 1_555 1_555
C26 C27 1_555 1_555
C32 C33 1_555 1_555
C38 C39 1_555 1_555

#END
