
#######################################################################
#
#                 Cambridge Crystallographic Data Centre
#                                CCDC 
#
#######################################################################
#
# If this CIF has been generated from an entry in the Cambridge 
# Structural Database, then it will include bibliographic, chemical, 
# crystal, experimental, refinement or atomic coordinate data resulting 
# from the CCDC's data processing and validation procedures.
#
#######################################################################

data_SEFHAN
_chemical_formula_moiety         'C91 H92 O7,2(C1 D1 Cl3)'
_chemical_name_systematic        
"3,6-bis((4-(4'-(3-hydroxy-3-methylbutynyl)-1,1'-biphenyl-4-ylethynyl)-2,5-dihexyloxy)phenylethynyl)fluoren-9-one deuterochloroform solvate"
_symmetry_cell_setting           triclinic
_symmetry_space_group_name_H-M   'P -1'
_symmetry_Int_Tables_number      2
_space_group_name_Hall           '-P 1'
loop_
_symmetry_equiv_pos_site_id
_symmetry_equiv_pos_as_xyz
1 x,y,z
2 -x,-y,-z
_cell_length_a                   12.9853(9)
_cell_length_b                   14.5042(13)
_cell_length_c                   23.8770(18)
_cell_angle_alpha                91.64(1)
_cell_angle_beta                 100.62(1)
_cell_angle_gamma                111.35(1)
_cell_volume                     4094.11
_exptl_crystal_colour            orange
_exptl_crystal_description       plate
_chemical_melting_point          '207.5-208.6 deg.C'
_cell_formula_units_Z            2
loop_
_atom_site_label
_atom_site_type_symbol
_atom_site_fract_x
_atom_site_fract_y
_atom_site_fract_z
Cl1 Cl -0.75791(5) 0.99154(5) 1.30745(3)
Cl2 Cl -0.64207(5) 1.09182(5) 1.22147(3)
Cl3 Cl -0.51620(5) 1.04710(5) 1.32202(3)
C92 C -0.64618(18) 1.00600(16) 1.27245(9)
D1 D -0.6588 0.9402 1.2523
Cl4 Cl 0.54078(6) 0.89399(6) 0.42960(3)
Cl5 Cl 0.65771(10) 0.91668(6) 0.54719(3)
Cl6 Cl 0.72158(8) 0.82409(9) 0.45829(4)
C93 C 0.6100(2) 0.84209(19) 0.48259(11)
D2 D 0.5463 0.7764 0.4818
O1 O 0.44180(12) 0.62629(10) 0.47526(6)
O2 O 0.79056(11) 0.54658(10) 0.29747(6)
O3 O 0.74308(11) 0.19319(10) 0.18132(6)
O4 O 1.59013(12) 0.32909(12) -0.23483(6)
H1 H 1.6103(19) 0.3866(18) -0.2261(10)
O5 O -0.14565(11) 0.36121(10) 0.63046(6)
O6 O -0.09737(11) 0.72439(10) 0.73273(6)
O7 O -0.71749(12) 0.78938(11) 1.21973(6)
H2 H -0.681(2) 0.7538(19) 1.2247(11)
C1 C 0.47491(16) 0.46301(15) 0.40167(8)
H3 H 0.53903(16) 0.52280(15) 0.40411(8)
C2 C 0.46487(17) 0.37672(15) 0.36961(8)
C3 C 0.36897(18) 0.29016(16) 0.36617(9)
H4 H 0.36157(18) 0.23224(16) 0.34358(9)
C4 C 0.28410(18) 0.28676(15) 0.39506(9)
H5 H 0.21968(18) 0.22718(15) 0.39256(9)
C5 C 0.12363(17) 0.32810(15) 0.47773(9)
H6 H 0.08790(17) 0.26086(15) 0.46129(9)
C6 C 0.07676(16) 0.36707(15) 0.51580(9)
H7 H 0.00794(16) 0.32528(15) 0.52513(9)
C7 C 0.12756(16) 0.46505(15) 0.54066(8)
C8 C 0.22985(16) 0.52788(15) 0.52728(8)
H8 H 0.26673(16) 0.59477(15) 0.54422(8)
C9 C 0.37990(16) 0.53954(15) 0.46654(8)
C10 C 0.38971(16) 0.45928(14) 0.42953(8)
C11 C 0.29516(16) 0.37152(14) 0.42736(8)
C12 C 0.22380(16) 0.39041(14) 0.46451(8)
C13 C 0.27473(15) 0.48916(14) 0.48881(8)
C14 C 0.55093(17) 0.37732(15) 0.33937(9)
C15 C 0.62039(17) 0.37618(15) 0.31284(8)
C16 C 0.69660(16) 0.37277(15) 0.27716(8)
C17 C 0.78206(16) 0.46094(15) 0.26853(8)
C18 C 0.84942(16) 0.45715(15) 0.23036(8)
H9 H 0.90685(16) 0.51671(15) 0.22421(8)
C19 C 0.83393(15) 0.36711(15) 0.20085(8)
C20 C 0.75122(16) 0.27841(15) 0.21103(8)
C21 C 0.68328(16) 0.28201(15) 0.24914(8)
H10 H 0.62745(16) 0.22222(15) 0.25625(8)
C22 C 0.89898(16) 0.36614(15) 0.15854(8)
C23 C 0.94908(16) 0.36732(15) 0.12107(8)
C24 C 1.00310(16) 0.36317(15) 0.07404(8)
C25 C 1.08170(18) 0.44708(16) 0.05849(9)
H11 H 1.10122(18) 0.50999(16) 0.07926(9)
C26 C 1.13208(18) 0.44029(15) 0.01310(9)
H12 H 1.18498(18) 0.49890(15) 0.00289(9)
C27 C 1.10684(15) 0.34915(14) -0.01791(8)
C28 C 1.02546(16) 0.26565(15) -0.00298(8)
H13 H 1.00439(16) 0.20299(15) -0.02435(8)
C29 C 0.97462(16) 0.27205(15) 0.04231(8)
H14 H 0.91991(16) 0.21386(15) 0.05182(8)
C30 C 1.16574(15) 0.34114(14) -0.06465(8)
C31 C 1.22026(16) 0.42368(15) -0.09193(8)
H15 H 1.21633(16) 0.48595(15) -0.08185(8)
C32 C 1.27985(16) 0.41675(15) -0.13339(8)
H16 H 1.31783(16) 0.47431(15) -0.15056(8)
C33 C 1.28442(15) 0.32585(15) -0.14985(8)
C34 C 1.22797(16) 0.24265(15) -0.12427(8)
H17 H 1.22863(16) 0.17977(15) -0.13597(8)
C35 C 1.17101(16) 0.25025(14) -0.08199(8)
H18 H 1.13470(16) 0.19276(14) -0.06434(8)
C36 C 1.34893(16) 0.31716(15) -0.19160(8)
C37 C 1.40367(16) 0.30621(15) -0.22435(8)
C38 C 1.47295(16) 0.29235(15) -0.26427(8)
C39 C 1.46111(19) 0.34933(19) -0.31612(9)
H19 H 1.48225(19) 0.41977(19) -0.30329(9)
H20 H 1.38260(19) 0.32205(19) -0.33753(9)
H21 H 1.51094(19) 0.34282(19) -0.34091(9)
C40 C 1.44161(19) 0.18235(17) -0.28062(10)
H22 H 1.49123(19) 0.17383(17) -0.30496(10)
H23 H 1.36286(19) 0.15294(17) -0.30159(10)
H24 H 1.45056(19) 0.14919(17) -0.24590(10)
C41 C 0.87914(16) 0.63642(15) 0.28957(9)
H25 H 0.86903(16) 0.64804(15) 0.24862(9)
H26 H 0.95353(16) 0.63078(15) 0.30166(9)
C42 C 0.87425(18) 0.72185(16) 0.32516(9)
H27 H 0.89936(18) 0.71675(16) 0.36629(9)
H28 H 0.79537(18) 0.71838(16) 0.31885(9)
C43 C 0.9493(2) 0.82017(17) 0.30908(11)
H29 H 0.9260(2) 0.82265(17) 0.26746(11)
H30 H 1.0282(2) 0.82335(17) 0.31658(11)
C44 C 0.9465(3) 0.91173(19) 0.34131(12)
H31 H 0.9807(3) 0.97056(19) 0.32126(12)
H32 H 0.8664(3) 0.90260(19) 0.33913(12)
C45 C 1.0045(2) 0.9332(2) 0.40206(12)
H33 H 1.0831(2) 0.9370(2) 0.40520(12)
H34 H 0.9657(2) 0.8782(2) 0.42358(12)
C46 C 1.0067(3) 1.0311(2) 0.42871(13)
H35 H 1.0428(3) 1.0854(2) 0.40670(13)
H36 H 1.0494(3) 1.0449(2) 0.46839(13)
H37 H 0.9291(3) 1.0259(2) 0.42810(13)
C47 C 0.66049(19) 0.10060(16) 0.19003(9)
H38 H 0.58340(19) 0.10034(16) 0.17732(9)
H39 H 0.67171(19) 0.08990(16) 0.23111(9)
C48 C 0.67562(19) 0.01948(16) 0.15486(9)
H40 H 0.75433(19) 0.02340(16) 0.16703(9)
H41 H 0.62485(19) -0.04605(16) 0.16316(9)
C49 C 0.65130(19) 0.02570(16) 0.09077(9)
H42 H 0.69886(19) 0.09256(16) 0.08253(9)
H43 H 0.57121(19) 0.01752(16) 0.07805(9)
C50 C 0.67355(18) -0.05252(16) 0.05660(9)
H44 H 0.63868(18) -0.11771(16) 0.07092(9)
H45 H 0.75614(18) -0.03597(16) 0.06382(9)
C51 C 0.62917(18) -0.06251(16) -0.00783(9)
H46 H 0.64143(18) -0.11897(16) -0.02578(9)
H47 H 0.54667(18) -0.07854(16) -0.01519(9)
C52 C 0.6838(2) 0.02948(18) -0.03597(11)
H48 H 0.6661(2) 0.08436(18) -0.02109(11)
H49 H 0.6550(2) 0.01621(18) -0.07750(11)
H50 H 0.7659(2) 0.04764(18) -0.02762(11)
C53 C 0.07382(16) 0.49985(15) 0.57943(8)
C54 C 0.02085(16) 0.52086(15) 0.61003(8)
C55 C -0.05013(15) 0.53409(15) 0.64653(8)
C56 C -0.13844(16) 0.44914(14) 0.65634(8)
C57 C -0.20822(16) 0.45782(15) 0.69180(8)
H51 H -0.26726(16) 0.40020(15) 0.69879(8)
C58 C -0.19195(16) 0.55141(15) 0.71744(8)
C59 C -0.10469(16) 0.63654(14) 0.70713(8)
C60 C -0.03395(16) 0.62739(15) 0.67201(8)
H52 H 0.02565(16) 0.68486(15) 0.66535(8)
C61 C -0.26029(16) 0.56214(15) 0.75628(8)
C62 C -0.31158(16) 0.57625(14) 0.79044(8)
C63 C -0.36882(16) 0.59707(14) 0.83238(8)
C64 C -0.36821(18) 0.55398(16) 0.88360(9)
H53 H -0.33210(18) 0.50781(16) 0.89050(9)
C65 C -0.41979(17) 0.57752(16) 0.92465(9)
H54 H -0.41803(17) 0.54747(16) 0.95946(9)
C66 C -0.47429(15) 0.64424(14) 0.91602(8)
C67 C -0.47536(17) 0.68634(15) 0.86414(8)
H55 H -0.51242(17) 0.73178(15) 0.85709(8)
C68 C -0.42420(17) 0.66363(15) 0.82283(8)
H56 H -0.42654(17) 0.69324(15) 0.78789(8)
C69 C -0.53218(15) 0.66675(13) 0.95969(8)
C70 C -0.49314(16) 0.66487(14) 1.01789(8)
H57 H -0.42723(16) 0.65045(14) 1.02991(8)
C71 C -0.54862(16) 0.68348(14) 1.05867(8)
H58 H -0.52034(16) 0.68169(14) 1.09808(8)
C72 C -0.64535(16) 0.70481(14) 1.04221(8)
C73 C -0.68439(16) 0.70815(14) 0.98415(8)
H59 H -0.74982(16) 0.72333(14) 0.97229(8)
C74 C -0.62861(16) 0.68960(14) 0.94362(8)
H60 H -0.65626(16) 0.69242(14) 0.90427(8)
C75 C -0.70460(16) 0.72114(14) 1.08468(8)
C76 C -0.75188(16) 0.73402(14) 1.12107(8)
C77 C -0.80427(16) 0.74972(15) 1.16874(8)
C78 C -0.89231(18) 0.65129(16) 1.17904(9)
H61 H -0.85666(18) 0.60264(16) 1.18671(9)
H62 H -0.95348(18) 0.62611(16) 1.14496(9)
H63 H -0.92321(18) 0.66208(16) 1.21201(9)
C79 C -0.85695(18) 0.82701(16) 1.15682(9)
H64 H -0.88542(18) 0.84020(16) 1.19021(9)
H65 H -0.91958(18) 0.80194(16) 1.12338(9)
H66 H -0.79981(18) 0.88872(16) 1.14919(9)
C80 C -0.24518(18) 0.27425(15) 0.62763(9)
H67 H -0.31387(18) 0.28958(15) 0.61586(9)
H68 H -0.24601(18) 0.24760(15) 0.66532(9)
C81 C -0.24018(19) 0.20004(15) 0.58320(9)
H69 H -0.16779(19) 0.19037(15) 0.59421(9)
H70 H -0.30234(19) 0.13514(15) 0.58263(9)
C82 C -0.24955(18) 0.23425(15) 0.52351(9)
H71 H -0.32526(18) 0.23725(15) 0.51134(9)
H72 H -0.19285(18) 0.30259(15) 0.52547(9)
C83 C -0.23265(19) 0.16867(16) 0.47814(9)
H73 H -0.28982(19) 0.10041(16) 0.47562(9)
H74 H -0.15709(19) 0.16528(16) 0.49014(9)
C84 C -0.2419(2) 0.20575(17) 0.41921(9)
H75 H -0.3188(2) 0.20572(17) 0.40638(9)
H76 H -0.1876(2) 0.27534(17) 0.42221(9)
C85 C -0.2188(2) 0.14347(19) 0.37411(9)
H77 H -0.1409(2) 0.14668(19) 0.38516(9)
H78 H -0.2292(2) 0.16956(19) 0.33698(9)
H79 H -0.2714(2) 0.07418(19) 0.37122(9)
C86 C 0.00127(17) 0.81050(15) 0.73301(9)
H80 H 0.00735(17) 0.82582(15) 0.69333(9)
H81 H 0.06980(17) 0.79927(15) 0.75158(9)
C87 C -0.01013(18) 0.89541(15) 0.76620(9)
H82 H -0.07756(18) 0.90674(15) 0.74605(9)
H83 H 0.05683(18) 0.95663(15) 0.76648(9)
C88 C -0.02090(18) 0.87774(16) 0.82791(9)
H84 H 0.04566(18) 0.86531(16) 0.84826(9)
H85 H -0.08918(18) 0.81791(16) 0.82803(9)
C89 C -0.0293(2) 0.96716(16) 0.85938(9)
H86 H 0.0409(2) 1.02574(16) 0.86061(9)
H87 H -0.0928(2) 0.98188(16) 0.83712(9)
C90 C -0.0473(2) 0.95308(17) 0.92037(9)
H88 H -0.0416(2) 1.01713(17) 0.93894(9)
H89 H 0.0139(2) 0.93503(17) 0.94225(9)
C91 C -0.1607(2) 0.87355(19) 0.92346(10)
H90 H -0.2218(2) 0.88903(19) 0.90033(10)
H91 H -0.1694(2) 0.87177(19) 0.96337(10)
H92 H -0.1640(2) 0.80859(19) 0.90869(10)
Cl7? Cl 0.5726(6) 0.8993(5) 0.5450(3)
Cl8? Cl 0.7478(10) 0.8720(9) 0.4888(6)
Cl9? Cl 0.7684(11) 0.9113(10) 0.5242(6)
loop_
_geom_bond_atom_site_label_1
_geom_bond_atom_site_label_2
_geom_bond_site_symmetry_1
_geom_bond_site_symmetry_2
Cl1 C92 1_555 1_555
Cl2 C92 1_555 1_555
Cl3 C92 1_555 1_555
Cl4 C93 1_555 1_555
Cl5 C93 1_555 1_555
Cl6 C93 1_555 1_555
O1 C9 1_555 1_555
O2 C17 1_555 1_555
O3 C20 1_555 1_555
O4 H1 1_555 1_555
O5 C56 1_555 1_555
O6 C59 1_555 1_555
O7 H2 1_555 1_555
C1 H3 1_555 1_555
C2 C1 1_555 1_555
C3 C2 1_555 1_555
H4 C3 1_555 1_555
C4 C3 1_555 1_555
H5 C4 1_555 1_555
C5 H6 1_555 1_555
C6 C5 1_555 1_555
H7 C6 1_555 1_555
C7 C6 1_555 1_555
C8 C7 1_555 1_555
H8 C8 1_555 1_555
C9 C10 1_555 1_555
C10 C1 1_555 1_555
C11 C4 1_555 1_555
C12 C5 1_555 1_555
C13 C8 1_555 1_555
C14 C2 1_555 1_555
C15 C14 1_555 1_555
C16 C15 1_555 1_555
C17 C16 1_555 1_555
C18 C17 1_555 1_555
H9 C18 1_555 1_555
C19 C18 1_555 1_555
C20 C19 1_555 1_555
C21 C16 1_555 1_555
H10 C21 1_555 1_555
C22 C19 1_555 1_555
C23 C22 1_555 1_555
C24 C23 1_555 1_555
C25 C24 1_555 1_555
H11 C25 1_555 1_555
C26 C25 1_555 1_555
H12 C26 1_555 1_555
C27 C26 1_555 1_555
C28 C27 1_555 1_555
H13 C28 1_555 1_555
C29 C24 1_555 1_555
H14 C29 1_555 1_555
C30 C27 1_555 1_555
C31 C30 1_555 1_555
H15 C31 1_555 1_555
C32 C31 1_555 1_555
H16 C32 1_555 1_555
C33 C32 1_555 1_555
C34 C33 1_555 1_555
H17 C34 1_555 1_555
C35 C30 1_555 1_555
H18 C35 1_555 1_555
C36 C33 1_555 1_555
C37 C36 1_555 1_555
C38 O4 1_555 1_555
C39 C38 1_555 1_555
H19 C39 1_555 1_555
H20 C39 1_555 1_555
H21 C39 1_555 1_555
C40 C38 1_555 1_555
H22 C40 1_555 1_555
H23 C40 1_555 1_555
H24 C40 1_555 1_555
C41 O2 1_555 1_555
H25 C41 1_555 1_555
H26 C41 1_555 1_555
C42 C41 1_555 1_555
H27 C42 1_555 1_555
H28 C42 1_555 1_555
C43 C42 1_555 1_555
H29 C43 1_555 1_555
H30 C43 1_555 1_555
C44 C43 1_555 1_555
H31 C44 1_555 1_555
H32 C44 1_555 1_555
C45 C44 1_555 1_555
H33 C45 1_555 1_555
H34 C45 1_555 1_555
C46 C45 1_555 1_555
H35 C46 1_555 1_555
H36 C46 1_555 1_555
H37 C46 1_555 1_555
C47 O3 1_555 1_555
H38 C47 1_555 1_555
H39 C47 1_555 1_555
C48 C47 1_555 1_555
H40 C48 1_555 1_555
H41 C48 1_555 1_555
C49 C48 1_555 1_555
H42 C49 1_555 1_555
H43 C49 1_555 1_555
C50 C49 1_555 1_555
H44 C50 1_555 1_555
H45 C50 1_555 1_555
C51 C50 1_555 1_555
H46 C51 1_555 1_555
H47 C51 1_555 1_555
C52 C51 1_555 1_555
H48 C52 1_555 1_555
H49 C52 1_555 1_555
H50 C52 1_555 1_555
C53 C7 1_555 1_555
C54 C53 1_555 1_555
C55 C54 1_555 1_555
C56 C55 1_555 1_555
C57 C56 1_555 1_555
H51 C57 1_555 1_555
C58 C57 1_555 1_555
C59 C58 1_555 1_555
C60 C55 1_555 1_555
H52 C60 1_555 1_555
C61 C58 1_555 1_555
C62 C61 1_555 1_555
C63 C62 1_555 1_555
C64 C63 1_555 1_555
H53 C64 1_555 1_555
C65 C64 1_555 1_555
H54 C65 1_555 1_555
C66 C65 1_555 1_555
C67 C66 1_555 1_555
H55 C67 1_555 1_555
C68 C63 1_555 1_555
H56 C68 1_555 1_555
C69 C66 1_555 1_555
C70 C69 1_555 1_555
H57 C70 1_555 1_555
C71 C70 1_555 1_555
H58 C71 1_555 1_555
C72 C71 1_555 1_555
C73 C72 1_555 1_555
H59 C73 1_555 1_555
C74 C69 1_555 1_555
H60 C74 1_555 1_555
C75 C72 1_555 1_555
C76 C75 1_555 1_555
C77 O7 1_555 1_555
C78 C77 1_555 1_555
H61 C78 1_555 1_555
H62 C78 1_555 1_555
H63 C78 1_555 1_555
C79 C77 1_555 1_555
H64 C79 1_555 1_555
H65 C79 1_555 1_555
H66 C79 1_555 1_555
C80 O5 1_555 1_555
H67 C80 1_555 1_555
H68 C80 1_555 1_555
C81 C80 1_555 1_555
H69 C81 1_555 1_555
H70 C81 1_555 1_555
C82 C81 1_555 1_555
H71 C82 1_555 1_555
H72 C82 1_555 1_555
C83 C82 1_555 1_555
H73 C83 1_555 1_555
H74 C83 1_555 1_555
C84 C83 1_555 1_555
H75 C84 1_555 1_555
H76 C84 1_555 1_555
C85 C84 1_555 1_555
H77 C85 1_555 1_555
H78 C85 1_555 1_555
H79 C85 1_555 1_555
C86 O6 1_555 1_555
H80 C86 1_555 1_555
H81 C86 1_555 1_555
C87 C86 1_555 1_555
H82 C87 1_555 1_555
H83 C87 1_555 1_555
C88 C87 1_555 1_555
H84 C88 1_555 1_555
H85 C88 1_555 1_555
C89 C88 1_555 1_555
H86 C89 1_555 1_555
H87 C89 1_555 1_555
C90 C89 1_555 1_555
H88 C90 1_555 1_555
H89 C90 1_555 1_555
C91 C90 1_555 1_555
H90 C91 1_555 1_555
H91 C91 1_555 1_555
H92 C91 1_555 1_555
C92 D1 1_555 1_555
C93 D2 1_555 1_555
C9 C13 1_555 1_555
C10 C11 1_555 1_555
C11 C12 1_555 1_555
C12 C13 1_555 1_555
C20 C21 1_555 1_555
C28 C29 1_555 1_555
C34 C35 1_555 1_555
C37 C38 1_555 1_555
C59 C60 1_555 1_555
C67 C68 1_555 1_555
C73 C74 1_555 1_555
C76 C77 1_555 1_555

#END
