
#######################################################################
#
#                 Cambridge Crystallographic Data Centre
#                                CCDC 
#
#######################################################################
#
# If this CIF has been generated from an entry in the Cambridge 
# Structural Database, then it will include bibliographic, chemical, 
# crystal, experimental, refinement or atomic coordinate data resulting 
# from the CCDC's data processing and validation procedures.
#
#######################################################################

data_SEFKIA
_chemical_formula_moiety         'C24 H20 F3 N1 O2'
_chemical_name_systematic        
N-acetyl-2,2,2-triphenyl-N-(2,2,2-trifluoroethyl)acetamide
_symmetry_cell_setting           triclinic
_symmetry_space_group_name_H-M   'P -1'
_symmetry_Int_Tables_number      2
_space_group_name_Hall           '-P 1'
loop_
_symmetry_equiv_pos_site_id
_symmetry_equiv_pos_as_xyz
1 x,y,z
2 -x,-y,-z
_cell_length_a                   9.715(4)
_cell_length_b                   9.964(4)
_cell_length_c                   21.348(7)
_cell_angle_alpha                90.371(6)
_cell_angle_beta                 94.727(7)
_cell_angle_gamma                104.841(5)
_cell_volume                     1989.94
_exptl_crystal_colour            colorless
_exptl_crystal_description       needle
_cell_formula_units_Z            4
loop_
_atom_site_label
_atom_site_type_symbol
_atom_site_fract_x
_atom_site_fract_y
_atom_site_fract_z
F1 F 0.5790(2) 0.3985(2) 0.28606(11)
F2 F 0.6603(2) 0.2529(2) 0.23507(10)
F3 F 0.7214(3) 0.4706(2) 0.21487(10)
O1 O 0.7314(3) 0.4745(2) 0.41194(11)
O2 O 0.9608(2) 0.7607(2) 0.29459(11)
N1 N 0.8703(3) 0.5435(3) 0.33275(12)
C1 C 0.8664(3) 0.7157(3) 0.42393(15)
C2 C 0.7882(3) 0.8178(3) 0.39290(15)
C3 C 0.8027(4) 0.9469(3) 0.42197(15)
H1 H 0.868600 0.973780 0.458017
C4 C 0.7236(4) 1.0371(4) 0.39984(16)
H2 H 0.736742 1.124973 0.420337
C5 C 0.6255(4) 0.9994(4) 0.34793(16)
H3 H 0.570559 1.060472 0.332687
C6 C 0.6087(4) 0.8714(4) 0.31858(17)
H4 H 0.541829 0.844654 0.282825
C7 C 0.6883(4) 0.7818(4) 0.34075(16)
H5 H 0.674640 0.694112 0.320050
C8 C 0.8145(3) 0.6965(3) 0.49145(15)
C9 C 0.9075(4) 0.7183(3) 0.54544(15)
H6 H 1.007625 0.741889 0.541878
C10 C 0.8570(4) 0.7061(4) 0.60485(16)
H7 H 0.922571 0.722268 0.641346
C11 C 0.7120(4) 0.6707(4) 0.61079(17)
H8 H 0.677316 0.660502 0.651271
C12 C 0.6169(4) 0.6501(3) 0.55717(16)
H9 H 0.516865 0.626632 0.561012
C13 C 0.6673(4) 0.6635(3) 0.49837(16)
H10 H 0.601433 0.650274 0.462032
C14 C 1.0314(3) 0.7609(3) 0.42723(14)
C15 C 1.1117(4) 0.8941(3) 0.41701(15)
H11 H 1.064523 0.963664 0.404898
C16 C 1.2605(4) 0.9278(4) 0.42422(16)
H12 H 1.313570 1.020100 0.417702
C17 C 1.3313(4) 0.8277(4) 0.44077(16)
H13 H 1.432825 0.850753 0.445345
C18 C 1.2530(4) 0.6935(4) 0.45065(16)
H14 H 1.300574 0.623783 0.461898
C19 C 1.1048(4) 0.6615(3) 0.44405(15)
H15 H 1.051947 0.569332 0.451169
C20 C 0.8145(3) 0.5707(3) 0.38933(15)
C21 C 0.8230(3) 0.3992(3) 0.30857(15)
H16 H 0.797679 0.336216 0.343864
H17 H 0.901995 0.374564 0.288625
C22 C 0.6959(4) 0.3804(4) 0.26138(17)
C23 C 0.9659(4) 0.6410(4) 0.29704(16)
C24 C 1.0713(4) 0.5878(4) 0.2635(2)
H18 H 1.021665 0.529423 0.227141
H19 H 1.117355 0.532764 0.292128
H20 H 1.143937 0.666320 0.249082
F4 F 0.3822(3) 0.0984(3) 0.22255(14)
F5 F 0.2973(2) -0.0941(2) 0.26682(10)
F6 F 0.2292(3) 0.0867(3) 0.28956(11)
O3 O 0.2550(3) 0.1071(3) 0.09417(11)
O4 O 0.0116(3) 0.2726(2) 0.20640(11)
N2 N 0.1018(3) 0.1004(3) 0.16792(12)
C25 C 0.1208(3) 0.2803(3) 0.07967(15)
C26 C 0.1977(3) 0.4221(3) 0.11178(15)
C27 C 0.1862(4) 0.5431(3) 0.08133(15)
H21 H 0.123563 0.536483 0.044196
C28 C 0.2653(4) 0.6730(4) 0.10467(16)
H22 H 0.256424 0.754061 0.083251
C29 C 0.3565(4) 0.6852(4) 0.15871(16)
H23 H 0.409611 0.774135 0.174857
C30 C 0.3696(4) 0.5662(4) 0.18906(16)
H24 H 0.432882 0.573751 0.226047
C31 C 0.2913(3) 0.4360(4) 0.16605(15)
H25 H 0.301480 0.355374 0.187504
C32 C 0.1799(3) 0.2875(3) 0.01344(14)
C33 C 0.0919(4) 0.2679(3) -0.04225(15)
H26 H -0.008948 0.243821 -0.040893
C34 C 0.1501(4) 0.2833(4) -0.10028(16)
H27 H 0.088607 0.270241 -0.138022
C35 C 0.2953(4) 0.3170(4) -0.10315(17)
H28 H 0.334357 0.326273 -0.142740
C36 C 0.3848(4) 0.3374(4) -0.04816(17)
H29 H 0.485471 0.360081 -0.049892
C37 C 0.3275(4) 0.3247(3) 0.00923(15)
H30 H 0.389930 0.341677 0.046728
C38 C -0.0441(3) 0.2447(3) 0.07292(14)
C39 C -0.1238(4) 0.3395(4) 0.08421(15)
H31 H -0.075714 0.432150 0.097187
C40 C -0.2712(4) 0.3007(4) 0.07685(16)
H32 H -0.323029 0.367290 0.084401
C41 C -0.3444(4) 0.1661(4) 0.05860(17)
H33 H -0.445978 0.139792 0.054301
C42 C -0.2683(4) 0.0706(4) 0.04670(17)
H34 H -0.317044 -0.021786 0.033427
C43 C -0.1205(4) 0.1102(3) 0.05426(15)
H35 H -0.069288 0.043312 0.046424
C44 C 0.1681(4) 0.1591(3) 0.11413(15)
C45 C 0.1439(3) -0.0225(3) 0.19136(15)
H36 H 0.173539 -0.071041 0.156272
H37 H 0.061195 -0.087256 0.208419
C46 C 0.2641(4) 0.0179(4) 0.24151(18)
C47 C 0.0044(4) 0.1503(4) 0.20234(15)
C48 C -0.1087(4) 0.0429(4) 0.2314(2)
H38 H -0.067186 0.011197 0.270136
H39 H -0.146228 -0.036172 0.201806
H40 H -0.186534 0.083481 0.241162
loop_
_geom_bond_atom_site_label_1
_geom_bond_atom_site_label_2
_geom_bond_site_symmetry_1
_geom_bond_site_symmetry_2
F1 C22 1_555 1_555
F2 C22 1_555 1_555
F3 C22 1_555 1_555
O1 C20 1_555 1_555
O2 C23 1_555 1_555
N1 C20 1_555 1_555
C1 C2 1_555 1_555
C2 C3 1_555 1_555
C3 H1 1_555 1_555
C4 C3 1_555 1_555
H2 C4 1_555 1_555
C5 C4 1_555 1_555
H3 C5 1_555 1_555
C6 C5 1_555 1_555
H4 C6 1_555 1_555
C7 C2 1_555 1_555
H5 C7 1_555 1_555
C8 C1 1_555 1_555
C9 C8 1_555 1_555
H6 C9 1_555 1_555
C10 C9 1_555 1_555
H7 C10 1_555 1_555
C11 C10 1_555 1_555
H8 C11 1_555 1_555
C12 C11 1_555 1_555
H9 C12 1_555 1_555
C13 C8 1_555 1_555
H10 C13 1_555 1_555
C14 C1 1_555 1_555
C15 C14 1_555 1_555
H11 C15 1_555 1_555
C16 C15 1_555 1_555
H12 C16 1_555 1_555
C17 C16 1_555 1_555
H13 C17 1_555 1_555
C18 C17 1_555 1_555
H14 C18 1_555 1_555
C19 C14 1_555 1_555
H15 C19 1_555 1_555
C20 C1 1_555 1_555
C21 N1 1_555 1_555
H16 C21 1_555 1_555
H17 C21 1_555 1_555
C22 C21 1_555 1_555
C23 N1 1_555 1_555
C24 C23 1_555 1_555
H18 C24 1_555 1_555
H19 C24 1_555 1_555
H20 C24 1_555 1_555
F4 C46 1_555 1_555
F5 C46 1_555 1_555
F6 C46 1_555 1_555
O3 C44 1_555 1_555
O4 C47 1_555 1_555
N2 C44 1_555 1_555
C25 C26 1_555 1_555
C26 C27 1_555 1_555
C27 H21 1_555 1_555
C28 C27 1_555 1_555
H22 C28 1_555 1_555
C29 C28 1_555 1_555
H23 C29 1_555 1_555
C30 C29 1_555 1_555
H24 C30 1_555 1_555
C31 C26 1_555 1_555
H25 C31 1_555 1_555
C32 C25 1_555 1_555
C33 C32 1_555 1_555
H26 C33 1_555 1_555
C34 C33 1_555 1_555
H27 C34 1_555 1_555
C35 C34 1_555 1_555
H28 C35 1_555 1_555
C36 C35 1_555 1_555
H29 C36 1_555 1_555
C37 C32 1_555 1_555
H30 C37 1_555 1_555
C38 C25 1_555 1_555
C39 C38 1_555 1_555
H31 C39 1_555 1_555
C40 C39 1_555 1_555
H32 C40 1_555 1_555
C41 C40 1_555 1_555
H33 C41 1_555 1_555
C42 C41 1_555 1_555
H34 C42 1_555 1_555
C43 C38 1_555 1_555
H35 C43 1_555 1_555
C44 C25 1_555 1_555
C45 N2 1_555 1_555
H36 C45 1_555 1_555
H37 C45 1_555 1_555
C46 C45 1_555 1_555
C47 N2 1_555 1_555
C48 C47 1_555 1_555
H38 C48 1_555 1_555
H39 C48 1_555 1_555
H40 C48 1_555 1_555
C6 C7 1_555 1_555
C12 C13 1_555 1_555
C18 C19 1_555 1_555
C30 C31 1_555 1_555
C36 C37 1_555 1_555
C42 C43 1_555 1_555

#END
