
#######################################################################
#
#                 Cambridge Crystallographic Data Centre
#                                CCDC 
#
#######################################################################
#
# If this CIF has been generated from an entry in the Cambridge 
# Structural Database, then it will include bibliographic, chemical, 
# crystal, experimental, refinement or atomic coordinate data resulting 
# from the CCDC's data processing and validation procedures.
#
#######################################################################

data_SEFMEY
_chemical_formula_moiety         'C24 H22 Se6 Si2'
_chemical_name_systematic        
(selenopheno[3',2':4,5]selenopheno[2,3-b]selenopheno[3'',2'':4',5']selenopheno[3',2':4,5]selenopheno[3,2-e][1]benzoselenophene-2,11-diyl)bis(trimethylsilane)
_symmetry_cell_setting           monoclinic
_symmetry_space_group_name_H-M   'P 21/n'
_symmetry_Int_Tables_number      14
_space_group_name_Hall           '-P 2yn'
loop_
_symmetry_equiv_pos_site_id
_symmetry_equiv_pos_as_xyz
1 x,y,z
2 1/2-x,1/2+y,1/2-z
3 -x,-y,-z
4 1/2+x,1/2-y,1/2+z
_cell_length_a                   16.4144(11)
_cell_length_b                   10.1288(7)
_cell_length_c                   18.9016(13)
_cell_angle_alpha                90
_cell_angle_beta                 114.7190(10)
_cell_angle_gamma                90
_cell_volume                     2854.59
_exptl_crystal_colour            yellow
_exptl_crystal_description       block
_cell_formula_units_Z            4
loop_
_atom_site_label
_atom_site_type_symbol
_atom_site_fract_x
_atom_site_fract_y
_atom_site_fract_z
Se1 Se 0.52493(4) 0.73190(6) 0.86557(4)
Se2 Se 0.54207(4) 1.02144(6) 0.77973(4)
Se3 Se 0.71278(4) 1.16268(6) 0.75115(4)
Se4 Se 1.05372(4) 0.78123(7) 0.93405(4)
Se5 Se 1.01253(4) 0.63641(6) 1.07916(4)
Se6 Se 0.86582(4) 0.72135(7) 1.15777(3)
Si1 Si 0.64802(12) 0.47118(17) 0.94452(11)
Si2 Si 0.71364(13) 0.9497(2) 1.13359(11)
C1 C 0.6452(8) 0.4742(9) 1.0416(5)
H1 H 0.6510 0.3859 1.0615
H2 H 0.5892 0.5111 1.0369
H3 H 0.6938 0.5273 1.0766
C2 C 0.5559(5) 0.3702(7) 0.8754(5)
H4 H 0.5615 0.2813 0.8945
H5 H 0.5586 0.3703 0.8256
H6 H 0.4995 0.4062 0.8700
C3 C 0.7557(5) 0.4084(8) 0.9482(7)
H7 H 0.7649 0.3194 0.9673
H8 H 0.8039 0.4631 0.9822
H9 H 0.7540 0.4102 0.8968
C4 C 0.6362(4) 0.6429(5) 0.9071(3)
C5 C 0.7003(3) 0.7190(5) 0.8995(3)
H10 H 0.7590 0.6894 0.9161
C6 C 0.6738(3) 0.8458(5) 0.8653(3)
C7 C 0.5820(3) 0.8692(5) 0.8400(3)
C8 C 0.7201(3) 0.9524(5) 0.8451(3)
C9 C 0.6621(3) 1.0448(5) 0.7979(3)
C10 C 0.8120(3) 0.9699(5) 0.8546(3)
C11 C 0.8200(4) 1.0635(5) 0.8040(3)
C12 C 0.8976(4) 1.0795(6) 0.7919(3)
H11 H 0.9012 1.1470 0.7599
C13 C 0.9673(4) 0.9969(6) 0.8267(3)
H12 H 1.0170 1.0008 0.8151
C14 C 0.9636(3) 0.9055(6) 0.8801(3)
C15 C 0.8917(3) 0.8992(5) 0.9022(3)
C16 C 0.9115(3) 0.8191(5) 0.9708(3)
C17 C 0.9867(4) 0.7449(5) 0.9909(3)
C18 C 0.9140(4) 0.7214(5) 1.0846(3)
C19 C 0.8745(3) 0.8141(5) 1.0271(3)
C20 C 0.8090(3) 0.8916(5) 1.0396(3)
H13 H 0.7780 0.9585 1.0051
C21 C 0.7931(3) 0.8655(5) 1.1024(3)
C22 C 0.6649(10) 1.0802(16) 1.0681(10)
H14 H 0.7100 1.1448 1.0736
H15 H 0.6185 1.1203 1.0792
H16 H 0.6396 1.0468 1.0158
C23 C 0.7660(14) 0.995(2) 1.2317(12)
H17 H 0.8156 1.0527 1.2396
H18 H 0.7875 0.9177 1.2633
H19 H 0.7238 1.0403 1.2461
C24 C 0.6168(9) 0.8474(15) 1.1125(9)
H20 H 0.5904 0.8253 1.0581
H21 H 0.5738 0.8943 1.1252
H22 H 0.6344 0.7680 1.1429
loop_
_geom_bond_atom_site_label_1
_geom_bond_atom_site_label_2
_geom_bond_site_symmetry_1
_geom_bond_site_symmetry_2
Se1 C4 1_555 1_555
Se2 C7 1_555 1_555
Se3 C9 1_555 1_555
Se4 C14 1_555 1_555
Se5 C17 1_555 1_555
Se6 C18 1_555 1_555
Si1 C1 1_555 1_555
Si2 C21 1_555 1_555
C1 H1 1_555 1_555
H2 C1 1_555 1_555
H3 C1 1_555 1_555
C2 Si1 1_555 1_555
H4 C2 1_555 1_555
H5 C2 1_555 1_555
H6 C2 1_555 1_555
C3 Si1 1_555 1_555
H7 C3 1_555 1_555
H8 C3 1_555 1_555
H9 C3 1_555 1_555
C4 Si1 1_555 1_555
C5 C4 1_555 1_555
H10 C5 1_555 1_555
C6 C5 1_555 1_555
C7 Se1 1_555 1_555
C8 C6 1_555 1_555
C9 Se2 1_555 1_555
C10 C8 1_555 1_555
C11 Se3 1_555 1_555
C12 C11 1_555 1_555
H11 C12 1_555 1_555
C13 C12 1_555 1_555
H12 C13 1_555 1_555
C14 C13 1_555 1_555
C15 C10 1_555 1_555
C16 C15 1_555 1_555
C17 Se4 1_555 1_555
C18 Se5 1_555 1_555
C19 C16 1_555 1_555
C20 C19 1_555 1_555
H13 C20 1_555 1_555
C21 Se6 1_555 1_555
C22 Si2 1_555 1_555
H14 C22 1_555 1_555
H15 C22 1_555 1_555
H16 C22 1_555 1_555
C23 Si2 1_555 1_555
H17 C23 1_555 1_555
H18 C23 1_555 1_555
H19 C23 1_555 1_555
C24 Si2 1_555 1_555
H20 C24 1_555 1_555
H21 C24 1_555 1_555
H22 C24 1_555 1_555
C6 C7 1_555 1_555
C8 C9 1_555 1_555
C10 C11 1_555 1_555
C14 C15 1_555 1_555
C16 C17 1_555 1_555
C18 C19 1_555 1_555
C20 C21 1_555 1_555

#END
