
#######################################################################
#
#                 Cambridge Crystallographic Data Centre
#                                CCDC 
#
#######################################################################
#
# If this CIF has been generated from an entry in the Cambridge 
# Structural Database, then it will include bibliographic, chemical, 
# crystal, experimental, refinement or atomic coordinate data resulting 
# from the CCDC's data processing and validation procedures.
#
#######################################################################

data_SEFMIC
_chemical_formula_moiety         'C24 H22 S2 Se4 Si2'
_chemical_name_systematic        
selenopheno[2,3-b]selenopheno[3''',2''':4'',5'']thieno[3'',2'':4',5']selenopheno[3',2':4,5][1]benzoselenopheno[3,2-d]thiene-2,11-diylbis(trimethylsilane)
_symmetry_cell_setting           rhombohedral
_symmetry_space_group_name_H-M   'R -3'
_symmetry_Int_Tables_number      148
_space_group_name_Hall           '-R 3'
loop_
_symmetry_equiv_pos_site_id
_symmetry_equiv_pos_as_xyz
1 x,y,z
2 -y,x-y,z
3 -x+y,-x,z
4 2/3+x,1/3+y,1/3+z
5 2/3-y,1/3+x-y,1/3+z
6 2/3-x+y,1/3-x,1/3+z
7 1/3+x,2/3+y,2/3+z
8 1/3-y,2/3+x-y,2/3+z
9 1/3-x+y,2/3-x,2/3+z
10 -x,-y,-z
11 y,-x+y,-z
12 x-y,x,-z
13 1/3-x,2/3-y,2/3-z
14 1/3+y,2/3-x+y,2/3-z
15 1/3+x-y,2/3+x,2/3-z
16 2/3-x,1/3-y,1/3-z
17 2/3+y,1/3-x+y,1/3-z
18 2/3+x-y,1/3+x,1/3-z
_cell_length_a                   39.587(5)
_cell_length_b                   39.587(5)
_cell_length_c                   9.490(3)
_cell_angle_alpha                90
_cell_angle_beta                 90
_cell_angle_gamma                120
_cell_volume                     12879.6
_exptl_crystal_colour            colorless
_exptl_crystal_description       rod
_cell_formula_units_Z            18
loop_
_atom_site_label
_atom_site_type_symbol
_atom_site_fract_x
_atom_site_fract_y
_atom_site_fract_z
Se1 Se 0.060033(12) 0.013049(13) 0.67982(6)
Se2 Se 0.183982(14) -0.034417(14) 0.59165(6)
Se3 Se 0.297378(12) 0.155451(14) 0.50984(6)
Se4 Se 0.199804(14) 0.163356(14) 0.99842(6)
S1 S 0.27630(3) 0.18368(3) 0.80758(15)
S2 S 0.10111(3) -0.03486(3) 0.56163(16)
Si1 Si 0.26901(4) 0.01799(4) 0.74558(16)
Si2 Si 0.25075(5) 0.08879(5) 0.26404(17)
C1 C 0.22977(11) 0.12200(11) 0.6587(5)
C2 C 0.13571(11) 0.06379(11) 0.7659(4)
C3 C 0.20708(11) 0.12194(11) 0.7785(4)
C4 C 0.16515(11) 0.01932(11) 0.6807(4)
C5 C 0.22009(12) 0.01030(12) 0.6952(5)
C6 C 0.20406(11) 0.03255(11) 0.7279(4)
H1 H 0.2178 0.0555 0.7791
C7 C 0.09720(11) 0.05617(11) 0.7878(5)
C8 C 0.11754(13) 0.10796(13) 0.9527(5)
H2 H 0.1120 0.1209 1.0228
C9 C 0.14934(12) -0.01600(12) 0.6101(5)
C10 C 0.08807(13) 0.07789(13) 0.8795(5)
H3 H 0.0624 0.0721 0.8908
C11 C 0.10165(11) 0.00516(11) 0.6371(5)
C12 C 0.13703(11) 0.03250(10) 0.6916(4)
C13 C 0.22193(11) 0.10021(11) 0.5306(4)
H4 H 0.1973 0.0792 0.5115
C14 C 0.16622(11) 0.09981(11) 0.8192(4)
C15 C 0.26761(11) 0.15289(12) 0.6665(5)
C16 C 0.25193(12) 0.11146(12) 0.4379(5)
C17 C 0.15602(12) 0.11891(12) 0.9206(5)
C18 C 0.22847(12) 0.15458(12) 0.8609(5)
C19 C 0.29937(19) 0.06940(18) 0.7967(11)
H5 H 0.3248 0.0743 0.8238
H6 H 0.2875 0.0750 0.8747
H7 H 0.3017 0.0858 0.7185
C20 C 0.26378(19) -0.0155(3) 0.8852(10)
H8 H 0.2890 -0.0114 0.9110
H9 H 0.2477 -0.0419 0.8530
H10 H 0.2518 -0.0111 0.9656
C21 C 0.2925(2) 0.0087(3) 0.5953(9)
H11 H 0.3176 0.0128 0.6235
H12 H 0.2957 0.0262 0.5197
H13 H 0.2765 -0.0178 0.5642
C22 C 0.2806(3) 0.1287(2) 0.1375(8)
H14 H 0.3074 0.1419 0.1669
H15 H 0.2714 0.1470 0.1352
H16 H 0.2785 0.1179 0.0452
C23 C 0.1995(2) 0.0654(3) 0.1966(9)
H17 H 0.1828 0.0441 0.2571
H18 H 0.1985 0.0558 0.1029
H19 H 0.1910 0.0842 0.1953
C24 C 0.2696(4) 0.0561(4) 0.2813(10)
H20 H 0.2959 0.0701 0.3161
H21 H 0.2693 0.0450 0.1910
H22 H 0.2537 0.0356 0.3461
loop_
_geom_bond_atom_site_label_1
_geom_bond_atom_site_label_2
_geom_bond_site_symmetry_1
_geom_bond_site_symmetry_2
Se1 C7 1_555 1_555
Se2 C5 1_555 1_555
Se3 C15 1_555 1_555
Se4 C17 1_555 1_555
S1 C15 1_555 1_555
S2 C9 1_555 1_555
Si1 C5 1_555 1_555
Si2 C16 1_555 1_555
C1 C3 1_555 1_555
C2 C7 1_555 1_555
C3 C14 1_555 1_555
C4 C6 1_555 1_555
C5 C6 1_555 1_555
C6 H1 1_555 1_555
C7 C10 1_555 1_555
C8 H2 1_555 1_555
C9 Se2 1_555 1_555
C10 C8 1_555 1_555
H3 C10 1_555 1_555
C11 Se1 1_555 1_555
C12 C2 1_555 1_555
C13 C1 1_555 1_555
H4 C13 1_555 1_555
C14 C2 1_555 1_555
C15 C1 1_555 1_555
C16 Se3 1_555 1_555
C17 C8 1_555 1_555
C18 Se4 1_555 1_555
C19 Si1 1_555 1_555
H5 C19 1_555 1_555
H6 C19 1_555 1_555
H7 C19 1_555 1_555
C20 Si1 1_555 1_555
H8 C20 1_555 1_555
H9 C20 1_555 1_555
H10 C20 1_555 1_555
C21 Si1 1_555 1_555
H11 C21 1_555 1_555
H12 C21 1_555 1_555
H13 C21 1_555 1_555
C22 Si2 1_555 1_555
H14 C22 1_555 1_555
H15 C22 1_555 1_555
H16 C22 1_555 1_555
C23 Si2 1_555 1_555
H17 C23 1_555 1_555
H18 C23 1_555 1_555
H19 C23 1_555 1_555
C24 Si2 1_555 1_555
H20 C24 1_555 1_555
H21 C24 1_555 1_555
H22 C24 1_555 1_555
S1 C18 1_555 1_555
S2 C11 1_555 1_555
C3 C18 1_555 1_555
C4 C9 1_555 1_555
C4 C12 1_555 1_555
C11 C12 1_555 1_555
C13 C16 1_555 1_555
C14 C17 1_555 1_555

#END
