
#######################################################################
#
#                 Cambridge Crystallographic Data Centre
#                                CCDC 
#
#######################################################################
#
# If this CIF has been generated from an entry in the Cambridge 
# Structural Database, then it will include bibliographic, chemical, 
# crystal, experimental, refinement or atomic coordinate data resulting 
# from the CCDC's data processing and validation procedures.
#
#######################################################################

data_SEFNOG
_chemical_formula_moiety         'C16 H20 N2 O2'
_chemical_name_systematic        
R-(3a\a,4a\b,7a\b,7b\a)-Octahydro-4-(4-nitrophenyl)-1H,5H-dicyclopenta(b,d)pyrrole
_symmetry_cell_setting           orthorhombic
_symmetry_space_group_name_H-M   'P 21 21 21'
_symmetry_Int_Tables_number      19
_space_group_name_Hall           'P 2ac 2ab'
loop_
_symmetry_equiv_pos_site_id
_symmetry_equiv_pos_as_xyz
1 x,y,z
2 1/2+x,1/2-y,-z
3 -x,1/2+y,1/2-z
4 1/2-x,-y,1/2+z
_cell_length_a                   8.696(4)
_cell_length_b                   9.630(3)
_cell_length_c                   16.428(5)
_cell_angle_alpha                90
_cell_angle_beta                 90
_cell_angle_gamma                90
_cell_volume                     1375.72
_exptl_crystal_colour            yellow
_cell_formula_units_Z            4
loop_
_atom_site_label
_atom_site_type_symbol
_atom_site_fract_x
_atom_site_fract_y
_atom_site_fract_z
O1 O 0.1117(4) 0.4940(3) 0.7813(2)
O2 O 0.1626(4) 0.6531(3) 0.6932(2)
N1 N 0.1761(3) 0.1307(3) 0.4674(2)
N2 N 0.1417(4) 0.5305(3) 0.7113(2)
C1 C 0.2088(4) 0.1627(3) 0.3820(2)
C2 C 0.0768(5) 0.2314(5) 0.3351(2)
C3 C 0.0371(6) 0.1346(5) 0.2647(3)
C4 C 0.1738(5) 0.0373(4) 0.2559(2)
C5 C 0.2313(5) 0.0200(4) 0.3431(2)
C6 C 0.1389(4) -0.0819(3) 0.3957(2)
C7 C 0.2183(5) -0.2209(4) 0.4070(2)
C8 C 0.3390(5) -0.1906(4) 0.4723(2)
C9 C 0.2556(5) -0.0969(4) 0.5320(2)
C10 C 0.1370(4) -0.0155(3) 0.4812(2)
C11 C 0.1667(4) 0.2279(3) 0.5265(2)
C12 C 0.2011(4) 0.3690(4) 0.5105(2)
C13 C 0.1934(4) 0.4663(3) 0.5711(2)
C14 C 0.1509(4) 0.4270(3) 0.6481(2)
C15 C 0.1153(4) 0.2907(4) 0.6659(2)
C16 C 0.1223(4) 0.1929(4) 0.6064(2)
H1 H 0.3052(38) 0.2176(31) 0.3803(18)
H2 H 0.1050(57) 0.3240(46) 0.3107(26)
H3 H -0.0085(48) 0.2523(46) 0.3669(24)
H4 H -0.0547(58) 0.0773(47) 0.2790(25)
H5 H 0.0049(52) 0.1854(44) 0.2157(25)
H6 H 0.1465(45) -0.0575(37) 0.2299(19)
H7 H 0.2520(43) 0.0835(35) 0.2229(21)
H8 H 0.3447(43) 0.0029(37) 0.3433(19)
H9 H 0.0304(39) -0.0905(31) 0.3729(16)
H10 H 0.2530(41) -0.2552(31) 0.3560(18)
H11 H 0.1414(47) -0.2938(40) 0.4270(21)
H12 H 0.4262(50) -0.1409(41) 0.4464(22)
H13 H 0.3769(41) -0.2729(40) 0.4978(20)
H14 H 0.1950(48) -0.1543(39) 0.5740(22)
H15 H 0.3190(47) -0.0369(38) 0.5632(22)
H16 H 0.0328(36) -0.0187(30) 0.5036(16)
H17 H 0.2268(40) 0.3953(32) 0.4588(19)
H18 H 0.2231(39) 0.5689(32) 0.5612(18)
H19 H 0.0823(47) 0.2698(39) 0.7189(22)
H20 H 0.1010(35) 0.1010(33) 0.6201(16)
loop_
_geom_bond_atom_site_label_1
_geom_bond_atom_site_label_2
_geom_bond_site_symmetry_1
_geom_bond_site_symmetry_2
O1 N2 1_555 1_555
O2 N2 1_555 1_555
N1 C1 1_555 1_555
N2 C14 1_555 1_555
C1 C2 1_555 1_555
C2 C3 1_555 1_555
C3 C4 1_555 1_555
C4 C5 1_555 1_555
C5 C1 1_555 1_555
C6 C5 1_555 1_555
C7 C6 1_555 1_555
C8 C7 1_555 1_555
C9 C8 1_555 1_555
C10 N1 1_555 1_555
C11 N1 1_555 1_555
C12 C11 1_555 1_555
C13 C12 1_555 1_555
C14 C13 1_555 1_555
C15 C14 1_555 1_555
C16 C11 1_555 1_555
H1 C1 1_555 1_555
H2 C2 1_555 1_555
H3 C2 1_555 1_555
H4 C3 1_555 1_555
H5 C3 1_555 1_555
H6 C4 1_555 1_555
H7 C4 1_555 1_555
H8 C5 1_555 1_555
H9 C6 1_555 1_555
H10 C7 1_555 1_555
H11 C7 1_555 1_555
H12 C8 1_555 1_555
H13 C8 1_555 1_555
H14 C9 1_555 1_555
H15 C9 1_555 1_555
H16 C10 1_555 1_555
H17 C12 1_555 1_555
H18 C13 1_555 1_555
H19 C15 1_555 1_555
H20 C16 1_555 1_555
C6 C10 1_555 1_555
C9 C10 1_555 1_555
C15 C16 1_555 1_555

#END
