
#######################################################################
#
#                 Cambridge Crystallographic Data Centre
#                                CCDC 
#
#######################################################################
#
# If this CIF has been generated from an entry in the Cambridge 
# Structural Database, then it will include bibliographic, chemical, 
# crystal, experimental, refinement or atomic coordinate data resulting 
# from the CCDC's data processing and validation procedures.
#
#######################################################################

data_SEFPUR
_chemical_formula_moiety         'C34 H26 F5 N1 S1'
_chemical_name_systematic        
4-[2-(4-{2-[4-(pentafluoro-\l^6^-sulfanyl)phenyl]ethenyl}phenyl)ethenyl]-N,N-diphenylaniline
_symmetry_cell_setting           monoclinic
_symmetry_space_group_name_H-M   'C c'
_symmetry_Int_Tables_number      9
_space_group_name_Hall           'C -2yc'
loop_
_symmetry_equiv_pos_site_id
_symmetry_equiv_pos_as_xyz
1 x,y,z
2 x,-y,1/2+z
3 1/2+x,1/2+y,z
4 1/2+x,1/2-y,1/2+z
_cell_length_a                   51.849(9)
_cell_length_b                   10.9446(18)
_cell_length_c                   9.8186(15)
_cell_angle_alpha                90
_cell_angle_beta                 91.817(12)
_cell_angle_gamma                90
_cell_volume                     5568.93
_exptl_crystal_colour            yellow
_exptl_crystal_description       blade
_cell_formula_units_Z            8
loop_
_atom_site_label
_atom_site_type_symbol
_atom_site_fract_x
_atom_site_fract_y
_atom_site_fract_z
S1 S 0.37347(9) 0.8820(4) 0.9295(4)
F1 F 0.3473(2) 0.8887(10) 1.0083(11)
F2 F 0.3856(2) 0.8169(9) 1.0592(9)
F3 F 0.36323(18) 0.7520(9) 0.8771(11)
F4 F 0.35913(18) 0.9488(8) 0.8074(10)
F5 F 0.3810(2) 1.0105(8) 0.9933(10)
N1 N 0.6796(2) 0.9085(10) -0.1230(12)
C1 C 0.4023(2) 0.8697(11) 0.8385(13)
C2 C 0.4167(3) 0.7636(13) 0.8415(13)
H1 H 0.411557 0.697530 0.897223
C3 C 0.4379(2) 0.7521(12) 0.7669(13)
H2 H 0.446725 0.676133 0.767888
C4 C 0.4474(2) 0.8472(13) 0.6881(13)
C5 C 0.4329(3) 0.9559(13) 0.6886(15)
H3 H 0.438363 1.022893 0.635100
C6 C 0.4110(3) 0.9685(13) 0.7643(14)
H4 H 0.402074 1.044149 0.765533
C7 C 0.4697(2) 0.8273(14) 0.6039(16)
H5 H 0.478492 0.751839 0.615999
C8 C 0.4790(2) 0.9035(15) 0.5119(13)
H6 H 0.469839 0.977683 0.496894
C9 C 0.5021(2) 0.8845(11) 0.4309(12)
C10 C 0.5188(3) 0.7848(12) 0.4456(13)
H7 H 0.515365 0.723358 0.510935
C11 C 0.5398(3) 0.7749(14) 0.3674(15)
H8 H 0.550698 0.705792 0.381090
C12 C 0.5465(3) 0.8592(13) 0.2686(13)
C13 C 0.5303(3) 0.9607(13) 0.2543(14)
H9 H 0.534292 1.021943 0.189714
C14 C 0.5082(2) 0.9747(13) 0.3337(15)
H10 H 0.497437 1.044350 0.321763
C15 C 0.5694(3) 0.8410(13) 0.1905(15)
H11 H 0.579090 0.769614 0.212370
C16 C 0.5788(3) 0.9106(15) 0.0920(14)
H12 H 0.567925 0.974259 0.057755
C17 C 0.6047(3) 0.8981(12) 0.0298(14)
C18 C 0.6246(3) 0.8201(14) 0.0782(14)
H13 H 0.621037 0.764550 0.149623
C19 C 0.6481(3) 0.8212(13) 0.0276(14)
H14 H 0.660735 0.764397 0.060321
C20 C 0.6545(3) 0.9052(12) -0.0733(14)
C21 C 0.6349(3) 0.9784(13) -0.1291(15)
H15 H 0.638167 1.029421 -0.204981
C22 C 0.6110(3) 0.9768(13) -0.0745(15)
H16 H 0.598215 1.031703 -0.109349
C23 C 0.6946(3) 0.8066(14) -0.1390(18)
C24 C 0.6842(3) 0.6916(15) -0.1781(19)
H17 H 0.666093 0.683784 -0.193948
C25 C 0.6992(4) 0.5947(18) -0.193(3)
H18 H 0.691768 0.519121 -0.221324
C26 C 0.7242(4) 0.6021(17) -0.169(3)
H19 H 0.734455 0.531741 -0.183386
C27 C 0.7360(3) 0.7056(15) -0.124(2)
H20 H 0.753983 0.706757 -0.103290
C28 C 0.7217(3) 0.8060(14) -0.1089(18)
H21 H 0.729756 0.879025 -0.077283
C29 C 0.6908(3) 1.0305(12) -0.1373(15)
C30 C 0.7069(3) 1.0509(16) -0.2407(17)
H22 H 0.709424 0.987398 -0.304943
C31 C 0.7199(5) 1.159(3) -0.257(2)
H23 H 0.732264 1.170328 -0.324883
C32 C 0.7138(4) 1.248(2) -0.171(3)
H24 H 0.721065 1.326179 -0.184838
C33 C 0.6979(3) 1.2338(15) -0.062(2)
H25 H 0.694810 1.299276 -0.001263
C34 C 0.6862(3) 1.1184(13) -0.0456(18)
H26 H 0.675289 1.103219 0.028649
S2 S 0.62426(8) 0.4068(3) -0.0409(4)
F6 F 0.64772(16) 0.4156(8) -0.1337(10)
F7 F 0.6240(2) 0.2625(8) -0.0717(11)
F8 F 0.64348(17) 0.3829(12) 0.0827(10)
F9 F 0.6258(2) 0.5469(8) -0.0220(13)
F10 F 0.60672(19) 0.4269(11) -0.1719(8)
N2 N 0.3222(2) 0.3903(9) 1.0525(11)
C35 C 0.5971(2) 0.3936(13) 0.0617(13)
C36 C 0.5979(7) 0.287(4) 0.142(5)
H27 H 0.612334 0.233707 0.139216
C37 C 0.5778(5) 0.261(3) 0.223(3)
H28 H 0.578101 0.186209 0.272683
C38 C 0.5569(4) 0.338(3) 0.235(3)
C39 C 0.5564(5) 0.442(3) 0.148(3)
H29 H 0.542846 0.499583 0.155009
C40 C 0.5752(5) 0.461(2) 0.054(3)
H30 H 0.572844 0.520266 -0.015326
C41 C 0.5362(4) 0.320(2) 0.331(2)
H31 H 0.537236 0.247219 0.383861
C42 C 0.5161(5) 0.392(3) 0.354(3)
H32 H 0.515326 0.464290 0.299844
C43 C 0.4949(8) 0.379(4) 0.448(5)
C44 C 0.4940(7) 0.281(4) 0.540(4)
H33 H 0.506955 0.219671 0.539268
C45 C 0.4744(6) 0.273(3) 0.631(4)
H34 H 0.474737 0.207471 0.693727
C46 C 0.4543(5) 0.356(2) 0.636(3)
C47 C 0.4555(7) 0.461(3) 0.556(4)
H35 H 0.442734 0.522546 0.560004
C48 C 0.4766(8) 0.472(4) 0.468(5)
H36 H 0.478448 0.546344 0.419777
C49 C 0.4343(4) 0.337(2) 0.733(2)
H37 H 0.435331 0.267909 0.792333
C50 C 0.4145(4) 0.414(2) 0.742(3)
H38 H 0.414765 0.484444 0.685657
C51 C 0.3920(5) 0.400(3) 0.830(3)
C52 C 0.3876(5) 0.326(3) 0.939(3)
H39 H 0.400989 0.268849 0.961022
C53 C 0.3678(5) 0.321(3) 1.018(4)
H40 H 0.368307 0.270862 1.096924
C54 C 0.3460(2) 0.3912(12) 0.9864(13)
C55 C 0.3496(10) 0.485(6) 0.891(8)
H41 H 0.336332 0.543668 0.876480
C56 C 0.3718(6) 0.494(3) 0.817(4)
H42 H 0.373927 0.560828 0.757021
C57 C 0.3106(2) 0.2778(11) 1.0907(14)
C58 C 0.3120(3) 0.1768(14) 1.0024(16)
H43 H 0.320752 0.182549 0.919013
C59 C 0.3000(3) 0.0666(15) 1.0412(17)
H44 H 0.301435 -0.004021 0.985755
C60 C 0.2864(3) 0.0613(15) 1.158(2)
H45 H 0.277932 -0.012516 1.180409
C61 C 0.2848(3) 0.1595(13) 1.2432(15)
H46 H 0.275386 0.154047 1.324377
C62 C 0.2971(3) 0.2674(13) 1.2092(15)
H47 H 0.296277 0.335524 1.268747
C63 C 0.3057(3) 0.4953(12) 1.0585(13)
C64 C 0.2807(3) 0.4930(16) 1.021(2)
H48 H 0.273633 0.420197 0.982287
C65 C 0.2645(3) 0.5938(14) 1.0363(17)
H49 H 0.246637 0.588265 1.011635
C66 C 0.2745(3) 0.6993(14) 1.0868(17)
H50 H 0.263380 0.766781 1.102033
C67 C 0.3011(3) 0.7103(12) 1.1171(15)
H51 H 0.308539 0.785920 1.145013
C68 C 0.3158(3) 0.6068(12) 1.1044(15)
H52 H 0.333722 0.611235 1.127947
C69? C 0.5918(8) 0.311(4) 0.164(6)
H53? H 0.604054 0.249049 0.186381
C70? C 0.5695(6) 0.317(3) 0.232(3)
H54? H 0.565896 0.251796 0.292493
C71? C 0.5512(5) 0.411(3) 0.221(3)
C72? C 0.5565(6) 0.501(3) 0.123(3)
H55? H 0.544091 0.561851 0.100969
C73? C 0.5801(5) 0.499(3) 0.059(4)
H56? H 0.585280 0.570122 0.011806
C74? C 0.5276(5) 0.425(3) 0.299(3)
H57? H 0.516696 0.491747 0.275141
C75? C 0.5201(5) 0.352(3) 0.400(3)
H58? H 0.530910 0.284841 0.423319
C76? C 0.4967(8) 0.368(5) 0.478(5)
C77? C 0.4900(8) 0.287(4) 0.580(4)
H59? H 0.500701 0.219366 0.602158
C78? C 0.4678(6) 0.307(3) 0.649(4)
H60? H 0.463673 0.249572 0.717826
C79? C 0.4510(6) 0.403(3) 0.628(3)
C80? C 0.4559(8) 0.478(4) 0.517(4)
H61? H 0.444826 0.544772 0.495218
C81? C 0.4776(9) 0.454(4) 0.439(5)
H62? H 0.479441 0.498385 0.356587
C82? C 0.4272(5) 0.422(2) 0.698(2)
H63? H 0.416477 0.488711 0.669879
C83? C 0.4194(4) 0.351(3) 0.798(2)
H64? H 0.430343 0.284737 0.823866
C84? C 0.3953(5) 0.365(3) 0.874(3)
C85? C 0.3864(6) 0.283(3) 0.969(4)
H65? H 0.397728 0.220318 0.999659
C86? C 0.3632(6) 0.288(3) 1.019(4)
H66? H 0.357600 0.223971 1.076721
C87? C 0.3529(10) 0.464(6) 0.882(9)
H67? H 0.341394 0.524017 0.847045
C88? C 0.3767(6) 0.449(3) 0.827(4)
H68? H 0.380860 0.499874 0.752129
loop_
_geom_bond_atom_site_label_1
_geom_bond_atom_site_label_2
_geom_bond_site_symmetry_1
_geom_bond_site_symmetry_2
S1 F1 1_555 1_555
F2 S1 1_555 1_555
F3 S1 1_555 1_555
F4 S1 1_555 1_555
F5 S1 1_555 1_555
N1 C20 1_555 1_555
C1 S1 1_555 1_555
C2 C1 1_555 1_555
H1 C2 1_555 1_555
C3 C2 1_555 1_555
H2 C3 1_555 1_555
C4 C3 1_555 1_555
C5 C4 1_555 1_555
H3 C5 1_555 1_555
C6 C1 1_555 1_555
H4 C6 1_555 1_555
C7 C4 1_555 1_555
H5 C7 1_555 1_555
C8 C7 1_555 1_555
H6 C8 1_555 1_555
C9 C8 1_555 1_555
C10 C9 1_555 1_555
H7 C10 1_555 1_555
C11 C10 1_555 1_555
H8 C11 1_555 1_555
C12 C11 1_555 1_555
C13 C12 1_555 1_555
H9 C13 1_555 1_555
C14 C9 1_555 1_555
H10 C14 1_555 1_555
C15 C12 1_555 1_555
H11 C15 1_555 1_555
C16 C15 1_555 1_555
H12 C16 1_555 1_555
C17 C16 1_555 1_555
C18 C17 1_555 1_555
H13 C18 1_555 1_555
C19 C18 1_555 1_555
H14 C19 1_555 1_555
C20 C19 1_555 1_555
C21 C20 1_555 1_555
H15 C21 1_555 1_555
C22 C17 1_555 1_555
H16 C22 1_555 1_555
C23 N1 1_555 1_555
C24 C23 1_555 1_555
H17 C24 1_555 1_555
C25 C24 1_555 1_555
H18 C25 1_555 1_555
C26 C25 1_555 1_555
H19 C26 1_555 1_555
C27 C26 1_555 1_555
H20 C27 1_555 1_555
C28 C23 1_555 1_555
H21 C28 1_555 1_555
C29 N1 1_555 1_555
C30 C29 1_555 1_555
H22 C30 1_555 1_555
C31 C30 1_555 1_555
H23 C31 1_555 1_555
C32 C31 1_555 1_555
H24 C32 1_555 1_555
C33 C32 1_555 1_555
H25 C33 1_555 1_555
C34 C29 1_555 1_555
H26 C34 1_555 1_555
S2 F6 1_555 1_555
F7 S2 1_555 1_555
F8 S2 1_555 1_555
F9 S2 1_555 1_555
F10 S2 1_555 1_555
N2 C54 1_555 1_555
C35 S2 1_555 1_555
C36 C35 1_555 1_555
H27 C36 1_555 1_555
C37 C36 1_555 1_555
H28 C37 1_555 1_555
C38 C37 1_555 1_555
C39 C38 1_555 1_555
H29 C39 1_555 1_555
C40 C35 1_555 1_555
H30 C40 1_555 1_555
C41 C38 1_555 1_555
H31 C41 1_555 1_555
C42 C41 1_555 1_555
H32 C42 1_555 1_555
C43 C42 1_555 1_555
C44 C43 1_555 1_555
H33 C44 1_555 1_555
C45 C44 1_555 1_555
H34 C45 1_555 1_555
C46 C45 1_555 1_555
C47 C46 1_555 1_555
H35 C47 1_555 1_555
C48 C43 1_555 1_555
H36 C48 1_555 1_555
C49 C46 1_555 1_555
H37 C49 1_555 1_555
C50 C49 1_555 1_555
H38 C50 1_555 1_555
C51 C50 1_555 1_555
C52 C51 1_555 1_555
H39 C52 1_555 1_555
C53 C52 1_555 1_555
H40 C53 1_555 1_555
C54 C53 1_555 1_555
C55 C54 1_555 1_555
H41 C55 1_555 1_555
C56 C51 1_555 1_555
H42 C56 1_555 1_555
C57 N2 1_555 1_555
C58 C57 1_555 1_555
H43 C58 1_555 1_555
C59 C58 1_555 1_555
H44 C59 1_555 1_555
C60 C59 1_555 1_555
H45 C60 1_555 1_555
C61 C60 1_555 1_555
H46 C61 1_555 1_555
C62 C57 1_555 1_555
H47 C62 1_555 1_555
C63 N2 1_555 1_555
C64 C63 1_555 1_555
H48 C64 1_555 1_555
C65 C64 1_555 1_555
H49 C65 1_555 1_555
C66 C65 1_555 1_555
H50 C66 1_555 1_555
C67 C66 1_555 1_555
H51 C67 1_555 1_555
C68 C63 1_555 1_555
H52 C68 1_555 1_555
C5 C6 1_555 1_555
C13 C14 1_555 1_555
C21 C22 1_555 1_555
C27 C28 1_555 1_555
C33 C34 1_555 1_555
C39 C40 1_555 1_555
C47 C48 1_555 1_555
C55 C56 1_555 1_555
C61 C62 1_555 1_555
C67 C68 1_555 1_555

#END
