
#######################################################################
#
#                 Cambridge Crystallographic Data Centre
#                                CCDC 
#
#######################################################################
#
# If this CIF has been generated from an entry in the Cambridge 
# Structural Database, then it will include bibliographic, chemical, 
# crystal, experimental, refinement or atomic coordinate data resulting 
# from the CCDC's data processing and validation procedures.
#
#######################################################################

data_SEFPIF
_chemical_formula_moiety         'C26 H18 F5 N1 S1'
_chemical_name_systematic        
4-{[4-(pentafluoro-sulfanyl)phenyl]ethynyl}-N,N-diphenylaniline
_symmetry_cell_setting           monoclinic
_symmetry_space_group_name_H-M   'C 2/c'
_symmetry_Int_Tables_number      15
_space_group_name_Hall           '-C 2yn'
loop_
_symmetry_equiv_pos_site_id
_symmetry_equiv_pos_as_xyz
1 x,y,z
2 -x,y,1/2-z
3 1/2+x,1/2+y,z
4 1/2-x,1/2+y,1/2-z
5 -x,-y,-z
6 x,-y,1/2+z
7 1/2-x,1/2-y,-z
8 1/2+x,1/2-y,1/2+z
_cell_length_a                   25.9225(19)
_cell_length_b                   8.1786(6)
_cell_length_c                   22.3161(17)
_cell_angle_alpha                90
_cell_angle_beta                 112.6050(10)
_cell_angle_gamma                90
_cell_volume                     4367.76
_exptl_crystal_colour            colorless
_exptl_crystal_description       needle
_cell_formula_units_Z            8
loop_
_atom_site_label
_atom_site_type_symbol
_atom_site_fract_x
_atom_site_fract_y
_atom_site_fract_z
S1 S 0.38715(2) 1.02348(7) 0.33417(3)
F1 F 0.35553(6) 0.98057(17) 0.37906(7)
F2 F 0.35229(6) 1.18765(17) 0.31688(7)
F3 F 0.43202(6) 1.11818(18) 0.39262(9)
F4 F 0.33919(7) 0.9456(2) 0.27537(7)
N1 N 0.65838(8) -0.3282(2) 0.44148(8)
F5 F 0.41711(8) 1.0827(2) 0.28898(10)
C1 C 0.67218(8) -0.3877(2) 0.38907(9)
C2 C 0.67402(8) -0.4210(2) 0.49900(9)
C3 C 0.63103(8) -0.1754(3) 0.43357(10)
C4 C 0.57594(8) 0.1254(3) 0.41535(11)
C5 C 0.64496(8) -0.0627(3) 0.48388(10)
H1 H 0.6734 -0.0880 0.5248
C6 C 0.45874(8) 0.8002(3) 0.41742(10)
H2 H 0.4593 0.8720 0.4511
C7 C 0.61778(8) 0.0860(3) 0.47474(11)
H3 H 0.6278 0.1622 0.5095
C8 C 0.48972(8) 0.6577(3) 0.43194(11)
H4 H 0.5117 0.6320 0.4759
C9 C 0.65296(9) -0.5382(3) 0.36174(10)
H5 H 0.6296 -0.6012 0.3768
C10 C 0.42701(8) 0.8370(3) 0.35363(10)
C11 C 0.58968(9) -0.1354(3) 0.37396(10)
H6 H 0.5799 -0.2112 0.3391
C12 C 0.71889(9) -0.5286(3) 0.51535(10)
H7 H 0.7391 -0.5382 0.4879
C13 C 0.70554(9) -0.2953(3) 0.36646(10)
H8 H 0.7185 -0.1909 0.3847
C14 C 0.48921(8) 0.5514(3) 0.38323(11)
C15 C 0.52110(9) 0.4033(3) 0.39725(12)
C16 C 0.64514(9) -0.4099(3) 0.53991(10)
H9 H 0.6142 -0.3377 0.5295
C17 C 0.54670(9) 0.2782(3) 0.40624(11)
C18 C 0.56273(9) 0.0130(3) 0.36497(11)
H10 H 0.5347 0.0389 0.3238
C19 C 0.66765(10) -0.5971(3) 0.31270(11)
H11 H 0.6545 -0.7012 0.2942
C20 C 0.42512(10) 0.7323(3) 0.30436(11)
H12 H 0.4025 0.7577 0.2606
C21 C 0.45626(10) 0.5906(3) 0.31902(12)
H13 H 0.4553 0.5189 0.2851
C22 C 0.71986(9) -0.3560(3) 0.31701(11)
H14 H 0.7428 -0.2928 0.3014
C23 C 0.70121(10) -0.5063(3) 0.29036(11)
H15 H 0.7114 -0.5475 0.2567
C24 C 0.73424(11) -0.6212(3) 0.57114(11)
H16 H 0.7649 -0.6945 0.5816
C25 C 0.66122(10) -0.5033(3) 0.59573(11)
H17 H 0.6412 -0.4943 0.6234
C26 C 0.70581(12) -0.6093(3) 0.61175(11)
H18 H 0.7167 -0.6730 0.6502
loop_
_geom_bond_atom_site_label_1
_geom_bond_atom_site_label_2
_geom_bond_site_symmetry_1
_geom_bond_site_symmetry_2
S1 F1 1_555 1_555
F2 S1 1_555 1_555
F3 S1 1_555 1_555
F4 S1 1_555 1_555
N1 C1 1_555 1_555
F5 S1 1_555 1_555
C1 C9 1_555 1_555
C2 N1 1_555 1_555
C3 N1 1_555 1_555
C4 C7 1_555 1_555
C5 C3 1_555 1_555
H1 C5 1_555 1_555
C6 H2 1_555 1_555
C7 C5 1_555 1_555
H3 C7 1_555 1_555
C8 C6 1_555 1_555
H4 C8 1_555 1_555
C9 H5 1_555 1_555
C10 S1 1_555 1_555
C11 C3 1_555 1_555
H6 C11 1_555 1_555
C12 C2 1_555 1_555
H7 C12 1_555 1_555
C13 C1 1_555 1_555
H8 C13 1_555 1_555
C14 C8 1_555 1_555
C15 C14 1_555 1_555
C16 C2 1_555 1_555
H9 C16 1_555 1_555
C17 C4 1_555 1_555
C18 C4 1_555 1_555
H10 C18 1_555 1_555
C19 C9 1_555 1_555
H11 C19 1_555 1_555
C20 C10 1_555 1_555
H12 C20 1_555 1_555
C21 C14 1_555 1_555
H13 C21 1_555 1_555
C22 C13 1_555 1_555
H14 C22 1_555 1_555
C23 C19 1_555 1_555
H15 C23 1_555 1_555
C24 C12 1_555 1_555
H16 C24 1_555 1_555
C25 C16 1_555 1_555
H17 C25 1_555 1_555
C26 C24 1_555 1_555
H18 C26 1_555 1_555
C6 C10 1_555 1_555
C11 C18 1_555 1_555
C15 C17 1_555 1_555
C20 C21 1_555 1_555
C22 C23 1_555 1_555
C25 C26 1_555 1_555

#END
