
#######################################################################
#
#                 Cambridge Crystallographic Data Centre
#                                CCDC 
#
#######################################################################
#
# If this CIF has been generated from an entry in the Cambridge 
# Structural Database, then it will include bibliographic, chemical, 
# crystal, experimental, refinement or atomic coordinate data resulting 
# from the CCDC's data processing and validation procedures.
#
#######################################################################

data_SEFPEB
_chemical_formula_moiety         'C26 H20 F5 N1 S1'
_chemical_name_systematic        
4-{2-[4-(pentafluoro-sulfanyl)phenyl]ethenyl}-N,N-diphenylaniline
_symmetry_cell_setting           monoclinic
_symmetry_space_group_name_H-M   'C 2/c'
_symmetry_Int_Tables_number      15
_space_group_name_Hall           '-C 2yn'
loop_
_symmetry_equiv_pos_site_id
_symmetry_equiv_pos_as_xyz
1 x,y,z
2 -x,y,1/2-z
3 1/2+x,1/2+y,z
4 1/2-x,1/2+y,1/2-z
5 -x,-y,-z
6 x,-y,1/2+z
7 1/2-x,1/2-y,-z
8 1/2+x,1/2-y,1/2+z
_cell_length_a                   26.646(2)
_cell_length_b                   8.0632(7)
_cell_length_c                   22.2653(18)
_cell_angle_alpha                90
_cell_angle_beta                 113.291(2)
_cell_angle_gamma                90
_cell_volume                     4393.91
_exptl_crystal_colour            green
_exptl_crystal_description       block
_cell_formula_units_Z            8
loop_
_atom_site_label
_atom_site_type_symbol
_atom_site_fract_x
_atom_site_fract_y
_atom_site_fract_z
S1 S 0.38651(3) 1.00352(8) 0.33858(3)
C1 C 0.4278(3) 0.8212(7) 0.3605(2)
C2 C 0.4633(3) 0.7976(7) 0.4248(2)
H1 H 0.464777 0.875645 0.457485
C3 C 0.49668(16) 0.6584(5) 0.44112(19)
H2 H 0.520729 0.641666 0.485434
C4 C 0.49592(13) 0.5426(4) 0.39429(19)
C5 C 0.45965(18) 0.5694(5) 0.3302(2)
H3 H 0.457731 0.491200 0.297394
C6 C 0.4262(4) 0.7078(9) 0.3131(2)
H4 H 0.402183 0.725088 0.268775
C7 C 0.53229(12) 0.3967(4) 0.41394(15)
H5 H 0.558420 0.394111 0.457845
C8 C 0.53208(14) 0.2691(4) 0.37638(18)
H6 H 0.506316 0.273942 0.332322
C9 C 0.56698(15) 0.1212(4) 0.39484(17)
C10 C 0.6096(2) 0.1001(7) 0.4558(2)
H7 H 0.617440 0.185630 0.487499
C11 C 0.6408(4) -0.0438(10) 0.4709(3)
H8 H 0.669868 -0.054417 0.512700
C12 C 0.5865(3) -0.1540(6) 0.3658(3)
H9 H 0.576926 -0.242798 0.335253
C13 C 0.55696(17) -0.0073(5) 0.34978(17)
H10 H 0.529270 0.005782 0.307152
C14 C 0.63018(10) -0.1724(3) 0.42617(11)
C15 C 0.67490(10) -0.4116(3) 0.49769(11)
C16 C 0.64724(11) -0.3905(3) 0.53850(12)
H11 H 0.618724 -0.310923 0.527730
C17 C 0.66092(13) -0.4848(3) 0.59490(13)
H12 H 0.641362 -0.470198 0.622115
C18 C 0.70271(14) -0.5997(3) 0.61185(13)
H13 H 0.712183 -0.663605 0.650645
C19 C 0.73041(13) -0.6203(3) 0.57163(13)
H14 H 0.759102 -0.699358 0.582822
C20 C 0.71705(11) -0.5275(3) 0.51524(12)
H15 H 0.736758 -0.542906 0.488229
C21 C 0.67412(10) -0.3886(3) 0.38770(11)
C22 C 0.65393(11) -0.5418(3) 0.36117(12)
H16 H 0.630565 -0.601677 0.376392
C23 C 0.66784(12) -0.6077(3) 0.31236(13)
H17 H 0.654182 -0.713209 0.294289
C24 C 0.70137(12) -0.5206(4) 0.29003(13)
H18 H 0.710907 -0.566011 0.256589
C25 C 0.72099(11) -0.3686(4) 0.31601(13)
H19 H 0.744043 -0.308432 0.300378
C26 C 0.70746(10) -0.3017(3) 0.36492(12)
H20 H 0.721171 -0.196039 0.382733
N1 N 0.66085(9) -0.3216(2) 0.43918(9)
F1 F 0.36223(7) 0.9677(2) 0.39073(8)
F2 F 0.43253(7) 1.1126(2) 0.39060(10)
F3 F 0.34976(7) 1.1656(2) 0.31968(9)
F4 F 0.40845(9) 1.0559(2) 0.28522(10)
F5 F 0.33706(7) 0.9107(2) 0.28575(9)
C27? C 0.4316(19) 0.821(4) 0.3505(13)
C28? C 0.4639(17) 0.760(4) 0.4113(12)
H21? H 0.466363 0.816964 0.449732
C29? C 0.4928(9) 0.614(3) 0.4157(10)
H22? H 0.517404 0.574841 0.457204
C30? C 0.4860(8) 0.525(2) 0.3606(10)
C31? C 0.4501(10) 0.582(3) 0.3004(10)
H23? H 0.446840 0.523838 0.261952
C32? C 0.419(2) 0.723(5) 0.2955(13)
H24? H 0.389732 0.750894 0.255457
C33? C 0.5143(7) 0.3682(18) 0.3601(9)
H25? H 0.504220 0.313308 0.319285
C34? C 0.5518(8) 0.298(2) 0.4108(9)
H26? H 0.562893 0.360108 0.450128
C35? C 0.5796(10) 0.137(2) 0.4165(11)
C36? C 0.6242(12) 0.097(4) 0.4732(13)
H27? H 0.636944 0.174539 0.508132
C37? C 0.650(2) -0.054(6) 0.480(2)
H28? H 0.680805 -0.080309 0.519050
C38? C 0.5950(14) -0.113(3) 0.3655(18)
H29? H 0.592800 -0.159840 0.325377
C39? C 0.5631(12) 0.021(3) 0.3687(11)
H30? H 0.527565 0.030930 0.335184
loop_
_geom_bond_atom_site_label_1
_geom_bond_atom_site_label_2
_geom_bond_site_symmetry_1
_geom_bond_site_symmetry_2
S1 C1 1_555 1_555
C1 C2 1_555 1_555
C2 H1 1_555 1_555
C3 C2 1_555 1_555
H2 C3 1_555 1_555
C4 C3 1_555 1_555
C5 C4 1_555 1_555
H3 C5 1_555 1_555
C6 C1 1_555 1_555
H4 C6 1_555 1_555
C7 C4 1_555 1_555
H5 C7 1_555 1_555
C8 C7 1_555 1_555
H6 C8 1_555 1_555
C9 C8 1_555 1_555
C10 C9 1_555 1_555
H7 C10 1_555 1_555
C11 C10 1_555 1_555
H8 C11 1_555 1_555
C12 H9 1_555 1_555
C13 C9 1_555 1_555
H10 C13 1_555 1_555
C14 C11 1_555 1_555
C15 C16 1_555 1_555
C16 H11 1_555 1_555
C17 C16 1_555 1_555
H12 C17 1_555 1_555
C18 C17 1_555 1_555
H13 C18 1_555 1_555
C19 C18 1_555 1_555
H14 C19 1_555 1_555
C20 C15 1_555 1_555
H15 C20 1_555 1_555
C21 C22 1_555 1_555
C22 H16 1_555 1_555
C23 C22 1_555 1_555
H17 C23 1_555 1_555
C24 C23 1_555 1_555
H18 C24 1_555 1_555
C25 C24 1_555 1_555
H19 C25 1_555 1_555
C26 C21 1_555 1_555
H20 C26 1_555 1_555
N1 C14 1_555 1_555
F1 S1 1_555 1_555
F2 S1 1_555 1_555
F3 S1 1_555 1_555
F4 S1 1_555 1_555
F5 S1 1_555 1_555
C5 C6 1_555 1_555
C12 C13 1_555 1_555
C12 C14 1_555 1_555
C15 N1 1_555 1_555
C19 C20 1_555 1_555
C21 N1 1_555 1_555
C25 C26 1_555 1_555

#END
