
#######################################################################
#
#                 Cambridge Crystallographic Data Centre
#                                CCDC 
#
#######################################################################
#
# If this CIF has been generated from an entry in the Cambridge 
# Structural Database, then it will include bibliographic, chemical, 
# crystal, experimental, refinement or atomic coordinate data resulting 
# from the CCDC's data processing and validation procedures.
#
#######################################################################

data_SEFQEC
_chemical_formula_moiety         'C16 H26 O2 Si1'
_chemical_name_systematic        
(2S)-(anti,syn)-5-[dimethyl(phenyl)silyl]-2,4-dimethylhex-5-ene-1,3-diol
_symmetry_cell_setting           triclinic
_symmetry_space_group_name_H-M   'P 1'
_symmetry_Int_Tables_number      1
_space_group_name_Hall           'P 1'
loop_
_symmetry_equiv_pos_site_id
_symmetry_equiv_pos_as_xyz
1 x,y,z
_cell_length_a                   6.9230(12)
_cell_length_b                   9.2252(16)
_cell_length_c                   13.527(2)
_cell_angle_alpha                85.237(7)
_cell_angle_beta                 84.232(7)
_cell_angle_gamma                76.806(7)
_cell_volume                     835.241
_exptl_crystal_colour            colorless
_cell_formula_units_Z            2
loop_
_atom_site_label
_atom_site_type_symbol
_atom_site_fract_x
_atom_site_fract_y
_atom_site_fract_z
C1 C 0.8303(8) 1.1053(6) 1.1251(4)
H1 H 0.9448 1.0980 1.1650
H2 H 0.7700 1.0189 1.1458
C2 C 0.6766(8) 1.2494(6) 1.1462(4)
H3 H 0.6375 1.2461 1.2194
C3 C 0.7569(8) 1.3895(5) 1.1203(3)
H4 H 0.6412 1.4769 1.1257
C4 C 0.9100(7) 1.4128(5) 1.1888(3)
H5 H 1.0217 1.3223 1.1884
C5 C 0.8214(7) 1.4328(5) 1.2956(3)
C6 C 0.6553(8) 1.5319(6) 1.3167(4)
H6 H 0.5885 1.5925 1.2648
H7 H 0.6023 1.5428 1.3840
C7 C 0.4895(8) 1.2571(7) 1.0940(4)
H8 H 0.5224 1.2591 1.0218
H9 H 0.3905 1.3478 1.1110
H10 H 0.4349 1.1694 1.1155
C8 C 0.9950(9) 1.5471(6) 1.1501(4)
H11 H 1.0902 1.5616 1.1953
H12 H 0.8867 1.6363 1.1467
H13 H 1.0628 1.5299 1.0836
C9 C 1.2219(9) 1.3471(8) 1.3828(5)
H14 H 1.2817 1.3243 1.3155
H15 H 1.3003 1.2808 1.4317
H16 H 1.2203 1.4510 1.3939
C10 C 0.8408(10) 1.3738(7) 1.5200(4)
H17 H 0.9054 1.3048 1.5720
H18 H 0.6999 1.3703 1.5229
H19 H 0.8519 1.4754 1.5303
C11 C 0.9667(9) 1.1202(6) 1.3809(4)
C12 C 1.1346(10) 1.0175(7) 1.3471(4)
H20 H 1.2577 1.0472 1.3332
C13 C 1.1253(13) 0.8693(8) 1.3330(4)
H21 H 1.2423 0.7994 1.3112
C14 C 0.9473(15) 0.8263(8) 1.3507(5)
H22 H 0.9400 0.7276 1.3392
C15 C 0.7827(13) 0.9244(7) 1.3844(5)
H23 H 0.6606 0.8933 1.3985
C16 C 0.7896(10) 1.0695(6) 1.3986(4)
H24 H 0.6709 1.1369 1.4211
O1 O 0.8997(5) 1.0996(4) 1.0216(3)
H25 H 0.8226 1.0643 0.9912
O2 O 0.8418(6) 1.3915(4) 1.0188(2)
H26 H 0.8923 1.3037 1.0033
Si1 Si 0.96367(18) 1.31918(14) 1.39646(9)
C17 C 1.4869(8) 0.9606(6) 0.9069(4)
H27 H 1.4973 0.9571 0.8336
H28 H 1.4046 1.0593 0.9240
C18 C 1.3832(8) 0.8408(5) 0.9532(4)
H29 H 1.2471 0.8638 0.9289
C19 C 1.4847(8) 0.6841(6) 0.9238(4)
H30 H 1.4228 0.6109 0.9672
C20 C 1.4733(7) 0.6552(5) 0.8143(3)
H31 H 1.5328 0.7303 0.7715
C21 C 1.2604(7) 0.6722(5) 0.7880(3)
C22 C 1.1356(8) 0.6022(6) 0.8435(4)
H32 H 1.1791 0.5405 0.9004
H33 H 1.0031 0.6138 0.8262
C23 C 1.3560(9) 0.8462(6) 1.0666(4)
H34 H 1.2850 0.9464 1.0843
H35 H 1.4868 0.8221 1.0934
H36 H 1.2789 0.7734 1.0947
C24 C 1.5948(8) 0.5016(6) 0.7910(4)
H37 H 1.5824 0.4834 0.7219
H38 H 1.5457 0.4263 0.8357
H39 H 1.7349 0.4958 0.8005
C25 C 1.3561(10) 0.6986(7) 0.5660(4)
H40 H 1.3379 0.5982 0.5578
H41 H 1.4941 0.6930 0.5797
H42 H 1.3267 0.7612 0.5049
C26 C 0.9248(9) 0.7807(7) 0.6523(5)
H43 H 0.8364 0.8256 0.7082
H44 H 0.9117 0.6778 0.6483
H45 H 0.8881 0.8384 0.5902
C27 C 1.2097(8) 0.9765(6) 0.6828(4)
C28 C 1.3628(9) 1.0334(7) 0.6321(4)
H46 H 1.4535 0.9745 0.5858
C29 C 1.3858(12) 1.1744(8) 0.6477(5)
H47 H 1.4933 1.2112 0.6136
C30 C 1.2528(12) 1.2609(7) 0.7126(5)
H48 H 1.2672 1.3586 0.7223
C31 C 1.1017(10) 1.2092(7) 0.7629(4)
H49 H 1.0105 1.2703 0.8078
C32 C 1.0794(9) 1.0670(6) 0.7492(4)
H50 H 0.9736 1.0308 0.7857
O3 O 1.6818(6) 0.9460(4) 0.9386(3)
H51 H 1.7367 0.8552 0.9463
O4 O 1.6885(5) 0.6622(4) 0.9444(3)
H52 H 1.7357 0.5708 0.9566
Si2 Si 1.18495(19) 0.78106(14) 0.67165(10)
loop_
_geom_bond_atom_site_label_1
_geom_bond_atom_site_label_2
_geom_bond_site_symmetry_1
_geom_bond_site_symmetry_2
C1 H1 1_555 1_555
H2 C1 1_555 1_555
C2 C1 1_555 1_555
H3 C2 1_555 1_555
C3 C2 1_555 1_555
H4 C3 1_555 1_555
C4 C3 1_555 1_555
H5 C4 1_555 1_555
C5 C4 1_555 1_555
C6 C5 1_555 1_555
H6 C6 1_555 1_555
H7 C6 1_555 1_555
C7 C2 1_555 1_555
H8 C7 1_555 1_555
H9 C7 1_555 1_555
H10 C7 1_555 1_555
C8 C4 1_555 1_555
H11 C8 1_555 1_555
H12 C8 1_555 1_555
H13 C8 1_555 1_555
C9 H14 1_555 1_555
H15 C9 1_555 1_555
H16 C9 1_555 1_555
C10 H17 1_555 1_555
H18 C10 1_555 1_555
H19 C10 1_555 1_555
C11 C12 1_555 1_555
C12 H20 1_555 1_555
C13 C12 1_555 1_555
H21 C13 1_555 1_555
C14 C13 1_555 1_555
H22 C14 1_555 1_555
C15 C14 1_555 1_555
H23 C15 1_555 1_555
C16 C11 1_555 1_555
H24 C16 1_555 1_555
O1 C1 1_555 1_555
H25 O1 1_555 1_555
O2 C3 1_555 1_555
H26 O2 1_555 1_555
Si1 C5 1_555 1_555
C17 H27 1_555 1_555
H28 C17 1_555 1_555
C18 C17 1_555 1_555
H29 C18 1_555 1_555
C19 C18 1_555 1_555
H30 C19 1_555 1_555
C20 C19 1_555 1_555
H31 C20 1_555 1_555
C21 C20 1_555 1_555
C22 C21 1_555 1_555
H32 C22 1_555 1_555
H33 C22 1_555 1_555
C23 C18 1_555 1_555
H34 C23 1_555 1_555
H35 C23 1_555 1_555
H36 C23 1_555 1_555
C24 C20 1_555 1_555
H37 C24 1_555 1_555
H38 C24 1_555 1_555
H39 C24 1_555 1_555
C25 H40 1_555 1_555
H41 C25 1_555 1_555
H42 C25 1_555 1_555
C26 H43 1_555 1_555
H44 C26 1_555 1_555
H45 C26 1_555 1_555
C27 C28 1_555 1_555
C28 H46 1_555 1_555
C29 C28 1_555 1_555
H47 C29 1_555 1_555
C30 C29 1_555 1_555
H48 C30 1_555 1_555
C31 C30 1_555 1_555
H49 C31 1_555 1_555
C32 C27 1_555 1_555
H50 C32 1_555 1_555
O3 C17 1_555 1_555
H51 O3 1_555 1_555
O4 C19 1_555 1_555
H52 O4 1_555 1_555
Si2 C21 1_555 1_555
C9 Si1 1_555 1_555
C10 Si1 1_555 1_555
C11 Si1 1_555 1_555
C15 C16 1_555 1_555
C25 Si2 1_555 1_555
C26 Si2 1_555 1_555
C27 Si2 1_555 1_555
C31 C32 1_555 1_555

#END
