
#######################################################################
#
#                 Cambridge Crystallographic Data Centre
#                                CCDC 
#
#######################################################################
#
# If this CIF has been generated from an entry in the Cambridge 
# Structural Database, then it will include bibliographic, chemical, 
# crystal, experimental, refinement or atomic coordinate data resulting 
# from the CCDC's data processing and validation procedures.
#
#######################################################################

data_SEFRUT
_chemical_formula_moiety         'C20 H32 N1 O5 P1'
_chemical_name_systematic        
'ethyl N-{[2-(1-cyclopropylethyl)-6-(propan-2-yl)phenoxy](hydroxymethyl)phosphoryl}alaninate'
_symmetry_cell_setting           monoclinic
_symmetry_space_group_name_H-M   'P 21'
_symmetry_Int_Tables_number      4
_space_group_name_Hall           'P 2yb'
loop_
_symmetry_equiv_pos_site_id
_symmetry_equiv_pos_as_xyz
1 x,y,z
2 -x,1/2+y,-z
_cell_length_a                   9.3245(5)
_cell_length_b                   16.2486(8)
_cell_length_c                   14.9881(7)
_cell_angle_alpha                90
_cell_angle_beta                 97.227(2)
_cell_angle_gamma                90
_cell_volume                     2252.81
_exptl_crystal_colour            colorless
_exptl_crystal_description       block
_cell_formula_units_Z            4
loop_
_atom_site_label
_atom_site_type_symbol
_atom_site_fract_x
_atom_site_fract_y
_atom_site_fract_z
P1 P 0.24700(12) 0.35244(9) 0.65202(8)
O1 O 0.2721(3) 0.3397(3) 0.7588(2)
O2 O 0.3718(4) 0.3867(3) 0.6144(3)
O3 O 0.0530(5) 0.4599(3) 0.5702(3)
H1 H 0.091116 0.505468 0.573118
O4 O 0.3447(4) 0.2707(3) 0.3961(3)
O5 O 0.1306(4) 0.3104(3) 0.4305(3)
N1 N 0.1966(4) 0.2651(3) 0.6039(3)
H2 H 0.182569 0.229485 0.644311
C1 C 0.3666(5) 0.2821(4) 0.8061(3)
C2 C 0.3052(7) 0.2091(4) 0.8334(4)
C3 C 0.3967(9) 0.1558(6) 0.8828(5)
H3 H 0.359845 0.106708 0.902273
C4 C 0.5418(10) 0.1723(7) 0.9049(6)
H4 H 0.602511 0.133350 0.935282
C5 C 0.5970(8) 0.2479(6) 0.8813(5)
H5 H 0.693109 0.260804 0.900413
C6 C 0.5111(6) 0.3038(4) 0.8299(4)
C7 C 0.5704(6) 0.3863(5) 0.8083(4)
H6 H 0.493580 0.416478 0.771353
C8 C 0.6085(9) 0.4345(6) 0.8967(5)
H7 H 0.687039 0.410038 0.937751
C9 C 0.6092(13) 0.5205(9) 0.8961(7)
H8 H 0.576083 0.548238 0.839974
H9 H 0.685375 0.548506 0.934517
C10 C 0.5017(12) 0.4717(7) 0.9399(7)
H10 H 0.512186 0.470042 1.005085
H11 H 0.402916 0.469773 0.910561
C11 C 0.6992(10) 0.3809(7) 0.7557(6)
H12 H 0.780903 0.359141 0.793789
H13 H 0.721983 0.434728 0.735300
H14 H 0.675911 0.345240 0.704863
C12 C 0.1448(7) 0.1935(5) 0.8173(5)
H15 H 0.107290 0.220503 0.760626
C13 C 0.0749(11) 0.2354(8) 0.8929(7)
H16 H 0.118559 0.214949 0.950038
H17 H -0.026802 0.223559 0.885707
H18 H 0.089150 0.293798 0.890258
C14 C 0.1064(14) 0.1021(8) 0.8081(10)
H19 H 0.156404 0.077846 0.762464
H20 H 0.004030 0.096245 0.791746
H21 H 0.134671 0.074893 0.864445
C15 C 0.0898(6) 0.4184(4) 0.6514(4)
H22 H 0.008146 0.385217 0.663760
H23 H 0.108498 0.458546 0.699337
C16 C 0.2703(5) 0.2261(4) 0.5352(4)
H24 H 0.373490 0.223260 0.557743
C17 C 0.2149(8) 0.1385(4) 0.5196(5)
H25 H 0.236606 0.107236 0.573999
H26 H 0.260964 0.113508 0.472620
H27 H 0.112200 0.139467 0.502426
C18 C 0.2549(5) 0.2717(4) 0.4477(4)
C19 C 0.1105(10) 0.3607(8) 0.3484(5)
H28 H 0.201708 0.387099 0.341369
H29 H 0.086577 0.324477 0.297289
C20 C 0.013(3) 0.4166(10) 0.3460(9)
H30 H -0.056898 0.401456 0.385227
H31 H -0.035036 0.421970 0.285630
H32 H 0.056365 0.468119 0.365274
P2 P 0.31369(13) 0.64585(9) 0.64481(8)
O6 O 0.3340(4) 0.6604(3) 0.7516(2)
O7 O 0.1724(4) 0.6116(3) 0.6094(3)
O8 O 0.4680(6) 0.5369(3) 0.5618(3)
H33 H 0.431393 0.491313 0.565431
O9 O 0.1097(4) 0.7267(3) 0.3880(3)
O10 O 0.3385(4) 0.6896(3) 0.4199(3)
N2 N 0.3445(4) 0.7314(3) 0.5948(3)
H34 H 0.377105 0.767149 0.634630
C21 C 0.2629(6) 0.7215(4) 0.7965(3)
C22 C 0.3343(6) 0.7933(4) 0.8198(4)
C23 C 0.2632(8) 0.8514(6) 0.8647(4)
H35 H 0.307399 0.901627 0.879881
C24 C 0.1249(8) 0.8355(6) 0.8876(5)
H36 H 0.076742 0.875779 0.916398
C25 C 0.0617(7) 0.7629(6) 0.8686(5)
H37 H -0.028629 0.752911 0.886541
C26 C 0.1266(6) 0.7014(5) 0.8225(4)
C27 C 0.0540(6) 0.6196(5) 0.8067(4)
H38 H 0.120455 0.582521 0.780645
C28 C 0.0211(9) 0.5832(7) 0.8947(6)
H39 H -0.060812 0.608516 0.919316
C29 C 0.1328(12) 0.5536(8) 0.9606(7)
H40 H 0.122040 0.563088 1.023268
H41 H 0.231444 0.556954 0.946620
C30 C 0.0376(11) 0.4926(8) 0.9117(7)
H42 H -0.033325 0.465392 0.943621
H43 H 0.076442 0.459238 0.866718
C31 C -0.0859(9) 0.6231(7) 0.7437(6)
H44 H -0.155882 0.654558 0.771044
H45 H -0.121716 0.568283 0.731914
H46 H -0.068972 0.648693 0.688278
C32 C 0.4899(7) 0.8061(5) 0.8039(5)
H47 H 0.506656 0.772332 0.752052
C33 C 0.5912(8) 0.7750(8) 0.8844(7)
H48 H 0.568660 0.801893 0.937997
H49 H 0.689323 0.786966 0.875801
H50 H 0.579429 0.716668 0.890264
C34 C 0.5215(11) 0.8968(6) 0.7806(8)
H51 H 0.448484 0.915986 0.734358
H52 H 0.614491 0.900232 0.759634
H53 H 0.521097 0.930381 0.833251
C35 C 0.4670(7) 0.5784(4) 0.6425(5)
H54 H 0.554911 0.610573 0.654213
H55 H 0.467356 0.538330 0.690544
C36 C 0.2404(5) 0.7705(4) 0.5268(4)
H56 H 0.146680 0.773100 0.549777
C37 C 0.2904(8) 0.8589(5) 0.5106(5)
H57 H 0.301375 0.888619 0.566414
H58 H 0.219730 0.885854 0.468417
H59 H 0.381362 0.857358 0.486916
C38 C 0.2208(5) 0.7266(4) 0.4383(4)
C39 C 0.3243(9) 0.6385(9) 0.3355(6)
H60 H 0.242863 0.601444 0.335639
H61 H 0.304617 0.674526 0.283787
C40 C 0.4429(18) 0.5947(11) 0.3276(9)
H62 H 0.521170 0.631257 0.319542
H63 H 0.425108 0.558811 0.276574
H64 H 0.467856 0.562578 0.381049
loop_
_geom_bond_atom_site_label_1
_geom_bond_atom_site_label_2
_geom_bond_site_symmetry_1
_geom_bond_site_symmetry_2
P1 O1 1_555 1_555
O1 C1 1_555 1_555
O2 P1 1_555 1_555
O3 H1 1_555 1_555
O4 C18 1_555 1_555
O5 C18 1_555 1_555
N1 P1 1_555 1_555
H2 N1 1_555 1_555
C1 C2 1_555 1_555
C2 C3 1_555 1_555
C3 H3 1_555 1_555
C4 C3 1_555 1_555
H4 C4 1_555 1_555
C5 C4 1_555 1_555
H5 C5 1_555 1_555
C6 C1 1_555 1_555
C7 C6 1_555 1_555
H6 C7 1_555 1_555
C8 C7 1_555 1_555
H7 C8 1_555 1_555
C9 C8 1_555 1_555
H8 C9 1_555 1_555
H9 C9 1_555 1_555
C10 C8 1_555 1_555
H10 C10 1_555 1_555
H11 C10 1_555 1_555
C11 C7 1_555 1_555
H12 C11 1_555 1_555
H13 C11 1_555 1_555
H14 C11 1_555 1_555
C12 C2 1_555 1_555
H15 C12 1_555 1_555
C13 C12 1_555 1_555
H16 C13 1_555 1_555
H17 C13 1_555 1_555
H18 C13 1_555 1_555
C14 C12 1_555 1_555
H19 C14 1_555 1_555
H20 C14 1_555 1_555
H21 C14 1_555 1_555
C15 P1 1_555 1_555
H22 C15 1_555 1_555
H23 C15 1_555 1_555
C16 N1 1_555 1_555
H24 C16 1_555 1_555
C17 C16 1_555 1_555
H25 C17 1_555 1_555
H26 C17 1_555 1_555
H27 C17 1_555 1_555
C18 C16 1_555 1_555
C19 O5 1_555 1_555
H28 C19 1_555 1_555
H29 C19 1_555 1_555
C20 C19 1_555 1_555
H30 C20 1_555 1_555
H31 C20 1_555 1_555
H32 C20 1_555 1_555
P2 O6 1_555 1_555
O6 C21 1_555 1_555
O7 P2 1_555 1_555
O8 H33 1_555 1_555
O9 C38 1_555 1_555
O10 C38 1_555 1_555
N2 P2 1_555 1_555
H34 N2 1_555 1_555
C21 C22 1_555 1_555
C22 C23 1_555 1_555
C23 H35 1_555 1_555
C24 C23 1_555 1_555
H36 C24 1_555 1_555
C25 C24 1_555 1_555
H37 C25 1_555 1_555
C26 C21 1_555 1_555
C27 C26 1_555 1_555
H38 C27 1_555 1_555
C28 C27 1_555 1_555
H39 C28 1_555 1_555
C29 C28 1_555 1_555
H40 C29 1_555 1_555
H41 C29 1_555 1_555
C30 C28 1_555 1_555
H42 C30 1_555 1_555
H43 C30 1_555 1_555
C31 C27 1_555 1_555
H44 C31 1_555 1_555
H45 C31 1_555 1_555
H46 C31 1_555 1_555
C32 C22 1_555 1_555
H47 C32 1_555 1_555
C33 C32 1_555 1_555
H48 C33 1_555 1_555
H49 C33 1_555 1_555
H50 C33 1_555 1_555
C34 C32 1_555 1_555
H51 C34 1_555 1_555
H52 C34 1_555 1_555
H53 C34 1_555 1_555
C35 P2 1_555 1_555
H54 C35 1_555 1_555
H55 C35 1_555 1_555
C36 N2 1_555 1_555
H56 C36 1_555 1_555
C37 C36 1_555 1_555
H57 C37 1_555 1_555
H58 C37 1_555 1_555
H59 C37 1_555 1_555
C38 C36 1_555 1_555
C39 O10 1_555 1_555
H60 C39 1_555 1_555
H61 C39 1_555 1_555
C40 C39 1_555 1_555
H62 C40 1_555 1_555
H63 C40 1_555 1_555
H64 C40 1_555 1_555
O3 C15 1_555 1_555
C5 C6 1_555 1_555
C9 C10 1_555 1_555
O8 C35 1_555 1_555
C25 C26 1_555 1_555
C29 C30 1_555 1_555

#END
