
#######################################################################
#
#                 Cambridge Crystallographic Data Centre
#                                CCDC 
#
#######################################################################
#
# If this CIF has been generated from an entry in the Cambridge 
# Structural Database, then it will include bibliographic, chemical, 
# crystal, experimental, refinement or atomic coordinate data resulting 
# from the CCDC's data processing and validation procedures.
#
#######################################################################

data_SEFROM
_chemical_formula_moiety         'C13 H8 Br1 Cl1 N2 O2'
_chemical_name_systematic        
'Methyl 3-bromo-5-(4-chlorophenyl)-4-cyano-1H-pyrrole-2-carboxylate'
_chemical_properties_biological  'tested for insecticidal activity'
_symmetry_cell_setting           triclinic
_symmetry_space_group_name_H-M   'P -1'
_symmetry_Int_Tables_number      2
_space_group_name_Hall           '-P 1'
loop_
_symmetry_equiv_pos_site_id
_symmetry_equiv_pos_as_xyz
1 x,y,z
2 -x,-y,-z
_cell_length_a                   7.3571(15)
_cell_length_b                   13.590(3)
_cell_length_c                   14.123(3)
_cell_angle_alpha                106.01(3)
_cell_angle_beta                 99.59(3)
_cell_angle_gamma                98.04(3)
_cell_volume                     1312.35
_chemical_melting_point          543-545K
_cell_formula_units_Z            4
loop_
_atom_site_label
_atom_site_type_symbol
_atom_site_fract_x
_atom_site_fract_y
_atom_site_fract_z
Br1 Br 1.20879(9) 0.80401(4) 0.51969(4)
C1 C 0.9224(7) 0.2189(4) 0.1328(4)
C2 C 0.9261(7) 0.2507(4) 0.2334(4)
H1 H 0.9140 0.2024 0.2686
C3 C 0.9483(7) 0.3562(4) 0.2822(3)
H2 H 0.9511 0.3789 0.3509
C4 C 0.9664(6) 0.4289(3) 0.2303(3)
C5 C 0.9579(6) 0.3925(4) 0.1273(3)
H3 H 0.9667 0.4396 0.0907
C6 C 0.9367(7) 0.2886(4) 0.0794(3)
H4 H 0.9320 0.2650 0.0105
C7 C 1.0062(6) 0.5408(4) 0.2836(3)
C8 C 1.0973(6) 0.5945(4) 0.3828(3)
C9 C 1.1039(7) 0.7006(4) 0.3979(3)
N1 N 0.9620(5) 0.6140(3) 0.2404(3)
H5 H 0.9050 0.6010 0.1787
C10 C 1.1854(6) 0.5509(4) 0.4549(3)
C11 C 0.9983(7) 0.8088(5) 0.2831(4)
C12 C 0.8862(10) 0.8778(5) 0.1601(5)
H6 H 0.8123 0.9148 0.2022
H7 H 0.8215 0.8581 0.0908
H8 H 1.0056 0.9221 0.1692
Cl1 Cl 0.8988(2) 0.08748(11) 0.07177(11)
C25 C 1.0213(7) 0.7127(4) 0.3092(4)
N3 N 1.2599(6) 0.5188(3) 0.5134(3)
O3 O 1.0473(6) 0.8941(3) 0.3408(3)
O4 O 0.9152(5) 0.7857(3) 0.1873(3)
Br2 Br 0.59223(8) 0.27066(5) 0.84396(4)
C13 C 0.5723(7) 0.8548(4) 0.8052(4)
C14 C 0.5910(7) 0.7885(4) 0.7169(4)
H9 H 0.6108 0.8138 0.6639
C15 C 0.5806(6) 0.6845(4) 0.7064(3)
H10 H 0.5930 0.6395 0.6460
C16 C 0.5518(6) 0.6457(4) 0.7850(3)
C17 C 0.5396(6) 0.7161(4) 0.8761(4)
H11 H 0.5246 0.6922 0.9305
C18 C 0.5496(7) 0.8199(4) 0.8858(4)
H12 H 0.5410 0.8663 0.9463
C19 C 0.5324(6) 0.5345(4) 0.7720(3)
C20 C 0.5843(6) 0.4800(4) 0.8398(3)
C21 C 0.5395(6) 0.3738(4) 0.7869(3)
N2 N 0.4618(5) 0.4617(3) 0.6824(3)
H13 H 0.4220 0.4755 0.6276
C22 C 0.6736(6) 0.5250(4) 0.9440(4)
C23 C 0.3825(7) 0.2745(4) 0.5973(4)
C24 C 0.2987(10) 0.0920(5) 0.5314(5)
H14 H 0.1831 0.1007 0.4947
H15 H 0.2750 0.0326 0.5550
H16 H 0.3864 0.0814 0.4880
Cl2 Cl 0.5714(3) 0.98465(13) 0.81434(14)
C26 C 0.4607(6) 0.3625(4) 0.6885(3)
N4 N 0.7468(6) 0.5565(4) 1.0264(3)
O1 O 0.3306(6) 0.2843(3) 0.5163(3)
O2 O 0.3760(6) 0.1840(3) 0.6161(3)
loop_
_geom_bond_atom_site_label_1
_geom_bond_atom_site_label_2
_geom_bond_site_symmetry_1
_geom_bond_site_symmetry_2
Br1 C9 1_555 1_555
Br2 C21 1_555 1_555
C1 C2 1_555 1_555
C2 H1 1_555 1_555
C3 C2 1_555 1_555
H2 C3 1_555 1_555
C4 C3 1_555 1_555
C5 C4 1_555 1_555
H3 C5 1_555 1_555
C6 C1 1_555 1_555
H4 C6 1_555 1_555
C7 C4 1_555 1_555
C8 C7 1_555 1_555
C9 C8 1_555 1_555
N1 C7 1_555 1_555
H5 N1 1_555 1_555
C10 C8 1_555 1_555
C11 C25 1_555 1_555
C12 H6 1_555 1_555
H7 C12 1_555 1_555
H8 C12 1_555 1_555
C13 C14 1_555 1_555
C14 H9 1_555 1_555
C15 C14 1_555 1_555
H10 C15 1_555 1_555
C16 C15 1_555 1_555
C17 C16 1_555 1_555
H11 C17 1_555 1_555
C18 C13 1_555 1_555
H12 C18 1_555 1_555
C19 C16 1_555 1_555
C20 C19 1_555 1_555
C21 C20 1_555 1_555
N2 C19 1_555 1_555
H13 N2 1_555 1_555
C22 C20 1_555 1_555
C23 C26 1_555 1_555
C24 H14 1_555 1_555
H15 C24 1_555 1_555
H16 C24 1_555 1_555
Cl1 C1 1_555 1_555
Cl2 C13 1_555 1_555
C25 C9 1_555 1_555
N3 C10 1_555 1_555
C26 C21 1_555 1_555
N4 C22 1_555 1_555
O1 C23 1_555 1_555
O2 C23 1_555 1_555
O3 C11 1_555 1_555
O4 C11 1_555 1_555
C5 C6 1_555 1_555
N1 C25 1_555 1_555
C12 O4 1_555 1_555
C17 C18 1_555 1_555
N2 C26 1_555 1_555
C24 O2 1_555 1_555

#END
