
#######################################################################
#
#                 Cambridge Crystallographic Data Centre
#                                CCDC 
#
#######################################################################
#
# If this CIF has been generated from an entry in the Cambridge 
# Structural Database, then it will include bibliographic, chemical, 
# crystal, experimental, refinement or atomic coordinate data resulting 
# from the CCDC's data processing and validation procedures.
#
#######################################################################

data_SEFRIG
_chemical_formula_moiety         'C18 H12 Br1 N3 O1'
_chemical_name_systematic        
5-(4-Bromophenyl)-4-cyano-N-phenyl-1H-pyrrole-2-carboxamide
_symmetry_cell_setting           triclinic
_symmetry_space_group_name_H-M   'P -1'
_symmetry_Int_Tables_number      2
_space_group_name_Hall           '-P 1'
loop_
_symmetry_equiv_pos_site_id
_symmetry_equiv_pos_as_xyz
1 x,y,z
2 -x,-y,-z
_cell_length_a                   6.0252(12)
_cell_length_b                   8.9998(18)
_cell_length_c                   15.139(3)
_cell_angle_alpha                80.86(3)
_cell_angle_beta                 85.94(3)
_cell_angle_gamma                71.39(3)
_cell_volume                     767.942
_cell_formula_units_Z            2
loop_
_atom_site_label
_atom_site_type_symbol
_atom_site_fract_x
_atom_site_fract_y
_atom_site_fract_z
C1 C 0.5032(5) -0.0362(4) 0.84210(19)
C2 C 0.7379(6) -0.1118(5) 0.8306(2)
C3 C 0.8595(6) -0.0562(4) 0.7603(2)
C4 C 0.7494(5) 0.0762(3) 0.69891(18)
C5 C 0.5116(5) 0.1504(4) 0.7133(2)
C6 C 0.3896(6) 0.0948(4) 0.7840(2)
C7 C 0.8787(5) 0.1302(3) 0.62212(18)
C8 C 1.1079(5) 0.0633(3) 0.59054(18)
C9 C 1.1460(5) 0.1591(4) 0.5118(2)
C10 C 0.9443(5) 0.2818(3) 0.49541(18)
C11 C 1.2793(5) -0.0817(4) 0.62530(19)
C12 C 0.8752(5) 0.4083(3) 0.41821(19)
C13 C 1.0235(5) 0.4899(3) 0.26768(19)
C14 C 1.1894(6) 0.5603(4) 0.2335(2)
C15 C 1.1820(7) 0.6298(4) 0.1447(2)
C16 C 1.0106(7) 0.6270(5) 0.0911(3)
C17 C 0.8429(7) 0.5556(4) 0.1248(2)
C18 C 0.8503(6) 0.4871(4) 0.2138(2)
H1 H 0.436(5) 0.235(4) 0.673(2)
H2 H 1.292(5) 0.141(3) 0.4746(19)
H3 H 0.646(5) 0.323(3) 0.5649(19)
H4 H 0.230(6) 0.148(4) 0.791(2)
H5 H 0.735(5) 0.435(3) 0.239(2)
H6 H 1.194(6) 0.349(4) 0.370(2)
H7 H 1.027(6) -0.109(4) 0.752(2)
H8 H 1.305(6) 0.676(4) 0.123(2)
H9 H 1.311(5) 0.562(3) 0.272(2)
H10 H 0.712(6) 0.554(4) 0.086(2)
H11 H 0.819(6) -0.202(4) 0.874(3)
H12 H 1.011(6) 0.671(5) 0.031(3)
N1 N 0.7846(4) 0.2646(3) 0.56279(15)
N2 N 1.4274(5) -0.1968(3) 0.64730(18)
N3 N 1.0491(4) 0.4086(3) 0.35666(16)
Br1 Br 0.33145(7) -0.11554(5) 0.93969(2)
O1 O 0.6752(4) 0.5009(2) 0.41062(13)
loop_
_geom_bond_atom_site_label_1
_geom_bond_atom_site_label_2
_geom_bond_site_symmetry_1
_geom_bond_site_symmetry_2
C1 C2 1_555 1_555
C2 C3 1_555 1_555
C3 C4 1_555 1_555
C4 C5 1_555 1_555
C5 C6 1_555 1_555
C6 C1 1_555 1_555
C7 C4 1_555 1_555
C8 C7 1_555 1_555
C9 C8 1_555 1_555
C10 C9 1_555 1_555
C11 C8 1_555 1_555
C12 C10 1_555 1_555
C13 C14 1_555 1_555
C14 C15 1_555 1_555
C15 C16 1_555 1_555
C16 C17 1_555 1_555
C17 C18 1_555 1_555
C18 C13 1_555 1_555
H1 C5 1_555 1_555
H2 C9 1_555 1_555
H3 N1 1_555 1_555
H4 C6 1_555 1_555
H5 C18 1_555 1_555
H6 N3 1_555 1_555
H7 C3 1_555 1_555
H8 C15 1_555 1_555
H9 C14 1_555 1_555
H10 C17 1_555 1_555
H11 C2 1_555 1_555
H12 C16 1_555 1_555
N1 C7 1_555 1_555
N2 C11 1_555 1_555
N3 C12 1_555 1_555
Br1 C1 1_555 1_555
O1 C12 1_555 1_555
C10 N1 1_555 1_555
C13 N3 1_555 1_555

#END
