
#######################################################################
#
#                 Cambridge Crystallographic Data Centre
#                                CCDC 
#
#######################################################################
#
# If this CIF has been generated from an entry in the Cambridge 
# Structural Database, then it will include bibliographic, chemical, 
# crystal, experimental, refinement or atomic coordinate data resulting 
# from the CCDC's data processing and validation procedures.
#
#######################################################################

data_SEFTIH
_chemical_formula_moiety         'C48 H44 N6 O2 S1,2(C3 H6 O1)'
_chemical_name_systematic        
'3,32-dimethyl-17,18-diphenyl-4,31-di-n-propyl-34-thia-7,14,21,28,33,35-hexaazahexacyclo[28.2.1.1^2,5^.1^16,19^.0^8,13^.0^22,27^]pentatriaconta-1(32),2,4,6,8,10,12,16,18,22,24,26,28,30-tetradecaene-15,20-dione acetone solvate'
_symmetry_cell_setting           triclinic
_symmetry_space_group_name_H-M   'P -1'
_symmetry_Int_Tables_number      2
_space_group_name_Hall           '-P 1'
loop_
_symmetry_equiv_pos_site_id
_symmetry_equiv_pos_as_xyz
1 x,y,z
2 -x,-y,-z
_cell_length_a                   11.1606(2)
_cell_length_b                   15.0164(3)
_cell_length_c                   16.1627(4)
_cell_angle_alpha                75.206(1)
_cell_angle_beta                 71.898(1)
_cell_angle_gamma                69.268(1)
_cell_volume                     2375.54
_exptl_crystal_colour            yellow
_exptl_crystal_description       needles
_cell_formula_units_Z            2
_exptl_crystal_recrystallization_method 'methylene chloride/acetone'
loop_
_atom_site_label
_atom_site_type_symbol
_atom_site_fract_x
_atom_site_fract_y
_atom_site_fract_z
S1 S 0.45586(10) 0.60070(7) 0.57906(6)
O1 O 0.2341(3) 0.83988(18) 0.65983(16)
O2 O 0.4350(3) 0.35483(17) 0.68912(17)
N1 N 0.7890(3) 0.7017(2) 0.30787(19)
N2 N 0.5767(3) 0.8572(2) 0.38585(19)
N3 N 0.4073(3) 0.8258(2) 0.5365(2)
N4 N 0.6382(3) 0.3690(2) 0.6157(2)
N5 N 0.8398(3) 0.32648(19) 0.4709(2)
N6 N 0.8872(3) 0.4842(2) 0.3424(2)
C1 C 0.9125(4) 0.6445(2) 0.2697(2)
C2 C 1.0001(4) 0.6987(3) 0.2436(2)
C3 C 0.9294(4) 0.7915(2) 0.2651(2)
C4 C 0.7995(4) 0.7923(2) 0.3040(2)
C5 C 0.6887(4) 0.8688(2) 0.3404(2)
H1 H 0.6998 0.9316 0.3295
C6 C 0.4738(4) 0.9380(2) 0.4126(2)
C7 C 0.4547(4) 1.0310(3) 0.3641(2)
H2 H 0.5168 1.0426 0.3093
C8 C 0.3466(4) 1.1062(3) 0.3962(3)
H3 H 0.3343 1.1702 0.3629
C9 C 0.2582(4) 1.0888(3) 0.4747(3)
H4 H 0.1848 1.1419 0.4953
C10 C 0.2738(4) 0.9987(2) 0.5223(2)
H5 H 0.2108 0.9870 0.5766
C11 C 0.3815(4) 0.9221(2) 0.4926(2)
C12 C 0.3367(4) 0.7909(3) 0.6163(3)
C13 C 0.3893(4) 0.6857(2) 0.6486(2)
C14 C 0.3764(4) 0.6440(2) 0.7356(2)
C15 C 0.4185(4) 0.5403(2) 0.7450(2)
C16 C 0.4650(4) 0.5075(2) 0.6662(2)
C17 C 0.5095(4) 0.4041(3) 0.6571(2)
C18 C 0.7087(4) 0.2691(2) 0.6087(2)
C19 C 0.6756(4) 0.1961(3) 0.6750(2)
H6 H 0.6012 0.2119 0.7240
C20 C 0.7512(4) 0.1008(3) 0.6689(3)
H7 H 0.7284 0.0499 0.7144
C21 C 0.8588(4) 0.0790(3) 0.5990(3)
H8 H 0.9123 0.0132 0.5968
C22 C 0.8906(4) 0.1513(2) 0.5324(2)
H9 H 0.9646 0.1361 0.4831
C23 C 0.8141(4) 0.2478(2) 0.5361(2)
C24 C 0.8934(4) 0.3155(3) 0.3886(3)
H10 H 0.9133 0.2538 0.3722
C25 C 0.9221(4) 0.3929(2) 0.3231(2)
C26 C 0.9893(4) 0.3949(3) 0.2355(2)
C27 C 0.9959(4) 0.4903(3) 0.2004(2)
C28 C 0.9332(4) 0.5438(3) 0.2685(2)
C29 C 1.1468(4) 0.6624(3) 0.2069(2)
H11 H 1.1726 0.5939 0.2087
H12 H 1.1925 0.6768 0.2409
H13 H 1.1702 0.6938 0.1471
C30 C 0.9857(4) 0.8732(2) 0.2476(2)
H14 H 1.0760 0.8484 0.2518
H15 H 0.9361 0.9138 0.2916
C31 C 0.9783(4) 0.9355(3) 0.1572(3)
H16 H 0.8879 0.9632 0.1537
H17 H 1.0246 0.8945 0.1133
C32 C 1.0430(5) 1.0151(3) 0.1381(3)
H18 H 1.0399 1.0532 0.0808
H19 H 0.9958 1.0555 0.1824
H20 H 1.1333 0.9864 0.1418
C33 C 0.3325(4) 0.7002(2) 0.8086(2)
C34 C 0.3940(4) 0.7674(3) 0.8042(2)
H21 H 0.4671 0.7746 0.7552
C35 C 0.3527(4) 0.8225(3) 0.8694(3)
H22 H 0.3942 0.8702 0.8651
C36 C 0.2486(5) 0.8110(3) 0.9412(3)
H23 H 0.2211 0.8485 0.9875
C37 C 0.1882(4) 0.7441(3) 0.9481(2)
H24 H 0.1153 0.7366 0.9971
C38 C 0.2307(4) 0.6874(3) 0.8812(2)
H25 H 0.1902 0.6391 0.8856
C39 C 0.4165(4) 0.4762(2) 0.8330(2)
C40 C 0.3204(4) 0.4287(3) 0.8715(3)
H26 H 0.2564 0.4368 0.8398
C41 C 0.3195(5) 0.3709(3) 0.9524(3)
H27 H 0.2507 0.3408 0.9795
C42 C 0.4163(5) 0.3567(3) 0.9954(3)
H28 H 0.4164 0.3142 1.0510
C43 C 0.5121(5) 0.4020(3) 0.9583(3)
H29 H 0.5785 0.3916 0.9888
C44 C 0.5106(4) 0.4627(3) 0.8773(2)
H30 H 0.5754 0.4967 0.8515
C45 C 1.0534(4) 0.3072(2) 0.1896(2)
H31 H 1.0644 0.3277 0.1271
H32 H 0.9970 0.2664 0.2092
C46 C 1.1882(4) 0.2486(3) 0.2082(3)
H33 H 1.1771 0.2282 0.2707
H34 H 1.2445 0.2895 0.1886
C47 C 1.2542(4) 0.1618(3) 0.1629(3)
H35 H 1.3385 0.1266 0.1758
H36 H 1.1980 0.1208 0.1832
H37 H 1.2659 0.1826 0.1004
C48 C 1.0532(4) 0.5280(3) 0.1062(2)
H38 H 1.0450 0.5950 0.1001
H39 H 1.1448 0.4920 0.0896
H40 H 1.0066 0.5205 0.0687
H47 H 0.482(4) 0.782(2) 0.500(2)
H48 H 0.686(4) 0.408(3) 0.591(2)
H49 H 0.713(5) 0.671(3) 0.332(3)
H50 H 0.862(3) 0.497(2) 0.391(2)
O3 O 0.7843(3) 0.52248(18) 0.52630(17)
C49 C 0.7530(4) 0.5893(3) 0.6507(3)
H41 H 0.7035 0.5443 0.6790
H42 H 0.8246 0.5750 0.6777
H43 H 0.6963 0.6537 0.6569
C50 C 0.8067(4) 0.5805(3) 0.5560(3)
C51 C 0.8874(4) 0.6440(3) 0.4984(3)
H44 H 0.9143 0.6303 0.4394
H45 H 0.8358 0.7105 0.4987
H46 H 0.9641 0.6318 0.5195
loop_
_geom_bond_atom_site_label_1
_geom_bond_atom_site_label_2
_geom_bond_site_symmetry_1
_geom_bond_site_symmetry_2
S1 C13 1_555 1_555
O1 C12 1_555 1_555
O2 C17 1_555 1_555
N1 C1 1_555 1_555
N2 C5 1_555 1_555
N3 C11 1_555 1_555
N4 C17 1_555 1_555
N5 C23 1_555 1_555
N6 C25 1_555 1_555
C1 C2 1_555 1_555
C2 C3 1_555 1_555
C3 C4 1_555 1_555
C4 N1 1_555 1_555
C5 C4 1_555 1_555
H1 C5 1_555 1_555
C6 N2 1_555 1_555
C7 C6 1_555 1_555
H2 C7 1_555 1_555
C8 C7 1_555 1_555
H3 C8 1_555 1_555
C9 C8 1_555 1_555
H4 C9 1_555 1_555
C10 C9 1_555 1_555
H5 C10 1_555 1_555
C11 C6 1_555 1_555
C12 N3 1_555 1_555
C13 C12 1_555 1_555
C14 C13 1_555 1_555
C15 C14 1_555 1_555
C16 S1 1_555 1_555
C17 C16 1_555 1_555
C18 N4 1_555 1_555
C19 C18 1_555 1_555
H6 C19 1_555 1_555
C20 C19 1_555 1_555
H7 C20 1_555 1_555
C21 C20 1_555 1_555
H8 C21 1_555 1_555
C22 C21 1_555 1_555
H9 C22 1_555 1_555
C23 C18 1_555 1_555
C24 N5 1_555 1_555
H10 C24 1_555 1_555
C25 C24 1_555 1_555
C26 C25 1_555 1_555
C27 C26 1_555 1_555
C28 N6 1_555 1_555
C29 C2 1_555 1_555
H11 C29 1_555 1_555
H12 C29 1_555 1_555
H13 C29 1_555 1_555
C30 C3 1_555 1_555
H14 C30 1_555 1_555
H15 C30 1_555 1_555
C31 C30 1_555 1_555
H16 C31 1_555 1_555
H17 C31 1_555 1_555
C32 C31 1_555 1_555
H18 C32 1_555 1_555
H19 C32 1_555 1_555
H20 C32 1_555 1_555
C33 C14 1_555 1_555
C34 C33 1_555 1_555
H21 C34 1_555 1_555
C35 C34 1_555 1_555
H22 C35 1_555 1_555
C36 C35 1_555 1_555
H23 C36 1_555 1_555
C37 C36 1_555 1_555
H24 C37 1_555 1_555
C38 C33 1_555 1_555
H25 C38 1_555 1_555
C39 C15 1_555 1_555
C40 C39 1_555 1_555
H26 C40 1_555 1_555
C41 C40 1_555 1_555
H27 C41 1_555 1_555
C42 C41 1_555 1_555
H28 C42 1_555 1_555
C43 C42 1_555 1_555
H29 C43 1_555 1_555
C44 C39 1_555 1_555
H30 C44 1_555 1_555
C45 C26 1_555 1_555
H31 C45 1_555 1_555
H32 C45 1_555 1_555
C46 C45 1_555 1_555
H33 C46 1_555 1_555
H34 C46 1_555 1_555
C47 C46 1_555 1_555
H35 C47 1_555 1_555
H36 C47 1_555 1_555
H37 C47 1_555 1_555
C48 C27 1_555 1_555
H38 C48 1_555 1_555
H39 C48 1_555 1_555
H40 C48 1_555 1_555
O3 C50 1_555 1_555
C49 H41 1_555 1_555
H42 C49 1_555 1_555
H43 C49 1_555 1_555
C50 C49 1_555 1_555
C51 C50 1_555 1_555
H44 C51 1_555 1_555
H45 C51 1_555 1_555
H46 C51 1_555 1_555
H47 N3 1_555 1_555
H48 N4 1_555 1_555
H49 N1 1_555 1_555
H50 N6 1_555 1_555
C1 C28 1_555 1_555
C10 C11 1_555 1_555
C15 C16 1_555 1_555
C22 C23 1_555 1_555
C27 C28 1_555 1_555
C37 C38 1_555 1_555
C43 C44 1_555 1_555

#END
