
#######################################################################
#
#                 Cambridge Crystallographic Data Centre
#                                CCDC 
#
#######################################################################
#
# If this CIF has been generated from an entry in the Cambridge 
# Structural Database, then it will include bibliographic, chemical, 
# crystal, experimental, refinement or atomic coordinate data resulting 
# from the CCDC's data processing and validation procedures.
#
#######################################################################

data_SEFWEI
_chemical_formula_moiety         'C27 H23 N1 O2'
_chemical_name_systematic        
'ethyl 2-[2-(anthracen-9-yl)ethenyl]-1-(pyridin-2-yl)cyclopropane-1-carboxylate'
_symmetry_cell_setting           triclinic
_symmetry_space_group_name_H-M   'P -1'
_symmetry_Int_Tables_number      2
_space_group_name_Hall           '-P 1'
loop_
_symmetry_equiv_pos_site_id
_symmetry_equiv_pos_as_xyz
1 x,y,z
2 -x,-y,-z
_cell_length_a                   9.1250(15)
_cell_length_b                   11.0174(15)
_cell_length_c                   11.6902(15)
_cell_angle_alpha                102.9521(14)
_cell_angle_beta                 102.3647(9)
_cell_angle_gamma                105.5815(14)
_cell_volume                     1055.1
_exptl_crystal_colour            colorless
_exptl_crystal_description       block
_cell_formula_units_Z            2
loop_
_atom_site_label
_atom_site_type_symbol
_atom_site_fract_x
_atom_site_fract_y
_atom_site_fract_z
C1 C 0.1043(2) 0.19189(18) 0.04415(16)
C2 C -0.0571(2) 0.1881(2) 0.01330(18)
H1 H -0.0999 0.2158 0.0757
C3 C -0.1499(2) 0.1449(2) -0.10533(19)
H2 H -0.2549 0.1432 -0.1228
C4 C -0.0881(3) 0.1027(2) -0.20210(19)
H3 H -0.152 0.0742 -0.2829
C5 C 0.0633(3) 0.1035(2) -0.17761(18)
H4 H 0.1027 0.0759 -0.2423
C6 C 0.1647(2) 0.14579(19) -0.05469(17)
C7 C 0.3188(2) 0.1406(2) -0.02741(18)
H5 H 0.3585 0.1112 -0.0914
C8 C 0.4147(2) 0.1781(2) 0.09264(18)
C9 C 0.5700(3) 0.1664(3) 0.1197(2)
H6 H 0.6063 0.1317 0.0556
C10 C 0.6649(3) 0.2046(3) 0.2362(2)
H7 H 0.7646 0.1947 0.2517
C11 C 0.6125(2) 0.2594(3) 0.3343(2)
H8 H 0.6793 0.2876 0.4142
C12 C 0.4659(2) 0.2714(2) 0.31340(19)
H9 H 0.4345 0.3084 0.3797
C13 C 0.3581(2) 0.22899(19) 0.19267(17)
C14 C 0.2022(2) 0.23586(19) 0.16722(16)
C15 C 0.1375(2) 0.2889(2) 0.26601(17)
H10 H 0.0979 0.3573 0.2594
C16 C 0.1319(2) 0.2471(2) 0.36139(17)
H11 H 0.1798 0.1839 0.3707
C17 C 0.0566(2) 0.2903(2) 0.45646(16)
H12 H 0.0057 0.3566 0.4465
C18 C -0.0215(2) 0.1871(2) 0.50811(18)
H13 H -0.0176 0.0989 0.4775
H14 H -0.1192 0.1899 0.5271
C19 C 0.1317(2) 0.29390(19) 0.58926(16)
C20 C 0.2852(2) 0.26520(19) 0.61499(15)
C21 C 0.4286(3) 0.3658(2) 0.6445(2)
H15 H 0.431 0.4525 0.6541
C22 C 0.5675(3) 0.3366(3) 0.6595(2)
H16 H 0.6648 0.4029 0.6789
C23 C 0.5601(3) 0.2093(4) 0.6455(2)
H17 H 0.6521 0.1865 0.6544
C24 C 0.4152(3) 0.1155(3) 0.6182(2)
H18 H 0.4116 0.0288 0.6106
C25 C 0.1024(3) 0.3903(2) 0.68543(19)
C26 C 0.1736(4) 0.5021(3) 0.8974(2)
H19 H 0.1662 0.5836 0.8824
H20 H 0.0729 0.4538 0.9062
C27 C 0.2999(5) 0.5309(3) 1.0079(3)
H21 H 0.3099 0.4499 1.02
H22 H 0.2757 0.5788 1.0767
H23 H 0.3981 0.5834 1.0005
N1 N 0.2765(2) 0.14062(18) 0.60143(17)
O1 O -0.0089(2) 0.4303(2) 0.66813(15)
O2 O 0.20774(19) 0.42282(15) 0.79440(12)
loop_
_geom_bond_atom_site_label_1
_geom_bond_atom_site_label_2
_geom_bond_site_symmetry_1
_geom_bond_site_symmetry_2
C1 C2 1_555 1_555
C2 H1 1_555 1_555
C3 C2 1_555 1_555
H2 C3 1_555 1_555
C4 C3 1_555 1_555
H3 C4 1_555 1_555
C5 C4 1_555 1_555
H4 C5 1_555 1_555
C6 C1 1_555 1_555
C7 C6 1_555 1_555
H5 C7 1_555 1_555
C8 C7 1_555 1_555
C9 C8 1_555 1_555
H6 C9 1_555 1_555
C10 C9 1_555 1_555
H7 C10 1_555 1_555
C11 C10 1_555 1_555
H8 C11 1_555 1_555
C12 C11 1_555 1_555
H9 C12 1_555 1_555
C13 C8 1_555 1_555
C14 C1 1_555 1_555
C15 C14 1_555 1_555
H10 C15 1_555 1_555
C16 C15 1_555 1_555
H11 C16 1_555 1_555
C17 C16 1_555 1_555
H12 C17 1_555 1_555
C18 C17 1_555 1_555
H13 C18 1_555 1_555
H14 C18 1_555 1_555
C19 C17 1_555 1_555
C20 C19 1_555 1_555
C21 C20 1_555 1_555
H15 C21 1_555 1_555
C22 C21 1_555 1_555
H16 C22 1_555 1_555
C23 C22 1_555 1_555
H17 C23 1_555 1_555
C24 C23 1_555 1_555
H18 C24 1_555 1_555
C25 C19 1_555 1_555
C26 H19 1_555 1_555
H20 C26 1_555 1_555
C27 C26 1_555 1_555
H21 C27 1_555 1_555
H22 C27 1_555 1_555
H23 C27 1_555 1_555
N1 C20 1_555 1_555
O1 C25 1_555 1_555
O2 C25 1_555 1_555
C5 C6 1_555 1_555
C12 C13 1_555 1_555
C13 C14 1_555 1_555
C18 C19 1_555 1_555
C24 N1 1_555 1_555
C26 O2 1_555 1_555

#END
