
#######################################################################
#
#                 Cambridge Crystallographic Data Centre
#                                CCDC 
#
#######################################################################
#
# If this CIF has been generated from an entry in the Cambridge 
# Structural Database, then it will include bibliographic, chemical, 
# crystal, experimental, refinement or atomic coordinate data resulting 
# from the CCDC's data processing and validation procedures.
#
#######################################################################

data_SEFYEK
_chemical_formula_moiety         'C20 H26 O4'
_chemical_name_systematic        
5a,8-dimethyl-3-(propan-2-yl)-2a,3,4,5a,5b,6,7,10a,10b,10c-decahydro-1H-cyclohepta[2,3]indeno[7,1-bc]furan-1,5,10-trione
_symmetry_cell_setting           monoclinic
_symmetry_space_group_name_H-M   'P 21'
_symmetry_Int_Tables_number      4
_space_group_name_Hall           'P 2yb'
loop_
_symmetry_equiv_pos_site_id
_symmetry_equiv_pos_as_xyz
1 x,y,z
2 -x,1/2+y,-z
_cell_length_a                   9.40913(14)
_cell_length_b                   5.77298(8)
_cell_length_c                   15.8083(2)
_cell_angle_alpha                90
_cell_angle_beta                 95.2361(15)
_cell_angle_gamma                90
_cell_volume                     855.103
_exptl_crystal_colour            colorless
_exptl_crystal_description       block
_cell_formula_units_Z            2
loop_
_atom_site_label
_atom_site_type_symbol
_atom_site_fract_x
_atom_site_fract_y
_atom_site_fract_z
O1 O 0.79357(13) 0.5706(2) 0.74941(8)
O2 O 0.42628(15) 0.2755(2) 0.93379(8)
O3 O 0.77291(14) 0.8550(2) 0.84339(8)
O4 O 0.48325(15) 0.7990(2) 0.61420(8)
C1 C 0.73507(19) 0.6676(3) 0.81623(11)
C2 C 0.52533(19) 0.6077(3) 0.63762(11)
C3 C 0.72136(19) 0.2927(3) 0.63666(11)
H1 H 0.671232 0.144945 0.626829
C4 C 0.48355(18) 0.6293(3) 0.86393(11)
H2 H 0.505728 0.777292 0.892473
C5 C 0.39573(19) 0.4781(3) 0.91913(11)
C6 C 0.8680(2) 0.2684(3) 0.60106(11)
H3 H 0.912733 0.421813 0.602127
C7 C 0.58683(18) 0.3545(3) 0.76867(10)
H4 H 0.554117 0.200830 0.784778
C8 C 0.73021(19) 0.3404(3) 0.73149(11)
H5 H 0.789505 0.221916 0.761816
C9 C 0.46692(18) 0.4879(3) 0.71366(11)
C10 C 0.62125(18) 0.5072(3) 0.84646(11)
H6 H 0.659177 0.415295 0.895552
C11 C 0.2000(2) 0.7707(3) 0.92837(12)
C12 C 0.27897(19) 0.5924(3) 0.95987(11)
H7 H 0.258461 0.534939 1.012361
C13 C 0.6308(2) 0.4805(3) 0.58795(11)
H8 H 0.694964 0.593442 0.566650
H9 H 0.578518 0.408423 0.539137
C14 C 0.40820(19) 0.6737(3) 0.77389(11)
H10 H 0.443045 0.823872 0.755575
C15 C 0.3539(2) 0.3156(3) 0.67437(12)
H11 H 0.281135 0.398761 0.640324
H12 H 0.311809 0.234737 0.718904
H13 H 0.398538 0.206312 0.639448
C16 C 0.2464(2) 0.6960(4) 0.77213(12)
H14 H 0.206113 0.544488 0.781385
H15 H 0.208759 0.748748 0.716268
C17 C 0.9680(2) 0.1046(4) 0.65341(12)
H16 H 0.990827 0.168802 0.709009
H17 H 1.053967 0.084455 0.625923
H18 H 0.922030 -0.042681 0.658294
C18 C 0.0984(2) 0.8931(4) 0.98132(12)
H19 H 0.100518 0.820204 1.036002
H20 H 0.003501 0.884839 0.953464
H21 H 0.126288 1.052396 0.988301
C19 C 0.1988(2) 0.8648(4) 0.83931(12)
H22 H 0.260389 0.999739 0.840762
H23 H 0.102696 0.916493 0.821203
C20 C 0.8485(2) 0.1869(4) 0.50872(13)
H24 H 0.805780 0.035728 0.506161
H25 H 0.939790 0.180167 0.486186
H26 H 0.787776 0.293455 0.475823
loop_
_geom_bond_atom_site_label_1
_geom_bond_atom_site_label_2
_geom_bond_site_symmetry_1
_geom_bond_site_symmetry_2
O1 C1 1_555 1_555
O2 C5 1_555 1_555
O3 C1 1_555 1_555
O4 C2 1_555 1_555
C1 C10 1_555 1_555
C2 C9 1_555 1_555
C3 H1 1_555 1_555
C4 H2 1_555 1_555
C5 C4 1_555 1_555
C6 C3 1_555 1_555
H3 C6 1_555 1_555
C7 H4 1_555 1_555
C8 O1 1_555 1_555
H5 C8 1_555 1_555
C9 C7 1_555 1_555
C10 C4 1_555 1_555
H6 C10 1_555 1_555
C11 C12 1_555 1_555
C12 C5 1_555 1_555
H7 C12 1_555 1_555
C13 C2 1_555 1_555
H8 C13 1_555 1_555
H9 C13 1_555 1_555
C14 C4 1_555 1_555
H10 C14 1_555 1_555
C15 C9 1_555 1_555
H11 C15 1_555 1_555
H12 C15 1_555 1_555
H13 C15 1_555 1_555
C16 C14 1_555 1_555
H14 C16 1_555 1_555
H15 C16 1_555 1_555
C17 C6 1_555 1_555
H16 C17 1_555 1_555
H17 C17 1_555 1_555
H18 C17 1_555 1_555
C18 C11 1_555 1_555
H19 C18 1_555 1_555
H20 C18 1_555 1_555
H21 C18 1_555 1_555
C19 C11 1_555 1_555
H22 C19 1_555 1_555
H23 C19 1_555 1_555
C20 C6 1_555 1_555
H24 C20 1_555 1_555
H25 C20 1_555 1_555
H26 C20 1_555 1_555
C3 C8 1_555 1_555
C3 C13 1_555 1_555
C7 C8 1_555 1_555
C7 C10 1_555 1_555
C9 C14 1_555 1_555
C16 C19 1_555 1_555

#END
