
#######################################################################
#
#                 Cambridge Crystallographic Data Centre
#                                CCDC 
#
#######################################################################
#
# If this CIF has been generated from an entry in the Cambridge 
# Structural Database, then it will include bibliographic, chemical, 
# crystal, experimental, refinement or atomic coordinate data resulting 
# from the CCDC's data processing and validation procedures.
#
#######################################################################

data_SEGFUG
_chemical_name_common            
'5-chloro-3-nitro-2-hydroxyacetophenone anthranilic acid'
_chemical_formula_moiety         'C8 H6 Cl1 N1 O4,C7 H7 N1 O2'
_chemical_name_systematic        
'5-chloro-3-nitro-2-hydroxyacetophenone 2-aminobenzoic acid'
_symmetry_cell_setting           monoclinic
_symmetry_space_group_name_H-M   'P 21/n'
_symmetry_Int_Tables_number      14
_space_group_name_Hall           '-P 2yn'
loop_
_symmetry_equiv_pos_site_id
_symmetry_equiv_pos_as_xyz
1 x,y,z
2 1/2-x,1/2+y,1/2-z
3 -x,-y,-z
4 1/2+x,1/2-y,1/2+z
_cell_length_a                   6.762(4)
_cell_length_b                   15.444(5)
_cell_length_c                   13.944(3)
_cell_angle_alpha                90
_cell_angle_beta                 90.41(4)
_cell_angle_gamma                90
_cell_volume                     1456.17
_exptl_crystal_colour            yellow
_exptl_crystal_description       plate
_cell_formula_units_Z            4
loop_
_atom_site_label
_atom_site_type_symbol
_atom_site_fract_x
_atom_site_fract_y
_atom_site_fract_z
Cl1 Cl 0.07760(6) 0.46366(3) 0.38125(3)
O1 O 0.14613(18) 0.73868(7) 0.09949(9)
O2 O 0.10031(18) 0.84326(7) 0.23733(9)
O3 O 0.0814(2) 0.60902(8) -0.02321(9)
O4 O 0.2897(2) 0.51222(8) 0.02052(9)
N1 N 0.1740(2) 0.57024(9) 0.03812(10)
C1 C 0.1038(2) 0.69539(10) 0.26368(11)
C2 C 0.1299(2) 0.67788(10) 0.16549(11)
C3 C 0.1447(2) 0.59224(10) 0.13861(11)
C4 C 0.1344(2) 0.52586(10) 0.20342(12)
H1 H 0.150(3) 0.4696(12) 0.1809(14)
C5 C 0.1025(2) 0.54482(10) 0.29889(11)
C6 C 0.0880(2) 0.62859(10) 0.32856(11)
H2 H 0.065(3) 0.6403(12) 0.3961(14)
C7 C 0.0947(2) 0.78501(10) 0.29605(12)
C8 C 0.0820(3) 0.80417(12) 0.40069(13)
H3 H 0.080(3) 0.8657(15) 0.4112(16)
H4 H 0.194(3) 0.7784(13) 0.4308(15)
H5 H -0.036(3) 0.7792(13) 0.4268(15)
H12 H 0.128(4) 0.7877(13) 0.1354(17)
O5 O -0.06918(17) -0.00281(7) 0.11052(8)
O6 O -0.00159(19) 0.11232(8) 0.02289(8)
N2 N -0.1313(2) 0.01770(9) 0.29830(10)
C9 C -0.0910(2) 0.13329(10) 0.18290(11)
C10 C -0.1240(2) 0.10194(10) 0.27659(11)
C11 C -0.1506(2) 0.16203(11) 0.35040(12)
H6 H -0.170(3) 0.1438(12) 0.4130(15)
C12 C -0.1466(2) 0.24784(11) 0.33255(13)
H7 H -0.166(3) 0.2860(12) 0.3832(14)
C13 C -0.1168(2) 0.27887(11) 0.23986(13)
H8 H -0.115(3) 0.3390(13) 0.2262(14)
C14 C -0.0887(2) 0.22159(10) 0.16659(12)
H9 H -0.063(3) 0.2410(12) 0.1023(14)
C15 C -0.0543(2) 0.07523(10) 0.10350(11)
H10 H -0.140(3) 0.0032(13) 0.3592(11)
H11 H -0.102(3) -0.0189(13) 0.2527(14)
H13 H 0.019(3) 0.0704(13) -0.0210(15)
loop_
_geom_bond_atom_site_label_1
_geom_bond_atom_site_label_2
_geom_bond_site_symmetry_1
_geom_bond_site_symmetry_2
Cl1 C5 1_555 1_555
O1 C2 1_555 1_555
O2 C7 1_555 1_555
O3 N1 1_555 1_555
O4 N1 1_555 1_555
O5 C15 1_555 1_555
O6 C15 1_555 1_555
N1 C3 1_555 1_555
N2 C10 1_555 1_555
C1 C2 1_555 1_555
C2 C3 1_555 1_555
C3 C4 1_555 1_555
C4 H1 1_555 1_555
C5 C4 1_555 1_555
C6 C1 1_555 1_555
H2 C6 1_555 1_555
C7 C1 1_555 1_555
C8 C7 1_555 1_555
H3 C8 1_555 1_555
H4 C8 1_555 1_555
H5 C8 1_555 1_555
C9 C10 1_555 1_555
C10 C11 1_555 1_555
C11 H6 1_555 1_555
C12 C11 1_555 1_555
H7 C12 1_555 1_555
C13 C12 1_555 1_555
H8 C13 1_555 1_555
C14 C9 1_555 1_555
H9 C14 1_555 1_555
C15 C9 1_555 1_555
H10 N2 1_555 1_555
H11 N2 1_555 1_555
H12 O1 1_555 1_555
H13 O6 1_555 1_555
C5 C6 1_555 1_555
C13 C14 1_555 1_555

#END
