
#######################################################################
#
#                 Cambridge Crystallographic Data Centre
#                                CCDC 
#
#######################################################################
#
# If this CIF has been generated from an entry in the Cambridge 
# Structural Database, then it will include bibliographic, chemical, 
# crystal, experimental, refinement or atomic coordinate data resulting 
# from the CCDC's data processing and validation procedures.
#
#######################################################################

data_SEGFIU
_chemical_formula_moiety         'C8 H6 Cl1 N1 O4'
_chemical_name_systematic        5-chloro-3-nitro-2-hydroxyacetophenone
_symmetry_cell_setting           orthorhombic
_symmetry_space_group_name_H-M   'P c c n'
_symmetry_Int_Tables_number      56
_space_group_name_Hall           '-P 2ab 2ac'
loop_
_symmetry_equiv_pos_site_id
_symmetry_equiv_pos_as_xyz
1 x,y,z
2 1/2-x,1/2-y,z
3 1/2+x,-y,1/2-z
4 -x,1/2+y,1/2-z
5 -x,-y,-z
6 1/2+x,1/2+y,-z
7 1/2-x,y,1/2+z
8 x,1/2-y,1/2+z
_cell_length_a                   7.831(2)
_cell_length_b                   13.973(3)
_cell_length_c                   16.389(3)
_cell_angle_alpha                90
_cell_angle_beta                 90
_cell_angle_gamma                90
_cell_volume                     1793.33
_exptl_crystal_colour            yellow
_exptl_crystal_description       prism
_cell_formula_units_Z            8
_exptl_crystal_recrystallization_method methanol
loop_
_atom_site_label
_atom_site_type_symbol
_atom_site_fract_x
_atom_site_fract_y
_atom_site_fract_z
Cl1 Cl 0.62593(11) -0.39673(6) -0.13198(5)
O1 O 0.3494(3) -0.09600(14) 0.07979(12)
O2 O 0.2786(3) -0.00285(13) -0.04694(13)
O3 O 0.4283(6) -0.2109(3) 0.19617(16)
O4 O 0.5814(4) -0.3266(2) 0.17598(15)
N1 N 0.5003(3) -0.2616(2) 0.15103(14)
C1 C 0.4136(3) -0.15208(17) -0.05546(15)
C2 C 0.4155(3) -0.16236(17) 0.03077(14)
C3 C 0.4896(3) -0.24571(19) 0.06309(14)
C4 C 0.5537(3) -0.31683(19) 0.01362(16)
C5 C 0.5478(3) -0.30592(17) -0.06992(16)
C6 C 0.4798(3) -0.22466(18) -0.10430(17)
C7 C 0.3410(4) -0.0643(2) -0.09167(17)
C8 C 0.3429(6) -0.0497(3) -0.1817(2)
H1 H 0.304(5) -0.050(3) 0.044(3)
H2 H 0.605(3) -0.3712(18) 0.0381(14)
H3 H 0.477(3) -0.2152(17) -0.1608(18)
H4 H 0.285(5) -0.093(3) -0.214(3)
H5 H 0.297(6) 0.0114(19) -0.189(3)
H6 H 0.459(5) -0.052(3) -0.201(2)
loop_
_geom_bond_atom_site_label_1
_geom_bond_atom_site_label_2
_geom_bond_site_symmetry_1
_geom_bond_site_symmetry_2
Cl1 C5 1_555 1_555
O1 C2 1_555 1_555
O2 C7 1_555 1_555
O3 N1 1_555 1_555
O4 N1 1_555 1_555
N1 C3 1_555 1_555
C1 C2 1_555 1_555
C2 C3 1_555 1_555
C3 C4 1_555 1_555
C4 C5 1_555 1_555
C5 C6 1_555 1_555
C6 C1 1_555 1_555
C7 C1 1_555 1_555
C8 C7 1_555 1_555
H1 O1 1_555 1_555
H2 C4 1_555 1_555
H3 C6 1_555 1_555
H4 C8 1_555 1_555
H5 C8 1_555 1_555
H6 C8 1_555 1_555

#END
