
#######################################################################
#
#                 Cambridge Crystallographic Data Centre
#                                CCDC 
#
#######################################################################
#
# If this CIF has been generated from an entry in the Cambridge 
# Structural Database, then it will include bibliographic, chemical, 
# crystal, experimental, refinement or atomic coordinate data resulting 
# from the CCDC's data processing and validation procedures.
#
#######################################################################

data_SEGKIB
_chemical_formula_moiety         'C112 H84 N12 O12,6(C5 H5 N1)'
_chemical_name_systematic        
'15,31,33,35-tetrakis[4-([1^2^,2^2^:2^6^,3^2^-terpyridin]-2^4^-yl)phenyl]-3,6,9,12,19,22,25,28-octaoxatricyclo[28.2.2.2^14,17^]hexatriaconta-1(32),14,16,30,33,35-hexaene-2,13,18,29-tetrone pyridine solvate'
_symmetry_cell_setting           triclinic
_symmetry_space_group_name_H-M   'P -1'
_symmetry_Int_Tables_number      2
_space_group_name_Hall           '-P 1'
loop_
_symmetry_equiv_pos_site_id
_symmetry_equiv_pos_as_xyz
1 x,y,z
2 -x,-y,-z
_cell_length_a                   16.1025(9)
_cell_length_b                   17.3360(9)
_cell_length_c                   24.1196(14)
_cell_angle_alpha                79.233(2)
_cell_angle_beta                 88.547(2)
_cell_angle_gamma                63.057(2)
_cell_volume                     5883.04
_exptl_crystal_colour            colorless
_exptl_crystal_description       block
_cell_formula_units_Z            2
loop_
_atom_site_label
_atom_site_type_symbol
_atom_site_fract_x
_atom_site_fract_y
_atom_site_fract_z
C1 C 0.14136(14) 0.19214(14) 1.01962(9)
H1 H 0.0790 0.2341 1.0138
C2 C 0.25714(13) 0.33523(13) 0.96438(8)
H2 H 0.3194 0.2965 0.9756
C3 C 0.28734(13) 0.49956(13) 0.85833(8)
H3 H 0.2301 0.5207 0.8384
C4 C 0.35510(13) 0.52051(13) 0.83422(8)
H4 H 0.3436 0.5543 0.7979
O1 O 0.43042(9) 0.64322(10) 0.89909(6)
C5 C 0.33120(13) 0.65946(13) 0.97532(8)
H5 H 0.3585 0.5956 0.9819
H6 H 0.3190 0.6775 1.0116
O2 O 0.24709(9) 0.69730(9) 0.94115(6)
C6 C 0.09571(14) 0.71033(14) 0.92709(9)
H7 H 0.0527 0.6875 0.9414
H8 H 0.0682 0.7722 0.9294
O3 O 0.11219(9) 0.70082(10) 0.87017(6)
C7 C 0.05376(14) 0.73658(13) 0.77524(9)
H9 H -0.0018 0.7701 0.7497
H10 H 0.0989 0.7578 0.7631
O4 O 0.09244(9) 0.64367(9) 0.77313(6)
C8 C 0.03089(13) 0.47234(12) 0.78875(7)
H11 H -0.0274 0.5037 0.8020
C9 C -0.07962(14) 0.36702(13) 0.80774(8)
H12 H -0.1078 0.4141 0.7774
C10 C -0.13150(14) 0.32793(13) 0.83608(8)
H13 H -0.1939 0.3492 0.8245
C11 C -0.11061(13) 0.16151(12) 0.96682(8)
H14 H -0.0525 0.1500 0.9817
N1 N -0.03958(13) 0.05271(12) 1.07181(8)
C12 C -0.23276(13) 0.22951(13) 0.89382(8)
H15 H -0.2586 0.2641 0.8584
N2 N -0.24677(11) 0.13922(11) 0.97867(7)
N3 N -0.40708(13) 0.25060(12) 0.85553(8)
C13 C 0.05467(13) 0.26568(13) 0.86942(8)
H16 H 0.1172 0.2443 0.8810
C14 C 0.20367(13) 0.38151(12) 0.74938(8)
H17 H 0.2624 0.3499 0.7368
O5 O 0.29277(10) 0.20018(9) 0.79203(7)
O6 O 0.46716(11) 0.12970(10) 0.74795(7)
O7 O 0.53127(11) 0.25167(10) 0.69416(7)
C15 C 0.55211(17) 0.30051(15) 0.64691(9)
H18 H 0.4967 0.3558 0.6337
H19 H 0.5687 0.2676 0.6166
O8 O 0.59514(9) 0.38625(9) 0.69534(6)
O9 O 0.73584(10) 0.38314(11) 0.70189(7)
C16 C 0.54944(13) 0.46130(12) 0.78878(8)
H20 H 0.5315 0.4187 0.7845
C17 C 0.38845(13) 0.41969(13) 0.94214(8)
H21 H 0.3999 0.3860 0.9785
N4 N 0.09648(11) 0.36376(11) 0.96508(7)
N5 N -0.05437(11) 0.58856(11) 0.89854(8)
C18 C -0.14507(14) 0.64154(14) 0.88460(10)
H22 H -0.1630 0.6999 0.8673
C19 C 0.60490(12) 0.58527(13) 0.80130(8)
H23 H 0.6242 0.6267 0.8063
C20 C 0.75747(13) 0.59346(13) 0.73050(8)
H24 H 0.7687 0.5901 0.7687
C21 C 0.80679(13) 0.62185(13) 0.69083(8)
H25 H 0.8504 0.6376 0.7028
C22 C 0.72433(14) 0.60508(14) 0.61641(8)
H26 H 0.7127 0.6091 0.5782
C23 C 0.67452(13) 0.57739(13) 0.65588(8)
H27 H 0.6294 0.5636 0.6437
C24 C 0.86936(13) 0.62147(13) 0.54170(8)
H28 H 0.8448 0.5857 0.5327
N6 N 0.96330(11) 0.69540(11) 0.51577(7)
C25 C 0.88634(13) 0.70822(13) 0.60255(8)
H29 H 0.8740 0.7313 0.6354
N7 N 0.98164(12) 0.80669(12) 0.62253(8)
C26 C 1.01550(15) 0.62706(14) 0.41760(8)
H30 H 1.0436 0.6590 0.4282
C27 C 0.99138(15) 0.54968(15) 0.35314(8)
H31 H 1.0029 0.5283 0.3197
N8 N 0.90947(12) 0.56479(12) 0.43812(7)
O10 O 0.57031(10) 0.63958(12) 0.90813(7)
O11 O -0.05228(9) 0.66060(9) 0.75768(6)
O12 O 0.16036(11) 0.19857(10) 0.76760(7)
C28 C 0.16588(13) 0.59519(12) 0.66549(8)
H32 H 0.1009 0.6225 0.6627
C29 C 0.21282(13) 0.63218(12) 0.62993(8)
H33 H 0.1790 0.6839 0.6036
C30 C 0.35899(13) 0.51661(13) 0.67377(8)
H34 H 0.4239 0.4903 0.6773
C31 C 0.31205(13) 0.47932(13) 0.70914(8)
H35 H 0.3460 0.4280 0.7357
C32 C 0.44909(13) 0.57536(13) 0.57683(8)
H36 H 0.4781 0.5152 0.5921
N9 N 0.45467(11) 0.69790(11) 0.51439(7)
N10 N 0.63406(13) 0.47352(13) 0.54904(8)
C33 C 0.16459(16) 0.10561(16) 1.04259(11)
H37 H 0.1184 0.0883 1.0522
C34 C 0.21138(13) 0.21676(13) 1.00513(9)
C35 C 0.18784(13) 0.30908(12) 0.97789(8)
C36 C 0.23200(12) 0.42006(12) 0.93379(8)
C37 C 0.30354(12) 0.44734(12) 0.91193(8)
C38 C 0.44042(12) 0.49160(12) 0.86368(8)
C39 C 0.51315(12) 0.50856(12) 0.83184(7)
C40 C 0.54490(12) 0.56927(12) 0.83927(8)
C41 C 0.06803(13) 0.38099(12) 0.79552(7)
C42 C 0.01406(13) 0.33660(12) 0.82418(8)
C43 C -0.09110(13) 0.25726(12) 0.88164(8)
C44 C -0.14545(13) 0.21581(12) 0.91372(8)
C45 C -0.16243(13) 0.12471(12) 0.99752(8)
C46 C -0.12409(14) 0.06602(12) 1.05400(8)
C47 C -0.00213(17) -0.00104(15) 1.12178(10)
H38 H 0.0567 -0.0110 1.1343
C48 C -0.04636(18) -0.04253(15) 1.15575(10)
H39 H -0.0177 -0.0798 1.1901
C49 C -0.28091(13) 0.19082(12) 0.92759(8)
C50 C -0.37584(14) 0.20679(13) 0.90867(9)
C51 C -0.49257(16) 0.26590(15) 0.83813(11)
H40 H -0.5150 0.2964 0.8013
C52 C -0.54919(15) 0.23903(15) 0.87162(11)
H41 H -0.6084 0.2518 0.8579
C53 C -0.51581(15) 0.19273(15) 0.92603(11)
H42 H -0.5515 0.1724 0.9494
C54 C 0.16516(12) 0.47368(12) 0.74068(8)
C55 C 0.44555(16) 0.08194(14) 0.79519(11)
H43 H 0.4603 0.0954 0.8298
H44 H 0.4821 0.0191 0.7966
C56 C 0.61129(12) 0.47530(12) 0.75209(8)
C57 C 0.45572(13) 0.44222(13) 0.91813(8)
H45 H 0.5116 0.4240 0.9388
C58 C 0.07234(12) 0.44624(12) 0.93751(7)
C59 C 0.13724(12) 0.47689(13) 0.92054(8)
H46 H 0.1177 0.5343 0.9007
C60 C -0.02955(12) 0.50471(13) 0.92317(7)
C61 C -0.18756(14) 0.52803(15) 0.91915(10)
H47 H -0.2319 0.5075 0.9260
C62 C 0.63712(12) 0.54163(12) 0.75609(8)
C63 C 0.69112(13) 0.56991(12) 0.71368(8)
C64 C 0.79188(13) 0.62709(13) 0.63336(8)
C65 C 0.84862(13) 0.65371(13) 0.59188(8)
C66 C 0.92707(13) 0.64353(13) 0.50538(8)
C67 C 0.94259(13) 0.72774(12) 0.56350(8)
C68 C 0.98317(13) 0.78714(13) 0.57123(8)
C69 C 1.02116(16) 0.85802(15) 0.62921(10)
H48 H 1.0211 0.8718 0.6647
C70 C 1.06203(16) 0.89192(15) 0.58691(11)
H49 H 1.0894 0.9266 0.5940
C71 C 1.06116(16) 0.87304(15) 0.53423(10)
H50 H 1.0865 0.8960 0.5045
C72 C 1.02210(15) 0.81943(14) 0.52598(9)
H51 H 1.0217 0.8050 0.4908
C73 C 0.95228(13) 0.61000(13) 0.45157(8)
C74 C 1.03580(16) 0.59547(15) 0.36756(9)
H52 H 1.0785 0.6051 0.3443
C75 C 0.92937(15) 0.53603(15) 0.38939(9)
H53 H 0.8997 0.5050 0.3793
C76 C 0.21459(12) 0.51745(12) 0.70552(8)
C77 C 0.31053(13) 0.59286(12) 0.63299(8)
C78 C 0.36093(13) 0.62978(13) 0.59273(8)
C79 C 0.49329(13) 0.61182(13) 0.53781(8)
C80 C 0.37026(14) 0.75046(13) 0.53002(9)
C81 C 0.33002(14) 0.84615(14) 0.50334(9)
C82 C 0.37386(17) 0.87590(15) 0.46042(10)
H54 H 0.4297 0.8368 0.4482
C83 C 0.33290(19) 0.96477(16) 0.43624(11)
H55 H 0.3605 0.9862 0.4071
N11 N 0.25094(14) 0.90058(13) 0.52350(10)
C84 C 0.32140(13) 0.71919(13) 0.56878(9)
H56 H 0.2630 0.7578 0.5785
C85 C 0.58800(13) 0.55626(13) 0.52012(8)
C86 C 0.72048(16) 0.42483(17) 0.53470(11)
H57 H 0.7532 0.3672 0.5547
C87 C 0.76443(15) 0.45431(17) 0.49230(10)
H58 H 0.8249 0.4178 0.4842
C88 C 0.71598(15) 0.53931(16) 0.46246(9)
H59 H 0.7429 0.5614 0.4333
C89 C -0.17412(17) 0.02776(15) 1.08604(10)
H60 H -0.2332 0.0391 1.0731
C90 C -0.13375(19) -0.02756(16) 1.13764(10)
H61 H -0.1653 -0.0543 1.1598
C91 C 0.25718(18) 0.04529(16) 1.05109(14)
H62 H 0.2752 -0.0138 1.0664
C92 C 0.51789(13) 0.62073(13) 0.88584(8)
C93 C 0.39717(13) 0.68983(14) 0.94552(8)
H63 H 0.3653 0.7530 0.9312
H64 H 0.4492 0.6766 0.9714
C94 C 0.18720(14) 0.66014(14) 0.96185(9)
H65 H 0.1772 0.6640 1.0013
H66 H 0.2153 0.5984 0.9591
C95 C 0.02954(14) 0.75012(14) 0.83421(9)
H67 H 0.0038 0.8122 0.8356
H68 H -0.0167 0.7303 0.8463
C96 C 0.03108(12) 0.61517(12) 0.76337(7)
C97 C 0.07807(12) 0.51838(12) 0.76280(7)
C98 C -0.42820(14) 0.17707(14) 0.94527(10)
H69 H -0.4047 0.1472 0.9820
C99 C 0.00305(14) 0.22688(13) 0.89727(8)
H70 H 0.0317 0.1793 0.9272
C100 C 0.15701(13) 0.33563(12) 0.77631(8)
C101 C 0.20086(14) 0.23801(13) 0.77828(8)
C102 C 0.34392(16) 0.10724(14) 0.78978(11)
H71 H 0.3282 0.0970 0.7542
H72 H 0.3281 0.0723 0.8204
C103 C 0.56284(16) 0.11006(16) 0.74943(12)
H73 H 0.6016 0.0471 0.7525
H74 H 0.5785 0.1274 0.7821
C104 C 0.58037(18) 0.15922(16) 0.69631(12)
H75 H 0.6467 0.1413 0.6949
H76 H 0.5602 0.1450 0.6638
C105 C 0.63092(16) 0.31993(14) 0.66023(9)
H77 H 0.6831 0.2668 0.6802
H78 H 0.6521 0.3418 0.6256
C106 C 0.65548(13) 0.41139(13) 0.71327(8)
C107 C -0.21397(14) 0.61470(15) 0.89433(9)
H79 H -0.2764 0.6542 0.8844
C108 C -0.09376(14) 0.47190(14) 0.93376(9)
H80 H -0.0741 0.4130 0.9504
C109 C 0.32280(18) 0.07454(17) 1.03639(17)
H81 H 0.3855 0.0336 1.0428
N12 N 0.30193(13) 0.15836(13) 1.01345(11)
C110 C 0.25060(18) 1.02137(16) 0.45581(12)
H82 H 0.2214 1.0814 0.4401
C111 C 0.21279(18) 0.98634(17) 0.49941(14)
H83 H 0.1576 1.0246 0.5128
C112 C 0.62650(14) 0.59170(14) 0.47639(8)
H84 H 0.5927 0.6495 0.4569
N13 N 0.57421(19) 0.11574(18) 0.11368(13)
C113 C 0.5938(2) 0.1279(2) 0.16289(17)
H85 H 0.6550 0.1156 0.1717
C114 C 0.5284(3) 0.1581(2) 0.20246(16)
H86 H 0.5450 0.1665 0.2367
C115 C 0.4369(3) 0.1754(2) 0.18918(16)
H87 H 0.3909 0.1950 0.2145
C116 C 0.4867(2) 0.1340(2) 0.10240(14)
H88 H 0.4714 0.1265 0.0675
C117 C 0.4174(2) 0.16291(19) 0.13820(15)
H89 H 0.3572 0.1740 0.1278
C118 C 0.1799(2) 0.8993(2) 0.74788(13)
H90 H 0.1319 0.9554 0.7485
N14 N 0.2239(3) 0.8851(2) 0.70012(12)
C119 C 0.2921(3) 0.8037(2) 0.70091(14)
H91 H 0.3241 0.7921 0.6684
C120 C 0.3172(2) 0.7364(2) 0.74700(15)
H92 H 0.3648 0.6805 0.7456
C121 C 0.2019(2) 0.83543(18) 0.79594(11)
H93 H 0.1701 0.8483 0.8284
C122 C 0.27093(18) 0.75297(18) 0.79530(11)
H94 H 0.2866 0.7083 0.8272
C123 C 0.2373(2) 0.1907(2) 0.58000(16)
H95 H 0.1819 0.1865 0.5779
C124 C 0.2578(2) 0.2193(2) 0.62385(14)
H96 H 0.2163 0.2359 0.6520
C125 C 0.3409(2) 0.22339(19) 0.62606(13)
H97 H 0.3544 0.2429 0.6564
N15 N 0.40316(18) 0.20086(18) 0.58710(11)
C126 C 0.3805(3) 0.1748(2) 0.54425(14)
H98 H 0.4222 0.1602 0.5160
C127 C 0.2997(3) 0.1679(2) 0.53862(15)
H99 H 0.2874 0.1484 0.5079
N16 N 1.0203(3) 0.8963(2) 0.38271(16)
C128 C 1.0974(3) 0.8351(3) 0.3640(3)
H100 H 1.1562 0.8234 0.3778
C129 C 1.0895(3) 0.7909(3) 0.3256(2)
H101 H 1.1433 0.7475 0.3143
C130 C 1.0050(2) 0.80823(19) 0.30297(14)
H102 H 1.0001 0.7792 0.2754
C131 C 0.9382(3) 0.9122(2) 0.36160(15)
H103 H 0.8846 0.9543 0.3740
C132 C 0.9290(2) 0.8687(2) 0.32193(14)
H104 H 0.8699 0.8813 0.3082
C133 C 0.4154(3) 0.1001(4) 0.34010(18)
H105 H 0.3598 0.1030 0.3274
C134 C 0.4986(4) 0.0335(3) 0.33534(16)
H106 H 0.5014 -0.0120 0.3189
C135 C 0.5797(3) 0.0303(3) 0.35387(17)
H107 H 0.6366 -0.0163 0.3491
N17 N 0.5780(4) 0.0930(4) 0.3786(2)
C136 C 0.4957(4) 0.1601(3) 0.3844(2)
H108 H 0.4928 0.2046 0.4019
C137 C 0.4179(4) 0.1629(4) 0.3648(3)
H109 H 0.364(4) 0.190(4) 0.373(3)
C138 C 0.2169(3) 0.1216(3) 0.24123(18)
H110 H 0.2346 0.1662 0.2382
C139 C 0.1972(3) 0.0860(4) 0.2922(2)
H111 H 0.2011 0.1062 0.3247
C140 C 0.1720(3) 0.0210(4) 0.2948(2)
H112 H 0.1598 -0.0049 0.3293
N18 N 0.1644(4) -0.0069(4) 0.2456(3)
C141 C 0.1818(3) 0.0275(3) 0.19648(18)
H113 H 0.1749 0.0092 0.1638
C142 C 0.2097(3) 0.0895(3) 0.19453(17)
H114 H 0.2251 0.1120 0.1600
loop_
_geom_bond_atom_site_label_1
_geom_bond_atom_site_label_2
_geom_bond_site_symmetry_1
_geom_bond_site_symmetry_2
C1 H1 1_555 1_555
C2 H2 1_555 1_555
C3 H3 1_555 1_555
C4 C3 1_555 1_555
H4 C4 1_555 1_555
O1 C92 1_555 1_555
C5 H5 1_555 1_555
H6 C5 1_555 1_555
O2 C5 1_555 1_555
C6 H7 1_555 1_555
H8 C6 1_555 1_555
O3 C6 1_555 1_555
C7 H9 1_555 1_555
H10 C7 1_555 1_555
O4 C7 1_555 1_555
C8 H11 1_555 1_555
C9 H12 1_555 1_555
C10 C9 1_555 1_555
H13 C10 1_555 1_555
C11 H14 1_555 1_555
N1 C46 1_555 1_555
C12 H15 1_555 1_555
N2 C45 1_555 1_555
N3 C50 1_555 1_555
C13 H16 1_555 1_555
C14 H17 1_555 1_555
O5 C101 1_555 1_555
O6 C55 1_555 1_555
O7 C15 1_555 1_555
C15 H18 1_555 1_555
H19 C15 1_555 1_555
O8 C105 1_555 1_555
O9 C106 1_555 1_555
C16 H20 1_555 1_555
C17 H21 1_555 1_555
N4 C35 1_555 1_555
N5 C18 1_555 1_555
C18 H22 1_555 1_555
C19 H23 1_555 1_555
C20 H24 1_555 1_555
C21 C20 1_555 1_555
H25 C21 1_555 1_555
C22 H26 1_555 1_555
C23 C22 1_555 1_555
H27 C23 1_555 1_555
C24 H28 1_555 1_555
N6 C66 1_555 1_555
C25 H29 1_555 1_555
N7 C68 1_555 1_555
C26 H30 1_555 1_555
C27 H31 1_555 1_555
N8 C73 1_555 1_555
O10 C92 1_555 1_555
O11 C96 1_555 1_555
O12 C101 1_555 1_555
C28 H32 1_555 1_555
C29 C28 1_555 1_555
H33 C29 1_555 1_555
C30 H34 1_555 1_555
C31 C30 1_555 1_555
H35 C31 1_555 1_555
C32 H36 1_555 1_555
N9 C79 1_555 1_555
N10 C85 1_555 1_555
C33 C1 1_555 1_555
H37 C33 1_555 1_555
C34 C1 1_555 1_555
C35 C2 1_555 1_555
C36 C2 1_555 1_555
C37 C3 1_555 1_555
C38 C4 1_555 1_555
C39 C16 1_555 1_555
C40 C19 1_555 1_555
C41 C8 1_555 1_555
C42 C9 1_555 1_555
C43 C10 1_555 1_555
C44 C11 1_555 1_555
C45 C11 1_555 1_555
C46 C45 1_555 1_555
C47 N1 1_555 1_555
H38 C47 1_555 1_555
C48 C47 1_555 1_555
H39 C48 1_555 1_555
C49 C12 1_555 1_555
C50 C49 1_555 1_555
C51 N3 1_555 1_555
H40 C51 1_555 1_555
C52 C51 1_555 1_555
H41 C52 1_555 1_555
C53 C52 1_555 1_555
H42 C53 1_555 1_555
C54 C14 1_555 1_555
C55 H43 1_555 1_555
H44 C55 1_555 1_555
C56 C16 1_555 1_555
C57 C17 1_555 1_555
H45 C57 1_555 1_555
C58 N4 1_555 1_555
C59 C36 1_555 1_555
H46 C59 1_555 1_555
C60 N5 1_555 1_555
C61 H47 1_555 1_555
C62 C19 1_555 1_555
C63 C20 1_555 1_555
C64 C21 1_555 1_555
C65 C24 1_555 1_555
C66 C24 1_555 1_555
C67 N6 1_555 1_555
C68 C67 1_555 1_555
C69 N7 1_555 1_555
H48 C69 1_555 1_555
C70 C69 1_555 1_555
H49 C70 1_555 1_555
C71 C70 1_555 1_555
H50 C71 1_555 1_555
C72 C68 1_555 1_555
H51 C72 1_555 1_555
C73 C26 1_555 1_555
C74 C26 1_555 1_555
H52 C74 1_555 1_555
C75 C27 1_555 1_555
H53 C75 1_555 1_555
C76 C28 1_555 1_555
C77 C29 1_555 1_555
C78 C32 1_555 1_555
C79 C32 1_555 1_555
C80 N9 1_555 1_555
C81 C80 1_555 1_555
C82 C81 1_555 1_555
H54 C82 1_555 1_555
C83 C82 1_555 1_555
H55 C83 1_555 1_555
N11 C81 1_555 1_555
C84 C78 1_555 1_555
H56 C84 1_555 1_555
C85 C79 1_555 1_555
C86 N10 1_555 1_555
H57 C86 1_555 1_555
C87 C86 1_555 1_555
H58 C87 1_555 1_555
C88 C87 1_555 1_555
H59 C88 1_555 1_555
C89 C46 1_555 1_555
H60 C89 1_555 1_555
C90 C48 1_555 1_555
H61 C90 1_555 1_555
C91 C33 1_555 1_555
H62 C91 1_555 1_555
C92 C40 1_555 1_555
C93 O1 1_555 1_555
H63 C93 1_555 1_555
H64 C93 1_555 1_555
C94 O2 1_555 1_555
H65 C94 1_555 1_555
H66 C94 1_555 1_555
C95 O3 1_555 1_555
H67 C95 1_555 1_555
H68 C95 1_555 1_555
C96 O4 1_555 1_555
C97 C8 1_555 1_555
C98 C50 1_555 1_555
H69 C98 1_555 1_555
C99 C13 1_555 1_555
H70 C99 1_555 1_555
C100 C14 1_555 1_555
C101 C100 1_555 1_555
C102 O5 1_555 1_555
H71 C102 1_555 1_555
H72 C102 1_555 1_555
C103 O6 1_555 1_555
H73 C103 1_555 1_555
H74 C103 1_555 1_555
C104 O7 1_555 1_555
H75 C104 1_555 1_555
H76 C104 1_555 1_555
C105 C15 1_555 1_555
H77 C105 1_555 1_555
H78 C105 1_555 1_555
C106 O8 1_555 1_555
C107 C18 1_555 1_555
H79 C107 1_555 1_555
C108 C60 1_555 1_555
H80 C108 1_555 1_555
C109 C91 1_555 1_555
H81 C109 1_555 1_555
N12 C34 1_555 1_555
C110 C83 1_555 1_555
H82 C110 1_555 1_555
C111 N11 1_555 1_555
H83 C111 1_555 1_555
C112 C85 1_555 1_555
H84 C112 1_555 1_555
N13 C113 1_555 1_555
C113 H85 1_555 1_555
C114 C113 1_555 1_555
H86 C114 1_555 1_555
C115 C114 1_555 1_555
H87 C115 1_555 1_555
C116 N13 1_555 1_555
H88 C116 1_555 1_555
C117 C115 1_555 1_555
H89 C117 1_555 1_555
C118 H90 1_555 1_555
N14 C118 1_555 1_555
C119 N14 1_555 1_555
H91 C119 1_555 1_555
C120 C119 1_555 1_555
H92 C120 1_555 1_555
C121 C118 1_555 1_555
H93 C121 1_555 1_555
C122 C120 1_555 1_555
H94 C122 1_555 1_555
C123 H95 1_555 1_555
C124 C123 1_555 1_555
H96 C124 1_555 1_555
C125 C124 1_555 1_555
H97 C125 1_555 1_555
N15 C125 1_555 1_555
C126 N15 1_555 1_555
H98 C126 1_555 1_555
C127 C123 1_555 1_555
H99 C127 1_555 1_555
N16 C128 1_555 1_555
C128 H100 1_555 1_555
C129 C128 1_555 1_555
H101 C129 1_555 1_555
C130 C129 1_555 1_555
H102 C130 1_555 1_555
C131 N16 1_555 1_555
H103 C131 1_555 1_555
C132 C130 1_555 1_555
H104 C132 1_555 1_555
C133 H105 1_555 1_555
C134 C133 1_555 1_555
H106 C134 1_555 1_555
C135 C134 1_555 1_555
H107 C135 1_555 1_555
N17 C135 1_555 1_555
C136 N17 1_555 1_555
H108 C136 1_555 1_555
C137 C133 1_555 1_555
H109 C137 1_555 1_555
C138 H110 1_555 1_555
C139 C138 1_555 1_555
H111 C139 1_555 1_555
C140 C139 1_555 1_555
H112 C140 1_555 1_555
N18 C140 1_555 1_555
C141 N18 1_555 1_555
H113 C141 1_555 1_555
C142 C138 1_555 1_555
H114 C142 1_555 1_555
C5 C93 1_555 1_555
C6 C94 1_555 1_555
C7 C95 1_555 1_555
C12 C44 1_555 1_555
N2 C49 1_555 1_555
C13 C42 1_555 1_555
C17 C37 1_555 1_555
C22 C64 1_555 1_555
C23 C63 1_555 1_555
C25 C65 1_555 1_555
C25 C67 1_555 1_555
C27 C74 1_555 1_555
N8 C75 1_555 1_555
C30 C77 1_555 1_555
C31 C76 1_555 1_555
C34 C35 1_555 1_555
C36 C37 1_555 1_555
C38 C39 1_555 1_555
C38 C57 1_555 1_555
C39 C40 1_555 1_555
C41 C42 1_555 1_555
C41 C100 1_555 1_555
C43 C44 1_555 1_555
C43 C99 1_555 1_555
C53 C98 1_555 1_555
C54 C76 1_555 1_555
C54 C97 1_555 1_555
C55 C102 1_555 1_555
C56 C62 1_555 1_555
C56 C106 1_555 1_555
C58 C59 1_555 1_555
C58 C60 1_555 1_555
C61 C107 1_555 1_555
C61 C108 1_555 1_555
C62 C63 1_555 1_555
C64 C65 1_555 1_555
C66 C73 1_555 1_555
C71 C72 1_555 1_555
C77 C78 1_555 1_555
C80 C84 1_555 1_555
C88 C112 1_555 1_555
C89 C90 1_555 1_555
C96 C97 1_555 1_555
C103 C104 1_555 1_555
C109 N12 1_555 1_555
C110 C111 1_555 1_555
C116 C117 1_555 1_555
C121 C122 1_555 1_555
C126 C127 1_555 1_555
C131 C132 1_555 1_555
C136 C137 1_555 1_555
C141 C142 1_555 1_555

#END
