
#######################################################################
#
#                 Cambridge Crystallographic Data Centre
#                                CCDC 
#
#######################################################################
#
# If this CIF has been generated from an entry in the Cambridge 
# Structural Database, then it will include bibliographic, chemical, 
# crystal, experimental, refinement or atomic coordinate data resulting 
# from the CCDC's data processing and validation procedures.
#
#######################################################################

data_SEGQAZ
_chemical_formula_moiety         'C21 H25 N1 O4'
_chemical_name_systematic        
4b,7-dimethyldodecahydro-4a,6-methanocyclopenta[3,4]oxireno[1,8a]azuleno[5,6-a]indolizine-2,10,13(1aH,4cH)-trione
_symmetry_cell_setting           monoclinic
_symmetry_space_group_name_H-M   'P 21/c'
_symmetry_Int_Tables_number      14
_space_group_name_Hall           '-P 2ybc'
loop_
_symmetry_equiv_pos_site_id
_symmetry_equiv_pos_as_xyz
1 x,y,z
2 -x,1/2+y,1/2-z
3 -x,-y,-z
4 x,1/2-y,1/2+z
_cell_length_a                   17.6854(6)
_cell_length_b                   7.3382(2)
_cell_length_c                   13.4634(4)
_cell_angle_alpha                90
_cell_angle_beta                 103.8970(10)
_cell_angle_gamma                90
_cell_volume                     1696.12
_exptl_crystal_colour            colorless
_exptl_crystal_description       block
_cell_formula_units_Z            4
loop_
_atom_site_label
_atom_site_type_symbol
_atom_site_fract_x
_atom_site_fract_y
_atom_site_fract_z
C1 C 0.84697(7) 0.52356(17) 0.58673(9)
H1 H 0.8680 0.4095 0.6239
C2 C 0.85008(7) 0.67850(17) 0.66227(9)
H2 H 0.9007 0.6798 0.7134
H3 H 0.8078 0.6666 0.6985
C3 C 0.83970(7) 0.85189(17) 0.59729(9)
H4 H 0.8260 0.9550 0.6382
C4 C 0.91776(7) 0.89595(18) 0.56897(10)
H5 H 0.9064 0.9720 0.5055
C5 C 0.95475(7) 0.71426(19) 0.54609(11)
H6 H 0.9817 0.7326 0.4904
H7 H 0.9937 0.6733 0.6078
C6 C 0.86420(8) 0.51926(18) 0.41925(10)
C7 C 0.79202(7) 0.40895(18) 0.42082(9)
H8 H 0.8107 0.2823 0.4402
C8 C 0.73794(9) 0.3943(2) 0.31433(11)
H9 H 0.7384 0.5117 0.2783
H10 H 0.7583 0.2996 0.2753
C9 C 0.65435(9) 0.3473(2) 0.31526(12)
H11 H 0.6271 0.2980 0.2477
H12 H 0.6542 0.2522 0.3674
C10 C 0.61184(8) 0.51377(19) 0.33902(10)
C11 C 0.65317(7) 0.68504(17) 0.39066(9)
H13 H 0.6756 0.7525 0.3398
C12 C 0.71712(7) 0.67005(16) 0.49353(9)
C13 C 0.76505(7) 0.48649(16) 0.51484(9)
C14 C 0.66982(7) 0.71815(18) 0.57468(9)
H14 H 0.6400 0.6113 0.5890
H15 H 0.7050 0.7598 0.6395
C15 C 0.61534(7) 0.87068(19) 0.52517(10)
H16 H 0.6435 0.9877 0.5273
H17 H 0.5718 0.8861 0.5589
C16 C 0.58639(7) 0.80215(18) 0.41560(10)
H18 H 0.5719 0.9057 0.3664
C17 C 0.77499(7) 0.82997(16) 0.49879(9)
C18 C 0.51813(8) 0.67094(19) 0.40815(11)
C19 C 0.53020(8) 0.5103(2) 0.34648(10)
H19 H 0.5016 0.3933 0.3483
C20 C 0.72309(8) 0.34486(18) 0.56527(10)
H20 H 0.7495 0.2270 0.5673
H21 H 0.6690 0.3331 0.5258
H22 H 0.7238 0.3836 0.6352
C21 C 0.97434(8) 1.0002(2) 0.65342(11)
H23 H 0.9815 0.9337 0.7181
H24 H 0.9532 1.1216 0.6608
H25 H 1.0246 1.0124 0.6355
N1 N 0.89452(6) 0.57598(15) 0.51594(8)
O1 O 0.76859(5) 0.94074(12) 0.43019(7)
O2 O 0.46473(6) 0.69103(15) 0.44898(9)
O3 O 0.54951(6) 0.57494(15) 0.25375(7)
O4 O 0.89045(6) 0.55178(15) 0.34477(7)
loop_
_geom_bond_atom_site_label_1
_geom_bond_atom_site_label_2
_geom_bond_site_symmetry_1
_geom_bond_site_symmetry_2
C1 H1 1_555 1_555
C2 C1 1_555 1_555
H2 C2 1_555 1_555
H3 C2 1_555 1_555
C3 C2 1_555 1_555
H4 C3 1_555 1_555
C4 C3 1_555 1_555
H5 C4 1_555 1_555
C5 C4 1_555 1_555
H6 C5 1_555 1_555
H7 C5 1_555 1_555
C6 C7 1_555 1_555
C7 H8 1_555 1_555
C8 C7 1_555 1_555
H9 C8 1_555 1_555
H10 C8 1_555 1_555
C9 C8 1_555 1_555
H11 C9 1_555 1_555
H12 C9 1_555 1_555
C10 C9 1_555 1_555
C11 C10 1_555 1_555
H13 C11 1_555 1_555
C12 C11 1_555 1_555
C13 C1 1_555 1_555
C14 C12 1_555 1_555
H14 C14 1_555 1_555
H15 C14 1_555 1_555
C15 C14 1_555 1_555
H16 C15 1_555 1_555
H17 C15 1_555 1_555
C16 C11 1_555 1_555
H18 C16 1_555 1_555
C17 C3 1_555 1_555
C18 C16 1_555 1_555
C19 C10 1_555 1_555
H19 C19 1_555 1_555
C20 C13 1_555 1_555
H20 C20 1_555 1_555
H21 C20 1_555 1_555
H22 C20 1_555 1_555
C21 C4 1_555 1_555
H23 C21 1_555 1_555
H24 C21 1_555 1_555
H25 C21 1_555 1_555
N1 C1 1_555 1_555
O1 C17 1_555 1_555
O2 C18 1_555 1_555
O3 C10 1_555 1_555
O4 C6 1_555 1_555
C5 N1 1_555 1_555
C6 N1 1_555 1_555
C7 C13 1_555 1_555
C12 C13 1_555 1_555
C12 C17 1_555 1_555
C15 C16 1_555 1_555
C18 C19 1_555 1_555
C19 O3 1_555 1_555

#END
