
#######################################################################
#
#                 Cambridge Crystallographic Data Centre
#                                CCDC 
#
#######################################################################
#
# If this CIF has been generated from an entry in the Cambridge 
# Structural Database, then it will include bibliographic, chemical, 
# crystal, experimental, refinement or atomic coordinate data resulting 
# from the CCDC's data processing and validation procedures.
#
#######################################################################

data_SEGQEA
_chemical_formula_moiety         'C6 H5 Cl3 O5'
_chemical_name_systematic        'L-Malic acid chloralide'
_symmetry_cell_setting           monoclinic
_symmetry_space_group_name_H-M   'P 21'
_symmetry_Int_Tables_number      4
_space_group_name_Hall           'P 2yb'
loop_
_symmetry_equiv_pos_site_id
_symmetry_equiv_pos_as_xyz
1 x,y,z
2 -x,1/2+y,-z
_cell_length_a                   10.456(2)
_cell_length_b                   5.818(10)
_cell_length_c                   16.638(3)
_cell_angle_alpha                90
_cell_angle_beta                 94.76(2)
_cell_angle_gamma                90
_cell_volume                     1008.65
_exptl_crystal_colour            colorless
_exptl_crystal_description       needles
_chemical_melting_point          174.5-175.5deg.C
_cell_formula_units_Z            4
loop_
_atom_site_label
_atom_site_type_symbol
_atom_site_fract_x
_atom_site_fract_y
_atom_site_fract_z
C1 C 0.6717(4) 0.4208 0.6029(3)
C2 C 0.6648(4) 0.4039(11) 0.5108(2)
C3 C 0.7875(4) 0.0293(12) 0.3730(2)
C4 C 0.8490(4) 0.3942(12) 0.4498(2)
C5 C 0.8006(4) 0.1506(12) 0.4536(3)
C6 C 0.7071(4) 0.1533(12) 0.3080(2)
O1 O 0.6784(3) 0.1770(9) 0.4853(2)
O2 O 0.9456(3) 0.4624(11) 0.4238(2)
O3 O 0.7652(3) 0.5360(10) 0.4829(2)
O4 O 0.6813(3) 0.3560(10) 0.3137(2)
O5 O 0.6742(3) 0.0254(10) 0.2463(2)
Cl1 Cl 0.5427(1) 0.2617(9) 0.6369(1)
Cl2 Cl 0.6554(2) 0.7120(9) 0.6298(1)
Cl3 Cl 0.8175(1) 0.3089(9) 0.6470(1)
H1 H 0.5840 0.4632 0.4883
H2 H 0.7490 -0.1181 0.3804
H3 H 0.8714 0.0032 0.3553
H4 H 0.8562 0.0641 0.4912
H5 H 0.5982 0.0973 0.2168
C7 C 0.0342(4) 0.2036(11) 0.1537(2)
C8 C 0.1804(4) 0.2066(12) 0.1519(3)
C9 C 0.4051(4) 0.5754(12) 0.0783(2)
C10 C 0.2739(4) 0.2230(12) 0.0348(3)
C11 C 0.2745(4) 0.4607(12) 0.0692(2)
C12 C 0.4954(4) 0.4524(13) 0.1393(3)
O6 O 0.2264(3) 0.4304(10) 0.1465(2)
O7 O 0.3142(3) 0.1567(11) -0.0265(2)
O8 O 0.2148(3) 0.0804(10) 0.0848(2)
O9 O 0.5082(3) 0.2455(10) 0.1385(2)
O10 O 0.5542(3) 0.5876(10) 0.1910(2)
Cl4 Cl -0.0028(1) 0.3486(9) 0.2425(1)
Cl5 Cl -0.0198(1) -0.0836(9) 0.1579(1)
Cl6 Cl -0.0406(1) 0.3411(9) 0.0683(1)
H6 H 0.2187 0.1364 0.2002
H7 H 0.3952 0.7319 0.0950
H8 H 0.4410 0.5769 0.0270
H9 H 0.2160 0.5554 0.0363
H10 H 0.6090 0.4988 0.2317
loop_
_geom_bond_atom_site_label_1
_geom_bond_atom_site_label_2
_geom_bond_site_symmetry_1
_geom_bond_site_symmetry_2
C1 C2 1_555 1_555
C2 O1 1_555 1_555
C3 C5 1_555 1_555
C4 C5 1_555 1_555
C5 O1 1_555 1_555
C6 C3 1_555 1_555
O2 C4 1_555 1_555
O3 C2 1_555 1_555
O4 C6 1_555 1_555
O5 C6 1_555 1_555
Cl1 C1 1_555 1_555
Cl2 C1 1_555 1_555
Cl3 C1 1_555 1_555
C7 C8 1_555 1_555
C8 O6 1_555 1_555
C9 C11 1_555 1_555
C10 C11 1_555 1_555
C11 O6 1_555 1_555
C12 C9 1_555 1_555
O7 C10 1_555 1_555
O8 C8 1_555 1_555
O9 C12 1_555 1_555
O10 C12 1_555 1_555
Cl4 C7 1_555 1_555
Cl5 C7 1_555 1_555
Cl6 C7 1_555 1_555
H1 C2 1_555 1_555
H2 C3 1_555 1_555
H3 C3 1_555 1_555
H4 C5 1_555 1_555
H5 O5 1_555 1_555
H6 C8 1_555 1_555
H7 C9 1_555 1_555
H8 C9 1_555 1_555
H9 C11 1_555 1_555
H10 O10 1_555 1_555
C4 O3 1_555 1_555
C10 O8 1_555 1_555

#END
