
#######################################################################
#
#                 Cambridge Crystallographic Data Centre
#                                CCDC 
#
#######################################################################
#
# If this CIF has been generated from an entry in the Cambridge 
# Structural Database, then it will include bibliographic, chemical, 
# crystal, experimental, refinement or atomic coordinate data resulting 
# from the CCDC's data processing and validation procedures.
#
#######################################################################

data_SEGSIJ
_chemical_formula_moiety         'C18 H34 B20 O1'
_chemical_name_systematic        
1,1'-[oxybis(methylene)]-1,1'-bis(2-phenyl-1,2-dicarba-closo-dodecaborane(10))
_symmetry_cell_setting           orthorhombic
_symmetry_space_group_name_H-M   'P b c a'
_symmetry_Int_Tables_number      61
_space_group_name_Hall           '-P 2ac 2ab'
loop_
_symmetry_equiv_pos_site_id
_symmetry_equiv_pos_as_xyz
1 x,y,z
2 1/2-x,-y,1/2+z
3 -x,1/2+y,1/2-z
4 1/2+x,1/2-y,-z
5 -x,-y,-z
6 1/2+x,y,1/2-z
7 x,1/2-y,1/2+z
8 1/2-x,1/2+y,z
_cell_length_a                   19.0160(13)
_cell_length_b                   13.8260(10)
_cell_length_c                   20.5909(10)
_cell_angle_alpha                90
_cell_angle_beta                 90
_cell_angle_gamma                90
_cell_volume                     5413.66
_exptl_crystal_description       block
_cell_formula_units_Z            8
loop_
_atom_site_label
_atom_site_type_symbol
_atom_site_fract_x
_atom_site_fract_y
_atom_site_fract_z
C1 C 1.06892(12) 0.78069(16) 0.35072(11)
H1 H 1.1064 0.7698 0.3211
C2 C 0.98793(11) 0.70709(16) 0.26891(10)
C3 C 0.97770(12) 0.58558(17) 0.26231(10)
C4 C 1.08221(14) 0.82563(18) 0.40987(11)
H2 H 1.1287 0.8454 0.4205
C5 C 1.00156(12) 0.75174(16) 0.33461(10)
C6 C 1.02833(15) 0.84160(19) 0.45303(11)
H3 H 1.0374 0.8717 0.4937
C7 C 0.92318(12) 0.4567(2) 0.40775(10)
H4 H 0.9694 0.4544 0.4298
H5 H 0.9154 0.3927 0.3874
C8 C 0.86739(11) 0.47175(16) 0.45854(9)
C9 C 0.76719(12) 0.41341(18) 0.37184(11)
C10 C 0.98410(14) 0.52598(18) 0.32294(10)
H6 H 0.9967 0.4591 0.3103
H7 H 1.0235 0.5520 0.3490
O1 O 0.92661(13) 0.52233(19) 0.36089(11)
C11 C 0.94732(13) 0.76933(19) 0.37810(11)
H8 H 0.9006 0.7509 0.3675
C12 C 0.78309(11) 0.44596(17) 0.43984(10)
B1 B 1.02983(14) 0.7494(2) 0.20152(11)
H9 H 1.0663 0.8131 0.2020
B2 B 0.90538(14) 0.65916(19) 0.25221(13)
H10 H 0.8600 0.6624 0.2868
B3 B 0.92021(15) 0.5571(2) 0.20196(12)
H11 H 0.8844 0.4929 0.2030
B4 B 0.80541(14) 0.3991(2) 0.56985(13)
H12 H 0.8039 0.3439 0.6096
B5 B 0.88579(14) 0.4424(2) 0.53723(11)
H13 H 0.9381 0.4159 0.5548
C13 C 0.96124(15) 0.8137(2) 0.43693(12)
H14 H 0.9239 0.8250 0.4666
B6 B 0.83020(14) 0.3681(2) 0.49011(12)
H15 H 0.8459 0.2928 0.4760
B7 B 1.01249(15) 0.5436(2) 0.19111(12)
H16 H 1.0373 0.4708 0.1847
C14 C 0.77597(13) 0.3181(2) 0.35293(12)
H17 H 0.7904 0.2712 0.3839
C15 C 0.76375(14) 0.2904(2) 0.28887(13)
H18 H 0.7702 0.2249 0.2763
B8 B 0.74134(15) 0.3999(2) 0.50670(14)
H19 H 0.6978 0.3455 0.5040
C16 C 0.74355(17) 0.4799(2) 0.32623(13)
H20 H 0.7357 0.5451 0.3388
B9 B 0.97193(16) 0.7259(2) 0.13549(12)
H21 H 0.9700 0.7737 0.0916
C17 C 0.73123(18) 0.4520(3) 0.26260(14)
H22 H 0.7151 0.4981 0.2319
B10 B 0.89453(16) 0.6698(2) 0.16752(13)
H23 H 0.8415 0.6805 0.1450
B11 B 0.80921(14) 0.56596(19) 0.45011(12)
H24 H 0.8110 0.6203 0.4098
B12 B 0.96061(16) 0.5987(2) 0.12933(12)
H25 H 0.9510 0.5626 0.0815
B13 B 1.05469(14) 0.63689(19) 0.23543(12)
H26 H 1.1070 0.6254 0.2592
C18 C 0.74235(15) 0.3574(3) 0.24371(13)
H27 H 0.7353 0.3387 0.1998
B14 B 0.72848(14) 0.5224(2) 0.48224(13)
H28 H 0.6765 0.5484 0.4636
B15 B 0.78485(16) 0.5967(2) 0.52979(13)
H29 H 0.7698 0.6725 0.5430
B16 B 1.04504(16) 0.6482(2) 0.15055(12)
H30 H 1.0913 0.6448 0.1170
B17 B 0.93729(14) 0.76355(19) 0.21202(12)
H31 H 0.9126 0.8363 0.2194
B18 B 0.87314(15) 0.5643(2) 0.51244(12)
H32 H 0.9172 0.6181 0.5136
B19 B 0.83215(15) 0.5207(2) 0.58417(12)
H33 H 0.8486 0.5463 0.6335
B20 B 0.74329(16) 0.4946(2) 0.56590(14)
H34 H 0.7009 0.5027 0.6033
loop_
_geom_bond_atom_site_label_1
_geom_bond_atom_site_label_2
_geom_bond_site_symmetry_1
_geom_bond_site_symmetry_2
C1 H1 1_555 1_555
C2 C3 1_555 1_555
C3 C10 1_555 1_555
C4 C1 1_555 1_555
H2 C4 1_555 1_555
C5 C1 1_555 1_555
C6 C4 1_555 1_555
H3 C6 1_555 1_555
C7 H4 1_555 1_555
H5 C7 1_555 1_555
C8 C7 1_555 1_555
C9 C12 1_555 1_555
C10 H6 1_555 1_555
H7 C10 1_555 1_555
O1 C7 1_555 1_555
C11 C5 1_555 1_555
H8 C11 1_555 1_555
C12 C8 1_555 1_555
B1 C2 1_555 1_555
H9 B1 1_555 1_555
B2 C2 1_555 1_555
H10 B2 1_555 1_555
B3 C3 1_555 1_555
H11 B3 1_555 1_555
B4 H12 1_555 1_555
B5 C8 1_555 1_555
H13 B5 1_555 1_555
C13 C6 1_555 1_555
H14 C13 1_555 1_555
B6 C8 1_555 1_555
H15 B6 1_555 1_555
B7 C3 1_555 1_555
H16 B7 1_555 1_555
C14 C9 1_555 1_555
H17 C14 1_555 1_555
C15 C14 1_555 1_555
H18 C15 1_555 1_555
B8 C12 1_555 1_555
H19 B8 1_555 1_555
C16 C9 1_555 1_555
H20 C16 1_555 1_555
B9 B1 1_555 1_555
H21 B9 1_555 1_555
C17 C16 1_555 1_555
H22 C17 1_555 1_555
B10 B2 1_555 1_555
H23 B10 1_555 1_555
B11 C8 1_555 1_555
H24 B11 1_555 1_555
B12 B3 1_555 1_555
H25 B12 1_555 1_555
B13 C2 1_555 1_555
H26 B13 1_555 1_555
C18 C15 1_555 1_555
H27 C18 1_555 1_555
B14 C12 1_555 1_555
H28 B14 1_555 1_555
B15 B11 1_555 1_555
H29 B15 1_555 1_555
B16 B1 1_555 1_555
H30 B16 1_555 1_555
B17 C2 1_555 1_555
H31 B17 1_555 1_555
B18 C8 1_555 1_555
H32 B18 1_555 1_555
B19 B4 1_555 1_555
H33 B19 1_555 1_555
B20 B4 1_555 1_555
H34 B20 1_555 1_555
C2 C5 1_555 1_555
C3 B2 1_555 1_555
C3 B13 1_555 1_555
C10 O1 1_555 1_555
C11 C13 1_555 1_555
C12 B6 1_555 1_555
C12 B11 1_555 1_555
B1 B13 1_555 1_555
B1 B17 1_555 1_555
B2 B3 1_555 1_555
B2 B17 1_555 1_555
B3 B7 1_555 1_555
B3 B10 1_555 1_555
B4 B5 1_555 1_555
B4 B6 1_555 1_555
B4 B8 1_555 1_555
B5 B6 1_555 1_555
B5 B18 1_555 1_555
B5 B19 1_555 1_555
B6 B8 1_555 1_555
B7 B12 1_555 1_555
B7 B13 1_555 1_555
B7 B16 1_555 1_555
B8 B14 1_555 1_555
B8 B20 1_555 1_555
B9 B10 1_555 1_555
B9 B12 1_555 1_555
B9 B16 1_555 1_555
B9 B17 1_555 1_555
C17 C18 1_555 1_555
B10 B12 1_555 1_555
B10 B17 1_555 1_555
B11 B14 1_555 1_555
B11 B18 1_555 1_555
B12 B16 1_555 1_555
B13 B16 1_555 1_555
B14 B15 1_555 1_555
B14 B20 1_555 1_555
B15 B18 1_555 1_555
B15 B19 1_555 1_555
B15 B20 1_555 1_555
B18 B19 1_555 1_555
B19 B20 1_555 1_555

#END
