
#######################################################################
#
#                 Cambridge Crystallographic Data Centre
#                                CCDC 
#
#######################################################################
#
# If this CIF has been generated from an entry in the Cambridge 
# Structural Database, then it will include bibliographic, chemical, 
# crystal, experimental, refinement or atomic coordinate data resulting 
# from the CCDC's data processing and validation procedures.
#
#######################################################################

data_SEGXEI
_chemical_name_common            'Mometasone furoate monohydrate'
_chemical_formula_moiety         'C27 H30 Cl2 O6,H2 O1'
_chemical_name_systematic        
'9\a,21-Dichloro-11\b,17\a-dihydroxy-16\a-methylpregna-1,4-diene-3,2-dione monohydrate'
_chemical_properties_biological  'potent glucocorticoid antiinflammatory agent'
_symmetry_cell_setting           triclinic
_symmetry_space_group_name_H-M   'P 1'
_symmetry_Int_Tables_number      1
_space_group_name_Hall           'P 1'
loop_
_symmetry_equiv_pos_site_id
_symmetry_equiv_pos_as_xyz
1 x,y,z
_cell_length_a                   7.3208(7)
_cell_length_b                   8.4767(8)
_cell_length_c                   11.8136(11)
_cell_angle_alpha                73.251(2)
_cell_angle_beta                 85.006(2)
_cell_angle_gamma                69.344(2)
_cell_volume                     656.791
_exptl_crystal_colour            colorless
_exptl_crystal_description       plate
_cell_formula_units_Z            1
_exptl_crystal_recrystallization_method acetone/water
loop_
_atom_site_label
_atom_site_type_symbol
_atom_site_fract_x
_atom_site_fract_y
_atom_site_fract_z
Cl1 Cl 0.45190(8) 1.07469(7) 0.78441(5)
Cl2 Cl 1.12267(13) 0.31849(13) 0.51491(9)
C1 C 0.4336(3) 0.8737(3) 0.88961(19)
O1 O 0.6318(3) 0.7776(2) 0.53678(15)
C2 C 0.2878(3) 0.8164(3) 0.8382(2)
H1 H 0.2819 0.7075 0.8940
O2 O 0.6656(3) 0.5857(2) 0.98927(15)
H2 H 0.7183 0.5887 1.0467
O3 O 0.7575(3) 0.6737(3) 0.38080(17)
C3 C 0.3581(4) 0.9264(3) 1.0071(2)
C4 C 0.3625(4) 0.7762(3) 0.7218(2)
H3 H 0.3781 0.8833 0.6690
C5 C 0.7108(3) 0.6895(3) 0.7801(2)
H4 H 0.7281 0.7894 0.7209
H5 H 0.8360 0.5949 0.7931
C6 C 0.4961(4) 0.9927(4) 1.0511(2)
H6 H 0.6245 0.9178 1.0679
O4 O 0.7178(4) 0.3300(3) 0.5813(2)
C7 C 0.5630(3) 0.6312(3) 0.7327(2)
C8 C 0.7342(4) 0.9593(4) 0.3831(2)
O5 O 0.8276(4) 0.9867(4) 0.27750(18)
C9 C 0.5881(4) 0.6212(3) 0.6015(2)
C10 C 0.6462(3) 0.7400(3) 0.8964(2)
H7 H 0.7348 0.7942 0.9136
C11 C 0.9613(4) 0.4429(4) 0.6024(3)
H8 H 1.0015 0.3893 0.6848
H9 H 0.9680 0.5601 0.5798
C12 C 0.1565(4) 1.0628(3) 0.9809(2)
C13 C 0.1109(4) 1.2225(4) 0.9964(3)
H10 H -0.0157 1.3012 0.9787
C14 C 0.0098(4) 1.0059(4) 0.9367(3)
H11 H -0.1143 1.1015 0.9213
H12 H -0.0096 0.9078 0.9968
C15 C 0.7513(4) 0.4549(4) 0.5883(2)
C16 C 0.2379(4) 0.7202(4) 0.6545(3)
H13 H 0.1311 0.8209 0.6122
H14 H 0.1848 0.6372 0.7081
C17 C 0.0809(4) 0.9519(4) 0.8237(2)
H15 H 0.0791 1.0550 0.7603
H16 H -0.0077 0.9031 0.8016
C18 C 0.3370(4) 0.7702(4) 1.1112(2)
H17 H 0.2468 0.8157 1.1677
H18 H 0.4619 0.7010 1.1489
H19 H 0.2892 0.6984 1.0806
O6 O 0.2063(4) 1.4249(3) 1.0531(3)
C19 C 0.2505(5) 1.2775(4) 1.0396(3)
C20 C 0.7102(4) 0.7899(4) 0.4288(2)
C21 C 0.5593(4) 0.4531(4) 0.8113(3)
H20 H 0.4736 0.4160 0.7764
H21 H 0.5133 0.4641 0.8883
H22 H 0.6887 0.3680 0.8184
C22 C 0.6880(6) 1.0983(5) 0.4251(3)
H23 H 0.6252 1.1105 0.4956
C23 C 0.3807(4) 0.6336(4) 0.5671(2)
H24 H 0.3811 0.5133 0.5840
C24 C 0.4470(5) 1.1502(4) 1.0676(3)
H25 H 0.5396 1.1803 1.0975
C25 C 0.8350(7) 1.1509(7) 0.2562(3)
H26 H 0.8908 1.2054 0.1897
C26 C 0.3210(6) 0.7226(7) 0.4395(3)
H27 H 0.3189 0.8413 0.4197
H28 H 0.1933 0.7225 0.4268
H29 H 0.4127 0.6607 0.3904
C27 C 0.7529(8) 1.2233(6) 0.3417(4)
H30 H 0.7405 1.3345 0.3459
O7 O 0.8825(4) 0.6144(4) 0.1543(3)
H31 H 0.885(6) 0.617(5) 0.222(4)
H32 H 0.991(7) 0.545(7) 0.148(4)
loop_
_geom_bond_atom_site_label_1
_geom_bond_atom_site_label_2
_geom_bond_site_symmetry_1
_geom_bond_site_symmetry_2
Cl1 C1 1_555 1_555
Cl2 C11 1_555 1_555
C1 C2 1_555 1_555
O1 C9 1_555 1_555
C2 H1 1_555 1_555
O2 H2 1_555 1_555
O3 C20 1_555 1_555
C3 C1 1_555 1_555
C4 C2 1_555 1_555
H3 C4 1_555 1_555
C5 H4 1_555 1_555
H5 C5 1_555 1_555
C6 C3 1_555 1_555
H6 C6 1_555 1_555
O4 C15 1_555 1_555
C7 C4 1_555 1_555
C8 O5 1_555 1_555
O5 C25 1_555 1_555
C9 C7 1_555 1_555
C10 C1 1_555 1_555
H7 C10 1_555 1_555
C11 H8 1_555 1_555
H9 C11 1_555 1_555
C12 C3 1_555 1_555
C13 C12 1_555 1_555
H10 C13 1_555 1_555
C14 C12 1_555 1_555
H11 C14 1_555 1_555
H12 C14 1_555 1_555
C15 C9 1_555 1_555
C16 C4 1_555 1_555
H13 C16 1_555 1_555
H14 C16 1_555 1_555
C17 C2 1_555 1_555
H15 C17 1_555 1_555
H16 C17 1_555 1_555
C18 C3 1_555 1_555
H17 C18 1_555 1_555
H18 C18 1_555 1_555
H19 C18 1_555 1_555
O6 C19 1_555 1_555
C19 C13 1_555 1_555
C20 O1 1_555 1_555
C21 C7 1_555 1_555
H20 C21 1_555 1_555
H21 C21 1_555 1_555
H22 C21 1_555 1_555
C22 C8 1_555 1_555
H23 C22 1_555 1_555
C23 C9 1_555 1_555
H24 C23 1_555 1_555
C24 C6 1_555 1_555
H25 C24 1_555 1_555
C25 H26 1_555 1_555
C26 C23 1_555 1_555
H27 C26 1_555 1_555
H28 C26 1_555 1_555
H29 C26 1_555 1_555
C27 C22 1_555 1_555
H30 C27 1_555 1_555
O7 H31 1_555 1_555
H32 O7 1_555 1_555
O2 C10 1_555 1_555
C5 C7 1_555 1_555
C5 C10 1_555 1_555
C8 C20 1_555 1_555
C11 C15 1_555 1_555
C14 C17 1_555 1_555
C16 C23 1_555 1_555
C19 C24 1_555 1_555
C25 C27 1_555 1_555

#END
