
#######################################################################
#
#                 Cambridge Crystallographic Data Centre
#                                CCDC 
#
#######################################################################
#
# If this CIF has been generated from an entry in the Cambridge 
# Structural Database, then it will include bibliographic, chemical, 
# crystal, experimental, refinement or atomic coordinate data resulting 
# from the CCDC's data processing and validation procedures.
#
#######################################################################

data_SEGZUB
_chemical_formula_moiety         'C14 H12 N2 O3,2(H2 O1)'
_chemical_name_systematic        
'Methyl 4-(pyridin-4-ylcarbamoyl)benzoate dihydrate'
_symmetry_cell_setting           monoclinic
_symmetry_space_group_name_H-M   'P 21/c'
_symmetry_Int_Tables_number      14
_space_group_name_Hall           '-P 2ybc'
loop_
_symmetry_equiv_pos_site_id
_symmetry_equiv_pos_as_xyz
1 x,y,z
2 -x,1/2+y,1/2-z
3 -x,-y,-z
4 x,1/2-y,1/2+z
_cell_length_a                   7.2328(4)
_cell_length_b                   11.2111(5)
_cell_length_c                   17.3601(7)
_cell_angle_alpha                90
_cell_angle_beta                 98.222(3)
_cell_angle_gamma                90
_cell_volume                     1393.22
_exptl_crystal_colour            colorless
_exptl_crystal_description       plate
_cell_formula_units_Z            4
loop_
_atom_site_label
_atom_site_type_symbol
_atom_site_fract_x
_atom_site_fract_y
_atom_site_fract_z
O1 O 0.2877(2) 0.17346(14) 0.07547(8)
O2 O 0.1204(2) -0.09963(15) -0.31072(9)
O3 O 0.0476(2) 0.09474(14) -0.31896(8)
N1 N 0.4421(3) -0.03288(18) 0.34320(10)
N2 N 0.2887(2) -0.02484(15) 0.10014(9)
H1 H 0.2695 -0.0940 0.0790
C1 C 0.4079(3) -0.1256(2) 0.21778(12)
H2 H 0.4206 -0.1941 0.1888
C2 C 0.4579(3) -0.1262(2) 0.29735(12)
H3 H 0.5057 -0.1966 0.3206
C3 C 0.3719(3) 0.0657(2) 0.30751(12)
H4 H 0.3572 0.1321 0.3382
C4 C 0.3193(3) 0.0763(2) 0.22823(12)
H5 H 0.2719 0.1478 0.2065
C5 C 0.3389(3) -0.02191(19) 0.18169(11)
C6 C 0.2677(3) 0.0707(2) 0.05183(12)
C7 C 0.2216(3) 0.04558(19) -0.03384(11)
C8 C 0.2397(3) -0.0649(2) -0.06738(12)
H6 H 0.2785 -0.1301 -0.0361
C9 C 0.2003(3) -0.0790(2) -0.14723(12)
H7 H 0.2139 -0.1535 -0.1692
C10 C 0.1411(3) 0.0164(2) -0.19449(11)
C11 C 0.1209(3) 0.1265(2) -0.16154(11)
H8 H 0.0801 0.1912 -0.1930
C12 C 0.1610(3) 0.14122(19) -0.08185(12)
H9 H 0.1472 0.2159 -0.0601
C13 C 0.1030(3) -0.0044(2) -0.28023(12)
C14 C 0.0054(4) 0.0835(2) -0.40318(12)
H10 H -0.0300 0.1600 -0.4255
H11 H -0.0954 0.0281 -0.4161
H12 H 0.1140 0.0551 -0.4235
O4 O 0.2555(2) 0.71904(14) 0.06090(8)
H13 H 0.2139 0.6757 0.0948
H14 H 0.3466 0.6830 0.0452
O5 O 0.4494(2) 0.37038(14) 0.00536(8)
H15 H 0.4013 0.3088 0.0231
H16 H 0.4839 0.4174 0.0431
loop_
_geom_bond_atom_site_label_1
_geom_bond_atom_site_label_2
_geom_bond_site_symmetry_1
_geom_bond_site_symmetry_2
O1 C6 1_555 1_555
O2 C13 1_555 1_555
O3 C13 1_555 1_555
N1 C2 1_555 1_555
N2 H1 1_555 1_555
C1 H2 1_555 1_555
C2 C1 1_555 1_555
H3 C2 1_555 1_555
C3 N1 1_555 1_555
H4 C3 1_555 1_555
C4 C3 1_555 1_555
H5 C4 1_555 1_555
C5 N2 1_555 1_555
C6 N2 1_555 1_555
C7 C6 1_555 1_555
C8 C7 1_555 1_555
H6 C8 1_555 1_555
C9 C8 1_555 1_555
H7 C9 1_555 1_555
C10 C9 1_555 1_555
C11 C10 1_555 1_555
H8 C11 1_555 1_555
C12 C7 1_555 1_555
H9 C12 1_555 1_555
C13 C10 1_555 1_555
C14 O3 1_555 1_555
H10 C14 1_555 1_555
H11 C14 1_555 1_555
H12 C14 1_555 1_555
O4 H13 1_555 1_555
H14 O4 1_555 1_555
O5 H15 1_555 1_555
H16 O5 1_555 1_555
C1 C5 1_555 1_555
C4 C5 1_555 1_555
C11 C12 1_555 1_555

#END
