
#######################################################################
#
#                 Cambridge Crystallographic Data Centre
#                                CCDC 
#
#######################################################################
#
# If this CIF has been generated from an entry in the Cambridge 
# Structural Database, then it will include bibliographic, chemical, 
# crystal, experimental, refinement or atomic coordinate data resulting 
# from the CCDC's data processing and validation procedures.
#
#######################################################################

data_SEHCOA
_chemical_formula_moiety         'C20 H18 N2 O5 S1'
_chemical_name_systematic        
2-methyl-5-[(4-nitrophenyl)sulfonyl]-1,4,5,7-tetrahydro[2]benzopyrano[3,4-b]azepine
_symmetry_cell_setting           triclinic
_symmetry_space_group_name_H-M   'P -1'
_symmetry_Int_Tables_number      2
_space_group_name_Hall           '-P 1'
loop_
_symmetry_equiv_pos_site_id
_symmetry_equiv_pos_as_xyz
1 x,y,z
2 -x,-y,-z
_cell_length_a                   8.5361(8)
_cell_length_b                   9.5425(9)
_cell_length_c                   12.0411(9)
_cell_angle_alpha                81.946(7)
_cell_angle_beta                 83.715(7)
_cell_angle_gamma                69.347(9)
_cell_volume                     906.819
_exptl_crystal_colour            yellow
_exptl_crystal_description       block
_cell_formula_units_Z            2
loop_
_atom_site_label
_atom_site_type_symbol
_atom_site_fract_x
_atom_site_fract_y
_atom_site_fract_z
S1 S 0.61712(8) 0.15267(7) 0.12321(5)
O1 O 1.0005(2) 0.08192(19) 0.16469(14)
O2 O 0.6060(3) 0.2377(2) 0.21354(15)
O3 O 0.4814(2) 0.1066(2) 0.10455(16)
O4 O 0.7986(3) 0.6133(3) -0.2945(2)
O5 O 0.6359(3) 0.5370(2) -0.37687(19)
N1 N 0.7821(3) 0.0030(2) 0.13961(17)
N2 N 0.7117(3) 0.5361(3) -0.2968(2)
C1 C 1.2992(3) -0.0136(3) 0.3830(2)
H1 H 1.356369 0.052729 0.357459
C2 C 1.3588(4) -0.1260(3) 0.4698(2)
H2 H 1.455292 -0.134203 0.503207
C3 C 1.2758(3) -0.2252(3) 0.5067(2)
H3 H 1.316072 -0.300352 0.565118
C4 C 1.1329(3) -0.2140(3) 0.4573(2)
H4 H 1.077921 -0.282190 0.482520
C5 C 1.0699(3) -0.1021(3) 0.3705(2)
C6 C 1.1549(3) -0.0005(3) 0.3347(2)
C7 C 1.0772(4) 0.1272(3) 0.2478(2)
H5 H 0.992910 0.207974 0.284436
H6 H 1.162799 0.165802 0.210702
C8 C 0.9034(3) -0.0002(3) 0.2114(2)
C9 C 0.9242(3) -0.0865(3) 0.30934(19)
C10 C 0.8023(3) -0.1685(3) 0.3495(2)
H7 H 0.690391 -0.094271 0.355357
H8 H 0.829057 -0.218281 0.424403
C11 C 0.7992(3) -0.2850(3) 0.2764(2)
C12 C 0.8034(3) -0.2652(3) 0.1651(2)
H9 H 0.803450 -0.347329 0.131538
C13 C 0.8080(4) -0.1321(3) 0.0849(2)
H10 H 0.915757 -0.158027 0.042425
H11 H 0.721989 -0.109230 0.032150
C14 C 0.7848(5) -0.4269(3) 0.3414(3)
H12 H 0.881893 -0.476557 0.383994
H13 H 0.777578 -0.492567 0.290154
H14 H 0.685918 -0.402236 0.391609
C15 C 0.6540(3) 0.2604(3) -0.0022(2)
C16 C 0.6106(3) 0.2360(3) -0.1030(2)
H15 H 0.568800 0.158936 -0.105959
C17 C 0.6299(3) 0.3274(3) -0.1997(2)
H16 H 0.599281 0.313597 -0.268114
C18 C 0.6944(3) 0.4381(3) -0.1933(2)
C19 C 0.7416(4) 0.4611(3) -0.0938(3)
H17 H 0.786820 0.536197 -0.091767
C20 C 0.7213(4) 0.3721(3) 0.0024(2)
H18 H 0.752357 0.386535 0.070441
loop_
_geom_bond_atom_site_label_1
_geom_bond_atom_site_label_2
_geom_bond_site_symmetry_1
_geom_bond_site_symmetry_2
S1 O2 1_555 1_555
O1 C7 1_555 1_555
O3 S1 1_555 1_555
O4 N2 1_555 1_555
O5 N2 1_555 1_555
N1 S1 1_555 1_555
N2 C18 1_555 1_555
C1 H1 1_555 1_555
C2 C1 1_555 1_555
H2 C2 1_555 1_555
C3 C2 1_555 1_555
H3 C3 1_555 1_555
C4 C3 1_555 1_555
H4 C4 1_555 1_555
C5 C4 1_555 1_555
C6 C1 1_555 1_555
C7 C6 1_555 1_555
H5 C7 1_555 1_555
H6 C7 1_555 1_555
C8 O1 1_555 1_555
C9 C5 1_555 1_555
C10 C9 1_555 1_555
H7 C10 1_555 1_555
H8 C10 1_555 1_555
C11 C10 1_555 1_555
C12 C11 1_555 1_555
H9 C12 1_555 1_555
C13 N1 1_555 1_555
H10 C13 1_555 1_555
H11 C13 1_555 1_555
C14 C11 1_555 1_555
H12 C14 1_555 1_555
H13 C14 1_555 1_555
H14 C14 1_555 1_555
C15 S1 1_555 1_555
C16 C15 1_555 1_555
H15 C16 1_555 1_555
C17 C16 1_555 1_555
H16 C17 1_555 1_555
C18 C17 1_555 1_555
C19 C18 1_555 1_555
H17 C19 1_555 1_555
C20 C15 1_555 1_555
H18 C20 1_555 1_555
N1 C8 1_555 1_555
C5 C6 1_555 1_555
C8 C9 1_555 1_555
C12 C13 1_555 1_555
C19 C20 1_555 1_555

#END
