
#######################################################################
#
#                 Cambridge Crystallographic Data Centre
#                                CCDC 
#
#######################################################################
#
# If this CIF has been generated from an entry in the Cambridge 
# Structural Database, then it will include bibliographic, chemical, 
# crystal, experimental, refinement or atomic coordinate data resulting 
# from the CCDC's data processing and validation procedures.
#
#######################################################################

data_SEHCOX
_chemical_formula_moiety         'C36 H42 N8'
_chemical_name_systematic        
6,16,25-(1,3)Tribenzo-1,4,8,11,14,18,23,27-octa-azabicyclo(9.9.9)nonacosa-4,7,14,17,23,26-hexaene
_symmetry_cell_setting           rhombohedral
_symmetry_space_group_name_H-M   'R -3'
_symmetry_Int_Tables_number      148
_space_group_name_Hall           '-R 3'
loop_
_symmetry_equiv_pos_site_id
_symmetry_equiv_pos_as_xyz
1 x,y,z
2 1/3+x,2/3+y,2/3+z
3 2/3+x,1/3+y,1/3+z
4 -y,x-y,z
5 -x+y,-x,z
6 1/3-y,2/3+x-y,2/3+z
7 1/3-x+y,2/3-x,2/3+z
8 2/3-y,1/3+x-y,1/3+z
9 2/3-x+y,1/3-x,1/3+z
10 -x,-y,-z
11 2/3-x,1/3-y,1/3-z
12 1/3-x,2/3-y,2/3-z
13 y,-x+y,-z
14 x-y,x,-z
15 2/3+y,1/3-x+y,1/3-z
16 2/3+x-y,1/3+x,1/3-z
17 1/3+y,2/3-x+y,2/3-z
18 1/3+x-y,2/3+x,2/3-z
_cell_length_a                   30.284(7)
_cell_length_b                   30.284(7)
_cell_length_c                   18.450(6)
_cell_angle_alpha                90
_cell_angle_beta                 90
_cell_angle_gamma                120
_cell_volume                     14653.9
_exptl_crystal_colour            colorless
_cell_formula_units_Z            18
loop_
_atom_site_label
_atom_site_type_symbol
_atom_site_fract_x
_atom_site_fract_y
_atom_site_fract_z
N1 N 0.8321(1) 0.3516(1) 0.7115(2)
C1 C 0.8564(2) 0.3963(2) 0.6644(2)
C2 C 0.8696(2) 0.3839(2) 0.5905(2)
N2 N 0.8234(1) 0.3568(1) 0.5464(2)
C3 C 0.8134(2) 0.3139(2) 0.5202(2)
C4 C 0.7689(2) 0.2837(2) 0.4725(2)
C5 C 0.7330(2) 0.2983(2) 0.4590(2)
C6 C 0.6923(2) 0.2701(2) 0.4122(2)
C7 C 0.6879(2) 0.2272(2) 0.3777(2)
C8 C 0.7234(2) 0.2119(2) 0.3913(2)
C9 C 0.7636(2) 0.2399(2) 0.4395(2)
C10 C 0.7203(2) 0.1669(2) 0.3542(2)
N3 N 0.6873(1) 0.1430(1) 0.3051(2)
C11 C 0.6866(2) 0.0989(2) 0.2716(2)
C12 C 0.6350(2) 0.0517(2) 0.2839(2)
C13 C 0.7946(2) 0.3528(2) 0.7607(2)
C14 C 0.7429(2) 0.3320(2) 0.7246(2)
N4 N 0.7179(1) 0.2764(1) 0.7192(2)
C15 C 0.7057(1) 0.2564(2) 0.6564(2)
C16 C 0.6796(1) 0.2010(2) 0.6458(2)
C17 C 0.6723(2) 0.1675(2) 0.7029(2)
C18 C 0.6457(2) 0.1150(2) 0.6926(2)
C19 C 0.6251(2) 0.0950(2) 0.6255(2)
C20 C 0.6318(2) 0.1274(2) 0.5670(2)
C21 C 0.6596(2) 0.1801(2) 0.5774(2)
C22 C 0.6087(2) 0.1067(2) 0.4952(2)
N5 N 0.5803(1) 0.0591(1) 0.4842(2)
C23 C 0.5590(2) 0.0425(2) 0.4117(2)
C24 C 0.5759(2) 0.0065(2) 0.3815(2)
C25 C 0.8700(2) 0.3444(2) 0.7511(2)
C26 C 0.8516(2) 0.2886(2) 0.7658(2)
N6 N 0.8554(1) 0.2644(1) 0.6987(2)
C27 C 0.8150(2) 0.2267(2) 0.6748(2)
C28 C 0.8148(2) 0.1992(2) 0.6079(2)
C29 C 0.8592(2) 0.2150(2) 0.5672(2)
C30 C 0.8582(2) 0.1884(2) 0.5058(2)
C31 C 0.8138(2) 0.1459(2) 0.4839(2)
C32 C 0.7688(2) 0.1286(2) 0.5237(2)
C33 C 0.7699(2) 0.1563(2) 0.5858(2)
C34 C 0.7215(2) 0.0813(2) 0.5056(2)
N7 N 0.7202(1) 0.0518(1) 0.4556(2)
C35 C 0.6724(2) 0.0039(2) 0.4453(2)
C36 C 0.6527(2) 0.0009(2) 0.3677(2)
N8 N 0.6295(1) 0.0328(1) 0.3586(2)
H1 H 0.8336 0.4094 0.6579
H2 H 0.8872 0.4218 0.6871
H3 H 0.8847 0.3628 0.5965
H4 H 0.8933 0.4150 0.5665
H5 H 0.8355 0.3007 0.5317
H6 H 0.7362 0.3282 0.4821
H7 H 0.6674 0.2802 0.4037
H8 H 0.6603 0.2081 0.3446
H9 H 0.7877 0.2289 0.4499
H10 H 0.7437 0.1556 0.3676
H11 H 0.6927 0.1047 0.2205
H12 H 0.7127 0.0939 0.2930
H13 H 0.6312 0.0255 0.2511
H14 H 0.6088 0.0600 0.2746
H15 H 0.7910 0.3325 0.8026
H16 H 0.8066 0.3874 0.7752
H17 H 0.7474 0.3463 0.6768
H18 H 0.7221 0.3412 0.7529
H19 H 0.7138 0.2782 0.6149
H20 H 0.6860 0.1810 0.7499
H21 H 0.6415 0.0926 0.7322
H22 H 0.6061 0.0587 0.6188
H23 H 0.6652 0.2025 0.5372
H24 H 0.6153 0.1299 0.4558
H25 H 0.5225 0.0252 0.4142
H26 H 0.5709 0.0717 0.3805
H27 H 0.5550 -0.0110 0.3404
H28 H 0.5712 -0.0179 0.4183
H29 H 0.9007 0.3584 0.7228
H30 H 0.8770 0.3622 0.7965
H31 H 0.8168 0.2719 0.7817
H32 H 0.8724 0.2858 0.8027
H33 H 0.7836 0.2154 0.7005
H34 H 0.8905 0.2444 0.5820
H35 H 0.8888 0.1997 0.4780
H36 H 0.8138 0.1280 0.4409
H37 H 0.7392 0.1454 0.6132
H38 H 0.6909 0.0725 0.5322
H39 H 0.6781 -0.0241 0.4536
H40 H 0.6475 0.0023 0.4791
H41 H 0.6276 -0.0339 0.3573
H42 H 0.6807 0.0121 0.3346
loop_
_geom_bond_atom_site_label_1
_geom_bond_atom_site_label_2
_geom_bond_site_symmetry_1
_geom_bond_site_symmetry_2
N1 C1 1_555 1_555
C1 C2 1_555 1_555
C2 N2 1_555 1_555
N2 C3 1_555 1_555
C3 C4 1_555 1_555
C4 C5 1_555 1_555
C5 C6 1_555 1_555
C6 C7 1_555 1_555
C7 C8 1_555 1_555
C8 C9 1_555 1_555
C9 C4 1_555 1_555
C10 C8 1_555 1_555
N3 C10 1_555 1_555
C11 N3 1_555 1_555
C12 C11 1_555 1_555
C13 N1 1_555 1_555
C14 C13 1_555 1_555
N4 C14 1_555 1_555
C15 N4 1_555 1_555
C16 C15 1_555 1_555
C17 C16 1_555 1_555
C18 C17 1_555 1_555
C19 C18 1_555 1_555
C20 C19 1_555 1_555
C21 C16 1_555 1_555
C22 C20 1_555 1_555
N5 C22 1_555 1_555
C23 N5 1_555 1_555
C24 C23 1_555 1_555
C25 N1 1_555 1_555
C26 C25 1_555 1_555
N6 C26 1_555 1_555
C27 N6 1_555 1_555
C28 C27 1_555 1_555
C29 C28 1_555 1_555
C30 C29 1_555 1_555
C31 C30 1_555 1_555
C32 C31 1_555 1_555
C33 C28 1_555 1_555
C34 C32 1_555 1_555
N7 C34 1_555 1_555
C35 N7 1_555 1_555
C36 C35 1_555 1_555
N8 C12 1_555 1_555
H1 C1 1_555 1_555
H2 C1 1_555 1_555
H3 C2 1_555 1_555
H4 C2 1_555 1_555
H5 C3 1_555 1_555
H6 C5 1_555 1_555
H7 C6 1_555 1_555
H8 C7 1_555 1_555
H9 C9 1_555 1_555
H10 C10 1_555 1_555
H11 C11 1_555 1_555
H12 C11 1_555 1_555
H13 C12 1_555 1_555
H14 C12 1_555 1_555
H15 C13 1_555 1_555
H16 C13 1_555 1_555
H17 C14 1_555 1_555
H18 C14 1_555 1_555
H19 C15 1_555 1_555
H20 C17 1_555 1_555
H21 C18 1_555 1_555
H22 C19 1_555 1_555
H23 C21 1_555 1_555
H24 C22 1_555 1_555
H25 C23 1_555 1_555
H26 C23 1_555 1_555
H27 C24 1_555 1_555
H28 C24 1_555 1_555
H29 C25 1_555 1_555
H30 C25 1_555 1_555
H31 C26 1_555 1_555
H32 C26 1_555 1_555
H33 C27 1_555 1_555
H34 C29 1_555 1_555
H35 C30 1_555 1_555
H36 C31 1_555 1_555
H37 C33 1_555 1_555
H38 C34 1_555 1_555
H39 C35 1_555 1_555
H40 C35 1_555 1_555
H41 C36 1_555 1_555
H42 C36 1_555 1_555
C20 C21 1_555 1_555
C24 N8 1_555 1_555
C32 C33 1_555 1_555
C36 N8 1_555 1_555

#END
