
#######################################################################
#
#                 Cambridge Crystallographic Data Centre
#                                CCDC 
#
#######################################################################
#
# If this CIF has been generated from an entry in the Cambridge 
# Structural Database, then it will include bibliographic, chemical, 
# crystal, experimental, refinement or atomic coordinate data resulting 
# from the CCDC's data processing and validation procedures.
#
#######################################################################

data_SEHDIV
_chemical_formula_moiety         'C29 H21 N1'
_chemical_name_systematic        
11-phenyl-10b,15b-dihydro-10H-benzo[b]indolo[3,2,1-de]acridine
_symmetry_cell_setting           monoclinic
_symmetry_space_group_name_H-M   'P 21/c'
_symmetry_Int_Tables_number      14
_space_group_name_Hall           '-P 2ybc'
loop_
_symmetry_equiv_pos_site_id
_symmetry_equiv_pos_as_xyz
1 x,y,z
2 -x,1/2+y,1/2-z
3 -x,-y,-z
4 x,1/2-y,1/2+z
_cell_length_a                   15.204(5)
_cell_length_b                   11.261(4)
_cell_length_c                   11.977(4)
_cell_angle_alpha                90
_cell_angle_beta                 99.928(8)
_cell_angle_gamma                90
_cell_volume                     2019.9
_exptl_crystal_colour            colorless
_exptl_crystal_description       prismatic
_cell_formula_units_Z            4
loop_
_atom_site_label
_atom_site_type_symbol
_atom_site_fract_x
_atom_site_fract_y
_atom_site_fract_z
N1 N 0.29415(8) 0.47047(11) 0.12882(11)
C1 C 0.31083(10) 0.51688(12) 0.02607(13)
C2 C 0.38971(11) 0.55878(14) -0.00170(14)
H1 H 0.4422 0.5586 0.0513
C3 C 0.38861(12) 0.60103(15) -0.11065(15)
H2 H 0.4410 0.6304 -0.1304
C4 C 0.31164(12) 0.60033(15) -0.19004(14)
H3 H 0.3125 0.6286 -0.2628
C5 C 0.23303(11) 0.55772(13) -0.16190(14)
H4 H 0.1809 0.5565 -0.2155
C6 C 0.23285(10) 0.51727(12) -0.05394(13)
C7 C 0.15663(10) 0.47207(12) 0.00118(13)
H5 H 0.1247 0.5404 0.0255
C8 C 0.20684(10) 0.40912(12) 0.10664(13)
H6 H 0.1754 0.4221 0.1705
C9 C 0.36191(10) 0.42183(14) 0.21184(12)
C10 C 0.43032(11) 0.49388(16) 0.26673(14)
H7 H 0.4324 0.5735 0.2468
C11 C 0.49472(12) 0.44828(18) 0.35008(15)
H8 H 0.5407 0.4966 0.3858
C12 C 0.49116(13) 0.33098(19) 0.38077(16)
H9 H 0.5349 0.2997 0.4370
C13 C 0.42292(12) 0.26032(17) 0.32819(15)
H10 H 0.4205 0.1814 0.3504
C14 C 0.35737(11) 0.30351(14) 0.24273(13)
C15 C 0.28270(11) 0.22324(14) 0.18812(14)
H11 H 0.3086 0.1526 0.1607
H12 H 0.2486 0.1985 0.2455
C16 C 0.21990(10) 0.27824(13) 0.09144(13)
C17 C 0.17436(9) 0.21684(13) 0.00464(12)
C18 C 0.10522(9) 0.27399(13) -0.08062(12)
C19 C 0.09152(9) 0.39676(13) -0.07642(13)
C20 C 0.02204(10) 0.44871(14) -0.14925(14)
H13 H 0.0117 0.5297 -0.1435
C21 C -0.03243(11) 0.38305(15) -0.23042(15)
H14 H -0.0792 0.4192 -0.2788
C22 C -0.01684(11) 0.26388(15) -0.23894(15)
H15 H -0.0518 0.2192 -0.2951
C23 C 0.05051(11) 0.21002(14) -0.16441(14)
H16 H 0.0596 0.1288 -0.1703
C24 C 0.18656(10) 0.08577(13) -0.00302(12)
C25 C 0.12960(11) 0.00800(14) 0.03792(14)
H17 H 0.0822 0.0375 0.0694
C26 C 0.14212(13) -0.11303(15) 0.03272(15)
H18 H 0.1034 -0.1645 0.0609
C27 C 0.21134(13) -0.15753(15) -0.01379(15)
H19 H 0.2197 -0.2392 -0.0173
C28 C 0.26799(12) -0.08187(16) -0.05504(16)
H20 H 0.3149 -0.1120 -0.0870
C29 C 0.25599(11) 0.03903(14) -0.04962(15)
H21 H 0.2952 0.0899 -0.0777
loop_
_geom_bond_atom_site_label_1
_geom_bond_atom_site_label_2
_geom_bond_site_symmetry_1
_geom_bond_site_symmetry_2
N1 C1 1_555 1_555
C1 C2 1_555 1_555
C2 H1 1_555 1_555
C3 C2 1_555 1_555
H2 C3 1_555 1_555
C4 C3 1_555 1_555
H3 C4 1_555 1_555
C5 C4 1_555 1_555
H4 C5 1_555 1_555
C6 C1 1_555 1_555
C7 C6 1_555 1_555
H5 C7 1_555 1_555
C8 N1 1_555 1_555
H6 C8 1_555 1_555
C9 N1 1_555 1_555
C10 C9 1_555 1_555
H7 C10 1_555 1_555
C11 C10 1_555 1_555
H8 C11 1_555 1_555
C12 C11 1_555 1_555
H9 C12 1_555 1_555
C13 C12 1_555 1_555
H10 C13 1_555 1_555
C14 C9 1_555 1_555
C15 C14 1_555 1_555
H11 C15 1_555 1_555
H12 C15 1_555 1_555
C16 C8 1_555 1_555
C17 C16 1_555 1_555
C18 C17 1_555 1_555
C19 C7 1_555 1_555
C20 C19 1_555 1_555
H13 C20 1_555 1_555
C21 C20 1_555 1_555
H14 C21 1_555 1_555
C22 C21 1_555 1_555
H15 C22 1_555 1_555
C23 C18 1_555 1_555
H16 C23 1_555 1_555
C24 C17 1_555 1_555
C25 C24 1_555 1_555
H17 C25 1_555 1_555
C26 C25 1_555 1_555
H18 C26 1_555 1_555
C27 C26 1_555 1_555
H19 C27 1_555 1_555
C28 C27 1_555 1_555
H20 C28 1_555 1_555
C29 C24 1_555 1_555
H21 C29 1_555 1_555
C5 C6 1_555 1_555
C7 C8 1_555 1_555
C13 C14 1_555 1_555
C15 C16 1_555 1_555
C18 C19 1_555 1_555
C22 C23 1_555 1_555
C28 C29 1_555 1_555

#END
