
#######################################################################
#
#                 Cambridge Crystallographic Data Centre
#                                CCDC 
#
#######################################################################
#
# If this CIF has been generated from an entry in the Cambridge 
# Structural Database, then it will include bibliographic, chemical, 
# crystal, experimental, refinement or atomic coordinate data resulting 
# from the CCDC's data processing and validation procedures.
#
#######################################################################

data_SEHGIY
_chemical_formula_moiety         'C48 H40 N4 4+,4(F6 P1 1-),6(C2 H3 N1)'
_chemical_name_systematic        
'9,18,29,38-tetraazonianonacyclo[36.2.2.2^2,5^.2^6,9^.2^18,21^.2^22,25^.2^26,29^.0^11,16^.0^31,36^]dopentaconta-1(40),2,4,6,8,11,13,15,18,20,22,24,26,28,31,33,35,38,41,43,45,47,49,51-tetracosaene tetrakis(hexafluorophosphate) acetonitrile unknown solvate'
_symmetry_cell_setting           triclinic
_symmetry_space_group_name_H-M   'P -1'
_symmetry_Int_Tables_number      2
_space_group_name_Hall           '-P 1'
loop_
_symmetry_equiv_pos_site_id
_symmetry_equiv_pos_as_xyz
1 x,y,z
2 -x,-y,-z
_cell_length_a                   7.3123(2)
_cell_length_b                   12.9010(3)
_cell_length_c                   19.3466(5)
_cell_angle_alpha                88.7203(15)
_cell_angle_beta                 89.3061(17)
_cell_angle_gamma                88.8464(16)
_cell_volume                     1824.13
_exptl_crystal_colour            colorless
_exptl_crystal_description       platelet
_cell_formula_units_Z            1
loop_
_atom_site_label
_atom_site_type_symbol
_atom_site_fract_x
_atom_site_fract_y
_atom_site_fract_z
N1 N 0.7790(3) 0.11273(15) 0.20884(10)
N2 N 0.5070(3) 0.08237(15) 0.78608(10)
C1 C 0.7921(4) 0.1097(2) 0.13145(12)
H1 H 0.8626 0.0469 0.1180
H2 H 0.8593 0.1710 0.1140
C2 C 0.8609(3) 0.03866(19) 0.24855(12)
H3 H 0.9318 -0.0145 0.2272
C3 C 0.8438(3) 0.03860(19) 0.31894(12)
H4 H 0.9023 -0.0145 0.3459
C4 C 0.7404(3) 0.11658(18) 0.35173(12)
C5 C 0.6634(4) 0.19386(19) 0.30931(12)
H5 H 0.5954 0.2492 0.3294
C6 C 0.6847(4) 0.19105(19) 0.23878(13)
H6 H 0.6324 0.2449 0.2107
C7 C 0.7118(3) 0.11443(18) 0.42743(12)
C8 C 0.7552(3) 0.02546(19) 0.46728(12)
H7 H 0.8097 -0.0330 0.4456
C9 C 0.7197(3) 0.02129(19) 0.53789(12)
H8 H 0.7495 -0.0401 0.5637
C10 C 0.6411(3) 0.10582(18) 0.57136(11)
C11 C 0.6008(4) 0.19513(19) 0.53207(12)
H9 H 0.5486 0.2540 0.5540
C12 C 0.6354(4) 0.19926(19) 0.46201(13)
H10 H 0.6068 0.2612 0.4365
C13 C 0.5986(3) 0.09888(17) 0.64657(12)
C14 C 0.6610(3) 0.01584(18) 0.68817(12)
H11 H 0.7366 -0.0368 0.6686
C15 C 0.6140(3) 0.00949(18) 0.75727(12)
H12 H 0.6581 -0.0473 0.7848
C16 C 0.4476(3) 0.16527(19) 0.74789(13)
H13 H 0.3747 0.2177 0.7692
C17 C 0.4909(3) 0.17458(18) 0.67922(12)
H14 H 0.4473 0.2332 0.6533
C18 C 0.4526(4) 0.07764(19) 0.86178(12)
H15 H 0.5096 0.1359 0.8854
H16 H 0.3183 0.0873 0.8657
C19 C 0.5068(4) -0.02231(19) 0.89861(12)
C20 C 0.3930(4) -0.10890(19) 0.90155(12)
C21 C 0.4517(4) -0.1973(2) 0.93842(12)
H17 H 0.3758 -0.2561 0.9410
C22 C 0.6185(4) -0.2007(2) 0.97135(13)
H18 H 0.6567 -0.2617 0.9960
C23 C 0.7293(4) -0.1157(2) 0.96842(13)
H19 H 0.8443 -0.1179 0.9908
C24 C 0.6720(4) -0.0268(2) 0.93268(12)
H20 H 0.7477 0.0322 0.9316
N1A N 0.2210(3) -0.11273(15) 0.79116(10)
N2A N 0.4930(3) -0.08237(15) 0.21392(10)
C1A C 0.2079(4) -0.1097(2) 0.86855(12)
H1A H 0.1374 -0.0469 0.8820
H2A H 0.1407 -0.1710 0.8860
C2A C 0.1391(3) -0.03866(19) 0.75145(12)
H3A H 0.0682 0.0145 0.7728
C3A C 0.1562(3) -0.03860(19) 0.68106(12)
H4A H 0.0977 0.0145 0.6541
C4A C 0.2596(3) -0.11658(18) 0.64827(12)
C5A C 0.3366(4) -0.19386(19) 0.69069(12)
H5A H 0.4046 -0.2492 0.6706
C6A C 0.3153(4) -0.19105(19) 0.76122(13)
H6A H 0.3676 -0.2449 0.7893
C7A C 0.2882(3) -0.11443(18) 0.57257(12)
C8A C 0.2448(3) -0.02546(19) 0.53272(12)
H7A H 0.1903 0.0330 0.5544
C9A C 0.2803(3) -0.02129(19) 0.46211(12)
H8A H 0.2505 0.0401 0.4363
C10A C 0.3589(3) -0.10582(18) 0.42864(11)
C11A C 0.3992(4) -0.19513(19) 0.46793(12)
H9A H 0.4514 -0.2540 0.4460
C12A C 0.3646(4) -0.19926(19) 0.53799(13)
H10A H 0.3932 -0.2612 0.5635
C13A C 0.4014(3) -0.09888(17) 0.35343(12)
C14A C 0.3390(3) -0.01584(18) 0.31183(12)
H11A H 0.2634 0.0368 0.3314
C15A C 0.3860(3) -0.00949(18) 0.24273(12)
H12A H 0.3419 0.0473 0.2152
C16A C 0.5524(3) -0.16527(19) 0.25211(13)
H13A H 0.6253 -0.2177 0.2308
C17A C 0.5091(3) -0.17458(18) 0.32078(12)
H14A H 0.5527 -0.2332 0.3467
C18A C 0.5474(4) -0.07764(19) 0.13822(12)
H15A H 0.4904 -0.1359 0.1146
H16A H 0.6817 -0.0873 0.1343
C19A C 0.4932(4) 0.02231(19) 0.10139(12)
C20A C 0.6070(4) 0.10890(19) 0.09845(12)
C21A C 0.5483(4) 0.1973(2) 0.06158(12)
H17A H 0.6242 0.2561 0.0590
C22A C 0.3815(4) 0.2007(2) 0.02865(13)
H18A H 0.3433 0.2617 0.0040
C23A C 0.2707(4) 0.1157(2) 0.03158(13)
H19A H 0.1557 0.1179 0.0092
C24A C 0.3280(4) 0.0268(2) 0.06732(12)
H20A H 0.2523 -0.0322 0.0684
P1 P 0.94938(9) 0.25198(5) 0.86274(4)
F1 F 0.9110(3) 0.37169(14) 0.85186(11)
F2 F 0.9918(3) 0.12991(13) 0.87437(12)
F3 F 0.8738(18) 0.2570(6) 0.9364(3)
F4 F 0.7622(10) 0.2352(8) 0.8270(6)
F5 F 1.0455(11) 0.2433(7) 0.7874(3)
F6 F 1.1584(8) 0.2672(3) 0.8880(5)
P2 P 0.3933(2) 0.49639(10) 0.66770(12)
F11 F 0.2318(11) 0.5586(8) 0.6315(4)
F12 F 0.5494(9) 0.4346(9) 0.7062(4)
F13 F 0.3845(7) 0.5775(3) 0.72870(18)
F14 F 0.2552(6) 0.4269(4) 0.7102(2)
F15 F 0.4047(11) 0.4165(4) 0.6076(2)
F16 F 0.5329(13) 0.5664(7) 0.6259(5)
N3 N 0.1597(4) 0.2102(2) 0.38512(14)
C25 C 0.1341(4) 0.2803(2) 0.41924(14)
C26 C 0.1001(5) 0.3689(3) 0.46215(17)
H21 H 0.2168 0.3963 0.4772
H22 H 0.0272 0.3479 0.5027
H23 H 0.0331 0.4227 0.4357
N4 N 0.1841(4) 0.2059(2) 0.20223(14)
C27 C 0.1596(4) 0.2896(2) 0.21795(16)
C28 C 0.1203(5) 0.3947(3) 0.2418(2)
H24 H 0.1923 0.4443 0.2144
H25 H 0.1526 0.3990 0.2907
H26 H -0.0102 0.4110 0.2364
C31 C 1.0014(10) 0.2645(6) 0.6261(7)
N6 N 1.0819(14) 0.1923(5) 0.6092(5)
C32 C 0.8957(10) 0.3545(5) 0.6483(7)
H30 H 0.9162 0.4126 0.6158
H31 H 0.9341 0.3735 0.6946
H32 H 0.7654 0.3381 0.6494
F7? F 1.0778(10) 0.2819(4) 0.9250(3)
F8? F 0.7851(8) 0.2401(5) 0.9202(3)
F9? F 0.8007(10) 0.2187(8) 0.8106(4)
F10? F 1.1049(9) 0.2613(6) 0.8088(5)
P3? P 0.4240(2) 0.49395(11) 0.62217(12)
F17? F 0.2593(8) 0.5502(5) 0.6610(4)
F18? F 0.5911(5) 0.4408(3) 0.5822(2)
F19? F 0.4876(15) 0.4409(9) 0.6927(4)
F20? F 0.3057(7) 0.3951(4) 0.6071(3)
F21? F 0.3604(6) 0.5482(3) 0.5521(2)
F22? F 0.5467(9) 0.5897(5) 0.6376(5)
N5? N 1.0269(17) 0.1956(10) 0.6308(7)
C29? C 0.9844(16) 0.2707(10) 0.6536(8)
C30? C 0.9303(17) 0.3719(10) 0.6819(7)
H27? H 0.9477 0.3703 0.7320
H28? H 0.8013 0.3867 0.6718
H29? H 1.0059 0.4261 0.6607
loop_
_geom_bond_atom_site_label_1
_geom_bond_atom_site_label_2
_geom_bond_site_symmetry_1
_geom_bond_site_symmetry_2
N1 C1 1_555 1_555
N2 C15 1_555 1_555
C1 H1 1_555 1_555
H2 C1 1_555 1_555
C2 N1 1_555 1_555
H3 C2 1_555 1_555
C3 C2 1_555 1_555
H4 C3 1_555 1_555
C4 C3 1_555 1_555
C5 C4 1_555 1_555
H5 C5 1_555 1_555
C6 N1 1_555 1_555
H6 C6 1_555 1_555
C7 C4 1_555 1_555
C8 C7 1_555 1_555
H7 C8 1_555 1_555
C9 C8 1_555 1_555
H8 C9 1_555 1_555
C10 C9 1_555 1_555
C11 C10 1_555 1_555
H9 C11 1_555 1_555
C12 C7 1_555 1_555
H10 C12 1_555 1_555
C13 C10 1_555 1_555
C14 C13 1_555 1_555
H11 C14 1_555 1_555
C15 C14 1_555 1_555
H12 C15 1_555 1_555
C16 N2 1_555 1_555
H13 C16 1_555 1_555
C17 C13 1_555 1_555
H14 C17 1_555 1_555
C18 N2 1_555 1_555
H15 C18 1_555 1_555
H16 C18 1_555 1_555
C19 C18 1_555 1_555
C20 C19 1_555 1_555
C21 C20 1_555 1_555
H17 C21 1_555 1_555
C22 C21 1_555 1_555
H18 C22 1_555 1_555
C23 C22 1_555 1_555
H19 C23 1_555 1_555
C24 C19 1_555 1_555
H20 C24 1_555 1_555
P1 F1 1_555 1_555
F2 P1 1_555 1_555
F3 P1 1_555 1_555
F4 P1 1_555 1_555
F5 P1 1_555 1_555
F6 P1 1_555 1_555
P2 F11 1_555 1_555
F12 P2 1_555 1_555
F13 P2 1_555 1_555
F14 P2 1_555 1_555
F15 P2 1_555 1_555
F16 P2 1_555 1_555
N3 C25 1_555 1_555
C25 C26 1_555 1_555
C26 H21 1_555 1_555
H22 C26 1_555 1_555
H23 C26 1_555 1_555
N4 C27 1_555 1_555
C27 C28 1_555 1_555
C28 H24 1_555 1_555
H25 C28 1_555 1_555
H26 C28 1_555 1_555
C31 N6 1_555 1_555
C32 C31 1_555 1_555
H30 C32 1_555 1_555
H31 C32 1_555 1_555
H32 C32 1_555 1_555
N1A C1A 1_555 1_555
N2A C15A 1_555 1_555
C1A C20 1_555 1_555
H1A C1A 1_555 1_555
H2A C1A 1_555 1_555
C2A N1A 1_555 1_555
H3A C2A 1_555 1_555
C3A C2A 1_555 1_555
H4A C3A 1_555 1_555
C4A C3A 1_555 1_555
C5A C4A 1_555 1_555
H5A C5A 1_555 1_555
C6A N1A 1_555 1_555
H6A C6A 1_555 1_555
C7A C4A 1_555 1_555
C8A C7A 1_555 1_555
H7A C8A 1_555 1_555
C9A C8A 1_555 1_555
H8A C9A 1_555 1_555
C10A C9A 1_555 1_555
C11A C10A 1_555 1_555
H9A C11A 1_555 1_555
C12A C7A 1_555 1_555
H10A C12A 1_555 1_555
C13A C10A 1_555 1_555
C14A C13A 1_555 1_555
H11A C14A 1_555 1_555
C15A C14A 1_555 1_555
H12A C15A 1_555 1_555
C16A N2A 1_555 1_555
H13A C16A 1_555 1_555
C17A C13A 1_555 1_555
H14A C17A 1_555 1_555
C18A N2A 1_555 1_555
H15A C18A 1_555 1_555
H16A C18A 1_555 1_555
C19A C18A 1_555 1_555
C20A C1 1_555 1_555
C21A C20A 1_555 1_555
H17A C21A 1_555 1_555
C22A C21A 1_555 1_555
H18A C22A 1_555 1_555
C23A C22A 1_555 1_555
H19A C23A 1_555 1_555
C24A C19A 1_555 1_555
H20A C24A 1_555 1_555
C5 C6 1_555 1_555
C11 C12 1_555 1_555
C16 C17 1_555 1_555
C23 C24 1_555 1_555
C5A C6A 1_555 1_555
C11A C12A 1_555 1_555
C16A C17A 1_555 1_555
C19A C20A 1_555 1_555
C23A C24A 1_555 1_555

#END
