
#######################################################################
#
#                 Cambridge Crystallographic Data Centre
#                                CCDC 
#
#######################################################################
#
# If this CIF has been generated from an entry in the Cambridge 
# Structural Database, then it will include bibliographic, chemical, 
# crystal, experimental, refinement or atomic coordinate data resulting 
# from the CCDC's data processing and validation procedures.
#
#######################################################################

data_SEHNAW01
_chemical_formula_moiety         'C26 H18'
_chemical_name_systematic        9-(2-(1-Naphthyl)vinyl)anthracene
_symmetry_cell_setting           orthorhombic
_symmetry_space_group_name_H-M   'P 21 21 21'
_symmetry_Int_Tables_number      19
_space_group_name_Hall           'P 2ac 2ab'
loop_
_symmetry_equiv_pos_site_id
_symmetry_equiv_pos_as_xyz
1 x,y,z
2 1/2-x,-y,1/2+z
3 1/2+x,1/2-y,-z
4 -x,1/2+y,1/2-z
_cell_length_a                   5.5771(3)
_cell_length_b                   12.0652(6)
_cell_length_c                   25.9356(12)
_cell_angle_alpha                90
_cell_angle_beta                 90
_cell_angle_gamma                90
_cell_volume                     1745.18
_exptl_crystal_colour            yellow
_exptl_crystal_description       needle
_cell_formula_units_Z            4
loop_
_atom_site_label
_atom_site_type_symbol
_atom_site_fract_x
_atom_site_fract_y
_atom_site_fract_z
C1 C 0.4702(5) 0.8241(2) 0.07418(9)
C2 C -0.0386(6) 0.5026(2) 0.21129(10)
C3 C 0.1333(5) 0.5007(2) 0.17086(10)
C4 C 0.6397(6) 0.9122(2) 0.06955(10)
C5 C 0.6932(6) 0.7578(2) 0.14797(10)
H1 H 0.7155 0.7059 0.1741
C6 C 0.2835(6) 0.8181(2) 0.03780(10)
H2 H 0.1716 0.7613 0.0403
C7 C 0.1363(6) 0.4093(2) 0.13674(10)
C8 C 0.8306(6) 0.9207(2) 0.10478(11)
H3 H 0.9394 0.9787 0.1017
C9 C -0.0448(6) 0.3254(2) 0.14036(11)
C10 C -0.2162(6) 0.3312(2) 0.17924(11)
H4 H -0.3348 0.2772 0.1811
C11 C 0.6117(6) 0.9890(2) 0.02865(11)
H5 H 0.7210 1.0468 0.0253
C12 C 0.5007(5) 0.7459(2) 0.11553(10)
C13 C 0.8582(6) 0.8454(2) 0.14326(11)
H6 H 0.9853 0.8516 0.1663
C14 C 0.3330(6) 0.6527(2) 0.12252(10)
H7 H 0.2404 0.6330 0.0941
C15 C -0.0482(7) 0.5903(2) 0.24866(10)
H8 H 0.0622 0.6479 0.2469
C16 C 0.3010(6) 0.5941(2) 0.16512(10)
H9 H 0.3919 0.6135 0.1938
C17 C -0.2136(6) 0.4165(2) 0.21543(10)
C18 C 0.2624(6) 0.8944(2) -0.00139(10)
H10 H 0.1372 0.8886 -0.0249
C19 C -0.3869(6) 0.4211(3) 0.25585(11)
H11 H -0.5018 0.3656 0.2585
C20 C -0.2165(7) 0.5904(3) 0.28672(11)
H12 H -0.2189 0.6478 0.3107
C21 C 0.4286(7) 0.9805(2) -0.00592(11)
H13 H 0.4143 1.0319 -0.0325
C22 C 0.3222(7) 0.3928(2) 0.09923(11)
H14 H 0.4455 0.4444 0.0964
C23 C -0.3868(7) 0.5047(3) 0.29024(12)
H15 H -0.5001 0.5058 0.3165
C24 C 0.1346(8) 0.2240(3) 0.07029(13)
H16 H 0.1346 0.1638 0.0479
C25 C -0.0428(7) 0.2354(2) 0.10491(12)
H17 H -0.1662 0.1836 0.1057
C26 C 0.3200(8) 0.3025(3) 0.06774(11)
H18 H 0.4436 0.2926 0.0441
loop_
_geom_bond_atom_site_label_1
_geom_bond_atom_site_label_2
_geom_bond_site_symmetry_1
_geom_bond_site_symmetry_2
C1 C4 1_555 1_555
C2 C3 1_555 1_555
C3 C7 1_555 1_555
C4 C8 1_555 1_555
C5 H1 1_555 1_555
C6 C1 1_555 1_555
H2 C6 1_555 1_555
C7 C9 1_555 1_555
C8 H3 1_555 1_555
C9 C10 1_555 1_555
C10 H4 1_555 1_555
C11 C4 1_555 1_555
H5 C11 1_555 1_555
C12 C1 1_555 1_555
C13 C5 1_555 1_555
H6 C13 1_555 1_555
C14 C12 1_555 1_555
H7 C14 1_555 1_555
C15 C2 1_555 1_555
H8 C15 1_555 1_555
C16 C3 1_555 1_555
H9 C16 1_555 1_555
C17 C2 1_555 1_555
C18 C6 1_555 1_555
H10 C18 1_555 1_555
C19 C17 1_555 1_555
H11 C19 1_555 1_555
C20 C15 1_555 1_555
H12 C20 1_555 1_555
C21 C11 1_555 1_555
H13 C21 1_555 1_555
C22 C7 1_555 1_555
H14 C22 1_555 1_555
C23 C19 1_555 1_555
H15 C23 1_555 1_555
C24 H16 1_555 1_555
C25 C9 1_555 1_555
H17 C25 1_555 1_555
C26 C22 1_555 1_555
H18 C26 1_555 1_555
C5 C12 1_555 1_555
C8 C13 1_555 1_555
C10 C17 1_555 1_555
C14 C16 1_555 1_555
C18 C21 1_555 1_555
C20 C23 1_555 1_555
C24 C25 1_555 1_555
C24 C26 1_555 1_555

#END
