
#######################################################################
#
#                 Cambridge Crystallographic Data Centre
#                                CCDC 
#
#######################################################################
#
# If this CIF has been generated from an entry in the Cambridge 
# Structural Database, then it will include bibliographic, chemical, 
# crystal, experimental, refinement or atomic coordinate data resulting 
# from the CCDC's data processing and validation procedures.
#
#######################################################################

data_SEHNAX
_chemical_formula_moiety         'C23 H25 N1 O7'
_chemical_name_systematic        
'methyl 6-(2-methoxy-2-oxoethylidene)-10b-methyl-11-methylidene-1,8-dioxo-2a,3,4,6,7,7a,8,9,10,10b-decahydro-2,4-ethano-5-oxa-2-azanaphtho[2,1,8-cde]azulene-10a(1H)-carboxylate'
_symmetry_cell_setting           triclinic
_symmetry_space_group_name_H-M   'P -1'
_symmetry_Int_Tables_number      2
_space_group_name_Hall           '-P 1'
loop_
_symmetry_equiv_pos_site_id
_symmetry_equiv_pos_as_xyz
1 x,y,z
2 -x,-y,-z
_cell_length_a                   7.3678(12)
_cell_length_b                   9.1093(17)
_cell_length_c                   16.6829(14)
_cell_angle_alpha                102.202(7)
_cell_angle_beta                 92.440(8)
_cell_angle_gamma                110.552(10)
_cell_volume                     1016.36
_exptl_crystal_colour            yellow
_exptl_crystal_description       block
_cell_formula_units_Z            2
loop_
_atom_site_label
_atom_site_type_symbol
_atom_site_fract_x
_atom_site_fract_y
_atom_site_fract_z
C1 C 0.7860(2) 1.14570(18) 0.53175(9)
H1 H 0.7013 1.1049 0.5706
H2 H 0.7852 1.2497 0.5289
H3 H 0.9165 1.1558 0.5493
C2 C 0.70112(18) 0.88174(16) 0.44684(8)
C3 C 0.63847(18) 0.78805(16) 0.36135(8)
H4 H 0.6214 0.8430 0.3223
C4 C 0.60351(18) 0.63106(16) 0.33407(8)
C5 C 0.6130(2) 0.51039(16) 0.38082(8)
H5 H 0.6124 0.5523 0.4393
H6 H 0.7331 0.4906 0.3739
C6 C 0.43726(18) 0.35269(15) 0.34860(7)
H7 H 0.4541 0.2707 0.3747
C7 C 0.43045(17) 0.29585(15) 0.25576(7)
C8 C 0.49191(18) 0.40944(16) 0.21343(7)
C9 C 0.50737(19) 0.38333(16) 0.12199(8)
H8 H 0.6223 0.4701 0.1126
C10 C 0.5334(2) 0.22184(17) 0.09407(8)
H9 H 0.5325 0.1946 0.0346
H10 H 0.6568 0.2277 0.1202
C11 C 0.36399(19) 0.09524(16) 0.11957(8)
H11 H 0.3603 -0.0131 0.0938
C12 C 0.1744(2) 0.21250(17) 0.03826(8)
H12 H 0.0454 0.2174 0.0314
H13 H 0.2031 0.1672 -0.0155
C13 C 0.3247(2) 0.38035(17) 0.07343(7)
C14 C 0.04708(19) 0.07317(15) 0.14760(8)
C15 C 0.13999(18) 0.02832(15) 0.21876(7)
C16 C 0.36467(18) 0.11650(15) 0.21402(7)
C17 C 0.49667(19) 0.04173(17) 0.24924(8)
H14 H 0.6300 0.0997 0.2431
H15 H 0.4586 -0.0693 0.2199
H16 H 0.4842 0.0479 0.3068
C18 C 0.08870(19) -0.15482(16) 0.19564(8)
C19 C 0.0646(2) -0.38272(17) 0.24710(10)
H17 H -0.0636 -0.4437 0.2174
H18 H 0.0734 -0.4116 0.2989
H19 H 0.1604 -0.4062 0.2149
C20 C 0.05891(19) 0.07400(16) 0.30013(8)
H20 H -0.0747 -0.0010 0.2955
H21 H 0.1336 0.0569 0.3442
C21 C 0.0592(2) 0.24483(17) 0.32671(8)
H22 H 0.0219 0.2748 0.2779
H23 H -0.0408 0.2430 0.3629
C22 C 0.2477(2) 0.37425(16) 0.37022(8)
N1 N 0.17860(16) 0.11044(13) 0.09460(6)
O1 O 0.71819(15) 1.03562(11) 0.45124(6)
O2 O 0.73508(16) 0.83542(12) 0.50660(6)
O3 O 0.55169(14) 0.57376(11) 0.24970(5)
O4 O -0.11681(14) 0.07717(13) 0.14217(6)
O5 O 0.04681(18) -0.23800(12) 0.12654(6)
O6 O 0.10014(14) -0.21252(11) 0.26230(6)
C23 C 0.3013(2) 0.5125(2) 0.06275(9)
O7 O 0.24890(16) 0.49380(12) 0.41891(6)
H24 H 0.404(3) 0.619(2) 0.0845(10)
H25 H 0.183(3) 0.507(2) 0.0331(11)
loop_
_geom_bond_atom_site_label_1
_geom_bond_atom_site_label_2
_geom_bond_site_symmetry_1
_geom_bond_site_symmetry_2
C1 H1 1_555 1_555
H2 C1 1_555 1_555
H3 C1 1_555 1_555
C2 C3 1_555 1_555
C3 H4 1_555 1_555
C4 C3 1_555 1_555
C5 C4 1_555 1_555
H5 C5 1_555 1_555
H6 C5 1_555 1_555
C6 C5 1_555 1_555
H7 C6 1_555 1_555
C7 C6 1_555 1_555
C8 C7 1_555 1_555
C9 C8 1_555 1_555
H8 C9 1_555 1_555
C10 C9 1_555 1_555
H9 C10 1_555 1_555
H10 C10 1_555 1_555
C11 C10 1_555 1_555
H11 C11 1_555 1_555
C12 H12 1_555 1_555
H13 C12 1_555 1_555
C13 C9 1_555 1_555
C14 C15 1_555 1_555
C15 C16 1_555 1_555
C16 C7 1_555 1_555
C17 C16 1_555 1_555
H14 C17 1_555 1_555
H15 C17 1_555 1_555
H16 C17 1_555 1_555
C18 C15 1_555 1_555
C19 H17 1_555 1_555
H18 C19 1_555 1_555
H19 C19 1_555 1_555
C20 C15 1_555 1_555
H20 C20 1_555 1_555
H21 C20 1_555 1_555
C21 C20 1_555 1_555
H22 C21 1_555 1_555
H23 C21 1_555 1_555
C22 C6 1_555 1_555
N1 C11 1_555 1_555
O1 C1 1_555 1_555
O2 C2 1_555 1_555
O3 C4 1_555 1_555
O4 C14 1_555 1_555
O5 C18 1_555 1_555
O6 C18 1_555 1_555
C23 C13 1_555 1_555
O7 C22 1_555 1_555
H24 C23 1_555 1_555
H25 C23 1_555 1_555
C2 O1 1_555 1_555
C8 O3 1_555 1_555
C11 C16 1_555 1_555
C12 C13 1_555 1_555
C12 N1 1_555 1_555
C14 N1 1_555 1_555
C19 O6 1_555 1_555
C21 C22 1_555 1_555

#END
