
#######################################################################
#
#                 Cambridge Crystallographic Data Centre
#                                CCDC 
#
#######################################################################
#
# If this CIF has been generated from an entry in the Cambridge 
# Structural Database, then it will include bibliographic, chemical, 
# crystal, experimental, refinement or atomic coordinate data resulting 
# from the CCDC's data processing and validation procedures.
#
#######################################################################

data_SEHWIM
_chemical_formula_moiety         'C26 H22 B1 N1 O3,C5 H5 N1'
_chemical_name_systematic        
'(2-Methoxyphenyl)(2,6-bis(2-hydroxy-5-methylphenyl)pyridyl)boron pyridine solvate'
_symmetry_cell_setting           monoclinic
_symmetry_space_group_name_H-M   'P 21/n'
_symmetry_Int_Tables_number      14
_space_group_name_Hall           '-P 2yn'
loop_
_symmetry_equiv_pos_site_id
_symmetry_equiv_pos_as_xyz
1 x,y,z
2 1/2-x,1/2+y,1/2-z
3 -x,-y,-z
4 1/2+x,1/2-y,1/2+z
_cell_length_a                   7.6260(15)
_cell_length_b                   25.956(5)
_cell_length_c                   13.249(3)
_cell_angle_alpha                90
_cell_angle_beta                 104.34(3)
_cell_angle_gamma                90
_cell_volume                     2540.8
_exptl_crystal_colour            yellow
_exptl_crystal_description       block
_cell_formula_units_Z            4
_chemical_properties_physical    light-sensitive
_exptl_crystal_recrystallization_method 'diethyl ether/pyridine'
_exptl_crystal_preparation       luminescent
loop_
_atom_site_label
_atom_site_type_symbol
_atom_site_fract_x
_atom_site_fract_y
_atom_site_fract_z
B1 B 0.7176(4) 0.07203(11) 0.8076(2)
O1 O 0.8394(2) 0.03685(6) 0.76948(13)
O2 O 0.7925(2) 0.12348(6) 0.80272(13)
O3 O 0.4060(2) 0.12347(7) 0.84820(15)
N1 N 0.7371(2) 0.05724(8) 0.92814(15)
C1 C 0.8179(3) -0.01412(10) 0.7857(2)
C2 C 0.8600(4) -0.05024(11) 0.7165(2)
H1 H 0.9036 -0.0392 0.6604
C3 C 0.8365(4) -0.10217(12) 0.7318(3)
H2 H 0.8655 -0.1257 0.6855
C4 C 0.7708(4) -0.12047(11) 0.8141(2)
C5 C 0.7326(4) -0.08447(10) 0.8828(2)
H3 H 0.6893 -0.0959 0.9386
C6 C 0.7569(3) -0.03125(9) 0.8714(2)
C7 C 0.7388(3) 0.00578(10) 0.9526(2)
C8 C 0.7354(4) -0.00891(11) 1.0523(2)
H4 H 0.7359 -0.0437 1.0690
C9 C 0.7312(4) 0.02756(11) 1.1272(2)
H5 H 0.7231 0.0175 1.1933
C10 C 0.7389(3) 0.07897(10) 1.1035(2)
H6 H 0.7402 0.1038 1.1543
C11 C 0.7449(3) 0.09404(9) 1.0034(2)
C12 C 0.7693(3) 0.14768(9) 0.9751(2)
C13 C 0.7774(4) 0.18809(10) 1.0470(2)
H7 H 0.7573 0.1806 1.1118
C14 C 0.8141(4) 0.23840(10) 1.0251(3)
C15 C 0.8428(4) 0.24872(10) 0.9276(3)
H8 H 0.8687 0.2822 0.9112
C16 C 0.8337(4) 0.21026(10) 0.8546(2)
H9 H 0.8527 0.2183 0.7897
C17 C 0.7965(3) 0.15973(10) 0.8767(2)
C18 C 0.5104(3) 0.06643(9) 0.73861(19)
C19 C 0.4672(4) 0.03536(10) 0.6488(2)
H10 H 0.5596 0.0167 0.6313
C20 C 0.2932(4) 0.03121(12) 0.5851(2)
H11 H 0.2710 0.0103 0.5263
C21 C 0.1536(4) 0.05813(12) 0.6095(3)
H12 H 0.0367 0.0553 0.5674
C22 C 0.1874(4) 0.08952(11) 0.6971(2)
H13 H 0.0939 0.1078 0.7141
C23 C 0.3629(4) 0.09317(9) 0.7588(2)
C24 C 0.7401(5) -0.17726(10) 0.8288(3)
H14 H 0.6945 -0.1821 0.8894
H15 H 0.8525 -0.1955 0.8375
H16 H 0.6540 -0.1903 0.7686
C25 C 0.8280(5) 0.28037(11) 1.1071(3)
H17 H 0.8042 0.2658 1.1690
H18 H 0.7410 0.3069 1.0807
H19 H 0.9476 0.2948 1.1233
C26 C 0.2758(4) 0.15927(11) 0.8660(3)
H20 H 0.3242 0.1772 0.9302
H21 H 0.1680 0.1412 0.8702
H22 H 0.2473 0.1836 0.8096
N2 N 0.7491(5) 0.15530(14) 0.3284(3)
C27 C 0.8327(6) 0.19023(16) 0.3943(4)
H23 H 0.8967 0.2157 0.3691
C28 C 0.8326(7) 0.1919(2) 0.4967(5)
H24 H 0.8936 0.2178 0.5401
C29 C 0.7394(8) 0.1542(3) 0.5343(4)
H25 H 0.7366 0.1534 0.6041
C30 C 0.6516(6) 0.11826(17) 0.4661(4)
H26 H 0.5856 0.0924 0.4883
C31 C 0.6606(5) 0.12026(16) 0.3660(3)
H27 H 0.5997 0.0950 0.3208
loop_
_geom_bond_atom_site_label_1
_geom_bond_atom_site_label_2
_geom_bond_site_symmetry_1
_geom_bond_site_symmetry_2
B1 O1 1_555 1_555
O1 C1 1_555 1_555
O2 B1 1_555 1_555
O3 C23 1_555 1_555
N1 B1 1_555 1_555
N2 C27 1_555 1_555
C1 C2 1_555 1_555
C2 H1 1_555 1_555
C3 C2 1_555 1_555
H2 C3 1_555 1_555
C4 C3 1_555 1_555
C5 C4 1_555 1_555
H3 C5 1_555 1_555
C6 C1 1_555 1_555
C7 N1 1_555 1_555
C8 C7 1_555 1_555
H4 C8 1_555 1_555
C9 C8 1_555 1_555
H5 C9 1_555 1_555
C10 C9 1_555 1_555
H6 C10 1_555 1_555
C11 N1 1_555 1_555
C12 C11 1_555 1_555
C13 C12 1_555 1_555
H7 C13 1_555 1_555
C14 C13 1_555 1_555
C15 C14 1_555 1_555
H8 C15 1_555 1_555
C16 C15 1_555 1_555
H9 C16 1_555 1_555
C17 O2 1_555 1_555
C18 B1 1_555 1_555
C19 C18 1_555 1_555
H10 C19 1_555 1_555
C20 C19 1_555 1_555
H11 C20 1_555 1_555
C21 C20 1_555 1_555
H12 C21 1_555 1_555
C22 C21 1_555 1_555
H13 C22 1_555 1_555
C23 C18 1_555 1_555
C24 C4 1_555 1_555
H14 C24 1_555 1_555
H15 C24 1_555 1_555
H16 C24 1_555 1_555
C25 C14 1_555 1_555
H17 C25 1_555 1_555
H18 C25 1_555 1_555
H19 C25 1_555 1_555
C26 O3 1_555 1_555
H20 C26 1_555 1_555
H21 C26 1_555 1_555
H22 C26 1_555 1_555
C27 H23 1_555 1_555
C28 C27 1_555 1_555
H24 C28 1_555 1_555
C29 C28 1_555 1_555
H25 C29 1_555 1_555
C30 C29 1_555 1_555
H26 C30 1_555 1_555
C31 N2 1_555 1_555
H27 C31 1_555 1_555
C5 C6 1_555 1_555
C6 C7 1_555 1_555
C10 C11 1_555 1_555
C12 C17 1_555 1_555
C16 C17 1_555 1_555
C22 C23 1_555 1_555
C30 C31 1_555 1_555

#END
