
#######################################################################
#
#                 Cambridge Crystallographic Data Centre
#                                CCDC 
#
#######################################################################
#
# If this CIF has been generated from an entry in the Cambridge 
# Structural Database, then it will include bibliographic, chemical, 
# crystal, experimental, refinement or atomic coordinate data resulting 
# from the CCDC's data processing and validation procedures.
#
#######################################################################

data_SEJBOA
_chemical_formula_moiety         'C14 H12 B1 F2 N3'
_chemical_name_systematic        
5,5-Difluoro-10-methyl-3-(1H-pyrrol-2-yl)-5H-4\l^5^,5\l^5^-dipyrrolo[1,2-c:2',1'-f][1,3,2]diazaborinine
_symmetry_cell_setting           monoclinic
_symmetry_space_group_name_H-M   'P 21/c'
_symmetry_Int_Tables_number      14
_space_group_name_Hall           '-P 2ybc'
loop_
_symmetry_equiv_pos_site_id
_symmetry_equiv_pos_as_xyz
1 x,y,z
2 -x,1/2+y,1/2-z
3 -x,-y,-z
4 x,1/2-y,1/2+z
_cell_length_a                   10.1547(12)
_cell_length_b                   9.1479(11)
_cell_length_c                   14.0759(17)
_cell_angle_alpha                90
_cell_angle_beta                 97.5220(10)
_cell_angle_gamma                90
_cell_volume                     1296.32
_exptl_crystal_colour            purple
_exptl_crystal_description       block
_cell_formula_units_Z            4
loop_
_atom_site_label
_atom_site_type_symbol
_atom_site_fract_x
_atom_site_fract_y
_atom_site_fract_z
B1 B 0.18087(18) 0.17619(18) 0.40934(12)
C1 C -0.0013(2) 0.3075(2) 0.48718(14)
H1 H -0.0275 0.3711 0.4367
F1 F 0.09890(9) 0.16090(12) 0.32261(6)
N1 N 0.09513(14) 0.20461(14) 0.48820(9)
C2 C -0.0546(3) 0.3035(2) 0.57231(16)
H2 H -0.1221 0.3630 0.5893
F2 F 0.26783(11) 0.29069(10) 0.40117(8)
N2 N 0.26024(12) 0.03540(13) 0.43476(8)
C3 C 0.0106(2) 0.1953(2) 0.62730(14)
H3 H -0.0047 0.1682 0.6886
N3 N 0.29231(13) 0.07162(14) 0.21987(9)
H4 H 0.2243 0.1225 0.2299
C4 C 0.10358(18) 0.13359(19) 0.57512(11)
C5 C 0.19457(18) 0.0191(2) 0.59507(11)
C6 C 0.2067(2) -0.0543(3) 0.69206(14)
H5 H 0.2807 -0.1205 0.6983
H6 H 0.1267 -0.1075 0.6980
H7 H 0.2204 0.0186 0.7415
C7 C 0.27033(17) -0.0273(2) 0.52678(12)
C8 C 0.3634(2) -0.1410(2) 0.52938(16)
H8 H 0.3908 -0.2003 0.5819
C9 C 0.4065(2) -0.1499(2) 0.44326(17)
H9 H 0.4678 -0.2170 0.4258
C10 C 0.34200(15) -0.03914(18) 0.38367(12)
C11 C 0.36450(15) -0.01557(16) 0.28658(11)
C12 C 0.46414(17) -0.0762(2) 0.24106(14)
H10 H 0.5286 -0.1414 0.2682
C13 C 0.45154(18) -0.0234(2) 0.14823(14)
H11 H 0.5068 -0.0449 0.1024
C14 C 0.34339(18) 0.06611(18) 0.13628(12)
H12 H 0.3105 0.1149 0.0802
loop_
_geom_bond_atom_site_label_1
_geom_bond_atom_site_label_2
_geom_bond_site_symmetry_1
_geom_bond_site_symmetry_2
B1 F1 1_555 1_555
C1 H1 1_555 1_555
N1 B1 1_555 1_555
C2 C1 1_555 1_555
H2 C2 1_555 1_555
F2 B1 1_555 1_555
N2 B1 1_555 1_555
C3 C2 1_555 1_555
H3 C3 1_555 1_555
N3 H4 1_555 1_555
C4 N1 1_555 1_555
C5 C4 1_555 1_555
C6 C5 1_555 1_555
H5 C6 1_555 1_555
H6 C6 1_555 1_555
H7 C6 1_555 1_555
C7 N2 1_555 1_555
C8 C7 1_555 1_555
H8 C8 1_555 1_555
C9 C8 1_555 1_555
H9 C9 1_555 1_555
C10 N2 1_555 1_555
C11 N3 1_555 1_555
C12 C11 1_555 1_555
H10 C12 1_555 1_555
C13 C12 1_555 1_555
H11 C13 1_555 1_555
C14 N3 1_555 1_555
H12 C14 1_555 1_555
C1 N1 1_555 1_555
C3 C4 1_555 1_555
C5 C7 1_555 1_555
C9 C10 1_555 1_555
C10 C11 1_555 1_555
C13 C14 1_555 1_555

#END
