
#######################################################################
#
#                 Cambridge Crystallographic Data Centre
#                                CCDC 
#
#######################################################################
#
# If this CIF has been generated from an entry in the Cambridge 
# Structural Database, then it will include bibliographic, chemical, 
# crystal, experimental, refinement or atomic coordinate data resulting 
# from the CCDC's data processing and validation procedures.
#
#######################################################################

data_SEJFEU
_chemical_formula_moiety         'C27 H20'
_chemical_name_systematic        
1-(3,4-Diphenylcyclopenta-1,3-dien-1-yl)naphthalene
_symmetry_cell_setting           orthorhombic
_symmetry_space_group_name_H-M   'P c a 21'
_symmetry_Int_Tables_number      29
_space_group_name_Hall           'P 2c -2ac'
loop_
_symmetry_equiv_pos_site_id
_symmetry_equiv_pos_as_xyz
1 x,y,z
2 -x,-y,1/2+z
3 1/2-x,y,1/2+z
4 1/2+x,-y,z
_cell_length_a                   14.060(5)
_cell_length_b                   17.548(6)
_cell_length_c                   7.824(3)
_cell_angle_alpha                90
_cell_angle_beta                 90
_cell_angle_gamma                90
_cell_volume                     1930.38
_exptl_crystal_colour            yellow
_exptl_crystal_description       block
_cell_formula_units_Z            4
loop_
_atom_site_label
_atom_site_type_symbol
_atom_site_fract_x
_atom_site_fract_y
_atom_site_fract_z
C1 C 0.33647(18) 0.33711(17) 0.3001(4)
C2 C 0.3935(2) 0.27859(17) 0.2540(4)
C3 C 0.3359(2) 0.20993(17) 0.2337(4)
H1 H 0.3594 0.1626 0.2005
C4 C 0.2433(2) 0.22477(16) 0.2699(4)
C5 C 0.23608(19) 0.30652(15) 0.3149(4)
H2 H 0.2123 0.3127 0.4304
H3 H 0.1938 0.3329 0.2368
C6 C 0.3582(2) 0.41782(16) 0.3250(4)
C7 C 0.3115(2) 0.4599(2) 0.4485(4)
H4 H 0.2658 0.4364 0.5164
C8 C 0.3310(3) 0.5358(3) 0.4731(6)
H5 H 0.2992 0.5629 0.5577
C9 C 0.3969(3) 0.5714(2) 0.3741(7)
H6 H 0.4105 0.6227 0.3910
C10 C 0.4427(3) 0.5312(2) 0.2499(6)
H7 H 0.4875 0.5555 0.1814
C11 C 0.4235(2) 0.45526(18) 0.2246(5)
H8 H 0.4551 0.4289 0.1385
C12 C 0.4982(2) 0.27582(17) 0.2350(4)
C13 C 0.5578(2) 0.31583(18) 0.3428(5)
H9 H 0.5322 0.3461 0.4288
C14 C 0.6558(3) 0.3112(2) 0.3235(6)
H10 H 0.6956 0.3385 0.3960
C15 C 0.6937(3) 0.2661(3) 0.1973(7)
H11 H 0.7594 0.2627 0.1845
C16 C 0.6356(3) 0.2266(2) 0.0914(6)
H12 H 0.6617 0.1962 0.0061
C17 C 0.5380(2) 0.23111(19) 0.1089(4)
H13 H 0.4988 0.2038 0.0352
C18 C 0.1604(2) 0.17376(18) 0.2572(4)
C19 C 0.1659(2) 0.09469(19) 0.3021(4)
C20 C 0.2453(3) 0.06163(19) 0.3809(4)
H14 H 0.2968 0.0921 0.4103
C21 C 0.2481(3) -0.0149(2) 0.4153(4)
H15 H 0.3016 -0.0359 0.4668
C22 C 0.1711(3) -0.0614(2) 0.3733(5)
H16 H 0.1743 -0.1137 0.3925
C23 C 0.0926(3) -0.0309(2) 0.3054(5)
H17 H 0.0411 -0.0623 0.2810
C24 C 0.0858(3) 0.0475(2) 0.2698(4)
C25 C 0.0034(3) 0.0799(3) 0.2027(5)
H18 H -0.0491 0.0489 0.1831
C26 C -0.0026(3) 0.1552(3) 0.1649(6)
H19 H -0.0590 0.1757 0.1230
C27 C 0.0779(2) 0.2021(2) 0.1901(5)
H20 H 0.0747 0.2533 0.1604
loop_
_geom_bond_atom_site_label_1
_geom_bond_atom_site_label_2
_geom_bond_site_symmetry_1
_geom_bond_site_symmetry_2
C1 C2 1_555 1_555
C2 C3 1_555 1_555
C3 H1 1_555 1_555
C4 C3 1_555 1_555
C5 C1 1_555 1_555
H2 C5 1_555 1_555
H3 C5 1_555 1_555
C6 C1 1_555 1_555
C7 C6 1_555 1_555
H4 C7 1_555 1_555
C8 C7 1_555 1_555
H5 C8 1_555 1_555
C9 C8 1_555 1_555
H6 C9 1_555 1_555
C10 C9 1_555 1_555
H7 C10 1_555 1_555
C11 C6 1_555 1_555
H8 C11 1_555 1_555
C12 C2 1_555 1_555
C13 C12 1_555 1_555
H9 C13 1_555 1_555
C14 C13 1_555 1_555
H10 C14 1_555 1_555
C15 C14 1_555 1_555
H11 C15 1_555 1_555
C16 C15 1_555 1_555
H12 C16 1_555 1_555
C17 C12 1_555 1_555
H13 C17 1_555 1_555
C18 C4 1_555 1_555
C19 C18 1_555 1_555
C20 C19 1_555 1_555
H14 C20 1_555 1_555
C21 C20 1_555 1_555
H15 C21 1_555 1_555
C22 C21 1_555 1_555
H16 C22 1_555 1_555
C23 C22 1_555 1_555
H17 C23 1_555 1_555
C24 C19 1_555 1_555
C25 C24 1_555 1_555
H18 C25 1_555 1_555
C26 C25 1_555 1_555
H19 C26 1_555 1_555
C27 C18 1_555 1_555
H20 C27 1_555 1_555
C4 C5 1_555 1_555
C10 C11 1_555 1_555
C16 C17 1_555 1_555
C23 C24 1_555 1_555
C26 C27 1_555 1_555

#END
