
#######################################################################
#
#                 Cambridge Crystallographic Data Centre
#                                CCDC 
#
#######################################################################
#
# If this CIF has been generated from an entry in the Cambridge 
# Structural Database, then it will include bibliographic, chemical, 
# crystal, experimental, refinement or atomic coordinate data resulting 
# from the CCDC's data processing and validation procedures.
#
#######################################################################

data_SEJGEV
_chemical_formula_moiety         'C19 H54 B3 P3 Si1'
_chemical_name_systematic        
(R)-Methyltris(boryl(t-butyl)methylphosphino)silane
_symmetry_cell_setting           orthorhombic
_symmetry_space_group_name_H-M   'P 21 21 21'
_symmetry_Int_Tables_number      19
_space_group_name_Hall           'P 2ac 2ab'
loop_
_symmetry_equiv_pos_site_id
_symmetry_equiv_pos_as_xyz
1 x,y,z
2 1/2+x,1/2-y,-z
3 -x,1/2+y,1/2-z
4 1/2-x,-y,1/2+z
_cell_length_a                   11.6075(9)
_cell_length_b                   11.6918(9)
_cell_length_c                   21.7115(17)
_cell_angle_alpha                90
_cell_angle_beta                 90
_cell_angle_gamma                90
_cell_volume                     2946.52
_exptl_crystal_colour            colorless
_exptl_crystal_description       block
_cell_formula_units_Z            4
loop_
_atom_site_label
_atom_site_type_symbol
_atom_site_fract_x
_atom_site_fract_y
_atom_site_fract_z
P1 P 0.66551(4) 0.32744(4) 0.42378(2)
P2 P 0.40326(4) 0.71733(4) 0.38490(2)
P3 P 0.80982(3) 0.67230(4) 0.26140(2)
Si1 Si 0.62821(4) 0.56830(4) 0.35790(2)
B1 B 0.53520(18) 0.3561(2) 0.47655(10)
H1 H 0.5345 0.4369 0.4886
H2 H 0.5409 0.3081 0.5134
H3 H 0.4639 0.3379 0.4544
B2 B 0.4683(2) 0.84586(19) 0.34251(15)
H4 H 0.5510 0.8501 0.3512
H5 H 0.4307 0.9162 0.3566
H6 H 0.4564 0.8369 0.2981
B3 B 0.91223(17) 0.54487(18) 0.27144(11)
H7 H 0.9250 0.5310 0.3154
H8 H 0.9859 0.5618 0.2514
H9 H 0.8780 0.4767 0.2526
C1 C 0.70621(15) 0.63824(16) 0.42282(8)
H10 H 0.7885 0.6201 0.4201
H11 H 0.6755 0.6101 0.4620
H12 H 0.6957 0.7213 0.4204
C2 C 0.66286(14) 0.41101(14) 0.35350(8)
H13 H 0.6061 0.3752 0.3255
H14 H 0.7393 0.4034 0.3337
C3 C 0.80109(15) 0.36414(17) 0.46062(9)
H15 H 0.8614 0.3711 0.4293
H16 H 0.8222 0.3040 0.4900
H17 H 0.7928 0.4370 0.4825
C4 C 0.68101(16) 0.17561(15) 0.40016(9)
C5 C 0.58192(18) 0.14524(17) 0.35672(12)
H18 H 0.5856 0.0637 0.3465
H19 H 0.5884 0.1906 0.3189
H20 H 0.5083 0.1620 0.3769
C6 C 0.6742(2) 0.09957(19) 0.45803(11)
H21 H 0.6808 0.0190 0.4460
H22 H 0.6002 0.1120 0.4787
H23 H 0.7372 0.1193 0.4861
C7 C 0.79662(16) 0.15493(17) 0.36809(9)
H24 H 0.7996 0.0761 0.3528
H25 H 0.8595 0.1674 0.3975
H26 H 0.8048 0.2081 0.3335
C8 C 0.46611(14) 0.58055(14) 0.36507(8)
H27 H 0.4322 0.5562 0.3253
H28 H 0.4408 0.5245 0.3965
C9 C 0.42498(19) 0.7313(2) 0.46708(10)
H29 H 0.3997 0.6610 0.4877
H30 H 0.3801 0.7962 0.4825
H31 H 0.5069 0.7441 0.4755
C10 C 0.24549(14) 0.70392(16) 0.37361(8)
C11 C 0.19481(18) 0.60712(17) 0.41240(11)
H32 H 0.1122 0.6003 0.4039
H33 H 0.2064 0.6239 0.4562
H34 H 0.2333 0.5351 0.4020
C12 C 0.22356(16) 0.6812(2) 0.30521(9)
H35 H 0.1404 0.6774 0.2977
H36 H 0.2592 0.6085 0.2934
H37 H 0.2570 0.7433 0.2807
C13 C 0.18801(15) 0.81699(16) 0.39108(9)
H38 H 0.1046 0.8108 0.3848
H39 H 0.2187 0.8785 0.3652
H40 H 0.2039 0.8341 0.4344
C14 C 0.66308(13) 0.63423(14) 0.28108(7)
H41 H 0.6354 0.5807 0.2490
H42 H 0.6161 0.7046 0.2773
C15 C 0.84801(16) 0.79236(16) 0.31011(9)
H43 H 0.7851 0.8482 0.3101
H44 H 0.9183 0.8284 0.2944
H45 H 0.8613 0.7653 0.3522
C16 C 0.80369(15) 0.73234(15) 0.18252(8)
C17 C 0.91959(17) 0.78872(18) 0.16759(10)
H46 H 0.9218 0.8092 0.1238
H47 H 0.9822 0.7352 0.1768
H48 H 0.9288 0.8579 0.1926
C18 C 0.70682(16) 0.82101(17) 0.17655(9)
H49 H 0.7065 0.8523 0.1347
H50 H 0.7195 0.8830 0.2062
H51 H 0.6325 0.7843 0.1850
C19 C 0.78329(18) 0.63324(17) 0.13765(9)
H52 H 0.7775 0.6631 0.0956
H53 H 0.7115 0.5939 0.1485
H54 H 0.8477 0.5793 0.1402
loop_
_geom_bond_atom_site_label_1
_geom_bond_atom_site_label_2
_geom_bond_site_symmetry_1
_geom_bond_site_symmetry_2
P1 B1 1_555 1_555
P2 B2 1_555 1_555
P3 B3 1_555 1_555
Si1 C1 1_555 1_555
B1 H1 1_555 1_555
H2 B1 1_555 1_555
H3 B1 1_555 1_555
B2 H4 1_555 1_555
H5 B2 1_555 1_555
H6 B2 1_555 1_555
B3 H7 1_555 1_555
H8 B3 1_555 1_555
H9 B3 1_555 1_555
C1 H10 1_555 1_555
H11 C1 1_555 1_555
H12 C1 1_555 1_555
C2 P1 1_555 1_555
H13 C2 1_555 1_555
H14 C2 1_555 1_555
C3 P1 1_555 1_555
H15 C3 1_555 1_555
H16 C3 1_555 1_555
H17 C3 1_555 1_555
C4 P1 1_555 1_555
C5 C4 1_555 1_555
H18 C5 1_555 1_555
H19 C5 1_555 1_555
H20 C5 1_555 1_555
C6 C4 1_555 1_555
H21 C6 1_555 1_555
H22 C6 1_555 1_555
H23 C6 1_555 1_555
C7 C4 1_555 1_555
H24 C7 1_555 1_555
H25 C7 1_555 1_555
H26 C7 1_555 1_555
C8 P2 1_555 1_555
H27 C8 1_555 1_555
H28 C8 1_555 1_555
C9 P2 1_555 1_555
H29 C9 1_555 1_555
H30 C9 1_555 1_555
H31 C9 1_555 1_555
C10 P2 1_555 1_555
C11 C10 1_555 1_555
H32 C11 1_555 1_555
H33 C11 1_555 1_555
H34 C11 1_555 1_555
C12 C10 1_555 1_555
H35 C12 1_555 1_555
H36 C12 1_555 1_555
H37 C12 1_555 1_555
C13 C10 1_555 1_555
H38 C13 1_555 1_555
H39 C13 1_555 1_555
H40 C13 1_555 1_555
C14 P3 1_555 1_555
H41 C14 1_555 1_555
H42 C14 1_555 1_555
C15 P3 1_555 1_555
H43 C15 1_555 1_555
H44 C15 1_555 1_555
H45 C15 1_555 1_555
C16 P3 1_555 1_555
C17 C16 1_555 1_555
H46 C17 1_555 1_555
H47 C17 1_555 1_555
H48 C17 1_555 1_555
C18 C16 1_555 1_555
H49 C18 1_555 1_555
H50 C18 1_555 1_555
H51 C18 1_555 1_555
C19 C16 1_555 1_555
H52 C19 1_555 1_555
H53 C19 1_555 1_555
H54 C19 1_555 1_555
Si1 C2 1_555 1_555
Si1 C8 1_555 1_555
Si1 C14 1_555 1_555

#END
