
#######################################################################
#
#                 Cambridge Crystallographic Data Centre
#                                CCDC 
#
#######################################################################
#
# If this CIF has been generated from an entry in the Cambridge 
# Structural Database, then it will include bibliographic, chemical, 
# crystal, experimental, refinement or atomic coordinate data resulting 
# from the CCDC's data processing and validation procedures.
#
#######################################################################

data_SEJGAR
_chemical_formula_moiety         'C14 H18 O2'
_chemical_name_systematic        
'rel-(1S,4R,7R,9S)-Tetracyclo(5.4.1.0^4,12^.0^9,12^)dodec-10-enylacetic acid'
_symmetry_cell_setting           triclinic
_symmetry_space_group_name_H-M   'P -1'
_symmetry_Int_Tables_number      2
_space_group_name_Hall           '-P 1'
loop_
_symmetry_equiv_pos_site_id
_symmetry_equiv_pos_as_xyz
1 x,y,z
2 -x,-y,-z
_cell_length_a                   5.618(4)
_cell_length_b                   7.995(4)
_cell_length_c                   13.428(6)
_cell_angle_alpha                77.85(4)
_cell_angle_beta                 85.55(6)
_cell_angle_gamma                80.46(4)
_cell_volume                     580.896
_exptl_crystal_colour            colorless
_chemical_melting_point          399-401K
_cell_formula_units_Z            2
loop_
_atom_site_label
_atom_site_type_symbol
_atom_site_fract_x
_atom_site_fract_y
_atom_site_fract_z
O1 O 0.5489(3) 0.6584(2) 0.40420(11)
O2 O 0.1972(3) 0.6311(2) 0.48825(12)
C1 C 0.3640(3) 0.9838(2) 0.27865(13)
C2 C 0.5198(4) 1.0752(3) 0.3318(2)
C3 C 0.3332(5) 1.2246(3) 0.3615(2)
C4 C 0.1182(4) 1.2628(2) 0.2886(2)
C5 C 0.0933(6) 1.4462(3) 0.2231(2)
C6 C 0.3092(6) 1.4409(3) 0.1478(2)
C7 C 0.3375(5) 1.2613(3) 0.1242(2)
C8 C 0.1534(5) 1.2307(3) 0.0518(2)
C9 C 0.0960(4) 1.0732(3) 0.13260(15)
C10 C 0.2846(5) 0.9173(3) 0.1249(2)
C11 C 0.4427(4) 0.8777(3) 0.1976(2)
C12 C 0.2110(3) 1.1405(2) 0.21572(13)
C13 C 0.2047(4) 0.8798(3) 0.3597(2)
C14 C 0.3374(4) 0.7121(2) 0.41852(14)
H1 H 0.6536(42) 1.1225(27) 0.2831(16)
H2 H 0.6020(36) 0.9981(24) 0.3930(15)
H3 H 0.4126(42) 1.3234(30) 0.3568(16)
H4 H 0.2727(38) 1.1914(26) 0.4322(16)
H5 H -0.0284(34) 1.2402(22) 0.3300(14)
H6 H 0.0930(41) 1.5393(28) 0.2644(16)
H7 H -0.0580(44) 1.4758(27) 0.1884(17)
H8 H 0.4617(48) 1.4564(29) 0.1850(19)
H9 H 0.2884(48) 1.5328(34) 0.0818(20)
H10 H 0.5061(39) 1.2202(26) 0.1056(15)
H11 H 0.2137(41) 1.2076(27) -0.0179(18)
H12 H 0.0064(39) 1.3164(26) 0.0475(15)
H13 H -0.0823(40) 1.0465(25) 0.1421(15)
H14 H 0.2829(39) 0.8564(27) 0.0686(16)
H15 H 0.5730(36) 0.7904(24) 0.2036(13)
H16 H 0.0725(41) 0.8562(26) 0.3269(16)
H17 H 0.1264(39) 0.9463(27) 0.4113(16)
H18 H 0.2929(52) 0.5290(40) 0.5275(22)
loop_
_geom_bond_atom_site_label_1
_geom_bond_atom_site_label_2
_geom_bond_site_symmetry_1
_geom_bond_site_symmetry_2
O1 C14 1_555 1_555
O2 C14 1_555 1_555
C1 C2 1_555 1_555
C2 C3 1_555 1_555
C3 C4 1_555 1_555
C4 C5 1_555 1_555
C5 C6 1_555 1_555
C6 C7 1_555 1_555
C7 C8 1_555 1_555
C8 C9 1_555 1_555
C9 C10 1_555 1_555
C10 C11 1_555 1_555
C11 C1 1_555 1_555
C12 C1 1_555 1_555
C13 C1 1_555 1_555
C14 C13 1_555 1_555
H1 C2 1_555 1_555
H2 C2 1_555 1_555
H3 C3 1_555 1_555
H4 C3 1_555 1_555
H5 C4 1_555 1_555
H6 C5 1_555 1_555
H7 C5 1_555 1_555
H8 C6 1_555 1_555
H9 C6 1_555 1_555
H10 C7 1_555 1_555
H11 C8 1_555 1_555
H12 C8 1_555 1_555
H13 C9 1_555 1_555
H14 C10 1_555 1_555
H15 C11 1_555 1_555
H16 C13 1_555 1_555
H17 C13 1_555 1_555
H18 O2 1_555 1_555
C4 C12 1_555 1_555
C7 C12 1_555 1_555
C9 C12 1_555 1_555

#END
