
#######################################################################
#
#                 Cambridge Crystallographic Data Centre
#                                CCDC 
#
#######################################################################
#
# If this CIF has been generated from an entry in the Cambridge 
# Structural Database, then it will include bibliographic, chemical, 
# crystal, experimental, refinement or atomic coordinate data resulting 
# from the CCDC's data processing and validation procedures.
#
#######################################################################

data_SEJJUO
_chemical_formula_moiety         'C41 H33 P2 1+,I1 1-'
_chemical_name_systematic        
'Triphenyl(3-(triphenylphosphoranylidene)cyclopenta-1,4-dien-1-yl)phosphonium iodide'
_symmetry_cell_setting           triclinic
_symmetry_space_group_name_H-M   'P -1'
_symmetry_Int_Tables_number      2
_space_group_name_Hall           '-P 1'
loop_
_symmetry_equiv_pos_site_id
_symmetry_equiv_pos_as_xyz
1 x,y,z
2 -x,-y,-z
_cell_length_a                   9.639(10)
_cell_length_b                   10.843(12)
_cell_length_c                   16.575(18)
_cell_angle_alpha                102.184(16)
_cell_angle_beta                 101.811(17)
_cell_angle_gamma                94.941(17)
_cell_volume                     1642.26
_exptl_crystal_colour            brown
_exptl_crystal_description       block
_cell_formula_units_Z            2
loop_
_atom_site_label
_atom_site_type_symbol
_atom_site_fract_x
_atom_site_fract_y
_atom_site_fract_z
I1 I 0.60249(6) 0.00747(5) 0.32945(3)
P1 P 1.03794(19) 0.39808(16) 0.31289(10)
P2 P 0.83331(19) 0.19596(17) -0.03470(10)
C1 C 1.0281(7) 0.3391(6) 0.2062(4)
C2 C 0.9069(7) 0.3113(6) 0.1409(4)
H1 H 0.8152 0.3251 0.1467
C3 C 0.9435(7) 0.2594(6) 0.0648(4)
C4 C 1.0907(8) 0.2553(6) 0.0832(4)
H2 H 1.1449 0.2257 0.0446
C5 C 1.1407(8) 0.3031(7) 0.1691(4)
H3 H 1.2355 0.3103 0.1982
C6 C 1.1689(7) 0.5367(6) 0.3539(4)
C7 C 1.2014(8) 0.6103(7) 0.3008(5)
H4 H 1.1619 0.5844 0.2428
C8 C 1.2933(8) 0.7234(7) 0.3339(5)
H5 H 1.3160 0.7728 0.2977
C9 C 1.3511(9) 0.7635(7) 0.4192(5)
H6 H 1.4110 0.8404 0.4413
C10 C 1.3192(9) 0.6889(8) 0.4706(5)
H7 H 1.3595 0.7150 0.5285
C11 C 1.2288(8) 0.5755(7) 0.4398(4)
H8 H 1.2085 0.5258 0.4763
C12 C 1.0899(7) 0.2840(6) 0.3733(4)
C13 C 1.2154(9) 0.2347(8) 0.3681(5)
H9 H 1.2718 0.2628 0.3345
C14 C 1.2590(10) 0.1450(8) 0.4116(6)
H10 H 1.3435 0.1119 0.4064
C15 C 1.1800(11) 0.1048(8) 0.4616(6)
H11 H 1.2104 0.0448 0.4916
C16 C 1.0563(10) 0.1519(8) 0.4681(5)
H12 H 1.0017 0.1238 0.5026
C17 C 1.0093(8) 0.2428(7) 0.4233(5)
H13 H 0.9239 0.2746 0.4278
C18 C 0.8682(7) 0.4409(6) 0.3272(4)
C19 C 0.8494(8) 0.5667(7) 0.3539(4)
H14 H 0.9269 0.6304 0.3667
C20 C 0.7183(9) 0.5980(8) 0.3618(5)
H15 H 0.7067 0.6831 0.3788
C21 C 0.6027(9) 0.5050(10) 0.3450(5)
H16 H 0.5139 0.5273 0.3514
C22 C 0.6190(8) 0.3799(8) 0.3187(4)
H17 H 0.5413 0.3166 0.3074
C23 C 0.7517(7) 0.3478(7) 0.3092(4)
H18 H 0.7625 0.2628 0.2905
C24 C 0.9390(7) 0.1758(7) -0.1119(4)
C25 C 1.0067(8) 0.2839(7) -0.1264(4)
H19 H 0.9941 0.3635 -0.0967
C26 C 1.0921(8) 0.2763(8) -0.1836(5)
H20 H 1.1390 0.3501 -0.1913
C27 C 1.1076(9) 0.1610(9) -0.2288(5)
H21 H 1.1644 0.1554 -0.2682
C28 C 1.0398(9) 0.0521(8) -0.2166(5)
H22 H 1.0510 -0.0268 -0.2480
C29 C 0.9558(8) 0.0581(7) -0.1589(5)
H23 H 0.9102 -0.0163 -0.1513
C30 C 0.7329(6) 0.0479(6) -0.0386(4)
C31 C 0.6464(7) -0.0287(6) -0.1143(4)
H24 H 0.6470 -0.0079 -0.1658
C32 C 0.5607(8) -0.1348(7) -0.1110(5)
H25 H 0.5016 -0.1853 -0.1606
C33 C 0.5619(9) -0.1665(7) -0.0360(6)
H26 H 0.5025 -0.2384 -0.0354
C34 C 0.6460(8) -0.0974(7) 0.0378(6)
H27 H 0.6470 -0.1224 0.0882
C35 C 0.7306(8) 0.0118(7) 0.0367(4)
H28 H 0.7870 0.0618 0.0873
C36 C 0.7117(7) 0.3044(6) -0.0639(4)
C37 C 0.7398(8) 0.4309(7) -0.0200(5)
H29 H 0.8168 0.4579 0.0266
C38 C 0.6535(9) 0.5160(7) -0.0456(5)
H30 H 0.6712 0.6006 -0.0156
C39 C 0.5412(9) 0.4773(8) -0.1151(5)
H31 H 0.4843 0.5361 -0.1327
C40 C 0.5132(8) 0.3544(7) -0.1579(5)
H32 H 0.4367 0.3285 -0.2048
C41 C 0.5961(7) 0.2678(7) -0.1328(4)
H33 H 0.5747 0.1829 -0.1623
loop_
_geom_bond_atom_site_label_1
_geom_bond_atom_site_label_2
_geom_bond_site_symmetry_1
_geom_bond_site_symmetry_2
P1 C1 1_555 1_555
P2 C3 1_555 1_555
C1 C2 1_555 1_555
C2 H1 1_555 1_555
C3 C2 1_555 1_555
C4 C3 1_555 1_555
H2 C4 1_555 1_555
C5 C1 1_555 1_555
H3 C5 1_555 1_555
C6 P1 1_555 1_555
C7 C6 1_555 1_555
H4 C7 1_555 1_555
C8 C7 1_555 1_555
H5 C8 1_555 1_555
C9 C8 1_555 1_555
H6 C9 1_555 1_555
C10 C9 1_555 1_555
H7 C10 1_555 1_555
C11 C6 1_555 1_555
H8 C11 1_555 1_555
C12 P1 1_555 1_555
C13 C12 1_555 1_555
H9 C13 1_555 1_555
C14 C13 1_555 1_555
H10 C14 1_555 1_555
C15 C14 1_555 1_555
H11 C15 1_555 1_555
C16 C15 1_555 1_555
H12 C16 1_555 1_555
C17 C12 1_555 1_555
H13 C17 1_555 1_555
C18 P1 1_555 1_555
C19 C18 1_555 1_555
H14 C19 1_555 1_555
C20 C19 1_555 1_555
H15 C20 1_555 1_555
C21 C20 1_555 1_555
H16 C21 1_555 1_555
C22 C21 1_555 1_555
H17 C22 1_555 1_555
C23 C18 1_555 1_555
H18 C23 1_555 1_555
C24 P2 1_555 1_555
C25 C24 1_555 1_555
H19 C25 1_555 1_555
C26 C25 1_555 1_555
H20 C26 1_555 1_555
C27 C26 1_555 1_555
H21 C27 1_555 1_555
C28 C27 1_555 1_555
H22 C28 1_555 1_555
C29 C24 1_555 1_555
H23 C29 1_555 1_555
C30 P2 1_555 1_555
C31 C30 1_555 1_555
H24 C31 1_555 1_555
C32 C31 1_555 1_555
H25 C32 1_555 1_555
C33 C32 1_555 1_555
H26 C33 1_555 1_555
C34 C33 1_555 1_555
H27 C34 1_555 1_555
C35 C30 1_555 1_555
H28 C35 1_555 1_555
C36 P2 1_555 1_555
C37 C36 1_555 1_555
H29 C37 1_555 1_555
C38 C37 1_555 1_555
H30 C38 1_555 1_555
C39 C38 1_555 1_555
H31 C39 1_555 1_555
C40 C39 1_555 1_555
H32 C40 1_555 1_555
C41 C36 1_555 1_555
H33 C41 1_555 1_555
C4 C5 1_555 1_555
C10 C11 1_555 1_555
C16 C17 1_555 1_555
C22 C23 1_555 1_555
C28 C29 1_555 1_555
C34 C35 1_555 1_555
C40 C41 1_555 1_555

#END
