
#######################################################################
#
#                 Cambridge Crystallographic Data Centre
#                                CCDC 
#
#######################################################################
#
# If this CIF has been generated from an entry in the Cambridge 
# Structural Database, then it will include bibliographic, chemical, 
# crystal, experimental, refinement or atomic coordinate data resulting 
# from the CCDC's data processing and validation procedures.
#
#######################################################################

data_SEJJAU
_chemical_formula_moiety         'C36 H59 B1 N2 Si1,C7 H8'
_chemical_name_systematic        
'(1,3-bis(2,6-Di-isopropylphenyl)-2-(trimethylsilyl)-1H-imidazol-3-ium-5-yl)(triethyl)borate toluene solvate'
_symmetry_cell_setting           triclinic
_symmetry_space_group_name_H-M   'P -1'
_symmetry_Int_Tables_number      2
_space_group_name_Hall           '-P 1'
loop_
_symmetry_equiv_pos_site_id
_symmetry_equiv_pos_as_xyz
1 x,y,z
2 -x,-y,-z
_cell_length_a                   11.6738(10)
_cell_length_b                   12.7915(11)
_cell_length_c                   14.4424(12)
_cell_angle_alpha                90.1050(10)
_cell_angle_beta                 95.3380(10)
_cell_angle_gamma                95.7620(10)
_cell_volume                     2136.28
_exptl_crystal_colour            colorless
_exptl_crystal_description       plate
_cell_formula_units_Z            2
loop_
_atom_site_label
_atom_site_type_symbol
_atom_site_fract_x
_atom_site_fract_y
_atom_site_fract_z
Si1 Si 0.11833(6) 0.73294(7) 0.23545(6)
B1 B 0.6142(3) 0.7487(5) 0.2389(4)
N1 N 0.31404(17) 0.80896(17) 0.13336(15)
N2 N 0.37479(17) 0.71878(17) 0.24955(15)
C1 C 0.2764(2) 0.75182(19) 0.20546(18)
C2 C 0.4314(2) 0.8098(2) 0.1342(2)
H1 H 0.4756 0.8438 0.0908
C3 C 0.4746(2) 0.7544(2) 0.2068(2)
C4 C 0.3717(2) 0.6488(2) 0.3282(2)
C5 C 0.3510(2) 0.5411(2) 0.3108(2)
C6 C 0.3422(3) 0.4771(3) 0.3878(4)
H2 H 0.3270 0.4048 0.3788
C7 C 0.3551(4) 0.5164(5) 0.4753(4)
H3 H 0.3474 0.4713 0.5253
C8 C 0.3793(3) 0.6217(4) 0.4910(3)
H4 H 0.3893 0.6474 0.5518
C9 C 0.3893(2) 0.6914(3) 0.4178(2)
C10 C 0.4194(3) 0.8074(4) 0.4379(3)
H5 H 0.4517 0.8386 0.3829
C11 C 0.5125(5) 0.8281(5) 0.5206(4)
H6 H 0.5306 0.9024 0.5300
H7 H 0.5809 0.7971 0.5077
H8 H 0.4838 0.7976 0.5757
C12 C 0.3129(5) 0.8644(5) 0.4549(5)
H9 H 0.3362 0.9379 0.4656
H10 H 0.2787 0.8353 0.5083
H11 H 0.2574 0.8556 0.4014
C13 C 0.3397(4) 0.4928(3) 0.2153(3)
H12 H 0.3598 0.5482 0.1711
C14 C 0.2167(4) 0.4430(4) 0.1853(4)
H13 H 0.2137 0.4149 0.1233
H14 H 0.1635 0.4954 0.1866
H15 H 0.1959 0.3875 0.2271
C15 C 0.4240(4) 0.4069(4) 0.2092(5)
H16 H 0.4161 0.3782 0.1472
H17 H 0.4059 0.3520 0.2523
H18 H 0.5020 0.4375 0.2243
C16 C 0.2455(2) 0.8614(2) 0.0620(2)
C17 C 0.1996(3) 0.8042(3) -0.0173(2)
C18 C 0.1369(3) 0.8572(5) -0.0847(3)
H19 H 0.1032 0.8213 -0.1379
C19 C 0.1237(4) 0.9602(6) -0.0746(4)
H20 H 0.0805 0.9934 -0.1209
C20 C 0.1718(4) 1.0162(4) 0.0012(4)
H21 H 0.1620 1.0872 0.0056
C21 C 0.2368(3) 0.9684(3) 0.0738(3)
C22 C 0.2979(4) 1.0324(3) 0.1536(3)
H22 H 0.3179 0.9841 0.2038
C23 C 0.2245(6) 1.1135(4) 0.1928(5)
H23 H 0.2688 1.1517 0.2436
H24 H 0.1560 1.0775 0.2143
H25 H 0.2032 1.1615 0.1447
C24 C 0.4123(5) 1.0896(4) 0.1242(4)
H26 H 0.4519 1.1297 0.1760
H27 H 0.3953 1.1357 0.0736
H28 H 0.4606 1.0386 0.1050
C25 C 0.2243(3) 0.6914(3) -0.0345(3)
H29 H 0.2414 0.6593 0.0262
C26 C 0.3313(4) 0.6917(4) -0.0873(4)
H30 H 0.3476 0.6207 -0.0972
H31 H 0.3960 0.7295 -0.0517
H32 H 0.3177 0.7251 -0.1462
C27 C 0.1227(4) 0.6231(5) -0.0870(4)
H33 H 0.1438 0.5532 -0.0947
H34 H 0.1044 0.6527 -0.1469
H35 H 0.0564 0.6206 -0.0521
C28 C 0.1000(3) 0.6517(3) 0.3392(3)
H36 H 0.1254 0.5839 0.3291
H37 H 0.0199 0.6436 0.3506
H38 H 0.1451 0.6853 0.3920
C29 C 0.0248(3) 0.6728(4) 0.1351(3)
H39 H 0.0473 0.6045 0.1223
H40 H 0.0328 0.7164 0.0816
H41 H -0.0543 0.6664 0.1493
C30 C 0.0692(3) 0.8629(3) 0.2543(3)
H42 H 0.0784 0.9049 0.2000
H43 H 0.1144 0.8969 0.3069
H44 H -0.0108 0.8547 0.2659
C31 C 0.7663(10) 0.6231(14) 0.3177(11)
H45 H 0.7697 0.5612 0.3549
H46 H 0.8087 0.6819 0.3510
H47 H 0.7997 0.6124 0.2605
C32 C 0.6384(10) 0.6452(9) 0.2960(9)
H48 H 0.6045 0.6490 0.3546
H49 H 0.5977 0.5853 0.2616
C33 C 0.6481(8) 0.6639(7) 0.0787(6)
H50 H 0.6883 0.6750 0.0240
H51 H 0.5662 0.6555 0.0614
H52 H 0.6708 0.6018 0.1095
C34 C 0.6801(5) 0.7644(6) 0.1484(4)
H53 H 0.7628 0.7733 0.1656
H54 H 0.6587 0.8275 0.1169
C35 C 0.6356(10) 0.9687(7) 0.2584(7)
H55 H 0.6704 1.0241 0.2999
H56 H 0.5532 0.9699 0.2523
H57 H 0.6643 0.9785 0.1985
C36 C 0.6665(5) 0.8606(6) 0.2982(6)
H58 H 0.6405 0.8549 0.3601
H59 H 0.7501 0.8626 0.3054
C37 C 0.9658(10) 0.2851(8) 0.3915(8)
C38 C 1.0757(10) 0.2889(9) 0.4384(11)
H60 H 1.1149 0.3532 0.4579
C39 C 1.1270(9) 0.1966(13) 0.4562(11)
H61 H 1.2005 0.1991 0.4876
C40 C 1.0684(12) 0.1005(10) 0.4270(9)
H62 H 1.1027 0.0387 0.4389
C41 C 0.9585(12) 0.0967(8) 0.3801(10)
H63 H 0.9193 0.0324 0.3606
C42 C 0.9072(8) 0.1890(10) 0.3624(9)
H64 H 0.8337 0.1864 0.3310
C43 C 0.913(2) 0.3748(14) 0.3738(18)
H65 H 0.8421 0.3580 0.3351
H66 H 0.9632 0.4241 0.3425
H67 H 0.8966 0.4052 0.4314
C44? C 0.7774(19) 0.651(2) 0.3201(14)
C45? C 0.6471(19) 0.6645(15) 0.3180(16)
C46? C 0.6109(17) 0.6041(16) 0.093(2)
C47? C 0.650(2) 0.7131(19) 0.1392(15)
C48? C 0.665(3) 0.922(2) 0.3109(19)
C49? C 0.6905(13) 0.8618(13) 0.2242(15)
C50? C 1.0398(10) 0.2110(13) 0.4126(9)
C51? C 1.0419(12) 0.3183(13) 0.4289(11)
C52? C 0.9470(16) 0.3707(10) 0.3983(12)
C53? C 0.8499(12) 0.3157(13) 0.3514(9)
C54? C 0.8478(10) 0.2084(13) 0.3352(11)
C55? C 0.9428(13) 0.1560(9) 0.3658(11)
C56? C 1.119(3) 0.145(2) 0.453(3)
H68? H 0.7982 0.6033 0.3687
H69? H 0.8217 0.7177 0.3313
H70? H 0.7932 0.6228 0.2614
H71? H 0.6299 0.6892 0.3782
H72? H 0.6017 0.5976 0.3043
H73? H 0.6422 0.6006 0.0344
H74? H 0.5280 0.5942 0.0842
H75? H 0.6385 0.5501 0.1330
H76? H 0.6239 0.7648 0.0950
H77? H 0.7334 0.7212 0.1434
H78? H 0.7071 0.9906 0.3127
H79? H 0.6888 0.8842 0.3657
H80? H 0.5838 0.9287 0.3086
H81? H 0.7723 0.8537 0.2240
H82? H 0.6636 0.8955 0.1673
H83? H 1.1069 0.3551 0.4603
H84? H 0.9484 0.4425 0.4092
H85? H 0.7864 0.3508 0.3310
H86? H 0.7829 0.1716 0.3038
H87? H 0.9414 0.0842 0.3549
H88? H 1.0939 0.0737 0.4353
H89? H 1.1233 0.1522 0.5196
H90? H 1.1937 0.1649 0.4324
loop_
_geom_bond_atom_site_label_1
_geom_bond_atom_site_label_2
_geom_bond_site_symmetry_1
_geom_bond_site_symmetry_2
Si1 C1 1_555 1_555
B1 C3 1_555 1_555
N1 C1 1_555 1_555
N2 C1 1_555 1_555
C2 N1 1_555 1_555
H1 C2 1_555 1_555
C3 N2 1_555 1_555
C4 N2 1_555 1_555
C5 C4 1_555 1_555
C6 C5 1_555 1_555
H2 C6 1_555 1_555
C7 C6 1_555 1_555
H3 C7 1_555 1_555
C8 C7 1_555 1_555
H4 C8 1_555 1_555
C9 C4 1_555 1_555
C10 C9 1_555 1_555
H5 C10 1_555 1_555
C11 C10 1_555 1_555
H6 C11 1_555 1_555
H7 C11 1_555 1_555
H8 C11 1_555 1_555
C12 C10 1_555 1_555
H9 C12 1_555 1_555
H10 C12 1_555 1_555
H11 C12 1_555 1_555
C13 C5 1_555 1_555
H12 C13 1_555 1_555
C14 C13 1_555 1_555
H13 C14 1_555 1_555
H14 C14 1_555 1_555
H15 C14 1_555 1_555
C15 C13 1_555 1_555
H16 C15 1_555 1_555
H17 C15 1_555 1_555
H18 C15 1_555 1_555
C16 N1 1_555 1_555
C17 C16 1_555 1_555
C18 C17 1_555 1_555
H19 C18 1_555 1_555
C19 C18 1_555 1_555
H20 C19 1_555 1_555
C20 C19 1_555 1_555
H21 C20 1_555 1_555
C21 C16 1_555 1_555
C22 C21 1_555 1_555
H22 C22 1_555 1_555
C23 C22 1_555 1_555
H23 C23 1_555 1_555
H24 C23 1_555 1_555
H25 C23 1_555 1_555
C24 C22 1_555 1_555
H26 C24 1_555 1_555
H27 C24 1_555 1_555
H28 C24 1_555 1_555
C25 C17 1_555 1_555
H29 C25 1_555 1_555
C26 C25 1_555 1_555
H30 C26 1_555 1_555
H31 C26 1_555 1_555
H32 C26 1_555 1_555
C27 C25 1_555 1_555
H33 C27 1_555 1_555
H34 C27 1_555 1_555
H35 C27 1_555 1_555
C28 Si1 1_555 1_555
H36 C28 1_555 1_555
H37 C28 1_555 1_555
H38 C28 1_555 1_555
C29 Si1 1_555 1_555
H39 C29 1_555 1_555
H40 C29 1_555 1_555
H41 C29 1_555 1_555
C30 Si1 1_555 1_555
H42 C30 1_555 1_555
H43 C30 1_555 1_555
H44 C30 1_555 1_555
C31 H45 1_555 1_555
H46 C31 1_555 1_555
H47 C31 1_555 1_555
C32 B1 1_555 1_555
H48 C32 1_555 1_555
H49 C32 1_555 1_555
C33 H50 1_555 1_555
H51 C33 1_555 1_555
H52 C33 1_555 1_555
C34 B1 1_555 1_555
H53 C34 1_555 1_555
H54 C34 1_555 1_555
C35 H55 1_555 1_555
H56 C35 1_555 1_555
H57 C35 1_555 1_555
C36 B1 1_555 1_555
H58 C36 1_555 1_555
H59 C36 1_555 1_555
C37 C38 1_555 1_555
C38 H60 1_555 1_555
C39 C38 1_555 1_555
H61 C39 1_555 1_555
C40 C39 1_555 1_555
H62 C40 1_555 1_555
C41 C40 1_555 1_555
H63 C41 1_555 1_555
C42 C37 1_555 1_555
H64 C42 1_555 1_555
C43 C37 1_555 1_555
H65 C43 1_555 1_555
H66 C43 1_555 1_555
H67 C43 1_555 1_555
C2 C3 1_555 1_555
C8 C9 1_555 1_555
C20 C21 1_555 1_555
C31 C32 1_555 1_555
C33 C34 1_555 1_555
C35 C36 1_555 1_555
C41 C42 1_555 1_555

#END
