
#######################################################################
#
#                 Cambridge Crystallographic Data Centre
#                                CCDC 
#
#######################################################################
#
# If this CIF has been generated from an entry in the Cambridge 
# Structural Database, then it will include bibliographic, chemical, 
# crystal, experimental, refinement or atomic coordinate data resulting 
# from the CCDC's data processing and validation procedures.
#
#######################################################################

data_SEJJEY
_chemical_formula_moiety         'C34 H53 B1 N2'
_chemical_name_systematic        
(1,3-bis(2,6-Di-isopropylphenyl)-2-methyl-1H-imidazol-3-ium-5-yl)(triethyl)borate
_symmetry_cell_setting           orthorhombic
_symmetry_space_group_name_H-M   'P 21 21 21'
_symmetry_Int_Tables_number      19
_space_group_name_Hall           'P 2ac 2ab'
loop_
_symmetry_equiv_pos_site_id
_symmetry_equiv_pos_as_xyz
1 x,y,z
2 1/2-x,-y,1/2+z
3 -x,1/2+y,1/2-z
4 1/2+x,1/2-y,-z
_cell_length_a                   9.6164(4)
_cell_length_b                   15.3033(6)
_cell_length_c                   22.2044(9)
_cell_angle_alpha                90
_cell_angle_beta                 90
_cell_angle_gamma                90
_cell_volume                     3267.66
_exptl_crystal_colour            colorless
_exptl_crystal_description       plate
_cell_formula_units_Z            4
loop_
_atom_site_label
_atom_site_type_symbol
_atom_site_fract_x
_atom_site_fract_y
_atom_site_fract_z
B1 B 0.8066(3) 0.44868(16) 0.15456(11)
N1 N 0.56804(18) 0.57705(11) 0.04630(8)
N2 N 0.53447(18) 0.48222(10) 0.11618(7)
C1 C 0.4700(2) 0.53247(13) 0.07503(9)
C2 C 0.6954(2) 0.55382(14) 0.06974(9)
H1 H 0.7801 0.5764 0.0569
C3 C 0.6803(2) 0.49336(13) 0.11419(9)
C4 C 0.4537(2) 0.42385(14) 0.15484(9)
C5 C 0.4023(3) 0.45725(17) 0.20889(11)
C6 C 0.3181(3) 0.40163(19) 0.24287(12)
H2 H 0.2822 0.4215 0.2793
C7 C 0.2871(3) 0.3193(2) 0.22427(14)
H3 H 0.2303 0.2838 0.2477
C8 C 0.3402(3) 0.28821(17) 0.17030(13)
H4 H 0.3190 0.2316 0.1582
C9 C 0.4245(2) 0.34003(14) 0.13378(10)
C10 C 0.4754(3) 0.30487(16) 0.07404(10)
H5 H 0.5483 0.3443 0.0595
C11 C 0.5390(3) 0.21318(17) 0.07880(13)
H6 H 0.5689 0.1942 0.0397
H7 H 0.4706 0.1732 0.0941
H8 H 0.6173 0.2147 0.1056
C12 C 0.3599(4) 0.3044(2) 0.02743(14)
H9 H 0.3203 0.3618 0.0244
H10 H 0.2892 0.2636 0.0393
H11 H 0.3971 0.2875 -0.0110
C13 C 0.4309(4) 0.54887(19) 0.23050(13)
H12 H 0.5080 0.5721 0.2065
C14 C 0.4753(5) 0.5513(3) 0.29658(15)
H13 H 0.5549 0.5144 0.3022
H14 H 0.4003 0.5308 0.3214
H15 H 0.4984 0.6101 0.3077
C15 C 0.3050(6) 0.6083(3) 0.2203(2)
H16 H 0.3257 0.6660 0.2348
H17 H 0.2263 0.5854 0.2417
H18 H 0.2842 0.6108 0.1781
C16 C 0.5472(2) 0.63484(14) -0.00475(10)
C17 C 0.5392(3) 0.72483(15) 0.00615(11)
C18 C 0.5290(3) 0.77802(18) -0.04500(14)
H19 H 0.5241 0.8383 -0.0403
C19 C 0.5262(3) 0.7434(2) -0.10154(14)
H20 H 0.5200 0.7805 -0.1346
C20 C 0.5323(3) 0.6551(2) -0.11054(12)
H21 H 0.5296 0.6332 -0.1496
C21 C 0.5424(3) 0.59748(17) -0.06216(10)
C22 C 0.5490(3) 0.49954(18) -0.07239(11)
H22 H 0.5373 0.4709 -0.0332
C23 C 0.6910(4) 0.4731(3) -0.09722(18)
H23 H 0.7626 0.4934 -0.0705
H24 H 0.7039 0.4987 -0.1363
H25 H 0.6958 0.4106 -0.1004
C24 C 0.4317(5) 0.4670(3) -0.11396(18)
H26 H 0.3433 0.4835 -0.0973
H27 H 0.4364 0.4046 -0.1173
H28 H 0.4421 0.4928 -0.1531
C25 C 0.5420(3) 0.76287(16) 0.06883(13)
H29 H 0.5580 0.7144 0.0968
C26 C 0.6596(4) 0.8271(4) 0.0775(2)
H30 H 0.7466 0.7985 0.0699
H31 H 0.6582 0.8487 0.1181
H32 H 0.6485 0.8750 0.0500
C27 C 0.4082(5) 0.8040(4) 0.0860(2)
H33 H 0.4152 0.8270 0.1261
H34 H 0.3354 0.7612 0.0845
H35 H 0.3873 0.8506 0.0585
C28 C 0.3187(2) 0.53869(18) 0.06269(13)
H36 H 0.2902 0.5987 0.0647
H37 H 0.2685 0.5054 0.0922
H38 H 0.2996 0.5160 0.0232
C29 C 0.8315(4) 0.5922(2) 0.22408(15)
H39 H 0.8311 0.6113 0.2653
H40 H 0.7578 0.6207 0.2026
H41 H 0.9191 0.6068 0.2059
C30 C 0.8104(3) 0.4942(2) 0.22167(12)
H42 H 0.7236 0.4807 0.2419
H43 H 0.8844 0.4669 0.2446
C31 C 0.9729(3) 0.4249(2) 0.05809(14)
H44 H 1.0603 0.4422 0.0409
H45 H 0.8987 0.4410 0.0314
H46 H 0.9723 0.3627 0.0639
C32 C 0.9530(3) 0.47051(19) 0.11894(12)
H47 H 0.9581 0.5331 0.1125
H48 H 1.0299 0.4545 0.1450
C33 C 0.9038(4) 0.2958(2) 0.1950(2)
H49 H 0.8830 0.2346 0.1970
H50 H 0.9121 0.3190 0.2350
H51 H 0.9898 0.3042 0.1738
C34 C 0.7865(3) 0.34342(18) 0.16159(17)
H52 H 0.7000 0.3326 0.1828
H53 H 0.7778 0.3182 0.1217
loop_
_geom_bond_atom_site_label_1
_geom_bond_atom_site_label_2
_geom_bond_site_symmetry_1
_geom_bond_site_symmetry_2
B1 C3 1_555 1_555
N1 C1 1_555 1_555
N2 C1 1_555 1_555
C1 C28 1_555 1_555
C2 N1 1_555 1_555
H1 C2 1_555 1_555
C3 N2 1_555 1_555
C4 N2 1_555 1_555
C5 C4 1_555 1_555
C6 C5 1_555 1_555
H2 C6 1_555 1_555
C7 C6 1_555 1_555
H3 C7 1_555 1_555
C8 C7 1_555 1_555
H4 C8 1_555 1_555
C9 C4 1_555 1_555
C10 C9 1_555 1_555
H5 C10 1_555 1_555
C11 C10 1_555 1_555
H6 C11 1_555 1_555
H7 C11 1_555 1_555
H8 C11 1_555 1_555
C12 C10 1_555 1_555
H9 C12 1_555 1_555
H10 C12 1_555 1_555
H11 C12 1_555 1_555
C13 C5 1_555 1_555
H12 C13 1_555 1_555
C14 C13 1_555 1_555
H13 C14 1_555 1_555
H14 C14 1_555 1_555
H15 C14 1_555 1_555
C15 C13 1_555 1_555
H16 C15 1_555 1_555
H17 C15 1_555 1_555
H18 C15 1_555 1_555
C16 N1 1_555 1_555
C17 C16 1_555 1_555
C18 C17 1_555 1_555
H19 C18 1_555 1_555
C19 C18 1_555 1_555
H20 C19 1_555 1_555
C20 C19 1_555 1_555
H21 C20 1_555 1_555
C21 C16 1_555 1_555
C22 C21 1_555 1_555
H22 C22 1_555 1_555
C23 C22 1_555 1_555
H23 C23 1_555 1_555
H24 C23 1_555 1_555
H25 C23 1_555 1_555
C24 C22 1_555 1_555
H26 C24 1_555 1_555
H27 C24 1_555 1_555
H28 C24 1_555 1_555
C25 C17 1_555 1_555
H29 C25 1_555 1_555
C26 C25 1_555 1_555
H30 C26 1_555 1_555
H31 C26 1_555 1_555
H32 C26 1_555 1_555
C27 C25 1_555 1_555
H33 C27 1_555 1_555
H34 C27 1_555 1_555
H35 C27 1_555 1_555
C28 H36 1_555 1_555
H37 C28 1_555 1_555
H38 C28 1_555 1_555
C29 H39 1_555 1_555
H40 C29 1_555 1_555
H41 C29 1_555 1_555
C30 B1 1_555 1_555
H42 C30 1_555 1_555
H43 C30 1_555 1_555
C31 H44 1_555 1_555
H45 C31 1_555 1_555
H46 C31 1_555 1_555
C32 B1 1_555 1_555
H47 C32 1_555 1_555
H48 C32 1_555 1_555
C33 H49 1_555 1_555
H50 C33 1_555 1_555
H51 C33 1_555 1_555
C34 B1 1_555 1_555
H52 C34 1_555 1_555
H53 C34 1_555 1_555
C2 C3 1_555 1_555
C8 C9 1_555 1_555
C20 C21 1_555 1_555
C29 C30 1_555 1_555
C31 C32 1_555 1_555
C33 C34 1_555 1_555

#END
