
#######################################################################
#
#                 Cambridge Crystallographic Data Centre
#                                CCDC 
#
#######################################################################
#
# If this CIF has been generated from an entry in the Cambridge 
# Structural Database, then it will include bibliographic, chemical, 
# crystal, experimental, refinement or atomic coordinate data resulting 
# from the CCDC's data processing and validation procedures.
#
#######################################################################

data_SEJQUW
_chemical_formula_moiety         'C16 H19 B10 N1 O1'
_chemical_name_systematic        
1-carbaldehyde-3-phenyl-5-(4-cyanophenyl)-1,3-dicarba-closo-dodecaborane
_symmetry_cell_setting           monoclinic
_symmetry_space_group_name_H-M   'P 21/n'
_symmetry_Int_Tables_number      14
_space_group_name_Hall           '-P 2yn'
loop_
_symmetry_equiv_pos_site_id
_symmetry_equiv_pos_as_xyz
1 x,y,z
2 1/2-x,1/2+y,1/2-z
3 -x,-y,-z
4 1/2+x,1/2-y,1/2+z
_cell_length_a                   6.8465(15)
_cell_length_b                   20.956(5)
_cell_length_c                   13.704(3)
_cell_angle_alpha                90
_cell_angle_beta                 93.307(7)
_cell_angle_gamma                90
_cell_volume                     1962.91
_exptl_crystal_description       block
_cell_formula_units_Z            4
loop_
_atom_site_label
_atom_site_type_symbol
_atom_site_fract_x
_atom_site_fract_y
_atom_site_fract_z
B1 B 0.2643(4) 0.18188(14) 0.8559(2)
B2 B 0.4090(5) 0.25607(15) 0.6505(3)
H1 H 0.4558 0.2796 0.5840
B3 B 0.1600(4) 0.16404(15) 0.7364(2)
H2 H 0.0466 0.1272 0.7252
B4 B 0.1619(5) 0.23412(15) 0.6637(2)
H3 H 0.0478 0.2436 0.6056
B5 B 0.1150(4) 0.23851(14) 0.7897(2)
H4 H -0.0305 0.2512 0.8137
B6 B 0.2697(5) 0.29556(15) 0.7370(3)
H5 H 0.2249 0.3457 0.7271
B7 B 0.3340(4) 0.26411(14) 0.8548(2)
H6 H 0.3318 0.2936 0.9211
B8 B 0.5158(5) 0.27455(16) 0.7687(3)
H7 H 0.6319 0.3106 0.7791
B9 B 0.5127(4) 0.20443(15) 0.8410(2)
H8 H 0.6274 0.1941 0.8984
B10 B 0.5592(4) 0.19969(16) 0.7158(2)
H9 H 0.7036 0.1857 0.6917
C1 C 0.4013(3) 0.14840(11) 0.76747(18)
C2 C 0.3398(4) 0.17765(12) 0.65493(18)
C3 C 0.0651(4) 0.07217(12) 1.1028(2)
C4 C 0.2522(4) 0.09684(14) 1.1071(2)
H10 H 0.3342 0.0909 1.1628
C5 C 0.3174(4) 0.13034(13) 1.0286(2)
H11 H 0.4439 0.1467 1.0322
C6 C 0.1979(3) 0.14030(11) 0.94374(18)
C7 C 0.0111(4) 0.11420(12) 0.94184(19)
H12 H -0.0714 0.1197 0.8862
C8 C -0.0563(4) 0.08058(12) 1.0193(2)
H13 H -0.1820 0.0636 1.0156
C9 C -0.0075(5) 0.03816(14) 1.1843(2)
C10 C 0.3453(4) 0.13448(13) 0.56734(19)
C11 C 0.1820(5) 0.10184(17) 0.5331(2)
H14 H 0.0673 0.1052 0.5660
C12 C 0.1848(6) 0.06395(19) 0.4506(3)
H15 H 0.0726 0.0421 0.4285
C13 C 0.3523(7) 0.05854(17) 0.4016(2)
H16 H 0.3549 0.0329 0.3463
C14 C 0.5142(6) 0.0909(2) 0.4342(3)
H17 H 0.6284 0.0875 0.4010
C15 C 0.5113(5) 0.12910(16) 0.5167(2)
H18 H 0.6234 0.1513 0.5379
N1 N -0.0686(5) 0.01142(14) 1.2484(2)
C16 C 0.4600(12) 0.0790(3) 0.7707(11)
H19 H 0.4117 0.0522 0.7209
O1 O 0.5651(17) 0.0572(3) 0.8340(8)
C17? C 0.450(4) 0.0777(9) 0.776(3)
H20? H 0.3512 0.0475 0.7691
O2? O 0.615(3) 0.0610(8) 0.793(2)
loop_
_geom_bond_atom_site_label_1
_geom_bond_atom_site_label_2
_geom_bond_site_symmetry_1
_geom_bond_site_symmetry_2
B1 B3 1_555 1_555
B2 H1 1_555 1_555
B3 H2 1_555 1_555
B4 B2 1_555 1_555
H3 B4 1_555 1_555
B5 B1 1_555 1_555
H4 B5 1_555 1_555
B6 B2 1_555 1_555
H5 B6 1_555 1_555
B7 B1 1_555 1_555
H6 B7 1_555 1_555
B8 B2 1_555 1_555
H7 B8 1_555 1_555
B9 B1 1_555 1_555
H8 B9 1_555 1_555
B10 B2 1_555 1_555
H9 B10 1_555 1_555
C1 B1 1_555 1_555
C2 B2 1_555 1_555
C3 C4 1_555 1_555
C4 H10 1_555 1_555
C5 C4 1_555 1_555
H11 C5 1_555 1_555
C6 B1 1_555 1_555
C7 C6 1_555 1_555
H12 C7 1_555 1_555
C8 C3 1_555 1_555
H13 C8 1_555 1_555
C9 C3 1_555 1_555
C10 C2 1_555 1_555
C11 C10 1_555 1_555
H14 C11 1_555 1_555
C12 C11 1_555 1_555
H15 C12 1_555 1_555
C13 C12 1_555 1_555
H16 C13 1_555 1_555
C14 C13 1_555 1_555
H17 C14 1_555 1_555
C15 C10 1_555 1_555
H18 C15 1_555 1_555
N1 C9 1_555 1_555
C16 C1 1_555 1_555
H19 C16 1_555 1_555
O1 C16 1_555 1_555
B3 B4 1_555 1_555
B3 B5 1_555 1_555
B3 C1 1_555 1_555
B3 C2 1_555 1_555
B4 B5 1_555 1_555
B4 B6 1_555 1_555
B4 C2 1_555 1_555
B5 B6 1_555 1_555
B5 B7 1_555 1_555
B6 B7 1_555 1_555
B6 B8 1_555 1_555
B7 B8 1_555 1_555
B7 B9 1_555 1_555
B8 B9 1_555 1_555
B8 B10 1_555 1_555
B9 B10 1_555 1_555
B9 C1 1_555 1_555
B10 C1 1_555 1_555
B10 C2 1_555 1_555
C1 C2 1_555 1_555
C5 C6 1_555 1_555
C7 C8 1_555 1_555
C14 C15 1_555 1_555

#END
