
#######################################################################
#
#                 Cambridge Crystallographic Data Centre
#                                CCDC 
#
#######################################################################
#
# If this CIF has been generated from an entry in the Cambridge 
# Structural Database, then it will include bibliographic, chemical, 
# crystal, experimental, refinement or atomic coordinate data resulting 
# from the CCDC's data processing and validation procedures.
#
#######################################################################

data_SEJSOS
_chemical_formula_moiety         'C14 H8 Br2 O4'
_chemical_name_systematic        'bis(4-bromophenyl) oxalate'
_symmetry_cell_setting           monoclinic
_symmetry_space_group_name_H-M   'P 21/c'
_symmetry_Int_Tables_number      14
_space_group_name_Hall           '-P 2ybc'
loop_
_symmetry_equiv_pos_site_id
_symmetry_equiv_pos_as_xyz
1 x,y,z
2 -x,1/2+y,1/2-z
3 -x,-y,-z
4 x,1/2-y,1/2+z
_cell_length_a                   12.054(2)
_cell_length_b                   3.9755(8)
_cell_length_c                   14.204(3)
_cell_angle_alpha                90
_cell_angle_beta                 94.53(3)
_cell_angle_gamma                90
_cell_volume                     678.539
_exptl_crystal_colour            white
_exptl_crystal_description       Prism
_cell_formula_units_Z            2
loop_
_atom_site_label
_atom_site_type_symbol
_atom_site_fract_x
_atom_site_fract_y
_atom_site_fract_z
Br1 Br 0.09733(8) 0.5587(2) 0.09717(5)
O1 O 0.3724(4) 0.0290(14) 0.4387(3)
C1 C 0.2171(6) 0.343(2) 0.3705(5)
H1 H 0.1958 0.3779 0.4313
O2 O 0.5322(4) 0.2803(18) 0.4128(4)
C2 C 0.1538(7) 0.4671(19) 0.2935(5)
H2 H 0.0893 0.5894 0.3008
C3 C 0.1895(6) 0.403(2) 0.2034(5)
C4 C 0.2822(7) 0.226(2) 0.1906(5)
H3 H 0.3023 0.1832 0.1298
C5 C 0.3474(6) 0.107(2) 0.2677(5)
H4 H 0.4130 -0.0103 0.2605
C6 C 0.3115(6) 0.170(2) 0.3563(4)
C7 C 0.4776(5) 0.0991(18) 0.4555(5)
Br1B Br 0.90267(8) -0.5587(2) 0.90283(5)
O1B O 0.6276(4) -0.0290(14) 0.5613(3)
C1B C 0.7829(6) -0.343(2) 0.6295(5)
H1B H 0.8042 -0.3779 0.5687
O2B O 0.4678(4) -0.2803(18) 0.5872(4)
C2B C 0.8462(7) -0.4671(19) 0.7065(5)
H2B H 0.9107 -0.5894 0.6992
C3B C 0.8105(6) -0.403(2) 0.7966(5)
C4B C 0.7178(7) -0.226(2) 0.8094(5)
H3B H 0.6977 -0.1832 0.8702
C5B C 0.6526(6) -0.107(2) 0.7323(5)
H4B H 0.5870 0.0103 0.7395
C6B C 0.6885(6) -0.170(2) 0.6437(4)
C7B C 0.5224(5) -0.0991(18) 0.5445(5)
loop_
_geom_bond_atom_site_label_1
_geom_bond_atom_site_label_2
_geom_bond_site_symmetry_1
_geom_bond_site_symmetry_2
Br1 C3 1_555 1_555
O1 C6 1_555 1_555
C1 H1 1_555 1_555
O2 C7 1_555 1_555
C2 C1 1_555 1_555
H2 C2 1_555 1_555
C3 C2 1_555 1_555
C4 C3 1_555 1_555
H3 C4 1_555 1_555
C5 C4 1_555 1_555
H4 C5 1_555 1_555
C6 C1 1_555 1_555
C7 O1 1_555 1_555
Br1B C3B 1_555 1_555
O1B C6B 1_555 1_555
C1B H1B 1_555 1_555
O2B C7B 1_555 1_555
C2B C1B 1_555 1_555
H2B C2B 1_555 1_555
C3B C2B 1_555 1_555
C4B C3B 1_555 1_555
H3B C4B 1_555 1_555
C5B C4B 1_555 1_555
H4B C5B 1_555 1_555
C6B C1B 1_555 1_555
C7B C7 1_555 1_555
C5 C6 1_555 1_555
O1B C7B 1_555 1_555
C5B C6B 1_555 1_555

#END
