
#######################################################################
#
#                 Cambridge Crystallographic Data Centre
#                                CCDC 
#
#######################################################################
#
# If this CIF has been generated from an entry in the Cambridge 
# Structural Database, then it will include bibliographic, chemical, 
# crystal, experimental, refinement or atomic coordinate data resulting 
# from the CCDC's data processing and validation procedures.
#
#######################################################################

data_SEJSIM
_chemical_formula_moiety         'C14 H8 F2 O4'
_chemical_name_systematic        'bis(4-fluorophenyl) oxalate'
_symmetry_cell_setting           monoclinic
_symmetry_space_group_name_H-M   'P 21/c'
_symmetry_Int_Tables_number      14
_space_group_name_Hall           '-P 2ybc'
loop_
_symmetry_equiv_pos_site_id
_symmetry_equiv_pos_as_xyz
1 x,y,z
2 -x,1/2+y,1/2-z
3 -x,-y,-z
4 x,1/2-y,1/2+z
_cell_length_a                   6.8980(14)
_cell_length_b                   11.480(2)
_cell_length_c                   8.3760(17)
_cell_angle_alpha                90
_cell_angle_beta                 110.79(3)
_cell_angle_gamma                90
_cell_volume                     620.099
_exptl_crystal_colour            white
_exptl_crystal_description       Prism
_cell_formula_units_Z            2
loop_
_atom_site_label
_atom_site_type_symbol
_atom_site_fract_x
_atom_site_fract_y
_atom_site_fract_z
F1 F 0.9266(3) 0.76869(18) 0.5526(2)
O1 O 0.1779(2) 0.97272(15) 0.20432(19)
C1 C 0.5524(3) 0.9707(2) 0.2858(3)
H1 H 0.5468 1.0390 0.2247
O2 O 0.1948(2) 0.93333(17) -0.0533(2)
C2 C 0.7410(4) 0.9187(2) 0.3748(3)
H2 H 0.8643 0.9502 0.3727
C3 C 0.7412(4) 0.8198(2) 0.4657(3)
C4 C 0.5637(4) 0.7693(2) 0.4699(3)
H3 H 0.5694 0.7018 0.5329
C5 C 0.3757(4) 0.8204(2) 0.3789(3)
H4 H 0.2522 0.7877 0.3786
C6 C 0.3747(3) 0.9200(2) 0.2891(3)
C7 C 0.1072(3) 0.97147(19) 0.0337(3)
F1B F -0.9266(3) 1.23131(18) -0.5526(2)
O1B O -0.1779(2) 1.02728(15) -0.20432(19)
C1B C -0.5524(3) 1.0293(2) -0.2858(3)
H1B H -0.5468 0.9610 -0.2247
O2B O -0.1948(2) 1.06667(17) 0.0533(2)
C2B C -0.7410(4) 1.0813(2) -0.3748(3)
H2B H -0.8643 1.0498 -0.3727
C3B C -0.7412(4) 1.1802(2) -0.4657(3)
C4B C -0.5637(4) 1.2307(2) -0.4699(3)
H3B H -0.5694 1.2982 -0.5329
C5B C -0.3757(4) 1.1796(2) -0.3789(3)
H4B H -0.2522 1.2123 -0.3786
C6B C -0.3747(3) 1.0800(2) -0.2891(3)
C7B C -0.1072(3) 1.02853(19) -0.0337(3)
loop_
_geom_bond_atom_site_label_1
_geom_bond_atom_site_label_2
_geom_bond_site_symmetry_1
_geom_bond_site_symmetry_2
F1 C3 1_555 1_555
O1 C6 1_555 1_555
C1 H1 1_555 1_555
O2 C7 1_555 1_555
C2 C1 1_555 1_555
H2 C2 1_555 1_555
C3 C2 1_555 1_555
C4 C3 1_555 1_555
H3 C4 1_555 1_555
C5 C4 1_555 1_555
H4 C5 1_555 1_555
C6 C1 1_555 1_555
C7 O1 1_555 1_555
F1B C3B 1_555 1_555
O1B C6B 1_555 1_555
C1B H1B 1_555 1_555
O2B C7B 1_555 1_555
C2B C1B 1_555 1_555
H2B C2B 1_555 1_555
C3B C2B 1_555 1_555
C4B C3B 1_555 1_555
H3B C4B 1_555 1_555
C5B C4B 1_555 1_555
H4B C5B 1_555 1_555
C6B C1B 1_555 1_555
C7B C7 1_555 1_555
C5 C6 1_555 1_555
O1B C7B 1_555 1_555
C5B C6B 1_555 1_555

#END
