
#######################################################################
#
#                 Cambridge Crystallographic Data Centre
#                                CCDC 
#
#######################################################################
#
# If this CIF has been generated from an entry in the Cambridge 
# Structural Database, then it will include bibliographic, chemical, 
# crystal, experimental, refinement or atomic coordinate data resulting 
# from the CCDC's data processing and validation procedures.
#
#######################################################################

data_SEJTAF
_chemical_formula_moiety         'C17 H15 Br2 N1 O2'
_chemical_name_systematic        
6-bromo-N-(4-bromophenyl)-2,3,3a,9a-tetrahydro-4H-furo[2,3-b]chromen-4-amine
_symmetry_cell_setting           orthorhombic
_symmetry_space_group_name_H-M   'P 21 21 21'
_symmetry_Int_Tables_number      19
_space_group_name_Hall           'P 2ac 2ab'
loop_
_symmetry_equiv_pos_site_id
_symmetry_equiv_pos_as_xyz
1 x,y,z
2 1/2-x,-y,1/2+z
3 1/2+x,1/2-y,-z
4 -x,1/2+y,1/2-z
_cell_length_a                   6.19070(10)
_cell_length_b                   15.2739(3)
_cell_length_c                   17.2701(3)
_cell_angle_alpha                90
_cell_angle_beta                 90
_cell_angle_gamma                90
_cell_volume                     1632.99
_exptl_crystal_description       block
_cell_formula_units_Z            4
loop_
_atom_site_label
_atom_site_type_symbol
_atom_site_fract_x
_atom_site_fract_y
_atom_site_fract_z
Br1 Br 1.15006(14) 0.55564(4) 0.45416(4)
Br2 Br 0.7854(2) 0.79793(6) 0.05138(5)
C1 C 0.9811(8) 0.8386(3) 0.3704(3)
O1 O 0.3338(6) 1.0193(3) 0.2903(3)
N1 N 0.9363(6) 0.9229(3) 0.3461(3)
H1 H 1.0418 0.9587 0.3397
O2 O 0.4714(8) 1.1578(3) 0.2876(5)
C2 C 1.2298(9) 0.7370(4) 0.4302(3)
H2 H 1.3622 0.7253 0.4534
C3 C 0.8288(9) 1.1107(3) 0.2903(4)
H3 H 0.9654 1.1271 0.3137
H4 H 0.8560 1.0825 0.2409
C4 C 0.7357(9) 0.8805(3) 0.1968(3)
H5 H 0.8700 0.8560 0.2075
C5 C 1.0817(10) 0.6714(4) 0.4205(3)
C6 C 0.4330(9) 0.9681(3) 0.2345(4)
C7 C 0.6375(13) 0.8654(4) 0.1258(4)
C8 C 0.4648(10) 1.0814(4) 0.3302(5)
H6 H 0.3978 1.0941 0.3804
C9 C 0.4326(13) 0.8987(5) 0.1100(5)
H7 H 0.3641 0.8857 0.0635
C10 C 0.6341(8) 0.9320(3) 0.2518(3)
C11 C 0.8817(9) 0.6868(3) 0.3881(3)
H8 H 0.7818 0.6416 0.3833
C12 C 0.8317(8) 0.7707(3) 0.3627(3)
H9 H 0.6977 0.7817 0.3405
C13 C 0.7210(7) 0.9528(3) 0.3313(3)
H10 H 0.6263 0.9237 0.3688
C14 C 0.6849(13) 1.1876(5) 0.2812(5)
H11 H 0.7150 1.2306 0.3211
H12 H 0.7076 1.2148 0.2311
C15 C 0.6971(8) 1.0515(4) 0.3441(3)
H13 H 0.7363 1.0650 0.3978
C16 C 0.3330(10) 0.9510(5) 0.1641(5)
H14 H 0.1982 0.9751 0.1535
C17 C 1.1812(8) 0.8209(4) 0.4052(3)
H15 H 1.2816 0.8657 0.4115
loop_
_geom_bond_atom_site_label_1
_geom_bond_atom_site_label_2
_geom_bond_site_symmetry_1
_geom_bond_site_symmetry_2
Br1 C5 1_555 1_555
Br2 C7 1_555 1_555
C1 N1 1_555 1_555
O1 C6 1_555 1_555
N1 H1 1_555 1_555
O2 C8 1_555 1_555
C2 H2 1_555 1_555
C3 H3 1_555 1_555
H4 C3 1_555 1_555
C4 H5 1_555 1_555
C5 C2 1_555 1_555
C6 C10 1_555 1_555
C7 C4 1_555 1_555
C8 O1 1_555 1_555
H6 C8 1_555 1_555
C9 C7 1_555 1_555
H7 C9 1_555 1_555
C10 C4 1_555 1_555
C11 C5 1_555 1_555
H8 C11 1_555 1_555
C12 C1 1_555 1_555
H9 C12 1_555 1_555
C13 N1 1_555 1_555
H10 C13 1_555 1_555
C14 O2 1_555 1_555
H11 C14 1_555 1_555
H12 C14 1_555 1_555
C15 C3 1_555 1_555
H13 C15 1_555 1_555
C16 C6 1_555 1_555
H14 C16 1_555 1_555
C17 C1 1_555 1_555
H15 C17 1_555 1_555
C2 C17 1_555 1_555
C3 C14 1_555 1_555
C8 C15 1_555 1_555
C9 C16 1_555 1_555
C10 C13 1_555 1_555
C11 C12 1_555 1_555
C13 C15 1_555 1_555

#END
