
#######################################################################
#
#                 Cambridge Crystallographic Data Centre
#                                CCDC 
#
#######################################################################
#
# If this CIF has been generated from an entry in the Cambridge 
# Structural Database, then it will include bibliographic, chemical, 
# crystal, experimental, refinement or atomic coordinate data resulting 
# from the CCDC's data processing and validation procedures.
#
#######################################################################

data_SEKBAL01
_chemical_name_common            
'9H-Dibenzo(a,j)-9-(2-hydroxynaphth-1-yl)xanthene isopropanol solvate'
_chemical_formula_moiety         'C31 H20 O2,C3 H8 O1'
_chemical_name_systematic        
'1-(14H-Dibenzo(a,j)xanthen-14-yl)naphth-2-ol isopropanol solvate'
_symmetry_cell_setting           monoclinic
_symmetry_space_group_name_H-M   'P 21/n'
_symmetry_Int_Tables_number      14
_space_group_name_Hall           '-P 2yn'
loop_
_symmetry_equiv_pos_site_id
_symmetry_equiv_pos_as_xyz
1 x,y,z
2 1/2-x,1/2+y,1/2-z
3 -x,-y,-z
4 1/2+x,1/2-y,1/2+z
_cell_length_a                   7.9572(5)
_cell_length_b                   17.4791(10)
_cell_length_c                   18.7457(8)
_cell_angle_alpha                90
_cell_angle_beta                 100.955(4)
_cell_angle_gamma                90
_cell_volume                     2559.73
_exptl_crystal_colour            yellow
_exptl_crystal_description       plate
_chemical_melting_point          '275 deg.C'
_cell_formula_units_Z            4
loop_
_atom_site_label
_atom_site_type_symbol
_atom_site_fract_x
_atom_site_fract_y
_atom_site_fract_z
O1 O 0.2362(3) 0.0577(1) 0.5398(1)
C1 C 0.5289(4) 0.1467(2) 0.5136(2)
C2 C 0.3623(4) 0.1371(2) 0.4584(2)
O2 O 0.8098(3) 0.2308(2) 0.4881(1)
C3 C 0.3384(5) 0.1716(2) 0.3875(2)
C4 C 0.4718(5) 0.2086(2) 0.3612(2)
C5 C 0.4453(6) 0.2399(2) 0.2926(2)
C6 C 0.2854(6) 0.2356(3) 0.2469(2)
C7 C 0.1534(6) 0.1996(2) 0.2702(2)
C8 C 0.1769(5) 0.1666(2) 0.3403(2)
C9 C 0.0397(5) 0.1283(2) 0.3642(2)
C10 C 0.0659(5) 0.0926(2) 0.4298(2)
C11 C 0.2269(4) 0.0971(2) 0.4750(2)
C12 C 0.5368(4) 0.0899(2) 0.5762(2)
C13 C 0.6924(4) 0.0754(2) 0.6270(2)
C14 C 0.8518(4) 0.1080(2) 0.6204(2)
C15 C 0.9964(5) 0.0941(2) 0.6707(2)
C16 C 0.9927(5) 0.0466(2) 0.7304(2)
C17 C 0.8432(5) 0.0122(2) 0.7372(2)
C18 C 0.6905(4) 0.0249(2) 0.6866(2)
C19 C 0.5353(5) -0.0127(2) 0.6928(2)
C20 C 0.3918(5) -0.0011(2) 0.6432(2)
C21 C 0.3932(4) 0.0505(2) 0.5849(2)
C22 C 0.5569(4) 0.2308(2) 0.5372(2)
C23 C 0.6954(5) 0.2693(2) 0.5207(2)
C24 C 0.7220(6) 0.3480(2) 0.5353(2)
C25 C 0.6084(6) 0.3883(2) 0.5652(2)
C26 C 0.4633(5) 0.3534(2) 0.5850(2)
C27 C 0.3451(6) 0.3950(2) 0.6168(2)
C28 C 0.2110(6) 0.3604(2) 0.6379(2)
C29 C 0.1861(5) 0.2819(2) 0.6269(2)
C30 C 0.2963(4) 0.2399(2) 0.5948(2)
C31 C 0.4397(4) 0.2727(2) 0.5717(2)
H1 H 0.6221(4) 0.1332(2) 0.4885(2)
H2 H 0.8781(37) 0.2611(4) 0.4763(23)
H3 H 0.5796(5) 0.2120(2) 0.3907(2)
H4 H 0.5352(6) 0.2641(2) 0.2765(2)
H5 H 0.2687(6) 0.2572(3) 0.2008(2)
H6 H 0.0468(6) 0.1966(2) 0.2397(2)
H7 H -0.0684(5) 0.1277(2) 0.3347(2)
H8 H -0.0224(5) 0.0656(2) 0.4445(2)
H9 H 0.8579(4) 0.1396(2) 0.5810(2)
H10 H 1.0991(5) 0.1165(2) 0.6652(2)
H11 H 1.0913(5) 0.0387(2) 0.7651(2)
H12 H 0.8417(5) -0.0205(2) 0.7762(2)
H13 H 0.5330(5) -0.0455(2) 0.7317(2)
H14 H 0.2917(5) -0.0270(2) 0.6470(2)
H15 H 0.8181(6) 0.3721(2) 0.5244(2)
H16 H 0.6260(6) 0.4404(2) 0.5731(2)
H17 H 0.3598(6) 0.4475(2) 0.6235(2)
H18 H 0.1355(6) 0.3887(2) 0.6597(2)
H19 H 0.0938(5) 0.2580(2) 0.6415(2)
H20 H 0.2765(4) 0.1877(2) 0.5880(2)
O3 O 1.0583(5) 0.3162(2) 0.4481(2)
C32 C 1.0647(7) 0.3616(3) 0.3879(3)
C33 C 0.9003(9) 0.3603(6) 0.3387(4)
C34 C 1.0982(23) 0.4416(6) 0.4092(7)
H21 H 1.0307(95) 0.3425(9) 0.4802(15)
H22 H 1.1540(7) 0.3428(3) 0.3629(3)
H23 H 0.9055(9) 0.3918(6) 0.2973(4)
H24 H 0.8136(9) 0.3796(6) 0.3633(4)
H25 H 0.8730(9) 0.3088(6) 0.3231(4)
H26 H 1.2064(23) 0.4453(6) 0.4419(7)
H27 H 1.0091(23) 0.4601(6) 0.4328(7)
H28 H 1.1011(23) 0.4719(6) 0.3667(7)
C35? C 1.2241(27) 0.3990(14) 0.3941(11)
H29? H 1.2997(27) 0.3818(14) 0.4372(11)
H30? H 1.2078(27) 0.4533(14) 0.3969(11)
H31? H 1.2732(27) 0.3874(14) 0.3524(11)
loop_
_geom_bond_atom_site_label_1
_geom_bond_atom_site_label_2
_geom_bond_site_symmetry_1
_geom_bond_site_symmetry_2
O1 C11 1_555 1_555
C1 C2 1_555 1_555
C2 C3 1_555 1_555
O2 C23 1_555 1_555
C3 C4 1_555 1_555
C4 C5 1_555 1_555
C5 C6 1_555 1_555
C6 C7 1_555 1_555
C7 C8 1_555 1_555
C8 C3 1_555 1_555
C9 C8 1_555 1_555
C10 C9 1_555 1_555
C11 C2 1_555 1_555
C12 C1 1_555 1_555
C13 C12 1_555 1_555
C14 C13 1_555 1_555
C15 C14 1_555 1_555
C16 C15 1_555 1_555
C17 C16 1_555 1_555
C18 C13 1_555 1_555
C19 C18 1_555 1_555
C20 C19 1_555 1_555
C21 O1 1_555 1_555
C22 C1 1_555 1_555
C23 C22 1_555 1_555
C24 C23 1_555 1_555
C25 C24 1_555 1_555
C26 C25 1_555 1_555
C27 C26 1_555 1_555
C28 C27 1_555 1_555
C29 C28 1_555 1_555
C30 C29 1_555 1_555
C31 C22 1_555 1_555
O3 C32 1_555 1_555
C32 C33 1_555 1_555
C33 H23 1_555 1_555
C34 C32 1_555 1_555
H1 C1 1_555 1_555
H2 O2 1_555 1_555
H3 C4 1_555 1_555
H4 C5 1_555 1_555
H5 C6 1_555 1_555
H6 C7 1_555 1_555
H7 C9 1_555 1_555
H8 C10 1_555 1_555
H9 C14 1_555 1_555
H10 C15 1_555 1_555
H11 C16 1_555 1_555
H12 C17 1_555 1_555
H13 C19 1_555 1_555
H14 C20 1_555 1_555
H15 C24 1_555 1_555
H16 C25 1_555 1_555
H17 C27 1_555 1_555
H18 C28 1_555 1_555
H19 C29 1_555 1_555
H20 C30 1_555 1_555
H21 O3 1_555 1_555
H22 C32 1_555 1_555
H24 C33 1_555 1_555
H25 C33 1_555 1_555
H26 C34 1_555 1_555
H27 C34 1_555 1_555
H28 C34 1_555 1_555
C10 C11 1_555 1_555
C12 C21 1_555 1_555
C17 C18 1_555 1_555
C20 C21 1_555 1_555
C26 C31 1_555 1_555
C30 C31 1_555 1_555

#END
