
#######################################################################
#
#                 Cambridge Crystallographic Data Centre
#                                CCDC 
#
#######################################################################
#
# If this CIF has been generated from an entry in the Cambridge 
# Structural Database, then it will include bibliographic, chemical, 
# crystal, experimental, refinement or atomic coordinate data resulting 
# from the CCDC's data processing and validation procedures.
#
#######################################################################

data_SEKHUO
_chemical_formula_moiety         'C24 H15 N3'
_chemical_name_systematic        
4-{2-[(pyren-1-yl)methylidene]hydrazinyl}benzonitrile
_symmetry_cell_setting           triclinic
_symmetry_space_group_name_H-M   'P -1'
_symmetry_Int_Tables_number      2
_space_group_name_Hall           '-P 1'
loop_
_symmetry_equiv_pos_site_id
_symmetry_equiv_pos_as_xyz
1 x,y,z
2 -x,-y,-z
_cell_length_a                   7.1405(3)
_cell_length_b                   15.6868(6)
_cell_length_c                   16.3204(6)
_cell_angle_alpha                74.238(2)
_cell_angle_beta                 86.018(2)
_cell_angle_gamma                83.354(2)
_cell_volume                     1746.13
_exptl_crystal_colour            yellow
_exptl_crystal_description       rod
_cell_formula_units_Z            4
loop_
_atom_site_label
_atom_site_type_symbol
_atom_site_fract_x
_atom_site_fract_y
_atom_site_fract_z
N1 N 0.33048(19) 0.39961(9) 0.51905(9)
N2 N 0.4042(2) 0.33190(9) 0.48605(10)
H1 H 0.4210 0.3417 0.4317
C1 C 0.1604(2) 0.63290(10) 0.42902(10)
C2 C 0.4524(2) 0.24876(10) 0.53690(11)
C3 C 0.2067(2) 0.55197(10) 0.49003(10)
C4 C 0.0849(2) 0.70890(10) 0.45621(10)
C5 C 0.0400(2) 0.79185(10) 0.39587(10)
C6 C 0.1840(2) 0.64327(11) 0.33863(10)
H2 H 0.2314 0.5944 0.3189
C7 C 0.2857(2) 0.47347(11) 0.46487(11)
H3 H 0.3045 0.4769 0.4071
C8 C 0.1392(3) 0.72173(11) 0.28204(11)
H4 H 0.1560 0.7255 0.2242
C9 C 0.0528(2) 0.70259(12) 0.54432(10)
C10 C -0.0332(2) 0.86802(12) 0.42342(12)
C11 C 0.0671(2) 0.79910(11) 0.30769(11)
C12 C 0.5279(3) 0.18221(12) 0.49909(12)
H5 H 0.5455 0.1954 0.4402
C13 C 0.4272(2) 0.22860(11) 0.62462(11)
H6 H 0.3772 0.2724 0.6509
C14 C 0.1733(3) 0.54801(13) 0.57627(11)
H7 H 0.2028 0.4945 0.6169
C15 C 0.0982(3) 0.62102(13) 0.60232(11)
H8 H 0.0770 0.6159 0.6602
C16 C 0.5763(3) 0.09804(12) 0.54738(14)
H9 H 0.6270 0.0542 0.5213
C17 C -0.0641(3) 0.85837(14) 0.51225(14)
H10 H -0.1125 0.9076 0.5312
C18 C -0.0256(3) 0.78061(14) 0.56890(12)
H11 H -0.0503 0.7767 0.6264
C19 C -0.0739(3) 0.94832(12) 0.36233(15)
H12 H -0.1196 0.9989 0.3797
C20 C 0.5505(3) 0.07744(12) 0.63475(13)
C21 C 0.4764(3) 0.14362(13) 0.67256(12)
H13 H 0.4598 0.1302 0.7315
C22 C 0.0213(3) 0.88060(12) 0.24963(13)
H14 H 0.0376 0.8855 0.1916
C23 C -0.0478(3) 0.95428(13) 0.27702(15)
H15 H -0.0771 1.0085 0.2373
C24 C 0.5971(3) -0.01087(14) 0.68596(16)
N3 N 0.6319(4) -0.08089(14) 0.72737(18)
N4 N 0.7019(2) 0.71117(9) 0.91151(9)
N5 N 0.8225(2) 0.76046(10) 0.85497(10)
H16 H 0.7879 0.8157 0.8322
C25 C 0.9960(2) 0.72558(11) 0.83316(10)
C26 C 0.3986(2) 0.71180(10) 0.98295(10)
C27 C 0.0876(2) 0.71715(10) 1.05410(10)
C28 C 0.1242(3) 0.62601(11) 1.09804(11)
C29 C 0.2263(2) 0.76035(10) 0.99628(10)
C30 C -0.0883(2) 0.76426(11) 1.06888(10)
C31 C 1.0639(2) 0.63699(11) 0.86582(11)
H17 H 0.9907 0.5985 0.9051
C32 C 0.2956(3) 0.58039(12) 1.08240(12)
H18 H 0.3200 0.5204 1.1106
C33 C 0.5443(2) 0.75349(11) 0.92494(11)
H19 H 0.5222 0.8134 0.8963
C34 C 0.1810(3) 0.85292(11) 0.95378(11)
H20 H 0.2697 0.8831 0.9158
C35 C -0.1276(3) 0.85499(12) 1.02513(11)
C36 C 1.2397(3) 0.60671(12) 0.83974(12)
H21 H 1.2843 0.5471 0.8609
C37 C 0.4286(3) 0.62191(12) 1.02648(12)
H22 H 0.5419 0.5896 1.0172
C38 C 1.3521(3) 0.66340(12) 0.78230(11)
C39 C 1.1109(3) 0.78248(12) 0.77631(11)
H23 H 1.0671 0.8421 0.7550
C40 C 1.2866(3) 0.75210(13) 0.75136(11)
H24 H 1.3619 0.7909 0.7137
C41 C 0.0143(3) 0.89688(12) 0.96750(12)
H25 H -0.0093 0.9566 0.9385
C42 C -0.0163(3) 0.58470(13) 1.15743(12)
H26 H 0.0078 0.5252 1.1873
C43 C -0.1816(3) 0.62932(14) 1.17114(13)
H27 H -0.2698 0.6001 1.2102
N6 N 1.6728(3) 0.60552(16) 0.72663(13)
C44 C -0.2255(3) 0.72049(13) 1.12736(11)
C45 C 1.5319(3) 0.63098(15) 0.75262(12)
C46 C -0.3970(3) 0.76878(17) 1.13996(14)
H28 H -0.4880 0.7408 1.1782
C47 C -0.3010(3) 0.89985(15) 1.04022(13)
H29 H -0.3277 0.9596 1.0117
C48 C -0.4334(3) 0.85660(18) 1.09692(15)
H30 H -0.5488 0.8874 1.1061
loop_
_geom_bond_atom_site_label_1
_geom_bond_atom_site_label_2
_geom_bond_site_symmetry_1
_geom_bond_site_symmetry_2
N1 N2 1_555 1_555
N2 H1 1_555 1_555
C1 C3 1_555 1_555
C2 N2 1_555 1_555
C3 C7 1_555 1_555
C4 C1 1_555 1_555
C5 C4 1_555 1_555
C6 C1 1_555 1_555
H2 C6 1_555 1_555
C7 N1 1_555 1_555
H3 C7 1_555 1_555
C8 C6 1_555 1_555
H4 C8 1_555 1_555
C9 C4 1_555 1_555
C10 C5 1_555 1_555
C11 C5 1_555 1_555
C12 C2 1_555 1_555
H5 C12 1_555 1_555
C13 C2 1_555 1_555
H6 C13 1_555 1_555
C14 C3 1_555 1_555
H7 C14 1_555 1_555
C15 C9 1_555 1_555
H8 C15 1_555 1_555
C16 C12 1_555 1_555
H9 C16 1_555 1_555
C17 C10 1_555 1_555
H10 C17 1_555 1_555
C18 C9 1_555 1_555
H11 C18 1_555 1_555
C19 C10 1_555 1_555
H12 C19 1_555 1_555
C20 C16 1_555 1_555
C21 C13 1_555 1_555
H13 C21 1_555 1_555
C22 C11 1_555 1_555
H14 C22 1_555 1_555
C23 C19 1_555 1_555
H15 C23 1_555 1_555
C24 C20 1_555 1_555
N3 C24 1_555 1_555
N4 N5 1_555 1_555
N5 H16 1_555 1_555
C25 N5 1_555 1_555
C26 C29 1_555 1_555
C27 C28 1_555 1_555
C28 C32 1_555 1_555
C29 C27 1_555 1_555
C30 C27 1_555 1_555
C31 C25 1_555 1_555
H17 C31 1_555 1_555
C32 H18 1_555 1_555
C33 N4 1_555 1_555
H19 C33 1_555 1_555
C34 C29 1_555 1_555
H20 C34 1_555 1_555
C35 C30 1_555 1_555
C36 C31 1_555 1_555
H21 C36 1_555 1_555
C37 C26 1_555 1_555
H22 C37 1_555 1_555
C38 C36 1_555 1_555
C39 C25 1_555 1_555
H23 C39 1_555 1_555
C40 C38 1_555 1_555
H24 C40 1_555 1_555
C41 C34 1_555 1_555
H25 C41 1_555 1_555
C42 C28 1_555 1_555
H26 C42 1_555 1_555
C43 C42 1_555 1_555
H27 C43 1_555 1_555
N6 C45 1_555 1_555
C44 C30 1_555 1_555
C45 C38 1_555 1_555
C46 C44 1_555 1_555
H28 C46 1_555 1_555
C47 C35 1_555 1_555
H29 C47 1_555 1_555
C48 C46 1_555 1_555
H30 C48 1_555 1_555
C8 C11 1_555 1_555
C14 C15 1_555 1_555
C17 C18 1_555 1_555
C20 C21 1_555 1_555
C22 C23 1_555 1_555
C26 C33 1_555 1_555
C32 C37 1_555 1_555
C35 C41 1_555 1_555
C39 C40 1_555 1_555
C43 C44 1_555 1_555
C47 C48 1_555 1_555

#END
