
#######################################################################
#
#                 Cambridge Crystallographic Data Centre
#                                CCDC 
#
#######################################################################
#
# If this CIF has been generated from an entry in the Cambridge 
# Structural Database, then it will include bibliographic, chemical, 
# crystal, experimental, refinement or atomic coordinate data resulting 
# from the CCDC's data processing and validation procedures.
#
#######################################################################

data_SEKKOL
_chemical_formula_moiety         'C54 H44 S4'
_chemical_name_systematic        
{ethene-1,1,2,2-tetrayltetrakis[([1,1'-biphenyl]-4',2-diyl)]}tetramethanethiol
_symmetry_cell_setting           triclinic
_symmetry_space_group_name_H-M   'P -1'
_symmetry_Int_Tables_number      2
_space_group_name_Hall           '-P 1'
loop_
_symmetry_equiv_pos_site_id
_symmetry_equiv_pos_as_xyz
1 x,y,z
2 -x,-y,-z
_cell_length_a                   11.2121(16)
_cell_length_b                   13.2318(18)
_cell_length_c                   16.716(2)
_cell_angle_alpha                69.320(4)
_cell_angle_beta                 82.894(5)
_cell_angle_gamma                71.470(4)
_cell_volume                     2199.67
_exptl_crystal_colour            colorless
_exptl_crystal_description       Block
_cell_formula_units_Z            2
loop_
_atom_site_label
_atom_site_type_symbol
_atom_site_fract_x
_atom_site_fract_y
_atom_site_fract_z
H3 H 0.655(2) 0.152(3) 1.0044(19)
C2 C 0.7624(13) 0.2319(8) 0.9079(5)
H4 H 0.8076 0.2242 0.8560
H5 H 0.6742 0.2681 0.8936
S2 S 0.7781(5) 0.0926(3) 0.9836(2)
C3 C 0.8636(6) 0.0112(5) 0.7806(3)
H6 H 0.8147 -0.0199 0.8299
H7 H 0.8166 0.0895 0.7525
C4 C 0.8809(5) -0.0532(4) 0.7202(3)
C5 C 0.9054(6) -0.1716(5) 0.7550(4)
H8 H 0.9120 -0.2063 0.8140
C6 C 0.9195(6) -0.2355(5) 0.7054(4)
H9 H 0.9368 -0.3135 0.7302
C7 C 0.9085(6) -0.1863(5) 0.6183(5)
H10 H 0.9185 -0.2300 0.5835
C8 C 0.8815(5) -0.0677(4) 0.5829(3)
H11 H 0.8736 -0.0335 0.5240
C9 C 0.8667(5) -0.0018(4) 0.6321(3)
C10 C 0.8347(5) 0.1237(4) 0.5898(3)
C11 C 0.9146(5) 0.1825(4) 0.5966(3)
H12 H 0.9875 0.1432 0.6285
C12 C 0.8871(5) 0.2979(4) 0.5569(3)
H13 H 0.9428 0.3348 0.5614
C13 C 0.7782(4) 0.3598(3) 0.5102(3)
C14 C 0.7022(5) 0.3004(4) 0.5017(3)
H14 H 0.6307 0.3395 0.4684
C15 C 0.7287(5) 0.1836(4) 0.5414(3)
H15 H 0.6745 0.1465 0.5351
C16 C 0.7476(4) 0.4848(3) 0.4677(3)
C17 C 0.7552(4) 0.5536(3) 0.5093(3)
C18 C 0.7738(5) 0.5119(3) 0.6037(3)
C19 C 0.6823(5) 0.4756(4) 0.6603(3)
H16 H 0.6101 0.4742 0.6393
C20 C 0.6977(5) 0.4416(4) 0.7476(3)
H17 H 0.6345 0.4189 0.7842
C21 C 0.8040(5) 0.4403(4) 0.7821(3)
C22 C 0.8950(5) 0.4746(4) 0.7258(3)
H18 H 0.9687 0.4731 0.7470
C23 C 0.8794(5) 0.5117(4) 0.6378(3)
H19 H 0.9415 0.5367 0.6014
C24 C 0.8174(5) 0.4112(4) 0.8770(3)
C25 C 0.8375(7) 0.4891(6) 0.9068(4)
H20 H 0.8429 0.5579 0.8677
C26 C 0.8497(8) 0.4688(8) 0.9912(5)
H21 H 0.8633 0.5228 1.0096
C27 C 0.8416(7) 0.3676(7) 1.0491(5)
H22 H 0.8510 0.3524 1.1071
C28 C 0.8200(8) 0.2900(6) 1.0227(4)
H23 H 0.8127 0.2225 1.0629
C29 C 0.8085(7) 0.3093(5) 0.9356(4)
C30 C 0.7357(4) 0.6771(3) 0.4683(3)
C31 C 0.7922(4) 0.7235(4) 0.3921(3)
H24 H 0.8478 0.6754 0.3657
C32 C 0.7690(4) 0.8395(3) 0.3531(3)
H25 H 0.8076 0.8678 0.3010
C33 C 0.6879(4) 0.9137(3) 0.3919(3)
C34 C 0.6335(5) 0.8670(4) 0.4701(3)
H26 H 0.5798 0.9146 0.4976
C35 C 0.6576(5) 0.7514(4) 0.5079(3)
H27 H 0.6210 0.7227 0.5607
C36 C 0.6583(5) 1.0392(4) 0.3510(3)
C37 C 0.7515(5) 1.0910(4) 0.3423(3)
H28 H 0.8328 1.0471 0.3599
C38 C 0.7249(6) 1.2060(5) 0.3082(4)
H29 H 0.7882 1.2397 0.3024
C39 C 0.6047(7) 1.2720(5) 0.2822(3)
H30 H 0.5866 1.3503 0.2608
C40 C 0.5122(6) 1.2233(4) 0.2877(3)
H31 H 0.4318 1.2686 0.2689
C41 C 0.5368(5) 1.1065(4) 0.3214(3)
C42 C 0.4334(5) 1.0553(4) 0.3258(3)
H32 H 0.3540 1.1148 0.3146
H33 H 0.4290 1.0035 0.3834
C43 C 0.7095(4) 0.5282(3) 0.3763(2)
C44 C 0.7787(5) 0.4763(4) 0.3199(3)
H34 H 0.8463 0.4117 0.3398
C45 C 0.7490(5) 0.5191(4) 0.2341(3)
H35 H 0.7991 0.4845 0.1968
C46 C 0.6445(5) 0.6136(4) 0.2022(3)
C47 C 0.5711(5) 0.6594(4) 0.2612(3)
H36 H 0.4985 0.7192 0.2427
C48 C 0.6021(4) 0.6193(4) 0.3462(3)
H37 H 0.5513 0.6529 0.3838
C49 C 0.6148(6) 0.6613(4) 0.1100(3)
C50 C 0.5657(6) 0.6024(5) 0.0743(4)
H38 H 0.5543 0.5334 0.1086
C51 C 0.5333(8) 0.6451(7) -0.0118(5)
H39 H 0.5009 0.6055 -0.0354
C52 C 0.5506(10) 0.7468(9) -0.0604(5)
H40 H 0.5288 0.7765 -0.1178
C53 C 0.5988(9) 0.8060(7) -0.0276(4)
H41 H 0.6100 0.8746 -0.0629
C54 C 0.6318(7) 0.7646(6) 0.0590(4)
C55 C 0.6855(7) 0.8302(6) 0.0934(4)
H42 H 0.6564 0.8211 0.1520
H43 H 0.6556 0.9098 0.0600
S3 S 1.0119(2) 0.0060(2) 0.81639(13)
H44 H 0.992(4) -0.003(5) 0.9057(16)
S4 S 0.45460(17) 0.97888(14) 0.24988(11)
H45 H 0.5335 1.0063 0.2031
S5 S 0.8561(3) 0.7838(3) 0.0906(3)
H46 H 0.8659 0.8809 0.0417
C1? C 0.8423(19) 0.2065(10) 0.9063(7)
H1? H 0.9151 0.1496 0.9374
H2? H 0.8642 0.2286 0.8459
S1? S 0.7098(9) 0.1455(8) 0.9244(7)
loop_
_geom_bond_atom_site_label_1
_geom_bond_atom_site_label_2
_geom_bond_site_symmetry_1
_geom_bond_site_symmetry_2
H3 S2 1_555 1_555
C2 H4 1_555 1_555
H5 C2 1_555 1_555
S2 C2 1_555 1_555
C3 H6 1_555 1_555
H7 C3 1_555 1_555
C4 C3 1_555 1_555
C5 C4 1_555 1_555
H8 C5 1_555 1_555
C6 C5 1_555 1_555
H9 C6 1_555 1_555
C7 C6 1_555 1_555
H10 C7 1_555 1_555
C8 C7 1_555 1_555
H11 C8 1_555 1_555
C9 C4 1_555 1_555
C10 C9 1_555 1_555
C11 C10 1_555 1_555
H12 C11 1_555 1_555
C12 C11 1_555 1_555
H13 C12 1_555 1_555
C13 C12 1_555 1_555
C14 C13 1_555 1_555
H14 C14 1_555 1_555
C15 C10 1_555 1_555
H15 C15 1_555 1_555
C16 C13 1_555 1_555
C17 C16 1_555 1_555
C18 C17 1_555 1_555
C19 C18 1_555 1_555
H16 C19 1_555 1_555
C20 C19 1_555 1_555
H17 C20 1_555 1_555
C21 C20 1_555 1_555
C22 C21 1_555 1_555
H18 C22 1_555 1_555
C23 C18 1_555 1_555
H19 C23 1_555 1_555
C24 C21 1_555 1_555
C25 C24 1_555 1_555
H20 C25 1_555 1_555
C26 C25 1_555 1_555
H21 C26 1_555 1_555
C27 C26 1_555 1_555
H22 C27 1_555 1_555
C28 C27 1_555 1_555
H23 C28 1_555 1_555
C29 C2 1_555 1_555
C30 C17 1_555 1_555
C31 C30 1_555 1_555
H24 C31 1_555 1_555
C32 C31 1_555 1_555
H25 C32 1_555 1_555
C33 C32 1_555 1_555
C34 C33 1_555 1_555
H26 C34 1_555 1_555
C35 C30 1_555 1_555
H27 C35 1_555 1_555
C36 C33 1_555 1_555
C37 C36 1_555 1_555
H28 C37 1_555 1_555
C38 C37 1_555 1_555
H29 C38 1_555 1_555
C39 C38 1_555 1_555
H30 C39 1_555 1_555
C40 C39 1_555 1_555
H31 C40 1_555 1_555
C41 C36 1_555 1_555
C42 C41 1_555 1_555
H32 C42 1_555 1_555
H33 C42 1_555 1_555
C43 C16 1_555 1_555
C44 C43 1_555 1_555
H34 C44 1_555 1_555
C45 C44 1_555 1_555
H35 C45 1_555 1_555
C46 C45 1_555 1_555
C47 C46 1_555 1_555
H36 C47 1_555 1_555
C48 C43 1_555 1_555
H37 C48 1_555 1_555
C49 C46 1_555 1_555
C50 C49 1_555 1_555
H38 C50 1_555 1_555
C51 C50 1_555 1_555
H39 C51 1_555 1_555
C52 C51 1_555 1_555
H40 C52 1_555 1_555
C53 C52 1_555 1_555
H41 C53 1_555 1_555
C54 C49 1_555 1_555
C55 C54 1_555 1_555
H42 C55 1_555 1_555
H43 C55 1_555 1_555
S3 C3 1_555 1_555
H44 S3 1_555 1_555
S4 C42 1_555 1_555
H45 S4 1_555 1_555
S5 C55 1_555 1_555
H46 S5 1_555 1_555
C8 C9 1_555 1_555
C14 C15 1_555 1_555
C22 C23 1_555 1_555
C24 C29 1_555 1_555
C28 C29 1_555 1_555
C34 C35 1_555 1_555
C40 C41 1_555 1_555
C47 C48 1_555 1_555
C53 C54 1_555 1_555

#END
