
#######################################################################
#
#                 Cambridge Crystallographic Data Centre
#                                CCDC 
#
#######################################################################
#
# If this CIF has been generated from an entry in the Cambridge 
# Structural Database, then it will include bibliographic, chemical, 
# crystal, experimental, refinement or atomic coordinate data resulting 
# from the CCDC's data processing and validation procedures.
#
#######################################################################

data_SEKLIG
_chemical_formula_moiety         'C7 H3 N7 O12'
_chemical_name_systematic        2,6-bis(trinitromethyl)pyridine
_symmetry_cell_setting           triclinic
_symmetry_space_group_name_H-M   'P -1'
_symmetry_Int_Tables_number      2
_space_group_name_Hall           '-P 1'
loop_
_symmetry_equiv_pos_site_id
_symmetry_equiv_pos_as_xyz
1 x,y,z
2 -x,-y,-z
_cell_length_a                   7.5655(3)
_cell_length_b                   11.7552(4)
_cell_length_c                   31.9329(11)
_cell_angle_alpha                79.435(3)
_cell_angle_beta                 87.936(3)
_cell_angle_gamma                78.473(3)
_cell_volume                     2735.47
_exptl_crystal_colour            colorless
_exptl_crystal_description       block
_chemical_melting_point          '96 deg.C'
_cell_formula_units_Z            8
_exptl_crystal_recrystallization_method dichloromethane/n-hexane
loop_
_atom_site_label
_atom_site_type_symbol
_atom_site_fract_x
_atom_site_fract_y
_atom_site_fract_z
C1 C 0.2522(5) 0.9287(3) 0.44400(12)
C2 C 0.3761(5) 0.8746(3) 0.41117(12)
C3 C 0.5618(5) 0.8440(3) 0.41816(12)
H1 H 0.6148 0.8572 0.4429
C4 C 0.6647(5) 0.7934(3) 0.38721(14)
H2 H 0.7918 0.7706 0.3906
C5 C 0.5864(5) 0.7761(3) 0.35218(13)
H3 H 0.6561 0.7398 0.3311
C6 C 0.3988(5) 0.8136(3) 0.34790(12)
C7 C 0.2984(5) 0.7997(3) 0.30985(13)
N1 N 0.2276(4) 0.8374(3) 0.48406(11)
N2 N 0.3287(4) 1.0234(3) 0.46049(10)
N3 N 0.0651(4) 0.9857(3) 0.42500(12)
N4 N 0.2932(4) 0.8602(3) 0.37688(11)
N5 N 0.0950(4) 0.8356(3) 0.31499(10)
N6 N 0.3447(4) 0.8731(3) 0.26688(10)
N7 N 0.3373(4) 0.6703(3) 0.30286(12)
O1 O 0.3612(4) 0.7604(2) 0.49421(8)
O2 O 0.0850(4) 0.8522(2) 0.50242(9)
O3 O 0.3062(3) 1.0266(2) 0.49855(8)
O4 O 0.4038(4) 1.0860(3) 0.43430(11)
O5 O -0.0335(4) 0.9186(3) 0.42132(10)
O6 O 0.0369(4) 1.0931(3) 0.41487(9)
O7 O 0.0111(4) 0.7547(3) 0.32389(11)
O8 O 0.0364(4) 0.9403(3) 0.31189(10)
O9 O 0.2265(4) 0.9055(3) 0.23993(9)
O10 O 0.4986(4) 0.8908(2) 0.26391(10)
O11 O 0.3400(4) 0.6546(3) 0.26552(10)
O12 O 0.3615(5) 0.5969(3) 0.33415(11)
C8 C 0.2141(5) 0.4488(3) 0.43529(12)
C9 C 0.3420(5) 0.3883(3) 0.40487(13)
C10 C 0.5285(5) 0.3651(3) 0.41234(13)
H4 H 0.5789 0.3853 0.4361
C11 C 0.6348(5) 0.3101(3) 0.38219(14)
H5 H 0.7623 0.2920 0.3854
C12 C 0.5612(6) 0.2825(4) 0.34902(15)
H6 H 0.6344 0.2439 0.3290
C13 C 0.3711(5) 0.3123(3) 0.34442(13)
C14 C 0.2751(5) 0.2861(3) 0.30824(14)
N8 N 0.2378(4) 0.3803(3) 0.48098(11)
N9 N 0.2395(4) 0.5745(3) 0.43754(10)
N10 N 0.0167(4) 0.4622(3) 0.42102(11)
N11 N 0.2627(4) 0.3611(3) 0.37264(11)
N12 N 0.0701(4) 0.3115(3) 0.31465(11)
N13 N 0.3104(4) 0.3597(3) 0.26425(11)
N14 N 0.3271(4) 0.1566(3) 0.30307(12)
O13 O 0.2612(4) 0.4348(3) 0.50882(9)
O14 O 0.2368(4) 0.2767(2) 0.48506(9)
O15 O 0.1071(4) 0.6406(2) 0.44904(11)
O16 O 0.3871(4) 0.5956(3) 0.42968(12)
O17 O -0.0698(3) 0.3935(2) 0.44102(9)
O18 O -0.0296(4) 0.5380(2) 0.39050(9)
O19 O 0.0014(4) 0.2251(3) 0.32649(10)
O20 O -0.0032(4) 0.4145(3) 0.30949(10)
O21 O 0.4591(4) 0.3832(3) 0.25939(10)
O22 O 0.1922(4) 0.3839(3) 0.23787(10)
O23 O 0.3827(5) 0.0870(3) 0.33419(10)
O24 O 0.3050(4) 0.1364(3) 0.26719(10)
C15 C 0.7945(5) 0.6107(3) 0.19261(13)
C16 C 0.8993(5) 0.6598(3) 0.15383(13)
C17 C 1.0825(5) 0.6265(3) 0.15097(14)
H7 H 1.1505 0.5710 0.1728
C18 C 1.1674(5) 0.6793(3) 0.11354(14)
H8 H 1.2941 0.6585 0.1097
C19 C 1.0614(5) 0.7609(3) 0.08313(14)
H9 H 1.1140 0.7988 0.0583
C20 C 0.8762(5) 0.7862(3) 0.08970(13)
C21 C 0.7530(5) 0.8715(3) 0.05681(13)
N15 N 0.8513(4) 0.6359(3) 0.23488(11)
N16 N 0.5941(4) 0.6582(3) 0.18589(10)
N17 N 0.8226(4) 0.4741(3) 0.19887(11)
N18 N 0.7934(4) 0.7378(3) 0.12382(11)
N19 N 0.5663(4) 0.9109(3) 0.07480(11)
N20 N 0.8295(4) 0.9832(3) 0.03982(10)
N21 N 0.7295(4) 0.8211(3) 0.01679(10)
O25 O 0.7346(4) 0.6456(3) 0.26217(10)
O26 O 1.0081(4) 0.6378(3) 0.23778(10)
O27 O 0.5443(4) 0.7613(2) 0.18989(9)
O28 O 0.5057(4) 0.5922(3) 0.17625(10)
O29 O 0.7965(4) 0.4224(2) 0.23334(11)
O30 O 0.8649(5) 0.4326(3) 0.16633(11)
O31 O 0.4682(4) 0.8411(3) 0.07906(11)
O32 O 0.5361(4) 1.0090(3) 0.08461(9)
O33 O 0.9069(4) 1.0199(2) 0.06625(11)
O34 O 0.8061(3) 1.0250(2) 0.00214(8)
O35 O 0.5841(4) 0.8540(2) -0.00224(10)
O36 O 0.8607(4) 0.7563(2) 0.00581(8)
C22 C 0.7811(5) 0.0949(3) 0.19356(13)
C23 C 0.8778(5) 0.1553(3) 0.15556(13)
C24 C 1.0638(5) 0.1322(3) 0.15337(13)
H10 H 1.1353 0.0773 0.1748
C25 C 1.1434(5) 0.1945(3) 0.11758(13)
H11 H 1.2706 0.1798 0.1138
C26 C 1.0324(5) 0.2763(3) 0.08866(13)
H12 H 1.0818 0.3204 0.0648
C27 C 0.8481(5) 0.2933(3) 0.09483(12)
C28 C 0.7165(5) 0.3845(3) 0.06490(12)
N22 N 0.8152(4) 0.1309(3) 0.23559(11)
N23 N 0.5774(4) 0.1206(3) 0.18505(10)
N24 N 0.8438(4) -0.0401(3) 0.20058(11)
N25 N 0.7683(4) 0.2330(3) 0.12681(11)
N26 N 0.5226(4) 0.3834(3) 0.07828(11)
N27 N 0.7418(4) 0.5123(3) 0.06201(10)
N28 N 0.7408(4) 0.3603(3) 0.01866(11)
O37 O 0.6975(4) 0.1266(3) 0.26272(11)
O38 O 0.9602(4) 0.1564(3) 0.23853(10)
O39 O 0.5015(4) 0.2188(3) 0.18937(9)
O40 O 0.5149(4) 0.0446(3) 0.17398(10)
O41 O 0.8384(4) -0.0941(2) 0.23596(10)
O42 O 0.8910(5) -0.0798(3) 0.16807(12)
O43 O 0.7367(4) 0.2617(2) 0.01484(9)
O44 O 0.7606(4) 0.4437(3) -0.00923(9)
O45 O 0.4335(4) 0.3358(2) 0.05903(10)
O46 O 0.4761(4) 0.4293(2) 0.10980(9)
O47 O 0.6105(4) 0.5903(2) 0.05031(10)
O48 O 0.8924(4) 0.5256(3) 0.07033(11)
loop_
_geom_bond_atom_site_label_1
_geom_bond_atom_site_label_2
_geom_bond_site_symmetry_1
_geom_bond_site_symmetry_2
C1 C2 1_555 1_555
C2 C3 1_555 1_555
C3 H1 1_555 1_555
C4 C3 1_555 1_555
H2 C4 1_555 1_555
C5 C4 1_555 1_555
H3 C5 1_555 1_555
C6 C5 1_555 1_555
C7 C6 1_555 1_555
N1 C1 1_555 1_555
N2 C1 1_555 1_555
N3 C1 1_555 1_555
N4 C2 1_555 1_555
N5 C7 1_555 1_555
N6 C7 1_555 1_555
N7 C7 1_555 1_555
O1 N1 1_555 1_555
O2 N1 1_555 1_555
O3 N2 1_555 1_555
O4 N2 1_555 1_555
O5 N3 1_555 1_555
O6 N3 1_555 1_555
O7 N5 1_555 1_555
O8 N5 1_555 1_555
O9 N6 1_555 1_555
O10 N6 1_555 1_555
O11 N7 1_555 1_555
O12 N7 1_555 1_555
C8 C9 1_555 1_555
C9 C10 1_555 1_555
C10 H4 1_555 1_555
C11 C10 1_555 1_555
H5 C11 1_555 1_555
C12 C11 1_555 1_555
H6 C12 1_555 1_555
C13 C12 1_555 1_555
C14 C13 1_555 1_555
N8 C8 1_555 1_555
N9 C8 1_555 1_555
N10 C8 1_555 1_555
N11 C9 1_555 1_555
N12 C14 1_555 1_555
N13 C14 1_555 1_555
N14 C14 1_555 1_555
O13 N8 1_555 1_555
O14 N8 1_555 1_555
O15 N9 1_555 1_555
O16 N9 1_555 1_555
O17 N10 1_555 1_555
O18 N10 1_555 1_555
O19 N12 1_555 1_555
O20 N12 1_555 1_555
O21 N13 1_555 1_555
O22 N13 1_555 1_555
O23 N14 1_555 1_555
O24 N14 1_555 1_555
C15 C16 1_555 1_555
C16 C17 1_555 1_555
C17 H7 1_555 1_555
C18 C17 1_555 1_555
H8 C18 1_555 1_555
C19 C18 1_555 1_555
H9 C19 1_555 1_555
C20 C19 1_555 1_555
C21 C20 1_555 1_555
N15 C15 1_555 1_555
N16 C15 1_555 1_555
N17 C15 1_555 1_555
N18 C16 1_555 1_555
N19 C21 1_555 1_555
N20 C21 1_555 1_555
N21 C21 1_555 1_555
O25 N15 1_555 1_555
O26 N15 1_555 1_555
O27 N16 1_555 1_555
O28 N16 1_555 1_555
O29 N17 1_555 1_555
O30 N17 1_555 1_555
O31 N19 1_555 1_555
O32 N19 1_555 1_555
O33 N20 1_555 1_555
O34 N20 1_555 1_555
O35 N21 1_555 1_555
O36 N21 1_555 1_555
C22 C23 1_555 1_555
C23 C24 1_555 1_555
C24 H10 1_555 1_555
C25 C24 1_555 1_555
H11 C25 1_555 1_555
C26 C25 1_555 1_555
H12 C26 1_555 1_555
C27 C26 1_555 1_555
C28 C27 1_555 1_555
N22 C22 1_555 1_555
N23 C22 1_555 1_555
N24 C22 1_555 1_555
N25 C23 1_555 1_555
N26 C28 1_555 1_555
N27 C28 1_555 1_555
N28 C28 1_555 1_555
O37 N22 1_555 1_555
O38 N22 1_555 1_555
O39 N23 1_555 1_555
O40 N23 1_555 1_555
O41 N24 1_555 1_555
O42 N24 1_555 1_555
O43 N28 1_555 1_555
O44 N28 1_555 1_555
O45 N26 1_555 1_555
O46 N26 1_555 1_555
O47 N27 1_555 1_555
O48 N27 1_555 1_555
C6 N4 1_555 1_555
C13 N11 1_555 1_555
C20 N18 1_555 1_555
C27 N25 1_555 1_555

#END
