
#######################################################################
#
#                 Cambridge Crystallographic Data Centre
#                                CCDC 
#
#######################################################################
#
# If this CIF has been generated from an entry in the Cambridge 
# Structural Database, then it will include bibliographic, chemical, 
# crystal, experimental, refinement or atomic coordinate data resulting 
# from the CCDC's data processing and validation procedures.
#
#######################################################################

data_SEKROS
_chemical_formula_moiety         'C19 H20 O4'
_chemical_name_systematic        
2,2'-(2,2-dimethylpropane-1,1-diyl)bis(5-methylcyclohexa-2,5-diene-1,4-dione)
_symmetry_cell_setting           orthorhombic
_symmetry_space_group_name_H-M   'P b c n'
_symmetry_Int_Tables_number      60
_space_group_name_Hall           '-P 2n 2ab'
loop_
_symmetry_equiv_pos_site_id
_symmetry_equiv_pos_as_xyz
1 x,y,z
2 1/2-x,1/2-y,1/2+z
3 -x,y,1/2-z
4 1/2+x,1/2-y,-z
5 -x,-y,-z
6 1/2+x,1/2+y,1/2-z
7 x,-y,1/2+z
8 1/2-x,1/2+y,z
_cell_length_a                   16.5820(18)
_cell_length_b                   11.9644(16)
_cell_length_c                   16.272(2)
_cell_angle_alpha                90
_cell_angle_beta                 90
_cell_angle_gamma                90
_cell_volume                     3228.26
_exptl_crystal_colour            colorless
_exptl_crystal_description       Prism
_cell_formula_units_Z            8
loop_
_atom_site_label
_atom_site_type_symbol
_atom_site_fract_x
_atom_site_fract_y
_atom_site_fract_z
C1 C 0.2710(3) 0.3177(5) 0.6103(3)
H1 H 0.2708 0.2343 0.6141
O1 O 0.3969(2) 0.1621(4) 0.6249(3)
C2 C 0.3590(3) 0.3534(5) 0.6211(3)
O2 O 0.4985(3) 0.5791(4) 0.6168(3)
O3 O 0.1725(2) 0.1710(3) 0.7013(2)
C3 C 0.3884(3) 0.4573(5) 0.6184(3)
H2 H 0.3517 0.5174 0.6109
C4 C 0.4746(4) 0.4832(6) 0.6264(4)
O4 O 0.1499(2) 0.5896(3) 0.7994(2)
C5 C 0.5318(4) 0.3883(6) 0.6418(3)
C6 C 0.5034(3) 0.2843(6) 0.6442(3)
H3 H 0.5395 0.2247 0.6557
C7 C 0.4176(3) 0.2588(6) 0.6296(3)
C8 C 0.2162(3) 0.3594(4) 0.6794(3)
C9 C 0.2082(3) 0.4622(4) 0.7080(3)
H4 H 0.2408 0.5193 0.6847
C10 C 0.1517(3) 0.4931(5) 0.7741(3)
C11 C 0.0990(3) 0.4061(5) 0.8089(3)
C12 C 0.1069(3) 0.3016(5) 0.7826(3)
H5 H 0.0732 0.2456 0.8056
C13 C 0.1655(3) 0.2690(5) 0.7196(3)
C14 C 0.2359(3) 0.3469(5) 0.5225(3)
C15 C 0.2252(3) 0.4715(5) 0.5056(3)
H6 H 0.1859 0.5027 0.5442
H7 H 0.2059 0.4821 0.4492
H8 H 0.2771 0.5097 0.5125
C16 C 0.1531(3) 0.2894(5) 0.5154(3)
H9 H 0.1590 0.2094 0.5270
H10 H 0.1320 0.2994 0.4596
H11 H 0.1157 0.3227 0.5550
C17 C 0.2919(3) 0.2947(5) 0.4575(3)
H12 H 0.3437 0.3343 0.4574
H13 H 0.2669 0.3008 0.4032
H14 H 0.3009 0.2157 0.4706
C18 C 0.6184(3) 0.4197(6) 0.6573(4)
H15 H 0.6476 0.3549 0.6790
H16 H 0.6207 0.4809 0.6973
H17 H 0.6434 0.4439 0.6057
C19 C 0.0387(4) 0.4412(5) 0.8740(4)
H18 H -0.0040 0.4860 0.8485
H19 H 0.0662 0.4857 0.9161
H20 H 0.0151 0.3746 0.8994
loop_
_geom_bond_atom_site_label_1
_geom_bond_atom_site_label_2
_geom_bond_site_symmetry_1
_geom_bond_site_symmetry_2
C1 H1 1_555 1_555
O1 C7 1_555 1_555
C2 C1 1_555 1_555
O2 C4 1_555 1_555
O3 C13 1_555 1_555
C3 C2 1_555 1_555
H2 C3 1_555 1_555
C4 C3 1_555 1_555
O4 C10 1_555 1_555
C5 C4 1_555 1_555
C6 C5 1_555 1_555
H3 C6 1_555 1_555
C7 C2 1_555 1_555
C8 C1 1_555 1_555
C9 C8 1_555 1_555
H4 C9 1_555 1_555
C10 C9 1_555 1_555
C11 C10 1_555 1_555
C12 C11 1_555 1_555
H5 C12 1_555 1_555
C13 C8 1_555 1_555
C14 C1 1_555 1_555
C15 C14 1_555 1_555
H6 C15 1_555 1_555
H7 C15 1_555 1_555
H8 C15 1_555 1_555
C16 C14 1_555 1_555
H9 C16 1_555 1_555
H10 C16 1_555 1_555
H11 C16 1_555 1_555
C17 C14 1_555 1_555
H12 C17 1_555 1_555
H13 C17 1_555 1_555
H14 C17 1_555 1_555
C18 C5 1_555 1_555
H15 C18 1_555 1_555
H16 C18 1_555 1_555
H17 C18 1_555 1_555
C19 C11 1_555 1_555
H18 C19 1_555 1_555
H19 C19 1_555 1_555
H20 C19 1_555 1_555
C6 C7 1_555 1_555
C12 C13 1_555 1_555

#END
