
#######################################################################
#
#                 Cambridge Crystallographic Data Centre
#                                CCDC 
#
#######################################################################
#
# If this CIF has been generated from an entry in the Cambridge 
# Structural Database, then it will include bibliographic, chemical, 
# crystal, experimental, refinement or atomic coordinate data resulting 
# from the CCDC's data processing and validation procedures.
#
#######################################################################

data_SEKTIL
_chemical_formula_moiety         'C72 H102 N6 O12,1.5(C4 H10 O1),0.5(H2 O1)'
_chemical_name_systematic        
"1,14,21-Tri-p-benzeno-3,12,23-tris(1,10-diaza-4,7,13,16-tetraoxahexadecane-N,N')(4.4.4)(1,3,5)cyclophane diethyl ether solvate hemihydrate"
_symmetry_cell_setting           rhombohedral
_symmetry_space_group_name_H-M   'R -3'
_symmetry_Int_Tables_number      148
_space_group_name_Hall           '-P 3*'
loop_
_symmetry_equiv_pos_site_id
_symmetry_equiv_pos_as_xyz
1 x,y,z
2 z,x,y
3 y,z,x
4 -x,-y,-z
5 -z,-x,-y
6 -y,-z,-x
_cell_length_a                   20.306(12)
_cell_length_b                   20.306(12)
_cell_length_c                   20.306(12)
_cell_angle_alpha                74.02(5)
_cell_angle_beta                 74.02(5)
_cell_angle_gamma                74.02(5)
_cell_volume                     7555.8
_exptl_crystal_colour            colorless
_cell_formula_units_Z            4
loop_
_atom_site_label
_atom_site_type_symbol
_atom_site_fract_x
_atom_site_fract_y
_atom_site_fract_z
O5 O 0.0000 0.0000 0.0000
N3 N -0.1073(2) 0.3819(2) 0.1762(3)
N4 N -0.0532(2) 0.0973(3) 0.2531(3)
O6 O -0.2215(2) 0.2985(2) 0.1307(2)
O7 O -0.1584(2) 0.1458(2) 0.1712(2)
O8 O -0.1316(4) 0.3342(3) 0.3300(3)
O9 O -0.1088(2) 0.1858(3) 0.3995(2)
C25 C 0.2246(3) 0.2340(3) 0.1314(3)
C26 C 0.1591(3) 0.2626(3) 0.1683(3)
C27 C 0.1186(3) 0.3320(3) 0.1379(3)
C28 C 0.0469(3) 0.3436(3) 0.1437(3)
C29 C 0.0092(3) 0.4077(3) 0.1131(3)
C30 C 0.0432(3) 0.4610(3) 0.0793(3)
C31 C 0.1137(3) 0.4516(3) 0.0736(3)
C32 C 0.1521(3) 0.3866(3) 0.1028(3)
C33 C -0.0667(3) 0.4133(3) 0.1103(4)
C34 C -0.1713(3) 0.3690(3) 0.1672(4)
C35 C -0.1564(3) 0.3014(3) 0.1411(4)
C36 C -0.2180(3) 0.2421(4) 0.0996(4)
C37 C -0.2236(4) 0.1761(4) 0.1521(4)
C38 C -0.1584(3) 0.0830(4) 0.2229(4)
C39 C -0.0828(4) 0.0527(4) 0.2307(4)
C40 C -0.1214(4) 0.4260(4) 0.2260(4)
C41 C -0.1348(7) 0.3856(6) 0.3011(5)
C42 C -0.1405(4) 0.3088(4) 0.4003(4)
C43 C -0.0938(4) 0.2416(5) 0.4158(4)
C44 C -0.0792(4) 0.1780(4) 0.3308(4)
C45 C -0.0870(4) 0.1081(4) 0.3240(4)
C46 C 0.0219(4) 0.0701(4) 0.2438(4)
C47 C 0.0641(3) 0.0886(3) 0.1723(3)
C48 C 0.0449(3) 0.1522(4) 0.1280(4)
H35 H 0.2440 0.2600 0.0863
H36 H 0.0234 0.3061 0.1688
H37 H 0.0166 0.5054 0.0591
H38 H 0.1362 0.4902 0.0495
H39 H 0.2015 0.3804 0.0988
H40 H -0.0884 0.4620 0.0979
H41 H -0.0670 0.3909 0.0745
H42 H -0.1911 0.4074 0.1336
H43 H -0.2049 0.3665 0.2110
H44 H -0.1209 0.3016 0.0985
H45 H -0.1412 0.2617 0.1762
H46 H -0.1745 0.2351 0.0659
H47 H -0.2554 0.2545 0.0750
H48 H -0.2593 0.1848 0.1929
H49 H -0.2360 0.1445 0.1323
H50 H -0.1741 0.0495 0.2088
H51 H -0.1885 0.0919 0.2666
H52 H -0.0797 0.0076 0.2623
H53 H -0.0538 0.0458 0.1860
H54 H -0.1617 0.4629 0.2186
H55 H -0.0821 0.4473 0.2168
H56 H -0.1041 0.4003 0.3200
H57 H -0.1810 0.4098 0.3198
H58 H -0.1888 0.3070 0.4209
H59 H -0.1275 0.3399 0.4201
H60 H -0.0471 0.2457 0.3905
H61 H -0.0929 0.2287 0.4647
H62 H -0.0303 0.1788 0.3208
H63 H -0.1018 0.2150 0.2980
H64 H -0.0654 0.0722 0.3582
H65 H -0.1361 0.1082 0.3349
H66 H 0.0314 0.0201 0.2604
H67 H 0.0383 0.0896 0.2727
H68 H 0.0005 0.1828 0.1416
C26B C 0.2626(3) 0.1683(3) 0.1591(3)
C25B C 0.2340(3) 0.1314(3) 0.2246(3)
C26A C 0.1683(3) 0.1591(3) 0.2626(3)
C25A C 0.1314(3) 0.2246(3) 0.2340(3)
H35A H 0.0863 0.2440 0.2600
C27A C 0.1379(3) 0.1186(3) 0.3320(3)
C28A C 0.1437(3) 0.0469(3) 0.3436(3)
C29A C 0.1131(3) 0.0092(3) 0.4077(3)
C30A C 0.0793(3) 0.0432(3) 0.4610(3)
C31A C 0.0736(3) 0.1137(3) 0.4516(3)
C32A C 0.1028(3) 0.1521(3) 0.3866(3)
H39A H 0.0988 0.2015 0.3804
H38A H 0.0495 0.1362 0.4902
H37A H 0.0591 0.0166 0.5054
C33A C 0.1103(4) -0.0667(3) 0.4133(3)
N3A N 0.1762(3) -0.1073(2) 0.3819(2)
C34A C 0.1672(4) -0.1713(3) 0.3690(3)
C35A C 0.1411(4) -0.1564(3) 0.3014(3)
O6A O 0.1307(2) -0.2215(2) 0.2985(2)
C36A C 0.0996(4) -0.2180(3) 0.2421(4)
C37A C 0.1521(4) -0.2236(4) 0.1761(4)
O7A O 0.1712(2) -0.1584(2) 0.1458(2)
C38A C 0.2229(4) -0.1584(3) 0.0830(4)
C39A C 0.2307(4) -0.0828(4) 0.0527(4)
N4A N 0.2531(3) -0.0532(2) 0.0973(3)
C45A C 0.3240(4) -0.0870(4) 0.1081(4)
C44A C 0.3308(4) -0.0792(4) 0.1780(4)
O9A O 0.3995(2) -0.1088(2) 0.1858(3)
C43A C 0.4158(4) -0.0938(4) 0.2416(5)
C42A C 0.4003(4) -0.1405(4) 0.3088(4)
O8A O 0.3300(3) -0.1316(4) 0.3342(3)
C41A C 0.3011(5) -0.1348(7) 0.3856(6)
C40A C 0.2260(4) -0.1214(4) 0.4260(4)
H54A H 0.2186 -0.1617 0.4629
H55A H 0.2168 -0.0821 0.4473
H56A H 0.3200 -0.1041 0.4003
H57A H 0.3198 -0.1810 0.4098
H58A H 0.4209 -0.1888 0.3070
H59A H 0.4201 -0.1275 0.3399
H60A H 0.3905 -0.0471 0.2457
H61A H 0.4647 -0.0929 0.2287
H62A H 0.3208 -0.0303 0.1788
H63A H 0.2980 -0.1018 0.2150
H64A H 0.3582 -0.0654 0.0722
H65A H 0.3349 -0.1361 0.1082
C46A C 0.2438(4) 0.0219(4) 0.0701(4)
C47A C 0.1723(3) 0.0641(3) 0.0886(3)
C48A C 0.1280(4) 0.0449(3) 0.1522(4)
C47B C 0.0886(3) 0.1723(3) 0.0641(3)
C46B C 0.0701(4) 0.2438(4) 0.0219(4)
N4B N 0.0973(3) 0.2531(3) -0.0532(2)
C39B C 0.0527(4) 0.2307(4) -0.0828(4)
C38B C 0.0830(4) 0.2229(4) -0.1584(3)
O7B O 0.1458(2) 0.1712(2) -0.1584(2)
C37B C 0.1761(4) 0.1521(4) -0.2236(4)
C36B C 0.2421(4) 0.0996(4) -0.2180(3)
O6B O 0.2985(2) 0.1307(2) -0.2215(2)
C35B C 0.3014(3) 0.1411(4) -0.1564(3)
C34B C 0.3690(3) 0.1672(4) -0.1713(3)
N3B N 0.3819(2) 0.1762(3) -0.1073(2)
C33B C 0.4133(3) 0.1103(4) -0.0667(3)
C29B C 0.4077(3) 0.1131(3) 0.0092(3)
C28B C 0.3436(3) 0.1437(3) 0.0469(3)
C27B C 0.3320(3) 0.1379(3) 0.1186(3)
C32B C 0.3866(3) 0.1028(3) 0.1521(3)
C31B C 0.4516(3) 0.0736(3) 0.1137(3)
C30B C 0.4610(3) 0.0793(3) 0.0432(3)
H37B H 0.5054 0.0591 0.0166
H38B H 0.4902 0.0495 0.1362
H39B H 0.3804 0.0988 0.2015
H36B H 0.3061 0.1688 0.0234
H40B H 0.4620 0.0979 -0.0884
H41B H 0.3909 0.0745 -0.0670
C40B C 0.4260(4) 0.2260(4) -0.1214(4)
C41B C 0.3856(6) 0.3011(5) -0.1348(7)
O8B O 0.3342(3) 0.3300(3) -0.1316(4)
C42B C 0.3088(4) 0.4003(4) -0.1405(4)
C43B C 0.2416(5) 0.4158(4) -0.0938(4)
O9B O 0.1858(3) 0.3995(2) -0.1088(2)
C44B C 0.1780(4) 0.3308(4) -0.0792(4)
C45B C 0.1081(4) 0.3240(4) -0.0870(4)
H64B H 0.0722 0.3582 -0.0654
H65B H 0.1082 0.3349 -0.1361
H62B H 0.1788 0.3208 -0.0303
H63B H 0.2150 0.2980 -0.1018
H60B H 0.2457 0.3905 -0.0471
H61B H 0.2287 0.4647 -0.0929
H58B H 0.3070 0.4209 -0.1888
H59B H 0.3399 0.4201 -0.1275
H56B H 0.4003 0.3200 -0.1041
H57B H 0.4098 0.3198 -0.1810
H54B H 0.4629 0.2186 -0.1617
H55B H 0.4473 0.2168 -0.0821
H42B H 0.4074 0.1336 -0.1911
H43B H 0.3665 0.2110 -0.2049
H44B H 0.3016 0.0985 -0.1209
H45B H 0.2617 0.1762 -0.1412
H46B H 0.2351 0.0659 -0.1745
H47B H 0.2545 0.0750 -0.2554
H48B H 0.1848 0.1929 -0.2593
H49B H 0.1445 0.1323 -0.2360
H50B H 0.0495 0.2088 -0.1741
H51B H 0.0919 0.2666 -0.1885
H52B H 0.0076 0.2623 -0.0797
H53B H 0.0458 0.1860 -0.0538
H66B H 0.0201 0.2604 0.0314
H67B H 0.0896 0.2727 0.0383
C48B C 0.1522(4) 0.1280(4) 0.0449(3)
H68B H 0.1828 0.1416 0.0005
H68A H 0.1416 0.0005 0.1828
H66A H 0.2604 0.0314 0.0201
H67A H 0.2727 0.0383 0.0896
H52A H 0.2623 -0.0797 0.0076
H53A H 0.1860 -0.0538 0.0458
H50A H 0.2088 -0.1741 0.0495
H51A H 0.2666 -0.1885 0.0919
H48A H 0.1929 -0.2593 0.1848
H49A H 0.1323 -0.2360 0.1445
H46A H 0.0659 -0.1745 0.2351
H47A H 0.0750 -0.2554 0.2545
H44A H 0.0985 -0.1209 0.3016
H45A H 0.1762 -0.1412 0.2617
H42A H 0.1336 -0.1911 0.4074
H43A H 0.2110 -0.2049 0.3665
H40A H 0.0979 -0.0884 0.4620
H41A H 0.0745 -0.0670 0.3909
H36A H 0.1688 0.0234 0.3061
H35B H 0.2600 0.0863 0.2440
N1 N 0.3281(3) 0.5678(3) 0.0649(3)
N2 N 0.2400(2) 0.5424(2) 0.3473(3)
O1 O 0.3713(3) 0.7006(3) 0.1255(3)
O2 O 0.3318(2) 0.6436(2) 0.2837(3)
O3 O 0.1753(2) 0.5792(2) 0.1082(2)
O4 O 0.0973(2) 0.6030(2) 0.2523(3)
C1 C 0.2491(3) 0.3453(3) 0.2453(3)
C2 C 0.3143(3) 0.3111(3) 0.2136(3)
C3 C 0.3517(3) 0.3436(3) 0.1426(3)
C4 C 0.3520(3) 0.4150(3) 0.1245(3)
C5 C 0.3889(3) 0.4446(3) 0.0605(3)
C6 C 0.4247(3) 0.4029(4) 0.0120(4)
C7 C 0.4240(3) 0.3316(4) 0.0293(3)
C8 C 0.3878(3) 0.3026(3) 0.0945(3)
C9 C 0.3944(4) 0.5208(3) 0.0447(4)
C10 C 0.3398(4) 0.6356(3) 0.0633(4)
C11 C 0.3592(4) 0.6347(4) 0.1300(4)
C12 C 0.3980(4) 0.7047(4) 0.1807(5)
C13 C 0.3458(4) 0.7102(4) 0.2475(5)
C14 C 0.2807(4) 0.6480(4) 0.3462(4)
C15 C 0.2666(4) 0.5757(4) 0.3854(4)
C16 C 0.2800(4) 0.5740(4) 0.0198(4)
C17 C 0.2066(4) 0.6127(4) 0.0407(4)
C18 C 0.1049(4) 0.6135(4) 0.1287(4)
C19 C 0.0752(4) 0.5817(4) 0.2023(4)
C20 C 0.1627(3) 0.5641(4) 0.2659(4)
C21 C 0.1714(3) 0.5809(4) 0.3302(4)
C22 C 0.2365(3) 0.4709(3) 0.3853(4)
C23 C 0.3068(3) 0.4201(3) 0.3772(3)
C24 C 0.3595(3) 0.4289(3) 0.3171(3)
H1 H 0.2278 0.3910 0.2219
H2 H 0.3267 0.4435 0.1579
H3 H 0.4498 0.4230 -0.0333
H4 H 0.4482 0.3024 -0.0037
H5 H 0.3881 0.2534 0.1067
H6 H 0.4276 0.5244 0.0685
H7 H 0.4118 0.5345 -0.0049
H8 H 0.2979 0.6706 0.0576
H9 H 0.3771 0.6480 0.0247
H10 H 0.3206 0.6259 0.1687
H11 H 0.3995 0.5979 0.1375
H12 H 0.4187 0.7451 0.1662
H13 H 0.4346 0.6638 0.1889
H14 H 0.3628 0.7290 0.2766
H15 H 0.3037 0.7424 0.2367
H16 H 0.2382 0.6794 0.3356
H17 H 0.2964 0.6662 0.3767
H18 H 0.3087 0.5457 0.3986
H19 H 0.2319 0.5805 0.4278
H20 H 0.2786 0.5275 0.0185
H21 H 0.2989 0.5967 -0.0271
H22 H 0.2069 0.6595 0.0421
H23 H 0.1800 0.6158 0.0071
H24 H 0.0781 0.6090 0.0985
H25 H 0.1020 0.6625 0.1239
H26 H 0.0250 0.5954 0.2104
H27 H 0.0880 0.5315 0.2094
H28 H 0.1995 0.5757 0.2264
H29 H 0.1639 0.5150 0.2743
H30 H 0.1695 0.6303 0.3212
H31 H 0.1336 0.5701 0.3689
H32 H 0.2048 0.4547 0.3693
H33 H 0.2180 0.4707 0.4343
H34 H 0.3544 0.4721 0.2826
C2A C 0.2136(3) 0.3143(3) 0.3111(3)
C1A C 0.2453(3) 0.2491(3) 0.3453(3)
C2B C 0.3111(3) 0.2136(3) 0.3143(3)
C1B C 0.3453(3) 0.2453(3) 0.2491(3)
H1B H 0.3910 0.2219 0.2278
C3B C 0.3436(3) 0.1426(3) 0.3517(3)
C4B C 0.4150(3) 0.1245(3) 0.3520(3)
C5B C 0.4446(3) 0.0605(3) 0.3889(3)
C6B C 0.4029(4) 0.0120(4) 0.4247(3)
C7B C 0.3316(4) 0.0293(3) 0.4240(3)
C8B C 0.3026(3) 0.0945(3) 0.3878(3)
H5B H 0.2534 0.1067 0.3881
H4B H 0.3024 -0.0037 0.4482
H3B H 0.4230 -0.0333 0.4498
C9B C 0.5208(3) 0.0447(4) 0.3944(4)
N1B N 0.5678(3) 0.0649(3) 0.3281(3)
C10B C 0.6356(3) 0.0633(4) 0.3398(4)
C11B C 0.6347(4) 0.1300(4) 0.3592(4)
O1B O 0.7006(3) 0.1255(3) 0.3713(3)
C12B C 0.7047(4) 0.1807(5) 0.3980(4)
C13B C 0.7102(4) 0.2475(5) 0.3458(4)
O2B O 0.6436(2) 0.2837(3) 0.3318(2)
C14B C 0.6480(4) 0.3462(4) 0.2807(4)
C15B C 0.5757(4) 0.3854(4) 0.2666(4)
N2B N 0.5424(2) 0.3473(3) 0.2400(2)
C21B C 0.5809(4) 0.3302(4) 0.1714(3)
C20B C 0.5641(4) 0.2659(4) 0.1627(3)
O4B O 0.6030(2) 0.2523(3) 0.0973(2)
C19B C 0.5817(4) 0.2023(4) 0.0752(4)
C18B C 0.6135(4) 0.1287(4) 0.1049(4)
O3B O 0.5792(2) 0.1082(2) 0.1753(2)
C17B C 0.6127(4) 0.0407(4) 0.2066(4)
C16B C 0.5740(4) 0.0198(4) 0.2800(4)
H20B H 0.5275 0.0185 0.2786
H21B H 0.5967 -0.0271 0.2989
H22B H 0.6595 0.0421 0.2069
H23B H 0.6158 0.0071 0.1800
H24B H 0.6090 0.0985 0.0781
H25B H 0.6625 0.1239 0.1020
H26B H 0.5954 0.2104 0.0250
H27B H 0.5315 0.2094 0.0880
H28B H 0.5757 0.2264 0.1995
H29B H 0.5150 0.2743 0.1639
H30B H 0.6303 0.3212 0.1695
H31B H 0.5701 0.3689 0.1336
C22B C 0.4709(3) 0.3853(4) 0.2365(3)
C23B C 0.4201(3) 0.3772(3) 0.3068(3)
C24B C 0.4289(3) 0.3171(3) 0.3595(3)
C23A C 0.3772(3) 0.3068(3) 0.4201(3)
C22A C 0.3853(4) 0.2365(3) 0.4709(3)
N2A N 0.3473(3) 0.2400(2) 0.5424(2)
C15A C 0.3854(4) 0.2666(4) 0.5757(4)
C14A C 0.3462(4) 0.2807(4) 0.6480(4)
O2A O 0.2837(3) 0.3318(2) 0.6436(2)
C13A C 0.2475(5) 0.3458(4) 0.7102(4)
C12A C 0.1807(5) 0.3980(4) 0.7047(4)
O1A O 0.1255(3) 0.3713(3) 0.7006(3)
C11A C 0.1300(4) 0.3592(4) 0.6347(4)
C10A C 0.0633(4) 0.3398(4) 0.6356(3)
N1A N 0.0649(3) 0.3281(3) 0.5678(3)
C9A C 0.0447(4) 0.3944(4) 0.5208(3)
C5A C 0.0605(3) 0.3889(3) 0.4446(3)
C4A C 0.1245(3) 0.3520(3) 0.4150(3)
C3A C 0.1426(3) 0.3517(3) 0.3436(3)
C8A C 0.0945(3) 0.3878(3) 0.3026(3)
C7A C 0.0293(3) 0.4240(3) 0.3316(4)
C6A C 0.0120(4) 0.4247(3) 0.4029(4)
H3A H -0.0333 0.4498 0.4230
H4A H -0.0037 0.4482 0.3024
H5A H 0.1067 0.3881 0.2534
H2A H 0.1579 0.3267 0.4435
H6A H 0.0685 0.4276 0.5244
H7A H -0.0049 0.4118 0.5345
C16A C 0.0198(4) 0.2800(4) 0.5740(4)
C17A C 0.0407(4) 0.2066(4) 0.6127(4)
O3A O 0.1082(2) 0.1753(2) 0.5792(2)
C18A C 0.1287(4) 0.1049(4) 0.6135(4)
C19A C 0.2023(4) 0.0752(4) 0.5817(4)
O4A O 0.2523(3) 0.0973(2) 0.6030(2)
C20A C 0.2659(4) 0.1627(3) 0.5641(4)
C21A C 0.3302(4) 0.1714(3) 0.5809(4)
H30A H 0.3212 0.1695 0.6303
H31A H 0.3689 0.1336 0.5701
H28A H 0.2264 0.1995 0.5757
H29A H 0.2743 0.1639 0.5150
H26A H 0.2104 0.0250 0.5954
H27A H 0.2094 0.0880 0.5315
H24A H 0.0985 0.0781 0.6090
H25A H 0.1239 0.1020 0.6625
H22A H 0.0421 0.2069 0.6595
H23A H 0.0071 0.1800 0.6158
H20A H 0.0185 0.2786 0.5275
H21A H -0.0271 0.2989 0.5967
H8A H 0.0576 0.2979 0.6706
H9A H 0.0247 0.3771 0.6480
H10A H 0.1687 0.3206 0.6259
H11A H 0.1375 0.3995 0.5979
H12A H 0.1662 0.4187 0.7451
H13A H 0.1889 0.4346 0.6638
H14A H 0.2766 0.3628 0.7290
H15A H 0.2367 0.3037 0.7424
H16A H 0.3356 0.2382 0.6794
H17A H 0.3767 0.2964 0.6662
H18A H 0.3986 0.3087 0.5457
H19A H 0.4278 0.2319 0.5805
H32A H 0.3693 0.2048 0.4547
H33A H 0.4343 0.2180 0.4707
C24A C 0.3171(3) 0.3595(3) 0.4289(3)
H34A H 0.2826 0.3544 0.4721
H34B H 0.4721 0.2826 0.3544
H32B H 0.4547 0.3693 0.2048
H33B H 0.4707 0.4343 0.2180
H18B H 0.5457 0.3986 0.3087
H19B H 0.5805 0.4278 0.2319
H16B H 0.6794 0.3356 0.2382
H17B H 0.6662 0.3767 0.2964
H14B H 0.7290 0.2766 0.3628
H15B H 0.7424 0.2367 0.3037
H12B H 0.7451 0.1662 0.4187
H13B H 0.6638 0.1889 0.4346
H10B H 0.6259 0.1687 0.3206
H11B H 0.5979 0.1375 0.3995
H8B H 0.6706 0.0576 0.2979
H9B H 0.6480 0.0247 0.3771
H6B H 0.5244 0.0685 0.4276
H7B H 0.5345 -0.0049 0.4118
H2B H 0.4435 0.1579 0.3267
H1A H 0.2219 0.2278 0.3910
C49? C 0.4880(7) 0.5517(7) 0.3417(7)
C50? C 0.5021(7) 0.6301(8) 0.3378(8)
C51? C 0.4438(8) 0.6099(8) 0.4185(9)
loop_
_geom_bond_atom_site_label_1
_geom_bond_atom_site_label_2
_geom_bond_site_symmetry_1
_geom_bond_site_symmetry_2
N1 C9 1_555 1_555
N2 C15 1_555 1_555
O1 C11 1_555 1_555
O2 C13 1_555 1_555
O3 C17 1_555 1_555
O4 C19 1_555 1_555
C1 C2 1_555 1_555
C2 C3 1_555 1_555
C3 C4 1_555 1_555
C4 C5 1_555 1_555
C5 C6 1_555 1_555
C6 C7 1_555 1_555
C7 C8 1_555 1_555
C8 C3 1_555 1_555
C9 C5 1_555 1_555
C10 N1 1_555 1_555
C11 C10 1_555 1_555
C12 O1 1_555 1_555
C13 C12 1_555 1_555
C14 O2 1_555 1_555
C15 C14 1_555 1_555
C16 N1 1_555 1_555
C17 C16 1_555 1_555
C18 O3 1_555 1_555
C19 C18 1_555 1_555
C20 O4 1_555 1_555
C21 N2 1_555 1_555
C22 N2 1_555 1_555
C23 C22 1_555 1_555
C24 C23 1_555 1_555
H1 C1 1_555 1_555
H2 C4 1_555 1_555
H3 C6 1_555 1_555
H4 C7 1_555 1_555
H5 C8 1_555 1_555
H6 C9 1_555 1_555
H7 C9 1_555 1_555
H8 C10 1_555 1_555
H9 C10 1_555 1_555
H10 C11 1_555 1_555
H11 C11 1_555 1_555
H12 C12 1_555 1_555
H13 C12 1_555 1_555
H14 C13 1_555 1_555
H15 C13 1_555 1_555
H16 C14 1_555 1_555
H17 C14 1_555 1_555
H18 C15 1_555 1_555
H19 C15 1_555 1_555
H20 C16 1_555 1_555
H21 C16 1_555 1_555
H22 C17 1_555 1_555
H23 C17 1_555 1_555
H24 C18 1_555 1_555
H25 C18 1_555 1_555
H26 C19 1_555 1_555
H27 C19 1_555 1_555
H28 C20 1_555 1_555
H29 C20 1_555 1_555
H30 C21 1_555 1_555
H31 C21 1_555 1_555
H32 C22 1_555 1_555
H33 C22 1_555 1_555
H34 C24 1_555 1_555
N3 C33 1_555 1_555
N4 C39 1_555 1_555
O6 C35 1_555 1_555
O7 C37 1_555 1_555
O8 C41 1_555 1_555
O9 C43 1_555 1_555
C25 C26 1_555 1_555
C26 C27 1_555 1_555
C27 C28 1_555 1_555
C28 C29 1_555 1_555
C29 C30 1_555 1_555
C30 C31 1_555 1_555
C31 C32 1_555 1_555
C32 C27 1_555 1_555
C33 C29 1_555 1_555
C34 N3 1_555 1_555
C35 C34 1_555 1_555
C36 O6 1_555 1_555
C37 C36 1_555 1_555
C38 O7 1_555 1_555
C39 C38 1_555 1_555
C40 N3 1_555 1_555
C41 C40 1_555 1_555
C42 O8 1_555 1_555
C43 C42 1_555 1_555
C44 O9 1_555 1_555
C45 N4 1_555 1_555
C46 N4 1_555 1_555
C47 C46 1_555 1_555
C48 C47 1_555 1_555
H35 C25 1_555 1_555
H36 C28 1_555 1_555
H37 C30 1_555 1_555
H38 C31 1_555 1_555
H39 C32 1_555 1_555
H40 C33 1_555 1_555
H41 C33 1_555 1_555
H42 C34 1_555 1_555
H43 C34 1_555 1_555
H44 C35 1_555 1_555
H45 C35 1_555 1_555
H46 C36 1_555 1_555
H47 C36 1_555 1_555
H48 C37 1_555 1_555
H49 C37 1_555 1_555
H50 C38 1_555 1_555
H51 C38 1_555 1_555
H52 C39 1_555 1_555
H53 C39 1_555 1_555
H54 C40 1_555 1_555
H55 C40 1_555 1_555
H56 C41 1_555 1_555
H57 C41 1_555 1_555
H58 C42 1_555 1_555
H59 C42 1_555 1_555
H60 C43 1_555 1_555
H61 C43 1_555 1_555
H62 C44 1_555 1_555
H63 C44 1_555 1_555
H64 C45 1_555 1_555
H65 C45 1_555 1_555
H66 C46 1_555 1_555
H67 C46 1_555 1_555
H68 C48 1_555 1_555
C2A C1 1_555 1_555
C1A C2A 1_555 1_555
C2B C1A 1_555 1_555
C1B C2 1_555 1_555
H1B C1B 1_555 1_555
C3B C2B 1_555 1_555
C4B C3B 1_555 1_555
C5B C4B 1_555 1_555
C6B C5B 1_555 1_555
C7B C6B 1_555 1_555
C8B C3B 1_555 1_555
H5B C8B 1_555 1_555
H4B C7B 1_555 1_555
H3B C6B 1_555 1_555
C9B C5B 1_555 1_555
N1B C9B 1_555 1_555
C10B N1B 1_555 1_555
C11B C10B 1_555 1_555
O1B C11B 1_555 1_555
C12B O1B 1_555 1_555
C13B C12B 1_555 1_555
O2B C13B 1_555 1_555
C14B O2B 1_555 1_555
C15B C14B 1_555 1_555
N2B C15B 1_555 1_555
C21B N2B 1_555 1_555
C20B C21B 1_555 1_555
O4B C20B 1_555 1_555
C19B O4B 1_555 1_555
C18B C19B 1_555 1_555
O3B C18B 1_555 1_555
C17B O3B 1_555 1_555
C16B N1B 1_555 1_555
H20B C16B 1_555 1_555
H21B C16B 1_555 1_555
H22B C17B 1_555 1_555
H23B C17B 1_555 1_555
H24B C18B 1_555 1_555
H25B C18B 1_555 1_555
H26B C19B 1_555 1_555
H27B C19B 1_555 1_555
H28B C20B 1_555 1_555
H29B C20B 1_555 1_555
H30B C21B 1_555 1_555
H31B C21B 1_555 1_555
C22B N2B 1_555 1_555
C23B C24 1_555 1_555
C24B C23B 1_555 1_555
C23A C24B 1_555 1_555
C22A C23A 1_555 1_555
N2A C22A 1_555 1_555
C15A N2A 1_555 1_555
C14A C15A 1_555 1_555
O2A C14A 1_555 1_555
C13A O2A 1_555 1_555
C12A C13A 1_555 1_555
O1A C12A 1_555 1_555
C11A O1A 1_555 1_555
C10A C11A 1_555 1_555
N1A C10A 1_555 1_555
C9A N1A 1_555 1_555
C5A C9A 1_555 1_555
C4A C5A 1_555 1_555
C3A C2A 1_555 1_555
C8A C3A 1_555 1_555
C7A C8A 1_555 1_555
C6A C5A 1_555 1_555
H3A C6A 1_555 1_555
H4A C7A 1_555 1_555
H5A C8A 1_555 1_555
H2A C4A 1_555 1_555
H6A C9A 1_555 1_555
H7A C9A 1_555 1_555
C16A N1A 1_555 1_555
C17A C16A 1_555 1_555
O3A C17A 1_555 1_555
C18A O3A 1_555 1_555
C19A C18A 1_555 1_555
O4A C19A 1_555 1_555
C20A O4A 1_555 1_555
C21A N2A 1_555 1_555
H30A C21A 1_555 1_555
H31A C21A 1_555 1_555
H28A C20A 1_555 1_555
H29A C20A 1_555 1_555
H26A C19A 1_555 1_555
H27A C19A 1_555 1_555
H24A C18A 1_555 1_555
H25A C18A 1_555 1_555
H22A C17A 1_555 1_555
H23A C17A 1_555 1_555
H20A C16A 1_555 1_555
H21A C16A 1_555 1_555
H8A C10A 1_555 1_555
H9A C10A 1_555 1_555
H10A C11A 1_555 1_555
H11A C11A 1_555 1_555
H12A C12A 1_555 1_555
H13A C12A 1_555 1_555
H14A C13A 1_555 1_555
H15A C13A 1_555 1_555
H16A C14A 1_555 1_555
H17A C14A 1_555 1_555
H18A C15A 1_555 1_555
H19A C15A 1_555 1_555
H32A C22A 1_555 1_555
H33A C22A 1_555 1_555
C24A C23 1_555 1_555
H34A C24A 1_555 1_555
H34B C24B 1_555 1_555
H32B C22B 1_555 1_555
H33B C22B 1_555 1_555
H18B C15B 1_555 1_555
H19B C15B 1_555 1_555
H16B C14B 1_555 1_555
H17B C14B 1_555 1_555
H14B C13B 1_555 1_555
H15B C13B 1_555 1_555
H12B C12B 1_555 1_555
H13B C12B 1_555 1_555
H10B C11B 1_555 1_555
H11B C11B 1_555 1_555
H8B C10B 1_555 1_555
H9B C10B 1_555 1_555
H6B C9B 1_555 1_555
H7B C9B 1_555 1_555
H2B C4B 1_555 1_555
H1A C1A 1_555 1_555
C26B C25 1_555 1_555
C25B C26B 1_555 1_555
C26A C25B 1_555 1_555
C25A C26 1_555 1_555
H35A C25A 1_555 1_555
C27A C26A 1_555 1_555
C28A C27A 1_555 1_555
C29A C28A 1_555 1_555
C30A C29A 1_555 1_555
C31A C30A 1_555 1_555
C32A C27A 1_555 1_555
H39A C32A 1_555 1_555
H38A C31A 1_555 1_555
H37A C30A 1_555 1_555
C33A C29A 1_555 1_555
N3A C33A 1_555 1_555
C34A N3A 1_555 1_555
C35A C34A 1_555 1_555
O6A C35A 1_555 1_555
C36A O6A 1_555 1_555
C37A C36A 1_555 1_555
O7A C37A 1_555 1_555
C38A O7A 1_555 1_555
C39A C38A 1_555 1_555
N4A C39A 1_555 1_555
C45A N4A 1_555 1_555
C44A C45A 1_555 1_555
O9A C44A 1_555 1_555
C43A O9A 1_555 1_555
C42A C43A 1_555 1_555
O8A C42A 1_555 1_555
C41A O8A 1_555 1_555
C40A N3A 1_555 1_555
H54A C40A 1_555 1_555
H55A C40A 1_555 1_555
H56A C41A 1_555 1_555
H57A C41A 1_555 1_555
H58A C42A 1_555 1_555
H59A C42A 1_555 1_555
H60A C43A 1_555 1_555
H61A C43A 1_555 1_555
H62A C44A 1_555 1_555
H63A C44A 1_555 1_555
H64A C45A 1_555 1_555
H65A C45A 1_555 1_555
C46A N4A 1_555 1_555
C47A C46A 1_555 1_555
C48A C47 1_555 1_555
C47B C48 1_555 1_555
C46B C47B 1_555 1_555
N4B C46B 1_555 1_555
C39B N4B 1_555 1_555
C38B C39B 1_555 1_555
O7B C38B 1_555 1_555
C37B O7B 1_555 1_555
C36B C37B 1_555 1_555
O6B C36B 1_555 1_555
C35B O6B 1_555 1_555
C34B C35B 1_555 1_555
N3B C34B 1_555 1_555
C33B N3B 1_555 1_555
C29B C33B 1_555 1_555
C28B C29B 1_555 1_555
C27B C26B 1_555 1_555
C32B C27B 1_555 1_555
C31B C32B 1_555 1_555
C30B C29B 1_555 1_555
H37B C30B 1_555 1_555
H38B C31B 1_555 1_555
H39B C32B 1_555 1_555
H36B C28B 1_555 1_555
H40B C33B 1_555 1_555
H41B C33B 1_555 1_555
C40B N3B 1_555 1_555
C41B C40B 1_555 1_555
O8B C41B 1_555 1_555
C42B O8B 1_555 1_555
C43B C42B 1_555 1_555
O9B C43B 1_555 1_555
C44B O9B 1_555 1_555
C45B N4B 1_555 1_555
H64B C45B 1_555 1_555
H65B C45B 1_555 1_555
H62B C44B 1_555 1_555
H63B C44B 1_555 1_555
H60B C43B 1_555 1_555
H61B C43B 1_555 1_555
H58B C42B 1_555 1_555
H59B C42B 1_555 1_555
H56B C41B 1_555 1_555
H57B C41B 1_555 1_555
H54B C40B 1_555 1_555
H55B C40B 1_555 1_555
H42B C34B 1_555 1_555
H43B C34B 1_555 1_555
H44B C35B 1_555 1_555
H45B C35B 1_555 1_555
H46B C36B 1_555 1_555
H47B C36B 1_555 1_555
H48B C37B 1_555 1_555
H49B C37B 1_555 1_555
H50B C38B 1_555 1_555
H51B C38B 1_555 1_555
H52B C39B 1_555 1_555
H53B C39B 1_555 1_555
H66B C46B 1_555 1_555
H67B C46B 1_555 1_555
C48B C47A 1_555 1_555
H68B C48B 1_555 1_555
H68A C48A 1_555 1_555
H66A C46A 1_555 1_555
H67A C46A 1_555 1_555
H52A C39A 1_555 1_555
H53A C39A 1_555 1_555
H50A C38A 1_555 1_555
H51A C38A 1_555 1_555
H48A C37A 1_555 1_555
H49A C37A 1_555 1_555
H46A C36A 1_555 1_555
H47A C36A 1_555 1_555
H44A C35A 1_555 1_555
H45A C35A 1_555 1_555
H42A C34A 1_555 1_555
H43A C34A 1_555 1_555
H40A C33A 1_555 1_555
H41A C33A 1_555 1_555
H36A C28A 1_555 1_555
H35B C25B 1_555 1_555
C20 C21 1_555 1_555
C44 C45 1_555 1_555
C2B C1B 1_555 1_555
C7B C8B 1_555 1_555
C17B C16B 1_555 1_555
C22B C23B 1_555 1_555
C23A C24A 1_555 1_555
C4A C3A 1_555 1_555
C7A C6A 1_555 1_555
C20A C21A 1_555 1_555
C26A C25A 1_555 1_555
C31A C32A 1_555 1_555
C41A C40A 1_555 1_555
C47A C48A 1_555 1_555
C47B C48B 1_555 1_555
C28B C27B 1_555 1_555
C31B C30B 1_555 1_555
C44B C45B 1_555 1_555

#END
