
#######################################################################
#
#                 Cambridge Crystallographic Data Centre
#                                CCDC 
#
#######################################################################
#
# If this CIF has been generated from an entry in the Cambridge 
# Structural Database, then it will include bibliographic, chemical, 
# crystal, experimental, refinement or atomic coordinate data resulting 
# from the CCDC's data processing and validation procedures.
#
#######################################################################

data_SEKVEL
_chemical_formula_moiety         'C21 H31 Br1 N2 O4'
_chemical_name_systematic        
't-Butyl (5-((3-bromo-6-methoxypyridin-2-yl)methyl)-6-ethyl-6-hydroxy-3-methylcyclohex-1-en-1-yl)carbamate'
_symmetry_cell_setting           orthorhombic
_symmetry_space_group_name_H-M   'P 21 21 21'
_symmetry_Int_Tables_number      19
_space_group_name_Hall           'P 2ac 2ab'
loop_
_symmetry_equiv_pos_site_id
_symmetry_equiv_pos_as_xyz
1 x,y,z
2 1/2-x,-y,1/2+z
3 -x,1/2+y,1/2-z
4 1/2+x,1/2-y,-z
_cell_length_a                   11.8118(12)
_cell_length_b                   11.8117(12)
_cell_length_c                   16.2122(16)
_cell_angle_alpha                90
_cell_angle_beta                 90
_cell_angle_gamma                90
_cell_volume                     2261.88
_exptl_crystal_colour            colorless
_exptl_crystal_description       prismatic
_cell_formula_units_Z            4
loop_
_atom_site_label
_atom_site_type_symbol
_atom_site_fract_x
_atom_site_fract_y
_atom_site_fract_z
Br1 Br 0.77415(4) 0.91586(3) 0.08848(2)
N1 N 0.81747(17) 1.10047(16) 0.30106(12)
N2 N 0.91330(18) 0.67869(17) 0.53101(12)
O1 O 0.77107(13) 0.74064(13) 0.41547(12)
H1 H 0.7327 0.7985 0.4161
O2 O 0.79151(19) 1.29003(14) 0.33024(13)
O3 O 1.07243(16) 0.62227(16) 0.59906(14)
O4 O 0.90149(15) 0.53859(14) 0.61788(11)
C1 C 0.88641(17) 0.76896(18) 0.39781(14)
C2 C 0.95227(18) 0.76482(17) 0.47799(13)
C3 C 1.0343(2) 0.83600(19) 0.49801(15)
H2 H 1.0691 0.8265 0.5490
C4 C 1.0747(2) 0.9302(2) 0.44460(15)
H3 H 1.1561 0.9193 0.4360
C5 C 1.01826(19) 0.9283(2) 0.36010(15)
H4 H 1.0217 1.0037 0.3365
H5 H 1.0606 0.8781 0.3242
C6 C 0.89543(19) 0.88986(18) 0.36215(14)
H6 H 0.8539 0.9409 0.3989
C7 C 0.8412(2) 0.8972(2) 0.27665(15)
H7 H 0.8924 0.8630 0.2370
H8 H 0.7723 0.8526 0.2770
C8 C 0.8126(2) 1.0155(2) 0.24741(16)
C9 C 0.7877(2) 1.2026(2) 0.27676(17)
C10 C 0.7505(2) 1.2275(2) 0.19752(18)
H9 H 0.7280 1.3004 0.1833
C11 C 0.7479(2) 1.1425(3) 0.14178(19)
H10 H 0.7258 1.1561 0.0876
C12 C 0.7791(2) 1.0339(2) 0.16674(16)
C13 C 0.9284(2) 0.67788(18) 0.33736(15)
H11 H 0.8869 0.6860 0.2861
H12 H 1.0076 0.6924 0.3255
C14 C 0.9169(3) 0.5561(2) 0.36636(18)
H13 H 0.9721 0.5412 0.4085
H14 H 0.9292 0.5059 0.3207
H15 H 0.8423 0.5443 0.3882
C15 C 1.0592(3) 1.0438(2) 0.48892(18)
H16 H 0.9799 1.0587 0.4961
H17 H 1.0926 1.1031 0.4566
H18 H 1.0954 1.0408 0.5419
C16 C 0.9733(2) 0.61389(19) 0.58448(16)
C17 C 0.9401(3) 0.4535(2) 0.67840(19)
C18 C 0.8300(3) 0.3935(3) 0.6989(3)
H19 H 0.7773 0.4469 0.7216
H20 H 0.8443 0.3347 0.7385
H21 H 0.7989 0.3609 0.6496
C19 C 1.0228(3) 0.3752(3) 0.6367(3)
H22 H 0.9886 0.3436 0.5882
H23 H 1.0432 0.3154 0.6739
H24 H 1.0894 0.4168 0.6215
C20 C 0.9874(4) 0.5114(4) 0.7528(2)
H25 H 1.0559 0.5502 0.7381
H26 H 1.0036 0.4561 0.7946
H27 H 0.9332 0.5649 0.7734
C21 C 0.8313(4) 1.2675(3) 0.4102(2)
H28 H 0.7883 1.2066 0.4339
H29 H 0.8230 1.3340 0.4437
H30 H 0.9097 1.2465 0.4078
H31 H 0.8504(14) 0.6600(18) 0.5210(13)
loop_
_geom_bond_atom_site_label_1
_geom_bond_atom_site_label_2
_geom_bond_site_symmetry_1
_geom_bond_site_symmetry_2
Br1 C12 1_555 1_555
N1 C8 1_555 1_555
N2 C2 1_555 1_555
O1 H1 1_555 1_555
O2 C9 1_555 1_555
O3 C16 1_555 1_555
O4 C16 1_555 1_555
C1 O1 1_555 1_555
C2 C1 1_555 1_555
C3 C2 1_555 1_555
H2 C3 1_555 1_555
C4 C3 1_555 1_555
H3 C4 1_555 1_555
C5 C4 1_555 1_555
H4 C5 1_555 1_555
H5 C5 1_555 1_555
C6 C1 1_555 1_555
H6 C6 1_555 1_555
C7 C6 1_555 1_555
H7 C7 1_555 1_555
H8 C7 1_555 1_555
C8 C7 1_555 1_555
C9 N1 1_555 1_555
C10 C9 1_555 1_555
H9 C10 1_555 1_555
C11 C10 1_555 1_555
H10 C11 1_555 1_555
C12 C8 1_555 1_555
C13 C1 1_555 1_555
H11 C13 1_555 1_555
H12 C13 1_555 1_555
C14 C13 1_555 1_555
H13 C14 1_555 1_555
H14 C14 1_555 1_555
H15 C14 1_555 1_555
C15 C4 1_555 1_555
H16 C15 1_555 1_555
H17 C15 1_555 1_555
H18 C15 1_555 1_555
C16 N2 1_555 1_555
C17 O4 1_555 1_555
C18 C17 1_555 1_555
H19 C18 1_555 1_555
H20 C18 1_555 1_555
H21 C18 1_555 1_555
C19 C17 1_555 1_555
H22 C19 1_555 1_555
H23 C19 1_555 1_555
H24 C19 1_555 1_555
C20 C17 1_555 1_555
H25 C20 1_555 1_555
H26 C20 1_555 1_555
H27 C20 1_555 1_555
C21 O2 1_555 1_555
H28 C21 1_555 1_555
H29 C21 1_555 1_555
H30 C21 1_555 1_555
H31 N2 1_555 1_555
C5 C6 1_555 1_555
C11 C12 1_555 1_555

#END
