
#######################################################################
#
#                 Cambridge Crystallographic Data Centre
#                                CCDC 
#
#######################################################################
#
# If this CIF has been generated from an entry in the Cambridge 
# Structural Database, then it will include bibliographic, chemical, 
# crystal, experimental, refinement or atomic coordinate data resulting 
# from the CCDC's data processing and validation procedures.
#
#######################################################################

data_SEKXEO
_chemical_formula_moiety         'C10 H15 N4 O2 1+,N1 O3 1-'
_chemical_name_systematic        
'2-ethyl-3-{1-[2-(methoxycarbonyl)hydrazinylidene]ethyl}pyrazin-1-ium nitrate'
_symmetry_cell_setting           monoclinic
_symmetry_space_group_name_H-M   'P 21/c'
_symmetry_Int_Tables_number      14
_space_group_name_Hall           '-P 2ybc'
loop_
_symmetry_equiv_pos_site_id
_symmetry_equiv_pos_as_xyz
1 x,y,z
2 -x,1/2+y,1/2-z
3 -x,-y,-z
4 x,1/2-y,1/2+z
_cell_length_a                   7.398(11)
_cell_length_b                   19.91(3)
_cell_length_c                   18.07(3)
_cell_angle_alpha                90
_cell_angle_beta                 102.15(3)
_cell_angle_gamma                90
_cell_volume                     2601.99
_exptl_crystal_colour            colorless
_exptl_crystal_description       rod
_cell_formula_units_Z            8
loop_
_atom_site_label
_atom_site_type_symbol
_atom_site_fract_x
_atom_site_fract_y
_atom_site_fract_z
O1 O 0.2775(4) 0.18485(11) 0.57227(15)
O2 O 0.4481(3) 0.12044(10) 0.65960(13)
N1 N 0.4394(4) 0.45263(13) 0.71176(15)
N2 N 0.2988(5) 0.47828(14) 0.56768(17)
H1 H 0.2541 0.4871 0.5208
N3 N 0.4216(4) 0.29082(12) 0.65189(15)
N4 N 0.4716(4) 0.22797(12) 0.67455(15)
H2 H 0.5523 0.2200 0.7153
C1 C 0.3764(5) 0.51269(17) 0.6894(2)
H3 H 0.3836 0.5467 0.7251
C2 C 0.3025(5) 0.52623(18) 0.6171(2)
H4 H 0.2550 0.5686 0.6024
C3 C 0.3599(7) 0.41723(17) 0.5858(2)
C4 C 0.4282(5) 0.40503(15) 0.66146(18)
C5 C 0.4975(5) 0.33943(15) 0.69093(17)
C6 C 0.6400(5) 0.33714(17) 0.7608(2)
H5 H 0.5822 0.3361 0.8036
H6 H 0.7171 0.3762 0.7637
H7 H 0.7140 0.2975 0.7608
C7 C 0.3875(5) 0.17807(16) 0.6296(2)
C8 C 0.3732(5) 0.06221(15) 0.6191(2)
H8 H 0.3618 0.0697 0.5658
H9 H 0.2536 0.0529 0.6294
H10 H 0.4537 0.0247 0.6347
C9 C 0.4155(11) 0.3747(4) 0.5205(4)
H11 H 0.4703 0.4034 0.4878
H12 H 0.5042 0.3403 0.5415
C10 C 0.2498(10) 0.3450(4) 0.4791(5)
H13 H 0.1645 0.3797 0.4576
H14 H 0.1954 0.3178 0.5124
H15 H 0.2777 0.3176 0.4393
N5 N 0.7106(6) 0.20106(15) 0.88364(19)
O3 O 0.6491(6) 0.17845(13) 0.82147(16)
O4 O 0.8403(6) 0.17505(16) 0.9241(2)
O5 O 0.6383(5) 0.24868(15) 0.90896(16)
O6 O 0.0768(5) 0.56778(12) 0.33701(15)
O7 O 0.1030(6) 0.5638(2) 0.4546(2)
O8 O 0.2715(6) 0.5012(2) 0.4058(2)
N6 N 0.1482(5) 0.54502(16) 0.3972(2)
C13 C -0.0170(5) 0.23059(17) 0.1634(2)
H21 H 0.0345 0.1943 0.1929
C14 C -0.1015(5) 0.21983(16) 0.0915(2)
H22 H -0.1070 0.1771 0.0704
C15 C -0.1716(4) 0.33332(15) 0.07776(18)
C16 C -0.0769(4) 0.34201(15) 0.15201(17)
C17 C -0.2660(5) 0.38335(16) 0.02156(19)
H23 H -0.3750 0.3630 -0.0096
H24 H -0.3059 0.4211 0.0480
C18 C -0.1434(7) 0.4075(2) -0.0271(3)
H25 H -0.2082 0.4397 -0.0626
H26 H -0.1056 0.3703 -0.0541
H27 H -0.0364 0.4283 0.0036
C19 C -0.0459(5) 0.40720(16) 0.19040(17)
C20 C 0.0768(6) 0.40787(18) 0.2674(2)
H28 H 0.0026 0.4059 0.3050
H29 H 0.1487 0.4484 0.2739
H30 H 0.1581 0.3698 0.2729
C21 C -0.1842(5) 0.56884(16) 0.1425(2)
C22 C -0.2052(6) 0.68467(17) 0.1380(2)
H31 H -0.1575 0.7234 0.1673
H32 H -0.3375 0.6838 0.1309
H33 H -0.1715 0.6867 0.0895
O11 O -0.2914(4) 0.56295(12) 0.08518(15)
O12 O -0.1300(3) 0.62567(11) 0.17660(12)
N7 N -0.0044(4) 0.29089(13) 0.19367(14)
N8 N -0.1764(4) 0.27151(13) 0.05165(15)
H34 H -0.2322 0.2646 0.0055
N9 N -0.1213(4) 0.45659(12) 0.15418(14)
N10 N -0.0929(4) 0.51822(12) 0.18443(14)
H35 H -0.0211 0.5251 0.2278
C11? C 0.2630(11) 0.3695(4) 0.5277(5)
H16? H 0.1593 0.3903 0.4936
H17? H 0.2216 0.3297 0.5501
C12? C 0.421(2) 0.3548(9) 0.4894(10)
H18? H 0.3918 0.3158 0.4580
H19? H 0.5310 0.3468 0.5271
H20? H 0.4394 0.3925 0.4588
O9? O 0.075(2) 0.5058(10) 0.4283(10)
O10? O 0.287(3) 0.5677(11) 0.4304(13)
loop_
_geom_bond_atom_site_label_1
_geom_bond_atom_site_label_2
_geom_bond_site_symmetry_1
_geom_bond_site_symmetry_2
O1 C7 1_555 1_555
O2 C7 1_555 1_555
N1 C1 1_555 1_555
N2 H1 1_555 1_555
N3 N4 1_555 1_555
N4 H2 1_555 1_555
C1 H3 1_555 1_555
C2 N2 1_555 1_555
H4 C2 1_555 1_555
C3 N2 1_555 1_555
C4 N1 1_555 1_555
C5 N3 1_555 1_555
C6 C5 1_555 1_555
H5 C6 1_555 1_555
H6 C6 1_555 1_555
H7 C6 1_555 1_555
C7 N4 1_555 1_555
C8 O2 1_555 1_555
H8 C8 1_555 1_555
H9 C8 1_555 1_555
H10 C8 1_555 1_555
C9 C3 1_555 1_555
H11 C9 1_555 1_555
H12 C9 1_555 1_555
C10 C9 1_555 1_555
H13 C10 1_555 1_555
H14 C10 1_555 1_555
H15 C10 1_555 1_555
N5 O3 1_555 1_555
O4 N5 1_555 1_555
O5 N5 1_555 1_555
O6 N6 1_555 1_555
O7 N6 1_555 1_555
O8 N6 1_555 1_555
C13 H21 1_555 1_555
C14 C13 1_555 1_555
H22 C14 1_555 1_555
C15 C16 1_555 1_555
C16 C19 1_555 1_555
C17 C15 1_555 1_555
H23 C17 1_555 1_555
H24 C17 1_555 1_555
C18 C17 1_555 1_555
H25 C18 1_555 1_555
H26 C18 1_555 1_555
H27 C18 1_555 1_555
C19 C20 1_555 1_555
C20 H28 1_555 1_555
H29 C20 1_555 1_555
H30 C20 1_555 1_555
C21 O11 1_555 1_555
C22 H31 1_555 1_555
H32 C22 1_555 1_555
H33 C22 1_555 1_555
O12 C21 1_555 1_555
N7 C13 1_555 1_555
N8 C14 1_555 1_555
H34 N8 1_555 1_555
N9 C19 1_555 1_555
N10 C21 1_555 1_555
H35 N10 1_555 1_555
C1 C2 1_555 1_555
C3 C4 1_555 1_555
C4 C5 1_555 1_555
C15 N8 1_555 1_555
C16 N7 1_555 1_555
C22 O12 1_555 1_555
N9 N10 1_555 1_555

#END
