
#######################################################################
#
#                 Cambridge Crystallographic Data Centre
#                                CCDC 
#
#######################################################################
#
# If this CIF has been generated from an entry in the Cambridge 
# Structural Database, then it will include bibliographic, chemical, 
# crystal, experimental, refinement or atomic coordinate data resulting 
# from the CCDC's data processing and validation procedures.
#
#######################################################################

data_SEKXIR
_chemical_name_common            
1,1',1''-Benzene-1,3,5-triyltris(1H-benzimidazole)
_chemical_formula_moiety         'C27 H18 N6'
_chemical_name_systematic        1,3,5-Tribenzimidazolylbenzene
_symmetry_cell_setting           orthorhombic
_symmetry_space_group_name_H-M   'P c a 21'
_symmetry_Int_Tables_number      29
_space_group_name_Hall           'P 2c -2ac'
loop_
_symmetry_equiv_pos_site_id
_symmetry_equiv_pos_as_xyz
1 x,y,z
2 -x,-y,1/2+z
3 1/2-x,y,1/2+z
4 1/2+x,-y,z
_cell_length_a                   16.7951(9)
_cell_length_b                   16.5308(12)
_cell_length_c                   7.4080(5)
_cell_angle_alpha                90
_cell_angle_beta                 90
_cell_angle_gamma                90
_cell_volume                     2056.73
_exptl_crystal_colour            colorless
_exptl_crystal_description       needle
_cell_formula_units_Z            4
_exptl_crystal_recrystallization_method dichloromethane/hexane
loop_
_atom_site_label
_atom_site_type_symbol
_atom_site_fract_x
_atom_site_fract_y
_atom_site_fract_z
N1 N 0.44438(12) 0.35291(11) 0.6491(3)
N2 N 0.43403(12) 0.47274(11) 0.7917(3)
N3 N 0.68461(11) 0.22416(10) 0.4422(3)
N4 N 0.42601(12) 0.12806(11) 0.2262(3)
N5 N 0.80511(11) 0.17277(11) 0.5071(4)
N6 N 0.31546(12) 0.06268(12) 0.1336(3)
C1 C 0.38897(15) 0.41495(13) 0.8822(4)
C2 C 0.34317(16) 0.42251(15) 1.0384(4)
H1 H 0.3386 0.4730 1.0988
C3 C 0.30486(16) 0.35493(16) 1.1026(4)
H2 H 0.2731 0.3590 1.2083
C4 C 0.31172(15) 0.27994(15) 1.0150(4)
H3 H 0.2845 0.2344 1.0630
C5 C 0.35692(15) 0.27075(14) 0.8613(4)
H4 H 0.3621 0.2199 0.8027
C6 C 0.39453(14) 0.33983(13) 0.7964(3)
C7 C 0.46626(15) 0.43361(14) 0.6580(4)
H5 H 0.5016 0.4581 0.5742
C8 C 0.81192(14) 0.25603(13) 0.4771(4)
C9 C 0.87882(14) 0.30613(14) 0.4860(4)
H6 H 0.9299 0.2848 0.5136
C10 C 0.86813(16) 0.38721(14) 0.4535(4)
H7 H 0.9126 0.4226 0.4615
C11 C 0.79325(16) 0.41917(14) 0.4088(4)
H8 H 0.7886 0.4754 0.3845
C12 C 0.72632(15) 0.37124(13) 0.3993(4)
H9 H 0.6755 0.3927 0.3694
C13 C 0.73748(14) 0.28936(12) 0.4362(3)
C14 C 0.72947(14) 0.15753(13) 0.4850(4)
H10 H 0.7074 0.1049 0.4975
C15 C 0.37148(14) 0.06428(13) -0.0064(4)
C16 C 0.36428(15) 0.03503(13) -0.1824(4)
H11 H 0.3169 0.0092 -0.2222
C17 C 0.42858(16) 0.04505(14) -0.2966(4)
H12 H 0.4253 0.0261 -0.4175
C18 C 0.49815(16) 0.08260(14) -0.2372(3)
H13 H 0.5419 0.0870 -0.3179
C19 C 0.50566(14) 0.11342(13) -0.0658(4)
H14 H 0.5530 0.1398 -0.0275
C20 C 0.44099(13) 0.10415(12) 0.0488(3)
C21 C 0.35042(15) 0.10095(14) 0.2656(4)
H15 H 0.3258 0.1094 0.3795
C22 C 0.48082(14) 0.29312(13) 0.5372(4)
C23 C 0.43528(13) 0.24097(12) 0.4356(4)
H16 H 0.3789 0.2459 0.4340
C24 C 0.47295(14) 0.18080(13) 0.3350(3)
C25 C 0.55565(14) 0.17392(13) 0.3353(3)
H17 H 0.5813 0.1324 0.2683
C26 C 0.59968(14) 0.22875(13) 0.4351(3)
C27 C 0.56325(14) 0.28823(13) 0.5388(4)
H18 H 0.5941 0.3247 0.6091
loop_
_geom_bond_atom_site_label_1
_geom_bond_atom_site_label_2
_geom_bond_site_symmetry_1
_geom_bond_site_symmetry_2
N1 C6 1_555 1_555
N2 C1 1_555 1_555
N3 C13 1_555 1_555
N4 C20 1_555 1_555
N5 C8 1_555 1_555
N6 C15 1_555 1_555
C1 C2 1_555 1_555
C2 H1 1_555 1_555
C3 C2 1_555 1_555
H2 C3 1_555 1_555
C4 C3 1_555 1_555
H3 C4 1_555 1_555
C5 C4 1_555 1_555
H4 C5 1_555 1_555
C6 C1 1_555 1_555
C7 N1 1_555 1_555
H5 C7 1_555 1_555
C8 C9 1_555 1_555
C9 H6 1_555 1_555
C10 C9 1_555 1_555
H7 C10 1_555 1_555
C11 C10 1_555 1_555
H8 C11 1_555 1_555
C12 C11 1_555 1_555
H9 C12 1_555 1_555
C13 C8 1_555 1_555
C14 N3 1_555 1_555
H10 C14 1_555 1_555
C15 C16 1_555 1_555
C16 H11 1_555 1_555
C17 C16 1_555 1_555
H12 C17 1_555 1_555
C18 C17 1_555 1_555
H13 C18 1_555 1_555
C19 C18 1_555 1_555
H14 C19 1_555 1_555
C20 C15 1_555 1_555
C21 N4 1_555 1_555
H15 C21 1_555 1_555
C22 N1 1_555 1_555
C23 C22 1_555 1_555
H16 C23 1_555 1_555
C24 N4 1_555 1_555
C25 C24 1_555 1_555
H17 C25 1_555 1_555
C26 N3 1_555 1_555
C27 C22 1_555 1_555
H18 C27 1_555 1_555
N2 C7 1_555 1_555
N5 C14 1_555 1_555
N6 C21 1_555 1_555
C5 C6 1_555 1_555
C12 C13 1_555 1_555
C19 C20 1_555 1_555
C23 C24 1_555 1_555
C25 C26 1_555 1_555
C26 C27 1_555 1_555

#END
