
#######################################################################
#
#                 Cambridge Crystallographic Data Centre
#                                CCDC 
#
#######################################################################
#
# If this CIF has been generated from an entry in the Cambridge 
# Structural Database, then it will include bibliographic, chemical, 
# crystal, experimental, refinement or atomic coordinate data resulting 
# from the CCDC's data processing and validation procedures.
#
#######################################################################

data_SELDOE01
_chemical_formula_moiety         'C25 H27 B1 O1'
_chemical_name_systematic        
1,1-bis(2,4,6-trimethylphenyl)-2,1-benzoxaborol-2-ium-1-ide
_symmetry_cell_setting           triclinic
_symmetry_space_group_name_H-M   'P -1'
_symmetry_Int_Tables_number      2
_space_group_name_Hall           '-P 1'
loop_
_symmetry_equiv_pos_site_id
_symmetry_equiv_pos_as_xyz
1 x,y,z
2 -x,-y,-z
_cell_length_a                   8.4880(6)
_cell_length_b                   10.8609(7)
_cell_length_c                   12.4693(9)
_cell_angle_alpha                97.707(2)
_cell_angle_beta                 98.593(2)
_cell_angle_gamma                105.796(2)
_cell_volume                     1075.07
_exptl_crystal_colour            orange
_exptl_crystal_description       block
_cell_formula_units_Z            2
loop_
_atom_site_label
_atom_site_type_symbol
_atom_site_fract_x
_atom_site_fract_y
_atom_site_fract_z
B1 B 0.46924(18) 0.62084(14) 0.30714(12)
O1 O 0.36317(11) 0.52120(9) 0.37689(7)
C1 C 0.37592(18) 0.40922(13) 0.35134(11)
H1 H 0.3311 0.3405 0.3881
C2 C 0.46212(17) 0.39176(13) 0.26339(11)
C3 C 0.4792(2) 0.27534(15) 0.21108(13)
H2 H 0.4386 0.1961 0.2363
C4 C 0.5569(2) 0.27935(16) 0.12181(13)
H3 H 0.5721 0.2023 0.0849
C5 C 0.61330(18) 0.39670(15) 0.08548(11)
H4 H 0.6645 0.3978 0.0228
C6 C 0.59661(16) 0.51140(13) 0.13836(10)
H5 H 0.6359 0.5898 0.1116
C7 C 0.52208(15) 0.51262(12) 0.23126(10)
C8 C 0.59986(16) 0.72446(12) 0.41064(10)
C9 C 0.77314(16) 0.74078(13) 0.43591(11)
C10 C 0.87468(17) 0.83388(14) 0.52604(11)
H6 H 0.9910 0.8438 0.5409
C11 C 0.81205(18) 0.91218(13) 0.59449(11)
C12 C 0.64216(18) 0.89375(12) 0.57139(11)
H7 H 0.5962 0.9461 0.6173
C13 C 0.53542(16) 0.80140(12) 0.48338(10)
C14 C 0.35070(17) 0.78547(14) 0.47317(12)
H8 H 0.3346 0.8549 0.5252
H9 H 0.2945 0.7007 0.4899
H10 H 0.3035 0.7904 0.3978
C15 C 0.85883(18) 0.66060(16) 0.37103(13)
H11 H 0.9771 0.6847 0.4057
H12 H 0.8487 0.6770 0.2953
H13 H 0.8064 0.5680 0.3700
C16 C 0.9246(2) 1.01010(17) 0.69159(14)
H14 H 0.8780 1.0824 0.7072
H15 H 1.0357 1.0433 0.6745
H16 H 0.9332 0.9684 0.7563
C17 C 0.34991(16) 0.68015(13) 0.22585(10)
C18 C 0.17915(17) 0.61700(14) 0.18140(11)
C19 C 0.0887(2) 0.67163(17) 0.10842(13)
H17 H -0.0260 0.6271 0.0797
C20 C 0.1593(2) 0.78773(17) 0.07638(13)
C21 C 0.3268(2) 0.84826(15) 0.11793(12)
H18 H 0.3785 0.9281 0.0969
C22 C 0.42346(19) 0.79688(14) 0.18973(11)
C23 C 0.08539(18) 0.48921(16) 0.20737(14)
H19 H -0.0283 0.4601 0.1635
H20 H 0.0809 0.5001 0.2860
H21 H 0.1425 0.4242 0.1895
C24 C 0.6071(2) 0.87028(16) 0.22322(15)
H22 H 0.6379 0.9307 0.1728
H23 H 0.6724 0.8085 0.2199
H24 H 0.6303 0.9193 0.2987
C25 C 0.0592(3) 0.8454(2) -0.00242(18)
H25 H 0.1044 0.9405 0.0140
H26 H -0.0576 0.8199 0.0060
H27 H 0.0659 0.8131 -0.0784
loop_
_geom_bond_atom_site_label_1
_geom_bond_atom_site_label_2
_geom_bond_site_symmetry_1
_geom_bond_site_symmetry_2
B1 O1 1_555 1_555
O1 C1 1_555 1_555
C1 H1 1_555 1_555
C2 C1 1_555 1_555
C3 C2 1_555 1_555
H2 C3 1_555 1_555
C4 C3 1_555 1_555
H3 C4 1_555 1_555
C5 C4 1_555 1_555
H4 C5 1_555 1_555
C6 C5 1_555 1_555
H5 C6 1_555 1_555
C7 B1 1_555 1_555
C8 B1 1_555 1_555
C9 C8 1_555 1_555
C10 C9 1_555 1_555
H6 C10 1_555 1_555
C11 C10 1_555 1_555
C12 C11 1_555 1_555
H7 C12 1_555 1_555
C13 C8 1_555 1_555
C14 C13 1_555 1_555
H8 C14 1_555 1_555
H9 C14 1_555 1_555
H10 C14 1_555 1_555
C15 C9 1_555 1_555
H11 C15 1_555 1_555
H12 C15 1_555 1_555
H13 C15 1_555 1_555
C16 C11 1_555 1_555
H14 C16 1_555 1_555
H15 C16 1_555 1_555
H16 C16 1_555 1_555
C17 B1 1_555 1_555
C18 C17 1_555 1_555
C19 C18 1_555 1_555
H17 C19 1_555 1_555
C20 C19 1_555 1_555
C21 C20 1_555 1_555
H18 C21 1_555 1_555
C22 C17 1_555 1_555
C23 C18 1_555 1_555
H19 C23 1_555 1_555
H20 C23 1_555 1_555
H21 C23 1_555 1_555
C24 C22 1_555 1_555
H22 C24 1_555 1_555
H23 C24 1_555 1_555
H24 C24 1_555 1_555
C25 C20 1_555 1_555
H25 C25 1_555 1_555
H26 C25 1_555 1_555
H27 C25 1_555 1_555
C2 C7 1_555 1_555
C6 C7 1_555 1_555
C12 C13 1_555 1_555
C21 C22 1_555 1_555

#END
