
#######################################################################
#
#                 Cambridge Crystallographic Data Centre
#                                CCDC 
#
#######################################################################
#
# If this CIF has been generated from an entry in the Cambridge 
# Structural Database, then it will include bibliographic, chemical, 
# crystal, experimental, refinement or atomic coordinate data resulting 
# from the CCDC's data processing and validation procedures.
#
#######################################################################

data_SELGOI
_chemical_formula_moiety         'C13 H12 N2 O1'
_chemical_name_systematic        2-(phenylamino)benzamide
_symmetry_cell_setting           orthorhombic
_symmetry_space_group_name_H-M   'P 21 21 21'
_symmetry_Int_Tables_number      19
_space_group_name_Hall           'P 2ac 2ab'
loop_
_symmetry_equiv_pos_site_id
_symmetry_equiv_pos_as_xyz
1 x,y,z
2 1/2-x,-y,1/2+z
3 -x,1/2+y,1/2-z
4 1/2+x,1/2-y,-z
_cell_length_a                   7.4367(5)
_cell_length_b                   11.0255(8)
_cell_length_c                   13.3188(9)
_cell_angle_alpha                90
_cell_angle_beta                 90
_cell_angle_gamma                90
_cell_volume                     1092.05
_cell_formula_units_Z            4
loop_
_atom_site_label
_atom_site_type_symbol
_atom_site_fract_x
_atom_site_fract_y
_atom_site_fract_z
O1 O 0.2284(3) 0.75865(17) 0.58741(12)
C1 C 0.3164(3) 0.6988(2) 0.87601(18)
C2 C 0.2556(3) 0.8898(2) 0.77906(17)
N1 N 0.3102(3) 0.76939(19) 0.78886(16)
C3 C 0.1649(3) 0.9290(2) 0.69200(16)
C4 C 0.2942(4) 0.9759(2) 0.85348(18)
H1 H 0.3562 0.9523 0.9109
C5 C 0.2416(4) 0.6547(2) 1.04815(19)
H2 H 0.1845 0.6769 1.1075
C6 C 0.1148(4) 1.0500(2) 0.68349(17)
H3 H 0.0549 1.0757 0.6260
C7 C 0.4175(4) 0.5145(2) 0.9550(2)
H4 H 0.4797 0.4415 0.9509
C8 C 0.4080(4) 0.5890(2) 0.8722(2)
H5 H 0.4638 0.5656 0.8128
C9 C 0.2312(4) 0.7301(2) 0.96528(17)
H6 H 0.1667 0.8022 0.9693
C10 C 0.2414(4) 1.0952(2) 0.84267(18)
H7 H 0.2669 1.1508 0.8932
C11 C 0.1257(4) 0.8429(2) 0.60883(17)
N2 N -0.0264(4) 0.8616(3) 0.55750(19)
C12 C 0.1516(4) 1.1328(2) 0.75808(18)
H8 H 0.1161 1.2132 0.7513
C13 C 0.3359(4) 0.5469(3) 1.0437(2)
H9 H 0.3441 0.4970 1.0998
H10 H 0.308(4) 0.731(2) 0.732(2)
H11 H -0.058(6) 0.810(3) 0.506(3)
H12 H -0.102(5) 0.920(3) 0.576(2)
loop_
_geom_bond_atom_site_label_1
_geom_bond_atom_site_label_2
_geom_bond_site_symmetry_1
_geom_bond_site_symmetry_2
O1 C11 1_555 1_555
C1 N1 1_555 1_555
C2 N1 1_555 1_555
N1 H10 1_555 1_555
C3 C2 1_555 1_555
C4 C2 1_555 1_555
H1 C4 1_555 1_555
C5 H2 1_555 1_555
C6 C3 1_555 1_555
H3 C6 1_555 1_555
C7 H4 1_555 1_555
C8 C1 1_555 1_555
H5 C8 1_555 1_555
C9 C1 1_555 1_555
H6 C9 1_555 1_555
C10 C4 1_555 1_555
H7 C10 1_555 1_555
C11 C3 1_555 1_555
N2 C11 1_555 1_555
C12 C6 1_555 1_555
H8 C12 1_555 1_555
C13 C5 1_555 1_555
H9 C13 1_555 1_555
H11 N2 1_555 1_555
H12 N2 1_555 1_555
C5 C9 1_555 1_555
C7 C8 1_555 1_555
C7 C13 1_555 1_555
C10 C12 1_555 1_555

#END
