
#######################################################################
#
#                 Cambridge Crystallographic Data Centre
#                                CCDC 
#
#######################################################################
#
# If this CIF has been generated from an entry in the Cambridge 
# Structural Database, then it will include bibliographic, chemical, 
# crystal, experimental, refinement or atomic coordinate data resulting 
# from the CCDC's data processing and validation procedures.
#
#######################################################################

data_SELLUS
_chemical_formula_moiety         'C15 H17 N1 O3,2(H2 O1)'
_chemical_name_systematic        
'Methyl (1S,2R,3R,6S)-(-)-3-phenyl-8-oxa-7-azatricyclo[4.2.1.0^3,7^]nonane-2-carboxylate dihydrate'
_symmetry_cell_setting           orthorhombic
_symmetry_space_group_name_H-M   'P 21 21 2'
_symmetry_Int_Tables_number      18
_space_group_name_Hall           'P 2 2ab'
loop_
_symmetry_equiv_pos_site_id
_symmetry_equiv_pos_as_xyz
1 x,y,z
2 -x,-y,z
3 1/2-x,1/2+y,-z
4 1/2+x,1/2-y,-z
_cell_length_a                   11.2502(11)
_cell_length_b                   22.633(2)
_cell_length_c                   5.7548(5)
_cell_angle_alpha                90
_cell_angle_beta                 90
_cell_angle_gamma                90
_cell_volume                     1465.32
_exptl_crystal_colour            colorless
_exptl_crystal_description       needle
_cell_formula_units_Z            4
loop_
_atom_site_label
_atom_site_type_symbol
_atom_site_fract_x
_atom_site_fract_y
_atom_site_fract_z
C1 C -0.15503(15) 0.25828(9) 0.3764(3)
H1 H -0.2429 0.2526 0.3893
C2 C -0.09684(14) 0.22003(9) 0.1918(3)
H2 H -0.1027 0.2399 0.0370
C3 C 0.03803(14) 0.22058(9) 0.2792(3)
C4 C 0.11863(14) 0.25921(9) 0.1269(3)
H3 H 0.0941 0.2568 -0.0380
H4 H 0.2024 0.2463 0.1399
C5 C 0.10387(18) 0.32265(10) 0.2190(4)
H5 H 0.1807 0.3384 0.2756
H6 H 0.0732 0.3491 0.0957
C6 C 0.01562(16) 0.31765(9) 0.4159(3)
H7 H 0.0348 0.3465 0.5421
C7 C -0.11783(17) 0.32214(9) 0.3458(4)
H8 H -0.1625 0.3488 0.4506
H9 H -0.1275 0.3355 0.1831
C8 C -0.14934(15) 0.15905(9) 0.1779(3)
C9 C -0.1535(2) 0.07265(10) -0.0527(4)
H10 H -0.1021 0.0467 0.0396
H11 H -0.1472 0.0620 -0.2172
H12 H -0.2361 0.0681 -0.0015
C10 C 0.08728(14) 0.15928(9) 0.3221(3)
C11 C 0.06511(17) 0.12958(9) 0.5297(3)
H13 H 0.0200 0.1482 0.6484
C12 C 0.10855(19) 0.07288(10) 0.5638(4)
H14 H 0.0925 0.0531 0.7059
C13 C 0.17486(18) 0.04468(10) 0.3942(4)
H15 H 0.2049 0.0060 0.4189
C14 C 0.19630(18) 0.07404(11) 0.1886(4)
H16 H 0.2412 0.0552 0.0700
C15 C 0.15348(17) 0.13049(10) 0.1526(3)
H17 H 0.1695 0.1499 0.0097
O1 O -0.08986(11) 0.24162(6) 0.5839(2)
O2 O -0.21164(12) 0.13599(7) 0.3206(3)
O3 O -0.11718(12) 0.13285(6) -0.0217(2)
N1 N 0.02898(12) 0.25563(7) 0.5010(3)
loop_
_geom_bond_atom_site_label_1
_geom_bond_atom_site_label_2
_geom_bond_site_symmetry_1
_geom_bond_site_symmetry_2
C1 H1 1_555 1_555
C2 C1 1_555 1_555
H2 C2 1_555 1_555
C3 C2 1_555 1_555
C4 C3 1_555 1_555
H3 C4 1_555 1_555
H4 C4 1_555 1_555
C5 C4 1_555 1_555
H5 C5 1_555 1_555
H6 C5 1_555 1_555
C6 C5 1_555 1_555
H7 C6 1_555 1_555
C7 C1 1_555 1_555
H8 C7 1_555 1_555
H9 C7 1_555 1_555
C8 C2 1_555 1_555
C9 H10 1_555 1_555
H11 C9 1_555 1_555
H12 C9 1_555 1_555
C10 C3 1_555 1_555
C11 C10 1_555 1_555
H13 C11 1_555 1_555
C12 C11 1_555 1_555
H14 C12 1_555 1_555
C13 C12 1_555 1_555
H15 C13 1_555 1_555
C14 C13 1_555 1_555
H16 C14 1_555 1_555
C15 C10 1_555 1_555
H17 C15 1_555 1_555
O1 C1 1_555 1_555
O2 C8 1_555 1_555
O3 C8 1_555 1_555
N1 C3 1_555 1_555
C6 C7 1_555 1_555
C6 N1 1_555 1_555
C9 O3 1_555 1_555
C14 C15 1_555 1_555
O1 N1 1_555 1_555

#END
