
#######################################################################
#
#                 Cambridge Crystallographic Data Centre
#                                CCDC 
#
#######################################################################
#
# If this CIF has been generated from an entry in the Cambridge 
# Structural Database, then it will include bibliographic, chemical, 
# crystal, experimental, refinement or atomic coordinate data resulting 
# from the CCDC's data processing and validation procedures.
#
#######################################################################

data_SELMUU
_chemical_formula_moiety         'C23 H16 N2 O1'
_chemical_name_systematic        
9-methyl-5-(quinolin-8-yl)phenanthridin-6(5H)-one
_symmetry_cell_setting           monoclinic
_symmetry_space_group_name_H-M   'P 21/c'
_symmetry_Int_Tables_number      14
_space_group_name_Hall           '-P 2ybc'
loop_
_symmetry_equiv_pos_site_id
_symmetry_equiv_pos_as_xyz
1 x,y,z
2 -x,1/2+y,1/2-z
3 -x,-y,-z
4 x,1/2-y,1/2+z
_cell_length_a                   9.8524(4)
_cell_length_b                   11.3434(4)
_cell_length_c                   14.8547(5)
_cell_angle_alpha                90
_cell_angle_beta                 97.106(2)
_cell_angle_gamma                90
_cell_volume                     1647.41
_exptl_crystal_colour            colorless
_exptl_crystal_description       block
_cell_formula_units_Z            4
loop_
_atom_site_label
_atom_site_type_symbol
_atom_site_fract_x
_atom_site_fract_y
_atom_site_fract_z
O1 O 0.11228(10) 0.30166(7) 0.54184(6)
C1 C 0.15586(12) 0.06054(10) 0.66585(8)
N1 N 0.16236(11) 0.12994(8) 0.74183(7)
N2 N 0.30449(11) 0.20397(8) 0.60023(7)
C2 C 0.08165(13) -0.04754(10) 0.65717(8)
C3 C 0.02016(15) -0.01311(12) 0.80626(9)
H1 H -0.0246 -0.0358 0.8567
C4 C 0.01126(14) -0.08134(11) 0.73038(9)
H2 H -0.0420 -0.1514 0.7266
C5 C 0.09699(14) 0.09163(11) 0.80854(9)
H3 H 0.1022 0.1382 0.8620
C6 C 0.22730(13) 0.09549(10) 0.59301(8)
C7 C 0.08215(14) -0.11580(10) 0.57747(9)
H4 H 0.0324 -0.1877 0.5714
C8 C 0.15291(15) -0.07977(11) 0.50953(8)
H5 H 0.1529 -0.1268 0.4566
C9 C 0.22647(14) 0.02731(10) 0.51720(8)
H6 H 0.2756 0.0520 0.4694
C10 C 0.23443(13) 0.30563(10) 0.57151(7)
C11 C 0.31401(13) 0.41566(10) 0.57840(7)
C12 C 0.45175(13) 0.41754(10) 0.61461(7)
C13 C 0.51951(13) 0.30675(10) 0.64365(7)
C14 C 0.44344(13) 0.20129(10) 0.63531(7)
C15 C 0.50714(14) 0.09396(11) 0.66117(8)
H7 H 0.4558 0.0229 0.6552
C16 C 0.64393(14) 0.09064(12) 0.69522(8)
H8 H 0.6863 0.0175 0.7126
C17 C 0.71969(15) 0.19403(12) 0.70416(9)
H9 H 0.8137 0.1918 0.7279
C18 C 0.65812(14) 0.29990(11) 0.67852(8)
H10 H 0.7110 0.3701 0.6846
C19 C 0.24799(14) 0.52018(10) 0.54688(8)
H11 H 0.1552 0.5180 0.5204
C20 C 0.31734(15) 0.62554(11) 0.55427(9)
H12 H 0.2719 0.6958 0.5328
C21 C 0.45361(15) 0.63044(11) 0.59285(8)
C22 C 0.51960(14) 0.52692(10) 0.62130(8)
H13 H 0.6132 0.5297 0.6460
C23 C 0.52711(17) 0.74698(12) 0.60506(9)
H14 H 0.4979 0.7980 0.5530
H15 H 0.6260 0.7338 0.6093
H16 H 0.5052 0.7849 0.6608
loop_
_geom_bond_atom_site_label_1
_geom_bond_atom_site_label_2
_geom_bond_site_symmetry_1
_geom_bond_site_symmetry_2
O1 C10 1_555 1_555
C1 N1 1_555 1_555
N1 C5 1_555 1_555
N2 C6 1_555 1_555
C2 C1 1_555 1_555
C3 H1 1_555 1_555
C4 C2 1_555 1_555
H2 C4 1_555 1_555
C5 C3 1_555 1_555
H3 C5 1_555 1_555
C6 C1 1_555 1_555
C7 C2 1_555 1_555
H4 C7 1_555 1_555
C8 C7 1_555 1_555
H5 C8 1_555 1_555
C9 C6 1_555 1_555
H6 C9 1_555 1_555
C10 N2 1_555 1_555
C11 C10 1_555 1_555
C12 C11 1_555 1_555
C13 C12 1_555 1_555
C14 N2 1_555 1_555
C15 C14 1_555 1_555
H7 C15 1_555 1_555
C16 C15 1_555 1_555
H8 C16 1_555 1_555
C17 C16 1_555 1_555
H9 C17 1_555 1_555
C18 C13 1_555 1_555
H10 C18 1_555 1_555
C19 C11 1_555 1_555
H11 C19 1_555 1_555
C20 C19 1_555 1_555
H12 C20 1_555 1_555
C21 C20 1_555 1_555
C22 C12 1_555 1_555
H13 C22 1_555 1_555
C23 C21 1_555 1_555
H14 C23 1_555 1_555
H15 C23 1_555 1_555
H16 C23 1_555 1_555
C3 C4 1_555 1_555
C8 C9 1_555 1_555
C13 C14 1_555 1_555
C17 C18 1_555 1_555
C21 C22 1_555 1_555

#END
