
#######################################################################
#
#                 Cambridge Crystallographic Data Centre
#                                CCDC 
#
#######################################################################
#
# If this CIF has been generated from an entry in the Cambridge 
# Structural Database, then it will include bibliographic, chemical, 
# crystal, experimental, refinement or atomic coordinate data resulting 
# from the CCDC's data processing and validation procedures.
#
#######################################################################

data_SELPEG
_chemical_formula_moiety         'C71 H30 O10,0.25(C1 S2),0.5(C7 H8)'
_chemical_name_systematic        
'15,18-bis(t-Butyldioxy)-1,2,5-trihydroxy-6,9,12-trimethoxy-C60fullerene carbon disulfide toluene solvate'
_symmetry_cell_setting           triclinic
_symmetry_space_group_name_H-M   'P -1'
_symmetry_Int_Tables_number      2
_space_group_name_Hall           '-P 1'
loop_
_symmetry_equiv_pos_site_id
_symmetry_equiv_pos_as_xyz
1 x,y,z
2 -x,-y,-z
_cell_length_a                   14.809(2)
_cell_length_b                   17.264(3)
_cell_length_c                   19.650(4)
_cell_angle_alpha                88.480(5)
_cell_angle_beta                 73.520(4)
_cell_angle_gamma                82.880(5)
_cell_volume                     4780.04
_exptl_crystal_colour            red
_exptl_crystal_description       plate
_cell_formula_units_Z            4
_exptl_crystal_recrystallization_method 'carbon disulfide/hexane/toluene'
loop_
_atom_site_label
_atom_site_type_symbol
_atom_site_fract_x
_atom_site_fract_y
_atom_site_fract_z
S1 S 0.6029(3) 0.4645(2) 0.9756(3)
C24 C 0.5000 0.5000 1.0000
S1A S 0.3971(3) 0.5355(2) 1.0244(3)
O1 O 0.1339(5) 0.4827(5) 0.2678(3)
O3 O 0.1499(6) 0.4850(7) 0.1912(3)
O5 O 0.0372(3) 0.3162(3) 0.3905(4)
O7 O 0.0206(4) 0.2415(5) 0.3635(6)
O9 O 0.1346(3) 0.5661(3) 0.3947(3)
H1 H 0.1343 0.5420 0.3582
O11 O 0.1324(2) 0.5356(2) 0.5213(2)
H3 H 0.0817 0.5418 0.5096
O13 O 0.0482(2) 0.4196(2) 0.5073(2)
H5 H 0.0452 0.3905 0.4745
O15 O 0.2899(4) 0.6245(3) 0.3443(4)
O17 O 0.2780(3) 0.5283(3) 0.5601(2)
O19 O 0.1075(5) 0.3258(3) 0.5866(3)
C1 C 0.2133(5) 0.4333(5) 0.2788(4)
C4 C 0.1373(4) 0.3066(4) 0.3774(4)
C7 C 0.2118(4) 0.5070(3) 0.3946(3)
C10 C 0.1968(3) 0.4795(3) 0.4770(3)
C13 C 0.1476(3) 0.3999(3) 0.4790(3)
C16 C 0.3073(5) 0.5407(3) 0.3525(4)
C19 C 0.2893(4) 0.4731(3) 0.5040(3)
C22 C 0.1797(4) 0.3270(3) 0.5204(3)
C25 C 0.3692(6) 0.2609(7) 0.1899(4)
C28 C 0.3316(5) 0.1998(6) 0.2355(6)
C30 C 0.2306(6) 0.3524(7) 0.2529(5)
C32 C 0.1955(5) 0.2942(6) 0.2960(6)
C33 C 0.3720(8) 0.4040(7) 0.1947(4)
C35 C 0.5137(6) 0.4396(5) 0.2163(4)
C37 C 0.5182(7) 0.3127(6) 0.1692(3)
C39 C 0.2469(5) 0.2163(6) 0.2904(6)
C41 C 0.4548(6) 0.4932(4) 0.2661(5)
C43 C 0.3129(5) 0.1352(4) 0.3740(5)
C45 C 0.4746(5) 0.3048(5) 0.5050(3)
C47 C 0.3539(6) 0.5059(5) 0.2795(4)
C49 C 0.4673(6) 0.3933(7) 0.1788(4)
C51 C 0.3120(6) 0.4616(6) 0.2450(4)
C53 C 0.3198(6) 0.3395(8) 0.1991(4)
C55 C 0.5449(4) 0.4253(4) 0.4114(5)
C57 C 0.2801(5) 0.2025(4) 0.4885(4)
C59 C 0.4225(4) 0.3793(4) 0.5112(3)
C61 C 0.4816(5) 0.1806(4) 0.4609(3)
C63 C 0.5634(5) 0.2900(5) 0.4497(4)
C65 C 0.4234(6) 0.2382(5) 0.5115(3)
C67 C 0.4937(4) 0.1794(4) 0.2142(3)
C69 C 0.3350(5) 0.1442(3) 0.4386(5)
C71 C 0.3262(5) 0.2496(5) 0.5242(3)
C73 C 0.6122(4) 0.3991(4) 0.2913(5)
C75 C 0.4773(5) 0.5014(4) 0.3311(5)
C77 C 0.6385(4) 0.3324(4) 0.3274(4)
C79 C 0.4378(5) 0.1343(4) 0.4261(4)
C81 C 0.4096(5) 0.1491(5) 0.2522(5)
C83 C 0.4015(4) 0.1187(4) 0.3194(6)
C85 C 0.4791(4) 0.1182(3) 0.3525(4)
C87 C 0.4688(6) 0.2481(6) 0.1757(4)
C89 C 0.5983(4) 0.3486(5) 0.4034(4)
C91 C 0.5910(5) 0.3899(4) 0.2287(5)
C93 C 0.3889(4) 0.5183(3) 0.3843(4)
C95 C 0.1993(4) 0.2491(3) 0.4760(4)
C97 C 0.1790(4) 0.2397(4) 0.4128(5)
C99 C 0.2755(5) 0.3278(4) 0.5328(3)
C101 C 0.5934(4) 0.3109(4) 0.2002(3)
C103 C 0.3220(4) 0.3914(4) 0.5262(3)
C105 C 0.1970(4) 0.4360(4) 0.3581(3)
C107 C 0.4589(4) 0.4396(5) 0.4632(5)
C109 C 0.1634(3) 0.3809(3) 0.4018(3)
C111 C 0.5547(4) 0.4564(4) 0.3426(6)
C113 C 0.5680(4) 0.2125(4) 0.4223(3)
C115 C 0.3802(4) 0.4889(3) 0.4489(4)
C117 C 0.5616(4) 0.1481(3) 0.3147(3)
C119 C 0.6070(4) 0.1966(3) 0.3501(3)
C121 C 0.2370(4) 0.1839(4) 0.3595(6)
C123 C 0.6433(3) 0.2576(3) 0.3017(3)
C125 C 0.6197(4) 0.2462(3) 0.2365(3)
C127 C 0.5697(4) 0.1790(3) 0.2447(3)
C129 C 0.0725(6) 0.5018(6) 0.1770(4)
C130 C -0.0119(6) 0.5442(6) 0.2188(4)
H15 H -0.0128 0.5415 0.2688
H16 H -0.0667 0.5218 0.2126
H17 H -0.0147 0.5989 0.2038
C131 C 0.0898(6) 0.5050(5) 0.0983(4)
H18 H 0.0934 0.5591 0.0825
H19 H 0.0377 0.4848 0.0855
H20 H 0.1497 0.4731 0.0752
C132 C 0.0432(14) 0.4084(9) 0.1968(12)
H21 H 0.0936 0.3706 0.1681
H22 H -0.0166 0.4032 0.1861
H23 H 0.0359 0.3983 0.2472
C133 C -0.0676(4) 0.2268(4) 0.3911(4)
C135 C -0.1500(6) 0.2809(6) 0.4024(9)
H24 H -0.1416 0.3276 0.4260
H25 H -0.2044 0.2574 0.4324
H26 H -0.1614 0.2953 0.3567
C137 C -0.0609(7) 0.2163(6) 0.4726(6)
H30 H -0.0050 0.1796 0.4731
H31 H -0.1182 0.1961 0.5021
H32 H -0.0555 0.2670 0.4915
C139 C -0.0723(5) 0.1460(4) 0.3655(5)
H36 H -0.0677 0.1476 0.3148
H37 H -0.1327 0.1281 0.3919
H38 H -0.0197 0.1101 0.3734
C141 C 0.2858(7) 0.6687(4) 0.4055(6)
H42 H 0.2480 0.6444 0.4480
H43 H 0.2564 0.7221 0.4014
H44 H 0.3502 0.6701 0.4093
C143 C 0.2236(5) 0.5081(5) 0.6288(4)
H48 H 0.1631 0.4930 0.6261
H49 H 0.2115 0.5530 0.6610
H50 H 0.2587 0.4643 0.6469
C145 C 0.0816(10) 0.2691(8) 0.6215(5)
H54 H 0.0747 0.2285 0.5901
H55 H 0.0204 0.2843 0.6566
H56 H 0.1287 0.2490 0.6460
O2 O -0.0112(2) 0.2579(2) 1.0111(2)
O4 O -0.0429(3) 0.3411(2) 1.0279(2)
O6 O 0.0107(2) 0.1438(2) 0.8414(2)
O8 O -0.0132(3) 0.1833(3) 0.7796(2)
O10 O 0.0505(2) 0.1097(2) 1.07121(18)
H2 H 0.0330 0.1520 1.0539
O12 O 0.1360(2) -0.02389(19) 1.02602(18)
H4 H 0.0773 -0.0135 1.0319
O14 O 0.0707(2) 0.0047(2) 0.91930(18)
H6 H 0.0537 0.0438 0.8975
O16 O 0.1563(3) 0.1595(2) 1.13728(19)
O18 O 0.3040(2) -0.0624(2) 1.0182(2)
O20 O 0.2087(3) -0.0694(2) 0.8244(2)
C2 C 0.0858(3) 0.2536(3) 0.9704(3)
C5 C 0.1027(3) 0.1628(3) 0.8388(3)
C8 C 0.1395(3) 0.1195(3) 1.0218(2)
C11 C 0.1831(3) 0.0340(3) 0.9849(3)
C14 C 0.1547(3) 0.0408(3) 0.9098(3)
C17 C 0.1996(4) 0.1620(3) 1.0620(3)
C20 C 0.2925(3) 0.0064(3) 0.9782(3)
C23 C 0.2296(3) 0.0071(3) 0.8383(3)
C26 C 0.3312(3) -0.0044(3) 0.8426(3)
C27 C 0.4920(4) 0.2548(3) 0.9565(3)
C29 C 0.5020(4) 0.3341(3) 0.8262(3)
C31 C 0.5593(3) 0.2231(3) 0.8912(3)
C34 C 0.5759(3) 0.1366(3) 0.7661(3)
C36 C 0.4654(4) 0.2241(3) 0.6864(3)
C38 C 0.3389(4) 0.0590(3) 0.7354(3)
C40 C 0.3154(4) 0.1914(3) 0.6918(3)
C42 C 0.2978(4) 0.2684(3) 1.0372(3)
C44 C 0.1611(3) 0.3541(3) 0.8948(3)
C46 C 0.5161(3) 0.2619(3) 0.7225(3)
C48 C 0.4539(4) 0.1903(3) 0.9995(3)
C50 C 0.4733(4) 0.3336(3) 0.7617(3)
C52 C 0.5722(3) 0.2178(3) 0.7637(3)
C54 C 0.3341(4) 0.3309(3) 0.9968(3)
C56 C 0.4381(4) 0.3640(3) 0.8891(3)
C58 C 0.4969(3) 0.1192(3) 0.9609(3)
C60 C 0.2214(4) 0.1978(3) 0.7333(3)
C62 C 0.3708(4) 0.2560(3) 0.6877(3)
C64 C 0.1527(4) 0.2905(3) 1.0030(3)
C66 C 0.4502(3) 0.0155(3) 0.8995(3)
C68 C 0.4328(4) 0.3235(3) 0.9554(3)
C70 C 0.1787(4) 0.2693(3) 0.7714(3)
C72 C 0.1912(4) 0.3535(3) 0.9586(3)
C74 C 0.4851(4) 0.0333(3) 0.7727(3)
C76 C 0.2041(4) 0.2490(3) 1.0414(3)
C78 C 0.5234(4) 0.0973(3) 0.7283(3)
C80 C 0.4696(4) 0.1396(3) 0.6892(3)
C82 C 0.3594(4) 0.1967(3) 1.0371(3)
C84 C 0.3290(4) 0.3243(3) 0.7247(3)
C86 C 0.2304(4) 0.3319(3) 0.7672(3)
C88 C 0.5611(3) 0.1391(3) 0.8944(3)
C90 C 0.2217(4) 0.3756(3) 0.8305(3)
C92 C 0.5703(3) 0.0970(3) 0.8324(3)
C94 C 0.5138(3) 0.0326(3) 0.8360(3)
C96 C 0.2789(4) 0.3747(3) 0.9567(3)
C98 C 0.4414(4) 0.0592(3) 0.9630(3)
C100 C 0.5639(3) 0.2618(3) 0.8269(3)
C102 C 0.3806(4) 0.3649(3) 0.7626(3)
C104 C 0.1837(3) 0.1323(3) 0.7744(2)
C106 C 0.3426(4) 0.3956(3) 0.8901(3)
C108 C 0.3761(4) 0.1200(3) 0.6922(3)
C110 C 0.3151(4) 0.3963(3) 0.8275(3)
C112 C 0.2407(4) 0.0644(3) 0.7757(3)
C114 C 0.3038(4) 0.1326(3) 1.0412(3)
C116 C 0.3950(4) 0.0166(3) 0.7762(3)
C118 C 0.1046(3) 0.2921(3) 0.8979(3)
C120 C 0.3577(3) -0.0044(3) 0.9025(3)
C122 C 0.1190(3) 0.1676(3) 0.9619(3)
C124 C 0.3439(3) 0.0653(3) 1.0051(3)
C126 C 0.1252(3) 0.1271(3) 0.9045(2)
C128 C 0.1130(3) 0.2507(3) 0.8374(3)
C134 C -0.1379(4) 0.3428(4) 1.0757(3)
C136 C -0.1349(6) 0.2945(5) 1.1404(5)
H27 H -0.1202 0.2391 1.1270
H28 H -0.1967 0.3030 1.1762
H29 H -0.0859 0.3100 1.1601
C138 C -0.2037(5) 0.3144(5) 1.0388(5)
H33 H -0.2004 0.3439 0.9951
H34 H -0.2687 0.3220 1.0701
H35 H -0.1848 0.2588 1.0273
C140 C -0.1646(5) 0.4286(4) 1.0939(4)
H39 H -0.1209 0.4459 1.1179
H40 H -0.2295 0.4370 1.1253
H41 H -0.1607 0.4585 1.0502
C142 C 0.1580(5) -0.0746(4) 0.7741(3)
H45 H 0.1032 -0.0342 0.7842
H46 H 0.1361 -0.1262 0.7768
H47 H 0.1995 -0.0670 0.7264
C144 C 0.3021(4) -0.1341(3) 0.9842(4)
H51 H 0.2444 -0.1311 0.9688
H52 H 0.3028 -0.1772 1.0176
H53 H 0.3579 -0.1432 0.9429
C146 C 0.1820(6) 0.0881(4) 1.1703(3)
H57 H 0.1686 0.0437 1.1462
H58 H 0.1450 0.0890 1.2204
H59 H 0.2498 0.0829 1.1669
C147 C -0.1148(7) 0.1980(6) 0.7976(5)
C148 C -0.1554(10) 0.1212(8) 0.8107(8)
H60 H -0.1192 0.0836 0.7734
H61 H -0.2219 0.1290 0.8102
H62 H -0.1516 0.1010 0.8570
C149 C -0.1351(15) 0.2406(11) 0.7346(9)
H63 H -0.1021 0.2873 0.7256
H64 H -0.2036 0.2560 0.7444
H65 H -0.1128 0.2062 0.6927
C150 C -0.1519(10) 0.2516(8) 0.8611(7)
H66 H -0.1324 0.2277 0.9013
H67 H -0.2213 0.2606 0.8734
H68 H -0.1260 0.3015 0.8499
C3 C 0.7797(12) 0.0311(9) 0.5397(9)
C6 C 0.8569(11) -0.0190(9) 0.5102(8)
H7 H 0.9072 -0.0334 0.5309
C9 C 0.8541(12) -0.0446(9) 0.4516(9)
H8 H 0.9085 -0.0789 0.4276
C12 C 0.7852(9) -0.0313(8) 0.4160(7)
H9 H 0.7972 -0.0552 0.3708
C15 C 0.7058(10) 0.0119(8) 0.4411(7)
H10 H 0.6566 0.0179 0.4184
C18 C 0.6982(13) 0.0528(11) 0.5112(10)
H11 H 0.6454 0.0891 0.5343
C21 C 0.7801(3) 0.0605(3) 0.6030(3)
H12 H 0.7300 0.0708 0.6463
H13 H 0.8193 0.1021 0.5946
H14 H 0.8178 0.0121 0.6069
C151? C -0.0953(9) 0.1480(8) 0.7723(7)
C152? C -0.1755(11) 0.1552(14) 0.8396(9)
C153? C -0.1209(15) 0.1976(13) 0.7147(9)
C154? C -0.0611(16) 0.0648(10) 0.7462(11)
H69? H -0.1927 0.2103 0.8539
H70? H -0.1557 0.1255 0.8772
H71? H -0.2305 0.1346 0.8317
H72? H -0.1368 0.2522 0.7306
H73? H -0.1756 0.1795 0.7041
H74? H -0.0669 0.1933 0.6718
H75? H -0.0133 0.0649 0.7001
H76? H -0.1148 0.0397 0.7413
H77? H -0.0332 0.0359 0.7804
loop_
_geom_bond_atom_site_label_1
_geom_bond_atom_site_label_2
_geom_bond_site_symmetry_1
_geom_bond_site_symmetry_2
S1 C24 1_555 1_555
O1 O3 1_555 1_555
O2 O4 1_555 1_555
O3 C129 1_555 1_555
O4 C134 1_555 1_555
O5 O7 1_555 1_555
O6 O8 1_555 1_555
O7 C133 1_555 1_555
O8 C147 1_555 1_555
O9 H1 1_555 1_555
O10 H2 1_555 1_555
O11 H3 1_555 1_555
O12 H4 1_555 1_555
O13 H5 1_555 1_555
O14 H6 1_555 1_555
O15 C16 1_555 1_555
O16 C17 1_555 1_555
O17 C19 1_555 1_555
O18 C20 1_555 1_555
O19 C22 1_555 1_555
O20 C23 1_555 1_555
C1 O1 1_555 1_555
C2 O2 1_555 1_555
C3 C6 1_555 1_555
C4 O5 1_555 1_555
C5 O6 1_555 1_555
C6 H7 1_555 1_555
C7 O9 1_555 1_555
C8 O10 1_555 1_555
C9 C6 1_555 1_555
H8 C9 1_555 1_555
C10 O11 1_555 1_555
C11 O12 1_555 1_555
C12 C9 1_555 1_555
H9 C12 1_555 1_555
C13 O13 1_555 1_555
C14 O14 1_555 1_555
C15 C12 1_555 1_555
H10 C15 1_555 1_555
C16 C7 1_555 1_555
C17 C8 1_555 1_555
C18 C3 1_555 1_555
H11 C18 1_555 1_555
C19 C10 1_555 1_555
C20 C11 1_555 1_555
C21 C3 1_555 1_555
H12 C21 1_555 1_555
H13 C21 1_555 1_555
H14 C21 1_555 1_555
C22 C13 1_555 1_555
C23 C14 1_555 1_555
C24 S1A 1_555 1_555
C25 C28 1_555 1_555
C26 C23 1_555 1_555
C27 C31 1_555 1_555
C28 C39 1_555 1_555
C29 C50 1_555 1_555
C30 C1 1_555 1_555
C31 C88 1_555 1_555
C32 C4 1_555 1_555
C33 C49 1_555 1_555
C34 C52 1_555 1_555
C35 C41 1_555 1_555
C36 C46 1_555 1_555
C37 C49 1_555 1_555
C38 C108 1_555 1_555
C39 C32 1_555 1_555
C40 C60 1_555 1_555
C41 C47 1_555 1_555
C42 C54 1_555 1_555
C43 C69 1_555 1_555
C44 C72 1_555 1_555
C45 C59 1_555 1_555
C46 C50 1_555 1_555
C47 C16 1_555 1_555
C48 C27 1_555 1_555
C49 C35 1_555 1_555
C50 C102 1_555 1_555
C51 C1 1_555 1_555
C52 C46 1_555 1_555
C53 C25 1_555 1_555
C54 C68 1_555 1_555
C55 C89 1_555 1_555
C56 C29 1_555 1_555
C57 C69 1_555 1_555
C58 C48 1_555 1_555
C59 C103 1_555 1_555
C60 C70 1_555 1_555
C61 C65 1_555 1_555
C62 C36 1_555 1_555
C63 C45 1_555 1_555
C64 C2 1_555 1_555
C65 C45 1_555 1_555
C66 C94 1_555 1_555
C67 C81 1_555 1_555
C68 C27 1_555 1_555
C69 C79 1_555 1_555
C70 C86 1_555 1_555
C71 C57 1_555 1_555
C72 C64 1_555 1_555
C73 C77 1_555 1_555
C74 C78 1_555 1_555
C75 C41 1_555 1_555
C76 C17 1_555 1_555
C77 C89 1_555 1_555
C78 C34 1_555 1_555
C79 C61 1_555 1_555
C80 C36 1_555 1_555
C81 C28 1_555 1_555
C82 C42 1_555 1_555
C83 C43 1_555 1_555
C84 C62 1_555 1_555
C85 C79 1_555 1_555
C86 C84 1_555 1_555
C87 C25 1_555 1_555
C88 C58 1_555 1_555
C89 C63 1_555 1_555
C90 C44 1_555 1_555
C91 C35 1_555 1_555
C92 C34 1_555 1_555
C93 C16 1_555 1_555
C94 C74 1_555 1_555
C95 C22 1_555 1_555
C96 C54 1_555 1_555
C97 C4 1_555 1_555
C98 C58 1_555 1_555
C99 C22 1_555 1_555
C100 C29 1_555 1_555
C101 C37 1_555 1_555
C102 C84 1_555 1_555
C103 C19 1_555 1_555
C104 C5 1_555 1_555
C105 C1 1_555 1_555
C106 C56 1_555 1_555
C107 C55 1_555 1_555
C108 C40 1_555 1_555
C109 C4 1_555 1_555
C110 C90 1_555 1_555
C111 C55 1_555 1_555
C112 C23 1_555 1_555
C113 C61 1_555 1_555
C114 C17 1_555 1_555
C115 C19 1_555 1_555
C116 C26 1_555 1_555
C117 C85 1_555 1_555
C118 C2 1_555 1_555
C119 C113 1_555 1_555
C120 C20 1_555 1_555
C121 C39 1_555 1_555
C122 C2 1_555 1_555
C123 C77 1_555 1_555
C124 C20 1_555 1_555
C125 C101 1_555 1_555
C126 C5 1_555 1_555
C127 C67 1_555 1_555
C128 C5 1_555 1_555
C129 C130 1_555 1_555
C130 H15 1_555 1_555
H16 C130 1_555 1_555
H17 C130 1_555 1_555
C131 C129 1_555 1_555
H18 C131 1_555 1_555
H19 C131 1_555 1_555
H20 C131 1_555 1_555
C132 C129 1_555 1_555
H21 C132 1_555 1_555
H22 C132 1_555 1_555
H23 C132 1_555 1_555
C133 C135 1_555 1_555
C134 C136 1_555 1_555
C135 H24 1_555 1_555
H25 C135 1_555 1_555
H26 C135 1_555 1_555
C136 H27 1_555 1_555
H28 C136 1_555 1_555
H29 C136 1_555 1_555
C137 C133 1_555 1_555
H30 C137 1_555 1_555
H31 C137 1_555 1_555
H32 C137 1_555 1_555
C138 C134 1_555 1_555
H33 C138 1_555 1_555
H34 C138 1_555 1_555
H35 C138 1_555 1_555
C139 C133 1_555 1_555
H36 C139 1_555 1_555
H37 C139 1_555 1_555
H38 C139 1_555 1_555
C140 C134 1_555 1_555
H39 C140 1_555 1_555
H40 C140 1_555 1_555
H41 C140 1_555 1_555
C141 O15 1_555 1_555
H42 C141 1_555 1_555
H43 C141 1_555 1_555
H44 C141 1_555 1_555
C142 O20 1_555 1_555
H45 C142 1_555 1_555
H46 C142 1_555 1_555
H47 C142 1_555 1_555
C143 O17 1_555 1_555
H48 C143 1_555 1_555
H49 C143 1_555 1_555
H50 C143 1_555 1_555
C144 O18 1_555 1_555
H51 C144 1_555 1_555
H52 C144 1_555 1_555
H53 C144 1_555 1_555
C145 O19 1_555 1_555
H54 C145 1_555 1_555
H55 C145 1_555 1_555
H56 C145 1_555 1_555
C146 O16 1_555 1_555
H57 C146 1_555 1_555
H58 C146 1_555 1_555
H59 C146 1_555 1_555
C147 C148 1_555 1_555
C148 H60 1_555 1_555
H61 C148 1_555 1_555
H62 C148 1_555 1_555
C149 C147 1_555 1_555
H63 C149 1_555 1_555
H64 C149 1_555 1_555
H65 C149 1_555 1_555
C150 C147 1_555 1_555
H66 C150 1_555 1_555
H67 C150 1_555 1_555
H68 C150 1_555 1_555
C7 C10 1_555 1_555
C7 C105 1_555 1_555
C8 C11 1_555 1_555
C8 C122 1_555 1_555
C10 C13 1_555 1_555
C11 C14 1_555 1_555
C13 C109 1_555 1_555
C14 C126 1_555 1_555
C15 C18 1_555 1_555
C26 C120 1_555 1_555
C30 C32 1_555 1_555
C30 C53 1_555 1_555
C31 C100 1_555 1_555
C33 C51 1_555 1_555
C33 C53 1_555 1_555
C37 C87 1_555 1_555
C38 C112 1_555 1_555
C38 C116 1_555 1_555
C40 C62 1_555 1_555
C42 C76 1_555 1_555
C43 C121 1_555 1_555
C44 C118 1_555 1_555
C47 C51 1_555 1_555
C48 C82 1_555 1_555
C52 C100 1_555 1_555
C56 C68 1_555 1_555
C57 C95 1_555 1_555
C59 C107 1_555 1_555
C60 C104 1_555 1_555
C63 C113 1_555 1_555
C64 C76 1_555 1_555
C65 C71 1_555 1_555
C66 C98 1_555 1_555
C66 C120 1_555 1_555
C67 C87 1_555 1_555
C70 C128 1_555 1_555
C71 C99 1_555 1_555
C72 C96 1_555 1_555
C73 C91 1_555 1_555
C73 C111 1_555 1_555
C74 C116 1_555 1_555
C75 C93 1_555 1_555
C75 C111 1_555 1_555
C78 C80 1_555 1_555
C80 C108 1_555 1_555
C81 C83 1_555 1_555
C82 C114 1_555 1_555
C83 C85 1_555 1_555
C86 C90 1_555 1_555
C88 C92 1_555 1_555
C91 C101 1_555 1_555
C92 C94 1_555 1_555
C93 C115 1_555 1_555
C95 C97 1_555 1_555
C96 C106 1_555 1_555
C97 C121 1_555 1_555
C98 C124 1_555 1_555
C99 C103 1_555 1_555
C102 C110 1_555 1_555
C104 C112 1_555 1_555
C105 C109 1_555 1_555
C106 C110 1_555 1_555
C107 C115 1_555 1_555
C114 C124 1_555 1_555
C117 C119 1_555 1_555
C117 C127 1_555 1_555
C118 C128 1_555 1_555
C119 C123 1_555 1_555
C122 C126 1_555 1_555
C123 C125 1_555 1_555
C125 C127 1_555 1_555

#END
