
#######################################################################
#
#                 Cambridge Crystallographic Data Centre
#                                CCDC 
#
#######################################################################
#
# If this CIF has been generated from an entry in the Cambridge 
# Structural Database, then it will include bibliographic, chemical, 
# crystal, experimental, refinement or atomic coordinate data resulting 
# from the CCDC's data processing and validation procedures.
#
#######################################################################

data_SELVIQ
_chemical_formula_moiety         'C64 H56 Ca1 N6 O4'
_chemical_name_systematic        
bis(2-(4-Benzyl-4,5-dihydro-1,3-oxazol-2-yl)-N-(2-(4-benzyl-4,5-dihydro-1,3-oxazol-2-yl)phenyl)anilinato)-calcium(ii)
_symmetry_cell_setting           monoclinic
_symmetry_space_group_name_H-M   'P 21'
_symmetry_Int_Tables_number      4
_space_group_name_Hall           'P 2yb'
loop_
_symmetry_equiv_pos_site_id
_symmetry_equiv_pos_as_xyz
1 x,y,z
2 -x,1/2+y,-z
_cell_length_a                   9.685(2)
_cell_length_b                   20.844(4)
_cell_length_c                   13.606(2)
_cell_angle_alpha                90
_cell_angle_beta                 108.383(3)
_cell_angle_gamma                90
_cell_volume                     2606.53
_exptl_crystal_colour            orange
_exptl_crystal_description       block
_cell_formula_units_Z            2
loop_
_atom_site_label
_atom_site_type_symbol
_atom_site_fract_x
_atom_site_fract_y
_atom_site_fract_z
Ca1 Ca 0.23805(3) 0.993486(13) 0.450300(19)
O1 O 0.19939(13) 1.20232(5) 0.49147(8)
O2 O 0.18944(12) 0.80512(5) 0.59403(10)
O3 O 0.62900(12) 1.12574(5) 0.47788(8)
O4 O -0.02032(11) 0.84130(5) 0.23239(8)
N1 N 0.10710(13) 1.00903(6) 0.57147(9)
N2 N 0.14540(14) 1.10374(6) 0.42209(9)
N3 N 0.28686(14) 0.89645(6) 0.55623(10)
N4 N 0.35740(13) 0.96578(6) 0.32636(9)
N5 N 0.46329(13) 1.05637(6) 0.50085(9)
N6 N 0.05642(13) 0.93293(6) 0.32023(10)
C1 C 0.10048(15) 1.06338(7) 0.62744(11)
C2 C 0.07589(16) 1.05835(8) 0.72483(11)
H1 H 0.0561 1.0172 0.7473
C3 C 0.07941(17) 1.11026(8) 0.78793(12)
H2 H 0.0637 1.1044 0.8528
C4 C 0.10614(18) 1.17192(8) 0.75671(12)
H3 H 0.1067 1.2081 0.7992
C5 C 0.13157(18) 1.17886(8) 0.66338(12)
H4 H 0.1507 1.2205 0.6423
C6 C 0.13014(16) 1.12624(7) 0.59783(11)
C7 C 0.15714(16) 1.14051(7) 0.49958(11)
C8 C 0.24295(19) 1.20404(8) 0.39858(12)
H5 H 0.3502 1.2027 0.4161
H6 H 0.2057 1.2431 0.3573
C9 C 0.17323(17) 1.14369(7) 0.34033(11)
H7 H 0.2430 1.1215 0.3110
C10 C 0.03042(18) 1.15816(8) 0.25412(12)
H8 H -0.0178 1.1173 0.2257
H9 H -0.0355 1.1821 0.2837
C11 C 0.05566(17) 1.19714(8) 0.16733(12)
C12 C 0.14947(18) 1.17447(9) 0.11539(12)
H10 H 0.1988 1.1349 0.1353
C13 C 0.17082(19) 1.20979(10) 0.03451(13)
H11 H 0.2356 1.1945 0.0000
C14 C 0.0977(2) 1.26718(10) 0.00440(13)
H12 H 0.1114 1.2910 -0.0514
C15 C 0.0050(2) 1.28976(9) 0.05547(15)
H13 H -0.0448 1.3292 0.0348
C16 C -0.01581(19) 1.25511(9) 0.13706(13)
H14 H -0.0792 1.2712 0.1722
C17 C 0.00362(16) 0.96237(7) 0.56359(10)
C18 C -0.14294(16) 0.97933(8) 0.55140(12)
H15 H -0.1653 1.0232 0.5580
C19 C -0.25375(17) 0.93518(9) 0.53050(12)
H16 H -0.3504 0.9491 0.5214
C20 C -0.22537(17) 0.86991(8) 0.52252(13)
H17 H -0.3018 0.8393 0.5078
C21 C -0.08484(17) 0.85112(8) 0.53646(12)
H18 H -0.0647 0.8068 0.5324
C22 C 0.03076(16) 0.89539(7) 0.55657(11)
C23 C 0.17473(16) 0.86835(7) 0.56811(11)
C24 C 0.32874(19) 0.78560(8) 0.58567(16)
H19 H 0.3163 0.7611 0.5211
H20 H 0.3830 0.7589 0.6456
C25 C 0.40721(17) 0.84923(8) 0.58439(13)
H21 H 0.4553 0.8480 0.5293
C26 C 0.51960(17) 0.86638(8) 0.68875(13)
H22 H 0.6032 0.8368 0.7010
H23 H 0.5558 0.9103 0.6837
C27 C 0.46612(17) 0.86373(8) 0.78161(13)
C28 C 0.5137(2) 0.81524(10) 0.85558(16)
H24 H 0.5778 0.7832 0.8457
C29 C 0.4695(2) 0.81281(11) 0.94297(17)
H25 H 0.5040 0.7794 0.9922
C30 C 0.3759(2) 0.85849(12) 0.95903(15)
H26 H 0.3459 0.8568 1.0191
C31 C 0.3260(2) 0.90683(11) 0.88678(14)
H27 H 0.2606 0.9382 0.8969
C32 C 0.37140(18) 0.90961(9) 0.79885(13)
H28 H 0.3372 0.9433 0.7502
C33 C 0.42309(15) 1.00897(7) 0.27889(11)
C34 C 0.40874(15) 1.00236(8) 0.17136(11)
H29 H 0.3609 0.9655 0.1352
C35 C 0.46152(18) 1.04729(8) 0.11834(12)
H30 H 0.4474 1.0414 0.0466
C36 C 0.53534(18) 1.10115(8) 0.16863(12)
H31 H 0.5710 1.1323 0.1318
C37 C 0.55571(17) 1.10840(8) 0.27244(12)
H32 H 0.6090 1.1444 0.3074
C38 C 0.50046(16) 1.06432(7) 0.32905(11)
C39 C 0.52678(16) 1.07883(7) 0.43878(11)
C40 C 0.64592(18) 1.13082(8) 0.58684(11)
H33 H 0.6414 1.1762 0.6073
H34 H 0.7397 1.1121 0.6294
C41 C 0.51730(16) 1.09244(7) 0.59923(11)
H35 H 0.4401 1.1230 0.6040
C42 C 0.55635(18) 1.04819(7) 0.69331(12)
H36 H 0.4727 1.0199 0.6896
H37 H 0.6398 1.0208 0.6932
C43 C 0.59537(16) 1.08697(7) 0.79237(11)
C44 C 0.48680(17) 1.11186(8) 0.82814(12)
H38 H 0.3877 1.1022 0.7928
C45 C 0.52303(18) 1.15096(9) 0.91567(12)
H39 H 0.4485 1.1680 0.9396
C46 C 0.66798(18) 1.16508(9) 0.96805(12)
H40 H 0.6925 1.1920 1.0273
C47 C 0.77642(18) 1.13963(9) 0.93339(12)
H41 H 0.8757 1.1487 0.9694
C48 C 0.73996(17) 1.10102(8) 0.84609(12)
H42 H 0.8148 1.0839 0.8225
C49 C 0.35610(16) 0.90213(7) 0.29628(10)
C50 C 0.48417(16) 0.87405(7) 0.28555(12)
H43 H 0.5670 0.9005 0.2943
C51 C 0.49348(18) 0.81007(8) 0.26301(12)
H44 H 0.5816 0.7935 0.2565
C52 C 0.37497(17) 0.76951(8) 0.24966(12)
H45 H 0.3813 0.7253 0.2346
C53 C 0.24776(17) 0.79482(7) 0.25880(12)
H46 H 0.1664 0.7674 0.2496
C54 C 0.23507(16) 0.85991(7) 0.28132(11)
C55 C 0.09081(16) 0.88172(7) 0.28140(11)
C56 C -0.14847(16) 0.86708(8) 0.25109(12)
H47 H -0.1749 0.8413 0.3036
H48 H -0.2321 0.8678 0.1865
C57 C -0.10436(16) 0.93503(8) 0.29052(12)
H49 H -0.1341 0.9431 0.3535
C58 C -0.16599(17) 0.98791(8) 0.21076(14)
H50 H -0.2729 0.9893 0.1954
H51 H -0.1264 1.0297 0.2417
C59 C -0.13268(17) 0.97978(8) 0.10995(13)
C60 C -0.23542(19) 0.95339(9) 0.02319(15)
H52 H -0.3286 0.9418 0.0267
C61 C -0.2034(2) 0.94381(10) -0.06829(15)
H53 H -0.2745 0.9256 -0.1265
C62 C -0.0690(2) 0.96060(10) -0.07517(14)
H54 H -0.0471 0.9535 -0.1376
C63 C 0.03387(18) 0.98793(9) 0.00946(13)
H55 H 0.1258 1.0005 0.0047
C64 C 0.00220(16) 0.99692(8) 0.10139(12)
H56 H 0.0738 1.0151 0.1594
loop_
_geom_bond_atom_site_label_1
_geom_bond_atom_site_label_2
_geom_bond_site_symmetry_1
_geom_bond_site_symmetry_2
Ca1 N1 1_555 1_555
O1 C7 1_555 1_555
O2 C23 1_555 1_555
O3 C39 1_555 1_555
O4 C55 1_555 1_555
N1 C1 1_555 1_555
N2 Ca1 1_555 1_555
N3 Ca1 1_555 1_555
N4 Ca1 1_555 1_555
N5 Ca1 1_555 1_555
N6 Ca1 1_555 1_555
C1 C2 1_555 1_555
C2 H1 1_555 1_555
C3 C2 1_555 1_555
H2 C3 1_555 1_555
C4 C3 1_555 1_555
H3 C4 1_555 1_555
C5 C4 1_555 1_555
H4 C5 1_555 1_555
C6 C1 1_555 1_555
C7 N2 1_555 1_555
C8 O1 1_555 1_555
H5 C8 1_555 1_555
H6 C8 1_555 1_555
C9 N2 1_555 1_555
H7 C9 1_555 1_555
C10 C9 1_555 1_555
H8 C10 1_555 1_555
H9 C10 1_555 1_555
C11 C10 1_555 1_555
C12 C11 1_555 1_555
H10 C12 1_555 1_555
C13 C12 1_555 1_555
H11 C13 1_555 1_555
C14 C13 1_555 1_555
H12 C14 1_555 1_555
C15 C14 1_555 1_555
H13 C15 1_555 1_555
C16 C11 1_555 1_555
H14 C16 1_555 1_555
C17 N1 1_555 1_555
C18 C17 1_555 1_555
H15 C18 1_555 1_555
C19 C18 1_555 1_555
H16 C19 1_555 1_555
C20 C19 1_555 1_555
H17 C20 1_555 1_555
C21 C20 1_555 1_555
H18 C21 1_555 1_555
C22 C17 1_555 1_555
C23 N3 1_555 1_555
C24 O2 1_555 1_555
H19 C24 1_555 1_555
H20 C24 1_555 1_555
C25 N3 1_555 1_555
H21 C25 1_555 1_555
C26 C25 1_555 1_555
H22 C26 1_555 1_555
H23 C26 1_555 1_555
C27 C26 1_555 1_555
C28 C27 1_555 1_555
H24 C28 1_555 1_555
C29 C28 1_555 1_555
H25 C29 1_555 1_555
C30 C29 1_555 1_555
H26 C30 1_555 1_555
C31 C30 1_555 1_555
H27 C31 1_555 1_555
C32 C27 1_555 1_555
H28 C32 1_555 1_555
C33 N4 1_555 1_555
C34 C33 1_555 1_555
H29 C34 1_555 1_555
C35 C34 1_555 1_555
H30 C35 1_555 1_555
C36 C35 1_555 1_555
H31 C36 1_555 1_555
C37 C36 1_555 1_555
H32 C37 1_555 1_555
C38 C33 1_555 1_555
C39 N5 1_555 1_555
C40 O3 1_555 1_555
H33 C40 1_555 1_555
H34 C40 1_555 1_555
C41 N5 1_555 1_555
H35 C41 1_555 1_555
C42 C41 1_555 1_555
H36 C42 1_555 1_555
H37 C42 1_555 1_555
C43 C42 1_555 1_555
C44 C43 1_555 1_555
H38 C44 1_555 1_555
C45 C44 1_555 1_555
H39 C45 1_555 1_555
C46 C45 1_555 1_555
H40 C46 1_555 1_555
C47 C46 1_555 1_555
H41 C47 1_555 1_555
C48 C43 1_555 1_555
H42 C48 1_555 1_555
C49 N4 1_555 1_555
C50 C49 1_555 1_555
H43 C50 1_555 1_555
C51 C50 1_555 1_555
H44 C51 1_555 1_555
C52 C51 1_555 1_555
H45 C52 1_555 1_555
C53 C52 1_555 1_555
H46 C53 1_555 1_555
C54 C49 1_555 1_555
C55 N6 1_555 1_555
C56 O4 1_555 1_555
H47 C56 1_555 1_555
H48 C56 1_555 1_555
C57 N6 1_555 1_555
H49 C57 1_555 1_555
C58 C57 1_555 1_555
H50 C58 1_555 1_555
H51 C58 1_555 1_555
C59 C58 1_555 1_555
C60 C59 1_555 1_555
H52 C60 1_555 1_555
C61 C60 1_555 1_555
H53 C61 1_555 1_555
C62 C61 1_555 1_555
H54 C62 1_555 1_555
C63 C62 1_555 1_555
H55 C63 1_555 1_555
C64 C59 1_555 1_555
H56 C64 1_555 1_555
C5 C6 1_555 1_555
C6 C7 1_555 1_555
C8 C9 1_555 1_555
C15 C16 1_555 1_555
C21 C22 1_555 1_555
C22 C23 1_555 1_555
C24 C25 1_555 1_555
C31 C32 1_555 1_555
C37 C38 1_555 1_555
C38 C39 1_555 1_555
C40 C41 1_555 1_555
C47 C48 1_555 1_555
C53 C54 1_555 1_555
C54 C55 1_555 1_555
C56 C57 1_555 1_555
C63 C64 1_555 1_555

#END
