
#######################################################################
#
#                 Cambridge Crystallographic Data Centre
#                                CCDC 
#
#######################################################################
#
# If this CIF has been generated from an entry in the Cambridge 
# Structural Database, then it will include bibliographic, chemical, 
# crystal, experimental, refinement or atomic coordinate data resulting 
# from the CCDC's data processing and validation procedures.
#
#######################################################################

data_SELVIP
_chemical_formula_moiety         'C20 H26 Cl1 F1'
_chemical_name_systematic        5-Chloro-1-decyl-3-fluoronaphthalene
_symmetry_cell_setting           triclinic
_symmetry_space_group_name_H-M   'P -1'
_symmetry_Int_Tables_number      2
_space_group_name_Hall           '-P 1'
loop_
_symmetry_equiv_pos_site_id
_symmetry_equiv_pos_as_xyz
1 x,y,z
2 -x,-y,-z
_cell_length_a                   9.7750(11)
_cell_length_b                   11.6681(17)
_cell_length_c                   16.514(3)
_cell_angle_alpha                76.168(10)
_cell_angle_beta                 83.721(10)
_cell_angle_gamma                74.411(10)
_cell_volume                     1759.57
_exptl_crystal_colour            colorless
_exptl_crystal_description       prism
_chemical_melting_point          49-50deg.C
_cell_formula_units_Z            4
loop_
_atom_site_label
_atom_site_type_symbol
_atom_site_fract_x
_atom_site_fract_y
_atom_site_fract_z
C1 C 0.0192(3) 1.0084(2) 0.86680(16)
C2 C 0.1483(3) 1.0396(2) 0.85109(16)
H1 H 0.2301 0.9872 0.8786
F1 F 0.28955(14) 1.17159(13) 0.78296(10)
C3 C 0.1586(3) 1.1478(2) 0.79504(17)
C4 C 0.0477(3) 1.2278(2) 0.75463(15)
H2 H 0.0595 1.3013 0.7181
Cl1 Cl -0.19787(7) 1.41584(6) 0.66031(4)
C5 C -0.2108(3) 1.2782(2) 0.72813(16)
C6 C -0.3399(3) 1.2501(3) 0.74071(17)
H3 H -0.4204 1.3049 0.7132
C7 C -0.3525(3) 1.1409(3) 0.79400(18)
H4 H -0.4416 1.1206 0.8019
C8 C -0.2385(3) 1.0629(2) 0.83492(17)
H5 H -0.2497 0.9896 0.8719
C9 C -0.1023(3) 1.0895(2) 0.82326(16)
C10 C -0.0871(3) 1.2008(2) 0.76744(16)
C11 C 0.0032(3) 0.8912(2) 0.92629(16)
H6 H -0.0316 0.8432 0.8948
H7 H -0.0711 0.9126 0.9698
C12 C 0.1362(3) 0.8097(2) 0.96974(17)
H8 H 0.2114 0.7862 0.9272
H9 H 0.1714 0.8556 1.0026
C13 C 0.1063(3) 0.6952(2) 1.02737(17)
H10 H 0.0314 0.7192 1.0699
H11 H 0.0695 0.6504 0.9944
C14 C 0.2367(3) 0.6108(2) 1.07114(17)
H12 H 0.2740 0.6560 1.1036
H13 H 0.3112 0.5863 1.0285
C15 C 0.2080(3) 0.4968(2) 1.12950(17)
H14 H 0.1698 0.4519 1.0972
H15 H 0.1342 0.5212 1.1725
C16 C 0.3398(3) 0.4116(2) 1.17277(17)
H16 H 0.4129 0.3860 1.1297
H17 H 0.3790 0.4569 1.2042
C17 C 0.3106(3) 0.2982(2) 1.23253(18)
H18 H 0.2709 0.2529 1.2013
H19 H 0.2381 0.3235 1.2759
C18 C 0.4438(3) 0.2131(2) 1.27503(17)
H20 H 0.5154 0.1869 1.2315
H21 H 0.4844 0.2592 1.3051
C19 C 0.4174(3) 0.1005(2) 1.33625(18)
H22 H 0.3740 0.0552 1.3069
H23 H 0.3489 0.1261 1.3813
C20 C 0.5535(3) 0.0156(3) 1.37506(19)
H24 H 0.5305 -0.0538 1.4155
H25 H 0.5978 0.0603 1.4034
H26 H 0.6196 -0.0140 1.3311
C21 C -0.0671(3) 0.1661(2) 0.54597(16)
C22 C 0.0612(3) 0.2000(2) 0.53234(16)
H27 H 0.1441 0.1465 0.5580
F2 F 0.19811(14) 0.33808(13) 0.47005(9)
C23 C 0.0682(3) 0.3120(2) 0.48125(17)
C24 C -0.0427(3) 0.3941(2) 0.44351(16)
H28 H -0.0321 0.4699 0.4099
Cl2 Cl -0.29326(7) 0.58705(6) 0.35560(5)
C25 C -0.3028(3) 0.4448(2) 0.41798(16)
C26 C -0.4300(3) 0.4156(2) 0.42986(16)
H29 H -0.5116 0.4716 0.4044
C27 C -0.4407(3) 0.3022(3) 0.47979(17)
H30 H -0.5292 0.2809 0.4870
C28 C -0.3250(3) 0.2229(2) 0.51771(16)
H31 H -0.3341 0.1474 0.5525
C29 C -0.1905(3) 0.2511(2) 0.50616(16)
C30 C -0.1780(3) 0.3653(2) 0.45480(16)
C31 C -0.0809(2) 0.0463(2) 0.60031(16)
H32 H -0.1164 0.0022 0.5662
H33 H -0.1543 0.0633 0.6452
C32 C 0.0534(2) -0.0385(2) 0.64093(16)
H34 H 0.1279 -0.0569 0.5969
H35 H 0.0890 0.0033 0.6767
C33 C 0.0265(3) -0.1565(2) 0.69326(16)
H36 H -0.0093 -0.1976 0.6572
H37 H -0.0489 -0.1373 0.7367
C34 C 0.1577(3) -0.2443(2) 0.73555(17)
H38 H 0.2329 -0.2639 0.6921
H39 H 0.1938 -0.2030 0.7714
C35 C 0.1303(3) -0.3623(2) 0.78834(17)
H40 H 0.0950 -0.4041 0.7525
H41 H 0.0549 -0.3429 0.8317
C36 C 0.2625(3) -0.4487(2) 0.83064(17)
H42 H 0.3371 -0.4691 0.7870
H43 H 0.2990 -0.4059 0.8653
C37 C 0.2365(3) -0.5665(2) 0.88546(18)
H44 H 0.2031 -0.6108 0.8505
H45 H 0.1600 -0.5462 0.9281
C38 C 0.3684(3) -0.6504(2) 0.92945(18)
H46 H 0.4438 -0.6721 0.8865
H47 H 0.4034 -0.6048 0.9627
C39 C 0.3451(3) -0.7677(2) 0.98694(18)
H48 H 0.2681 -0.7469 1.0292
H49 H 0.3143 -0.8158 0.9538
C40 C 0.4791(3) -0.8448(2) 1.03105(18)
H50 H 0.4617 -0.9218 1.0640
H51 H 0.5048 -0.8005 1.0681
H52 H 0.5570 -0.8617 0.9895
loop_
_geom_bond_atom_site_label_1
_geom_bond_atom_site_label_2
_geom_bond_site_symmetry_1
_geom_bond_site_symmetry_2
C1 C2 1_555 1_555
C2 H1 1_555 1_555
F1 C3 1_555 1_555
C3 C2 1_555 1_555
C4 C3 1_555 1_555
H2 C4 1_555 1_555
Cl1 C5 1_555 1_555
C5 C6 1_555 1_555
C6 H3 1_555 1_555
C7 C6 1_555 1_555
H4 C7 1_555 1_555
C8 C7 1_555 1_555
H5 C8 1_555 1_555
C9 C1 1_555 1_555
C10 C4 1_555 1_555
C11 C1 1_555 1_555
H6 C11 1_555 1_555
H7 C11 1_555 1_555
C12 C11 1_555 1_555
H8 C12 1_555 1_555
H9 C12 1_555 1_555
C13 C12 1_555 1_555
H10 C13 1_555 1_555
H11 C13 1_555 1_555
C14 C13 1_555 1_555
H12 C14 1_555 1_555
H13 C14 1_555 1_555
C15 C14 1_555 1_555
H14 C15 1_555 1_555
H15 C15 1_555 1_555
C16 C15 1_555 1_555
H16 C16 1_555 1_555
H17 C16 1_555 1_555
C17 C16 1_555 1_555
H18 C17 1_555 1_555
H19 C17 1_555 1_555
C18 C17 1_555 1_555
H20 C18 1_555 1_555
H21 C18 1_555 1_555
C19 C18 1_555 1_555
H22 C19 1_555 1_555
H23 C19 1_555 1_555
C20 C19 1_555 1_555
H24 C20 1_555 1_555
H25 C20 1_555 1_555
H26 C20 1_555 1_555
C21 C22 1_555 1_555
C22 H27 1_555 1_555
F2 C23 1_555 1_555
C23 C22 1_555 1_555
C24 C23 1_555 1_555
H28 C24 1_555 1_555
Cl2 C25 1_555 1_555
C25 C26 1_555 1_555
C26 H29 1_555 1_555
C27 C26 1_555 1_555
H30 C27 1_555 1_555
C28 C27 1_555 1_555
H31 C28 1_555 1_555
C29 C21 1_555 1_555
C30 C24 1_555 1_555
C31 C21 1_555 1_555
H32 C31 1_555 1_555
H33 C31 1_555 1_555
C32 C31 1_555 1_555
H34 C32 1_555 1_555
H35 C32 1_555 1_555
C33 C32 1_555 1_555
H36 C33 1_555 1_555
H37 C33 1_555 1_555
C34 C33 1_555 1_555
H38 C34 1_555 1_555
H39 C34 1_555 1_555
C35 C34 1_555 1_555
H40 C35 1_555 1_555
H41 C35 1_555 1_555
C36 C35 1_555 1_555
H42 C36 1_555 1_555
H43 C36 1_555 1_555
C37 C36 1_555 1_555
H44 C37 1_555 1_555
H45 C37 1_555 1_555
C38 C37 1_555 1_555
H46 C38 1_555 1_555
H47 C38 1_555 1_555
C39 C38 1_555 1_555
H48 C39 1_555 1_555
H49 C39 1_555 1_555
C40 C39 1_555 1_555
H50 C40 1_555 1_555
H51 C40 1_555 1_555
H52 C40 1_555 1_555
C5 C10 1_555 1_555
C8 C9 1_555 1_555
C9 C10 1_555 1_555
C25 C30 1_555 1_555
C28 C29 1_555 1_555
C29 C30 1_555 1_555

#END
