
#######################################################################
#
#                 Cambridge Crystallographic Data Centre
#                                CCDC 
#
#######################################################################
#
# If this CIF has been generated from an entry in the Cambridge 
# Structural Database, then it will include bibliographic, chemical, 
# crystal, experimental, refinement or atomic coordinate data resulting 
# from the CCDC's data processing and validation procedures.
#
#######################################################################

data_SELXOW
_chemical_formula_moiety         'C17 H27 N5 O1'
_chemical_name_systematic        
1,4,7,10,13-Penta-aza-21-oxotricyclo(13.5.2.0^19,22^)docosa-15,17,19(22)-triene
_symmetry_cell_setting           monoclinic
_symmetry_space_group_name_H-M   'P 21/c'
_symmetry_Int_Tables_number      14
_space_group_name_Hall           '-P 2ybc'
loop_
_symmetry_equiv_pos_site_id
_symmetry_equiv_pos_as_xyz
1 x,y,z
2 -x,1/2+y,1/2-z
3 -x,-y,-z
4 x,1/2-y,1/2+z
_cell_length_a                   9.431(1)
_cell_length_b                   24.684(3)
_cell_length_c                   7.917(1)
_cell_angle_alpha                90
_cell_angle_beta                 109.24(1)
_cell_angle_gamma                90
_cell_volume                     1740.1
_exptl_crystal_colour            colorless
_chemical_melting_point          134.0deg.C
_cell_formula_units_Z            4
loop_
_atom_site_label
_atom_site_type_symbol
_atom_site_fract_x
_atom_site_fract_y
_atom_site_fract_z
N1 N 0.7396(1) 0.1626(1) 0.9102(2)
C1 C 0.8405(2) 0.1544(1) 0.8056(2)
C2 C 0.8409(2) 0.2041(1) 0.6940(3)
N2 N 0.6918(2) 0.2179(1) 0.5736(2)
C3 C 0.6444(2) 0.1862(1) 0.4081(2)
C4 C 0.4851(2) 0.2002(1) 0.2972(2)
N3 N 0.3806(1) 0.1811(1) 0.3854(2)
C5 C 0.2283(2) 0.2014(1) 0.3026(3)
C6 C 0.1239(2) 0.1746(1) 0.3878(3)
N4 N 0.1221(1) 0.1166(1) 0.3559(2)
C7 C 0.0487(2) 0.0842(1) 0.4545(2)
C8 C 0.1297(2) 0.0806(1) 0.6559(2)
N5 N 0.2829(1) 0.0608(1) 0.6984(2)
C9 C 0.3207(2) 0.0063(1) 0.6589(2)
C10 C 0.4871(2) 0.0044(1) 0.7505(2)
C11 C 0.5361(1) 0.0540(1) 0.8302(2)
C12 C 0.6853(1) 0.0635(1) 0.9318(2)
C13 C 0.7379(2) 0.1169(1) 1.0254(2)
C14 C 0.7845(2) 0.0206(1) 0.9473(2)
C15 C 0.7356(2) -0.0293(1) 0.8672(2)
C16 C 0.5870(2) -0.0382(1) 0.7675(2)
C17 C 0.4040(1) 0.0905(1) 0.7959(2)
O1 O 0.4009(1) 0.1375(1) 0.8438(2)
H1 H 0.637(2) 0.169(1) 0.828(3)
H2 H 0.947(3) 0.148(1) 0.902(3)
H3 H 0.807(3) 0.122(1) 0.722(3)
H4 H 0.916(3) 0.198(1) 0.633(3)
H5 H 0.879(3) 0.235(1) 0.784(3)
H6 H 0.694(2) 0.253(1) 0.537(3)
H7 H 0.651(3) 0.148(1) 0.442(3)
H8 H 0.717(2) 0.192(1) 0.328(3)
H9 H 0.460(2) 0.181(1) 0.174(3)
H10 H 0.480(3) 0.240(1) 0.277(3)
H11 H 0.419(2) 0.193(1) 0.508(3)
H12 H 0.198(3) 0.190(1) 0.164(3)
H13 H 0.230(3) 0.243(1) 0.314(4)
H14 H 0.164(3) 0.184(1) 0.530(3)
H15 H 0.020(3) 0.188(1) 0.333(3)
H16 H 0.221(2) 0.105(1) 0.383(3)
H17 H -0.060(3) 0.099(1) 0.435(3)
H18 H 0.036(2) 0.042(1) 0.389(3)
H19 H 0.071(3) 0.055(1) 0.710(3)
H20 H 0.131(3) 0.118(1) 0.714(3)
H21 H 0.285(2) -0.003(1) 0.525(3)
H22 H 0.267(2) -0.022(1) 0.710(3)
H23 H 0.846(2) 0.112(1) 1.109(3)
H24 H 0.668(3) 0.127(1) 1.095(3)
H25 H 0.888(2) 0.028(1) 1.013(3)
H26 H 0.812(3) -0.060(1) 0.888(3)
H27 H 0.546(3) -0.075(1) 0.705(3)
loop_
_geom_bond_atom_site_label_1
_geom_bond_atom_site_label_2
_geom_bond_site_symmetry_1
_geom_bond_site_symmetry_2
N1 C1 1_555 1_555
C1 C2 1_555 1_555
C2 N2 1_555 1_555
N2 C3 1_555 1_555
C3 C4 1_555 1_555
C4 N3 1_555 1_555
N3 C5 1_555 1_555
C5 C6 1_555 1_555
C6 N4 1_555 1_555
N4 C7 1_555 1_555
C7 C8 1_555 1_555
C8 N5 1_555 1_555
N5 C9 1_555 1_555
C9 C10 1_555 1_555
C10 C11 1_555 1_555
C11 C12 1_555 1_555
C12 C13 1_555 1_555
C13 N1 1_555 1_555
C14 C12 1_555 1_555
C15 C14 1_555 1_555
C16 C10 1_555 1_555
C17 N5 1_555 1_555
O1 C17 1_555 1_555
H1 N1 1_555 1_555
H2 C1 1_555 1_555
H3 C1 1_555 1_555
H4 C2 1_555 1_555
H5 C2 1_555 1_555
H6 N2 1_555 1_555
H7 C3 1_555 1_555
H8 C3 1_555 1_555
H9 C4 1_555 1_555
H10 C4 1_555 1_555
H11 N3 1_555 1_555
H12 C5 1_555 1_555
H13 C5 1_555 1_555
H14 C6 1_555 1_555
H15 C6 1_555 1_555
H16 N4 1_555 1_555
H17 C7 1_555 1_555
H18 C7 1_555 1_555
H19 C8 1_555 1_555
H20 C8 1_555 1_555
H21 C9 1_555 1_555
H22 C9 1_555 1_555
H23 C13 1_555 1_555
H24 C13 1_555 1_555
H25 C14 1_555 1_555
H26 C15 1_555 1_555
H27 C16 1_555 1_555
C11 C17 1_555 1_555
C15 C16 1_555 1_555

#END
