
#######################################################################
#
#                 Cambridge Crystallographic Data Centre
#                                CCDC 
#
#######################################################################
#
# If this CIF has been generated from an entry in the Cambridge 
# Structural Database, then it will include bibliographic, chemical, 
# crystal, experimental, refinement or atomic coordinate data resulting 
# from the CCDC's data processing and validation procedures.
#
#######################################################################

data_SELZEO
_chemical_formula_moiety         'C36 H23 Br1 O2'
_chemical_name_systematic        
10-Benzoyl-5,6:8,9-dibenzo-3-phenyl-1-p-bromophenyl-2-oxatricyclo(5.2.1.0^4,10^)dec-3-ene
_symmetry_cell_setting           triclinic
_symmetry_space_group_name_H-M   'P -1'
_symmetry_Int_Tables_number      2
_space_group_name_Hall           '-P 1'
loop_
_symmetry_equiv_pos_site_id
_symmetry_equiv_pos_as_xyz
1 x,y,z
2 -x,-y,-z
_cell_length_a                   9.253(4)
_cell_length_b                   17.647(6)
_cell_length_c                   18.540(7)
_cell_angle_alpha                113.59(3)
_cell_angle_beta                 102.10(3)
_cell_angle_gamma                90.43(3)
_cell_volume                     2698.58
_exptl_crystal_colour            colorless
_chemical_melting_point          216-217deg.C
_cell_formula_units_Z            4
loop_
_atom_site_label
_atom_site_type_symbol
_atom_site_fract_x
_atom_site_fract_y
_atom_site_fract_z
Br1 Br 0.19359(12) 0.16579(6) 0.38899(7)
O1 O -0.0173(6) 0.3146(3) 0.0910(3)
C1 C 0.1654(10) 0.2558(5) 0.3581(5)
C2 C 0.0454(9) 0.2548(4) 0.3040(5)
C3 C 0.0266(9) 0.3203(5) 0.2811(5)
C4 C 0.1376(8) 0.3884(4) 0.3163(5)
C5 C 0.2608(9) 0.3890(5) 0.3718(5)
C6 C 0.2773(9) 0.3236(5) 0.3943(5)
C7 C 0.1106(8) 0.4598(4) 0.2921(4)
C8 C -0.0109(8) 0.5092(4) 0.3250(5)
C9 C -0.0116(10) 0.5508(5) 0.4076(5)
C10 C -0.1323(11) 0.5949(5) 0.4262(5)
C11 C -0.2444(10) 0.5989(5) 0.3673(7)
C12 C -0.2420(9) 0.5576(5) 0.2863(6)
C13 C -0.1222(8) 0.5123(4) 0.2653(5)
C14 C -0.0981(8) 0.4644(4) 0.1828(5)
C15 C -0.0929(8) 0.5145(4) 0.1326(4)
C16 C -0.2050(8) 0.5303(5) 0.0827(5)
C17 C -0.1761(10) 0.5803(5) 0.0444(5)
C18 C -0.0331(11) 0.6143(5) 0.0591(5)
C19 C 0.0842(9) 0.5989(4) 0.1097(5)
C20 C 0.0545(8) 0.5472(4) 0.1461(4)
C21 C 0.1507(8) 0.5198(4) 0.2032(4)
C22 C 0.2429(8) 0.5575(4) 0.2749(4)
C23 C 0.3390(8) 0.6375(4) 0.3163(5)
C24 C 0.3670(8) 0.6789(4) 0.3980(5)
C25 C 0.4509(10) 0.7559(5) 0.4371(5)
C26 C 0.5095(11) 0.7874(5) 0.3920(7)
C27 C 0.4851(10) 0.7463(5) 0.3085(7)
C28 C 0.4012(9) 0.6693(5) 0.2694(5)
O3 O 0.2509(5) 0.51478(28) 0.32467(29)
C29 C 0.0671(7) 0.4429(4) 0.2009(4)
C30 C 0.0907(9) 0.3598(4) 0.1397(5)
C31 C 0.2413(9) 0.3311(4) 0.1336(5)
C32 C 0.2472(11) 0.2503(6) 0.0783(6)
C33 C 0.3818(15) 0.2202(7) 0.0679(8)
C34 C 0.5121(13) 0.2657(7) 0.1128(8)
C35 C 0.5100(10) 0.3435(6) 0.1662(6)
C36 C 0.3760(10) 0.3765(5) 0.1781(5)
H1 H -0.0295 0.2075 0.2803
H2 H -0.0637 0.3210 0.2433
H3 H 0.3373 0.4368 0.3958
H4 H 0.3648 0.3248 0.4354
H5 H 0.0685 0.5476 0.4501
H6 H -0.1358 0.6244 0.4836
H7 H -0.3269 0.6311 0.3826
H8 H -0.3241 0.5601 0.2443
H9 H -0.1624 0.4111 0.1417
H10 H -0.3069 0.5079 0.0746
H11 H -0.2567 0.5895 0.0062
H12 H -0.0132 0.6505 0.0331
H13 H 0.1856 0.6234 0.1195
H14 H 0.3303 0.6535 0.4304
H15 H 0.4675 0.7870 0.4959
H16 H 0.5701 0.8410 0.4197
H17 H 0.5401 0.7987 0.3214
H18 H 0.3874 0.6371 0.2106
H19 H 0.1545 0.2145 0.0483
H20 H 0.3836 0.1649 0.0256
H21 H 0.6080 0.2427 0.1076
H22 H 0.6037 0.3781 0.1974
H23 H 0.3770 0.4326 0.2199
Br2 Br 0.69076(12) 1.40144(5) 0.39323(7)
O2 O 0.4999(7) 1.0060(6) 0.0923(4)
C37 C 0.6679(9) 1.2845(4) 0.3630(5)
C38 C 0.5471(9) 1.2397(5) 0.3025(5)
C39 C 0.5304(9) 1.1543(5) 0.2796(5)
C40 C 0.6365(8) 1.1167(4) 0.3152(4)
C41 C 0.7544(9) 1.1648(5) 0.3756(5)
C42 C 0.7701(9) 1.2497(4) 0.3993(5)
C43 C 0.6128(7) 1.0238(4) 0.2898(4)
C44 C 0.4840(8) 1.0017(4) 0.3216(4)
C45 C 0.4766(8) 1.0261(4) 0.3996(4)
C46 C 0.3517(9) 0.9970(5) 0.4165(5)
C47 C 0.2412(9) 0.9437(5) 0.3528(5)
C48 C 0.2486(8) 0.9184(5) 0.2736(5)
C49 C 0.3730(8) 0.9468(4) 0.2554(4)
C50 C 0.4075(8) 0.9278(4) 0.1749(4)
C51 C 0.4136(8) 0.8373(4) 0.1264(4)
C52 C 0.2994(8) 0.7772(5) 0.0728(5)
C53 C 0.3312(10) 0.6958(5) 0.0385(5)
C54 C 0.4716(10) 0.6735(5) 0.0579(5)
C55 C 0.5879(9) 0.7327(5) 0.1104(5)
C56 C 0.5599(8) 0.8141(4) 0.1438(4)
C57 C 0.6532(8) 0.8909(4) 0.2032(4)
C58 C 0.7457(8) 0.9137(4) 0.2756(4)
C59 C 0.8399(8) 0.8683(4) 0.3155(5)
C60 C 0.8712(9) 0.8974(5) 0.3984(5)
C61 C 0.9566(10) 0.8556(6) 0.4381(6)
C62 C 1.0092(11) 0.7840(7) 0.3929(8)
C63 C 0.9821(10) 0.7549(5) 0.3109(7)
C64 C 0.8988(9) 0.7971(5) 0.2714(5)
O4 O 0.7479(5) 0.99735(26) 0.32497(28)
C65 C 0.5711(8) 0.9641(4) 0.1996(4)
C66 C 0.6026(10) 0.9986(5) 0.1386(5)
C67 C 0.7576(9) 1.0226(5) 0.1348(5)
C68 C 0.7629(11) 1.0589(7) 0.0822(6)
C69 C 0.9026(15) 1.0835(10) 0.0762(9)
C70 C 1.0280(12) 1.0708(8) 0.1183(7)
C71 C 1.0252(10) 1.0366(6) 0.1711(6)
C72 C 0.8878(10) 1.0131(5) 0.1804(5)
H24 H 0.4766 1.2664 0.2756
H25 H 0.4435 1.1211 0.2393
H26 H 0.8283 1.1376 0.4013
H27 H 0.8538 1.2842 0.4429
H28 H 0.5569 1.0635 0.4431
H29 H 0.3419 1.0145 0.4728
H30 H 0.1554 0.9229 0.3650
H31 H 0.1688 0.8816 0.2302
H32 H 0.3302 0.9568 0.1444
H33 H 0.1990 0.7927 0.0601
H34 H 0.2518 0.6536 -0.0004
H35 H 0.4891 0.6147 0.0334
H36 H 0.6883 0.7160 0.1237
H37 H 0.8808 0.7773 0.2121
H38 H 1.0230 0.7041 0.2796
H39 H 1.0665 0.7523 0.4196
H40 H 0.9812 0.8771 0.4970
H41 H 0.8323 0.9496 0.4299
H42 H 0.6702 1.0707 0.0514
H43 H 0.9073 1.1073 0.0374
H44 H 1.1247 1.0867 0.1126
H45 H 1.1182 1.0270 0.2017
H46 H 0.8848 0.9903 0.2202
loop_
_geom_bond_atom_site_label_1
_geom_bond_atom_site_label_2
_geom_bond_site_symmetry_1
_geom_bond_site_symmetry_2
Br1 C1 1_555 1_555
Br2 C37 1_555 1_555
O1 C30 1_555 1_555
O2 C66 1_555 1_555
C1 C2 1_555 1_555
C2 C3 1_555 1_555
C3 C4 1_555 1_555
C4 C5 1_555 1_555
C5 C6 1_555 1_555
C6 C1 1_555 1_555
C7 C4 1_555 1_555
C8 C7 1_555 1_555
C9 C8 1_555 1_555
C10 C9 1_555 1_555
C11 C10 1_555 1_555
C12 C11 1_555 1_555
C13 C8 1_555 1_555
C14 C13 1_555 1_555
C15 C14 1_555 1_555
C16 C15 1_555 1_555
C17 C16 1_555 1_555
C18 C17 1_555 1_555
C19 C18 1_555 1_555
C20 C15 1_555 1_555
C21 C20 1_555 1_555
C22 C21 1_555 1_555
C23 C22 1_555 1_555
C24 C23 1_555 1_555
C25 C24 1_555 1_555
C26 C25 1_555 1_555
C27 C26 1_555 1_555
C28 C23 1_555 1_555
O3 C7 1_555 1_555
C29 C7 1_555 1_555
C30 C29 1_555 1_555
C31 C30 1_555 1_555
C32 C31 1_555 1_555
C33 C32 1_555 1_555
C34 C33 1_555 1_555
C35 C34 1_555 1_555
C36 C31 1_555 1_555
C37 C38 1_555 1_555
C38 C39 1_555 1_555
C39 C40 1_555 1_555
C40 C41 1_555 1_555
C41 C42 1_555 1_555
C42 C37 1_555 1_555
C43 C40 1_555 1_555
C44 C43 1_555 1_555
C45 C44 1_555 1_555
C46 C45 1_555 1_555
C47 C46 1_555 1_555
C48 C47 1_555 1_555
C49 C44 1_555 1_555
C50 C49 1_555 1_555
C51 C50 1_555 1_555
C52 C51 1_555 1_555
C53 C52 1_555 1_555
C54 C53 1_555 1_555
C55 C54 1_555 1_555
C56 C51 1_555 1_555
C57 C56 1_555 1_555
C58 C57 1_555 1_555
C59 C58 1_555 1_555
C60 C59 1_555 1_555
C61 C60 1_555 1_555
C62 C61 1_555 1_555
C63 C62 1_555 1_555
C64 C59 1_555 1_555
O4 C43 1_555 1_555
C65 C43 1_555 1_555
C66 C65 1_555 1_555
C67 C66 1_555 1_555
C68 C67 1_555 1_555
C69 C68 1_555 1_555
C70 C69 1_555 1_555
C71 C70 1_555 1_555
C72 C67 1_555 1_555
H1 C2 1_555 1_555
H2 C3 1_555 1_555
H3 C5 1_555 1_555
H4 C6 1_555 1_555
H5 C9 1_555 1_555
H6 C10 1_555 1_555
H7 C11 1_555 1_555
H8 C12 1_555 1_555
H9 C14 1_555 1_555
H10 C16 1_555 1_555
H11 C17 1_555 1_555
H12 C18 1_555 1_555
H13 C19 1_555 1_555
H14 C24 1_555 1_555
H15 C25 1_555 1_555
H16 C26 1_555 1_555
H17 C27 1_555 1_555
H18 C28 1_555 1_555
H19 C32 1_555 1_555
H20 C33 1_555 1_555
H21 C34 1_555 1_555
H22 C35 1_555 1_555
H23 C36 1_555 1_555
H24 C38 1_555 1_555
H25 C39 1_555 1_555
H26 C41 1_555 1_555
H27 C42 1_555 1_555
H28 C45 1_555 1_555
H29 C46 1_555 1_555
H30 C47 1_555 1_555
H31 C48 1_555 1_555
H32 C50 1_555 1_555
H33 C52 1_555 1_555
H34 C53 1_555 1_555
H35 C54 1_555 1_555
H36 C55 1_555 1_555
H37 C64 1_555 1_555
H38 C63 1_555 1_555
H39 C62 1_555 1_555
H40 C61 1_555 1_555
H41 C60 1_555 1_555
H42 C68 1_555 1_555
H43 C69 1_555 1_555
H44 C70 1_555 1_555
H45 C71 1_555 1_555
H46 C72 1_555 1_555
C12 C13 1_555 1_555
C14 C29 1_555 1_555
C19 C20 1_555 1_555
C21 C29 1_555 1_555
C22 O3 1_555 1_555
C27 C28 1_555 1_555
C35 C36 1_555 1_555
C48 C49 1_555 1_555
C50 C65 1_555 1_555
C55 C56 1_555 1_555
C57 C65 1_555 1_555
C58 O4 1_555 1_555
C63 C64 1_555 1_555
C71 C72 1_555 1_555

#END
