
#######################################################################
#
#                 Cambridge Crystallographic Data Centre
#                                CCDC 
#
#######################################################################
#
# If this CIF has been generated from an entry in the Cambridge 
# Structural Database, then it will include bibliographic, chemical, 
# crystal, experimental, refinement or atomic coordinate data resulting 
# from the CCDC's data processing and validation procedures.
#
#######################################################################

data_SEMCOE
_chemical_formula_moiety         'C13 H14 Br1 N1 O2'
_chemical_name_systematic        
1-(4-Bromophenyl)-2-(piperidin-1-yl)ethane-1,2-dione
_symmetry_cell_setting           monoclinic
_symmetry_space_group_name_H-M   'C 2/c'
_symmetry_Int_Tables_number      15
_space_group_name_Hall           '-C 2yn'
loop_
_symmetry_equiv_pos_site_id
_symmetry_equiv_pos_as_xyz
1 x,y,z
2 -x,y,1/2-z
3 1/2+x,1/2+y,z
4 1/2-x,1/2+y,1/2-z
5 -x,-y,-z
6 x,-y,1/2+z
7 1/2-x,1/2-y,-z
8 1/2+x,1/2-y,1/2+z
_cell_length_a                   18.235(3)
_cell_length_b                   8.1950(9)
_cell_length_c                   18.783(3)
_cell_angle_alpha                90
_cell_angle_beta                 111.007(18)
_cell_angle_gamma                90
_cell_volume                     2620.3
_exptl_crystal_colour            colorless
_exptl_crystal_description       block
_chemical_melting_point          '87-89 deg.C'
_cell_formula_units_Z            8
loop_
_atom_site_label
_atom_site_type_symbol
_atom_site_fract_x
_atom_site_fract_y
_atom_site_fract_z
C1 C 0.1926(4) 0.1528(8) 0.8775(4)
H1 H 0.1924 0.2078 0.9231
H2 H 0.2433 0.1005 0.8892
C2 C 0.1304(5) 0.0288(9) 0.8544(4)
H3 H 0.0810 0.0784 0.8512
H4 H 0.1426 -0.0561 0.8930
C3 C 0.1215(7) -0.0476(10) 0.7774(5)
H5 H 0.1686 -0.1089 0.7823
H6 H 0.0776 -0.1229 0.7623
C4 C 0.1082(6) 0.0800(11) 0.7168(4)
H7 H 0.1071 0.0292 0.6698
H8 H 0.0579 0.1325 0.7072
C5 C 0.1720(5) 0.2046(9) 0.7414(5)
H9 H 0.2211 0.1550 0.7437
H10 H 0.1599 0.2922 0.7043
C6 C 0.1760(3) 0.4308(8) 0.8261(4)
C7 C 0.1902(4) 0.4991(7) 0.9051(4)
C8 C 0.1221(3) 0.5687(6) 0.9202(3)
C9 C 0.0466(3) 0.5533(7) 0.8682(3)
H11 H 0.0377 0.4972 0.8229
C10 C -0.0151(4) 0.6197(8) 0.8827(4)
H12 H -0.0660 0.6071 0.8480
C11 C -0.0016(4) 0.7050(7) 0.9489(4)
C12 C 0.0726(5) 0.7202(7) 1.0010(4)
H13 H 0.0812 0.7761 1.0463
C13 C 0.1343(4) 0.6533(7) 0.9866(3)
H14 H 0.1850 0.6650 1.0220
N1 N 0.1810(3) 0.2720(6) 0.8168(3)
O1 O 0.1635(3) 0.5319(5) 0.7750(3)
O2 O 0.2570(3) 0.5046(6) 0.9514(3)
Br1 Br -0.08693(5) 0.80446(9) 0.96723(5)
loop_
_geom_bond_atom_site_label_1
_geom_bond_atom_site_label_2
_geom_bond_site_symmetry_1
_geom_bond_site_symmetry_2
C1 H1 1_555 1_555
H2 C1 1_555 1_555
C2 C1 1_555 1_555
H3 C2 1_555 1_555
H4 C2 1_555 1_555
C3 C2 1_555 1_555
H5 C3 1_555 1_555
H6 C3 1_555 1_555
C4 C3 1_555 1_555
H7 C4 1_555 1_555
H8 C4 1_555 1_555
C5 C4 1_555 1_555
H9 C5 1_555 1_555
H10 C5 1_555 1_555
C6 C7 1_555 1_555
C7 C8 1_555 1_555
C8 C9 1_555 1_555
C9 H11 1_555 1_555
C10 C9 1_555 1_555
H12 C10 1_555 1_555
C11 C10 1_555 1_555
C12 C11 1_555 1_555
H13 C12 1_555 1_555
C13 C8 1_555 1_555
H14 C13 1_555 1_555
N1 C1 1_555 1_555
O1 C6 1_555 1_555
O2 C7 1_555 1_555
Br1 C11 1_555 1_555
C5 N1 1_555 1_555
C6 N1 1_555 1_555
C12 C13 1_555 1_555

#END
