
#######################################################################
#
#                 Cambridge Crystallographic Data Centre
#                                CCDC 
#
#######################################################################
#
# If this CIF has been generated from an entry in the Cambridge 
# Structural Database, then it will include bibliographic, chemical, 
# crystal, experimental, refinement or atomic coordinate data resulting 
# from the CCDC's data processing and validation procedures.
#
#######################################################################

data_SEMCAR
_chemical_formula_moiety         'C36 H36 O8'
_chemical_name_systematic        
'dimethyl 2,13,19,30-tetraoxatricyclo[29.3.1.1^14,18^]hexatriaconta-1(35),14(36),15,17,31,33-hexaene-6,8,23,25-tetrayne-16,33-dicarboxylate unknown solvate'
_symmetry_cell_setting           monoclinic
_symmetry_space_group_name_H-M   'C 2/c'
_symmetry_Int_Tables_number      15
_space_group_name_Hall           '-C 2yn'
loop_
_symmetry_equiv_pos_site_id
_symmetry_equiv_pos_as_xyz
1 x,y,z
2 -x,y,1/2-z
3 1/2+x,1/2+y,z
4 1/2-x,1/2+y,1/2-z
5 -x,-y,-z
6 x,-y,1/2+z
7 1/2-x,1/2-y,-z
8 1/2+x,1/2-y,1/2+z
_cell_length_a                   30.8999(7)
_cell_length_b                   4.69420(10)
_cell_length_c                   28.5604(7)
_cell_angle_alpha                90
_cell_angle_beta                 120.0269(10)
_cell_angle_gamma                90
_cell_volume                     3586.71
_exptl_crystal_colour            'dark blue'
_exptl_crystal_description       block
_cell_formula_units_Z            4
loop_
_atom_site_label
_atom_site_type_symbol
_atom_site_fract_x
_atom_site_fract_y
_atom_site_fract_z
C1 C 0.09921(7) 0.0913(4) 0.22988(9)
C2 C 0.11072(8) 0.1678(5) 0.19047(9)
H1 H 0.0927 0.0907 0.1559
C3 C 0.14920(8) 0.3594(5) 0.20251(9)
C4 C 0.17691(8) 0.4714(5) 0.25391(9)
H2 H 0.2032 0.5962 0.2622
C5 C 0.16483(7) 0.3941(5) 0.29317(9)
C6 C 0.12639(7) 0.2062(5) 0.28173(8)
H3 H 0.1187 0.1569 0.3083
C7 C 0.19432(8) 0.5298(6) 0.34725(9)
C8 C 0.20738(13) 0.5771(10) 0.43531(12)
H4 H 0.2418 0.5198 0.4526
H5 H 0.1930 0.5151 0.4566
H6 H 0.2053 0.7808 0.4320
C9 C 0.03360(8) -0.2221(5) 0.16962(10)
H7 H 0.0560 -0.3316 0.1621
H8 H 0.0172 -0.0800 0.1415
C10 C -0.00458(9) -0.4152(5) 0.17101(11)
H9 H 0.0118 -0.5302 0.2036
H10 H -0.0174 -0.5433 0.1403
C11 C -0.04836(9) -0.2590(6) 0.16980(10)
H11 H -0.0695 -0.3955 0.1745
H12 H -0.0357 -0.1254 0.1997
C12 C -0.07805(8) -0.1055(5) 0.11916(10)
C13 C -0.10089(9) 0.0142(5) 0.07677(10)
C14 C -0.12644(10) 0.1515(6) 0.02719(11)
C15 C -0.14753(11) 0.2708(6) -0.01541(12)
C16 C -0.17082(13) 0.4090(7) -0.06844(12)
H13 H -0.1528 0.5825 -0.0660
H14 H -0.2049 0.4604 -0.0792
C17 C 0.17085(11) 0.7841(6) 0.11081(11)
H15 H 0.1914 0.9494 0.1151
H16 H 0.1370 0.8507 0.0979
C18 C 0.18984(10) 0.6474(6) 0.16540(10)
H17 H 0.2227 0.5660 0.1780
H18 H 0.1923 0.7882 0.1915
O1 O 0.06106(6) -0.0867(4) 0.22139(6)
O2 O 0.15511(7) 0.4284(4) 0.15957(7)
O3 O 0.22739(7) 0.6980(5) 0.35847(8)
O4 O 0.18025(7) 0.4494(5) 0.38199(7)
C1D C -0.09921(7) 0.9087(4) -0.22988(9)
C2D C -0.11072(8) 0.8322(5) -0.19047(9)
H1D H -0.0927 0.9093 -0.1559
C3D C -0.14920(8) 0.6406(5) -0.20251(9)
C4D C -0.17691(8) 0.5286(5) -0.25391(9)
H2D H -0.2032 0.4038 -0.2622
C5D C -0.16483(7) 0.6059(5) -0.29317(9)
C6D C -0.12639(7) 0.7938(5) -0.28173(8)
H3D H -0.1187 0.8431 -0.3083
C7D C -0.19432(8) 0.4702(6) -0.34725(9)
C8D C -0.20738(13) 0.4229(10) -0.43531(12)
H4D H -0.2418 0.4802 -0.4526
H5D H -0.1930 0.4849 -0.4566
H6D H -0.2053 0.2192 -0.4320
C9D C -0.03360(8) 1.2221(5) -0.16962(10)
H7D H -0.0560 1.3316 -0.1621
H8D H -0.0172 1.0800 -0.1415
C10D C 0.00458(9) 1.4152(5) -0.17101(11)
H9D H -0.0118 1.5302 -0.2036
H10D H 0.0174 1.5433 -0.1403
C11D C 0.04836(9) 1.2590(6) -0.16980(10)
H11D H 0.0695 1.3955 -0.1745
H12D H 0.0357 1.1254 -0.1997
C12D C 0.07805(8) 1.1055(5) -0.11916(10)
C13D C 0.10089(9) 0.9858(5) -0.07677(10)
C14D C 0.12644(10) 0.8485(6) -0.02719(11)
C15D C 0.14753(11) 0.7292(6) 0.01541(12)
C16D C 0.17082(13) 0.5910(7) 0.06844(12)
H13D H 0.1528 0.4175 0.0660
H14D H 0.2049 0.5396 0.0792
C17D C -0.17085(11) 0.2159(6) -0.11081(11)
H15D H -0.1914 0.0506 -0.1151
H16D H -0.1370 0.1493 -0.0979
C18D C -0.18984(10) 0.3526(6) -0.16540(10)
H17D H -0.2227 0.4340 -0.1780
H18D H -0.1923 0.2118 -0.1915
O1D O -0.06106(6) 1.0867(4) -0.22139(6)
O2D O -0.15511(7) 0.5716(4) -0.15957(7)
O3D O -0.22739(7) 0.3020(5) -0.35847(8)
O4D O -0.18025(7) 0.5506(5) -0.38199(7)
loop_
_geom_bond_atom_site_label_1
_geom_bond_atom_site_label_2
_geom_bond_site_symmetry_1
_geom_bond_site_symmetry_2
C1 C2 1_555 1_555
C2 H1 1_555 1_555
C3 C2 1_555 1_555
C4 C3 1_555 1_555
H2 C4 1_555 1_555
C5 C4 1_555 1_555
C6 C1 1_555 1_555
H3 C6 1_555 1_555
C7 C5 1_555 1_555
C8 H4 1_555 1_555
H5 C8 1_555 1_555
H6 C8 1_555 1_555
C9 H7 1_555 1_555
H8 C9 1_555 1_555
C10 C9 1_555 1_555
H9 C10 1_555 1_555
H10 C10 1_555 1_555
C11 C10 1_555 1_555
H11 C11 1_555 1_555
H12 C11 1_555 1_555
C12 C11 1_555 1_555
C13 C12 1_555 1_555
C14 C13 1_555 1_555
C15 C14 1_555 1_555
C16 C15 1_555 1_555
H13 C16 1_555 1_555
H14 C16 1_555 1_555
C17 H15 1_555 1_555
H16 C17 1_555 1_555
C18 C17 1_555 1_555
H17 C18 1_555 1_555
H18 C18 1_555 1_555
O1 C1 1_555 1_555
O2 C3 1_555 1_555
O3 C7 1_555 1_555
O4 C7 1_555 1_555
C1D C2D 1_555 1_555
C2D H1D 1_555 1_555
C3D C2D 1_555 1_555
C4D C3D 1_555 1_555
H2D C4D 1_555 1_555
C5D C4D 1_555 1_555
C6D C1D 1_555 1_555
H3D C6D 1_555 1_555
C7D C5D 1_555 1_555
C8D H4D 1_555 1_555
H5D C8D 1_555 1_555
H6D C8D 1_555 1_555
C9D H7D 1_555 1_555
H8D C9D 1_555 1_555
C10D C9D 1_555 1_555
H9D C10D 1_555 1_555
H10D C10D 1_555 1_555
C11D C10D 1_555 1_555
H11D C11D 1_555 1_555
H12D C11D 1_555 1_555
C12D C11D 1_555 1_555
C13D C12D 1_555 1_555
C14D C13D 1_555 1_555
C15D C14D 1_555 1_555
C16D C17 1_555 1_555
H13D C16D 1_555 1_555
H14D C16D 1_555 1_555
C17D C16 1_555 1_555
H15D C17D 1_555 1_555
H16D C17D 1_555 1_555
C18D C17D 1_555 1_555
H17D C18D 1_555 1_555
H18D C18D 1_555 1_555
O1D C1D 1_555 1_555
O2D C3D 1_555 1_555
O3D C7D 1_555 1_555
O4D C7D 1_555 1_555
C5 C6 1_555 1_555
C8 O4 1_555 1_555
C9 O1 1_555 1_555
C18 O2 1_555 1_555
C5D C6D 1_555 1_555
C8D O4D 1_555 1_555
C9D O1D 1_555 1_555
C15D C16D 1_555 1_555
C18D O2D 1_555 1_555

#END
