
#######################################################################
#
#                 Cambridge Crystallographic Data Centre
#                                CCDC 
#
#######################################################################
#
# If this CIF has been generated from an entry in the Cambridge 
# Structural Database, then it will include bibliographic, chemical, 
# crystal, experimental, refinement or atomic coordinate data resulting 
# from the CCDC's data processing and validation procedures.
#
#######################################################################

data_SEMCIZ
_chemical_formula_moiety         'C48 H60 O8'
_chemical_name_systematic        
'dimethyl 2,19,25,42-tetraoxatricyclo[41.3.1.1^20,24^]octatetraconta-1(47),20(48),21,23,43,45-hexaene-9,11,32,34-tetrayne-22,45-dicarboxylate unknown solvate'
_symmetry_cell_setting           triclinic
_symmetry_space_group_name_H-M   'P -1'
_symmetry_Int_Tables_number      2
_space_group_name_Hall           '-P 1'
loop_
_symmetry_equiv_pos_site_id
_symmetry_equiv_pos_as_xyz
1 x,y,z
2 -x,-y,-z
_cell_length_a                   5.0309(2)
_cell_length_b                   18.8398(6)
_cell_length_c                   29.8260(9)
_cell_angle_alpha                105.5241(18)
_cell_angle_beta                 92.4280(19)
_cell_angle_gamma                97.0367(19)
_cell_volume                     2694.93
_exptl_crystal_colour            pink
_exptl_crystal_description       rod
_cell_formula_units_Z            2
loop_
_atom_site_label
_atom_site_type_symbol
_atom_site_fract_x
_atom_site_fract_y
_atom_site_fract_z
C1 C 0.8567(7) 0.2560(2) 0.61016(13)
H1 H 0.8715 0.2786 0.5860
C2 C 0.6509(7) 0.1992(2) 0.60757(12)
C3 C 0.6254(7) 0.16559(19) 0.64336(12)
H2 H 0.4849 0.1278 0.6417
C4 C 0.8120(7) 0.1890(2) 0.68176(12)
C5 C 1.0249(8) 0.2452(2) 0.68434(13)
H3 H 1.1536 0.2594 0.7096
C6 C 1.0413(7) 0.2795(2) 0.64869(13)
C7 C 0.7891(9) 0.1566(2) 0.72222(14)
C8 C 0.5153(12) 0.0776(3) 0.75629(16)
H4 H 0.6539 0.0482 0.7595
H5 H 0.3440 0.0467 0.7503
H6 H 0.5159 0.1167 0.7846
C9 C 0.2728(8) 0.1200(2) 0.56230(15)
H7 H 0.1568 0.1295 0.5878
H8 H 0.3499 0.0751 0.5618
C10 C 0.1139(9) 0.1106(3) 0.51673(15)
H9 H -0.0394 0.0726 0.5137
H10 H 0.0456 0.1569 0.5175
C11 C 0.2672(10) 0.0898(3) 0.47478(15)
H11 H 0.3489 0.0459 0.4750
H12 H 0.4100 0.1299 0.4758
C12 C 0.0859(10) 0.0742(3) 0.42960(16)
H13 H -0.0587 0.0348 0.4291
H14 H 0.0060 0.1185 0.4295
C13 C 0.2275(12) 0.0525(3) 0.38752(18)
H15 H 0.3159 0.0100 0.3887
H16 H 0.3661 0.0931 0.3874
C14 C 0.0509(13) 0.0327(3) 0.34223(15)
H17 H 0.1626 0.0197 0.3163
H18 H -0.0769 -0.0109 0.3409
C15 C -0.0963(10) 0.0919(3) 0.33626(15)
C16 C 1.2138(10) 0.8605(3) 0.66853(15)
C17 C 1.3578(11) 0.8047(3) 0.67385(18)
C18 C 1.4889(12) 0.7579(3) 0.6777(2)
C19 C 1.6477(13) 0.6997(4) 0.6823(3)
H19 H 1.7487 0.7152 0.7125
H20 H 1.7751 0.6930 0.6585
C20 C 1.4766(11) 0.6285(3) 0.6775(2)
H21 H 1.3637 0.6156 0.6485
H22 H 1.3599 0.6344 0.7029
C21 C 1.6371(11) 0.5646(3) 0.6778(2)
H23 H 1.7366 0.5541 0.6501
H24 H 1.7655 0.5794 0.7049
C22 C 1.4562(10) 0.4953(2) 0.6788(2)
H25 H 1.3262 0.4814 0.6519
H26 H 1.3579 0.5062 0.7066
C23 C 1.6042(9) 0.4296(2) 0.67856(19)
H27 H 1.6803 0.4139 0.6487
H28 H 1.7517 0.4456 0.7026
C24 C 1.4305(8) 0.3645(2) 0.68654(16)
H29 H 1.5384 0.3263 0.6892
H30 H 1.3421 0.3797 0.7152
O1 O 0.4788(5) 0.18075(15) 0.56856(9)
O2 O 1.2371(6) 0.33673(15) 0.64785(10)
O3 O 0.9524(7) 0.17155(19) 0.75471(11)
O4 O 0.5633(7) 0.10932(17) 0.71820(10)
C1A C 0.1433(7) 0.7440(2) 0.38984(13)
H1A H 0.1285 0.7214 0.4140
C2A C 0.3491(7) 0.8008(2) 0.39243(12)
C3A C 0.3746(7) 0.83441(19) 0.35664(12)
H2A H 0.5151 0.8722 0.3583
C4A C 0.1880(7) 0.8110(2) 0.31824(12)
C5A C -0.0249(8) 0.7548(2) 0.31566(13)
H3A H -0.1536 0.7406 0.2904
C6A C -0.0413(7) 0.7205(2) 0.35131(13)
C7A C 0.2109(9) 0.8434(2) 0.27778(14)
C8A C 0.4847(12) 0.9224(3) 0.24371(16)
H4A H 0.3461 0.9518 0.2405
H5A H 0.6560 0.9533 0.2497
H6A H 0.4841 0.8833 0.2154
C9A C 0.7272(8) 0.8800(2) 0.43770(15)
H7A H 0.8432 0.8705 0.4122
H8A H 0.6501 0.9249 0.4382
C10A C 0.8861(9) 0.8894(3) 0.48327(15)
H9A H 1.0394 0.9274 0.4863
H10A H 0.9544 0.8431 0.4825
C11A C 0.7328(10) 0.9102(3) 0.52522(15)
H11A H 0.6511 0.9541 0.5250
H12A H 0.5900 0.8701 0.5242
C12A C 0.9141(10) 0.9258(3) 0.57040(16)
H13A H 1.0587 0.9652 0.5709
H14A H 0.9940 0.8815 0.5705
C13A C 0.7725(12) 0.9475(3) 0.61248(18)
H15A H 0.6841 0.9900 0.6113
H16A H 0.6339 0.9069 0.6126
C14A C 0.9491(13) 0.9673(3) 0.65777(15)
H17A H 0.8374 0.9803 0.6837
H18A H 1.0769 1.0109 0.6591
C15A C 1.0963(10) 0.9081(3) 0.66374(15)
C16A C -0.2138(10) 0.1395(3) 0.33147(15)
C17A C -0.3578(11) 0.1953(3) 0.32615(18)
C18A C -0.4889(12) 0.2421(3) 0.3223(2)
C19A C -0.6477(13) 0.3003(4) 0.3177(3)
H19A H -0.7487 0.2848 0.2875
H20A H -0.7751 0.3070 0.3415
C20A C -0.4766(11) 0.3715(3) 0.3225(2)
H21A H -0.3637 0.3844 0.3515
H22A H -0.3599 0.3656 0.2971
C21A C -0.6371(11) 0.4354(3) 0.3222(2)
H23A H -0.7366 0.4459 0.3499
H24A H -0.7655 0.4206 0.2951
C22A C -0.4562(10) 0.5047(2) 0.3212(2)
H25A H -0.3262 0.5186 0.3481
H26A H -0.3579 0.4938 0.2934
C23A C -0.6042(9) 0.5704(2) 0.32144(19)
H27A H -0.6803 0.5861 0.3513
H28A H -0.7517 0.5544 0.2974
C24A C -0.4305(8) 0.6355(2) 0.31346(16)
H29A H -0.5384 0.6737 0.3108
H30A H -0.3421 0.6203 0.2848
O1A O 0.5212(5) 0.81925(15) 0.43144(9)
O2A O -0.2371(6) 0.66327(15) 0.35215(10)
O3A O 0.0476(7) 0.82845(19) 0.24529(11)
O4A O 0.4367(7) 0.89068(17) 0.28180(10)
C25 C 0.7608(7) 0.18224(19) 0.94749(12)
H31 H 0.7800 0.2277 0.9702
C26 C 0.9206(6) 0.17261(19) 0.91059(12)
C27 C 0.8970(7) 0.10481(19) 0.87655(11)
H32 H 1.0072 0.0979 0.8519
C28 C 0.7033(7) 0.04733(19) 0.88033(12)
C29 C 0.5363(6) 0.05727(19) 0.91729(12)
H33 H 0.4041 0.0193 0.9191
C30 C 0.5724(6) 0.12466(19) 0.95098(11)
C31 C 0.6661(8) -0.0263(2) 0.84519(12)
C32 C 0.8461(12) -0.1027(2) 0.78002(16)
H34 H 0.8512 -0.1413 0.7954
H35 H 0.9990 -0.1008 0.7620
H36 H 0.6843 -0.1128 0.7598
C33 C 1.2635(7) 0.2279(2) 0.87144(13)
H37 H 1.1513 0.2144 0.8424
H38 H 1.3801 0.1902 0.8703
C34 C 1.4287(8) 0.3026(2) 0.87811(14)
H39 H 1.5480 0.3139 0.9063
H40 H 1.3101 0.3404 0.8823
C35 C 1.5937(7) 0.3055(2) 0.83721(14)
H41 H 1.4760 0.2903 0.8087
H42 H 1.7222 0.2705 0.8346
C36 C 1.7432(8) 0.3825(2) 0.84212(15)
H43 H 1.8601 0.3974 0.8707
H44 H 1.6138 0.4173 0.8450
C37 C 1.9111(8) 0.3880(2) 0.80169(15)
H45 H 2.0433 0.3540 0.7991
H46 H 1.7953 0.3724 0.7730
C38 C 2.0541(8) 0.4653(2) 0.80688(19)
H47 H 2.1664 0.4813 0.8360
H48 H 2.1708 0.4636 0.7817
C39 C 1.8719(8) 0.5199(2) 0.80644(16)
C40 C 1.7224(8) 0.5648(2) 0.80718(15)
C41 C 1.5549(8) 0.6177(2) 0.80962(14)
C42 C 1.4137(8) 0.6649(2) 0.81279(14)
C43 C 1.2353(7) 0.7230(2) 0.82167(14)
H49 H 1.0722 0.7055 0.8011
H50 H 1.3240 0.7672 0.8149
C44 C -0.1639(7) 0.2576(2) 1.12794(13)
H51 H -0.3284 0.2452 1.1076
H52 H -0.0618 0.3010 1.1223
C45 C -0.0031(7) 0.1935(2) 1.11525(13)
H53 H -0.1020 0.1504 1.1218
H54 H 0.1650 0.2064 1.1346
C46 C 0.0570(7) 0.1735(2) 1.06415(12)
H55 H -0.1102 0.1647 1.0448
H56 H 0.1686 0.2153 1.0582
C47 C 0.1970(7) 0.1059(2) 1.05051(13)
H57 H 0.0872 0.0649 1.0576
H58 H 0.3655 0.1156 1.0696
C48 C 0.2554(7) 0.08206(19) 0.99957(12)
H59 H 0.3376 0.0368 0.9932
H60 H 0.0899 0.0725 0.9797
O5 O 1.0998(5) 0.23310(14) 0.91003(9)
O6 O 0.4334(5) 0.14061(13) 0.99045(8)
O7 O 0.4948(7) -0.07660(16) 0.84477(11)
O8 O 0.8517(6) -0.03161(15) 0.81478(10)
C25A C 0.2392(7) 0.81776(19) 1.05251(12)
H31A H 0.2200 0.7723 1.0298
C26A C 0.0794(6) 0.82739(19) 1.08941(12)
C27A C 0.1030(7) 0.89519(19) 1.12345(11)
H32A H -0.0072 0.9021 1.1481
C28A C 0.2967(7) 0.95267(19) 1.11967(12)
C29A C 0.4637(6) 0.94273(19) 1.08271(12)
H33A H 0.5959 0.9807 1.0809
C30A C 0.4276(6) 0.87534(19) 1.04902(11)
C31A C 0.3339(8) 1.0263(2) 1.15481(12)
C32A C 0.1539(12) 1.1027(2) 1.21998(16)
H34A H 0.1488 1.1413 1.2046
H35A H 0.0010 1.1008 1.2380
H36A H 0.3157 1.1128 1.2402
C33A C -0.2635(7) 0.7721(2) 1.12856(13)
H37A H -0.1513 0.7856 1.1576
H38A H -0.3801 0.8098 1.1297
C34A C -0.4287(8) 0.6974(2) 1.12189(14)
H39A H -0.5480 0.6861 1.0937
H40A H -0.3101 0.6596 1.1177
C35A C -0.5937(7) 0.6945(2) 1.16279(14)
H41A H -0.4760 0.7097 1.1913
H42A H -0.7222 0.7295 1.1654
C36A C -0.7432(8) 0.6175(2) 1.15788(15)
H43A H -0.8601 0.6026 1.1293
H44A H -0.6138 0.5827 1.1550
C37A C -0.9111(8) 0.6120(2) 1.19831(15)
H45A H -1.0433 0.6460 1.2009
H46A H -0.7953 0.6276 1.2270
C38A C -1.0541(8) 0.5347(2) 1.19312(19)
H47A H -1.1664 0.5187 1.1640
H48A H -1.1708 0.5364 1.2183
C39A C -0.8719(8) 0.4801(2) 1.19356(16)
C40A C -0.7224(8) 0.4352(2) 1.19282(15)
C41A C -0.5549(8) 0.3823(2) 1.19038(14)
C42A C -0.4137(8) 0.3351(2) 1.18721(14)
C43A C -0.2353(7) 0.2770(2) 1.17833(14)
H49A H -0.0722 0.2945 1.1989
H50A H -0.3240 0.2328 1.1851
C44A C 1.1639(7) 0.7424(2) 0.87206(13)
H51A H 1.3284 0.7548 0.8924
H52A H 1.0618 0.6990 0.8777
C45A C 1.0031(7) 0.8065(2) 0.88475(13)
H53A H 1.1020 0.8496 0.8782
H54A H 0.8350 0.7936 0.8654
C46A C 0.9430(7) 0.8265(2) 0.93585(12)
H55A H 1.1102 0.8353 0.9552
H56A H 0.8314 0.7847 0.9418
C47A C 0.8030(7) 0.8941(2) 0.94949(13)
H57A H 0.9128 0.9351 0.9424
H58A H 0.6345 0.8844 0.9304
C48A C 0.7446(7) 0.91794(19) 1.00043(12)
H59A H 0.6624 0.9632 1.0068
H60A H 0.9101 0.9275 1.0203
O5A O -0.0998(5) 0.76690(14) 1.08997(9)
O6A O 0.5666(5) 0.85939(13) 1.00955(8)
O7A O 0.5052(7) 1.07660(16) 1.15523(11)
O8A O 0.1483(6) 1.03161(15) 1.18522(10)
loop_
_geom_bond_atom_site_label_1
_geom_bond_atom_site_label_2
_geom_bond_site_symmetry_1
_geom_bond_site_symmetry_2
C1 H1 1_555 1_555
C2 C1 1_555 1_555
C3 C2 1_555 1_555
H2 C3 1_555 1_555
C4 C3 1_555 1_555
C5 C4 1_555 1_555
H3 C5 1_555 1_555
C6 C1 1_555 1_555
C7 C4 1_555 1_555
C8 H4 1_555 1_555
H5 C8 1_555 1_555
H6 C8 1_555 1_555
C9 H7 1_555 1_555
H8 C9 1_555 1_555
C10 C9 1_555 1_555
H9 C10 1_555 1_555
H10 C10 1_555 1_555
C11 C10 1_555 1_555
H11 C11 1_555 1_555
H12 C11 1_555 1_555
C12 C11 1_555 1_555
H13 C12 1_555 1_555
H14 C12 1_555 1_555
C13 C12 1_555 1_555
H15 C13 1_555 1_555
H16 C13 1_555 1_555
C14 C13 1_555 1_555
H17 C14 1_555 1_555
H18 C14 1_555 1_555
C15 C14 1_555 1_555
C16 C17 1_555 1_555
C17 C18 1_555 1_555
C18 C19 1_555 1_555
C19 H19 1_555 1_555
H20 C19 1_555 1_555
C20 C19 1_555 1_555
H21 C20 1_555 1_555
H22 C20 1_555 1_555
C21 C20 1_555 1_555
H23 C21 1_555 1_555
H24 C21 1_555 1_555
C22 C21 1_555 1_555
H25 C22 1_555 1_555
H26 C22 1_555 1_555
C23 C22 1_555 1_555
H27 C23 1_555 1_555
H28 C23 1_555 1_555
C24 C23 1_555 1_555
H29 C24 1_555 1_555
H30 C24 1_555 1_555
O1 C2 1_555 1_555
O2 C6 1_555 1_555
O3 C7 1_555 1_555
O4 C7 1_555 1_555
C25 H31 1_555 1_555
C26 C25 1_555 1_555
C27 C26 1_555 1_555
H32 C27 1_555 1_555
C28 C27 1_555 1_555
C29 C28 1_555 1_555
H33 C29 1_555 1_555
C30 C25 1_555 1_555
C31 C28 1_555 1_555
C32 H34 1_555 1_555
H35 C32 1_555 1_555
H36 C32 1_555 1_555
C33 H37 1_555 1_555
H38 C33 1_555 1_555
C34 C33 1_555 1_555
H39 C34 1_555 1_555
H40 C34 1_555 1_555
C35 C34 1_555 1_555
H41 C35 1_555 1_555
H42 C35 1_555 1_555
C36 C35 1_555 1_555
H43 C36 1_555 1_555
H44 C36 1_555 1_555
C37 C36 1_555 1_555
H45 C37 1_555 1_555
H46 C37 1_555 1_555
C38 C37 1_555 1_555
H47 C38 1_555 1_555
H48 C38 1_555 1_555
C39 C38 1_555 1_555
C40 C39 1_555 1_555
C41 C40 1_555 1_555
C42 C41 1_555 1_555
C43 C42 1_555 1_555
H49 C43 1_555 1_555
H50 C43 1_555 1_555
C44 H51 1_555 1_555
H52 C44 1_555 1_555
C45 C44 1_555 1_555
H53 C45 1_555 1_555
H54 C45 1_555 1_555
C46 C45 1_555 1_555
H55 C46 1_555 1_555
H56 C46 1_555 1_555
C47 C46 1_555 1_555
H57 C47 1_555 1_555
H58 C47 1_555 1_555
C48 C47 1_555 1_555
H59 C48 1_555 1_555
H60 C48 1_555 1_555
O5 C26 1_555 1_555
O6 C30 1_555 1_555
O7 C31 1_555 1_555
O8 C31 1_555 1_555
C1A H1A 1_555 1_555
C2A C1A 1_555 1_555
C3A C2A 1_555 1_555
H2A C3A 1_555 1_555
C4A C3A 1_555 1_555
C5A C4A 1_555 1_555
H3A C5A 1_555 1_555
C6A C1A 1_555 1_555
C7A C4A 1_555 1_555
C8A H4A 1_555 1_555
H5A C8A 1_555 1_555
H6A C8A 1_555 1_555
C9A H7A 1_555 1_555
H8A C9A 1_555 1_555
C10A C9A 1_555 1_555
H9A C10A 1_555 1_555
H10A C10A 1_555 1_555
C11A C10A 1_555 1_555
H11A C11A 1_555 1_555
H12A C11A 1_555 1_555
C12A C11A 1_555 1_555
H13A C12A 1_555 1_555
H14A C12A 1_555 1_555
C13A C12A 1_555 1_555
H15A C13A 1_555 1_555
H16A C13A 1_555 1_555
C14A C13A 1_555 1_555
H17A C14A 1_555 1_555
H18A C14A 1_555 1_555
C15A C16 1_555 1_555
C16A C15 1_555 1_555
C17A C16A 1_555 1_555
C18A C17A 1_555 1_555
C19A C18A 1_555 1_555
H19A C19A 1_555 1_555
H20A C19A 1_555 1_555
C20A C19A 1_555 1_555
H21A C20A 1_555 1_555
H22A C20A 1_555 1_555
C21A C20A 1_555 1_555
H23A C21A 1_555 1_555
H24A C21A 1_555 1_555
C22A C21A 1_555 1_555
H25A C22A 1_555 1_555
H26A C22A 1_555 1_555
C23A C22A 1_555 1_555
H27A C23A 1_555 1_555
H28A C23A 1_555 1_555
C24A C23A 1_555 1_555
H29A C24A 1_555 1_555
H30A C24A 1_555 1_555
O1A C2A 1_555 1_555
O2A C6A 1_555 1_555
O3A C7A 1_555 1_555
O4A C7A 1_555 1_555
C25A H31A 1_555 1_555
C26A C25A 1_555 1_555
C27A C26A 1_555 1_555
H32A C27A 1_555 1_555
C28A C27A 1_555 1_555
C29A C28A 1_555 1_555
H33A C29A 1_555 1_555
C30A C25A 1_555 1_555
C31A C28A 1_555 1_555
C32A H34A 1_555 1_555
H35A C32A 1_555 1_555
H36A C32A 1_555 1_555
C33A H37A 1_555 1_555
H38A C33A 1_555 1_555
C34A C33A 1_555 1_555
H39A C34A 1_555 1_555
H40A C34A 1_555 1_555
C35A C34A 1_555 1_555
H41A C35A 1_555 1_555
H42A C35A 1_555 1_555
C36A C35A 1_555 1_555
H43A C36A 1_555 1_555
H44A C36A 1_555 1_555
C37A C36A 1_555 1_555
H45A C37A 1_555 1_555
H46A C37A 1_555 1_555
C38A C37A 1_555 1_555
H47A C38A 1_555 1_555
H48A C38A 1_555 1_555
C39A C38A 1_555 1_555
C40A C39A 1_555 1_555
C41A C40A 1_555 1_555
C42A C41A 1_555 1_555
C43A C44 1_555 1_555
H49A C43A 1_555 1_555
H50A C43A 1_555 1_555
C44A C43 1_555 1_555
H51A C44A 1_555 1_555
H52A C44A 1_555 1_555
C45A C44A 1_555 1_555
H53A C45A 1_555 1_555
H54A C45A 1_555 1_555
C46A C45A 1_555 1_555
H55A C46A 1_555 1_555
H56A C46A 1_555 1_555
C47A C46A 1_555 1_555
H57A C47A 1_555 1_555
H58A C47A 1_555 1_555
C48A C47A 1_555 1_555
H59A C48A 1_555 1_555
H60A C48A 1_555 1_555
O5A C26A 1_555 1_555
O6A C30A 1_555 1_555
O7A C31A 1_555 1_555
O8A C31A 1_555 1_555
C5 C6 1_555 1_555
C8 O4 1_555 1_555
C9 O1 1_555 1_555
C24 O2 1_555 1_555
C29 C30 1_555 1_555
C32 O8 1_555 1_555
C33 O5 1_555 1_555
C48 O6 1_555 1_555
C5A C6A 1_555 1_555
C8A O4A 1_555 1_555
C9A O1A 1_555 1_555
C14A C15A 1_555 1_555
C24A O2A 1_555 1_555
C29A C30A 1_555 1_555
C32A O8A 1_555 1_555
C33A O5A 1_555 1_555
C42A C43A 1_555 1_555
C48A O6A 1_555 1_555

#END
