
#######################################################################
#
#                 Cambridge Crystallographic Data Centre
#                                CCDC 
#
#######################################################################
#
# If this CIF has been generated from an entry in the Cambridge 
# Structural Database, then it will include bibliographic, chemical, 
# crystal, experimental, refinement or atomic coordinate data resulting 
# from the CCDC's data processing and validation procedures.
#
#######################################################################

data_SEMCEV
_chemical_formula_moiety         'C44 H52 O8'
_chemical_name_systematic        
'dimethyl 2,17,23,38-tetraoxatricyclo[37.3.1.1^18,22^]tetratetraconta-1(43),18(44),19,21,39,41-hexaene-8,10,29,31-tetrayne-20,41-dicarboxylate unknown solvate'
_symmetry_cell_setting           monoclinic
_symmetry_space_group_name_H-M   'P 21/c'
_symmetry_Int_Tables_number      14
_space_group_name_Hall           '-P 2ybc'
loop_
_symmetry_equiv_pos_site_id
_symmetry_equiv_pos_as_xyz
1 x,y,z
2 -x,1/2+y,1/2-z
3 -x,-y,-z
4 x,1/2-y,1/2+z
_cell_length_a                   4.7766(2)
_cell_length_b                   41.0190(13)
_cell_length_c                   12.2047(4)
_cell_angle_alpha                90
_cell_angle_beta                 94.6748(17)
_cell_angle_gamma                90
_cell_volume                     2383.33
_exptl_crystal_colour            violet
_exptl_crystal_description       block
_cell_formula_units_Z            2
loop_
_atom_site_label
_atom_site_type_symbol
_atom_site_fract_x
_atom_site_fract_y
_atom_site_fract_z
C1 C 0.7507(7) 0.13437(9) 0.2128(3)
C2 C 0.5953(7) 0.13572(9) 0.3044(3)
H1 H 0.6036 0.1185 0.3540
C3 C 0.4320(7) 0.16191(9) 0.3221(3)
C4 C 0.4189(8) 0.18804(10) 0.2495(3)
H2 H 0.3082 0.2061 0.2623
C5 C 0.5744(8) 0.18701(9) 0.1565(3)
C6 C 0.7387(7) 0.16008(9) 0.1388(3)
H3 H 0.8412 0.1592 0.0772
C7 C 0.5629(11) 0.21487(10) 0.0808(4)
C8 C 0.7040(17) 0.23658(13) -0.0862(6)
H4 H 0.7658 0.2562 -0.0485
H5 H 0.5197 0.2399 -0.1219
H6 H 0.8320 0.2312 -0.1401
C9 C 1.0518(8) 0.10252(9) 0.1088(3)
H7 H 1.1767 0.1207 0.0986
H8 H 0.9188 0.1010 0.0445
C10 C 1.2175(8) 0.07145(10) 0.1235(4)
H9 H 1.3547 0.0740 0.1861
H10 H 1.3198 0.0681 0.0590
C11 C 1.0440(8) 0.04133(10) 0.1412(4)
H11 H 0.8999 0.0393 0.0809
H12 H 0.9509 0.0439 0.2085
C12 C 1.2187(9) 0.01047(10) 0.1489(4)
H13 H 1.3076 0.0077 0.0808
H14 H 1.3664 0.0130 0.2077
C13 C 1.0526(10) -0.01990(11) 0.1699(5)
H15 H 0.9782 -0.0181 0.2412
H16 H 0.8948 -0.0215 0.1148
C14 C 1.2217(10) -0.04971(11) 0.1669(4)
C15 C 1.3631(10) -0.07335(10) 0.1624(4)
C16 C 1.5218(9) -0.10119(10) 0.1584(4)
C17 C 1.6583(10) -0.12556(11) 0.1548(3)
C18 C 1.8309(12) -0.15452(13) 0.1523(4)
H17 H 1.9572 -0.1521 0.0945
H18 H 1.7104 -0.1731 0.1339
C19 C -0.0026(11) 0.16151(13) 0.7407(4)
H19 H -0.1127 0.1423 0.7201
H20 H -0.1332 0.1790 0.7533
C20 C 0.1600(9) 0.17087(11) 0.6464(4)
H21 H 0.2895 0.1534 0.6325
H22 H 0.2701 0.1902 0.6660
C21 C -0.0236(9) 0.17762(11) 0.5426(3)
H23 H -0.1524 0.1950 0.5578
H24 H -0.1354 0.1583 0.5249
C22 C 0.1233(9) 0.18707(10) 0.4414(4)
H25 H -0.0131 0.1921 0.3805
H26 H 0.2419 0.2060 0.4565
O1 O 0.9065(6) 0.10735(6) 0.2050(2)
O2 O 0.2859(6) 0.15992(7) 0.4166(2)
O3 O 0.5025(17) 0.24282(18) 0.1129(6)
O4 O 0.6957(8) 0.21026(7) -0.0081(3)
C1B C 1.2493(7) -0.13437(9) 0.7872(3)
C2B C 1.4047(7) -0.13572(9) 0.6956(3)
H1B H 1.3964 -0.1185 0.6460
C3B C 1.5680(7) -0.16191(9) 0.6779(3)
C4B C 1.5811(8) -0.18804(10) 0.7505(3)
H2B H 1.6918 -0.2061 0.7377
C5B C 1.4256(8) -0.18701(9) 0.8435(3)
C6B C 1.2613(7) -0.16008(9) 0.8612(3)
H3B H 1.1588 -0.1592 0.9228
C7B C 1.4371(11) -0.21487(10) 0.9192(4)
C8B C 1.2960(17) -0.23658(13) 1.0862(6)
H4B H 1.2342 -0.2562 1.0485
H5B H 1.4803 -0.2399 1.1219
H6B H 1.1680 -0.2312 1.1401
C9B C 0.9482(8) -0.10252(9) 0.8912(3)
H7B H 0.8233 -0.1207 0.9014
H8B H 1.0812 -0.1010 0.9555
C10B C 0.7825(8) -0.07145(10) 0.8765(4)
H9B H 0.6453 -0.0740 0.8139
H10B H 0.6802 -0.0681 0.9410
C11B C 0.9560(8) -0.04133(10) 0.8588(4)
H11B H 1.1001 -0.0393 0.9191
H12B H 1.0491 -0.0439 0.7915
C12B C 0.7813(9) -0.01047(10) 0.8511(4)
H13B H 0.6924 -0.0077 0.9192
H14B H 0.6336 -0.0130 0.7923
C13B C 0.9474(10) 0.01990(11) 0.8301(5)
H15B H 1.0218 0.0181 0.7588
H16B H 1.1052 0.0215 0.8852
C14B C 0.7783(10) 0.04971(11) 0.8331(4)
C15B C 0.6369(10) 0.07335(10) 0.8376(4)
C16B C 0.4782(9) 0.10119(10) 0.8416(4)
C17B C 0.3417(10) 0.12556(11) 0.8452(3)
C18B C 0.1691(12) 0.15452(13) 0.8477(4)
H17B H 0.0428 0.1521 0.9055
H18B H 0.2896 0.1731 0.8661
C19B C 2.0026(11) -0.16151(13) 0.2593(4)
H19B H 2.1127 -0.1423 0.2799
H20B H 2.1332 -0.1790 0.2467
C20B C 1.8400(9) -0.17087(11) 0.3536(4)
H21B H 1.7105 -0.1534 0.3675
H22B H 1.7299 -0.1902 0.3340
C21B C 2.0236(9) -0.17762(11) 0.4574(3)
H23B H 2.1524 -0.1950 0.4422
H24B H 2.1354 -0.1583 0.4751
C22B C 1.8767(9) -0.18707(10) 0.5586(4)
H25B H 2.0131 -0.1921 0.6195
H26B H 1.7581 -0.2060 0.5435
O1B O 1.0935(6) -0.10735(6) 0.7950(2)
O2B O 1.7141(6) -0.15992(7) 0.5834(2)
O3B O 1.4975(17) -0.24282(18) 0.8871(6)
O4B O 1.3043(8) -0.21026(7) 1.0081(3)
O5? O 0.3838(16) 0.23741(18) 0.0821(6)
loop_
_geom_bond_atom_site_label_1
_geom_bond_atom_site_label_2
_geom_bond_site_symmetry_1
_geom_bond_site_symmetry_2
C1 C2 1_555 1_555
C2 H1 1_555 1_555
C3 C2 1_555 1_555
C4 C3 1_555 1_555
H2 C4 1_555 1_555
C5 C4 1_555 1_555
C6 C1 1_555 1_555
H3 C6 1_555 1_555
C7 C5 1_555 1_555
C8 H4 1_555 1_555
H5 C8 1_555 1_555
H6 C8 1_555 1_555
C9 H7 1_555 1_555
H8 C9 1_555 1_555
C10 C9 1_555 1_555
H9 C10 1_555 1_555
H10 C10 1_555 1_555
C11 C10 1_555 1_555
H11 C11 1_555 1_555
H12 C11 1_555 1_555
C12 C11 1_555 1_555
H13 C12 1_555 1_555
H14 C12 1_555 1_555
C13 C12 1_555 1_555
H15 C13 1_555 1_555
H16 C13 1_555 1_555
C14 C13 1_555 1_555
C15 C14 1_555 1_555
C16 C15 1_555 1_555
C17 C16 1_555 1_555
C18 C17 1_555 1_555
H17 C18 1_555 1_555
H18 C18 1_555 1_555
C19 H19 1_555 1_555
H20 C19 1_555 1_555
C20 C19 1_555 1_555
H21 C20 1_555 1_555
H22 C20 1_555 1_555
C21 C20 1_555 1_555
H23 C21 1_555 1_555
H24 C21 1_555 1_555
C22 C21 1_555 1_555
H25 C22 1_555 1_555
H26 C22 1_555 1_555
O1 C1 1_555 1_555
O2 C3 1_555 1_555
O3 C7 1_555 1_555
O4 C7 1_555 1_555
C1B C2B 1_555 1_555
C2B H1B 1_555 1_555
C3B C2B 1_555 1_555
C4B C3B 1_555 1_555
H2B C4B 1_555 1_555
C5B C4B 1_555 1_555
C6B C1B 1_555 1_555
H3B C6B 1_555 1_555
C7B C5B 1_555 1_555
C8B H4B 1_555 1_555
H5B C8B 1_555 1_555
H6B C8B 1_555 1_555
C9B H7B 1_555 1_555
H8B C9B 1_555 1_555
C10B C9B 1_555 1_555
H9B C10B 1_555 1_555
H10B C10B 1_555 1_555
C11B C10B 1_555 1_555
H11B C11B 1_555 1_555
H12B C11B 1_555 1_555
C12B C11B 1_555 1_555
H13B C12B 1_555 1_555
H14B C12B 1_555 1_555
C13B C12B 1_555 1_555
H15B C13B 1_555 1_555
H16B C13B 1_555 1_555
C14B C13B 1_555 1_555
C15B C14B 1_555 1_555
C16B C15B 1_555 1_555
C17B C16B 1_555 1_555
C18B C19 1_555 1_555
H17B C18B 1_555 1_555
H18B C18B 1_555 1_555
C19B C18 1_555 1_555
H19B C19B 1_555 1_555
H20B C19B 1_555 1_555
C20B C19B 1_555 1_555
H21B C20B 1_555 1_555
H22B C20B 1_555 1_555
C21B C20B 1_555 1_555
H23B C21B 1_555 1_555
H24B C21B 1_555 1_555
C22B C21B 1_555 1_555
H25B C22B 1_555 1_555
H26B C22B 1_555 1_555
O1B C1B 1_555 1_555
O2B C3B 1_555 1_555
O3B C7B 1_555 1_555
O4B C7B 1_555 1_555
C5 C6 1_555 1_555
C8 O4 1_555 1_555
C9 O1 1_555 1_555
C22 O2 1_555 1_555
C5B C6B 1_555 1_555
C8B O4B 1_555 1_555
C9B O1B 1_555 1_555
C17B C18B 1_555 1_555
C22B O2B 1_555 1_555

#END
