
#######################################################################
#
#                 Cambridge Crystallographic Data Centre
#                                CCDC 
#
#######################################################################
#
# If this CIF has been generated from an entry in the Cambridge 
# Structural Database, then it will include bibliographic, chemical, 
# crystal, experimental, refinement or atomic coordinate data resulting 
# from the CCDC's data processing and validation procedures.
#
#######################################################################

data_SEMDIA
_chemical_formula_moiety         'C23 H14 N6 O3,C3 H6 O1'
_chemical_name_systematic        
'5,7,15,17,24,26-hexa-azaoctacyclo[9.9.9.0^2,10^.0^4,8^.0^12,20^.0^14,18^.0^21,29^.0^23,27^]nonacosa-2(10),3,8,12(20),13,18,21(29),22,27-nonaene-6,16,25-trione acetone solvate'
_symmetry_cell_setting           monoclinic
_symmetry_space_group_name_H-M   'C 2/m'
_symmetry_Int_Tables_number      12
_space_group_name_Hall           '-C 2y'
loop_
_symmetry_equiv_pos_site_id
_symmetry_equiv_pos_as_xyz
1 x,y,z
2 -x,y,-z
3 1/2+x,1/2+y,z
4 1/2-x,1/2+y,-z
5 -x,-y,-z
6 x,-y,z
7 1/2-x,1/2-y,-z
8 1/2+x,1/2-y,z
_cell_length_a                   24.316(18)
_cell_length_b                   7.284(5)
_cell_length_c                   14.900(11)
_cell_angle_alpha                90
_cell_angle_beta                 119.038(11)
_cell_angle_gamma                90
_cell_volume                     2307.32
_exptl_crystal_colour            colorless
_exptl_crystal_description       plate
_cell_formula_units_Z            4
loop_
_atom_site_label
_atom_site_type_symbol
_atom_site_fract_x
_atom_site_fract_y
_atom_site_fract_z
O1 O -0.0971(3) 0.5000 0.0586(5)
O2 O 0.4739(4) 0.5000 0.7672(6)
O3 O 0.4236(3) 0.5000 0.0074(5)
N1 N -0.0025(2) 0.6493(6) 0.1092(4)
H1 H -0.0152 0.7627 0.1013
N2 N 0.3985(3) 0.6492(7) 0.6214(4)
H2 H 0.4068 0.7626 0.6419
N3 N 0.3570(2) 0.6497(6) 0.0528(4)
H3 H 0.3630 0.7630 0.0411
C1 C -0.0404(4) 0.5000 0.0892(7)
C2 C 0.0595(3) 0.5948(8) 0.1440(4)
C3 C 0.1133(3) 0.6940(7) 0.1744(4)
H4 H 0.1130 0.8230 0.1730
C4 C 0.1677(3) 0.5955(7) 0.2072(4)
C5 C 0.2334(3) 0.6764(7) 0.2453(4)
H5 H 0.2336 0.8123 0.2454
C6 C 0.2745(3) 0.5949(8) 0.3511(5)
C7 C 0.3126(3) 0.6951(8) 0.4391(5)
H6 H 0.3112 0.8240 0.4403
C8 C 0.3527(3) 0.5942(8) 0.5252(5)
C9 C 0.4290(6) 0.5000 0.6796(8)
C10 C 0.2599(3) 0.5959(7) 0.1811(4)
C11 C 0.2886(2) 0.6946(8) 0.1354(4)
H7 H 0.2870 0.8235 0.1326
C12 C 0.3201(2) 0.5947(7) 0.0932(4)
C13 C 0.3833(4) 0.5000 0.0335(6)
N1E N -0.0025(2) 0.3507(6) 0.1092(4)
H1E H -0.0152 0.2373 0.1013
N2E N 0.3985(3) 0.3508(7) 0.6214(4)
H2E H 0.4068 0.2374 0.6419
N3E N 0.3570(2) 0.3503(6) 0.0528(4)
H3E H 0.3630 0.2370 0.0411
C2E C 0.0595(3) 0.4052(8) 0.1440(4)
C3E C 0.1133(3) 0.3060(7) 0.1744(4)
H4E H 0.1130 0.1770 0.1730
C4E C 0.1677(3) 0.4045(7) 0.2072(4)
C5E C 0.2334(3) 0.3236(7) 0.2453(4)
H5E H 0.2336 0.1877 0.2454
C6E C 0.2745(3) 0.4051(8) 0.3511(5)
C7E C 0.3126(3) 0.3049(8) 0.4391(5)
H6E H 0.3112 0.1760 0.4403
C8E C 0.3527(3) 0.4058(8) 0.5252(5)
C10E C 0.2599(3) 0.4041(7) 0.1811(4)
C11E C 0.2886(2) 0.3054(8) 0.1354(4)
H7E H 0.2870 0.1765 0.1326
C12E C 0.3201(2) 0.4053(7) 0.0932(4)
O4 O 0.5380(4) 0.0000 0.3605(6)
C14 C 0.4836(7) 0.0000 0.3440(10)
C15 C 0.4504(5) -0.1683(19) 0.3332(12)
H8 H 0.4198 -0.1872 0.2615
H9 H 0.4289 -0.1618 0.3735
H10 H 0.4799 -0.2697 0.3573
C15E C 0.4504(5) 0.1683(19) 0.3332(12)
H8E H 0.4198 0.1872 0.2615
H9E H 0.4289 0.1618 0.3735
H10E H 0.4799 0.2697 0.3573
loop_
_geom_bond_atom_site_label_1
_geom_bond_atom_site_label_2
_geom_bond_site_symmetry_1
_geom_bond_site_symmetry_2
O1 C1 1_555 1_555
O2 C9 1_555 1_555
O3 C13 1_555 1_555
N1 H1 1_555 1_555
N2 H2 1_555 1_555
N3 H3 1_555 1_555
C1 N1 1_555 1_555
C2 N1 1_555 1_555
C3 C2 1_555 1_555
H4 C3 1_555 1_555
C4 C3 1_555 1_555
C5 C4 1_555 1_555
H5 C5 1_555 1_555
C6 C5 1_555 1_555
C7 C6 1_555 1_555
H6 C7 1_555 1_555
C8 N2 1_555 1_555
C9 N2 1_555 1_555
C10 C5 1_555 1_555
C11 C10 1_555 1_555
H7 C11 1_555 1_555
C12 N3 1_555 1_555
C13 N3 1_555 1_555
O4 C14 1_555 1_555
C14 C15 1_555 1_555
C15 H8 1_555 1_555
H9 C15 1_555 1_555
H10 C15 1_555 1_555
N1E C1 1_555 1_555
H1E N1E 1_555 1_555
N2E C9 1_555 1_555
H2E N2E 1_555 1_555
N3E C13 1_555 1_555
H3E N3E 1_555 1_555
C2E C2 1_555 1_555
C3E C2E 1_555 1_555
H4E C3E 1_555 1_555
C4E C4 1_555 1_555
C5E C4E 1_555 1_555
H5E C5E 1_555 1_555
C6E C6 1_555 1_555
C7E C6E 1_555 1_555
H6E C7E 1_555 1_555
C8E C8 1_555 1_555
C10E C10 1_555 1_555
C11E C10E 1_555 1_555
H7E C11E 1_555 1_555
C12E C12 1_555 1_555
C15E C14 1_555 1_555
H8E C15E 1_555 1_555
H9E C15E 1_555 1_555
H10E C15E 1_555 1_555
C7 C8 1_555 1_555
C11 C12 1_555 1_555
N1E C2E 1_555 1_555
N2E C8E 1_555 1_555
N3E C12E 1_555 1_555
C3E C4E 1_555 1_555
C5E C6E 1_555 1_555
C5E C10E 1_555 1_555
C7E C8E 1_555 1_555
C11E C12E 1_555 1_555

#END
