
#######################################################################
#
#                 Cambridge Crystallographic Data Centre
#                                CCDC 
#
#######################################################################
#
# If this CIF has been generated from an entry in the Cambridge 
# Structural Database, then it will include bibliographic, chemical, 
# crystal, experimental, refinement or atomic coordinate data resulting 
# from the CCDC's data processing and validation procedures.
#
#######################################################################

data_SEMFAU
_chemical_formula_moiety         'C35 H20 N6 O3,17.3(C3 H7 N1 O1)'
_chemical_name_systematic        
'7,9,21,23,34,36-hexa-azaundecacyclo[13.13.13.0^2,14^.0^4,12^.0^6,10^.0^16,28^.0^18,26^.0^20,24^.0^29,41^.0^31,39^.0^33,37^]hentetraconta-2,4(12),5,10,13,16,18(26),19,24,27,29,31(39),32,37,40-pentadecaene-8,22,35-trione dimethylformamide solvate'
_symmetry_cell_setting           hexagonal
_symmetry_space_group_name_H-M   'P 63/m m c'
_symmetry_Int_Tables_number      194
_space_group_name_Hall           "-P 6c 2'c"
loop_
_symmetry_equiv_pos_site_id
_symmetry_equiv_pos_as_xyz
1 x,y,z
2 x-y,x,1/2+z
3 -y,x-y,z
4 -x,-y,1/2+z
5 -x+y,-x,z
6 y,-x+y,1/2+z
7 x-y,-y,-z
8 -x,-x+y,-z
9 y,x,-z
10 -y,-x,1/2-z
11 -x+y,y,1/2-z
12 x,x-y,1/2-z
13 -x,-y,-z
14 -x+y,-x,1/2-z
15 y,-x+y,-z
16 x,y,1/2-z
17 x-y,x,-z
18 -y,x-y,1/2-z
19 -x+y,y,z
20 x,x-y,z
21 -y,-x,z
22 y,x,1/2+z
23 x-y,-y,1/2+z
24 -x,-x+y,1/2+z
_cell_length_a                   31.681(11)
_cell_length_b                   31.681(11)
_cell_length_c                   7.287(3)
_cell_angle_alpha                90
_cell_angle_beta                 90
_cell_angle_gamma                120
_cell_volume                     6333.99
_exptl_crystal_colour            colorless
_exptl_crystal_description       block
_cell_formula_units_Z            2
loop_
_atom_site_label
_atom_site_type_symbol
_atom_site_fract_x
_atom_site_fract_y
_atom_site_fract_z
O1 O 0.49265(8) 0.50735(8) 0.2500
N1 N 0.52961(6) 0.47039(6) 0.4005(5)
H1 H 0.5245 0.4755 0.5135
C1 C 0.6667 0.3333 0.4245(9)
H2 H 0.6667 0.3333 0.5604
C2 C 0.64143(7) 0.35857(7) 0.3472(5)
C3 C 0.62012(7) 0.37988(7) 0.4397(5)
H3 H 0.6205 0.3795 0.5687
C4 C 0.59710(7) 0.40290(7) 0.3489(5)
C5 C 0.57457(8) 0.42543(8) 0.4439(5)
H4 H 0.5742 0.4258 0.5729
C6 C 0.55381(7) 0.44619(7) 0.3476(6)
C7 C 0.51503(13) 0.48497(13) 0.2500
O1B O 0.49265(8) -0.01470(11) 0.2500
N1B N 0.52961(6) 0.05922(8) 0.4005(5)
H1B H 0.5245 0.0490 0.5135
C2B C 0.64143(7) 0.28286(10) 0.3472(5)
C3B C 0.62012(7) 0.24024(10) 0.4397(5)
H3B H 0.6205 0.2410 0.5687
C4B C 0.59710(7) 0.19420(10) 0.3489(5)
C5B C 0.57457(8) 0.14914(11) 0.4439(5)
H4B H 0.5742 0.1484 0.5729
C6B C 0.55381(7) 0.10762(10) 0.3476(6)
C7B C 0.51503(13) 0.03006(18) 0.2500
O1D O 1.01470(11) 0.50735(8) 0.2500
N1D N 0.94078(8) 0.47039(6) 0.4005(5)
H1D H 0.9510 0.4755 0.5135
C2D C 0.71714(10) 0.35857(7) 0.3472(5)
C3D C 0.75976(10) 0.37988(7) 0.4397(5)
H3D H 0.7590 0.3795 0.5687
C4D C 0.80580(10) 0.40290(7) 0.3489(5)
C5D C 0.85086(11) 0.42543(8) 0.4439(5)
H4D H 0.8516 0.4258 0.5729
C6D C 0.89238(10) 0.44619(7) 0.3476(6)
C7D C 0.96994(18) 0.48497(13) 0.2500
N1I N 0.52961(6) 0.47039(6) 0.0995(5)
H1I H 0.5245 0.4755 -0.0135
C1I C 0.6667 0.3333 0.0755(9)
H2I H 0.6667 0.3333 -0.0604
C2I C 0.64143(7) 0.35857(7) 0.1528(5)
C3I C 0.62012(7) 0.37988(7) 0.0603(5)
H3I H 0.6205 0.3795 -0.0687
C4I C 0.59710(7) 0.40290(7) 0.1511(5)
C5I C 0.57457(8) 0.42543(8) 0.0561(5)
H4I H 0.5742 0.4258 -0.0729
C6I C 0.55381(7) 0.44619(7) 0.1524(6)
N1J N 0.94078(8) 0.47039(6) 0.0995(5)
H1J H 0.9510 0.4755 -0.0135
C2J C 0.71714(10) 0.35857(7) 0.1528(5)
C3J C 0.75976(10) 0.37988(7) 0.0603(5)
H3J H 0.7590 0.3795 -0.0687
C4J C 0.80580(10) 0.40290(7) 0.1511(5)
C5J C 0.85086(11) 0.42543(8) 0.0561(5)
H4J H 0.8516 0.4258 -0.0729
C6J C 0.89238(10) 0.44619(7) 0.1524(6)
N1K N 0.52961(6) 0.05922(8) 0.0995(5)
H1K H 0.5245 0.0490 -0.0135
C2K C 0.64143(7) 0.28286(10) 0.1528(5)
C3K C 0.62012(7) 0.24024(10) 0.0603(5)
H3K H 0.6205 0.2410 -0.0687
C4K C 0.59710(7) 0.19420(10) 0.1511(5)
C5K C 0.57457(8) 0.14914(11) 0.0561(5)
H4K H 0.5742 0.1484 -0.0729
C6K C 0.55381(7) 0.10762(10) 0.1524(6)
loop_
_geom_bond_atom_site_label_1
_geom_bond_atom_site_label_2
_geom_bond_site_symmetry_1
_geom_bond_site_symmetry_2
O1 C7 1_555 1_555
N1 H1 1_555 1_555
C1 H2 1_555 1_555
C2 C1 1_555 1_555
C3 C2 1_555 1_555
H3 C3 1_555 1_555
C4 C3 1_555 1_555
C5 C4 1_555 1_555
H4 C5 1_555 1_555
C6 N1 1_555 1_555
C7 N1 1_555 1_555
O1B C7B 1_555 1_555
N1B H1B 1_555 1_555
C2B C1 1_555 1_555
C3B C2B 1_555 1_555
H3B C3B 1_555 1_555
C4B C3B 1_555 1_555
C5B C4B 1_555 1_555
H4B C5B 1_555 1_555
C6B N1B 1_555 1_555
C7B N1B 1_555 1_555
O1D C7D 1_555 1_555
N1D H1D 1_555 1_555
C2D C1 1_555 1_555
C3D C2D 1_555 1_555
H3D C3D 1_555 1_555
C4D C3D 1_555 1_555
C5D C4D 1_555 1_555
H4D C5D 1_555 1_555
C6D N1D 1_555 1_555
C7D N1D 1_555 1_555
N1I C7 1_555 1_555
H1I N1I 1_555 1_555
C1I H2I 1_555 1_555
C2I C2 1_555 1_555
C3I C2I 1_555 1_555
H3I C3I 1_555 1_555
C4I C4 1_555 1_555
C5I C4I 1_555 1_555
H4I C5I 1_555 1_555
C6I C6 1_555 1_555
N1J C7D 1_555 1_555
H1J N1J 1_555 1_555
C2J C2D 1_555 1_555
C3J C2J 1_555 1_555
H3J C3J 1_555 1_555
C4J C4D 1_555 1_555
C5J C4J 1_555 1_555
H4J C5J 1_555 1_555
C6J C6D 1_555 1_555
N1K C7B 1_555 1_555
H1K N1K 1_555 1_555
C2K C2B 1_555 1_555
C3K C2K 1_555 1_555
H3K C3K 1_555 1_555
C4K C4B 1_555 1_555
C5K C4K 1_555 1_555
H4K C5K 1_555 1_555
C6K C6B 1_555 1_555
C5 C6 1_555 1_555
C5B C6B 1_555 1_555
C5D C6D 1_555 1_555
N1I C6I 1_555 1_555
C1I C2I 1_555 1_555
C1I C2J 1_555 1_555
C1I C2K 1_555 1_555
C3I C4I 1_555 1_555
C5I C6I 1_555 1_555
N1J C6J 1_555 1_555
C3J C4J 1_555 1_555
C5J C6J 1_555 1_555
N1K C6K 1_555 1_555
C3K C4K 1_555 1_555
C5K C6K 1_555 1_555

#END
