
#######################################################################
#
#                 Cambridge Crystallographic Data Centre
#                                CCDC 
#
#######################################################################
#
# If this CIF has been generated from an entry in the Cambridge 
# Structural Database, then it will include bibliographic, chemical, 
# crystal, experimental, refinement or atomic coordinate data resulting 
# from the CCDC's data processing and validation procedures.
#
#######################################################################

data_SEMJAV
_chemical_formula_moiety         'C9 H6 N2 O5 S2'
_chemical_name_systematic        3-(4-Nitro)phenylsulfonyloxyisothiazole
_symmetry_cell_setting           monoclinic
_symmetry_space_group_name_H-M   'P 21/n'
_symmetry_Int_Tables_number      14
_space_group_name_Hall           '-P 2yn'
loop_
_symmetry_equiv_pos_site_id
_symmetry_equiv_pos_as_xyz
1 x,y,z
2 1/2-x,1/2+y,1/2-z
3 -x,-y,-z
4 1/2+x,1/2-y,1/2+z
_cell_length_a                   12.573(3)
_cell_length_b                   7.039(1)
_cell_length_c                   13.175(3)
_cell_angle_alpha                90
_cell_angle_beta                 102.05(3)
_cell_angle_gamma                90
_cell_volume                     1140.31
_exptl_crystal_colour            colorless
_chemical_melting_point          126.0-126.5deg.C
_cell_formula_units_Z            4
_exptl_crystal_recrystallization_method 'acetone/chloroform/petroleum ether'
loop_
_atom_site_label
_atom_site_type_symbol
_atom_site_fract_x
_atom_site_fract_y
_atom_site_fract_z
S1 S 0.8573(1) 0.0857(10) 0.1051(1)
S2 S 0.9852(1) -0.3784(1) 0.3539(1)
O1 O 0.6069(3) -0.7182(4) -0.0528(2)
O2 O 0.6812(2) -0.6581(4) -0.1816(2)
O3 O 0.8058(2) 0.1412(3) 0.1859(2)
O4 O 0.8801(2) 0.2210(3) 0.0335(2)
O5 O 0.9754(2) 0.0018(3) 0.1543(2)
N1 N 0.6593(2) -0.6154(4) -0.0983(2)
N2 N 0.9648(3) -0.1619(4) 0.3056(2)
C1 C 0.9841(2) -0.1664(4) 0.2129(2)
C2 C 1.0162(3) -0.3390(5) 0.1735(3)
C3 C 1.0199(3) -0.4727(6) 0.2481(3)
C4 C 0.7912(2) -0.1133(4) 0.0420(2)
C5 C 0.8056(3) -0.1574(4) -0.0571(2)
C6 C 0.7623(3) -0.3240(5) -0.1027(2)
C7 C 0.7053(2) -0.4388(4) -0.0485(2)
C8 C 0.6886(3) -0.3954(4) 0.0493(2)
C9 C 0.7323(3) -0.2294(4) 0.0942(2)
loop_
_geom_bond_atom_site_label_1
_geom_bond_atom_site_label_2
_geom_bond_site_symmetry_1
_geom_bond_site_symmetry_2
S1 O3 1_555 1_555
S2 N2 1_555 1_555
O1 N1 1_555 1_555
O2 N1 1_555 1_555
O4 S1 1_555 1_555
O5 S1 1_555 1_555
N1 C7 1_555 1_555
N2 C1 1_555 1_555
C1 O5 1_555 1_555
C2 C1 1_555 1_555
C3 S2 1_555 1_555
C4 S1 1_555 1_555
C5 C4 1_555 1_555
C6 C5 1_555 1_555
C7 C6 1_555 1_555
C8 C7 1_555 1_555
C9 C4 1_555 1_555
C2 C3 1_555 1_555
C8 C9 1_555 1_555

#END
