
#######################################################################
#
#                 Cambridge Crystallographic Data Centre
#                                CCDC 
#
#######################################################################
#
# If this CIF has been generated from an entry in the Cambridge 
# Structural Database, then it will include bibliographic, chemical, 
# crystal, experimental, refinement or atomic coordinate data resulting 
# from the CCDC's data processing and validation procedures.
#
#######################################################################

data_SEMMOP
_chemical_formula_moiety         'C25 H22 N6 O6,0.25(H2 O1)'
_chemical_name_systematic        
"8-methyl-4-(2-methylpropoxy)-5-nitro-N'-[(8-nitroquinolin-2-yl)methylidene]quinoline-2-carbohydrazide hydrate"
_symmetry_cell_setting           monoclinic
_symmetry_space_group_name_H-M   'P 21/n'
_symmetry_Int_Tables_number      14
_space_group_name_Hall           '-P 2yn'
loop_
_symmetry_equiv_pos_site_id
_symmetry_equiv_pos_as_xyz
1 x,y,z
2 1/2-x,1/2+y,1/2-z
3 -x,-y,-z
4 1/2+x,1/2-y,1/2+z
_cell_length_a                   14.144(3)
_cell_length_b                   12.445(3)
_cell_length_c                   14.545(3)
_cell_angle_alpha                90
_cell_angle_beta                 91.32(3)
_cell_angle_gamma                90
_cell_volume                     2559.56
_exptl_crystal_colour            colorless
_exptl_crystal_description       block
_cell_formula_units_Z            4
loop_
_atom_site_label
_atom_site_type_symbol
_atom_site_fract_x
_atom_site_fract_y
_atom_site_fract_z
C1 C 0.1283(3) 0.6547(3) 0.0773(2)
C2 C 0.1380(3) 0.7299(3) 0.0110(3)
H1 H 0.1425 0.8025 0.0255
C3 C 0.1410(3) 0.6949(4) -0.0797(3)
H2 H 0.1476 0.7454 -0.1263
C4 C 0.1346(3) 0.5885(4) -0.1022(3)
H3 H 0.1365 0.5674 -0.1635
C5 C 0.1251(3) 0.5098(3) -0.0319(2)
C6 C 0.1221(2) 0.5431(3) 0.0598(2)
C7 C 0.1184(3) 0.3995(3) -0.0486(3)
H4 H 0.1191 0.3738 -0.1086
C8 C 0.1107(3) 0.3291(3) 0.0232(2)
H5 H 0.1057 0.2556 0.0128
C9 C 0.1106(3) 0.3710(3) 0.1132(2)
C10 C 0.1073(3) 0.3019(3) 0.1947(2)
H6 H 0.1037 0.3333 0.2526
C11 C 0.1200(3) 0.0397(3) 0.2774(2)
C12 C 0.1251(2) 0.0004(3) 0.3755(2)
C13 C 0.1397(3) -0.1093(3) 0.3907(2)
H7 H 0.1469 -0.1565 0.3418
C14 C 0.1430(2) -0.1450(2) 0.4797(2)
C15 C 0.1325(2) -0.0712(2) 0.5528(2)
C16 C 0.1191(2) 0.0392(2) 0.5292(2)
C17 C 0.1098(3) 0.1181(3) 0.5993(3)
C18 C 0.1127(3) 0.0856(3) 0.6889(3)
H8 H 0.1056 0.1365 0.7350
C19 C 0.1257(3) -0.0213(3) 0.7131(3)
H9 H 0.1279 -0.0413 0.7747
C20 C 0.1352(3) -0.0962(3) 0.6465(2)
C21 C 0.0988(3) 0.2336(3) 0.5737(3)
H10 H 0.0829 0.2745 0.6271
H11 H 0.0494 0.2408 0.5278
H12 H 0.1571 0.2599 0.5497
C22 C 0.1599(3) -0.3304(3) 0.4347(3)
H13 H 0.2195 -0.3259 0.4032
H14 H 0.1090 -0.3197 0.3899
C23 C 0.1505(4) -0.4391(3) 0.4792(3)
H15 H 0.0908 -0.4391 0.5119
C24 C 0.2265(6) -0.4626(4) 0.5476(5)
H16 H 0.2869 -0.4551 0.5194
H17 H 0.2196 -0.5347 0.5698
H18 H 0.2225 -0.4132 0.5981
C25 C 0.1413(5) -0.5222(3) 0.4028(4)
H19 H 0.0841 -0.5094 0.3678
H20 H 0.1394 -0.5928 0.4292
H21 H 0.1945 -0.5167 0.3633
N1 N 0.1232(3) 0.6929(2) 0.1724(2)
N2 N 0.1151(2) 0.4747(2) 0.13214(18)
N3 N 0.1093(2) 0.1995(2) 0.18794(19)
N4 N 0.1091(2) 0.1470(2) 0.2707(2)
H22 H 0.1057 0.1777 0.3222
N5 N 0.1161(2) 0.0730(2) 0.44010(19)
N6 N 0.1479(3) -0.2082(3) 0.6794(2)
O1 O 0.1938(3) 0.7266(3) 0.2091(3)
O2 O 0.0479(3) 0.6893(3) 0.2105(2)
O3 O 0.1251(3) -0.0210(2) 0.21266(19)
O4 O 0.1562(2) -0.24906(17) 0.50460(17)
O5 O 0.2265(3) -0.2347(3) 0.7049(2)
O6 O 0.0788(3) -0.2652(3) 0.6834(3)
O7 O 0.5000 0.5000 0.5000
H23? H 0.5086 0.5435 0.4559
H24? H 0.5091 0.4373 0.4776
loop_
_geom_bond_atom_site_label_1
_geom_bond_atom_site_label_2
_geom_bond_site_symmetry_1
_geom_bond_site_symmetry_2
C1 C2 1_555 1_555
C2 H1 1_555 1_555
C3 C2 1_555 1_555
H2 C3 1_555 1_555
C4 C3 1_555 1_555
H3 C4 1_555 1_555
C5 C4 1_555 1_555
C6 C1 1_555 1_555
C7 C5 1_555 1_555
H4 C7 1_555 1_555
C8 C7 1_555 1_555
H5 C8 1_555 1_555
C9 C8 1_555 1_555
C10 C9 1_555 1_555
H6 C10 1_555 1_555
C11 C12 1_555 1_555
C12 C13 1_555 1_555
C13 H7 1_555 1_555
C14 C13 1_555 1_555
C15 C14 1_555 1_555
C16 C15 1_555 1_555
C17 C16 1_555 1_555
C18 C17 1_555 1_555
H8 C18 1_555 1_555
C19 C18 1_555 1_555
H9 C19 1_555 1_555
C20 C15 1_555 1_555
C21 C17 1_555 1_555
H10 C21 1_555 1_555
H11 C21 1_555 1_555
H12 C21 1_555 1_555
C22 H13 1_555 1_555
H14 C22 1_555 1_555
C23 C22 1_555 1_555
H15 C23 1_555 1_555
C24 C23 1_555 1_555
H16 C24 1_555 1_555
H17 C24 1_555 1_555
H18 C24 1_555 1_555
C25 C23 1_555 1_555
H19 C25 1_555 1_555
H20 C25 1_555 1_555
H21 C25 1_555 1_555
N1 C1 1_555 1_555
N2 C6 1_555 1_555
N3 C10 1_555 1_555
N4 C11 1_555 1_555
H22 N4 1_555 1_555
N5 C12 1_555 1_555
N6 C20 1_555 1_555
O1 N1 1_555 1_555
O2 N1 1_555 1_555
O3 C11 1_555 1_555
O4 C14 1_555 1_555
O5 N6 1_555 1_555
O6 N6 1_555 1_555
C5 C6 1_555 1_555
C9 N2 1_555 1_555
C16 N5 1_555 1_555
C19 C20 1_555 1_555
C22 O4 1_555 1_555
N3 N4 1_555 1_555

#END
