
#######################################################################
#
#                 Cambridge Crystallographic Data Centre
#                                CCDC 
#
#######################################################################
#
# If this CIF has been generated from an entry in the Cambridge 
# Structural Database, then it will include bibliographic, chemical, 
# crystal, experimental, refinement or atomic coordinate data resulting 
# from the CCDC's data processing and validation procedures.
#
#######################################################################

data_SEMREI
_chemical_formula_moiety         'C21 H39 N3 O6'
_chemical_name_systematic        
't-Butoxycarbonyl-(\g-aminobutyryl)-valyl-leucine methyl ester'
_symmetry_cell_setting           orthorhombic
_symmetry_space_group_name_H-M   'P 21 21 21'
_symmetry_Int_Tables_number      19
_space_group_name_Hall           'P 2bc 2ac'
loop_
_symmetry_equiv_pos_site_id
_symmetry_equiv_pos_as_xyz
1 x,y,z
2 -x,1/2-y,1/2+z
3 1/2-x,1/2+y,-z
4 1/2+x,-y,1/2-z
_cell_length_a                   14.337(17)
_cell_length_b                   4.957(7)
_cell_length_c                   36.51(4)
_cell_angle_alpha                90
_cell_angle_beta                 90
_cell_angle_gamma                90
_cell_volume                     2594.71
_exptl_crystal_colour            white
_exptl_crystal_description       needle
_cell_formula_units_Z            4
_exptl_crystal_recrystallization_method methanol/water
loop_
_atom_site_label
_atom_site_type_symbol
_atom_site_fract_x
_atom_site_fract_y
_atom_site_fract_z
C1 C 0.6054(4) 0.5194(11) 0.86727(15)
H1 H 0.6084 0.6763 0.8510
C2 C 0.7085(4) 0.3973(11) 0.87267(16)
H2 H 0.7070 0.2666 0.8924
H3 H 0.7263 0.3024 0.8505
C3 C 0.7823(6) 0.6070(14) 0.8812(3)
H4 H 0.7552 0.7474 0.8968
C4 C 0.8067(6) 0.7231(18) 0.8458(3)
H5 H 0.7937 0.5950 0.8268
H6 H 0.8719 0.7672 0.8456
H7 H 0.7707 0.8837 0.8418
C5 C 0.8638(7) 0.4983(19) 0.8986(3)
H8 H 0.8662 0.5587 0.9236
H9 H 0.9185 0.5588 0.8859
H10 H 0.8612 0.3049 0.8981
C6 C 0.5438(6) 0.3041(13) 0.85009(17)
O1 O 0.5708(3) 0.1176(8) 0.83280(11)
O2 O 0.4555(4) 0.3716(8) 0.85285(11)
C7 C 0.3991(5) 0.1896(14) 0.83629(17)
H11 H 0.4362 0.0465 0.8262
H12 H 0.3649 0.2765 0.8170
H13 H 0.3563 0.1168 0.8539
N1 N 0.5684(3) 0.5992(8) 0.90161(12)
H14 H 0.5634 0.7695 0.9057
C8 C 0.5403(4) 0.4304(11) 0.92836(15)
O3 O 0.5469(3) 0.1845(7) 0.92370(10)
C9 C 0.4912(4) 0.5486(11) 0.96119(16)
H15 H 0.4963 0.7454 0.9594
N2 N 0.3923(4) 0.4805(8) 0.96005(12)
H16 H 0.3778 0.3125 0.9615
C10 C 0.5396(4) 0.4622(10) 0.99684(17)
H17 H 0.5332 0.2659 0.9987
C11 C 0.4945(4) 0.5773(11) 1.02882(14)
H18 H 0.4284 0.5497 1.0272
H19 H 0.5075 0.7671 1.0299
H20 H 0.5179 0.4911 1.0505
C12 C 0.6403(4) 0.5225(13) 0.99675(17)
H21 H 0.6664 0.4775 1.0202
H22 H 0.6495 0.7111 0.9920
H23 H 0.6704 0.4182 0.9780
C13 C 0.3233(5) 0.6546(12) 0.95701(16)
O4 O 0.3398(3) 0.9066(8) 0.95859(10)
C14 C 0.2349(4) 0.5461(12) 0.95028(16)
H24 H 0.1887 0.6388 0.9651
H25 H 0.2342 0.3566 0.9569
C15 C 0.2089(6) 0.5799(17) 0.9063(2)
H26 H 0.2156 0.7685 0.8997
H27 H 0.2541 0.4787 0.8921
C16 C 0.1268(6) 0.5019(14) 0.8971(2)
H28 H 0.0801 0.6132 0.9089
H29 H 0.1171 0.3161 0.9045
N3 N 0.1188(4) 0.5276(10) 0.85515(14)
H30 H 0.1154 0.6873 0.8460
C17 C 0.1166(5) 0.3259(15) 0.8327(2)
O5 O 0.1270(4) 0.0954(10) 0.84126(12)
O6 O 0.0956(4) 0.4116(9) 0.80029(15)
C18 C 0.0752(7) 0.2113(16) 0.7689(2)
C19 C 0.1614(7) 0.0648(19) 0.7629(2)
H31 H 0.2115 0.1904 0.7593
H32 H 0.1552 -0.0477 0.7417
H33 H 0.1746 -0.0455 0.7839
C20 C -0.0072(6) 0.0521(17) 0.7785(2)
H34 H -0.0351 -0.0185 0.7566
H35 H -0.0514 0.1647 0.7910
H36 H 0.0108 -0.0943 0.7942
C21 C 0.0387(10) 0.3908(19) 0.7404(3)
H37 H 0.0882 0.5026 0.7313
H38 H -0.0095 0.5024 0.7506
H39 H 0.0135 0.2849 0.7207
loop_
_geom_bond_atom_site_label_1
_geom_bond_atom_site_label_2
_geom_bond_site_symmetry_1
_geom_bond_site_symmetry_2
C1 H1 1_555 1_555
C2 C1 1_555 1_555
H2 C2 1_555 1_555
H3 C2 1_555 1_555
C3 C2 1_555 1_555
H4 C3 1_555 1_555
C4 C3 1_555 1_555
H5 C4 1_555 1_555
H6 C4 1_555 1_555
H7 C4 1_555 1_555
C5 C3 1_555 1_555
H8 C5 1_555 1_555
H9 C5 1_555 1_555
H10 C5 1_555 1_555
C6 C1 1_555 1_555
O1 C6 1_555 1_555
O2 C6 1_555 1_555
C7 O2 1_555 1_555
H11 C7 1_555 1_555
H12 C7 1_555 1_555
H13 C7 1_555 1_555
N1 C1 1_555 1_555
H14 N1 1_555 1_555
C8 N1 1_555 1_555
O3 C8 1_555 1_555
C9 C8 1_555 1_555
H15 C9 1_555 1_555
N2 C9 1_555 1_555
H16 N2 1_555 1_555
C10 C9 1_555 1_555
H17 C10 1_555 1_555
C11 C10 1_555 1_555
H18 C11 1_555 1_555
H19 C11 1_555 1_555
H20 C11 1_555 1_555
C12 C10 1_555 1_555
H21 C12 1_555 1_555
H22 C12 1_555 1_555
H23 C12 1_555 1_555
C13 N2 1_555 1_555
O4 C13 1_555 1_555
C14 C13 1_555 1_555
H24 C14 1_555 1_555
H25 C14 1_555 1_555
C15 C14 1_555 1_555
H26 C15 1_555 1_555
H27 C15 1_555 1_555
C16 C15 1_555 1_555
H28 C16 1_555 1_555
H29 C16 1_555 1_555
N3 C16 1_555 1_555
H30 N3 1_555 1_555
C17 N3 1_555 1_555
O5 C17 1_555 1_555
O6 C17 1_555 1_555
C18 O6 1_555 1_555
C19 C18 1_555 1_555
H31 C19 1_555 1_555
H32 C19 1_555 1_555
H33 C19 1_555 1_555
C20 C18 1_555 1_555
H34 C20 1_555 1_555
H35 C20 1_555 1_555
H36 C20 1_555 1_555
C21 C18 1_555 1_555
H37 C21 1_555 1_555
H38 C21 1_555 1_555
H39 C21 1_555 1_555

#END
