
#######################################################################
#
#                 Cambridge Crystallographic Data Centre
#                                CCDC 
#
#######################################################################
#
# If this CIF has been generated from an entry in the Cambridge 
# Structural Database, then it will include bibliographic, chemical, 
# crystal, experimental, refinement or atomic coordinate data resulting 
# from the CCDC's data processing and validation procedures.
#
#######################################################################

data_SEMRAE
_chemical_formula_moiety         'C25 H39 N3 O6'
_chemical_name_systematic        
't-Butoxycarbonyl-(\g-aminobutyryl)-leucyl-phenylalanine methyl ester'
_symmetry_cell_setting           monoclinic
_symmetry_space_group_name_H-M   'P 21'
_symmetry_Int_Tables_number      4
_space_group_name_Hall           'P 2yb'
loop_
_symmetry_equiv_pos_site_id
_symmetry_equiv_pos_as_xyz
1 x,y,z
2 -x,1/2+y,-z
_cell_length_a                   5.028(7)
_cell_length_b                   19.21(2)
_cell_length_c                   14.391(16)
_cell_angle_alpha                90
_cell_angle_beta                 93.350(10)
_cell_angle_gamma                90
_cell_volume                     1387.62
_exptl_crystal_colour            white
_exptl_crystal_description       needle
_cell_formula_units_Z            2
_exptl_crystal_recrystallization_method methanol/water
loop_
_atom_site_label
_atom_site_type_symbol
_atom_site_fract_x
_atom_site_fract_y
_atom_site_fract_z
C1 C 0.6419(12) 0.5493(4) 0.4439(5)
C2 C 0.8141(11) 0.5963(3) 0.5017(4)
H1 H 0.8961 0.5707 0.5531
H2 H 0.7088 0.6335 0.5249
H3 H 0.9497 0.6153 0.4648
C3 C 0.4647(12) 0.5082(4) 0.5052(5)
H4 H 0.3424 0.5391 0.5331
H5 H 0.5725 0.4852 0.5532
H6 H 0.3670 0.4741 0.4683
C4 C 0.7980(11) 0.5008(3) 0.3816(4)
H7 H 0.6770 0.4792 0.3362
H8 H 0.8865 0.4655 0.4192
H9 H 0.9277 0.5274 0.3504
C5 C 0.5229(11) 0.6288(3) 0.3196(4)
O1 O 0.7545(7) 0.6426(2) 0.2996(2)
O2 O 0.4429(7) 0.5876(2) 0.3843(3)
N1 N 0.3107(9) 0.6653(2) 0.2826(3)
H10 H 0.1574 0.6595 0.3050
C6 C 0.3359(10) 0.7129(4) 0.2075(4)
H11 H 0.5222 0.7251 0.2040
H12 H 0.2390 0.7551 0.2203
C7 C 0.2321(10) 0.6840(3) 0.1136(4)
H13 H 0.3152 0.6392 0.1043
H14 H 0.0419 0.6763 0.1156
C8 C 0.2811(10) 0.7301(3) 0.0303(4)
H15 H 0.4714 0.7348 0.0242
H16 H 0.2092 0.7761 0.0406
C9 C 0.1489(10) 0.6993(3) -0.0618(4)
O3 O -0.1013(6) 0.6954(2) -0.0689(2)
N2 N 0.3089(7) 0.6776(2) -0.1254(3)
H17 H 0.4776 0.6831 -0.1144
C10 C 0.2170(9) 0.6447(3) -0.2134(4)
H18 H 0.0222 0.6478 -0.2197
C11 C 0.3306(9) 0.6811(3) -0.2970(4)
H19 H 0.5204 0.6872 -0.2833
H20 H 0.3101 0.6497 -0.3497
C12 C 0.217(2) 0.7501(6) -0.3269(8)
H21 H 0.0617 0.7290 -0.3601
C13 C 0.082(2) 0.7887(6) -0.2833(8)
H22 H -0.0244 0.8173 -0.3256
H23 H 0.1960 0.8178 -0.2439
H24 H -0.0313 0.7619 -0.2457
C14 C 0.3318(18) 0.7772(5) -0.4176(6)
H25 H 0.4612 0.8129 -0.4028
H26 H 0.1902 0.7961 -0.4576
H27 H 0.4150 0.7395 -0.4487
C15 C 0.2938(11) 0.5698(3) -0.2111(3)
O4 O 0.5326(6) 0.5536(2) -0.2100(2)
N3 N 0.1083(7) 0.5228(3) -0.2088(3)
H28 H -0.0545 0.5365 -0.2091
C16 C 0.1592(9) 0.4495(3) -0.2057(4)
H29 H 0.3440 0.4436 -0.1815
C17 C -0.0128(10) 0.4134(3) -0.1392(4)
H30 H 0.0127 0.3636 -0.1453
H31 H -0.1976 0.4233 -0.1575
C18 C 0.1340(13) 0.4127(5) -0.3001(6)
O5 O 0.2763(10) 0.3559(3) -0.3015(4)
O6 O -0.0065(9) 0.4362(3) -0.3630(3)
C19 C 0.2468(16) 0.3176(4) -0.3891(6)
H32 H 0.3655 0.3366 -0.4325
H33 H 0.0665 0.3215 -0.4144
H34 H 0.2892 0.2694 -0.3782
C20 C 0.0366(13) 0.4327(3) -0.0378(5)
C21 C 0.2342(13) 0.4032(4) 0.0204(6)
H35 H 0.3320 0.3671 -0.0039
C22 C 0.3021(16) 0.4235(5) 0.1154(7)
H36 H 0.4418 0.4033 0.1511
C23 C 0.1465(19) 0.4740(6) 0.1481(6)
H37 H 0.1789 0.4871 0.2099
C24 C -0.0429(18) 0.5058(4) 0.1013(6)
H38 H -0.1416 0.5403 0.1288
C25 C -0.0986(12) 0.4867(4) 0.0052(6)
H39 H -0.2294 0.5111 -0.0296
loop_
_geom_bond_atom_site_label_1
_geom_bond_atom_site_label_2
_geom_bond_site_symmetry_1
_geom_bond_site_symmetry_2
C1 C2 1_555 1_555
C2 H1 1_555 1_555
H2 C2 1_555 1_555
H3 C2 1_555 1_555
C3 C1 1_555 1_555
H4 C3 1_555 1_555
H5 C3 1_555 1_555
H6 C3 1_555 1_555
C4 C1 1_555 1_555
H7 C4 1_555 1_555
H8 C4 1_555 1_555
H9 C4 1_555 1_555
C5 O1 1_555 1_555
O2 C1 1_555 1_555
N1 C5 1_555 1_555
H10 N1 1_555 1_555
C6 N1 1_555 1_555
H11 C6 1_555 1_555
H12 C6 1_555 1_555
C7 C6 1_555 1_555
H13 C7 1_555 1_555
H14 C7 1_555 1_555
C8 C7 1_555 1_555
H15 C8 1_555 1_555
H16 C8 1_555 1_555
C9 C8 1_555 1_555
O3 C9 1_555 1_555
N2 C9 1_555 1_555
H17 N2 1_555 1_555
C10 N2 1_555 1_555
H18 C10 1_555 1_555
C11 C10 1_555 1_555
H19 C11 1_555 1_555
H20 C11 1_555 1_555
C12 C11 1_555 1_555
H21 C12 1_555 1_555
C13 C12 1_555 1_555
H22 C13 1_555 1_555
H23 C13 1_555 1_555
H24 C13 1_555 1_555
C14 C12 1_555 1_555
H25 C14 1_555 1_555
H26 C14 1_555 1_555
H27 C14 1_555 1_555
C15 C10 1_555 1_555
O4 C15 1_555 1_555
N3 C15 1_555 1_555
H28 N3 1_555 1_555
C16 N3 1_555 1_555
H29 C16 1_555 1_555
C17 C16 1_555 1_555
H30 C17 1_555 1_555
H31 C17 1_555 1_555
C18 C16 1_555 1_555
O5 C18 1_555 1_555
O6 C18 1_555 1_555
C19 O5 1_555 1_555
H32 C19 1_555 1_555
H33 C19 1_555 1_555
H34 C19 1_555 1_555
C20 C17 1_555 1_555
C21 C20 1_555 1_555
H35 C21 1_555 1_555
C22 C21 1_555 1_555
H36 C22 1_555 1_555
C23 C22 1_555 1_555
H37 C23 1_555 1_555
C24 C23 1_555 1_555
H38 C24 1_555 1_555
C25 C20 1_555 1_555
H39 C25 1_555 1_555
C5 O2 1_555 1_555
C24 C25 1_555 1_555

#END
