
#######################################################################
#
#                 Cambridge Crystallographic Data Centre
#                                CCDC 
#
#######################################################################
#
# If this CIF has been generated from an entry in the Cambridge 
# Structural Database, then it will include bibliographic, chemical, 
# crystal, experimental, refinement or atomic coordinate data resulting 
# from the CCDC's data processing and validation procedures.
#
#######################################################################

data_SEMYAN
_chemical_formula_moiety         '1.5(C12 H24 O6),C7 H9 N2 O1 1+,F6 P1 1-'
_chemical_name_systematic        
'4-carbamoylanilinium hexafluorophosphate sesquikis(18-crown-6)'
_symmetry_cell_setting           triclinic
_symmetry_space_group_name_H-M   'P -1'
_symmetry_Int_Tables_number      2
_space_group_name_Hall           '-P 1'
loop_
_symmetry_equiv_pos_site_id
_symmetry_equiv_pos_as_xyz
1 x,y,z
2 -x,-y,-z
_cell_length_a                   10.8694(6)
_cell_length_b                   11.1391(6)
_cell_length_c                   16.0890(9)
_cell_angle_alpha                84.6650(10)
_cell_angle_beta                 73.5450(10)
_cell_angle_gamma                62.1010(10)
_cell_volume                     1649.26
_exptl_crystal_colour            colorless
_exptl_crystal_description       block
_cell_formula_units_Z            2
loop_
_atom_site_label
_atom_site_type_symbol
_atom_site_fract_x
_atom_site_fract_y
_atom_site_fract_z
C1 C 0.2302(4) 0.2172(4) 0.1943(2)
C2 C 0.2357(4) 0.1034(4) 0.2374(2)
H1 H 0.1695 0.0730 0.2369
C3 C 0.3388(4) 0.0342(4) 0.2813(2)
H2 H 0.3419 -0.0424 0.3112
C4 C 0.4391(4) 0.0796(4) 0.2809(2)
C5 C 0.4290(4) 0.1964(4) 0.2388(2)
H3 H 0.4950 0.2273 0.2389
C6 C 0.3239(4) 0.2680(4) 0.1966(2)
H4 H 0.3157 0.3484 0.1704
C7 C 0.5615(4) -0.0024(4) 0.3198(2)
N1 N 0.1276(3) 0.2839(3) 0.14125(19)
H5 H 0.1734 0.2572 0.0858
H6 H 0.0910 0.3737 0.1472
H7 H 0.0563 0.2610 0.1587
N2 N 0.5290(4) -0.0528(4) 0.3962(2)
H8 H 0.5963 -0.1039 0.4203
H9 H 0.4407 -0.0344 0.4216
O1 O 0.6850(3) -0.0247(3) 0.28019(19)
C8 C -0.1981(17) 0.5103(19) 0.2838(8)
H10 H -0.2777 0.5979 0.3078
H11 H -0.1382 0.4724 0.3236
C9 C -0.2574(10) 0.4086(14) 0.2669(8)
H12 H -0.3146 0.3947 0.3216
H13 H -0.3201 0.4506 0.2290
C10 C -0.1898(16) 0.208(2) 0.2030(12)
H14 H -0.2389 0.2568 0.1594
H15 H -0.2586 0.1962 0.2521
C11 C -0.0639(17) 0.0732(14) 0.1662(9)
H16 H -0.0165 0.0271 0.2109
H17 H -0.0995 0.0172 0.1485
C12 C 0.1651(19) -0.0286(9) 0.0557(10)
H18 H 0.1392 -0.0947 0.0411
H19 H 0.2219 -0.0673 0.0971
C13 C 0.2527(17) 0.0085(11) -0.0267(9)
H20 H 0.3361 -0.0735 -0.0560
H21 H 0.1931 0.0525 -0.0661
C14 C 0.3719(13) 0.1000(14) -0.0695(7)
H22 H 0.3210 0.1219 -0.1138
H23 H 0.4573 0.0127 -0.0854
C15 C 0.4121(9) 0.2023(12) -0.0619(7)
H24 H 0.4636 0.2146 -0.1193
H25 H 0.4800 0.1680 -0.0268
C16 C 0.338(2) 0.415(3) -0.0258(12)
H26 H 0.3833 0.4239 -0.0857
H27 H 0.4092 0.3806 0.0070
C17 C 0.197(2) 0.5591(14) 0.0179(9)
H28 H 0.2315 0.6227 0.0250
H29 H 0.1379 0.5970 -0.0223
C18 C 0.005(2) 0.6518(11) 0.1277(18)
H30 H -0.0556 0.6800 0.0886
H31 H 0.0387 0.7184 0.1292
C19 C -0.0791(13) 0.6291(12) 0.2252(11)
H32 H -0.0144 0.5966 0.2622
H33 H -0.1613 0.7146 0.2506
O2 O -0.1351(5) 0.2705(8) 0.2259(4)
O3 O 0.0435(8) 0.0886(5) 0.0902(5)
O4 O 0.2983(6) 0.0960(8) -0.0034(3)
O5 O 0.2832(8) 0.3527(11) -0.0202(4)
O6 O 0.0986(10) 0.5472(6) 0.1088(7)
O7 O -0.1329(7) 0.5207(8) 0.2182(5)
C20 C 0.1877(7) -0.0574(8) 0.5605(4)
H34 H 0.0960 -0.0478 0.5567
H35 H 0.1806 -0.0462 0.6210
C21 C 0.1125(6) 0.1767(8) 0.5421(5)
H36 H 0.1050 0.1887 0.6026
H37 H 0.0195 0.1906 0.5381
C22 C 0.1491(7) 0.2739(8) 0.4926(5)
H38 H 0.0685 0.3644 0.5077
H39 H 0.1696 0.2546 0.4313
C23 C 0.3218(9) 0.3598(5) 0.4638(4)
H40 H 0.2457 0.4524 0.4785
H41 H 0.3438 0.3425 0.4020
C24 C 0.4500(9) 0.3440(6) 0.4846(4)
H42 H 0.4713 0.4177 0.4610
H43 H 0.4321 0.3488 0.5471
C25 C 0.3039(9) -0.1925(8) 0.5257(4)
H44 H 0.2735 -0.2610 0.5485
H45 H 0.3247 -0.1967 0.4630
O8 O 0.2186(4) 0.0445(4) 0.5111(2)
O9 O 0.2732(4) 0.2678(4) 0.5106(2)
O10 O 0.5695(5) 0.2188(4) 0.4503(2)
C20A C 0.8123(7) 0.0574(8) 0.4395(4)
H34A H 0.9040 0.0478 0.4433
H35A H 0.8194 0.0462 0.3790
C21A C 0.8875(6) -0.1767(8) 0.4579(5)
H36A H 0.8950 -0.1887 0.3974
H37A H 0.9805 -0.1906 0.4619
C22A C 0.8509(7) -0.2739(8) 0.5074(5)
H38A H 0.9315 -0.3644 0.4923
H39A H 0.8304 -0.2546 0.5687
C23A C 0.6782(9) -0.3598(5) 0.5362(4)
H40A H 0.7543 -0.4524 0.5215
H41A H 0.6562 -0.3425 0.5980
C24A C 0.5500(9) -0.3440(6) 0.5154(4)
H42A H 0.5287 -0.4177 0.5390
H43A H 0.5679 -0.3488 0.4529
C25A C 0.6961(9) 0.1925(8) 0.4743(4)
H44A H 0.7265 0.2610 0.4515
H45A H 0.6753 0.1967 0.5370
O8A O 0.7814(4) -0.0445(4) 0.4889(2)
O9A O 0.7268(4) -0.2678(4) 0.4894(2)
O10A O 0.4305(5) -0.2188(4) 0.5497(2)
F1 F 0.1994(5) 0.8095(5) 0.3084(5)
F2 F 0.1864(5) 0.6123(6) 0.2940(4)
F3 F 0.4148(6) 0.5134(5) 0.2306(5)
F4 F 0.4297(5) 0.6997(5) 0.2481(4)
F5 F 0.3233(12) 0.6242(8) 0.3597(4)
F6 F 0.2943(9) 0.6961(9) 0.1768(4)
P1 P 0.30450(14) 0.65975(13) 0.27038(9)
loop_
_geom_bond_atom_site_label_1
_geom_bond_atom_site_label_2
_geom_bond_site_symmetry_1
_geom_bond_site_symmetry_2
C1 C2 1_555 1_555
C2 H1 1_555 1_555
C3 C2 1_555 1_555
H2 C3 1_555 1_555
C4 C3 1_555 1_555
C5 C4 1_555 1_555
H3 C5 1_555 1_555
C6 C1 1_555 1_555
H4 C6 1_555 1_555
C7 C4 1_555 1_555
N1 C1 1_555 1_555
H5 N1 1_555 1_555
H6 N1 1_555 1_555
H7 N1 1_555 1_555
N2 C7 1_555 1_555
H8 N2 1_555 1_555
H9 N2 1_555 1_555
O1 C7 1_555 1_555
C8 H10 1_555 1_555
H11 C8 1_555 1_555
C9 C8 1_555 1_555
H12 C9 1_555 1_555
H13 C9 1_555 1_555
C10 H14 1_555 1_555
H15 C10 1_555 1_555
C11 C10 1_555 1_555
H16 C11 1_555 1_555
H17 C11 1_555 1_555
C12 H18 1_555 1_555
H19 C12 1_555 1_555
C13 C12 1_555 1_555
H20 C13 1_555 1_555
H21 C13 1_555 1_555
C14 H22 1_555 1_555
H23 C14 1_555 1_555
C15 C14 1_555 1_555
H24 C15 1_555 1_555
H25 C15 1_555 1_555
C16 H26 1_555 1_555
H27 C16 1_555 1_555
C17 C16 1_555 1_555
H28 C17 1_555 1_555
H29 C17 1_555 1_555
C18 H30 1_555 1_555
H31 C18 1_555 1_555
C19 C18 1_555 1_555
H32 C19 1_555 1_555
H33 C19 1_555 1_555
O2 C9 1_555 1_555
O3 C11 1_555 1_555
O4 C13 1_555 1_555
O5 C15 1_555 1_555
O6 C17 1_555 1_555
O7 C8 1_555 1_555
C20 H34 1_555 1_555
H35 C20 1_555 1_555
C21 H36 1_555 1_555
H37 C21 1_555 1_555
C22 C21 1_555 1_555
H38 C22 1_555 1_555
H39 C22 1_555 1_555
C23 H40 1_555 1_555
H41 C23 1_555 1_555
C24 C23 1_555 1_555
H42 C24 1_555 1_555
H43 C24 1_555 1_555
C25 C20 1_555 1_555
H44 C25 1_555 1_555
H45 C25 1_555 1_555
O8 C20 1_555 1_555
O9 C22 1_555 1_555
O10 C24 1_555 1_555
F1 P1 1_555 1_555
F2 P1 1_555 1_555
F3 P1 1_555 1_555
F4 P1 1_555 1_555
F5 P1 1_555 1_555
F6 P1 1_555 1_555
C20A H34A 1_555 1_555
H35A C20A 1_555 1_555
C21A H36A 1_555 1_555
H37A C21A 1_555 1_555
C22A C21A 1_555 1_555
H38A C22A 1_555 1_555
H39A C22A 1_555 1_555
C23A H40A 1_555 1_555
H41A C23A 1_555 1_555
C24A C23A 1_555 1_555
H42A C24A 1_555 1_555
H43A C24A 1_555 1_555
C25A O10 1_555 1_555
H44A C25A 1_555 1_555
H45A C25A 1_555 1_555
O8A C20A 1_555 1_555
O9A C22A 1_555 1_555
O10A C25 1_555 1_555
C5 C6 1_555 1_555
C10 O2 1_555 1_555
C12 O3 1_555 1_555
C14 O4 1_555 1_555
C16 O5 1_555 1_555
C18 O6 1_555 1_555
C19 O7 1_555 1_555
C21 O8 1_555 1_555
C23 O9 1_555 1_555
C20A C25A 1_555 1_555
C21A O8A 1_555 1_555
C23A O9A 1_555 1_555
C24A O10A 1_555 1_555

#END
