
#######################################################################
#
#                 Cambridge Crystallographic Data Centre
#                                CCDC 
#
#######################################################################
#
# If this CIF has been generated from an entry in the Cambridge 
# Structural Database, then it will include bibliographic, chemical, 
# crystal, experimental, refinement or atomic coordinate data resulting 
# from the CCDC's data processing and validation procedures.
#
#######################################################################

data_SENCIY
_chemical_formula_moiety         'C8 H12 N2 S4'
_chemical_name_systematic        1,2-bis(2-Thiazolin-2-ylsulfanyl)ethane
_symmetry_cell_setting           monoclinic
_symmetry_space_group_name_H-M   'P 21/c'
_symmetry_Int_Tables_number      14
_space_group_name_Hall           '-P 2ybc'
loop_
_symmetry_equiv_pos_site_id
_symmetry_equiv_pos_as_xyz
1 x,y,z
2 -x,1/2+y,1/2-z
3 -x,-y,-z
4 x,1/2-y,1/2+z
_cell_length_a                   5.8169(13)
_cell_length_b                   10.001(2)
_cell_length_c                   10.216(2)
_cell_angle_alpha                90
_cell_angle_beta                 95.187(4)
_cell_angle_gamma                90
_cell_volume                     591.88
_exptl_crystal_colour            colorless
_exptl_crystal_description       block
_chemical_melting_point          '398 K'
_cell_formula_units_Z            2
_exptl_crystal_recrystallization_method chloroform/ethanol
loop_
_atom_site_label
_atom_site_type_symbol
_atom_site_fract_x
_atom_site_fract_y
_atom_site_fract_z
S1 S 0.52475(11) -0.05810(7) 0.29258(6)
S2 S 0.73838(12) 0.09905(7) 0.08706(6)
N1 N 0.8635(3) 0.1234(2) 0.33908(17)
C1 C 0.9947(5) 0.1979(3) 0.1288(2)
H1 H 1.1311 0.1503 0.1064
H2 H 0.9854 0.2822 0.0817
C2 C 1.0046(4) 0.2215(3) 0.2758(2)
H3 H 1.1634 0.2152 0.3134
H4 H 0.9494 0.3109 0.2923
C3 C 0.7280(4) 0.0627(2) 0.2561(2)
C4 C 0.5637(4) -0.0574(2) 0.4712(2)
H5 H 0.5081 -0.1412 0.5042
H6 H 0.7270 -0.0503 0.4996
S1B S 0.47525(11) 0.05810(7) 0.70742(6)
S2B S 0.26162(12) -0.09905(7) 0.91294(6)
N1B N 0.1365(3) -0.1234(2) 0.66092(17)
C1B C 0.0053(5) -0.1979(3) 0.8712(2)
H1B H -0.1311 -0.1503 0.8936
H2B H 0.0146 -0.2822 0.9183
C2B C -0.0046(4) -0.2215(3) 0.7242(2)
H3B H -0.1634 -0.2152 0.6866
H4B H 0.0506 -0.3109 0.7077
C3B C 0.2720(4) -0.0627(2) 0.7439(2)
C4B C 0.4363(4) 0.0574(2) 0.5288(2)
H5B H 0.4919 0.1412 0.4958
H6B H 0.2730 0.0503 0.5004
loop_
_geom_bond_atom_site_label_1
_geom_bond_atom_site_label_2
_geom_bond_site_symmetry_1
_geom_bond_site_symmetry_2
S1 C3 1_555 1_555
S2 C1 1_555 1_555
N1 C2 1_555 1_555
C1 H1 1_555 1_555
H2 C1 1_555 1_555
C2 C1 1_555 1_555
H3 C2 1_555 1_555
H4 C2 1_555 1_555
C3 S2 1_555 1_555
C4 S1 1_555 1_555
H5 C4 1_555 1_555
H6 C4 1_555 1_555
S1B C3B 1_555 1_555
S2B C1B 1_555 1_555
N1B C2B 1_555 1_555
C1B H1B 1_555 1_555
H2B C1B 1_555 1_555
C2B C1B 1_555 1_555
H3B C2B 1_555 1_555
H4B C2B 1_555 1_555
C3B S2B 1_555 1_555
C4B C4 1_555 1_555
H5B C4B 1_555 1_555
H6B C4B 1_555 1_555
N1 C3 1_555 1_555
S1B C4B 1_555 1_555
N1B C3B 1_555 1_555

#END
