
#######################################################################
#
#                 Cambridge Crystallographic Data Centre
#                                CCDC 
#
#######################################################################
#
# If this CIF has been generated from an entry in the Cambridge 
# Structural Database, then it will include bibliographic, chemical, 
# crystal, experimental, refinement or atomic coordinate data resulting 
# from the CCDC's data processing and validation procedures.
#
#######################################################################

data_SENCIA
_chemical_formula_moiety         'C16 H18 F2 I1 N1 O3'
_chemical_name_systematic        
't-butyl ((2R,3S,Z)-2-(2,5-difluorophenyl)-5-(iodomethylene)tetrahydrofuran-3-yl)carbamate'
_symmetry_cell_setting           orthorhombic
_symmetry_space_group_name_H-M   'P 21 21 21'
_symmetry_Int_Tables_number      19
_space_group_name_Hall           'P 2ac 2ab'
loop_
_symmetry_equiv_pos_site_id
_symmetry_equiv_pos_as_xyz
1 x,y,z
2 1/2-x,-y,1/2+z
3 -x,1/2+y,1/2-z
4 1/2+x,1/2-y,-z
_cell_length_a                   5.1315(6)
_cell_length_b                   14.0490(14)
_cell_length_c                   23.6852(19)
_cell_angle_alpha                90
_cell_angle_beta                 90
_cell_angle_gamma                90
_cell_volume                     1707.52
_cell_formula_units_Z            4
loop_
_atom_site_label
_atom_site_type_symbol
_atom_site_fract_x
_atom_site_fract_y
_atom_site_fract_z
I1 I 1.38227(12) 0.71617(4) 0.773478(19)
O1 O 0.4257(10) 0.5551(4) 1.0242(2)
N1 N 0.8656(13) 0.5784(4) 1.0167(2)
O2 O 0.7114(10) 0.5164(4) 1.09447(19)
C1 C 1.1362(16) 0.6769(5) 0.8874(3)
C2 C 1.2653(16) 0.7398(6) 0.8563(3)
H1 H 1.3060 0.7981 0.8726
O3 O 1.0595(10) 0.5898(4) 0.86880(19)
C3 C 0.6500(16) 0.5499(5) 1.0433(3)
C4 C 0.374(2) 0.3955(6) 1.1055(3)
H2 H 0.2689 0.4182 1.0748
H3 H 0.2646 0.3637 1.1325
H4 H 0.5018 0.3517 1.0915
C5 C 0.8648(16) 0.6105(5) 0.9580(2)
H5 H 0.6874 0.6287 0.9470
C6 C 0.5087(16) 0.4786(7) 1.1336(3)
C7 C 1.0494(15) 0.6938(5) 0.9474(3)
H6 H 0.9599 0.7543 0.9511
H7 H 1.1960 0.6924 0.9733
C8 C 0.3275(16) 0.5583(6) 1.1510(3)
H8 H 0.4274 0.6095 1.1669
H9 H 0.2061 0.5352 1.1786
H10 H 0.2340 0.5809 1.1185
C9 C 0.9689(15) 0.5340(5) 0.9166(3)
H11 H 1.1160 0.5003 0.9338
C10 C 0.6688(19) 0.4478(8) 1.1837(3)
H12 H 0.7937 0.4009 1.1720
H13 H 0.5563 0.4210 1.2119
H14 H 0.7583 0.5019 1.1991
F1 F 0.8466(11) 0.3688(3) 0.97844(19)
C11 C 0.6223(18) 0.4774(5) 0.8478(3)
H15 H 0.6567 0.5286 0.8241
C12 C 0.4288(17) 0.4144(6) 0.8353(3)
C13 C 0.7056(17) 0.3856(6) 0.9300(3)
C14 C 0.7685(16) 0.4637(6) 0.8971(3)
F2 F 0.2854(10) 0.4284(4) 0.7875(2)
C15 C 0.3653(18) 0.3369(5) 0.8677(3)
H16 H 0.2327 0.2957 0.8569
C16 C 0.5054(17) 0.3220(6) 0.9172(3)
H17 H 0.4668 0.2712 0.9410
loop_
_geom_bond_atom_site_label_1
_geom_bond_atom_site_label_2
_geom_bond_site_symmetry_1
_geom_bond_site_symmetry_2
I1 C2 1_555 1_555
O1 C3 1_555 1_555
N1 C3 1_555 1_555
O2 C3 1_555 1_555
C1 C2 1_555 1_555
C2 H1 1_555 1_555
O3 C1 1_555 1_555
C4 H2 1_555 1_555
H3 C4 1_555 1_555
H4 C4 1_555 1_555
C5 N1 1_555 1_555
H5 C5 1_555 1_555
C6 O2 1_555 1_555
C7 C1 1_555 1_555
H6 C7 1_555 1_555
H7 C7 1_555 1_555
C8 C6 1_555 1_555
H8 C8 1_555 1_555
H9 C8 1_555 1_555
H10 C8 1_555 1_555
C9 O3 1_555 1_555
H11 C9 1_555 1_555
C10 C6 1_555 1_555
H12 C10 1_555 1_555
H13 C10 1_555 1_555
H14 C10 1_555 1_555
F1 C13 1_555 1_555
C11 H15 1_555 1_555
C12 C11 1_555 1_555
C13 C14 1_555 1_555
C14 C9 1_555 1_555
F2 C12 1_555 1_555
C15 C12 1_555 1_555
H16 C15 1_555 1_555
C16 C13 1_555 1_555
H17 C16 1_555 1_555
C4 C6 1_555 1_555
C5 C7 1_555 1_555
C5 C9 1_555 1_555
C11 C14 1_555 1_555
C15 C16 1_555 1_555

#END
