
#######################################################################
#
#                 Cambridge Crystallographic Data Centre
#                                CCDC 
#
#######################################################################
#
# If this CIF has been generated from an entry in the Cambridge 
# Structural Database, then it will include bibliographic, chemical, 
# crystal, experimental, refinement or atomic coordinate data resulting 
# from the CCDC's data processing and validation procedures.
#
#######################################################################

data_SENFOH
_chemical_formula_moiety         'C22 H20 N2 O4'
_chemical_name_systematic        
'1,4-Phenylenebis(methylene) bis(N-phenylcarbamate)'
_symmetry_cell_setting           monoclinic
_symmetry_space_group_name_H-M   'P 21/c'
_symmetry_Int_Tables_number      14
_space_group_name_Hall           '-P 2ybc'
loop_
_symmetry_equiv_pos_site_id
_symmetry_equiv_pos_as_xyz
1 x,y,z
2 -x,1/2+y,1/2-z
3 -x,-y,-z
4 x,1/2-y,1/2+z
_cell_length_a                   18.973(5)
_cell_length_b                   5.0236(14)
_cell_length_c                   9.915(3)
_cell_angle_alpha                90
_cell_angle_beta                 95.944(5)
_cell_angle_gamma                90
_cell_volume                     939.945
_exptl_crystal_colour            colorless
_exptl_crystal_description       block
_chemical_melting_point          '457-461 K'
_cell_formula_units_Z            2
_exptl_crystal_recrystallization_method ethanol
loop_
_atom_site_label
_atom_site_type_symbol
_atom_site_fract_x
_atom_site_fract_y
_atom_site_fract_z
O1 O 0.22067(7) 0.1055(2) 0.34455(15)
O2 O 0.15509(6) 0.4343(2) 0.24220(13)
N1 N 0.24491(8) 0.5403(3) 0.39117(16)
H1 H 0.2313(10) 0.697(4) 0.370(2)
C1 C 0.31840(10) 0.6901(4) 0.5879(2)
H2 H 0.2843 0.8178 0.6010
C2 C 0.37962(12) 0.6793(5) 0.6744(2)
H3 H 0.3867 0.7992 0.7459
C3 C 0.43019(11) 0.4935(5) 0.6560(2)
H4 H 0.4718 0.4869 0.7144
C4 C 0.41927(10) 0.3176(4) 0.5512(3)
H5 H 0.4535 0.1899 0.5389
C5 C 0.35802(10) 0.3264(4) 0.4630(2)
H6 H 0.3512 0.2067 0.3913
C6 C 0.30719(8) 0.5139(3) 0.48222(17)
C7 C 0.20869(9) 0.3396(3) 0.32753(18)
C8 C 0.11519(10) 0.2373(4) 0.1611(2)
H7 H 0.0967 0.1044 0.2191
H8 H 0.1454 0.1488 0.1019
C9 C 0.05577(9) 0.3754(3) 0.07905(17)
C10 C -0.01323(10) 0.2962(4) 0.0853(2)
H9 H -0.0229 0.1580 0.1430
C11 C 0.06825(10) 0.5817(4) -0.00748(19)
H10 H 0.1145 0.6389 -0.0132
O1B O -0.22067(7) 0.8945(2) -0.34455(15)
O2B O -0.15509(6) 0.5657(2) -0.24220(13)
N1B N -0.24491(8) 0.4597(3) -0.39117(16)
H1B H -0.2313(10) 0.303(4) -0.370(2)
C1B C -0.31840(10) 0.3099(4) -0.5879(2)
H2B H -0.2843 0.1822 -0.6010
C2B C -0.37962(12) 0.3207(5) -0.6744(2)
H3B H -0.3867 0.2008 -0.7459
C3B C -0.43019(11) 0.5065(5) -0.6560(2)
H4B H -0.4718 0.5131 -0.7144
C4B C -0.41927(10) 0.6824(4) -0.5512(3)
H5B H -0.4535 0.8101 -0.5389
C5B C -0.35802(10) 0.6736(4) -0.4630(2)
H6B H -0.3512 0.7933 -0.3913
C6B C -0.30719(8) 0.4861(3) -0.48222(17)
C7B C -0.20869(9) 0.6604(3) -0.32753(18)
C8B C -0.11519(10) 0.7627(4) -0.1611(2)
H7B H -0.0967 0.8956 -0.2191
H8B H -0.1454 0.8512 -0.1019
C9B C -0.05577(9) 0.6246(3) -0.07905(17)
C10B C 0.01323(10) 0.7038(4) -0.0853(2)
H9B H 0.0229 0.8420 -0.1430
C11B C -0.06825(10) 0.4183(4) 0.00748(19)
H10B H -0.1145 0.3611 0.0132
loop_
_geom_bond_atom_site_label_1
_geom_bond_atom_site_label_2
_geom_bond_site_symmetry_1
_geom_bond_site_symmetry_2
O1 C7 1_555 1_555
O2 C7 1_555 1_555
N1 H1 1_555 1_555
C1 H2 1_555 1_555
C2 C1 1_555 1_555
H3 C2 1_555 1_555
C3 C2 1_555 1_555
H4 C3 1_555 1_555
C4 C3 1_555 1_555
H5 C4 1_555 1_555
C5 C4 1_555 1_555
H6 C5 1_555 1_555
C6 N1 1_555 1_555
C7 N1 1_555 1_555
C8 O2 1_555 1_555
H7 C8 1_555 1_555
H8 C8 1_555 1_555
C9 C8 1_555 1_555
C10 C9 1_555 1_555
H9 C10 1_555 1_555
C11 C9 1_555 1_555
H10 C11 1_555 1_555
O1B C7B 1_555 1_555
O2B C7B 1_555 1_555
N1B H1B 1_555 1_555
C1B H2B 1_555 1_555
C2B C1B 1_555 1_555
H3B C2B 1_555 1_555
C3B C2B 1_555 1_555
H4B C3B 1_555 1_555
C4B C3B 1_555 1_555
H5B C4B 1_555 1_555
C5B C4B 1_555 1_555
H6B C5B 1_555 1_555
C6B N1B 1_555 1_555
C7B N1B 1_555 1_555
C8B O2B 1_555 1_555
H7B C8B 1_555 1_555
H8B C8B 1_555 1_555
C9B C8B 1_555 1_555
C10B C11 1_555 1_555
H9B C10B 1_555 1_555
C11B C10 1_555 1_555
H10B C11B 1_555 1_555
C1 C6 1_555 1_555
C5 C6 1_555 1_555
C1B C6B 1_555 1_555
C5B C6B 1_555 1_555
C9B C10B 1_555 1_555
C9B C11B 1_555 1_555

#END
