
#######################################################################
#
#                 Cambridge Crystallographic Data Centre
#                                CCDC 
#
#######################################################################
#
# If this CIF has been generated from an entry in the Cambridge 
# Structural Database, then it will include bibliographic, chemical, 
# crystal, experimental, refinement or atomic coordinate data resulting 
# from the CCDC's data processing and validation procedures.
#
#######################################################################

data_SENFID
_chemical_formula_moiety         'C18 H25 N1 O4 S1'
_chemical_name_systematic        
N-[2-(2,2-dimethyl-4-oxo-2H,4H-1,3-dioxin-6-yl)-1-phenylethyl]-2-methylpropane-2-sulfinamide
_symmetry_cell_setting           orthorhombic
_symmetry_space_group_name_H-M   'P 21 21 21'
_symmetry_Int_Tables_number      19
_space_group_name_Hall           'P 2ac 2ab'
loop_
_symmetry_equiv_pos_site_id
_symmetry_equiv_pos_as_xyz
1 x,y,z
2 1/2-x,-y,1/2+z
3 -x,1/2+y,1/2-z
4 1/2+x,1/2-y,-z
_cell_length_a                   10.551(7)
_cell_length_b                   11.366(8)
_cell_length_c                   16.422(11)
_cell_angle_alpha                90
_cell_angle_beta                 90
_cell_angle_gamma                90
_cell_volume                     1969.37
_exptl_crystal_colour            colorless
_exptl_crystal_description       plate
_cell_formula_units_Z            4
loop_
_atom_site_label
_atom_site_type_symbol
_atom_site_fract_x
_atom_site_fract_y
_atom_site_fract_z
S1 S 0.54631(16) 0.65646(14) 0.91770(8)
O1 O 0.9302(4) 0.1663(3) 0.9604(3)
O2 O 1.0224(3) 0.3348(3) 0.9890(2)
O3 O 0.9123(3) 0.4857(3) 1.0570(2)
O4 O 0.4228(5) 0.7133(4) 0.9336(3)
N1 N 0.5784(3) 0.5531(3) 0.9850(2)
H1 H 0.5577 0.4810 0.9763
C1 C 0.5599(5) 0.6465(5) 1.1239(3)
C2 C 0.4341(6) 0.6220(6) 1.1315(4)
H2 H 0.3945 0.5739 1.0934
C3 C 0.3652(7) 0.6675(8) 1.1950(5)
H3 H 0.2794 0.6499 1.1993
C4 C 0.4189(11) 0.7362(8) 1.2504(5)
H4 H 0.3713 0.7631 1.2942
C5 C 0.5416(12) 0.7675(7) 1.2438(4)
H5 H 0.5778 0.8192 1.2810
C6 C 0.6145(6) 0.7203(6) 1.1792(4)
H6 H 0.6998 0.7397 1.1745
C7 C 0.6431(4) 0.5876(4) 1.0601(3)
H7 H 0.7125 0.6412 1.0461
C8 C 0.7000(4) 0.4753(4) 1.0988(3)
H8 H 0.7307 0.4947 1.1528
H9 H 0.6329 0.4177 1.1050
C9 C 0.8047(5) 0.4209(5) 1.0523(3)
C10 C 0.8029(5) 0.3191(5) 1.0133(3)
H10 H 0.7261 0.2806 1.0053
C11 C 0.9175(5) 0.2672(6) 0.9833(3)
C12 C 1.0080(5) 0.4608(5) 0.9965(4)
C13 C 1.1311(5) 0.5070(6) 1.0306(5)
H11 H 1.1525 0.4641 1.0791
H12 H 1.1220 0.5889 1.0435
H13 H 1.1972 0.4973 0.9910
C14 C 0.9695(6) 0.5123(5) 0.9167(4)
H14 H 1.0340 0.4968 0.8769
H15 H 0.9586 0.5958 0.9225
H16 H 0.8911 0.4776 0.8994
C15 C 0.5175(6) 0.5619(5) 0.8294(3)
C16 C 0.4011(6) 0.4891(7) 0.8430(4)
H17 H 0.4178 0.4312 0.8842
H18 H 0.3782 0.4504 0.7931
H19 H 0.3328 0.5389 0.8603
C17 C 0.4956(8) 0.6481(7) 0.7590(4)
H20 H 0.4261 0.6993 0.7720
H21 H 0.4762 0.6049 0.7103
H22 H 0.5707 0.6941 0.7505
C18 C 0.6339(6) 0.4860(7) 0.8135(4)
H23 H 0.7081 0.5349 0.8124
H24 H 0.6248 0.4466 0.7622
H25 H 0.6422 0.4287 0.8561
loop_
_geom_bond_atom_site_label_1
_geom_bond_atom_site_label_2
_geom_bond_site_symmetry_1
_geom_bond_site_symmetry_2
S1 O4 1_555 1_555
O1 C11 1_555 1_555
O2 C11 1_555 1_555
O3 C9 1_555 1_555
N1 S1 1_555 1_555
H1 N1 1_555 1_555
C1 C2 1_555 1_555
C2 H2 1_555 1_555
C3 C2 1_555 1_555
H3 C3 1_555 1_555
C4 C3 1_555 1_555
H4 C4 1_555 1_555
C5 C4 1_555 1_555
H5 C5 1_555 1_555
C6 C1 1_555 1_555
H6 C6 1_555 1_555
C7 N1 1_555 1_555
H7 C7 1_555 1_555
C8 C7 1_555 1_555
H8 C8 1_555 1_555
H9 C8 1_555 1_555
C9 C8 1_555 1_555
C10 C9 1_555 1_555
H10 C10 1_555 1_555
C11 C10 1_555 1_555
C12 O2 1_555 1_555
C13 C12 1_555 1_555
H11 C13 1_555 1_555
H12 C13 1_555 1_555
H13 C13 1_555 1_555
C14 C12 1_555 1_555
H14 C14 1_555 1_555
H15 C14 1_555 1_555
H16 C14 1_555 1_555
C15 S1 1_555 1_555
C16 C15 1_555 1_555
H17 C16 1_555 1_555
H18 C16 1_555 1_555
H19 C16 1_555 1_555
C17 C15 1_555 1_555
H20 C17 1_555 1_555
H21 C17 1_555 1_555
H22 C17 1_555 1_555
C18 C15 1_555 1_555
H23 C18 1_555 1_555
H24 C18 1_555 1_555
H25 C18 1_555 1_555
O3 C12 1_555 1_555
C1 C7 1_555 1_555
C5 C6 1_555 1_555

#END
