
#######################################################################
#
#                 Cambridge Crystallographic Data Centre
#                                CCDC 
#
#######################################################################
#
# If this CIF has been generated from an entry in the Cambridge 
# Structural Database, then it will include bibliographic, chemical, 
# crystal, experimental, refinement or atomic coordinate data resulting 
# from the CCDC's data processing and validation procedures.
#
#######################################################################

data_SENJIF01
_chemical_name_common            'Amodiaquine dihydrochloride dihydrate'
_chemical_formula_moiety         'C20 H24 Cl1 N3 O1 2+,2(H2 O1),2(Cl1 1-)'
_chemical_name_systematic        
'(5-[(7-chloroquinolinium-4-yl)amino]-2-hydroxybenzyl)diethylammonium dichloride dihydrate'
_chemical_properties_biological  
'Amodiaquine dihydrochloride is a synthetic antimalarial drug used against chloroquine-sensitive and chloroquine-resistant strains of Plasmodium falciparum'
_symmetry_cell_setting           monoclinic
_symmetry_space_group_name_H-M   'P 21/c'
_symmetry_Int_Tables_number      14
_space_group_name_Hall           '-P 2ybc'
loop_
_symmetry_equiv_pos_site_id
_symmetry_equiv_pos_as_xyz
1 x,y,z
2 -x,1/2+y,1/2-z
3 -x,-y,-z
4 x,1/2-y,1/2+z
_cell_length_a                   7.76220(10)
_cell_length_b                   26.8709(4)
_cell_length_c                   10.7085(2)
_cell_angle_alpha                90
_cell_angle_beta                 92.7840(10)
_cell_angle_gamma                90
_cell_volume                     2230.91
_exptl_crystal_colour            colorless
_exptl_crystal_description       prism
_cell_formula_units_Z            4
_exptl_crystal_recrystallization_method dimethylsulfoxide
loop_
_atom_site_label
_atom_site_type_symbol
_atom_site_fract_x
_atom_site_fract_y
_atom_site_fract_z
C1 C -0.2951(2) 0.51757(6) 0.06525(16)
C2 C -0.2063(2) 0.52058(6) -0.04673(16)
H1 H -0.1539 0.4915 -0.0782
C3 C -0.1939(2) 0.56445(7) -0.11087(16)
H2 H -0.1362 0.5658 -0.1870
C4 C -0.2681(2) 0.60736(7) -0.06187(17)
C5 C -0.3573(2) 0.60667(6) 0.04469(17)
H3 H -0.4080 0.6362 0.0753
C6 C -0.3724(2) 0.56123(6) 0.10810(16)
C7 C -0.4831(2) 0.51792(7) 0.27924(16)
H4 H -0.5498 0.5183 0.3513
C8 C -0.4081(2) 0.47445(6) 0.24440(16)
H5 H -0.4226 0.4453 0.2928
C9 C -0.3097(2) 0.47234(6) 0.13779(16)
C10 C -0.2219(2) 0.38571(6) 0.17370(16)
C11 C -0.1590(2) 0.38657(6) 0.29763(16)
H6 H -0.1216 0.4171 0.3343
C12 C -0.1502(2) 0.34316(6) 0.36829(16)
C13 C -0.2084(2) 0.29835(6) 0.31382(17)
C14 C -0.2641(2) 0.29733(6) 0.18823(17)
H7 H -0.2977 0.2667 0.1501
C15 C -0.2709(2) 0.34090(7) 0.11850(17)
H8 H -0.3091 0.3400 0.0329
C16 C -0.0831(2) 0.34431(6) 0.50266(16)
H9 H -0.1354 0.3166 0.5485
H10 H -0.1191 0.3759 0.5414
C17 C 0.1735(2) 0.34491(6) 0.65140(16)
H11 H 0.1177 0.3744 0.6876
H12 H 0.2995 0.3509 0.6553
C18 C 0.1364(3) 0.29984(7) 0.73055(17)
H13 H 0.0146 0.2906 0.7179
H14 H 0.1614 0.3077 0.8189
H15 H 0.2090 0.2720 0.7061
C19 C 0.1800(2) 0.29476(7) 0.45331(16)
H16 H 0.1337 0.2938 0.3655
H17 H 0.1390 0.2646 0.4960
C20 C 0.3754(3) 0.29404(8) 0.45504(19)
H18 H 0.4172 0.3254 0.4210
H19 H 0.4137 0.2662 0.4040
H20 H 0.4217 0.2900 0.5412
N1 N -0.4650(2) 0.56009(6) 0.21445(14)
H21 H -0.514(3) 0.5883(9) 0.237(2)
N2 N -0.2317(2) 0.43058(5) 0.10177(14)
H22 H -0.190(3) 0.4290(8) 0.032(2)
N3 N 0.1117(2) 0.33997(5) 0.51605(14)
H23 H 0.152(3) 0.3658(9) 0.482(2)
O1 O -0.20278(17) 0.25706(4) 0.38692(12)
H24 H -0.2483 0.2331 0.3472
Cl1 Cl -0.24427(7) 0.663720(16) -0.13878(5)
O2 O -0.0091(2) 0.02817(6) 0.17421(15)
H25 H -0.080(4) 0.0063(12) 0.139(3)
H26 H 0.063(4) 0.0345(11) 0.126(3)
O3 O -0.08987(19) 0.09265(5) 0.36517(13)
H27 H -0.073(3) 0.0731(10) 0.307(3)
H28 H -0.157(4) 0.1146(10) 0.337(2)
Cl2 Cl -0.63123(6) 0.667531(14) 0.24913(4)
Cl3 Cl 0.24523(6) 0.444735(15) 0.45660(4)
loop_
_geom_bond_atom_site_label_1
_geom_bond_atom_site_label_2
_geom_bond_site_symmetry_1
_geom_bond_site_symmetry_2
C1 C2 1_555 1_555
C2 H1 1_555 1_555
C3 C2 1_555 1_555
H2 C3 1_555 1_555
C4 C3 1_555 1_555
C5 C4 1_555 1_555
H3 C5 1_555 1_555
C6 C1 1_555 1_555
C7 H4 1_555 1_555
C8 C7 1_555 1_555
H5 C8 1_555 1_555
C9 C1 1_555 1_555
C10 C11 1_555 1_555
C11 H6 1_555 1_555
C12 C11 1_555 1_555
C13 C12 1_555 1_555
C14 C13 1_555 1_555
H7 C14 1_555 1_555
C15 C10 1_555 1_555
H8 C15 1_555 1_555
C16 C12 1_555 1_555
H9 C16 1_555 1_555
H10 C16 1_555 1_555
C17 H11 1_555 1_555
H12 C17 1_555 1_555
C18 C17 1_555 1_555
H13 C18 1_555 1_555
H14 C18 1_555 1_555
H15 C18 1_555 1_555
C19 H16 1_555 1_555
H17 C19 1_555 1_555
C20 C19 1_555 1_555
H18 C20 1_555 1_555
H19 C20 1_555 1_555
H20 C20 1_555 1_555
N1 C6 1_555 1_555
H21 N1 1_555 1_555
N2 C9 1_555 1_555
H22 N2 1_555 1_555
N3 C16 1_555 1_555
H23 N3 1_555 1_555
O1 C13 1_555 1_555
H24 O1 1_555 1_555
Cl1 C4 1_555 1_555
O2 H25 1_555 1_555
H26 O2 1_555 1_555
O3 H27 1_555 1_555
H28 O3 1_555 1_555
C5 C6 1_555 1_555
C7 N1 1_555 1_555
C8 C9 1_555 1_555
C10 N2 1_555 1_555
C14 C15 1_555 1_555
C17 N3 1_555 1_555
C19 N3 1_555 1_555

#END
