
#######################################################################
#
#                 Cambridge Crystallographic Data Centre
#                                CCDC 
#
#######################################################################
#
# If this CIF has been generated from an entry in the Cambridge 
# Structural Database, then it will include bibliographic, chemical, 
# crystal, experimental, refinement or atomic coordinate data resulting 
# from the CCDC's data processing and validation procedures.
#
#######################################################################

data_SENKUS
_chemical_formula_moiety         'C18 H16 N6 O1'
_chemical_name_systematic        
3-(Benzotriazol-1-yl)-1-(p-tolyl)-2-(1H-1,2,4-triazol-2-yl)propan-1-one
_symmetry_cell_setting           monoclinic
_symmetry_space_group_name_H-M   'C 2/c'
_symmetry_Int_Tables_number      15
_space_group_name_Hall           '-C 2yn'
loop_
_symmetry_equiv_pos_site_id
_symmetry_equiv_pos_as_xyz
1 x,y,z
2 1/2+x,1/2+y,z
3 -x,y,1/2-z
4 1/2-x,1/2+y,1/2-z
5 -x,-y,-z
6 1/2-x,1/2-y,-z
7 x,-y,1/2+z
8 1/2+x,1/2-y,1/2+z
_cell_length_a                   30.972(3)
_cell_length_b                   8.1625(8)
_cell_length_c                   14.6599(14)
_cell_angle_alpha                90
_cell_angle_beta                 116.9270(10)
_cell_angle_gamma                90
_cell_volume                     3304.35
_exptl_crystal_colour            colorless
_exptl_crystal_description       Block
_cell_formula_units_Z            8
_exptl_crystal_recrystallization_method ethanol
loop_
_atom_site_label
_atom_site_type_symbol
_atom_site_fract_x
_atom_site_fract_y
_atom_site_fract_z
O1 O 0.08098(5) 0.43974(16) 0.18793(9)
N1 N 0.20479(5) 0.53170(16) 0.45005(10)
N2 N 0.24836(5) 0.46131(18) 0.47956(11)
N3 N 0.27683(5) 0.50472(18) 0.57360(12)
N4 N 0.13110(4) 0.30689(15) 0.42742(9)
N5 N 0.09538(5) 0.39525(18) 0.43336(11)
N6 N 0.13335(6) 0.2376(3) 0.57259(12)
C1 C 0.08980(6) 0.0115(2) 0.24572(14)
H1 H 0.1225 0.0047 0.2916
C2 C 0.06282(7) -0.1298(2) 0.20992(15)
H2 H 0.0780 -0.2309 0.2308
C3 C 0.01397(6) -0.1248(2) 0.14395(14)
C4 C -0.00743(6) 0.0271(2) 0.11411(14)
H3 H -0.0405 0.0337 0.0706
C5 C 0.01909(6) 0.1686(2) 0.14745(13)
H4 H 0.0039 0.2695 0.1256
C6 C 0.06828(6) 0.16283(19) 0.21348(11)
C7 C 0.09531(6) 0.3193(2) 0.24172(12)
C8 C 0.14239(6) 0.33204(19) 0.34255(11)
H5 H 0.1649 0.2464 0.3439
C9 C 0.16575(6) 0.4997(2) 0.34939(13)
H6 H 0.1782 0.5050 0.2995
H7 H 0.1413 0.5842 0.3325
C10 C 0.20468(6) 0.62330(19) 0.52762(12)
C11 C 0.25117(6) 0.6056(2) 0.60607(13)
C12 C 0.26521(9) 0.6824(2) 0.70028(15)
H8 H 0.2964 0.6713 0.7534
C13 C 0.23123(12) 0.7740(3) 0.71050(19)
H9 H 0.2393 0.8260 0.7726
C14 C 0.18415(10) 0.7933(3) 0.6306(2)
H10 H 0.1622 0.8585 0.6411
C15 C 0.16981(7) 0.7188(2) 0.53777(17)
H11 H 0.1387 0.7311 0.4847
C16 C 0.15291(7) 0.2165(3) 0.51059(14)
H12 H 0.1788 0.1468 0.5236
C17 C 0.09854(7) 0.3476(3) 0.52129(14)
H13 H 0.0780 0.3874 0.5467
C18 C -0.01541(8) -0.2794(3) 0.10510(18)
H14 H -0.0375 -0.2671 0.0338
H15 H -0.0334 -0.2996 0.1429
H16 H 0.0059 -0.3700 0.1139
loop_
_geom_bond_atom_site_label_1
_geom_bond_atom_site_label_2
_geom_bond_site_symmetry_1
_geom_bond_site_symmetry_2
O1 C7 1_555 1_555
N1 N2 1_555 1_555
N2 N3 1_555 1_555
N3 C11 1_555 1_555
N4 N5 1_555 1_555
N5 C17 1_555 1_555
N6 C16 1_555 1_555
C1 H1 1_555 1_555
C2 C1 1_555 1_555
H2 C2 1_555 1_555
C3 C2 1_555 1_555
C4 C3 1_555 1_555
H3 C4 1_555 1_555
C5 C4 1_555 1_555
H4 C5 1_555 1_555
C6 C1 1_555 1_555
C7 C6 1_555 1_555
C8 N4 1_555 1_555
H5 C8 1_555 1_555
C9 N1 1_555 1_555
H6 C9 1_555 1_555
H7 C9 1_555 1_555
C10 N1 1_555 1_555
C11 C10 1_555 1_555
C12 C11 1_555 1_555
H8 C12 1_555 1_555
C13 C12 1_555 1_555
H9 C13 1_555 1_555
C14 C13 1_555 1_555
H10 C14 1_555 1_555
C15 C10 1_555 1_555
H11 C15 1_555 1_555
C16 N4 1_555 1_555
H12 C16 1_555 1_555
C17 N6 1_555 1_555
H13 C17 1_555 1_555
C18 C3 1_555 1_555
H14 C18 1_555 1_555
H15 C18 1_555 1_555
H16 C18 1_555 1_555
C5 C6 1_555 1_555
C7 C8 1_555 1_555
C8 C9 1_555 1_555
C14 C15 1_555 1_555

#END
