
#######################################################################
#
#                 Cambridge Crystallographic Data Centre
#                                CCDC 
#
#######################################################################
#
# If this CIF has been generated from an entry in the Cambridge 
# Structural Database, then it will include bibliographic, chemical, 
# crystal, experimental, refinement or atomic coordinate data resulting 
# from the CCDC's data processing and validation procedures.
#
#######################################################################

data_SENMIK
_chemical_formula_moiety         'C36 H46 O3 Si2,C4 H10 O2'
_chemical_name_systematic        
'tetrakis(2,4,6-trimethylphenyl)disiloxane-1,3-diol 1,2-dimethoxyethane'
_symmetry_cell_setting           orthorhombic
_symmetry_space_group_name_H-M   'P 21 21 21'
_symmetry_Int_Tables_number      19
_space_group_name_Hall           'P 2ac 2ab'
loop_
_symmetry_equiv_pos_site_id
_symmetry_equiv_pos_as_xyz
1 x,y,z
2 1/2-x,-y,1/2+z
3 -x,1/2+y,1/2-z
4 1/2+x,1/2-y,-z
_cell_length_a                   12.2512(5)
_cell_length_b                   14.5283(8)
_cell_length_c                   20.9448(10)
_cell_angle_alpha                90
_cell_angle_beta                 90
_cell_angle_gamma                90
_cell_volume                     3727.95
_exptl_crystal_colour            colorless
_exptl_crystal_description       plate
_cell_formula_units_Z            4
_chemical_properties_physical    ', Air-sensitive,Moisture-sensitive'
_exptl_crystal_recrystallization_method dimethoxyethane
loop_
_atom_site_label
_atom_site_type_symbol
_atom_site_fract_x
_atom_site_fract_y
_atom_site_fract_z
Si1 Si 0.16503(5) 0.60881(5) 0.64231(3)
Si2 Si 0.18385(5) 0.56354(5) 0.78919(3)
O1 O 0.14426(16) 0.71863(13) 0.63393(9)
H1 H 0.079(3) 0.740(3) 0.6232(17)
O2 O 0.14310(14) 0.58368(12) 0.71677(8)
O3 O 0.16194(16) 0.45394(13) 0.80301(9)
H2 H 0.097(2) 0.439(2) 0.8174(14)
C1 C 0.3129(2) 0.58195(18) 0.62431(11)
C2 C 0.3458(2) 0.48833(19) 0.62407(12)
C3 C 0.4555(2) 0.4649(2) 0.61694(12)
H3 H 0.475780 0.401793 0.617143
C4 C 0.5360(2) 0.5317(2) 0.60952(13)
C5 C 0.5036(2) 0.6229(2) 0.60900(13)
H4 H 0.557498 0.669183 0.603382
C6 C 0.3951(2) 0.6495(2) 0.61638(12)
C7 C 0.2657(2) 0.41020(19) 0.63161(13)
H5 H 0.215908 0.409253 0.594985
H6 H 0.223653 0.418839 0.670967
H7 H 0.305447 0.351754 0.633770
C8 C 0.6543(2) 0.5039(2) 0.60251(17)
H8 H 0.688462 0.540788 0.568773
H9 H 0.658627 0.438568 0.591269
H10 H 0.692632 0.514492 0.642931
C9 C 0.3721(2) 0.7520(2) 0.61546(15)
H11 H 0.439738 0.785580 0.606454
H12 H 0.343447 0.771124 0.657102
H13 H 0.318110 0.765685 0.582241
C10 C 0.0652(2) 0.54544(19) 0.58914(12)
C11 C -0.0109(2) 0.4777(2) 0.60960(13)
C12 C -0.0788(2) 0.4352(2) 0.56533(13)
H14 H -0.128883 0.389843 0.579818
C13 C -0.0760(2) 0.4565(2) 0.50068(13)
C14 C -0.0031(2) 0.5232(2) 0.48077(13)
H15 H -0.000412 0.539192 0.436819
C15 C 0.0662(2) 0.56742(19) 0.52315(12)
C16 C -0.0249(2) 0.4490(2) 0.67839(13)
H16 H -0.080746 0.400853 0.681170
H17 H -0.047622 0.502264 0.703851
H18 H 0.044487 0.425255 0.694797
C17 C -0.1502(2) 0.4072(2) 0.45385(14)
H19 H -0.132803 0.426958 0.410284
H20 H -0.226417 0.422146 0.463468
H21 H -0.139234 0.340564 0.457535
C18 C 0.1401(2) 0.6414(2) 0.49635(13)
H22 H 0.145069 0.634573 0.449897
H23 H 0.212979 0.635510 0.515163
H24 H 0.109993 0.702149 0.506642
C19 C 0.1002(2) 0.62934(18) 0.84937(12)
C20 C 0.1301(2) 0.61823(19) 0.91437(12)
C21 C 0.0677(2) 0.6584(2) 0.96256(13)
H25 H 0.089602 0.650745 1.005736
C22 C -0.0252(2) 0.7092(2) 0.94939(14)
C23 C -0.0532(2) 0.72159(19) 0.88568(13)
H26 H -0.115998 0.757086 0.875664
C24 C 0.0077(2) 0.68382(19) 0.83596(13)
C25 C 0.2307(2) 0.5648(2) 0.93485(13)
H27 H 0.235585 0.507633 0.910153
H28 H 0.225487 0.550076 0.980413
H29 H 0.296041 0.602134 0.927206
C26 C -0.0931(3) 0.7519(2) 1.00173(15)
H30 H -0.082829 0.818798 1.001513
H31 H -0.070334 0.727007 1.043114
H32 H -0.170356 0.737653 0.994528
C27 C -0.0302(2) 0.7053(2) 0.76838(13)
H33 H 0.029067 0.735408 0.744871
H34 H -0.093588 0.746315 0.770042
H35 H -0.050317 0.647970 0.746719
C28 C 0.3343(2) 0.59062(18) 0.79275(11)
C29 C 0.4172(2) 0.52275(19) 0.79236(12)
C30 C 0.5262(2) 0.5491(2) 0.78721(13)
H36 H 0.580812 0.502706 0.786146
C31 C 0.5581(2) 0.6406(2) 0.78359(13)
C32 C 0.4769(2) 0.7069(2) 0.78685(13)
H37 H 0.497135 0.770052 0.786269
C33 C 0.3666(2) 0.68399(19) 0.79097(12)
C34 C 0.3942(2) 0.42053(19) 0.79617(13)
H38 H 0.353527 0.401173 0.758179
H39 H 0.350814 0.407516 0.834443
H40 H 0.463296 0.386730 0.798368
C35 C 0.6765(2) 0.6662(2) 0.77564(15)
H41 H 0.712027 0.621952 0.747038
H42 H 0.712750 0.665051 0.817353
H43 H 0.681848 0.728087 0.757357
C36 C 0.2851(2) 0.7625(2) 0.79237(15)
H44 H 0.323105 0.820735 0.784334
H45 H 0.249872 0.764860 0.834344
H46 H 0.229661 0.752729 0.759328
O4 O -0.05867(18) 0.75928(17) 0.58471(12)
O5 O 0.03988(17) 0.91465(15) 0.63869(10)
C37 C -0.1551(3) 0.7053(3) 0.58651(19)
H47 H -0.186400 0.701492 0.543543
H48 H -0.207966 0.733886 0.615474
H49 H -0.137422 0.643311 0.601755
C38 C -0.0770(3) 0.8478(2) 0.56128(15)
H50 H -0.139881 0.876105 0.583585
H51 H -0.093826 0.845232 0.515085
C39 C 0.0253(3) 0.9050(2) 0.57243(14)
H52 H 0.089420 0.873956 0.553334
H53 H 0.017269 0.966244 0.552279
C40 C 0.1406(3) 0.9581(2) 0.65272(17)
H54 H 0.200242 0.923843 0.632528
H55 H 0.151657 0.959301 0.699053
H56 H 0.139611 1.021262 0.636274
loop_
_geom_bond_atom_site_label_1
_geom_bond_atom_site_label_2
_geom_bond_site_symmetry_1
_geom_bond_site_symmetry_2
Si1 O1 1_555 1_555
Si2 O2 1_555 1_555
O1 H1 1_555 1_555
O2 Si1 1_555 1_555
O3 Si2 1_555 1_555
H2 O3 1_555 1_555
C1 Si1 1_555 1_555
C2 C1 1_555 1_555
C3 C2 1_555 1_555
H3 C3 1_555 1_555
C4 C3 1_555 1_555
C5 C4 1_555 1_555
H4 C5 1_555 1_555
C6 C1 1_555 1_555
C7 C2 1_555 1_555
H5 C7 1_555 1_555
H6 C7 1_555 1_555
H7 C7 1_555 1_555
C8 C4 1_555 1_555
H8 C8 1_555 1_555
H9 C8 1_555 1_555
H10 C8 1_555 1_555
C9 C6 1_555 1_555
H11 C9 1_555 1_555
H12 C9 1_555 1_555
H13 C9 1_555 1_555
C10 Si1 1_555 1_555
C11 C10 1_555 1_555
C12 C11 1_555 1_555
H14 C12 1_555 1_555
C13 C12 1_555 1_555
C14 C13 1_555 1_555
H15 C14 1_555 1_555
C15 C10 1_555 1_555
C16 C11 1_555 1_555
H16 C16 1_555 1_555
H17 C16 1_555 1_555
H18 C16 1_555 1_555
C17 C13 1_555 1_555
H19 C17 1_555 1_555
H20 C17 1_555 1_555
H21 C17 1_555 1_555
C18 C15 1_555 1_555
H22 C18 1_555 1_555
H23 C18 1_555 1_555
H24 C18 1_555 1_555
C19 Si2 1_555 1_555
C20 C19 1_555 1_555
C21 C20 1_555 1_555
H25 C21 1_555 1_555
C22 C21 1_555 1_555
C23 C22 1_555 1_555
H26 C23 1_555 1_555
C24 C19 1_555 1_555
C25 C20 1_555 1_555
H27 C25 1_555 1_555
H28 C25 1_555 1_555
H29 C25 1_555 1_555
C26 C22 1_555 1_555
H30 C26 1_555 1_555
H31 C26 1_555 1_555
H32 C26 1_555 1_555
C27 C24 1_555 1_555
H33 C27 1_555 1_555
H34 C27 1_555 1_555
H35 C27 1_555 1_555
C28 Si2 1_555 1_555
C29 C28 1_555 1_555
C30 C29 1_555 1_555
H36 C30 1_555 1_555
C31 C30 1_555 1_555
C32 C31 1_555 1_555
H37 C32 1_555 1_555
C33 C28 1_555 1_555
C34 C29 1_555 1_555
H38 C34 1_555 1_555
H39 C34 1_555 1_555
H40 C34 1_555 1_555
C35 C31 1_555 1_555
H41 C35 1_555 1_555
H42 C35 1_555 1_555
H43 C35 1_555 1_555
C36 C33 1_555 1_555
H44 C36 1_555 1_555
H45 C36 1_555 1_555
H46 C36 1_555 1_555
O4 C37 1_555 1_555
O5 C39 1_555 1_555
C37 H47 1_555 1_555
H48 C37 1_555 1_555
H49 C37 1_555 1_555
C38 O4 1_555 1_555
H50 C38 1_555 1_555
H51 C38 1_555 1_555
C39 C38 1_555 1_555
H52 C39 1_555 1_555
H53 C39 1_555 1_555
C40 O5 1_555 1_555
H54 C40 1_555 1_555
H55 C40 1_555 1_555
H56 C40 1_555 1_555
C5 C6 1_555 1_555
C14 C15 1_555 1_555
C23 C24 1_555 1_555
C32 C33 1_555 1_555

#END
