
#######################################################################
#
#                 Cambridge Crystallographic Data Centre
#                                CCDC 
#
#######################################################################
#
# If this CIF has been generated from an entry in the Cambridge 
# Structural Database, then it will include bibliographic, chemical, 
# crystal, experimental, refinement or atomic coordinate data resulting 
# from the CCDC's data processing and validation procedures.
#
#######################################################################

data_SENMII
_chemical_formula_moiety         'C21 H16 N2 O5'
_chemical_name_systematic        
'Methyl 2-amino-4-(3-nitrophenyl)-4H-benzo(h)chromene-3-carboxylate'
_symmetry_cell_setting           triclinic
_symmetry_space_group_name_H-M   'P -1'
_symmetry_Int_Tables_number      2
_space_group_name_Hall           '-P 1'
loop_
_symmetry_equiv_pos_site_id
_symmetry_equiv_pos_as_xyz
1 x,y,z
2 -x,-y,-z
_cell_length_a                   8.2190(16)
_cell_length_b                   9.2570(19)
_cell_length_c                   13.203(3)
_cell_angle_alpha                71.84(3)
_cell_angle_beta                 78.39(3)
_cell_angle_gamma                82.73(3)
_cell_volume                     932.763
_exptl_crystal_colour            colorless
_exptl_crystal_description       Block
_chemical_melting_point          '416-418 K'
_cell_formula_units_Z            2
_exptl_crystal_recrystallization_method methanol
_exptl_crystal_preparation       'irradiated product'
loop_
_atom_site_label
_atom_site_type_symbol
_atom_site_fract_x
_atom_site_fract_y
_atom_site_fract_z
C1 C 0.67735(19) 0.64984(18) 0.42582(13)
H1 H 0.7102 0.7492 0.4179
H2 H 0.7739 0.5860 0.4090
H3 H 0.6238 0.6059 0.4990
O1 O 0.04063(11) 0.81815(11) 0.24368(8)
O2 O 0.56180(12) 0.66277(11) 0.35215(8)
O3 O 0.37436(12) 0.78315(11) 0.45102(9)
C2 C 0.30380(16) 0.72967(14) 0.30047(11)
C3 C 0.38258(16) 0.47728(14) 0.26023(10)
C4 C 0.36092(16) 0.65190(14) 0.21385(10)
H4 H 0.4693 0.6885 0.1742
C5 C -0.02895(17) 0.79999(15) 0.08439(11)
C6 C 0.53916(16) 0.40599(15) 0.27069(11)
H5 H 0.6330 0.4620 0.2469
C7 C 0.09126(16) 0.76794(14) 0.15370(11)
C8 C 0.14971(18) 0.80299(14) 0.31123(11)
N1 N 0.07979(15) 0.86784(13) 0.38829(10)
H6 H -0.0197 0.9100 0.3886
H7 H 0.1342 0.8674 0.4376
C9 C 0.24081(17) 0.69250(15) 0.13429(11)
O4 O 0.83783(14) 0.25760(14) 0.31056(10)
C10 C 0.24588(17) 0.38980(16) 0.29512(11)
H8 H 0.1398 0.4366 0.2892
C11 C 0.55377(18) 0.24909(16) 0.31745(12)
C12 C 0.41052(18) 0.72995(15) 0.37497(12)
N2 N 0.72215(17) 0.17694(16) 0.33291(10)
O5 O 0.73525(15) 0.03737(13) 0.36983(11)
C13 C 0.41998(19) 0.16112(17) 0.35171(12)
H9 H 0.4327 0.0562 0.3826
C14 C 0.26594(19) 0.23435(17) 0.33849(13)
H10 H 0.1730 0.1773 0.3594
C15 C -0.18455(18) 0.87638(17) 0.10609(13)
H11 H -0.2125 0.9091 0.1676
C16 C 0.2783(2) 0.64676(18) 0.03931(12)
H12 H 0.3821 0.5986 0.0226
C17 C 0.0092(2) 0.74800(18) -0.00765(13)
C18 C -0.2956(2) 0.90262(19) 0.03612(14)
H13 H -0.3986 0.9534 0.0509
C19 C 0.1670(2) 0.6712(2) -0.02807(14)
H14 H 0.1946 0.6369 -0.0889
C20 C -0.1100(2) 0.7775(2) -0.07686(14)
H15 H -0.0869 0.7431 -0.1377
C21 C -0.2573(2) 0.8553(2) -0.05531(16)
H16 H -0.3330 0.8768 -0.1026
loop_
_geom_bond_atom_site_label_1
_geom_bond_atom_site_label_2
_geom_bond_site_symmetry_1
_geom_bond_site_symmetry_2
C1 H1 1_555 1_555
H2 C1 1_555 1_555
H3 C1 1_555 1_555
O1 C7 1_555 1_555
O2 C1 1_555 1_555
O3 C12 1_555 1_555
C2 C4 1_555 1_555
C3 C4 1_555 1_555
C4 H4 1_555 1_555
C5 C7 1_555 1_555
C6 C3 1_555 1_555
H5 C6 1_555 1_555
C7 C9 1_555 1_555
C8 O1 1_555 1_555
N1 C8 1_555 1_555
H6 N1 1_555 1_555
H7 N1 1_555 1_555
C9 C4 1_555 1_555
O4 N2 1_555 1_555
C10 C3 1_555 1_555
H8 C10 1_555 1_555
C11 C6 1_555 1_555
C12 O2 1_555 1_555
N2 C11 1_555 1_555
O5 N2 1_555 1_555
C13 C11 1_555 1_555
H9 C13 1_555 1_555
C14 C10 1_555 1_555
H10 C14 1_555 1_555
C15 C5 1_555 1_555
H11 C15 1_555 1_555
C16 C9 1_555 1_555
H12 C16 1_555 1_555
C17 C5 1_555 1_555
C18 C15 1_555 1_555
H13 C18 1_555 1_555
C19 C16 1_555 1_555
H14 C19 1_555 1_555
C20 C17 1_555 1_555
H15 C20 1_555 1_555
C21 C18 1_555 1_555
H16 C21 1_555 1_555
C2 C8 1_555 1_555
C2 C12 1_555 1_555
C13 C14 1_555 1_555
C17 C19 1_555 1_555
C20 C21 1_555 1_555

#END
