
#######################################################################
#
#                 Cambridge Crystallographic Data Centre
#                                CCDC 
#
#######################################################################
#
# If this CIF has been generated from an entry in the Cambridge 
# Structural Database, then it will include bibliographic, chemical, 
# crystal, experimental, refinement or atomic coordinate data resulting 
# from the CCDC's data processing and validation procedures.
#
#######################################################################

data_SENPAF
_chemical_formula_moiety         'C84 H108 N12,H2 O1'
_chemical_name_systematic        
'4,13,19,28,34,43,49,58,61,70,73,82-dodecamethyl-5,12,20,27,35,42,50,57,62,69,74,81-dodecaazatridecacyclo[29.29.10.10^16,46^.1^3,59^.1^14,18^.1^29,33^.1^44,48^.0^6,11^.0^21,26^.0^36,41^.0^51,56^.0^63,68^.0^75,80^]tetraoctaconta-1,3(71),4,12,14(84),15,17,19,27,29(83),30,32,34,42,44(72),45,47,49,57,59,61,69,73,81-tetracosaene monohydrate'
_symmetry_cell_setting           trigonal
_symmetry_space_group_name_H-M   'P 3'
_symmetry_Int_Tables_number      143
_space_group_name_Hall           'P 3'
loop_
_symmetry_equiv_pos_site_id
_symmetry_equiv_pos_as_xyz
1 x,y,z
2 -y,x-y,z
3 -x+y,-x,z
_cell_length_a                   24.9176(9)
_cell_length_b                   24.9176(9)
_cell_length_c                   11.2010(4)
_cell_angle_alpha                90
_cell_angle_beta                 90
_cell_angle_gamma                120
_cell_volume                     6022.82
_exptl_crystal_colour            colorless
_exptl_crystal_description       needle
_cell_formula_units_Z            3
loop_
_atom_site_label
_atom_site_type_symbol
_atom_site_fract_x
_atom_site_fract_y
_atom_site_fract_z
N1 N 0.7876(3) 0.9210(3) 0.3598(6)
N2 N 0.8074(3) 0.8153(3) 0.3699(7)
N3 N 0.9257(3) 0.8354(3) 1.0237(6)
C1 C 0.9068(3) 0.8696(3) 0.9715(7)
C2 C 0.8869(3) 0.7682(3) 1.0291(7)
H1 H 0.8446 0.7555 0.9974
N4 N 0.9148(3) 0.7588(3) 0.8293(6)
C3 C 0.7496(3) 0.8105(4) 0.3277(8)
H2 H 0.7201 0.8001 0.3958
C4 C 0.9623(3) 0.7903(3) 0.7623(7)
C5 C 0.9521(3) 0.8093(3) 0.6436(7)
C6 C 0.9180(3) 0.7417(3) 0.9496(7)
H3 H 0.9624 0.7602 0.9735
C7 C 0.8206(3) 0.8178(3) 0.4790(8)
C8 C 1.0278(4) 0.8100(4) 0.7936(8)
H4 H 1.0441 0.7918 0.7367
H5 H 1.0294 0.7957 0.8744
H6 H 1.0529 0.8553 0.7903
C9 C 0.8821(3) 0.8228(3) 0.5082(8)
C10 C 0.9539(3) 0.9372(3) 0.9663(7)
C11 C 0.9976(3) 0.8338(3) 0.5545(7)
H7 H 1.0365 0.8365 0.5682
C12 C 0.6703(4) 0.8121(4) 0.1331(9)
H8 H 0.6295 0.8066 0.1093
H9 H 0.6966 0.8231 0.0608
C13 C 0.8438(4) 0.8496(4) 0.9211(9)
H10 H 0.8230 0.8660 0.9707
H11 H 0.8193 0.8042 0.9200
H12 H 0.8481 0.8654 0.8395
C14 C 0.8448(3) 0.9624(3) 0.3539(7)
C15 C 0.8933(3) 0.8035(3) 0.6171(7)
H13 H 0.8612 0.7860 0.6751
C16 C 0.8496(4) 0.6778(4) 1.1685(8)
H14 H 0.8484 0.6658 1.2531
H15 H 0.8063 0.6596 1.1399
C17 C 0.7623(4) 0.8713(4) 0.2702(8)
H16 H 0.7923 0.8821 0.2028
C18 C 0.6617(4) 0.7527(4) 0.1846(9)
H17 H 0.6455 0.7204 0.1219
H18 H 0.6306 0.7388 0.2495
C19 C 0.9298(3) 0.8485(3) 0.4243(7)
H19 H 0.9226 0.8622 0.3501
C20 C 0.9868(3) 0.8545(3) 0.4453(7)
C21 C 0.8821(3) 0.7487(3) 1.1590(8)
H20 H 0.8585 0.7641 1.2045
H21 H 0.9242 0.7672 1.1940
C22 C 0.8858(4) 0.6716(3) 0.9629(8)
H22 H 0.9087 0.6555 0.9167
H23 H 0.8433 0.6527 0.9304
C23 C 0.7218(4) 0.7596(4) 0.2338(9)
H24 H 0.7135 0.7199 0.2697
H25 H 0.7517 0.7697 0.1678
C24 C 0.8912(4) 0.9680(3) 0.2622(8)
H26 H 0.8913 0.9935 0.1955
H27 H 0.8801 0.9267 0.2328
H28 H 0.9326 0.9875 0.2983
C25 C 0.7002(4) 0.8638(4) 0.2231(9)
H29 H 0.6716 0.8551 0.2909
H30 H 0.7082 0.9031 0.1856
C26 C 1.0175(3) 0.9550(3) 0.9660(7)
H31 H 1.0291 0.9240 0.9656
C27 C 0.8830(4) 0.6533(4) 1.0956(8)
H32 H 0.8613 0.6076 1.1025
H33 H 0.9256 0.6700 1.1268
C28 C 0.7827(4) 0.8177(6) 0.5863(10)
H34 H 0.7526 0.7749 0.6081
H35 H 0.7608 0.8399 0.5658
H36 H 0.8105 0.8383 0.6539
N1A N 1.0790(3) 0.8666(4) 0.3598(6)
N2A N 1.1847(3) 0.9921(4) 0.3699(7)
N3A N 1.1646(3) 1.0903(4) 1.0237(6)
C1A C 1.1304(3) 1.0372(4) 0.9715(7)
C2A C 1.2318(3) 1.1187(4) 1.0291(7)
H1A H 1.2445 1.0891 0.9974
N4A N 1.2412(3) 1.1560(4) 0.8293(6)
C3A C 1.1895(4) 0.9391(5) 0.3277(8)
H2A H 1.1999 0.9200 0.3958
C4A C 1.2097(3) 1.1720(4) 0.7623(7)
C5A C 1.1907(3) 1.1428(4) 0.6436(7)
C6A C 1.2583(3) 1.1763(4) 0.9496(7)
H3A H 1.2398 1.2022 0.9735
C7A C 1.1822(3) 1.0028(4) 0.4790(8)
C8A C 1.1900(4) 1.2178(6) 0.7936(8)
H4A H 1.2082 1.2523 0.7367
H5A H 1.2043 1.2337 0.8744
H6A H 1.1447 1.1976 0.7903
C9A C 1.1772(3) 1.0593(4) 0.5082(8)
C10A C 1.0628(3) 1.0167(4) 0.9663(7)
C11A C 1.1662(3) 1.1638(4) 0.5545(7)
H7A H 1.1635 1.2000 0.5682
C12A C 1.1879(4) 0.8582(6) 0.1331(9)
H8A H 1.1934 0.8229 0.1093
H9A H 1.1769 0.8735 0.0608
C13A C 1.1504(4) 0.9942(6) 0.9211(9)
H10A H 1.1340 0.9570 0.9707
H11A H 1.1958 1.0151 0.9200
H12A H 1.1346 0.9827 0.8395
C14A C 1.0376(3) 0.8824(4) 0.3539(7)
C15A C 1.1965(3) 1.0898(4) 0.6171(7)
H13A H 1.2140 1.0752 0.6751
C16A C 1.3222(4) 1.1718(6) 1.1685(8)
H14A H 1.3342 1.1826 1.2531
H15A H 1.3404 1.1467 1.1399
C17A C 1.1287(4) 0.8910(6) 0.2702(8)
H16A H 1.1179 0.9102 0.2028
C18A C 1.2473(4) 0.9090(6) 0.1846(9)
H17A H 1.2796 0.9251 0.1219
H18A H 1.2612 0.8918 0.2495
C19A C 1.1515(3) 1.0813(4) 0.4243(7)
H19A H 1.1378 1.0604 0.3501
C20A C 1.1455(3) 1.1323(4) 0.4453(7)
C21A C 1.2513(3) 1.1334(4) 1.1590(8)
H20A H 1.2359 1.0944 1.2045
H21A H 1.2328 1.1570 1.1940
C22A C 1.3284(3) 1.2142(5) 0.9629(8)
H22A H 1.3445 1.2532 0.9167
H23A H 1.3473 1.1906 0.9304
C23A C 1.2404(4) 0.9622(6) 0.2338(9)
H24A H 1.2801 0.9936 0.2697
H25A H 1.2303 0.9820 0.1678
C24A C 1.0320(3) 0.9232(5) 0.2622(8)
H26A H 1.0065 0.8978 0.1955
H27A H 1.0733 0.9534 0.2328
H28A H 1.0125 0.9451 0.2983
C25A C 1.1362(4) 0.8364(6) 0.2231(9)
H29A H 1.1449 0.8165 0.2909
H30A H 1.0969 0.8051 0.1856
C26A C 1.0450(3) 1.0625(4) 0.9660(7)
H31A H 1.0760 1.1051 0.9656
C27A C 1.3467(4) 1.2297(6) 1.0956(8)
H32A H 1.3924 1.2537 1.1025
H33A H 1.3300 1.2556 1.1268
C28A C 1.1823(6) 0.9650(7) 0.5863(10)
H34A H 1.2251 0.9777 0.6081
H35A H 1.1601 0.9209 0.5658
H36A H 1.1617 0.9722 0.6539
N1B N 1.1334(4) 1.2124(3) 0.3598(6)
N2B N 1.0079(4) 1.1926(3) 0.3699(7)
N3B N 0.9097(4) 1.0743(3) 1.0237(6)
C1B C 0.9628(4) 1.0932(3) 0.9715(7)
C2B C 0.8813(4) 1.1131(3) 1.0291(7)
H1B H 0.9109 1.1554 0.9974
N4B N 0.8440(4) 1.0852(3) 0.8293(6)
C3B C 1.0609(5) 1.2504(3) 0.3277(8)
H2B H 1.0800 1.2799 0.3958
C4B C 0.8280(4) 1.0377(3) 0.7623(7)
C5B C 0.8572(4) 1.0479(3) 0.6436(7)
C6B C 0.8237(4) 1.0820(3) 0.9496(7)
H3B H 0.7978 1.0376 0.9735
C7B C 0.9972(4) 1.1794(3) 0.4790(8)
C8B C 0.7822(6) 0.9722(4) 0.7936(8)
H4B H 0.7477 0.9559 0.7367
H5B H 0.7663 0.9706 0.8744
H6B H 0.8024 0.9471 0.7903
C9B C 0.9407(4) 1.1179(3) 0.5082(8)
C10B C 0.9833(4) 1.0461(3) 0.9663(7)
C11B C 0.8362(4) 1.0024(3) 0.5545(7)
H7B H 0.8000 0.9635 0.5682
C12B C 1.1418(6) 1.3297(4) 0.1331(9)
H8B H 1.1771 1.3705 0.1093
H9B H 1.1265 1.3034 0.0608
C13B C 1.0058(6) 1.1562(4) 0.9211(9)
H10B H 1.0430 1.1770 0.9707
H11B H 0.9849 1.1807 0.9200
H12B H 1.0173 1.1519 0.8395
C14B C 1.1176(4) 1.1552(3) 0.3539(7)
C15B C 0.9102(4) 1.1067(3) 0.6171(7)
H13B H 0.9248 1.1388 0.6751
C16B C 0.8282(6) 1.1504(4) 1.1685(8)
H14B H 0.8174 1.1516 1.2531
H15B H 0.8533 1.1937 1.1399
C17B C 1.1090(6) 1.2377(4) 0.2702(8)
H16B H 1.0898 1.2077 0.2028
C18B C 1.0910(6) 1.3383(4) 0.1846(9)
H17B H 1.0749 1.3545 0.1219
H18B H 1.1082 1.3694 0.2495
C19B C 0.9187(4) 1.0702(3) 0.4243(7)
H19B H 0.9396 1.0774 0.3501
C20B C 0.8677(4) 1.0132(3) 0.4453(7)
C21B C 0.8666(4) 1.1179(3) 1.1590(8)
H20B H 0.9056 1.1415 1.2045
H21B H 0.8430 1.0758 1.1940
C22B C 0.7858(5) 1.1142(4) 0.9629(8)
H22B H 0.7468 1.0913 0.9167
H23B H 0.8094 1.1567 0.9304
C23B C 1.0378(6) 1.2782(4) 0.2338(9)
H24B H 1.0064 1.2865 0.2697
H25B H 1.0180 1.2483 0.1678
C24B C 1.0768(5) 1.1088(4) 0.2622(8)
H26B H 1.1022 1.1087 0.1955
H27B H 1.0466 1.1199 0.2328
H28B H 1.0549 1.0674 0.2983
C25B C 1.1636(6) 1.2998(4) 0.2231(9)
H29B H 1.1835 1.3284 0.2909
H30B H 1.1949 1.2918 0.1856
C26B C 0.9375(4) 0.9825(3) 0.9660(7)
H31B H 0.8949 0.9709 0.9656
C27B C 0.7703(6) 1.1170(4) 1.0956(8)
H32B H 0.7463 1.1387 1.1025
H33B H 0.7444 1.0744 1.1268
C28B C 1.0350(7) 1.2173(4) 0.5863(10)
H34B H 1.0223 1.2474 0.6081
H35B H 1.0791 1.2392 0.5658
H36B H 1.0278 1.1895 0.6539
N5 N 0.5537(3) 0.6842(3) 0.6021(6)
N6 N 0.4741(3) 0.6595(3) 0.7980(6)
C29 C 0.4599(3) 0.6203(3) 0.2847(7)
C30 C 0.5229(3) 0.7471(3) 0.3332(7)
H37 H 0.5448 0.7903 0.3495
C31 C 0.5211(3) 0.7057(3) 0.4191(7)
C32 C 0.4217(3) 0.6230(3) 0.7531(7)
C33 C 0.2970(4) 0.3918(4) 0.0032(11)
H38 H 0.2583 0.3837 -0.0373
H39 H 0.2855 0.3624 0.0706
C34 C 0.4884(3) 0.6426(3) 0.3932(7)
H40 H 0.4858 0.6140 0.4523
N7 N 0.4235(3) 0.5368(3) 0.1471(6)
N8 N 0.2901(3) 0.4637(3) 0.1383(6)
C35 C 0.5524(3) 0.7258(3) 0.5371(7)
C36 C 0.3914(3) 0.4721(3) 0.1111(8)
H41 H 0.3827 0.4450 0.1826
C37 C 0.4623(3) 0.6626(3) 0.1982(7)
H42 H 0.4430 0.6479 0.1228
C38 C 0.3303(3) 0.4578(3) 0.0511(8)
H43 H 0.3390 0.4876 -0.0160
C39 C 0.5236(3) 0.6456(3) 0.8018(7)
H44 H 0.5084 0.6031 0.7688
C40 C 0.5770(3) 0.6934(4) 0.7218(7)
H45 H 0.5902 0.7366 0.7488
C41 C 0.4265(3) 0.5528(3) 0.2556(7)
C42 C 0.4011(4) 0.5593(4) 0.6999(9)
H46 H 0.3850 0.5280 0.7634
H47 H 0.4366 0.5594 0.6616
H48 H 0.3687 0.5493 0.6404
C43 C 0.3970(3) 0.7081(3) 0.7490(7)
H49 H 0.4403 0.7364 0.7491
C44 C 0.2773(3) 0.5073(3) 0.1325(7)
C45 C 0.4930(3) 0.7259(3) 0.2233(7)
C46 C 0.3749(3) 0.6452(3) 0.7490(7)
C47 C 0.3003(4) 0.5576(4) 0.0403(8)
H50 H 0.2697 0.5454 -0.0239
H51 H 0.3397 0.5643 0.0075
H52 H 0.3067 0.5960 0.0773
C48 C 0.6521(4) 0.6809(4) 0.8566(9)
H53 H 0.6853 0.6700 0.8570
H54 H 0.6693 0.7228 0.8913
C49 C 0.5465(4) 0.6482(4) 0.9296(8)
H55 H 0.5605 0.6898 0.9637
H56 H 0.5119 0.6174 0.9793
C50 C 0.3993(4) 0.3950(4) -0.0258(9)
H57 H 0.4261 0.3901 -0.0847
H58 H 0.3907 0.3655 0.0403
C51 C 0.5790(6) 0.7931(4) 0.5723(10)
H59 H 0.6015 0.8009 0.6479
H60 H 0.5453 0.8022 0.5817
H61 H 0.6074 0.8198 0.5099
C52 C 0.4327(4) 0.4620(4) 0.0231(9)
H62 H 0.4714 0.4704 0.0638
H63 H 0.4440 0.4915 -0.0442
C53 C 0.6320(4) 0.6815(4) 0.7278(8)
H64 H 0.6199 0.6411 0.6897
H65 H 0.6673 0.7142 0.6824
C54 C 0.5988(4) 0.6350(4) 0.9324(9)
H66 H 0.5842 0.5925 0.9024
H67 H 0.6130 0.6372 1.0157
C55 C 0.3979(4) 0.5082(4) 0.3613(8)
H68 H 0.3799 0.5250 0.4176
H69 H 0.4301 0.5034 0.4017
H70 H 0.3654 0.4678 0.3322
C56 C 0.3381(4) 0.3811(5) -0.0855(11)
H71 H 0.3158 0.3375 -0.1133
H72 H 0.3470 0.4083 -0.1559
N5A N 0.3158(3) 0.8695(4) 0.6021(6)
N6A N 0.3405(3) 0.8146(4) 0.7980(6)
C29A C 0.3797(3) 0.8396(4) 0.2847(7)
C30A C 0.2529(3) 0.7758(4) 0.3332(7)
H37A H 0.2097 0.7545 0.3495
C31A C 0.2943(3) 0.8154(4) 0.4191(7)
C32A C 0.3770(3) 0.7987(4) 0.7531(7)
C33A C 0.6082(4) 0.9052(6) 0.0032(11)
H38A H 0.6163 0.8746 -0.0373
H39A H 0.6376 0.9231 0.0706
C34A C 0.3574(3) 0.8458(4) 0.3932(7)
H40A H 0.3860 0.8718 0.4523
N7A N 0.4632(3) 0.8867(4) 0.1471(6)
N8A N 0.5363(3) 0.8264(4) 0.1383(6)
C35A C 0.2742(3) 0.8266(4) 0.5371(7)
C36A C 0.5279(3) 0.9193(4) 0.1111(8)
H41A H 0.5550 0.9377 0.1826
C37A C 0.3374(3) 0.7997(4) 0.1982(7)
H42A H 0.3521 0.7951 0.1228
C38A C 0.5422(3) 0.8725(4) 0.0511(8)
H43A H 0.5124 0.8514 -0.0160
C39A C 0.3544(3) 0.8780(4) 0.8018(7)
H44A H 0.3969 0.9053 0.7688
C40A C 0.3066(4) 0.8836(5) 0.7218(7)
H45A H 0.2634 0.8536 0.7488
C41A C 0.4472(3) 0.8737(4) 0.2556(7)
C42A C 0.4407(4) 0.8418(6) 0.6999(9)
H46A H 0.4720 0.8570 0.7634
H47A H 0.4406 0.8772 0.6616
H48A H 0.4507 0.8194 0.6404
C43A C 0.2919(3) 0.6889(4) 0.7490(7)
H49A H 0.2636 0.7039 0.7491
C44A C 0.4927(3) 0.7700(4) 0.1325(7)
C45A C 0.2741(3) 0.7671(4) 0.2233(7)
C46A C 0.3548(3) 0.7297(4) 0.7490(7)
C47A C 0.4424(4) 0.7427(6) 0.0403(8)
H50A H 0.4546 0.7243 -0.0239
H51A H 0.4357 0.7754 0.0075
H52A H 0.4040 0.7107 0.0773
C48A C 0.3191(4) 0.9712(6) 0.8566(9)
H53A H 0.3300 1.0153 0.8570
H54A H 0.2772 0.9465 0.8913
C49A C 0.3518(4) 0.8983(6) 0.9296(8)
H55A H 0.3102 0.8707 0.9637
H56A H 0.3826 0.8945 0.9793
C50A C 0.6050(4) 1.0043(6) -0.0258(9)
H57A H 0.6099 1.0360 -0.0847
H58A H 0.6345 1.0252 0.0403
C51A C 0.2069(4) 0.7859(7) 0.5723(10)
H59A H 0.1991 0.8006 0.6479
H60A H 0.1978 0.7431 0.5817
H61A H 0.1802 0.7876 0.5099
C52A C 0.5380(4) 0.9707(6) 0.0231(9)
H62A H 0.5296 1.0010 0.0638
H63A H 0.5085 0.9525 -0.0442
C53A C 0.3185(4) 0.9505(6) 0.7278(8)
H64A H 0.3589 0.9788 0.6897
H65A H 0.2858 0.9531 0.6824
C54A C 0.3650(4) 0.9638(6) 0.9324(9)
H66A H 0.4075 0.9917 0.9024
H67A H 0.3628 0.9758 1.0157
C55A C 0.4918(4) 0.8897(6) 0.3613(8)
H68A H 0.4750 0.8549 0.4176
H69A H 0.4966 0.9267 0.4017
H70A H 0.5322 0.8976 0.3322
C56A C 0.6189(5) 0.9570(6) -0.0855(11)
H71A H 0.6625 0.9783 -0.1133
H72A H 0.5917 0.9387 -0.1559
N5B N 0.1305(4) 0.4463(3) 0.6021(6)
N6B N 0.1854(4) 0.5259(3) 0.7980(6)
C29B C 0.1604(4) 0.5401(3) 0.2847(7)
C30B C 0.2242(4) 0.4771(3) 0.3332(7)
H37B H 0.2455 0.4552 0.3495
C31B C 0.1846(4) 0.4789(3) 0.4191(7)
C32B C 0.2013(4) 0.5783(3) 0.7531(7)
C33B C 0.0948(6) 0.7030(4) 0.0032(11)
H38B H 0.1254 0.7417 -0.0373
H39B H 0.0769 0.7145 0.0706
C34B C 0.1542(4) 0.5116(3) 0.3932(7)
H40B H 0.1282 0.5142 0.4523
N7B N 0.1133(4) 0.5765(3) 0.1471(6)
N8B N 0.1736(4) 0.7099(3) 0.1383(6)
C35B C 0.1734(4) 0.4476(3) 0.5371(7)
C36B C 0.0807(4) 0.6086(3) 0.1111(8)
H41B H 0.0623 0.6173 0.1826
C37B C 0.2003(4) 0.5377(3) 0.1982(7)
H42B H 0.2049 0.5570 0.1228
C38B C 0.1275(4) 0.6697(3) 0.0511(8)
H43B H 0.1486 0.6610 -0.0160
C39B C 0.1220(4) 0.4764(3) 0.8018(7)
H44B H 0.0947 0.4916 0.7688
C40B C 0.1164(5) 0.4230(3) 0.7218(7)
H45B H 0.1464 0.4098 0.7488
C41B C 0.1263(4) 0.5735(3) 0.2556(7)
C42B C 0.1582(6) 0.5989(4) 0.6999(9)
H46B H 0.1430 0.6150 0.7634
H47B H 0.1228 0.5634 0.6616
H48B H 0.1806 0.6313 0.6404
C43B C 0.3111(4) 0.6030(3) 0.7490(7)
H49B H 0.2961 0.5597 0.7491
C44B C 0.2300(4) 0.7227(3) 0.1325(7)
C45B C 0.2329(4) 0.5070(3) 0.2233(7)
C46B C 0.2703(4) 0.6251(3) 0.7490(7)
C47B C 0.2573(6) 0.6997(4) 0.0403(8)
H50B H 0.2757 0.7303 -0.0239
H51B H 0.2246 0.6603 0.0075
H52B H 0.2893 0.6933 0.0773
C48B C 0.0288(6) 0.3479(4) 0.8566(9)
H53B H -0.0153 0.3147 0.8570
H54B H 0.0535 0.3307 0.8913
C49B C 0.1017(6) 0.4535(4) 0.9296(8)
H55B H 0.1293 0.4395 0.9637
H56B H 0.1055 0.4881 0.9793
C50B C -0.0043(6) 0.6007(4) -0.0258(9)
H57B H -0.0360 0.5739 -0.0847
H58B H -0.0252 0.6093 0.0403
C51B C 0.2141(7) 0.4210(6) 0.5723(10)
H59B H 0.1994 0.3985 0.6479
H60B H 0.2569 0.4547 0.5817
H61B H 0.2124 0.3926 0.5099
C52B C 0.0293(6) 0.5673(4) 0.0231(9)
H62B H -0.0010 0.5286 0.0638
H63B H 0.0475 0.5560 -0.0442
C53B C 0.0495(6) 0.3680(4) 0.7278(8)
H64B H 0.0212 0.3801 0.6897
H65B H 0.0469 0.3327 0.6824
C54B C 0.0362(6) 0.4012(4) 0.9324(9)
H66B H 0.0083 0.4158 0.9024
H67B H 0.0242 0.3870 1.0157
C55B C 0.1103(6) 0.6021(4) 0.3613(8)
H68B H 0.1451 0.6201 0.4176
H69B H 0.0733 0.5699 0.4017
H70B H 0.1024 0.6346 0.3322
C56B C 0.0430(6) 0.6619(4) -0.0855(11)
H71B H 0.0217 0.6842 -0.1133
H72B H 0.0613 0.6530 -0.1559
N9 N 0.4454(3) 0.3020(3) 0.7520(6)
N10 N 0.5678(3) 0.4457(3) 1.2218(7)
N11 N 0.4660(3) 0.1645(3) 1.2098(7)
C57 C 0.4840(3) 0.2616(3) 0.9525(7)
H73 H 0.4639 0.2314 0.8919
C58 C 0.5527(4) 0.5108(4) 1.3656(9)
H74 H 0.5184 0.4734 1.4032
H75 H 0.5349 0.5249 1.3022
C59 C 0.4916(3) 0.3424(3) 0.8092(8)
C60 C 0.5324(3) 0.3671(3) 1.0176(7)
H76 H 0.5452 0.4093 1.0012
C61 C 0.4936(3) 0.2433(3) 1.0670(8)
N12 N 0.5087(3) 0.3023(3) 0.5403(7)
C62 C 0.5990(4) 0.4946(4) 1.3103(8)
H77 H 0.6151 0.4788 1.3750
C63 C 0.5428(3) 0.3513(4) 1.1293(8)
C64 C 0.5041(3) 0.3237(3) 0.9289(8)
C65 C 0.5323(4) 0.2721(4) 0.5889(8)
C66 C 0.5349(4) 0.4092(4) 0.7715(9)
H78 H 0.5154 0.4341 0.7887
H79 H 0.5433 0.4107 0.6857
H80 H 0.5739 0.4259 0.8158
C67 C 0.5231(3) 0.2885(3) 1.1528(8)
H81 H 0.5303 0.2771 1.2295
C68 C 0.4969(4) 0.2073(4) 0.6393(9)
H82 H 0.4859 0.1771 0.5745
H83 H 0.4591 0.2012 0.6784
H84 H 0.5228 0.2014 0.6977
C69 C 0.4720(4) 0.1775(4) 1.0968(8)
C70 C 0.5749(3) 0.3990(3) 1.2249(8)
C71 C 0.4237(4) 0.2922(5) 0.4147(9)
H85 H 0.4491 0.3368 0.3952
H86 H 0.4313 0.2684 0.3529
C72 C 0.4579(5) 0.1324(4) 0.9946(9)
H87 H 0.4182 0.1223 0.9583
H88 H 0.4557 0.0945 1.0250
H89 H 0.4908 0.1514 0.9345
C73 C 0.6855(4) 0.6012(4) 1.3494(9)
H90 H 0.7032 0.5862 1.4113
H91 H 0.7199 0.6390 1.3131
C74 C 0.6329(4) 0.2694(4) 0.5938(8)
H92 H 0.6095 0.2254 0.5933
C75 C 0.4426(4) 0.2797(4) 0.5384(8)
H93 H 0.4190 0.2343 0.5568
C76 C 0.3607(4) 0.2967(4) 0.6344(8)
H94 H 0.3527 0.3204 0.6957
H95 H 0.3360 0.2521 0.6549
C77 C 0.4293(4) 0.3166(4) 0.6343(8)
H96 H 0.4548 0.3621 0.6182
C78 C 0.5846(4) 0.5622(4) 1.4601(9)
H97 H 0.5554 0.5753 1.4888
H98 H 0.5971 0.5461 1.5292
C79 C 0.3406(4) 0.3078(5) 0.5107(9)
H99 H 0.2955 0.2930 0.5112
H100 H 0.3628 0.3527 0.4927
C80 C 0.6113(4) 0.3844(3) 1.3116(9)
H101 H 0.5843 0.3595 1.3773
H102 H 0.6456 0.4230 1.3434
H103 H 0.6280 0.3610 1.2711
C81 C 0.6542(4) 0.5514(3) 1.2532(8)
H104 H 0.6397 0.5674 1.1860
C82 C 0.6412(4) 0.6171(4) 1.4065(10)
H105 H 0.6275 0.6367 1.3460
H106 H 0.6632 0.6481 1.4702
C83 C 0.3551(4) 0.2731(5) 0.4149(10)
H107 H 0.3299 0.2280 0.4295
H108 H 0.3437 0.2819 0.3356
C84 C 0.6022(3) 0.3032(3) 0.5941(8)
N9A N 0.6980(3) 0.1434(4) 0.7520(6)
N10A N 0.5543(3) 0.1221(4) 1.2218(7)
N11A N 0.8355(3) 0.3015(4) 1.2098(7)
C57A C 0.7384(3) 0.2224(4) 0.9525(7)
H73A H 0.7686 0.2325 0.8919
C58A C 0.4892(4) 0.0419(6) 1.3656(9)
H74A H 0.5266 0.0450 1.4032
H75A H 0.4751 0.0100 1.3022
C59A C 0.6576(3) 0.1492(4) 0.8092(8)
C60A C 0.6329(3) 0.1653(4) 1.0176(7)
H76A H 0.5907 0.1359 1.0012
C61A C 0.7567(3) 0.2503(4) 1.0670(8)
N12A N 0.6977(3) 0.2064(4) 0.5403(7)
C62A C 0.5054(4) 0.1044(6) 1.3103(8)
H77A H 0.5212 0.1363 1.3750
C63A C 0.6487(4) 0.1915(5) 1.1293(8)
C64A C 0.6763(3) 0.1804(4) 0.9289(8)
C65A C 0.7279(4) 0.2602(6) 0.5889(8)
C66A C 0.5908(4) 0.1257(6) 0.7715(9)
H78A H 0.5659 0.0813 0.7887
H79A H 0.5893 0.1326 0.6857
H80A H 0.5741 0.1480 0.8158
C67A C 0.7115(3) 0.2346(4) 1.1528(8)
H81A H 0.7229 0.2532 1.2295
C68A C 0.7927(4) 0.2896(6) 0.6393(9)
H82A H 0.8229 0.3088 0.5745
H83A H 0.7988 0.2579 0.6784
H84A H 0.7986 0.3214 0.6977
C69A C 0.8225(4) 0.2945(6) 1.0968(8)
C70A C 0.6010(3) 0.1759(4) 1.2249(8)
C71A C 0.7078(5) 0.1315(6) 0.4147(9)
H85A H 0.6632 0.1123 0.3952
H86A H 0.7316 0.1629 0.3529
C72A C 0.8676(4) 0.3255(6) 0.9946(9)
H87A H 0.8777 0.2959 0.9583
H88A H 0.9055 0.3612 1.0250
H89A H 0.8486 0.3394 0.9345
C73A C 0.3988(4) 0.0843(6) 1.3494(9)
H90A H 0.4138 0.1170 1.4113
H91A H 0.3610 0.0809 1.3131
C74A C 0.7306(4) 0.3635(6) 0.5938(8)
H92A H 0.7746 0.3841 0.5933
C75A C 0.7203(4) 0.1629(6) 0.5384(8)
H93A H 0.7657 0.1847 0.5568
C76A C 0.7033(4) 0.0640(6) 0.6344(8)
H94A H 0.6796 0.0323 0.6957
H95A H 0.7479 0.0839 0.6549
C77A C 0.6834(4) 0.1127(6) 0.6343(8)
H96A H 0.6379 0.0927 0.6182
C78A C 0.4378(4) 0.0224(6) 1.4601(9)
H97A H 0.4247 -0.0199 1.4888
H98A H 0.4539 0.0510 1.5292
C79A C 0.6922(5) 0.0328(6) 0.5107(9)
H99A H 0.7070 0.0025 0.5112
H100A H 0.6473 0.0101 0.4927
C80A C 0.6156(3) 0.2269(5) 1.3116(9)
H101A H 0.6405 0.2248 1.3773
H102A H 0.5770 0.2226 1.3434
H103A H 0.6390 0.2670 1.2711
C81A C 0.4486(3) 0.1028(5) 1.2532(8)
H104A H 0.4326 0.0723 1.1860
C82A C 0.3829(4) 0.0241(6) 1.4065(10)
H105A H 0.3633 -0.0092 1.3460
H106A H 0.3519 0.0151 1.4702
C83A C 0.7269(5) 0.0820(6) 0.4149(10)
H107A H 0.7720 0.1019 0.4295
H108A H 0.7181 0.0618 0.3356
C84A C 0.6968(3) 0.2990(4) 0.5941(8)
N9B N 0.8566(4) 0.5546(3) 0.7520(6)
N10B N 0.8779(4) 0.4322(3) 1.2218(7)
N11B N 0.6985(4) 0.5340(3) 1.2098(7)
C57B C 0.7776(4) 0.5160(3) 0.9525(7)
H73B H 0.7675 0.5361 0.8919
C58B C 0.9581(6) 0.4473(4) 1.3656(9)
H74B H 0.9550 0.4816 1.4032
H75B H 0.9900 0.4651 1.3022
C59B C 0.8508(4) 0.5084(3) 0.8092(8)
C60B C 0.8347(4) 0.4676(3) 1.0176(7)
H76B H 0.8641 0.4548 1.0012
C61B C 0.7497(4) 0.5064(3) 1.0670(8)
N12B N 0.7936(4) 0.4913(3) 0.5403(7)
C62B C 0.8956(6) 0.4010(4) 1.3103(8)
H77B H 0.8637 0.3849 1.3750
C63B C 0.8085(5) 0.4572(3) 1.1293(8)
C64B C 0.8196(4) 0.4959(3) 0.9289(8)
C65B C 0.7398(6) 0.4677(4) 0.5889(8)
C66B C 0.8743(6) 0.4651(4) 0.7715(9)
H78B H 0.9187 0.4846 0.7887
H79B H 0.8674 0.4567 0.6857
H80B H 0.8520 0.4261 0.8158
C67B C 0.7654(4) 0.4769(3) 1.1528(8)
H81B H 0.7468 0.4697 1.2295
C68B C 0.7104(6) 0.5031(4) 0.6393(9)
H82B H 0.6912 0.5141 0.5745
H83B H 0.7421 0.5409 0.6784
H84B H 0.6786 0.4772 0.6977
C69B C 0.7055(6) 0.5280(4) 1.0968(8)
C70B C 0.8241(4) 0.4251(3) 1.2249(8)
C71B C 0.8685(6) 0.5763(4) 0.4147(9)
H85B H 0.8877 0.5509 0.3952
H86B H 0.8371 0.5687 0.3529
C72B C 0.6745(6) 0.5421(5) 0.9946(9)
H87B H 0.7041 0.5818 0.9583
H88B H 0.6388 0.5443 1.0250
H89B H 0.6606 0.5092 0.9345
C73B C 0.9157(6) 0.3145(4) 1.3494(9)
H90B H 0.8830 0.2968 1.4113
H91B H 0.9191 0.2801 1.3131
C74B C 0.6365(6) 0.3671(4) 0.5938(8)
H92B H 0.6159 0.3905 0.5933
C75B C 0.8371(6) 0.5574(4) 0.5384(8)
H93B H 0.8153 0.5810 0.5568
C76B C 0.9360(6) 0.6393(4) 0.6344(8)
H94B H 0.9677 0.6473 0.6957
H95B H 0.9161 0.6640 0.6549
C77B C 0.8873(6) 0.5707(4) 0.6343(8)
H96B H 0.9073 0.5452 0.6182
C78B C 0.9776(6) 0.4154(4) 1.4601(9)
H97B H 1.0199 0.4446 1.4888
H98B H 0.9490 0.4029 1.5292
C79B C 0.9672(6) 0.6594(4) 0.5107(9)
H99B H 0.9975 0.7045 0.5112
H100B H 0.9899 0.6372 0.4927
C80B C 0.7731(5) 0.3887(4) 1.3116(9)
H101B H 0.7752 0.4157 1.3773
H102B H 0.7774 0.3544 1.3434
H103B H 0.7330 0.3720 1.2711
C81B C 0.8972(5) 0.3458(4) 1.2532(8)
H104B H 0.9277 0.3603 1.1860
C82B C 0.9759(6) 0.3588(4) 1.4065(10)
H105B H 1.0092 0.3725 1.3460
H106B H 0.9849 0.3368 1.4702
C83B C 0.9180(6) 0.6449(4) 0.4149(10)
H107B H 0.8981 0.6701 0.4295
H108B H 0.9382 0.6563 0.3356
C84B C 0.7010(4) 0.3978(3) 0.5941(8)
O1 O 0.3333 0.6667 0.400(5)
O2 O 0.6667 0.3333 0.949(4)
O3 O 1.0000 1.0000 0.629(4)
loop_
_geom_bond_atom_site_label_1
_geom_bond_atom_site_label_2
_geom_bond_site_symmetry_1
_geom_bond_site_symmetry_2
N1 C14 1_555 1_555
N2 C3 1_555 1_555
N3 C1 1_555 1_555
C1 C10 1_555 1_555
C2 N3 1_555 1_555
H1 C2 1_555 1_555
N4 C4 1_555 1_555
C3 H2 1_555 1_555
C4 C5 1_555 1_555
C5 C11 1_555 1_555
C6 C2 1_555 1_555
H3 C6 1_555 1_555
C7 N2 1_555 1_555
C8 C4 1_555 1_555
H4 C8 1_555 1_555
H5 C8 1_555 1_555
H6 C8 1_555 1_555
C9 C7 1_555 1_555
C10 C26 1_555 1_555
C11 H7 1_555 1_555
C12 H8 1_555 1_555
H9 C12 1_555 1_555
C13 C1 1_555 1_555
H10 C13 1_555 1_555
H11 C13 1_555 1_555
H12 C13 1_555 1_555
C14 C24 1_555 1_555
C15 C5 1_555 1_555
H13 C15 1_555 1_555
C16 H14 1_555 1_555
H15 C16 1_555 1_555
C17 N1 1_555 1_555
H16 C17 1_555 1_555
C18 C12 1_555 1_555
H17 C18 1_555 1_555
H18 C18 1_555 1_555
C19 C9 1_555 1_555
H19 C19 1_555 1_555
C20 C11 1_555 1_555
C21 C2 1_555 1_555
H20 C21 1_555 1_555
H21 C21 1_555 1_555
C22 C6 1_555 1_555
H22 C22 1_555 1_555
H23 C22 1_555 1_555
C23 C3 1_555 1_555
H24 C23 1_555 1_555
H25 C23 1_555 1_555
C24 H26 1_555 1_555
H27 C24 1_555 1_555
H28 C24 1_555 1_555
C25 C12 1_555 1_555
H29 C25 1_555 1_555
H30 C25 1_555 1_555
C26 H31 1_555 1_555
C27 C16 1_555 1_555
H32 C27 1_555 1_555
H33 C27 1_555 1_555
C28 C7 1_555 1_555
H34 C28 1_555 1_555
H35 C28 1_555 1_555
H36 C28 1_555 1_555
N5 C35 1_555 1_555
N6 C32 1_555 1_555
C29 C34 1_555 1_555
C30 H37 1_555 1_555
C31 C30 1_555 1_555
C32 C42 1_555 1_555
C33 H38 1_555 1_555
H39 C33 1_555 1_555
C34 C31 1_555 1_555
H40 C34 1_555 1_555
N7 C36 1_555 1_555
N8 C38 1_555 1_555
C35 C31 1_555 1_555
C36 H41 1_555 1_555
C37 C29 1_555 1_555
H42 C37 1_555 1_555
C38 C33 1_555 1_555
H43 C38 1_555 1_555
C39 N6 1_555 1_555
H44 C39 1_555 1_555
C40 N5 1_555 1_555
H45 C40 1_555 1_555
C41 C29 1_555 1_555
C42 H46 1_555 1_555
H47 C42 1_555 1_555
H48 C42 1_555 1_555
C43 H49 1_555 1_555
C44 N8 1_555 1_555
C45 C30 1_555 1_555
C46 C32 1_555 1_555
C47 C44 1_555 1_555
H50 C47 1_555 1_555
H51 C47 1_555 1_555
H52 C47 1_555 1_555
C48 H53 1_555 1_555
H54 C48 1_555 1_555
C49 C39 1_555 1_555
H55 C49 1_555 1_555
H56 C49 1_555 1_555
C50 H57 1_555 1_555
H58 C50 1_555 1_555
C51 C35 1_555 1_555
H59 C51 1_555 1_555
H60 C51 1_555 1_555
H61 C51 1_555 1_555
C52 C36 1_555 1_555
H62 C52 1_555 1_555
H63 C52 1_555 1_555
C53 C40 1_555 1_555
H64 C53 1_555 1_555
H65 C53 1_555 1_555
C54 C48 1_555 1_555
H66 C54 1_555 1_555
H67 C54 1_555 1_555
C55 C41 1_555 1_555
H68 C55 1_555 1_555
H69 C55 1_555 1_555
H70 C55 1_555 1_555
C56 C33 1_555 1_555
H71 C56 1_555 1_555
H72 C56 1_555 1_555
N9 C59 1_555 1_555
N10 C62 1_555 1_555
N11 C69 1_555 1_555
C57 H73 1_555 1_555
C58 H74 1_555 1_555
H75 C58 1_555 1_555
C59 C64 1_555 1_555
C60 H76 1_555 1_555
C61 C57 1_555 1_555
N12 C65 1_555 1_555
C62 C58 1_555 1_555
H77 C62 1_555 1_555
C63 C60 1_555 1_555
C64 C57 1_555 1_555
C65 C68 1_555 1_555
C66 C59 1_555 1_555
H78 C66 1_555 1_555
H79 C66 1_555 1_555
H80 C66 1_555 1_555
C67 C61 1_555 1_555
H81 C67 1_555 1_555
C68 H82 1_555 1_555
H83 C68 1_555 1_555
H84 C68 1_555 1_555
C69 C61 1_555 1_555
C70 N10 1_555 1_555
C71 H85 1_555 1_555
H86 C71 1_555 1_555
C72 C69 1_555 1_555
H87 C72 1_555 1_555
H88 C72 1_555 1_555
H89 C72 1_555 1_555
C73 H90 1_555 1_555
H91 C73 1_555 1_555
C74 H92 1_555 1_555
C75 N12 1_555 1_555
H93 C75 1_555 1_555
C76 H94 1_555 1_555
H95 C76 1_555 1_555
C77 N9 1_555 1_555
H96 C77 1_555 1_555
C78 C58 1_555 1_555
H97 C78 1_555 1_555
H98 C78 1_555 1_555
C79 C76 1_555 1_555
H99 C79 1_555 1_555
H100 C79 1_555 1_555
C80 C70 1_555 1_555
H101 C80 1_555 1_555
H102 C80 1_555 1_555
H103 C80 1_555 1_555
C81 C62 1_555 1_555
H104 C81 1_555 1_555
C82 C73 1_555 1_555
H105 C82 1_555 1_555
H106 C82 1_555 1_555
C83 C71 1_555 1_555
H107 C83 1_555 1_555
H108 C83 1_555 1_555
C84 C65 1_555 1_555
N1A C14A 1_555 1_555
N2A C3A 1_555 1_555
N3A C1A 1_555 1_555
C1A C10A 1_555 1_555
C2A N3A 1_555 1_555
H1A C2A 1_555 1_555
N4A C4A 1_555 1_555
C3A H2A 1_555 1_555
C4A C5A 1_555 1_555
C5A C11A 1_555 1_555
C6A C2A 1_555 1_555
H3A C6A 1_555 1_555
C7A N2A 1_555 1_555
C8A C4A 1_555 1_555
H4A C8A 1_555 1_555
H5A C8A 1_555 1_555
H6A C8A 1_555 1_555
C9A C7A 1_555 1_555
C10A C26 1_555 1_555
C11A H7A 1_555 1_555
C12A H8A 1_555 1_555
H9A C12A 1_555 1_555
C13A C1A 1_555 1_555
H10A C13A 1_555 1_555
H11A C13A 1_555 1_555
H12A C13A 1_555 1_555
C14A C20 1_555 1_555
C15A C5A 1_555 1_555
H13A C15A 1_555 1_555
C16A H14A 1_555 1_555
H15A C16A 1_555 1_555
C17A N1A 1_555 1_555
H16A C17A 1_555 1_555
C18A C12A 1_555 1_555
H17A C18A 1_555 1_555
H18A C18A 1_555 1_555
C19A C9A 1_555 1_555
H19A C19A 1_555 1_555
C20A C11A 1_555 1_555
C21A C2A 1_555 1_555
H20A C21A 1_555 1_555
H21A C21A 1_555 1_555
C22A C6A 1_555 1_555
H22A C22A 1_555 1_555
H23A C22A 1_555 1_555
C23A C3A 1_555 1_555
H24A C23A 1_555 1_555
H25A C23A 1_555 1_555
C24A C14A 1_555 1_555
H26A C24A 1_555 1_555
H27A C24A 1_555 1_555
H28A C24A 1_555 1_555
C25A C12A 1_555 1_555
H29A C25A 1_555 1_555
H30A C25A 1_555 1_555
C26A C10A 1_555 1_555
H31A C26A 1_555 1_555
C27A C16A 1_555 1_555
H32A C27A 1_555 1_555
H33A C27A 1_555 1_555
C28A C7A 1_555 1_555
H34A C28A 1_555 1_555
H35A C28A 1_555 1_555
H36A C28A 1_555 1_555
N1B C14B 1_555 1_555
N2B C3B 1_555 1_555
N3B C1B 1_555 1_555
C1B C10B 1_555 1_555
C2B N3B 1_555 1_555
H1B C2B 1_555 1_555
N4B C4B 1_555 1_555
C3B H2B 1_555 1_555
C4B C5B 1_555 1_555
C5B C11B 1_555 1_555
C6B C2B 1_555 1_555
H3B C6B 1_555 1_555
C7B N2B 1_555 1_555
C8B C4B 1_555 1_555
H4B C8B 1_555 1_555
H5B C8B 1_555 1_555
H6B C8B 1_555 1_555
C9B C7B 1_555 1_555
C10B C26A 1_555 1_555
C11B H7B 1_555 1_555
C12B H8B 1_555 1_555
H9B C12B 1_555 1_555
C13B C1B 1_555 1_555
H10B C13B 1_555 1_555
H11B C13B 1_555 1_555
H12B C13B 1_555 1_555
C14B C20A 1_555 1_555
C15B C5B 1_555 1_555
H13B C15B 1_555 1_555
C16B H14B 1_555 1_555
H15B C16B 1_555 1_555
C17B N1B 1_555 1_555
H16B C17B 1_555 1_555
C18B C12B 1_555 1_555
H17B C18B 1_555 1_555
H18B C18B 1_555 1_555
C19B C9B 1_555 1_555
H19B C19B 1_555 1_555
C20B C14 1_555 1_555
C21B C2B 1_555 1_555
H20B C21B 1_555 1_555
H21B C21B 1_555 1_555
C22B C6B 1_555 1_555
H22B C22B 1_555 1_555
H23B C22B 1_555 1_555
C23B C3B 1_555 1_555
H24B C23B 1_555 1_555
H25B C23B 1_555 1_555
C24B C14B 1_555 1_555
H26B C24B 1_555 1_555
H27B C24B 1_555 1_555
H28B C24B 1_555 1_555
C25B C12B 1_555 1_555
H29B C25B 1_555 1_555
H30B C25B 1_555 1_555
C26B C10 1_555 1_555
H31B C26B 1_555 1_555
C27B C16B 1_555 1_555
H32B C27B 1_555 1_555
H33B C27B 1_555 1_555
C28B C7B 1_555 1_555
H34B C28B 1_555 1_555
H35B C28B 1_555 1_555
H36B C28B 1_555 1_555
N5A C35A 1_555 1_555
N6A C32A 1_555 1_555
C29A C34A 1_555 1_555
C30A H37A 1_555 1_555
C31A C30A 1_555 1_555
C32A C42A 1_555 1_555
C33A H38A 1_555 1_555
H39A C33A 1_555 1_555
C34A C31A 1_555 1_555
H40A C34A 1_555 1_555
N7A C36A 1_555 1_555
N8A C38A 1_555 1_555
C35A C31A 1_555 1_555
C36A H41A 1_555 1_555
C37A C29A 1_555 1_555
H42A C37A 1_555 1_555
C38A C33A 1_555 1_555
H43A C38A 1_555 1_555
C39A N6A 1_555 1_555
H44A C39A 1_555 1_555
C40A N5A 1_555 1_555
H45A C40A 1_555 1_555
C41A C29A 1_555 1_555
C42A H46A 1_555 1_555
H47A C42A 1_555 1_555
H48A C42A 1_555 1_555
C43A H49A 1_555 1_555
C44A C45 1_555 1_555
C45A C30A 1_555 1_555
C46A C43 1_555 1_555
C47A C44A 1_555 1_555
H50A C47A 1_555 1_555
H51A C47A 1_555 1_555
H52A C47A 1_555 1_555
C48A H53A 1_555 1_555
H54A C48A 1_555 1_555
C49A C39A 1_555 1_555
H55A C49A 1_555 1_555
H56A C49A 1_555 1_555
C50A H57A 1_555 1_555
H58A C50A 1_555 1_555
C51A C35A 1_555 1_555
H59A C51A 1_555 1_555
H60A C51A 1_555 1_555
H61A C51A 1_555 1_555
C52A C36A 1_555 1_555
H62A C52A 1_555 1_555
H63A C52A 1_555 1_555
C53A C40A 1_555 1_555
H64A C53A 1_555 1_555
H65A C53A 1_555 1_555
C54A C48A 1_555 1_555
H66A C54A 1_555 1_555
H67A C54A 1_555 1_555
C55A C41A 1_555 1_555
H68A C55A 1_555 1_555
H69A C55A 1_555 1_555
H70A C55A 1_555 1_555
C56A C33A 1_555 1_555
H71A C56A 1_555 1_555
H72A C56A 1_555 1_555
N5B C35B 1_555 1_555
N6B C32B 1_555 1_555
C29B C34B 1_555 1_555
C30B H37B 1_555 1_555
C31B C30B 1_555 1_555
C32B C42B 1_555 1_555
C33B H38B 1_555 1_555
H39B C33B 1_555 1_555
C34B C31B 1_555 1_555
H40B C34B 1_555 1_555
N7B C36B 1_555 1_555
N8B C38B 1_555 1_555
C35B C31B 1_555 1_555
C36B H41B 1_555 1_555
C37B C29B 1_555 1_555
H42B C37B 1_555 1_555
C38B C33B 1_555 1_555
H43B C38B 1_555 1_555
C39B N6B 1_555 1_555
H44B C39B 1_555 1_555
C40B N5B 1_555 1_555
H45B C40B 1_555 1_555
C41B C29B 1_555 1_555
C42B H46B 1_555 1_555
H47B C42B 1_555 1_555
H48B C42B 1_555 1_555
C43B C46 1_555 1_555
H49B C43B 1_555 1_555
C44B C45A 1_555 1_555
C45B C44 1_555 1_555
C46B C43A 1_555 1_555
C47B C44B 1_555 1_555
H50B C47B 1_555 1_555
H51B C47B 1_555 1_555
H52B C47B 1_555 1_555
C48B H53B 1_555 1_555
H54B C48B 1_555 1_555
C49B C39B 1_555 1_555
H55B C49B 1_555 1_555
H56B C49B 1_555 1_555
C50B H57B 1_555 1_555
H58B C50B 1_555 1_555
C51B C35B 1_555 1_555
H59B C51B 1_555 1_555
H60B C51B 1_555 1_555
H61B C51B 1_555 1_555
C52B C36B 1_555 1_555
H62B C52B 1_555 1_555
H63B C52B 1_555 1_555
C53B C40B 1_555 1_555
H64B C53B 1_555 1_555
H65B C53B 1_555 1_555
C54B C48B 1_555 1_555
H66B C54B 1_555 1_555
H67B C54B 1_555 1_555
C55B C41B 1_555 1_555
H68B C55B 1_555 1_555
H69B C55B 1_555 1_555
H70B C55B 1_555 1_555
C56B C33B 1_555 1_555
H71B C56B 1_555 1_555
H72B C56B 1_555 1_555
N9A C59A 1_555 1_555
N10A C62A 1_555 1_555
N11A C69A 1_555 1_555
C57A H73A 1_555 1_555
C58A H74A 1_555 1_555
H75A C58A 1_555 1_555
C59A C64A 1_555 1_555
C60A H76A 1_555 1_555
C61A C57A 1_555 1_555
N12A C65A 1_555 1_555
C62A C58A 1_555 1_555
H77A C62A 1_555 1_555
C63A C60A 1_555 1_555
C64A C57A 1_555 1_555
C65A C68A 1_555 1_555
C66A C59A 1_555 1_555
H78A C66A 1_555 1_555
H79A C66A 1_555 1_555
H80A C66A 1_555 1_555
C67A C61A 1_555 1_555
H81A C67A 1_555 1_555
C68A H82A 1_555 1_555
H83A C68A 1_555 1_555
H84A C68A 1_555 1_555
C69A C61A 1_555 1_555
C70A N10A 1_555 1_555
C71A H85A 1_555 1_555
H86A C71A 1_555 1_555
C72A C69A 1_555 1_555
H87A C72A 1_555 1_555
H88A C72A 1_555 1_555
H89A C72A 1_555 1_555
C73A H90A 1_555 1_555
H91A C73A 1_555 1_555
C74A H92A 1_555 1_555
C75A N12A 1_555 1_555
H93A C75A 1_555 1_555
C76A H94A 1_555 1_555
H95A C76A 1_555 1_555
C77A N9A 1_555 1_555
H96A C77A 1_555 1_555
C78A C58A 1_555 1_555
H97A C78A 1_555 1_555
H98A C78A 1_555 1_555
C79A C76A 1_555 1_555
H99A C79A 1_555 1_555
H100A C79A 1_555 1_555
C80A C70A 1_555 1_555
H101A C80A 1_555 1_555
H102A C80A 1_555 1_555
H103A C80A 1_555 1_555
C81A N11 1_555 1_555
H104A C81A 1_555 1_555
C82A C73A 1_555 1_555
H105A C82A 1_555 1_555
H106A C82A 1_555 1_555
C83A C71A 1_555 1_555
H107A C83A 1_555 1_555
H108A C83A 1_555 1_555
C84A C74 1_555 1_555
N9B C59B 1_555 1_555
N10B C62B 1_555 1_555
N11B C81 1_555 1_555
C57B H73B 1_555 1_555
C58B H74B 1_555 1_555
H75B C58B 1_555 1_555
C59B C64B 1_555 1_555
C60B H76B 1_555 1_555
C61B C57B 1_555 1_555
N12B C65B 1_555 1_555
C62B C58B 1_555 1_555
H77B C62B 1_555 1_555
C63B C60B 1_555 1_555
C64B C57B 1_555 1_555
C65B C68B 1_555 1_555
C66B C59B 1_555 1_555
H78B C66B 1_555 1_555
H79B C66B 1_555 1_555
H80B C66B 1_555 1_555
C67B C61B 1_555 1_555
H81B C67B 1_555 1_555
C68B H82B 1_555 1_555
H83B C68B 1_555 1_555
H84B C68B 1_555 1_555
C69B N11B 1_555 1_555
C70B N10B 1_555 1_555
C71B H85B 1_555 1_555
H86B C71B 1_555 1_555
C72B C69B 1_555 1_555
H87B C72B 1_555 1_555
H88B C72B 1_555 1_555
H89B C72B 1_555 1_555
C73B H90B 1_555 1_555
H91B C73B 1_555 1_555
C74B C84 1_555 1_555
H92B C74B 1_555 1_555
C75B N12B 1_555 1_555
H93B C75B 1_555 1_555
C76B H94B 1_555 1_555
H95B C76B 1_555 1_555
C77B N9B 1_555 1_555
H96B C77B 1_555 1_555
C78B C58B 1_555 1_555
H97B C78B 1_555 1_555
H98B C78B 1_555 1_555
C79B C76B 1_555 1_555
H99B C79B 1_555 1_555
H100B C79B 1_555 1_555
C80B C70B 1_555 1_555
H101B C80B 1_555 1_555
H102B C80B 1_555 1_555
H103B C80B 1_555 1_555
C81B N11A 1_555 1_555
H104B C81B 1_555 1_555
C82B C73B 1_555 1_555
H105B C82B 1_555 1_555
H106B C82B 1_555 1_555
C83B C71B 1_555 1_555
H107B C83B 1_555 1_555
H108B C83B 1_555 1_555
C84B C74A 1_555 1_555
N4 C6 1_555 1_555
C3 C17 1_555 1_555
C9 C15 1_555 1_555
C16 C21 1_555 1_555
C17 C25 1_555 1_555
C18 C23 1_555 1_555
C19 C20 1_555 1_555
C22 C27 1_555 1_555
N7 C41 1_555 1_555
C36 C38 1_555 1_555
C37 C45 1_555 1_555
C39 C40 1_555 1_555
C43 C46 1_555 1_555
C48 C53 1_555 1_555
C49 C54 1_555 1_555
C50 C52 1_555 1_555
C50 C56 1_555 1_555
C60 C64 1_555 1_555
C63 C67 1_555 1_555
C63 C70 1_555 1_555
C71 C75 1_555 1_555
C73 C81 1_555 1_555
C74 C84 1_555 1_555
C75 C77 1_555 1_555
C76 C77 1_555 1_555
C78 C82 1_555 1_555
C79 C83 1_555 1_555
N4A C6A 1_555 1_555
C3A C17A 1_555 1_555
C9A C15A 1_555 1_555
C16A C21A 1_555 1_555
C17A C25A 1_555 1_555
C18A C23A 1_555 1_555
C19A C20A 1_555 1_555
C22A C27A 1_555 1_555
N4B C6B 1_555 1_555
C3B C17B 1_555 1_555
C9B C15B 1_555 1_555
C10B C26B 1_555 1_555
C11B C20B 1_555 1_555
C16B C21B 1_555 1_555
C17B C25B 1_555 1_555
C18B C23B 1_555 1_555
C19B C20B 1_555 1_555
C22B C27B 1_555 1_555
C32A C46A 1_555 1_555
N7A C41A 1_555 1_555
N8A C44A 1_555 1_555
C36A C38A 1_555 1_555
C37A C45A 1_555 1_555
C39A C40A 1_555 1_555
C43A C46A 1_555 1_555
C48A C53A 1_555 1_555
C49A C54A 1_555 1_555
C50A C52A 1_555 1_555
C50A C56A 1_555 1_555
C30B C45B 1_555 1_555
C32B C46B 1_555 1_555
N7B C41B 1_555 1_555
N8B C44B 1_555 1_555
C36B C38B 1_555 1_555
C37B C45B 1_555 1_555
C39B C40B 1_555 1_555
C43B C46B 1_555 1_555
C48B C53B 1_555 1_555
C49B C54B 1_555 1_555
C50B C52B 1_555 1_555
C50B C56B 1_555 1_555
C60A C64A 1_555 1_555
C62A C81A 1_555 1_555
C63A C67A 1_555 1_555
C63A C70A 1_555 1_555
C65A C84A 1_555 1_555
C71A C75A 1_555 1_555
C73A C81A 1_555 1_555
C74A C84A 1_555 1_555
C75A C77A 1_555 1_555
C76A C77A 1_555 1_555
C78A C82A 1_555 1_555
C79A C83A 1_555 1_555
C60B C64B 1_555 1_555
C61B C69B 1_555 1_555
C62B C81B 1_555 1_555
C63B C67B 1_555 1_555
C63B C70B 1_555 1_555
C65B C84B 1_555 1_555
C71B C75B 1_555 1_555
C73B C81B 1_555 1_555
C74B C84B 1_555 1_555
C75B C77B 1_555 1_555
C76B C77B 1_555 1_555
C78B C82B 1_555 1_555
C79B C83B 1_555 1_555

#END
