
#######################################################################
#
#                 Cambridge Crystallographic Data Centre
#                                CCDC 
#
#######################################################################
#
# If this CIF has been generated from an entry in the Cambridge 
# Structural Database, then it will include bibliographic, chemical, 
# crystal, experimental, refinement or atomic coordinate data resulting 
# from the CCDC's data processing and validation procedures.
#
#######################################################################

data_SENPOT
_chemical_formula_moiety         'C84 H108 N12,C1 H2 Cl2,1.5(C4 H10 O1)'
_chemical_name_systematic        
'4,13,19,28,34,43,49,58,61,70,73,82-dodecamethyl-5,12,20,27,35,42,50,57,62,69,74,81-dodecaazatridecacyclo[29.29.10.10^16,46^.1^3,59^.1^14,18^.1^29,33^.1^44,48^.0^6,11^.0^21,26^.0^36,41^.0^51,56^.0^63,68^.0^75,80^]tetraoctaconta-1,3(71),4,12,14(84),15,17,19,27,29(83),30,32,34,42,44(72),45,47,49,57,59,61,69,73,81-tetracosaene dichloromethane diethyl ether solvate'
_symmetry_cell_setting           rhombohedral
_symmetry_space_group_name_H-M   'R 3'
_symmetry_Int_Tables_number      146
_space_group_name_Hall           'R 3'
loop_
_symmetry_equiv_pos_site_id
_symmetry_equiv_pos_as_xyz
1 x,y,z
2 -y,x-y,z
3 -x+y,-x,z
4 2/3+x,1/3+y,1/3+z
5 2/3-y,1/3+x-y,1/3+z
6 2/3-x+y,1/3-x,1/3+z
7 1/3+x,2/3+y,2/3+z
8 1/3-y,2/3+x-y,2/3+z
9 1/3-x+y,2/3-x,2/3+z
_cell_length_a                   26.80(2)
_cell_length_b                   26.80(2)
_cell_length_c                   11.403(9)
_cell_angle_alpha                90
_cell_angle_beta                 90
_cell_angle_gamma                120
_cell_volume                     7092.83
_exptl_crystal_colour            colorless
_exptl_crystal_description       needle
_cell_formula_units_Z            3
loop_
_atom_site_label
_atom_site_type_symbol
_atom_site_fract_x
_atom_site_fract_y
_atom_site_fract_z
N1 N 0.4973(2) 0.6425(2) 0.2174(4)
N2 N 0.3931(2) 0.5281(2) 0.2070(4)
N3 N 0.56596(19) 0.7991(2) 0.6608(4)
N4 N 0.48932(16) 0.74305(19) 0.8549(4)
C1 C 0.4817(2) 0.7374(2) 0.2632(5)
H1 H 0.4698 0.7199 0.1902
C2 C 0.5205(2) 0.7912(2) 0.4796(5)
C3 C 0.5201(2) 0.7405(2) 0.4535(5)
H2 H 0.5334 0.7248 0.5096
C4 C 0.5009(2) 0.7127(2) 0.3482(5)
C5 C 0.4802(2) 0.7865(2) 0.2864(4)
C6 C 0.5006(2) 0.8145(2) 0.3938(5)
H3 H 0.5009 0.8488 0.4085
C7 C 0.5400(2) 0.8182(2) 0.6001(5)
C8 C 0.5229(4) 0.8614(3) 0.6379(7)
H4 H 0.5037 0.8684 0.5744
H5 H 0.4975 0.8466 0.7040
H6 H 0.5568 0.8968 0.6592
C9 C 0.4994(3) 0.6570(3) 0.3224(5)
C10 C 0.4988(6) 0.6222(4) 0.4263(7)
H7 H 0.5008 0.6424 0.4972
H8 H 0.4639 0.5855 0.4258
H9 H 0.5314 0.6165 0.4222
C11 C 0.4565(2) 0.8113(2) 0.1965(5)
C12 C 0.4144(3) 0.7685(3) 0.1068(6)
H10 H 0.4108 0.7315 0.1189
H11 H 0.3774 0.7655 0.1161
H12 H 0.4285 0.7818 0.0290
C13 C 0.4977(3) 0.5898(3) 0.1831(6)
H13 H 0.5031 0.5717 0.2530
C14 C 0.5473(3) 0.6055(4) 0.0977(8)
H14 H 0.5428 0.6257 0.0316
H15 H 0.5831 0.6320 0.1367
C15 C 0.5523(4) 0.5573(4) 0.0529(10)
H16 H 0.5631 0.5404 0.1162
H17 H 0.5823 0.5710 -0.0063
C16 C 0.4965(4) 0.5129(4) 0.0011(8)
H18 H 0.4990 0.4789 -0.0169
H19 H 0.4906 0.5276 -0.0722
C17 C 0.4438(4) 0.4953(3) 0.0809(8)
H20 H 0.4090 0.4696 0.0381
H21 H 0.4463 0.4745 0.1482
C18 C 0.4397(3) 0.5471(3) 0.1234(5)
H22 H 0.4327 0.5658 0.0567
C19 C 0.5832(2) 0.8158(2) 0.7832(5)
H23 H 0.5739 0.8454 0.8069
C20 C 0.6491(3) 0.8399(3) 0.7930(6)
H24 H 0.6587 0.8127 0.7581
H25 H 0.6693 0.8757 0.7494
C21 C 0.6693(3) 0.8507(4) 0.9202(7)
H26 H 0.7095 0.8610 0.9232
H27 H 0.6665 0.8831 0.9501
C22 C 0.6349(3) 0.7994(4) 0.9980(7)
H28 H 0.6465 0.8106 1.0787
H29 H 0.6440 0.7697 0.9781
C23 C 0.5706(3) 0.7748(3) 0.9884(5)
H30 H 0.5604 0.8017 1.0217
H31 H 0.5510 0.7392 1.0328
C24 C 0.5509(2) 0.7628(3) 0.8599(5)
H32 H 0.5573 0.7323 0.8297
C25 C 0.37808(19) 0.7234(2) 0.8162(4)
H33 H 0.4080 0.7614 0.8152
C26 C 0.39086(18) 0.67898(19) 0.8169(4)
C27 C 0.4520(2) 0.69252(19) 0.8198(4)
C28 C 0.4654(3) 0.6465(3) 0.7794(9)
H34 H 0.4302 0.6124 0.7576
H35 H 0.4908 0.6604 0.7130
H36 H 0.4835 0.6375 0.8420
N1A N 0.3575(2) 0.8548(3) 0.2174(4)
N2A N 0.4719(2) 0.8650(3) 0.2070(4)
N3A N 0.2009(2) 0.76686(28) 0.6608(4)
N4A N 0.25695(19) 0.74627(25) 0.8549(4)
C1A C 0.2626(2) 0.7443(3) 0.2632(5)
H1A H 0.2801 0.7499 0.1902
C2A C 0.2088(2) 0.7293(3) 0.4796(5)
C3A C 0.2595(2) 0.7796(3) 0.4535(5)
H2A H 0.2752 0.8086 0.5096
C4A C 0.2873(2) 0.7882(3) 0.3482(5)
C5A C 0.2135(2) 0.6937(3) 0.2864(4)
C6A C 0.1855(2) 0.6861(3) 0.3938(5)
H3A H 0.1512 0.6521 0.4085
C7A C 0.1818(2) 0.7218(3) 0.6001(5)
C8A C 0.1386(3) 0.6615(5) 0.6379(7)
H4A H 0.1316 0.6353 0.5744
H5A H 0.1534 0.6509 0.7040
H6A H 0.1032 0.6600 0.6592
C9A C 0.3430(3) 0.8424(4) 0.3224(5)
C10A C 0.3778(4) 0.8766(7) 0.4263(7)
H7A H 0.3576 0.8584 0.4972
H8A H 0.4145 0.8784 0.4258
H9A H 0.3835 0.9149 0.4222
C11A C 0.1887(2) 0.6452(3) 0.1965(5)
C12A C 0.2315(3) 0.6459(4) 0.1068(6)
H10A H 0.2685 0.6793 0.1189
H11A H 0.2345 0.6119 0.1161
H12A H 0.2182 0.6467 0.0290
C13A C 0.4102(3) 0.9079(4) 0.1831(6)
H13A H 0.4283 0.9314 0.2530
C14A C 0.3945(4) 0.9418(5) 0.0977(8)
H14A H 0.3743 0.9171 0.0316
H15A H 0.3680 0.9511 0.1367
C15A C 0.4427(4) 0.9950(6) 0.0529(10)
H16A H 0.4596 1.0227 0.1162
H17A H 0.4290 1.0113 -0.0063
C16A C 0.4871(4) 0.9836(6) 0.0011(8)
H18A H 0.5211 1.0201 -0.0169
H19A H 0.4724 0.9630 -0.0722
C17A C 0.5047(3) 0.9485(5) 0.0809(8)
H20A H 0.5304 0.9394 0.0381
H21A H 0.5255 0.9718 0.1482
C18A C 0.4529(3) 0.8926(4) 0.1234(5)
H22A H 0.4342 0.8669 0.0567
C19A C 0.1842(2) 0.7674(3) 0.7832(5)
H23A H 0.1546 0.7285 0.8069
C20A C 0.1601(3) 0.8092(4) 0.7930(6)
H24A H 0.1873 0.8460 0.7581
H25A H 0.1243 0.7936 0.7494
C21A C 0.1493(4) 0.8186(5) 0.9202(7)
H26A H 0.1390 0.8485 0.9232
H27A H 0.1169 0.7834 0.9501
C22A C 0.2006(4) 0.8355(5) 0.9980(7)
H28A H 0.1894 0.8359 1.0787
H29A H 0.2303 0.8743 0.9781
C23A C 0.2252(3) 0.7958(4) 0.9884(5)
H30A H 0.1983 0.7587 1.0217
H31A H 0.2608 0.8118 1.0328
C24A C 0.2372(3) 0.7881(4) 0.8599(5)
H32A H 0.2677 0.8250 0.8297
C25A C 0.2766(2) 0.65468(28) 0.8162(4)
H33A H 0.2386 0.6466 0.8152
C26A C 0.32102(19) 0.71188(26) 0.8169(4)
C27A C 0.30748(19) 0.75948(28) 0.8198(4)
C28A C 0.3535(3) 0.8189(4) 0.7794(9)
H34A H 0.3876 0.8178 0.7576
H35A H 0.3396 0.8304 0.7130
H36A H 0.3625 0.8460 0.8420
N1B N 0.1452(3) 0.5027(2) 0.2174(4)
N2B N 0.1350(3) 0.6069(2) 0.2070(4)
N3B N 0.23314(28) 0.43404(19) 0.6608(4)
N4B N 0.25373(25) 0.51068(16) 0.8549(4)
C1B C 0.2557(3) 0.5183(2) 0.2632(5)
H1B H 0.2501 0.5302 0.1902
C2B C 0.2707(3) 0.4795(2) 0.4796(5)
C3B C 0.2204(3) 0.4799(2) 0.4535(5)
H2B H 0.1914 0.4666 0.5096
C4B C 0.2118(3) 0.4991(2) 0.3482(5)
C5B C 0.3063(3) 0.5198(2) 0.2864(4)
C6B C 0.3139(3) 0.4994(2) 0.3938(5)
H3B H 0.3479 0.4991 0.4085
C7B C 0.2782(3) 0.4600(2) 0.6001(5)
C8B C 0.3385(5) 0.4771(4) 0.6379(7)
H4B H 0.3647 0.4963 0.5744
H5B H 0.3491 0.5025 0.7040
H6B H 0.3400 0.4432 0.6592
C9B C 0.1576(4) 0.5006(3) 0.3224(5)
C10B C 0.1234(7) 0.5012(6) 0.4263(7)
H7B H 0.1416 0.4992 0.4972
H8B H 0.1216 0.5361 0.4258
H9B H 0.0851 0.4686 0.4222
C11B C 0.3548(3) 0.5435(2) 0.1965(5)
C12B C 0.3541(4) 0.5856(3) 0.1068(6)
H10B H 0.3207 0.5892 0.1189
H11B H 0.3881 0.6226 0.1161
H12B H 0.3533 0.5715 0.0290
C13B C 0.0921(4) 0.5023(3) 0.1831(6)
H13B H 0.0686 0.4969 0.2530
C14B C 0.0582(5) 0.4527(3) 0.0977(8)
H14B H 0.0829 0.4572 0.0316
H15B H 0.0489 0.4169 0.1367
C15B C 0.0050(6) 0.4477(4) 0.0529(10)
H16B H -0.0227 0.4369 0.1162
H17B H -0.0113 0.4177 -0.0063
C16B C 0.0164(6) 0.5035(4) 0.0011(8)
H18B H -0.0201 0.5010 -0.0169
H19B H 0.0370 0.5094 -0.0722
C17B C 0.0515(5) 0.5562(4) 0.0809(8)
H20B H 0.0606 0.5910 0.0381
H21B H 0.0282 0.5537 0.1482
C18B C 0.1074(4) 0.5603(3) 0.1234(5)
H22B H 0.1331 0.5673 0.0567
C19B C 0.2326(3) 0.4168(2) 0.7832(5)
H23B H 0.2715 0.4261 0.8069
C20B C 0.1908(4) 0.3509(3) 0.7930(6)
H24B H 0.1540 0.3413 0.7581
H25B H 0.2064 0.3307 0.7494
C21B C 0.1814(5) 0.3307(3) 0.9202(7)
H26B H 0.1515 0.2905 0.9232
H27B H 0.2166 0.3335 0.9501
C22B C 0.1645(5) 0.3651(3) 0.9980(7)
H28B H 0.1641 0.3535 1.0787
H29B H 0.1257 0.3560 0.9781
C23B C 0.2042(4) 0.4294(3) 0.9884(5)
H30B H 0.2413 0.4396 1.0217
H31B H 0.1882 0.4490 1.0328
C24B C 0.2119(4) 0.4491(2) 0.8599(5)
H32B H 0.1750 0.4427 0.8297
C25B C 0.34532(28) 0.62192(19) 0.8162(4)
H33B H 0.3534 0.5920 0.8152
C26B C 0.28812(26) 0.60914(18) 0.8169(4)
C27B C 0.24052(28) 0.5480(2) 0.8198(4)
C28B C 0.1811(4) 0.5346(3) 0.7794(9)
H34B H 0.1822 0.5698 0.7576
H35B H 0.1696 0.5092 0.7130
H36B H 0.1540 0.5165 0.8420
Cl1? Cl 0.3127(8) 0.6841(8) 0.516(2)
Cl2? Cl 0.3737(6) 0.6289(6) 0.5129(14)
C29? C 0.3461(11) 0.6569(11) 0.414(2)
H37? H 0.3180 0.6274 0.3624
H38? H 0.3761 0.6875 0.3676
O1? O 0.6613(13) 0.9925(11) 0.400(3)
C30? C 0.6641(11) 0.9648(12) 0.168(2)
H39? H 0.6468 0.9753 0.1059
H40? H 0.6678 0.9326 0.1433
H41? H 0.7015 0.9968 0.1853
C31? C 0.6226(13) 0.9470(14) 0.288(2)
H42? H 0.6101 0.9075 0.3094
H43? H 0.5886 0.9500 0.2715
loop_
_geom_bond_atom_site_label_1
_geom_bond_atom_site_label_2
_geom_bond_site_symmetry_1
_geom_bond_site_symmetry_2
N1 C9 1_555 1_555
N2 C18 1_555 1_555
N3 C7 1_555 1_555
N4 C24 1_555 1_555
C1 H1 1_555 1_555
C2 C3 1_555 1_555
C3 H2 1_555 1_555
C4 C1 1_555 1_555
C5 C1 1_555 1_555
C6 C2 1_555 1_555
H3 C6 1_555 1_555
C7 C2 1_555 1_555
C8 C7 1_555 1_555
H4 C8 1_555 1_555
H5 C8 1_555 1_555
H6 C8 1_555 1_555
C9 C4 1_555 1_555
C10 C9 1_555 1_555
H7 C10 1_555 1_555
H8 C10 1_555 1_555
H9 C10 1_555 1_555
C11 C5 1_555 1_555
C12 C11 1_555 1_555
H10 C12 1_555 1_555
H11 C12 1_555 1_555
H12 C12 1_555 1_555
C13 N1 1_555 1_555
H13 C13 1_555 1_555
C14 C13 1_555 1_555
H14 C14 1_555 1_555
H15 C14 1_555 1_555
C15 C14 1_555 1_555
H16 C15 1_555 1_555
H17 C15 1_555 1_555
C16 C15 1_555 1_555
H18 C16 1_555 1_555
H19 C16 1_555 1_555
C17 C16 1_555 1_555
H20 C17 1_555 1_555
H21 C17 1_555 1_555
C18 C13 1_555 1_555
H22 C18 1_555 1_555
C19 N3 1_555 1_555
H23 C19 1_555 1_555
C20 C19 1_555 1_555
H24 C20 1_555 1_555
H25 C20 1_555 1_555
C21 C20 1_555 1_555
H26 C21 1_555 1_555
H27 C21 1_555 1_555
C22 C21 1_555 1_555
H28 C22 1_555 1_555
H29 C22 1_555 1_555
C23 C22 1_555 1_555
H30 C23 1_555 1_555
H31 C23 1_555 1_555
C24 C19 1_555 1_555
H32 C24 1_555 1_555
C25 H33 1_555 1_555
C26 C25 1_555 1_555
C27 N4 1_555 1_555
C28 C27 1_555 1_555
H34 C28 1_555 1_555
H35 C28 1_555 1_555
H36 C28 1_555 1_555
N1A C9A 1_555 1_555
N2A C11 1_555 1_555
N3A C7A 1_555 1_555
N4A C24A 1_555 1_555
C1A H1A 1_555 1_555
C2A C3A 1_555 1_555
C3A H2A 1_555 1_555
C4A C1A 1_555 1_555
C5A C1A 1_555 1_555
C6A C2A 1_555 1_555
H3A C6A 1_555 1_555
C7A C2A 1_555 1_555
C8A C7A 1_555 1_555
H4A C8A 1_555 1_555
H5A C8A 1_555 1_555
H6A C8A 1_555 1_555
C9A C4A 1_555 1_555
C10A C9A 1_555 1_555
H7A C10A 1_555 1_555
H8A C10A 1_555 1_555
H9A C10A 1_555 1_555
C11A C5A 1_555 1_555
C12A C11A 1_555 1_555
H10A C12A 1_555 1_555
H11A C12A 1_555 1_555
H12A C12A 1_555 1_555
C13A N1A 1_555 1_555
H13A C13A 1_555 1_555
C14A C13A 1_555 1_555
H14A C14A 1_555 1_555
H15A C14A 1_555 1_555
C15A C14A 1_555 1_555
H16A C15A 1_555 1_555
H17A C15A 1_555 1_555
C16A C15A 1_555 1_555
H18A C16A 1_555 1_555
H19A C16A 1_555 1_555
C17A C16A 1_555 1_555
H20A C17A 1_555 1_555
H21A C17A 1_555 1_555
C18A N2A 1_555 1_555
H22A C18A 1_555 1_555
C19A N3A 1_555 1_555
H23A C19A 1_555 1_555
C20A C19A 1_555 1_555
H24A C20A 1_555 1_555
H25A C20A 1_555 1_555
C21A C20A 1_555 1_555
H26A C21A 1_555 1_555
H27A C21A 1_555 1_555
C22A C21A 1_555 1_555
H28A C22A 1_555 1_555
H29A C22A 1_555 1_555
C23A C22A 1_555 1_555
H30A C23A 1_555 1_555
H31A C23A 1_555 1_555
C24A C19A 1_555 1_555
H32A C24A 1_555 1_555
C25A H33A 1_555 1_555
C26A C25 1_555 1_555
C27A N4A 1_555 1_555
C28A C27A 1_555 1_555
H34A C28A 1_555 1_555
H35A C28A 1_555 1_555
H36A C28A 1_555 1_555
N1B C9B 1_555 1_555
N2B C11A 1_555 1_555
N3B C7B 1_555 1_555
N4B C24B 1_555 1_555
C1B H1B 1_555 1_555
C2B C3B 1_555 1_555
C3B H2B 1_555 1_555
C4B C1B 1_555 1_555
C5B C1B 1_555 1_555
C6B C2B 1_555 1_555
H3B C6B 1_555 1_555
C7B C2B 1_555 1_555
C8B C7B 1_555 1_555
H4B C8B 1_555 1_555
H5B C8B 1_555 1_555
H6B C8B 1_555 1_555
C9B C4B 1_555 1_555
C10B C9B 1_555 1_555
H7B C10B 1_555 1_555
H8B C10B 1_555 1_555
H9B C10B 1_555 1_555
C11B N2 1_555 1_555
C12B C11B 1_555 1_555
H10B C12B 1_555 1_555
H11B C12B 1_555 1_555
H12B C12B 1_555 1_555
C13B N1B 1_555 1_555
H13B C13B 1_555 1_555
C14B C13B 1_555 1_555
H14B C14B 1_555 1_555
H15B C14B 1_555 1_555
C15B C14B 1_555 1_555
H16B C15B 1_555 1_555
H17B C15B 1_555 1_555
C16B C15B 1_555 1_555
H18B C16B 1_555 1_555
H19B C16B 1_555 1_555
C17B C16B 1_555 1_555
H20B C17B 1_555 1_555
H21B C17B 1_555 1_555
C18B N2B 1_555 1_555
H22B C18B 1_555 1_555
C19B N3B 1_555 1_555
H23B C19B 1_555 1_555
C20B C19B 1_555 1_555
H24B C20B 1_555 1_555
H25B C20B 1_555 1_555
C21B C20B 1_555 1_555
H26B C21B 1_555 1_555
H27B C21B 1_555 1_555
C22B C21B 1_555 1_555
H28B C22B 1_555 1_555
H29B C22B 1_555 1_555
C23B C22B 1_555 1_555
H30B C23B 1_555 1_555
H31B C23B 1_555 1_555
C24B C19B 1_555 1_555
H32B C24B 1_555 1_555
C25B C26 1_555 1_555
H33B C25B 1_555 1_555
C26B C25A 1_555 1_555
C27B N4B 1_555 1_555
C28B C27B 1_555 1_555
H34B C28B 1_555 1_555
H35B C28B 1_555 1_555
H36B C28B 1_555 1_555
C3 C4 1_555 1_555
C5 C6 1_555 1_555
C17 C18 1_555 1_555
C23 C24 1_555 1_555
C26 C27 1_555 1_555
C3A C4A 1_555 1_555
C5A C6A 1_555 1_555
C13A C18A 1_555 1_555
C17A C18A 1_555 1_555
C23A C24A 1_555 1_555
C25A C26A 1_555 1_555
C26A C27A 1_555 1_555
C3B C4B 1_555 1_555
C5B C6B 1_555 1_555
C5B C11B 1_555 1_555
C13B C18B 1_555 1_555
C17B C18B 1_555 1_555
C23B C24B 1_555 1_555
C25B C26B 1_555 1_555
C26B C27B 1_555 1_555

#END
