
#######################################################################
#
#                 Cambridge Crystallographic Data Centre
#                                CCDC 
#
#######################################################################
#
# If this CIF has been generated from an entry in the Cambridge 
# Structural Database, then it will include bibliographic, chemical, 
# crystal, experimental, refinement or atomic coordinate data resulting 
# from the CCDC's data processing and validation procedures.
#
#######################################################################

data_SENQIO
_chemical_formula_moiety         'C84 H108 N12,3(C1 H2 Cl2),0.5(H2 O1)'
_chemical_name_systematic        
',13,19,28,34,43,49,58,61,70,73,82-dodecamethyl-5,12,20,27,35,42,50,57,62,69,74,81-dodecaazatridecacyclo[29.29.10.10^16,46^.1^3,59^.1^14,18^.1^29,33^.1^44,48^.0^6,11^.0^21,26^.0^36,41^.0^51,56^.0^63,68^.0^75,80^]tetraoctaconta-1,3(71),4,12,14(84),15,17,19,27,29(83),30,32,34,42,44(72),45,47,49,57,59,61,69,73,81-tetracosaene dichloromethane solvate hemihydrate'
_symmetry_cell_setting           triclinic
_symmetry_space_group_name_H-M   'P -1'
_symmetry_Int_Tables_number      2
_space_group_name_Hall           '-P 1'
loop_
_symmetry_equiv_pos_site_id
_symmetry_equiv_pos_as_xyz
1 x,y,z
2 -x,-y,-z
_cell_length_a                   14.0638(8)
_cell_length_b                   16.2235(9)
_cell_length_c                   21.9305(13)
_cell_angle_alpha                92.6404(17)
_cell_angle_beta                 106.7014(16)
_cell_angle_gamma                113.7812(16)
_cell_volume                     4310.22
_exptl_crystal_colour            colorless
_exptl_crystal_description       block
_cell_formula_units_Z            2
loop_
_atom_site_label
_atom_site_type_symbol
_atom_site_fract_x
_atom_site_fract_y
_atom_site_fract_z
N1 N 0.7249(2) 0.29298(17) 0.53302(12)
N2 N 0.8398(2) 0.21233(18) 0.48353(13)
N3 N 0.5251(2) 0.54720(17) 0.39047(12)
N4 N 0.5797(2) 0.61740(17) 0.27896(12)
N5 N 0.3300(2) 0.33119(18) 0.01544(12)
N6 N 0.1901(2) 0.13793(18) 0.00541(12)
N7 N 0.3756(2) -0.11134(18) 0.15065(13)
N8 N 0.6127(2) -0.04033(18) 0.20607(13)
N9 N 0.8432(2) 0.46744(18) 0.15662(14)
N10 N 0.9409(2) 0.36633(18) 0.23666(14)
N11 N 0.1037(2) 0.04092(17) 0.26874(13)
N12 N 0.2260(2) 0.15258(17) 0.39386(12)
C1 C 0.4140(3) 0.2347(2) 0.40729(14)
C2 C 0.3978(2) 0.3053(2) 0.37926(14)
H1 H 0.3255 0.2952 0.3539
C3 C 0.4858(2) 0.3905(2) 0.38770(14)
C4 C 0.5922(3) 0.4045(2) 0.42469(14)
H2 H 0.6525 0.4627 0.4313
C5 C 0.6104(2) 0.3342(2) 0.45177(14)
C6 C 0.5204(2) 0.2488(2) 0.44236(14)
H3 H 0.5325 0.2002 0.4602
C7 C 0.3150(2) 0.1462(2) 0.39987(14)
C8 C 0.3310(3) 0.0594(2) 0.39993(19)
H4 H 0.3543 0.0499 0.4446
H5 H 0.3877 0.0651 0.3807
H6 H 0.2614 0.0072 0.3746
C9 C 0.4659(3) 0.4656(2) 0.35774(15)
C10 C 0.3778(3) 0.4350(2) 0.29190(16)
H7 H 0.3050 0.4050 0.2967
H8 H 0.3882 0.3918 0.2648
H9 H 0.3830 0.4884 0.2714
C11 C 0.7231(3) 0.3467(2) 0.49195(14)
C12 C 0.8201(3) 0.4189(2) 0.47983(15)
H10 H 0.8374 0.4790 0.5031
H11 H 0.8022 0.4196 0.4333
H12 H 0.8839 0.4054 0.4952
C13 C 0.6190(3) 0.5373(2) 0.20450(16)
C14 C 0.5076(3) 0.4939(2) 0.16536(15)
H13 H 0.4557 0.5096 0.1764
C15 C 0.4720(2) 0.4280(2) 0.11049(14)
C16 C 0.5501(3) 0.4066(2) 0.09473(14)
H14 H 0.5270 0.3629 0.0569
C17 C 0.6605(2) 0.4479(2) 0.13326(14)
C18 C 0.6934(3) 0.5140(2) 0.18777(15)
H15 H 0.7690 0.5437 0.2139
C19 C 0.6524(3) 0.6036(3) 0.26477(18)
C20 C 0.3526(2) 0.3795(2) 0.06948(15)
C21 C 0.7450(3) 0.4234(2) 0.11960(15)
C22 C 0.2794(3) -0.0276(2) 0.16778(16)
C23 C 0.2946(3) 0.0133(2) 0.11414(15)
H16 H 0.3354 -0.0009 0.0911
C24 C 0.2507(3) 0.0741(2) 0.09452(15)
C25 C 0.1933(3) 0.0966(2) 0.13012(15)
H17 H 0.1643 0.1392 0.1173
C26 C 0.1781(3) 0.0578(2) 0.18361(15)
C27 C 0.2207(3) -0.0055(2) 0.20169(16)
H18 H 0.2092 -0.0337 0.2376
C28 C 0.3313(3) -0.0915(2) 0.18748(18)
C29 C 0.2663(3) 0.1171(2) 0.03693(15)
C30 C 0.3707(3) 0.1334(3) 0.0234(2)
H19 H 0.3594 0.0787 -0.0042
H20 H 0.4304 0.1465 0.0643
H21 H 0.3904 0.1857 0.0011
C31 C 0.1196(3) 0.0835(2) 0.22294(15)
C32 C 0.7701(3) 0.1705(2) 0.36895(15)
C33 C 0.8456(3) 0.2554(2) 0.36213(15)
H22 H 0.8919 0.3020 0.3994
C34 C 0.8534(3) 0.2723(2) 0.30161(15)
C35 C 0.7860(3) 0.2019(2) 0.24754(16)
H23 H 0.7907 0.2127 0.2061
C36 C 0.7126(3) 0.1169(2) 0.25315(15)
C37 C 0.7047(3) 0.1019(2) 0.31410(15)
H24 H 0.6539 0.0442 0.3183
C38 C 0.7599(3) 0.1566(2) 0.43398(16)
C39 C 0.6538(3) 0.0808(2) 0.43569(17)
H25 H 0.6618 0.0236 0.4378
H26 H 0.5932 0.0724 0.3965
H27 H 0.6379 0.0974 0.4739
C40 C 0.9261(3) 0.3639(2) 0.29100(16)
C41 C 0.9720(3) 0.4447(2) 0.34540(19)
H28 H 1.0281 0.4978 0.3364
H29 H 1.0053 0.4292 0.3863
H30 H 0.9123 0.4593 0.3487
C42 C 0.6420(3) 0.0406(2) 0.19521(15)
C43 C 0.6108(3) 0.0693(3) 0.13043(18)
H31 H 0.6697 0.0815 0.1118
H32 H 0.6005 0.1250 0.1365
H33 H 0.5421 0.0201 0.1010
C44 C 0.0494(2) 0.0612(2) 0.31104(14)
H34 H 0.0436 0.1197 0.3041
C45 C -0.0652(3) -0.0162(2) 0.29642(17)
H35 H -0.0599 -0.0749 0.3000
H36 H -0.1110 -0.0210 0.2515
C46 C -0.1200(3) 0.0006(3) 0.34319(19)
H37 H -0.1937 -0.0513 0.3334
H38 H -0.1302 0.0570 0.3373
C47 C -0.0506(3) 0.0108(2) 0.41331(18)
H39 H -0.0861 0.0245 0.4428
H40 H -0.0456 -0.0474 0.4203
C48 C 0.0647(3) 0.0879(2) 0.42831(16)
H41 H 0.1100 0.0921 0.4733
H42 H 0.0597 0.1468 0.4251
C49 C 0.1208(2) 0.0720(2) 0.38158(14)
H43 H 0.1337 0.0162 0.3877
C50 C 0.8272(2) 0.2944(2) 0.57393(15)
H44 H 0.8913 0.3504 0.5723
C51 C 0.8256(3) 0.2944(2) 0.64350(15)
H45 H 0.8227 0.3511 0.6596
H46 H 0.7586 0.2415 0.6440
C52 C 0.9278(3) 0.2889(2) 0.68852(15)
H47 H 0.9945 0.3450 0.6918
H48 H 0.9223 0.2854 0.7324
C53 C 0.9384(3) 0.2055(2) 0.66322(16)
H49 H 0.8763 0.1493 0.6652
H50 H 1.0078 0.2059 0.6912
C54 C 0.9382(3) 0.2041(2) 0.59346(16)
H51 H 0.9419 0.1476 0.5778
H52 H 1.0043 0.2573 0.5921
C55 C 0.8342(3) 0.2076(2) 0.54876(15)
H53 H 0.7673 0.1519 0.5476
C56 C 1.0046(3) 0.4503(2) 0.21709(16)
H54 H 1.0194 0.5046 0.2482
C57 C 1.1140(3) 0.4512(2) 0.21773(18)
H55 H 1.1599 0.4575 0.2629
H56 H 1.0995 0.3923 0.1931
C58 C 1.1771(3) 0.5299(2) 0.18804(18)
H57 H 1.1976 0.5892 0.2148
H58 H 1.2458 0.5269 0.1875
C59 C 1.1070(3) 0.5239(2) 0.11963(18)
H59 H 1.0892 0.4658 0.0924
H60 H 1.1485 0.5753 0.1010
C60 C 1.0004(3) 0.5280(2) 0.11962(18)
H61 H 1.0184 0.5880 0.1444
H62 H 0.9548 0.5229 0.0745
C61 C 0.9348(2) 0.4516(2) 0.14940(16)
H63 H 0.9056 0.3912 0.1205
C62 C 0.2171(2) 0.2827(2) -0.02989(14)
H64 H 0.1636 0.2837 -0.0085
C63 C 0.2084(3) 0.3315(2) -0.08801(16)
H65 H 0.2161 0.3934 -0.0739
H66 H 0.2695 0.3389 -0.1044
C64 C 0.0983(3) 0.2783(2) -0.14276(16)
H67 H 0.0372 0.2758 -0.1279
H68 H 0.0970 0.3101 -0.1802
C65 C 0.0824(3) 0.1812(2) -0.16331(15)
H69 H 0.0101 0.1470 -0.1979
H70 H 0.1406 0.1839 -0.1811
C66 C 0.0873(3) 0.1313(2) -0.10654(15)
H71 H 0.0794 0.0694 -0.1209
H72 H 0.0250 0.1238 -0.0913
C67 C 0.1963(3) 0.1835(2) -0.05036(14)
H73 H 0.2587 0.1832 -0.0635
C68 C 0.6021(3) 0.6765(2) 0.33884(15)
H74 H 0.6755 0.6885 0.3706
C69 C 0.6009(4) 0.7663(2) 0.32176(17)
H75 H 0.5328 0.7526 0.2851
H76 H 0.6647 0.7999 0.3076
C70 C 0.6059(4) 0.8272(2) 0.37924(19)
H77 H 0.6768 0.8458 0.4146
H78 H 0.6016 0.8834 0.3657
C71 C 0.5109(4) 0.7758(3) 0.40342(19)
H79 H 0.4400 0.7607 0.3689
H80 H 0.5158 0.8151 0.4412
C72 C 0.5148(4) 0.6879(2) 0.42285(17)
H81 H 0.4518 0.6544 0.4376
H82 H 0.5836 0.7035 0.4594
C73 C 0.5104(3) 0.6259(2) 0.36637(15)
H83 H 0.4371 0.6037 0.3315
C74 C 0.5438(3) -0.1209(2) 0.15372(15)
H84 H 0.5325 -0.1007 0.1109
C75 C 0.6030(3) -0.1822(2) 0.15677(16)
H85 H 0.6254 -0.1932 0.2016
H86 H 0.6707 -0.1503 0.1457
C76 C 0.5306(3) -0.2741(2) 0.11055(17)
H87 H 0.5162 -0.2640 0.0653
H88 H 0.5697 -0.3135 0.1167
C77 C 0.4214(3) -0.3223(2) 0.12250(18)
H89 H 0.4352 -0.3378 0.1664
H90 H 0.3743 -0.3801 0.0906
C78 C 0.3618(3) -0.2610(2) 0.11668(18)
H91 H 0.3434 -0.2493 0.0719
H92 H 0.2920 -0.2931 0.1255
C79 C 0.4323(3) -0.1700(2) 0.16383(15)
H93 H 0.4438 -0.1805 0.2094
C80 C 0.7747(5) 0.6616(4) 0.2989(3)
H94 H 0.7858 0.7138 0.3291
H95 H 0.8104 0.6841 0.2668
H96 H 0.8070 0.6244 0.3229
C81 C 0.2686(6) 0.3772(6) 0.1024(4)
H97 H 0.2534 0.4306 0.0964
H98 H 0.2990 0.3783 0.1489
H99 H 0.2001 0.3210 0.0831
C82 C 0.7060(6) 0.3471(6) 0.0620(4)
H100 H 0.7699 0.3414 0.0564
H101 H 0.6668 0.3621 0.0227
H102 H 0.6563 0.2891 0.0700
C83 C 0.2992(7) -0.1466(6) 0.2378(4)
H103 H 0.3247 -0.1052 0.2790
H104 H 0.3332 -0.1892 0.2436
H105 H 0.2188 -0.1813 0.2236
C84 C 0.0650(8) 0.1440(6) 0.1963(4)
H106 H 0.0144 0.1155 0.1520
H107 H 0.1216 0.2041 0.1962
H108 H 0.0238 0.1516 0.2236
Cl1 Cl 0.93986(11) 0.29961(10) -0.01548(8)
C85 C 0.8669(6) 0.1893(4) -0.0118(3)
H109 H 0.9036 0.1509 -0.0192
H110 H 0.7910 0.1633 -0.0431
Cl2 Cl 0.8483(9) 0.1430(8) 0.0551(5)
Cl3 Cl 0.76293(11) 0.57065(9) 0.59027(6)
Cl4 Cl 0.85380(10) 0.66810(7) 0.49692(6)
C86 C 0.7499(3) 0.6410(3) 0.53138(19)
H111 H 0.6771 0.6085 0.4969
H112 H 0.7535 0.6982 0.5521
O1 O -0.0225(5) 0.0616(4) 0.0199(3)
C87? C 0.7541(12) 0.5995(12) 0.3226(7)
H113? H 0.8236 0.6327 0.3145
H114? H 0.7406 0.5354 0.3234
H115? H 0.7587 0.6279 0.3645
C88? C 0.2725(5) 0.4042(5) 0.0896(3)
H116? H 0.2982 0.4708 0.0958
H117? H 0.2673 0.3835 0.1303
H118? H 0.1998 0.3743 0.0559
C89? C 0.6955(10) 0.3214(8) 0.0814(6)
H119? H 0.7558 0.3074 0.0785
H120? H 0.6467 0.3155 0.0376
H121? H 0.6536 0.2785 0.1044
C90? C 0.3548(7) -0.1029(6) 0.2604(4)
H122? H 0.2851 -0.1397 0.2673
H123? H 0.3909 -0.0424 0.2883
H124? H 0.4031 -0.1338 0.2711
C91? C 0.1125(10) 0.1765(7) 0.2158(5)
H125? H 0.0638 0.1712 0.1722
H126? H 0.1863 0.2252 0.2228
H127? H 0.0829 0.1913 0.2479
C92? C 0.7168(10) 0.3768(9) 0.0506(6)
H128? H 0.7836 0.3782 0.0443
H129? H 0.6866 0.4092 0.0199
H130? H 0.6620 0.3130 0.0433
H131? H 0.8065 0.1602 -0.0538
H132? H 0.9159 0.1584 -0.0076
Cl5? Cl 0.8687(5) 0.2026(4) 0.0752(3)
Cl6? Cl 0.8112(14) 0.1673(10) 0.0472(7)
C93? C 0.5757(4) 0.2604(3) 0.2893(2)
Cl7? Cl 0.4688(2) 0.1344(2) 0.27329(18)
Cl8? Cl 0.5091(13) 0.2762(12) 0.2122(7)
Cl9? Cl 0.5607(11) 0.2919(11) 0.2174(7)
Cl10? Cl 0.6117(12) 0.3447(10) 0.2551(6)
Cl11? Cl 0.4872(9) 0.1916(8) 0.2221(5)
Cl12? Cl 0.4783(10) 0.2238(10) 0.2096(6)
Cl13? Cl 0.4560(9) 0.2313(9) 0.2225(5)
Cl14? Cl 0.6687(2) 0.38328(14) 0.28965(12)
loop_
_geom_bond_atom_site_label_1
_geom_bond_atom_site_label_2
_geom_bond_site_symmetry_1
_geom_bond_site_symmetry_2
N1 C11 1_555 1_555
N2 C38 1_555 1_555
N3 C9 1_555 1_555
N4 C19 1_555 1_555
N5 C20 1_555 1_555
N6 C29 1_555 1_555
N7 C28 1_555 1_555
N8 C42 1_555 1_555
N9 C21 1_555 1_555
N10 C40 1_555 1_555
N11 C31 1_555 1_555
N12 C7 1_555 1_555
C1 C2 1_555 1_555
C2 H1 1_555 1_555
C3 C2 1_555 1_555
C4 C3 1_555 1_555
H2 C4 1_555 1_555
C5 C4 1_555 1_555
C6 C1 1_555 1_555
H3 C6 1_555 1_555
C7 C1 1_555 1_555
C8 C7 1_555 1_555
H4 C8 1_555 1_555
H5 C8 1_555 1_555
H6 C8 1_555 1_555
C9 C3 1_555 1_555
C10 C9 1_555 1_555
H7 C10 1_555 1_555
H8 C10 1_555 1_555
H9 C10 1_555 1_555
C11 C5 1_555 1_555
C12 C11 1_555 1_555
H10 C12 1_555 1_555
H11 C12 1_555 1_555
H12 C12 1_555 1_555
C13 C14 1_555 1_555
C14 H13 1_555 1_555
C15 C14 1_555 1_555
C16 C15 1_555 1_555
H14 C16 1_555 1_555
C17 C16 1_555 1_555
C18 C13 1_555 1_555
H15 C18 1_555 1_555
C19 C13 1_555 1_555
C20 C15 1_555 1_555
C21 C17 1_555 1_555
C22 C23 1_555 1_555
C23 H16 1_555 1_555
C24 C23 1_555 1_555
C25 C24 1_555 1_555
H17 C25 1_555 1_555
C26 C25 1_555 1_555
C27 C22 1_555 1_555
H18 C27 1_555 1_555
C28 C22 1_555 1_555
C29 C24 1_555 1_555
C30 C29 1_555 1_555
H19 C30 1_555 1_555
H20 C30 1_555 1_555
H21 C30 1_555 1_555
C31 C26 1_555 1_555
C32 C33 1_555 1_555
C33 H22 1_555 1_555
C34 C33 1_555 1_555
C35 C34 1_555 1_555
H23 C35 1_555 1_555
C36 C35 1_555 1_555
C37 C32 1_555 1_555
H24 C37 1_555 1_555
C38 C32 1_555 1_555
C39 C38 1_555 1_555
H25 C39 1_555 1_555
H26 C39 1_555 1_555
H27 C39 1_555 1_555
C40 C34 1_555 1_555
C41 C40 1_555 1_555
H28 C41 1_555 1_555
H29 C41 1_555 1_555
H30 C41 1_555 1_555
C42 C36 1_555 1_555
C43 C42 1_555 1_555
H31 C43 1_555 1_555
H32 C43 1_555 1_555
H33 C43 1_555 1_555
C44 N11 1_555 1_555
H34 C44 1_555 1_555
C45 C44 1_555 1_555
H35 C45 1_555 1_555
H36 C45 1_555 1_555
C46 C45 1_555 1_555
H37 C46 1_555 1_555
H38 C46 1_555 1_555
C47 C46 1_555 1_555
H39 C47 1_555 1_555
H40 C47 1_555 1_555
C48 C47 1_555 1_555
H41 C48 1_555 1_555
H42 C48 1_555 1_555
C49 N12 1_555 1_555
H43 C49 1_555 1_555
C50 N1 1_555 1_555
H44 C50 1_555 1_555
C51 C50 1_555 1_555
H45 C51 1_555 1_555
H46 C51 1_555 1_555
C52 C51 1_555 1_555
H47 C52 1_555 1_555
H48 C52 1_555 1_555
C53 C52 1_555 1_555
H49 C53 1_555 1_555
H50 C53 1_555 1_555
C54 C53 1_555 1_555
H51 C54 1_555 1_555
H52 C54 1_555 1_555
C55 N2 1_555 1_555
H53 C55 1_555 1_555
C56 N10 1_555 1_555
H54 C56 1_555 1_555
C57 C56 1_555 1_555
H55 C57 1_555 1_555
H56 C57 1_555 1_555
C58 C57 1_555 1_555
H57 C58 1_555 1_555
H58 C58 1_555 1_555
C59 C58 1_555 1_555
H59 C59 1_555 1_555
H60 C59 1_555 1_555
C60 C59 1_555 1_555
H61 C60 1_555 1_555
H62 C60 1_555 1_555
C61 N9 1_555 1_555
H63 C61 1_555 1_555
C62 N5 1_555 1_555
H64 C62 1_555 1_555
C63 C62 1_555 1_555
H65 C63 1_555 1_555
H66 C63 1_555 1_555
C64 C63 1_555 1_555
H67 C64 1_555 1_555
H68 C64 1_555 1_555
C65 C64 1_555 1_555
H69 C65 1_555 1_555
H70 C65 1_555 1_555
C66 C65 1_555 1_555
H71 C66 1_555 1_555
H72 C66 1_555 1_555
C67 N6 1_555 1_555
H73 C67 1_555 1_555
C68 N4 1_555 1_555
H74 C68 1_555 1_555
C69 C68 1_555 1_555
H75 C69 1_555 1_555
H76 C69 1_555 1_555
C70 C69 1_555 1_555
H77 C70 1_555 1_555
H78 C70 1_555 1_555
C71 C70 1_555 1_555
H79 C71 1_555 1_555
H80 C71 1_555 1_555
C72 C71 1_555 1_555
H81 C72 1_555 1_555
H82 C72 1_555 1_555
C73 N3 1_555 1_555
H83 C73 1_555 1_555
C74 N8 1_555 1_555
H84 C74 1_555 1_555
C75 C74 1_555 1_555
H85 C75 1_555 1_555
H86 C75 1_555 1_555
C76 C75 1_555 1_555
H87 C76 1_555 1_555
H88 C76 1_555 1_555
C77 C76 1_555 1_555
H89 C77 1_555 1_555
H90 C77 1_555 1_555
C78 C77 1_555 1_555
H91 C78 1_555 1_555
H92 C78 1_555 1_555
C79 N7 1_555 1_555
H93 C79 1_555 1_555
C80 C19 1_555 1_555
H94 C80 1_555 1_555
H95 C80 1_555 1_555
H96 C80 1_555 1_555
C81 C20 1_555 1_555
H97 C81 1_555 1_555
H98 C81 1_555 1_555
H99 C81 1_555 1_555
C82 C21 1_555 1_555
H100 C82 1_555 1_555
H101 C82 1_555 1_555
H102 C82 1_555 1_555
C83 C28 1_555 1_555
H103 C83 1_555 1_555
H104 C83 1_555 1_555
H105 C83 1_555 1_555
C84 C31 1_555 1_555
H106 C84 1_555 1_555
H107 C84 1_555 1_555
H108 C84 1_555 1_555
Cl1 C85 1_555 1_555
C85 H109 1_555 1_555
H110 C85 1_555 1_555
Cl2 C85 1_555 1_555
Cl3 C86 1_555 1_555
Cl4 C86 1_555 1_555
C86 H111 1_555 1_555
H112 C86 1_555 1_555
C5 C6 1_555 1_555
C17 C18 1_555 1_555
C26 C27 1_555 1_555
C36 C37 1_555 1_555
C44 C49 1_555 1_555
C48 C49 1_555 1_555
C50 C55 1_555 1_555
C54 C55 1_555 1_555
C56 C61 1_555 1_555
C60 C61 1_555 1_555
C62 C67 1_555 1_555
C66 C67 1_555 1_555
C68 C73 1_555 1_555
C72 C73 1_555 1_555
C74 C79 1_555 1_555
C78 C79 1_555 1_555

#END
