
#######################################################################
#
#                 Cambridge Crystallographic Data Centre
#                                CCDC 
#
#######################################################################
#
# If this CIF has been generated from an entry in the Cambridge 
# Structural Database, then it will include bibliographic, chemical, 
# crystal, experimental, refinement or atomic coordinate data resulting 
# from the CCDC's data processing and validation procedures.
#
#######################################################################

data_SENRUZ
_chemical_formula_moiety         'C14 H10 N2 O4,2(H2 O1)'
_chemical_name_systematic        "4,4'-Azodibenzoic acid dihydrate"
_symmetry_cell_setting           orthorhombic
_symmetry_space_group_name_H-M   'P n a 21'
_symmetry_Int_Tables_number      33
_space_group_name_Hall           'P 2c -2n'
loop_
_symmetry_equiv_pos_site_id
_symmetry_equiv_pos_as_xyz
1 x,y,z
2 -x,-y,1/2+z
3 1/2+x,1/2-y,z
4 1/2-x,1/2+y,1/2+z
_cell_length_a                   11.8197(15)
_cell_length_b                   3.9432(5)
_cell_length_c                   30.967(4)
_cell_angle_alpha                90
_cell_angle_beta                 90
_cell_angle_gamma                90
_cell_volume                     1443.29
_exptl_crystal_colour            red
_exptl_crystal_description       block
_cell_formula_units_Z            4
loop_
_atom_site_label
_atom_site_type_symbol
_atom_site_fract_x
_atom_site_fract_y
_atom_site_fract_z
O1 O 0.5240(4) 0.2178(12) 0.35835(14)
H1 H 0.4968 0.2158 0.3340
O2 O 0.3439(4) 0.2789(11) 0.37596(14)
O3 O 0.9037(4) 1.1964(12) 0.73980(14)
O4 O 0.7245(3) 1.2977(12) 0.75722(13)
H2 H 0.7463 1.2716 0.7821
N1 N 0.5689(4) 0.7472(12) 0.55321(16)
N2 N 0.6700(4) 0.7549(13) 0.56198(15)
C1 C 0.6277(4) 0.4755(15) 0.48387(17)
H3 H 0.7019 0.4445 0.4930
C2 C 0.5954(4) 0.3758(15) 0.44317(17)
H4 H 0.6490 0.2876 0.4243
C3 C 0.4831(4) 0.4054(14) 0.42983(13)
C4 C 0.4047(4) 0.5488(15) 0.45769(16)
H5 H 0.3302 0.5741 0.4487
C5 C 0.4347(4) 0.6532(17) 0.49787(17)
H6 H 0.3803 0.7435 0.5163
C6 C 0.5473(4) 0.6256(14) 0.51181(15)
C7 C 0.6984(4) 0.8830(15) 0.60537(14)
C8 C 0.6201(4) 1.0317(15) 0.63238(15)
H7 H 0.5456 1.0590 0.6235
C9 C 0.6538(4) 1.1404(16) 0.67300(15)
H8 H 0.6015 1.2456 0.6910
C10 C 0.7641(4) 1.0946(13) 0.68716(17)
C11 C 0.8433(4) 0.9485(16) 0.65978(16)
H9 H 0.9179 0.9217 0.6686
C12 C 0.8088(4) 0.8409(17) 0.61830(15)
H10 H 0.8609 0.7415 0.5997
C13 C 0.4463(6) 0.2927(16) 0.38600(19)
C14 C 0.8011(4) 1.2112(13) 0.73170(16)
O5 O 0.4467(5) 0.2040(14) 0.27266(14)
H11 H 0.4076 0.2824 0.2519
H12 H 0.4779 0.3708 0.2853
O6 O 0.7964(7) 0.2218(15) 0.8419(3)
H13 H 0.8129 0.3196 0.8655
H14 H 0.8215 0.3441 0.8214
loop_
_geom_bond_atom_site_label_1
_geom_bond_atom_site_label_2
_geom_bond_site_symmetry_1
_geom_bond_site_symmetry_2
O1 H1 1_555 1_555
O2 C13 1_555 1_555
O3 C14 1_555 1_555
O4 H2 1_555 1_555
N1 N2 1_555 1_555
N2 C7 1_555 1_555
C1 H3 1_555 1_555
C2 C1 1_555 1_555
H4 C2 1_555 1_555
C3 C2 1_555 1_555
C4 C3 1_555 1_555
H5 C4 1_555 1_555
C5 C4 1_555 1_555
H6 C5 1_555 1_555
C6 N1 1_555 1_555
C7 C8 1_555 1_555
C8 H7 1_555 1_555
C9 C8 1_555 1_555
H8 C9 1_555 1_555
C10 C9 1_555 1_555
C11 C10 1_555 1_555
H9 C11 1_555 1_555
C12 C7 1_555 1_555
H10 C12 1_555 1_555
C13 O1 1_555 1_555
C14 O4 1_555 1_555
O5 H11 1_555 1_555
H12 O5 1_555 1_555
O6 H13 1_555 1_555
H14 O6 1_555 1_555
C1 C6 1_555 1_555
C3 C13 1_555 1_555
C5 C6 1_555 1_555
C10 C14 1_555 1_555
C11 C12 1_555 1_555

#END
