
#######################################################################
#
#                 Cambridge Crystallographic Data Centre
#                                CCDC 
#
#######################################################################
#
# If this CIF has been generated from an entry in the Cambridge 
# Structural Database, then it will include bibliographic, chemical, 
# crystal, experimental, refinement or atomic coordinate data resulting 
# from the CCDC's data processing and validation procedures.
#
#######################################################################

data_SENROT
_chemical_formula_moiety         'C12 H9 Cl1 N2 O2 S1'
_chemical_name_systematic        
7-Chloro-9-ethyl-1-thia-2,4a-diazacyclopenta(b)naphthalene-3,4-dione
_symmetry_cell_setting           monoclinic
_symmetry_space_group_name_H-M   'P 21/c'
_symmetry_Int_Tables_number      14
_space_group_name_Hall           '-P 2ybc'
loop_
_symmetry_equiv_pos_site_id
_symmetry_equiv_pos_as_xyz
1 x,y,z
2 -x,1/2+y,1/2-z
3 -x,-y,-z
4 x,1/2-y,1/2+z
_cell_length_a                   7.0574(14)
_cell_length_b                   9.950(2)
_cell_length_c                   16.661(3)
_cell_angle_alpha                90
_cell_angle_beta                 94.96(3)
_cell_angle_gamma                90
_cell_volume                     1165.57
_exptl_crystal_colour            yellow
_exptl_crystal_description       blade
_cell_formula_units_Z            4
loop_
_atom_site_label
_atom_site_type_symbol
_atom_site_fract_x
_atom_site_fract_y
_atom_site_fract_z
Cl1 Cl 0.46582(8) 0.41105(7) 0.74466(3)
S1 S 0.05644(7) 0.85447(5) 0.37613(3)
O1 O 0.17956(19) 0.36458(12) 0.36252(8)
O2 O 0.02900(19) 0.55908(13) 0.23255(7)
N1 N 0.2474(2) 0.46538(15) 0.48601(8)
N2 N 0.0174(2) 0.76943(16) 0.28837(9)
H1 H -0.036(3) 0.813(2) 0.2425(14)
C1 C 0.3132(3) 0.34236(19) 0.51503(12)
H2 H 0.3111 0.2681 0.4791
C2 C 0.3799(3) 0.3240(2) 0.59224(12)
H3 H 0.4257 0.2385 0.6105
C3 C 0.3806(3) 0.4345(2) 0.64594(12)
C4 C 0.3151(3) 0.5559(2) 0.61977(11)
H4 H 0.3160 0.6286 0.6567
C5 C 0.2448(2) 0.57708(18) 0.53817(11)
C6 C 0.1783(3) 0.70117(18) 0.50878(11)
C7 C 0.1256(3) 0.70824(18) 0.42620(10)
C8 C 0.1233(2) 0.59921(18) 0.37422(10)
C9 C 0.1802(2) 0.46977(19) 0.40140(10)
C10 C 0.0535(3) 0.63340(19) 0.29130(11)
C11 C 0.1651(3) 0.82335(19) 0.56143(11)
H5 H 0.1485 0.7938 0.6171
H6 H 0.0511 0.8759 0.5420
C12 C 0.3392(3) 0.9137(2) 0.56259(12)
H7 H 0.3226 0.9910 0.5978
H8 H 0.3546 0.9454 0.5079
H9 H 0.4524 0.8630 0.5829
loop_
_geom_bond_atom_site_label_1
_geom_bond_atom_site_label_2
_geom_bond_site_symmetry_1
_geom_bond_site_symmetry_2
Cl1 C3 1_555 1_555
S1 N2 1_555 1_555
O1 C9 1_555 1_555
O2 C10 1_555 1_555
N1 C1 1_555 1_555
N2 H1 1_555 1_555
C1 H2 1_555 1_555
C2 C1 1_555 1_555
H3 C2 1_555 1_555
C3 C2 1_555 1_555
C4 C3 1_555 1_555
H4 C4 1_555 1_555
C5 N1 1_555 1_555
C6 C5 1_555 1_555
C7 S1 1_555 1_555
C8 C7 1_555 1_555
C9 N1 1_555 1_555
C10 N2 1_555 1_555
C11 C6 1_555 1_555
H5 C11 1_555 1_555
H6 C11 1_555 1_555
C12 C11 1_555 1_555
H7 C12 1_555 1_555
H8 C12 1_555 1_555
H9 C12 1_555 1_555
C4 C5 1_555 1_555
C6 C7 1_555 1_555
C8 C9 1_555 1_555
C8 C10 1_555 1_555

#END
