
#######################################################################
#
#                 Cambridge Crystallographic Data Centre
#                                CCDC 
#
#######################################################################
#
# If this CIF has been generated from an entry in the Cambridge 
# Structural Database, then it will include bibliographic, chemical, 
# crystal, experimental, refinement or atomic coordinate data resulting 
# from the CCDC's data processing and validation procedures.
#
#######################################################################

data_SENROV
_chemical_formula_moiety         'C26 H22 Cl2 N2 O1'
_chemical_name_systematic        
6-(2-chlorophenyl)-5-(4-chlorophenyl)-1-(4-methylphenyl)-1,2,3,5,6,7-hexahydro-4H-pyrrolo[3,2-c]pyridin-4-one
_symmetry_cell_setting           orthorhombic
_symmetry_space_group_name_H-M   'P 21 21 21'
_symmetry_Int_Tables_number      19
_space_group_name_Hall           'P 2ac 2ab'
loop_
_symmetry_equiv_pos_site_id
_symmetry_equiv_pos_as_xyz
1 x,y,z
2 1/2-x,-y,1/2+z
3 1/2+x,1/2-y,-z
4 -x,1/2+y,1/2-z
_cell_length_a                   11.1830(3)
_cell_length_b                   11.7285(3)
_cell_length_c                   16.6352(4)
_cell_angle_alpha                90
_cell_angle_beta                 90
_cell_angle_gamma                90
_cell_volume                     2181.87
_cell_formula_units_Z            4
loop_
_atom_site_label
_atom_site_type_symbol
_atom_site_fract_x
_atom_site_fract_y
_atom_site_fract_z
Cl1 Cl 1.00726(7) 0.57835(7) 0.72462(4)
Cl2 Cl 0.38645(7) 0.28363(7) 0.81359(4)
O1 O 0.76922(16) 0.15927(17) 0.51911(11)
N1 N 0.64845(17) 0.23739(17) 0.61600(12)
N2 N 0.40215(18) -0.00893(19) 0.54750(14)
C1 C 0.8562(2) 0.2881(3) 0.65042(17)
H1 H 0.8807 0.2141 0.6390
C2 C 0.9393(2) 0.3682(3) 0.67559(19)
H2 H 1.0196 0.3484 0.6797
C3 C 0.9032(2) 0.4760(2) 0.69434(15)
C4 C 0.7850(3) 0.5059(3) 0.6885(2)
H3 H 0.7603 0.5791 0.7021
C5 C 0.7038(2) 0.4270(3) 0.6624(2)
H4 H 0.6238 0.4478 0.6581
C6 C 0.7369(2) 0.3174(2) 0.64225(14)
C7 C 0.54057(18) 0.2278(2) 0.66696(13)
H5 H 0.5191 0.3053 0.6835
C8 C 0.43253(19) 0.1794(2) 0.62012(15)
H6 H 0.3705 0.1563 0.6575
H7 H 0.3998 0.2377 0.5851
C9 C 0.4714(2) 0.0795(2) 0.57132(13)
C10 C 0.5842(2) 0.0710(2) 0.54343(13)
C11 C 0.6742(2) 0.1562(2) 0.55683(14)
C12 C 0.5966(2) -0.0325(2) 0.49121(15)
H8 H 0.6616 -0.0809 0.5092
H9 H 0.6095 -0.0118 0.4354
C13 C 0.4753(2) -0.0908(2) 0.50280(15)
H10 H 0.4390 -0.1082 0.4513
H11 H 0.4843 -0.1611 0.5329
C14 C 0.2799(2) -0.0304(2) 0.56457(14)
C15 C 0.2438(2) -0.1397(2) 0.58705(18)
H12 H 0.3002 -0.1975 0.5924
C16 C 0.1248(2) -0.1622(2) 0.60133(17)
H13 H 0.1019 -0.2355 0.6162
C17 C 0.0386(2) -0.0784(3) 0.59410(15)
C18 C 0.0754(2) 0.0298(2) 0.57134(15)
H14 H 0.0188 0.0875 0.5661
C19 C 0.1941(2) 0.0538(2) 0.55624(15)
H15 H 0.2165 0.1268 0.5404
C20 C -0.0920(2) -0.1049(3) 0.6093(2)
H16 H -0.1391 -0.0379 0.5998
H17 H -0.1022 -0.1290 0.6641
H18 H -0.1175 -0.1647 0.5738
C21 C 0.56513(19) 0.1603(2) 0.74362(14)
C22 C 0.4984(2) 0.1790(2) 0.81322(15)
C23 C 0.5170(3) 0.1191(2) 0.88360(16)
H19 H 0.4706 0.1337 0.9288
C24 C 0.6055(3) 0.0373(2) 0.88575(16)
H20 H 0.6188 -0.0041 0.9326
C25 C 0.6742(2) 0.0168(2) 0.81886(17)
H21 H 0.7342 -0.0380 0.8206
C26 C 0.6542(2) 0.0780(2) 0.74843(15)
H22 H 0.7015 0.0634 0.7036
loop_
_geom_bond_atom_site_label_1
_geom_bond_atom_site_label_2
_geom_bond_site_symmetry_1
_geom_bond_site_symmetry_2
Cl1 C3 1_555 1_555
Cl2 C22 1_555 1_555
O1 C11 1_555 1_555
N1 C6 1_555 1_555
N2 C9 1_555 1_555
C1 H1 1_555 1_555
C2 C1 1_555 1_555
H2 C2 1_555 1_555
C3 C2 1_555 1_555
C4 C3 1_555 1_555
H3 C4 1_555 1_555
C5 C4 1_555 1_555
H4 C5 1_555 1_555
C6 C1 1_555 1_555
C7 N1 1_555 1_555
H5 C7 1_555 1_555
C8 C7 1_555 1_555
H6 C8 1_555 1_555
H7 C8 1_555 1_555
C9 C8 1_555 1_555
C10 C9 1_555 1_555
C11 N1 1_555 1_555
C12 C10 1_555 1_555
H8 C12 1_555 1_555
H9 C12 1_555 1_555
C13 N2 1_555 1_555
H10 C13 1_555 1_555
H11 C13 1_555 1_555
C14 N2 1_555 1_555
C15 C14 1_555 1_555
H12 C15 1_555 1_555
C16 C15 1_555 1_555
H13 C16 1_555 1_555
C17 C16 1_555 1_555
C18 C17 1_555 1_555
H14 C18 1_555 1_555
C19 C14 1_555 1_555
H15 C19 1_555 1_555
C20 C17 1_555 1_555
H16 C20 1_555 1_555
H17 C20 1_555 1_555
H18 C20 1_555 1_555
C21 C7 1_555 1_555
C22 C21 1_555 1_555
C23 C22 1_555 1_555
H19 C23 1_555 1_555
C24 C23 1_555 1_555
H20 C24 1_555 1_555
C25 C24 1_555 1_555
H21 C25 1_555 1_555
C26 C21 1_555 1_555
H22 C26 1_555 1_555
C5 C6 1_555 1_555
C10 C11 1_555 1_555
C12 C13 1_555 1_555
C18 C19 1_555 1_555
C25 C26 1_555 1_555

#END
