
#######################################################################
#
#                 Cambridge Crystallographic Data Centre
#                                CCDC 
#
#######################################################################
#
# If this CIF has been generated from an entry in the Cambridge 
# Structural Database, then it will include bibliographic, chemical, 
# crystal, experimental, refinement or atomic coordinate data resulting 
# from the CCDC's data processing and validation procedures.
#
#######################################################################

data_SENVUE
_chemical_formula_moiety         'C25 H28 N2 O8'
_chemical_name_systematic        
4-Benzyl-3-(5-(2,5-dimethoxy-3-nitrophenyl)-5-hydroxy-2,4-dimethylpent-2-enoyl)-1,3-oxazolidin-2-one
_symmetry_cell_setting           orthorhombic
_symmetry_space_group_name_H-M   'P 21 21 21'
_symmetry_Int_Tables_number      19
_space_group_name_Hall           'P 2ac 2ab'
loop_
_symmetry_equiv_pos_site_id
_symmetry_equiv_pos_as_xyz
1 x,y,z
2 1/2-x,-y,1/2+z
3 -x,1/2+y,1/2-z
4 1/2+x,1/2-y,-z
_cell_length_a                   8.0877(16)
_cell_length_b                   8.3009(17)
_cell_length_c                   37.117(7)
_cell_angle_alpha                90
_cell_angle_beta                 90
_cell_angle_gamma                90
_cell_volume                     2491.86
_exptl_crystal_colour            colorless
_exptl_crystal_description       block
_cell_formula_units_Z            4
loop_
_atom_site_label
_atom_site_type_symbol
_atom_site_fract_x
_atom_site_fract_y
_atom_site_fract_z
O1 O 0.7269(3) 0.7921(2) 0.99706(6)
O2 O 0.7133(4) 0.6912(3) 0.94127(6)
O3 O 0.5102(3) 1.1373(2) 0.92147(5)
O4 O 0.3333(3) 0.4214(3) 0.90531(5)
H1 H 0.3759 0.3367 0.9119
O5 O 0.0563(3) 0.0748(3) 0.81725(7)
O6 O 0.6059(3) 0.4718(3) 0.80678(6)
N1 N 0.5300(5) 0.2743(4) 0.74883(8)
O7 O 0.6719(5) 0.2359(6) 0.75026(10)
O8 O 0.4640(6) 0.3187(4) 0.72157(7)
N2 N 0.5698(3) 0.9265(3) 0.95750(6)
C1 C 0.3908(4) 1.1931(4) 1.06555(8)
H2 H 0.3444 1.0913 1.0714
C2 C 0.4131(4) 1.3059(4) 1.09234(9)
H3 H 0.3796 1.2825 1.1163
C3 C 0.4839(4) 1.4523(4) 1.08445(10)
H4 H 0.5011 1.5291 1.1030
C4 C 0.5300(4) 1.4877(4) 1.04951(10)
H5 H 0.5790 1.5889 1.0441
C5 C 0.5048(4) 1.3755(3) 1.02240(9)
H6 H 0.5352 1.4007 0.9983
C6 C 0.4353(3) 1.2262(3) 1.03018(7)
C7 C 0.4120(3) 1.1032(3) 1.00043(7)
H7 H 0.3572 1.1545 0.9795
H8 H 0.3403 1.0146 1.0091
C8 C 0.5794(4) 1.0357(3) 0.98899(7)
H9 H 0.6579 1.1259 0.9839
C9 C 0.6532(4) 0.9231(4) 1.01723(8)
H10 H 0.7379 0.9798 1.0317
H11 H 0.5661 0.8823 1.0336
C10 C 0.6730(4) 0.7921(4) 0.96264(8)
C11 C 0.5300(3) 0.9914(3) 0.92378(7)
C12 C 0.5060(4) 0.8830(3) 0.89234(7)
C13 C 0.5869(6) 0.9416(5) 0.85837(9)
H12 H 0.6973 0.8938 0.8562
H13 H 0.5966 1.0592 0.8591
H14 H 0.5198 0.9100 0.8376
C14 C 0.4049(4) 0.7579(3) 0.89536(7)
H15 H 0.3623 0.7358 0.9187
C15 C 0.3511(4) 0.6475(4) 0.86529(8)
H16 H 0.4044 0.6848 0.8425
C16 C 0.1633(5) 0.6555(5) 0.86042(11)
H17 H 0.1307 0.7665 0.8549
H18 H 0.1089 0.6207 0.8827
H19 H 0.1302 0.5846 0.8406
C17 C 0.4114(4) 0.4750(3) 0.87323(7)
H20 H 0.5335 0.4780 0.8774
C18 C 0.3762(4) 0.3631(3) 0.84152(7)
C19 C 0.2401(4) 0.2620(4) 0.84231(8)
H21 H 0.1747 0.2573 0.8635
C20 C 0.1961(4) 0.1668(4) 0.81284(9)
C21 C 0.2902(4) 0.1719(4) 0.78160(8)
H22 H 0.2604 0.1110 0.7609
C22 C 0.4293(4) 0.2693(4) 0.78175(7)
C23 C 0.4752(4) 0.3663(3) 0.81052(7)
C24 C 0.0007(6) -0.0164(5) 0.78668(11)
H23 H -0.1047 -0.0686 0.7924
H24 H 0.0832 -0.0988 0.7807
H25 H -0.0141 0.0558 0.7660
C25 C 0.7604(5) 0.4172(7) 0.82142(12)
H26 H 0.7522 0.4115 0.8477
H27 H 0.8483 0.4928 0.8147
H28 H 0.7862 0.3102 0.8118
loop_
_geom_bond_atom_site_label_1
_geom_bond_atom_site_label_2
_geom_bond_site_symmetry_1
_geom_bond_site_symmetry_2
O1 C9 1_555 1_555
O2 C10 1_555 1_555
O3 C11 1_555 1_555
O4 H1 1_555 1_555
O5 C20 1_555 1_555
O6 C23 1_555 1_555
N1 O7 1_555 1_555
O8 N1 1_555 1_555
N2 C8 1_555 1_555
C1 H2 1_555 1_555
C2 C1 1_555 1_555
H3 C2 1_555 1_555
C3 C2 1_555 1_555
H4 C3 1_555 1_555
C4 C3 1_555 1_555
H5 C4 1_555 1_555
C5 C4 1_555 1_555
H6 C5 1_555 1_555
C6 C1 1_555 1_555
C7 C6 1_555 1_555
H7 C7 1_555 1_555
H8 C7 1_555 1_555
C8 C7 1_555 1_555
H9 C8 1_555 1_555
C9 C8 1_555 1_555
H10 C9 1_555 1_555
H11 C9 1_555 1_555
C10 O1 1_555 1_555
C11 N2 1_555 1_555
C12 C11 1_555 1_555
C13 C12 1_555 1_555
H12 C13 1_555 1_555
H13 C13 1_555 1_555
H14 C13 1_555 1_555
C14 C12 1_555 1_555
H15 C14 1_555 1_555
C15 C14 1_555 1_555
H16 C15 1_555 1_555
C16 C15 1_555 1_555
H17 C16 1_555 1_555
H18 C16 1_555 1_555
H19 C16 1_555 1_555
C17 O4 1_555 1_555
H20 C17 1_555 1_555
C18 C17 1_555 1_555
C19 C18 1_555 1_555
H21 C19 1_555 1_555
C20 C19 1_555 1_555
C21 C20 1_555 1_555
H22 C21 1_555 1_555
C22 N1 1_555 1_555
C23 C18 1_555 1_555
C24 O5 1_555 1_555
H23 C24 1_555 1_555
H24 C24 1_555 1_555
H25 C24 1_555 1_555
C25 O6 1_555 1_555
H26 C25 1_555 1_555
H27 C25 1_555 1_555
H28 C25 1_555 1_555
N2 C10 1_555 1_555
C5 C6 1_555 1_555
C15 C17 1_555 1_555
C21 C22 1_555 1_555
C22 C23 1_555 1_555

#END
