
#######################################################################
#
#                 Cambridge Crystallographic Data Centre
#                                CCDC 
#
#######################################################################
#
# If this CIF has been generated from an entry in the Cambridge 
# Structural Database, then it will include bibliographic, chemical, 
# crystal, experimental, refinement or atomic coordinate data resulting 
# from the CCDC's data processing and validation procedures.
#
#######################################################################

data_SEPBAS01
_chemical_formula_moiety         'C14 H4 F6 N4'
_chemical_name_systematic        
2,7-bis(trifluoromethyl)pyrimido[4,5,6-gh]perimidine
_symmetry_cell_setting           monoclinic
_symmetry_space_group_name_H-M   'C 2/c'
_symmetry_Int_Tables_number      15
_space_group_name_Hall           '-C 2yn'
loop_
_symmetry_equiv_pos_site_id
_symmetry_equiv_pos_as_xyz
1 x,y,z
2 -x,y,1/2-z
3 1/2+x,1/2+y,z
4 1/2-x,1/2+y,1/2-z
5 -x,-y,-z
6 x,-y,1/2+z
7 1/2-x,1/2-y,-z
8 1/2+x,1/2-y,1/2+z
_cell_length_a                   14.229(6)
_cell_length_b                   9.395(4)
_cell_length_c                   19.200(9)
_cell_angle_alpha                90
_cell_angle_beta                 108.457(11)
_cell_angle_gamma                90
_cell_volume                     2434.66
_exptl_crystal_colour            colorless
_exptl_crystal_description       plate
_cell_formula_units_Z            8
loop_
_atom_site_label
_atom_site_type_symbol
_atom_site_fract_x
_atom_site_fract_y
_atom_site_fract_z
F1 F 0.32263(5) 0.14105(7) 0.80422(4)
F2 F 0.17884(5) 0.13923(7) 0.72179(3)
F3 F 0.25096(5) 0.33833(7) 0.76096(4)
F4 F -0.20912(5) 0.22911(8) 1.10856(4)
F5 F -0.09003(5) 0.12240(8) 1.18880(4)
F6 F -0.09001(7) 0.35063(9) 1.18040(5)
N1 N 0.10656(6) 0.29755(8) 0.82409(4)
N2 N 0.22218(6) 0.12567(8) 0.89797(4)
N3 N -0.09043(6) 0.31182(8) 1.02971(4)
N4 N 0.02031(6) 0.13214(8) 1.10135(4)
C1 C 0.23555(7) 0.20734(9) 0.78158(5)
C2 C 0.05816(6) 0.30107(9) 0.87389(5)
C3 C -0.05547(6) 0.22279(9) 1.08629(5)
C4 C -0.02698(6) 0.39172(9) 0.86339(5)
H1 H -0.0492(10) 0.4485(15) 0.8183(8)
C5 C -0.07518(6) 0.39620(9) 0.91436(5)
H2 H -0.1326(10) 0.4545(15) 0.9087(8)
C6 C -0.04267(6) 0.30890(9) 0.97940(5)
C7 C 0.03971(6) 0.21875(9) 0.98952(5)
C8 C 0.07007(6) 0.13116(9) 1.05197(5)
C9 C 0.15457(6) 0.03912(10) 1.06207(5)
H3 H 0.1756(10) -0.0197(16) 1.1053(8)
C10 C 0.20460(6) 0.03747(9) 1.01206(5)
H4 H 0.2612(10) -0.0255(16) 1.0180(8)
C11 C 0.17310(6) 0.12704(9) 0.94775(5)
C12 C 0.09026(6) 0.21597(9) 0.93736(5)
C13 C 0.18457(6) 0.21050(9) 0.84022(5)
C14 C -0.11113(7) 0.23015(10) 1.14216(5)
loop_
_geom_bond_atom_site_label_1
_geom_bond_atom_site_label_2
_geom_bond_site_symmetry_1
_geom_bond_site_symmetry_2
F1 C1 1_555 1_555
F2 C1 1_555 1_555
F3 C1 1_555 1_555
F4 C14 1_555 1_555
F5 C14 1_555 1_555
F6 C14 1_555 1_555
N1 C2 1_555 1_555
N2 C11 1_555 1_555
N3 C3 1_555 1_555
N4 C3 1_555 1_555
C1 C13 1_555 1_555
C2 C4 1_555 1_555
C3 C14 1_555 1_555
C4 H1 1_555 1_555
C5 C4 1_555 1_555
H2 C5 1_555 1_555
C6 N3 1_555 1_555
C7 C6 1_555 1_555
C8 N4 1_555 1_555
C9 C8 1_555 1_555
H3 C9 1_555 1_555
C10 C9 1_555 1_555
H4 C10 1_555 1_555
C11 C10 1_555 1_555
C12 C2 1_555 1_555
C13 N1 1_555 1_555
N2 C13 1_555 1_555
C5 C6 1_555 1_555
C7 C8 1_555 1_555
C7 C12 1_555 1_555
C11 C12 1_555 1_555

#END
