
#######################################################################
#
#                 Cambridge Crystallographic Data Centre
#                                CCDC 
#
#######################################################################
#
# If this CIF has been generated from an entry in the Cambridge 
# Structural Database, then it will include bibliographic, chemical, 
# crystal, experimental, refinement or atomic coordinate data resulting 
# from the CCDC's data processing and validation procedures.
#
#######################################################################

data_SEPBOG
_chemical_formula_moiety         'C16 H4 F10 N4'
_chemical_name_systematic        
2,7-bis(pentafluoroethyl)pyrimido[4,5,6-gh]perimidine
_symmetry_cell_setting           triclinic
_symmetry_space_group_name_H-M   'P -1'
_symmetry_Int_Tables_number      2
_space_group_name_Hall           '-P 1'
loop_
_symmetry_equiv_pos_site_id
_symmetry_equiv_pos_as_xyz
1 x,y,z
2 -x,-y,-z
_cell_length_a                   4.881(2)
_cell_length_b                   7.116(4)
_cell_length_c                   10.683(5)
_cell_angle_alpha                86.323(12)
_cell_angle_beta                 83.458(9)
_cell_angle_gamma                88.653(14)
_cell_volume                     367.831
_exptl_crystal_colour            orange
_exptl_crystal_description       irregular
_cell_formula_units_Z            1
loop_
_atom_site_label
_atom_site_type_symbol
_atom_site_fract_x
_atom_site_fract_y
_atom_site_fract_z
C1 C 0.47576(19) 0.11801(13) 0.20937(8)
C2 C 0.79927(19) -0.10040(12) 0.14704(9)
C3 C 0.9411(2) -0.27931(13) 0.16162(9)
C4 C 0.8415(2) 0.32685(13) -0.07728(9)
C5 C 0.75080(19) 0.19975(13) 0.02911(9)
C6 C 0.88787(18) 0.02445(12) 0.04371(8)
C7 C 0.24704(18) 0.17577(13) 0.30965(9)
C8 C 0.3512(2) 0.29206(14) 0.41107(9)
F1 F 0.12111(12) 0.02360(8) 0.36873(6)
F2 F 0.05274(12) 0.28379(9) 0.25604(6)
F3 F 0.55755(14) 0.20289(10) 0.46111(6)
F4 F 0.14883(14) 0.32205(10) 0.50233(6)
F5 F 0.43955(16) 0.45871(9) 0.35967(7)
H1 H 0.879(3) -0.361(2) 0.2323(15)
H2 H 0.742(3) 0.449(2) -0.0875(15)
N1 N 0.58779(17) -0.05170(11) 0.23192(8)
N2 N 0.53857(17) 0.24710(11) 0.11432(8)
C1A C 1.52424(19) -0.11801(13) -0.20937(8)
C2A C 1.20073(19) 0.10040(12) -0.14704(9)
C3A C 1.0589(2) 0.27931(13) -0.16162(9)
C4A C 1.1585(2) -0.32685(13) 0.07728(9)
C5A C 1.24920(19) -0.19975(13) -0.02911(9)
C6A C 1.11213(18) -0.02445(12) -0.04371(8)
C7A C 1.75296(18) -0.17577(13) -0.30965(9)
C8A C 1.6488(2) -0.29206(14) -0.41107(9)
F1A F 1.87889(12) -0.02360(8) -0.36873(6)
F2A F 1.94726(12) -0.28379(9) -0.25604(6)
F3A F 1.44245(14) -0.20289(10) -0.46111(6)
F4A F 1.85117(14) -0.32205(10) -0.50233(6)
F5A F 1.56045(16) -0.45871(9) -0.35967(7)
H1A H 1.121(3) 0.361(2) -0.2323(15)
H2A H 1.258(3) -0.449(2) 0.0875(15)
N1A N 1.41221(17) 0.05170(11) -0.23192(8)
N2A N 1.46143(17) -0.24710(11) -0.11432(8)
loop_
_geom_bond_atom_site_label_1
_geom_bond_atom_site_label_2
_geom_bond_site_symmetry_1
_geom_bond_site_symmetry_2
C1 C7 1_555 1_555
C2 C3 1_555 1_555
C3 H1 1_555 1_555
C4 C5 1_555 1_555
C5 C6 1_555 1_555
C6 C2 1_555 1_555
C7 C8 1_555 1_555
C8 F3 1_555 1_555
F1 C7 1_555 1_555
F2 C7 1_555 1_555
F4 C8 1_555 1_555
F5 C8 1_555 1_555
H2 C4 1_555 1_555
N1 C1 1_555 1_555
N2 C1 1_555 1_555
C1A C7A 1_555 1_555
C2A C3A 1_555 1_555
C3A C4 1_555 1_555
C4A C3 1_555 1_555
C5A C4A 1_555 1_555
C6A C6 1_555 1_555
C7A C8A 1_555 1_555
C8A F3A 1_555 1_555
F1A C7A 1_555 1_555
F2A C7A 1_555 1_555
F4A C8A 1_555 1_555
F5A C8A 1_555 1_555
H1A C3A 1_555 1_555
H2A C4A 1_555 1_555
N1A C1A 1_555 1_555
N2A C1A 1_555 1_555
C2 N1 1_555 1_555
C5 N2 1_555 1_555
C2A C6A 1_555 1_555
C2A N1A 1_555 1_555
C5A C6A 1_555 1_555
C5A N2A 1_555 1_555

#END
