
#######################################################################
#
#                 Cambridge Crystallographic Data Centre
#                                CCDC 
#
#######################################################################
#
# If this CIF has been generated from an entry in the Cambridge 
# Structural Database, then it will include bibliographic, chemical, 
# crystal, experimental, refinement or atomic coordinate data resulting 
# from the CCDC's data processing and validation procedures.
#
#######################################################################

data_SEPCOH
_chemical_formula_moiety         'C14 H2 Br2 F6 N4'
_chemical_name_systematic        
4,9-Dibromo-2,7-bis(trifluoromethyl)pyrimido[4,5,6-gh]perimidine
_symmetry_cell_setting           triclinic
_symmetry_space_group_name_H-M   'P -1'
_symmetry_Int_Tables_number      2
_space_group_name_Hall           '-P 1'
loop_
_symmetry_equiv_pos_site_id
_symmetry_equiv_pos_as_xyz
1 x,y,z
2 -x,-y,-z
_cell_length_a                   9.554(5)
_cell_length_b                   10.669(6)
_cell_length_c                   10.996(5)
_cell_angle_alpha                73.939(14)
_cell_angle_beta                 81.900(9)
_cell_angle_gamma                84.005(10)
_cell_volume                     1063.82
_exptl_crystal_colour            yellow
_exptl_crystal_description       block
_cell_formula_units_Z            3
loop_
_atom_site_label
_atom_site_type_symbol
_atom_site_fract_x
_atom_site_fract_y
_atom_site_fract_z
Br1 Br 0.126161(18) 0.510478(16) 0.660947(17)
Br2 Br -0.166410(18) -0.244516(16) 0.677194(17)
F1 F -0.40001(13) 0.51208(12) 0.77824(12)
F2 F -0.39769(14) 0.55884(12) 0.57518(12)
F3 F -0.53385(12) 0.41496(11) 0.69718(13)
F4 F 0.44919(14) -0.19566(14) 0.75896(13)
F5 F 0.46752(14) -0.15334(14) 0.55588(13)
F6 F 0.34078(13) -0.30703(12) 0.67206(17)
N1 N -0.15921(16) 0.39796(14) 0.67216(15)
N2 N -0.32376(16) 0.24127(14) 0.66995(15)
N3 N 0.28719(16) 0.02954(14) 0.65417(15)
N4 N 0.12369(16) -0.13268(14) 0.66391(15)
C1 C -0.05038(18) 0.30996(16) 0.66379(16)
C2 C 0.09470(17) 0.34067(16) 0.65817(16)
C3 C 0.20494(18) 0.25081(16) 0.65242(17)
H1 H 0.2993 0.2744 0.6465
C4 C 0.17873(18) 0.11966(16) 0.65531(16)
C5 C 0.03818(18) 0.08738(16) 0.65949(16)
C6 C 0.01501(18) -0.04152(16) 0.66355(16)
C7 C -0.13057(18) -0.07220(16) 0.66759(16)
C8 C -0.24020(18) 0.02062(17) 0.66588(17)
H2 H -0.3340 -0.0012 0.6655
C9 C -0.21446(18) 0.15138(16) 0.66459(17)
C10 C -0.07448(18) 0.18258(16) 0.66164(17)
C11 C -0.28758(18) 0.35644(16) 0.67434(17)
C12 C 0.25084(18) -0.08957(17) 0.65953(17)
C13 C -0.40675(19) 0.46118(18) 0.68159(18)
C14 C 0.37797(19) -0.18842(17) 0.66114(19)
Br3 Br -0.851213(18) 0.876649(16) 0.992734(18)
F7 F -0.61880(14) 0.07470(12) 1.07495(12)
F8 F -0.62002(13) 0.12757(12) 0.87229(12)
F9 F -0.48487(12) 0.22130(12) 0.95538(13)
N5 N -0.86033(16) 0.23563(15) 0.98989(15)
N6 N -0.69452(16) 0.39477(15) 0.98174(15)
C15 C -0.88534(18) 0.70609(17) 0.99396(17)
C16 C -0.77546(18) 0.61448(17) 0.98860(17)
H3 H -0.6808 0.6367 0.9842
C17 C -0.80315(18) 0.48433(17) 0.98964(16)
C18 C -0.94386(17) 0.45247(16) 0.99739(16)
C19 C -0.96847(18) 0.32475(17) 0.99815(17)
C20 C -0.73165(18) 0.27847(17) 0.98166(17)
C21 C -0.61165(18) 0.17515(17) 0.97058(18)
Br3A Br -1.148787(18) 0.123351(16) 1.007266(18)
F7A F -1.38120(14) 0.92530(12) 0.92505(12)
F8A F -1.37998(13) 0.87243(12) 1.12771(12)
F9A F -1.51513(12) 0.77870(12) 1.04462(13)
N5A N -1.13967(16) 0.76437(15) 1.01011(15)
N6A N -1.30548(16) 0.60523(15) 1.01826(15)
C15A C -1.11466(18) 0.29391(17) 1.00604(17)
C16A C -1.22454(18) 0.38552(17) 1.01140(17)
H3A H -1.3192 0.3633 1.0158
C17A C -1.19685(18) 0.51567(17) 1.01036(16)
C18A C -1.05614(17) 0.54753(16) 1.00261(16)
C19A C -1.03153(18) 0.67525(17) 1.00185(17)
C20A C -1.26835(18) 0.72153(17) 1.01834(17)
C21A C -1.38835(18) 0.82485(17) 1.02942(18)
loop_
_geom_bond_atom_site_label_1
_geom_bond_atom_site_label_2
_geom_bond_site_symmetry_1
_geom_bond_site_symmetry_2
Br1 C2 1_555 1_555
Br2 C7 1_555 1_555
F1 C13 1_555 1_555
F2 C13 1_555 1_555
F3 C13 1_555 1_555
F4 C14 1_555 1_555
F5 C14 1_555 1_555
F6 C14 1_555 1_555
N1 C1 1_555 1_555
N2 C9 1_555 1_555
N3 C4 1_555 1_555
N4 C6 1_555 1_555
C1 C2 1_555 1_555
C2 C3 1_555 1_555
C3 H1 1_555 1_555
C4 C3 1_555 1_555
C5 C4 1_555 1_555
C6 C5 1_555 1_555
C7 C6 1_555 1_555
C8 C7 1_555 1_555
H2 C8 1_555 1_555
C9 C8 1_555 1_555
C10 C1 1_555 1_555
C11 N1 1_555 1_555
C12 N3 1_555 1_555
C13 C11 1_555 1_555
C14 C12 1_555 1_555
Br3 C15 1_555 1_555
F7 C21 1_555 1_555
F8 C21 1_555 1_555
F9 C21 1_555 1_555
N5 C19 1_555 1_555
N6 C17 1_555 1_555
C15 C16 1_555 1_555
C16 H3 1_555 1_555
C17 C16 1_555 1_555
C18 C17 1_555 1_555
C19 C18 1_555 1_555
C20 N5 1_555 1_555
C21 C20 1_555 1_555
Br3A C15A 1_555 1_555
F7A C21A 1_555 1_555
F8A C21A 1_555 1_555
F9A C21A 1_555 1_555
N5A C19A 1_555 1_555
N6A C17A 1_555 1_555
C15A C19 1_555 1_555
C16A C15A 1_555 1_555
H3A C16A 1_555 1_555
C17A C16A 1_555 1_555
C18A C18 1_555 1_555
C19A C15 1_555 1_555
C20A N5A 1_555 1_555
C21A C20A 1_555 1_555
N2 C11 1_555 1_555
N4 C12 1_555 1_555
C5 C10 1_555 1_555
C9 C10 1_555 1_555
N6 C20 1_555 1_555
N6A C20A 1_555 1_555
C17A C18A 1_555 1_555
C18A C19A 1_555 1_555

#END
