
#######################################################################
#
#                 Cambridge Crystallographic Data Centre
#                                CCDC 
#
#######################################################################
#
# If this CIF has been generated from an entry in the Cambridge 
# Structural Database, then it will include bibliographic, chemical, 
# crystal, experimental, refinement or atomic coordinate data resulting 
# from the CCDC's data processing and validation procedures.
#
#######################################################################

data_SEPNUZ
_chemical_formula_moiety         'C32 H56 B11 Br1 N4 Si2'
_chemical_name_systematic        
"1,2-(2,2'-(bromoboranediyl)bis(1,3,4-tri-t-butyl-1,3,2-diazasilet-2-yl))-1,2-dicaba-closo-dodecaborane(10) unknown solvate"
_symmetry_cell_setting           orthorhombic
_symmetry_space_group_name_H-M   'C m c m'
_symmetry_Int_Tables_number      63
_space_group_name_Hall           '-C 2n 2'
loop_
_symmetry_equiv_pos_site_id
_symmetry_equiv_pos_as_xyz
1 x,y,z
2 -x,-y,1/2+z
3 -x,y,1/2-z
4 x,-y,-z
5 1/2+x,1/2+y,z
6 1/2-x,1/2-y,1/2+z
7 1/2-x,1/2+y,1/2-z
8 1/2+x,1/2-y,-z
9 -x,-y,-z
10 x,y,1/2-z
11 x,-y,1/2+z
12 -x,y,z
13 1/2-x,1/2-y,-z
14 1/2+x,1/2+y,1/2-z
15 1/2+x,1/2-y,1/2+z
16 1/2-x,1/2+y,z
_cell_length_a                   23.1961(4)
_cell_length_b                   19.2030(4)
_cell_length_c                   13.8123(3)
_cell_angle_alpha                90
_cell_angle_beta                 90
_cell_angle_gamma                90
_cell_volume                     6152.48
_exptl_crystal_colour            brown
_exptl_crystal_description       block
_cell_formula_units_Z            4
loop_
_atom_site_label
_atom_site_type_symbol
_atom_site_fract_x
_atom_site_fract_y
_atom_site_fract_z
Br1 Br 0.0000 0.33917(3) 0.7500
Si1 Si 0.06387(3) 0.17727(4) 0.7500
N1 N 0.12901(6) 0.18245(10) 0.67238(11)
C1 C 0.03654(10) 0.08317(15) 0.7500
C2 C 0.16273(10) 0.19056(14) 0.7500
C3 C 0.14202(9) 0.19747(13) 0.56844(14)
C4 C 0.14871(16) 0.27548(18) 0.5564(2)
H1 H 0.1138 0.2983 0.5763
H2 H 0.1563 0.2861 0.4897
H3 H 0.1802 0.2915 0.5956
C5 C 0.19709(13) 0.1604(2) 0.5365(2)
H4 H 0.1925 0.1111 0.5445
H5 H 0.2289 0.1763 0.5752
H6 H 0.2045 0.1707 0.4696
C6 C 0.09225(13) 0.1712(2) 0.51024(17)
H7 H 0.0577 0.1949 0.5298
H8 H 0.0878 0.1221 0.5207
H9 H 0.0993 0.1798 0.4428
C7 C 0.22628(11) 0.20324(15) 0.7500
C8 C 0.24856(13) 0.26933(17) 0.7500
H10 H 0.2242 0.3078 0.7500
C9 C 0.30817(15) 0.2780(2) 0.7500
H11 H 0.3234 0.3228 0.7500
C10 C 0.34383(15) 0.2236(3) 0.7500
H12 H 0.3835 0.2305 0.7500
C11 C 0.32215(17) 0.1584(3) 0.7500
H13 H 0.3471 0.1205 0.7500
C12 C 0.26346(14) 0.14720(19) 0.7500
H14 H 0.2490 0.1020 0.7500
B1 B 0.0000 0.05826(18) 0.6468(2)
H15 H 0.0000 0.0888 0.5794
B2 B 0.06195(10) 0.01301(13) 0.68658(17)
H16 H 0.1025 0.0137 0.6453
B3 B 0.0000 -0.0331(2) 0.6460(3)
H17 H 0.0000 -0.0628 0.5780
B4 B 0.03845(15) -0.0622(2) 0.7500
H18 H 0.0633 -0.1110 0.7500
B5 B 0.0000 0.2356(3) 0.7500
Si1B Si -0.06387(3) 0.17727(4) 0.7500
N1B N -0.12901(6) 0.18245(10) 0.82762(11)
C1B C -0.03654(10) 0.08317(15) 0.7500
C2B C -0.16273(10) 0.19056(14) 0.7500
C3B C -0.14202(9) 0.19747(13) 0.93156(14)
C4B C -0.14871(16) 0.27548(18) 0.9436(2)
H1B H -0.1138 0.2983 0.9237
H2B H -0.1563 0.2861 1.0103
H3B H -0.1802 0.2915 0.9044
C5B C -0.19709(13) 0.1604(2) 0.9635(2)
H4B H -0.1925 0.1111 0.9555
H5B H -0.2289 0.1763 0.9248
H6B H -0.2045 0.1707 1.0304
C6B C -0.09225(13) 0.1712(2) 0.98976(17)
H7B H -0.0577 0.1949 0.9702
H8B H -0.0878 0.1221 0.9793
H9B H -0.0993 0.1798 1.0572
C7B C -0.22628(11) 0.20324(15) 0.7500
C8B C -0.24856(13) 0.26933(17) 0.7500
H10B H -0.2242 0.3078 0.7500
C9B C -0.30817(15) 0.2780(2) 0.7500
H11B H -0.3234 0.3228 0.7500
C10B C -0.34383(15) 0.2236(3) 0.7500
H12B H -0.3835 0.2305 0.7500
C11B C -0.32215(17) 0.1584(3) 0.7500
H13B H -0.3471 0.1205 0.7500
C12B C -0.26346(14) 0.14720(19) 0.7500
H14B H -0.2490 0.1020 0.7500
B1B B 0.0000 0.05826(18) 0.8532(2)
H15B H 0.0000 0.0888 0.9206
B2B B -0.06195(10) 0.01301(13) 0.81342(17)
H16B H -0.1025 0.0137 0.8547
B3B B 0.0000 -0.0331(2) 0.8540(3)
H17B H 0.0000 -0.0628 0.9220
B4B B -0.03845(15) -0.0622(2) 0.7500
H18B H -0.0633 -0.1110 0.7500
N1I N 0.12901(6) 0.18245(10) 0.82762(11)
C3I C 0.14202(9) 0.19747(13) 0.93156(14)
C4I C 0.14871(16) 0.27548(18) 0.9436(2)
H1I H 0.1138 0.2983 0.9237
H2I H 0.1563 0.2861 1.0103
H3I H 0.1802 0.2915 0.9044
C5I C 0.19709(13) 0.1604(2) 0.9635(2)
H4I H 0.1925 0.1111 0.9555
H5I H 0.2289 0.1763 0.9248
H6I H 0.2045 0.1707 1.0304
C6I C 0.09225(13) 0.1712(2) 0.98976(17)
H7I H 0.0577 0.1949 0.9702
H8I H 0.0878 0.1221 0.9793
H9I H 0.0993 0.1798 1.0572
B2I B 0.06195(10) 0.01301(13) 0.81342(17)
H16I H 0.1025 0.0137 0.8547
N1K N -0.12901(6) 0.18245(10) 0.67238(11)
C3K C -0.14202(9) 0.19747(13) 0.56844(14)
C4K C -0.14871(16) 0.27548(18) 0.5564(2)
H1K H -0.1138 0.2983 0.5763
H2K H -0.1563 0.2861 0.4897
H3K H -0.1802 0.2915 0.5956
C5K C -0.19709(13) 0.1604(2) 0.5365(2)
H4K H -0.1925 0.1111 0.5445
H5K H -0.2289 0.1763 0.5752
H6K H -0.2045 0.1707 0.4696
C6K C -0.09225(13) 0.1712(2) 0.51024(17)
H7K H -0.0577 0.1949 0.5298
H8K H -0.0878 0.1221 0.5207
H9K H -0.0993 0.1798 0.4428
B2K B -0.06195(10) 0.01301(13) 0.68658(17)
H16K H -0.1025 0.0137 0.6453
loop_
_geom_bond_atom_site_label_1
_geom_bond_atom_site_label_2
_geom_bond_site_symmetry_1
_geom_bond_site_symmetry_2
Br1 B5 1_555 1_555
Si1 N1 1_555 1_555
N1 C2 1_555 1_555
C1 Si1 1_555 1_555
C2 C7 1_555 1_555
C3 N1 1_555 1_555
C4 C3 1_555 1_555
H1 C4 1_555 1_555
H2 C4 1_555 1_555
H3 C4 1_555 1_555
C5 C3 1_555 1_555
H4 C5 1_555 1_555
H5 C5 1_555 1_555
H6 C5 1_555 1_555
C6 C3 1_555 1_555
H7 C6 1_555 1_555
H8 C6 1_555 1_555
H9 C6 1_555 1_555
C7 C8 1_555 1_555
C8 H10 1_555 1_555
C9 C8 1_555 1_555
H11 C9 1_555 1_555
C10 C9 1_555 1_555
H12 C10 1_555 1_555
C11 C10 1_555 1_555
H13 C11 1_555 1_555
C12 C7 1_555 1_555
H14 C12 1_555 1_555
B1 C1 1_555 1_555
H15 B1 1_555 1_555
B2 C1 1_555 1_555
H16 B2 1_555 1_555
B3 B1 1_555 1_555
H17 B3 1_555 1_555
B4 B2 1_555 1_555
H18 B4 1_555 1_555
B5 Si1 1_555 1_555
Si1B B5 1_555 1_555
N1B Si1B 1_555 1_555
C1B C1 1_555 1_555
C2B N1B 1_555 1_555
C3B N1B 1_555 1_555
C4B C3B 1_555 1_555
H1B C4B 1_555 1_555
H2B C4B 1_555 1_555
H3B C4B 1_555 1_555
C5B C3B 1_555 1_555
H4B C5B 1_555 1_555
H5B C5B 1_555 1_555
H6B C5B 1_555 1_555
C6B C3B 1_555 1_555
H7B C6B 1_555 1_555
H8B C6B 1_555 1_555
H9B C6B 1_555 1_555
C7B C2B 1_555 1_555
C8B C7B 1_555 1_555
H10B C8B 1_555 1_555
C9B C8B 1_555 1_555
H11B C9B 1_555 1_555
C10B C9B 1_555 1_555
H12B C10B 1_555 1_555
C11B C10B 1_555 1_555
H13B C11B 1_555 1_555
C12B C7B 1_555 1_555
H14B C12B 1_555 1_555
B1B C1 1_555 1_555
H15B B1B 1_555 1_555
B2B C1B 1_555 1_555
H16B B2B 1_555 1_555
B3B B4 1_555 1_555
H17B B3B 1_555 1_555
B4B B3 1_555 1_555
H18B B4B 1_555 1_555
N1I Si1 1_555 1_555
C3I N1I 1_555 1_555
C4I C3I 1_555 1_555
H1I C4I 1_555 1_555
H2I C4I 1_555 1_555
H3I C4I 1_555 1_555
C5I C3I 1_555 1_555
H4I C5I 1_555 1_555
H5I C5I 1_555 1_555
H6I C5I 1_555 1_555
C6I C3I 1_555 1_555
H7I C6I 1_555 1_555
H8I C6I 1_555 1_555
H9I C6I 1_555 1_555
B2I C1 1_555 1_555
H16I B2I 1_555 1_555
N1K Si1B 1_555 1_555
C3K N1K 1_555 1_555
C4K C3K 1_555 1_555
H1K C4K 1_555 1_555
H2K C4K 1_555 1_555
H3K C4K 1_555 1_555
C5K C3K 1_555 1_555
H4K C5K 1_555 1_555
H5K C5K 1_555 1_555
H6K C5K 1_555 1_555
C6K C3K 1_555 1_555
H7K C6K 1_555 1_555
H8K C6K 1_555 1_555
H9K C6K 1_555 1_555
B2K B1 1_555 1_555
H16K B2K 1_555 1_555
C2 N1I 1_555 1_555
C11 C12 1_555 1_555
B1 B2 1_555 1_555
B1 C1B 1_555 1_555
B2 B3 1_555 1_555
B2 B2I 1_555 1_555
B3 B4 1_555 1_555
B3 B2K 1_555 1_555
B4 B4B 1_555 1_555
B4 B2I 1_555 1_555
Si1B C1B 1_555 1_555
C1B B1B 1_555 1_555
C1B B2K 1_555 1_555
C2B N1K 1_555 1_555
C11B C12B 1_555 1_555
B1B B2B 1_555 1_555
B1B B3B 1_555 1_555
B1B B2I 1_555 1_555
B2B B3B 1_555 1_555
B2B B4B 1_555 1_555
B2B B2K 1_555 1_555
B3B B4B 1_555 1_555
B3B B2I 1_555 1_555
B4B B2K 1_555 1_555

#END
