
#######################################################################
#
#                 Cambridge Crystallographic Data Centre
#                                CCDC 
#
#######################################################################
#
# If this CIF has been generated from an entry in the Cambridge 
# Structural Database, then it will include bibliographic, chemical, 
# crystal, experimental, refinement or atomic coordinate data resulting 
# from the CCDC's data processing and validation procedures.
#
#######################################################################

data_SEPQIO
_chemical_formula_moiety         'C22 H23 N1 O5 S1'
_chemical_name_systematic        
3-(Tetrahydropyran-2-yloxymethyl)-2-(p-tosylimino)coumarin
_symmetry_cell_setting           monoclinic
_symmetry_space_group_name_H-M   'P 21/c'
_symmetry_Int_Tables_number      14
_space_group_name_Hall           '-P 2ybc'
loop_
_symmetry_equiv_pos_site_id
_symmetry_equiv_pos_as_xyz
1 x,y,z
2 -x,1/2+y,1/2-z
3 -x,-y,-z
4 x,1/2-y,1/2+z
_cell_length_a                   11.629(5)
_cell_length_b                   15.224(5)
_cell_length_c                   12.206(3)
_cell_angle_alpha                90
_cell_angle_beta                 102.873(15)
_cell_angle_gamma                90
_cell_volume                     2106.64
_exptl_crystal_colour            colorless
_exptl_crystal_description       chunk
_chemical_melting_point          '158-161 deg.C'
_cell_formula_units_Z            4
loop_
_atom_site_label
_atom_site_type_symbol
_atom_site_fract_x
_atom_site_fract_y
_atom_site_fract_z
S1 S 0.78354(6) 0.29761(5) 0.46519(5)
O1 O 0.82672(19) 0.34025(12) 0.37776(16)
O2 O 0.7213(2) 0.34947(13) 0.53065(16)
O3 O 0.94608(16) 0.16722(11) 0.42315(12)
O4 O 1.1740(2) 0.22099(14) 0.96308(18)
O5 O 1.1856(3) 0.1658(3) 0.7969(4)
N1 N 0.8916(2) 0.25307(13) 0.55770(14)
C1 C 0.6899(2) 0.21081(18) 0.4064(2)
C2 C 0.6123(2) 0.1751(2) 0.4662(2)
C3 C 0.5432(2) 0.1057(2) 0.4223(2)
C4 C 0.5482(2) 0.0672(2) 0.3197(2)
C5 C 0.6243(2) 0.1053(2) 0.2611(2)
C6 C 0.6939(2) 0.1764(2) 0.3022(2)
C7 C 0.4781(3) -0.0128(3) 0.2768(3)
C8 C 0.9618(2) 0.19524(16) 0.53071(19)
C9 C 1.0183(2) 0.10412(16) 0.39236(19)
C10 C 0.9952(2) 0.08061(17) 0.2802(2)
C11 C 1.0660(2) 0.01730(19) 0.2478(2)
C12 C 1.1559(2) -0.02188(19) 0.3251(2)
C13 C 1.1767(2) 0.00165(18) 0.4365(2)
C14 C 1.1077(2) 0.06667(16) 0.47202(19)
C15 C 1.1249(2) 0.09559(17) 0.5856(2)
C16 C 1.0556(2) 0.15848(16) 0.6150(2)
C17 C 1.0689(2) 0.19397(19) 0.7309(2)
C18 C 1.2509(4) 0.2273(4) 0.8821(3)
C19 C 1.1516(6) 0.1294(2) 0.9933(8)
C20 C 1.2619(6) 0.0859(6) 1.0588(6)
C21 C 1.3490(2) 0.0848(2) 0.9822(2)
C22 C 1.3613(7) 0.1772(3) 0.9386(8)
H1 H 0.6075 0.1989 0.5370
H2 H 0.4894 0.0825 0.4631
H3 H 0.6288 0.0815 0.1902
H4 H 0.7442 0.2018 0.2593
H5 H 0.9327 0.1072 0.2271
H6 H 1.0524 0.0005 0.1710
H7 H 1.2027 -0.0644 0.3018
H8 H 1.2380 -0.0262 0.4897
H9 H 1.1861 0.0703 0.6414
H10 H 0.5230 -0.0638 0.3029
H11 H 0.4595 -0.0122 0.1970
H12 H 0.4073 -0.0133 0.3034
H13 H 1.0889 0.2559 0.7323
H14 H 0.9964 0.1863 0.7566
O6? O 1.1431(4) 0.1279(2) 0.8018(2)
O7? O 1.2192(3) 0.0667(3) 0.9781(4)
C23? C 1.1347(4) 0.13310(19) 0.9199(2)
C24? C 1.3840(6) 0.1756(2) 1.0297(6)
C25? C 1.3006(3) 0.2375(4) 0.9525(6)
loop_
_geom_bond_atom_site_label_1
_geom_bond_atom_site_label_2
_geom_bond_site_symmetry_1
_geom_bond_site_symmetry_2
S1 O1 1_555 1_555
O2 S1 1_555 1_555
O3 C8 1_555 1_555
O4 C18 1_555 1_555
O5 C17 1_555 1_555
N1 S1 1_555 1_555
C1 S1 1_555 1_555
C2 C1 1_555 1_555
C3 C2 1_555 1_555
C4 C3 1_555 1_555
C5 C4 1_555 1_555
C6 C1 1_555 1_555
C7 C4 1_555 1_555
C8 N1 1_555 1_555
C9 O3 1_555 1_555
C10 C9 1_555 1_555
C11 C10 1_555 1_555
C12 C11 1_555 1_555
C13 C12 1_555 1_555
C14 C9 1_555 1_555
C15 C14 1_555 1_555
C16 C8 1_555 1_555
C17 C16 1_555 1_555
C18 O5 1_555 1_555
C19 O4 1_555 1_555
C20 C19 1_555 1_555
C21 C20 1_555 1_555
C22 C18 1_555 1_555
H1 C2 1_555 1_555
H2 C3 1_555 1_555
H3 C5 1_555 1_555
H4 C6 1_555 1_555
H5 C10 1_555 1_555
H6 C11 1_555 1_555
H7 C12 1_555 1_555
H8 C13 1_555 1_555
H9 C15 1_555 1_555
H10 C7 1_555 1_555
H11 C7 1_555 1_555
H12 C7 1_555 1_555
H13 C17 1_555 1_555
H14 C17 1_555 1_555
C5 C6 1_555 1_555
C13 C14 1_555 1_555
C15 C16 1_555 1_555
C21 C22 1_555 1_555

#END
