
#######################################################################
#
#                 Cambridge Crystallographic Data Centre
#                                CCDC 
#
#######################################################################
#
# If this CIF has been generated from an entry in the Cambridge 
# Structural Database, then it will include bibliographic, chemical, 
# crystal, experimental, refinement or atomic coordinate data resulting 
# from the CCDC's data processing and validation procedures.
#
#######################################################################

data_SEPVAN
_chemical_name_common            'sulfamethazine 1-methylpyrrolidin-2-one'
_chemical_formula_moiety         'C12 H14 N4 O2 S1,C5 H9 N1 O1'
_chemical_name_systematic        
'4-amino-N-(4,6-dimethylpyrimidin-2-yl)benzene-1-sulfonamide 1-methylpyrrolidin-2-one'
_symmetry_cell_setting           monoclinic
_symmetry_space_group_name_H-M   'P 21/n'
_symmetry_Int_Tables_number      14
_space_group_name_Hall           '-P 2yn'
loop_
_symmetry_equiv_pos_site_id
_symmetry_equiv_pos_as_xyz
1 x,y,z
2 1/2-x,1/2+y,1/2-z
3 -x,-y,-z
4 1/2+x,1/2-y,1/2+z
_cell_length_a                   13.218(3)
_cell_length_b                   11.009(2)
_cell_length_c                   25.835(5)
_cell_angle_alpha                90
_cell_angle_beta                 102.92(3)
_cell_angle_gamma                90
_cell_volume                     3664.25
_exptl_crystal_colour            colorless
_exptl_crystal_description       prism
_cell_formula_units_Z            8
loop_
_atom_site_label
_atom_site_type_symbol
_atom_site_fract_x
_atom_site_fract_y
_atom_site_fract_z
S1 S 0.97595(4) 0.84092(4) 0.15816(2)
O1 O 0.98272(12) 0.72404(12) 0.18351(6)
O2 O 1.06975(11) 0.90900(13) 0.16265(6)
N1 N 0.67412(17) 1.13548(19) 0.24063(9)
H1 H 0.6962(16) 1.1982(17) 0.2614(9)
H2 H 0.6064(9) 1.120(2) 0.2334(10)
N2 N 0.92339(13) 0.80962(14) 0.09615(6)
H3 H 0.9143(16) 0.7301(10) 0.0900(8)
N3 N 0.90722(12) 1.00952(14) 0.06582(6)
N4 N 0.88019(12) 0.83904(14) 0.00625(6)
C1 C 0.88593(15) 0.93076(17) 0.18070(8)
C2 C 0.91903(16) 1.03241(17) 0.21150(8)
H4 H 0.9900 1.0557 0.2186
C3 C 0.84879(17) 1.10008(19) 0.23196(9)
H5 H 0.8722 1.1687 0.2536
C4 C 0.74396(17) 1.06854(19) 0.22113(8)
C5 C 0.71154(16) 0.96510(18) 0.19013(8)
H6 H 0.6405 0.9421 0.1826
C6 C 0.78176(15) 0.89656(18) 0.17044(8)
H7 H 0.7592 0.8261 0.1499
C7 C 0.90312(14) 0.89195(17) 0.05395(8)
C8 C 0.88596(14) 1.08501(17) 0.02368(8)
C9 C 0.86157(14) 1.04042(18) -0.02757(8)
H8 H 0.8467 1.0942 -0.0571
C10 C 0.85927(14) 0.91595(18) -0.03510(8)
C11 C 0.83341(17) 0.8614(2) -0.08945(8)
H9 H 0.8502 0.7746 -0.0871
H10 H 0.8739 0.9019 -0.1119
H11 H 0.7592 0.8720 -0.1049
C12 C 0.89065(16) 1.21824(17) 0.03502(9)
H12 H 0.8911 1.2317 0.0726
H13 H 0.8299 1.2582 0.0128
H14 H 0.9540 1.2522 0.0271
S2 S 0.45558(4) 0.76458(4) 0.13684(2)
O3 O 0.54169(11) 0.72399(13) 0.11618(6)
O4 O 0.46740(12) 0.77001(13) 0.19337(6)
N5 N 0.09256(15) 0.45800(18) 0.04894(8)
H15 H 0.0942(16) 0.4136(19) 0.0204(7)
H16 H 0.0289(11) 0.479(2) 0.0525(9)
N6 N 0.42545(13) 0.90428(14) 0.11808(7)
H17 H 0.4303(17) 0.9564(16) 0.1446(6)
N7 N 0.40232(12) 1.06811(14) 0.06211(7)
N8 N 0.39055(12) 0.86521(14) 0.02708(7)
C13 C 0.34753(15) 0.67650(17) 0.10940(8)
C14 C 0.25564(15) 0.69255(17) 0.12629(8)
H18 H 0.2517 0.7531 0.1520
C15 C 0.17044(16) 0.62130(18) 0.10604(8)
H19 H 0.1080 0.6327 0.1179
C16 C 0.17536(16) 0.53203(17) 0.06807(8)
C17 C 0.26744(16) 0.51909(18) 0.05045(8)
H20 H 0.2712 0.4603 0.0240
C18 C 0.35239(17) 0.59008(18) 0.07073(8)
H21 H 0.4144 0.5802 0.0584
C19 C 0.40547(14) 0.94697(17) 0.06594(8)
C20 C 0.38235(14) 1.11169(18) 0.01243(8)
C21 C 0.36529(15) 1.03465(18) -0.03108(8)
H22 H 0.3509 1.0664 -0.0662
C22 C 0.36966(14) 0.91114(18) -0.02242(8)
C23 C 0.35200(17) 0.8224(2) -0.06738(9)
H23 H 0.4106 0.8253 -0.0848
H24 H 0.2879 0.8435 -0.0931
H25 H 0.3458 0.7404 -0.0537
C24 C 0.37906(18) 1.24658(18) 0.00583(10)
H26 H 0.3071 1.2726 -0.0078
H27 H 0.4213 1.2703 -0.0193
H28 H 0.4066 1.2853 0.0402
O5 O 0.9022(9) 0.5501(13) 0.0814(5)
C25 C 0.8413(3) 0.5057(3) 0.10718(13)
C26 C 0.7248(3) 0.5207(5) 0.09560(17)
H29 H 0.6917 0.4785 0.0623
H30 H 0.7056 0.6078 0.0922
C27 C 0.6911(2) 0.4639(3) 0.14299(13)
H31 H 0.6291 0.4120 0.1310
H32 H 0.6749 0.5274 0.1670
C28 C 0.7848(3) 0.3874(4) 0.17108(16)
H33 H 0.7987 0.3985 0.2101
H34 H 0.7733 0.3001 0.1627
N9 N 0.8700(2) 0.4349(2) 0.14962(11)
C29 C 0.9763(3) 0.4008(5) 0.17257(18)
H35 H 0.9848 0.3133 0.1681
H36 H 0.9931 0.4208 0.2105
H37 H 1.0230 0.4451 0.1547
O7 O 0.4429(10) 0.0729(12) 0.1970(6)
C35 C 0.3767(5) 0.1429(4) 0.20799(19)
C36 C 0.2862(8) 0.1182(7) 0.2329(5)
H47 H 0.3102 0.1044 0.2715
H48 H 0.2473 0.0457 0.2167
C37 C 0.2185(4) 0.2311(5) 0.22209(19)
H49 H 0.1919 0.2539 0.2536
H50 H 0.1591 0.2184 0.1916
C38 C 0.2921(10) 0.3281(8) 0.2095(8)
H51 H 0.2555 0.3829 0.1810
H52 H 0.3217 0.3771 0.2414
N11 N 0.3725(3) 0.2603(3) 0.19222(13)
C39 C 0.4516(8) 0.3171(9) 0.1695(4)
H53 H 0.4975 0.3659 0.1967
H54 H 0.4184 0.3696 0.1399
H55 H 0.4922 0.2542 0.1565
O6? O 0.892(2) 0.564(3) 0.0753(13)
C30? C 0.9022(6) 0.4912(7) 0.1142(3)
C31? C 0.9916(7) 0.4268(9) 0.1510(4)
H38? H 1.0330 0.4850 0.1764
H39? H 1.0376 0.3880 0.1304
C32? C 0.9418(6) 0.3300(8) 0.1807(3)
H40? H 0.9428 0.2491 0.1641
H41? H 0.9789 0.3249 0.2184
C33? C 0.8306(7) 0.3737(10) 0.1759(4)
H42? H 0.7814 0.3046 0.1696
H43? H 0.8234 0.4168 0.2085
N10? N 0.8112(5) 0.4570(6) 0.1299(3)
C34? C 0.7092(8) 0.5134(13) 0.1109(5)
H44? H 0.6911 0.5607 0.1397
H45? H 0.6569 0.4501 0.0994
H46? H 0.7113 0.5672 0.0810
O8? O 0.4644(12) 0.0776(14) 0.2057(7)
C40? C 0.4138(5) 0.1743(6) 0.1991(2)
C41? C 0.4413(9) 0.3002(9) 0.1834(5)
H56? H 0.4539 0.2997 0.1470
H57? H 0.5044 0.3305 0.2082
C42? C 0.3485(5) 0.3790(5) 0.1858(3)
H58? H 0.3109 0.4023 0.1496
H59? H 0.3711 0.4538 0.2064
C43? C 0.2784(12) 0.3023(8) 0.2131(9)
H60? H 0.2809 0.3322 0.2495
H61? H 0.2055 0.3040 0.1926
N12? N 0.3215(4) 0.1808(4) 0.21418(18)
C44? C 0.2790(10) 0.0766(8) 0.2359(6)
H62? H 0.3187 0.0039 0.2311
H63? H 0.2063 0.0657 0.2175
H64? H 0.2832 0.0895 0.2739
loop_
_geom_bond_atom_site_label_1
_geom_bond_atom_site_label_2
_geom_bond_site_symmetry_1
_geom_bond_site_symmetry_2
S1 O1 1_555 1_555
O2 S1 1_555 1_555
N1 H1 1_555 1_555
H2 N1 1_555 1_555
N2 S1 1_555 1_555
H3 N2 1_555 1_555
N3 C7 1_555 1_555
N4 C7 1_555 1_555
C1 S1 1_555 1_555
C2 C1 1_555 1_555
H4 C2 1_555 1_555
C3 C2 1_555 1_555
H5 C3 1_555 1_555
C4 N1 1_555 1_555
C5 C4 1_555 1_555
H6 C5 1_555 1_555
C6 C1 1_555 1_555
H7 C6 1_555 1_555
C7 N2 1_555 1_555
C8 N3 1_555 1_555
C9 C8 1_555 1_555
H8 C9 1_555 1_555
C10 N4 1_555 1_555
C11 C10 1_555 1_555
H9 C11 1_555 1_555
H10 C11 1_555 1_555
H11 C11 1_555 1_555
C12 C8 1_555 1_555
H12 C12 1_555 1_555
H13 C12 1_555 1_555
H14 C12 1_555 1_555
S2 O3 1_555 1_555
O4 S2 1_555 1_555
N5 H15 1_555 1_555
H16 N5 1_555 1_555
N6 S2 1_555 1_555
H17 N6 1_555 1_555
N7 C19 1_555 1_555
N8 C19 1_555 1_555
C13 S2 1_555 1_555
C14 C13 1_555 1_555
H18 C14 1_555 1_555
C15 C14 1_555 1_555
H19 C15 1_555 1_555
C16 N5 1_555 1_555
C17 C16 1_555 1_555
H20 C17 1_555 1_555
C18 C13 1_555 1_555
H21 C18 1_555 1_555
C19 N6 1_555 1_555
C20 N7 1_555 1_555
C21 C20 1_555 1_555
H22 C21 1_555 1_555
C22 N8 1_555 1_555
C23 C22 1_555 1_555
H23 C23 1_555 1_555
H24 C23 1_555 1_555
H25 C23 1_555 1_555
C24 C20 1_555 1_555
H26 C24 1_555 1_555
H27 C24 1_555 1_555
H28 C24 1_555 1_555
O5 C25 1_555 1_555
C25 C26 1_555 1_555
C26 H29 1_555 1_555
H30 C26 1_555 1_555
C27 C26 1_555 1_555
H31 C27 1_555 1_555
H32 C27 1_555 1_555
C28 C27 1_555 1_555
H33 C28 1_555 1_555
H34 C28 1_555 1_555
N9 C25 1_555 1_555
C29 N9 1_555 1_555
H35 C29 1_555 1_555
H36 C29 1_555 1_555
H37 C29 1_555 1_555
O7 C35 1_555 1_555
C35 C36 1_555 1_555
C36 H47 1_555 1_555
H48 C36 1_555 1_555
C37 C36 1_555 1_555
H49 C37 1_555 1_555
H50 C37 1_555 1_555
C38 C37 1_555 1_555
H51 C38 1_555 1_555
H52 C38 1_555 1_555
N11 C35 1_555 1_555
C39 N11 1_555 1_555
H53 C39 1_555 1_555
H54 C39 1_555 1_555
H55 C39 1_555 1_555
C3 C4 1_555 1_555
C5 C6 1_555 1_555
C9 C10 1_555 1_555
C15 C16 1_555 1_555
C17 C18 1_555 1_555
C21 C22 1_555 1_555
C28 N9 1_555 1_555
C38 N11 1_555 1_555

#END
