
#######################################################################
#
#                 Cambridge Crystallographic Data Centre
#                                CCDC 
#
#######################################################################
#
# If this CIF has been generated from an entry in the Cambridge 
# Structural Database, then it will include bibliographic, chemical, 
# crystal, experimental, refinement or atomic coordinate data resulting 
# from the CCDC's data processing and validation procedures.
#
#######################################################################

data_SEPYOE
_chemical_formula_moiety         'C12 H14 N2 O4'
_chemical_name_systematic        
'methyl 2-methyl-7-nitro-1,2,3,4-tetrahydroquinoline-2-carboxylate'
_symmetry_cell_setting           triclinic
_symmetry_space_group_name_H-M   'P -1'
_symmetry_Int_Tables_number      2
_space_group_name_Hall           '-P 1'
loop_
_symmetry_equiv_pos_site_id
_symmetry_equiv_pos_as_xyz
1 x,y,z
2 -x,-y,-z
_cell_length_a                   8.228(3)
_cell_length_b                   9.076(2)
_cell_length_c                   9.579(3)
_cell_angle_alpha                116.92(2)
_cell_angle_beta                 101.25(3)
_cell_angle_gamma                100.92(3)
_cell_volume                     593.171
_exptl_crystal_colour            colorless
_exptl_crystal_description       Prism
_cell_formula_units_Z            2
loop_
_atom_site_label
_atom_site_type_symbol
_atom_site_fract_x
_atom_site_fract_y
_atom_site_fract_z
O1 O 0.89982(13) 1.22615(11) 1.09771(11)
O2 O 0.94571(13) 1.04021(11) 1.17049(11)
O3 O 0.24669(11) 0.47712(10) 0.92684(9)
O4 O 0.02702(11) 0.30504(10) 0.68643(9)
N1 N 0.86115(14) 1.07938(13) 1.07946(12)
N2 N 0.48984(13) 0.47727(12) 0.76316(12)
C1 C 0.52142(15) 0.64719(14) 0.79369(13)
C2 C 0.67239(15) 0.77739(14) 0.91685(13)
H1 H 0.7517 0.7515 0.9820
C3 C 0.70537(16) 0.94378(15) 0.94308(14)
C4 C 0.59694(17) 0.98858(16) 0.85045(15)
H2 H 0.6232 1.1041 0.8699
C5 C 0.44838(16) 0.85761(15) 0.72802(15)
H3 H 0.3716 0.8848 0.6621
C6 C 0.40694(15) 0.68801(15) 0.69750(13)
C7 C 0.24122(17) 0.54998(15) 0.56695(14)
H4 H 0.2220 0.5624 0.4681
H5 H 0.1415 0.5678 0.6089
C8 C 0.24580(16) 0.36720(15) 0.51758(14)
H6 H 0.3215 0.3364 0.4472
H7 H 0.1265 0.2833 0.4523
C9 C 0.31523(15) 0.35367(14) 0.66974(13)
C10 C 0.32501(17) 0.17073(15) 0.62079(16)
H8 H 0.3972 0.1409 0.5483
H9 H 0.2071 0.0863 0.5624
H10 H 0.3770 0.1679 0.7204
C11 C 0.19564(16) 0.38931(14) 0.77742(14)
C12 C -0.09596(17) 0.32441(18) 0.77794(15)
H11 H -0.0698 0.2810 0.8538
H12 H -0.2150 0.2576 0.7007
H13 H -0.0863 0.4478 0.8412
H14 H 0.5483(16) 0.4704(15) 0.8456(12)
loop_
_geom_bond_atom_site_label_1
_geom_bond_atom_site_label_2
_geom_bond_site_symmetry_1
_geom_bond_site_symmetry_2
O1 N1 1_555 1_555
O2 N1 1_555 1_555
O3 C11 1_555 1_555
O4 C11 1_555 1_555
N1 C3 1_555 1_555
N2 C1 1_555 1_555
C1 C2 1_555 1_555
C2 H1 1_555 1_555
C3 C2 1_555 1_555
C4 C3 1_555 1_555
H2 C4 1_555 1_555
C5 C4 1_555 1_555
H3 C5 1_555 1_555
C6 C1 1_555 1_555
C7 C6 1_555 1_555
H4 C7 1_555 1_555
H5 C7 1_555 1_555
C8 C7 1_555 1_555
H6 C8 1_555 1_555
H7 C8 1_555 1_555
C9 N2 1_555 1_555
C10 C9 1_555 1_555
H8 C10 1_555 1_555
H9 C10 1_555 1_555
H10 C10 1_555 1_555
C11 C9 1_555 1_555
C12 O4 1_555 1_555
H11 C12 1_555 1_555
H12 C12 1_555 1_555
H13 C12 1_555 1_555
H14 N2 1_555 1_555
C5 C6 1_555 1_555
C8 C9 1_555 1_555

#END
