
#######################################################################
#
#                 Cambridge Crystallographic Data Centre
#                                CCDC 
#
#######################################################################
#
# If this CIF has been generated from an entry in the Cambridge 
# Structural Database, then it will include bibliographic, chemical, 
# crystal, experimental, refinement or atomic coordinate data resulting 
# from the CCDC's data processing and validation procedures.
#
#######################################################################

data_SEPYET
_chemical_formula_moiety         'C20 H17 F3 N2 O2'
_chemical_name_systematic        
2,2,2-Trifluoro-1-(8-methyl-2,3,8,8a-tetrahydropyrrolo[3',2':3,4]chromeno[2,3-b]indol-1(13bH)-yl)ethanone
_symmetry_cell_setting           monoclinic
_symmetry_space_group_name_H-M   'P 21/c'
_symmetry_Int_Tables_number      14
_space_group_name_Hall           '-P 2ybc'
loop_
_symmetry_equiv_pos_site_id
_symmetry_equiv_pos_as_xyz
1 x,y,z
2 -x,1/2+y,1/2-z
3 -x,-y,-z
4 x,1/2-y,1/2+z
_cell_length_a                   12.148(7)
_cell_length_b                   31.580(19)
_cell_length_c                   9.542(6)
_cell_angle_alpha                90
_cell_angle_beta                 102.717(8)
_cell_angle_gamma                90
_cell_volume                     3570.84
_exptl_crystal_colour            colorless
_exptl_crystal_description       block
_cell_formula_units_Z            8
loop_
_atom_site_label
_atom_site_type_symbol
_atom_site_fract_x
_atom_site_fract_y
_atom_site_fract_z
C1 C 0.7478(4) -0.06934(12) 0.4678(5)
H1 H 0.7455 -0.0950 0.4194
C2 C 0.8039(4) -0.06576(13) 0.6093(5)
H2 H 0.8402 -0.0893 0.6566
C3 C 0.8072(4) -0.02816(14) 0.6820(5)
H3 H 0.8456 -0.0266 0.7775
C4 C 0.7538(4) 0.00748(13) 0.6142(5)
H4 H 0.7565 0.0331 0.6631
C5 C 0.6965(3) 0.00420(11) 0.4721(4)
C6 C 0.6951(3) -0.03383(12) 0.3996(4)
C7 C 0.6284(3) 0.03662(11) 0.3758(4)
C8 C 0.5803(3) 0.01079(12) 0.2367(4)
H5 H 0.4994 0.0065 0.2298
C9 C 0.7024(3) 0.04462(12) 0.1101(5)
C10 C 0.7471(4) 0.03866(13) -0.0091(5)
H6 H 0.7061 0.0246 -0.0894
C11 C 0.8543(4) 0.05399(14) -0.0070(5)
H7 H 0.8856 0.0503 -0.0867
C12 C 0.9142(4) 0.07459(13) 0.1115(5)
H8 H 0.9867 0.0843 0.1130
C13 C 0.8672(3) 0.08087(12) 0.2282(4)
H9 H 0.9085 0.0949 0.3084
C14 C 0.7595(3) 0.06669(11) 0.2285(4)
C15 C 0.6990(3) 0.07471(11) 0.3468(4)
H10 H 0.7538 0.0822 0.4350
C16 C 0.5023(4) 0.09544(14) 0.3292(6)
H11 H 0.4537 0.0868 0.2389
H12 H 0.4653 0.1176 0.3721
C17 C 0.5332(4) 0.05802(12) 0.4307(5)
H13 H 0.4695 0.0391 0.4248
H14 H 0.5589 0.0674 0.5292
C18 C 0.6485(4) 0.14846(13) 0.2915(5)
C19 C 0.5565(5) 0.18171(17) 0.2422(9)
C20 C 0.5807(4) -0.06609(13) 0.1789(5)
H15 H 0.6340 -0.0889 0.1865
H16 H 0.5546 -0.0585 0.0797
H17 H 0.5178 -0.0749 0.2176
F1 F 0.5956(3) 0.21404(10) 0.1827(5)
F2 F 0.4667(3) 0.16796(11) 0.1505(5)
F3 F 0.5185(3) 0.19649(11) 0.3515(5)
N1 N 0.6349(3) -0.02977(10) 0.2587(4)
N2 N 0.6140(3) 0.10923(10) 0.3094(4)
O1 O 0.5945(2) 0.03010(9) 0.1060(3)
O2 O 0.7456(3) 0.15966(8) 0.3081(3)
C21 C 0.1826(4) 0.18934(13) 0.5328(6)
C22 C 0.2571(4) 0.18589(14) 0.4420(7)
H18 H 0.3347 0.1877 0.4774
C23 C 0.2121(5) 0.17966(14) 0.2968(7)
H19 H 0.2607 0.1774 0.2343
C24 C 0.0989(5) 0.17682(13) 0.2430(5)
H20 H 0.0712 0.1721 0.1453
C25 C 0.0241(4) 0.18101(12) 0.3348(5)
H21 H -0.0534 0.1794 0.2985
C26 C 0.0661(4) 0.18753(11) 0.4785(5)
C27 C 0.0070(3) 0.19364(11) 0.5992(4)
C28 C 0.1062(4) 0.20324(14) 0.7294(5)
H22 H 0.1049 0.2335 0.7520
C29 C -0.0601(3) 0.15405(11) 0.6266(4)
H23 H -0.0969 0.1413 0.5345
C30 C 0.0126(4) 0.12170(12) 0.7176(5)
C31 C 0.0928(4) 0.13651(14) 0.8328(5)
C32 C 0.1613(4) 0.10912(18) 0.9245(5)
H24 H 0.2139 0.1193 1.0034
C33 C 0.1506(5) 0.06668(19) 0.8975(7)
H25 H 0.1961 0.0480 0.9600
C34 C 0.0752(5) 0.05072(15) 0.7816(7)
H26 H 0.0704 0.0217 0.7645
C35 C 0.0059(4) 0.07872(13) 0.6896(5)
H27 H -0.0449 0.0685 0.6093
C36 C -0.0833(3) 0.22823(12) 0.5795(5)
H28 H -0.0494 0.2562 0.5898
H29 H -0.1343 0.2261 0.4859
C37 C -0.1443(4) 0.21942(12) 0.6985(5)
H30 H -0.1026 0.2302 0.7900
H31 H -0.2196 0.2315 0.6772
C38 C -0.2312(4) 0.14805(14) 0.7200(5)
C39 C -0.3147(5) 0.16769(18) 0.7987(8)
C40 C 0.3165(4) 0.20624(18) 0.7648(7)
H32 H 0.3704 0.1846 0.7578
H33 H 0.3120 0.2096 0.8633
H34 H 0.3397 0.2325 0.7294
F4 F -0.3668(3) 0.13886(11) 0.8574(5)
F5 F -0.3938(3) 0.18904(13) 0.7076(6)
F6 F -0.2727(3) 0.19526(11) 0.8970(4)
N3 N 0.2071(3) 0.19435(12) 0.6800(5)
N4 N -0.1477(3) 0.17261(10) 0.6972(4)
O3 O 0.1025(3) 0.17938(10) 0.8568(3)
O4 O -0.2441(3) 0.11107(9) 0.6858(3)
loop_
_geom_bond_atom_site_label_1
_geom_bond_atom_site_label_2
_geom_bond_site_symmetry_1
_geom_bond_site_symmetry_2
C1 H1 1_555 1_555
C2 C1 1_555 1_555
H2 C2 1_555 1_555
C3 C2 1_555 1_555
H3 C3 1_555 1_555
C4 C3 1_555 1_555
H4 C4 1_555 1_555
C5 C4 1_555 1_555
C6 C1 1_555 1_555
C7 C5 1_555 1_555
C8 C7 1_555 1_555
H5 C8 1_555 1_555
C9 C10 1_555 1_555
C10 H6 1_555 1_555
C11 C10 1_555 1_555
H7 C11 1_555 1_555
C12 C11 1_555 1_555
H8 C12 1_555 1_555
C13 C12 1_555 1_555
H9 C13 1_555 1_555
C14 C9 1_555 1_555
C15 C7 1_555 1_555
H10 C15 1_555 1_555
C16 H11 1_555 1_555
H12 C16 1_555 1_555
C17 C7 1_555 1_555
H13 C17 1_555 1_555
H14 C17 1_555 1_555
C18 C19 1_555 1_555
C19 F1 1_555 1_555
C20 H15 1_555 1_555
H16 C20 1_555 1_555
H17 C20 1_555 1_555
F2 C19 1_555 1_555
F3 C19 1_555 1_555
N1 C6 1_555 1_555
N2 C15 1_555 1_555
O1 C8 1_555 1_555
O2 C18 1_555 1_555
C21 C22 1_555 1_555
C22 H18 1_555 1_555
C23 C22 1_555 1_555
H19 C23 1_555 1_555
C24 C23 1_555 1_555
H20 C24 1_555 1_555
C25 C24 1_555 1_555
H21 C25 1_555 1_555
C26 C21 1_555 1_555
C27 C26 1_555 1_555
C28 C27 1_555 1_555
H22 C28 1_555 1_555
C29 C27 1_555 1_555
H23 C29 1_555 1_555
C30 C29 1_555 1_555
C31 C30 1_555 1_555
C32 C31 1_555 1_555
H24 C32 1_555 1_555
C33 C32 1_555 1_555
H25 C33 1_555 1_555
C34 C33 1_555 1_555
H26 C34 1_555 1_555
C35 C30 1_555 1_555
H27 C35 1_555 1_555
C36 C27 1_555 1_555
H28 C36 1_555 1_555
H29 C36 1_555 1_555
C37 C36 1_555 1_555
H30 C37 1_555 1_555
H31 C37 1_555 1_555
C38 C39 1_555 1_555
C39 F4 1_555 1_555
C40 H32 1_555 1_555
H33 C40 1_555 1_555
H34 C40 1_555 1_555
F5 C39 1_555 1_555
F6 C39 1_555 1_555
N3 C21 1_555 1_555
N4 C29 1_555 1_555
O3 C28 1_555 1_555
O4 C38 1_555 1_555
C5 C6 1_555 1_555
C8 N1 1_555 1_555
C9 O1 1_555 1_555
C13 C14 1_555 1_555
C14 C15 1_555 1_555
C16 C17 1_555 1_555
C16 N2 1_555 1_555
C18 N2 1_555 1_555
C20 N1 1_555 1_555
C25 C26 1_555 1_555
C28 N3 1_555 1_555
C31 O3 1_555 1_555
C34 C35 1_555 1_555
C37 N4 1_555 1_555
C38 N4 1_555 1_555
C40 N3 1_555 1_555

#END
