
#######################################################################
#
#                 Cambridge Crystallographic Data Centre
#                                CCDC 
#
#######################################################################
#
# If this CIF has been generated from an entry in the Cambridge 
# Structural Database, then it will include bibliographic, chemical, 
# crystal, experimental, refinement or atomic coordinate data resulting 
# from the CCDC's data processing and validation procedures.
#
#######################################################################

data_SEPZIZ
_chemical_formula_moiety         'C23 H24 Br1 N1 O1'
_chemical_name_systematic        
10-(4-bromophenyl)-5,6a,8,8-tetramethyl-6a,7,8,9-tetrahydrophenanthridin-6(5H)-one
_symmetry_cell_setting           orthorhombic
_symmetry_space_group_name_H-M   'P n a 21'
_symmetry_Int_Tables_number      33
_space_group_name_Hall           'P 2c -2n'
loop_
_symmetry_equiv_pos_site_id
_symmetry_equiv_pos_as_xyz
1 x,y,z
2 -x,-y,1/2+z
3 1/2-x,1/2+y,1/2+z
4 1/2+x,1/2-y,z
_cell_length_a                   11.8036(9)
_cell_length_b                   21.3495(16)
_cell_length_c                   7.9601(6)
_cell_angle_alpha                90
_cell_angle_beta                 90
_cell_angle_gamma                90
_cell_volume                     2005.95
_exptl_crystal_colour            colorless
_cell_formula_units_Z            4
loop_
_atom_site_label
_atom_site_type_symbol
_atom_site_fract_x
_atom_site_fract_y
_atom_site_fract_z
Br1 Br 0.93800(2) 0.361753(12) 1.24613(5)
O1 O 0.80168(18) -0.02561(9) 0.5424(3)
N1 N 0.94866(18) 0.04071(10) 0.5627(3)
C1 C 0.8363(2) 0.02790(12) 0.5468(4)
C2 C 0.7572(2) 0.08477(10) 0.5258(3)
C3 C 0.6349(2) 0.06772(12) 0.5735(3)
H1 H 0.5842 0.0923 0.5039
H2 H 0.6227 0.0240 0.5454
C4 C 0.60102(18) 0.07731(9) 0.7561(4)
C5 C 0.6275(2) 0.14485(10) 0.8033(3)
H3 H 0.5743 0.1723 0.7466
H4 H 0.6167 0.1500 0.9233
C6 C 0.74693(17) 0.16472(8) 0.7584(3)
C7 C 0.80476(19) 0.13787(9) 0.6318(3)
C8 C 0.92176(19) 0.15355(12) 0.5813(3)
C9 C 0.9634(2) 0.21371(13) 0.5564(3)
H5 H 0.9168 0.2480 0.5777
C10 C 1.0727(2) 0.22339(16) 0.5007(4)
H6 H 1.0996 0.2640 0.4857
C11 C 1.1412(3) 0.17361(18) 0.4677(4)
H7 H 1.2151 0.1804 0.4312
C12 C 1.1022(3) 0.11355(17) 0.4881(4)
H8 H 1.1494 0.0799 0.4633
C13 C 0.9940(2) 0.10259(12) 0.5447(3)
C14 C 1.0279(3) -0.01241(16) 0.5746(5)
H9 H 1.1039 0.0031 0.5853
H10 H 1.0221 -0.0377 0.4752
H11 H 1.0094 -0.0373 0.6713
C15 C 0.7608(2) 0.10195(13) 0.3375(3)
H12 H 0.7301 0.0681 0.2726
H13 H 0.8378 0.1094 0.3043
H14 H 0.7167 0.1391 0.3186
C16 C 0.4736(2) 0.06558(13) 0.7731(4)
H15 H 0.4511 0.0717 0.8878
H16 H 0.4567 0.0234 0.7396
H17 H 0.4331 0.0943 0.7024
C17 C 0.6655(3) 0.03320(12) 0.8734(4)
H18 H 0.6424 0.0407 0.9873
H19 H 0.7453 0.0406 0.8628
H20 H 0.6491 -0.0094 0.8437
C18 C 0.7961(2) 0.21339(10) 0.8712(3)
C19 C 0.7410(2) 0.27027(11) 0.8965(3)
H21 H 0.6746 0.2787 0.8377
C20 C 0.7826(2) 0.31434(11) 1.0071(3)
H22 H 0.7454 0.3523 1.0225
C21 C 0.8799(2) 0.30109(10) 1.0936(3)
C22 C 0.9368(2) 0.24554(12) 1.0744(3)
H23 H 1.0021 0.2374 1.1360
C23 C 0.8951(2) 0.20185(11) 0.9617(3)
H24 H 0.9336 0.1643 0.9461
loop_
_geom_bond_atom_site_label_1
_geom_bond_atom_site_label_2
_geom_bond_site_symmetry_1
_geom_bond_site_symmetry_2
Br1 C21 1_555 1_555
O1 C1 1_555 1_555
N1 C1 1_555 1_555
C1 C2 1_555 1_555
C2 C3 1_555 1_555
C3 H1 1_555 1_555
H2 C3 1_555 1_555
C4 C3 1_555 1_555
C5 C4 1_555 1_555
H3 C5 1_555 1_555
H4 C5 1_555 1_555
C6 C5 1_555 1_555
C7 C2 1_555 1_555
C8 C7 1_555 1_555
C9 C8 1_555 1_555
H5 C9 1_555 1_555
C10 C9 1_555 1_555
H6 C10 1_555 1_555
C11 C10 1_555 1_555
H7 C11 1_555 1_555
C12 C11 1_555 1_555
H8 C12 1_555 1_555
C13 N1 1_555 1_555
C14 N1 1_555 1_555
H9 C14 1_555 1_555
H10 C14 1_555 1_555
H11 C14 1_555 1_555
C15 C2 1_555 1_555
H12 C15 1_555 1_555
H13 C15 1_555 1_555
H14 C15 1_555 1_555
C16 C4 1_555 1_555
H15 C16 1_555 1_555
H16 C16 1_555 1_555
H17 C16 1_555 1_555
C17 C4 1_555 1_555
H18 C17 1_555 1_555
H19 C17 1_555 1_555
H20 C17 1_555 1_555
C18 C6 1_555 1_555
C19 C18 1_555 1_555
H21 C19 1_555 1_555
C20 C19 1_555 1_555
H22 C20 1_555 1_555
C21 C20 1_555 1_555
C22 C21 1_555 1_555
H23 C22 1_555 1_555
C23 C18 1_555 1_555
H24 C23 1_555 1_555
C6 C7 1_555 1_555
C8 C13 1_555 1_555
C12 C13 1_555 1_555
C22 C23 1_555 1_555

#END
