
#######################################################################
#
#                 Cambridge Crystallographic Data Centre
#                                CCDC 
#
#######################################################################
#
# If this CIF has been generated from an entry in the Cambridge 
# Structural Database, then it will include bibliographic, chemical, 
# crystal, experimental, refinement or atomic coordinate data resulting 
# from the CCDC's data processing and validation procedures.
#
#######################################################################

data_SEQCIC
_chemical_formula_moiety         'C23 H30 O4'
_chemical_name_systematic        
'5-Hydroxy-8a-(methoxymethyl)-4-methylene-6-(prop-1-en-2-yl)decahydronaphthalen-1-yl benzoate'
_symmetry_cell_setting           monoclinic
_symmetry_space_group_name_H-M   'P 21/c'
_symmetry_Int_Tables_number      14
_space_group_name_Hall           '-P 2ybc'
loop_
_symmetry_equiv_pos_site_id
_symmetry_equiv_pos_as_xyz
1 x,y,z
2 -x,1/2+y,1/2-z
3 -x,-y,-z
4 x,1/2-y,1/2+z
_cell_length_a                   14.6915(18)
_cell_length_b                   12.6135(16)
_cell_length_c                   11.3554(14)
_cell_angle_alpha                90
_cell_angle_beta                 104.3130(10)
_cell_angle_gamma                90
_cell_volume                     2038.97
_exptl_crystal_colour            colorless
_exptl_crystal_description       block
_cell_formula_units_Z            4
loop_
_atom_site_label
_atom_site_type_symbol
_atom_site_fract_x
_atom_site_fract_y
_atom_site_fract_z
O1 O 0.33341(9) 1.05979(9) 0.47396(10)
O2 O 0.14691(10) 0.96297(10) 0.15573(11)
O3 O 0.05985(10) 0.78224(11) 0.19799(11)
H1 H 0.0780 0.8364 0.1710
O4 O 0.38878(11) 1.04911(11) 0.67575(12)
C1 C 0.21308(12) 0.93419(13) 0.37272(15)
C2 C 0.30576(13) 0.94828(13) 0.47070(16)
H2 H 0.2936 0.9308 0.5495
C3 C 0.08337(13) 0.78669(14) 0.32715(16)
H3 H 0.0731 0.7154 0.3557
C4 C 0.18570(12) 0.81555(12) 0.38673(15)
H4 H 0.1902 0.8082 0.4739
C5 C 0.38972(12) 1.21628(14) 0.58085(15)
C6 C 0.01787(12) 0.86168(14) 0.37500(16)
H5 H 0.0358 0.8551 0.4637
C7 C 0.36434(14) 1.27551(16) 0.47605(17)
H6 H 0.3344 1.2430 0.4033
C8 C 0.13825(13) 1.00774(14) 0.40296(17)
H7 H 0.1480 1.0103 0.4906
H8 H 0.1480 1.0788 0.3758
C9 C 0.26152(14) 0.74192(14) 0.36486(17)
C10 C 0.03681(13) 0.97615(14) 0.34727(17)
H9 H -0.0046 1.0222 0.3787
H10 H 0.0229 0.9859 0.2599
C11 C 0.23153(14) 0.95982(15) 0.24871(16)
H11 H 0.2629 1.0279 0.2530
H12 H 0.2729 0.9065 0.2289
C12 C 0.37143(12) 1.10101(15) 0.58411(16)
C13 C 0.43392(15) 1.26648(17) 0.68800(18)
H13 H 0.4519 1.2273 0.7594
C14 C 0.38527(14) 0.87819(16) 0.45365(19)
H14 H 0.4406 0.8899 0.5195
H15 H 0.4009 0.8959 0.3779
C15 C 0.35569(15) 0.76167(16) 0.4517(2)
H16 H 0.4028 0.7181 0.4283
H17 H 0.3528 0.7406 0.5329
C16 C 0.42671(16) 1.43127(17) 0.5857(2)
H18 H 0.4393 1.5036 0.5872
C17 C 0.38310(16) 1.38280(17) 0.4783(2)
H19 H 0.3662 1.4223 0.4070
C18 C 0.24874(17) 0.66722(16) 0.2814(2)
H20 H 0.2988 0.6245 0.2746
H21 H 0.1897 0.6572 0.2293
C19 C -0.08418(14) 0.82891(17) 0.33535(18)
C20 C 0.45156(17) 1.37346(18) 0.6901(2)
H22 H 0.4805 1.4065 0.7630
C21 C 0.16350(18) 0.9764(2) 0.03856(18)
H23 H 0.1965 1.0417 0.0362
H24 H 0.1046 0.9782 -0.0214
H25 H 0.2006 0.9184 0.0217
C22 C -0.11028(19) 0.7340(2) 0.3899(3)
H26 H -0.1772 0.7252 0.3653
H27 H -0.0907 0.7399 0.4768
H28 H -0.0803 0.6738 0.3639
C23 C -0.14896(19) 0.8859(2) 0.2577(2)
H29 H -0.2115 0.8645 0.2385
H30 H -0.1315 0.9470 0.2230
loop_
_geom_bond_atom_site_label_1
_geom_bond_atom_site_label_2
_geom_bond_site_symmetry_1
_geom_bond_site_symmetry_2
O1 C2 1_555 1_555
O2 C11 1_555 1_555
O3 H1 1_555 1_555
O4 C12 1_555 1_555
C1 C2 1_555 1_555
C2 H2 1_555 1_555
C3 O3 1_555 1_555
H3 C3 1_555 1_555
C4 C1 1_555 1_555
H4 C4 1_555 1_555
C5 C7 1_555 1_555
C6 C3 1_555 1_555
H5 C6 1_555 1_555
C7 H6 1_555 1_555
C8 C1 1_555 1_555
H7 C8 1_555 1_555
H8 C8 1_555 1_555
C9 C4 1_555 1_555
C10 C6 1_555 1_555
H9 C10 1_555 1_555
H10 C10 1_555 1_555
C11 C1 1_555 1_555
H11 C11 1_555 1_555
H12 C11 1_555 1_555
C12 O1 1_555 1_555
C13 C5 1_555 1_555
H13 C13 1_555 1_555
C14 C2 1_555 1_555
H14 C14 1_555 1_555
H15 C14 1_555 1_555
C15 C9 1_555 1_555
H16 C15 1_555 1_555
H17 C15 1_555 1_555
C16 H18 1_555 1_555
C17 C7 1_555 1_555
H19 C17 1_555 1_555
C18 C9 1_555 1_555
H20 C18 1_555 1_555
H21 C18 1_555 1_555
C19 C6 1_555 1_555
C20 C13 1_555 1_555
H22 C20 1_555 1_555
C21 O2 1_555 1_555
H23 C21 1_555 1_555
H24 C21 1_555 1_555
H25 C21 1_555 1_555
C22 C19 1_555 1_555
H26 C22 1_555 1_555
H27 C22 1_555 1_555
H28 C22 1_555 1_555
C23 C19 1_555 1_555
H29 C23 1_555 1_555
H30 C23 1_555 1_555
C3 C4 1_555 1_555
C5 C12 1_555 1_555
C8 C10 1_555 1_555
C14 C15 1_555 1_555
C16 C17 1_555 1_555
C16 C20 1_555 1_555

#END
