
#######################################################################
#
#                 Cambridge Crystallographic Data Centre
#                                CCDC 
#
#######################################################################
#
# If this CIF has been generated from an entry in the Cambridge 
# Structural Database, then it will include bibliographic, chemical, 
# crystal, experimental, refinement or atomic coordinate data resulting 
# from the CCDC's data processing and validation procedures.
#
#######################################################################

data_SEQHIG
_chemical_formula_moiety         'C40 H30 N8 4+,2(Cl1 1-),2(I3 1-)'
_chemical_name_systematic        
'5,10,15,20-tetrakis(4-Pyridinio)porphyrin dichloride bis(triiodide)'
_symmetry_cell_setting           monoclinic
_symmetry_space_group_name_H-M   'C 2/m'
_symmetry_Int_Tables_number      12
_space_group_name_Hall           '-C 2y'
loop_
_symmetry_equiv_pos_site_id
_symmetry_equiv_pos_as_xyz
1 x,y,z
2 1/2+x,1/2+y,z
3 -x,y,-z
4 1/2-x,1/2+y,-z
5 -x,-y,-z
6 1/2-x,1/2-y,-z
7 x,-y,z
8 1/2+x,1/2-y,z
_cell_length_a                   14.4525(4)
_cell_length_b                   20.8624(7)
_cell_length_c                   7.8359(2)
_cell_angle_alpha                90
_cell_angle_beta                 109.1133(17)
_cell_angle_gamma                90
_cell_volume                     2232.39
_exptl_crystal_colour            violet
_exptl_crystal_description       plates
_cell_formula_units_Z            2
loop_
_atom_site_label
_atom_site_type_symbol
_atom_site_fract_x
_atom_site_fract_y
_atom_site_fract_z
C1 C 0.45005(10) 0.13809(7) 0.10428(17)
C2 C 0.40523(10) 0.16772(7) 0.22152(19)
H1 H 0.4027 0.2124 0.2429
C3 C 0.36678(10) 0.12033(7) 0.29721(18)
H2 H 0.3319 0.1257 0.3801
C4 C 0.38909(9) 0.06041(7) 0.22756(17)
N1 N 0.44102(7) 0.07269(6) 0.11221(15)
C5 C 0.36432(12) 0.0000 0.2798(2)
C6 C 0.30437(12) 0.0000 0.4019(3)
C7 C 0.20476(13) 0.0000 0.3351(3)
H4 H 0.1723 0.0000 0.2083
C8 C 0.15089(13) 0.0000 0.4522(3)
H5 H 0.0814 0.0000 0.4061
N2 N 0.19734(11) 0.0000 0.6313(2)
H6 H 0.1649(16) 0.0000 0.706(3)
C9 C 0.29535(16) 0.0000 0.7036(3)
H7 H 0.3260 0.0000 0.8309
C10 C 0.35107(14) 0.0000 0.5890(3)
H8 H 0.4205 0.0000 0.6375
C11 C 0.5000 0.16963(9) 0.0000
C12 C 0.5000 0.24110(9) 0.0000
C13 C 0.41285(10) 0.27567(8) -0.03759(18)
H9 H 0.3522 0.2536 -0.0655
C14 C 0.41470(11) 0.34188(8) -0.0343(2)
H10 H 0.3558 0.3656 -0.0563
N3 N 0.5000 0.37216(9) 0.0000
H11 H 0.5000 0.4136(12) 0.0000
C1B C 0.54995(10) 0.13809(7) -0.10428(17)
C1D C 0.54995(10) -0.13809(7) -0.10428(17)
C1F C 0.45005(10) -0.13809(7) 0.10428(17)
C2B C 0.59477(10) 0.16772(7) -0.22152(19)
C2D C 0.59477(10) -0.16772(7) -0.22152(19)
C2F C 0.40523(10) -0.16772(7) 0.22152(19)
H1B H 0.5973 0.2124 -0.2429
H1F H 0.4027 -0.2124 0.2429
H1D H 0.5973 -0.2124 -0.2429
C3B C 0.63322(10) 0.12033(7) -0.29721(18)
C3D C 0.63322(10) -0.12033(7) -0.29721(18)
C3F C 0.36678(10) -0.12033(7) 0.29721(18)
H2B H 0.6681 0.1257 -0.3801
H2F H 0.3319 -0.1257 0.3801
H2D H 0.6681 -0.1257 -0.3801
C4B C 0.61091(9) 0.06041(7) -0.22756(17)
C4D C 0.61091(9) -0.06041(7) -0.22756(17)
C4F C 0.38909(9) -0.06041(7) 0.22756(17)
N1B N 0.55898(7) 0.07269(6) -0.11221(15)
N1D N 0.55898(7) -0.07269(6) -0.11221(15)
N1F N 0.44102(7) -0.07269(6) 0.11221(15)
C5D C 0.63568(12) 0.0000 -0.2798(2)
C6D C 0.69563(12) 0.0000 -0.4019(3)
C7D C 0.79524(13) 0.0000 -0.3351(3)
H4D H 0.8277 0.0000 -0.2083
C8D C 0.84911(13) 0.0000 -0.4522(3)
H5D H 0.9186 0.0000 -0.4061
N2D N 0.80266(11) 0.0000 -0.6313(2)
H6D H 0.8351(16) 0.0000 -0.706(3)
C9D C 0.70465(16) 0.0000 -0.7036(3)
H7D H 0.6740 0.0000 -0.8309
C10D C 0.64893(14) 0.0000 -0.5890(3)
H8D H 0.5795 0.0000 -0.6375
C11F C 0.5000 -0.16963(9) 0.0000
C12F C 0.5000 -0.24110(9) 0.0000
C13D C 0.58715(10) -0.27567(8) 0.03759(18)
C13F C 0.41285(10) -0.27567(8) -0.03759(18)
C13B C 0.58715(10) 0.27567(8) 0.03759(18)
H9D H 0.6478 -0.2536 0.0655
H9F H 0.3522 -0.2536 -0.0655
H9B H 0.6478 0.2536 0.0655
C14D C 0.58530(11) -0.34188(8) 0.0343(2)
C14F C 0.41470(11) -0.34188(8) -0.0343(2)
C14B C 0.58530(11) 0.34188(8) 0.0343(2)
H10D H 0.6442 -0.3656 0.0563
H10F H 0.3558 -0.3656 -0.0563
H10B H 0.6442 0.3656 0.0563
N3F N 0.5000 -0.37216(9) 0.0000
H11F H 0.5000 -0.4136(12) 0.0000
I1 I 0.0000 0.165305(6) 0.5000
I2 I 0.212955(8) 0.169404(6) 0.653308(17)
I2B I -0.212955(8) 0.169404(6) 0.346692(17)
Cl1 Cl 0.07996(3) 0.0000 0.87726(6)
H3? H 0.4642 0.0440 0.0543
loop_
_geom_bond_atom_site_label_1
_geom_bond_atom_site_label_2
_geom_bond_site_symmetry_1
_geom_bond_site_symmetry_2
C1 C2 1_555 1_555
C2 H1 1_555 1_555
C3 C2 1_555 1_555
H2 C3 1_555 1_555
C4 C3 1_555 1_555
N1 C1 1_555 1_555
C5 C4 1_555 1_555
C6 C5 1_555 1_555
C7 C6 1_555 1_555
H4 C7 1_555 1_555
C8 C7 1_555 1_555
H5 C8 1_555 1_555
N2 C8 1_555 1_555
H6 N2 1_555 1_555
C9 N2 1_555 1_555
H7 C9 1_555 1_555
C10 C6 1_555 1_555
H8 C10 1_555 1_555
C11 C1 1_555 1_555
C12 C11 1_555 1_555
C13 C12 1_555 1_555
H9 C13 1_555 1_555
C14 C13 1_555 1_555
H10 C14 1_555 1_555
N3 C14 1_555 1_555
H11 N3 1_555 1_555
I1 I2 1_555 1_555
C1B C11 1_555 1_555
C1D C2D 1_555 1_555
C1F C2F 1_555 1_555
C2B C1B 1_555 1_555
C2D H1D 1_555 1_555
C2F H1F 1_555 1_555
H1B C2B 1_555 1_555
C3B C2B 1_555 1_555
C3D C2D 1_555 1_555
C3F C2F 1_555 1_555
H2B C3B 1_555 1_555
H2F C3F 1_555 1_555
H2D C3D 1_555 1_555
C4B C3B 1_555 1_555
C4D C3D 1_555 1_555
C4F C5 1_555 1_555
N1B C1B 1_555 1_555
N1D C1D 1_555 1_555
N1F C1F 1_555 1_555
C5D C4B 1_555 1_555
C6D C5D 1_555 1_555
C7D C6D 1_555 1_555
H4D C7D 1_555 1_555
C8D C7D 1_555 1_555
H5D C8D 1_555 1_555
N2D C8D 1_555 1_555
H6D N2D 1_555 1_555
C9D N2D 1_555 1_555
H7D C9D 1_555 1_555
C10D C6D 1_555 1_555
H8D C10D 1_555 1_555
C11F C1D 1_555 1_555
C12F C11F 1_555 1_555
C13D C12F 1_555 1_555
C13F C12F 1_555 1_555
C13B C12 1_555 1_555
H9D C13D 1_555 1_555
H9F C13F 1_555 1_555
H9B C13B 1_555 1_555
C14D C13D 1_555 1_555
C14F C13F 1_555 1_555
C14B N3 1_555 1_555
H10D C14D 1_555 1_555
H10F C14F 1_555 1_555
H10B C14B 1_555 1_555
N3F C14D 1_555 1_555
H11F N3F 1_555 1_555
I2B I1 1_555 1_555
C4 N1 1_555 1_555
C9 C10 1_555 1_555
C1F C11F 1_555 1_555
C3F C4F 1_555 1_555
C4B N1B 1_555 1_555
C4D N1D 1_555 1_555
C4D C5D 1_555 1_555
C4F N1F 1_555 1_555
C9D C10D 1_555 1_555
C13B C14B 1_555 1_555
C14F N3F 1_555 1_555

#END
