
#######################################################################
#
#                 Cambridge Crystallographic Data Centre
#                                CCDC 
#
#######################################################################
#
# If this CIF has been generated from an entry in the Cambridge 
# Structural Database, then it will include bibliographic, chemical, 
# crystal, experimental, refinement or atomic coordinate data resulting 
# from the CCDC's data processing and validation procedures.
#
#######################################################################

data_SEQJOP
_chemical_formula_moiety         'C25 H29 Br1 N4 O5'
_chemical_name_systematic        
N-(4-Bromophenyl)-1-(2-((N-(t-butoxycarbonyl)glycyl)amino)benzoyl)prolinamide
_symmetry_cell_setting           orthorhombic
_symmetry_space_group_name_H-M   'P 21 21 21'
_symmetry_Int_Tables_number      19
_space_group_name_Hall           'P 2ac 2ab'
loop_
_symmetry_equiv_pos_site_id
_symmetry_equiv_pos_as_xyz
1 x,y,z
2 1/2-x,-y,1/2+z
3 1/2+x,1/2-y,-z
4 -x,1/2+y,1/2-z
_cell_length_a                   10.7202(7)
_cell_length_b                   15.5510(9)
_cell_length_c                   15.4320(10)
_cell_angle_alpha                90
_cell_angle_beta                 90
_cell_angle_gamma                90
_cell_volume                     2572.67
_exptl_crystal_colour            colorless
_exptl_crystal_description       rectangular
_cell_formula_units_Z            4
loop_
_atom_site_label
_atom_site_type_symbol
_atom_site_fract_x
_atom_site_fract_y
_atom_site_fract_z
Br1 Br -0.27529(4) -0.06319(4) -0.19717(3)
O1 O 0.0269(3) 0.33690(15) 0.26764(15)
O2 O 0.1196(3) 0.21390(17) 0.31140(18)
O3 O 0.3709(2) 0.29391(14) 0.19045(17)
O4 O 0.5363(3) 0.08610(13) -0.08283(14)
O5 O 0.2868(2) 0.02977(14) 0.00930(15)
N1 N 0.1230(3) 0.25860(16) 0.17162(17)
H1 H 0.0867 0.2917 0.1348
N2 N 0.5358(3) -0.00113(15) 0.03286(16)
N3 N 0.2701(3) -0.07755(15) -0.09178(17)
C1 C 0.0934(3) 0.2659(2) 0.2565(2)
C2 C 0.2130(3) 0.1974(2) 0.1411(2)
H2 H 0.1945 0.1831 0.0813
H3 H 0.2060 0.1451 0.1751
C3 C 0.3451(3) 0.23084(19) 0.1471(2)
N4 N 0.4308(3) 0.18367(15) 0.10296(17)
H4 H 0.4020 0.1400 0.0753
C4 C 0.5605(3) 0.19679(18) 0.0965(2)
C5 C 0.6297(3) 0.13942(19) 0.0460(2)
C6 C 0.7585(4) 0.1490(2) 0.0397(3)
H5 H 0.8039 0.1106 0.0059
C7 C 0.8195(4) 0.2133(3) 0.0820(3)
H6 H 0.9059 0.2179 0.0787
C8 C 0.7515(4) 0.2711(2) 0.1295(3)
H7 H 0.7922 0.3165 0.1568
C9 C 0.6239(4) 0.2634(2) 0.1375(2)
H8 H 0.5798 0.3031 0.1707
C10 C 0.5647(3) 0.0726(2) -0.0066(2)
C11 C 0.4615(3) -0.06582(19) -0.0123(2)
H9 H 0.5021 -0.0832 -0.0664
C12 C 0.4598(4) -0.1405(2) 0.0529(3)
H10 H 0.3799 -0.1698 0.0517
H11 H 0.5250 -0.1817 0.0396
C13 C 0.4807(7) -0.1020(3) 0.1361(4)
H12 H 0.5235 -0.1423 0.1738
H13 H 0.4016 -0.0870 0.1626
C14 C 0.5590(4) -0.0223(2) 0.1240(2)
H14 H 0.5319 0.0237 0.1620
H15 H 0.6467 -0.0340 0.1343
C15 C 0.3316(3) -0.03139(18) -0.0298(2)
C16 C 0.1425(3) -0.0702(2) -0.11481(19)
C17 C 0.0852(4) -0.1422(2) -0.1468(2)
H16 H 0.1305 -0.1929 -0.1524
C18 C -0.0378(4) -0.1407(2) -0.1706(2)
H17 H -0.0755 -0.1904 -0.1915
C19 C -0.1050(3) -0.0672(2) -0.1640(2)
C20 C -0.0483(4) 0.0072(2) -0.1338(2)
H18 H -0.0933 0.0582 -0.1307
C21 C 0.0749(4) 0.00523(19) -0.1086(2)
H19 H 0.1127 0.0548 -0.0874
C22 C -0.0147(5) 0.3654(3) 0.3529(2)
C23 C -0.1117(5) 0.3021(3) 0.3870(3)
H20 H -0.1700 0.2887 0.3417
H21 H -0.1554 0.3274 0.4350
H22 H -0.0709 0.2504 0.4057
C24 C -0.0781(6) 0.4517(3) 0.3297(4)
H23 H -0.0157 0.4926 0.3124
H24 H -0.1222 0.4732 0.3793
H25 H -0.1356 0.4429 0.2828
C25 C 0.0916(6) 0.3762(4) 0.4133(3)
H26 H 0.1316 0.3217 0.4222
H27 H 0.0618 0.3979 0.4677
H28 H 0.1505 0.4160 0.3890
loop_
_geom_bond_atom_site_label_1
_geom_bond_atom_site_label_2
_geom_bond_site_symmetry_1
_geom_bond_site_symmetry_2
Br1 C19 1_555 1_555
O1 C1 1_555 1_555
O2 C1 1_555 1_555
O3 C3 1_555 1_555
O4 C10 1_555 1_555
O5 C15 1_555 1_555
N1 H1 1_555 1_555
N2 C10 1_555 1_555
N3 C15 1_555 1_555
C1 N1 1_555 1_555
C2 N1 1_555 1_555
H2 C2 1_555 1_555
H3 C2 1_555 1_555
C3 C2 1_555 1_555
N4 C3 1_555 1_555
H4 N4 1_555 1_555
C4 N4 1_555 1_555
C5 C4 1_555 1_555
C6 C5 1_555 1_555
H5 C6 1_555 1_555
C7 C6 1_555 1_555
H6 C7 1_555 1_555
C8 C7 1_555 1_555
H7 C8 1_555 1_555
C9 C4 1_555 1_555
H8 C9 1_555 1_555
C10 C5 1_555 1_555
C11 N2 1_555 1_555
H9 C11 1_555 1_555
C12 C11 1_555 1_555
H10 C12 1_555 1_555
H11 C12 1_555 1_555
C13 C12 1_555 1_555
H12 C13 1_555 1_555
H13 C13 1_555 1_555
C14 N2 1_555 1_555
H14 C14 1_555 1_555
H15 C14 1_555 1_555
C15 C11 1_555 1_555
C16 N3 1_555 1_555
C17 C16 1_555 1_555
H16 C17 1_555 1_555
C18 C17 1_555 1_555
H17 C18 1_555 1_555
C19 C18 1_555 1_555
C20 C19 1_555 1_555
H18 C20 1_555 1_555
C21 C16 1_555 1_555
H19 C21 1_555 1_555
C22 O1 1_555 1_555
C23 C22 1_555 1_555
H20 C23 1_555 1_555
H21 C23 1_555 1_555
H22 C23 1_555 1_555
C24 C22 1_555 1_555
H23 C24 1_555 1_555
H24 C24 1_555 1_555
H25 C24 1_555 1_555
C25 C22 1_555 1_555
H26 C25 1_555 1_555
H27 C25 1_555 1_555
H28 C25 1_555 1_555
C8 C9 1_555 1_555
C13 C14 1_555 1_555
C20 C21 1_555 1_555

#END
