
#######################################################################
#
#                 Cambridge Crystallographic Data Centre
#                                CCDC 
#
#######################################################################
#
# If this CIF has been generated from an entry in the Cambridge 
# Structural Database, then it will include bibliographic, chemical, 
# crystal, experimental, refinement or atomic coordinate data resulting 
# from the CCDC's data processing and validation procedures.
#
#######################################################################

data_SEQMAC
_chemical_name_common            'SB 207499, Ariflo'
_chemical_formula_moiety         'C20 H25 N1 O4'
_chemical_name_systematic        
'cis-4-Cyano-4-(3-(cyclopentyloxy)-4-methoxyphenyl)cyclohexane-1-carboxylic acid'
_chemical_properties_biological  
'potent and selective inhibitory activity against Phosphodiesterase 4 (PDE4), with good antiinflammatory activity and decreased potential for side effects compared to (R)-rolipram'
_symmetry_cell_setting           monoclinic
_symmetry_space_group_name_H-M   'P 21/c'
_symmetry_Int_Tables_number      14
_space_group_name_Hall           '-P 2ybc'
loop_
_symmetry_equiv_pos_site_id
_symmetry_equiv_pos_as_xyz
1 x,y,z
2 -x,1/2+y,1/2-z
3 -x,-y,-z
4 x,1/2-y,1/2+z
_cell_length_a                   14.244(3)
_cell_length_b                   14.239(1)
_cell_length_c                   9.292(2)
_cell_angle_alpha                90
_cell_angle_beta                 107.06(1)
_cell_angle_gamma                90
_cell_volume                     1801.68
_exptl_crystal_colour            colorless
_exptl_crystal_description       plate
_chemical_melting_point          157deg.C
_cell_formula_units_Z            4
loop_
_atom_site_label
_atom_site_type_symbol
_atom_site_fract_x
_atom_site_fract_y
_atom_site_fract_z
O1 O 0.1144(1) 0.4383(1) 0.0359(2)
O2 O 0.0729(1) 0.5743(1) 0.1163(2)
O3 O 0.8111(2) 0.5464(2) 0.4092(3)
O4 O 0.8362(1) 0.6729(1) 0.6118(2)
N1 N 0.4378(2) 0.6117(2) -0.0442(2)
C1 C 0.2409(2) 0.5319(2) 0.2013(3)
C2 C 0.2665(2) 0.6337(2) 0.1785(3)
C3 C 0.3701(2) 0.6586(2) 0.2716(3)
C4 C 0.4482(1) 0.5929(2) 0.2411(2)
C5 C 0.4202(2) 0.4900(2) 0.2652(3)
C6 C 0.3158(2) 0.4649(2) 0.1689(3)
C7 C 0.1354(2) 0.5134(2) 0.1116(3)
C8 C 0.4447(2) 0.6036(2) 0.0810(3)
C9 C 0.5527(2) 0.6183(2) 0.3399(2)
C10 C 0.6326(2) 0.5644(2) 0.3319(3)
C11 C 0.7264(2) 0.5848(2) 0.4226(3)
C12 C 0.7417(2) 0.6602(2) 0.5237(3)
C13 C 0.6637(2) 0.7147(2) 0.5285(3)
C14 C 0.5695(2) 0.6931(2) 0.4366(3)
C15 C 0.8029(2) 0.4652(2) 0.3138(4)
C16 C 0.7697(3) 0.3809(3) 0.3856(5)
C17 C 0.8670(2) 0.3496(2) 0.5002(3)
C18 C 0.9391(4) 0.3452(5) 0.4100(8)
C19 C 0.9082(3) 0.4407(4) 0.3119(5)
C20 C 0.8550(2) 0.7507(2) 0.7127(3)
H1 H 0.0531(27) 0.4319(37) -0.0067(49)
H2 H 0.2451(2) 0.5245(2) 0.3090(3)
H3 H 0.2600(2) 0.6442(2) 0.0718(3)
H4 H 0.2199(2) 0.6753(2) 0.2066(3)
H5 H 0.3742(2) 0.6553(2) 0.3786(3)
H6 H 0.3844(2) 0.7233(2) 0.2491(3)
H7 H 0.4670(2) 0.4474(2) 0.2399(3)
H8 H 0.4251(2) 0.4807(2) 0.3717(3)
H9 H 0.3120(2) 0.4685(2) 0.0620(3)
H10 H 0.3004(2) 0.4003(2) 0.1908(3)
H11 H 0.6228(2) 0.5137(2) 0.2643(3)
H12 H 0.6734(2) 0.7666(2) 0.5936(3)
H13 H 0.5164(2) 0.7309(2) 0.4413(3)
H14 H 0.7602(2) 0.4769(2) 0.2145(4)
H15 H 0.7426(3) 0.3316(3) 0.3114(5)
H16 H 0.7207(3) 0.3985(3) 0.4359(5)
H17 H 0.8449(2) 0.2856(2) 0.4878(3)
H18 H 0.8847(2) 0.3665(2) 0.6048(3)
H19 H 0.9292(4) 0.2893(5) 0.3459(8)
H20 H 1.0072(4) 0.3474(5) 0.4745(8)
H21 H 0.9535(3) 0.4919(4) 0.3565(5)
H22 H 0.9100(3) 0.4308(4) 0.2084(5)
H23 H 0.9242(2) 0.7522(2) 0.7684(3)
H24 H 0.8163(2) 0.7445(2) 0.7824(3)
H25 H 0.8374(2) 0.8085(2) 0.6559(3)
O5? O 0.8039(4) 0.5100(4) 0.4674(6)
C21? C 0.8053(6) 0.4137(7) 0.2497(10)
C22? C 0.7904(6) 0.4183(6) 0.4017(10)
C23? C 0.9480(16) 0.3676(16) 0.4307(26)
C24? C 0.9143(8) 0.4056(8) 0.2802(12)
H26? H 0.0121(28) 0.5648(43) 0.0726(62)
H27? H 0.8599(2) 0.2888(2) 0.5404(3)
H28? H 0.8877(2) 0.3937(2) 0.5816(3)
H29? H 0.7804(6) 0.4706(7) 0.1917(10)
H30? H 0.7718(6) 0.3590(7) 0.1936(10)
H31? H 0.7257(6) 0.3964(6) 0.3954(10)
H32? H 0.9951(16) 0.4115(16) 0.4948(26)
H33? H 0.9827(16) 0.3085(16) 0.4279(26)
H34? H 0.9305(8) 0.3634(8) 0.2076(12)
H35? H 0.9438(8) 0.4672(8) 0.2750(12)
loop_
_geom_bond_atom_site_label_1
_geom_bond_atom_site_label_2
_geom_bond_site_symmetry_1
_geom_bond_site_symmetry_2
O1 C7 1_555 1_555
O2 C7 1_555 1_555
O3 C11 1_555 1_555
O4 C12 1_555 1_555
N1 C8 1_555 1_555
C1 C2 1_555 1_555
C2 C3 1_555 1_555
C3 C4 1_555 1_555
C4 C5 1_555 1_555
C5 C6 1_555 1_555
C6 C1 1_555 1_555
C7 C1 1_555 1_555
C8 C4 1_555 1_555
C9 C4 1_555 1_555
C10 C9 1_555 1_555
C11 C10 1_555 1_555
C12 C11 1_555 1_555
C13 C12 1_555 1_555
C14 C9 1_555 1_555
C15 O3 1_555 1_555
C16 C15 1_555 1_555
C17 C16 1_555 1_555
C18 C17 1_555 1_555
C19 C15 1_555 1_555
C20 O4 1_555 1_555
H1 O1 1_555 1_555
H2 C1 1_555 1_555
H3 C2 1_555 1_555
H4 C2 1_555 1_555
H5 C3 1_555 1_555
H6 C3 1_555 1_555
H7 C5 1_555 1_555
H8 C5 1_555 1_555
H9 C6 1_555 1_555
H10 C6 1_555 1_555
H11 C10 1_555 1_555
H12 C13 1_555 1_555
H13 C14 1_555 1_555
H14 C15 1_555 1_555
H15 C16 1_555 1_555
H16 C16 1_555 1_555
H17 C17 1_555 1_555
H18 C17 1_555 1_555
H19 C18 1_555 1_555
H20 C18 1_555 1_555
H21 C19 1_555 1_555
H22 C19 1_555 1_555
H23 C20 1_555 1_555
H24 C20 1_555 1_555
H25 C20 1_555 1_555
C13 C14 1_555 1_555
C18 C19 1_555 1_555

#END
