
#######################################################################
#
#                 Cambridge Crystallographic Data Centre
#                                CCDC 
#
#######################################################################
#
# If this CIF has been generated from an entry in the Cambridge 
# Structural Database, then it will include bibliographic, chemical, 
# crystal, experimental, refinement or atomic coordinate data resulting 
# from the CCDC's data processing and validation procedures.
#
#######################################################################

data_SEQSUD
_chemical_formula_moiety         'C60 H64 Ca1 N2 O3 P4'
_chemical_name_systematic        
bis(bis(Diphenylphosphanyl)amido-N,P)-tris(tetrahydrofuran)-calcium(ii)
_symmetry_cell_setting           monoclinic
_symmetry_space_group_name_H-M   'P 21/n'
_symmetry_Int_Tables_number      14
_space_group_name_Hall           '-P 2yn'
loop_
_symmetry_equiv_pos_site_id
_symmetry_equiv_pos_as_xyz
1 x,y,z
2 1/2-x,1/2+y,1/2-z
3 -x,-y,-z
4 1/2+x,1/2-y,1/2+z
_cell_length_a                   10.9126(6)
_cell_length_b                   12.3498(5)
_cell_length_c                   39.794(2)
_cell_angle_alpha                90
_cell_angle_beta                 89.970(4)
_cell_angle_gamma                90
_cell_volume                     5362.97
_exptl_crystal_colour            colorless
_exptl_crystal_description       prism
_cell_formula_units_Z            4
_exptl_crystal_recrystallization_method tetrahydrofuran/n-pentane
loop_
_atom_site_label
_atom_site_type_symbol
_atom_site_fract_x
_atom_site_fract_y
_atom_site_fract_z
C1 C 0.5215(3) 0.8150(4) 0.29038(10)
C2 C 0.5259(4) 0.8905(4) 0.26448(11)
H1 H 0.4998 0.9627 0.2684
C3 C 0.5681(5) 0.8608(6) 0.23325(13)
H2 H 0.5700 0.9126 0.2156
C4 C 0.6072(6) 0.7576(7) 0.22739(15)
H3 H 0.6370 0.7385 0.2057
C5 C 0.6041(6) 0.6811(6) 0.25236(17)
H4 H 0.6319 0.6094 0.2482
C6 C 0.5595(5) 0.7102(4) 0.28381(13)
H5 H 0.5550 0.6572 0.3011
C7 C 0.5452(4) 0.9795(4) 0.33768(10)
C8 C 0.6715(4) 0.9855(4) 0.33166(11)
H6 H 0.7134 0.9239 0.3232
C9 C 0.7362(5) 1.0796(5) 0.33784(14)
H7 H 0.8220 1.0820 0.3338
C10 C 0.6783(6) 1.1675(5) 0.34957(16)
H8 H 0.7233 1.2319 0.3538
C11 C 0.5532(7) 1.1651(5) 0.3555(2)
H9 H 0.5125 1.2279 0.3636
C12 C 0.4875(5) 1.0706(4) 0.34957(16)
H10 H 0.4018 1.0690 0.3538
C13 C 0.1279(4) 0.8636(3) 0.28768(10)
C14 C 0.0039(4) 0.8923(4) 0.28590(11)
H11 H -0.0240 0.9548 0.2975
C15 C -0.0789(4) 0.8313(4) 0.26752(12)
H12 H -0.1626 0.8522 0.2668
C16 C -0.0406(4) 0.7400(4) 0.25008(12)
H13 H -0.0974 0.6987 0.2373
C17 C 0.0814(5) 0.7100(4) 0.25148(12)
H14 H 0.1087 0.6473 0.2398
C18 C 0.1636(4) 0.7713(3) 0.26983(11)
H15 H 0.2473 0.7501 0.2703
C19 C 0.1571(4) 1.0392(3) 0.33265(10)
C20 C 0.1073(5) 1.0149(4) 0.36346(13)
H16 H 0.1159 0.9434 0.3719
C21 C 0.0450(5) 1.0908(4) 0.38266(15)
H17 H 0.0111 1.0707 0.4037
C22 C 0.0324(4) 1.1943(4) 0.37124(14)
H18 H -0.0090 1.2470 0.3844
C23 C 0.0800(5) 1.2213(4) 0.34073(15)
H19 H 0.0699 1.2930 0.3325
C24 C 0.1428(5) 1.1461(4) 0.32143(13)
H20 H 0.1766 1.1672 0.3004
C25 C -0.0586(4) 0.6232(4) 0.37470(11)
C26 C -0.0996(4) 0.6459(4) 0.34203(12)
H21 H -0.0716 0.7095 0.3310
C27 C -0.1786(5) 0.5787(5) 0.32588(12)
H22 H -0.2054 0.5963 0.3038
C28 C -0.2203(5) 0.4859(4) 0.34090(13)
H23 H -0.2757 0.4396 0.3294
C29 C -0.1807(5) 0.4604(4) 0.37303(14)
H24 H -0.2084 0.3957 0.3835
C30 C -0.1011(4) 0.5288(4) 0.38985(12)
H25 H -0.0752 0.5112 0.4120
C31 C -0.0546(4) 0.8107(4) 0.41681(11)
C32 C -0.1459(5) 0.8648(4) 0.39954(13)
H26 H -0.1613 0.8484 0.3766
C33 C -0.2141(5) 0.9420(4) 0.41565(14)
H27 H -0.2754 0.9795 0.4033
C34 C -0.1974(5) 0.9672(5) 0.44873(15)
H28 H -0.2454 1.0216 0.4593
C35 C -0.1089(5) 0.9113(5) 0.46642(14)
H29 H -0.0974 0.9249 0.4897
C36 C -0.0368(4) 0.8352(4) 0.45007(13)
H30 H 0.0263 0.7994 0.4622
C37 C 0.1826(4) 0.4611(4) 0.44877(11)
C38 C 0.2057(5) 0.3936(4) 0.47620(12)
H31 H 0.1855 0.4169 0.4983
C39 C 0.2577(7) 0.2933(5) 0.47119(16)
H32 H 0.2737 0.2485 0.4901
C40 C 0.2868(6) 0.2565(5) 0.43995(16)
H33 H 0.3244 0.1878 0.4371
C41 C 0.2609(5) 0.3204(4) 0.41253(13)
H34 H 0.2793 0.2948 0.3906
C42 C 0.2086(5) 0.4210(4) 0.41656(12)
H35 H 0.1900 0.4637 0.3974
C43 C 0.1950(4) 0.6476(4) 0.48848(11)
C44 C 0.1363(6) 0.6728(5) 0.51886(13)
H36 H 0.0509 0.6598 0.5212
C45 C 0.2014(7) 0.7162(6) 0.54530(14)
H37 H 0.1600 0.7330 0.5656
C46 C 0.3222(7) 0.7353(5) 0.54285(14)
H38 H 0.3657 0.7643 0.5615
C47 C 0.3826(6) 0.7127(5) 0.51350(14)
H39 H 0.4679 0.7269 0.5116
C48 C 0.3185(5) 0.6691(4) 0.48654(12)
H40 H 0.3610 0.6537 0.4663
C49 C 0.2089(4) 0.5455(4) 0.32353(11)
H41 H 0.1759 0.6127 0.3134
H42 H 0.1424 0.5099 0.3363
O1 O 0.3094(3) 0.5711(2) 0.34564(7)
C50 C 0.2541(12) 0.4723(11) 0.2969(3)
H43 H 0.2748 0.5132 0.2763
H44 H 0.1921 0.4166 0.2913
C51 C 0.3668(9) 0.4212(9) 0.3119(3)
H45 H 0.3485 0.3469 0.3198
H46 H 0.4333 0.4175 0.2950
C54 C 0.4043(4) 0.4912(4) 0.34074(12)
H51 H 0.4141 0.4468 0.3613
H52 H 0.4833 0.5271 0.3358
O2 O 0.3550(8) 0.8640(8) 0.4231(2)
C55 C 0.4715(9) 0.8997(9) 0.4334(3)
H53 H 0.5256 0.9049 0.4135
H54 H 0.5073 0.8453 0.4488
C56 C 0.4683(11) 1.0034(10) 0.4501(3)
H55 H 0.4500 1.0643 0.4348
H56 H 0.5431 1.0186 0.4634
C57 C 0.3608(10) 0.9705(8) 0.4714(2)
H57 H 0.3205 1.0350 0.4812
H58 H 0.3874 0.9224 0.4899
C58 C 0.2709(7) 0.9094(7) 0.4472(2)
H59 H 0.2248 0.8522 0.4592
H60 H 0.2124 0.9599 0.4364
O4 O 0.4893(3) 0.6392(2) 0.40526(7)
C63 C 0.5102(5) 0.5385(4) 0.42256(13)
H69 H 0.5409 0.4828 0.4068
H70 H 0.4333 0.5119 0.4329
C64 C 0.6052(5) 0.5621(4) 0.44942(13)
H71 H 0.5661 0.5685 0.4718
H72 H 0.6676 0.5040 0.4503
C65 C 0.6615(5) 0.6670(5) 0.43911(13)
H73 H 0.7520 0.6617 0.4385
H74 H 0.6377 0.7260 0.4547
C66 C 0.6096(4) 0.6866(5) 0.40402(12)
H75 H 0.6050 0.7650 0.3990
H76 H 0.6608 0.6509 0.3867
N1 N 0.3175(3) 0.8615(3) 0.33455(8)
N2 N 0.1479(3) 0.6620(3) 0.41923(8)
P1 P 0.46905(9) 0.84771(8) 0.33331(2)
P2 P 0.24930(9) 0.94674(8) 0.30692(2)
P3 P 0.05086(10) 0.71937(9) 0.39342(3)
P4 P 0.10305(10) 0.59064(10) 0.45371(3)
Ca1 Ca 0.31040(7) 0.72884(6) 0.380459(18)
C52? C 0.2804(11) 0.5035(10) 0.2926(3)
H47? H 0.2297 0.4509 0.2799
H48? H 0.3011 0.5644 0.2775
C53? C 0.3858(14) 0.4543(13) 0.3039(4)
H49? H 0.4567 0.4763 0.2899
H50? H 0.3776 0.3745 0.3027
O3? O 0.3503(8) 0.8771(7) 0.4181(2)
C59? C 0.4367(12) 0.9615(11) 0.4192(3)
H61? H 0.4080 1.0273 0.4074
H62? H 0.5176 0.9392 0.4103
C60? C 0.4377(15) 0.9764(17) 0.4593(4)
H63? H 0.4799 0.9158 0.4707
H64? H 0.4753 1.0460 0.4661
C61? C 0.3006(14) 0.9749(13) 0.4654(3)
H65? H 0.2778 0.9221 0.4830
H66? H 0.2693 1.0475 0.4716
C62? C 0.2550(11) 0.9395(12) 0.4306(3)
H67? H 0.1788 0.8965 0.4325
H68? H 0.2394 1.0030 0.4161
loop_
_geom_bond_atom_site_label_1
_geom_bond_atom_site_label_2
_geom_bond_site_symmetry_1
_geom_bond_site_symmetry_2
C1 C2 1_555 1_555
C2 H1 1_555 1_555
C3 C2 1_555 1_555
H2 C3 1_555 1_555
C4 C3 1_555 1_555
H3 C4 1_555 1_555
C5 C4 1_555 1_555
H4 C5 1_555 1_555
C6 C1 1_555 1_555
H5 C6 1_555 1_555
C7 C8 1_555 1_555
C8 H6 1_555 1_555
C9 C8 1_555 1_555
H7 C9 1_555 1_555
C10 C9 1_555 1_555
H8 C10 1_555 1_555
C11 C10 1_555 1_555
H9 C11 1_555 1_555
C12 C7 1_555 1_555
H10 C12 1_555 1_555
C13 C14 1_555 1_555
C14 H11 1_555 1_555
C15 C14 1_555 1_555
H12 C15 1_555 1_555
C16 C15 1_555 1_555
H13 C16 1_555 1_555
C17 C16 1_555 1_555
H14 C17 1_555 1_555
C18 C13 1_555 1_555
H15 C18 1_555 1_555
C19 C20 1_555 1_555
C20 H16 1_555 1_555
C21 C20 1_555 1_555
H17 C21 1_555 1_555
C22 C21 1_555 1_555
H18 C22 1_555 1_555
C23 C22 1_555 1_555
H19 C23 1_555 1_555
C24 C19 1_555 1_555
H20 C24 1_555 1_555
C25 C26 1_555 1_555
C26 H21 1_555 1_555
C27 C26 1_555 1_555
H22 C27 1_555 1_555
C28 C27 1_555 1_555
H23 C28 1_555 1_555
C29 C28 1_555 1_555
H24 C29 1_555 1_555
C30 C25 1_555 1_555
H25 C30 1_555 1_555
C31 C32 1_555 1_555
C32 H26 1_555 1_555
C33 C32 1_555 1_555
H27 C33 1_555 1_555
C34 C33 1_555 1_555
H28 C34 1_555 1_555
C35 C34 1_555 1_555
H29 C35 1_555 1_555
C36 C31 1_555 1_555
H30 C36 1_555 1_555
C37 C38 1_555 1_555
C38 H31 1_555 1_555
C39 C38 1_555 1_555
H32 C39 1_555 1_555
C40 C39 1_555 1_555
H33 C40 1_555 1_555
C41 C40 1_555 1_555
H34 C41 1_555 1_555
C42 C37 1_555 1_555
H35 C42 1_555 1_555
C43 C44 1_555 1_555
C44 H36 1_555 1_555
C45 C44 1_555 1_555
H37 C45 1_555 1_555
C46 C45 1_555 1_555
H38 C46 1_555 1_555
C47 C46 1_555 1_555
H39 C47 1_555 1_555
C48 C43 1_555 1_555
H40 C48 1_555 1_555
C49 H41 1_555 1_555
H42 C49 1_555 1_555
O1 C49 1_555 1_555
C50 C49 1_555 1_555
H43 C50 1_555 1_555
H44 C50 1_555 1_555
C51 C50 1_555 1_555
H45 C51 1_555 1_555
H46 C51 1_555 1_555
C54 O1 1_555 1_555
H51 C54 1_555 1_555
H52 C54 1_555 1_555
O2 C55 1_555 1_555
C55 H53 1_555 1_555
H54 C55 1_555 1_555
C56 C55 1_555 1_555
H55 C56 1_555 1_555
H56 C56 1_555 1_555
C57 C56 1_555 1_555
H57 C57 1_555 1_555
H58 C57 1_555 1_555
C58 O2 1_555 1_555
H59 C58 1_555 1_555
H60 C58 1_555 1_555
O4 C63 1_555 1_555
C63 H69 1_555 1_555
H70 C63 1_555 1_555
C64 C63 1_555 1_555
H71 C64 1_555 1_555
H72 C64 1_555 1_555
C65 C64 1_555 1_555
H73 C65 1_555 1_555
H74 C65 1_555 1_555
C66 O4 1_555 1_555
H75 C66 1_555 1_555
H76 C66 1_555 1_555
N1 P1 1_555 1_555
N2 P3 1_555 1_555
P1 C1 1_555 1_555
P2 C13 1_555 1_555
P3 C25 1_555 1_555
P4 C37 1_555 1_555
Ca1 O1 1_555 1_555
C5 C6 1_555 1_555
C7 P1 1_555 1_555
C11 C12 1_555 1_555
C17 C18 1_555 1_555
C19 P2 1_555 1_555
C23 C24 1_555 1_555
C29 C30 1_555 1_555
C31 P3 1_555 1_555
C35 C36 1_555 1_555
C41 C42 1_555 1_555
C43 P4 1_555 1_555
C47 C48 1_555 1_555
C51 C54 1_555 1_555
O2 Ca1 1_555 1_555
C57 C58 1_555 1_555
O4 Ca1 1_555 1_555
C65 C66 1_555 1_555
N1 P2 1_555 1_555
N1 Ca1 1_555 1_555
N2 P4 1_555 1_555
N2 Ca1 1_555 1_555
P1 Ca1 1_555 1_555
P3 Ca1 1_555 1_555

#END
