
#######################################################################
#
#                 Cambridge Crystallographic Data Centre
#                                CCDC 
#
#######################################################################
#
# If this CIF has been generated from an entry in the Cambridge 
# Structural Database, then it will include bibliographic, chemical, 
# crystal, experimental, refinement or atomic coordinate data resulting 
# from the CCDC's data processing and validation procedures.
#
#######################################################################

data_SEQTOA
_chemical_formula_moiety         'C42 H36 N2 O2 S1'
_chemical_name_systematic        
10,10'-[sulfonylbis(2,1-phenylene)]bis(9,9-dimethyl-9,10-dihydroacridine)
_symmetry_cell_setting           monoclinic
_symmetry_space_group_name_H-M   'P 21/c'
_symmetry_Int_Tables_number      14
_space_group_name_Hall           '-P 2ybc'
loop_
_symmetry_equiv_pos_site_id
_symmetry_equiv_pos_as_xyz
1 x,y,z
2 -x,1/2+y,1/2-z
3 -x,-y,-z
4 x,1/2-y,1/2+z
_cell_length_a                   13.5766(12)
_cell_length_b                   15.6601(12)
_cell_length_c                   15.8281(12)
_cell_angle_alpha                90
_cell_angle_beta                 96.624(3)
_cell_angle_gamma                90
_cell_volume                     3342.76
_exptl_crystal_colour            colorless
_exptl_crystal_description       Block
_cell_formula_units_Z            4
loop_
_atom_site_label
_atom_site_type_symbol
_atom_site_fract_x
_atom_site_fract_y
_atom_site_fract_z
C1 C 0.2389(2) -0.03559(15) 0.62641(16)
C2 C 0.1881(2) -0.10503(17) 0.58785(19)
H1 H 0.2244 -0.1517 0.5726
C3 C 0.0868(3) -0.10767(19) 0.5714(2)
H2 H 0.0554 -0.1549 0.5448
C4 C 0.0325(2) -0.03979(18) 0.59457(17)
H3 H -0.0363 -0.0413 0.5852
C5 C 0.0797(2) 0.03060(17) 0.63164(16)
H4 H 0.0423 0.0767 0.6468
C6 C 0.18298(19) 0.03411(14) 0.64694(14)
C7 C 0.32947(19) 0.10576(15) 0.71783(16)
C8 C 0.3687(2) 0.17098(17) 0.77152(18)
H5 H 0.3275 0.2150 0.7853
C9 C 0.4664(2) 0.1717(2) 0.8043(2)
H6 H 0.4908 0.2153 0.8407
C10 C 0.5278(3) 0.1080(2) 0.7834(3)
H7 H 0.5948 0.1087 0.8038
C11 C 0.4892(2) 0.0424(2) 0.7314(3)
H8 H 0.5315 -0.0010 0.7181
C12 C 0.3903(2) 0.03845(16) 0.69827(18)
C13 C 0.3520(2) -0.03654(16) 0.64213(18)
C14 C 0.3868(3) -0.12093(18) 0.6865(2)
H9 H 0.4578 -0.1209 0.6980
H10 H 0.3660 -0.1682 0.6502
H11 H 0.3582 -0.1261 0.7390
C15 C 0.3945(3) -0.0320(2) 0.5566(2)
H12 H 0.3745 0.0206 0.5286
H13 H 0.3700 -0.0792 0.5216
H14 H 0.4655 -0.0346 0.5661
C16 C 0.17057(18) 0.18075(15) 0.69796(14)
C17 C 0.1333(2) 0.18895(16) 0.77491(16)
H15 H 0.1480 0.1476 0.8167
C18 C 0.0744(2) 0.25769(17) 0.79097(17)
H16 H 0.0505 0.2627 0.8435
C19 C 0.0510(2) 0.31863(17) 0.72940(18)
H17 H 0.0101 0.3642 0.7397
C20 C 0.0882(2) 0.31184(15) 0.65248(17)
H18 H 0.0719 0.3529 0.6108
C21 C 0.14958(18) 0.24467(14) 0.63628(14)
C22 C 0.3210(2) 0.28132(16) 0.55482(14)
C23 C 0.3943(3) 0.22222(19) 0.54502(17)
H19 H 0.3773 0.1655 0.5339
C24 C 0.4923(3) 0.2465(2) 0.5516(2)
H20 H 0.5411 0.2060 0.5457
C25 C 0.5181(3) 0.3299(2) 0.5668(2)
H21 H 0.5842 0.3463 0.5696
C26 C 0.4461(2) 0.3899(2) 0.57810(19)
H22 H 0.4641 0.4464 0.5892
C27 C 0.3473(2) 0.36630(16) 0.57294(15)
C28 C 0.26366(18) 0.44710(15) 0.67497(14)
C29 C 0.30748(19) 0.39333(16) 0.73861(16)
H23 H 0.3476 0.3487 0.7244
C30 C 0.2923(2) 0.40518(18) 0.82192(17)
H24 H 0.3211 0.3681 0.8635
C31 C 0.2347(2) 0.4716(2) 0.84410(17)
H25 H 0.2243 0.4800 0.9006
C32 C 0.1924(2) 0.52566(18) 0.78147(17)
H26 H 0.1536 0.5708 0.7967
C33 C 0.20572(19) 0.51517(15) 0.69574(15)
C34 C 0.1530(2) 0.57437(16) 0.62908(17)
C35 C 0.1902(2) 0.56082(16) 0.54295(16)
C36 C 0.1631(2) 0.61738(19) 0.4763(2)
H27 H 0.1258 0.6653 0.4868
C37 C 0.1890(3) 0.6053(2) 0.3963(2)
H28 H 0.1701 0.6449 0.3537
C38 C 0.2426(2) 0.5352(2) 0.37898(18)
H29 H 0.2593 0.5260 0.3244
C39 C 0.2719(2) 0.47779(18) 0.44352(16)
H30 H 0.3094 0.4304 0.4320
C40 C 0.24631(19) 0.48980(15) 0.52499(15)
C41 C 0.0409(2) 0.55482(19) 0.61970(19)
H31 H 0.0068 0.5935 0.5793
H32 H 0.0163 0.5616 0.6738
H33 H 0.0299 0.4972 0.6002
C42 C 0.1705(3) 0.66819(17) 0.6575(2)
H34 H 0.2399 0.6811 0.6607
H35 H 0.1483 0.6762 0.7124
H36 H 0.1341 0.7054 0.6170
N1 N 0.22995(15) 0.10772(12) 0.68320(12)
N2 N 0.27557(16) 0.42956(12) 0.58914(12)
O1 O 0.19909(16) 0.15982(11) 0.50502(11)
O2 O 0.14072(15) 0.30814(12) 0.48507(11)
S1 S 0.19627(6) 0.24536(4) 0.53635(4)
loop_
_geom_bond_atom_site_label_1
_geom_bond_atom_site_label_2
_geom_bond_site_symmetry_1
_geom_bond_site_symmetry_2
C1 C2 1_555 1_555
C2 H1 1_555 1_555
C3 C2 1_555 1_555
H2 C3 1_555 1_555
C4 C3 1_555 1_555
H3 C4 1_555 1_555
C5 C4 1_555 1_555
H4 C5 1_555 1_555
C6 C1 1_555 1_555
C7 C8 1_555 1_555
C8 H5 1_555 1_555
C9 C8 1_555 1_555
H6 C9 1_555 1_555
C10 C9 1_555 1_555
H7 C10 1_555 1_555
C11 C10 1_555 1_555
H8 C11 1_555 1_555
C12 C7 1_555 1_555
C13 C1 1_555 1_555
C14 C13 1_555 1_555
H9 C14 1_555 1_555
H10 C14 1_555 1_555
H11 C14 1_555 1_555
C15 C13 1_555 1_555
H12 C15 1_555 1_555
H13 C15 1_555 1_555
H14 C15 1_555 1_555
C16 C17 1_555 1_555
C17 H15 1_555 1_555
C18 C17 1_555 1_555
H16 C18 1_555 1_555
C19 C18 1_555 1_555
H17 C19 1_555 1_555
C20 C19 1_555 1_555
H18 C20 1_555 1_555
C21 C16 1_555 1_555
C22 C23 1_555 1_555
C23 H19 1_555 1_555
C24 C23 1_555 1_555
H20 C24 1_555 1_555
C25 C24 1_555 1_555
H21 C25 1_555 1_555
C26 C25 1_555 1_555
H22 C26 1_555 1_555
C27 C22 1_555 1_555
C28 C29 1_555 1_555
C29 H23 1_555 1_555
C30 C29 1_555 1_555
H24 C30 1_555 1_555
C31 C30 1_555 1_555
H25 C31 1_555 1_555
C32 C31 1_555 1_555
H26 C32 1_555 1_555
C33 C28 1_555 1_555
C34 C33 1_555 1_555
C35 C34 1_555 1_555
C36 C35 1_555 1_555
H27 C36 1_555 1_555
C37 C36 1_555 1_555
H28 C37 1_555 1_555
C38 C37 1_555 1_555
H29 C38 1_555 1_555
C39 C38 1_555 1_555
H30 C39 1_555 1_555
C40 C35 1_555 1_555
C41 C34 1_555 1_555
H31 C41 1_555 1_555
H32 C41 1_555 1_555
H33 C41 1_555 1_555
C42 C34 1_555 1_555
H34 C42 1_555 1_555
H35 C42 1_555 1_555
H36 C42 1_555 1_555
N1 C6 1_555 1_555
N2 C27 1_555 1_555
O1 S1 1_555 1_555
O2 S1 1_555 1_555
S1 C21 1_555 1_555
C5 C6 1_555 1_555
C7 N1 1_555 1_555
C11 C12 1_555 1_555
C12 C13 1_555 1_555
C16 N1 1_555 1_555
C20 C21 1_555 1_555
C22 S1 1_555 1_555
C26 C27 1_555 1_555
C28 N2 1_555 1_555
C32 C33 1_555 1_555
C39 C40 1_555 1_555
C40 N2 1_555 1_555

#END
