
#######################################################################
#
#                 Cambridge Crystallographic Data Centre
#                                CCDC 
#
#######################################################################
#
# If this CIF has been generated from an entry in the Cambridge 
# Structural Database, then it will include bibliographic, chemical, 
# crystal, experimental, refinement or atomic coordinate data resulting 
# from the CCDC's data processing and validation procedures.
#
#######################################################################

data_SEQWIV
_chemical_formula_moiety         'C12 H13 N1 O3'
_chemical_name_systematic        '(Z)-Ethyl 3-(benzoylamino)acrylate'
_symmetry_cell_setting           triclinic
_symmetry_space_group_name_H-M   'P -1'
_symmetry_Int_Tables_number      2
_space_group_name_Hall           '-P 1'
loop_
_symmetry_equiv_pos_site_id
_symmetry_equiv_pos_as_xyz
1 x,y,z
2 -x,-y,-z
_cell_length_a                   8.2906(10)
_cell_length_b                   8.6854(10)
_cell_length_c                   9.0243(11)
_cell_angle_alpha                100.346(2)
_cell_angle_beta                 91.249(2)
_cell_angle_gamma                117.880(2)
_cell_volume                     560.854
_cell_formula_units_Z            2
loop_
_atom_site_label
_atom_site_type_symbol
_atom_site_fract_x
_atom_site_fract_y
_atom_site_fract_z
C1 C 0.6787(2) 0.5143(2) 0.66401(19)
C2 C 0.5010(3) 0.3783(2) 0.6614(2)
H1 H 0.4311 0.3891 0.7377
C3 C 0.4272(3) 0.2272(3) 0.5463(2)
H2 H 0.3081 0.1368 0.5457
C4 C 0.5293(3) 0.2096(3) 0.4321(2)
H3 H 0.4793 0.1072 0.3552
C5 C 0.7057(3) 0.3440(3) 0.4320(2)
H4 H 0.7739 0.3330 0.3543
C6 C 0.7810(3) 0.4950(3) 0.5478(2)
H5 H 0.9006 0.5844 0.5483
C7 C 0.7681(2) 0.6805(2) 0.78672(19)
O1 O 0.93394(17) 0.78291(17) 0.80477(15)
N1 N 0.6511(2) 0.7119(2) 0.87727(17)
H6 H 0.530(3) 0.637(3) 0.863(2)
C8 C 0.7065(3) 0.8554(2) 0.9971(2)
H7 H 0.8314 0.9360 1.0193
C9 C 0.5909(2) 0.8854(2) 1.0836(2)
H8 H 0.6388 0.9865 1.1618
C10 C 0.3930(3) 0.7666(2) 1.0605(2)
O2 O 0.31289(17) 0.63050(17) 0.96159(14)
O3 O 0.30482(16) 0.82233(15) 1.16158(13)
C11 C 0.1061(2) 0.7121(2) 1.1470(2)
H9 H 0.0745 0.5920 1.1564
H10 H 0.0507 0.7060 1.0488
C12 C 0.0382(3) 0.7977(3) 1.2722(2)
H11 H 0.0996 0.8095 1.3683
H12 H -0.0919 0.7247 1.2702
H13 H 0.0636 0.9135 1.2580
loop_
_geom_bond_atom_site_label_1
_geom_bond_atom_site_label_2
_geom_bond_site_symmetry_1
_geom_bond_site_symmetry_2
C1 C2 1_555 1_555
C2 H1 1_555 1_555
C3 C2 1_555 1_555
H2 C3 1_555 1_555
C4 C3 1_555 1_555
H3 C4 1_555 1_555
C5 C4 1_555 1_555
H4 C5 1_555 1_555
C6 C1 1_555 1_555
H5 C6 1_555 1_555
C7 C1 1_555 1_555
O1 C7 1_555 1_555
N1 C7 1_555 1_555
H6 N1 1_555 1_555
C8 N1 1_555 1_555
H7 C8 1_555 1_555
C9 C8 1_555 1_555
H8 C9 1_555 1_555
C10 C9 1_555 1_555
O2 C10 1_555 1_555
O3 C10 1_555 1_555
C11 O3 1_555 1_555
H9 C11 1_555 1_555
H10 C11 1_555 1_555
C12 C11 1_555 1_555
H11 C12 1_555 1_555
H12 C12 1_555 1_555
H13 C12 1_555 1_555
C5 C6 1_555 1_555

#END
