
#######################################################################
#
#                 Cambridge Crystallographic Data Centre
#                                CCDC 
#
#######################################################################
#
# If this CIF has been generated from an entry in the Cambridge 
# Structural Database, then it will include bibliographic, chemical, 
# crystal, experimental, refinement or atomic coordinate data resulting 
# from the CCDC's data processing and validation procedures.
#
#######################################################################

data_SERDUO
_chemical_formula_moiety         'C76 H4,C7 H8'
_chemical_name_systematic        '1,2-BenzenoC70fullerene toluene solvate'
_symmetry_cell_setting           orthorhombic
_symmetry_space_group_name_H-M   'P n a 21'
_symmetry_Int_Tables_number      33
_space_group_name_Hall           'P 2c -2n'
loop_
_symmetry_equiv_pos_site_id
_symmetry_equiv_pos_as_xyz
1 x,y,z
2 -x,-y,1/2+z
3 1/2-x,1/2+y,1/2+z
4 1/2+x,1/2-y,z
_cell_length_a                   19.434(2)
_cell_length_b                   15.491(1)
_cell_length_c                   13.628(1)
_cell_angle_alpha                90
_cell_angle_beta                 90
_cell_angle_gamma                90
_cell_volume                     4102.74
_exptl_crystal_colour            'metallic black'
_exptl_crystal_description       'irregular prisms'
_chemical_melting_point          'above 400 deg.C'
_cell_formula_units_Z            4
loop_
_atom_site_label
_atom_site_type_symbol
_atom_site_fract_x
_atom_site_fract_y
_atom_site_fract_z
C1 C 0.2635(9) 0.7196(9) 0.8932(27)
C2 C 0.1943(8) 0.7393(9) 0.8882(32)
C3 C 0.1439(8) 0.6766(9) 0.8808(25)
C4 C 0.1698(9) 0.5925(10) 0.8890(32)
C5 C 0.2387(9) 0.5728(10) 0.8959(23)
C6 C 0.2887(9) 0.6364(10) 0.8992(21)
C7 C 0.2888(7) 0.8148(8) 0.8977(14)
C8 C 0.2060(8) 0.8387(9) 0.8845(18)
C9 C 0.1818(9) 0.8967(11) 0.9677(12)
C10 C 0.3272(8) 0.8542(12) 0.9834(13)
C11 C 0.3294(8) 0.8454(12) 0.8111(13)
C12 C 0.1861(12) 0.8887(14) 0.7943(16)
C13 C 0.2217(3) 0.9184(3) 1.0500(3)
C14 C 0.2944(3) 0.8939(3) 1.0593(3)
C15 C 0.3936(2) 0.8816(2) 0.9475(4)
C16 C 0.3960(2) 0.8773(2) 0.8438(4)
C17 C 0.3035(2) 0.8852(3) 0.7284(3)
C18 C 0.2290(2) 0.9061(3) 0.7196(3)
C19 C 0.1402(2) 0.9580(3) 0.8301(4)
C20 C 0.1329(2) 0.9604(3) 0.9342(5)
C21 C 0.1271(2) 1.0387(3) 0.9831(5)
C22 C 0.1678(2) 1.0580(3) 1.0690(4)
C23 C 0.2141(3) 0.9981(4) 1.1043(3)
C24 C 0.2811(3) 1.0260(4) 1.1384(3)
C25 C 0.3303(3) 0.9624(3) 1.1103(3)
C26 C 0.3986(3) 0.9851(3) 1.0861(3)
C27 C 0.4313(2) 0.9428(3) 1.0023(4)
C28 C 0.4818(2) 0.9886(3) 0.9488(4)
C29 C 0.4841(2) 0.9857(3) 0.8442(4)
C30 C 0.4358(2) 0.9371(3) 0.7898(4)
C31 C 0.4068(2) 0.9745(3) 0.7004(3)
C32 C 0.3395(3) 0.9504(3) 0.6721(3)
C33 C 0.2918(3) 1.0122(4) 0.6352(2)
C34 C 0.2234(3) 0.9861(3) 0.6653(3)
C35 C 0.1759(2) 1.0476(3) 0.6923(4)
C36 C 0.1316(2) 1.0330(3) 0.7758(5)
C37 C 0.1240(2) 1.1148(3) 0.8258(5)
C38 C 0.1219(1) 1.1175(3) 0.9268(5)
C39 C 0.1582(2) 1.1850(3) 0.9789(5)
C40 C 0.1864(2) 1.1485(3) 1.0661(5)
C41 C 0.2494(3) 1.1781(3) 1.1055(4)
C42 C 0.2985(3) 1.1146(4) 1.1431(3)
C43 C 0.3695(3) 1.1338(4) 1.1385(3)
C44 C 0.4189(3) 1.0701(4) 1.1104(3)
C45 C 0.4743(2) 1.1144(3) 1.0622(4)
C46 C 0.5071(2) 1.0764(3) 0.9835(4)
C47 C 0.5227(1) 1.1217(3) 0.8935(4)
C48 C 0.5067(2) 1.0646(3) 0.8126(4)
C49 C 0.4806(2) 1.1007(3) 0.7279(4)
C50 C 0.4281(3) 1.0581(3) 0.6720(3)
C51 C 0.3803(3) 1.1200(4) 0.6353(3)
C52 C 0.3095(3) 1.1004(4) 0.6259(3)
C53 C 0.2591(3) 1.1657(3) 0.6544(4)
C54 C 0.1944(2) 1.1382(3) 0.6903(4)
C55 C 0.1626(2) 1.1793(3) 0.7722(5)
C56 C 0.1943(2) 1.2494(2) 0.8209(5)
C57 C 0.1922(2) 1.2524(2) 0.9282(6)
C58 C 0.2468(2) 1.2927(2) 0.9789(5)
C59 C 0.2750(2) 1.2563(3) 1.0662(5)
C60 C 0.3476(2) 1.2809(3) 1.0674(4)
C61 C 0.3926(3) 1.2193(3) 1.1020(3)
C62 C 0.4576(2) 1.2050(3) 1.0532(4)
C63 C 0.4754(2) 1.2546(3) 0.9723(4)
C64 C 0.5075(2) 1.2091(3) 0.8909(4)
C65 C 0.4796(2) 1.2440(3) 0.8003(4)
C66 C 0.4659(2) 1.1919(3) 0.7198(4)
C67 C 0.4028(3) 1.2002(3) 0.6645(3)
C68 C 0.3568(3) 1.2638(3) 0.6909(4)
C69 C 0.2830(3) 1.2459(3) 0.6903(4)
C70 C 0.2511(2) 1.2871(2) 0.7723(5)
C71 C 0.3038(2) 1.3318(2) 0.8212(5)
C72 C 0.3029(2) 1.3388(2) 0.9220(5)
C73 C 0.3645(2) 1.3297(2) 0.9803(5)
C74 C 0.4261(2) 1.3154(2) 0.9318(5)
C75 C 0.4301(2) 1.3105(2) 0.8256(5)
C76 C 0.3694(2) 1.3203(2) 0.7733(5)
H1 H 0.0975(8) 0.6890(9) 0.8713(25)
H2 H 0.1384(9) 0.5472(10) 0.8899(32)
H3 H 0.2521(9) 0.5151(10) 0.8985(23)
H4 H 0.3353(9) 0.6241(10) 0.9049(21)
C77 C 0.4766(7) 0.6147(6) 0.9415(7)
C78 C 0.4626(9) 0.5382(5) 0.8922(9)
C79 C 0.4607(10) 0.5370(7) 0.7902(9)
C80 C 0.4729(10) 0.6123(9) 0.7376(7)
C81 C 0.4869(11) 0.6888(7) 0.7869(9)
C82 C 0.4888(9) 0.6901(5) 0.8888(10)
C83 C 0.4791(12) 0.6159(11) 1.0494(7)
H5 H 0.4544(13) 0.4878(6) 0.9274(11)
H6 H 0.4513(14) 0.4857(9) 0.7572(11)
H7 H 0.4716(14) 0.6114(12) 0.6694(7)
H8 H 0.4951(15) 0.7392(9) 0.7517(12)
H9 H 0.4982(12) 0.7413(6) 0.9218(12)
H10 H 0.4708(14) 0.6736(12) 1.0725(9)
H11 H 0.5236(14) 0.5970(13) 1.0711(10)
H12 H 0.4445(14) 0.5780(13) 1.0751(8)
loop_
_geom_bond_atom_site_label_1
_geom_bond_atom_site_label_2
_geom_bond_site_symmetry_1
_geom_bond_site_symmetry_2
C1 C2 1_555 1_555
C2 C3 1_555 1_555
C3 C4 1_555 1_555
C4 C5 1_555 1_555
C5 C6 1_555 1_555
C6 C1 1_555 1_555
C7 C1 1_555 1_555
C8 C2 1_555 1_555
C9 C8 1_555 1_555
C10 C7 1_555 1_555
C11 C7 1_555 1_555
C12 C8 1_555 1_555
C13 C9 1_555 1_555
C14 C10 1_555 1_555
C15 C10 1_555 1_555
C16 C11 1_555 1_555
C17 C11 1_555 1_555
C18 C12 1_555 1_555
C19 C12 1_555 1_555
C20 C9 1_555 1_555
C21 C20 1_555 1_555
C22 C21 1_555 1_555
C23 C13 1_555 1_555
C24 C23 1_555 1_555
C25 C14 1_555 1_555
C26 C25 1_555 1_555
C27 C15 1_555 1_555
C28 C27 1_555 1_555
C29 C28 1_555 1_555
C30 C16 1_555 1_555
C31 C30 1_555 1_555
C32 C17 1_555 1_555
C33 C32 1_555 1_555
C34 C18 1_555 1_555
C35 C34 1_555 1_555
C36 C19 1_555 1_555
C37 C36 1_555 1_555
C38 C21 1_555 1_555
C39 C38 1_555 1_555
C40 C22 1_555 1_555
C41 C40 1_555 1_555
C42 C24 1_555 1_555
C43 C42 1_555 1_555
C44 C26 1_555 1_555
C45 C44 1_555 1_555
C46 C28 1_555 1_555
C47 C46 1_555 1_555
C48 C29 1_555 1_555
C49 C48 1_555 1_555
C50 C31 1_555 1_555
C51 C50 1_555 1_555
C52 C33 1_555 1_555
C53 C52 1_555 1_555
C54 C35 1_555 1_555
C55 C37 1_555 1_555
C56 C55 1_555 1_555
C57 C39 1_555 1_555
C58 C57 1_555 1_555
C59 C41 1_555 1_555
C60 C59 1_555 1_555
C61 C43 1_555 1_555
C62 C45 1_555 1_555
C63 C62 1_555 1_555
C64 C47 1_555 1_555
C65 C64 1_555 1_555
C66 C49 1_555 1_555
C67 C51 1_555 1_555
C68 C67 1_555 1_555
C69 C53 1_555 1_555
C70 C56 1_555 1_555
C71 C70 1_555 1_555
C72 C58 1_555 1_555
C73 C60 1_555 1_555
C74 C63 1_555 1_555
C75 C65 1_555 1_555
C76 C68 1_555 1_555
C77 C78 1_555 1_555
C78 C79 1_555 1_555
C79 C80 1_555 1_555
C80 C81 1_555 1_555
C81 C82 1_555 1_555
C82 C77 1_555 1_555
C83 C77 1_555 1_555
H1 C3 1_555 1_555
H2 C4 1_555 1_555
H3 C5 1_555 1_555
H4 C6 1_555 1_555
H5 C78 1_555 1_555
H6 C79 1_555 1_555
H7 C80 1_555 1_555
H8 C81 1_555 1_555
H9 C82 1_555 1_555
H10 C83 1_555 1_555
H11 C83 1_555 1_555
H12 C83 1_555 1_555
C7 C8 1_555 1_555
C13 C14 1_555 1_555
C15 C16 1_555 1_555
C17 C18 1_555 1_555
C19 C20 1_555 1_555
C22 C23 1_555 1_555
C24 C25 1_555 1_555
C26 C27 1_555 1_555
C29 C30 1_555 1_555
C31 C32 1_555 1_555
C33 C34 1_555 1_555
C35 C36 1_555 1_555
C37 C38 1_555 1_555
C39 C40 1_555 1_555
C41 C42 1_555 1_555
C43 C44 1_555 1_555
C45 C46 1_555 1_555
C47 C48 1_555 1_555
C49 C50 1_555 1_555
C51 C52 1_555 1_555
C53 C54 1_555 1_555
C54 C55 1_555 1_555
C56 C57 1_555 1_555
C58 C59 1_555 1_555
C60 C61 1_555 1_555
C61 C62 1_555 1_555
C63 C64 1_555 1_555
C65 C66 1_555 1_555
C66 C67 1_555 1_555
C68 C69 1_555 1_555
C69 C70 1_555 1_555
C71 C72 1_555 1_555
C71 C76 1_555 1_555
C72 C73 1_555 1_555
C73 C74 1_555 1_555
C74 C75 1_555 1_555
C75 C76 1_555 1_555

#END
