
#######################################################################
#
#                 Cambridge Crystallographic Data Centre
#                                CCDC 
#
#######################################################################
#
# If this CIF has been generated from an entry in the Cambridge 
# Structural Database, then it will include bibliographic, chemical, 
# crystal, experimental, refinement or atomic coordinate data resulting 
# from the CCDC's data processing and validation procedures.
#
#######################################################################

data_SERJIL
_chemical_formula_moiety         'C107 H84 O1,5.5(C6 H5 Cl1),0.5(C1 H4 O1)'
_chemical_name_systematic        
'heptakis(t-butyl)(carbonyl)-C78-nanographene chlorobenzene methanol solvate'
_symmetry_cell_setting           triclinic
_symmetry_space_group_name_H-M   'P -1'
_symmetry_Int_Tables_number      2
_space_group_name_Hall           '-P 1'
loop_
_symmetry_equiv_pos_site_id
_symmetry_equiv_pos_as_xyz
1 x,y,z
2 -x,-y,-z
_cell_length_a                   15.3025(6)
_cell_length_b                   16.0955(6)
_cell_length_c                   22.2445(9)
_cell_angle_alpha                94.998(2)
_cell_angle_beta                 108.991(2)
_cell_angle_gamma                92.221(2)
_cell_volume                     5147.83
_exptl_crystal_colour            red
_exptl_crystal_description       'irregular block'
_cell_formula_units_Z            2
loop_
_atom_site_label
_atom_site_type_symbol
_atom_site_fract_x
_atom_site_fract_y
_atom_site_fract_z
C108 C 0.4757(5) 0.2170(5) 0.7333(5)
C109 C 0.4706(6) 0.2229(4) 0.6702(4)
H85 H 0.525383 0.230728 0.659500
C110 C 0.3875(6) 0.2173(5) 0.6249(4)
H86 H 0.383462 0.221811 0.581781
C111 C 0.3090(6) 0.2055(5) 0.6393(4)
H87 H 0.250762 0.201403 0.606093
C112 C 0.3120(5) 0.1993(4) 0.7000(4)
H88 H 0.256144 0.191838 0.709443
C113 C 0.3953(6) 0.2038(5) 0.7479(4)
H89 H 0.398164 0.197982 0.790595
Cl1 Cl 0.5831(2) 0.2144(3) 0.7879(2)
Cl2 Cl 0.7060(5) 0.0324(4) 0.1194(3)
C114 C 0.6759(9) 0.0627(9) 0.0503(5)
C115 C 0.6219(8) 0.0012(6) 0.0039(7)
H90 H 0.606861 -0.051405 0.015849
C116 C 0.5898(8) 0.0165(8) -0.0599(6)
H91 H 0.552889 -0.025609 -0.091532
C117 C 0.6118(10) 0.0934(10) -0.0773(5)
H92 H 0.589860 0.103852 -0.120909
C118 C 0.6658(11) 0.1550(7) -0.0310(7)
H93 H 0.680802 0.207518 -0.042904
C119 C 0.6979(10) 0.1396(8) 0.0328(6)
H94 H 0.734775 0.181724 0.064478
C1 C 0.9619(3) 0.9197(2) 0.33441(19)
C2 C 0.9193(3) 0.8567(3) 0.27979(19)
C3 C 0.9273(3) 0.7691(3) 0.28169(19)
C4 C 0.9918(3) 0.7312(2) 0.33578(18)
C5 C 1.0233(2) 0.7651(2) 0.40150(18)
C6 C 0.9843(2) 0.8368(2) 0.42826(18)
C7 C 0.9479(3) 0.9048(2) 0.39474(18)
C8 C 0.8617(4) 0.8900(3) 0.2263(2)
H1 H 0.859697 0.948837 0.225959
C9 C 0.8073(4) 0.8371(3) 0.1733(2)
H2 H 0.765010 0.859174 0.137768
C10 C 0.8157(4) 0.7536(3) 0.1734(2)
H3 H 0.779164 0.717700 0.136954
C11 C 0.8762(3) 0.7178(3) 0.2251(2)
C12 C 0.8997(3) 0.9635(2) 0.41837(19)
H4 H 0.875464 1.008458 0.394529
C13 C 0.8870(3) 0.9565(3) 0.47641(19)
H5 H 0.846903 0.991287 0.490143
C14 C 0.9333(3) 0.8983(3) 0.51375(19)
H6 H 0.928636 0.896446 0.555177
C15 C 0.9874(3) 0.8414(2) 0.49314(18)
C16 C 1.0541(2) 0.7950(2) 0.53857(17)
C17 C 1.1130(2) 0.7463(2) 0.51494(17)
C18 C 1.0908(2) 0.7245(2) 0.44696(17)
C19 C 1.1328(2) 0.6550(2) 0.42795(17)
C20 C 1.0959(3) 0.6163(2) 0.36556(17)
C21 C 1.0220(3) 0.6521(2) 0.32036(18)
C22 C 0.9749(3) 0.6031(2) 0.25977(18)
C23 C 0.8949(3) 0.6300(3) 0.21683(18)
C24 C 0.8406(3) 0.5757(3) 0.1645(2)
H7 H 0.783691 0.593304 0.137883
C25 C 0.8669(3) 0.4971(3) 0.14989(18)
C26 C 0.9509(3) 0.4741(2) 0.18947(18)
H8 H 0.972647 0.422327 0.178677
C27 C 1.0048(3) 0.5241(2) 0.24452(18)
C28 C 1.1305(3) 0.5386(2) 0.34816(17)
C29 C 1.0888(3) 0.4950(2) 0.28761(17)
C30 C 1.1311(3) 0.4241(2) 0.27066(18)
H9 H 1.109346 0.398583 0.227823
C31 C 1.2019(3) 0.3921(2) 0.31437(19)
H10 H 1.228874 0.344655 0.301286
C32 C 1.2368(2) 0.4268(2) 0.37852(17)
C33 C 1.2058(2) 0.5052(2) 0.39357(18)
C34 C 1.2505(2) 0.5507(2) 0.45490(17)
C35 C 1.2124(2) 0.6229(2) 0.47327(17)
C36 C 1.2509(2) 0.6637(2) 0.53534(17)
C37 C 1.1891(2) 0.7129(2) 0.55893(17)
C38 C 1.1965(2) 0.7195(2) 0.62331(17)
H11 H 1.244737 0.692922 0.652165
C39 C 1.1362(3) 0.7632(2) 0.64677(17)
C40 C 1.0666(3) 0.8028(2) 0.60370(18)
H12 H 1.026860 0.835863 0.619254
C41 C 1.3428(2) 0.6462(2) 0.57322(17)
C42 C 1.3786(2) 0.5718(2) 0.55563(17)
C43 C 1.3306(2) 0.5217(2) 0.49750(17)
C44 C 1.3619(2) 0.4420(2) 0.48242(17)
C45 C 1.3085(2) 0.3895(2) 0.42683(18)
C46 C 1.3294(3) 0.3035(2) 0.42197(18)
C47 C 1.4157(3) 0.2845(2) 0.45985(18)
H13 H 1.436187 0.231420 0.450496
C48 C 1.4754(2) 0.3377(2) 0.51116(18)
C49 C 1.4441(2) 0.4154(2) 0.52581(17)
C50 C 1.4938(2) 0.4657(2) 0.58449(17)
C51 C 1.4621(2) 0.5437(2) 0.59928(17)
C52 C 1.5100(2) 0.5923(2) 0.65790(17)
C53 C 1.4812(2) 0.6738(2) 0.67075(17)
C54 C 1.5347(3) 0.7263(2) 0.72606(18)
C55 C 1.5098(3) 0.8083(2) 0.73458(18)
H14 H 1.544450 0.843328 0.772081
C56 C 1.4360(3) 0.8396(2) 0.68986(18)
C57 C 1.3835(2) 0.7870(2) 0.63670(18)
H15 H 1.333688 0.808507 0.605415
C58 C 1.4016(2) 0.7032(2) 0.62763(17)
C59 C 1.6137(3) 0.6942(2) 0.77296(19)
C60 C 1.6372(3) 0.6118(2) 0.76170(18)
C61 C 1.5874(2) 0.5617(2) 0.70252(17)
C62 C 1.6177(2) 0.4822(2) 0.68819(18)
C63 C 1.5726(2) 0.4362(2) 0.62907(17)
C64 C 1.6053(2) 0.3570(2) 0.61380(18)
C65 C 1.5594(2) 0.3087(2) 0.55426(18)
C66 C 1.5927(3) 0.2315(2) 0.54110(18)
H16 H 1.563756 0.200230 0.500680
C67 C 1.6665(3) 0.1996(2) 0.58542(18)
C68 C 1.7100(3) 0.2468(2) 0.64338(18)
H17 H 1.761017 0.225330 0.673695
C69 C 1.6817(2) 0.3245(2) 0.65890(18)
C70 C 1.7240(3) 0.3702(2) 0.72199(18)
C71 C 1.6931(3) 0.4495(2) 0.73594(18)
C72 C 1.7363(3) 0.4939(2) 0.79653(18)
C73 C 1.7116(3) 0.5794(2) 0.80853(18)
C74 C 1.7620(3) 0.6318(3) 0.8634(2)
H18 H 1.812271 0.610338 0.894405
C75 C 1.7415(3) 0.7142(3) 0.8745(2)
C76 C 1.6670(3) 0.7434(3) 0.8289(2)
H19 H 1.651456 0.799161 0.835984
C77 C 1.8029(3) 0.4563(3) 0.84326(19)
H20 H 1.829794 0.485823 0.884598
C78 C 1.8312(3) 0.3778(2) 0.83147(19)
C79 C 1.7923(3) 0.3373(2) 0.77009(19)
H21 H 1.813340 0.284566 0.760531
C80 C 0.8034(3) 0.4393(3) 0.0925(2)
C81 C 0.7839(4) 0.4831(3) 0.0310(2)
H22 H 0.756283 0.535992 0.036362
H23 H 0.741005 0.446934 -0.005029
H24 H 0.842129 0.494268 0.022721
C82 C 0.7106(3) 0.4187(3) 0.1036(2)
H25 H 0.722414 0.391099 0.142750
H26 H 0.669917 0.381523 0.067184
H27 H 0.680548 0.470577 0.107897
C83 C 0.8459(4) 0.3574(3) 0.0825(2)
H28 H 0.904802 0.369199 0.075192
H29 H 0.803378 0.322794 0.045234
H30 H 0.856998 0.327493 0.120499
C84 C 1.2623(3) 0.2247(2) 0.3875(2)
C85 C 1.1590(3) 0.2389(3) 0.3655(2)
H31 H 1.142143 0.264176 0.325082
H32 H 1.145506 0.276363 0.397993
H33 H 1.123074 0.185222 0.359236
C86 C 1.2885(3) 0.1831(3) 0.3322(2)
H34 H 1.247874 0.132379 0.313514
H35 H 1.353045 0.168433 0.347909
H36 H 1.281585 0.221833 0.299521
C87 C 1.2715(3) 0.1622(2) 0.4376(2)
H37 H 1.257911 0.189239 0.474464
H38 H 1.334858 0.144232 0.451614
H39 H 1.227743 0.113476 0.418652
C88 C 1.1430(3) 0.7650(3) 0.71746(19)
C89 C 1.1136(4) 0.8466(3) 0.7414(2)
H40 H 1.049894 0.854712 0.715187
H41 H 1.155035 0.892968 0.738572
H42 H 1.116794 0.845052 0.786038
C90 C 1.2416(3) 0.7525(3) 0.7601(2)
H43 H 1.284987 0.793829 0.753027
H44 H 1.257883 0.696080 0.749596
H45 H 1.245044 0.759653 0.805058
C91 C 1.0777(4) 0.6937(4) 0.7227(2)
H46 H 1.075168 0.697237 0.766246
H47 H 1.100594 0.639978 0.712637
H48 H 1.015553 0.698201 0.692400
C92 C 1.4172(3) 0.9327(2) 0.69950(19)
C93 C 1.4832(3) 0.9833(3) 0.6756(3)
H49 H 1.472710 1.042792 0.680564
H50 H 1.472084 0.965038 0.630383
H51 H 1.547368 0.974550 0.700547
C94 C 1.4339(4) 0.9610(3) 0.7704(2)
H52 H 1.498618 0.954324 0.795382
H53 H 1.392928 0.926927 0.785892
H54 H 1.420990 1.019950 0.775217
C95 C 1.3175(3) 0.9495(2) 0.6626(2)
H55 H 1.307218 1.008011 0.672675
H56 H 1.274744 0.912880 0.674698
H57 H 1.306470 0.938341 0.616570
C96 C 1.6918(3) 0.1089(2) 0.57428(18)
C97 C 1.7896(4) 0.0949(3) 0.6138(4)
H58 H 1.804531 0.038676 0.601396
H59 H 1.795355 0.100289 0.659173
H60 H 1.832485 0.136524 0.606522
C98 C 1.6253(5) 0.0539(3) 0.5928(4)
H61 H 1.561751 0.061086 0.565719
H62 H 1.631650 0.069276 0.637668
H63 H 1.639006 -0.004661 0.586944
C99 C 1.6828(7) 0.0866(5) 0.5057(3)
H64 H 1.710544 0.033537 0.501297
H65 H 1.714956 0.130707 0.491373
H66 H 1.617159 0.081076 0.479516
C100 C 1.8970(3) 0.3336(3) 0.88480(19)
C101 C 1.9665(4) 0.3962(3) 0.9341(3)
H67 H 1.933651 0.433088 0.955456
H68 H 2.000073 0.429615 0.912772
H69 H 2.010520 0.366191 0.965841
C102 C 1.9500(4) 0.2691(3) 0.8592(2)
H70 H 1.992744 0.244069 0.894977
H71 H 1.985102 0.296325 0.835687
H72 H 1.906113 0.225288 0.830517
C103 C 1.8371(4) 0.2876(3) 0.9165(2)
H73 H 1.800116 0.327437 0.931578
H74 H 1.877123 0.261460 0.952751
H75 H 1.795818 0.244359 0.885309
C104 C 1.8014(4) 0.7681(3) 0.9347(2)
C105 C 1.9016(4) 0.7770(4) 0.9347(3)
H76 H 1.939708 0.812310 0.973145
H77 H 1.902995 0.802678 0.896636
H78 H 1.925985 0.721614 0.934267
C106 C 1.7655(5) 0.8557(3) 0.9388(3)
H79 H 1.702231 0.850684 0.940257
H80 H 1.765718 0.883126 0.901187
H81 H 1.805757 0.889177 0.977574
C107 C 1.7989(4) 0.7277(3) 0.9942(2)
H82 H 1.734947 0.722788 0.994417
H83 H 1.837613 0.762617 1.032751
H84 H 1.822480 0.672048 0.993514
O1 O 0.9968(2) 0.98693(18) 0.32809(13)
loop_
_geom_bond_atom_site_label_1
_geom_bond_atom_site_label_2
_geom_bond_site_symmetry_1
_geom_bond_site_symmetry_2
C1 C2 1_555 1_555
C2 C3 1_555 1_555
C3 C4 1_555 1_555
C4 C5 1_555 1_555
C5 C6 1_555 1_555
C6 C7 1_555 1_555
C7 C1 1_555 1_555
C8 C2 1_555 1_555
H1 C8 1_555 1_555
C9 C8 1_555 1_555
H2 C9 1_555 1_555
C10 C9 1_555 1_555
H3 C10 1_555 1_555
C11 C3 1_555 1_555
C12 C7 1_555 1_555
H4 C12 1_555 1_555
C13 C12 1_555 1_555
H5 C13 1_555 1_555
C14 C13 1_555 1_555
H6 C14 1_555 1_555
C15 C6 1_555 1_555
C16 C15 1_555 1_555
C17 C16 1_555 1_555
C18 C5 1_555 1_555
C19 C18 1_555 1_555
C20 C19 1_555 1_555
C21 C4 1_555 1_555
C22 C21 1_555 1_555
C23 C11 1_555 1_555
C24 C23 1_555 1_555
H7 C24 1_555 1_555
C25 C24 1_555 1_555
C26 C25 1_555 1_555
H8 C26 1_555 1_555
C27 C22 1_555 1_555
C28 C20 1_555 1_555
C29 C27 1_555 1_555
C30 C29 1_555 1_555
H9 C30 1_555 1_555
C31 C30 1_555 1_555
H10 C31 1_555 1_555
C32 C31 1_555 1_555
C33 C28 1_555 1_555
C34 C33 1_555 1_555
C35 C19 1_555 1_555
C36 C35 1_555 1_555
C37 C17 1_555 1_555
C38 C37 1_555 1_555
H11 C38 1_555 1_555
C39 C38 1_555 1_555
C40 C16 1_555 1_555
H12 C40 1_555 1_555
C41 C36 1_555 1_555
C42 C41 1_555 1_555
C43 C34 1_555 1_555
C44 C43 1_555 1_555
C45 C32 1_555 1_555
C46 C45 1_555 1_555
C47 C46 1_555 1_555
H13 C47 1_555 1_555
C48 C47 1_555 1_555
C49 C44 1_555 1_555
C50 C49 1_555 1_555
C51 C42 1_555 1_555
C52 C51 1_555 1_555
C53 C52 1_555 1_555
C54 C53 1_555 1_555
C55 C54 1_555 1_555
H14 C55 1_555 1_555
C56 C55 1_555 1_555
C57 C56 1_555 1_555
H15 C57 1_555 1_555
C58 C41 1_555 1_555
C59 C54 1_555 1_555
C60 C59 1_555 1_555
C61 C52 1_555 1_555
C62 C61 1_555 1_555
C63 C50 1_555 1_555
C64 C63 1_555 1_555
C65 C48 1_555 1_555
C66 C65 1_555 1_555
H16 C66 1_555 1_555
C67 C66 1_555 1_555
C68 C67 1_555 1_555
H17 C68 1_555 1_555
C69 C64 1_555 1_555
C70 C69 1_555 1_555
C71 C62 1_555 1_555
C72 C71 1_555 1_555
C73 C60 1_555 1_555
C74 C73 1_555 1_555
H18 C74 1_555 1_555
C75 C74 1_555 1_555
C76 C59 1_555 1_555
H19 C76 1_555 1_555
C77 C72 1_555 1_555
H20 C77 1_555 1_555
C78 C77 1_555 1_555
C79 C70 1_555 1_555
H21 C79 1_555 1_555
C80 C25 1_555 1_555
C81 C80 1_555 1_555
H22 C81 1_555 1_555
H23 C81 1_555 1_555
H24 C81 1_555 1_555
C82 C80 1_555 1_555
H25 C82 1_555 1_555
H26 C82 1_555 1_555
H27 C82 1_555 1_555
C83 C80 1_555 1_555
H28 C83 1_555 1_555
H29 C83 1_555 1_555
H30 C83 1_555 1_555
C84 C46 1_555 1_555
C85 C84 1_555 1_555
H31 C85 1_555 1_555
H32 C85 1_555 1_555
H33 C85 1_555 1_555
C86 C84 1_555 1_555
H34 C86 1_555 1_555
H35 C86 1_555 1_555
H36 C86 1_555 1_555
C87 C84 1_555 1_555
H37 C87 1_555 1_555
H38 C87 1_555 1_555
H39 C87 1_555 1_555
C88 C39 1_555 1_555
C89 C88 1_555 1_555
H40 C89 1_555 1_555
H41 C89 1_555 1_555
H42 C89 1_555 1_555
C90 C88 1_555 1_555
H43 C90 1_555 1_555
H44 C90 1_555 1_555
H45 C90 1_555 1_555
C91 C88 1_555 1_555
H46 C91 1_555 1_555
H47 C91 1_555 1_555
H48 C91 1_555 1_555
C92 C56 1_555 1_555
C93 C92 1_555 1_555
H49 C93 1_555 1_555
H50 C93 1_555 1_555
H51 C93 1_555 1_555
C94 C92 1_555 1_555
H52 C94 1_555 1_555
H53 C94 1_555 1_555
H54 C94 1_555 1_555
C95 C92 1_555 1_555
H55 C95 1_555 1_555
H56 C95 1_555 1_555
H57 C95 1_555 1_555
C96 C67 1_555 1_555
C97 C96 1_555 1_555
H58 C97 1_555 1_555
H59 C97 1_555 1_555
H60 C97 1_555 1_555
C98 C96 1_555 1_555
H61 C98 1_555 1_555
H62 C98 1_555 1_555
H63 C98 1_555 1_555
C99 C96 1_555 1_555
H64 C99 1_555 1_555
H65 C99 1_555 1_555
H66 C99 1_555 1_555
C100 C78 1_555 1_555
C101 C100 1_555 1_555
H67 C101 1_555 1_555
H68 C101 1_555 1_555
H69 C101 1_555 1_555
C102 C100 1_555 1_555
H70 C102 1_555 1_555
H71 C102 1_555 1_555
H72 C102 1_555 1_555
C103 C100 1_555 1_555
H73 C103 1_555 1_555
H74 C103 1_555 1_555
H75 C103 1_555 1_555
C104 C75 1_555 1_555
C105 C104 1_555 1_555
H76 C105 1_555 1_555
H77 C105 1_555 1_555
H78 C105 1_555 1_555
C106 C104 1_555 1_555
H79 C106 1_555 1_555
H80 C106 1_555 1_555
H81 C106 1_555 1_555
C107 C104 1_555 1_555
H82 C107 1_555 1_555
H83 C107 1_555 1_555
H84 C107 1_555 1_555
O1 C1 1_555 1_555
C108 C109 1_555 1_555
C109 H85 1_555 1_555
C110 C109 1_555 1_555
H86 C110 1_555 1_555
C111 C110 1_555 1_555
H87 C111 1_555 1_555
C112 C111 1_555 1_555
H88 C112 1_555 1_555
C113 C108 1_555 1_555
H89 C113 1_555 1_555
Cl1 C108 1_555 1_555
Cl2 C114 1_555 1_555
C114 C115 1_555 1_555
C115 H90 1_555 1_555
C116 C115 1_555 1_555
H91 C116 1_555 1_555
C117 C116 1_555 1_555
H92 C117 1_555 1_555
C118 C117 1_555 1_555
H93 C118 1_555 1_555
C119 C114 1_555 1_555
H94 C119 1_555 1_555
C10 C11 1_555 1_555
C14 C15 1_555 1_555
C17 C18 1_555 1_555
C20 C21 1_555 1_555
C22 C23 1_555 1_555
C26 C27 1_555 1_555
C28 C29 1_555 1_555
C32 C33 1_555 1_555
C34 C35 1_555 1_555
C36 C37 1_555 1_555
C39 C40 1_555 1_555
C42 C43 1_555 1_555
C44 C45 1_555 1_555
C48 C49 1_555 1_555
C50 C51 1_555 1_555
C53 C58 1_555 1_555
C57 C58 1_555 1_555
C60 C61 1_555 1_555
C62 C63 1_555 1_555
C64 C65 1_555 1_555
C68 C69 1_555 1_555
C70 C71 1_555 1_555
C72 C73 1_555 1_555
C75 C76 1_555 1_555
C78 C79 1_555 1_555
C112 C113 1_555 1_555
C118 C119 1_555 1_555

#END
