
#######################################################################
#
#                 Cambridge Crystallographic Data Centre
#                                CCDC 
#
#######################################################################
#
# If this CIF has been generated from an entry in the Cambridge 
# Structural Database, then it will include bibliographic, chemical, 
# crystal, experimental, refinement or atomic coordinate data resulting 
# from the CCDC's data processing and validation procedures.
#
#######################################################################

data_SERLIM
_chemical_formula_moiety         'C20 H28 O8'
_chemical_name_systematic        
4,14-Dihydroxy-10,20-dimethyl-1,11-dioxacycloicosa-5,15-diene-2,7,12,17-tetrone
_symmetry_cell_setting           triclinic
_symmetry_space_group_name_H-M   'P 1'
_symmetry_Int_Tables_number      1
_space_group_name_Hall           'P 1'
loop_
_symmetry_equiv_pos_site_id
_symmetry_equiv_pos_as_xyz
1 x,y,z
_cell_length_a                   5.271(3)
_cell_length_b                   7.980(4)
_cell_length_c                   12.721(6)
_cell_angle_alpha                91.458(5)
_cell_angle_beta                 97.236(5)
_cell_angle_gamma                102.468(5)
_cell_volume                     517.532
_exptl_crystal_colour            colorless
_exptl_crystal_description       block
_cell_formula_units_Z            1
loop_
_atom_site_label
_atom_site_type_symbol
_atom_site_fract_x
_atom_site_fract_y
_atom_site_fract_z
C1 C 0.5697(6) 0.5387(4) 0.0754(2)
H1 H 0.3888 0.5233 0.0719
C2 C 0.7212(6) 0.6495(4) 0.1469(2)
H2 H 0.9010 0.6655 0.1462
C3 C 0.6333(6) 0.7530(4) 0.2297(2)
H3 H 0.6860 0.8742 0.2139
C4 C 0.7766(7) 0.7319(5) 0.3379(2)
H4 H 0.7316 0.6122 0.3548
H5 H 0.9641 0.7625 0.3353
C5 C 0.7113(6) 0.8404(5) 0.4234(2)
C6 C 0.6705(8) 0.8676(5) 0.6071(3)
H6 H 0.5283 0.9249 0.5832
C7 C 0.5796(9) 0.7344(6) 0.6845(3)
H7 H 0.5432 0.7920 0.7472
H8 H 0.7204 0.6769 0.7064
C8 C 0.3378(9) 0.6012(6) 0.6397(3)
H9 H 0.2451 0.5558 0.6976
H10 H 0.2226 0.6563 0.5939
C9 C 0.3954(10) 0.4571(7) 0.5786(3)
C10 C 0.2652(8) 0.4167(6) 0.4676(3)
H11 H 0.1707 0.4934 0.4375
C11 C 0.2732(8) 0.2875(5) 0.4115(3)
H12 H 0.3682 0.2124 0.4433
C12 C 0.1494(7) 0.2387(4) 0.2999(2)
H13 H -0.0052 0.1452 0.3006
C13 C 0.3375(7) 0.1764(5) 0.2361(2)
H14 H 0.4863 0.2704 0.2314
H15 H 0.4024 0.0859 0.2728
C14 C 0.2147(7) 0.1103(4) 0.1274(2)
C15 C 0.2975(7) 0.0630(5) -0.0494(2)
H16 H 0.1220 0.0841 -0.0700
C16 C 0.4875(7) 0.1672(5) -0.1143(2)
H17 H 0.4327 0.1316 -0.1887
H18 H 0.6593 0.1430 -0.0946
C17 C 0.5087(7) 0.3601(5) -0.1001(2)
H19 H 0.5811 0.4159 -0.1599
H20 H 0.3346 0.3815 -0.0998
C18 C 0.6772(7) 0.4375(4) 0.0003(2)
C19 C 0.2865(11) -0.1278(5) -0.0586(4)
H21 H 0.4600 -0.1476 -0.0419
H22 H 0.2162 -0.1715 -0.1297
H23 H 0.1763 -0.1855 -0.0100
C20 C 0.9107(10) 0.9995(6) 0.6517(3)
H24 H 1.0489 0.9432 0.6762
H25 H 0.8719 1.0643 0.7099
H26 H 0.9652 1.0757 0.5976
O1 O 0.3601(4) 0.7158(3) 0.23033(19)
H27 H 0.3092 0.6138 0.2409
O2 O 0.6557(6) 0.9759(3) 0.41086(18)
O3 O 0.7280(4) 0.7691(3) 0.51677(16)
O4 O 0.5481(9) 0.3739(5) 0.6192(2)
O5 O 0.0671(5) 0.3814(3) 0.25378(18)
H28 H -0.0005 0.3547 0.1923
O6 O -0.0145(5) 0.0531(3) 0.10202(18)
O7 O 0.3905(4) 0.1246(3) 0.06001(15)
O8 O 0.9024(5) 0.4179(3) 0.01968(19)
loop_
_geom_bond_atom_site_label_1
_geom_bond_atom_site_label_2
_geom_bond_site_symmetry_1
_geom_bond_site_symmetry_2
C1 H1 1_555 1_555
C2 C1 1_555 1_555
H2 C2 1_555 1_555
C3 C2 1_555 1_555
H3 C3 1_555 1_555
C4 C3 1_555 1_555
H4 C4 1_555 1_555
H5 C4 1_555 1_555
C5 C4 1_555 1_555
C6 H6 1_555 1_555
C7 C6 1_555 1_555
H7 C7 1_555 1_555
H8 C7 1_555 1_555
C8 C7 1_555 1_555
H9 C8 1_555 1_555
H10 C8 1_555 1_555
C9 C8 1_555 1_555
C10 C9 1_555 1_555
H11 C10 1_555 1_555
C11 C10 1_555 1_555
H12 C11 1_555 1_555
C12 C11 1_555 1_555
H13 C12 1_555 1_555
C13 C12 1_555 1_555
H14 C13 1_555 1_555
H15 C13 1_555 1_555
C14 C13 1_555 1_555
C15 H16 1_555 1_555
C16 C15 1_555 1_555
H17 C16 1_555 1_555
H18 C16 1_555 1_555
C17 C16 1_555 1_555
H19 C17 1_555 1_555
H20 C17 1_555 1_555
C18 C1 1_555 1_555
C19 C15 1_555 1_555
H21 C19 1_555 1_555
H22 C19 1_555 1_555
H23 C19 1_555 1_555
C20 C6 1_555 1_555
H24 C20 1_555 1_555
H25 C20 1_555 1_555
H26 C20 1_555 1_555
O1 C3 1_555 1_555
H27 O1 1_555 1_555
O2 C5 1_555 1_555
O3 C5 1_555 1_555
O4 C9 1_555 1_555
O5 C12 1_555 1_555
H28 O5 1_555 1_555
O6 C14 1_555 1_555
O7 C14 1_555 1_555
O8 C18 1_555 1_555
C6 O3 1_555 1_555
C15 O7 1_555 1_555
C17 C18 1_555 1_555

#END
