
#######################################################################
#
#                 Cambridge Crystallographic Data Centre
#                                CCDC 
#
#######################################################################
#
# If this CIF has been generated from an entry in the Cambridge 
# Structural Database, then it will include bibliographic, chemical, 
# crystal, experimental, refinement or atomic coordinate data resulting 
# from the CCDC's data processing and validation procedures.
#
#######################################################################

data_SERLOS
_chemical_formula_moiety         'C10 H14 O4'
_chemical_name_systematic        
4-Hydroxy-10-methyl-3,4,9,10-tetrahydro-2H-oxecine-2,7(8H)-dione
_symmetry_cell_setting           orthorhombic
_symmetry_space_group_name_H-M   'P 21 21 21'
_symmetry_Int_Tables_number      19
_space_group_name_Hall           'P 2ac 2ab'
loop_
_symmetry_equiv_pos_site_id
_symmetry_equiv_pos_as_xyz
1 x,y,z
2 1/2-x,-y,1/2+z
3 1/2+x,1/2-y,-z
4 -x,1/2+y,1/2-z
_cell_length_a                   5.2530(18)
_cell_length_b                   14.014(5)
_cell_length_c                   27.907(9)
_cell_angle_alpha                90
_cell_angle_beta                 90
_cell_angle_gamma                90
_cell_volume                     2054.39
_exptl_crystal_colour            colorless
_exptl_crystal_description       block
_cell_formula_units_Z            8
loop_
_atom_site_label
_atom_site_type_symbol
_atom_site_fract_x
_atom_site_fract_y
_atom_site_fract_z
O1 O 0.9388(7) 0.3476(2) 0.04503(11)
H1 H 1.0257 0.2997 0.0491
O2 O 0.7251(8) 0.5057(3) 0.16666(14)
O3 O 0.8899(8) 0.2884(3) 0.19430(14)
O4 O 0.4383(10) 0.5726(3) 0.11776(18)
C1 C 0.6270(13) 0.5268(4) 0.1238(2)
C2 C 0.7885(12) 0.4854(4) 0.0845(2)
H2 H 0.9506 0.5185 0.0838
H3 H 0.7051 0.4964 0.0540
C3 C 0.8374(9) 0.3784(4) 0.09011(17)
H4 H 0.9640 0.3680 0.1154
C4 C 0.6023(10) 0.3259(4) 0.1019(2)
H5 H 0.4967 0.3107 0.0762
C5 C 0.5243(11) 0.2979(4) 0.1449(2)
H6 H 0.3676 0.2673 0.1468
C6 C 0.6677(12) 0.3117(4) 0.1899(2)
C7 C 0.5146(16) 0.3528(7) 0.2308(3)
H7 H 0.62(3) 0.354(10) 0.258(5)
H8 H 0.39(3) 0.306(9) 0.233(4)
C8 C 0.389(2) 0.4637(8) 0.2167(4)
H9 H 0.2864 0.4583 0.1880
H10 H 0.2797 0.4847 0.2427
C9 C 0.5756(17) 0.5306(7) 0.2094(2)
C10 C 0.737(2) 0.5778(7) 0.2425(3)
H11 H 0.6365 0.6053 0.2677
H12 H 0.8298 0.6273 0.2263
H13 H 0.8549 0.5328 0.2560
O5 O 1.0032(8) 0.9301(3) 0.12467(13)
O6 O 1.1996(7) 1.1724(2) 0.04519(12)
H14 H 1.2653 1.1646 0.0188
O7 O 1.1500(9) 0.8808(3) 0.01658(15)
O8 O 0.7150(12) 1.0215(3) 0.16090(18)
C11 C 0.9035(13) 1.0142(4) 0.1368(2)
C12 C 1.0522(12) 1.0948(3) 0.11562(18)
H15 H 1.2159 1.0990 0.1316
H16 H 0.9619 1.1541 0.1213
C13 C 1.0951(10) 1.0830(3) 0.06187(17)
H17 H 1.2191 1.0319 0.0564
C14 C 0.8569(10) 1.0605(4) 0.03599(19)
H18 H 0.7501 1.1117 0.0291
C15 C 0.7797(11) 0.9755(4) 0.0217(2)
H19 H 0.6223 0.9711 0.0066
C16 C 0.9296(13) 0.8863(4) 0.0282(2)
C17 C 0.7944(15) 0.8037(5) 0.0510(3)
H20 H 0.6533 0.7863 0.0304
H21 H 0.9110 0.7500 0.0515
C18 C 0.6929(17) 0.8161(6) 0.1003(3)
H22 H 0.5594 0.8638 0.0990
H23 H 0.6133 0.7564 0.1097
C19 C 0.8652(16) 0.8431(5) 0.1380(3)
H24 H 0.7571 0.8611 0.1651
C20 C 1.045(2) 0.7751(6) 0.1568(3)
H25 H 1.1695 0.7605 0.1328
H26 H 0.9566 0.7178 0.1658
H27 H 1.1276 0.8016 0.1844
H28? H 0.3456 0.3695 0.2196
H29? H 0.4972 0.3054 0.2559
C21? C 0.634(4) 0.4331(12) 0.2488(6)
H30? H 0.8156 0.4218 0.2515
H31? H 0.5684 0.4475 0.2805
H32? H 0.4007 0.5535 0.2053
loop_
_geom_bond_atom_site_label_1
_geom_bond_atom_site_label_2
_geom_bond_site_symmetry_1
_geom_bond_site_symmetry_2
O1 H1 1_555 1_555
O2 C1 1_555 1_555
O3 C6 1_555 1_555
O4 C1 1_555 1_555
C1 C2 1_555 1_555
C2 H2 1_555 1_555
H3 C2 1_555 1_555
C3 O1 1_555 1_555
H4 C3 1_555 1_555
C4 C3 1_555 1_555
H5 C4 1_555 1_555
C5 C4 1_555 1_555
H6 C5 1_555 1_555
C6 C5 1_555 1_555
C7 C6 1_555 1_555
H7 C7 1_555 1_555
H8 C7 1_555 1_555
C8 C7 1_555 1_555
H9 C8 1_555 1_555
H10 C8 1_555 1_555
C9 O2 1_555 1_555
C10 C9 1_555 1_555
H11 C10 1_555 1_555
H12 C10 1_555 1_555
H13 C10 1_555 1_555
O5 C11 1_555 1_555
O6 H14 1_555 1_555
O7 C16 1_555 1_555
O8 C11 1_555 1_555
C11 C12 1_555 1_555
C12 H15 1_555 1_555
H16 C12 1_555 1_555
C13 O6 1_555 1_555
H17 C13 1_555 1_555
C14 C13 1_555 1_555
H18 C14 1_555 1_555
C15 C14 1_555 1_555
H19 C15 1_555 1_555
C16 C15 1_555 1_555
C17 C16 1_555 1_555
H20 C17 1_555 1_555
H21 C17 1_555 1_555
C18 C17 1_555 1_555
H22 C18 1_555 1_555
H23 C18 1_555 1_555
C19 O5 1_555 1_555
H24 C19 1_555 1_555
C20 C19 1_555 1_555
H25 C20 1_555 1_555
H26 C20 1_555 1_555
H27 C20 1_555 1_555
C2 C3 1_555 1_555
C8 C9 1_555 1_555
C12 C13 1_555 1_555
C18 C19 1_555 1_555

#END
