
#######################################################################
#
#                 Cambridge Crystallographic Data Centre
#                                CCDC 
#
#######################################################################
#
# If this CIF has been generated from an entry in the Cambridge 
# Structural Database, then it will include bibliographic, chemical, 
# crystal, experimental, refinement or atomic coordinate data resulting 
# from the CCDC's data processing and validation procedures.
#
#######################################################################

data_SERNAG
_chemical_formula_moiety         'C18 H13 Cl1 N2 O3 S1,C2 H6 O1 S1'
_chemical_name_systematic        
'2-(3-Chlorophenyl)-3-nitro-3,4-dihydro-2H-thiopyrano[2,3-b]quinolin-4-ol dimethylsulfoxide solvate'
_symmetry_cell_setting           triclinic
_symmetry_space_group_name_H-M   'P -1'
_symmetry_Int_Tables_number      2
_space_group_name_Hall           '-P 1'
loop_
_symmetry_equiv_pos_site_id
_symmetry_equiv_pos_as_xyz
1 x,y,z
2 -x,-y,-z
_cell_length_a                   9.824(2)
_cell_length_b                   10.598(2)
_cell_length_c                   10.988(2)
_cell_angle_alpha                68.47(3)
_cell_angle_beta                 72.43(3)
_cell_angle_gamma                85.76(3)
_cell_volume                     1013.67
_cell_formula_units_Z            2
loop_
_atom_site_label
_atom_site_type_symbol
_atom_site_fract_x
_atom_site_fract_y
_atom_site_fract_z
S1 S 0.26861(11) 0.26452(10) 0.15970(10)
Cl1 Cl -0.30377(14) 0.03383(13) 0.44068(15)
O1 O 0.1341(3) 0.6911(3) -0.0353(3)
H1 H 0.1425 0.7616 -0.0197
O2 O 0.0086(3) 0.5918(3) 0.2980(3)
O3 O -0.1432(3) 0.5456(3) 0.2133(4)
N1 N 0.4514(3) 0.3330(3) -0.0794(3)
N2 N -0.0219(3) 0.5435(3) 0.2260(3)
C1 C 0.5183(4) 0.4145(4) -0.2112(4)
C2 C 0.6238(4) 0.3584(4) -0.2946(4)
H2 H 0.6495 0.2672 -0.2574
C3 C 0.6886(4) 0.4352(4) -0.4286(4)
H3 H 0.7593 0.3970 -0.4841
C4 C 0.6512(4) 0.5718(4) -0.4853(4)
H4 H 0.6951 0.6238 -0.5791
C5 C 0.5523(4) 0.6282(4) -0.4054(4)
H5 H 0.5294 0.7203 -0.4434
C6 C 0.4836(4) 0.5514(4) -0.2668(4)
C7 C 0.3802(4) 0.6048(4) -0.1794(4)
H6 H 0.3567 0.6973 -0.2129
C8 C 0.3137(4) 0.5246(4) -0.0472(4)
C9 C 0.2012(4) 0.5835(4) 0.0442(4)
H7 H 0.2478 0.6186 0.0953
C10 C 0.0874(4) 0.4733(4) 0.1470(4)
H8 H 0.0428 0.4331 0.0981
C11 C 0.1479(4) 0.3630(4) 0.2491(4)
H9 H 0.2035 0.4070 0.2866
C12 C 0.3536(4) 0.3873(4) -0.0029(4)
C13 C 0.0352(4) 0.2656(4) 0.3675(4)
C14 C -0.0704(4) 0.2006(4) 0.3479(4)
H10 H -0.0743 0.2156 0.2584
C15 C -0.1696(4) 0.1134(4) 0.4626(5)
C16 C -0.1658(4) 0.0894(4) 0.5927(4)
H11 H -0.2344 0.0287 0.6695
C17 C -0.0618(5) 0.1539(4) 0.6109(4)
H12 H -0.0584 0.1385 0.7007
C18 C 0.0382(4) 0.2415(4) 0.4986(4)
H13 H 0.1100 0.2857 0.5121
S2 S 0.27277(14) 0.00481(12) 0.99222(13)
O4 O 0.1697(4) -0.1144(3) 1.0508(4)
C19 C 0.4193(6) -0.0270(6) 0.8649(7)
H14 H 0.4736 -0.1015 0.9095
H15 H 0.4818 0.0550 0.8129
H16 H 0.3828 -0.0518 0.8027
C20 C 0.2008(6) 0.1382(5) 0.8803(7)
H17 H 0.1810 0.1075 0.8131
H18 H 0.2696 0.2158 0.8325
H19 H 0.1119 0.1653 0.9330
loop_
_geom_bond_atom_site_label_1
_geom_bond_atom_site_label_2
_geom_bond_site_symmetry_1
_geom_bond_site_symmetry_2
S1 C11 1_555 1_555
Cl1 C15 1_555 1_555
O1 H1 1_555 1_555
O2 N2 1_555 1_555
O3 N2 1_555 1_555
N1 C1 1_555 1_555
N2 C10 1_555 1_555
C1 C2 1_555 1_555
C2 H2 1_555 1_555
C3 C2 1_555 1_555
H3 C3 1_555 1_555
C4 C3 1_555 1_555
H4 C4 1_555 1_555
C5 C4 1_555 1_555
H5 C5 1_555 1_555
C6 C1 1_555 1_555
C7 C6 1_555 1_555
H6 C7 1_555 1_555
C8 C7 1_555 1_555
C9 O1 1_555 1_555
H7 C9 1_555 1_555
C10 C9 1_555 1_555
H8 C10 1_555 1_555
C11 C10 1_555 1_555
H9 C11 1_555 1_555
C12 S1 1_555 1_555
C13 C11 1_555 1_555
C14 C13 1_555 1_555
H10 C14 1_555 1_555
C15 C14 1_555 1_555
C16 C15 1_555 1_555
H11 C16 1_555 1_555
C17 C16 1_555 1_555
H12 C17 1_555 1_555
C18 C13 1_555 1_555
H13 C18 1_555 1_555
S2 O4 1_555 1_555
C19 S2 1_555 1_555
H14 C19 1_555 1_555
H15 C19 1_555 1_555
H16 C19 1_555 1_555
C20 S2 1_555 1_555
H17 C20 1_555 1_555
H18 C20 1_555 1_555
H19 C20 1_555 1_555
N1 C12 1_555 1_555
C5 C6 1_555 1_555
C8 C9 1_555 1_555
C8 C12 1_555 1_555
C17 C18 1_555 1_555

#END
