
#######################################################################
#
#                 Cambridge Crystallographic Data Centre
#                                CCDC 
#
#######################################################################
#
# If this CIF has been generated from an entry in the Cambridge 
# Structural Database, then it will include bibliographic, chemical, 
# crystal, experimental, refinement or atomic coordinate data resulting 
# from the CCDC's data processing and validation procedures.
#
#######################################################################

data_SERPOX
_chemical_formula_moiety         'C13 H12 N2 O3'
_chemical_name_systematic        N-(allyloxy)-8-hydroxyquinoline-2-carboxamide
_symmetry_cell_setting           rhombohedral
_symmetry_space_group_name_H-M   'R -3'
_symmetry_Int_Tables_number      148
_space_group_name_Hall           '-R 3'
loop_
_symmetry_equiv_pos_site_id
_symmetry_equiv_pos_as_xyz
1 x,y,z
2 -y,x-y,z
3 -x+y,-x,z
4 2/3+x,1/3+y,1/3+z
5 2/3-y,1/3+x-y,1/3+z
6 2/3-x+y,1/3-x,1/3+z
7 1/3+x,2/3+y,2/3+z
8 1/3-y,2/3+x-y,2/3+z
9 1/3-x+y,2/3-x,2/3+z
10 -x,-y,-z
11 y,-x+y,-z
12 x-y,x,-z
13 1/3-x,2/3-y,2/3-z
14 1/3+y,2/3-x+y,2/3-z
15 1/3+x-y,2/3+x,2/3-z
16 2/3-x,1/3-y,1/3-z
17 2/3+y,1/3-x+y,1/3-z
18 2/3+x-y,1/3+x,1/3-z
_cell_length_a                   23.397(3)
_cell_length_b                   23.397(3)
_cell_length_c                   23.470(2)
_cell_angle_alpha                90
_cell_angle_beta                 90
_cell_angle_gamma                120
_cell_volume                     11126.6
_cell_formula_units_Z            36
loop_
_atom_site_label
_atom_site_type_symbol
_atom_site_fract_x
_atom_site_fract_y
_atom_site_fract_z
N1 N 0.54851(13) 0.08744(12) 0.49613(9)
C1 C 0.59851(16) 0.08204(15) 0.51539(11)
C2 C 0.63373(17) 0.06010(17) 0.48209(12)
H1 H 0.6689 0.0574 0.4976
C3 C 0.61552(17) 0.04276(17) 0.42681(12)
H2 H 0.6379 0.0276 0.4043
C4 C 0.56278(17) 0.04785(15) 0.40387(12)
C5 C 0.5403(2) 0.03176(19) 0.34718(13)
H3 H 0.5618 0.0182 0.3219
C6 C 0.4875(2) 0.0361(2) 0.32967(14)
H4 H 0.4727 0.0247 0.2924
C7 C 0.4547(2) 0.0572(2) 0.36647(13)
H5 H 0.4184 0.0595 0.3534
C8 C 0.47532(18) 0.07440(17) 0.42093(13)
O1 O 0.44246(13) 0.09446(15) 0.45568(9)
H6 H 0.4594 0.1025 0.4874
C9 C 0.53012(16) 0.07031(15) 0.44084(12)
C10 C 0.61876(19) 0.10118(17) 0.57654(13)
O2 O 0.66618(12) 0.09947(12) 0.59761(9)
N2 N 0.58097(16) 0.12009(16) 0.60368(10)
H7 H 0.5525 0.1260 0.5854
O3 O 0.58857(15) 0.13018(16) 0.66253(9)
C11 C 0.6237(2) 0.1984(2) 0.67506(17)
H8 H 0.6016 0.2205 0.6591
H9 H 0.6683 0.2189 0.6602
C12 C 0.6239(4) 0.2010(4) 0.7394(3)
H10 H 0.5814 0.1793 0.7544
C13 C 0.6597(7) 0.2210(6) 0.7712(4)
H11 H 0.6492 0.2310 0.8066
H12 H 0.7021 0.2288 0.7641
N3 N 0.78377(12) 0.20312(13) 0.67316(9)
C15 C 0.82689(18) 0.26289(17) 0.65597(12)
C16 C 0.87621(19) 0.31006(18) 0.69108(14)
H16 H 0.9057 0.3519 0.6772
C17 C 0.8802(2) 0.2934(2) 0.74620(15)
H17 H 0.9127 0.3242 0.7702
C18 C 0.83581(17) 0.23025(17) 0.76675(12)
C19 C 0.83696(19) 0.2083(2) 0.82260(13)
H18 H 0.8678 0.2369 0.8488
C20 C 0.7933(2) 0.1456(2) 0.83782(13)
H19 H 0.7952 0.1314 0.8744
C21 C 0.74527(18) 0.10152(17) 0.79984(12)
H20 H 0.7159 0.0586 0.8114
C22 C 0.74137(17) 0.12131(17) 0.74605(12)
O4 O 0.69403(12) 0.07776(11) 0.71055(8)
H21 H 0.6964 0.0957 0.6799
C23 C 0.78763(16) 0.18622(15) 0.72813(11)
C24 C 0.8222(2) 0.2796(2) 0.59477(13)
O5 O 0.86214(14) 0.33335(12) 0.57367(9)
N4 N 0.77176(15) 0.23083(15) 0.56714(11)
H22 H 0.7422 0.1972 0.5856
O6 O 0.76699(15) 0.23447(14) 0.50824(9)
C25 C 0.7297(3) 0.2639(2) 0.49321(17)
H23 H 0.7509 0.3093 0.5063
H24 H 0.6858 0.2399 0.5096
C26 C 0.7264(4) 0.2609(3) 0.4293(2)
H25 H 0.7675 0.2837 0.4118
C27 C 0.6841(4) 0.2365(4) 0.3983(3)
H26 H 0.6410 0.2124 0.4116
H27 H 0.6924 0.2404 0.3593
H13? H 0.6591 0.1986 0.7550
C14? C 0.587(3) 0.206(3) 0.778(2)
H14? H 0.6043 0.2227 0.8139
H15? H 0.5430 0.1922 0.7702
loop_
_geom_bond_atom_site_label_1
_geom_bond_atom_site_label_2
_geom_bond_site_symmetry_1
_geom_bond_site_symmetry_2
N1 C1 1_555 1_555
C1 C2 1_555 1_555
C2 H1 1_555 1_555
C3 C2 1_555 1_555
H2 C3 1_555 1_555
C4 C3 1_555 1_555
C5 C4 1_555 1_555
H3 C5 1_555 1_555
C6 C5 1_555 1_555
H4 C6 1_555 1_555
C7 C6 1_555 1_555
H5 C7 1_555 1_555
C8 C7 1_555 1_555
O1 C8 1_555 1_555
H6 O1 1_555 1_555
C9 N1 1_555 1_555
C10 C1 1_555 1_555
O2 C10 1_555 1_555
N2 C10 1_555 1_555
H7 N2 1_555 1_555
O3 N2 1_555 1_555
C11 O3 1_555 1_555
H8 C11 1_555 1_555
H9 C11 1_555 1_555
C12 C11 1_555 1_555
H10 C12 1_555 1_555
C13 C12 1_555 1_555
H11 C13 1_555 1_555
H12 C13 1_555 1_555
N3 C15 1_555 1_555
C15 C16 1_555 1_555
C16 H16 1_555 1_555
C17 C16 1_555 1_555
H17 C17 1_555 1_555
C18 C17 1_555 1_555
C19 C18 1_555 1_555
H18 C19 1_555 1_555
C20 C19 1_555 1_555
H19 C20 1_555 1_555
C21 C20 1_555 1_555
H20 C21 1_555 1_555
C22 C21 1_555 1_555
O4 C22 1_555 1_555
H21 O4 1_555 1_555
C23 N3 1_555 1_555
C24 C15 1_555 1_555
O5 C24 1_555 1_555
N4 C24 1_555 1_555
H22 N4 1_555 1_555
O6 N4 1_555 1_555
C25 O6 1_555 1_555
H23 C25 1_555 1_555
H24 C25 1_555 1_555
C26 C25 1_555 1_555
H25 C26 1_555 1_555
C27 C26 1_555 1_555
H26 C27 1_555 1_555
H27 C27 1_555 1_555
C4 C9 1_555 1_555
C8 C9 1_555 1_555
C18 C23 1_555 1_555
C22 C23 1_555 1_555

#END
