
#######################################################################
#
#                 Cambridge Crystallographic Data Centre
#                                CCDC 
#
#######################################################################
#
# If this CIF has been generated from an entry in the Cambridge 
# Structural Database, then it will include bibliographic, chemical, 
# crystal, experimental, refinement or atomic coordinate data resulting 
# from the CCDC's data processing and validation procedures.
#
#######################################################################

data_SERPIR
_chemical_formula_moiety         'C17 H14 N2 O3'
_chemical_name_systematic        
N-(benzyloxy)-8-hydroxyquinoline-2-carboxamide
_symmetry_cell_setting           monoclinic
_symmetry_space_group_name_H-M   'P 21/n'
_symmetry_Int_Tables_number      14
_space_group_name_Hall           '-P 2yn'
loop_
_symmetry_equiv_pos_site_id
_symmetry_equiv_pos_as_xyz
1 x,y,z
2 1/2-x,1/2+y,1/2-z
3 -x,-y,-z
4 1/2+x,1/2-y,1/2+z
_cell_length_a                   16.0926(6)
_cell_length_b                   9.8191(5)
_cell_length_c                   28.7192(15)
_cell_angle_alpha                90
_cell_angle_beta                 90.770(4)
_cell_angle_gamma                90
_cell_volume                     4537.65
_cell_formula_units_Z            12
loop_
_atom_site_label
_atom_site_type_symbol
_atom_site_fract_x
_atom_site_fract_y
_atom_site_fract_z
N1 N 0.39435(11) -0.4223(2) 0.43498(7)
C1 C 0.45171(13) -0.4747(3) 0.40766(9)
C2 C 0.49449(15) -0.5964(3) 0.41808(11)
H1 H 0.5348 -0.6296 0.3981
C3 C 0.47575(17) -0.6642(3) 0.45777(11)
H2 H 0.5040 -0.7440 0.4653
C4 C 0.41421(16) -0.6149(3) 0.48755(11)
C5 C 0.3311(2) -0.6225(5) 0.55638(12)
H3 H 0.3162 -0.6654 0.5839
C6 C 0.29234(19) -0.5003(5) 0.54365(12)
H4 H 0.2512 -0.4642 0.5624
C7 C 0.31430(16) -0.4337(4) 0.50397(11)
O1 O 0.27778(13) -0.3147(3) 0.49276(8)
H5 H 0.3037 -0.2779 0.4718
C8 C 0.37526(14) -0.4923(3) 0.47435(10)
C9 C 0.46917(13) -0.3995(3) 0.36326(9)
O2 O 0.51687(9) -0.4453(2) 0.33339(6)
N2 N 0.42872(12) -0.2831(2) 0.35875(8)
H6 H 0.4003 -0.2511 0.3814
O3 O 0.43279(11) -0.2132(2) 0.31668(7)
C10 C 0.43989(18) -0.0689(4) 0.32575(12)
H7 H 0.3940 -0.0407 0.3450
H8 H 0.4353 -0.0200 0.2965
C11 C 0.51959(19) -0.0300(3) 0.34943(14)
C12 C 0.5932(2) -0.0307(4) 0.32522(17)
H9 H 0.5931 -0.0538 0.2938
C13 C 0.6663(3) 0.0026(6) 0.3475(3)
H10 H 0.7154 0.0022 0.3307
C14 C 0.6688(3) 0.0363(5) 0.3936(3)
H11 H 0.7189 0.0581 0.4083
C15 C 0.5968(3) 0.0373(4) 0.41763(18)
H12 H 0.5973 0.0606 0.4490
C16 C 0.5221(2) 0.0035(4) 0.39552(15)
H13 H 0.4732 0.0037 0.4124
C17 C 0.3902(2) -0.6793(4) 0.52933(12)
H14 H 0.4149 -0.7610 0.5383
C18 C 0.82100(16) -0.7983(3) 0.25917(12)
H15 H 0.8561 -0.8465 0.2396
N3 N 0.61699(10) -0.6213(2) 0.25904(7)
C19 C 0.59205(13) -0.6436(3) 0.21585(10)
C20 C 0.63789(15) -0.7191(3) 0.18334(10)
H16 H 0.6174 -0.7331 0.1533
C21 C 0.71290(16) -0.7713(3) 0.19691(11)
H17 H 0.7441 -0.8215 0.1760
C22 C 0.74329(14) -0.7494(3) 0.24249(10)
C23 C 0.84341(16) -0.7738(4) 0.30415(13)
H18 H 0.8941 -0.8070 0.3152
C24 C 0.79296(15) -0.7006(3) 0.33421(11)
H19 H 0.8100 -0.6869 0.3649
C25 C 0.71855(14) -0.6485(3) 0.31898(10)
O4 O 0.67112(10) -0.5740(3) 0.34791(7)
H20 H 0.6282 -0.5513 0.3343
C26 C 0.69210(12) -0.6736(3) 0.27273(9)
C27 C 0.51050(13) -0.5816(3) 0.20111(10)
O5 O 0.47913(10) -0.6080(2) 0.16268(7)
N4 N 0.47714(10) -0.4979(2) 0.23202(8)
H21 H 0.5036 -0.4757 0.2571
O6 O 0.39766(8) -0.4469(2) 0.22252(7)
C28 C 0.40261(14) -0.3156(3) 0.20017(10)
H22 H 0.4325 -0.3223 0.1712
H23 H 0.4308 -0.2505 0.2203
C29 C 0.31409(14) -0.2730(3) 0.19127(9)
C30 C 0.26576(17) -0.2322(3) 0.22750(11)
H24 H 0.2890 -0.2266 0.2573
C31 C 0.18379(19) -0.1994(4) 0.22076(13)
H25 H 0.1519 -0.1722 0.2459
C32 C 0.14899(18) -0.2066(3) 0.17746(14)
H26 H 0.0930 -0.1858 0.1730
C33 C 0.19642(19) -0.2444(4) 0.14021(12)
H27 H 0.1731 -0.2472 0.1104
C34 C 0.27927(16) -0.2784(3) 0.14728(10)
H28 H 0.3114 -0.3049 0.1222
N5 N 0.39850(10) -0.4935(2) 0.07224(7)
C35 C 0.31946(13) -0.5144(3) 0.06070(9)
C36 C 0.28076(15) -0.4523(3) 0.02224(11)
H29 H 0.2251 -0.4690 0.0154
C37 C 0.32586(17) -0.3671(3) -0.00485(12)
H30 H 0.3008 -0.3257 -0.0305
C38 C 0.41018(16) -0.3410(3) 0.00558(11)
C39 C 0.4624(2) -0.2560(4) -0.02103(12)
H31 H 0.4416 -0.2110 -0.0472
C40 C 0.5438(2) -0.2410(4) -0.00779(14)
H32 H 0.5782 -0.1862 -0.0256
C41 C 0.57659(18) -0.3049(4) 0.03132(12)
H33 H 0.6320 -0.2910 0.0396
C42 C 0.52846(15) -0.3881(3) 0.05784(11)
O7 O 0.56102(10) -0.4513(3) 0.09563(7)
H34 H 0.5251 -0.4977 0.1079
C43 C 0.44355(14) -0.4082(3) 0.04508(9)
C44 C 0.27100(14) -0.6074(3) 0.09167(9)
O8 O 0.19712(9) -0.6362(2) 0.08314(6)
N6 N 0.31318(11) -0.6567(2) 0.12770(8)
H35 H 0.3658 -0.6423 0.1303
O9 O 0.27246(10) -0.7314(2) 0.16130(7)
C45 C 0.27237(16) -0.8757(3) 0.15081(11)
H36 H 0.2392 -0.8911 0.1229
H37 H 0.2462 -0.9242 0.1761
C46 C 0.35625(18) -0.9327(3) 0.14386(13)
C47 C 0.4138(2) -0.9349(4) 0.17900(16)
H38 H 0.4003 -0.9001 0.2081
C48 C 0.4937(3) -0.9892(5) 0.1718(3)
H39 H 0.5339 -0.9903 0.1954
C49 C 0.5093(3) -1.0415(6) 0.1273(3)
H40 H 0.5615 -1.0775 0.1213
C50 C 0.4516(3) -1.0414(5) 0.0930(2)
H41 H 0.4636 -1.0785 0.0641
C51 C 0.3760(2) -0.9870(4) 0.10088(16)
H42 H 0.3364 -0.9860 0.0770
loop_
_geom_bond_atom_site_label_1
_geom_bond_atom_site_label_2
_geom_bond_site_symmetry_1
_geom_bond_site_symmetry_2
N1 C1 1_555 1_555
C1 C2 1_555 1_555
C2 H1 1_555 1_555
C3 C2 1_555 1_555
H2 C3 1_555 1_555
C4 C3 1_555 1_555
C5 H3 1_555 1_555
C6 C5 1_555 1_555
H4 C6 1_555 1_555
C7 C6 1_555 1_555
O1 C7 1_555 1_555
H5 O1 1_555 1_555
C8 N1 1_555 1_555
C9 C1 1_555 1_555
O2 C9 1_555 1_555
N2 C9 1_555 1_555
H6 N2 1_555 1_555
O3 N2 1_555 1_555
C10 O3 1_555 1_555
H7 C10 1_555 1_555
H8 C10 1_555 1_555
C11 C10 1_555 1_555
C12 C11 1_555 1_555
H9 C12 1_555 1_555
C13 C12 1_555 1_555
H10 C13 1_555 1_555
C14 C13 1_555 1_555
H11 C14 1_555 1_555
C15 C14 1_555 1_555
H12 C15 1_555 1_555
C16 C11 1_555 1_555
H13 C16 1_555 1_555
C17 C4 1_555 1_555
H14 C17 1_555 1_555
C18 H15 1_555 1_555
N3 C19 1_555 1_555
C19 C20 1_555 1_555
C20 H16 1_555 1_555
C21 C20 1_555 1_555
H17 C21 1_555 1_555
C22 C18 1_555 1_555
C23 C18 1_555 1_555
H18 C23 1_555 1_555
C24 C23 1_555 1_555
H19 C24 1_555 1_555
C25 C24 1_555 1_555
O4 C25 1_555 1_555
H20 O4 1_555 1_555
C26 N3 1_555 1_555
C27 C19 1_555 1_555
O5 C27 1_555 1_555
N4 C27 1_555 1_555
H21 N4 1_555 1_555
O6 N4 1_555 1_555
C28 O6 1_555 1_555
H22 C28 1_555 1_555
H23 C28 1_555 1_555
C29 C28 1_555 1_555
C30 C29 1_555 1_555
H24 C30 1_555 1_555
C31 C30 1_555 1_555
H25 C31 1_555 1_555
C32 C31 1_555 1_555
H26 C32 1_555 1_555
C33 C32 1_555 1_555
H27 C33 1_555 1_555
C34 C29 1_555 1_555
H28 C34 1_555 1_555
N5 C35 1_555 1_555
C35 C36 1_555 1_555
C36 H29 1_555 1_555
C37 C36 1_555 1_555
H30 C37 1_555 1_555
C38 C37 1_555 1_555
C39 C38 1_555 1_555
H31 C39 1_555 1_555
C40 C39 1_555 1_555
H32 C40 1_555 1_555
C41 C40 1_555 1_555
H33 C41 1_555 1_555
C42 C41 1_555 1_555
O7 C42 1_555 1_555
H34 O7 1_555 1_555
C43 N5 1_555 1_555
C44 C35 1_555 1_555
O8 C44 1_555 1_555
N6 C44 1_555 1_555
H35 N6 1_555 1_555
O9 N6 1_555 1_555
C45 O9 1_555 1_555
H36 C45 1_555 1_555
H37 C45 1_555 1_555
C46 C45 1_555 1_555
C47 C46 1_555 1_555
H38 C47 1_555 1_555
C48 C47 1_555 1_555
H39 C48 1_555 1_555
C49 C48 1_555 1_555
H40 C49 1_555 1_555
C50 C49 1_555 1_555
H41 C50 1_555 1_555
C51 C46 1_555 1_555
H42 C51 1_555 1_555
C4 C8 1_555 1_555
C5 C17 1_555 1_555
C7 C8 1_555 1_555
C15 C16 1_555 1_555
C21 C22 1_555 1_555
C22 C26 1_555 1_555
C25 C26 1_555 1_555
C33 C34 1_555 1_555
C38 C43 1_555 1_555
C42 C43 1_555 1_555
C50 C51 1_555 1_555

#END
