
#######################################################################
#
#                 Cambridge Crystallographic Data Centre
#                                CCDC 
#
#######################################################################
#
# If this CIF has been generated from an entry in the Cambridge 
# Structural Database, then it will include bibliographic, chemical, 
# crystal, experimental, refinement or atomic coordinate data resulting 
# from the CCDC's data processing and validation procedures.
#
#######################################################################

data_SERSEO
_chemical_formula_moiety         'C28 H31 O2 P1,C2 H6 O1'
_chemical_name_systematic        
"di-t-butyl(2'-hydroxy-1,1'-binaphthyl-2-yl)phosphine oxide ethanol solvate"
_symmetry_cell_setting           triclinic
_symmetry_space_group_name_H-M   'P -1'
_symmetry_Int_Tables_number      2
_space_group_name_Hall           '-P 1'
loop_
_symmetry_equiv_pos_site_id
_symmetry_equiv_pos_as_xyz
1 x,y,z
2 -x,-y,-z
_cell_length_a                   10.675(2)
_cell_length_b                   11.455(3)
_cell_length_c                   12.152(3)
_cell_angle_alpha                94.968(4)
_cell_angle_beta                 95.671(4)
_cell_angle_gamma                117.303(4)
_cell_volume                     1299.26
_exptl_crystal_colour            colorless
_exptl_crystal_description       prism
_cell_formula_units_Z            2
loop_
_atom_site_label
_atom_site_type_symbol
_atom_site_fract_x
_atom_site_fract_y
_atom_site_fract_z
P1 P 0.88554(10) 0.75528(9) 0.73613(8)
O1 O 0.7505(2) 0.6316(2) 0.69238(18)
O2 O 0.6214(3) 0.7351(2) 0.4958(2)
H1 H 0.5756 0.6819 0.4369
C1 C 0.8639(4) 0.9040(3) 0.7316(3)
C2 C 0.9917(4) 1.0283(3) 0.7559(3)
H3 H 1.0802 1.0288 0.7764
C3 C 0.9904(4) 1.1452(3) 0.7505(3)
H4 H 1.0770 1.2261 0.7701
C4 C 0.8624(4) 1.1481(3) 0.7162(3)
C5 C 0.8592(4) 1.2682(3) 0.7059(3)
H5 H 0.9445 1.3500 0.7269
C6 C 0.7362(4) 1.2691(4) 0.6663(3)
H6 H 0.7358 1.3508 0.6588
C7 C 0.6095(4) 1.1484(4) 0.6368(3)
H7 H 0.5237 1.1488 0.6079
C8 C 0.6081(4) 1.0306(4) 0.6490(3)
H8 H 0.5209 0.9502 0.6305
C9 C 0.7349(4) 1.0267(3) 0.6890(3)
C10 C 0.7369(4) 0.9042(3) 0.7002(3)
C11 C 0.5941(3) 0.7816(3) 0.6809(3)
C12 C 0.5080(4) 0.7532(3) 0.7671(3)
C13 C 0.5491(4) 0.8399(4) 0.8706(3)
H9 H 0.6378 0.9192 0.8833
C14 C 0.4641(4) 0.8118(4) 0.9521(3)
H10 H 0.4926 0.8724 1.0194
C15 C 0.3348(4) 0.6935(4) 0.9360(3)
H11 H 0.2770 0.6722 0.9933
C16 C 0.2925(4) 0.6093(4) 0.8379(3)
H12 H 0.2054 0.5287 0.8284
C17 C 0.3732(4) 0.6374(3) 0.7503(3)
C18 C 0.3267(4) 0.5554(4) 0.6464(3)
H13 H 0.2378 0.4765 0.6345
C19 C 0.4065(4) 0.5864(3) 0.5621(3)
H14 H 0.3715 0.5309 0.4916
C20 C 0.5412(4) 0.7011(3) 0.5795(3)
C21 C 1.0197(4) 0.7673(3) 0.6447(3)
C22 C 0.9943(4) 0.6258(4) 0.6070(3)
H15 H 0.8945 0.5701 0.5724
H16 H 1.0150 0.5889 0.6720
H17 H 1.0570 0.6280 0.5526
C23 C 0.9853(5) 0.8199(4) 0.5398(3)
H18 H 1.0412 0.8120 0.4830
H19 H 1.0096 0.9134 0.5594
H20 H 0.8834 0.7679 0.5101
C24 C 1.1783(4) 0.8503(4) 0.6928(4)
H21 H 1.2359 0.8469 0.6359
H22 H 1.2005 0.8146 0.7581
H23 H 1.1999 0.9426 0.7154
C25 C 0.9379(4) 0.7504(3) 0.8851(3)
C26 C 0.9506(4) 0.6229(4) 0.8907(3)
H24 H 1.0325 0.6298 0.8562
H25 H 0.8632 0.5466 0.8504
H26 H 0.9642 0.6107 0.9690
C27 C 1.0744(4) 0.8686(4) 0.9462(3)
H27 H 1.0664 0.9502 0.9429
H28 H 1.1554 0.8750 0.9107
H29 H 1.0894 0.8570 1.0245
C28 C 0.8117(4) 0.7382(4) 0.9428(3)
H30 H 0.8282 0.7256 1.0206
H31 H 0.7237 0.6619 0.9036
H32 H 0.8026 0.8194 0.9411
O3 O 0.5264(3) 0.4052(2) 0.7027(2)
H2 H 0.6036 0.4762 0.7108
C29 C 0.3745(5) 0.2400(4) 0.7985(4)
H33 H 0.2945 0.2223 0.7408
H34 H 0.3405 0.2239 0.8705
H35 H 0.4149 0.1811 0.7784
C30 C 0.4849(5) 0.3791(4) 0.8073(3)
H36 H 0.4469 0.4390 0.8339
H37 H 0.5685 0.3959 0.8620
loop_
_geom_bond_atom_site_label_1
_geom_bond_atom_site_label_2
_geom_bond_site_symmetry_1
_geom_bond_site_symmetry_2
P1 O1 1_555 1_555
O2 H1 1_555 1_555
O3 H2 1_555 1_555
C1 P1 1_555 1_555
C2 C1 1_555 1_555
H3 C2 1_555 1_555
C3 C2 1_555 1_555
H4 C3 1_555 1_555
C4 C3 1_555 1_555
C5 C4 1_555 1_555
H5 C5 1_555 1_555
C6 C5 1_555 1_555
H6 C6 1_555 1_555
C7 C6 1_555 1_555
H7 C7 1_555 1_555
C8 C7 1_555 1_555
H8 C8 1_555 1_555
C9 C4 1_555 1_555
C10 C1 1_555 1_555
C11 C10 1_555 1_555
C12 C11 1_555 1_555
C13 C12 1_555 1_555
H9 C13 1_555 1_555
C14 C13 1_555 1_555
H10 C14 1_555 1_555
C15 C14 1_555 1_555
H11 C15 1_555 1_555
C16 C15 1_555 1_555
H12 C16 1_555 1_555
C17 C12 1_555 1_555
C18 C17 1_555 1_555
H13 C18 1_555 1_555
C19 C18 1_555 1_555
H14 C19 1_555 1_555
C20 O2 1_555 1_555
C21 P1 1_555 1_555
C22 C21 1_555 1_555
H15 C22 1_555 1_555
H16 C22 1_555 1_555
H17 C22 1_555 1_555
C23 C21 1_555 1_555
H18 C23 1_555 1_555
H19 C23 1_555 1_555
H20 C23 1_555 1_555
C24 C21 1_555 1_555
H21 C24 1_555 1_555
H22 C24 1_555 1_555
H23 C24 1_555 1_555
C25 P1 1_555 1_555
C26 C25 1_555 1_555
H24 C26 1_555 1_555
H25 C26 1_555 1_555
H26 C26 1_555 1_555
C27 C25 1_555 1_555
H27 C27 1_555 1_555
H28 C27 1_555 1_555
H29 C27 1_555 1_555
C28 C25 1_555 1_555
H30 C28 1_555 1_555
H31 C28 1_555 1_555
H32 C28 1_555 1_555
C29 H33 1_555 1_555
H34 C29 1_555 1_555
H35 C29 1_555 1_555
C30 O3 1_555 1_555
H36 C30 1_555 1_555
H37 C30 1_555 1_555
C8 C9 1_555 1_555
C9 C10 1_555 1_555
C11 C20 1_555 1_555
C16 C17 1_555 1_555
C19 C20 1_555 1_555
C29 C30 1_555 1_555

#END
