
#######################################################################
#
#                 Cambridge Crystallographic Data Centre
#                                CCDC 
#
#######################################################################
#
# If this CIF has been generated from an entry in the Cambridge 
# Structural Database, then it will include bibliographic, chemical, 
# crystal, experimental, refinement or atomic coordinate data resulting 
# from the CCDC's data processing and validation procedures.
#
#######################################################################

data_SERSIS
_chemical_formula_moiety         'C28 H31 O2 P1,C2 H3 N1'
_chemical_name_systematic        
"di-t-butyl(2',3'-epoxy-2',3'-dihydro-1,1'-binaphthyl-2-yl)phosphine oxide acetonitrile solvate"
_symmetry_cell_setting           monoclinic
_symmetry_space_group_name_H-M   'P 21/n'
_symmetry_Int_Tables_number      14
_space_group_name_Hall           '-P 2yn'
loop_
_symmetry_equiv_pos_site_id
_symmetry_equiv_pos_as_xyz
1 x,y,z
2 1/2-x,1/2+y,1/2-z
3 -x,-y,-z
4 1/2+x,1/2-y,1/2+z
_cell_length_a                   10.999(6)
_cell_length_b                   11.201(6)
_cell_length_c                   21.538(12)
_cell_angle_alpha                90.00
_cell_angle_beta                 100.571(9)
_cell_angle_gamma                90.00
_cell_volume                     2608.44
_cell_formula_units_Z            4
loop_
_atom_site_label
_atom_site_type_symbol
_atom_site_fract_x
_atom_site_fract_y
_atom_site_fract_z
P1 P 0.85809(10) 0.79263(10) 0.13416(5)
O1 O 0.9196(2) 0.8670(3) 0.09216(13)
O2 O 1.1543(3) 0.8404(3) 0.15995(14)
C1 C 0.9167(4) 0.8235(4) 0.2182(2)
C2 C 0.8531(4) 0.7751(4) 0.2632(2)
H1 H 0.7856 0.7229 0.2493
C3 C 0.8846(4) 0.8000(4) 0.3258(2)
H2 H 0.8421 0.7616 0.3549
C4 C 0.9789(4) 0.8817(4) 0.34794(19)
C5 C 1.0105(4) 0.9143(5) 0.4125(2)
H3 H 0.9679 0.8786 0.4423
C6 C 1.0998(4) 0.9950(5) 0.4320(2)
H4 H 1.1179 1.0179 0.4752
C7 C 1.1655(4) 1.0451(5) 0.3895(2)
H5 H 1.2270 1.1033 0.4039
C8 C 1.1439(4) 1.0125(5) 0.3272(2)
H6 H 1.1932 1.0445 0.2993
C9 C 1.0478(4) 0.9309(4) 0.30446(19)
C10 C 1.0206(4) 0.8942(4) 0.23883(19)
C11 C 1.1167(4) 0.9307(4) 0.1999(2)
C12 C 1.2406(4) 0.8743(5) 0.2158(2)
C13 C 1.3478(4) 0.9404(6) 0.2034(3)
H7 H 1.4278 0.9084 0.2182
C14 C 1.3383(5) 1.0442(6) 0.1719(3)
H8 H 1.4096 1.0793 0.1604
C15 C 1.2153(5) 1.1050(4) 0.1547(2)
C16 C 1.2097(7) 1.2132(6) 0.1256(3)
H9 H 1.2799 1.2455 0.1117
C17 C 1.0974(6) 1.2755(5) 0.1168(3)
H10 H 1.0911 1.3501 0.0955
C18 C 0.9987(6) 1.2323(5) 0.1376(3)
H11 H 0.9253 1.2787 0.1330
C19 C 1.0022(5) 1.1210(5) 0.1659(2)
H12 H 0.9313 1.0909 0.1800
C20 C 1.1134(4) 1.0514(4) 0.17370(18)
C21 C 0.6893(4) 0.8324(5) 0.1188(2)
C22 C 0.5996(5) 0.7602(6) 0.1505(3)
H13 H 0.5144 0.7785 0.1303
H14 H 0.6116 0.7810 0.1954
H15 H 0.6153 0.6748 0.1461
C23 C 0.6458(5) 0.8267(7) 0.0469(3)
H16 H 0.6321 0.7432 0.0338
H17 H 0.7092 0.8617 0.0259
H18 H 0.5685 0.8714 0.0352
C24 C 0.6840(6) 0.9646(5) 0.1383(4)
H19 H 0.7414 1.0114 0.1182
H20 H 0.7076 0.9713 0.1843
H21 H 0.5998 0.9950 0.1248
C25 C 0.8858(4) 0.6337(4) 0.1220(2)
C26 C 0.7814(11) 0.5481(8) 0.1290(8)
C28 C 1.0175(12) 0.6041(14) 0.1626(7)
C30 C 0.9051(12) 0.6258(9) 0.0466(4)
N1 N 0.2801(5) 0.7471(5) -0.0184(2)
C32 C 0.2170(5) 0.8195(5) -0.0053(2)
C33 C 0.1365(5) 0.9108(5) 0.0111(2)
H22 H 0.1057 0.9598 -0.0262
H23 H 0.1825 0.9613 0.0445
H24 H 0.0666 0.8736 0.0261
C27? C 0.8387(13) 0.5499(9) 0.1804(7)
C29? C 1.0293(12) 0.6078(15) 0.1321(9)
C31? C 0.8078(15) 0.5931(13) 0.0570(6)
loop_
_geom_bond_atom_site_label_1
_geom_bond_atom_site_label_2
_geom_bond_site_symmetry_1
_geom_bond_site_symmetry_2
P1 O1 1_555 1_555
N1 C32 1_555 1_555
O2 C11 1_555 1_555
C1 P1 1_555 1_555
C2 C1 1_555 1_555
H1 C2 1_555 1_555
C3 C2 1_555 1_555
H2 C3 1_555 1_555
C4 C3 1_555 1_555
C5 C4 1_555 1_555
H3 C5 1_555 1_555
C6 C5 1_555 1_555
H4 C6 1_555 1_555
C7 C6 1_555 1_555
H5 C7 1_555 1_555
C8 C7 1_555 1_555
H6 C8 1_555 1_555
C9 C4 1_555 1_555
C10 C1 1_555 1_555
C11 C10 1_555 1_555
C12 O2 1_555 1_555
C13 C12 1_555 1_555
H7 C13 1_555 1_555
C14 C13 1_555 1_555
H8 C14 1_555 1_555
C15 C14 1_555 1_555
C16 C15 1_555 1_555
H9 C16 1_555 1_555
C17 C16 1_555 1_555
H10 C17 1_555 1_555
C18 C17 1_555 1_555
H11 C18 1_555 1_555
C19 C18 1_555 1_555
H12 C19 1_555 1_555
C20 C11 1_555 1_555
C21 P1 1_555 1_555
C22 C21 1_555 1_555
H13 C22 1_555 1_555
H14 C22 1_555 1_555
H15 C22 1_555 1_555
C23 C21 1_555 1_555
H16 C23 1_555 1_555
H17 C23 1_555 1_555
H18 C23 1_555 1_555
C24 C21 1_555 1_555
H19 C24 1_555 1_555
H20 C24 1_555 1_555
H21 C24 1_555 1_555
C25 P1 1_555 1_555
C26 C25 1_555 1_555
C28 C25 1_555 1_555
C30 C25 1_555 1_555
C32 C33 1_555 1_555
C33 H22 1_555 1_555
H23 C33 1_555 1_555
H24 C33 1_555 1_555
C8 C9 1_555 1_555
C9 C10 1_555 1_555
C11 C12 1_555 1_555
C15 C20 1_555 1_555
C19 C20 1_555 1_555

#END
