
#######################################################################
#
#                 Cambridge Crystallographic Data Centre
#                                CCDC 
#
#######################################################################
#
# If this CIF has been generated from an entry in the Cambridge 
# Structural Database, then it will include bibliographic, chemical, 
# crystal, experimental, refinement or atomic coordinate data resulting 
# from the CCDC's data processing and validation procedures.
#
#######################################################################

data_SERTIT
_chemical_formula_moiety         'C48 H38,C7 H8'
_chemical_name_systematic        
'6,6,12,12-tetra-p-tolyl-6,12-dihydroindeno[1,2-b]fluorene toluene solvate'
_symmetry_cell_setting           triclinic
_symmetry_space_group_name_H-M   'P -1'
_symmetry_Int_Tables_number      2
_space_group_name_Hall           '-P 1'
loop_
_symmetry_equiv_pos_site_id
_symmetry_equiv_pos_as_xyz
1 x,y,z
2 -x,-y,-z
_cell_length_a                   10.5923(3)
_cell_length_b                   10.6410(3)
_cell_length_c                   10.6696(3)
_cell_angle_alpha                102.9950(10)
_cell_angle_beta                 109.8180(10)
_cell_angle_gamma                106.5150(10)
_cell_volume                     1013.57
_exptl_crystal_colour            white
_chemical_melting_point          '345 deg.C'
_cell_formula_units_Z            1
loop_
_atom_site_label
_atom_site_type_symbol
_atom_site_fract_x
_atom_site_fract_y
_atom_site_fract_z
C25 C 0.7272(10) 0.0868(10) 0.5809(16)
C26 C 0.631(3) 0.1040(17) 0.452(2)
H24 H 0.6685 0.1556 0.4004
C27 C 0.490(2) 0.0425(9) 0.4131(11)
C29 C 0.658(2) 0.0110(13) 0.6533(11)
C25A C 0.2728(10) -0.0868(10) 0.4191(16)
C26A C 0.369(3) -0.1040(17) 0.548(2)
H24A H 0.3315 -0.1556 0.5996
C27A C 0.510(2) -0.0425(9) 0.5869(11)
C29A C 0.342(2) -0.0110(13) 0.3467(11)
C1 C -0.04697(18) -0.02789(17) 0.10322(18)
H1 H -0.0780 -0.0467 0.1713
C2 C 0.00567(18) 0.10780(17) 0.10535(17)
C3 C -0.05235(18) -0.13517(17) -0.00273(17)
C4 C -0.10493(18) -0.28708(17) -0.03271(18)
C5 C -0.1564(2) -0.36484(19) 0.0406(2)
H2 H -0.1601 -0.3208 0.1243
C6 C -0.2022(2) -0.5092(2) -0.0129(2)
H3 H -0.2371 -0.5627 0.0352
C7 C -0.1965(2) -0.5740(2) -0.1365(2)
H4 H -0.2290 -0.6712 -0.1718
C8 C -0.1434(2) -0.49726(19) -0.2093(2)
H5 H -0.1394 -0.5420 -0.2925
C9 C -0.09623(18) -0.35244(17) -0.15634(19)
C10 C 0.02554(18) 0.24401(17) 0.21182(18)
C11 C 0.12340(19) 0.25682(17) 0.36217(18)
C12 C 0.0630(2) 0.1930(2) 0.4400(2)
H6 H -0.0380 0.1500 0.4045
C13 C 0.1505(2) 0.1925(2) 0.5695(2)
H7 H 0.1070 0.1493 0.6195
C14 C 0.3008(2) 0.2543(2) 0.6269(2)
C15 C 0.3604(2) 0.3186(2) 0.5499(2)
H8 H 0.4613 0.3617 0.5860
C16 C 0.2739(2) 0.3207(2) 0.4200(2)
H9 H 0.3177 0.3656 0.3712
C17 C 0.3951(3) 0.2500(3) 0.7668(3)
H10 H 0.4961 0.2987 0.7899
H11 H 0.3766 0.1542 0.7590
H12 H 0.3728 0.2943 0.8406
C18 C -0.11981(19) 0.25342(17) 0.20168(18)
C19 C -0.2518(2) 0.16684(18) 0.08744(19)
H13 H -0.2558 0.0956 0.0154
C20 C -0.3793(2) 0.1847(2) 0.0785(2)
H14 H -0.4670 0.1250 0.0001
C21 C -0.3790(2) 0.2884(2) 0.1826(2)
C22 C -0.2464(2) 0.3759(2) 0.2964(2)
H15 H -0.2424 0.4476 0.3680
C23 C -0.1197(2) 0.3586(2) 0.3057(2)
H16 H -0.0320 0.4190 0.3837
C24 C -0.5184(3) 0.3062(3) 0.1719(3)
H17 H -0.5987 0.2369 0.0856
H18 H -0.5099 0.3982 0.1710
H19 H -0.5352 0.2948 0.2524
C1A C 0.04697(18) 0.02789(17) -0.10322(18)
H1A H 0.0780 0.0467 -0.1713
C2A C -0.00567(18) -0.10780(17) -0.10535(17)
C3A C 0.05235(18) 0.13517(17) 0.00273(17)
C4A C 0.10493(18) 0.28708(17) 0.03271(18)
C5A C 0.1564(2) 0.36484(19) -0.0406(2)
H2A H 0.1601 0.3208 -0.1243
C6A C 0.2022(2) 0.5092(2) 0.0129(2)
H3A H 0.2371 0.5627 -0.0352
C7A C 0.1965(2) 0.5740(2) 0.1365(2)
H4A H 0.2290 0.6712 0.1718
C8A C 0.1434(2) 0.49726(19) 0.2093(2)
H5A H 0.1394 0.5420 0.2925
C9A C 0.09623(18) 0.35244(17) 0.15634(19)
C10A C -0.02554(18) -0.24401(17) -0.21182(18)
C11A C -0.12340(19) -0.25682(17) -0.36217(18)
C12A C -0.0630(2) -0.1930(2) -0.4400(2)
H6A H 0.0380 -0.1500 -0.4045
C13A C -0.1505(2) -0.1925(2) -0.5695(2)
H7A H -0.1070 -0.1493 -0.6195
C14A C -0.3008(2) -0.2543(2) -0.6269(2)
C15A C -0.3604(2) -0.3186(2) -0.5499(2)
H8A H -0.4613 -0.3617 -0.5860
C16A C -0.2739(2) -0.3207(2) -0.4200(2)
H9A H -0.3177 -0.3656 -0.3712
C17A C -0.3951(3) -0.2500(3) -0.7668(3)
H10A H -0.4961 -0.2987 -0.7899
H11A H -0.3766 -0.1542 -0.7590
H12A H -0.3728 -0.2943 -0.8406
C18A C 0.11981(19) -0.25342(17) -0.20168(18)
C19A C 0.2518(2) -0.16684(18) -0.08744(19)
H13A H 0.2558 -0.0956 -0.0154
C20A C 0.3793(2) -0.1847(2) -0.0785(2)
H14A H 0.4670 -0.1250 -0.0001
C21A C 0.3790(2) -0.2884(2) -0.1826(2)
C22A C 0.2464(2) -0.3759(2) -0.2964(2)
H15A H 0.2424 -0.4476 -0.3680
C23A C 0.1197(2) -0.3586(2) -0.3057(2)
H16A H 0.0320 -0.4190 -0.3837
C24A C 0.5184(3) -0.3062(3) -0.1719(3)
H17A H 0.5987 -0.2369 -0.0856
H18A H 0.5099 -0.3982 -0.1710
H19A H 0.5352 -0.2948 -0.2524
H20? H 0.8309 0.1265 0.6120
H21? H 0.2342 -0.1377 0.4792
H22? H 0.2304 -0.0184 0.4164
H23? H 0.2299 -0.1578 0.3275
H25? H 0.4281 0.0494 0.3276
C28? C 0.4153(17) -0.0345(14) 0.482(3)
H26? H 0.7136 0.0002 0.7393
loop_
_geom_bond_atom_site_label_1
_geom_bond_atom_site_label_2
_geom_bond_site_symmetry_1
_geom_bond_site_symmetry_2
C1 H1 1_555 1_555
C2 C1 1_555 1_555
C3 C1 1_555 1_555
C4 C3 1_555 1_555
C5 C4 1_555 1_555
H2 C5 1_555 1_555
C6 C5 1_555 1_555
H3 C6 1_555 1_555
C7 C6 1_555 1_555
H4 C7 1_555 1_555
C8 C7 1_555 1_555
H5 C8 1_555 1_555
C9 C4 1_555 1_555
C10 C2 1_555 1_555
C11 C10 1_555 1_555
C12 C11 1_555 1_555
H6 C12 1_555 1_555
C13 C12 1_555 1_555
H7 C13 1_555 1_555
C14 C13 1_555 1_555
C15 C14 1_555 1_555
H8 C15 1_555 1_555
C16 C11 1_555 1_555
H9 C16 1_555 1_555
C17 C14 1_555 1_555
H10 C17 1_555 1_555
H11 C17 1_555 1_555
H12 C17 1_555 1_555
C18 C10 1_555 1_555
C19 C18 1_555 1_555
H13 C19 1_555 1_555
C20 C19 1_555 1_555
H14 C20 1_555 1_555
C21 C20 1_555 1_555
C22 C21 1_555 1_555
H15 C22 1_555 1_555
C23 C18 1_555 1_555
H16 C23 1_555 1_555
C24 C21 1_555 1_555
H17 C24 1_555 1_555
H18 C24 1_555 1_555
H19 C24 1_555 1_555
C25 C26 1_555 1_555
C26 H24 1_555 1_555
C27 C26 1_555 1_555
C29 C25 1_555 1_555
C1A H1A 1_555 1_555
C2A C3 1_555 1_555
C3A C2 1_555 1_555
C4A C3A 1_555 1_555
C5A C4A 1_555 1_555
H2A C5A 1_555 1_555
C6A C5A 1_555 1_555
H3A C6A 1_555 1_555
C7A C6A 1_555 1_555
H4A C7A 1_555 1_555
C8A C7A 1_555 1_555
H5A C8A 1_555 1_555
C9A C10 1_555 1_555
C10A C9 1_555 1_555
C11A C10A 1_555 1_555
C12A C11A 1_555 1_555
H6A C12A 1_555 1_555
C13A C12A 1_555 1_555
H7A C13A 1_555 1_555
C14A C13A 1_555 1_555
C15A C14A 1_555 1_555
H8A C15A 1_555 1_555
C16A C11A 1_555 1_555
H9A C16A 1_555 1_555
C17A C14A 1_555 1_555
H10A C17A 1_555 1_555
H11A C17A 1_555 1_555
H12A C17A 1_555 1_555
C18A C10A 1_555 1_555
C19A C18A 1_555 1_555
H13A C19A 1_555 1_555
C20A C19A 1_555 1_555
H14A C20A 1_555 1_555
C21A C20A 1_555 1_555
C22A C21A 1_555 1_555
H15A C22A 1_555 1_555
C23A C18A 1_555 1_555
H16A C23A 1_555 1_555
C24A C21A 1_555 1_555
H17A C24A 1_555 1_555
H18A C24A 1_555 1_555
H19A C24A 1_555 1_555
C25A C26A 1_555 1_555
C26A H24A 1_555 1_555
C27A C29 1_555 1_555
C29A C27 1_555 1_555
C8 C9 1_555 1_555
C15 C16 1_555 1_555
C22 C23 1_555 1_555
C1A C2A 1_555 1_555
C1A C3A 1_555 1_555
C2A C10A 1_555 1_555
C4A C9A 1_555 1_555
C8A C9A 1_555 1_555
C15A C16A 1_555 1_555
C22A C23A 1_555 1_555
C25A C29A 1_555 1_555
C26A C27A 1_555 1_555

#END
