
#######################################################################
#
#                 Cambridge Crystallographic Data Centre
#                                CCDC 
#
#######################################################################
#
# If this CIF has been generated from an entry in the Cambridge 
# Structural Database, then it will include bibliographic, chemical, 
# crystal, experimental, refinement or atomic coordinate data resulting 
# from the CCDC's data processing and validation procedures.
#
#######################################################################

data_SERTEP
_chemical_formula_moiety         'C56 H42,C1 H2 Cl2'
_chemical_name_systematic        
'7,7,15,15-Tetra-p-tolyl-7,15-dihydrobenzo[g]benzo[6,7]indeno[1,2-b]fluorene dichloromethane solvate'
_symmetry_cell_setting           monoclinic
_symmetry_space_group_name_H-M   'C 2/c'
_symmetry_Int_Tables_number      15
_space_group_name_Hall           '-C 2yn'
loop_
_symmetry_equiv_pos_site_id
_symmetry_equiv_pos_as_xyz
1 x,y,z
2 1/2+x,1/2+y,z
3 -x,y,1/2-z
4 1/2-x,1/2+y,1/2-z
5 -x,-y,-z
6 1/2-x,1/2-y,-z
7 x,-y,1/2+z
8 1/2+x,1/2-y,1/2+z
_cell_length_a                   28.4006(5)
_cell_length_b                   10.1973(3)
_cell_length_c                   16.7659(4)
_cell_angle_alpha                90
_cell_angle_beta                 113.9880(11)
_cell_angle_gamma                90
_cell_volume                     4436.19
_chemical_melting_point          '426 deg.C'
_cell_formula_units_Z            4
_exptl_crystal_recrystallization_method chloroform/hexanes
loop_
_atom_site_label
_atom_site_type_symbol
_atom_site_fract_x
_atom_site_fract_y
_atom_site_fract_z
Cl1 Cl 0.4963(2) 0.0799(6) 0.3397(4)
Cl2 Cl 0.5571(2) -0.0552(8) 0.3031(4)
C29 C 0.5262(5) 0.0922(18) 0.258(2)
H22 H 0.5469 0.1756 0.2523
Cl1B Cl 0.5037(2) 0.0799(6) 0.1603(4)
Cl2B Cl 0.4429(2) -0.0552(8) 0.1969(4)
C29B C 0.4738(5) 0.0922(18) 0.242(2)
H22B H 0.4531 0.1756 0.2477
C1 C 0.26332(15) 0.2055(4) -0.0676(3)
H1 H 0.2719 0.1761 -0.1125
C2 C 0.29834(15) 0.2782(4) 0.0015(3)
C3 C 0.21527(15) 0.1780(4) -0.0682(3)
C4 C 0.17121(15) 0.1016(4) -0.1378(3)
C5 C 0.12987(16) 0.1142(5) -0.1030(3)
C6 C 0.07884(17) 0.0695(5) -0.1454(4)
H2 H 0.0674 0.0278 -0.1994
C7 C 0.04622(19) 0.0901(6) -0.1037(4)
H3 H 0.0120 0.0634 -0.1310
C8 C 0.06341(17) 0.1508(5) -0.0202(4)
C9 C 0.0304(2) 0.1682(6) 0.0238(5)
H4 H -0.0038 0.1421 -0.0039
C10 C 0.0471(2) 0.2214(6) 0.1047(5)
H5 H 0.0245 0.2321 0.1317
C11 C 0.0982(2) 0.2598(5) 0.1468(4)
H6 H 0.1099 0.2936 0.2031
C12 C 0.13170(19) 0.2490(5) 0.1071(3)
H7 H 0.1655 0.2777 0.1362
C13 C 0.11580(16) 0.1953(4) 0.0231(3)
C14 C 0.35177(15) 0.3205(4) 0.0223(3)
C15 C 0.18852(16) -0.0415(4) -0.1388(3)
C16 C 0.22350(17) -0.0735(5) -0.1742(3)
H8 H 0.2349 -0.0080 -0.2006
C17 C 0.24188(18) -0.1992(5) -0.1716(3)
H9 H 0.2649 -0.2170 -0.1969
C18 C 0.22649(18) -0.2993(5) -0.1316(3)
C19 C 0.1921(2) -0.2689(5) -0.0960(4)
H10 H 0.1811 -0.3345 -0.0691
C20 C 0.17346(19) -0.1421(5) -0.0992(3)
H11 H 0.1503 -0.1246 -0.0741
C21 C 0.15253(15) 0.1687(4) -0.2276(3)
C22 C 0.15075(19) 0.3043(5) -0.2330(3)
H12 H 0.1621 0.3535 -0.1819
C23 C 0.1327(2) 0.3672(6) -0.3115(4)
H13 H 0.1322 0.4584 -0.3127
C24 C 0.11543(19) 0.2994(6) -0.3887(4)
C25 C 0.11651(18) 0.1658(6) -0.3840(4)
H14 H 0.1050 0.1173 -0.4354
C26 C 0.13428(17) 0.1006(5) -0.3050(3)
H15 H 0.1339 0.0094 -0.3042
C27 C 0.2472(2) -0.4359(5) -0.1271(4)
H16 H 0.2322 -0.4922 -0.0979
H17 H 0.2387 -0.4680 -0.1852
H18 H 0.2840 -0.4348 -0.0955
C28 C 0.0967(3) 0.3717(7) -0.4749(4)
H19 H 0.0859 0.3094 -0.5220
H20 H 0.0681 0.4268 -0.4805
H21 H 0.1241 0.4247 -0.4770
C1E C 0.23668(15) 0.2945(4) 0.0676(3)
H1E H 0.2281 0.3239 0.1125
C2E C 0.20166(15) 0.2218(4) -0.0015(3)
C3E C 0.28473(15) 0.3220(4) 0.0682(3)
C4E C 0.32879(15) 0.3984(4) 0.1378(3)
C5E C 0.37013(16) 0.3858(5) 0.1030(3)
C6E C 0.42116(17) 0.4305(5) 0.1454(4)
H2E H 0.4326 0.4722 0.1994
C7E C 0.45378(19) 0.4099(6) 0.1037(4)
H3E H 0.4880 0.4366 0.1310
C8E C 0.43659(17) 0.3492(5) 0.0202(4)
C9E C 0.4696(2) 0.3318(6) -0.0238(5)
H4E H 0.5038 0.3579 0.0039
C10E C 0.4529(2) 0.2786(6) -0.1047(5)
H5E H 0.4755 0.2679 -0.1317
C11E C 0.4018(2) 0.2402(5) -0.1468(4)
H6E H 0.3901 0.2064 -0.2031
C12E C 0.36830(19) 0.2510(5) -0.1071(3)
H7E H 0.3345 0.2223 -0.1362
C13E C 0.38420(16) 0.3047(4) -0.0231(3)
C14E C 0.14823(15) 0.1795(4) -0.0223(3)
C15E C 0.31148(16) 0.5415(4) 0.1388(3)
C16E C 0.27650(17) 0.5735(5) 0.1742(3)
H8E H 0.2651 0.5080 0.2006
C17E C 0.25812(18) 0.6992(5) 0.1716(3)
H9E H 0.2351 0.7170 0.1969
C18E C 0.27351(18) 0.7993(5) 0.1316(3)
C19E C 0.3079(2) 0.7689(5) 0.0960(4)
H10E H 0.3189 0.8345 0.0691
C20E C 0.32654(19) 0.6421(5) 0.0992(3)
H11E H 0.3497 0.6246 0.0741
C21E C 0.34747(15) 0.3313(4) 0.2276(3)
C22E C 0.34925(19) 0.1957(5) 0.2330(3)
H12E H 0.3379 0.1465 0.1819
C23E C 0.3673(2) 0.1328(6) 0.3115(4)
H13E H 0.3678 0.0416 0.3127
C24E C 0.38457(19) 0.2006(6) 0.3887(4)
C25E C 0.38349(18) 0.3342(6) 0.3840(4)
H14E H 0.3950 0.3827 0.4354
C26E C 0.36572(17) 0.3994(5) 0.3050(3)
H15E H 0.3661 0.4906 0.3042
C27E C 0.2528(2) 0.9359(5) 0.1271(4)
H16E H 0.2678 0.9922 0.0979
H17E H 0.2613 0.9680 0.1852
H18E H 0.2160 0.9348 0.0955
C28E C 0.4033(3) 0.1283(7) 0.4749(4)
H19E H 0.4141 0.1906 0.5220
H20E H 0.4319 0.0732 0.4805
H21E H 0.3759 0.0753 0.4770
loop_
_geom_bond_atom_site_label_1
_geom_bond_atom_site_label_2
_geom_bond_site_symmetry_1
_geom_bond_site_symmetry_2
C1 H1 1_555 1_555
C2 C1 1_555 1_555
C3 C1 1_555 1_555
C4 C3 1_555 1_555
C5 C4 1_555 1_555
C6 C5 1_555 1_555
H2 C6 1_555 1_555
C7 C6 1_555 1_555
H3 C7 1_555 1_555
C8 C7 1_555 1_555
C9 C8 1_555 1_555
H4 C9 1_555 1_555
C10 C9 1_555 1_555
H5 C10 1_555 1_555
C11 C10 1_555 1_555
H6 C11 1_555 1_555
C12 C11 1_555 1_555
H7 C12 1_555 1_555
C13 C8 1_555 1_555
C14 C2 1_555 1_555
C15 C4 1_555 1_555
C16 C15 1_555 1_555
H8 C16 1_555 1_555
C17 C16 1_555 1_555
H9 C17 1_555 1_555
C18 C17 1_555 1_555
C19 C18 1_555 1_555
H10 C19 1_555 1_555
C20 C15 1_555 1_555
H11 C20 1_555 1_555
C21 C4 1_555 1_555
C22 C21 1_555 1_555
H12 C22 1_555 1_555
C23 C22 1_555 1_555
H13 C23 1_555 1_555
C24 C23 1_555 1_555
C25 C24 1_555 1_555
H14 C25 1_555 1_555
C26 C21 1_555 1_555
H15 C26 1_555 1_555
C27 C18 1_555 1_555
H16 C27 1_555 1_555
H17 C27 1_555 1_555
H18 C27 1_555 1_555
C28 C24 1_555 1_555
H19 C28 1_555 1_555
H20 C28 1_555 1_555
H21 C28 1_555 1_555
Cl1 C29 1_555 1_555
Cl2 C29 1_555 1_555
C29 H22 1_555 1_555
C1E H1E 1_555 1_555
C2E C3 1_555 1_555
C3E C2 1_555 1_555
C4E C3E 1_555 1_555
C5E C14 1_555 1_555
C6E C5E 1_555 1_555
H2E C6E 1_555 1_555
C7E C6E 1_555 1_555
H3E C7E 1_555 1_555
C8E C7E 1_555 1_555
C9E C8E 1_555 1_555
H4E C9E 1_555 1_555
C10E C9E 1_555 1_555
H5E C10E 1_555 1_555
C11E C10E 1_555 1_555
H6E C11E 1_555 1_555
C12E C11E 1_555 1_555
H7E C12E 1_555 1_555
C13E C14 1_555 1_555
C14E C5 1_555 1_555
C15E C4E 1_555 1_555
C16E C15E 1_555 1_555
H8E C16E 1_555 1_555
C17E C16E 1_555 1_555
H9E C17E 1_555 1_555
C18E C17E 1_555 1_555
C19E C18E 1_555 1_555
H10E C19E 1_555 1_555
C20E C15E 1_555 1_555
H11E C20E 1_555 1_555
C21E C4E 1_555 1_555
C22E C21E 1_555 1_555
H12E C22E 1_555 1_555
C23E C22E 1_555 1_555
H13E C23E 1_555 1_555
C24E C23E 1_555 1_555
C25E C24E 1_555 1_555
H14E C25E 1_555 1_555
C26E C21E 1_555 1_555
H15E C26E 1_555 1_555
C27E C18E 1_555 1_555
H16E C27E 1_555 1_555
H17E C27E 1_555 1_555
H18E C27E 1_555 1_555
C28E C24E 1_555 1_555
H19E C28E 1_555 1_555
H20E C28E 1_555 1_555
H21E C28E 1_555 1_555
Cl1B C29 1_555 1_555
Cl2B C29B 1_555 1_555
C29B Cl1 1_555 1_555
H22B C29B 1_555 1_555
C12 C13 1_555 1_555
C13 C14E 1_555 1_555
C19 C20 1_555 1_555
C25 C26 1_555 1_555
C29 C29B 1_555 1_555
C1E C2E 1_555 1_555
C1E C3E 1_555 1_555
C2E C14E 1_555 1_555
C4E C5E 1_555 1_555
C8E C13E 1_555 1_555
C12E C13E 1_555 1_555
C19E C20E 1_555 1_555
C25E C26E 1_555 1_555
Cl1B C29B 1_555 1_555

#END
