
#######################################################################
#
#                 Cambridge Crystallographic Data Centre
#                                CCDC 
#
#######################################################################
#
# If this CIF has been generated from an entry in the Cambridge 
# Structural Database, then it will include bibliographic, chemical, 
# crystal, experimental, refinement or atomic coordinate data resulting 
# from the CCDC's data processing and validation procedures.
#
#######################################################################

data_SERTUF
_chemical_formula_moiety         'C46 H36 S1,C4 H8 O1'
_chemical_name_systematic        
"10,10,11,11-tetra-p-tolyl-10,11-dihydrodiindeno[1,2-b:2',1'-d]thiophene tetrahydrofuran solvate"
_symmetry_cell_setting           monoclinic
_symmetry_space_group_name_H-M   'P 21/n'
_symmetry_Int_Tables_number      14
_space_group_name_Hall           '-P 2yn'
loop_
_symmetry_equiv_pos_site_id
_symmetry_equiv_pos_as_xyz
1 x,y,z
2 1/2-x,1/2+y,1/2-z
3 -x,-y,-z
4 1/2+x,1/2-y,1/2+z
_cell_length_a                   15.8840(5)
_cell_length_b                   10.9150(3)
_cell_length_c                   23.3469(7)
_cell_angle_alpha                90
_cell_angle_beta                 109.8740(15)
_cell_angle_gamma                90
_cell_volume                     3806.67
_exptl_crystal_colour            yellow
_chemical_melting_point          '302 deg.C'
_cell_formula_units_Z            4
loop_
_atom_site_label
_atom_site_type_symbol
_atom_site_fract_x
_atom_site_fract_y
_atom_site_fract_z
S1 S 0.80703(7) -0.10451(7) 0.13288(5)
C1 C 0.8882(3) 0.0033(3) 0.16538(17)
C2 C 0.9677(3) 0.0057(3) 0.21989(17)
C3 C 1.0056(3) -0.0790(4) 0.2656(2)
H1 H 0.9811 -0.1568 0.2639
C4 C 1.0802(4) -0.0453(5) 0.3136(2)
H2 H 1.1057 -0.1011 0.3449
C5 C 1.1179(3) 0.0686(5) 0.3164(2)
H3 H 1.1683 0.0893 0.3493
C6 C 1.0806(3) 0.1540(4) 0.26994(18)
H4 H 1.1062 0.2312 0.2716
C7 C 1.0061(3) 0.1223(3) 0.22191(16)
C8 C 0.9526(2) 0.1999(3) 0.16654(14)
C9 C 0.8757(2) 0.1122(2) 0.13370(15)
C10 C 0.7967(2) 0.1097(2) 0.08165(15)
C11 C 0.7434(2) 0.1928(2) 0.02898(14)
C12 C 0.6667(2) 0.1054(3) -0.00709(16)
C13 C 0.5962(3) 0.1263(3) -0.06038(18)
H5 H 0.5906 0.2009 -0.0806
C14 C 0.5337(3) 0.0334(5) -0.0833(2)
H6 H 0.4861 0.0471 -0.1192
C15 C 0.5403(3) -0.0777(4) -0.0546(3)
H7 H 0.4974 -0.1379 -0.0708
C16 C 0.6103(3) -0.0996(3) -0.0017(2)
H8 H 0.6155 -0.1751 0.0177
C17 C 0.6740(3) -0.0078(3) 0.02291(18)
C18 C 0.7544(2) -0.0029(3) 0.07640(17)
C19 C 0.9157(2) 0.3150(3) 0.18794(14)
C20 C 0.8890(2) 0.3073(3) 0.23877(15)
H9 H 0.8958 0.2336 0.2598
C21 C 0.8526(2) 0.4065(3) 0.25868(15)
H10 H 0.8356 0.3987 0.2929
C22 C 0.8411(2) 0.5183(3) 0.22817(16)
C23 C 0.8669(2) 0.5255(3) 0.17827(16)
H11 H 0.8599 0.5992 0.1572
C24 C 0.9033(2) 0.4261(3) 0.15823(15)
H12 H 0.9198 0.4344 0.1238
C25 C 0.8022(3) 0.6259(3) 0.2510(2)
H13 H 0.7998 0.6957 0.2255
H14 H 0.8391 0.6445 0.2921
H15 H 0.7428 0.6061 0.2501
C26 C 1.0152(2) 0.2268(3) 0.12997(15)
C27 C 1.0768(2) 0.3214(3) 0.14590(17)
H16 H 1.0772 0.3744 0.1772
C28 C 1.1380(3) 0.3386(3) 0.11602(18)
H17 H 1.1789 0.4026 0.1280
C29 C 1.1398(3) 0.2635(3) 0.06907(18)
C30 C 1.0782(3) 0.1688(3) 0.05362(17)
H18 H 1.0781 0.1159 0.0224
C31 C 1.0168(2) 0.1498(3) 0.08298(16)
H19 H 0.9763 0.0853 0.0712
C32 C 1.2066(3) 0.2822(4) 0.0367(2)
H20 H 1.2433 0.3522 0.0536
H21 H 1.1753 0.2955 -0.0059
H22 H 1.2437 0.2108 0.0419
C33 C 0.7006(2) 0.3033(2) 0.04905(14)
C34 C 0.6658(2) 0.4012(3) 0.01033(15)
H23 H 0.6704 0.4017 -0.0283
C35 C 0.6244(3) 0.4979(3) 0.02819(17)
H24 H 0.6029 0.5630 0.0015
C36 C 0.6138(2) 0.5010(3) 0.08433(16)
C37 C 0.6467(2) 0.4011(3) 0.12217(16)
H25 H 0.6401 0.3992 0.1602
C38 C 0.6887(2) 0.3047(3) 0.10506(15)
H26 H 0.7095 0.2393 0.1316
C39 C 0.5718(3) 0.6094(3) 0.1042(2)
H27 H 0.5533 0.6685 0.0719
H28 H 0.6146 0.6461 0.1396
H29 H 0.5206 0.5827 0.1140
C40 C 0.8024(2) 0.2269(3) -0.00938(14)
C41 C 0.8456(2) 0.3391(3) -0.00362(16)
H30 H 0.8364 0.3985 0.0222
C42 C 0.9025(3) 0.3633(3) -0.03616(18)
H31 H 0.9299 0.4397 -0.0321
C43 C 0.9197(3) 0.2785(4) -0.07401(17)
C44 C 0.8754(3) 0.1680(4) -0.08028(18)
H32 H 0.8843 0.1092 -0.1065
C45 C 0.8180(3) 0.1423(3) -0.04840(16)
H33 H 0.7895 0.0666 -0.0535
C46 C 0.9857(3) 0.3037(5) -0.1063(2)
H34 H 1.0089 0.3853 -0.0970
H35 H 0.9561 0.2959 -0.1495
H36 H 1.0340 0.2459 -0.0930
O1 O 1.2550(5) 0.0320(9) 0.2189(4)
C47 C 1.3177(8) -0.0382(9) 0.2060(5)
H37 H 1.2899 -0.0927 0.1720
H38 H 1.3520 -0.0865 0.2410
C48 C 1.3712(12) 0.0483(17) 0.1914(6)
H39 H 1.4290 0.0140 0.1947
H40 H 1.3426 0.0793 0.1504
C49 C 1.3796(9) 0.1357(11) 0.2325(7)
H41 H 1.3868 0.2146 0.2156
H42 H 1.4321 0.1205 0.2680
C50 C 1.3003(6) 0.1372(10) 0.2500(4)
H43 H 1.3154 0.1295 0.2937
H44 H 1.2654 0.2111 0.2361
loop_
_geom_bond_atom_site_label_1
_geom_bond_atom_site_label_2
_geom_bond_site_symmetry_1
_geom_bond_site_symmetry_2
S1 C1 1_555 1_555
C1 C2 1_555 1_555
C2 C3 1_555 1_555
C3 H1 1_555 1_555
C4 C3 1_555 1_555
H2 C4 1_555 1_555
C5 C4 1_555 1_555
H3 C5 1_555 1_555
C6 C5 1_555 1_555
H4 C6 1_555 1_555
C7 C2 1_555 1_555
C8 C7 1_555 1_555
C9 C1 1_555 1_555
C10 C9 1_555 1_555
C11 C10 1_555 1_555
C12 C11 1_555 1_555
C13 C12 1_555 1_555
H5 C13 1_555 1_555
C14 C13 1_555 1_555
H6 C14 1_555 1_555
C15 C14 1_555 1_555
H7 C15 1_555 1_555
C16 C15 1_555 1_555
H8 C16 1_555 1_555
C17 C12 1_555 1_555
C18 S1 1_555 1_555
C19 C8 1_555 1_555
C20 C19 1_555 1_555
H9 C20 1_555 1_555
C21 C20 1_555 1_555
H10 C21 1_555 1_555
C22 C21 1_555 1_555
C23 C22 1_555 1_555
H11 C23 1_555 1_555
C24 C19 1_555 1_555
H12 C24 1_555 1_555
C25 C22 1_555 1_555
H13 C25 1_555 1_555
H14 C25 1_555 1_555
H15 C25 1_555 1_555
C26 C8 1_555 1_555
C27 C26 1_555 1_555
H16 C27 1_555 1_555
C28 C27 1_555 1_555
H17 C28 1_555 1_555
C29 C28 1_555 1_555
C30 C29 1_555 1_555
H18 C30 1_555 1_555
C31 C26 1_555 1_555
H19 C31 1_555 1_555
C32 C29 1_555 1_555
H20 C32 1_555 1_555
H21 C32 1_555 1_555
H22 C32 1_555 1_555
C33 C11 1_555 1_555
C34 C33 1_555 1_555
H23 C34 1_555 1_555
C35 C34 1_555 1_555
H24 C35 1_555 1_555
C36 C35 1_555 1_555
C37 C36 1_555 1_555
H25 C37 1_555 1_555
C38 C33 1_555 1_555
H26 C38 1_555 1_555
C39 C36 1_555 1_555
H27 C39 1_555 1_555
H28 C39 1_555 1_555
H29 C39 1_555 1_555
C40 C11 1_555 1_555
C41 C40 1_555 1_555
H30 C41 1_555 1_555
C42 C41 1_555 1_555
H31 C42 1_555 1_555
C43 C42 1_555 1_555
C44 C43 1_555 1_555
H32 C44 1_555 1_555
C45 C40 1_555 1_555
H33 C45 1_555 1_555
C46 C43 1_555 1_555
H34 C46 1_555 1_555
H35 C46 1_555 1_555
H36 C46 1_555 1_555
O1 C47 1_555 1_555
C47 H37 1_555 1_555
H38 C47 1_555 1_555
C48 C47 1_555 1_555
H39 C48 1_555 1_555
H40 C48 1_555 1_555
C49 C48 1_555 1_555
H41 C49 1_555 1_555
H42 C49 1_555 1_555
C50 O1 1_555 1_555
H43 C50 1_555 1_555
H44 C50 1_555 1_555
C6 C7 1_555 1_555
C8 C9 1_555 1_555
C10 C18 1_555 1_555
C16 C17 1_555 1_555
C17 C18 1_555 1_555
C23 C24 1_555 1_555
C30 C31 1_555 1_555
C37 C38 1_555 1_555
C44 C45 1_555 1_555
C49 C50 1_555 1_555

#END
