
#######################################################################
#
#                 Cambridge Crystallographic Data Centre
#                                CCDC 
#
#######################################################################
#
# If this CIF has been generated from an entry in the Cambridge 
# Structural Database, then it will include bibliographic, chemical, 
# crystal, experimental, refinement or atomic coordinate data resulting 
# from the CCDC's data processing and validation procedures.
#
#######################################################################

data_SERTOZ
_chemical_formula_moiety         'C69 H54,2(C1 H1 Cl3)'
_chemical_name_systematic        
"6,6,12,12,15,15-hexa-p-tolyl-12,15-dihydro-6H-diindeno[1,2-b:2',1'-h]fluorene chloroform solvate"
_symmetry_cell_setting           monoclinic
_symmetry_space_group_name_H-M   'P 21/n'
_symmetry_Int_Tables_number      14
_space_group_name_Hall           '-P 2yn'
loop_
_symmetry_equiv_pos_site_id
_symmetry_equiv_pos_as_xyz
1 x,y,z
2 1/2-x,1/2+y,1/2-z
3 -x,-y,-z
4 1/2+x,1/2-y,1/2+z
_cell_length_a                   9.9995(2)
_cell_length_b                   21.0286(3)
_cell_length_c                   28.2579(5)
_cell_angle_alpha                90
_cell_angle_beta                 97.3210(9)
_cell_angle_gamma                90
_cell_volume                     5893.5
_chemical_melting_point          '406 deg.C'
_cell_formula_units_Z            4
loop_
_atom_site_label
_atom_site_type_symbol
_atom_site_fract_x
_atom_site_fract_y
_atom_site_fract_z
C1 C 0.0755(4) 0.03505(16) 0.81209(13)
C2 C 0.0389(3) 0.02478(16) 0.75813(12)
C3 C -0.0299(4) 0.06456(17) 0.72484(13)
H1 H -0.0637 0.1034 0.7338
C4 C -0.0477(3) 0.04494(16) 0.67708(13)
C5 C -0.1112(3) 0.07805(17) 0.63441(13)
C6 C -0.1709(4) 0.13761(18) 0.62916(14)
H2 H -0.1739 0.1638 0.6555
C7 C -0.2253(4) 0.15737(19) 0.58475(15)
H3 H -0.2669 0.1969 0.5810
C8 C -0.2187(4) 0.1189(2) 0.54520(15)
H4 H -0.2562 0.1331 0.5152
C9 C -0.1572(4) 0.05979(19) 0.54964(14)
H5 H -0.1530 0.0343 0.5230
C10 C -0.1020(4) 0.03930(17) 0.59473(13)
C11 C -0.0259(4) -0.02224(17) 0.60911(13)
C12 C 0.0015(3) -0.01354(17) 0.66355(12)
C13 C 0.0680(4) -0.05399(17) 0.69702(12)
H6 H 0.0994 -0.0933 0.6882
C14 C 0.0867(3) -0.03432(16) 0.74441(13)
C15 C 0.1584(4) -0.06567(17) 0.78662(13)
C16 C 0.2215(4) -0.12475(17) 0.79125(13)
H7 H 0.2216 -0.1518 0.7652
C17 C 0.2837(4) -0.14181(17) 0.83577(13)
C18 C 0.3542(4) -0.20536(17) 0.85039(13)
C19 C 0.3939(4) -0.19428(18) 0.90377(13)
C20 C 0.4575(4) -0.2359(2) 0.93733(15)
H8 H 0.4828 -0.2763 0.9285
C21 C 0.4826(5) -0.2160(2) 0.98406(16)
H9 H 0.5254 -0.2434 1.0070
C22 C 0.4458(5) -0.1566(2) 0.99748(17)
H10 H 0.4643 -0.1442 1.0292
C23 C 0.3814(5) -0.1147(2) 0.96429(15)
H11 H 0.3564 -0.0744 0.9735
C24 C 0.3549(4) -0.13390(18) 0.91717(13)
C25 C 0.2848(4) -0.10177(17) 0.87503(13)
C26 C 0.2214(4) -0.04259(17) 0.87065(13)
H12 H 0.2226 -0.0154 0.8967
C27 C 0.1563(4) -0.02558(17) 0.82598(12)
C28 C 0.1663(4) 0.09327(16) 0.82408(13)
C29 C 0.1811(5) 0.1207(2) 0.86906(15)
H13 H 0.1311 0.1050 0.8921
C30 C 0.2687(5) 0.1709(2) 0.88030(17)
H14 H 0.2745 0.1891 0.9105
C31 C 0.3478(5) 0.1945(2) 0.84775(18)
C32 C 0.3340(5) 0.1670(2) 0.80322(17)
H15 H 0.3858 0.1821 0.7806
C33 C 0.2447(4) 0.11733(19) 0.79123(15)
H16 H 0.2374 0.1000 0.7607
C34 C 0.4479(6) 0.2477(3) 0.8608(3)
H17 H 0.4434 0.2608 0.8931
H18 H 0.4265 0.2831 0.8397
H19 H 0.5373 0.2329 0.8578
C35 C -0.0560(4) 0.03723(17) 0.83542(12)
C36 C -0.1111(4) -0.01695(19) 0.85265(14)
H20 H -0.0650 -0.0553 0.8519
C37 C -0.2323(4) -0.0158(2) 0.87085(15)
H21 H -0.2669 -0.0535 0.8815
C38 C -0.3039(4) 0.0402(2) 0.87373(15)
C39 C -0.2505(5) 0.0944(2) 0.85613(18)
H22 H -0.2969 0.1326 0.8571
C40 C -0.1295(4) 0.0935(2) 0.83696(16)
H23 H -0.0970 0.1308 0.8250
C41 C -0.4353(5) 0.0408(3) 0.8943(2)
H24 H -0.4706 0.0833 0.8932
H25 H -0.4208 0.0264 0.9267
H26 H -0.4984 0.0132 0.8759
C42 C 0.1130(4) -0.02473(18) 0.59042(13)
C43 C 0.1756(4) 0.0291(2) 0.57633(14)
H27 H 0.1295 0.0677 0.5743
C44 C 0.3079(4) 0.0265(2) 0.56507(16)
H28 H 0.3485 0.0634 0.5557
C45 C 0.3786(5) -0.0294(3) 0.56757(16)
C46 C 0.3157(5) -0.0829(2) 0.58086(15)
H29 H 0.3621 -0.1213 0.5826
C47 C 0.1841(4) -0.0816(2) 0.59181(14)
H30 H 0.1434 -0.1190 0.6001
C48 C 0.5256(5) -0.0310(3) 0.5590(2)
H31 H 0.5527 0.0107 0.5500
H32 H 0.5363 -0.0605 0.5338
H33 H 0.5806 -0.0441 0.5877
C49 C -0.1123(4) -0.08069(18) 0.59331(14)
C50 C -0.1213(5) -0.1018(2) 0.54649(15)
H34 H -0.0724 -0.0814 0.5251
C51 C -0.2025(5) -0.1531(2) 0.53138(19)
H35 H -0.2078 -0.1664 0.4998
C52 C -0.2753(6) -0.1848(2) 0.5619(2)
C53 C -0.2674(5) -0.1634(2) 0.6079(2)
H36 H -0.3176 -0.1836 0.6290
C54 C -0.1860(4) -0.1123(2) 0.62364(16)
H37 H -0.1812 -0.0993 0.6553
C55 C -0.3661(8) -0.2399(3) 0.5434(3)
H38 H -0.4092 -0.2571 0.5691
H39 H -0.3129 -0.2723 0.5309
H40 H -0.4334 -0.2250 0.5187
C56 C 0.2542(4) -0.26136(18) 0.84389(13)
C57 C 0.1194(4) -0.25222(19) 0.84685(16)
H41 H 0.0878 -0.2113 0.8510
C58 C 0.0304(5) -0.3023(2) 0.84388(19)
H42 H -0.0599 -0.2944 0.8464
C59 C 0.0712(4) -0.3637(2) 0.83723(16)
C60 C 0.2068(4) -0.37299(19) 0.83475(15)
H43 H 0.2381 -0.4140 0.8307
C61 C 0.2965(4) -0.32338(18) 0.83811(14)
H44 H 0.3873 -0.3315 0.8365
C62 C -0.0281(5) -0.4180(2) 0.8336(2)
H45 H 0.0180 -0.4570 0.8286
H46 H -0.0970 -0.4108 0.8072
H47 H -0.0684 -0.4209 0.8626
C63 C 0.4770(4) -0.21393(17) 0.82325(14)
C64 C 0.4615(4) -0.23841(19) 0.77701(14)
H48 H 0.3767 -0.2516 0.7630
C65 C 0.5712(5) -0.2434(2) 0.75157(16)
H49 H 0.5589 -0.2606 0.7210
C66 C 0.6984(5) -0.2233(2) 0.77070(17)
C67 C 0.7125(4) -0.1985(2) 0.81587(17)
H50 H 0.7969 -0.1845 0.8295
C68 C 0.6043(4) -0.19384(19) 0.84189(15)
H51 H 0.6177 -0.1768 0.8725
C69 C 0.8172(6) -0.2286(3) 0.7421(2)
H52 H 0.8969 -0.2123 0.7606
H53 H 0.7986 -0.2045 0.7132
H54 H 0.8308 -0.2724 0.7344
Cl1 Cl -0.2287(2) -0.1005(2) 0.98921(10)
Cl2 Cl -0.0237(3) -0.15672(11) 0.94072(7)
Cl3 Cl 0.0477(2) -0.08467(9) 1.02535(6)
C70 C -0.0690(6) -0.0932(3) 0.9743(2)
H55 H -0.0659 -0.0546 0.9551
Cl4 Cl 0.46786(14) -0.00586(8) 0.77410(6)
Cl5 Cl 0.44900(16) -0.09044(7) 0.69418(5)
Cl6 Cl 0.70846(13) -0.04852(8) 0.73923(5)
C71 C 0.5457(5) -0.0687(2) 0.74777(17)
H56 H 0.5500 -0.1051 0.7695
loop_
_geom_bond_atom_site_label_1
_geom_bond_atom_site_label_2
_geom_bond_site_symmetry_1
_geom_bond_site_symmetry_2
C1 C2 1_555 1_555
C2 C3 1_555 1_555
C3 H1 1_555 1_555
C4 C3 1_555 1_555
C5 C4 1_555 1_555
C6 C5 1_555 1_555
H2 C6 1_555 1_555
C7 C6 1_555 1_555
H3 C7 1_555 1_555
C8 C7 1_555 1_555
H4 C8 1_555 1_555
C9 C8 1_555 1_555
H5 C9 1_555 1_555
C10 C5 1_555 1_555
C11 C10 1_555 1_555
C12 C4 1_555 1_555
C13 C12 1_555 1_555
H6 C13 1_555 1_555
C14 C2 1_555 1_555
C15 C14 1_555 1_555
C16 C15 1_555 1_555
H7 C16 1_555 1_555
C17 C16 1_555 1_555
C18 C17 1_555 1_555
C19 C18 1_555 1_555
C20 C19 1_555 1_555
H8 C20 1_555 1_555
C21 C20 1_555 1_555
H9 C21 1_555 1_555
C22 C21 1_555 1_555
H10 C22 1_555 1_555
C23 C22 1_555 1_555
H11 C23 1_555 1_555
C24 C19 1_555 1_555
C25 C17 1_555 1_555
C26 C25 1_555 1_555
H12 C26 1_555 1_555
C27 C1 1_555 1_555
C28 C1 1_555 1_555
C29 C28 1_555 1_555
H13 C29 1_555 1_555
C30 C29 1_555 1_555
H14 C30 1_555 1_555
C31 C30 1_555 1_555
C32 C31 1_555 1_555
H15 C32 1_555 1_555
C33 C28 1_555 1_555
H16 C33 1_555 1_555
C34 C31 1_555 1_555
H17 C34 1_555 1_555
H18 C34 1_555 1_555
H19 C34 1_555 1_555
C35 C1 1_555 1_555
C36 C35 1_555 1_555
H20 C36 1_555 1_555
C37 C36 1_555 1_555
H21 C37 1_555 1_555
C38 C37 1_555 1_555
C39 C38 1_555 1_555
H22 C39 1_555 1_555
C40 C35 1_555 1_555
H23 C40 1_555 1_555
C41 C38 1_555 1_555
H24 C41 1_555 1_555
H25 C41 1_555 1_555
H26 C41 1_555 1_555
C42 C11 1_555 1_555
C43 C42 1_555 1_555
H27 C43 1_555 1_555
C44 C43 1_555 1_555
H28 C44 1_555 1_555
C45 C44 1_555 1_555
C46 C45 1_555 1_555
H29 C46 1_555 1_555
C47 C42 1_555 1_555
H30 C47 1_555 1_555
C48 C45 1_555 1_555
H31 C48 1_555 1_555
H32 C48 1_555 1_555
H33 C48 1_555 1_555
C49 C11 1_555 1_555
C50 C49 1_555 1_555
H34 C50 1_555 1_555
C51 C50 1_555 1_555
H35 C51 1_555 1_555
C52 C51 1_555 1_555
C53 C52 1_555 1_555
H36 C53 1_555 1_555
C54 C49 1_555 1_555
H37 C54 1_555 1_555
C55 C52 1_555 1_555
H38 C55 1_555 1_555
H39 C55 1_555 1_555
H40 C55 1_555 1_555
C56 C18 1_555 1_555
C57 C56 1_555 1_555
H41 C57 1_555 1_555
C58 C57 1_555 1_555
H42 C58 1_555 1_555
C59 C58 1_555 1_555
C60 C59 1_555 1_555
H43 C60 1_555 1_555
C61 C56 1_555 1_555
H44 C61 1_555 1_555
C62 C59 1_555 1_555
H45 C62 1_555 1_555
H46 C62 1_555 1_555
H47 C62 1_555 1_555
C63 C18 1_555 1_555
C64 C63 1_555 1_555
H48 C64 1_555 1_555
C65 C64 1_555 1_555
H49 C65 1_555 1_555
C66 C65 1_555 1_555
C67 C66 1_555 1_555
H50 C67 1_555 1_555
C68 C63 1_555 1_555
H51 C68 1_555 1_555
C69 C66 1_555 1_555
H52 C69 1_555 1_555
H53 C69 1_555 1_555
H54 C69 1_555 1_555
Cl1 C70 1_555 1_555
Cl2 C70 1_555 1_555
Cl3 C70 1_555 1_555
C70 H55 1_555 1_555
Cl4 C71 1_555 1_555
Cl5 C71 1_555 1_555
Cl6 C71 1_555 1_555
C71 H56 1_555 1_555
C9 C10 1_555 1_555
C11 C12 1_555 1_555
C13 C14 1_555 1_555
C15 C27 1_555 1_555
C23 C24 1_555 1_555
C24 C25 1_555 1_555
C26 C27 1_555 1_555
C32 C33 1_555 1_555
C39 C40 1_555 1_555
C46 C47 1_555 1_555
C53 C54 1_555 1_555
C60 C61 1_555 1_555
C67 C68 1_555 1_555

#END
