
#######################################################################
#
#                 Cambridge Crystallographic Data Centre
#                                CCDC 
#
#######################################################################
#
# If this CIF has been generated from an entry in the Cambridge 
# Structural Database, then it will include bibliographic, chemical, 
# crystal, experimental, refinement or atomic coordinate data resulting 
# from the CCDC's data processing and validation procedures.
#
#######################################################################

data_SERVOB
_chemical_formula_moiety         'C44 H34 S2,2(C1 H2 Cl2)'
_chemical_name_systematic        
"4,4,6,6-tetra-p-tolyl-4,6-dihydrothieno[3',2':6,7]-s-indaceno[1,2-b]thiophene dichloromethane solvate"
_symmetry_cell_setting           triclinic
_symmetry_space_group_name_H-M   'P -1'
_symmetry_Int_Tables_number      2
_space_group_name_Hall           '-P 1'
loop_
_symmetry_equiv_pos_site_id
_symmetry_equiv_pos_as_xyz
1 x,y,z
2 -x,-y,-z
_cell_length_a                   10.3765(2)
_cell_length_b                   10.4444(2)
_cell_length_c                   10.7639(2)
_cell_angle_alpha                107.4040(10)
_cell_angle_beta                 109.7960(10)
_cell_angle_gamma                99.0340(10)
_cell_volume                     1003.08
_chemical_melting_point          '424 deg.C'
_cell_formula_units_Z            1
loop_
_atom_site_label
_atom_site_type_symbol
_atom_site_fract_x
_atom_site_fract_y
_atom_site_fract_z
S1 S 0.55977(6) 0.09889(5) 0.32005(6)
C1 C 0.39303(19) 0.52742(19) 0.5500(2)
H1 H 0.3231 0.5462 0.5826
C2 C 0.50344(19) 0.36438(19) 0.44257(19)
C3 C 0.39719(19) 0.39109(19) 0.4925(2)
C4 C 0.29416(19) 0.25361(18) 0.4685(2)
C5 C 0.3591(2) 0.14743(19) 0.3990(2)
C6 C 0.3321(2) -0.0006(2) 0.3485(2)
H2 H 0.2558 -0.0624 0.3467
C7 C 0.4324(3) -0.0399(2) 0.3030(2)
H3 H 0.4321 -0.1327 0.2663
C8 C 0.4772(2) 0.21340(19) 0.3884(2)
C9 C 0.14305(19) 0.24444(19) 0.3700(2)
C10 C 0.0554(2) 0.3052(2) 0.4274(2)
H4 H 0.0862 0.3454 0.5259
C11 C -0.0769(2) 0.3067(3) 0.3397(3)
H5 H -0.1332 0.3482 0.3808
C12 C -0.1277(2) 0.2482(3) 0.1927(3)
C13 C -0.0408(3) 0.1867(3) 0.1358(3)
H6 H -0.0721 0.1460 0.0373
C14 C 0.0924(2) 0.1844(3) 0.2232(2)
H7 H 0.1481 0.1418 0.1820
C15 C -0.2714(3) 0.2528(4) 0.0992(4)
H8 H -0.2891 0.2073 0.0008
H9 H -0.2718 0.3485 0.1184
H10 H -0.3446 0.2055 0.1190
C16 C 0.29671(19) 0.23848(19) 0.6070(2)
C17 C 0.2024(2) 0.1212(2) 0.5979(2)
H11 H 0.1380 0.0559 0.5086
C18 C 0.2031(2) 0.1003(2) 0.7190(2)
H12 H 0.1396 0.0211 0.7098
C19 C 0.2969(3) 0.1957(2) 0.8539(2)
C20 C 0.3911(3) 0.3107(2) 0.8628(2)
H13 H 0.4565 0.3749 0.9522
C21 C 0.3909(2) 0.3331(2) 0.7418(2)
H14 H 0.4547 0.4125 0.7515
C22 C 0.2964(4) 0.1747(4) 0.9867(3)
H15 H 0.3686 0.2505 1.0695
H16 H 0.3160 0.0877 0.9860
H17 H 0.2044 0.1726 0.9889
S1A S 0.44023(6) 0.90111(5) 0.67995(6)
C1A C 0.60697(19) 0.47258(19) 0.4500(2)
H1A H 0.6769 0.4538 0.4174
C2A C 0.49656(19) 0.63562(19) 0.55743(19)
C3A C 0.60281(19) 0.60891(19) 0.5075(2)
C4A C 0.70584(19) 0.74639(18) 0.5315(2)
C5A C 0.6409(2) 0.85257(19) 0.6010(2)
C6A C 0.6679(2) 1.0006(2) 0.6515(2)
H2A H 0.7442 1.0624 0.6533
C7A C 0.5676(3) 1.0399(2) 0.6970(2)
H3A H 0.5679 1.1327 0.7337
C8A C 0.5228(2) 0.78660(19) 0.6116(2)
C9A C 0.85695(19) 0.75556(19) 0.6300(2)
C10A C 0.9446(2) 0.6948(2) 0.5726(2)
H4A H 0.9138 0.6546 0.4741
C11A C 1.0769(2) 0.6933(3) 0.6603(3)
H5A H 1.1332 0.6518 0.6192
C12A C 1.1277(2) 0.7518(3) 0.8073(3)
C13A C 1.0408(3) 0.8133(3) 0.8642(3)
H6A H 1.0721 0.8540 0.9627
C14A C 0.9076(2) 0.8156(3) 0.7768(2)
H7A H 0.8519 0.8582 0.8180
C15A C 1.2714(3) 0.7472(4) 0.9008(4)
H8A H 1.2891 0.7927 0.9992
H9A H 1.2718 0.6515 0.8816
H10A H 1.3446 0.7945 0.8810
C16A C 0.70329(19) 0.76152(19) 0.3930(2)
C17A C 0.7976(2) 0.8788(2) 0.4021(2)
H11A H 0.8620 0.9441 0.4914
C18A C 0.7969(2) 0.8997(2) 0.2810(2)
H12A H 0.8604 0.9789 0.2902
C19A C 0.7031(3) 0.8043(2) 0.1461(2)
C20A C 0.6089(3) 0.6893(2) 0.1372(2)
H13A H 0.5435 0.6251 0.0478
C21A C 0.6091(2) 0.6669(2) 0.2582(2)
H14A H 0.5453 0.5875 0.2485
C22A C 0.7036(4) 0.8253(4) 0.0133(3)
H15A H 0.6314 0.7495 -0.0695
H16A H 0.6840 0.9123 0.0140
H17A H 0.7956 0.8274 0.0111
Cl1 Cl 0.9977(4) 0.3391(5) 0.7625(4)
Cl2 Cl 0.7514(5) 0.4200(5) 0.8139(6)
C23 C 0.8424(13) 0.3959(13) 0.7107(11)
H18 H 0.8702 0.4838 0.7000
H19 H 0.7764 0.3283 0.6168
Cl3? Cl 0.9593(7) 0.3318(6) 0.7455(9)
Cl4? Cl 0.7955(5) 0.4533(8) 0.8643(8)
C24? C 0.8959(12) 0.4630(13) 0.7896(16)
H20? H 0.9764 0.5459 0.8512
H21? H 0.8456 0.4779 0.7034
loop_
_geom_bond_atom_site_label_1
_geom_bond_atom_site_label_2
_geom_bond_site_symmetry_1
_geom_bond_site_symmetry_2
S1 C7 1_555 1_555
C1 H1 1_555 1_555
C2 C3 1_555 1_555
C3 C1 1_555 1_555
C4 C3 1_555 1_555
C5 C4 1_555 1_555
C6 C5 1_555 1_555
H2 C6 1_555 1_555
C7 C6 1_555 1_555
H3 C7 1_555 1_555
C8 S1 1_555 1_555
C9 C4 1_555 1_555
C10 C9 1_555 1_555
H4 C10 1_555 1_555
C11 C10 1_555 1_555
H5 C11 1_555 1_555
C12 C11 1_555 1_555
C13 C12 1_555 1_555
H6 C13 1_555 1_555
C14 C9 1_555 1_555
H7 C14 1_555 1_555
C15 C12 1_555 1_555
H8 C15 1_555 1_555
H9 C15 1_555 1_555
H10 C15 1_555 1_555
C16 C4 1_555 1_555
C17 C16 1_555 1_555
H11 C17 1_555 1_555
C18 C17 1_555 1_555
H12 C18 1_555 1_555
C19 C18 1_555 1_555
C20 C19 1_555 1_555
H13 C20 1_555 1_555
C21 C16 1_555 1_555
H14 C21 1_555 1_555
C22 C19 1_555 1_555
H15 C22 1_555 1_555
H16 C22 1_555 1_555
H17 C22 1_555 1_555
Cl1 C23 1_555 1_555
Cl2 C23 1_555 1_555
C23 H18 1_555 1_555
H19 C23 1_555 1_555
S1A C7A 1_555 1_555
C1A C2 1_555 1_555
H1A C1A 1_555 1_555
C2A C1 1_555 1_555
C3A C1A 1_555 1_555
C4A C3A 1_555 1_555
C5A C4A 1_555 1_555
C6A C5A 1_555 1_555
H2A C6A 1_555 1_555
C7A C6A 1_555 1_555
H3A C7A 1_555 1_555
C8A S1A 1_555 1_555
C9A C4A 1_555 1_555
C10A C9A 1_555 1_555
H4A C10A 1_555 1_555
C11A C10A 1_555 1_555
H5A C11A 1_555 1_555
C12A C11A 1_555 1_555
C13A C12A 1_555 1_555
H6A C13A 1_555 1_555
C14A C9A 1_555 1_555
H7A C14A 1_555 1_555
C15A C12A 1_555 1_555
H8A C15A 1_555 1_555
H9A C15A 1_555 1_555
H10A C15A 1_555 1_555
C16A C4A 1_555 1_555
C17A C16A 1_555 1_555
H11A C17A 1_555 1_555
C18A C17A 1_555 1_555
H12A C18A 1_555 1_555
C19A C18A 1_555 1_555
C20A C19A 1_555 1_555
H13A C20A 1_555 1_555
C21A C16A 1_555 1_555
H14A C21A 1_555 1_555
C22A C19A 1_555 1_555
H15A C22A 1_555 1_555
H16A C22A 1_555 1_555
H17A C22A 1_555 1_555
C2 C8 1_555 1_555
C5 C8 1_555 1_555
C13 C14 1_555 1_555
C20 C21 1_555 1_555
C2A C3A 1_555 1_555
C2A C8A 1_555 1_555
C5A C8A 1_555 1_555
C13A C14A 1_555 1_555
C20A C21A 1_555 1_555

#END
