
#######################################################################
#
#                 Cambridge Crystallographic Data Centre
#                                CCDC 
#
#######################################################################
#
# If this CIF has been generated from an entry in the Cambridge 
# Structural Database, then it will include bibliographic, chemical, 
# crystal, experimental, refinement or atomic coordinate data resulting 
# from the CCDC's data processing and validation procedures.
#
#######################################################################

data_SERVIX
_chemical_formula_moiety         'C21 H22 O5 S1'
_chemical_name_systematic        
2-(2-oxopropyl)-3-{[4-isopropylphenyl]sulfonyl}-2,3-dihydro-4H-1-benzopyran-4-one
_symmetry_cell_setting           monoclinic
_symmetry_space_group_name_H-M   'P 21/c'
_symmetry_Int_Tables_number      14
_space_group_name_Hall           '-P 2ybc'
loop_
_symmetry_equiv_pos_site_id
_symmetry_equiv_pos_as_xyz
1 x,y,z
2 -x,1/2+y,1/2-z
3 -x,-y,-z
4 x,1/2-y,1/2+z
_cell_length_a                   9.7652(6)
_cell_length_b                   19.7163(12)
_cell_length_c                   10.4645(7)
_cell_angle_alpha                90
_cell_angle_beta                 108.647(2)
_cell_angle_gamma                90
_cell_volume                     1909.01
_exptl_crystal_colour            colorless
_cell_formula_units_Z            4
loop_
_atom_site_label
_atom_site_type_symbol
_atom_site_fract_x
_atom_site_fract_y
_atom_site_fract_z
S1 S 0.28046(4) 0.57474(2) 0.69499(4)
O1 O 0.48433(13) 0.45338(6) 0.88487(12)
O2 O 0.18048(14) 0.52639(7) 0.71813(14)
O3 O 0.34365(13) 0.47480(6) 0.47306(12)
O4 O 0.70973(14) 0.61891(6) 0.80660(15)
O5 O 0.33116(14) 0.62974(7) 0.78856(13)
C1 C -0.0172(2) 0.76682(10) 0.1471(2)
H1 H -0.0887 0.7679 0.1949
H2 H -0.0591 0.7867 0.0573
H3 H 0.0683 0.7929 0.1980
C2 C 0.0266(2) 0.69294(10) 0.1334(2)
H4 H -0.0630 0.6670 0.0851
C3 C 0.0909(2) 0.66202(9) 0.27224(19)
C4 C 0.2303(2) 0.67943(10) 0.3541(2)
H5 H 0.2863 0.7098 0.3207
C5 C 0.2879(2) 0.65326(9) 0.4825(2)
H6 H 0.3823 0.6658 0.5373
C6 C 0.20651(18) 0.60836(9) 0.53101(18)
C7 C 0.43829(17) 0.52888(8) 0.68781(16)
H7 H 0.4936 0.5595 0.6459
C8 C 0.53620(18) 0.51156(8) 0.82989(17)
H8 H 0.5356 0.5513 0.8891
C9 C 0.44333(17) 0.39795(8) 0.80341(17)
C10 C 0.44347(19) 0.33582(9) 0.86807(19)
H9 H 0.4739 0.3331 0.9637
C11 C 0.3983(2) 0.27847(9) 0.7899(2)
H10 H 0.3980 0.2361 0.8330
C12 C 0.1285(3) 0.68861(13) 0.0496(2)
H11 H 0.2141 0.7166 0.0913
H12 H 0.0789 0.7051 -0.0419
H13 H 0.1581 0.6414 0.0456
C13 C 0.0111(2) 0.61756(9) 0.3238(2)
H14 H -0.0842 0.6057 0.2700
C14 C 0.06801(19) 0.59013(9) 0.4522(2)
H15 H 0.0128 0.5593 0.4857
C15 C 0.3533(2) 0.28120(9) 0.6494(2)
H16 H 0.3232 0.2411 0.5976
C16 C 0.35282(18) 0.34261(9) 0.58658(19)
H17 H 0.3221 0.3449 0.4909
C17 C 0.39751(17) 0.40198(8) 0.66297(17)
C18 C 0.38901(17) 0.46775(8) 0.59524(17)
C19 C 0.69186(18) 0.49942(8) 0.83558(17)
H18 H 0.7458 0.4794 0.9241
H19 H 0.6931 0.4663 0.7649
C20 C 0.76775(19) 0.56372(9) 0.81558(18)
C21 C 0.9166(2) 0.55520(10) 0.8071(2)
H20 H 0.9594 0.5999 0.8042
H21 H 0.9117 0.5298 0.7252
H22 H 0.9763 0.5302 0.8863
loop_
_geom_bond_atom_site_label_1
_geom_bond_atom_site_label_2
_geom_bond_site_symmetry_1
_geom_bond_site_symmetry_2
S1 O2 1_555 1_555
O1 C8 1_555 1_555
O3 C18 1_555 1_555
O4 C20 1_555 1_555
O5 S1 1_555 1_555
C1 H1 1_555 1_555
H2 C1 1_555 1_555
H3 C1 1_555 1_555
C2 C1 1_555 1_555
H4 C2 1_555 1_555
C3 C2 1_555 1_555
C4 C3 1_555 1_555
H5 C4 1_555 1_555
C5 C4 1_555 1_555
H6 C5 1_555 1_555
C6 S1 1_555 1_555
C7 S1 1_555 1_555
H7 C7 1_555 1_555
C8 C7 1_555 1_555
H8 C8 1_555 1_555
C9 O1 1_555 1_555
C10 C9 1_555 1_555
H9 C10 1_555 1_555
C11 C10 1_555 1_555
H10 C11 1_555 1_555
C12 C2 1_555 1_555
H11 C12 1_555 1_555
H12 C12 1_555 1_555
H13 C12 1_555 1_555
C13 C3 1_555 1_555
H14 C13 1_555 1_555
C14 C6 1_555 1_555
H15 C14 1_555 1_555
C15 C11 1_555 1_555
H16 C15 1_555 1_555
C16 C15 1_555 1_555
H17 C16 1_555 1_555
C17 C9 1_555 1_555
C18 C7 1_555 1_555
C19 C8 1_555 1_555
H18 C19 1_555 1_555
H19 C19 1_555 1_555
C20 C19 1_555 1_555
C21 C20 1_555 1_555
H20 C21 1_555 1_555
H21 C21 1_555 1_555
H22 C21 1_555 1_555
C5 C6 1_555 1_555
C13 C14 1_555 1_555
C16 C17 1_555 1_555
C17 C18 1_555 1_555

#END
