
#######################################################################
#
#                 Cambridge Crystallographic Data Centre
#                                CCDC 
#
#######################################################################
#
# If this CIF has been generated from an entry in the Cambridge 
# Structural Database, then it will include bibliographic, chemical, 
# crystal, experimental, refinement or atomic coordinate data resulting 
# from the CCDC's data processing and validation procedures.
#
#######################################################################

data_SERVOA
_chemical_formula_moiety         'C9 H9 N1 O7'
_chemical_name_systematic        '5-Nitrofurfural diacetate'
_symmetry_cell_setting           monoclinic
_symmetry_space_group_name_H-M   'P c'
_symmetry_Int_Tables_number      7
_space_group_name_Hall           'P -2yc'
loop_
_symmetry_equiv_pos_site_id
_symmetry_equiv_pos_as_xyz
1 x,y,z
2 x,-y,1/2+z
_cell_length_a                   8.926
_cell_length_b                   9.581
_cell_length_c                   7.153
_cell_angle_alpha                90
_cell_angle_beta                 112.5
_cell_angle_gamma                90
_cell_volume                     565.16
_cell_formula_units_Z            2
loop_
_atom_site_label
_atom_site_type_symbol
_atom_site_fract_x
_atom_site_fract_y
_atom_site_fract_z
O1 O 0.7386 0.8264 0.2115(5)
O2 O 0.4249 0.7021 0.0388(9)
O3 O 0.5163(1) 0.7894(2) -0.1917(5)
O4 O 0.2456(5) 0.5839 -0.2159(11)
O5 O 1.0895(10) 0.9251(3) 0.6077(8)
O6 O 0.8748(1) 1.0453(1) 0.4258(2)
O7 O 0.5904(1) 0.6535(6) -0.3896(3)
N1 N 0.9531 0.9388(1) 0.4695(2)
C1 C 0.7088(7) 0.6964(2) 0.1215(2)
C2 C 0.5444(1) 0.6782(2) -0.0460(12)
C3 C 0.9541(8) 0.6825(1) 0.3615
C4 C 0.2711(8) 0.6530(4) -0.0716(3)
C5 C 0.8880(3) 0.8141(2) 0.3538
C6 C 0.4889(2) 0.8856 -0.5022(2)
C7 C 0.5350(3) 0.7659(2) -0.3681(12)
C8 C 0.1587(10) 0.6946(2) 0.0168(1)
C9 C 0.8322 0.6095 0.2058(8)
H1 H 1.10693 0.6550 0.4399
H2 H 0.8239 0.4942 0.1454
H3 H 0.5487 0.5697 -0.1134
H4 H 0.6008 0.9248 -0.4734
H5 H 0.4080 0.9507 -0.4285
H6 H 0.4478 0.8844 -0.6513
H7 H 0.1451 0.5920 0.0120
H8 H 0.0615 0.7563 -0.0784
H9 H 0.2269 0.7678 0.1585
loop_
_geom_bond_atom_site_label_1
_geom_bond_atom_site_label_2
_geom_bond_site_symmetry_1
_geom_bond_site_symmetry_2
O1 C1 1_555 1_555
O2 C2 1_555 1_555
O3 C2 1_555 1_555
O4 C4 1_555 1_555
O5 N1 1_555 1_555
O6 N1 1_555 1_555
O7 C7 1_555 1_555
N1 C5 1_555 1_555
C1 C2 1_555 1_555
C2 H3 1_555 1_555
C3 C5 1_555 1_555
C4 O2 1_555 1_555
C5 O1 1_555 1_555
C6 C7 1_555 1_555
C7 O3 1_555 1_555
C8 C4 1_555 1_555
C9 C1 1_555 1_555
H1 C3 1_555 1_555
H2 C9 1_555 1_555
H4 C6 1_555 1_555
H5 C6 1_555 1_555
H6 C6 1_555 1_555
H7 C8 1_555 1_555
H8 C8 1_555 1_555
H9 C8 1_555 1_555
C3 C9 1_555 1_555

#END
