
#######################################################################
#
#                 Cambridge Crystallographic Data Centre
#                                CCDC 
#
#######################################################################
#
# If this CIF has been generated from an entry in the Cambridge 
# Structural Database, then it will include bibliographic, chemical, 
# crystal, experimental, refinement or atomic coordinate data resulting 
# from the CCDC's data processing and validation procedures.
#
#######################################################################

data_SERXOD
_chemical_formula_moiety         'C86 H110 N4 O22,2(C1 H4 O1)'
_chemical_name_systematic        
"N,N'-bis(3-((5-ethoxycarbonyl-2,4-dimethoxyphenylamino)carbonyl)-4,6-diisopropylphenyl)-N,N'-bis(2,4-dimethoxybenzyl)-4,6-bis(isobutoxy)benzene-1,3-diamide methanol solvate"
_symmetry_cell_setting           monoclinic
_symmetry_space_group_name_H-M   'C c'
_symmetry_Int_Tables_number      9
_space_group_name_Hall           'C -2yc'
loop_
_symmetry_equiv_pos_site_id
_symmetry_equiv_pos_as_xyz
1 x,y,z
2 x,-y,1/2+z
3 1/2+x,1/2+y,z
4 1/2+x,1/2-y,1/2+z
_cell_length_a                   19.514(2)
_cell_length_b                   16.3891(19)
_cell_length_c                   27.727(3)
_cell_angle_alpha                90
_cell_angle_beta                 101.243(2)
_cell_angle_gamma                90
_cell_volume                     8697.39
_exptl_crystal_colour            colorless
_cell_formula_units_Z            4
loop_
_atom_site_label
_atom_site_type_symbol
_atom_site_fract_x
_atom_site_fract_y
_atom_site_fract_z
N1 N 0.4610(2) -0.0562(3) 0.50342(16)
H1 H 0.4333 -0.0232 0.4841
C1 C 0.5039(3) -0.0241(3) 0.5414(2)
O1 O 0.5590(4) -0.0596(2) 0.5638(2)
N2 N 0.6209(2) 0.2151(3) 0.63339(14)
C2 C 0.6168(2) 0.2116(2) 0.68195(13)
O2 O 0.6549(2) 0.2532(2) 0.71129(12)
C3 C 0.3924(2) 0.2113(3) 0.7404(2)
O3 O 0.34940(18) 0.2483(2) 0.70746(14)
N3 N 0.38740(18) 0.2123(2) 0.78793(14)
C4 C 0.4976(3) -0.0192(3) 0.87934(17)
O4 O 0.4718(3) -0.0640(2) 0.84483(14)
N4 N 0.5452(2) -0.0562(2) 0.91510(14)
H2 H 0.5758 -0.0245 0.9331
C5 C 0.4477(3) -0.3053(2) 0.46626(18)
C6 C 0.3914(3) -0.2520(3) 0.45010(18)
H3 H 0.3494 -0.2724 0.4314
C7 C 0.3974(2) -0.1709(3) 0.46141(17)
C8 C 0.4568(3) -0.1419(3) 0.49166(18)
C9 C 0.5086(3) -0.1969(3) 0.51169(19)
H4 H 0.5465 -0.1787 0.5356
C10 C 0.5058(3) -0.2791(3) 0.49700(17)
C11 C 0.5071(3) 0.0716(3) 0.54731(17)
C12 C 0.4601(2) 0.1204(3) 0.52376(19)
C13 C 0.4632(3) 0.2056(3) 0.53620(19)
H5 H 0.4285 0.2410 0.5198
C14 C 0.5152(2) 0.2356(2) 0.57088(15)
C15 C 0.5639(3) 0.1836(3) 0.59494(19)
C16 C 0.5612(3) 0.1021(3) 0.58145(18)
H6 H 0.5973 0.0669 0.5961
C17 C 0.7461(3) 0.2435(3) 0.62608(16)
C18 C 0.7953(3) 0.2887(3) 0.61080(17)
C19 C 0.8626(3) 0.2678(4) 0.6187(2)
H7 H 0.8941 0.3016 0.6064
C20 C 0.8886(2) 0.1950(3) 0.64541(18)
C21 C 0.8368(3) 0.1510(4) 0.6601(2)
H8 H 0.8507 0.1033 0.6782
C22 C 0.7678(3) 0.1684(3) 0.65161(18)
H9 H 0.7354 0.1332 0.6619
C23 C 0.5568(2) 0.1634(3) 0.69375(15)
C24 C 0.5031(3) 0.20285(19) 0.70907(19)
H10 H 0.5035 0.2602 0.7099
C25 C 0.4475(2) 0.1613(3) 0.72358(14)
C26 C 0.4466(2) 0.0784(3) 0.72477(16)
C27 C 0.5028(3) 0.03485(19) 0.7120(2)
H11 H 0.5025 -0.0225 0.7121
C28 C 0.5574(3) 0.0758(3) 0.69946(16)
C29 C 0.2638(3) 0.2394(3) 0.79263(19)
C30 C 0.2131(3) 0.2914(3) 0.8099(2)
C31 C 0.1413(2) 0.2705(3) 0.80086(17)
H12 H 0.1077 0.3032 0.8117
C32 C 0.1247(3) 0.2027(5) 0.7765(2)
C33 C 0.1690(3) 0.1449(3) 0.7601(2)
H13 H 0.1535 0.0953 0.7447
C34 C 0.2394(3) 0.1708(3) 0.7696(2)
H14 H 0.2720 0.1367 0.7586
C35 C 0.4401(2) 0.1806(3) 0.82539(13)
C36 C 0.4938(3) 0.2358(4) 0.84913(18)
C37 C 0.5483(2) 0.2074(3) 0.88759(16)
H15 H 0.5812 0.2441 0.9049
C38 C 0.5519(2) 0.1272(3) 0.89882(15)
C39 C 0.4998(2) 0.0670(3) 0.87501(16)
C40 C 0.4454(2) 0.1009(3) 0.83831(16)
H16 H 0.4108 0.0651 0.8220
C41 C 0.5504(2) -0.1396(3) 0.92611(16)
C42 C 0.6104(3) -0.1682(3) 0.95827(17)
C43 C 0.6172(3) -0.2512(3) 0.97386(18)
H17 H 0.6573 -0.2684 0.9961
C44 C 0.5657(3) -0.3053(3) 0.95651(17)
C45 C 0.5021(3) -0.2763(3) 0.9242(2)
C46 C 0.4974(3) -0.1943(3) 0.91064(19)
H18 H 0.4563 -0.1757 0.8901
C47 C 0.6878(2) -0.0716(3) 0.6712(2)
H19 H 0.6900 -0.0423 0.6403
O5 O 0.4415(2) -0.3863(2) 0.45314(16)
C48 C 0.3788(4) -0.4195(3) 0.4248(2)
H20 H 0.3401 -0.4082 0.4410
H21 H 0.3840 -0.4781 0.4218
H22 H 0.3698 -0.3949 0.3923
O6 O 0.3474(2) -0.1117(2) 0.44557(14)
C49 C 0.2841(3) -0.1375(4) 0.4124(2)
H23 H 0.2947 -0.1498 0.3804
H24 H 0.2497 -0.0941 0.4091
H25 H 0.2656 -0.1859 0.4255
C50 C 0.5663(4) -0.3317(3) 0.5136(2)
O7 O 0.5815(2) -0.3874(3) 0.49057(19)
O8 O 0.6059(2) -0.3041(3) 0.5547(2)
C51 C 0.6726(4) -0.3509(6) 0.5706(3)
H26 H 0.7114 -0.3132 0.5819
H27 H 0.6833 -0.3826 0.5430
C52 C 0.6629(7) -0.4077(9) 0.6122(5)
H28 H 0.6404 -0.3783 0.6352
H29 H 0.7081 -0.4274 0.6291
H30 H 0.6340 -0.4536 0.5988
O9 O 0.40372(19) 0.0928(2) 0.48827(13)
C53 C 0.3472(3) 0.1450(3) 0.4671(2)
H31 H 0.3651 0.1906 0.4502
H32 H 0.3255 0.1676 0.4932
C54 C 0.2936(2) 0.0988(3) 0.43110(17)
H33 H 0.2843 0.0496 0.4495
C55 C 0.3204(6) 0.0687(8) 0.3926(4)
H34 H 0.3235 0.1122 0.3694
H35 H 0.2901 0.0259 0.3762
H36 H 0.3667 0.0465 0.4048
C56 C 0.2257(3) 0.1472(6) 0.4247(3)
H37 H 0.2303 0.1970 0.4067
H38 H 0.2161 0.1608 0.4568
H39 H 0.1877 0.1147 0.4067
O10 O 0.52100(19) 0.3157(2) 0.58539(13)
C57 C 0.4676(3) 0.3704(3) 0.56780(19)
H40 H 0.4236 0.3498 0.5751
H41 H 0.4622 0.3753 0.5320
C58 C 0.4836(4) 0.4542(4) 0.5915(2)
H42 H 0.5314 0.4701 0.5880
C59 C 0.4345(5) 0.5156(3) 0.5661(3)
H43 H 0.3873 0.5015 0.5695
H44 H 0.4370 0.5168 0.5315
H45 H 0.4466 0.5688 0.5805
C60 C 0.4827(6) 0.4475(4) 0.6427(3)
H46 H 0.4944 0.4998 0.6585
H47 H 0.5166 0.4070 0.6575
H48 H 0.4365 0.4311 0.6469
C61 C 0.6699(3) 0.2721(3) 0.61594(19)
H49 H 0.6675 0.3252 0.6318
H50 H 0.6546 0.2800 0.5804
O11 O 0.76773(18) 0.3607(2) 0.58676(13)
C62 C 0.8185(3) 0.4100(4) 0.5705(2)
H51 H 0.8514 0.4305 0.5987
H52 H 0.7957 0.4556 0.5516
H53 H 0.8433 0.3777 0.5501
O12 O 0.95479(18) 0.1737(3) 0.65873(15)
C63 C 1.0076(4) 0.2278(6) 0.6481(3)
H54 H 1.0007 0.2364 0.6129
H55 H 1.0533 0.2038 0.6598
H56 H 1.0046 0.2796 0.6645
O13 O 0.38938(16) 0.0411(2) 0.73234(12)
C64 C 0.3885(2) -0.0463(3) 0.73667(19)
H57 H 0.4279 -0.0639 0.7621
H58 H 0.3938 -0.0710 0.7054
C65 C 0.3215(3) -0.0748(4) 0.74977(19)
H59 H 0.3171 -0.0477 0.7809
C66 C 0.3226(3) -0.1645(4) 0.7586(2)
H60 H 0.3230 -0.1930 0.7281
H61 H 0.2814 -0.1801 0.7711
H62 H 0.3642 -0.1787 0.7825
C67 C 0.2557(3) -0.0518(3) 0.7106(2)
H63 H 0.2579 -0.0784 0.6797
H64 H 0.2541 0.0069 0.7059
H65 H 0.2140 -0.0696 0.7218
O14 O 0.61785(17) 0.0402(2) 0.68733(12)
C68 C 0.6204(3) -0.0481(3) 0.68725(19)
H66 H 0.5800 -0.0703 0.6643
H67 H 0.6199 -0.0694 0.7202
C69 C 0.7480(3) -0.0463(5) 0.7090(2)
H68 H 0.7452 0.0118 0.7149
H69 H 0.7910 -0.0582 0.6977
H70 H 0.7475 -0.0759 0.7392
C70 C 0.6832(3) -0.1657(3) 0.6602(2)
H71 H 0.7259 -0.1838 0.6505
H72 H 0.6437 -0.1766 0.6338
H73 H 0.6772 -0.1950 0.6895
C71 C 0.3366(2) 0.2702(3) 0.79988(17)
H74 H 0.3372 0.3190 0.7796
H75 H 0.3514 0.2866 0.8343
O15 O 0.2389(2) 0.3577(3) 0.83542(18)
C72 C 0.1957(4) 0.4187(4) 0.8518(3)
H76 H 0.1547 0.4283 0.8264
H77 H 0.2220 0.4691 0.8586
H78 H 0.1813 0.4001 0.8815
O16 O 0.0533(2) 0.1716(3) 0.76668(18)
C73 C 0.0008(3) 0.2250(5) 0.7775(3)
H79 H 0.0038 0.2275 0.8128
H80 H -0.0449 0.2047 0.7620
H81 H 0.0076 0.2791 0.7651
O17 O 0.48643(18) 0.31344(19) 0.83345(14)
C74 C 0.5416(3) 0.3712(3) 0.8568(2)
H82 H 0.5876 0.3539 0.8514
H83 H 0.5431 0.3750 0.8923
C75 C 0.5206(3) 0.4525(3) 0.8317(2)
H84 H 0.4758 0.4688 0.8406
C76 C 0.5086(5) 0.4519(5) 0.7739(3)
H85 H 0.5493 0.4290 0.7636
H86 H 0.5012 0.5072 0.7616
H87 H 0.4679 0.4190 0.7608
C77 C 0.5775(5) 0.5180(5) 0.8554(3)
H88 H 0.5842 0.5152 0.8910
H89 H 0.5617 0.5722 0.8444
H90 H 0.6214 0.5064 0.8453
O18 O 0.60354(16) 0.09418(19) 0.93294(12)
C78 C 0.6586(3) 0.1480(3) 0.95459(19)
H91 H 0.6418 0.1876 0.9761
H92 H 0.6767 0.1778 0.9291
C79 C 0.7168(4) 0.0924(4) 0.9850(2)
H93 H 0.7367 0.0485 0.9674
C80 C 0.7672(8) 0.1506(6) 1.0169(8)
H94 H 0.7958 0.1204 1.0436
H95 H 0.7410 0.1921 1.0304
H96 H 0.7970 0.1763 0.9972
C81 C 0.6928(4) 0.0704(5) 1.0328(3)
H97 H 0.6803 0.1198 1.0484
H98 H 0.7304 0.0428 1.0549
H99 H 0.6525 0.0347 1.0255
O19 O 0.66094(18) -0.1134(2) 0.97427(13)
C82 C 0.7181(4) -0.1360(4) 1.0105(3)
H100 H 0.7017 -0.1644 1.0368
H101 H 0.7438 -0.0876 1.0235
H102 H 0.7484 -0.1718 0.9962
O20 O 0.5653(2) -0.3862(2) 0.96717(15)
C83 C 0.6278(3) -0.4166(4) 0.9953(2)
H103 H 0.6661 -0.4051 0.9787
H104 H 0.6239 -0.4751 0.9993
H105 H 0.6367 -0.3906 1.0274
C84 C 0.4407(3) -0.3300(3) 0.9086(2)
O21 O 0.4200(4) -0.3850(3) 0.9318(2)
O22 O 0.4024(3) -0.3086(3) 0.86638(19)
C85 C 0.3387(4) -0.3477(5) 0.8471(3)
H106 H 0.3215 -0.3753 0.8738
H107 H 0.3040 -0.3067 0.8329
C86 C 0.3453(5) -0.3979(8) 0.8152(5)
H108 H 0.3465 -0.3698 0.7846
H109 H 0.3061 -0.4355 0.8104
H110 H 0.3884 -0.4280 0.8256
C87 C 0.3509(4) 0.1296(6) 0.6090(3)
H111 H 0.4002 0.1192 0.6209
H112 H 0.3370 0.1077 0.5760
H113 H 0.3240 0.1036 0.6306
O23 O 0.3380(3) 0.2187(3) 0.60805(16)
H114 H 0.3454 0.2365 0.6366
C88 C 0.6531(4) 0.1332(4) 0.8113(2)
H115 H 0.6703 0.1105 0.8437
H116 H 0.6760 0.1065 0.7876
H117 H 0.6031 0.1248 0.8023
O24 O 0.6668(3) 0.2124(4) 0.81193(17)
H118 H 0.6588 0.2302 0.7834
loop_
_geom_bond_atom_site_label_1
_geom_bond_atom_site_label_2
_geom_bond_site_symmetry_1
_geom_bond_site_symmetry_2
N1 H1 1_555 1_555
C1 N1 1_555 1_555
O1 C1 1_555 1_555
N2 C2 1_555 1_555
C2 O2 1_555 1_555
C3 O3 1_555 1_555
N3 C3 1_555 1_555
C4 O4 1_555 1_555
N4 C4 1_555 1_555
H2 N4 1_555 1_555
C5 C6 1_555 1_555
C6 H3 1_555 1_555
C7 C6 1_555 1_555
C8 N1 1_555 1_555
C9 C8 1_555 1_555
H4 C9 1_555 1_555
C10 C5 1_555 1_555
C11 C1 1_555 1_555
C12 C11 1_555 1_555
C13 C12 1_555 1_555
H5 C13 1_555 1_555
C14 C13 1_555 1_555
C15 N2 1_555 1_555
C16 C11 1_555 1_555
H6 C16 1_555 1_555
C17 C18 1_555 1_555
C18 C19 1_555 1_555
C19 H7 1_555 1_555
C20 C19 1_555 1_555
C21 C20 1_555 1_555
H8 C21 1_555 1_555
C22 C17 1_555 1_555
H9 C22 1_555 1_555
C23 C2 1_555 1_555
C24 C23 1_555 1_555
H10 C24 1_555 1_555
C25 C3 1_555 1_555
C26 C25 1_555 1_555
C27 C26 1_555 1_555
H11 C27 1_555 1_555
C28 C23 1_555 1_555
C29 C30 1_555 1_555
C30 C31 1_555 1_555
C31 H12 1_555 1_555
C32 C31 1_555 1_555
C33 C32 1_555 1_555
H13 C33 1_555 1_555
C34 C29 1_555 1_555
H14 C34 1_555 1_555
C35 N3 1_555 1_555
C36 C35 1_555 1_555
C37 C36 1_555 1_555
H15 C37 1_555 1_555
C38 C37 1_555 1_555
C39 C4 1_555 1_555
C40 C35 1_555 1_555
H16 C40 1_555 1_555
C41 N4 1_555 1_555
C42 C41 1_555 1_555
C43 C42 1_555 1_555
H17 C43 1_555 1_555
C44 C43 1_555 1_555
C45 C44 1_555 1_555
C46 C41 1_555 1_555
H18 C46 1_555 1_555
C47 H19 1_555 1_555
O5 C5 1_555 1_555
C48 O5 1_555 1_555
H20 C48 1_555 1_555
H21 C48 1_555 1_555
H22 C48 1_555 1_555
O6 C7 1_555 1_555
C49 O6 1_555 1_555
H23 C49 1_555 1_555
H24 C49 1_555 1_555
H25 C49 1_555 1_555
C50 C10 1_555 1_555
O7 C50 1_555 1_555
O8 C50 1_555 1_555
C51 O8 1_555 1_555
H26 C51 1_555 1_555
H27 C51 1_555 1_555
C52 C51 1_555 1_555
H28 C52 1_555 1_555
H29 C52 1_555 1_555
H30 C52 1_555 1_555
O9 C12 1_555 1_555
C53 O9 1_555 1_555
H31 C53 1_555 1_555
H32 C53 1_555 1_555
C54 C53 1_555 1_555
H33 C54 1_555 1_555
C55 C54 1_555 1_555
H34 C55 1_555 1_555
H35 C55 1_555 1_555
H36 C55 1_555 1_555
C56 C54 1_555 1_555
H37 C56 1_555 1_555
H38 C56 1_555 1_555
H39 C56 1_555 1_555
O10 C14 1_555 1_555
C57 O10 1_555 1_555
H40 C57 1_555 1_555
H41 C57 1_555 1_555
C58 C57 1_555 1_555
H42 C58 1_555 1_555
C59 C58 1_555 1_555
H43 C59 1_555 1_555
H44 C59 1_555 1_555
H45 C59 1_555 1_555
C60 C58 1_555 1_555
H46 C60 1_555 1_555
H47 C60 1_555 1_555
H48 C60 1_555 1_555
C61 N2 1_555 1_555
H49 C61 1_555 1_555
H50 C61 1_555 1_555
O11 C18 1_555 1_555
C62 O11 1_555 1_555
H51 C62 1_555 1_555
H52 C62 1_555 1_555
H53 C62 1_555 1_555
O12 C20 1_555 1_555
C63 O12 1_555 1_555
H54 C63 1_555 1_555
H55 C63 1_555 1_555
H56 C63 1_555 1_555
O13 C26 1_555 1_555
C64 O13 1_555 1_555
H57 C64 1_555 1_555
H58 C64 1_555 1_555
C65 C64 1_555 1_555
H59 C65 1_555 1_555
C66 C65 1_555 1_555
H60 C66 1_555 1_555
H61 C66 1_555 1_555
H62 C66 1_555 1_555
C67 C65 1_555 1_555
H63 C67 1_555 1_555
H64 C67 1_555 1_555
H65 C67 1_555 1_555
O14 C28 1_555 1_555
C68 C47 1_555 1_555
H66 C68 1_555 1_555
H67 C68 1_555 1_555
C69 C47 1_555 1_555
H68 C69 1_555 1_555
H69 C69 1_555 1_555
H70 C69 1_555 1_555
C70 C47 1_555 1_555
H71 C70 1_555 1_555
H72 C70 1_555 1_555
H73 C70 1_555 1_555
C71 N3 1_555 1_555
H74 C71 1_555 1_555
H75 C71 1_555 1_555
O15 C30 1_555 1_555
C72 O15 1_555 1_555
H76 C72 1_555 1_555
H77 C72 1_555 1_555
H78 C72 1_555 1_555
O16 C32 1_555 1_555
C73 O16 1_555 1_555
H79 C73 1_555 1_555
H80 C73 1_555 1_555
H81 C73 1_555 1_555
O17 C36 1_555 1_555
C74 O17 1_555 1_555
H82 C74 1_555 1_555
H83 C74 1_555 1_555
C75 C74 1_555 1_555
H84 C75 1_555 1_555
C76 C75 1_555 1_555
H85 C76 1_555 1_555
H86 C76 1_555 1_555
H87 C76 1_555 1_555
C77 C75 1_555 1_555
H88 C77 1_555 1_555
H89 C77 1_555 1_555
H90 C77 1_555 1_555
O18 C38 1_555 1_555
C78 O18 1_555 1_555
H91 C78 1_555 1_555
H92 C78 1_555 1_555
C79 C78 1_555 1_555
H93 C79 1_555 1_555
C80 C79 1_555 1_555
H94 C80 1_555 1_555
H95 C80 1_555 1_555
H96 C80 1_555 1_555
C81 C79 1_555 1_555
H97 C81 1_555 1_555
H98 C81 1_555 1_555
H99 C81 1_555 1_555
O19 C42 1_555 1_555
C82 O19 1_555 1_555
H100 C82 1_555 1_555
H101 C82 1_555 1_555
H102 C82 1_555 1_555
O20 C44 1_555 1_555
C83 O20 1_555 1_555
H103 C83 1_555 1_555
H104 C83 1_555 1_555
H105 C83 1_555 1_555
C84 C45 1_555 1_555
O21 C84 1_555 1_555
O22 C84 1_555 1_555
C85 O22 1_555 1_555
H106 C85 1_555 1_555
H107 C85 1_555 1_555
C86 C85 1_555 1_555
H108 C86 1_555 1_555
H109 C86 1_555 1_555
H110 C86 1_555 1_555
C87 H111 1_555 1_555
H112 C87 1_555 1_555
H113 C87 1_555 1_555
O23 C87 1_555 1_555
H114 O23 1_555 1_555
C88 H115 1_555 1_555
H116 C88 1_555 1_555
H117 C88 1_555 1_555
O24 C88 1_555 1_555
H118 O24 1_555 1_555
C7 C8 1_555 1_555
C9 C10 1_555 1_555
C14 C15 1_555 1_555
C15 C16 1_555 1_555
C17 C61 1_555 1_555
C21 C22 1_555 1_555
C24 C25 1_555 1_555
C27 C28 1_555 1_555
C29 C71 1_555 1_555
C33 C34 1_555 1_555
C38 C39 1_555 1_555
C39 C40 1_555 1_555
C45 C46 1_555 1_555
O14 C68 1_555 1_555

#END
