
#######################################################################
#
#                 Cambridge Crystallographic Data Centre
#                                CCDC 
#
#######################################################################
#
# If this CIF has been generated from an entry in the Cambridge 
# Structural Database, then it will include bibliographic, chemical, 
# crystal, experimental, refinement or atomic coordinate data resulting 
# from the CCDC's data processing and validation procedures.
#
#######################################################################

data_SERYUK
_chemical_formula_moiety         '1.5(C12 H8 N6),C9 H6 O6,2(H2 O1)'
_chemical_name_systematic        
'sesquikis(3,6-di(pyridin-4-yl)-1,2,4,5-tetrazine) trimesic acid dihydrate'
_symmetry_cell_setting           triclinic
_symmetry_space_group_name_H-M   'P -1'
_symmetry_Int_Tables_number      2
_space_group_name_Hall           '-P 1'
loop_
_symmetry_equiv_pos_site_id
_symmetry_equiv_pos_as_xyz
1 x,y,z
2 -x,-y,-z
_cell_length_a                   9.7625(11)
_cell_length_b                   11.7298(13)
_cell_length_c                   13.0734(13)
_cell_angle_alpha                68.849(10)
_cell_angle_beta                 72.701(8)
_cell_angle_gamma                83.937(9)
_cell_volume                     1333.05
_exptl_crystal_colour            colorless
_cell_formula_units_Z            2
loop_
_atom_site_label
_atom_site_type_symbol
_atom_site_fract_x
_atom_site_fract_y
_atom_site_fract_z
O1 O -0.2468(3) -0.27880(19) 0.15727(17)
O2 O -0.1786(2) -0.15528(18) -0.02429(16)
O3 O -0.1131(2) 0.28729(17) -0.09596(16)
O4 O -0.1221(2) 0.34641(17) 0.04786(17)
O5 O -0.2844(3) 0.04891(18) 0.44769(17)
O6 O -0.3314(3) -0.14082(18) 0.47157(17)
C1 C -0.2131(3) -0.0726(2) 0.1232(2)
C2 C -0.1754(3) 0.0455(2) 0.0487(2)
C3 C -0.1722(3) 0.1384(2) 0.0898(2)
C4 C -0.2095(3) 0.1128(2) 0.2067(2)
C5 C -0.2499(3) -0.0045(2) 0.2824(2)
C6 C -0.2519(3) -0.0966(2) 0.2399(2)
C7 C -0.2103(3) -0.1715(2) 0.0763(2)
C8 C -0.1331(3) 0.2672(2) 0.0107(2)
C9 C -0.2912(3) -0.0277(2) 0.4079(2)
H1 H -0.239(4) -0.338(4) 0.136(3)
H2 H -0.356(4) -0.146(3) 0.549(4)
H5 H -0.152(3) 0.061(2) -0.025(2)
H6 H -0.205(3) 0.176(2) 0.235(2)
H7 H -0.273(3) -0.176(2) 0.295(2)
H20 H -0.096(4) 0.402(4) -0.153(3)
O7 O -0.2685(3) 0.51761(19) -0.8661(2)
H3 H -0.208(5) 0.462(4) -0.902(4)
H4 H -0.291(5) 0.486(4) -0.795(4)
O8 O -0.0515(3) 0.2546(2) -0.3103(2)
N1 N -0.5951(3) 0.1786(2) 0.30814(19)
N2 N -0.4534(3) 0.1757(2) -0.09434(19)
N3 N -0.4171(3) 0.2057(2) -0.20683(19)
N4 N -0.4237(3) 0.3812(2) -0.11582(19)
N5 N -0.3882(3) 0.4112(2) -0.22740(19)
N6 N -0.3158(3) 0.4316(2) -0.6303(2)
C10 C -0.5513(4) 0.2905(3) 0.2368(2)
C11 C -0.5072(3) 0.3226(3) 0.1197(2)
C12 C -0.5090(3) 0.2341(2) 0.0727(2)
C13 C -0.5558(3) 0.1173(3) 0.1458(2)
C14 C -0.5964(3) 0.0943(3) 0.2617(2)
C15 C -0.4608(3) 0.2650(2) -0.0523(2)
C16 C -0.3918(3) 0.3236(2) -0.2696(2)
C17 C -0.2981(4) 0.5097(3) -0.5819(3)
C18 C -0.3213(4) 0.4790(3) -0.4661(2)
C19 C -0.3624(3) 0.3608(2) -0.3945(2)
C20 C -0.3781(4) 0.2790(3) -0.4447(3)
C21 C -0.3543(4) 0.3186(3) -0.5608(3)
H8 H -0.556(3) 0.352(3) 0.270(3)
H9 H -0.482(3) 0.407(3) 0.072(3)
H10 H -0.567(3) 0.054(3) 0.118(2)
H11 H -0.631(3) 0.015(2) 0.315(2)
H12 H -0.265(3) 0.599(3) -0.634(3)
H13 H -0.309(3) 0.539(3) -0.437(2)
H14 H -0.410(3) 0.205(3) -0.401(2)
H15 H -0.364(3) 0.263(3) -0.598(2)
N7 N -0.0804(3) 0.5175(2) -0.2174(2)
N8 N 0.0281(3) 0.91137(19) -0.54700(19)
N9 N -0.0507(3) 0.9733(2) -0.38514(19)
C22 C -0.0578(4) 0.5476(3) -0.3295(3)
C23 C -0.0388(4) 0.6667(3) -0.4022(3)
C24 C -0.0443(3) 0.7588(2) -0.3586(2)
C25 C -0.0708(3) 0.7272(3) -0.2420(2)
C26 C -0.0877(4) 0.6049(3) -0.1743(3)
C27 C -0.0214(3) 0.8882(2) -0.4344(2)
H16 H -0.050(3) 0.477(3) -0.357(3)
H17 H -0.025(3) 0.685(2) -0.479(2)
H18 H -0.078(3) 0.785(3) -0.207(2)
H19 H -0.094(3) 0.579(3) -0.095(3)
N7A N 0.0804(3) 1.4825(2) -0.7826(2)
N8A N -0.0281(3) 1.08863(19) -0.45300(19)
N9A N 0.0507(3) 1.0267(2) -0.61486(19)
C22A C 0.0578(4) 1.4524(3) -0.6705(3)
C23A C 0.0388(4) 1.3333(3) -0.5978(3)
C24A C 0.0443(3) 1.2412(2) -0.6414(2)
C25A C 0.0708(3) 1.2728(3) -0.7580(2)
C26A C 0.0877(4) 1.3951(3) -0.8257(3)
C27A C 0.0214(3) 1.1118(2) -0.5656(2)
H16A H 0.050(3) 1.523(3) -0.643(3)
H17A H 0.025(3) 1.315(2) -0.521(2)
H18A H 0.078(3) 1.215(3) -0.793(2)
H19A H 0.094(3) 1.421(3) -0.905(3)
O1A O 0.2468(3) 2.27880(19) -1.15727(17)
O2A O 0.1786(2) 2.15528(18) -0.97571(16)
O3A O 0.1131(2) 1.71271(17) -0.90404(16)
O4A O 0.1221(2) 1.65359(17) -1.04786(17)
O5A O 0.2844(3) 1.95109(18) -1.44769(17)
O6A O 0.3314(3) 2.14082(18) -1.47157(17)
C1A C 0.2131(3) 2.0726(2) -1.1232(2)
C2A C 0.1754(3) 1.9545(2) -1.0487(2)
C3A C 0.1722(3) 1.8616(2) -1.0898(2)
C4A C 0.2095(3) 1.8872(2) -1.2067(2)
C5A C 0.2499(3) 2.0045(2) -1.2824(2)
C6A C 0.2519(3) 2.0966(2) -1.2399(2)
C7A C 0.2103(3) 2.1715(2) -1.0763(2)
C8A C 0.1331(3) 1.7328(2) -1.0107(2)
C9A C 0.2912(3) 2.0277(2) -1.4079(2)
H1A H 0.239(4) 2.338(4) -1.136(3)
H2A H 0.356(4) 2.146(3) -1.549(4)
H5A H 0.152(3) 1.939(2) -0.975(2)
H6A H 0.205(3) 1.824(2) -1.235(2)
H7A H 0.273(3) 2.176(2) -1.295(2)
H20A H 0.096(4) 1.598(4) -0.847(3)
loop_
_geom_bond_atom_site_label_1
_geom_bond_atom_site_label_2
_geom_bond_site_symmetry_1
_geom_bond_site_symmetry_2
O1 C7 1_555 1_555
O2 C7 1_555 1_555
O3 C8 1_555 1_555
O4 C8 1_555 1_555
O5 C9 1_555 1_555
O6 C9 1_555 1_555
O7 H3 1_555 1_555
N1 C10 1_555 1_555
N2 N3 1_555 1_555
N3 C16 1_555 1_555
N4 N5 1_555 1_555
N5 C16 1_555 1_555
N6 C17 1_555 1_555
N7 C22 1_555 1_555
N8 C27 1_555 1_555
N9 C27 1_555 1_555
C1 C2 1_555 1_555
C2 C3 1_555 1_555
C3 C4 1_555 1_555
C4 C5 1_555 1_555
C5 C6 1_555 1_555
C6 C1 1_555 1_555
C7 C1 1_555 1_555
C8 C3 1_555 1_555
C9 C5 1_555 1_555
C10 C11 1_555 1_555
C11 C12 1_555 1_555
C12 C13 1_555 1_555
C13 C14 1_555 1_555
C14 N1 1_555 1_555
C15 N2 1_555 1_555
C16 C19 1_555 1_555
C17 C18 1_555 1_555
C18 C19 1_555 1_555
C19 C20 1_555 1_555
C20 C21 1_555 1_555
C21 N6 1_555 1_555
C22 C23 1_555 1_555
C23 C24 1_555 1_555
C24 C25 1_555 1_555
C25 C26 1_555 1_555
C26 N7 1_555 1_555
C27 C24 1_555 1_555
H1 O1 1_555 1_555
H2 O6 1_555 1_555
H4 O7 1_555 1_555
H5 C2 1_555 1_555
H6 C4 1_555 1_555
H7 C6 1_555 1_555
H8 C10 1_555 1_555
H9 C11 1_555 1_555
H10 C13 1_555 1_555
H11 C14 1_555 1_555
H12 C17 1_555 1_555
H13 C18 1_555 1_555
H14 C20 1_555 1_555
H15 C21 1_555 1_555
H16 C22 1_555 1_555
H17 C23 1_555 1_555
H18 C25 1_555 1_555
H19 C26 1_555 1_555
H20 O3 1_555 1_555
O1A C7A 1_555 1_555
O2A C7A 1_555 1_555
O3A C8A 1_555 1_555
O4A C8A 1_555 1_555
O5A C9A 1_555 1_555
O6A C9A 1_555 1_555
N7A C22A 1_555 1_555
N8A N9 1_555 1_555
N9A N8 1_555 1_555
C1A C2A 1_555 1_555
C2A C3A 1_555 1_555
C3A C4A 1_555 1_555
C4A C5A 1_555 1_555
C5A C6A 1_555 1_555
C6A C1A 1_555 1_555
C7A C1A 1_555 1_555
C8A C3A 1_555 1_555
C9A C5A 1_555 1_555
C22A C23A 1_555 1_555
C23A C24A 1_555 1_555
C24A C25A 1_555 1_555
C25A C26A 1_555 1_555
C26A N7A 1_555 1_555
C27A N8A 1_555 1_555
H1A O1A 1_555 1_555
H2A O6A 1_555 1_555
H5A C2A 1_555 1_555
H6A C4A 1_555 1_555
H7A C6A 1_555 1_555
H16A C22A 1_555 1_555
H17A C23A 1_555 1_555
H18A C25A 1_555 1_555
H19A C26A 1_555 1_555
H20A O3A 1_555 1_555
N4 C15 1_555 1_555
C12 C15 1_555 1_555
N9A C27A 1_555 1_555
C24A C27A 1_555 1_555

#END
