
#######################################################################
#
#                 Cambridge Crystallographic Data Centre
#                                CCDC 
#
#######################################################################
#
# If this CIF has been generated from an entry in the Cambridge 
# Structural Database, then it will include bibliographic, chemical, 
# crystal, experimental, refinement or atomic coordinate data resulting 
# from the CCDC's data processing and validation procedures.
#
#######################################################################

data_SERYIA
_chemical_formula_moiety         'C21 H25 B1 Cl1 N1 O2'
_chemical_name_systematic        
5-chloro-2-phenyl-3-[(4,4,5,5-tetramethyl-1,3,2-dioxaborolan-2-yl)methyl]-2,3-dihydro-1H-indole
_symmetry_cell_setting           orthorhombic
_symmetry_space_group_name_H-M   'P b c a'
_symmetry_Int_Tables_number      61
_space_group_name_Hall           '-P 2ac 2ab'
loop_
_symmetry_equiv_pos_site_id
_symmetry_equiv_pos_as_xyz
1 x,y,z
2 1/2+x,1/2-y,-z
3 -x,1/2+y,1/2-z
4 1/2-x,-y,1/2+z
5 -x,-y,-z
6 1/2-x,1/2+y,z
7 x,1/2-y,1/2+z
8 1/2+x,y,1/2-z
_cell_length_a                   14.863(2)
_cell_length_b                   14.375(2)
_cell_length_c                   18.875(3)
_cell_angle_alpha                90
_cell_angle_beta                 90
_cell_angle_gamma                90
_cell_volume                     4032.75
_exptl_crystal_colour            colorless
_exptl_crystal_description       block
_cell_formula_units_Z            8
_exptl_crystal_recrystallization_method 'Re-crystallisation from solvent'
loop_
_atom_site_label
_atom_site_type_symbol
_atom_site_fract_x
_atom_site_fract_y
_atom_site_fract_z
Cl1 Cl 0.27380(5) 0.64468(5) 0.23257(4)
O1 O 0.45672(9) 0.84962(10) 0.44042(7)
O2 O 0.42405(8) 0.94918(10) 0.35058(7)
N1 N 0.09415(10) 0.87361(12) 0.44690(9)
H1 H 0.0468 0.8668 0.4766
C1 C 0.50794(18) 0.75001(19) 0.34685(17)
H2 H 0.5000 0.6990 0.3791
H3 H 0.5568 0.7365 0.3152
H4 H 0.4537 0.7590 0.3200
C2 C 0.52911(12) 0.83814(15) 0.38859(11)
C3 C 0.30316(11) 0.93497(14) 0.44800(10)
H5 H 0.2891 0.8876 0.4829
H6 H 0.3096 0.9936 0.4729
C4 C 0.22401(11) 0.94290(12) 0.39615(9)
H7 H 0.2375 0.9885 0.3591
C5 C 0.13172(11) 0.96604(13) 0.43233(10)
H8 H 0.0933 0.9963 0.3970
C6 C 0.13537(10) 1.02797(13) 0.49671(10)
C7 C 0.13503(14) 0.99249(15) 0.56514(11)
H9 H 0.1332 0.9285 0.5720
C8 C 0.13742(15) 1.05083(18) 0.62302(12)
H10 H 0.1371 1.0258 0.6685
C9 C 0.14023(14) 1.14542(17) 0.61421(13)
H11 H 0.1412 1.1846 0.6534
C10 C 0.52034(12) 0.92808(16) 0.34426(11)
C11 C 0.54383(18) 0.9210(2) 0.26678(12)
H12 H 0.5078 0.8734 0.2451
H13 H 0.6063 0.9054 0.2619
H14 H 0.5323 0.9795 0.2440
C12 C 0.57099(16) 1.01011(18) 0.37782(15)
H15 H 0.5551 1.0666 0.3537
H16 H 0.6346 1.0000 0.3738
H17 H 0.5549 1.0151 0.4269
C13 C 0.12753(11) 0.81229(13) 0.39695(10)
C14 C 0.09709(14) 0.72356(15) 0.38022(12)
H18 H 0.0466 0.6989 0.4025
C15 C 0.14348(15) 0.67236(15) 0.32963(12)
H19 H 0.1246 0.6126 0.3181
C16 C 0.21709(14) 0.71008(14) 0.29684(11)
C17 C 0.24893(12) 0.79850(13) 0.31306(10)
H20 H 0.2994 0.8227 0.2906
C18 C 0.20318(11) 0.84910(12) 0.36359(9)
C19 C 0.14156(14) 1.18156(16) 0.54749(14)
H21 H 0.1439 1.2457 0.5413
C20 C 0.13950(12) 1.12385(15) 0.48872(11)
H22 H 0.1409 1.1496 0.4435
C21 C 0.61745(15) 0.8260(2) 0.42685(14)
H23 H 0.6260 0.8767 0.4593
H24 H 0.6657 0.8253 0.3930
H25 H 0.6169 0.7684 0.4525
B1 B 0.39565(13) 0.90998(15) 0.41211(12)
loop_
_geom_bond_atom_site_label_1
_geom_bond_atom_site_label_2
_geom_bond_site_symmetry_1
_geom_bond_site_symmetry_2
Cl1 C16 1_555 1_555
O1 C2 1_555 1_555
O2 C10 1_555 1_555
N1 H1 1_555 1_555
C1 H2 1_555 1_555
H3 C1 1_555 1_555
H4 C1 1_555 1_555
C2 C1 1_555 1_555
C3 H5 1_555 1_555
H6 C3 1_555 1_555
C4 C3 1_555 1_555
H7 C4 1_555 1_555
C5 N1 1_555 1_555
H8 C5 1_555 1_555
C6 C5 1_555 1_555
C7 C6 1_555 1_555
H9 C7 1_555 1_555
C8 C7 1_555 1_555
H10 C8 1_555 1_555
C9 C8 1_555 1_555
H11 C9 1_555 1_555
C10 C2 1_555 1_555
C11 C10 1_555 1_555
H12 C11 1_555 1_555
H13 C11 1_555 1_555
H14 C11 1_555 1_555
C12 C10 1_555 1_555
H15 C12 1_555 1_555
H16 C12 1_555 1_555
H17 C12 1_555 1_555
C13 N1 1_555 1_555
C14 C13 1_555 1_555
H18 C14 1_555 1_555
C15 C14 1_555 1_555
H19 C15 1_555 1_555
C16 C15 1_555 1_555
C17 C16 1_555 1_555
H20 C17 1_555 1_555
C18 C4 1_555 1_555
C19 C9 1_555 1_555
H21 C19 1_555 1_555
C20 C6 1_555 1_555
H22 C20 1_555 1_555
C21 C2 1_555 1_555
H23 C21 1_555 1_555
H24 C21 1_555 1_555
H25 C21 1_555 1_555
B1 O1 1_555 1_555
O2 B1 1_555 1_555
C3 B1 1_555 1_555
C4 C5 1_555 1_555
C13 C18 1_555 1_555
C17 C18 1_555 1_555
C19 C20 1_555 1_555

#END
