
#######################################################################
#
#                 Cambridge Crystallographic Data Centre
#                                CCDC 
#
#######################################################################
#
# If this CIF has been generated from an entry in the Cambridge 
# Structural Database, then it will include bibliographic, chemical, 
# crystal, experimental, refinement or atomic coordinate data resulting 
# from the CCDC's data processing and validation procedures.
#
#######################################################################

data_SERZOH
_chemical_formula_moiety         'C14 H6 N6 O12,C12 H12 N2'
_chemical_name_systematic        
"1,1'-(ethene-1,2-diyl)bis(2,4,6-trinitrobenzene) 4,4'-(ethane-1,2-diyl)dipyridine"
_symmetry_cell_setting           monoclinic
_symmetry_space_group_name_H-M   'C 2/c'
_symmetry_Int_Tables_number      15
_space_group_name_Hall           '-C 2yn'
loop_
_symmetry_equiv_pos_site_id
_symmetry_equiv_pos_as_xyz
1 x,y,z
2 -x,y,1/2-z
3 1/2+x,1/2+y,z
4 1/2-x,1/2+y,1/2-z
5 -x,-y,-z
6 x,-y,1/2+z
7 1/2-x,1/2-y,-z
8 1/2+x,1/2-y,1/2+z
_cell_length_a                   31.8694(16)
_cell_length_b                   5.8964(3)
_cell_length_c                   14.5682(7)
_cell_angle_alpha                90
_cell_angle_beta                 91.408(5)
_cell_angle_gamma                90
_cell_volume                     2736.75
_exptl_crystal_colour            yellow
_exptl_crystal_description       needle
_cell_formula_units_Z            4
loop_
_atom_site_label
_atom_site_type_symbol
_atom_site_fract_x
_atom_site_fract_y
_atom_site_fract_z
C1 C 0.26443(7) 0.3263(4) 0.01099(16)
H1 H 0.264302 0.464725 -0.019591
C2 C 0.29714(7) 0.2824(4) 0.08336(16)
C3 C 0.30254(7) 0.4054(4) 0.16483(16)
C4 C 0.33283(8) 0.3551(5) 0.23148(17)
H2 H 0.335887 0.442615 0.284319
C5 C 0.35833(8) 0.1702(5) 0.21662(17)
C6 C 0.35491(8) 0.0383(5) 0.13954(17)
H3 H 0.371842 -0.088201 0.131416
C7 C 0.32505(7) 0.1026(4) 0.07450(16)
N1 N 0.27572(7) 0.6031(4) 0.18460(15)
O1 O 0.28109(8) 0.6967(4) 0.25800(17)
O2 O 0.24999(7) 0.6636(4) 0.12800(15)
N2 N 0.32622(6) -0.0233(4) -0.01325(15)
O3 O 0.33122(7) 0.0866(4) -0.08271(13)
O4 O 0.32350(7) -0.2305(3) -0.00936(15)
N3 N 0.39205(8) 0.1189(5) 0.28460(16)
O5 O 0.40033(8) 0.2594(5) 0.34265(16)
O6 O 0.40954(10) -0.0624(6) 0.27856(18)
C1F C 0.23557(7) 0.1737(4) -0.01099(16)
H1F H 0.235698 0.035275 0.019591
C2F C 0.20286(7) 0.2176(4) -0.08336(16)
C3F C 0.19746(7) 0.0946(4) -0.16483(16)
C4F C 0.16717(8) 0.1449(5) -0.23148(17)
H2F H 0.164113 0.057385 -0.284319
C5F C 0.14167(8) 0.3298(5) -0.21662(17)
C6F C 0.14509(8) 0.4617(5) -0.13954(17)
H3F H 0.128158 0.588201 -0.131416
C7F C 0.17495(7) 0.3974(4) -0.07450(16)
N1F N 0.22428(7) -0.1031(4) -0.18460(15)
O1F O 0.21891(8) -0.1967(4) -0.25800(17)
O2F O 0.25001(7) -0.1636(4) -0.12800(15)
N2F N 0.17378(6) 0.5233(4) 0.01325(15)
O3F O 0.16878(7) 0.4134(4) 0.08271(13)
O4F O 0.17650(7) 0.7305(3) 0.00936(15)
N3F N 0.10795(8) 0.3811(5) -0.28460(16)
O5F O 0.09967(8) 0.2406(5) -0.34265(16)
O6F O 0.09046(10) 0.5624(6) -0.27856(18)
C8 C 0.5055(2) 0.0698(13) 0.0429(5)
H4 H 0.532191 0.146447 0.036058
H5 H 0.507374 -0.027021 0.096668
C9 C 0.46954(13) 0.2445(7) 0.0522(3)
C10 C 0.43450(12) 0.2932(7) -0.0008(3)
H6 H 0.428946 0.212702 -0.054660
C11 C 0.40763(10) 0.4619(6) 0.0261(2)
H7 H 0.384537 0.494394 -0.011906
N4 N 0.41250(9) 0.5804(5) 0.1023(2)
C12 C 0.44598(15) 0.5256(8) 0.1528(3)
H8 H 0.450347 0.602879 0.207845
C13 C 0.47476(15) 0.3637(8) 0.1302(3)
H9 H 0.497884 0.336388 0.168792
C8D C 0.4945(2) -0.0698(13) -0.0429(5)
H4D H 0.467809 -0.146447 -0.036058
H5D H 0.492626 0.027021 -0.096668
C9D C 0.53046(13) -0.2445(7) -0.0522(3)
C10D C 0.56550(12) -0.2932(7) 0.0008(3)
H6D H 0.571054 -0.212702 0.054660
C11D C 0.59237(10) -0.4619(6) -0.0261(2)
H7D H 0.615463 -0.494394 0.011906
N4D N 0.58750(9) -0.5804(5) -0.1023(2)
C12D C 0.55402(15) -0.5256(8) -0.1528(3)
H8D H 0.549653 -0.602879 -0.207845
C13D C 0.52524(15) -0.3637(8) -0.1302(3)
H9D H 0.502116 -0.336388 -0.168792
C14? C 0.5042(3) 0.12738(18) -0.0037(9)
H10? H 0.502672 0.175676 -0.067384
H11? H 0.531797 0.164264 0.021562
C15? C 0.4856(4) -0.0021(8) 0.0412(6)
H12? H 0.500882 -0.050528 0.096108
H13? H 0.462263 -0.105085 0.030058
loop_
_geom_bond_atom_site_label_1
_geom_bond_atom_site_label_2
_geom_bond_site_symmetry_1
_geom_bond_site_symmetry_2
C1 H1 1_555 1_555
C2 C1 1_555 1_555
C3 C2 1_555 1_555
C4 C3 1_555 1_555
H2 C4 1_555 1_555
C5 C4 1_555 1_555
C6 C5 1_555 1_555
H3 C6 1_555 1_555
C7 C2 1_555 1_555
N1 C3 1_555 1_555
O1 N1 1_555 1_555
O2 N1 1_555 1_555
N2 C7 1_555 1_555
O3 N2 1_555 1_555
O4 N2 1_555 1_555
N3 C5 1_555 1_555
O5 N3 1_555 1_555
O6 N3 1_555 1_555
C8 H4 1_555 1_555
H5 C8 1_555 1_555
C9 C8 1_555 1_555
C10 C9 1_555 1_555
H6 C10 1_555 1_555
C11 C10 1_555 1_555
H7 C11 1_555 1_555
N4 C11 1_555 1_555
C12 N4 1_555 1_555
H8 C12 1_555 1_555
C13 C9 1_555 1_555
H9 C13 1_555 1_555
C1F C1 1_555 1_555
H1F C1F 1_555 1_555
C2F C1F 1_555 1_555
C3F C2F 1_555 1_555
C4F C3F 1_555 1_555
H2F C4F 1_555 1_555
C5F C4F 1_555 1_555
C6F C5F 1_555 1_555
H3F C6F 1_555 1_555
C7F C2F 1_555 1_555
N1F C3F 1_555 1_555
O1F N1F 1_555 1_555
O2F N1F 1_555 1_555
N2F C7F 1_555 1_555
O3F N2F 1_555 1_555
O4F N2F 1_555 1_555
N3F C5F 1_555 1_555
O5F N3F 1_555 1_555
O6F N3F 1_555 1_555
C8D C8 1_555 1_555
H4D C8D 1_555 1_555
H5D C8D 1_555 1_555
C9D C8D 1_555 1_555
C10D C9D 1_555 1_555
H6D C10D 1_555 1_555
C11D C10D 1_555 1_555
H7D C11D 1_555 1_555
N4D C11D 1_555 1_555
C12D N4D 1_555 1_555
H8D C12D 1_555 1_555
C13D C9D 1_555 1_555
H9D C13D 1_555 1_555
C6 C7 1_555 1_555
C12 C13 1_555 1_555
C6F C7F 1_555 1_555
C12D C13D 1_555 1_555

#END
