
#######################################################################
#
#                 Cambridge Crystallographic Data Centre
#                                CCDC 
#
#######################################################################
#
# If this CIF has been generated from an entry in the Cambridge 
# Structural Database, then it will include bibliographic, chemical, 
# crystal, experimental, refinement or atomic coordinate data resulting 
# from the CCDC's data processing and validation procedures.
#
#######################################################################

data_SERZIA
_chemical_formula_moiety         'C10 H8 Cl2 O4,C2 H6 O1 S1'
_chemical_name_systematic        
'3-(Dichloromethyl)-3,4,6-trihydroxyindan-1-one dimethylsulfoxide solvate'
_symmetry_cell_setting           triclinic
_symmetry_space_group_name_H-M   'P -1'
_symmetry_Int_Tables_number      2
_space_group_name_Hall           '-P 1'
loop_
_symmetry_equiv_pos_site_id
_symmetry_equiv_pos_as_xyz
1 x,y,z
2 -x,-y,-z
_cell_length_a                   8.1107(12)
_cell_length_b                   9.1475(16)
_cell_length_c                   11.4039(19)
_cell_angle_alpha                106.487(5)
_cell_angle_beta                 103.627(4)
_cell_angle_gamma                104.156(4)
_cell_volume                     743.129
_exptl_crystal_colour            colorless
_exptl_crystal_description       platelet
_cell_formula_units_Z            2
loop_
_atom_site_label
_atom_site_type_symbol
_atom_site_fract_x
_atom_site_fract_y
_atom_site_fract_z
Cl1 Cl 0.64593(15) 0.13329(13) 0.76825(12)
Cl2 Cl 0.73938(14) 0.40702(16) 1.00593(10)
O1 O 0.6219(3) 0.2296(4) 0.2399(3)
O2 O 1.0053(3) 0.4106(4) 0.6821(3)
O3 O 0.7946(4) 0.6069(3) 0.8402(3)
O4 O 0.2315(3) 0.3158(4) 0.5551(3)
C1 C 0.3940(4) 0.3517(4) 0.6063(4)
C2 C 0.4899(4) 0.4224(5) 0.7517(4)
C3 C 0.6899(4) 0.4412(4) 0.7696(3)
C4 C 0.8411(4) 0.3693(4) 0.5906(4)
C5 C 0.8167(4) 0.3171(4) 0.4596(3)
C6 C 0.6459(5) 0.2748(4) 0.3680(3)
C7 C 0.4978(4) 0.2801(4) 0.4086(4)
C8 C 0.5267(4) 0.3343(4) 0.5402(3)
C9 C 0.6947(4) 0.3814(4) 0.6331(3)
C10 C 0.7607(5) 0.3455(5) 0.8487(4)
H1 H 0.7158 0.2225 0.2276
H2 H 1.0756 0.3834 0.6466
H3 H 0.4410 0.3505 0.7925
H4 H 0.4770 0.5265 0.7895
H5 H 0.8797 0.6313 0.8142
H6 H 0.9142 0.3100 0.4315
H7 H 0.3833 0.2482 0.3492
H8 H 0.8887 0.3665 0.8590
S1 S 1.06417(13) -0.02794(12) 0.84961(10)
O5 O 1.0754(4) -0.1951(3) 0.8011(3)
C11 C 1.2794(6) 0.0956(6) 0.9610(5)
C12 C 1.0715(7) 0.0448(7) 0.7204(5)
H9 H 1.3687 0.0857 0.9198
H10 H 1.3028 0.0622 1.0340
H11 H 1.2838 0.2063 0.9896
H12 H 0.9653 -0.0189 0.6469
H13 H 1.1760 0.0364 0.6970
H14 H 1.0773 0.1558 0.7479
loop_
_geom_bond_atom_site_label_1
_geom_bond_atom_site_label_2
_geom_bond_site_symmetry_1
_geom_bond_site_symmetry_2
Cl1 C10 1_555 1_555
Cl2 C10 1_555 1_555
O1 C6 1_555 1_555
O2 C4 1_555 1_555
O3 C3 1_555 1_555
O4 C1 1_555 1_555
C1 C2 1_555 1_555
C2 C3 1_555 1_555
C3 C9 1_555 1_555
C4 C5 1_555 1_555
C5 C6 1_555 1_555
C6 C7 1_555 1_555
C7 C8 1_555 1_555
C8 C1 1_555 1_555
C9 C4 1_555 1_555
C10 C3 1_555 1_555
H1 O1 1_555 1_555
H2 O2 1_555 1_555
H3 C2 1_555 1_555
H4 C2 1_555 1_555
H5 O3 1_555 1_555
H6 C5 1_555 1_555
H7 C7 1_555 1_555
H8 C10 1_555 1_555
S1 O5 1_555 1_555
C11 S1 1_555 1_555
C12 S1 1_555 1_555
H9 C11 1_555 1_555
H10 C11 1_555 1_555
H11 C11 1_555 1_555
H12 C12 1_555 1_555
H13 C12 1_555 1_555
H14 C12 1_555 1_555
C8 C9 1_555 1_555

#END
