
#######################################################################
#
#                 Cambridge Crystallographic Data Centre
#                                CCDC 
#
#######################################################################
#
# If this CIF has been generated from an entry in the Cambridge 
# Structural Database, then it will include bibliographic, chemical, 
# crystal, experimental, refinement or atomic coordinate data resulting 
# from the CCDC's data processing and validation procedures.
#
#######################################################################

data_SERZAR
_chemical_formula_moiety         'C38 H26 N4,2(C1 H4 O1),5(H2 O1)'
_chemical_name_systematic        
'1,4-bis(3,6-diphenylpyridazin-4-yl)benzene methanol clathrate pentahydrate'
_symmetry_cell_setting           orthorhombic
_symmetry_space_group_name_H-M   'P b c n'
_symmetry_Int_Tables_number      60
_space_group_name_Hall           '-P 2n 2ab'
loop_
_symmetry_equiv_pos_site_id
_symmetry_equiv_pos_as_xyz
1 x,y,z
2 1/2-x,1/2-y,1/2+z
3 1/2+x,1/2-y,-z
4 -x,y,1/2-z
5 -x,-y,-z
6 1/2+x,1/2+y,1/2-z
7 1/2-x,1/2+y,z
8 x,-y,1/2+z
_cell_length_a                   16.3407(7)
_cell_length_b                   10.8145(5)
_cell_length_c                   18.6069(8)
_cell_angle_alpha                90
_cell_angle_beta                 90
_cell_angle_gamma                90
_cell_volume                     3288.15
_exptl_crystal_colour            colorless
_exptl_crystal_description       needle
_chemical_melting_point          '271-273 deg.C'
_cell_formula_units_Z            4
_exptl_crystal_recrystallization_method ethanol/THF
loop_
_atom_site_label
_atom_site_type_symbol
_atom_site_fract_x
_atom_site_fract_y
_atom_site_fract_z
C20 C 0.0413(7) 0.3626(10) 0.4638(9)
O1 O 0.0000 -0.5583(11) 0.2500
O2 O -0.0481(9) 0.500(3) 0.4541(19)
O3 O 0.0140(8) 0.5000(18) 0.3678(14)
N1 N 0.30172(17) 0.0196(3) 0.30461(15)
N2 N 0.32607(18) 0.1072(3) 0.35060(15)
C1 C 0.4188(3) 0.3833(5) 0.4863(3)
H1 H 0.4742 0.3842 0.4978
C2 C 0.3683(3) 0.4701(4) 0.5154(2)
H2 H 0.3891 0.5298 0.5464
C3 C 0.2871(3) 0.4686(4) 0.4987(2)
H3 H 0.2524 0.5281 0.5180
C4 C 0.2557(3) 0.3790(3) 0.45294(18)
H4 H 0.2001 0.3786 0.4424
C5 C 0.3065(2) 0.2899(3) 0.42265(17)
C6 C 0.3889(3) 0.2934(4) 0.4397(2)
H5 H 0.4244 0.2353 0.4200
C7 C 0.27415(19) 0.1952(3) 0.37259(16)
C8 C 0.22441(19) 0.0178(3) 0.27959(16)
C9 C 0.16668(19) 0.1083(3) 0.30054(15)
C10 C 0.1931(2) 0.1969(3) 0.34808(16)
H6 H 0.1572 0.2579 0.3639
C11 C 0.2069(2) -0.0854(3) 0.22923(17)
C12 C 0.1345(2) -0.1534(3) 0.23424(19)
H7 H 0.0964 -0.1345 0.2697
C13 C 0.1193(3) -0.2495(3) 0.1864(2)
H8 H 0.0708 -0.2942 0.1895
C14 C 0.1763(4) -0.2785(4) 0.1344(2)
H9 H 0.1658 -0.3423 0.1021
C15 C 0.2485(3) -0.2135(4) 0.1299(2)
H10 H 0.2869 -0.2340 0.0950
C16 C 0.2641(2) -0.1171(3) 0.17743(18)
H11 H 0.3131 -0.0737 0.1745
C17 C 0.08126(19) 0.1111(3) 0.27401(15)
C18 C 0.0632(2) 0.1129(3) 0.20071(16)
H12 H 0.1055 0.1137 0.1673
C19 C 0.0170(2) 0.1137(3) 0.32273(16)
H13 H 0.0281 0.1160 0.3717
N1C N -0.30172(17) 0.0196(3) 0.19539(15)
N2C N -0.32607(18) 0.1072(3) 0.14940(15)
C1C C -0.4188(3) 0.3833(5) 0.0137(3)
H1C H -0.4742 0.3842 0.0022
C2C C -0.3683(3) 0.4701(4) -0.0154(2)
H2C H -0.3891 0.5298 -0.0464
C3C C -0.2871(3) 0.4686(4) 0.0013(2)
H3C H -0.2524 0.5281 -0.0180
C4C C -0.2557(3) 0.3790(3) 0.04706(18)
H4C H -0.2001 0.3786 0.0576
C5C C -0.3065(2) 0.2899(3) 0.07735(17)
C6C C -0.3889(3) 0.2934(4) 0.0603(2)
H5C H -0.4244 0.2353 0.0800
C7C C -0.27415(19) 0.1952(3) 0.12741(16)
C8C C -0.22441(19) 0.0178(3) 0.22041(16)
C9C C -0.16668(19) 0.1083(3) 0.19946(15)
C10C C -0.1931(2) 0.1969(3) 0.15192(16)
H6C H -0.1572 0.2579 0.1361
C11C C -0.2069(2) -0.0854(3) 0.27077(17)
C12C C -0.1345(2) -0.1534(3) 0.26576(19)
H7C H -0.0964 -0.1345 0.2303
C13C C -0.1193(3) -0.2495(3) 0.3136(2)
H8C H -0.0708 -0.2942 0.3105
C14C C -0.1763(4) -0.2785(4) 0.3656(2)
H9C H -0.1658 -0.3423 0.3979
C15C C -0.2485(3) -0.2135(4) 0.3701(2)
H10C H -0.2869 -0.2340 0.4050
C16C C -0.2641(2) -0.1171(3) 0.32257(18)
H11C H -0.3131 -0.0737 0.3255
C17C C -0.08126(19) 0.1111(3) 0.22599(15)
C18C C -0.0632(2) 0.1129(3) 0.29929(16)
H12C H -0.1055 0.1137 0.3327
C19C C -0.0170(2) 0.1137(3) 0.17727(16)
H13C H -0.0281 0.1160 0.1283
loop_
_geom_bond_atom_site_label_1
_geom_bond_atom_site_label_2
_geom_bond_site_symmetry_1
_geom_bond_site_symmetry_2
N1 N2 1_555 1_555
N2 C7 1_555 1_555
C1 H1 1_555 1_555
C2 C1 1_555 1_555
H2 C2 1_555 1_555
C3 C2 1_555 1_555
H3 C3 1_555 1_555
C4 C3 1_555 1_555
H4 C4 1_555 1_555
C5 C4 1_555 1_555
C6 C1 1_555 1_555
H5 C6 1_555 1_555
C7 C5 1_555 1_555
C8 N1 1_555 1_555
C9 C8 1_555 1_555
C10 C7 1_555 1_555
H6 C10 1_555 1_555
C11 C8 1_555 1_555
C12 C11 1_555 1_555
H7 C12 1_555 1_555
C13 C12 1_555 1_555
H8 C13 1_555 1_555
C14 C13 1_555 1_555
H9 C14 1_555 1_555
C15 C14 1_555 1_555
H10 C15 1_555 1_555
C16 C11 1_555 1_555
H11 C16 1_555 1_555
C17 C9 1_555 1_555
C18 C17 1_555 1_555
H12 C18 1_555 1_555
C19 C17 1_555 1_555
H13 C19 1_555 1_555
N1C N2C 1_555 1_555
N2C C7C 1_555 1_555
C1C H1C 1_555 1_555
C2C C1C 1_555 1_555
H2C C2C 1_555 1_555
C3C C2C 1_555 1_555
H3C C3C 1_555 1_555
C4C C3C 1_555 1_555
H4C C4C 1_555 1_555
C5C C4C 1_555 1_555
C6C C1C 1_555 1_555
H5C C6C 1_555 1_555
C7C C5C 1_555 1_555
C8C N1C 1_555 1_555
C9C C8C 1_555 1_555
C10C C7C 1_555 1_555
H6C C10C 1_555 1_555
C11C C8C 1_555 1_555
C12C C11C 1_555 1_555
H7C C12C 1_555 1_555
C13C C12C 1_555 1_555
H8C C13C 1_555 1_555
C14C C13C 1_555 1_555
H9C C14C 1_555 1_555
C15C C14C 1_555 1_555
H10C C15C 1_555 1_555
C16C C11C 1_555 1_555
H11C C16C 1_555 1_555
C17C C9C 1_555 1_555
C18C C19 1_555 1_555
H12C C18C 1_555 1_555
C19C C18 1_555 1_555
H13C C19C 1_555 1_555
C5 C6 1_555 1_555
C9 C10 1_555 1_555
C15 C16 1_555 1_555
C5C C6C 1_555 1_555
C9C C10C 1_555 1_555
C15C C16C 1_555 1_555
C17C C18C 1_555 1_555
C17C C19C 1_555 1_555

#END
