
#######################################################################
#
#                 Cambridge Crystallographic Data Centre
#                                CCDC 
#
#######################################################################
#
# If this CIF has been generated from an entry in the Cambridge 
# Structural Database, then it will include bibliographic, chemical, 
# crystal, experimental, refinement or atomic coordinate data resulting 
# from the CCDC's data processing and validation procedures.
#
#######################################################################

data_SESDEC
_chemical_formula_moiety         'C17 H17 N2 O1 1+,I1 1-'
_chemical_name_systematic        
"1-([1,1'-biphenyl]-4-yl)-3-(2-hydroxyethyl)-1H-imidazol-3-ium iodide"
_symmetry_cell_setting           monoclinic
_symmetry_space_group_name_H-M   'P 21/c'
_symmetry_Int_Tables_number      14
_space_group_name_Hall           '-P 2ybc'
loop_
_symmetry_equiv_pos_site_id
_symmetry_equiv_pos_as_xyz
1 x,y,z
2 -x,1/2+y,1/2-z
3 -x,-y,-z
4 x,1/2-y,1/2+z
_cell_length_a                   10.906(8)
_cell_length_b                   14.134(11)
_cell_length_c                   11.490(8)
_cell_angle_alpha                90
_cell_angle_beta                 108.856(13)
_cell_angle_gamma                90
_cell_volume                     1676.08
_exptl_crystal_colour            colorless
_exptl_crystal_description       block
_cell_formula_units_Z            4
loop_
_atom_site_label
_atom_site_type_symbol
_atom_site_fract_x
_atom_site_fract_y
_atom_site_fract_z
I1 I 0.05116(4) 0.19763(3) 0.55359(4)
N1 N 0.1709(4) 0.4429(4) 0.7458(4)
N2 N 0.3103(4) 0.3988(4) 0.6598(4)
O1 O -0.0911(4) 0.4122(4) 0.5830(4)
H1 H -0.049(5) 0.367(4) 0.564(5)
C1 C 0.2043(5) 0.4513(4) 0.6471(6)
H2 H 0.163(4) 0.491(3) 0.570(3)
C2 C 0.3431(6) 0.3556(5) 0.7736(6)
H3 H 0.4127 0.3151 0.8075
C3 C 0.2553(6) 0.3833(5) 0.8260(6)
H4 H 0.2526 0.3651 0.9029
C4 C 0.0545(6) 0.4852(5) 0.7623(6)
H5 H 0.0388 0.5467 0.7227
H6 H 0.0684 0.4943 0.8493
C5 C -0.0598(6) 0.4242(6) 0.7093(6)
H7 H -0.0432 0.3627 0.7487
H8 H -0.1334 0.4518 0.7268
C6 C 0.3743(5) 0.3882(4) 0.5703(5)
C7 C 0.5075(5) 0.3883(4) 0.6062(5)
H9 H 0.5563 0.3954 0.6886
C8 C 0.5684(5) 0.3775(4) 0.5173(6)
H10 H 0.6584 0.3759 0.5417
C9 C 0.4977(5) 0.3690(4) 0.3930(6)
C10 C 0.3621(5) 0.3688(4) 0.3603(6)
H11 H 0.3127 0.3618 0.2780
C11 C 0.3001(5) 0.3786(4) 0.4470(6)
H12 H 0.2101 0.3788 0.4235
C12 C 0.5648(5) 0.3595(5) 0.2999(6)
C13 C 0.6854(6) 0.3130(4) 0.3314(7)
H13 H 0.7216 0.2869 0.4094
C14 C 0.7496(7) 0.3063(5) 0.2461(7)
H14 H 0.8293 0.2757 0.2675
C15 C 0.6977(8) 0.3442(6) 0.1290(7)
H15 H 0.7422 0.3402 0.0724
C16 C 0.5789(7) 0.3879(6) 0.0986(7)
H16 H 0.5418 0.4123 0.0198
C17 C 0.5129(6) 0.3962(5) 0.1837(6)
H17 H 0.4332 0.4268 0.1615
loop_
_geom_bond_atom_site_label_1
_geom_bond_atom_site_label_2
_geom_bond_site_symmetry_1
_geom_bond_site_symmetry_2
N1 C1 1_555 1_555
N2 C1 1_555 1_555
O1 H1 1_555 1_555
C1 H2 1_555 1_555
C2 N2 1_555 1_555
H3 C2 1_555 1_555
C3 N1 1_555 1_555
H4 C3 1_555 1_555
C4 N1 1_555 1_555
H5 C4 1_555 1_555
H6 C4 1_555 1_555
C5 O1 1_555 1_555
H7 C5 1_555 1_555
H8 C5 1_555 1_555
C6 N2 1_555 1_555
C7 C6 1_555 1_555
H9 C7 1_555 1_555
C8 C7 1_555 1_555
H10 C8 1_555 1_555
C9 C8 1_555 1_555
C10 C9 1_555 1_555
H11 C10 1_555 1_555
C11 C6 1_555 1_555
H12 C11 1_555 1_555
C12 C9 1_555 1_555
C13 C12 1_555 1_555
H13 C13 1_555 1_555
C14 C13 1_555 1_555
H14 C14 1_555 1_555
C15 C14 1_555 1_555
H15 C15 1_555 1_555
C16 C15 1_555 1_555
H16 C16 1_555 1_555
C17 C12 1_555 1_555
H17 C17 1_555 1_555
C2 C3 1_555 1_555
C4 C5 1_555 1_555
C10 C11 1_555 1_555
C16 C17 1_555 1_555

#END
