
#######################################################################
#
#                 Cambridge Crystallographic Data Centre
#                                CCDC 
#
#######################################################################
#
# If this CIF has been generated from an entry in the Cambridge 
# Structural Database, then it will include bibliographic, chemical, 
# crystal, experimental, refinement or atomic coordinate data resulting 
# from the CCDC's data processing and validation procedures.
#
#######################################################################

data_SESJUW
_chemical_formula_moiety         'C25 H24 N4 O2 S1'
_chemical_name_systematic        
3'-Methyl-2-(5-(4-methylphenoxymethyl)-4-phenyl-4H-1,2,4-triazol-3-ylsulfanyl)acetanilide
_symmetry_cell_setting           monoclinic
_symmetry_space_group_name_H-M   'P 21/c'
_symmetry_Int_Tables_number      14
_space_group_name_Hall           '-P 2ybc'
loop_
_symmetry_equiv_pos_site_id
_symmetry_equiv_pos_as_xyz
1 x,y,z
2 -x,1/2+y,1/2-z
3 -x,-y,-z
4 x,1/2-y,1/2+z
_cell_length_a                   16.8947(18)
_cell_length_b                   8.2884(9)
_cell_length_c                   17.2401(17)
_cell_angle_alpha                90
_cell_angle_beta                 106.382(4)
_cell_angle_gamma                90
_cell_volume                     2316.12
_exptl_crystal_colour            colorless
_exptl_crystal_description       block
_chemical_melting_point          '152 K'
_cell_formula_units_Z            4
_exptl_crystal_recrystallization_method ethanol
loop_
_atom_site_label
_atom_site_type_symbol
_atom_site_fract_x
_atom_site_fract_y
_atom_site_fract_z
S1 S 0.48688(3) 0.15487(6) 0.38060(3)
N1 N 0.37975(8) 0.34776(16) 0.27520(8)
N2 N 0.67048(9) 0.13580(19) 0.57858(9)
C1 C 0.42575(10) 0.3263(2) 0.35354(10)
O1 O 0.21119(8) 0.53888(16) 0.19023(8)
O2 O 0.62185(8) -0.01549(16) 0.46522(8)
C2 C 0.28775(12) 0.1510(2) 0.19223(12)
H1 H 0.2511 0.1694 0.2226
C3 C 0.29509(11) 0.5745(2) 0.19791(11)
H2 H 0.3035 0.6903 0.2002
H3 H 0.3104 0.5329 0.1516
C4 C 0.61525(11) 0.0974(2) 0.50841(11)
N3 N 0.36945(9) 0.56370(18) 0.34501(10)
C5 C 0.15361(12) 0.6045(2) 0.12393(11)
C6 C 0.75275(12) -0.1152(2) 0.60218(12)
C7 C 0.74156(10) 0.0451(2) 0.61947(10)
N4 N 0.42010(9) 0.45295(18) 0.39777(9)
C8 C 0.34659(11) 0.4984(2) 0.27318(11)
C9 C 0.54031(12) 0.2073(2) 0.48380(11)
C10 C 0.87034(14) 0.0391(3) 0.72361(14)
C11 C 0.36173(10) 0.2314(2) 0.21029(10)
C12 C 0.26795(13) 0.0430(3) 0.12912(13)
H4 H 0.2180 -0.0123 0.1168
C13 C 0.32258(14) 0.0174(2) 0.08445(12)
H5 H 0.3094 -0.0553 0.0416
C14 C 0.17116(13) 0.6591(2) 0.05561(12)
H6 H 0.2246 0.6520 0.0510
C15 C 0.02908(15) 0.7357(3) -0.00262(14)
C16 C 0.82270(12) -0.1995(2) 0.64540(11)
C17 C 0.88111(14) -0.1203(3) 0.70553(13)
C18 C 0.07398(13) 0.6113(3) 0.12872(13)
H7 H 0.0613 0.5726 0.1744
C19 C 0.39627(14) 0.0980(2) 0.10257(12)
H8 H 0.4326 0.0803 0.0717
C20 C 0.80060(12) 0.1228(3) 0.68027(12)
C21 C 0.01264(14) 0.6758(3) 0.06565(15)
H9 H -0.0412 0.6788 0.0694
C22 C 0.41707(12) 0.2056(2) 0.16650(12)
H10 H 0.4674 0.2592 0.1796
C23 C 0.10867(15) 0.7250(3) -0.00671(13)
H11 H 0.1213 0.7630 -0.0526
C24 C 0.83298(13) -0.3753(3) 0.62719(14)
H12 H 0.8830 -0.4158 0.6636
H13 H 0.8356 -0.3860 0.5725
H14 H 0.7868 -0.4357 0.6338
C25 C -0.03848(17) 0.8107(3) -0.07025(16)
H15 H -0.0540 0.9129 -0.0528
H16 H -0.0856 0.7404 -0.0840
H17 H -0.0187 0.8262 -0.1167
H18 H 0.9301(12) -0.177(2) 0.7341(12)
H19 H 0.9110(12) 0.094(2) 0.7638(12)
H20 H 0.7913(11) 0.238(2) 0.6899(12)
H21 H 0.7120(11) -0.171(2) 0.5618(11)
H22 H 0.6596(12) 0.223(3) 0.6037(13)
H23 H 0.5035(11) 0.188(2) 0.5155(11)
H24 H 0.5576(10) 0.319(2) 0.4884(10)
loop_
_geom_bond_atom_site_label_1
_geom_bond_atom_site_label_2
_geom_bond_site_symmetry_1
_geom_bond_site_symmetry_2
S1 C1 1_555 1_555
N1 C1 1_555 1_555
N2 C4 1_555 1_555
C1 N4 1_555 1_555
O1 C3 1_555 1_555
O2 C4 1_555 1_555
C2 H1 1_555 1_555
C3 H2 1_555 1_555
H3 C3 1_555 1_555
C4 C9 1_555 1_555
N3 N4 1_555 1_555
C5 O1 1_555 1_555
C6 C7 1_555 1_555
C7 N2 1_555 1_555
C8 N1 1_555 1_555
C9 S1 1_555 1_555
C10 C17 1_555 1_555
C11 N1 1_555 1_555
C12 C2 1_555 1_555
H4 C12 1_555 1_555
C13 C12 1_555 1_555
H5 C13 1_555 1_555
C14 C5 1_555 1_555
H6 C14 1_555 1_555
C15 C21 1_555 1_555
C16 C6 1_555 1_555
C17 C16 1_555 1_555
C18 C5 1_555 1_555
H7 C18 1_555 1_555
C19 C13 1_555 1_555
H8 C19 1_555 1_555
C20 C7 1_555 1_555
C21 C18 1_555 1_555
H9 C21 1_555 1_555
C22 C11 1_555 1_555
H10 C22 1_555 1_555
C23 C14 1_555 1_555
H11 C23 1_555 1_555
C24 C16 1_555 1_555
H12 C24 1_555 1_555
H13 C24 1_555 1_555
H14 C24 1_555 1_555
C25 C15 1_555 1_555
H15 C25 1_555 1_555
H16 C25 1_555 1_555
H17 C25 1_555 1_555
H18 C17 1_555 1_555
H19 C10 1_555 1_555
H20 C20 1_555 1_555
H21 C6 1_555 1_555
H22 N2 1_555 1_555
H23 C9 1_555 1_555
H24 C9 1_555 1_555
C2 C11 1_555 1_555
C3 C8 1_555 1_555
N3 C8 1_555 1_555
C10 C20 1_555 1_555
C15 C23 1_555 1_555
C19 C22 1_555 1_555

#END
