
#######################################################################
#
#                 Cambridge Crystallographic Data Centre
#                                CCDC 
#
#######################################################################
#
# If this CIF has been generated from an entry in the Cambridge 
# Structural Database, then it will include bibliographic, chemical, 
# crystal, experimental, refinement or atomic coordinate data resulting 
# from the CCDC's data processing and validation procedures.
#
#######################################################################

data_SESKUW
_chemical_formula_moiety         'C10 H8 S4 Se4 1+,C10 H8 S4 Se4,I3 1-'
_chemical_name_systematic        
'bis(bis(Ethylenediseleno)tetrathiafulvalene) tri-iodide'
_symmetry_cell_setting           triclinic
_symmetry_space_group_name_H-M   'P -1'
_symmetry_Int_Tables_number      2
_space_group_name_Hall           '-P 1'
loop_
_symmetry_equiv_pos_site_id
_symmetry_equiv_pos_as_xyz
1 x,y,z
2 -x,-y,-z
_cell_length_a                   6.781(2)
_cell_length_b                   8.767(3)
_cell_length_c                   16.023(5)
_cell_angle_alpha                89.68(2)
_cell_angle_beta                 94.76(2)
_cell_angle_gamma                110.66(2)
_cell_volume                     887.933
_cell_formula_units_Z            1
loop_
_atom_site_label
_atom_site_type_symbol
_atom_site_fract_x
_atom_site_fract_y
_atom_site_fract_z
Se1 Se 0.14148(11) 0.36673(8) 0.80395(4)
Se2 Se -0.26927(11) 0.53330(10) 0.77795(5)
Se3 Se 0.71836(10) 0.89958(8) 0.32792(4)
Se4 Se 0.29527(11) 1.06659(8) 0.30073(4)
S1 S 0.2649(2) 0.5259(2) 0.63498(9)
S2 S -0.0698(2) 0.6640(2) 0.61243(9)
S3 S 0.4673(2) 0.7154(2) 0.46881(9)
S4 S 0.1319(2) 0.8533(2) 0.45155(9)
C1 C 0.1561(8) 0.6490(7) 0.5767(3)
C2 C 0.2427(8) 0.7304(7) 0.5080(3)
C3 C 0.0872(9) 0.4873(7) 0.7122(3)
C4 C -0.0674(9) 0.5477(7) 0.7011(3)
C5 C 0.4786(8) 0.8539(6) 0.3884(3)
C6 C 0.3231(8) 0.9151(6) 0.3810(3)
C7 C 0.0232(13) 0.4469(10) 0.8947(4)
C8 C -0.0619(14) 0.5780(10) 0.8753(4)
C9 C 0.6383(14) 1.0004(12) 0.2293(5)
C10 C 0.4205(14) 0.9803(12) 0.2115(6)
I1 I 0.0000 0.0000 0.0000
I2 I 0.42680(8) 0.23791(6) -0.00244(3)
I2A I -0.42680(8) -0.23791(6) 0.00244(3)
loop_
_geom_bond_atom_site_label_1
_geom_bond_atom_site_label_2
_geom_bond_site_symmetry_1
_geom_bond_site_symmetry_2
I1 I2 1_555 1_555
Se1 C3 1_555 1_555
Se2 C4 1_555 1_555
Se3 C5 1_555 1_555
Se4 C6 1_555 1_555
S1 C1 1_555 1_555
S2 C1 1_555 1_555
S3 C2 1_555 1_555
S4 C2 1_555 1_555
C1 C2 1_555 1_555
C3 S1 1_555 1_555
C4 S2 1_555 1_555
C5 S3 1_555 1_555
C6 S4 1_555 1_555
C7 Se1 1_555 1_555
C8 Se2 1_555 1_555
C9 Se3 1_555 1_555
C10 Se4 1_555 1_555
I2A I1 1_555 1_555
C3 C4 1_555 1_555
C5 C6 1_555 1_555
C7 C8 1_555 1_555
C9 C10 1_555 1_555

#END
