
#######################################################################
#
#                 Cambridge Crystallographic Data Centre
#                                CCDC 
#
#######################################################################
#
# If this CIF has been generated from an entry in the Cambridge 
# Structural Database, then it will include bibliographic, chemical, 
# crystal, experimental, refinement or atomic coordinate data resulting 
# from the CCDC's data processing and validation procedures.
#
#######################################################################

data_SESKAE
_chemical_formula_moiety         'C40 H48 O8,C9 H17 N1 O2,2(C1 H4 O1),5(H2 O1)'
_chemical_name_systematic        
'2,8,14,20-tetrapropyl-4,6,10,12,16,18,22,24-octahydroxycalix(4)arene (1-(aminomethyl)cyclohexyl)acetic acid methanol solvate pentahydrate'
_symmetry_cell_setting           triclinic
_symmetry_space_group_name_H-M   'P -1'
_symmetry_Int_Tables_number      2
_space_group_name_Hall           '-P 1'
loop_
_symmetry_equiv_pos_site_id
_symmetry_equiv_pos_as_xyz
1 x,y,z
2 -x,-y,-z
_cell_length_a                   15.554(6)
_cell_length_b                   17.839(7)
_cell_length_c                   20.092(8)
_cell_angle_alpha                104.263(5)
_cell_angle_beta                 92.785(5)
_cell_angle_gamma                91.068(5)
_cell_volume                     5393.96
_cell_formula_units_Z            4
loop_
_atom_site_label
_atom_site_type_symbol
_atom_site_fract_x
_atom_site_fract_y
_atom_site_fract_z
C1 C 0.1952(4) 0.6568(3) 0.2757(3)
C2 C 0.2556(4) 0.6701(4) 0.2307(3)
H1 H 0.2385 0.6902 0.1938
C3 C 0.3405(4) 0.6538(3) 0.2407(3)
C4 C 0.3692(4) 0.6273(3) 0.2971(3)
C5 C 0.3067(4) 0.6155(3) 0.3410(3)
H2 H 0.3245 0.5973 0.3789
C6 C 0.2199(4) 0.6289(3) 0.3325(3)
C7 C 0.0206(4) 0.3931(4) 0.2834(3)
C8 C -0.0179(4) 0.4617(4) 0.2811(3)
H3 H -0.0714 0.4614 0.2583
C9 C 0.0245(4) 0.5306(4) 0.3132(3)
C10 C 0.1045(4) 0.5337(4) 0.3468(3)
C11 C 0.1402(4) 0.4635(4) 0.3472(3)
H4 H 0.1947 0.4642 0.3685
C12 C 0.1001(4) 0.3924(4) 0.3180(3)
C13 C 0.3409(4) 0.2556(3) 0.1789(3)
C14 C 0.2554(4) 0.2365(4) 0.1585(3)
H5 H 0.2407 0.2097 0.1134
C15 C 0.1917(4) 0.2569(4) 0.2045(4)
C16 C 0.2108(4) 0.2961(4) 0.2722(3)
C17 C 0.2975(4) 0.3152(3) 0.2909(3)
H6 H 0.3121 0.3421 0.3360
C18 C 0.3638(4) 0.2963(3) 0.2456(3)
C19 C 0.5319(4) 0.5246(4) 0.2041(3)
C20 C 0.5559(4) 0.4542(4) 0.1665(3)
H7 H 0.5882 0.4510 0.1282
C21 C 0.5318(4) 0.3868(4) 0.1858(3)
C22 C 0.4834(4) 0.3903(4) 0.2427(3)
C23 C 0.4602(4) 0.4639(4) 0.2790(3)
H8 H 0.4258 0.4674 0.3162
C24 C 0.4856(4) 0.5324(4) 0.2627(3)
C25 C 0.1529(4) 0.6108(3) 0.3799(3)
H9 H 0.1102 0.6513 0.3844
C26 C 0.1890(4) 0.6135(4) 0.4525(3)
H10 H 0.2219 0.6616 0.4704
H11 H 0.2277 0.5712 0.4506
C27 C 0.1180(4) 0.6076(5) 0.5013(3)
H12 H 0.0787 0.6494 0.5022
H13 H 0.0857 0.5592 0.4835
C28 C 0.1523(5) 0.6116(6) 0.5743(4)
H14 H 0.1906 0.5699 0.5738
H15 H 0.1050 0.6071 0.6022
H16 H 0.1827 0.6601 0.5928
C29 C 0.1408(4) 0.3169(4) 0.3234(3)
H17 H 0.0955 0.2763 0.3094
C30 C 0.1701(4) 0.3186(4) 0.3973(3)
H18 H 0.2025 0.2728 0.3975
H19 H 0.2082 0.3634 0.4154
C31 C 0.0955(4) 0.3218(5) 0.4442(4)
H20 H 0.0595 0.3644 0.4400
H21 H 0.0607 0.2744 0.4287
C32 C 0.1235(5) 0.3320(5) 0.5193(4)
H22 H 0.1581 0.2894 0.5242
H23 H 0.0736 0.3334 0.5459
H24 H 0.1566 0.3795 0.5355
C33 C 0.4574(4) 0.3196(3) 0.2673(3)
H25 H 0.4922 0.2770 0.2435
C34 C 0.4796(4) 0.3319(4) 0.3445(3)
H26 H 0.4502 0.3769 0.3694
H27 H 0.4585 0.2874 0.3592
C35 C 0.5766(4) 0.3436(4) 0.3631(3)
H28 H 0.6059 0.2977 0.3400
H29 H 0.5983 0.3868 0.3468
C36 C 0.5967(5) 0.3592(5) 0.4398(4)
H30 H 0.5696 0.4056 0.4627
H31 H 0.6579 0.3653 0.4491
H32 H 0.5755 0.3165 0.4562
C37 C 0.4638(4) 0.6107(3) 0.3080(3)
H33 H 0.4969 0.6497 0.2923
C38 C 0.4932(4) 0.6187(4) 0.3827(3)
H34 H 0.4661 0.5775 0.3987
H35 H 0.4739 0.6675 0.4101
C39 C 0.5909(4) 0.6158(5) 0.3943(4)
H36 H 0.6112 0.5704 0.3623
H37 H 0.6175 0.6610 0.3842
C40 C 0.6192(6) 0.6130(6) 0.4657(4)
H38 H 0.5992 0.6575 0.4978
H39 H 0.6809 0.6127 0.4699
H40 H 0.5957 0.5669 0.4753
O1 O 0.1121(3) 0.6745(3) 0.2611(2)
H41 H 0.0811 0.6659 0.2903
O2 O 0.3941(3) 0.6655(2) 0.1912(2)
H42 H 0.4434 0.6545 0.2008
O3 O -0.0190(3) 0.3225(2) 0.2500(2)
H43 H -0.0646 0.3300 0.2309
O4 O -0.0131(3) 0.6008(2) 0.3123(2)
H44 H -0.0600 0.5924 0.2910
O5 O 0.4049(3) 0.2364(2) 0.1341(2)
H45 H 0.3838 0.2134 0.0962
O6 O 0.1079(3) 0.2340(3) 0.1790(2)
H46 H 0.0745 0.2484 0.2096
O7 O 0.5514(3) 0.5924(2) 0.1857(2)
H47 H 0.5781 0.5825 0.1505
O8 O 0.5589(3) 0.3179(2) 0.1472(2)
H48 H 0.5865 0.3257 0.1157
C41 C 0.6255(4) 1.1469(3) 0.2168(3)
C42 C 0.7092(4) 1.1612(4) 0.2021(3)
H49 H 0.7201 1.1728 0.1606
C43 C 0.7757(4) 1.1584(3) 0.2480(3)
C44 C 0.7624(4) 1.1423(3) 0.3108(3)
C45 C 0.6768(4) 1.1291(3) 0.3238(3)
H50 H 0.6659 1.1184 0.3657
C46 C 0.6070(4) 1.1307(3) 0.2788(3)
C47 C 0.4185(4) 0.8829(3) 0.1978(3)
C48 C 0.3956(4) 0.9440(4) 0.1694(3)
H51 H 0.3586 0.9350 0.1304
C49 C 0.4283(4) 1.0184(4) 0.1996(3)
C50 C 0.4848(4) 1.0324(4) 0.2568(3)
C51 C 0.5093(4) 0.9697(4) 0.2808(3)
H52 H 0.5502 0.9781 0.3174
C52 C 0.4768(4) 0.8942(4) 0.2539(3)
C53 C 0.7659(4) 0.7701(4) 0.2424(3)
C54 C 0.6987(4) 0.7429(4) 0.1938(3)
H53 H 0.7091 0.7098 0.1515
C55 C 0.6158(4) 0.7657(3) 0.2094(3)
C56 C 0.5986(4) 0.8112(3) 0.2734(3)
C57 C 0.6684(4) 0.8369(3) 0.3208(3)
H54 H 0.6578 0.8678 0.3639
C58 C 0.7528(4) 0.8181(3) 0.3061(3)
C59 C 0.9530(4) 1.0475(4) 0.3075(3)
C60 C 0.9900(4) 0.9757(4) 0.2896(3)
H55 H 1.0418 0.9701 0.2680
C61 C 0.9489(4) 0.9119(4) 0.3044(3)
C62 C 0.8720(4) 0.9195(4) 0.3379(3)
C63 C 0.8379(4) 0.9925(4) 0.3537(3)
H56 H 0.7855 0.9982 0.3745
C64 C 0.8765(4) 1.0575(4) 0.3406(3)
C65 C 0.5153(4) 1.1139(4) 0.2937(3)
H57 H 0.4791 1.1490 0.2750
C66 C 0.5002(4) 1.1310(4) 0.3708(3)
H58 H 0.5257 1.1815 0.3934
H59 H 0.5292 1.0929 0.3902
C67 C 0.4042(4) 1.1298(4) 0.3859(3)
H60 H 0.3753 1.1689 0.3678
H61 H 0.3783 1.0798 0.3626
C68 C 0.3912(5) 1.1449(6) 0.4616(4)
H62 H 0.4104 1.1015 0.4781
H63 H 0.3312 1.1520 0.4695
H64 H 0.4237 1.1906 0.4857
C69 C 0.5054(4) 0.8311(4) 0.2888(3)
H65 H 0.4699 0.7847 0.2675
C70 C 0.4886(4) 0.8519(4) 0.3654(3)
H66 H 0.5106 0.8116 0.3857
H67 H 0.5199 0.8998 0.3876
C71 C 0.3937(4) 0.8613(4) 0.3788(3)
H68 H 0.3625 0.8128 0.3586
H69 H 0.3708 0.9001 0.3569
C72 C 0.3801(5) 0.8856(7) 0.4557(4)
H70 H 0.3927 0.8433 0.4759
H71 H 0.3213 0.8996 0.4627
H72 H 0.4176 0.9291 0.4769
C73 C 0.8280(4) 0.8508(4) 0.3567(3)
H73 H 0.8704 0.8101 0.3517
C74 C 0.8053(4) 0.8711(4) 0.4322(3)
H74 H 0.7673 0.9146 0.4400
H75 H 0.7741 0.8274 0.4414
C75 C 0.8833(5) 0.8915(5) 0.4822(4)
H76 H 0.9141 0.9356 0.4734
H77 H 0.9216 0.8483 0.4742
C76 C 0.8601(5) 0.9109(5) 0.5570(4)
H78 H 0.8239 0.9549 0.5658
H79 H 0.9117 0.9226 0.5863
H80 H 0.8300 0.8674 0.5662
C77 C 0.8367(4) 1.1367(3) 0.3615(3)
H81 H 0.8810 1.1748 0.3576
C78 C 0.8138(4) 1.1557(4) 0.4364(3)
H82 H 0.7750 1.1154 0.4434
H83 H 0.7836 1.2040 0.4467
C79 C 0.8922(4) 1.1630(4) 0.4857(3)
H84 H 0.9262 1.2085 0.4839
H85 H 0.9273 1.1182 0.4705
C80 C 0.8705(5) 1.1691(4) 0.5599(4)
H86 H 0.8311 1.2101 0.5740
H87 H 0.9222 1.1799 0.5891
H88 H 0.8444 1.1211 0.5634
O9 O 0.5624(3) 1.1500(2) 0.1663(2)
H89 H 0.5150 1.1408 0.1792
O10 O 0.8567(3) 1.1735(3) 0.2279(2)
H90 H 0.8929 1.1708 0.2582
O11 O 0.3793(3) 0.8127(2) 0.1652(2)
H91 H 0.3959 0.7794 0.1841
O12 O 0.4064(3) 1.0802(2) 0.1739(2)
H92 H 0.3728 1.0656 0.1403
O13 O 0.8462(3) 0.7434(2) 0.2219(2)
H93 H 0.8827 0.7606 0.2531
O14 O 0.5487(3) 0.7478(2) 0.1615(2)
H94 H 0.5656 0.7209 0.1255
O15 O 0.9915(3) 1.1108(2) 0.2921(2)
H95 H 1.0358 1.0979 0.2724
O16 O 0.9811(3) 0.8391(2) 0.2854(2)
H96 H 1.0262 0.8410 0.2663
C81 C 0.2683(6) 0.5382(4) 0.0594(4)
H97 H 0.2142 0.5567 0.0783
H98 H 0.3143 0.5699 0.0876
C82 C 0.2781(5) 0.4546(4) 0.0644(3)
C83 C 0.2639(6) 0.4530(4) 0.1402(4)
H99 H 0.2815 0.4035 0.1472
H100 H 0.3005 0.4929 0.1706
C84 C 0.1709(6) 0.4654(5) 0.1598(4)
H101 H 0.1656 0.4593 0.2061
H102 H 0.1558 0.5179 0.1596
C85 C 0.1094(6) 0.4098(6) 0.1116(4)
H103 H 0.0509 0.4222 0.1240
H104 H 0.1196 0.3578 0.1161
C86 C 0.1192(5) 0.4127(5) 0.0375(4)
H105 H 0.1022 0.4628 0.0316
H106 H 0.0816 0.3734 0.0074
C87 C 0.2135(5) 0.3990(4) 0.0175(4)
H107 H 0.2278 0.3465 0.0184
H108 H 0.2184 0.4038 -0.0292
C88 C 0.3711(5) 0.4265(4) 0.0501(4)
H109 H 0.4110 0.4688 0.0721
H110 H 0.3812 0.3849 0.0725
C89 C 0.3934(5) 0.3986(5) -0.0235(4)
N1 N 0.2701(5) 0.5488(4) -0.0116(3)
H111 H 0.2763 0.5096 -0.0456
H112 H 0.2649 0.5942 -0.0186
O17 O 0.3789(3) 0.4392(3) -0.0657(3)
O18 O 0.4265(4) 0.3341(3) -0.0399(2)
H113 H 0.4364 0.3240 -0.0808
C90 C 0.3144(5) 0.0673(5) -0.1483(4)
H114 H 0.3228 0.0126 -0.1672
H115 H 0.3001 0.0902 -0.1863
C91 C 0.2391(5) 0.0767(4) -0.1013(4)
C92 C 0.2177(5) 0.1618(4) -0.0733(4)
H116 H 0.2637 0.1870 -0.0406
H117 H 0.2158 0.1869 -0.1110
C93 C 0.1343(6) 0.1734(5) -0.0389(4)
H118 H 0.1240 0.2283 -0.0239
H119 H 0.1372 0.1525 0.0014
C94 C 0.0588(6) 0.1325(6) -0.0890(5)
H120 H 0.0054 0.1386 -0.0655
H121 H 0.0528 0.1562 -0.1276
C95 C 0.0762(5) 0.0471(6) -0.1150(4)
H122 H 0.0304 0.0223 -0.1480
H123 H 0.0773 0.0227 -0.0769
C96 C 0.1622(5) 0.0367(5) -0.1489(4)
H124 H 0.1586 0.0573 -0.1893
H125 H 0.1725 -0.0182 -0.1641
C97 C 0.2555(5) 0.0336(5) -0.0448(4)
H126 H 0.1996 0.0203 -0.0307
H127 H 0.2817 -0.0147 -0.0660
C98 C 0.3095(5) 0.0699(4) 0.0201(4)
N2 N 0.3968(4) 0.1041(4) -0.1123(3)
H128 H 0.3981 0.1274 -0.0693
H129 H 0.4429 0.1018 -0.1346
O19 O 0.3660(4) 0.1215(3) 0.0220(2)
H130 H 0.3678 0.1305 -0.0160
O20 O 0.2956(3) 0.0460(3) 0.0721(2)
C99 C 0.7588(6) 0.3620(6) 0.2415(6)
H131 H 0.7745 0.4058 0.2789
H132 H 0.7526 0.3167 0.2588
H133 H 0.7053 0.3711 0.2194
O21 O 0.8264(4) 0.3503(4) 0.1915(4)
H134 H 0.8041 0.3426 0.1525
C100 C -0.2349(6) 0.5883(7) 0.2732(7)
H135 H -0.2379 0.6337 0.3103
H136 H -0.2319 0.5433 0.2913
H137 H -0.2853 0.5840 0.2428
O22 O -0.1576(4) 0.5943(3) 0.2350(3)
H138 H -0.1585 0.5586 0.2003
C101 C 0.2130(6) 0.0867(5) 0.2604(5)
H139 H 0.2540 0.1056 0.2337
H140 H 0.2311 0.0381 0.2677
H141 H 0.2093 0.1234 0.3040
O23 O 0.1314(4) 0.0766(4) 0.2248(3)
H142 H 0.1362 0.0513 0.1852
C102 C 0.1994(6) 0.8713(6) 0.2772(5)
H143 H 0.2489 0.8811 0.2535
H144 H 0.2103 0.8293 0.2981
H145 H 0.1879 0.9169 0.3121
O24 O 0.1302(4) 0.8526(4) 0.2317(4)
H146 H 0.1447 0.8231 0.1961
O25 O 0.1569(5) -0.0327(4) 0.1008(4)
O26 O 0.0505(8) 0.0992(7) 0.0826(6)
O27 O 0.2019(5) 0.8089(5) 0.1140(4)
O28 O 0.0322(8) 0.6247(7) 0.1200(6)
O29 O 0.2894(7) 0.6805(6) -0.0703(5)
O30 O 0.1221(9) 0.6730(8) 0.0375(7)
O31 O 0.5984(8) 0.3070(7) 0.0126(6)
O32 O -0.1026(9) 0.5003(7) 0.1041(6)
O33 O 0.064(2) 0.696(2) -0.069(2)
O34? O 0.5348(8) 0.2208(8) -0.0253(7)
O35? O -0.1575(14) 0.4605(12) 0.1083(9)
O36? O 0.2561(10) 0.8345(10) -0.0076(7)
O37? O 0.4606(10) 0.9821(10) -0.0435(8)
O38? O 0.3322(13) 0.8450(9) -0.0049(8)
O39? O 0.230(3) 0.886(3) 0.019(2)
O40? O 0.4174(8) 0.8990(7) -0.0249(6)
O41? O 0.1798(10) 0.7704(9) -0.0728(8)
O42? O 0.1085(6) 0.8412(6) -0.0840(5)
loop_
_geom_bond_atom_site_label_1
_geom_bond_atom_site_label_2
_geom_bond_site_symmetry_1
_geom_bond_site_symmetry_2
C1 C2 1_555 1_555
C2 H1 1_555 1_555
C3 C2 1_555 1_555
C4 C3 1_555 1_555
C5 C4 1_555 1_555
H2 C5 1_555 1_555
C6 C1 1_555 1_555
C7 C8 1_555 1_555
C8 H3 1_555 1_555
C9 C8 1_555 1_555
C10 C9 1_555 1_555
C11 C10 1_555 1_555
H4 C11 1_555 1_555
C12 C7 1_555 1_555
C13 C14 1_555 1_555
C14 H5 1_555 1_555
C15 C14 1_555 1_555
C16 C15 1_555 1_555
C17 C16 1_555 1_555
H6 C17 1_555 1_555
C18 C13 1_555 1_555
C19 C20 1_555 1_555
C20 H7 1_555 1_555
C21 C20 1_555 1_555
C22 C21 1_555 1_555
C23 C22 1_555 1_555
H8 C23 1_555 1_555
C24 C19 1_555 1_555
C25 C6 1_555 1_555
H9 C25 1_555 1_555
C26 C25 1_555 1_555
H10 C26 1_555 1_555
H11 C26 1_555 1_555
C27 C26 1_555 1_555
H12 C27 1_555 1_555
H13 C27 1_555 1_555
C28 C27 1_555 1_555
H14 C28 1_555 1_555
H15 C28 1_555 1_555
H16 C28 1_555 1_555
C29 C12 1_555 1_555
H17 C29 1_555 1_555
C30 C29 1_555 1_555
H18 C30 1_555 1_555
H19 C30 1_555 1_555
C31 C30 1_555 1_555
H20 C31 1_555 1_555
H21 C31 1_555 1_555
C32 C31 1_555 1_555
H22 C32 1_555 1_555
H23 C32 1_555 1_555
H24 C32 1_555 1_555
C33 C18 1_555 1_555
H25 C33 1_555 1_555
C34 C33 1_555 1_555
H26 C34 1_555 1_555
H27 C34 1_555 1_555
C35 C34 1_555 1_555
H28 C35 1_555 1_555
H29 C35 1_555 1_555
C36 C35 1_555 1_555
H30 C36 1_555 1_555
H31 C36 1_555 1_555
H32 C36 1_555 1_555
C37 C4 1_555 1_555
H33 C37 1_555 1_555
C38 C37 1_555 1_555
H34 C38 1_555 1_555
H35 C38 1_555 1_555
C39 C38 1_555 1_555
H36 C39 1_555 1_555
H37 C39 1_555 1_555
C40 C39 1_555 1_555
H38 C40 1_555 1_555
H39 C40 1_555 1_555
H40 C40 1_555 1_555
O1 C1 1_555 1_555
H41 O1 1_555 1_555
O2 C3 1_555 1_555
H42 O2 1_555 1_555
O3 C7 1_555 1_555
H43 O3 1_555 1_555
O4 C9 1_555 1_555
H44 O4 1_555 1_555
O5 C13 1_555 1_555
H45 O5 1_555 1_555
O6 C15 1_555 1_555
H46 O6 1_555 1_555
O7 C19 1_555 1_555
H47 O7 1_555 1_555
O8 C21 1_555 1_555
H48 O8 1_555 1_555
C41 C42 1_555 1_555
C42 H49 1_555 1_555
C43 C42 1_555 1_555
C44 C43 1_555 1_555
C45 C44 1_555 1_555
H50 C45 1_555 1_555
C46 C41 1_555 1_555
C47 C48 1_555 1_555
C48 H51 1_555 1_555
C49 C48 1_555 1_555
C50 C49 1_555 1_555
C51 C50 1_555 1_555
H52 C51 1_555 1_555
C52 C47 1_555 1_555
C53 C54 1_555 1_555
C54 H53 1_555 1_555
C55 C54 1_555 1_555
C56 C55 1_555 1_555
C57 C56 1_555 1_555
H54 C57 1_555 1_555
C58 C53 1_555 1_555
C59 C60 1_555 1_555
C60 H55 1_555 1_555
C61 C60 1_555 1_555
C62 C61 1_555 1_555
C63 C62 1_555 1_555
H56 C63 1_555 1_555
C64 C59 1_555 1_555
C65 C46 1_555 1_555
H57 C65 1_555 1_555
C66 C65 1_555 1_555
H58 C66 1_555 1_555
H59 C66 1_555 1_555
C67 C66 1_555 1_555
H60 C67 1_555 1_555
H61 C67 1_555 1_555
C68 C67 1_555 1_555
H62 C68 1_555 1_555
H63 C68 1_555 1_555
H64 C68 1_555 1_555
C69 C52 1_555 1_555
H65 C69 1_555 1_555
C70 C69 1_555 1_555
H66 C70 1_555 1_555
H67 C70 1_555 1_555
C71 C70 1_555 1_555
H68 C71 1_555 1_555
H69 C71 1_555 1_555
C72 C71 1_555 1_555
H70 C72 1_555 1_555
H71 C72 1_555 1_555
H72 C72 1_555 1_555
C73 C58 1_555 1_555
H73 C73 1_555 1_555
C74 C73 1_555 1_555
H74 C74 1_555 1_555
H75 C74 1_555 1_555
C75 C74 1_555 1_555
H76 C75 1_555 1_555
H77 C75 1_555 1_555
C76 C75 1_555 1_555
H78 C76 1_555 1_555
H79 C76 1_555 1_555
H80 C76 1_555 1_555
C77 C44 1_555 1_555
H81 C77 1_555 1_555
C78 C77 1_555 1_555
H82 C78 1_555 1_555
H83 C78 1_555 1_555
C79 C78 1_555 1_555
H84 C79 1_555 1_555
H85 C79 1_555 1_555
C80 C79 1_555 1_555
H86 C80 1_555 1_555
H87 C80 1_555 1_555
H88 C80 1_555 1_555
O9 C41 1_555 1_555
H89 O9 1_555 1_555
O10 C43 1_555 1_555
H90 O10 1_555 1_555
O11 C47 1_555 1_555
H91 O11 1_555 1_555
O12 C49 1_555 1_555
H92 O12 1_555 1_555
O13 C53 1_555 1_555
H93 O13 1_555 1_555
O14 C55 1_555 1_555
H94 O14 1_555 1_555
O15 C59 1_555 1_555
H95 O15 1_555 1_555
O16 C61 1_555 1_555
H96 O16 1_555 1_555
C81 H97 1_555 1_555
H98 C81 1_555 1_555
C82 C81 1_555 1_555
C83 C82 1_555 1_555
H99 C83 1_555 1_555
H100 C83 1_555 1_555
C84 C83 1_555 1_555
H101 C84 1_555 1_555
H102 C84 1_555 1_555
C85 C84 1_555 1_555
H103 C85 1_555 1_555
H104 C85 1_555 1_555
C86 C85 1_555 1_555
H105 C86 1_555 1_555
H106 C86 1_555 1_555
C87 C82 1_555 1_555
H107 C87 1_555 1_555
H108 C87 1_555 1_555
C88 C82 1_555 1_555
H109 C88 1_555 1_555
H110 C88 1_555 1_555
C89 C88 1_555 1_555
N1 C81 1_555 1_555
H111 N1 1_555 1_555
H112 N1 1_555 1_555
O17 C89 1_555 1_555
O18 C89 1_555 1_555
H113 O18 1_555 1_555
C90 H114 1_555 1_555
H115 C90 1_555 1_555
C91 C90 1_555 1_555
C92 C91 1_555 1_555
H116 C92 1_555 1_555
H117 C92 1_555 1_555
C93 C92 1_555 1_555
H118 C93 1_555 1_555
H119 C93 1_555 1_555
C94 C93 1_555 1_555
H120 C94 1_555 1_555
H121 C94 1_555 1_555
C95 C94 1_555 1_555
H122 C95 1_555 1_555
H123 C95 1_555 1_555
C96 C91 1_555 1_555
H124 C96 1_555 1_555
H125 C96 1_555 1_555
C97 C91 1_555 1_555
H126 C97 1_555 1_555
H127 C97 1_555 1_555
C98 C97 1_555 1_555
N2 C90 1_555 1_555
H128 N2 1_555 1_555
H129 N2 1_555 1_555
O19 C98 1_555 1_555
H130 O19 1_555 1_555
O20 C98 1_555 1_555
C99 H131 1_555 1_555
H132 C99 1_555 1_555
H133 C99 1_555 1_555
O21 C99 1_555 1_555
H134 O21 1_555 1_555
C100 H135 1_555 1_555
H136 C100 1_555 1_555
H137 C100 1_555 1_555
O22 C100 1_555 1_555
H138 O22 1_555 1_555
C101 H139 1_555 1_555
H140 C101 1_555 1_555
H141 C101 1_555 1_555
O23 C101 1_555 1_555
H142 O23 1_555 1_555
C102 H143 1_555 1_555
H144 C102 1_555 1_555
H145 C102 1_555 1_555
O24 C102 1_555 1_555
H146 O24 1_555 1_555
C5 C6 1_555 1_555
C10 C25 1_555 1_555
C11 C12 1_555 1_555
C16 C29 1_555 1_555
C17 C18 1_555 1_555
C22 C33 1_555 1_555
C23 C24 1_555 1_555
C24 C37 1_555 1_555
C45 C46 1_555 1_555
C50 C65 1_555 1_555
C51 C52 1_555 1_555
C56 C69 1_555 1_555
C57 C58 1_555 1_555
C62 C73 1_555 1_555
C63 C64 1_555 1_555
C64 C77 1_555 1_555
C86 C87 1_555 1_555
C95 C96 1_555 1_555

#END
