
#######################################################################
#
#                 Cambridge Crystallographic Data Centre
#                                CCDC 
#
#######################################################################
#
# If this CIF has been generated from an entry in the Cambridge 
# Structural Database, then it will include bibliographic, chemical, 
# crystal, experimental, refinement or atomic coordinate data resulting 
# from the CCDC's data processing and validation procedures.
#
#######################################################################

data_SESLIO
_chemical_formula_moiety         'C55 H45 B1 F2 N4'
_chemical_name_systematic        
4-(8-(4-(diphenylamino)phenyl)-5,5-difluoro-1,3,7,9-tetramethyl-10-phenyl-5H-4,5-dipyrrolo[1,2-c:2',1'-f][1,3,2]diazaborinin-2-yl)-N,N-diphenylaniline
_symmetry_cell_setting           triclinic
_symmetry_space_group_name_H-M   'P -1'
_symmetry_Int_Tables_number      2
_space_group_name_Hall           '-P 1'
loop_
_symmetry_equiv_pos_site_id
_symmetry_equiv_pos_as_xyz
1 x,y,z
2 -x,-y,-z
_cell_length_a                   13.1460(16)
_cell_length_b                   13.4370(16)
_cell_length_c                   13.7930(16)
_cell_angle_alpha                93.212(2)
_cell_angle_beta                 117.668(2)
_cell_angle_gamma                92.008(2)
_cell_volume                     2149.3
_exptl_crystal_colour            purple
_exptl_crystal_description       block
_cell_formula_units_Z            2
loop_
_atom_site_label
_atom_site_type_symbol
_atom_site_fract_x
_atom_site_fract_y
_atom_site_fract_z
F1 F 0.13175(15) 0.37586(14) 0.15216(14)
F2 F 0.12928(15) 0.46733(13) 0.29225(15)
N1 N -0.03977(19) 0.36024(16) 0.17168(18)
N2 N 0.14154(19) 0.29035(17) 0.30517(18)
C1 C -0.3336(2) 0.4034(2) -0.0409(2)
N3 N 0.6680(2) 0.05620(19) 0.7788(2)
N4 N -0.6468(2) 0.49053(19) -0.2923(2)
C2 C -0.0441(2) 0.2005(2) 0.2433(2)
C3 C -0.0999(2) 0.2722(2) 0.1705(2)
C4 C 0.1495(2) 0.1525(2) 0.3965(2)
C5 C 0.7775(2) 0.1067(2) 0.8174(2)
C6 C -0.2265(2) 0.3671(2) 0.0460(2)
C7 C -0.2172(2) 0.2755(2) 0.0900(2)
C8 C 0.0751(2) 0.2111(2) 0.3126(2)
C9 C 0.4507(3) 0.2280(2) 0.6098(2)
H1 H 0.4405 0.2962 0.6092
C10 C -0.6460(3) 0.5766(2) -0.3478(2)
C11 C 0.2523(2) 0.2822(2) 0.3795(2)
C12 C 0.2604(2) 0.1976(2) 0.4382(2)
C13 C -0.5434(3) 0.4606(2) -0.2089(2)
C14 C -0.1158(2) 0.4185(2) 0.0980(2)
C15 C 0.4847(3) 0.0274(2) 0.6131(2)
H2 H 0.4959 -0.0406 0.6131
C16 C 0.3667(2) 0.1629(2) 0.5266(2)
C17 C 0.5669(2) 0.0929(2) 0.6957(2)
C18 C -0.7556(3) 0.4395(2) -0.3216(2)
C19 C -0.1144(2) 0.1129(2) 0.2465(2)
C20 C 0.5485(3) 0.1941(2) 0.6932(2)
H3 H 0.6024 0.2394 0.7480
B1 B 0.0930(3) 0.3765(3) 0.2296(3)
C21 C 0.6570(2) -0.0316(2) 0.8275(2)
C22 C -0.3381(3) 0.4454(2) -0.1323(2)
H4 H -0.2709 0.4550 -0.1384
C23 C -0.1884(3) 0.1254(3) 0.2917(2)
H5 H -0.1913 0.1878 0.3226
C24 C 0.3866(3) 0.0615(2) 0.5310(2)
H6 H 0.3323 0.0158 0.4771
C25 C 0.8612(3) 0.1021(3) 0.9247(2)
H7 H 0.8454 0.0642 0.9712
C26 C -0.4416(3) 0.4733(2) -0.2151(2)
H8 H -0.4424 0.5011 -0.2757
C27 C -0.5850(3) 0.7472(2) -0.3438(3)
H9 H -0.5444 0.8061 -0.3037
C28 C 0.3477(3) 0.3524(2) 0.3883(3)
H10 H 0.3161 0.4032 0.3382
H11 H 0.3992 0.3161 0.3704
H12 H 0.3892 0.3830 0.4620
C29 C -0.1086(3) 0.0193(2) 0.2031(2)
H13 H -0.0575 0.0101 0.1747
C30 C -0.4363(3) 0.3909(2) -0.0358(2)
H14 H -0.4358 0.3631 0.0247
C31 C -0.3122(3) 0.1948(2) 0.0526(3)
H15 H -0.2843 0.1388 0.0958
H16 H -0.3380 0.1741 -0.0234
H17 H -0.3751 0.2198 0.0615
C32 C -0.5862(3) 0.6643(2) -0.2902(2)
H18 H -0.5460 0.6677 -0.2139
C33 C -0.7058(3) 0.5729(2) -0.4616(3)
H19 H -0.7473 0.5144 -0.5019
C34 C -0.0824(3) 0.5218(2) 0.0851(3)
H20 H -0.0011 0.5358 0.1309
H21 H -0.1235 0.5685 0.1064
H22 H -0.1009 0.5279 0.0098
C35 C 0.1147(3) 0.0637(2) 0.4394(3)
H23 H 0.0334 0.0478 0.3966
H24 H 0.1333 0.0794 0.5148
H25 H 0.1554 0.0075 0.4341
C36 C -0.5393(3) 0.4187(2) -0.1180(2)
H26 H -0.6065 0.4090 -0.1121
C37 C 0.7186(3) -0.1130(2) 0.8293(3)
H27 H 0.7650 -0.1124 0.7950
C38 C 0.8046(3) 0.1621(3) 0.7503(3)
H28 H 0.7508 0.1650 0.6771
C39 C 0.9672(3) 0.1526(3) 0.9641(3)
H29 H 1.0224 0.1482 1.0366
C40 C -0.6435(3) 0.7432(3) -0.4567(3)
H30 H -0.6422 0.7992 -0.4929
C41 C 0.5866(3) -0.0343(3) 0.8761(3)
H31 H 0.5425 0.0192 0.8731
C42 C 0.9922(3) 0.2092(3) 0.8977(3)
H32 H 1.0634 0.2444 0.9246
C43 C -0.2534(3) -0.0463(3) 0.2454(3)
H33 H -0.3014 -0.0997 0.2438
C44 C -0.7036(3) 0.6566(3) -0.5151(3)
H34 H -0.7434 0.6538 -0.5914
C45 C -0.7688(3) 0.3367(3) -0.3338(3)
H35 H -0.7052 0.2998 -0.3182
C46 C -0.2575(3) 0.0458(3) 0.2909(3)
H36 H -0.3071 0.0545 0.3211
C47 C 0.5813(3) -0.1173(3) 0.9300(3)
H37 H 0.5347 -0.1184 0.9640
C48 C -0.8499(3) 0.4930(3) -0.3415(3)
H38 H -0.8418 0.5623 -0.3301
C49 C -0.1782(3) -0.0606(3) 0.2019(3)
H39 H -0.1748 -0.1234 0.1721
C50 C 0.9105(3) 0.2131(3) 0.7907(3)
H40 H 0.9270 0.2508 0.7447
C51 C 0.6435(4) -0.1962(3) 0.9333(3)
H41 H 0.6403 -0.2511 0.9703
C52 C -0.9573(3) 0.4426(4) -0.3786(3)
H42 H -1.0212 0.4787 -0.3936
C53 C -0.9699(4) 0.3410(4) -0.3934(3)
H43 H -1.0423 0.3080 -0.4199
C54 C 0.7114(4) -0.1951(3) 0.8817(3)
H44 H 0.7527 -0.2501 0.8823
C55 C -0.8750(4) 0.2880(3) -0.3687(3)
H45 H -0.8825 0.2186 -0.3757
loop_
_geom_bond_atom_site_label_1
_geom_bond_atom_site_label_2
_geom_bond_site_symmetry_1
_geom_bond_site_symmetry_2
F1 B1 1_555 1_555
F2 B1 1_555 1_555
N1 C3 1_555 1_555
N2 C8 1_555 1_555
C1 C6 1_555 1_555
N3 C5 1_555 1_555
N4 C10 1_555 1_555
C2 C3 1_555 1_555
C3 C7 1_555 1_555
C4 C8 1_555 1_555
C5 C25 1_555 1_555
C6 C7 1_555 1_555
C7 C31 1_555 1_555
C8 C2 1_555 1_555
C9 H1 1_555 1_555
C10 C32 1_555 1_555
C11 N2 1_555 1_555
C12 C4 1_555 1_555
C13 N4 1_555 1_555
C14 N1 1_555 1_555
C15 H2 1_555 1_555
C16 C9 1_555 1_555
C17 N3 1_555 1_555
C18 N4 1_555 1_555
C19 C2 1_555 1_555
C20 C9 1_555 1_555
H3 C20 1_555 1_555
B1 N1 1_555 1_555
C21 N3 1_555 1_555
C22 C1 1_555 1_555
H4 C22 1_555 1_555
C23 C19 1_555 1_555
H5 C23 1_555 1_555
C24 C15 1_555 1_555
H6 C24 1_555 1_555
C25 H7 1_555 1_555
C26 C13 1_555 1_555
H8 C26 1_555 1_555
C27 H9 1_555 1_555
C28 C11 1_555 1_555
H10 C28 1_555 1_555
H11 C28 1_555 1_555
H12 C28 1_555 1_555
C29 C19 1_555 1_555
H13 C29 1_555 1_555
C30 C1 1_555 1_555
H14 C30 1_555 1_555
C31 H15 1_555 1_555
H16 C31 1_555 1_555
H17 C31 1_555 1_555
C32 C27 1_555 1_555
H18 C32 1_555 1_555
C33 C10 1_555 1_555
H19 C33 1_555 1_555
C34 C14 1_555 1_555
H20 C34 1_555 1_555
H21 C34 1_555 1_555
H22 C34 1_555 1_555
C35 C4 1_555 1_555
H23 C35 1_555 1_555
H24 C35 1_555 1_555
H25 C35 1_555 1_555
C36 C13 1_555 1_555
H26 C36 1_555 1_555
C37 C21 1_555 1_555
H27 C37 1_555 1_555
C38 C5 1_555 1_555
H28 C38 1_555 1_555
C39 C25 1_555 1_555
H29 C39 1_555 1_555
C40 C27 1_555 1_555
H30 C40 1_555 1_555
C41 C21 1_555 1_555
H31 C41 1_555 1_555
C42 C39 1_555 1_555
H32 C42 1_555 1_555
C43 H33 1_555 1_555
C44 C33 1_555 1_555
H34 C44 1_555 1_555
C45 C18 1_555 1_555
H35 C45 1_555 1_555
C46 C23 1_555 1_555
H36 C46 1_555 1_555
C47 C41 1_555 1_555
H37 C47 1_555 1_555
C48 C18 1_555 1_555
H38 C48 1_555 1_555
C49 C29 1_555 1_555
H39 C49 1_555 1_555
C50 C38 1_555 1_555
H40 C50 1_555 1_555
C51 C47 1_555 1_555
H41 C51 1_555 1_555
C52 C48 1_555 1_555
H42 C52 1_555 1_555
C53 C52 1_555 1_555
H43 C53 1_555 1_555
C54 C37 1_555 1_555
H44 C54 1_555 1_555
C55 C45 1_555 1_555
H45 C55 1_555 1_555
N2 B1 1_555 1_555
C6 C14 1_555 1_555
C11 C12 1_555 1_555
C12 C16 1_555 1_555
C15 C17 1_555 1_555
C16 C24 1_555 1_555
C17 C20 1_555 1_555
C22 C26 1_555 1_555
C30 C36 1_555 1_555
C40 C44 1_555 1_555
C42 C50 1_555 1_555
C43 C46 1_555 1_555
C43 C49 1_555 1_555
C51 C54 1_555 1_555
C53 C55 1_555 1_555

#END
