
#######################################################################
#
#                 Cambridge Crystallographic Data Centre
#                                CCDC 
#
#######################################################################
#
# If this CIF has been generated from an entry in the Cambridge 
# Structural Database, then it will include bibliographic, chemical, 
# crystal, experimental, refinement or atomic coordinate data resulting 
# from the CCDC's data processing and validation procedures.
#
#######################################################################

data_SESMIN
_chemical_formula_moiety         'C25 H21 Cl1 N2 O2'
_chemical_name_systematic        
3,3'-(4-Chlorophenylmethanediyl)-bis(5-methoxy-1H-indole)
_symmetry_cell_setting           monoclinic
_symmetry_space_group_name_H-M   'P 21/n'
_symmetry_Int_Tables_number      14
_space_group_name_Hall           '-P 2yn'
loop_
_symmetry_equiv_pos_site_id
_symmetry_equiv_pos_as_xyz
1 x,y,z
2 1/2-x,1/2+y,1/2-z
3 -x,-y,-z
4 1/2+x,1/2-y,1/2+z
_cell_length_a                   11.273(2)
_cell_length_b                   10.401(2)
_cell_length_c                   18.002(4)
_cell_angle_alpha                90
_cell_angle_beta                 90.38(3)
_cell_angle_gamma                90
_cell_volume                     2110.7
_exptl_crystal_colour            yellow
_exptl_crystal_description       block
_chemical_melting_point          '445-446 K'
_cell_formula_units_Z            4
_exptl_crystal_recrystallization_method methanol
loop_
_atom_site_label
_atom_site_type_symbol
_atom_site_fract_x
_atom_site_fract_y
_atom_site_fract_z
Cl1 Cl 0.78263(10) 0.28444(12) 0.00991(5)
O1 O 0.9099(3) 0.0820(2) 0.63422(12)
O2 O 1.41095(18) 0.2666(3) 0.30504(13)
N1 N 0.6088(2) 0.2211(3) 0.40865(15)
H1 H 0.5328 0.2255 0.4050
N2 N 1.0434(2) 0.5450(2) 0.41977(13)
H2 H 1.0394 0.6175 0.4427
C1 C 1.0316(3) 0.1103(3) 0.6291(2)
H3 H 1.0719 0.0800 0.6729
H4 H 1.0421 0.2016 0.6248
H5 H 1.0639 0.0687 0.5861
C2 C 0.8374(3) 0.1178(3) 0.57644(17)
C3 C 0.7165(4) 0.1125(3) 0.5920(2)
H6 H 0.6924 0.0868 0.6390
C4 C 0.6329(3) 0.1440(3) 0.5402(2)
H7 H 0.5525 0.1387 0.5511
C5 C 0.6707(3) 0.1842(3) 0.47079(18)
C6 C 0.6870(3) 0.2499(3) 0.35336(18)
H8 H 0.6657 0.2773 0.3059
C7 C 0.8005(2) 0.2328(3) 0.37780(15)
C8 C 0.7923(2) 0.1911(3) 0.45363(15)
C9 C 0.8767(3) 0.1572(3) 0.50782(15)
H9 H 0.9574 0.1612 0.4976
C10 C 1.3865(3) 0.1619(4) 0.2570(2)
H10 H 1.4597 0.1223 0.2425
H11 H 1.3452 0.1924 0.2137
H12 H 1.3382 0.1001 0.2824
C11 C 1.3157(3) 0.3355(3) 0.33181(16)
C12 C 1.3469(3) 0.4495(3) 0.36793(18)
H13 H 1.4263 0.4735 0.3703
C13 C 1.2632(3) 0.5268(3) 0.40003(17)
H14 H 1.2843 0.6022 0.4245
C14 C 1.1455(3) 0.4881(3) 0.39461(15)
C15 C 0.9491(3) 0.4676(3) 0.40238(16)
H15 H 0.8707 0.4845 0.4146
C16 C 0.9869(2) 0.3623(3) 0.36462(14)
C17 C 1.1127(2) 0.3739(3) 0.35856(13)
C18 C 1.1998(2) 0.2963(3) 0.32608(14)
H16 H 1.1797 0.2207 0.3014
C19 C 0.9134(2) 0.2521(3) 0.33458(14)
H17 H 0.9609 0.1740 0.3414
C20 C 0.8871(2) 0.2629(3) 0.25184(14)
C21 C 0.8614(3) 0.3792(3) 0.21860(16)
H18 H 0.8655 0.4543 0.2466
C22 C 0.8295(3) 0.3862(3) 0.14431(17)
H19 H 0.8117 0.4652 0.1228
C23 C 0.8243(3) 0.2774(3) 0.10309(16)
C24 C 0.8513(3) 0.1598(3) 0.13382(17)
H20 H 0.8483 0.0855 0.1052
C25 C 0.8829(3) 0.1544(3) 0.20796(17)
H21 H 0.9020 0.0753 0.2289
loop_
_geom_bond_atom_site_label_1
_geom_bond_atom_site_label_2
_geom_bond_site_symmetry_1
_geom_bond_site_symmetry_2
Cl1 C23 1_555 1_555
O1 C1 1_555 1_555
O2 C10 1_555 1_555
N1 H1 1_555 1_555
N2 H2 1_555 1_555
C1 H3 1_555 1_555
H4 C1 1_555 1_555
H5 C1 1_555 1_555
C2 O1 1_555 1_555
C3 C2 1_555 1_555
H6 C3 1_555 1_555
C4 C3 1_555 1_555
H7 C4 1_555 1_555
C5 N1 1_555 1_555
C6 N1 1_555 1_555
H8 C6 1_555 1_555
C7 C6 1_555 1_555
C8 C5 1_555 1_555
C9 C2 1_555 1_555
H9 C9 1_555 1_555
C10 H10 1_555 1_555
H11 C10 1_555 1_555
H12 C10 1_555 1_555
C11 O2 1_555 1_555
C12 C11 1_555 1_555
H13 C12 1_555 1_555
C13 C12 1_555 1_555
H14 C13 1_555 1_555
C14 N2 1_555 1_555
C15 N2 1_555 1_555
H15 C15 1_555 1_555
C16 C15 1_555 1_555
C17 C14 1_555 1_555
C18 C11 1_555 1_555
H16 C18 1_555 1_555
C19 C7 1_555 1_555
H17 C19 1_555 1_555
C20 C19 1_555 1_555
C21 C20 1_555 1_555
H18 C21 1_555 1_555
C22 C21 1_555 1_555
H19 C22 1_555 1_555
C23 C22 1_555 1_555
C24 C23 1_555 1_555
H20 C24 1_555 1_555
C25 C20 1_555 1_555
H21 C25 1_555 1_555
C4 C5 1_555 1_555
C7 C8 1_555 1_555
C8 C9 1_555 1_555
C13 C14 1_555 1_555
C16 C17 1_555 1_555
C16 C19 1_555 1_555
C17 C18 1_555 1_555
C24 C25 1_555 1_555

#END
