
#######################################################################
#
#                 Cambridge Crystallographic Data Centre
#                                CCDC 
#
#######################################################################
#
# If this CIF has been generated from an entry in the Cambridge 
# Structural Database, then it will include bibliographic, chemical, 
# crystal, experimental, refinement or atomic coordinate data resulting 
# from the CCDC's data processing and validation procedures.
#
#######################################################################

data_SESQIR
_chemical_formula_moiety         'C7 H12 N6 O1,2(H2 O1)'
_chemical_name_systematic        
'(S)-N-(1H-Tetrazol-5-ylmethyl)pyrrolidine-2-carboxamide dihydrate'
_symmetry_cell_setting           orthorhombic
_symmetry_space_group_name_H-M   'P 21 21 21'
_symmetry_Int_Tables_number      19
_space_group_name_Hall           'P 2ac 2ab'
loop_
_symmetry_equiv_pos_site_id
_symmetry_equiv_pos_as_xyz
1 x,y,z
2 1/2-x,-y,1/2+z
3 -x,1/2+y,1/2-z
4 1/2+x,1/2-y,-z
_cell_length_a                   9.2217(8)
_cell_length_b                   12.0008(11)
_cell_length_c                   10.2391(10)
_cell_angle_alpha                90
_cell_angle_beta                 90
_cell_angle_gamma                90
_cell_volume                     1133.14
_exptl_crystal_colour            colorless
_exptl_crystal_description       rod
_cell_formula_units_Z            4
_exptl_crystal_recrystallization_method ethanol
loop_
_atom_site_label
_atom_site_type_symbol
_atom_site_fract_x
_atom_site_fract_y
_atom_site_fract_z
N1 N 1.22440(19) 0.81263(14) 0.39529(17)
C1 C 1.1431(2) 0.92102(16) 0.3960(2)
C2 C 1.2355(3) 0.7745(2) 0.2553(2)
H1 H 1.3305 0.7433 0.2375
H2 H 1.1624 0.7187 0.2360
C3 C 1.2106(3) 0.8786(2) 0.1764(2)
H3 H 1.1769 0.8609 0.0891
H4 H 1.2984 0.9228 0.1703
C4 C 1.0946(3) 0.9390(2) 0.2540(2)
H5 H 0.9996 0.9069 0.2385
H6 H 1.0921 1.0177 0.2322
C5 C 1.0151(2) 0.91461(17) 0.4898(2)
C6 C 0.8219(2) 1.01949(18) 0.5946(2)
H7 H 0.8179 1.0927 0.6346
H8 H 0.8273 0.9647 0.6641
C7 C 0.6854(2) 1.00056(16) 0.5173(2)
N2 N 0.9519(2) 1.01164(15) 0.5144(2)
N3 N 0.6113(2) 1.08146(15) 0.46001(19)
N4 N 0.4993(2) 1.03045(16) 0.4028(2)
N5 N 0.5063(2) 0.92343(17) 0.4247(3)
N6 N 0.6240(2) 0.90225(16) 0.4972(3)
H9 H 0.6534 0.8385 0.5249
O1 O 0.9744(2) 0.82510(14) 0.53455(19)
H10 H 0.987(3) 1.0724(14) 0.485(3)
H11 H 1.3126(14) 0.822(2) 0.419(3)
H12 H 1.205(2) 0.9797(18) 0.430(3)
O2 O 1.0795(2) 1.20724(14) 0.4100(2)
H13 H 1.088(4) 1.2673(15) 0.454(3)
H14 H 1.154(3) 1.200(4) 0.361(4)
O3 O 0.3321(3) 1.1963(3) 0.2665(3)
H15 H 0.342(7) 1.212(5) 0.1862(18)
H16 H 0.377(5) 1.138(2) 0.291(5)
loop_
_geom_bond_atom_site_label_1
_geom_bond_atom_site_label_2
_geom_bond_site_symmetry_1
_geom_bond_site_symmetry_2
N1 C1 1_555 1_555
C1 C4 1_555 1_555
C2 N1 1_555 1_555
H1 C2 1_555 1_555
H2 C2 1_555 1_555
C3 C2 1_555 1_555
H3 C3 1_555 1_555
H4 C3 1_555 1_555
C4 C3 1_555 1_555
H5 C4 1_555 1_555
H6 C4 1_555 1_555
C5 C1 1_555 1_555
C6 H7 1_555 1_555
H8 C6 1_555 1_555
C7 C6 1_555 1_555
N2 C5 1_555 1_555
N3 C7 1_555 1_555
N4 N3 1_555 1_555
N5 N4 1_555 1_555
N6 C7 1_555 1_555
H9 N6 1_555 1_555
O1 C5 1_555 1_555
H10 N2 1_555 1_555
H11 N1 1_555 1_555
H12 C1 1_555 1_555
O2 H13 1_555 1_555
H14 O2 1_555 1_555
O3 H15 1_555 1_555
H16 O3 1_555 1_555
C6 N2 1_555 1_555
N5 N6 1_555 1_555

#END
