
#######################################################################
#
#                 Cambridge Crystallographic Data Centre
#                                CCDC 
#
#######################################################################
#
# If this CIF has been generated from an entry in the Cambridge 
# Structural Database, then it will include bibliographic, chemical, 
# crystal, experimental, refinement or atomic coordinate data resulting 
# from the CCDC's data processing and validation procedures.
#
#######################################################################

data_SESREQ
_chemical_formula_moiety         'C17 H15 N3 O1'
_chemical_name_systematic        
3-benzyl-2-methyl-5-[(pyridin-4-yl)methylidene]-3,5-dihydro-4H-imidazol-4-one
_symmetry_cell_setting           monoclinic
_symmetry_space_group_name_H-M   'P 21/n'
_symmetry_Int_Tables_number      14
_space_group_name_Hall           '-P 2yn'
loop_
_symmetry_equiv_pos_site_id
_symmetry_equiv_pos_as_xyz
1 x,y,z
2 1/2-x,1/2+y,1/2-z
3 -x,-y,-z
4 1/2+x,1/2-y,1/2+z
_cell_length_a                   6.9419(6)
_cell_length_b                   27.7029(19)
_cell_length_c                   8.0344(6)
_cell_angle_alpha                90
_cell_angle_beta                 112.018(3)
_cell_angle_gamma                90
_cell_volume                     1432.41
_exptl_crystal_colour            yellow
_exptl_crystal_description       parallelepiped
_cell_formula_units_Z            4
loop_
_atom_site_label
_atom_site_type_symbol
_atom_site_fract_x
_atom_site_fract_y
_atom_site_fract_z
O1 O 0.4186(3) 0.07292(8) 1.0627(3)
N1 N 0.1086(3) 0.11303(7) 1.0101(3)
N2 N -0.1229(3) 0.06234(8) 0.8178(3)
N3 N -0.2455(4) -0.10601(8) 0.4480(3)
C1 C 0.0760(3) 0.04221(9) 0.8635(3)
C2 C 0.2308(4) 0.07559(9) 0.9898(3)
C3 C -0.0972(4) 0.10273(9) 0.9051(3)
C4 C 0.1309(4) 0.00070(9) 0.8084(3)
H1 H 0.2722 -0.0063 0.8542
C5 C -0.0037(4) -0.03493(9) 0.6853(3)
C6 C -0.2202(4) -0.03292(10) 0.6149(4)
H2 H -0.2891 -0.0078 0.6458
C7 C -0.3307(4) -0.06851(10) 0.4992(4)
H3 H -0.4749 -0.0663 0.4535
C8 C -0.0396(4) -0.10765(10) 0.5157(4)
H4 H 0.0244 -0.1333 0.4820
C9 C 0.0859(4) -0.07401(10) 0.6324(3)
H5 H 0.2297 -0.0774 0.6756
C10 C 0.1892(4) 0.15570(10) 1.1186(3)
H6 H 0.3307 0.1494 1.1998
H7 H 0.1070 0.1619 1.1909
C11 C 0.1872(3) 0.20009(9) 1.0101(3)
C12 C 0.1505(4) 0.24490(10) 1.0678(4)
H8 H 0.1247 0.2472 1.1730
C13 C 0.1516(5) 0.28634(11) 0.9721(4)
H9 H 0.1267 0.3162 1.0131
C14 C 0.1890(5) 0.28333(12) 0.8179(4)
H10 H 0.1902 0.3111 0.7535
C15 C 0.2249(5) 0.23922(12) 0.7575(4)
H11 H 0.2496 0.2372 0.6517
C16 C 0.2245(4) 0.19786(11) 0.8530(3)
H12 H 0.2497 0.1681 0.8112
C17 C -0.2671(4) 0.13554(10) 0.9024(4)
H13 H -0.2093 0.1630 0.9773
H14 H -0.3429 0.1461 0.7816
H15 H -0.3592 0.1187 0.9465
loop_
_geom_bond_atom_site_label_1
_geom_bond_atom_site_label_2
_geom_bond_site_symmetry_1
_geom_bond_site_symmetry_2
O1 C2 1_555 1_555
N1 C2 1_555 1_555
N2 C1 1_555 1_555
N3 C7 1_555 1_555
C1 C2 1_555 1_555
C3 N1 1_555 1_555
C4 C1 1_555 1_555
H1 C4 1_555 1_555
C5 C4 1_555 1_555
C6 C5 1_555 1_555
H2 C6 1_555 1_555
C7 C6 1_555 1_555
H3 C7 1_555 1_555
C8 N3 1_555 1_555
H4 C8 1_555 1_555
C9 C5 1_555 1_555
H5 C9 1_555 1_555
C10 N1 1_555 1_555
H6 C10 1_555 1_555
H7 C10 1_555 1_555
C11 C10 1_555 1_555
C12 C11 1_555 1_555
H8 C12 1_555 1_555
C13 C12 1_555 1_555
H9 C13 1_555 1_555
C14 C13 1_555 1_555
H10 C14 1_555 1_555
C15 C14 1_555 1_555
H11 C15 1_555 1_555
C16 C11 1_555 1_555
H12 C16 1_555 1_555
C17 C3 1_555 1_555
H13 C17 1_555 1_555
H14 C17 1_555 1_555
H15 C17 1_555 1_555
N2 C3 1_555 1_555
C8 C9 1_555 1_555
C15 C16 1_555 1_555

#END
