
#######################################################################
#
#                 Cambridge Crystallographic Data Centre
#                                CCDC 
#
#######################################################################
#
# If this CIF has been generated from an entry in the Cambridge 
# Structural Database, then it will include bibliographic, chemical, 
# crystal, experimental, refinement or atomic coordinate data resulting 
# from the CCDC's data processing and validation procedures.
#
#######################################################################

data_SESSOZ
_chemical_formula_moiety         'C22 H20 N2 O3'
_chemical_name_systematic        
2-Hydroxy-N'-((1E)-1-(2-hydroxy-5-methylphenyl)-2-phenylethylidene)benzohydrazide
_symmetry_cell_setting           triclinic
_symmetry_space_group_name_H-M   'P -1'
_symmetry_Int_Tables_number      2
_space_group_name_Hall           '-P 1'
loop_
_symmetry_equiv_pos_site_id
_symmetry_equiv_pos_as_xyz
1 x,y,z
2 -x,-y,-z
_cell_length_a                   6.7401(11)
_cell_length_b                   10.4033(17)
_cell_length_c                   14.065(2)
_cell_angle_alpha                79.475(6)
_cell_angle_beta                 80.193(6)
_cell_angle_gamma                78.639(6)
_cell_volume                     941.356
_exptl_crystal_colour            yellow
_exptl_crystal_description       block
_cell_formula_units_Z            2
_exptl_crystal_recrystallization_method DMF
loop_
_atom_site_label
_atom_site_type_symbol
_atom_site_fract_x
_atom_site_fract_y
_atom_site_fract_z
N1 N 0.47427(17) 0.42626(12) 0.68097(8)
O1 O 0.19719(15) 0.46026(11) 0.57185(8)
H1 H 0.2504 0.4733 0.6167
N2 N 0.54836(17) 0.47235(12) 0.75090(9)
H2 H 0.6746 0.4484 0.7592
O2 O 0.86342(15) 0.52339(13) 0.81659(9)
H3 H 0.9792 0.5349 0.8192
C1 C 0.4220(2) 0.55538(14) 0.80658(10)
C2 C 0.5997(2) 0.34784(14) 0.62776(10)
C3 C 0.5158(2) 0.30588(14) 0.55065(10)
C4 C 0.5176(2) 0.60981(14) 0.87528(10)
O3 O 0.23777(15) 0.58377(12) 0.80254(9)
C5 C 0.3216(2) 0.36427(14) 0.52594(10)
C6 C 0.7270(2) 0.59161(14) 0.88099(11)
C7 C 0.7934(2) 0.64043(15) 0.95305(12)
H4 H 0.9323 0.6263 0.9576
C8 C 0.3847(2) 0.68278(16) 0.94129(12)
H5 H 0.2455 0.6984 0.9373
C9 C 0.6300(3) 0.20865(17) 0.49664(12)
H6 H 0.7590 0.1688 0.5121
C10 C 0.8540(2) 0.19070(14) 0.72665(10)
C11 C 0.2499(3) 0.32522(17) 0.45043(11)
H7 H 0.1213 0.3643 0.4342
C12 C 0.3676(3) 0.22951(19) 0.39975(12)
H8 H 0.3168 0.2047 0.3496
C13 C 0.6570(3) 0.70929(17) 1.01779(12)
H9 H 0.7041 0.7406 1.0662
C14 C 0.8202(2) 0.30183(15) 0.64225(11)
H10 H 0.8751 0.3767 0.6529
H11 H 0.8962 0.2723 0.5828
C15 C 0.5601(3) 0.16912(18) 0.42156(12)
C16 C 0.4510(3) 0.73238(17) 1.01170(13)
H12 H 0.3586 0.7808 1.0546
C17 C 1.0204(2) 0.17741(17) 0.77523(12)
H13 H 1.1069 0.2399 0.7582
C18 C 0.7271(3) 0.09700(16) 0.75484(12)
H14 H 0.6133 0.1050 0.7236
C19 C 1.0590(3) 0.07212(19) 0.84877(13)
H15 H 1.1719 0.0638 0.8807
C20 C 0.9323(3) -0.02008(19) 0.87496(13)
H16 H 0.9593 -0.0910 0.9245
C21 C 0.7660(3) -0.00797(18) 0.82828(13)
H17 H 0.6795 -0.0704 0.8461
C22 C 0.6909(4) 0.0651(3) 0.36524(17)
H18 H 0.8312 0.0578 0.3738
H19 H 0.6775 0.0900 0.2972
H20 H 0.6471 -0.0188 0.3889
loop_
_geom_bond_atom_site_label_1
_geom_bond_atom_site_label_2
_geom_bond_site_symmetry_1
_geom_bond_site_symmetry_2
N1 N2 1_555 1_555
O1 H1 1_555 1_555
N2 H2 1_555 1_555
O2 H3 1_555 1_555
C1 N2 1_555 1_555
C2 N1 1_555 1_555
C3 C2 1_555 1_555
C4 C1 1_555 1_555
O3 C1 1_555 1_555
C5 O1 1_555 1_555
C6 O2 1_555 1_555
C7 C6 1_555 1_555
H4 C7 1_555 1_555
C8 C4 1_555 1_555
H5 C8 1_555 1_555
C9 C3 1_555 1_555
H6 C9 1_555 1_555
C10 C14 1_555 1_555
C11 C5 1_555 1_555
H7 C11 1_555 1_555
C12 C11 1_555 1_555
H8 C12 1_555 1_555
C13 C7 1_555 1_555
H9 C13 1_555 1_555
C14 C2 1_555 1_555
H10 C14 1_555 1_555
H11 C14 1_555 1_555
C15 C9 1_555 1_555
C16 C8 1_555 1_555
H12 C16 1_555 1_555
C17 C10 1_555 1_555
H13 C17 1_555 1_555
C18 C10 1_555 1_555
H14 C18 1_555 1_555
C19 C17 1_555 1_555
H15 C19 1_555 1_555
C20 C19 1_555 1_555
H16 C20 1_555 1_555
C21 C18 1_555 1_555
H17 C21 1_555 1_555
C22 C15 1_555 1_555
H18 C22 1_555 1_555
H19 C22 1_555 1_555
H20 C22 1_555 1_555
C3 C5 1_555 1_555
C4 C6 1_555 1_555
C12 C15 1_555 1_555
C13 C16 1_555 1_555
C20 C21 1_555 1_555

#END
