
#######################################################################
#
#                 Cambridge Crystallographic Data Centre
#                                CCDC 
#
#######################################################################
#
# If this CIF has been generated from an entry in the Cambridge 
# Structural Database, then it will include bibliographic, chemical, 
# crystal, experimental, refinement or atomic coordinate data resulting 
# from the CCDC's data processing and validation procedures.
#
#######################################################################

data_SESSUE01
_chemical_formula_moiety         'C36 H44 Si2'
_chemical_name_systematic        Tetramesityldisilene
_symmetry_cell_setting           monoclinic
_symmetry_space_group_name_H-M   'P 21/c'
_symmetry_Int_Tables_number      14
_space_group_name_Hall           '-P 2ybc'
loop_
_symmetry_equiv_pos_site_id
_symmetry_equiv_pos_as_xyz
1 x,y,z
2 -x,1/2+y,1/2-z
3 -x,-y,-z
4 x,1/2-y,1/2+z
_cell_length_a                   11.434(2)
_cell_length_b                   28.269(5)
_cell_length_c                   10.945(2)
_cell_angle_alpha                90
_cell_angle_beta                 117.119(14)
_cell_angle_gamma                90
_cell_volume                     3148.8
_exptl_crystal_colour            'pale yellow'
_cell_formula_units_Z            4
loop_
_atom_site_label
_atom_site_type_symbol
_atom_site_fract_x
_atom_site_fract_y
_atom_site_fract_z
Si1 Si -0.0109(1) 0.1375(1) 0.8919(1)
Si2 Si -0.0053(1) 0.0967(1) 0.7297(1)
C1 C 0.1137(4) 0.1367(2) 1.0788(5)
C2 C 0.1457(5) 0.1800(2) 1.1494(5)
C3 C 0.2236(5) 0.1810(2) 1.2901(5)
C4 C 0.2714(5) 0.1396(2) 1.3650(5)
C5 C 0.2440(4) 0.0972(2) 1.2957(5)
C6 C 0.1671(4) 0.0952(2) 1.1524(5)
C7 C 0.1006(5) 0.2268(2) 1.0758(6)
C8 C 0.3556(6) 0.1422(3) 1.5190(6)
C9 C 0.1448(5) 0.0476(2) 1.0849(5)
C10 C -0.1675(4) 0.1669(2) 0.8641(5)
C11 C -0.2166(4) 0.2072(2) 0.7780(5)
C12 C -0.3234(5) 0.2310(2) 0.7737(5)
C13 C -0.3860(4) 0.2180(2) 0.8513(5)
C14 C -0.3411(4) 0.1773(2) 0.9307(5)
C15 C -0.2348(4) 0.1521(2) 0.9376(4)
C16 C -0.1546(5) 0.2250(2) 0.6904(6)
C17 C -0.4953(5) 0.2477(2) 0.8499(6)
C18 C -0.1929(5) 0.1078(2) 1.0247(5)
C19 C 0.1506(4) 0.0690(2) 0.7495(4)
C20 C 0.2696(4) 0.0943(2) 0.7965(4)
C21 C 0.3831(4) 0.0710(2) 0.8175(5)
C22 C 0.3860(5) 0.0231(2) 0.7930(5)
C23 C 0.2692(5) -0.0018(2) 0.7461(5)
C24 C 0.1525(4) 0.0199(2) 0.7250(5)
C25 C 0.2792(5) 0.1467(2) 0.8255(5)
C26 C 0.5131(5) -0.0007(2) 0.8211(6)
C27 C 0.0298(5) -0.0101(2) 0.6781(6)
C28 C -0.1516(4) 0.1042(2) 0.5552(5)
C29 C -0.1397(4) 0.1282(1) 0.4488(4)
C30 C -0.2508(4) 0.1387(2) 0.3283(5)
C31 C -0.3754(4) 0.1266(2) 0.3086(4)
C32 C -0.3865(4) 0.1023(2) 0.4117(5)
C33 C -0.2773(5) 0.0906(2) 0.5345(5)
C34 C -0.0081(4) 0.1447(2) 0.4636(5)
C35 C -0.4957(5) 0.1375(2) 0.1762(5)
C36 C -0.3023(5) 0.0626(2) 0.6374(6)
H1 H 0.2470 0.2108 1.3373
H2 H 0.2803 0.0687 1.3464
H3 H 0.1044 0.2260 0.9900
H4 H 0.0090 0.2315 1.0492
H5 H 0.1491 0.2530 1.1312
H6 H 0.3287 0.1682 1.5568
H7 H 0.3822 0.1108 1.5545
H8 H 0.4433 0.1461 1.5299
H9 H 0.0536 0.0390 1.0382
H10 H 0.1800 0.0493 1.0205
H11 H 0.1772 0.0224 1.1506
H12 H -0.3559 0.2581 0.7148
H13 H -0.3864 0.1663 0.9806
H14 H -0.1831 0.2565 0.6574
H15 H -0.0613 0.2239 0.7472
H16 H -0.1540 0.2031 0.6236
H17 H -0.4933 0.2814 0.8410
H18 H -0.5743 0.2307 0.8318
H19 H -0.5153 0.2385 0.9285
H20 H -0.2586 0.0961 1.0486
H21 H -0.1679 0.0844 0.9775
H22 H -0.1104 0.1142 1.1031
H23 H 0.4632 0.0887 0.8494
H24 H 0.2684 -0.0350 0.7275
H25 H 0.3650 0.1577 0.8436
H26 H 0.2035 0.1637 0.7607
H27 H 0.2724 0.1543 0.9076
H28 H 0.5758 0.0208 0.8162
H29 H 0.5319 -0.0246 0.8898
H30 H 0.5132 -0.0230 0.7550
H31 H 0.0442 -0.0432 0.6712
H32 H -0.0114 -0.0084 0.7372
H33 H -0.0358 0.0082 0.6051
H34 H -0.2410 0.1547 0.2562
H35 H -0.4723 0.0929 0.3981
H36 H 0.0639 0.1278 0.5339
H37 H 0.0121 0.1397 0.3885
H38 H 0.0097 0.1722 0.5209
H39 H -0.5792 0.1361 0.1770
H40 H -0.4834 0.1672 0.1411
H41 H -0.4926 0.1158 0.1101
H42 H -0.3869 0.0475 0.5955
H43 H -0.2301 0.0448 0.7046
H44 H -0.3196 0.0835 0.6964
loop_
_geom_bond_atom_site_label_1
_geom_bond_atom_site_label_2
_geom_bond_site_symmetry_1
_geom_bond_site_symmetry_2
Si1 Si2 1_555 1_555
Si2 C19 1_555 1_555
C1 Si1 1_555 1_555
C2 C1 1_555 1_555
C3 C2 1_555 1_555
C4 C3 1_555 1_555
C5 C4 1_555 1_555
C6 C1 1_555 1_555
C7 C2 1_555 1_555
C8 C4 1_555 1_555
C9 C6 1_555 1_555
C10 Si1 1_555 1_555
C11 C10 1_555 1_555
C12 C11 1_555 1_555
C13 C12 1_555 1_555
C14 C13 1_555 1_555
C15 C10 1_555 1_555
C16 C11 1_555 1_555
C17 C13 1_555 1_555
C18 C15 1_555 1_555
C19 C20 1_555 1_555
C20 C21 1_555 1_555
C21 C22 1_555 1_555
C22 C23 1_555 1_555
C23 C24 1_555 1_555
C24 C19 1_555 1_555
C25 C20 1_555 1_555
C26 C22 1_555 1_555
C27 C24 1_555 1_555
C28 Si2 1_555 1_555
C29 C28 1_555 1_555
C30 C29 1_555 1_555
C31 C30 1_555 1_555
C32 C31 1_555 1_555
C33 C28 1_555 1_555
C34 C29 1_555 1_555
C35 C31 1_555 1_555
C36 C33 1_555 1_555
H1 C3 1_555 1_555
H2 C5 1_555 1_555
H3 C7 1_555 1_555
H4 C7 1_555 1_555
H5 C7 1_555 1_555
H6 C8 1_555 1_555
H7 C8 1_555 1_555
H8 C8 1_555 1_555
H9 C9 1_555 1_555
H10 C9 1_555 1_555
H11 C9 1_555 1_555
H12 C12 1_555 1_555
H13 C14 1_555 1_555
H14 C16 1_555 1_555
H15 C16 1_555 1_555
H16 C16 1_555 1_555
H17 C17 1_555 1_555
H18 C17 1_555 1_555
H19 C17 1_555 1_555
H20 C18 1_555 1_555
H21 C18 1_555 1_555
H22 C18 1_555 1_555
H23 C21 1_555 1_555
H24 C23 1_555 1_555
H25 C25 1_555 1_555
H26 C25 1_555 1_555
H27 C25 1_555 1_555
H28 C26 1_555 1_555
H29 C26 1_555 1_555
H30 C26 1_555 1_555
H31 C27 1_555 1_555
H32 C27 1_555 1_555
H33 C27 1_555 1_555
H34 C30 1_555 1_555
H35 C32 1_555 1_555
H36 C34 1_555 1_555
H37 C34 1_555 1_555
H38 C34 1_555 1_555
H39 C35 1_555 1_555
H40 C35 1_555 1_555
H41 C35 1_555 1_555
H42 C36 1_555 1_555
H43 C36 1_555 1_555
H44 C36 1_555 1_555
C5 C6 1_555 1_555
C14 C15 1_555 1_555
C32 C33 1_555 1_555

#END
