
#######################################################################
#
#                 Cambridge Crystallographic Data Centre
#                                CCDC 
#
#######################################################################
#
# If this CIF has been generated from an entry in the Cambridge 
# Structural Database, then it will include bibliographic, chemical, 
# crystal, experimental, refinement or atomic coordinate data resulting 
# from the CCDC's data processing and validation procedures.
#
#######################################################################

data_SESTUG
_chemical_formula_moiety         'C15 H23 N1 O5'
_chemical_name_systematic        
'2,5-Dioxopyrrolidin-1-yl (1R,2S,5R)-2-isopropyl-5-methylcyclohexyl carbonate'
_symmetry_cell_setting           orthorhombic
_symmetry_space_group_name_H-M   'P 21 21 21'
_symmetry_Int_Tables_number      19
_space_group_name_Hall           'P 2ac 2ab'
loop_
_symmetry_equiv_pos_site_id
_symmetry_equiv_pos_as_xyz
1 x,y,z
2 1/2-x,-y,1/2+z
3 1/2+x,1/2-y,-z
4 -x,1/2+y,1/2-z
_cell_length_a                   6.5911(14)
_cell_length_b                   7.7815(17)
_cell_length_c                   31.125(7)
_cell_angle_alpha                90
_cell_angle_beta                 90
_cell_angle_gamma                90
_cell_volume                     1596.36
_exptl_crystal_colour            colorless
_exptl_crystal_description       block
_cell_formula_units_Z            4
_exptl_crystal_recrystallization_method 'petroleum ether/ethyl acetate'
loop_
_atom_site_label
_atom_site_type_symbol
_atom_site_fract_x
_atom_site_fract_y
_atom_site_fract_z
O1 O 0.4392(5) 1.0489(4) 0.93744(9)
N1 N 0.7833(5) 0.9469(4) 0.96711(9)
C1 C 0.2643(6) 0.8791(5) 0.86752(11)
H1 H 0.1938 0.9699 0.8834
O2 O 0.4536(4) 0.8330(3) 0.88984(7)
C2 C 0.3222(6) 0.9432(6) 0.82359(11)
H2 H 0.4023 0.8522 0.8100
O3 O 0.6915(4) 0.8541(4) 0.93485(8)
C3 C 0.1274(7) 0.9615(7) 0.79738(14)
H3 H 0.0448 1.0521 0.8097
H4 H 0.1617 0.9948 0.7682
O4 O 0.6796(6) 0.7712(5) 1.02050(10)
C4 C 0.0064(7) 0.7978(7) 0.79622(13)
H5 H -0.1154 0.8157 0.7793
H6 H 0.0858 0.7087 0.7824
O5 O 0.9324(6) 1.1412(5) 0.92338(10)
C5 C -0.0517(7) 0.7398(6) 0.84032(14)
H7 H -0.1348 0.8302 0.8534
C6 C 0.1376(7) 0.7202(6) 0.86692(13)
H8 H 0.0997 0.6910 0.8961
H9 H 0.2176 0.6260 0.8555
C7 C 0.5116(6) 0.9281(5) 0.92158(11)
C8 C 0.7741(7) 0.8908(6) 1.00871(13)
C9 C 0.9039(8) 1.0137(6) 1.03295(13)
H10 H 1.0027 0.9524 1.0502
H11 H 0.8217 1.0848 1.0517
C10 C 1.0087(7) 1.1226(6) 0.99953(14)
H12 H 0.9925 1.2437 1.0061
H13 H 1.1524 1.0962 0.9986
C11 C 0.9113(7) 1.0811(6) 0.95769(14)
C12 C 0.4544(7) 1.1037(6) 0.82414(14)
H14 H 0.5660 1.0818 0.8442
C13 C 0.5481(9) 1.1370(8) 0.78052(16)
H15 H 0.4440 1.1700 0.7606
H16 H 0.6135 1.0344 0.7705
H17 H 0.6462 1.2277 0.7828
C14 C 0.3444(10) 1.2618(7) 0.83989(19)
H18 H 0.4409 1.3514 0.8455
H19 H 0.2724 1.2349 0.8658
H20 H 0.2501 1.2995 0.8184
C15 C -0.1745(8) 0.5765(7) 0.83995(18)
H21 H -0.2986 0.5953 0.8245
H22 H -0.2052 0.5432 0.8689
H23 H -0.0982 0.4870 0.8262
loop_
_geom_bond_atom_site_label_1
_geom_bond_atom_site_label_2
_geom_bond_site_symmetry_1
_geom_bond_site_symmetry_2
O1 C7 1_555 1_555
N1 O3 1_555 1_555
C1 H1 1_555 1_555
O2 C1 1_555 1_555
C2 C1 1_555 1_555
H2 C2 1_555 1_555
O3 C7 1_555 1_555
C3 C2 1_555 1_555
H3 C3 1_555 1_555
H4 C3 1_555 1_555
O4 C8 1_555 1_555
C4 C3 1_555 1_555
H5 C4 1_555 1_555
H6 C4 1_555 1_555
O5 C11 1_555 1_555
C5 C4 1_555 1_555
H7 C5 1_555 1_555
C6 C1 1_555 1_555
H8 C6 1_555 1_555
H9 C6 1_555 1_555
C7 O2 1_555 1_555
C8 N1 1_555 1_555
C9 C8 1_555 1_555
H10 C9 1_555 1_555
H11 C9 1_555 1_555
C10 C9 1_555 1_555
H12 C10 1_555 1_555
H13 C10 1_555 1_555
C11 N1 1_555 1_555
C12 C2 1_555 1_555
H14 C12 1_555 1_555
C13 C12 1_555 1_555
H15 C13 1_555 1_555
H16 C13 1_555 1_555
H17 C13 1_555 1_555
C14 C12 1_555 1_555
H18 C14 1_555 1_555
H19 C14 1_555 1_555
H20 C14 1_555 1_555
C15 C5 1_555 1_555
H21 C15 1_555 1_555
H22 C15 1_555 1_555
H23 C15 1_555 1_555
C5 C6 1_555 1_555
C10 C11 1_555 1_555

#END
