
#######################################################################
#
#                 Cambridge Crystallographic Data Centre
#                                CCDC 
#
#######################################################################
#
# If this CIF has been generated from an entry in the Cambridge 
# Structural Database, then it will include bibliographic, chemical, 
# crystal, experimental, refinement or atomic coordinate data resulting 
# from the CCDC's data processing and validation procedures.
#
#######################################################################

data_SESWOD
_chemical_formula_moiety         'C13 H9 I1 N2 S1'
_chemical_name_systematic        2-(4-Amino-3-iodophenyl)-1,3-benzothiazole
_symmetry_cell_setting           monoclinic
_symmetry_space_group_name_H-M   'P 21/c'
_symmetry_Int_Tables_number      14
_space_group_name_Hall           '-P 2ybc'
loop_
_symmetry_equiv_pos_site_id
_symmetry_equiv_pos_as_xyz
1 x,y,z
2 -x,1/2+y,1/2-z
3 -x,-y,-z
4 x,1/2-y,1/2+z
_cell_length_a                   7.8023(3)
_cell_length_b                   8.7783(4)
_cell_length_c                   18.5532(10)
_cell_angle_alpha                90
_cell_angle_beta                 97.446(4)
_cell_angle_gamma                90
_cell_volume                     1260.01
_exptl_crystal_colour            colorless
_exptl_crystal_description       prism
_chemical_melting_point          '422-423 K'
_cell_formula_units_Z            4
_exptl_crystal_recrystallization_method ethanol
loop_
_atom_site_label
_atom_site_type_symbol
_atom_site_fract_x
_atom_site_fract_y
_atom_site_fract_z
I1 I 0.37134(3) -0.20344(4) 0.303992(18)
S1 S 0.82571(14) 0.17787(14) 0.49079(6)
N1 N 1.0882(4) 0.1957(4) 0.41890(19)
N2 N 0.6422(5) -0.2425(5) 0.1863(2)
H1 H 0.7015 -0.2614 0.1513
H2 H 0.5409 -0.2814 0.1858
C1 C 0.7087(5) -0.1510(5) 0.2423(2)
C2 C 0.6202(5) -0.1143(5) 0.3015(2)
C3 C 0.6923(5) -0.0246(5) 0.3573(2)
H3 H 0.6312 -0.0058 0.3962
C4 C 0.8557(5) 0.0396(5) 0.3573(2)
C5 C 0.9433(5) 0.0042(5) 0.2982(2)
H4 H 1.0529 0.0446 0.2965
C6 C 0.8735(5) -0.0868(5) 0.2438(2)
H5 H 0.9369 -0.1077 0.2058
C7 C 0.9352(5) 0.1372(5) 0.4164(2)
C8 C 1.0018(5) 0.2842(5) 0.5290(2)
C9 C 1.0250(6) 0.3655(6) 0.5939(3)
H6 H 0.9375 0.3718 0.6234
C10 C 1.1795(6) 0.4353(6) 0.6129(3)
H7 H 1.1988 0.4877 0.6568
C11 C 1.3089(6) 0.4306(6) 0.5686(3)
H8 H 1.4131 0.4800 0.5831
C12 C 1.2860(6) 0.3544(6) 0.5036(3)
H9 H 1.3731 0.3529 0.4738
C13 C 1.1297(5) 0.2786(5) 0.4829(2)
loop_
_geom_bond_atom_site_label_1
_geom_bond_atom_site_label_2
_geom_bond_site_symmetry_1
_geom_bond_site_symmetry_2
I1 C2 1_555 1_555
S1 C7 1_555 1_555
N1 C7 1_555 1_555
N2 H1 1_555 1_555
H2 N2 1_555 1_555
C1 N2 1_555 1_555
C2 C1 1_555 1_555
C3 C2 1_555 1_555
H3 C3 1_555 1_555
C4 C3 1_555 1_555
C5 C4 1_555 1_555
H4 C5 1_555 1_555
C6 C1 1_555 1_555
H5 C6 1_555 1_555
C7 C4 1_555 1_555
C8 S1 1_555 1_555
C9 C8 1_555 1_555
H6 C9 1_555 1_555
C10 C9 1_555 1_555
H7 C10 1_555 1_555
C11 C10 1_555 1_555
H8 C11 1_555 1_555
C12 C11 1_555 1_555
H9 C12 1_555 1_555
C13 N1 1_555 1_555
C5 C6 1_555 1_555
C8 C13 1_555 1_555
C12 C13 1_555 1_555

#END
