
#######################################################################
#
#                 Cambridge Crystallographic Data Centre
#                                CCDC 
#
#######################################################################
#
# If this CIF has been generated from an entry in the Cambridge 
# Structural Database, then it will include bibliographic, chemical, 
# crystal, experimental, refinement or atomic coordinate data resulting 
# from the CCDC's data processing and validation procedures.
#
#######################################################################

data_SESZUM
_chemical_formula_moiety         'C21 H24 N1 O5 1+,Cl1 1-'
_chemical_name_systematic        
'Diethyl(2-(5-hydroxy-3-(4-hydroxyphenyl)-4-oxo-4H-chromen-7-yloxy)ethyl)ammonium chloride'
_symmetry_cell_setting           triclinic
_symmetry_space_group_name_H-M   'P -1'
_symmetry_Int_Tables_number      2
_space_group_name_Hall           '-P 1'
loop_
_symmetry_equiv_pos_site_id
_symmetry_equiv_pos_as_xyz
1 x,y,z
2 -x,-y,-z
_cell_length_a                   7.4420(15)
_cell_length_b                   15.092(3)
_cell_length_c                   18.353(4)
_cell_angle_alpha                89.48(3)
_cell_angle_beta                 82.20(3)
_cell_angle_gamma                88.21(3)
_cell_volume                     2041.22
_exptl_crystal_colour            colorless
_exptl_crystal_description       plate
_chemical_melting_point          '489-491 K'
_cell_formula_units_Z            4
_exptl_crystal_recrystallization_method HCl/water
loop_
_atom_site_label
_atom_site_type_symbol
_atom_site_fract_x
_atom_site_fract_y
_atom_site_fract_z
C1 C 0.8960(7) 0.8295(3) 0.2098(3)
C2 C 0.7157(7) 0.8321(3) 0.2376(3)
H1 H 0.6334 0.8648 0.2135
C3 C 0.6551(7) 0.7863(3) 0.3015(3)
H2 H 0.5322 0.7888 0.3198
C4 C 0.7745(6) 0.7364(3) 0.3390(3)
C5 C 0.9558(7) 0.7337(3) 0.3086(3)
H3 H 1.0382 0.6997 0.3317
C6 C 1.0180(7) 0.7797(3) 0.2454(3)
H4 H 1.1407 0.7774 0.2268
C7 C 0.7103(6) 0.6923(3) 0.4097(3)
C8 C 0.5899(6) 0.7318(3) 0.4606(3)
H5 H 0.5486 0.7883 0.4490
C9 C 0.5788(6) 0.6156(3) 0.5460(2)
C10 C 0.5036(6) 0.5848(3) 0.6138(2)
H6 H 0.4204 0.6190 0.6449
C11 C 0.5584(6) 0.4992(3) 0.6338(2)
C12 C 0.6844(6) 0.4491(3) 0.5869(2)
H7 H 0.7200 0.3928 0.6015
C13 C 0.7561(6) 0.4811(3) 0.5201(2)
C14 C 0.7054(6) 0.5675(3) 0.4968(2)
C15 C 0.7768(6) 0.6027(3) 0.4263(3)
C16 C 0.3474(7) 0.5033(3) 0.7436(3)
H8 H 0.2513 0.5213 0.7153
H9 H 0.3926 0.5561 0.7637
C17 C 0.2739(7) 0.4427(4) 0.8051(3)
H10 H 0.1546 0.4651 0.8260
H11 H 0.2593 0.3846 0.7849
C18 C 0.2764(9) 0.4106(4) 0.9377(3)
H12 H 0.3524 0.4142 0.9765
H13 H 0.1792 0.4550 0.9476
C19 C 0.2007(12) 0.3270(5) 0.9404(4)
H14 H 0.1334 0.3209 0.8997
H15 H 0.1209 0.3205 0.9857
H16 H 0.2957 0.2822 0.9375
C20 C 0.5530(8) 0.3729(4) 0.8445(3)
H17 H 0.5145 0.3122 0.8429
H18 H 0.6101 0.3887 0.7957
C21 C 0.6892(9) 0.3783(5) 0.8971(4)
H19 H 0.7389 0.4363 0.8945
H20 H 0.7849 0.3347 0.8843
H21 H 0.6313 0.3672 0.9461
H43 H 0.433(8) 0.492(4) 0.869(3)
N1 N 0.3889(6) 0.4328(3) 0.8650(2)
O1 O 0.9498(6) 0.8768(3) 0.1473(2)
H45 H 1.0607 0.8738 0.1380
O2 O 0.5213(4) 0.69930(19) 0.52675(17)
O3 O 0.8856(4) 0.5587(2) 0.38161(17)
O4 O 0.8740(5) 0.4308(2) 0.47495(18)
H46 H 0.8945 0.4554 0.4348
O5 O 0.4907(5) 0.4590(2) 0.69692(17)
C22 C 1.0318(7) 0.3353(3) 0.2052(3)
C23 C 1.1450(8) 0.3325(3) 0.2582(3)
H22 H 1.2536 0.3623 0.2509
C24 C 1.0978(7) 0.2854(3) 0.3222(3)
H23 H 1.1768 0.2831 0.3574
C25 C 0.9356(7) 0.2411(3) 0.3356(3)
C26 C 0.8216(7) 0.2459(3) 0.2819(3)
H24 H 0.7112 0.2177 0.2896
C27 C 0.8697(7) 0.2921(3) 0.2169(3)
H25 H 0.7924 0.2940 0.1811
C28 C 0.8900(7) 0.1926(3) 0.4057(3)
C29 C 0.9271(7) 0.2282(3) 0.4678(3)
H26 H 0.9744 0.2846 0.4643
C30 C 0.8375(7) 0.1061(3) 0.5417(3)
C31 C 0.8274(7) 0.0695(3) 0.6110(3)
H27 H 0.8620 0.1006 0.6501
C32 C 0.7630(7) -0.0160(3) 0.6200(3)
C33 C 0.7107(6) -0.0617(3) 0.5612(2)
H28 H 0.6666 -0.1185 0.5684
C34 C 0.7236(6) -0.0238(3) 0.4933(2)
C35 C 0.7885(6) 0.0637(3) 0.4810(2)
C36 C 0.8100(6) 0.1043(3) 0.4095(3)
C37 C 0.8292(7) -0.0207(3) 0.7434(3)
H29 H 0.7589 0.0325 0.7594
H30 H 0.9524 -0.0038 0.7259
C38 C 0.8301(7) -0.0836(4) 0.8065(3)
H31 H 0.9319 -0.0706 0.8321
H32 H 0.8496 -0.1433 0.7872
C39 C 0.6863(8) -0.1324(4) 0.9290(3)
H33 H 0.5710 -0.1337 0.9607
H34 H 0.7222 -0.1930 0.9154
C40 C 0.8216(9) -0.0963(5) 0.9702(3)
H35 H 0.9405 -0.1061 0.9434
H36 H 0.8152 -0.1252 1.0173
H37 H 0.7982 -0.0338 0.9772
C41 C 0.5005(8) -0.1124(4) 0.8275(3)
H38 H 0.5023 -0.0866 0.7789
H39 H 0.5106 -0.1763 0.8221
C42 C 0.3239(9) -0.0883(5) 0.8728(4)
H40 H 0.3147 -0.1198 0.9188
H41 H 0.2259 -0.1039 0.8469
H42 H 0.3176 -0.0257 0.8819
H44 H 0.649(8) -0.031(4) 0.871(3)
N2 N 0.6608(6) -0.0811(3) 0.8608(2)
O6 O 1.0736(6) 0.3807(3) 0.1404(2)
H47 H 1.1841 0.3844 0.1310
O7 O 0.9030(5) 0.1906(2) 0.53519(17)
O8 O 0.7656(5) 0.0673(2) 0.35447(17)
O9 O 0.6745(5) -0.0692(2) 0.43636(18)
H48 H 0.6992 -0.0407 0.3982
O10 O 0.7527(5) -0.0609(2) 0.68501(17)
Cl1 Cl 0.3662(2) 0.87806(9) 0.10473(8)
Cl2 Cl 0.4884(2) 0.37761(9) 0.10639(8)
loop_
_geom_bond_atom_site_label_1
_geom_bond_atom_site_label_2
_geom_bond_site_symmetry_1
_geom_bond_site_symmetry_2
C1 C2 1_555 1_555
C2 H1 1_555 1_555
C3 C2 1_555 1_555
H2 C3 1_555 1_555
C4 C3 1_555 1_555
C5 C4 1_555 1_555
H3 C5 1_555 1_555
C6 C1 1_555 1_555
H4 C6 1_555 1_555
C7 C4 1_555 1_555
C8 C7 1_555 1_555
H5 C8 1_555 1_555
C9 C10 1_555 1_555
C10 H6 1_555 1_555
C11 C10 1_555 1_555
C12 C11 1_555 1_555
H7 C12 1_555 1_555
C13 C12 1_555 1_555
C14 C9 1_555 1_555
C15 C7 1_555 1_555
C16 H8 1_555 1_555
H9 C16 1_555 1_555
C17 C16 1_555 1_555
H10 C17 1_555 1_555
H11 C17 1_555 1_555
C18 H12 1_555 1_555
H13 C18 1_555 1_555
C19 C18 1_555 1_555
H14 C19 1_555 1_555
H15 C19 1_555 1_555
H16 C19 1_555 1_555
C20 H17 1_555 1_555
H18 C20 1_555 1_555
C21 C20 1_555 1_555
H19 C21 1_555 1_555
H20 C21 1_555 1_555
H21 C21 1_555 1_555
C22 C23 1_555 1_555
C23 H22 1_555 1_555
C24 C23 1_555 1_555
H23 C24 1_555 1_555
C25 C24 1_555 1_555
C26 C25 1_555 1_555
H24 C26 1_555 1_555
C27 C22 1_555 1_555
H25 C27 1_555 1_555
C28 C25 1_555 1_555
C29 C28 1_555 1_555
H26 C29 1_555 1_555
C30 C31 1_555 1_555
C31 H27 1_555 1_555
C32 C31 1_555 1_555
C33 C32 1_555 1_555
H28 C33 1_555 1_555
C34 C33 1_555 1_555
C35 C30 1_555 1_555
C36 C28 1_555 1_555
C37 H29 1_555 1_555
H30 C37 1_555 1_555
C38 C37 1_555 1_555
H31 C38 1_555 1_555
H32 C38 1_555 1_555
C39 H33 1_555 1_555
H34 C39 1_555 1_555
C40 C39 1_555 1_555
H35 C40 1_555 1_555
H36 C40 1_555 1_555
H37 C40 1_555 1_555
C41 H38 1_555 1_555
H39 C41 1_555 1_555
C42 C41 1_555 1_555
H40 C42 1_555 1_555
H41 C42 1_555 1_555
H42 C42 1_555 1_555
H43 N1 1_555 1_555
H44 N2 1_555 1_555
N1 C17 1_555 1_555
N2 C38 1_555 1_555
O1 C1 1_555 1_555
H45 O1 1_555 1_555
O2 C8 1_555 1_555
O3 C15 1_555 1_555
O4 C13 1_555 1_555
H46 O4 1_555 1_555
O5 C11 1_555 1_555
O6 C22 1_555 1_555
H47 O6 1_555 1_555
O7 C29 1_555 1_555
O8 C36 1_555 1_555
O9 C34 1_555 1_555
H48 O9 1_555 1_555
O10 C32 1_555 1_555
C5 C6 1_555 1_555
C9 O2 1_555 1_555
C13 C14 1_555 1_555
C14 C15 1_555 1_555
C16 O5 1_555 1_555
C18 N1 1_555 1_555
C20 N1 1_555 1_555
C26 C27 1_555 1_555
C30 O7 1_555 1_555
C34 C35 1_555 1_555
C35 C36 1_555 1_555
C37 O10 1_555 1_555
C39 N2 1_555 1_555
C41 N2 1_555 1_555

#END
