
#######################################################################
#
#                 Cambridge Crystallographic Data Centre
#                                CCDC 
#
#######################################################################
#
# If this CIF has been generated from an entry in the Cambridge 
# Structural Database, then it will include bibliographic, chemical, 
# crystal, experimental, refinement or atomic coordinate data resulting 
# from the CCDC's data processing and validation procedures.
#
#######################################################################

data_SESZOI
_chemical_formula_moiety         'C26 H22 N2 O4'
_chemical_name_systematic        
4-amino-9,14-dimethoxy-6,7-dihydro-1H-dinaphtho[2,1-e:1',2'-g]isoindole-3,5(2H,4H)-dione
_symmetry_cell_setting           orthorhombic
_symmetry_space_group_name_H-M   'P b c n'
_symmetry_Int_Tables_number      60
_space_group_name_Hall           '-P 2n 2ab'
loop_
_symmetry_equiv_pos_site_id
_symmetry_equiv_pos_as_xyz
1 x,y,z
2 1/2+x,1/2-y,-z
3 -x,y,1/2-z
4 1/2-x,1/2-y,1/2+z
5 -x,-y,-z
6 1/2-x,1/2+y,z
7 x,-y,1/2+z
8 1/2+x,1/2+y,1/2-z
_cell_length_a                   21.755(4)
_cell_length_b                   11.303(2)
_cell_length_c                   16.615(3)
_cell_angle_alpha                90
_cell_angle_beta                 90
_cell_angle_gamma                90
_cell_volume                     4085.57
_exptl_crystal_colour            'light yellow'
_exptl_crystal_description       block
_cell_formula_units_Z            8
loop_
_atom_site_label
_atom_site_type_symbol
_atom_site_fract_x
_atom_site_fract_y
_atom_site_fract_z
O1 O 0.34618(5) 0.45389(12) 0.43849(8)
O2 O 0.45608(6) 0.78198(10) 0.36769(8)
O3 O 0.64853(6) -0.08926(10) 0.46490(9)
O4 O 0.80578(6) 0.41381(12) 0.19978(10)
N1 N 0.38855(6) 0.63131(13) 0.39709(8)
N2 N 0.33411(7) 0.69750(15) 0.39353(10)
H1 H 0.30468(17) 0.6587(6) 0.4162(9)
H2 H 0.3395(2) 0.7633(6) 0.4189(8)
C1 C 0.38982(7) 0.51090(15) 0.41575(9)
C2 C 0.45490(7) 0.47454(14) 0.40147(9)
C3 C 0.48156(7) 0.36367(13) 0.40559(9)
C4 C 0.44651(7) 0.25423(14) 0.42945(11)
H3 H 0.44970(7) 0.24271(14) 0.48715(11)
H4 H 0.40341(7) 0.26415(14) 0.41612(11)
C5 C 0.47177(7) 0.14623(14) 0.38615(11)
H5 H 0.45044(7) 0.07579(14) 0.40436(11)
H6 H 0.46524(7) 0.15419(14) 0.32866(11)
C6 C 0.53932(7) 0.13494(13) 0.40338(10)
C7 C 0.56576(7) 0.02764(13) 0.42387(11)
H7 H 0.54197(7) -0.04071(13) 0.42325(11)
C8 C 0.62742(7) 0.02083(13) 0.44533(10)
C9 C 0.66307(7) 0.12304(14) 0.44617(11)
H8 H 0.70432(7) 0.11953(14) 0.46069(11)
C10 C 0.63649(7) 0.23017(13) 0.42516(10)
H9 H 0.66047(7) 0.29828(13) 0.42627(10)
C11 C 0.57492(7) 0.23905(13) 0.40240(9)
C12 C 0.54455(7) 0.35422(12) 0.38494(9)
C13 C 0.57628(7) 0.45399(12) 0.35368(9)
C14 C 0.63605(7) 0.44514(12) 0.31153(9)
C15 C 0.65130(7) 0.34856(13) 0.26266(10)
H10 H 0.62295(7) 0.28789(13) 0.25550(10)
C16 C 0.70732(8) 0.34201(14) 0.22522(10)
H11 H 0.71661(8) 0.27762(14) 0.19257(10)
C17 C 0.75026(8) 0.43170(14) 0.23609(10)
C18 C 0.73470(7) 0.53183(14) 0.27970(9)
H12 H 0.76269(7) 0.59359(14) 0.28462(9)
C19 C 0.67729(7) 0.54014(13) 0.31613(9)
C20 C 0.65603(8) 0.65050(13) 0.35879(10)
H13 H 0.66008(8) 0.64035(13) 0.41652(10)
H14 H 0.68127(8) 0.71715(13) 0.34267(10)
C21 C 0.58909(7) 0.67432(13) 0.33734(10)
H15 H 0.57456(7) 0.74300(13) 0.36674(10)
H16 H 0.58574(7) 0.69113(13) 0.28026(10)
C22 C 0.54975(7) 0.56826(13) 0.35807(9)
C23 C 0.48882(7) 0.57506(13) 0.38071(9)
C24 C 0.44648(8) 0.67840(15) 0.38055(10)
C25 C 0.70958(9) -0.09979(17) 0.49394(14)
H17 H 0.73791(9) -0.0789(13) 0.4520(3)
H18 H 0.7152(2) -0.0477(10) 0.5390(6)
H19 H 0.7170(2) -0.1799(4) 0.5105(9)
C26 C 0.85430(9) 0.4929(2) 0.21653(17)
H20 H 0.8460(4) 0.5679(6) 0.1917(9)
H21 H 0.8579(6) 0.5032(13) 0.27369(17)
H22 H 0.89203(17) 0.4614(8) 0.1956(10)
loop_
_geom_bond_atom_site_label_1
_geom_bond_atom_site_label_2
_geom_bond_site_symmetry_1
_geom_bond_site_symmetry_2
O1 C1 1_555 1_555
O2 C24 1_555 1_555
O3 C8 1_555 1_555
O4 C17 1_555 1_555
N1 N2 1_555 1_555
N2 H1 1_555 1_555
H2 N2 1_555 1_555
C1 N1 1_555 1_555
C2 C1 1_555 1_555
C3 C2 1_555 1_555
C4 C3 1_555 1_555
H3 C4 1_555 1_555
H4 C4 1_555 1_555
C5 C4 1_555 1_555
H5 C5 1_555 1_555
H6 C5 1_555 1_555
C6 C5 1_555 1_555
C7 C6 1_555 1_555
H7 C7 1_555 1_555
C8 C7 1_555 1_555
C9 C8 1_555 1_555
H8 C9 1_555 1_555
C10 C9 1_555 1_555
H9 C10 1_555 1_555
C11 C6 1_555 1_555
C12 C3 1_555 1_555
C13 C12 1_555 1_555
C14 C13 1_555 1_555
C15 C14 1_555 1_555
H10 C15 1_555 1_555
C16 C15 1_555 1_555
H11 C16 1_555 1_555
C17 C16 1_555 1_555
C18 C17 1_555 1_555
H12 C18 1_555 1_555
C19 C14 1_555 1_555
C20 C19 1_555 1_555
H13 C20 1_555 1_555
H14 C20 1_555 1_555
C21 C20 1_555 1_555
H15 C21 1_555 1_555
H16 C21 1_555 1_555
C22 C13 1_555 1_555
C23 C2 1_555 1_555
C24 N1 1_555 1_555
C25 O3 1_555 1_555
H17 C25 1_555 1_555
H18 C25 1_555 1_555
H19 C25 1_555 1_555
C26 O4 1_555 1_555
H20 C26 1_555 1_555
H21 C26 1_555 1_555
H22 C26 1_555 1_555
C10 C11 1_555 1_555
C11 C12 1_555 1_555
C18 C19 1_555 1_555
C21 C22 1_555 1_555
C22 C23 1_555 1_555
C23 C24 1_555 1_555

#END
