
#######################################################################
#
#                 Cambridge Crystallographic Data Centre
#                                CCDC 
#
#######################################################################
#
# If this CIF has been generated from an entry in the Cambridge 
# Structural Database, then it will include bibliographic, chemical, 
# crystal, experimental, refinement or atomic coordinate data resulting 
# from the CCDC's data processing and validation procedures.
#
#######################################################################

data_SETCAY
_chemical_formula_moiety         'C105 H92 O2'
_chemical_name_systematic        
9-{[1,4-bis(4-t-butylphenyl)-9-methoxy-2,3-diphenyl-9H-tribenzo[a,c,e][7]annulen-9-yl]ethynyl}-1,4-bis(4-t-butylphenyl)-2,3-diphenyl-9H-tribenzo[a,c,e][7]annulen-9-ol
_symmetry_cell_setting           monoclinic
_symmetry_space_group_name_H-M   'P 21/n'
_symmetry_Int_Tables_number      14
_space_group_name_Hall           '-P 2yn'
loop_
_symmetry_equiv_pos_site_id
_symmetry_equiv_pos_as_xyz
1 x,y,z
2 1/2-x,1/2+y,1/2-z
3 -x,-y,-z
4 1/2+x,1/2-y,1/2+z
_cell_length_a                   11.1208(5)
_cell_length_b                   22.2219(11)
_cell_length_c                   16.4054(9)
_cell_angle_alpha                90
_cell_angle_beta                 108.564(2)
_cell_angle_gamma                90
_cell_volume                     3843.24
_exptl_crystal_colour            colorless
_exptl_crystal_description       prism
_cell_formula_units_Z            2
loop_
_atom_site_label
_atom_site_type_symbol
_atom_site_fract_x
_atom_site_fract_y
_atom_site_fract_z
C1 C 0.5943(9) 0.5326(3) 0.4177(6)
C2 C 0.5133(6) 0.5444(3) 0.3238(5)
C3 C 0.4498(6) 0.4963(3) 0.2736(5)
C4 C 0.4414(6) 0.4354(3) 0.3099(4)
C5 C 0.5512(5) 0.4050(3) 0.3571(4)
C6 C 0.6771(6) 0.4346(3) 0.3746(4)
C7 C 0.7015(7) 0.4930(3) 0.4096(4)
C8 C 0.9120(9) 0.4882(6) 0.4042(7)
H1 H 0.993752 0.505815 0.416468
C9 C 0.8198(10) 0.5185(4) 0.4243(6)
H2 H 0.836493 0.557623 0.448623
C10 C 0.8891(8) 0.4319(5) 0.3661(6)
H3 H 0.952918 0.411691 0.349495
C11 C 0.7721(7) 0.4058(3) 0.3528(4)
H4 H 0.756522 0.366821 0.327897
C12 C 0.3980(6) 0.5049(3) 0.1849(5)
H5 H 0.355324 0.472277 0.150175
C13 C 0.4066(7) 0.5593(4) 0.1456(6)
H6 H 0.372533 0.563750 0.084969
C14 C 0.4649(8) 0.6060(4) 0.1961(8)
H7 H 0.468619 0.644125 0.170748
C15 C 0.5194(8) 0.5989(4) 0.2844(8)
H8 H 0.561400 0.632009 0.318249
C16 C 0.3212(6) 0.4079(3) 0.2910(3)
C17 C 0.3142(6) 0.3481(3) 0.3153(4)
C18 C 0.4256(6) 0.3165(3) 0.3601(4)
C19 C 0.5436(6) 0.3451(3) 0.3836(3)
C20 C 0.6593(5) 0.3128(3) 0.4371(4)
C21 C 0.6977(6) 0.2594(3) 0.4107(4)
H9 H 0.647149 0.242241 0.357918
C22 C 0.8072(6) 0.2298(3) 0.4581(4)
H10 H 0.830179 0.193247 0.436937
C23 C 0.8832(6) 0.2526(3) 0.5355(4)
C24 C 0.8436(6) 0.3058(3) 0.5647(4)
H11 H 0.892522 0.322139 0.618580
C25 C 0.7336(6) 0.3353(3) 0.5161(4)
H12 H 0.708909 0.371433 0.537341
C26 C 0.4123(5) 0.2530(3) 0.3854(5)
C27 C 0.3658(6) 0.2096(3) 0.3223(5)
H13 H 0.346404 0.220487 0.263535
C28 C 0.3473(7) 0.1509(4) 0.3433(6)
H14 H 0.316111 0.121551 0.299431
C29 C 0.3745(7) 0.1354(4) 0.4284(7)
H15 H 0.360735 0.095221 0.443228
C30 C 0.4203(7) 0.1763(4) 0.4907(6)
H16 H 0.439132 0.164992 0.549288
C31 C 0.4403(6) 0.2357(3) 0.4694(5)
H17 H 0.473776 0.264348 0.513838
C32 C 0.1870(6) 0.3196(3) 0.3015(5)
C33 C 0.1198(7) 0.2913(3) 0.2259(5)
H18 H 0.154303 0.288919 0.179982
C34 C 0.0012(7) 0.2661(3) 0.2167(5)
H19 H -0.045389 0.247168 0.164270
C35 C -0.0479(7) 0.2687(3) 0.2829(7)
H20 H -0.128680 0.251555 0.276315
C36 C 0.0179(8) 0.2955(4) 0.3581(6)
H21 H -0.015986 0.296656 0.404434
C37 C 0.1354(7) 0.3214(3) 0.3671(5)
H22 H 0.180744 0.340561 0.419667
C38 C 0.1206(6) 0.4303(3) 0.1691(4)
H23 H 0.141400 0.399214 0.136134
C39 C 0.2026(6) 0.4429(3) 0.2497(4)
C40 C 0.1704(6) 0.4900(3) 0.2933(4)
H24 H 0.226495 0.500911 0.348262
C41 C 0.0580(7) 0.5220(3) 0.2591(4)
H25 H 0.039061 0.554221 0.291092
C42 C -0.0276(6) 0.5077(3) 0.1784(4)
C43 C 0.0091(6) 0.4616(3) 0.1351(4)
H26 H -0.044901 0.451114 0.079295
C44 C 1.0050(7) 0.2199(4) 0.5896(5)
C45 C 0.9699(10) 0.1753(6) 0.6453(7)
H27 H 1.017932 0.138130 0.647007
H28 H 0.878883 0.166774 0.622141
H29 H 0.989680 0.191663 0.703585
C46 C 1.0626(8) 0.1823(5) 0.5348(5)
H30 H 1.080401 0.207910 0.491365
H31 H 1.003088 0.150485 0.506256
H32 H 1.141780 0.164133 0.571273
C47 C 1.1014(9) 0.2631(5) 0.6367(9)
H33 H 1.075519 0.281266 0.682944
H34 H 1.110513 0.294634 0.597317
H35 H 1.182629 0.242338 0.661361
C48 C -0.1579(6) 0.5378(3) 0.1416(4)
C49 C -0.1770(7) 0.5593(3) 0.0498(4)
H36 H -0.113116 0.589822 0.050393
H37 H -0.261947 0.576793 0.025857
H38 H -0.168349 0.525143 0.014378
C50 C -0.2603(7) 0.4905(4) 0.1380(5)
H39 H -0.247509 0.455356 0.105620
H40 H -0.344306 0.507747 0.109438
H41 H -0.254299 0.478286 0.196524
C51 C -0.1729(7) 0.5915(4) 0.1952(4)
H42 H -0.161215 0.578303 0.254276
H43 H -0.258032 0.608568 0.170418
H44 H -0.109302 0.622029 0.195516
C52 C 0.5890(12) 0.6285(9) 0.4616(9)
H45 H 0.641(4) 0.664(3) 0.469(5)
H46 H 0.557(7) 0.6243(19) 0.509(5)
H47 H 0.519(7) 0.632(2) 0.409(5)
C53 C 0.5239(10) 0.5059(5) 0.4731(6)
O1 O 0.6486(7) 0.5876(3) 0.4583(5)
C1B C 0.4057(9) 0.4674(3) 0.5823(6)
C2B C 0.4867(6) 0.4556(3) 0.6762(5)
C3B C 0.5502(6) 0.5037(3) 0.7264(5)
C4B C 0.5586(6) 0.5646(3) 0.6901(4)
C5B C 0.4488(5) 0.5950(3) 0.6429(4)
C6B C 0.3229(6) 0.5654(3) 0.6254(4)
C7B C 0.2985(7) 0.5070(3) 0.5904(4)
C8B C 0.0880(9) 0.5118(6) 0.5958(7)
H1B H 0.006248 0.494185 0.583532
C9B C 0.1802(10) 0.4815(4) 0.5757(6)
H2B H 0.163507 0.442377 0.551377
C10B C 0.1109(8) 0.5681(5) 0.6339(6)
H3B H 0.047082 0.588309 0.650505
C11B C 0.2279(7) 0.5942(3) 0.6472(4)
H4B H 0.243478 0.633179 0.672103
C12B C 0.6020(6) 0.4951(3) 0.8151(5)
H5B H 0.644676 0.527723 0.849825
C13B C 0.5934(7) 0.4407(4) 0.8544(6)
H6B H 0.627467 0.436250 0.915031
C14B C 0.5351(8) 0.3940(4) 0.8039(8)
H7B H 0.531381 0.355875 0.829252
C15B C 0.4806(8) 0.4011(4) 0.7156(8)
H8B H 0.438600 0.367991 0.681751
C16B C 0.6788(6) 0.5921(3) 0.7090(3)
C17B C 0.6858(6) 0.6519(3) 0.6847(4)
C18B C 0.5744(6) 0.6835(3) 0.6399(4)
C19B C 0.4564(6) 0.6549(3) 0.6164(3)
C20B C 0.3407(5) 0.6872(3) 0.5629(4)
C21B C 0.3023(6) 0.7406(3) 0.5893(4)
H9B H 0.352851 0.757759 0.642082
C22B C 0.1928(6) 0.7702(3) 0.5419(4)
H10B H 0.169821 0.806753 0.563063
C23B C 0.1168(6) 0.7474(3) 0.4645(4)
C24B C 0.1564(6) 0.6942(3) 0.4353(4)
H11B H 0.107478 0.677861 0.381420
C25B C 0.2664(6) 0.6647(3) 0.4839(4)
H12B H 0.291091 0.628567 0.462659
C26B C 0.5877(5) 0.7470(3) 0.6146(5)
C27B C 0.6342(6) 0.7904(3) 0.6777(5)
H13B H 0.653596 0.779513 0.736465
C28B C 0.6527(7) 0.8491(4) 0.6567(6)
H14B H 0.683889 0.878449 0.700569
C29B C 0.6255(7) 0.8646(4) 0.5716(7)
H15B H 0.639265 0.904779 0.556772
C30B C 0.5797(7) 0.8237(4) 0.5093(6)
H16B H 0.560868 0.835008 0.450712
C31B C 0.5597(6) 0.7643(3) 0.5306(5)
H17B H 0.526224 0.735652 0.486162
C32B C 0.8130(6) 0.6804(3) 0.6985(5)
C33B C 0.8802(7) 0.7087(3) 0.7741(5)
H18B H 0.845697 0.711081 0.820018
C34B C 0.9988(7) 0.7339(3) 0.7833(5)
H19B H 1.045389 0.752832 0.835730
C35B C 1.0479(7) 0.7313(3) 0.7171(7)
H20B H 1.128680 0.748445 0.723685
C36B C 0.9821(8) 0.7045(4) 0.6419(6)
H21B H 1.015986 0.703344 0.595566
C37B C 0.8646(7) 0.6786(3) 0.6329(5)
H22B H 0.819256 0.659439 0.580333
C38B C 0.8794(6) 0.5697(3) 0.8309(4)
H23B H 0.858600 0.600786 0.863866
C39B C 0.7974(6) 0.5571(3) 0.7503(4)
C40B C 0.8296(6) 0.5100(3) 0.7067(4)
H24B H 0.773505 0.499089 0.651738
C41B C 0.9420(7) 0.4780(3) 0.7409(4)
H25B H 0.960939 0.445779 0.708908
C42B C 1.0276(6) 0.4923(3) 0.8216(4)
C43B C 0.9909(6) 0.5384(3) 0.8649(4)
H26B H 1.044901 0.548886 0.920705
C44B C -0.0050(7) 0.7801(4) 0.4104(5)
C45B C 0.0301(10) 0.8247(6) 0.3547(7)
H27B H -0.017932 0.861870 0.352993
H28B H 0.121117 0.833226 0.377859
H29B H 0.010320 0.808337 0.296415
C46B C -0.0626(8) 0.8177(5) 0.4652(5)
H30B H -0.080401 0.792090 0.508635
H31B H -0.003088 0.849515 0.493744
H32B H -0.141780 0.835867 0.428727
C47B C -0.1014(9) 0.7369(5) 0.3633(9)
H33B H -0.075519 0.718734 0.317056
H34B H -0.110513 0.705366 0.402683
H35B H -0.182629 0.757662 0.338639
C48B C 1.1579(6) 0.4622(3) 0.8584(4)
C49B C 1.1770(7) 0.4407(3) 0.9502(4)
H36B H 1.113116 0.410178 0.949607
H37B H 1.261947 0.423207 0.974143
H38B H 1.168349 0.474857 0.985622
C50B C 1.2603(7) 0.5095(4) 0.8620(5)
H39B H 1.247509 0.544644 0.894380
H40B H 1.344306 0.492253 0.890562
H41B H 1.254299 0.521714 0.803476
C51B C 1.1729(7) 0.4085(4) 0.8048(4)
H42B H 1.161215 0.421697 0.745724
H43B H 1.258032 0.391432 0.829582
H44B H 1.109302 0.377971 0.804484
C52B C 0.4110(12) 0.3715(9) 0.5384(9)
H45B H 0.359(4) 0.336(3) 0.531(5)
H46B H 0.443(7) 0.3757(19) 0.491(5)
H47B H 0.481(7) 0.368(2) 0.591(5)
C53B C 0.4761(10) 0.4941(5) 0.5269(6)
O1B O 0.3514(7) 0.4124(3) 0.5417(5)
H48? H 0.689180 0.604185 0.429175
loop_
_geom_bond_atom_site_label_1
_geom_bond_atom_site_label_2
_geom_bond_site_symmetry_1
_geom_bond_site_symmetry_2
C1 C2 1_555 1_555
C2 C3 1_555 1_555
C3 C4 1_555 1_555
C4 C5 1_555 1_555
C5 C6 1_555 1_555
C6 C7 1_555 1_555
C7 C1 1_555 1_555
C8 H1 1_555 1_555
C9 C7 1_555 1_555
H2 C9 1_555 1_555
C10 C8 1_555 1_555
H3 C10 1_555 1_555
C11 C6 1_555 1_555
H4 C11 1_555 1_555
C12 C3 1_555 1_555
H5 C12 1_555 1_555
C13 C12 1_555 1_555
H6 C13 1_555 1_555
C14 C13 1_555 1_555
H7 C14 1_555 1_555
C15 C2 1_555 1_555
H8 C15 1_555 1_555
C16 C4 1_555 1_555
C17 C16 1_555 1_555
C18 C17 1_555 1_555
C19 C5 1_555 1_555
C20 C19 1_555 1_555
C21 C20 1_555 1_555
H9 C21 1_555 1_555
C22 C21 1_555 1_555
H10 C22 1_555 1_555
C23 C22 1_555 1_555
C24 C23 1_555 1_555
H11 C24 1_555 1_555
C25 C20 1_555 1_555
H12 C25 1_555 1_555
C26 C18 1_555 1_555
C27 C26 1_555 1_555
H13 C27 1_555 1_555
C28 C27 1_555 1_555
H14 C28 1_555 1_555
C29 C28 1_555 1_555
H15 C29 1_555 1_555
C30 C29 1_555 1_555
H16 C30 1_555 1_555
C31 C26 1_555 1_555
H17 C31 1_555 1_555
C32 C17 1_555 1_555
C33 C32 1_555 1_555
H18 C33 1_555 1_555
C34 C33 1_555 1_555
H19 C34 1_555 1_555
C35 C34 1_555 1_555
H20 C35 1_555 1_555
C36 C35 1_555 1_555
H21 C36 1_555 1_555
C37 C32 1_555 1_555
H22 C37 1_555 1_555
C38 H23 1_555 1_555
C39 C16 1_555 1_555
C40 C39 1_555 1_555
H24 C40 1_555 1_555
C41 C40 1_555 1_555
H25 C41 1_555 1_555
C42 C41 1_555 1_555
C43 C38 1_555 1_555
H26 C43 1_555 1_555
C44 C23 1_555 1_555
C45 C44 1_555 1_555
H27 C45 1_555 1_555
H28 C45 1_555 1_555
H29 C45 1_555 1_555
C46 C44 1_555 1_555
H30 C46 1_555 1_555
H31 C46 1_555 1_555
H32 C46 1_555 1_555
C47 C44 1_555 1_555
H33 C47 1_555 1_555
H34 C47 1_555 1_555
H35 C47 1_555 1_555
C48 C42 1_555 1_555
C49 C48 1_555 1_555
H36 C49 1_555 1_555
H37 C49 1_555 1_555
H38 C49 1_555 1_555
C50 C48 1_555 1_555
H39 C50 1_555 1_555
H40 C50 1_555 1_555
H41 C50 1_555 1_555
C51 C48 1_555 1_555
H42 C51 1_555 1_555
H43 C51 1_555 1_555
H44 C51 1_555 1_555
C52 H45 1_555 1_555
H46 C52 1_555 1_555
H47 C52 1_555 1_555
C53 C1 1_555 1_555
O1 C1 1_555 1_555
C1B C2B 1_555 1_555
C2B C3B 1_555 1_555
C3B C4B 1_555 1_555
C4B C5B 1_555 1_555
C5B C6B 1_555 1_555
C6B C7B 1_555 1_555
C7B C1B 1_555 1_555
C8B H1B 1_555 1_555
C9B C7B 1_555 1_555
H2B C9B 1_555 1_555
C10B C8B 1_555 1_555
H3B C10B 1_555 1_555
C11B C6B 1_555 1_555
H4B C11B 1_555 1_555
C12B C3B 1_555 1_555
H5B C12B 1_555 1_555
C13B C12B 1_555 1_555
H6B C13B 1_555 1_555
C14B C13B 1_555 1_555
H7B C14B 1_555 1_555
C15B C2B 1_555 1_555
H8B C15B 1_555 1_555
C16B C4B 1_555 1_555
C17B C16B 1_555 1_555
C18B C17B 1_555 1_555
C19B C5B 1_555 1_555
C20B C19B 1_555 1_555
C21B C20B 1_555 1_555
H9B C21B 1_555 1_555
C22B C21B 1_555 1_555
H10B C22B 1_555 1_555
C23B C22B 1_555 1_555
C24B C23B 1_555 1_555
H11B C24B 1_555 1_555
C25B C20B 1_555 1_555
H12B C25B 1_555 1_555
C26B C18B 1_555 1_555
C27B C26B 1_555 1_555
H13B C27B 1_555 1_555
C28B C27B 1_555 1_555
H14B C28B 1_555 1_555
C29B C28B 1_555 1_555
H15B C29B 1_555 1_555
C30B C29B 1_555 1_555
H16B C30B 1_555 1_555
C31B C26B 1_555 1_555
H17B C31B 1_555 1_555
C32B C17B 1_555 1_555
C33B C32B 1_555 1_555
H18B C33B 1_555 1_555
C34B C33B 1_555 1_555
H19B C34B 1_555 1_555
C35B C34B 1_555 1_555
H20B C35B 1_555 1_555
C36B C35B 1_555 1_555
H21B C36B 1_555 1_555
C37B C32B 1_555 1_555
H22B C37B 1_555 1_555
C38B H23B 1_555 1_555
C39B C16B 1_555 1_555
C40B C39B 1_555 1_555
H24B C40B 1_555 1_555
C41B C40B 1_555 1_555
H25B C41B 1_555 1_555
C42B C41B 1_555 1_555
C43B C38B 1_555 1_555
H26B C43B 1_555 1_555
C44B C23B 1_555 1_555
C45B C44B 1_555 1_555
H27B C45B 1_555 1_555
H28B C45B 1_555 1_555
H29B C45B 1_555 1_555
C46B C44B 1_555 1_555
H30B C46B 1_555 1_555
H31B C46B 1_555 1_555
H32B C46B 1_555 1_555
C47B C44B 1_555 1_555
H33B C47B 1_555 1_555
H34B C47B 1_555 1_555
H35B C47B 1_555 1_555
C48B C42B 1_555 1_555
C49B C48B 1_555 1_555
H36B C49B 1_555 1_555
H37B C49B 1_555 1_555
H38B C49B 1_555 1_555
C50B C48B 1_555 1_555
H39B C50B 1_555 1_555
H40B C50B 1_555 1_555
H41B C50B 1_555 1_555
C51B C48B 1_555 1_555
H42B C51B 1_555 1_555
H43B C51B 1_555 1_555
H44B C51B 1_555 1_555
C52B H45B 1_555 1_555
H46B C52B 1_555 1_555
H47B C52B 1_555 1_555
C53B C53 1_555 1_555
O1B C1B 1_555 1_555
C8 C9 1_555 1_555
C10 C11 1_555 1_555
C14 C15 1_555 1_555
C18 C19 1_555 1_555
C24 C25 1_555 1_555
C30 C31 1_555 1_555
C36 C37 1_555 1_555
C38 C39 1_555 1_555
C42 C43 1_555 1_555
C52 O1 1_555 1_555
C1B C53B 1_555 1_555
C8B C9B 1_555 1_555
C10B C11B 1_555 1_555
C14B C15B 1_555 1_555
C18B C19B 1_555 1_555
C24B C25B 1_555 1_555
C30B C31B 1_555 1_555
C36B C37B 1_555 1_555
C38B C39B 1_555 1_555
C42B C43B 1_555 1_555
C52B O1B 1_555 1_555

#END
