
#######################################################################
#
#                 Cambridge Crystallographic Data Centre
#                                CCDC 
#
#######################################################################
#
# If this CIF has been generated from an entry in the Cambridge 
# Structural Database, then it will include bibliographic, chemical, 
# crystal, experimental, refinement or atomic coordinate data resulting 
# from the CCDC's data processing and validation procedures.
#
#######################################################################

data_SETGUU
_chemical_formula_moiety         'C23 H20 N2 O5,H2 O1'
_chemical_name_systematic        
"(E)-N'-(3-Methoxy-4-benzoyloxybenzylidene)-2-methoxybenzohydrazide monohydrate"
_symmetry_cell_setting           monoclinic
_symmetry_space_group_name_H-M   'P 21/c'
_symmetry_Int_Tables_number      14
_space_group_name_Hall           '-P 2ybc'
loop_
_symmetry_equiv_pos_site_id
_symmetry_equiv_pos_as_xyz
1 x,y,z
2 -x,1/2+y,1/2-z
3 -x,-y,-z
4 x,1/2-y,1/2+z
_cell_length_a                   7.9685(15)
_cell_length_b                   18.584(3)
_cell_length_c                   14.205(3)
_cell_angle_alpha                90
_cell_angle_beta                 91.045(4)
_cell_angle_gamma                90
_cell_volume                     2103.22
_exptl_crystal_colour            'pale yellow'
_exptl_crystal_description       block
_cell_formula_units_Z            4
_exptl_crystal_recrystallization_method acetonitrile
loop_
_atom_site_label
_atom_site_type_symbol
_atom_site_fract_x
_atom_site_fract_y
_atom_site_fract_z
O1 O 0.9451(2) 0.62028(9) -0.11615(11)
O2 O 0.71831(19) 0.58742(8) -0.03682(11)
O3 O 0.6881(2) 0.72976(10) -0.00990(12)
O4 O 1.1086(3) 0.60543(9) 0.52451(12)
O5 O 1.24028(19) 0.81997(8) 0.51866(11)
N1 N 1.0246(2) 0.67207(10) 0.36570(14)
N2 N 1.0955(2) 0.70756(9) 0.44153(13)
H1 H 1.1098 0.7534 0.4399
C1 C 0.5699(3) 0.52482(11) -0.19102(17)
H2 H 0.5155 0.5237 -0.1337
C2 C 0.4957(3) 0.49355(12) -0.2692(2)
H3 H 0.3911 0.4717 -0.2649
C3 C 0.5770(4) 0.49477(14) -0.3534(2)
H4 H 0.5274 0.4735 -0.4062
C4 C 0.7306(4) 0.52714(15) -0.3603(2)
H5 H 0.7846 0.5280 -0.4178
C5 C 0.8055(3) 0.55848(12) -0.28242(19)
H6 H 0.9104 0.5800 -0.2873
C6 C 0.7252(3) 0.55808(11) -0.19724(16)
C7 C 0.8101(3) 0.59216(12) -0.11557(17)
C8 C 0.7869(3) 0.61894(14) 0.04522(17)
C9 C 0.8634(3) 0.57585(13) 0.11126(18)
H7 H 0.8739 0.5268 0.1000
C10 C 0.9252(3) 0.60480(13) 0.19456(16)
H8 H 0.9786 0.5756 0.2390
C11 C 0.9065(3) 0.67801(13) 0.21114(16)
C12 C 0.8289(3) 0.72149(12) 0.14365(17)
H9 H 0.8183 0.7706 0.1546
C13 C 0.7672(3) 0.69232(14) 0.06009(17)
C14 C 0.6622(3) 0.80473(14) 0.00435(19)
H10 H 0.5972 0.8118 0.0598
H11 H 0.6032 0.8246 -0.0492
H12 H 0.7687 0.8283 0.0120
C15 C 0.9742(3) 0.71078(12) 0.29746(17)
H13 H 0.9804 0.7606 0.3023
C16 C 1.1425(3) 0.66951(13) 0.51857(17)
C17 C 1.2331(3) 0.70788(12) 0.59626(16)
C18 C 1.2756(3) 0.66660(13) 0.67498(18)
H14 H 1.2451 0.6183 0.6761
C19 C 1.3609(4) 0.69509(17) 0.75086(19)
H15 H 1.3872 0.6666 0.8029
C20 C 1.4072(3) 0.76627(18) 0.7491(2)
H16 H 1.4663 0.7858 0.8001
C21 C 1.3673(3) 0.80902(13) 0.67302(18)
H17 H 1.3981 0.8573 0.6730
C22 C 1.2817(3) 0.78026(12) 0.59672(17)
C23 C 1.2862(3) 0.89352(12) 0.51519(17)
H18 H 1.2346 0.9189 0.5659
H19 H 1.2491 0.9138 0.4562
H20 H 1.4060 0.8978 0.5210
O6 O 0.8341(2) 0.53234(9) 0.39921(12)
H21 H 0.8514 0.4897 0.4223
H22 H 0.9123 0.5628 0.4133
loop_
_geom_bond_atom_site_label_1
_geom_bond_atom_site_label_2
_geom_bond_site_symmetry_1
_geom_bond_site_symmetry_2
O1 C7 1_555 1_555
O2 C7 1_555 1_555
O3 C13 1_555 1_555
O4 C16 1_555 1_555
O5 C22 1_555 1_555
N1 N2 1_555 1_555
N2 H1 1_555 1_555
C1 H2 1_555 1_555
C2 C1 1_555 1_555
H3 C2 1_555 1_555
C3 C2 1_555 1_555
H4 C3 1_555 1_555
C4 C3 1_555 1_555
H5 C4 1_555 1_555
C5 C4 1_555 1_555
H6 C5 1_555 1_555
C6 C1 1_555 1_555
C7 C6 1_555 1_555
C8 O2 1_555 1_555
C9 C8 1_555 1_555
H7 C9 1_555 1_555
C10 C9 1_555 1_555
H8 C10 1_555 1_555
C11 C10 1_555 1_555
C12 C11 1_555 1_555
H9 C12 1_555 1_555
C13 C8 1_555 1_555
C14 O3 1_555 1_555
H10 C14 1_555 1_555
H11 C14 1_555 1_555
H12 C14 1_555 1_555
C15 N1 1_555 1_555
H13 C15 1_555 1_555
C16 N2 1_555 1_555
C17 C16 1_555 1_555
C18 C17 1_555 1_555
H14 C18 1_555 1_555
C19 C18 1_555 1_555
H15 C19 1_555 1_555
C20 C19 1_555 1_555
H16 C20 1_555 1_555
C21 C20 1_555 1_555
H17 C21 1_555 1_555
C22 C17 1_555 1_555
C23 O5 1_555 1_555
H18 C23 1_555 1_555
H19 C23 1_555 1_555
H20 C23 1_555 1_555
O6 H21 1_555 1_555
H22 O6 1_555 1_555
C5 C6 1_555 1_555
C11 C15 1_555 1_555
C12 C13 1_555 1_555
C21 C22 1_555 1_555

#END
