
#######################################################################
#
#                 Cambridge Crystallographic Data Centre
#                                CCDC 
#
#######################################################################
#
# If this CIF has been generated from an entry in the Cambridge 
# Structural Database, then it will include bibliographic, chemical, 
# crystal, experimental, refinement or atomic coordinate data resulting 
# from the CCDC's data processing and validation procedures.
#
#######################################################################

data_SETHEF
_chemical_formula_moiety         'C25 H23 N3 O4'
_chemical_name_systematic        
N-(2,6-Dimethylphenyl)-2-(2-(3-(3-methoxyphenyl)-1,2,4-oxadiazol-5-yl)phenoxy)acetamide
_symmetry_cell_setting           triclinic
_symmetry_space_group_name_H-M   'P -1'
_symmetry_Int_Tables_number      2
_space_group_name_Hall           '-P 1'
loop_
_symmetry_equiv_pos_site_id
_symmetry_equiv_pos_as_xyz
1 x,y,z
2 -x,-y,-z
_cell_length_a                   8.0360(16)
_cell_length_b                   11.692(2)
_cell_length_c                   12.780(3)
_cell_angle_alpha                66.93(3)
_cell_angle_beta                 85.56(3)
_cell_angle_gamma                81.18(3)
_cell_volume                     1091.48
_exptl_crystal_colour            colorless
_exptl_crystal_description       block
_cell_formula_units_Z            2
_exptl_crystal_recrystallization_method ethanol
loop_
_atom_site_label
_atom_site_type_symbol
_atom_site_fract_x
_atom_site_fract_y
_atom_site_fract_z
O1 O -0.1472(3) 1.0792(2) 0.35968(18)
O2 O 0.2570(2) 1.13202(15) -0.11728(15)
O3 O 0.5234(2) 0.79004(16) -0.07785(15)
O4 O 0.6533(2) 0.47606(16) 0.09651(15)
N1 N 0.1663(3) 1.1272(2) -0.01782(19)
N2 N 0.2958(2) 0.93490(17) 0.00285(16)
N3 N 0.4544(3) 0.62721(18) 0.11566(17)
H1 H 0.4142 0.7054 0.0865
C1 C -0.1885(5) 1.2080(3) 0.2906(3)
H2 H -0.2589 1.2490 0.3334
H3 H -0.2475 1.2163 0.2250
H4 H -0.0871 1.2462 0.2667
C2 C -0.0455(3) 1.0053(3) 0.3135(2)
C3 C -0.0038(4) 0.8816(3) 0.3856(3)
H5 H -0.0452 0.8541 0.4602
C4 C 0.0973(4) 0.7995(3) 0.3488(2)
H6 H 0.1226 0.7160 0.3977
C5 C 0.1624(4) 0.8402(2) 0.2386(2)
H7 H 0.2332 0.7847 0.2139
C6 C 0.1220(3) 0.9632(2) 0.1661(2)
C7 C 0.0161(3) 1.0463(2) 0.2036(2)
H8 H -0.0125 1.1293 0.1544
C8 C 0.1937(3) 1.0097(2) 0.0495(2)
C9 C 0.3296(3) 1.0141(2) -0.0983(2)
C10 C 0.4299(3) 0.9977(2) -0.1926(2)
C11 C 0.4302(4) 1.0973(3) -0.2982(2)
H9 H 0.3660 1.1738 -0.3076
C12 C 0.5234(4) 1.0843(3) -0.3885(2)
H10 H 0.5211 1.1515 -0.4585
C13 C 0.6194(4) 0.9729(3) -0.3756(2)
H11 H 0.6835 0.9650 -0.4368
C14 C 0.6225(3) 0.8726(3) -0.2734(2)
H12 H 0.6878 0.7969 -0.2656
C15 C 0.5283(3) 0.8841(2) -0.1818(2)
C16 C 0.6281(3) 0.6747(2) -0.0555(2)
H13 H 0.7452 0.6864 -0.0564
H14 H 0.6140 0.6429 -0.1134
C17 C 0.5797(3) 0.5831(2) 0.0598(2)
C18 C 0.1096(4) 0.5862(3) 0.1221(3)
H15 H 0.1732 0.6365 0.0584
H16 H 0.0134 0.6380 0.1367
H17 H 0.0726 0.5211 0.1052
C19 C 0.6646(4) 0.5266(3) 0.3139(2)
H18 H 0.6927 0.5805 0.2379
H19 H 0.7404 0.4495 0.3362
H20 H 0.6740 0.5673 0.3650
C20 C 0.3855(3) 0.5494(2) 0.2217(2)
C21 C 0.4858(3) 0.4989(2) 0.3179(2)
C22 C 0.4162(4) 0.4220(2) 0.4186(2)
H21 H 0.4815 0.3857 0.4834
C23 C 0.2536(4) 0.3985(3) 0.4250(3)
H22 H 0.2094 0.3466 0.4936
C24 C 0.1553(4) 0.4515(3) 0.3298(3)
H23 H 0.0443 0.4358 0.3354
C25 C 0.2187(3) 0.5281(2) 0.2255(2)
loop_
_geom_bond_atom_site_label_1
_geom_bond_atom_site_label_2
_geom_bond_site_symmetry_1
_geom_bond_site_symmetry_2
O1 C1 1_555 1_555
O2 N1 1_555 1_555
O3 C15 1_555 1_555
O4 C17 1_555 1_555
N1 C8 1_555 1_555
N2 C8 1_555 1_555
N3 H1 1_555 1_555
C1 H2 1_555 1_555
H3 C1 1_555 1_555
H4 C1 1_555 1_555
C2 O1 1_555 1_555
C3 C2 1_555 1_555
H5 C3 1_555 1_555
C4 C3 1_555 1_555
H6 C4 1_555 1_555
C5 C4 1_555 1_555
H7 C5 1_555 1_555
C6 C5 1_555 1_555
C7 C2 1_555 1_555
H8 C7 1_555 1_555
C8 C6 1_555 1_555
C9 O2 1_555 1_555
C10 C9 1_555 1_555
C11 C10 1_555 1_555
H9 C11 1_555 1_555
C12 C11 1_555 1_555
H10 C12 1_555 1_555
C13 C12 1_555 1_555
H11 C13 1_555 1_555
C14 C13 1_555 1_555
H12 C14 1_555 1_555
C15 C10 1_555 1_555
C16 O3 1_555 1_555
H13 C16 1_555 1_555
H14 C16 1_555 1_555
C17 N3 1_555 1_555
C18 H15 1_555 1_555
H16 C18 1_555 1_555
H17 C18 1_555 1_555
C19 H18 1_555 1_555
H19 C19 1_555 1_555
H20 C19 1_555 1_555
C20 N3 1_555 1_555
C21 C19 1_555 1_555
C22 C21 1_555 1_555
H21 C22 1_555 1_555
C23 C22 1_555 1_555
H22 C23 1_555 1_555
C24 C23 1_555 1_555
H23 C24 1_555 1_555
C25 C18 1_555 1_555
N2 C9 1_555 1_555
C6 C7 1_555 1_555
C14 C15 1_555 1_555
C16 C17 1_555 1_555
C20 C21 1_555 1_555
C20 C25 1_555 1_555
C24 C25 1_555 1_555

#END
