
#######################################################################
#
#                 Cambridge Crystallographic Data Centre
#                                CCDC 
#
#######################################################################
#
# If this CIF has been generated from an entry in the Cambridge 
# Structural Database, then it will include bibliographic, chemical, 
# crystal, experimental, refinement or atomic coordinate data resulting 
# from the CCDC's data processing and validation procedures.
#
#######################################################################

data_SETJEH
_chemical_formula_moiety         'C20 H23 N1 O4'
_chemical_name_systematic        
'Ethyl 3-methyl-7-(phthalimido)bicyclo(3.3.0)octane-3-carboxylate'
_symmetry_cell_setting           orthorhombic
_symmetry_space_group_name_H-M   'P b c m'
_symmetry_Int_Tables_number      57
_space_group_name_Hall           '-P 2c 2b'
loop_
_symmetry_equiv_pos_site_id
_symmetry_equiv_pos_as_xyz
1 x,y,z
2 -x,-y,1/2+z
3 x,1/2-y,-z
4 -x,1/2+y,1/2-z
5 -x,-y,-z
6 x,y,1/2-z
7 -x,1/2+y,z
8 x,1/2-y,1/2+z
_cell_length_a                   8.4578(4)
_cell_length_b                   28.6810(12)
_cell_length_c                   7.3916(3)
_cell_angle_alpha                90
_cell_angle_beta                 90
_cell_angle_gamma                90
_cell_volume                     1793.04
_exptl_crystal_colour            colorless
_exptl_crystal_description       needle
_cell_formula_units_Z            4
loop_
_atom_site_label
_atom_site_type_symbol
_atom_site_fract_x
_atom_site_fract_y
_atom_site_fract_z
C1 C 0.8687(4) 0.15992(11) 0.7500
H1 H 0.9241 0.1299 0.7500
C2 C 0.7573(3) 0.16021(8) 0.5888(4)
H2 H 0.8104 0.1494 0.4803
H3 H 0.7157 0.1912 0.5672
C3 C 0.6262(3) 0.12661(7) 0.6452(3)
H4 H 0.5238 0.1373 0.5990
C4 C 0.6555(3) 0.07602(9) 0.5903(4)
H5 H 0.7671 0.0706 0.5689
H6 H 0.5973 0.0684 0.4811
C5 C 0.5968(4) 0.04654(12) 0.7500
C6 C 0.9595(4) 0.24456(11) 0.7500
C7 C 1.1175(4) 0.26743(11) 0.7500
C8 C 1.1579(4) 0.31412(12) 0.7500
H7 H 1.0808 0.3372 0.7500
C9 C 1.3172(5) 0.32527(14) 0.7500
H8 H 1.3475 0.3564 0.7500
C10 C 1.4312(5) 0.29119(14) 0.7500
H9 H 1.5374 0.2996 0.7500
C11 C 1.3896(4) 0.24446(14) 0.7500
H10 H 1.4665 0.2213 0.7500
C12 C 1.2315(4) 0.23334(11) 0.7500
C13 C 1.1511(4) 0.18747(12) 0.7500
C14 C 0.4174(5) 0.04158(13) 0.7500
H11 H 0.3837 0.0254 0.6441
H12 H 0.3696 0.0725 0.7434
C15 C 0.6682(5) -0.00207(15) 0.7500
C16 C 0.9001(9) -0.0475(3) 0.8644(15)
H13 H 0.9502 -0.0485 0.9824
H14 H 0.8235 -0.0726 0.8576
C17 C 0.9957(14) -0.0519(3) 0.7500
H15 H 1.0560 -0.0807 0.7629
H16 H 0.9455 -0.0515 0.8644
H17 H 1.0723 -0.0263 0.7555
N1 N 0.9890(3) 0.19683(9) 0.7500
O1 O 0.8309(3) 0.26266(8) 0.7500
O2 O 1.2075(3) 0.14881(9) 0.7500
O3 O 0.6021(4) -0.03748(9) 0.7500
O4 O 0.8185(5) -0.00097(12) 0.8377(8)
C2E C 0.7573(3) 0.16021(8) 0.9112(4)
H2E H 0.8104 0.1494 1.0197
H3E H 0.7157 0.1912 0.9328
C3E C 0.6262(3) 0.12661(7) 0.8548(3)
H4E H 0.5238 0.1373 0.9010
C4E C 0.6555(3) 0.07602(9) 0.9097(4)
H5E H 0.7671 0.0706 0.9311
H6E H 0.5973 0.0684 1.0189
H11E H 0.3837 0.0254 0.8559
H12E H 0.3696 0.0725 0.7566
C16E C 0.9001(9) -0.0475(3) 0.6356(15)
H13E H 0.9502 -0.0485 0.5176
H14E H 0.8235 -0.0726 0.6424
H15E H 1.0560 -0.0807 0.7371
H16E H 0.9455 -0.0515 0.6356
H17E H 1.0723 -0.0263 0.7445
O4E O 0.8185(5) -0.00097(12) 0.6623(8)
loop_
_geom_bond_atom_site_label_1
_geom_bond_atom_site_label_2
_geom_bond_site_symmetry_1
_geom_bond_site_symmetry_2
C1 H1 1_555 1_555
C2 C1 1_555 1_555
H2 C2 1_555 1_555
H3 C2 1_555 1_555
C3 C2 1_555 1_555
H4 C3 1_555 1_555
C4 C3 1_555 1_555
H5 C4 1_555 1_555
H6 C4 1_555 1_555
C5 C4 1_555 1_555
C6 C7 1_555 1_555
C7 C8 1_555 1_555
C8 H7 1_555 1_555
C9 C8 1_555 1_555
H8 C9 1_555 1_555
C10 C9 1_555 1_555
H9 C10 1_555 1_555
C11 C10 1_555 1_555
H10 C11 1_555 1_555
C12 C7 1_555 1_555
C13 C12 1_555 1_555
C14 C5 1_555 1_555
H11 C14 1_555 1_555
H12 C14 1_555 1_555
C15 C5 1_555 1_555
C16 H13 1_555 1_555
H14 C16 1_555 1_555
C17 C16 1_555 1_555
H15 C17 1_555 1_555
H16 C16 1_555 1_555
H17 C17 1_555 1_555
N1 C1 1_555 1_555
O1 C6 1_555 1_555
O2 C13 1_555 1_555
O3 C15 1_555 1_555
O4 C15 1_555 1_555
C2E C1 1_555 1_555
H2E C2E 1_555 1_555
H3E C2E 1_555 1_555
C3E C3 1_555 1_555
H4E C3E 1_555 1_555
C4E C5 1_555 1_555
H5E C4E 1_555 1_555
H6E C4E 1_555 1_555
H11E C14 1_555 1_555
H12E C14 1_555 1_555
C16E C16 1_555 1_555
H13E C16E 1_555 1_555
H14E C16E 1_555 1_555
H15E C17 1_555 1_555
H16E C17 1_555 1_555
H17E C17 1_555 1_555
O4E C15 1_555 1_555
C6 N1 1_555 1_555
C11 C12 1_555 1_555
C13 N1 1_555 1_555
H12 H12E 1_555 1_555
C16 O4 1_555 1_555
C17 H16 1_555 1_555
C17 C16E 1_555 1_555
H15 H15E 1_555 1_555
H17 H17E 1_555 1_555
O4 O4E 1_555 1_555
C2E C3E 1_555 1_555
C3E C4E 1_555 1_555
C16E H16E 1_555 1_555
C16E O4E 1_555 1_555

#END
