
#######################################################################
#
#                 Cambridge Crystallographic Data Centre
#                                CCDC 
#
#######################################################################
#
# If this CIF has been generated from an entry in the Cambridge 
# Structural Database, then it will include bibliographic, chemical, 
# crystal, experimental, refinement or atomic coordinate data resulting 
# from the CCDC's data processing and validation procedures.
#
#######################################################################

data_SETLAF
_chemical_formula_moiety         'C12 H13 N1 O3'
_chemical_name_systematic        '(E)-Ethyl 3-(benzoylamino)acrylate'
_symmetry_cell_setting           monoclinic
_symmetry_space_group_name_H-M   'P 21/c'
_symmetry_Int_Tables_number      14
_space_group_name_Hall           '-P 2ybc'
loop_
_symmetry_equiv_pos_site_id
_symmetry_equiv_pos_as_xyz
1 x,y,z
2 -x,1/2+y,1/2-z
3 -x,-y,-z
4 x,1/2-y,1/2+z
_cell_length_a                   12.65(7)
_cell_length_b                   8.84(3)
_cell_length_c                   10.87(5)
_cell_angle_alpha                90
_cell_angle_beta                 110.78(13)
_cell_angle_gamma                90
_cell_volume                     1136.48
_cell_formula_units_Z            4
loop_
_atom_site_label
_atom_site_type_symbol
_atom_site_fract_x
_atom_site_fract_y
_atom_site_fract_z
C1 C 0.3095(4) 0.5376(5) 0.7786(5)
C2 C 0.4181(4) 0.5865(6) 0.8044(6)
H1 H 0.4564 0.5599 0.7487
C3 C 0.4704(5) 0.6758(7) 0.9137(6)
H2 H 0.5441 0.7095 0.9319
C4 C 0.4145(5) 0.7130(7) 0.9926(6)
H3 H 0.4502 0.7735 1.0657
C5 C 0.3075(5) 0.6655(6) 0.9699(6)
H4 H 0.2702 0.6930 1.0264
C6 C 0.2545(4) 0.5758(6) 0.8614(5)
H5 H 0.1813 0.5414 0.8450
C7 C 0.2586(4) 0.4437(5) 0.6569(5)
O1 O 0.3109(3) 0.4191(4) 0.5858(4)
N1 N 0.1532(3) 0.3917(5) 0.6308(4)
H6 H 0.111(3) 0.401(5) 0.686(4)
C8 C 0.1017(4) 0.3042(6) 0.5189(5)
H7 H 0.1429 0.2859 0.4645
C9 C -0.0005(4) 0.2452(6) 0.4837(5)
H8 H -0.0460 0.2625 0.5333
C10 C -0.0410(4) 0.1514(6) 0.3643(5)
O2 O 0.0093(3) 0.1311(4) 0.2930(3)
O3 O -0.1421(3) 0.0949(4) 0.3475(3)
C11 C -0.1903(4) -0.0023(6) 0.2331(5)
H9 H -0.1423 -0.0897 0.2394
H10 H -0.1975 0.0526 0.1532
C12 C -0.3030(4) -0.0505(6) 0.2312(5)
H11 H -0.2957 -0.0941 0.3147
H12 H -0.3340 -0.1242 0.1630
H13 H -0.3524 0.0357 0.2147
loop_
_geom_bond_atom_site_label_1
_geom_bond_atom_site_label_2
_geom_bond_site_symmetry_1
_geom_bond_site_symmetry_2
C1 C2 1_555 1_555
C2 H1 1_555 1_555
C3 C2 1_555 1_555
H2 C3 1_555 1_555
C4 C3 1_555 1_555
H3 C4 1_555 1_555
C5 C4 1_555 1_555
H4 C5 1_555 1_555
C6 C1 1_555 1_555
H5 C6 1_555 1_555
C7 C1 1_555 1_555
O1 C7 1_555 1_555
N1 C7 1_555 1_555
H6 N1 1_555 1_555
C8 N1 1_555 1_555
H7 C8 1_555 1_555
C9 C8 1_555 1_555
H8 C9 1_555 1_555
C10 C9 1_555 1_555
O2 C10 1_555 1_555
O3 C10 1_555 1_555
C11 O3 1_555 1_555
H9 C11 1_555 1_555
H10 C11 1_555 1_555
C12 C11 1_555 1_555
H11 C12 1_555 1_555
H12 C12 1_555 1_555
H13 C12 1_555 1_555
C5 C6 1_555 1_555

#END
