
#######################################################################
#
#                 Cambridge Crystallographic Data Centre
#                                CCDC 
#
#######################################################################
#
# If this CIF has been generated from an entry in the Cambridge 
# Structural Database, then it will include bibliographic, chemical, 
# crystal, experimental, refinement or atomic coordinate data resulting 
# from the CCDC's data processing and validation procedures.
#
#######################################################################

data_SETNEM
_chemical_formula_moiety         'C66 H78 N22 O12,3(C3 H7 N1 O1),3(H2 O1)'
_chemical_name_systematic        
'1,4,12,15,18,26,29,32,40,43,46,54,59,67,70,71,74,82,85,86,87,88-Docosaazanonacyclo[27.27.13.13^15,43^.1^6,10^.1^20,24^.1^34,38^.1^48,52^.1^61,65^.1^76,80^]octaoctaconta-6(87),7,9,20(86),21,23,34(85),35,37,48(71),49,51,61(70),62,64,76(88),77,79-octadecaene-5,11,19,25,33,39,47,53,60,66,75,81-dodecone N,N-dimethylformamide solvate trihydrate'
_symmetry_cell_setting           monoclinic
_symmetry_space_group_name_H-M   'P 21/c'
_symmetry_Int_Tables_number      14
_space_group_name_Hall           '-P 2ybc'
loop_
_symmetry_equiv_pos_site_id
_symmetry_equiv_pos_as_xyz
1 x,y,z
2 -x,1/2+y,1/2-z
3 -x,-y,-z
4 x,1/2-y,1/2+z
_cell_length_a                   11.0487(13)
_cell_length_b                   16.3220(19)
_cell_length_c                   47.794(6)
_cell_angle_alpha                90
_cell_angle_beta                 91.313(2)
_cell_angle_gamma                90
_cell_volume                     8616.76
_cell_formula_units_Z            4
loop_
_atom_site_label
_atom_site_type_symbol
_atom_site_fract_x
_atom_site_fract_y
_atom_site_fract_z
O1 O 0.2440(3) -0.0942(2) 0.31409(6)
O2 O 0.1583(3) 0.2605(2) 0.23174(6)
O3 O 0.3265(3) 0.35923(19) 0.32889(7)
O4 O 0.2758(3) 0.4313(2) 0.47317(7)
O5 O 0.3056(3) 0.0587(4) 0.46556(8)
O6 O 0.0472(5) -0.2972(3) 0.40696(10)
O7 O 0.1693(4) -0.4419(2) 0.34780(9)
O8 O 0.5566(3) -0.12821(19) 0.39614(6)
O9 O 0.6634(3) 0.1906(2) 0.28262(7)
O10 O 0.2486(3) 0.4588(2) 0.21798(7)
O11 O 0.6888(3) 0.2306(2) 0.42792(8)
O12 O 0.3730(3) 0.3842(3) 0.54248(7)
N1 N -0.0656(3) -0.2014(2) 0.34549(7)
C1 C -0.0388(4) -0.1410(3) 0.32380(9)
H1 H -0.1145 -0.1263 0.3135
H2 H 0.0177 -0.1652 0.3103
C2 C 0.0171(4) -0.0646(3) 0.33659(9)
H3 H -0.0467 -0.0320 0.3456
H4 H 0.0774 -0.0806 0.3512
N2 N 0.0763(3) -0.0141(2) 0.31554(7)
H5 H 0.0394 0.0301 0.3092
C3 C 0.1857(4) -0.0339(3) 0.30579(9)
C4 C 0.2325(4) 0.0232(3) 0.28397(9)
N3 N 0.1614(3) 0.0863(2) 0.27640(7)
C5 C 0.3455(4) 0.0096(3) 0.27286(10)
H6 H 0.3935 -0.0358 0.2787
C6 C 0.3866(4) 0.0638(3) 0.25302(10)
H7 H 0.4638 0.0563 0.2450
C7 C 0.3144(4) 0.1290(3) 0.24491(10)
H8 H 0.3411 0.1672 0.2314
C8 C 0.2019(4) 0.1375(3) 0.25691(8)
C9 C 0.1214(4) 0.2086(3) 0.24824(9)
N4 N 0.0108(3) 0.2075(2) 0.25894(7)
H9 H -0.0098 0.1661 0.2696
C10 C -0.0772(4) 0.2727(3) 0.25349(9)
H10 H -0.1566 0.2479 0.2485
H11 H -0.0511 0.3054 0.2373
C11 C -0.0916(4) 0.3288(3) 0.27828(9)
H12 H -0.1583 0.3678 0.2742
H13 H -0.1142 0.2958 0.2947
N5 N 0.0195(3) 0.3751(2) 0.28514(7)
C12 C 0.0390(5) 0.3856(3) 0.31509(10)
H14 H -0.0382 0.4009 0.3238
H15 H 0.0977 0.4304 0.3186
C13 C 0.0874(5) 0.3063(3) 0.32843(10)
H16 H 0.0187 0.2706 0.3333
H17 H 0.1373 0.2766 0.3148
N6 N 0.1599(4) 0.3238(2) 0.35341(7)
H18 H 0.1291 0.3160 0.3700
C14 C 0.2744(5) 0.3520(3) 0.35135(9)
C15 C 0.3345(4) 0.3739(3) 0.37871(10)
N7 N 0.2651(3) 0.3754(2) 0.40138(8)
C16 C 0.4580(4) 0.3932(3) 0.37978(11)
H19 H 0.5048 0.3921 0.3634
C17 C 0.5099(5) 0.4138(3) 0.40543(12)
H20 H 0.5940 0.4253 0.4071
C18 C 0.4380(5) 0.4174(3) 0.42859(11)
H21 H 0.4716 0.4330 0.4463
C19 C 0.3157(4) 0.3978(3) 0.42585(10)
C20 C 0.2367(5) 0.4048(3) 0.45094(10)
N8 N 0.1213(5) 0.3810(4) 0.44643(9)
H22 H 0.1004 0.3625 0.4297
C21 C 0.0287(6) 0.3842(5) 0.46776(13)
H23 H -0.0422 0.4149 0.4603
H24 H 0.0612 0.4143 0.4843
C22 C -0.0114(5) 0.3002(5) 0.47671(13)
H25 H -0.0775 0.3055 0.4902
H26 H -0.0432 0.2698 0.4602
N9 N 0.0885(4) 0.2544(4) 0.48963(9)
C23 C 0.0767(6) 0.1655(5) 0.48492(11)
H27 H -0.0041 0.1470 0.4908
H28 H 0.1386 0.1362 0.4964
C24 C 0.0928(6) 0.1445(5) 0.45414(12)
H29 H 0.0203 0.1627 0.4433
H30 H 0.1636 0.1746 0.4471
N10 N 0.1104(4) 0.0568(4) 0.44973(9)
H31 H 0.0495 0.0269 0.4433
C25 C 0.2180(5) 0.0207(5) 0.45527(12)
C26 C 0.2250(4) -0.0682(5) 0.44933(11)
N11 N 0.1344(4) -0.1044(4) 0.43443(9)
C27 C 0.3242(5) -0.1127(6) 0.45955(14)
H32 H 0.3868 -0.0866 0.4702
C28 C 0.3296(6) -0.1949(7) 0.45393(14)
H33 H 0.3962 -0.2263 0.4608
C29 C 0.2393(6) -0.2321(5) 0.43835(12)
H34 H 0.2432 -0.2888 0.4339
C30 C 0.1413(5) -0.1840(5) 0.42918(11)
C31 C 0.0395(5) -0.2256(5) 0.41305(12)
N12 N -0.0566(4) -0.1776(3) 0.40717(8)
H35 H -0.0559 -0.1263 0.4128
C32 C -0.1618(4) -0.2086(4) 0.39166(10)
H36 H -0.2359 -0.1932 0.4017
H37 H -0.1577 -0.2692 0.3911
C33 C -0.1708(4) -0.1762(3) 0.36211(10)
H38 H -0.2461 -0.1968 0.3530
H39 H -0.1752 -0.1156 0.3626
C34 C -0.0834(4) -0.2844(3) 0.33475(10)
H40 H -0.1522 -0.2840 0.3211
H41 H -0.1055 -0.3206 0.3504
C35 C 0.0271(4) -0.3201(3) 0.32062(9)
H42 H 0.0138 -0.3794 0.3173
H43 H 0.0369 -0.2933 0.3022
N13 N 0.1371(3) -0.3092(2) 0.33741(7)
H44 H 0.1669 -0.2594 0.3391
C36 C 0.1949(4) -0.3696(3) 0.35017(9)
C37 C 0.3021(4) -0.3428(3) 0.36871(9)
N14 N 0.3406(3) -0.2656(2) 0.36625(7)
C38 C 0.3541(4) -0.3992(3) 0.38720(10)
H45 H 0.3237 -0.4535 0.3883
C39 C 0.4511(4) -0.3742(3) 0.40387(10)
H46 H 0.4888 -0.4113 0.4167
C40 C 0.4923(4) -0.2948(3) 0.40165(9)
H47 H 0.5585 -0.2761 0.4130
C41 C 0.4353(4) -0.2431(3) 0.38265(9)
C42 C 0.4802(4) -0.1571(3) 0.37962(9)
N15 N 0.4355(3) -0.1149(2) 0.35748(7)
H48 H 0.3811 -0.1382 0.3463
C43 C 0.4747(4) -0.0325(3) 0.35158(10)
H49 H 0.4640 -0.0215 0.3313
H50 H 0.5620 -0.0272 0.3564
C44 C 0.4036(4) 0.0313(3) 0.36805(9)
H51 H 0.3206 0.0361 0.3600
H52 H 0.3974 0.0133 0.3877
N16 N 0.4635(3) 0.1107(2) 0.36712(7)
C45 C 0.4363(4) 0.1549(3) 0.34114(9)
H53 H 0.3620 0.1879 0.3434
H54 H 0.4206 0.1150 0.3259
C46 C 0.5395(4) 0.2109(3) 0.33311(9)
H55 H 0.5527 0.2525 0.3479
H56 H 0.6147 0.1783 0.3316
N17 N 0.5138(3) 0.2517(2) 0.30659(7)
H57 H 0.4556 0.2885 0.3058
C47 C 0.5741(4) 0.2360(3) 0.28353(9)
C48 C 0.5272(4) 0.2749(3) 0.25722(9)
N18 N 0.4349(3) 0.3295(2) 0.25971(7)
C49 C 0.5723(4) 0.2531(3) 0.23153(9)
H58 H 0.6381 0.2159 0.2306
C50 C 0.5220(4) 0.2853(3) 0.20740(10)
H59 H 0.5511 0.2700 0.1896
C51 C 0.4276(4) 0.3409(3) 0.20969(9)
H60 H 0.3906 0.3644 0.1935
C52 C 0.3884(4) 0.3613(3) 0.23607(9)
C53 C 0.2879(4) 0.4232(3) 0.23919(9)
N19 N 0.2505(3) 0.4356(2) 0.26489(8)
H61 H 0.2866 0.4089 0.2787
C54 C 0.1518(4) 0.4916(3) 0.27134(11)
H62 H 0.1540 0.5389 0.2584
H63 H 0.1643 0.5128 0.2906
C55 C 0.0271(4) 0.4512(3) 0.26898(10)
H64 H -0.0346 0.4901 0.2756
H65 H 0.0083 0.4392 0.2490
C56 C 0.4420(4) 0.1596(3) 0.39210(9)
H66 H 0.3538 0.1647 0.3948
H67 H 0.4754 0.2153 0.3895
C57 C 0.5005(4) 0.1209(3) 0.41806(9)
H68 H 0.4517 0.0733 0.4239
H69 H 0.5824 0.1009 0.4135
N20 N 0.5101(3) 0.1794(2) 0.44112(7)
H70 H 0.4527 0.1806 0.4536
C58 C 0.6035(4) 0.2310(3) 0.44381(9)
C59 C 0.5959(4) 0.2919(3) 0.46694(9)
N21 N 0.5034(3) 0.2858(2) 0.48418(7)
C60 C 0.6829(4) 0.3532(3) 0.46906(10)
H71 H 0.7484 0.3549 0.4565
C61 C 0.6720(5) 0.4121(3) 0.48994(11)
H72 H 0.7294 0.4552 0.4918
C62 C 0.5764(5) 0.4065(3) 0.50780(10)
H73 H 0.5665 0.4456 0.5223
C63 C 0.4945(4) 0.3425(3) 0.50421(9)
C64 C 0.3879(4) 0.3349(4) 0.52343(10)
N22 N 0.3194(4) 0.2687(3) 0.51875(8)
H74 H 0.3427 0.2335 0.5060
C65 C 0.2079(5) 0.2513(6) 0.53357(11)
H75 H 0.2032 0.1915 0.5369
H76 H 0.2124 0.2787 0.5520
C66 C 0.0993(6) 0.2767(6) 0.51937(12)
H77 H 0.0930 0.3370 0.5209
H78 H 0.0297 0.2529 0.5292
O13 O -0.1313(3) 0.0996(2) 0.29817(7)
H79 H -0.169(8) 0.149(6) 0.2964(18)
H80 H -0.165(6) 0.047(5) 0.2928(14)
O14 O 0.151(4) 0.5518(17) 0.6169(4)
O15 O 0.2425(11) 0.5909(11) 0.6374(5)
O16 O 0.1872(17) 0.4747(13) 0.5742(4)
O17 O 0.048(2) 0.4811(8) 0.5969(5)
O18 O 0.0046(4) 0.2878(3) 0.40005(8)
N23 N -0.0750(3) 0.1710(3) 0.38095(8)
C67 C -0.0831(5) 0.2451(3) 0.39194(10)
H81 H -0.1618 0.2676 0.3938
C68 C 0.0399(4) 0.1293(4) 0.37759(11)
H82 H 0.1059 0.1645 0.3845
H83 H 0.0514 0.1172 0.3577
H84 H 0.0400 0.0780 0.3882
C69 C -0.1847(4) 0.1279(3) 0.37109(10)
H85 H -0.2564 0.1588 0.3766
H86 H -0.1868 0.0731 0.3794
H87 H -0.1841 0.1231 0.3507
O19 O 0.8788(3) -0.0058(2) 0.42359(7)
N24 N 0.7262(4) 0.0002(3) 0.45471(9)
C70 C 0.7767(5) -0.0265(4) 0.43169(12)
H88 H 0.7318 -0.0642 0.4204
C71 C 0.7873(5) 0.0604(4) 0.47200(12)
H89 H 0.8265 0.1009 0.4601
H90 H 0.8487 0.0333 0.4839
H91 H 0.7284 0.0880 0.4838
C72 C 0.6098(4) -0.0318(4) 0.46359(12)
H92 H 0.5817 -0.0741 0.4504
H93 H 0.5505 0.0128 0.4640
H94 H 0.6191 -0.0556 0.4823
O20 O 0.2611(18) 0.4982(12) 0.6622(6)
N25 N 0.4364(13) 0.4542(12) 0.6763(3)
C73 C 0.3688(17) 0.5199(12) 0.6735(6)
H95 H 0.3921 0.5739 0.6787
C74 C 0.3882(11) 0.3776(9) 0.6683(2)
H96 H 0.3049 0.3848 0.6613
H97 H 0.3886 0.3409 0.6846
H98 H 0.4375 0.3537 0.6536
C75 C 0.5623(15) 0.4529(10) 0.6881(4)
H99 H 0.5914 0.3963 0.6891
H100 H 0.5633 0.4767 0.7069
H101 H 0.6151 0.4850 0.6761
N26? N 0.418(2) 0.4672(12) 0.6802(5)
O21? O 0.592(2) 0.3942(15) 0.6898(6)
C76? C 0.536(2) 0.4601(17) 0.6857(8)
C77? C 0.357(5) 0.431(4) 0.6568(11)
H102? H 0.2783 0.4573 0.6538
H103? H 0.3454 0.3723 0.6603
H104? H 0.4059 0.4381 0.6401
C78? C 0.378(2) 0.5497(13) 0.6906(5)
H105? H 0.4474 0.5875 0.6907
H106? H 0.3482 0.5443 0.7096
H107? H 0.3139 0.5712 0.6782
H108? H 0.5818 0.5093 0.6865
loop_
_geom_bond_atom_site_label_1
_geom_bond_atom_site_label_2
_geom_bond_site_symmetry_1
_geom_bond_site_symmetry_2
O1 C3 1_555 1_555
O2 C9 1_555 1_555
O3 C14 1_555 1_555
O4 C20 1_555 1_555
O5 C25 1_555 1_555
O6 C31 1_555 1_555
O7 C36 1_555 1_555
O8 C42 1_555 1_555
O9 C47 1_555 1_555
O10 C53 1_555 1_555
O11 C58 1_555 1_555
O12 C64 1_555 1_555
N1 C1 1_555 1_555
C1 H1 1_555 1_555
H2 C1 1_555 1_555
C2 C1 1_555 1_555
H3 C2 1_555 1_555
H4 C2 1_555 1_555
N2 C2 1_555 1_555
H5 N2 1_555 1_555
C3 N2 1_555 1_555
C4 C3 1_555 1_555
N3 C4 1_555 1_555
C5 C4 1_555 1_555
H6 C5 1_555 1_555
C6 C5 1_555 1_555
H7 C6 1_555 1_555
C7 C6 1_555 1_555
H8 C7 1_555 1_555
C8 N3 1_555 1_555
C9 C8 1_555 1_555
N4 C9 1_555 1_555
H9 N4 1_555 1_555
C10 N4 1_555 1_555
H10 C10 1_555 1_555
H11 C10 1_555 1_555
C11 C10 1_555 1_555
H12 C11 1_555 1_555
H13 C11 1_555 1_555
N5 C11 1_555 1_555
C12 N5 1_555 1_555
H14 C12 1_555 1_555
H15 C12 1_555 1_555
C13 C12 1_555 1_555
H16 C13 1_555 1_555
H17 C13 1_555 1_555
N6 C13 1_555 1_555
H18 N6 1_555 1_555
C14 N6 1_555 1_555
C15 C14 1_555 1_555
N7 C15 1_555 1_555
C16 C15 1_555 1_555
H19 C16 1_555 1_555
C17 C16 1_555 1_555
H20 C17 1_555 1_555
C18 C17 1_555 1_555
H21 C18 1_555 1_555
C19 N7 1_555 1_555
C20 C19 1_555 1_555
N8 C20 1_555 1_555
H22 N8 1_555 1_555
C21 N8 1_555 1_555
H23 C21 1_555 1_555
H24 C21 1_555 1_555
C22 C21 1_555 1_555
H25 C22 1_555 1_555
H26 C22 1_555 1_555
N9 C22 1_555 1_555
C23 N9 1_555 1_555
H27 C23 1_555 1_555
H28 C23 1_555 1_555
C24 C23 1_555 1_555
H29 C24 1_555 1_555
H30 C24 1_555 1_555
N10 C24 1_555 1_555
H31 N10 1_555 1_555
C25 N10 1_555 1_555
C26 C25 1_555 1_555
N11 C26 1_555 1_555
C27 C26 1_555 1_555
H32 C27 1_555 1_555
C28 C27 1_555 1_555
H33 C28 1_555 1_555
C29 C28 1_555 1_555
H34 C29 1_555 1_555
C30 N11 1_555 1_555
C31 C30 1_555 1_555
N12 C31 1_555 1_555
H35 N12 1_555 1_555
C32 N12 1_555 1_555
H36 C32 1_555 1_555
H37 C32 1_555 1_555
C33 N1 1_555 1_555
H38 C33 1_555 1_555
H39 C33 1_555 1_555
C34 N1 1_555 1_555
H40 C34 1_555 1_555
H41 C34 1_555 1_555
C35 C34 1_555 1_555
H42 C35 1_555 1_555
H43 C35 1_555 1_555
N13 C35 1_555 1_555
H44 N13 1_555 1_555
C36 N13 1_555 1_555
C37 C36 1_555 1_555
N14 C37 1_555 1_555
C38 C37 1_555 1_555
H45 C38 1_555 1_555
C39 C38 1_555 1_555
H46 C39 1_555 1_555
C40 C39 1_555 1_555
H47 C40 1_555 1_555
C41 N14 1_555 1_555
C42 C41 1_555 1_555
N15 C42 1_555 1_555
H48 N15 1_555 1_555
C43 N15 1_555 1_555
H49 C43 1_555 1_555
H50 C43 1_555 1_555
C44 C43 1_555 1_555
H51 C44 1_555 1_555
H52 C44 1_555 1_555
N16 C44 1_555 1_555
C45 N16 1_555 1_555
H53 C45 1_555 1_555
H54 C45 1_555 1_555
C46 C45 1_555 1_555
H55 C46 1_555 1_555
H56 C46 1_555 1_555
N17 C46 1_555 1_555
H57 N17 1_555 1_555
C47 N17 1_555 1_555
C48 C47 1_555 1_555
N18 C48 1_555 1_555
C49 C48 1_555 1_555
H58 C49 1_555 1_555
C50 C49 1_555 1_555
H59 C50 1_555 1_555
C51 C50 1_555 1_555
H60 C51 1_555 1_555
C52 N18 1_555 1_555
C53 C52 1_555 1_555
N19 C53 1_555 1_555
H61 N19 1_555 1_555
C54 N19 1_555 1_555
H62 C54 1_555 1_555
H63 C54 1_555 1_555
C55 N5 1_555 1_555
H64 C55 1_555 1_555
H65 C55 1_555 1_555
C56 N16 1_555 1_555
H66 C56 1_555 1_555
H67 C56 1_555 1_555
C57 C56 1_555 1_555
H68 C57 1_555 1_555
H69 C57 1_555 1_555
N20 C57 1_555 1_555
H70 N20 1_555 1_555
C58 N20 1_555 1_555
C59 C58 1_555 1_555
N21 C59 1_555 1_555
C60 C59 1_555 1_555
H71 C60 1_555 1_555
C61 C60 1_555 1_555
H72 C61 1_555 1_555
C62 C61 1_555 1_555
H73 C62 1_555 1_555
C63 N21 1_555 1_555
C64 C63 1_555 1_555
N22 C64 1_555 1_555
H74 N22 1_555 1_555
C65 N22 1_555 1_555
H75 C65 1_555 1_555
H76 C65 1_555 1_555
C66 N9 1_555 1_555
H77 C66 1_555 1_555
H78 C66 1_555 1_555
O13 H79 1_555 1_555
H80 O13 1_555 1_555
O18 C67 1_555 1_555
N23 C67 1_555 1_555
C67 H81 1_555 1_555
C68 N23 1_555 1_555
H82 C68 1_555 1_555
H83 C68 1_555 1_555
H84 C68 1_555 1_555
C69 N23 1_555 1_555
H85 C69 1_555 1_555
H86 C69 1_555 1_555
H87 C69 1_555 1_555
O19 C70 1_555 1_555
N24 C70 1_555 1_555
C70 H88 1_555 1_555
C71 N24 1_555 1_555
H89 C71 1_555 1_555
H90 C71 1_555 1_555
H91 C71 1_555 1_555
C72 N24 1_555 1_555
H92 C72 1_555 1_555
H93 C72 1_555 1_555
H94 C72 1_555 1_555
O20 C73 1_555 1_555
N25 C73 1_555 1_555
C73 H95 1_555 1_555
C74 N25 1_555 1_555
H96 C74 1_555 1_555
H97 C74 1_555 1_555
H98 C74 1_555 1_555
C75 N25 1_555 1_555
H99 C75 1_555 1_555
H100 C75 1_555 1_555
H101 C75 1_555 1_555
C7 C8 1_555 1_555
C18 C19 1_555 1_555
C29 C30 1_555 1_555
C32 C33 1_555 1_555
C40 C41 1_555 1_555
C51 C52 1_555 1_555
C54 C55 1_555 1_555
C62 C63 1_555 1_555
C65 C66 1_555 1_555

#END
