
#######################################################################
#
#                 Cambridge Crystallographic Data Centre
#                                CCDC 
#
#######################################################################
#
# If this CIF has been generated from an entry in the Cambridge 
# Structural Database, then it will include bibliographic, chemical, 
# crystal, experimental, refinement or atomic coordinate data resulting 
# from the CCDC's data processing and validation procedures.
#
#######################################################################

data_SETRUF
_chemical_formula_moiety         'C18 H19 N1 O3 S1'
_chemical_name_systematic        
3-(2-methoxybenzyl)-2-(2-methoxyphenyl)-1,3-thiazolidin-4-one
_symmetry_cell_setting           monoclinic
_symmetry_space_group_name_H-M   'P 21/n'
_symmetry_Int_Tables_number      14
_space_group_name_Hall           '-P 2yn'
loop_
_symmetry_equiv_pos_site_id
_symmetry_equiv_pos_as_xyz
1 x,y,z
2 1/2-x,1/2+y,1/2-z
3 -x,-y,-z
4 1/2+x,1/2-y,1/2+z
_cell_length_a                   8.3321(2)
_cell_length_b                   18.3668(4)
_cell_length_c                   10.8568(2)
_cell_angle_alpha                90
_cell_angle_beta                 94.450(2)
_cell_angle_gamma                90
_cell_volume                     1656.45
_exptl_crystal_colour            colorless
_exptl_crystal_description       block
_cell_formula_units_Z            4
_exptl_crystal_recrystallization_method ethanol
loop_
_atom_site_label
_atom_site_type_symbol
_atom_site_fract_x
_atom_site_fract_y
_atom_site_fract_z
S1 S 0.74584(4) 0.517259(18) 0.47498(3)
C1 C 0.71836(16) 0.50387(7) 0.64006(12)
C2 C 0.84157(16) 0.45225(7) 0.70183(12)
C3 C 0.82233(17) 0.37724(7) 0.67929(12)
O1 O 0.69400(13) 0.35958(5) 0.59885(9)
C4 C 0.6691(2) 0.28392(8) 0.57169(14)
C5 C 0.92925(18) 0.32726(8) 0.73653(14)
C6 C 1.05738(19) 0.35246(9) 0.81393(14)
C7 C 1.08049(18) 0.42616(9) 0.83516(14)
C8 C 0.97188(17) 0.47576(8) 0.77853(13)
N1 N 0.72868(14) 0.57652(6) 0.69289(10)
C9 C 0.68126(17) 0.58965(7) 0.81732(12)
C10 C 0.51103(16) 0.61795(7) 0.82077(12)
C11 C 0.45595(17) 0.63563(7) 0.93613(13)
O2 O 0.56653(12) 0.62518(6) 1.03487(9)
C12 C 0.5106(2) 0.63609(10) 1.15509(13)
C13 C 0.30138(19) 0.66200(9) 0.94547(14)
C14 C 0.19960(19) 0.66985(9) 0.83815(15)
C15 C 0.25127(19) 0.65255(8) 0.72409(14)
C16 C 0.40722(17) 0.62666(7) 0.71600(13)
C17 C 0.80050(17) 0.62907(7) 0.62972(12)
O3 O 0.82535(13) 0.69122(5) 0.66759(9)
C18 C 0.85140(19) 0.60177(7) 0.50706(13)
H1 H 0.6081 0.4840 0.6488
H2 H 0.7620 0.2647 0.5321
H3 H 0.5717 0.2781 0.5159
H4 H 0.6564 0.2572 0.6485
H5 H 0.9146 0.2765 0.7227
H6 H 1.1307 0.3185 0.8531
H7 H 1.1694 0.4427 0.8878
H8 H 0.9874 0.5264 0.7927
H9 H 0.7565 0.6253 0.8587
H10 H 0.6914 0.5436 0.8648
H11 H 0.4815 0.6873 1.1648
H12 H 0.5961 0.6230 1.2183
H13 H 0.4161 0.6054 1.1643
H14 H 0.2655 0.6745 1.0237
H15 H 0.0931 0.6874 0.8437
H16 H 0.1810 0.6583 0.6516
H17 H 0.4428 0.6148 0.6374
H18 H 0.9692 0.5937 0.5118
H19 H 0.8229 0.6377 0.4410
loop_
_geom_bond_atom_site_label_1
_geom_bond_atom_site_label_2
_geom_bond_site_symmetry_1
_geom_bond_site_symmetry_2
S1 C1 1_555 1_555
C1 C2 1_555 1_555
C2 C3 1_555 1_555
C3 O1 1_555 1_555
O1 C4 1_555 1_555
C4 H2 1_555 1_555
C5 C3 1_555 1_555
C6 C5 1_555 1_555
C7 C6 1_555 1_555
C8 C2 1_555 1_555
N1 C1 1_555 1_555
C9 N1 1_555 1_555
C10 C9 1_555 1_555
C11 C10 1_555 1_555
O2 C11 1_555 1_555
C12 O2 1_555 1_555
C13 C11 1_555 1_555
C14 C13 1_555 1_555
C15 C14 1_555 1_555
C16 C10 1_555 1_555
C17 N1 1_555 1_555
O3 C17 1_555 1_555
C18 S1 1_555 1_555
H1 C1 1_555 1_555
H3 C4 1_555 1_555
H4 C4 1_555 1_555
H5 C5 1_555 1_555
H6 C6 1_555 1_555
H7 C7 1_555 1_555
H8 C8 1_555 1_555
H9 C9 1_555 1_555
H10 C9 1_555 1_555
H11 C12 1_555 1_555
H12 C12 1_555 1_555
H13 C12 1_555 1_555
H14 C13 1_555 1_555
H15 C14 1_555 1_555
H16 C15 1_555 1_555
H17 C16 1_555 1_555
H18 C18 1_555 1_555
H19 C18 1_555 1_555
C7 C8 1_555 1_555
C15 C16 1_555 1_555
C17 C18 1_555 1_555

#END
