
#######################################################################
#
#                 Cambridge Crystallographic Data Centre
#                                CCDC 
#
#######################################################################
#
# If this CIF has been generated from an entry in the Cambridge 
# Structural Database, then it will include bibliographic, chemical, 
# crystal, experimental, refinement or atomic coordinate data resulting 
# from the CCDC's data processing and validation procedures.
#
#######################################################################

data_SETSIT
_chemical_formula_moiety         'C26 H38 Si2'
_chemical_name_systematic        
2,2-Di-t-butyl-4',5,6',7-tetramethylspiro(1,2-disilaindan-1,1'-2'H-1-silabenzocyclobutene)
_symmetry_cell_setting           monoclinic
_symmetry_space_group_name_H-M   'P 21/n'
_symmetry_Int_Tables_number      14
_space_group_name_Hall           '-P 2yn'
loop_
_symmetry_equiv_pos_site_id
_symmetry_equiv_pos_as_xyz
1 x,y,z
2 1/2-x,1/2+y,1/2-z
3 -x,-y,-z
4 1/2+x,1/2-y,1/2+z
_cell_length_a                   15.305(3)
_cell_length_b                   16.709(5)
_cell_length_c                   10.460(3)
_cell_angle_alpha                90
_cell_angle_beta                 108.89(2)
_cell_angle_gamma                90
_cell_volume                     2530.88
_exptl_crystal_colour            colorless
_chemical_melting_point          133deg.C
_cell_formula_units_Z            4
loop_
_atom_site_label
_atom_site_type_symbol
_atom_site_fract_x
_atom_site_fract_y
_atom_site_fract_z
Si1 Si 0.3675(1) 0.8325(1) 0.1607(1)
Si2 Si 0.4838(1) 0.7666(1) 0.0995(1)
C1 C 0.5019(3) 0.6519(3) 0.1097(5)
C2 C 0.4933(3) 0.6564(3) -0.0369(5)
C3 C 0.4958(3) 0.5971(3) -0.1286(6)
C4 C 0.4884(3) 0.6193(4) -0.2589(6)
C5 C 0.4800(3) 0.6989(4) -0.2937(5)
C6 C 0.4763(3) 0.7598(3) -0.2039(6)
C7 C 0.4824(3) 0.7377(3) -0.0747(5)
C8 C 0.5778(3) 0.8327(3) 0.2106(4)
C9 C 0.6690(3) 0.8379(3) 0.2080(5)
C10 C 0.7303(3) 0.8917(3) 0.2922(5)
C11 C 0.7044(3) 0.9427(3) 0.3783(5)
C12 C 0.6152(3) 0.9373(3) 0.3825(5)
C13 C 0.5522(3) 0.8825(3) 0.3018(5)
C14 C 0.4566(3) 0.8759(3) 0.3165(5)
C15 C 0.2838(4) 0.7679(3) 0.2148(6)
C16 C 0.3152(3) 0.9170(3) 0.0403(5)
C17 C 0.3311(5) 0.6947(4) 0.2883(7)
C18 C 0.2020(4) 0.7403(4) 0.0966(7)
C19 C 0.2454(4) 0.8131(3) 0.3117(6)
C20 C 0.2582(4) 0.8856(4) -0.1012(6)
C21 C 0.2541(4) 0.9728(3) 0.0889(7)
C22 C 0.3950(3) 0.9676(3) 0.0229(6)
C23 C 0.4922(4) 0.5573(3) -0.3622(6)
C24 C 0.4711(4) 0.8459(3) -0.2483(5)
C25 C 0.7025(3) 0.7863(3) 0.1154(5)
C26 C 0.7714(3) 1.0020(3) 0.4653(6)
H1 H 0.4541 0.6219 0.1291
H2 H 0.5611 0.6345 0.1683
H3 H 0.5026 0.5419 -0.1019
H4 H 0.4763 0.7133 -0.3842
H5 H 0.7928 0.8931 0.2913
H6 H 0.5966 0.9714 0.4429
H7 H 0.4608 0.8416 0.3920
H8 H 0.4367 0.9282 0.3334
H9 H 0.3837 0.7103 0.3632
H10 H 0.3510 0.6617 0.2278
H11 H 0.2889 0.6651 0.3210
H12 H 0.1702 0.7860 0.0474
H13 H 0.1608 0.7104 0.1308
H14 H 0.2229 0.7070 0.0377
H15 H 0.2145 0.8605 0.2678
H16 H 0.2944 0.8278 0.3922
H17 H 0.2021 0.7794 0.3351
H18 H 0.2080 0.8535 -0.0940
H19 H 0.2970 0.8538 -0.1371
H20 H 0.2342 0.9301 -0.1603
H21 H 0.2035 0.9435 0.1012
H22 H 0.2306 1.0142 0.0231
H23 H 0.2900 0.9964 0.1733
H24 H 0.4352 0.9342 -0.0080
H25 H 0.4293 0.9912 0.1080
H26 H 0.3700 1.0091 -0.0422
H27 H 0.4983 0.5048 -0.3230
H28 H 0.5441 0.5681 -0.3920
H29 H 0.4363 0.5601 -0.4379
H30 H 0.4671 0.8487 -0.3417
H31 H 0.5252 0.8740 -0.1943
H32 H 0.4172 0.8700 -0.2368
H33 H 0.6532 0.7525 0.0629
H34 H 0.7528 0.7538 0.1687
H35 H 0.7231 0.8196 0.0560
H36 H 0.8292 0.9976 0.4483
H37 H 0.7806 0.9904 0.5586
H38 H 0.7478 1.0554 0.4449
loop_
_geom_bond_atom_site_label_1
_geom_bond_atom_site_label_2
_geom_bond_site_symmetry_1
_geom_bond_site_symmetry_2
Si1 Si2 1_555 1_555
Si2 C1 1_555 1_555
C1 C2 1_555 1_555
C2 C3 1_555 1_555
C3 C4 1_555 1_555
C4 C5 1_555 1_555
C5 C6 1_555 1_555
C6 C7 1_555 1_555
C7 Si2 1_555 1_555
C8 Si2 1_555 1_555
C9 C8 1_555 1_555
C10 C9 1_555 1_555
C11 C10 1_555 1_555
C12 C11 1_555 1_555
C13 C8 1_555 1_555
C14 Si1 1_555 1_555
C15 Si1 1_555 1_555
C16 Si1 1_555 1_555
C17 C15 1_555 1_555
C18 C15 1_555 1_555
C19 C15 1_555 1_555
C20 C16 1_555 1_555
C21 C16 1_555 1_555
C22 C16 1_555 1_555
C23 C4 1_555 1_555
C24 C6 1_555 1_555
C25 C9 1_555 1_555
C26 C11 1_555 1_555
H1 C1 1_555 1_555
H2 C1 1_555 1_555
H3 C3 1_555 1_555
H4 C5 1_555 1_555
H5 C10 1_555 1_555
H6 C12 1_555 1_555
H7 C14 1_555 1_555
H8 C14 1_555 1_555
H9 C17 1_555 1_555
H10 C17 1_555 1_555
H11 C17 1_555 1_555
H12 C18 1_555 1_555
H13 C18 1_555 1_555
H14 C18 1_555 1_555
H15 C19 1_555 1_555
H16 C19 1_555 1_555
H17 C19 1_555 1_555
H18 C20 1_555 1_555
H19 C20 1_555 1_555
H20 C20 1_555 1_555
H21 C21 1_555 1_555
H22 C21 1_555 1_555
H23 C21 1_555 1_555
H24 C22 1_555 1_555
H25 C22 1_555 1_555
H26 C22 1_555 1_555
H27 C23 1_555 1_555
H28 C23 1_555 1_555
H29 C23 1_555 1_555
H30 C24 1_555 1_555
H31 C24 1_555 1_555
H32 C24 1_555 1_555
H33 C25 1_555 1_555
H34 C25 1_555 1_555
H35 C25 1_555 1_555
H36 C26 1_555 1_555
H37 C26 1_555 1_555
H38 C26 1_555 1_555
C2 C7 1_555 1_555
C12 C13 1_555 1_555
C13 C14 1_555 1_555

#END
