
#######################################################################
#
#                 Cambridge Crystallographic Data Centre
#                                CCDC 
#
#######################################################################
#
# If this CIF has been generated from an entry in the Cambridge 
# Structural Database, then it will include bibliographic, chemical, 
# crystal, experimental, refinement or atomic coordinate data resulting 
# from the CCDC's data processing and validation procedures.
#
#######################################################################

data_SEVNOW
_chemical_formula_moiety         'C24 H16 N2'
_chemical_name_systematic        2,9-Diphenyl-1,10-phenanthroline
_symmetry_cell_setting           orthorhombic
_symmetry_space_group_name_H-M   'P n a 21'
_symmetry_Int_Tables_number      33
_space_group_name_Hall           'P 2c -2n'
loop_
_symmetry_equiv_pos_site_id
_symmetry_equiv_pos_as_xyz
1 x,y,z
2 1/2-x,1/2+y,1/2+z
3 1/2+x,1/2-y,z
4 -x,-y,1/2+z
_cell_length_a                   23.969(1)
_cell_length_b                   12.585(2)
_cell_length_c                   5.514(4)
_cell_angle_alpha                90
_cell_angle_beta                 90
_cell_angle_gamma                90
_cell_volume                     1663.3
_exptl_crystal_colour            'pale yellow'
_cell_formula_units_Z            4
loop_
_atom_site_label
_atom_site_type_symbol
_atom_site_fract_x
_atom_site_fract_y
_atom_site_fract_z
N1 N 0.0634(2) 0.3193(4) 0.40080
N2 N 0.1313(2) 0.2326(4) 0.750(1)
C1 C 0.0308(2) 0.3562(5) 0.227(2)
C2 C 0.0514(3) 0.4259(5) 0.047(2)
C3 C 0.1057(3) 0.4590(5) 0.058(2)
C4 C 0.1978(3) 0.4515(5) 0.257(2)
C5 C 0.2306(3) 0.4095(5) 0.429(2)
C6 C 0.2437(3) 0.2819(5) 0.771(2)
C7 C 0.2223(3) 0.2095(3) 0.921(2)
C8 C 0.1645(3) 0.1864(5) 0.913(1)
C9 C 0.1174(2) 0.3484(2) 0.408(1)
C10 C 0.1405(3) 0.4199(5) 0.242(2)
C11 C -0.0282(2) 0.3225(5) 0.231(1)
C12 C -0.0664(3) 0.3559(6) 0.060(2)
C13 C -0.1223(3) 0.3268(6) 0.073(2)
C14 C -0.1405(3) 0.2638(5) 0.258(2)
C15 C -0.1029(3) 0.2290(6) 0.429(2)
C16 C -0.0472(3) 0.2585(6) 0.415(2)
C17 C 0.1377(3) 0.1120(5) 1.083(2)
C18 C 0.0822(3) 0.0843(5) 1.054(2)
C19 C 0.0559(3) 0.0155(6) 1.216(2)
C20 C 0.0858(3) -0.0305(6) 1.405(2)
C21 C 0.1408(3) -0.0034(6) 1.434(2)
C22 C 0.1665(3) 0.0649(6) 1.278(2)
C23 C 0.1535(2) 0.3032(5) 0.595(1)
C24 C 0.2101(3) 0.3326(5) 0.590(2)
loop_
_geom_bond_atom_site_label_1
_geom_bond_atom_site_label_2
_geom_bond_site_symmetry_1
_geom_bond_site_symmetry_2
N1 C1 1_555 1_555
N2 C8 1_555 1_555
C1 C2 1_555 1_555
C2 C3 1_555 1_555
C3 C10 1_555 1_555
C4 C5 1_555 1_555
C5 C24 1_555 1_555
C6 C7 1_555 1_555
C7 C8 1_555 1_555
C8 C17 1_555 1_555
C9 N1 1_555 1_555
C10 C4 1_555 1_555
C11 C1 1_555 1_555
C12 C11 1_555 1_555
C13 C12 1_555 1_555
C14 C13 1_555 1_555
C15 C14 1_555 1_555
C16 C11 1_555 1_555
C17 C18 1_555 1_555
C18 C19 1_555 1_555
C19 C20 1_555 1_555
C20 C21 1_555 1_555
C21 C22 1_555 1_555
C22 C17 1_555 1_555
C23 N2 1_555 1_555
C24 C6 1_555 1_555
C9 C10 1_555 1_555
C9 C23 1_555 1_555
C15 C16 1_555 1_555
C23 C24 1_555 1_555

#END
