
#######################################################################
#
#                 Cambridge Crystallographic Data Centre
#                                CCDC 
#
#######################################################################
#
# If this CIF has been generated from an entry in the Cambridge 
# Structural Database, then it will include bibliographic, chemical, 
# crystal, experimental, refinement or atomic coordinate data resulting 
# from the CCDC's data processing and validation procedures.
#
#######################################################################

data_SEVQOC
_chemical_formula_moiety         'C25 H21 N2 O2 1+,F6 P1 1-'
_chemical_name_systematic        
'3-benzyl-1-((6-methyl-2-oxo-2H-1-benzopyran-4-yl)methyl)-1H-benzimidazol-3-ium hexafluorophosphate'
_symmetry_cell_setting           monoclinic
_symmetry_space_group_name_H-M   'P 21/c'
_symmetry_Int_Tables_number      14
_space_group_name_Hall           '-P 2ybc'
loop_
_symmetry_equiv_pos_site_id
_symmetry_equiv_pos_as_xyz
1 x,y,z
2 -x,1/2+y,1/2-z
3 -x,-y,-z
4 x,1/2-y,1/2+z
_cell_length_a                   9.9126(4)
_cell_length_b                   27.3572(12)
_cell_length_c                   9.6945(4)
_cell_angle_alpha                90
_cell_angle_beta                 118.017(2)
_cell_angle_gamma                90
_cell_volume                     2320.87
_exptl_crystal_colour            white
_exptl_crystal_description       Prism
_cell_formula_units_Z            4
loop_
_atom_site_label
_atom_site_type_symbol
_atom_site_fract_x
_atom_site_fract_y
_atom_site_fract_z
P1 P 0.34691(8) 0.63413(3) 0.31344(8)
F1 F 0.4317(2) 0.58470(6) 0.3984(2)
F2 F 0.5097(2) 0.66065(6) 0.3828(2)
F3 F 0.3333(2) 0.65021(9) 0.4619(2)
F4 F 0.2642(2) 0.68344(6) 0.2276(2)
F5 F 0.1860(2) 0.60698(7) 0.2449(3)
F6 F 0.3628(2) 0.61801(7) 0.1642(2)
O1 O 0.9413(2) 0.49749(7) 0.1543(2)
O2 O 1.1515(2) 0.49527(8) 0.3815(3)
N1 N 0.8782(3) 0.62290(8) 0.7336(3)
N2 N 0.8306(2) 0.61949(8) 0.4902(3)
C1 C 0.7877(3) 0.60463(10) 0.5943(3)
H1 H 0.7051 0.5841 0.5719
C2 C 0.9870(3) 0.65245(10) 0.7219(3)
C3 C 1.1066(3) 0.68007(11) 0.8332(3)
H2 H 1.1272 0.6810 0.9371
C4 C 1.1924(4) 0.70582(12) 0.7806(4)
H3 H 1.2721 0.7253 0.8506
C5 C 1.1632(4) 0.70356(12) 0.6243(4)
H4 H 1.2245 0.7215 0.5939
C6 C 1.0466(3) 0.67559(11) 0.5145(4)
H5 H 1.0284 0.6737 0.4114
C7 C 0.9578(3) 0.65041(10) 0.5670(3)
C8 C 0.8612(4) 0.61538(11) 0.8755(3)
H6 H 0.9599 0.6072 0.9622
H7 H 0.7929 0.5880 0.8589
C9 C 0.7989(3) 0.65998(10) 0.9172(3)
C10 C 0.8782(3) 0.68163(11) 1.0618(3)
H8 H 0.9729 0.6692 1.1331
C11 C 0.8188(4) 0.72179(12) 1.1027(4)
H9 H 0.8723 0.7355 1.2017
C12 C 0.6811(4) 0.74121(13) 0.9970(4)
H10 H 0.6413 0.7681 1.0243
C13 C 0.6022(4) 0.72106(16) 0.8515(4)
H11 H 0.5103 0.7350 0.7792
C14 C 0.6578(4) 0.68013(13) 0.8106(4)
H12 H 0.6017 0.6660 0.7125
C15 C 0.7482(3) 0.60868(11) 0.3226(3)
H13 H 0.7395 0.6386 0.2653
H14 H 0.6455 0.5982 0.2965
C16 C 0.8208(3) 0.57026(10) 0.2685(3)
C17 C 0.9612(3) 0.55155(10) 0.3598(3)
H15 H 1.0173 0.5631 0.4614
C18 C 1.0272(3) 0.51400(10) 0.3041(4)
C19 C 0.7967(3) 0.51598(10) 0.0571(3)
C20 C 0.7201(4) 0.49642(10) -0.0916(4)
H16 H 0.7646 0.4721 -0.1237
C21 C 0.5753(4) 0.51399(11) -0.1918(4)
H17 H 0.5234 0.5014 -0.2925
C22 C 0.5053(3) 0.55009(11) -0.1453(3)
C23 C 0.5848(3) 0.56894(10) 0.0052(3)
H18 H 0.5395 0.5930 0.0376
C24 C 0.7322(3) 0.55231(10) 0.1092(3)
C25 C 0.3469(4) 0.56831(12) -0.2556(4)
H19 H 0.3001 0.5814 -0.1965
H20 H 0.2863 0.5417 -0.3192
H21 H 0.3536 0.5934 -0.3214
loop_
_geom_bond_atom_site_label_1
_geom_bond_atom_site_label_2
_geom_bond_site_symmetry_1
_geom_bond_site_symmetry_2
P1 F1 1_555 1_555
F2 P1 1_555 1_555
F3 P1 1_555 1_555
F4 P1 1_555 1_555
F5 P1 1_555 1_555
F6 P1 1_555 1_555
O1 C18 1_555 1_555
O2 C18 1_555 1_555
N1 C1 1_555 1_555
N2 C1 1_555 1_555
C1 H1 1_555 1_555
C2 N1 1_555 1_555
C3 C2 1_555 1_555
H2 C3 1_555 1_555
C4 C3 1_555 1_555
H3 C4 1_555 1_555
C5 C4 1_555 1_555
H4 C5 1_555 1_555
C6 C5 1_555 1_555
H5 C6 1_555 1_555
C7 N2 1_555 1_555
C8 N1 1_555 1_555
H6 C8 1_555 1_555
H7 C8 1_555 1_555
C9 C8 1_555 1_555
C10 C9 1_555 1_555
H8 C10 1_555 1_555
C11 C10 1_555 1_555
H9 C11 1_555 1_555
C12 C11 1_555 1_555
H10 C12 1_555 1_555
C13 C12 1_555 1_555
H11 C13 1_555 1_555
C14 C9 1_555 1_555
H12 C14 1_555 1_555
C15 N2 1_555 1_555
H13 C15 1_555 1_555
H14 C15 1_555 1_555
C16 C15 1_555 1_555
C17 C16 1_555 1_555
H15 C17 1_555 1_555
C18 C17 1_555 1_555
C19 O1 1_555 1_555
C20 C19 1_555 1_555
H16 C20 1_555 1_555
C21 C20 1_555 1_555
H17 C21 1_555 1_555
C22 C21 1_555 1_555
C23 C22 1_555 1_555
H18 C23 1_555 1_555
C24 C16 1_555 1_555
C25 C22 1_555 1_555
H19 C25 1_555 1_555
H20 C25 1_555 1_555
H21 C25 1_555 1_555
C2 C7 1_555 1_555
C6 C7 1_555 1_555
C13 C14 1_555 1_555
C19 C24 1_555 1_555
C23 C24 1_555 1_555

#END
