
#######################################################################
#
#                 Cambridge Crystallographic Data Centre
#                                CCDC 
#
#######################################################################
#
# If this CIF has been generated from an entry in the Cambridge 
# Structural Database, then it will include bibliographic, chemical, 
# crystal, experimental, refinement or atomic coordinate data resulting 
# from the CCDC's data processing and validation procedures.
#
#######################################################################

data_SEVSIY
_chemical_formula_moiety         'C20 H16 O1'
_chemical_name_systematic        2-methoxy-8-methyltetracene
_symmetry_cell_setting           monoclinic
_symmetry_space_group_name_H-M   'P 21/c'
_symmetry_Int_Tables_number      14
_space_group_name_Hall           '-P 2ybc'
loop_
_symmetry_equiv_pos_site_id
_symmetry_equiv_pos_as_xyz
1 x,y,z
2 -x,1/2+y,1/2-z
3 -x,-y,-z
4 x,1/2-y,1/2+z
_cell_length_a                   26.178(6)
_cell_length_b                   6.0436(9)
_cell_length_c                   8.6187(14)
_cell_angle_alpha                90
_cell_angle_beta                 94.872(16)
_cell_angle_gamma                90
_cell_volume                     1358.63
_exptl_crystal_colour            yellow
_exptl_crystal_description       needle
_cell_formula_units_Z            4
loop_
_atom_site_label
_atom_site_type_symbol
_atom_site_fract_x
_atom_site_fract_y
_atom_site_fract_z
C1 C 0.1213(2) 0.6997(8) 0.2679(6)
H1 H 0.111473 0.838152 0.222522
C2 C 0.0901(2) 0.5971(8) 0.3634(6)
C3 C 0.1046(2) 0.3881(8) 0.4332(6)
H2 H 0.083042 0.319012 0.501992
C4 C 0.1487(2) 0.2895(8) 0.4017(6)
H3 H 0.157242 0.149848 0.447358
C5 C 0.1827(2) 0.3884(8) 0.3019(5)
C6 C 0.2283(2) 0.2900(8) 0.2679(6)
H4 H 0.237121 0.149480 0.311728
C7 C 0.2618(2) 0.3911(7) 0.1711(5)
C8 C 0.3075(2) 0.2922(7) 0.1330(6)
H5 H 0.316353 0.150167 0.174277
C9 C 0.34041(19) 0.3947(7) 0.0369(5)
C10 C 0.3873(2) 0.2953(8) -0.0030(6)
H6 H 0.396051 0.152643 0.037402
C11 C 0.4197(2) 0.3946(8) -0.0951(6)
C12 C 0.4064(2) 0.6094(8) -0.1584(6)
H7 H 0.428685 0.680233 -0.224354
C13 C 0.3622(2) 0.7130(8) -0.1251(6)
H8 H 0.354431 0.855661 -0.167097
C14 C 0.32735(19) 0.6096(8) -0.0277(5)
C15 C 0.2825(2) 0.7107(8) 0.0091(6)
H9 H 0.274272 0.853710 -0.031432
C16 C 0.24861(19) 0.6069(7) 0.1052(5)
C17 C 0.2020(2) 0.7058(7) 0.1406(5)
H10 H 0.193082 0.847179 0.098381
C18 C 0.1687(2) 0.6021(7) 0.2353(5)
O1 O 0.04342(16) 0.6737(7) 0.4032(4)
C19 C 0.0241(3) 0.8645(9) 0.3245(8)
H11 H 0.021906 0.838416 0.211944
H12 H 0.047082 0.989575 0.350490
H13 H -0.010087 0.898118 0.356500
C20 C 0.4674(2) 0.2876(10) -0.1387(7)
H14 H 0.471180 0.142456 -0.088276
H15 H 0.496919 0.380597 -0.104550
H16 H 0.465669 0.269023 -0.251941
loop_
_geom_bond_atom_site_label_1
_geom_bond_atom_site_label_2
_geom_bond_site_symmetry_1
_geom_bond_site_symmetry_2
C1 H1 1_555 1_555
C2 C1 1_555 1_555
C3 C2 1_555 1_555
H2 C3 1_555 1_555
C4 C3 1_555 1_555
H3 C4 1_555 1_555
C5 C4 1_555 1_555
C6 C5 1_555 1_555
H4 C6 1_555 1_555
C7 C6 1_555 1_555
C8 C7 1_555 1_555
H5 C8 1_555 1_555
C9 C8 1_555 1_555
C10 C9 1_555 1_555
H6 C10 1_555 1_555
C11 C10 1_555 1_555
C12 C11 1_555 1_555
H7 C12 1_555 1_555
C13 C12 1_555 1_555
H8 C13 1_555 1_555
C14 C9 1_555 1_555
C15 C14 1_555 1_555
H9 C15 1_555 1_555
C16 C7 1_555 1_555
C17 C16 1_555 1_555
H10 C17 1_555 1_555
C18 C1 1_555 1_555
O1 C2 1_555 1_555
C19 O1 1_555 1_555
H11 C19 1_555 1_555
H12 C19 1_555 1_555
H13 C19 1_555 1_555
C20 C11 1_555 1_555
H14 C20 1_555 1_555
H15 C20 1_555 1_555
H16 C20 1_555 1_555
C5 C18 1_555 1_555
C13 C14 1_555 1_555
C15 C16 1_555 1_555
C17 C18 1_555 1_555

#END
