
#######################################################################
#
#                 Cambridge Crystallographic Data Centre
#                                CCDC 
#
#######################################################################
#
# If this CIF has been generated from an entry in the Cambridge 
# Structural Database, then it will include bibliographic, chemical, 
# crystal, experimental, refinement or atomic coordinate data resulting 
# from the CCDC's data processing and validation procedures.
#
#######################################################################

data_SEWCII
_chemical_formula_moiety         'C27 H16 N2 O2 S1'
_chemical_name_systematic        
1-Benzoyl-3-((4-methylphenyl)sulfanyl)-9-oxo-9H-indeno[2,1-c]pyridine-4-carbonitrile
_symmetry_cell_setting           triclinic
_symmetry_space_group_name_H-M   'P -1'
_symmetry_Int_Tables_number      2
_space_group_name_Hall           '-P 1'
loop_
_symmetry_equiv_pos_site_id
_symmetry_equiv_pos_as_xyz
1 x,y,z
2 -x,-y,-z
_cell_length_a                   9.8850(8)
_cell_length_b                   14.8989(13)
_cell_length_c                   16.7201(15)
_cell_angle_alpha                105.6710(10)
_cell_angle_beta                 104.4150(10)
_cell_angle_gamma                106.917(2)
_cell_volume                     2120.09
_cell_formula_units_Z            4
loop_
_atom_site_label
_atom_site_type_symbol
_atom_site_fract_x
_atom_site_fract_y
_atom_site_fract_z
N1 N 0.5941(4) 0.7072(3) 0.2560(2)
N2 N 0.6554(5) 0.8810(3) 0.5557(3)
O1 O 1.0787(4) 0.7907(3) 0.2848(3)
O2 O 0.7671(5) 0.7438(3) 0.1239(3)
S1 S 0.39869(14) 0.71690(10) 0.33808(8)
C1 C 0.7365(6) 0.7287(3) 0.2546(3)
C2 C 0.5809(5) 0.7452(3) 0.3337(3)
C3 C 0.7041(5) 0.8061(3) 0.4140(3)
C4 C 0.8487(5) 0.8221(3) 0.4109(3)
C5 C 0.8621(5) 0.7840(3) 0.3293(3)
C6 C 1.0236(6) 0.8090(4) 0.3413(4)
C7 C 1.1043(6) 0.8641(4) 0.4377(4)
C8 C 0.9998(6) 0.8731(3) 0.4810(4)
C9 C 1.0488(6) 0.9202(4) 0.5702(4)
H1 H 0.9805 0.9268 0.5986
C10 C 1.2036(8) 0.9589(4) 0.6190(4)
H2 H 1.2385 0.9916 0.6804
C11 C 1.3054(8) 0.9491(5) 0.5770(5)
H3 H 1.4081 0.9746 0.6104
C12 C 1.2569(7) 0.9025(4) 0.4874(5)
H4 H 1.3261 0.8964 0.4596
C13 C 0.6782(6) 0.8476(4) 0.4933(3)
C14 C 0.7396(5) 0.6864(4) 0.1620(3)
C15 C 0.7022(5) 0.5796(4) 0.1230(3)
C16 C 0.6769(6) 0.5175(4) 0.1698(4)
H5 H 0.6853 0.5452 0.2286
C17 C 0.6398(8) 0.4169(4) 0.1321(5)
H6 H 0.6231 0.3760 0.1648
C18 C 0.6271(7) 0.3754(5) 0.0444(5)
H7 H 0.6027 0.3064 0.0184
C19 C 0.6500(6) 0.4345(5) -0.0035(4)
H8 H 0.6409 0.4065 -0.0625
C20 C 0.6864(5) 0.5351(4) 0.0352(3)
H9 H 0.7012 0.5754 0.0017
C21 C 0.2893(5) 0.6053(3) 0.2437(3)
C22 C 0.1580(6) 0.5981(4) 0.1865(3)
H10 H 0.1323 0.6543 0.1941
C23 C 0.0627(6) 0.5083(4) 0.1175(3)
H11 H -0.0271 0.5048 0.0798
C24 C 0.0973(6) 0.4246(4) 0.1033(3)
C25 C 0.2302(6) 0.4320(4) 0.1618(3)
H12 H 0.2562 0.3758 0.1533
C26 C 0.3245(5) 0.5199(4) 0.2319(3)
H13 H 0.4117 0.5225 0.2714
C27 C -0.0045(6) 0.3269(4) 0.0252(3)
H14 H -0.1000 0.3006 0.0321
H15 H 0.0424 0.2787 0.0231
H16 H -0.0204 0.3397 -0.0289
N3 N 0.3799(4) 0.2210(3) 0.2708(2)
N4 N 0.4069(4) 0.4234(3) 0.5533(3)
O3 O 0.8578(4) 0.2479(2) 0.3397(2)
O4 O 0.5957(4) 0.1979(3) 0.1562(2)
S2 S 0.17432(13) 0.26501(9) 0.33186(9)
C28 C 0.3586(5) 0.2733(3) 0.3401(3)
C29 C 0.4754(5) 0.3367(3) 0.4233(3)
C30 C 0.6211(5) 0.3396(3) 0.4317(3)
C31 C 0.6408(5) 0.2816(3) 0.3588(3)
C32 C 0.8012(5) 0.2903(3) 0.3855(3)
C33 C 0.8728(5) 0.3611(3) 0.4795(3)
C34 C 0.7667(5) 0.3928(3) 0.5070(3)
C35 C 0.8076(6) 0.4619(4) 0.5902(3)
H17 H 0.7369 0.4830 0.6086
C36 C 0.9569(6) 0.4997(4) 0.6467(4)
H18 H 0.9872 0.5473 0.7035
C37 C 1.0617(6) 0.4672(4) 0.6191(4)
H19 H 1.1612 0.4929 0.6580
C38 C 1.0208(6) 0.3975(4) 0.5352(4)
H20 H 1.0911 0.3758 0.5169
C39 C 0.5218(5) 0.2237(3) 0.2817(3)
C40 C 0.5403(5) 0.1586(4) 0.2009(3)
C41 C 0.4902(5) 0.0495(3) 0.1840(3)
C42 C 0.3970(6) 0.0030(4) 0.2213(3)
H21 H 0.3613 0.0403 0.2589
C43 C 0.3564(6) -0.0976(4) 0.2038(4)
H22 H 0.2874 -0.1292 0.2263
C44 C 0.4136(7) -0.1521(4) 0.1547(4)
H23 H 0.3865 -0.2205 0.1445
C45 C 0.5126(8) -0.1062(5) 0.1196(5)
H24 H 0.5553 -0.1428 0.0868
C46 C 0.5478(7) -0.0063(4) 0.1335(4)
H25 H 0.6123 0.0244 0.1081
C47 C 0.4382(5) 0.3849(3) 0.4960(3)
C48 C 0.0639(5) 0.1598(3) 0.2328(3)
C49 C -0.0261(6) 0.1701(4) 0.1618(4)
H26 H -0.0277 0.2332 0.1655
C50 C -0.1135(6) 0.0876(5) 0.0854(4)
H27 H -0.1730 0.0963 0.0377
C51 C -0.1168(6) -0.0088(4) 0.0762(4)
C52 C -0.0273(6) -0.0172(4) 0.1486(4)
H28 H -0.0264 -0.0804 0.1453
C53 C 0.0604(5) 0.0639(4) 0.2252(3)
H29 H 0.1189 0.0549 0.2731
C54 C -0.2142(6) -0.0970(4) -0.0083(4)
H30 H -0.2149 -0.1583 0.0004
H31 H -0.1747 -0.0906 -0.0543
H32 H -0.3154 -0.0989 -0.0252
loop_
_geom_bond_atom_site_label_1
_geom_bond_atom_site_label_2
_geom_bond_site_symmetry_1
_geom_bond_site_symmetry_2
N1 C1 1_555 1_555
N2 C13 1_555 1_555
O1 C6 1_555 1_555
O2 C14 1_555 1_555
S1 C2 1_555 1_555
C1 C5 1_555 1_555
C2 N1 1_555 1_555
C3 C2 1_555 1_555
C4 C3 1_555 1_555
C5 C4 1_555 1_555
C6 C5 1_555 1_555
C7 C6 1_555 1_555
C8 C4 1_555 1_555
C9 C8 1_555 1_555
H1 C9 1_555 1_555
C10 C9 1_555 1_555
H2 C10 1_555 1_555
C11 C10 1_555 1_555
H3 C11 1_555 1_555
C12 C7 1_555 1_555
H4 C12 1_555 1_555
C13 C3 1_555 1_555
C14 C1 1_555 1_555
C15 C14 1_555 1_555
C16 C15 1_555 1_555
H5 C16 1_555 1_555
C17 C16 1_555 1_555
H6 C17 1_555 1_555
C18 C17 1_555 1_555
H7 C18 1_555 1_555
C19 C18 1_555 1_555
H8 C19 1_555 1_555
C20 C15 1_555 1_555
H9 C20 1_555 1_555
C21 S1 1_555 1_555
C22 C21 1_555 1_555
H10 C22 1_555 1_555
C23 C22 1_555 1_555
H11 C23 1_555 1_555
C24 C23 1_555 1_555
C25 C24 1_555 1_555
H12 C25 1_555 1_555
C26 C21 1_555 1_555
H13 C26 1_555 1_555
C27 C24 1_555 1_555
H14 C27 1_555 1_555
H15 C27 1_555 1_555
H16 C27 1_555 1_555
N3 C28 1_555 1_555
N4 C47 1_555 1_555
O3 C32 1_555 1_555
O4 C40 1_555 1_555
S2 C28 1_555 1_555
C28 C29 1_555 1_555
C29 C30 1_555 1_555
C30 C31 1_555 1_555
C31 C32 1_555 1_555
C32 C33 1_555 1_555
C33 C34 1_555 1_555
C34 C30 1_555 1_555
C35 C34 1_555 1_555
H17 C35 1_555 1_555
C36 C35 1_555 1_555
H18 C36 1_555 1_555
C37 C36 1_555 1_555
H19 C37 1_555 1_555
C38 C33 1_555 1_555
H20 C38 1_555 1_555
C39 N3 1_555 1_555
C40 C39 1_555 1_555
C41 C40 1_555 1_555
C42 C41 1_555 1_555
H21 C42 1_555 1_555
C43 C42 1_555 1_555
H22 C43 1_555 1_555
C44 C43 1_555 1_555
H23 C44 1_555 1_555
C45 C44 1_555 1_555
H24 C45 1_555 1_555
C46 C41 1_555 1_555
H25 C46 1_555 1_555
C47 C29 1_555 1_555
C48 S2 1_555 1_555
C49 C48 1_555 1_555
H26 C49 1_555 1_555
C50 C49 1_555 1_555
H27 C50 1_555 1_555
C51 C50 1_555 1_555
C52 C51 1_555 1_555
H28 C52 1_555 1_555
C53 C48 1_555 1_555
H29 C53 1_555 1_555
C54 C51 1_555 1_555
H30 C54 1_555 1_555
H31 C54 1_555 1_555
H32 C54 1_555 1_555
C7 C8 1_555 1_555
C11 C12 1_555 1_555
C19 C20 1_555 1_555
C25 C26 1_555 1_555
C31 C39 1_555 1_555
C37 C38 1_555 1_555
C45 C46 1_555 1_555
C52 C53 1_555 1_555

#END
