
#######################################################################
#
#                 Cambridge Crystallographic Data Centre
#                                CCDC 
#
#######################################################################
#
# If this CIF has been generated from an entry in the Cambridge 
# Structural Database, then it will include bibliographic, chemical, 
# crystal, experimental, refinement or atomic coordinate data resulting 
# from the CCDC's data processing and validation procedures.
#
#######################################################################

data_SEWCEE
_chemical_formula_moiety         'C17 H29 F1 O3 Si1'
_chemical_name_systematic        
(5-(Di-t-butyl(fluoro)silyl)-2,3-dimethoxyphenyl)methanol
_symmetry_cell_setting           monoclinic
_symmetry_space_group_name_H-M   'P 21/c'
_symmetry_Int_Tables_number      14
_space_group_name_Hall           '-P 2ybc'
loop_
_symmetry_equiv_pos_site_id
_symmetry_equiv_pos_as_xyz
1 x,y,z
2 -x,1/2+y,1/2-z
3 -x,-y,-z
4 x,1/2-y,1/2+z
_cell_length_a                   13.5997(7)
_cell_length_b                   35.1976(15)
_cell_length_c                   8.0498(3)
_cell_angle_alpha                90
_cell_angle_beta                 102.644(2)
_cell_angle_gamma                90
_cell_volume                     3759.81
_cell_formula_units_Z            8
loop_
_atom_site_label
_atom_site_type_symbol
_atom_site_fract_x
_atom_site_fract_y
_atom_site_fract_z
Si1 Si 0.94071(8) 0.088747(18) 0.25784(8)
F1 F 1.05114(10) 0.07082(4) 0.32840(19)
O1 O 1.10661(11) 0.18937(4) 0.71035(18)
C1 C 0.74078(17) 0.19492(6) 0.5512(3)
H1 H 0.6855 0.1764 0.5151
H2 H 0.7444 0.2011 0.6724
O2 O 0.92953(12) 0.21919(4) 0.74623(17)
C2 C 0.92937(16) 0.12897(5) 0.4064(2)
C3 C 1.01985(16) 0.14352(5) 0.5027(2)
H3 H 1.0819 0.1323 0.4931
C4 C 1.02065(15) 0.17409(5) 0.6118(2)
C5 C 0.92988(16) 0.19089(5) 0.6281(2)
C6 C 0.83823(16) 0.17698(6) 0.5346(2)
C7 C 0.84004(16) 0.14628(6) 0.4245(2)
H4 H 0.7780 0.1369 0.3595
C8 C 1.20025(18) 0.17269(8) 0.6980(3)
H5 H 1.2023 0.1462 0.7365
H6 H 1.2557 0.1869 0.7696
H7 H 1.2071 0.1735 0.5794
C9 C 0.94735(17) 0.25686(6) 0.6922(3)
H8 H 1.0188 0.2597 0.6909
H9 H 0.9290 0.2753 0.7713
H10 H 0.9064 0.2613 0.5776
O3 O 0.71803(12) 0.22868(4) 0.45188(18)
H11 H 0.7100 0.2233 0.3481
C10 C 0.94156(17) 0.10899(6) 0.0407(3)
C11 C 1.0319(2) 0.13681(8) 0.0683(3)
H12 H 1.0405 0.1463 -0.0421
H13 H 1.0932 0.1235 0.1261
H14 H 1.0190 0.1582 0.1385
C12 C 0.9584(3) 0.07818(9) -0.0852(4)
H15 H 0.8985 0.0619 -0.1143
H16 H 1.0170 0.0627 -0.0330
H17 H 0.9705 0.0902 -0.1888
C13 C 0.8468(2) 0.13169(9) -0.0340(3)
H18 H 0.8533 0.1432 -0.1420
H19 H 0.8380 0.1517 0.0459
H20 H 0.7882 0.1148 -0.0540
C14 C 0.8512(3) 0.04817(8) 0.2721(4)
C15 C 0.8498(3) 0.04224(8) 0.4618(3)
H21 H 0.9187 0.0381 0.5271
H22 H 0.8083 0.0200 0.4733
H23 H 0.8214 0.0648 0.5051
C16 C 0.7429(2) 0.05463(9) 0.1701(4)
H24 H 0.7436 0.0584 0.0497
H25 H 0.7147 0.0772 0.2137
H26 H 0.7015 0.0324 0.1819
C17 C 0.8925(2) 0.01166(7) 0.2064(4)
H27 H 0.9334 -0.0023 0.3024
H28 H 0.9341 0.0184 0.1257
H29 H 0.8361 -0.0043 0.1492
Si3 Si 0.38179(4) 0.098642(15) 0.35089(7)
F3 F 0.27567(9) 0.10875(4) 0.39884(16)
C20 C 0.62027(15) 0.18069(6) 0.0290(2)
H39 H 0.6543 0.1557 0.0397
H40 H 0.6040 0.1877 -0.0931
O4 O 0.46815(11) 0.23563(4) -0.04880(15)
O5 O 0.29166(10) 0.23098(4) 0.05211(18)
C21 C 0.41518(14) 0.14209(5) 0.2411(2)
C22 C 0.34252(15) 0.17098(5) 0.1981(2)
H41 H 0.2807 0.1689 0.2341
C23 C 0.35964(14) 0.20244(5) 0.1039(2)
C24 C 0.45109(14) 0.20590(5) 0.0520(2)
C25 C 0.52400(14) 0.17742(5) 0.0909(2)
C26 C 0.50466(14) 0.14606(5) 0.1849(2)
H42 H 0.5543 0.1267 0.2116
O6 O 0.68773(11) 0.20840(4) 0.12173(17)
H43 H 0.6914 0.2271 0.0584
C27 C 0.48119(17) 0.27188(5) 0.0359(3)
H44 H 0.4177 0.2795 0.0649
H45 H 0.5008 0.2909 -0.0398
H46 H 0.5340 0.2699 0.1401
C28 C 0.19725(17) 0.22853(7) 0.1025(3)
H47 H 0.1638 0.2046 0.0609
H48 H 0.1544 0.2499 0.0540
H49 H 0.2089 0.2293 0.2269
C29 C 0.47193(18) 0.08974(6) 0.5623(3)
C30 C 0.4650(3) 0.12431(7) 0.6757(3)
H50 H 0.5103 0.1207 0.7873
H51 H 0.3957 0.1271 0.6899
H52 H 0.4848 0.1473 0.6222
C31 C 0.5816(2) 0.08527(9) 0.5475(3)
H53 H 0.6044 0.1088 0.5031
H54 H 0.5867 0.0643 0.4700
H55 H 0.6239 0.0799 0.6601
C32 C 0.4413(2) 0.05431(7) 0.6493(3)
H56 H 0.4473 0.0318 0.5803
H57 H 0.3714 0.0569 0.6610
H58 H 0.4857 0.0515 0.7622
C33 C 0.35312(17) 0.05817(6) 0.1936(3)
C34 C 0.2883(2) 0.07435(7) 0.0270(3)
H59 H 0.3267 0.0938 -0.0186
H60 H 0.2268 0.0857 0.0502
H61 H 0.2702 0.0538 -0.0564
C35 C 0.4491(2) 0.04116(7) 0.1529(3)
H62 H 0.4306 0.0219 0.0637
H63 H 0.4898 0.0295 0.2556
H64 H 0.4881 0.0613 0.1132
C36 C 0.2929(2) 0.02633(7) 0.2578(4)
H65 H 0.2311 0.0370 0.2826
H66 H 0.3339 0.0151 0.3616
H67 H 0.2755 0.0067 0.1701
Si2? Si 0.8774(5) 0.09378(12) 0.2278(5)
F2? F 0.7573(7) 0.0915(3) 0.1650(11)
C18? C 0.9134(17) 0.0483(5) 0.313(2)
H30? H 0.8587 0.0645 0.5369
H31? H 0.8744 0.0195 0.5283
H32? H 0.7781 0.0391 0.4091
C19? C 1.0264(13) 0.0455(6) 0.416(3)
H33? H 1.0437 0.0682 0.4861
H34? H 1.0710 0.0435 0.3354
H35? H 1.0346 0.0229 0.4887
H36? H 0.8482 -0.0050 0.2547
H37? H 0.9562 -0.0014 0.2074
H38? H 0.8596 0.0181 0.0889
loop_
_geom_bond_atom_site_label_1
_geom_bond_atom_site_label_2
_geom_bond_site_symmetry_1
_geom_bond_site_symmetry_2
Si1 F1 1_555 1_555
O1 C4 1_555 1_555
C1 H1 1_555 1_555
H2 C1 1_555 1_555
O2 C5 1_555 1_555
C2 Si1 1_555 1_555
C3 C2 1_555 1_555
H3 C3 1_555 1_555
C4 C3 1_555 1_555
C5 C4 1_555 1_555
C6 C1 1_555 1_555
C7 C2 1_555 1_555
H4 C7 1_555 1_555
C8 O1 1_555 1_555
H5 C8 1_555 1_555
H6 C8 1_555 1_555
H7 C8 1_555 1_555
C9 O2 1_555 1_555
H8 C9 1_555 1_555
H9 C9 1_555 1_555
H10 C9 1_555 1_555
O3 C1 1_555 1_555
H11 O3 1_555 1_555
C10 Si1 1_555 1_555
C11 C10 1_555 1_555
H12 C11 1_555 1_555
H13 C11 1_555 1_555
H14 C11 1_555 1_555
C12 C10 1_555 1_555
H15 C12 1_555 1_555
H16 C12 1_555 1_555
H17 C12 1_555 1_555
C13 C10 1_555 1_555
H18 C13 1_555 1_555
H19 C13 1_555 1_555
H20 C13 1_555 1_555
C14 Si1 1_555 1_555
C15 C14 1_555 1_555
H21 C15 1_555 1_555
H22 C15 1_555 1_555
H23 C15 1_555 1_555
C16 C14 1_555 1_555
H24 C16 1_555 1_555
H25 C16 1_555 1_555
H26 C16 1_555 1_555
C17 C14 1_555 1_555
H27 C17 1_555 1_555
H28 C17 1_555 1_555
H29 C17 1_555 1_555
Si3 F3 1_555 1_555
C20 H39 1_555 1_555
H40 C20 1_555 1_555
O4 C24 1_555 1_555
O5 C23 1_555 1_555
C21 Si3 1_555 1_555
C22 C21 1_555 1_555
H41 C22 1_555 1_555
C23 C22 1_555 1_555
C24 C23 1_555 1_555
C25 C20 1_555 1_555
C26 C21 1_555 1_555
H42 C26 1_555 1_555
O6 C20 1_555 1_555
H43 O6 1_555 1_555
C27 O4 1_555 1_555
H44 C27 1_555 1_555
H45 C27 1_555 1_555
H46 C27 1_555 1_555
C28 O5 1_555 1_555
H47 C28 1_555 1_555
H48 C28 1_555 1_555
H49 C28 1_555 1_555
C29 Si3 1_555 1_555
C30 C29 1_555 1_555
H50 C30 1_555 1_555
H51 C30 1_555 1_555
H52 C30 1_555 1_555
C31 C29 1_555 1_555
H53 C31 1_555 1_555
H54 C31 1_555 1_555
H55 C31 1_555 1_555
C32 C29 1_555 1_555
H56 C32 1_555 1_555
H57 C32 1_555 1_555
H58 C32 1_555 1_555
C33 Si3 1_555 1_555
C34 C33 1_555 1_555
H59 C34 1_555 1_555
H60 C34 1_555 1_555
H61 C34 1_555 1_555
C35 C33 1_555 1_555
H62 C35 1_555 1_555
H63 C35 1_555 1_555
H64 C35 1_555 1_555
C36 C33 1_555 1_555
H65 C36 1_555 1_555
H66 C36 1_555 1_555
H67 C36 1_555 1_555
C5 C6 1_555 1_555
C6 C7 1_555 1_555
C24 C25 1_555 1_555
C25 C26 1_555 1_555

#END
