
#######################################################################
#
#                 Cambridge Crystallographic Data Centre
#                                CCDC 
#
#######################################################################
#
# If this CIF has been generated from an entry in the Cambridge 
# Structural Database, then it will include bibliographic, chemical, 
# crystal, experimental, refinement or atomic coordinate data resulting 
# from the CCDC's data processing and validation procedures.
#
#######################################################################

data_SEWCAA
_chemical_formula_moiety         'C16 H25 F1 O3 Si1'
_chemical_name_systematic        
'5-(Di-t-butyl(fluoro)silyl)-2-methoxybenzoic acid'
_symmetry_cell_setting           monoclinic
_symmetry_space_group_name_H-M   'P 21/n'
_symmetry_Int_Tables_number      14
_space_group_name_Hall           '-P 2yn'
loop_
_symmetry_equiv_pos_site_id
_symmetry_equiv_pos_as_xyz
1 x,y,z
2 1/2-x,1/2+y,1/2-z
3 -x,-y,-z
4 1/2+x,1/2-y,1/2+z
_cell_length_a                   6.9110(14)
_cell_length_b                   16.975(3)
_cell_length_c                   14.529(3)
_cell_angle_alpha                90
_cell_angle_beta                 94.46(3)
_cell_angle_gamma                90
_cell_volume                     1699.3
_exptl_crystal_colour            colorless
_exptl_crystal_description       prism
_cell_formula_units_Z            4
loop_
_atom_site_label
_atom_site_type_symbol
_atom_site_fract_x
_atom_site_fract_y
_atom_site_fract_z
Si1 Si 0.15662(6) 0.22471(3) 0.38087(3)
F1 F -0.06296(12) 0.20179(6) 0.34522(6)
O1 O -0.30038(16) 0.49254(7) 0.59154(7)
H1 H -0.404(3) 0.5108(11) 0.5752(11)
O2 O -0.36296(14) 0.43840(6) 0.45323(7)
O3 O 0.04902(14) 0.47557(6) 0.66963(6)
C1 C 0.1324(2) 0.30165(10) 0.47133(9)
C2 C 0.2752(2) 0.31918(10) 0.54159(10)
H2 H 0.3910 0.2910 0.5441
C3 C 0.2527(2) 0.37614(9) 0.60717(10)
H3 H 0.3523 0.3858 0.6526
C4 C 0.0809(2) 0.41961(9) 0.60589(9)
C5 C -0.0652(2) 0.40546(9) 0.53505(9)
C6 C -0.0360(2) 0.34695(9) 0.47034(9)
H4 H -0.1340 0.3376 0.4241
C7 C -0.2550(2) 0.44716(9) 0.52376(9)
C8 C 0.1994(2) 0.48998(11) 0.74100(10)
H5 H 0.1624 0.5229 0.7770
H6 H 0.3133 0.5088 0.7141
H7 H 0.2296 0.4420 0.7740
C9 C 0.2628(2) 0.12974(10) 0.43055(11)
C10 C 0.1685(3) 0.11227(12) 0.52074(12)
H8 H 0.2053 0.0692 0.5407
H9 H 0.0299 0.1110 0.5088
H10 H 0.2035 0.1526 0.5653
C11 C 0.4845(3) 0.13330(12) 0.45117(14)
H11 H 0.5233 0.0915 0.4740
H12 H 0.5170 0.1752 0.4940
H13 H 0.5455 0.1426 0.3950
C12 C 0.2158(3) 0.06115(10) 0.36374(12)
H14 H 0.2565 0.0199 0.3874
H15 H 0.2757 0.0702 0.3073
H16 H 0.0778 0.0571 0.3509
C13 C 0.2641(2) 0.26981(9) 0.27784(10)
C14 C 0.1304(3) 0.33839(12) 0.24454(12)
H17 H 0.1682 0.3571 0.1971
H18 H 0.1318 0.3781 0.2916
H19 H 0.0003 0.3193 0.2318
C15 C 0.4670(3) 0.30242(13) 0.30257(12)
H20 H 0.5046 0.3260 0.2580
H21 H 0.5541 0.2600 0.3199
H22 H 0.4635 0.3387 0.3531
C16 C 0.2741(3) 0.21130(11) 0.19868(10)
H23 H 0.3100 0.2341 0.1533
H24 H 0.1477 0.1894 0.1831
H25 H 0.3632 0.1698 0.2171
loop_
_geom_bond_atom_site_label_1
_geom_bond_atom_site_label_2
_geom_bond_site_symmetry_1
_geom_bond_site_symmetry_2
Si1 F1 1_555 1_555
O1 H1 1_555 1_555
O2 C7 1_555 1_555
O3 C4 1_555 1_555
C1 Si1 1_555 1_555
C2 C1 1_555 1_555
H2 C2 1_555 1_555
C3 C2 1_555 1_555
H3 C3 1_555 1_555
C4 C3 1_555 1_555
C5 C4 1_555 1_555
C6 C1 1_555 1_555
H4 C6 1_555 1_555
C7 O1 1_555 1_555
C8 O3 1_555 1_555
H5 C8 1_555 1_555
H6 C8 1_555 1_555
H7 C8 1_555 1_555
C9 Si1 1_555 1_555
C10 C9 1_555 1_555
H8 C10 1_555 1_555
H9 C10 1_555 1_555
H10 C10 1_555 1_555
C11 C9 1_555 1_555
H11 C11 1_555 1_555
H12 C11 1_555 1_555
H13 C11 1_555 1_555
C12 C9 1_555 1_555
H14 C12 1_555 1_555
H15 C12 1_555 1_555
H16 C12 1_555 1_555
C13 Si1 1_555 1_555
C14 C13 1_555 1_555
H17 C14 1_555 1_555
H18 C14 1_555 1_555
H19 C14 1_555 1_555
C15 C13 1_555 1_555
H20 C15 1_555 1_555
H21 C15 1_555 1_555
H22 C15 1_555 1_555
C16 C13 1_555 1_555
H23 C16 1_555 1_555
H24 C16 1_555 1_555
H25 C16 1_555 1_555
C5 C6 1_555 1_555
C5 C7 1_555 1_555

#END
