
#######################################################################
#
#                 Cambridge Crystallographic Data Centre
#                                CCDC 
#
#######################################################################
#
# If this CIF has been generated from an entry in the Cambridge 
# Structural Database, then it will include bibliographic, chemical, 
# crystal, experimental, refinement or atomic coordinate data resulting 
# from the CCDC's data processing and validation procedures.
#
#######################################################################

data_SEWDAB
_chemical_formula_moiety         'C19 H13 F2 N5 S1'
_chemical_name_systematic        
2-(5-((2,4-Difluorobenzyl)sulfanyl)-4-phenyl-4H-1,2,4-triazol-3-yl)pyrazine
_symmetry_cell_setting           monoclinic
_symmetry_space_group_name_H-M   'P 21/c'
_symmetry_Int_Tables_number      14
_space_group_name_Hall           '-P 2ybc'
loop_
_symmetry_equiv_pos_site_id
_symmetry_equiv_pos_as_xyz
1 x,y,z
2 -x,1/2+y,1/2-z
3 -x,-y,-z
4 x,1/2-y,1/2+z
_cell_length_a                   16.022(18)
_cell_length_b                   10.277(12)
_cell_length_c                   10.868(12)
_cell_angle_alpha                90
_cell_angle_beta                 90.468(10)
_cell_angle_gamma                90
_cell_volume                     1789.44
_cell_formula_units_Z            4
loop_
_atom_site_label
_atom_site_type_symbol
_atom_site_fract_x
_atom_site_fract_y
_atom_site_fract_z
S1 S 0.29737(9) 0.51835(14) 0.28680(14)
N1 N 0.2003(2) 0.3820(3) 0.4416(4)
C1 C 0.0791(3) 0.2852(4) 0.6227(4)
H1 H 0.0844 0.3747 0.6129
C2 C 0.2500(3) 0.3774(5) 0.3406(5)
C3 C 0.1872(3) 0.4963(4) 0.5157(5)
N2 N 0.2565(3) 0.2605(4) 0.2948(4)
N3 N 0.2091(3) 0.1809(4) 0.3733(4)
C4 C 0.1763(3) 0.2526(4) 0.4575(5)
C5 C 0.1212(3) 0.2036(4) 0.5530(5)
C6 C 0.0612(3) 0.0189(5) 0.6503(6)
H2 H 0.0552 -0.0706 0.6595
C7 C 0.4144(3) 0.5565(6) 0.1160(5)
C8 C 0.1703(4) 0.7212(5) 0.6470(6)
H3 H 0.1647 0.7977 0.6919
N4 N 0.1119(4) 0.0686(5) 0.5660(6)
C9 C 0.1327(3) 0.5884(5) 0.4739(5)
H4 H 0.1012 0.5749 0.4028
N5 N 0.0282(3) 0.2351(5) 0.7081(6)
C10 C 0.0207(4) 0.0995(6) 0.7191(6)
H5 H -0.0150 0.0661 0.7784
C11 C 0.2329(4) 0.5114(6) 0.6236(6)
H6 H 0.2684 0.4463 0.6521
C12 C 0.2236(4) 0.6270(6) 0.6872(6)
H7 H 0.2545 0.6406 0.7590
C13 C 0.4920(4) 0.5693(7) 0.1604(6)
C14 C 0.1254(4) 0.7046(5) 0.5418(6)
H8 H 0.0897 0.7700 0.5144
C15 C 0.5483(4) 0.6649(8) 0.1241(8)
H9 H 0.6018 0.6707 0.1576
F1 F 0.5727(4) 0.8435(6) -0.0015(6)
C16 C 0.3884(4) 0.6490(8) 0.0305(6)
H10 H 0.3340 0.6457 0.0001
F2 F 0.5191(5) 0.4858(8) 0.2348(8)
C17 C 0.5204(5) 0.7489(7) 0.0372(8)
C18 C 0.4426(5) 0.7480(8) -0.0115(7)
H11 H 0.4255 0.8091 -0.0695
C19 C 0.3560(4) 0.4502(7) 0.1586(6)
H12 H 0.3875 0.3744 0.1851
H13 H 0.3185 0.4246 0.0924
loop_
_geom_bond_atom_site_label_1
_geom_bond_atom_site_label_2
_geom_bond_site_symmetry_1
_geom_bond_site_symmetry_2
S1 C2 1_555 1_555
N1 C2 1_555 1_555
C1 H1 1_555 1_555
C2 N2 1_555 1_555
C3 N1 1_555 1_555
N2 N3 1_555 1_555
N3 C4 1_555 1_555
C4 N1 1_555 1_555
C5 C1 1_555 1_555
C6 H2 1_555 1_555
C7 C13 1_555 1_555
C8 H3 1_555 1_555
N4 C5 1_555 1_555
C9 C3 1_555 1_555
H4 C9 1_555 1_555
N5 C1 1_555 1_555
C10 C6 1_555 1_555
H5 C10 1_555 1_555
C11 C3 1_555 1_555
H6 C11 1_555 1_555
C12 C8 1_555 1_555
H7 C12 1_555 1_555
C13 C15 1_555 1_555
C14 C8 1_555 1_555
H8 C14 1_555 1_555
C15 H9 1_555 1_555
F1 C17 1_555 1_555
C16 C7 1_555 1_555
H10 C16 1_555 1_555
F2 C13 1_555 1_555
C17 C15 1_555 1_555
C18 C16 1_555 1_555
H11 C18 1_555 1_555
C19 S1 1_555 1_555
H12 C19 1_555 1_555
H13 C19 1_555 1_555
C4 C5 1_555 1_555
C6 N4 1_555 1_555
C7 C19 1_555 1_555
C9 C14 1_555 1_555
N5 C10 1_555 1_555
C11 C12 1_555 1_555
C17 C18 1_555 1_555

#END
