
#######################################################################
#
#                 Cambridge Crystallographic Data Centre
#                                CCDC 
#
#######################################################################
#
# If this CIF has been generated from an entry in the Cambridge 
# Structural Database, then it will include bibliographic, chemical, 
# crystal, experimental, refinement or atomic coordinate data resulting 
# from the CCDC's data processing and validation procedures.
#
#######################################################################

data_SEWDEF
_chemical_formula_moiety         'C19 H14 Br1 N5 S1'
_chemical_name_systematic        
2-(5-((3-Bromobenzyl)sulfanyl)-4-phenyl-4H-1,2,4-triazol-3-yl)pyrazine
_symmetry_cell_setting           monoclinic
_symmetry_space_group_name_H-M   'P 21/c'
_symmetry_Int_Tables_number      14
_space_group_name_Hall           '-P 2ybc'
loop_
_symmetry_equiv_pos_site_id
_symmetry_equiv_pos_as_xyz
1 x,y,z
2 -x,1/2+y,1/2-z
3 -x,-y,-z
4 x,1/2-y,1/2+z
_cell_length_a                   14.27(3)
_cell_length_b                   13.49(3)
_cell_length_c                   9.847(19)
_cell_angle_alpha                90
_cell_angle_beta                 107.906(18)
_cell_angle_gamma                90
_cell_volume                     1803.75
_cell_formula_units_Z            4
loop_
_atom_site_label
_atom_site_type_symbol
_atom_site_fract_x
_atom_site_fract_y
_atom_site_fract_z
Br1 Br 0.96889(6) 0.22101(6) 0.52399(8)
S1 S 0.82771(12) 0.52456(13) 0.03045(15)
N1 N 0.6520(3) 0.4288(3) -0.0625(4)
N2 N 0.6129(4) 0.4034(4) 0.1345(5)
N3 N 0.7043(4) 0.4496(4) 0.1717(5)
C1 C 0.7259(4) 0.4641(4) 0.0526(5)
C2 C 1.1023(5) 0.3332(5) 0.4248(6)
H1 H 1.1475 0.2846 0.4693
C3 C 0.9670(4) 0.4769(4) 0.2907(5)
C4 C 0.4464(4) 0.3715(4) -0.2151(5)
H2 H 0.4788 0.4110 -0.2638
C5 C 0.4867(4) 0.3487(4) -0.0830(6)
C6 C 0.6573(4) 0.4217(4) -0.2058(5)
C7 C 0.5835(5) 0.3917(4) -0.0038(6)
C8 C 0.9383(4) 0.3990(4) 0.3618(6)
H3 H 0.8740 0.3946 0.3647
C9 C 0.8932(4) 0.5555(4) 0.2159(6)
H4 H 0.9275 0.6179 0.2187
H5 H 0.8457 0.5643 0.2673
C10 C 1.0628(5) 0.4823(5) 0.2896(6)
H6 H 1.0826 0.5349 0.2438
C11 C 0.6147(5) 0.4934(5) -0.3051(7)
H7 H 0.5818 0.5471 -0.2816
C12 C 0.3117(5) 0.2747(5) -0.2057(7)
H8 H 0.2495 0.2499 -0.2538
C13 C 1.0067(5) 0.3286(4) 0.4274(6)
N4 N 0.3569(5) 0.3363(6) -0.2790(7)
C14 C 0.7066(5) 0.3416(5) -0.2410(6)
H9 H 0.7352 0.2941 -0.1725
C15 C 1.1298(5) 0.4106(5) 0.3555(7)
H10 H 1.1943 0.4147 0.3531
C16 C 0.3503(5) 0.2508(6) -0.0780(8)
H11 H 0.3180 0.2091 -0.0319
C17 C 0.7130(6) 0.3326(7) -0.3758(8)
H12 H 0.7455 0.2788 -0.3998
N5 N 0.4389(7) 0.2868(6) -0.0103(9)
C18 C 0.6224(6) 0.4827(7) -0.4417(7)
H13 H 0.5942 0.5298 -0.5112
C19 C 0.6713(7) 0.4031(8) -0.4749(8)
H14 H 0.6761 0.3973 -0.5666
loop_
_geom_bond_atom_site_label_1
_geom_bond_atom_site_label_2
_geom_bond_site_symmetry_1
_geom_bond_site_symmetry_2
Br1 C13 1_555 1_555
S1 C1 1_555 1_555
N1 C1 1_555 1_555
N2 N3 1_555 1_555
N3 C1 1_555 1_555
C2 H1 1_555 1_555
C3 C8 1_555 1_555
C4 H2 1_555 1_555
C5 C4 1_555 1_555
C6 N1 1_555 1_555
C7 N1 1_555 1_555
C8 H3 1_555 1_555
C9 S1 1_555 1_555
H4 C9 1_555 1_555
H5 C9 1_555 1_555
C10 C3 1_555 1_555
H6 C10 1_555 1_555
C11 C6 1_555 1_555
H7 C11 1_555 1_555
C12 H8 1_555 1_555
C13 C2 1_555 1_555
N4 C4 1_555 1_555
C14 C6 1_555 1_555
H9 C14 1_555 1_555
C15 C2 1_555 1_555
H10 C15 1_555 1_555
C16 C12 1_555 1_555
H11 C16 1_555 1_555
C17 C14 1_555 1_555
H12 C17 1_555 1_555
N5 C5 1_555 1_555
C18 C11 1_555 1_555
H13 C18 1_555 1_555
C19 C17 1_555 1_555
H14 C19 1_555 1_555
N2 C7 1_555 1_555
C3 C9 1_555 1_555
C5 C7 1_555 1_555
C8 C13 1_555 1_555
C10 C15 1_555 1_555
C12 N4 1_555 1_555
C16 N5 1_555 1_555
C18 C19 1_555 1_555

#END
