
#######################################################################
#
#                 Cambridge Crystallographic Data Centre
#                                CCDC 
#
#######################################################################
#
# If this CIF has been generated from an entry in the Cambridge 
# Structural Database, then it will include bibliographic, chemical, 
# crystal, experimental, refinement or atomic coordinate data resulting 
# from the CCDC's data processing and validation procedures.
#
#######################################################################

data_SEWDIJ
_chemical_formula_moiety         'C13 H10 N4 S2'
_chemical_name_systematic        
2-(5-(Benzylsulfanyl)-1,3,4-thiadiazol-2-yl)pyrazine
_symmetry_cell_setting           monoclinic
_symmetry_space_group_name_H-M   'P 21/n'
_symmetry_Int_Tables_number      14
_space_group_name_Hall           '-P 2yn'
loop_
_symmetry_equiv_pos_site_id
_symmetry_equiv_pos_as_xyz
1 x,y,z
2 1/2-x,1/2+y,1/2-z
3 -x,-y,-z
4 1/2+x,1/2-y,1/2+z
_cell_length_a                   5.808(4)
_cell_length_b                   29.459(18)
_cell_length_c                   7.882(5)
_cell_angle_alpha                90
_cell_angle_beta                 101.575(5)
_cell_angle_gamma                90
_cell_volume                     1321.17
_cell_formula_units_Z            4
loop_
_atom_site_label
_atom_site_type_symbol
_atom_site_fract_x
_atom_site_fract_y
_atom_site_fract_z
S1 S -0.09448(12) 0.18077(2) 0.43960(8)
S2 S -0.17540(11) 0.08312(2) 0.33730(9)
N1 N 0.2677(4) 0.07257(7) 0.3745(3)
N2 N 0.2375(4) 0.11717(7) 0.4211(3)
N3 N -0.1650(4) -0.01325(8) 0.2341(4)
N4 N 0.2211(5) -0.06382(9) 0.1861(4)
C1 C 0.5085(5) 0.16195(9) 0.9670(3)
H1 H 0.6438 0.1450 1.0064
C2 C 0.4443(4) 0.17297(8) 0.7932(3)
H2 H 0.5355 0.1630 0.7160
C3 C 0.2452(4) 0.19869(7) 0.7336(3)
C4 C 0.1109(4) 0.21296(8) 0.8509(3)
H3 H -0.0233 0.2303 0.8124
C5 C 0.1748(5) 0.20173(10) 1.0238(3)
H4 H 0.0839 0.2116 1.1013
C6 C 0.3725(5) 0.17599(9) 1.0821(3)
H5 H 0.4143 0.1681 1.1984
C7 C 0.1718(5) 0.21027(8) 0.5445(3)
H6 H 0.2983 0.2025 0.4860
H7 H 0.1460 0.2427 0.5327
C8 C 0.0162(4) 0.12720(8) 0.4059(3)
C9 C 0.0706(4) 0.05132(8) 0.3271(3)
C10 C 0.0500(4) 0.00408(8) 0.2664(3)
C11 C -0.1827(5) -0.05612(10) 0.1788(5)
H8 H -0.3301 -0.0697 0.1554
C12 C 0.0063(6) -0.08068(10) 0.1552(4)
H9 H -0.0165 -0.1104 0.1159
C13 C 0.2409(5) -0.02118(10) 0.2450(5)
H10 H 0.3895 -0.0081 0.2726
loop_
_geom_bond_atom_site_label_1
_geom_bond_atom_site_label_2
_geom_bond_site_symmetry_1
_geom_bond_site_symmetry_2
S1 C7 1_555 1_555
S2 C8 1_555 1_555
N1 N2 1_555 1_555
N2 C8 1_555 1_555
N3 C10 1_555 1_555
N4 C12 1_555 1_555
C1 H1 1_555 1_555
C2 C1 1_555 1_555
H2 C2 1_555 1_555
C3 C2 1_555 1_555
C4 C3 1_555 1_555
H3 C4 1_555 1_555
C5 C4 1_555 1_555
H4 C5 1_555 1_555
C6 C1 1_555 1_555
H5 C6 1_555 1_555
C7 C3 1_555 1_555
H6 C7 1_555 1_555
H7 C7 1_555 1_555
C8 S1 1_555 1_555
C9 S2 1_555 1_555
C10 C9 1_555 1_555
C11 N3 1_555 1_555
H8 C11 1_555 1_555
C12 C11 1_555 1_555
H9 C12 1_555 1_555
C13 N4 1_555 1_555
H10 C13 1_555 1_555
N1 C9 1_555 1_555
C5 C6 1_555 1_555
C10 C13 1_555 1_555

#END
