
#######################################################################
#
#                 Cambridge Crystallographic Data Centre
#                                CCDC 
#
#######################################################################
#
# If this CIF has been generated from an entry in the Cambridge 
# Structural Database, then it will include bibliographic, chemical, 
# crystal, experimental, refinement or atomic coordinate data resulting 
# from the CCDC's data processing and validation procedures.
#
#######################################################################

data_SEWFUX
_chemical_formula_moiety         'C9 H18 N1 O1 1+,B1 Br4 1-'
_chemical_name_systematic        
'2,2,6,6-Tetramethylpiperidinio-N-oxide tetrabromoborate'
_symmetry_cell_setting           monoclinic
_symmetry_space_group_name_H-M   'P 21/c'
_symmetry_Int_Tables_number      14
_space_group_name_Hall           '-P 2ybc'
loop_
_symmetry_equiv_pos_site_id
_symmetry_equiv_pos_as_xyz
1 x,y,z
2 -x,1/2+y,1/2-z
3 -x,-y,-z
4 x,1/2-y,1/2+z
_cell_length_a                   9.5430(2)
_cell_length_b                   11.8342(3)
_cell_length_c                   13.5836(3)
_cell_angle_alpha                90
_cell_angle_beta                 95.273(2)
_cell_angle_gamma                90
_cell_volume                     1527.56
_exptl_crystal_colour            orange
_exptl_crystal_description       needle
_cell_formula_units_Z            4
loop_
_atom_site_label
_atom_site_type_symbol
_atom_site_fract_x
_atom_site_fract_y
_atom_site_fract_z
Br1 Br 0.80092(3) -0.38426(2) 0.19673(2)
Br2 Br 0.94258(2) -0.13124(2) 0.231311(18)
Br3 Br 0.60444(2) -0.15611(2) 0.167804(18)
Br4 Br 0.73621(2) -0.232481(19) 0.390478(16)
B1 B 0.7716(2) -0.2280(2) 0.24703(19)
O1 O 0.75764(17) 0.20772(15) -0.16080(12)
N1 N 0.74616(17) 0.23491(16) -0.07772(13)
C1 C 0.6196(2) 0.3688(2) 0.02347(17)
H1 H 0.6183 0.4478 0.0474
H2 H 0.5236 0.3503 -0.0060
C2 C 0.8667(2) 0.4112(2) -0.02529(18)
H3 H 0.8605 0.4938 -0.0262
H4 H 0.9340 0.3864 -0.0712
H5 H 0.8984 0.3855 0.0417
C3 C 0.7213(2) 0.36066(18) -0.05696(16)
C4 C 0.7602(2) 0.14382(19) 0.00191(17)
C5 C 0.6532(2) 0.1694(2) 0.07583(17)
H6 H 0.5578 0.1518 0.0448
H7 H 0.6718 0.1191 0.1338
C6 C 0.9136(2) 0.1495(2) 0.04904(19)
H8 H 0.9779 0.1497 -0.0032
H9 H 0.9331 0.0837 0.0919
H10 H 0.9269 0.2188 0.0883
C7 C 0.6563(2) 0.2915(2) 0.11105(16)
H11 H 0.5877 0.3020 0.1607
H12 H 0.7511 0.3103 0.1425
C8 C 0.6608(3) 0.4142(2) -0.15322(18)
H13 H 0.6343 0.4926 -0.1410
H14 H 0.5775 0.3718 -0.1796
H15 H 0.7316 0.4127 -0.2011
C9 C 0.7346(2) 0.0302(2) -0.04819(19)
H16 H 0.8061 0.0171 -0.0943
H17 H 0.6410 0.0297 -0.0845
H18 H 0.7400 -0.0297 0.0019
loop_
_geom_bond_atom_site_label_1
_geom_bond_atom_site_label_2
_geom_bond_site_symmetry_1
_geom_bond_site_symmetry_2
Br1 B1 1_555 1_555
Br2 B1 1_555 1_555
Br3 B1 1_555 1_555
Br4 B1 1_555 1_555
O1 N1 1_555 1_555
N1 C3 1_555 1_555
C1 H1 1_555 1_555
H2 C1 1_555 1_555
C2 H3 1_555 1_555
H4 C2 1_555 1_555
H5 C2 1_555 1_555
C3 C1 1_555 1_555
C4 N1 1_555 1_555
C5 C4 1_555 1_555
H6 C5 1_555 1_555
H7 C5 1_555 1_555
C6 C4 1_555 1_555
H8 C6 1_555 1_555
H9 C6 1_555 1_555
H10 C6 1_555 1_555
C7 C1 1_555 1_555
H11 C7 1_555 1_555
H12 C7 1_555 1_555
C8 C3 1_555 1_555
H13 C8 1_555 1_555
H14 C8 1_555 1_555
H15 C8 1_555 1_555
C9 C4 1_555 1_555
H16 C9 1_555 1_555
H17 C9 1_555 1_555
H18 C9 1_555 1_555
C2 C3 1_555 1_555
C5 C7 1_555 1_555

#END
