
#######################################################################
#
#                 Cambridge Crystallographic Data Centre
#                                CCDC 
#
#######################################################################
#
# If this CIF has been generated from an entry in the Cambridge 
# Structural Database, then it will include bibliographic, chemical, 
# crystal, experimental, refinement or atomic coordinate data resulting 
# from the CCDC's data processing and validation procedures.
#
#######################################################################

data_SEWLEN
_chemical_formula_moiety         'C16 H17 N1 O3'
_chemical_name_systematic        
4,6,7a-Trimethyl-3-phenyl-3a,7a-dihydro-1,3-benzoxazole-2,5(3H,4H)-dione
_symmetry_cell_setting           monoclinic
_symmetry_space_group_name_H-M   'P 21/c'
_symmetry_Int_Tables_number      14
_space_group_name_Hall           '-P 2ybc'
loop_
_symmetry_equiv_pos_site_id
_symmetry_equiv_pos_as_xyz
1 x,y,z
2 -x,1/2+y,1/2-z
3 -x,-y,-z
4 x,1/2-y,1/2+z
_cell_length_a                   14.8275(13)
_cell_length_b                   7.8956(7)
_cell_length_c                   11.8515(11)
_cell_angle_alpha                90
_cell_angle_beta                 94.9930(10)
_cell_angle_gamma                90
_cell_volume                     1382.21
_exptl_crystal_colour            colorless
_exptl_crystal_description       block
_cell_formula_units_Z            4
loop_
_atom_site_label
_atom_site_type_symbol
_atom_site_fract_x
_atom_site_fract_y
_atom_site_fract_z
O1 O 0.16378(5) 0.66369(10) -0.12158(6)
O2 O 0.09207(5) 0.57708(9) 0.02732(6)
O3 O 0.32450(5) 0.13406(10) 0.18121(7)
N1 N 0.24254(5) 0.58030(10) 0.04713(7)
C1 C 0.16754(7) 0.61171(12) -0.02539(9)
C2 C 0.21742(6) 0.54747(12) 0.16240(8)
H1 H 0.2205 0.6551 0.2070
C3 C 0.11757(6) 0.49390(12) 0.13636(8)
C4 C 0.27879(6) 0.41438(12) 0.22304(8)
H2 H 0.3428 0.4459 0.2124
C5 C 0.26291(7) 0.23709(13) 0.17616(8)
C6 C 0.16983(7) 0.18894(12) 0.13094(8)
C7 C 0.10554(7) 0.30720(12) 0.11434(8)
H3 H 0.0469 0.2700 0.0861
C8 C 0.26899(8) 0.41056(15) 0.35111(9)
H4 H 0.2077 0.3734 0.3644
H5 H 0.2796 0.5242 0.3827
H6 H 0.3133 0.3316 0.3878
C9 C 0.15289(8) 0.00401(13) 0.10730(10)
H7 H 0.0925 -0.0105 0.0679
H8 H 0.1566 -0.0587 0.1789
H9 H 0.1986 -0.0393 0.0597
C10 C 0.05301(7) 0.55717(14) 0.21933(9)
H10 H 0.0579 0.6806 0.2259
H11 H 0.0685 0.5054 0.2936
H12 H -0.0091 0.5264 0.1921
C11 C 0.32999(6) 0.63768(12) 0.02168(8)
C12 C 0.36370(7) 0.58683(14) -0.07886(9)
H13 H 0.3298 0.5122 -0.1291
C13 C 0.44755(8) 0.64639(16) -0.10509(9)
H14 H 0.4707 0.6127 -0.1739
C14 C 0.49761(8) 0.75422(16) -0.03201(10)
H15 H 0.5547 0.7951 -0.0508
C15 C 0.46408(7) 0.80223(15) 0.06866(10)
H16 H 0.4987 0.8751 0.1194
C16 C 0.38017(7) 0.74469(13) 0.09618(9)
H17 H 0.3573 0.7782 0.1652
loop_
_geom_bond_atom_site_label_1
_geom_bond_atom_site_label_2
_geom_bond_site_symmetry_1
_geom_bond_site_symmetry_2
O1 C1 1_555 1_555
O2 C1 1_555 1_555
O3 C5 1_555 1_555
N1 C1 1_555 1_555
C2 N1 1_555 1_555
H1 C2 1_555 1_555
C3 O2 1_555 1_555
C4 C2 1_555 1_555
H2 C4 1_555 1_555
C5 C4 1_555 1_555
C6 C5 1_555 1_555
C7 C3 1_555 1_555
H3 C7 1_555 1_555
C8 C4 1_555 1_555
H4 C8 1_555 1_555
H5 C8 1_555 1_555
H6 C8 1_555 1_555
C9 C6 1_555 1_555
H7 C9 1_555 1_555
H8 C9 1_555 1_555
H9 C9 1_555 1_555
C10 C3 1_555 1_555
H10 C10 1_555 1_555
H11 C10 1_555 1_555
H12 C10 1_555 1_555
C11 N1 1_555 1_555
C12 C11 1_555 1_555
H13 C12 1_555 1_555
C13 C12 1_555 1_555
H14 C13 1_555 1_555
C14 C13 1_555 1_555
H15 C14 1_555 1_555
C15 C14 1_555 1_555
H16 C15 1_555 1_555
C16 C11 1_555 1_555
H17 C16 1_555 1_555
C2 C3 1_555 1_555
C6 C7 1_555 1_555
C15 C16 1_555 1_555

#END
