
#######################################################################
#
#                 Cambridge Crystallographic Data Centre
#                                CCDC 
#
#######################################################################
#
# If this CIF has been generated from an entry in the Cambridge 
# Structural Database, then it will include bibliographic, chemical, 
# crystal, experimental, refinement or atomic coordinate data resulting 
# from the CCDC's data processing and validation procedures.
#
#######################################################################

data_SEWNOZ
_chemical_formula_moiety         'C29 H36 Cl1 N1 O4'
_chemical_name_systematic        
'3-Isobutyl-4,5,8-trimethyl-1,13-dioxo-2,3,3a,4,6a,7,10,11,12,13-decahydro-1H-cyclonona[d]isoindol-11-yl 4-chlorobenzoate'
_symmetry_cell_setting           trigonal
_symmetry_space_group_name_H-M   'P 31 2 1'
_symmetry_Int_Tables_number      152
_space_group_name_Hall           'P 31 2"'
loop_
_symmetry_equiv_pos_site_id
_symmetry_equiv_pos_as_xyz
1 x,y,z
2 -y,x-y,1/3+z
3 -x+y,-x,2/3+z
4 y,x,-z
5 x-y,-y,2/3-z
6 -x,-x+y,1/3-z
_cell_length_a                   15.2510(16)
_cell_length_b                   15.2510(16)
_cell_length_c                   20.151(3)
_cell_angle_alpha                90
_cell_angle_beta                 90
_cell_angle_gamma                120
_cell_volume                     4059.05
_exptl_crystal_colour            colorless
_exptl_crystal_description       Prism
_cell_formula_units_Z            6
loop_
_atom_site_label
_atom_site_type_symbol
_atom_site_fract_x
_atom_site_fract_y
_atom_site_fract_z
Cl2 Cl 0.5234(5) 0.6665(4) 0.02515(19)
O1 O 0.12353(12) 0.94267(11) -0.24291(8)
O2 O 0.39688(12) 1.06202(13) -0.36117(9)
O3 O 0.36532(13) 0.84227(13) -0.22121(8)
O4 O 0.44327(16) 0.77815(16) -0.28218(8)
N1 N 0.19214(15) 1.11235(14) -0.23270(10)
H1 H 0.166(2) 1.105(2) -0.1894(15)
C1 C 0.18062(15) 1.02949(15) -0.26207(10)
C2 C 0.26766(17) 1.20796(15) -0.26149(11)
H2 H 0.2370 1.2498 -0.2710
C3 C 0.29708(16) 1.17695(15) -0.32770(10)
H3 H 0.3709 1.2073 -0.3290
C4 C 0.26278(18) 1.21026(17) -0.39096(11)
H4 H 0.2921 1.1928 -0.4285
C5 C 0.15010(17) 1.14664(18) -0.39917(11)
C6 C 0.11283(17) 1.04711(18) -0.39734(11)
H5 H 0.0437 1.0030 -0.4022
C7 C 0.18343(15) 1.00678(15) -0.38731(10)
H6 H 0.2303 1.0307 -0.4250
C8 C 0.24833(14) 1.05918(14) -0.32405(10)
C9 C 0.35414(19) 1.26274(19) -0.21193(13)
H7 H 0.3248 1.2615 -0.1690
H8 H 0.3889 1.2243 -0.2078
C10 C 0.3072(2) 1.32494(19) -0.39491(14)
H9 H 0.2933 1.3425 -0.4378
H10 H 0.3790 1.3583 -0.3881
H11 H 0.2770 1.3460 -0.3613
C11 C 0.0851(2) 1.1931(2) -0.41049(15)
H12 H 0.0157 1.1405 -0.4147
H13 H 0.1061 1.2327 -0.4504
H14 H 0.0917 1.2358 -0.3736
C12 C 0.13130(17) 0.89035(16) -0.38780(12)
H15 H 0.1148 0.8658 -0.3425
H16 H 0.0683 0.8634 -0.4123
C13 C 0.19471(17) 0.85097(16) -0.41813(11)
C14 C 0.23766(19) 0.80771(17) -0.38448(12)
H17 H 0.2701 0.7817 -0.4101
C15 C 0.2413(2) 0.79485(18) -0.31087(13)
H18 H 0.2344 0.7293 -0.3015
H19 H 0.1853 0.7973 -0.2899
C16 C 0.34078(18) 0.87792(17) -0.28242(11)
H20 H 0.3950 0.8965 -0.3150
C17 C 0.3385(2) 0.97148(18) -0.26092(12)
H21 H 0.3990 1.0143 -0.2353
H22 H 0.2805 0.9517 -0.2322
C18 C 0.33249(15) 1.03216(15) -0.31893(11)
C19 C 0.4317(2) 1.3705(2) -0.22735(15)
H23 H 0.4579 1.3721 -0.2720
C20 C 0.5196(6) 1.4077(9) -0.1792(5)
H24 H 0.4962 1.4079 -0.1350
H25 H 0.5708 1.4751 -0.1911
H26 H 0.5476 1.3636 -0.1809
C21 C 0.3896(3) 1.4426(2) -0.22630(18)
H27 H 0.3335 1.4187 -0.2565
H28 H 0.4415 1.5090 -0.2395
H29 H 0.3672 1.4455 -0.1822
C22 C 0.2097(2) 0.8658(2) -0.49195(12)
H30 H 0.2428 0.8306 -0.5081
H31 H 0.2507 0.9367 -0.5016
H32 H 0.1451 0.8397 -0.5133
C23 C 0.41680(16) 0.79293(16) -0.22902(11)
C24 C 0.43870(16) 0.76012(16) -0.16479(11)
C25 C 0.49824(19) 0.71522(18) -0.16609(12)
H33 H 0.5229 0.7062 -0.2062
C26 C 0.5209(2) 0.6837(2) -0.10725(14)
H34 H 0.5606 0.6532 -0.1075
C27 C 0.4840(2) 0.69808(19) -0.04858(13)
C28 C 0.4256(2) 0.7423(2) -0.04606(13)
H35 H 0.4016 0.7514 -0.0057
C29 C 0.40263(18) 0.77365(19) -0.10507(12)
H36 H 0.3627 0.8039 -0.1043
Cl1? Cl 0.4986(7) 0.6502(7) 0.0251(3)
C30? C 0.5154(13) 1.4061(15) -0.1731(9)
H37? H 0.5538 1.3724 -0.1794
H38? H 0.4845 1.3899 -0.1300
H39? H 0.5597 1.4780 -0.1766
loop_
_geom_bond_atom_site_label_1
_geom_bond_atom_site_label_2
_geom_bond_site_symmetry_1
_geom_bond_site_symmetry_2
Cl2 C27 1_555 1_555
O1 C1 1_555 1_555
O2 C18 1_555 1_555
O3 C16 1_555 1_555
O4 C23 1_555 1_555
N1 H1 1_555 1_555
C1 N1 1_555 1_555
C2 N1 1_555 1_555
H2 C2 1_555 1_555
C3 C2 1_555 1_555
H3 C3 1_555 1_555
C4 C3 1_555 1_555
H4 C4 1_555 1_555
C5 C4 1_555 1_555
C6 C5 1_555 1_555
H5 C6 1_555 1_555
C7 C6 1_555 1_555
H6 C7 1_555 1_555
C8 C1 1_555 1_555
C9 C2 1_555 1_555
H7 C9 1_555 1_555
H8 C9 1_555 1_555
C10 C4 1_555 1_555
H9 C10 1_555 1_555
H10 C10 1_555 1_555
H11 C10 1_555 1_555
C11 C5 1_555 1_555
H12 C11 1_555 1_555
H13 C11 1_555 1_555
H14 C11 1_555 1_555
C12 C7 1_555 1_555
H15 C12 1_555 1_555
H16 C12 1_555 1_555
C13 C12 1_555 1_555
C14 C13 1_555 1_555
H17 C14 1_555 1_555
C15 C14 1_555 1_555
H18 C15 1_555 1_555
H19 C15 1_555 1_555
C16 C15 1_555 1_555
H20 C16 1_555 1_555
C17 C16 1_555 1_555
H21 C17 1_555 1_555
H22 C17 1_555 1_555
C18 C8 1_555 1_555
C19 C9 1_555 1_555
H23 C19 1_555 1_555
C20 C19 1_555 1_555
H24 C20 1_555 1_555
H25 C20 1_555 1_555
H26 C20 1_555 1_555
C21 C19 1_555 1_555
H27 C21 1_555 1_555
H28 C21 1_555 1_555
H29 C21 1_555 1_555
C22 C13 1_555 1_555
H30 C22 1_555 1_555
H31 C22 1_555 1_555
H32 C22 1_555 1_555
C23 O3 1_555 1_555
C24 C23 1_555 1_555
C25 C24 1_555 1_555
H33 C25 1_555 1_555
C26 C25 1_555 1_555
H34 C26 1_555 1_555
C27 C26 1_555 1_555
C28 C27 1_555 1_555
H35 C28 1_555 1_555
C29 C24 1_555 1_555
H36 C29 1_555 1_555
C3 C8 1_555 1_555
C7 C8 1_555 1_555
C17 C18 1_555 1_555
C28 C29 1_555 1_555

#END
