
#######################################################################
#
#                 Cambridge Crystallographic Data Centre
#                                CCDC 
#
#######################################################################
#
# If this CIF has been generated from an entry in the Cambridge 
# Structural Database, then it will include bibliographic, chemical, 
# crystal, experimental, refinement or atomic coordinate data resulting 
# from the CCDC's data processing and validation procedures.
#
#######################################################################

data_SEWNEO
_chemical_formula_moiety         'C30 H50 O4 P2'
_chemical_name_systematic        
1,2-bis(Dicyclohexylphosphino)-1,2-bis(methoxycarbonyl)ethene
_symmetry_cell_setting           triclinic
_symmetry_space_group_name_H-M   'P -1'
_symmetry_Int_Tables_number      2
_space_group_name_Hall           '-P 1'
loop_
_symmetry_equiv_pos_site_id
_symmetry_equiv_pos_as_xyz
1 x,y,z
2 -x,-y,-z
_cell_length_a                   11.359(2)
_cell_length_b                   11.784(2)
_cell_length_c                   12.843(3)
_cell_angle_alpha                100.44(3)
_cell_angle_beta                 94.37(3)
_cell_angle_gamma                115.06(3)
_cell_volume                     1508.75
_exptl_crystal_colour            yellow
_exptl_crystal_description       block
_cell_formula_units_Z            2
_exptl_crystal_recrystallization_method 'diethyl ether'
loop_
_atom_site_label
_atom_site_type_symbol
_atom_site_fract_x
_atom_site_fract_y
_atom_site_fract_z
P1 P 0.76714(4) 0.85092(3) 0.75507(3)
P2 P 0.45386(4) 0.62616(4) 0.63786(3)
O1 O 0.30706(11) 0.67312(11) 0.85229(9)
O2 O 0.73990(11) 0.81994(12) 1.00867(8)
O3 O 0.59036(10) 0.89547(10) 0.98388(8)
O4 O 0.43653(10) 0.59420(10) 0.92255(9)
C1 C 0.62941(14) 0.78476(13) 0.82979(11)
C2 C 0.50597(14) 0.69810(13) 0.78388(11)
C3 C 0.66078(14) 0.83292(14) 0.95013(11)
C4 C 0.61250(18) 0.94758(18) 1.09852(13)
H1 H 0.5777 0.8767 1.1348
H2 H 0.5675 1.0021 1.1134
H3 H 0.7073 0.9992 1.1250
C5 C 0.40439(14) 0.65605(14) 0.85515(11)
C6 C 0.34922(17) 0.55118(17) 0.99847(14)
H4 H 0.3711 0.6232 1.0603
H5 H 0.3596 0.4813 1.0228
H6 H 0.2577 0.5199 0.9637
C7 C 0.87274(14) 0.77803(13) 0.80315(11)
H7 H 0.9080 0.8169 0.8815
C8 C 0.78892(14) 0.63168(14) 0.78564(13)
H8 H 0.7197 0.6157 0.8311
H9 H 0.7445 0.5953 0.7097
C9 C 0.87032(15) 0.56186(14) 0.81240(13)
H10 H 0.9018 0.5868 0.8909
H11 H 0.8132 0.4677 0.7919
C10 C 0.98860(15) 0.59317(14) 0.75459(13)
H12 H 1.0431 0.5532 0.7796
H13 H 0.9576 0.5572 0.6763
C11 C 1.07140(14) 0.73847(14) 0.77681(13)
H14 H 1.1468 0.7579 0.7377
H15 H 1.1070 0.7735 0.8546
C12 C 0.98878(15) 0.80304(14) 0.74130(13)
H16 H 0.9544 0.7690 0.6633
H17 H 1.0450 0.8971 0.7544
C13 C 0.84559(14) 1.02053(13) 0.83801(11)
H18 H 0.8553 1.0189 0.9157
C14 C 0.98161(15) 1.10132(14) 0.81265(13)
H19 H 1.0422 1.0648 0.8313
H20 H 0.9742 1.0975 0.7347
C15 C 1.03869(16) 1.24195(14) 0.87533(13)
H21 H 1.0564 1.2464 0.9530
H22 H 1.1237 1.2924 0.8535
C16 C 0.94645(16) 1.30226(15) 0.85666(13)
H23 H 0.9391 1.3100 0.7812
H24 H 0.9838 1.3900 0.9039
C17 C 0.80981(17) 1.22160(15) 0.87956(14)
H25 H 0.7500 1.2586 0.8600
H26 H 0.8153 1.2248 0.9574
C18 C 0.75285(15) 1.08130(14) 0.81644(13)
H27 H 0.7375 1.0773 0.7387
H28 H 0.6667 1.0309 0.8367
C19 C 0.34359(14) 0.69999(14) 0.60348(11)
H29 H 0.2632 0.6651 0.6374
C20 C 0.41605(17) 0.84651(15) 0.64439(14)
H30 H 0.5019 0.8789 0.6191
H31 H 0.4341 0.8682 0.7239
C21 C 0.33816(17) 0.91514(15) 0.60682(13)
H32 H 0.2597 0.8946 0.6423
H33 H 0.3940 1.0095 0.6290
C22 C 0.2941(2) 0.87577(16) 0.48589(13)
H34 H 0.2366 0.9151 0.4659
H35 H 0.3722 0.9079 0.4502
C23 C 0.2194(2) 0.73026(17) 0.44772(15)
H36 H 0.1947 0.7063 0.3685
H37 H 0.1372 0.6991 0.4785
C24 C 0.30282(19) 0.66559(16) 0.48130(12)
H38 H 0.3828 0.6934 0.4475
H39 H 0.2517 0.5709 0.4554
C25 C 0.3347(2) 0.45895(19) 0.6528(2)
H40 H 0.2852 0.4697 0.7120
C26 C 0.4187(5) 0.3920(5) 0.6852(3)
H41 H 0.4743 0.3885 0.6302
H42 H 0.4781 0.4441 0.7543
C27 C 0.3344(3) 0.2553(2) 0.69679(19)
H43 H 0.2887 0.2594 0.7589
H44 H 0.3924 0.2145 0.7112
C28 C 0.2327(3) 0.1730(2) 0.5961(2)
H45 H 0.2783 0.1582 0.5362
H46 H 0.1747 0.0882 0.6091
C29 C 0.1494(4) 0.2377(4) 0.5649(3)
H47 H 0.0964 0.2438 0.6215
H48 H 0.0876 0.1841 0.4971
C30 C 0.2343(2) 0.37310(19) 0.54969(16)
H49 H 0.1766 0.4130 0.5316
H50 H 0.2819 0.3668 0.4892
C31? C 0.3483(7) 0.4535(4) 0.6058(7)
H51? H 0.3305 0.4220 0.5258
C32? C 0.4351(13) 0.4000(12) 0.6512(8)
H52? H 0.5205 0.4336 0.6254
H53? H 0.4526 0.4268 0.7307
C33? C 0.3650(6) 0.2546(6) 0.6149(6)
H54? H 0.3561 0.2281 0.5359
H55? H 0.4176 0.2175 0.6482
C34? C 0.2302(7) 0.2041(7) 0.6466(6)
H56? H 0.2400 0.2223 0.7260
H57? H 0.1832 0.1094 0.6185
C35? C 0.1475(10) 0.2664(10) 0.6026(8)
H58? H 0.1309 0.2422 0.5231
H59? H 0.0612 0.2342 0.6273
C36? C 0.2212(5) 0.4138(5) 0.6421(5)
H60? H 0.1707 0.4544 0.6115
H61? H 0.2341 0.4394 0.7215
loop_
_geom_bond_atom_site_label_1
_geom_bond_atom_site_label_2
_geom_bond_site_symmetry_1
_geom_bond_site_symmetry_2
P1 C1 1_555 1_555
P2 C2 1_555 1_555
O1 C5 1_555 1_555
O2 C3 1_555 1_555
O3 C3 1_555 1_555
O4 C5 1_555 1_555
C1 C2 1_555 1_555
C2 C5 1_555 1_555
C3 C1 1_555 1_555
C4 O3 1_555 1_555
H1 C4 1_555 1_555
H2 C4 1_555 1_555
H3 C4 1_555 1_555
C6 O4 1_555 1_555
H4 C6 1_555 1_555
H5 C6 1_555 1_555
H6 C6 1_555 1_555
C7 P1 1_555 1_555
H7 C7 1_555 1_555
C8 C7 1_555 1_555
H8 C8 1_555 1_555
H9 C8 1_555 1_555
C9 C8 1_555 1_555
H10 C9 1_555 1_555
H11 C9 1_555 1_555
C10 C9 1_555 1_555
H12 C10 1_555 1_555
H13 C10 1_555 1_555
C11 C10 1_555 1_555
H14 C11 1_555 1_555
H15 C11 1_555 1_555
C12 C7 1_555 1_555
H16 C12 1_555 1_555
H17 C12 1_555 1_555
C13 P1 1_555 1_555
H18 C13 1_555 1_555
C14 C13 1_555 1_555
H19 C14 1_555 1_555
H20 C14 1_555 1_555
C15 C14 1_555 1_555
H21 C15 1_555 1_555
H22 C15 1_555 1_555
C16 C15 1_555 1_555
H23 C16 1_555 1_555
H24 C16 1_555 1_555
C17 C16 1_555 1_555
H25 C17 1_555 1_555
H26 C17 1_555 1_555
C18 C13 1_555 1_555
H27 C18 1_555 1_555
H28 C18 1_555 1_555
C19 P2 1_555 1_555
H29 C19 1_555 1_555
C20 C19 1_555 1_555
H30 C20 1_555 1_555
H31 C20 1_555 1_555
C21 C20 1_555 1_555
H32 C21 1_555 1_555
H33 C21 1_555 1_555
C22 C21 1_555 1_555
H34 C22 1_555 1_555
H35 C22 1_555 1_555
C23 C22 1_555 1_555
H36 C23 1_555 1_555
H37 C23 1_555 1_555
C24 C19 1_555 1_555
H38 C24 1_555 1_555
H39 C24 1_555 1_555
C25 P2 1_555 1_555
H40 C25 1_555 1_555
C26 C25 1_555 1_555
H41 C26 1_555 1_555
H42 C26 1_555 1_555
C27 C26 1_555 1_555
H43 C27 1_555 1_555
H44 C27 1_555 1_555
C28 C27 1_555 1_555
H45 C28 1_555 1_555
H46 C28 1_555 1_555
C29 C28 1_555 1_555
H47 C29 1_555 1_555
H48 C29 1_555 1_555
C30 C25 1_555 1_555
H49 C30 1_555 1_555
H50 C30 1_555 1_555
C11 C12 1_555 1_555
C17 C18 1_555 1_555
C23 C24 1_555 1_555
C29 C30 1_555 1_555

#END
