
#######################################################################
#
#                 Cambridge Crystallographic Data Centre
#                                CCDC 
#
#######################################################################
#
# If this CIF has been generated from an entry in the Cambridge 
# Structural Database, then it will include bibliographic, chemical, 
# crystal, experimental, refinement or atomic coordinate data resulting 
# from the CCDC's data processing and validation procedures.
#
#######################################################################

data_SEWQUI
_chemical_formula_moiety         'C21 H16 Cl1 N1 O1'
_chemical_name_systematic        
trans-(3R,4S)-1-(2-Chlorophenyl)-3,4-diphenylazetidin-2-one
_symmetry_cell_setting           orthorhombic
_symmetry_space_group_name_H-M   'P 21 21 21'
_symmetry_Int_Tables_number      19
_space_group_name_Hall           'P 2ac 2ab'
loop_
_symmetry_equiv_pos_site_id
_symmetry_equiv_pos_as_xyz
1 x,y,z
2 1/2-x,-y,1/2+z
3 -x,1/2+y,1/2-z
4 1/2+x,1/2-y,-z
_cell_length_a                   10.038(2)
_cell_length_b                   10.075(2)
_cell_length_c                   16.660(4)
_cell_angle_alpha                90
_cell_angle_beta                 90
_cell_angle_gamma                90
_cell_volume                     1684.87
_exptl_crystal_colour            colorless
_exptl_crystal_description       plate
_chemical_melting_point          '110 deg.C'
_cell_formula_units_Z            4
_exptl_crystal_recrystallization_method 'ethyl acetate/hexane'
loop_
_atom_site_label
_atom_site_type_symbol
_atom_site_fract_x
_atom_site_fract_y
_atom_site_fract_z
Cl1 Cl 1.07968(7) 0.57604(7) 0.40069(4)
O1 O 1.08345(14) 0.39027(14) 0.54495(9)
N1 N 0.87375(16) 0.39765(17) 0.48041(10)
C1 C 0.85168(19) 0.3902(2) 0.60560(12)
H1 H 0.8377 0.4795 0.6305
C2 C 0.75645(19) 0.3696(2) 0.53188(12)
H2 H 0.7289 0.2745 0.5272
C3 C 0.9630(2) 0.39499(19) 0.54287(12)
C4 C 0.88459(19) 0.38909(19) 0.39575(12)
C5 C 0.9788(2) 0.4611(2) 0.35276(13)
C6 C 0.9898(2) 0.4464(2) 0.27045(14)
H3 H 1.0565 0.4939 0.2419
C7 C 0.9047(3) 0.3634(2) 0.22971(14)
H4 H 0.9129 0.3531 0.1733
C8 C 0.8069(3) 0.2949(2) 0.27127(14)
H5 H 0.7465 0.2391 0.2431
C9 C 0.7970(2) 0.3078(2) 0.35387(13)
H6 H 0.7298 0.2606 0.3821
C10 C 0.6391(2) 0.4603(2) 0.52104(11)
C11 C 0.6457(2) 0.5767(2) 0.47724(13)
H7 H 0.7276 0.6031 0.4536
C12 C 0.5332(3) 0.6548(3) 0.46764(15)
H8 H 0.5382 0.7344 0.4372
C13 C 0.4144(3) 0.6174(3) 0.50198(15)
H9 H 0.3374 0.6712 0.4952
C14 C 0.4069(2) 0.5027(2) 0.54612(15)
H10 H 0.3248 0.4769 0.5698
C15 C 0.5187(2) 0.4246(2) 0.55608(13)
H11 H 0.5132 0.3458 0.5872
C16 C 0.8569(2) 0.2831(2) 0.66904(12)
C17 C 0.7908(2) 0.3008(2) 0.74140(13)
H12 H 0.7458 0.3819 0.7519
C18 C 0.7901(3) 0.2005(3) 0.79858(14)
H13 H 0.7429 0.2126 0.8475
C19 C 0.8575(2) 0.0836(3) 0.78484(14)
H14 H 0.8580 0.0157 0.8244
C20 C 0.9239(3) 0.0656(3) 0.71361(15)
H15 H 0.9707 -0.0147 0.7039
C21 C 0.9226(3) 0.1650(2) 0.65580(14)
H16 H 0.9678 0.1513 0.6064
loop_
_geom_bond_atom_site_label_1
_geom_bond_atom_site_label_2
_geom_bond_site_symmetry_1
_geom_bond_site_symmetry_2
Cl1 C5 1_555 1_555
O1 C3 1_555 1_555
N1 C2 1_555 1_555
C1 H1 1_555 1_555
C2 C1 1_555 1_555
H2 C2 1_555 1_555
C3 N1 1_555 1_555
C4 N1 1_555 1_555
C5 C4 1_555 1_555
C6 C5 1_555 1_555
H3 C6 1_555 1_555
C7 C6 1_555 1_555
H4 C7 1_555 1_555
C8 C7 1_555 1_555
H5 C8 1_555 1_555
C9 C4 1_555 1_555
H6 C9 1_555 1_555
C10 C2 1_555 1_555
C11 C10 1_555 1_555
H7 C11 1_555 1_555
C12 C11 1_555 1_555
H8 C12 1_555 1_555
C13 C12 1_555 1_555
H9 C13 1_555 1_555
C14 C13 1_555 1_555
H10 C14 1_555 1_555
C15 C10 1_555 1_555
H11 C15 1_555 1_555
C16 C1 1_555 1_555
C17 C16 1_555 1_555
H12 C17 1_555 1_555
C18 C17 1_555 1_555
H13 C18 1_555 1_555
C19 C18 1_555 1_555
H14 C19 1_555 1_555
C20 C19 1_555 1_555
H15 C20 1_555 1_555
C21 C16 1_555 1_555
H16 C21 1_555 1_555
C1 C3 1_555 1_555
C8 C9 1_555 1_555
C14 C15 1_555 1_555
C20 C21 1_555 1_555

#END
