
#######################################################################
#
#                 Cambridge Crystallographic Data Centre
#                                CCDC 
#
#######################################################################
#
# If this CIF has been generated from an entry in the Cambridge 
# Structural Database, then it will include bibliographic, chemical, 
# crystal, experimental, refinement or atomic coordinate data resulting 
# from the CCDC's data processing and validation procedures.
#
#######################################################################

data_SEWQES
_chemical_formula_moiety         'C25 H32 N2 O3'
_chemical_name_systematic        
(2S,3R,4R)-2-Isobutyl-5-isopropyl-1-(4-methoxyphenyl)-3-nitro-4-phenyl-1,2,3,4-tetrahydropyridine
_symmetry_cell_setting           monoclinic
_symmetry_space_group_name_H-M   'P 21/c'
_symmetry_Int_Tables_number      14
_space_group_name_Hall           '-P 2ybc'
loop_
_symmetry_equiv_pos_site_id
_symmetry_equiv_pos_as_xyz
1 x,y,z
2 -x,1/2+y,1/2-z
3 -x,-y,-z
4 x,1/2-y,1/2+z
_cell_length_a                   11.4633(15)
_cell_length_b                   17.645(2)
_cell_length_c                   12.4407(17)
_cell_angle_alpha                90
_cell_angle_beta                 113.204(2)
_cell_angle_gamma                90
_cell_volume                     2312.82
_cell_formula_units_Z            4
loop_
_atom_site_label
_atom_site_type_symbol
_atom_site_fract_x
_atom_site_fract_y
_atom_site_fract_z
C1 C -0.1210(4) 0.9842(2) -0.4124(4)
H1 H -0.1692 1.0145 -0.3805
H2 H -0.1486 0.9325 -0.4182
H3 H -0.1336 1.0028 -0.4888
C2 C 0.0432(3) 0.95906(14) -0.2320(2)
C3 C -0.0326(2) 0.93642(15) -0.1762(2)
H4 H -0.1203 0.9402 -0.2142
C4 C 0.0206(2) 0.90795(14) -0.0633(2)
H5 H -0.0317 0.8934 -0.0258
C5 C 0.15074(19) 0.90094(11) -0.00602(17)
C6 C 0.2254(2) 0.92459(12) -0.06443(19)
H6 H 0.3132 0.9207 -0.0275
C7 C 0.1722(3) 0.95362(14) -0.1757(2)
H7 H 0.2241 0.9696 -0.2129
C8 C 0.33000(19) 0.89213(11) 0.17973(17)
H8 H 0.3587 0.9387 0.1651
C9 C 0.41073(19) 0.85137(11) 0.26661(16)
C10 C 0.37246(18) 0.77423(11) 0.29532(16)
H9 H 0.3534 0.7821 0.3647
C11 C 0.24779(18) 0.74509(10) 0.19961(16)
H10 H 0.2103 0.7087 0.2364
C12 C 0.14954(18) 0.80798(11) 0.14465(18)
H11 H 0.0825 0.7871 0.0744
C13 C 0.0882(2) 0.83349(12) 0.2280(2)
H12 H 0.1552 0.8479 0.3017
H13 H 0.0380 0.8785 0.1954
C14 C 0.0034(2) 0.77548(14) 0.2531(2)
H14 H 0.0572 0.7331 0.2955
C15 C -0.0986(3) 0.7440(2) 0.1433(3)
H15 H -0.1469 0.7849 0.0957
H16 H -0.1537 0.7115 0.1640
H17 H -0.0599 0.7154 0.1004
C16 C -0.0547(3) 0.81068(19) 0.3325(3)
H18 H -0.1018 0.7728 0.3539
H19 H -0.1105 0.8512 0.2919
H20 H 0.0116 0.8301 0.4018
C17 C 0.5365(2) 0.88311(13) 0.35075(19)
H21 H 0.6015 0.8452 0.3575
C18 C 0.5361(4) 0.8928(2) 0.4720(2)
H22 H 0.4716 0.9286 0.4686
H23 H 0.6174 0.9111 0.5246
H24 H 0.5190 0.8449 0.4993
C19 C 0.5753(3) 0.9558(2) 0.3097(3)
H25 H 0.5176 0.9956 0.3083
H26 H 0.5735 0.9487 0.2326
H27 H 0.6597 0.9694 0.3623
C20 C 0.47764(19) 0.71554(11) 0.33109(17)
C21 C 0.5031(2) 0.67190(12) 0.4305(2)
H28 H 0.4552 0.6788 0.4751
C22 C 0.5985(2) 0.61836(14) 0.4641(2)
H29 H 0.6138 0.5894 0.5307
C23 C 0.6706(2) 0.60744(14) 0.4005(2)
H30 H 0.7345 0.5710 0.4232
C24 C 0.6479(2) 0.65095(15) 0.3021(2)
H31 H 0.6971 0.6442 0.2586
C25 C 0.5528(2) 0.70430(14) 0.2681(2)
H32 H 0.5386 0.7334 0.2018
N1 N 0.20664(16) 0.87193(9) 0.10854(14)
N2 N 0.27086(16) 0.70412(10) 0.10388(16)
O1 O 0.0013(3) 0.98835(14) -0.34308(19)
O2 O 0.30296(19) 0.74077(10) 0.03780(15)
O3 O 0.2551(2) 0.63661(10) 0.09660(19)
loop_
_geom_bond_atom_site_label_1
_geom_bond_atom_site_label_2
_geom_bond_site_symmetry_1
_geom_bond_site_symmetry_2
C1 H1 1_555 1_555
H2 C1 1_555 1_555
H3 C1 1_555 1_555
C2 C3 1_555 1_555
C3 H4 1_555 1_555
C4 C3 1_555 1_555
H5 C4 1_555 1_555
C5 C4 1_555 1_555
C6 C5 1_555 1_555
H6 C6 1_555 1_555
C7 C2 1_555 1_555
H7 C7 1_555 1_555
C8 H8 1_555 1_555
C9 C8 1_555 1_555
C10 C9 1_555 1_555
H9 C10 1_555 1_555
C11 C10 1_555 1_555
H10 C11 1_555 1_555
C12 C11 1_555 1_555
H11 C12 1_555 1_555
C13 C12 1_555 1_555
H12 C13 1_555 1_555
H13 C13 1_555 1_555
C14 C13 1_555 1_555
H14 C14 1_555 1_555
C15 C14 1_555 1_555
H15 C15 1_555 1_555
H16 C15 1_555 1_555
H17 C15 1_555 1_555
C16 C14 1_555 1_555
H18 C16 1_555 1_555
H19 C16 1_555 1_555
H20 C16 1_555 1_555
C17 C9 1_555 1_555
H21 C17 1_555 1_555
C18 C17 1_555 1_555
H22 C18 1_555 1_555
H23 C18 1_555 1_555
H24 C18 1_555 1_555
C19 C17 1_555 1_555
H25 C19 1_555 1_555
H26 C19 1_555 1_555
H27 C19 1_555 1_555
C20 C10 1_555 1_555
C21 C20 1_555 1_555
H28 C21 1_555 1_555
C22 C21 1_555 1_555
H29 C22 1_555 1_555
C23 C22 1_555 1_555
H30 C23 1_555 1_555
C24 C23 1_555 1_555
H31 C24 1_555 1_555
C25 C20 1_555 1_555
H32 C25 1_555 1_555
N1 C5 1_555 1_555
N2 C11 1_555 1_555
O1 C1 1_555 1_555
O2 N2 1_555 1_555
O3 N2 1_555 1_555
C2 O1 1_555 1_555
C6 C7 1_555 1_555
C8 N1 1_555 1_555
C12 N1 1_555 1_555
C24 C25 1_555 1_555

#END
