
#######################################################################
#
#                 Cambridge Crystallographic Data Centre
#                                CCDC 
#
#######################################################################
#
# If this CIF has been generated from an entry in the Cambridge 
# Structural Database, then it will include bibliographic, chemical, 
# crystal, experimental, refinement or atomic coordinate data resulting 
# from the CCDC's data processing and validation procedures.
#
#######################################################################

data_SEWRES
_chemical_formula_moiety         'C21 H16 N4 S1'
_chemical_name_systematic        
3-(1-Naphthylmethyl)-6-phenyl-7H-1,2,4-triazolo(3,4-b)(1,3,4)-thiadiazine
_symmetry_cell_setting           orthorhombic
_symmetry_space_group_name_H-M   'P b c a'
_symmetry_Int_Tables_number      61
_space_group_name_Hall           '-P 2ac 2ab'
loop_
_symmetry_equiv_pos_site_id
_symmetry_equiv_pos_as_xyz
1 x,y,z
2 1/2-x,-y,1/2+z
3 1/2+x,1/2-y,-z
4 -x,1/2+y,1/2-z
5 -x,-y,-z
6 1/2+x,y,1/2-z
7 1/2-x,1/2+y,z
8 x,1/2-y,1/2+z
_cell_length_a                   12.886(4)
_cell_length_b                   10.226(3)
_cell_length_c                   26.694(7)
_cell_angle_alpha                90
_cell_angle_beta                 90
_cell_angle_gamma                90
_cell_volume                     3517.53
_exptl_crystal_colour            brown
_exptl_crystal_description       prism
_cell_formula_units_Z            8
_exptl_crystal_recrystallization_method ethanol
loop_
_atom_site_label
_atom_site_type_symbol
_atom_site_fract_x
_atom_site_fract_y
_atom_site_fract_z
S1 S 0.69751(12) 0.25344(16) -0.00554(5)
N1 N 0.6755(3) 0.4702(4) 0.07874(15)
N2 N 0.5898(3) 0.4097(4) 0.05765(14)
N3 N 0.4899(4) 0.2978(5) 0.00664(17)
N4 N 0.4287(3) 0.3813(5) 0.03585(17)
C1 C 0.8553(4) 0.4872(5) 0.0909(2)
C2 C 0.9533(4) 0.4685(6) 0.0708(3)
H1 H 0.9624 0.4112 0.0441
C3 C 1.0371(5) 0.5347(8) 0.0903(3)
H2 H 1.1027 0.5213 0.0767
C4 C 1.0255(5) 0.6193(7) 0.1290(3)
H3 H 1.0828 0.6631 0.1420
C5 C 0.9310(6) 0.6391(8) 0.1484(3)
H4 H 0.9229 0.6986 0.1745
C6 C 0.8462(5) 0.5734(8) 0.1308(2)
H5 H 0.7817 0.5867 0.1456
C7 C 0.7631(4) 0.4209(5) 0.0696(2)
C8 C 0.7793(5) 0.2864(7) 0.0482(3)
H6 H 0.7651 0.2220 0.0740
H7 H 0.8514 0.2771 0.0384
C9 C 0.5855(4) 0.3191(5) 0.02048(19)
C10 C 0.4890(4) 0.4463(5) 0.06584(19)
C11 C 0.4572(4) 0.5471(6) 0.1030(2)
H8 H 0.3883 0.5780 0.0945
H9 H 0.5043 0.6208 0.1006
C12 C 0.4564(4) 0.4986(6) 0.1569(2)
C13 C 0.3738(4) 0.4204(5) 0.1750(2)
C14 C 0.2873(4) 0.3826(6) 0.1459(2)
H10 H 0.2822 0.4115 0.1129
C15 C 0.2107(5) 0.3043(8) 0.1650(3)
H11 H 0.1544 0.2810 0.1451
C16 C 0.2169(6) 0.2593(7) 0.2141(3)
H12 H 0.1650 0.2050 0.2265
C17 C 0.2953(6) 0.2928(8) 0.2435(3)
H13 H 0.2970 0.2627 0.2763
C18 C 0.3774(5) 0.3745(6) 0.2255(2)
C19 C 0.4632(6) 0.4108(8) 0.2558(2)
H14 H 0.4671 0.3812 0.2886
C20 C 0.5384(6) 0.4870(8) 0.2376(3)
H15 H 0.5934 0.5108 0.2582
C21 C 0.5360(4) 0.5317(6) 0.1881(2)
H16 H 0.5893 0.5847 0.1763
loop_
_geom_bond_atom_site_label_1
_geom_bond_atom_site_label_2
_geom_bond_site_symmetry_1
_geom_bond_site_symmetry_2
S1 C8 1_555 1_555
N1 N2 1_555 1_555
N2 C9 1_555 1_555
N3 N4 1_555 1_555
N4 C10 1_555 1_555
C1 C2 1_555 1_555
C2 H1 1_555 1_555
C3 C2 1_555 1_555
H2 C3 1_555 1_555
C4 C3 1_555 1_555
H3 C4 1_555 1_555
C5 C4 1_555 1_555
H4 C5 1_555 1_555
C6 C1 1_555 1_555
H5 C6 1_555 1_555
C7 N1 1_555 1_555
C8 C7 1_555 1_555
H6 C8 1_555 1_555
H7 C8 1_555 1_555
C9 S1 1_555 1_555
C10 N2 1_555 1_555
C11 C10 1_555 1_555
H8 C11 1_555 1_555
H9 C11 1_555 1_555
C12 C11 1_555 1_555
C13 C12 1_555 1_555
C14 C13 1_555 1_555
H10 C14 1_555 1_555
C15 C14 1_555 1_555
H11 C15 1_555 1_555
C16 C15 1_555 1_555
H12 C16 1_555 1_555
C17 C16 1_555 1_555
H13 C17 1_555 1_555
C18 C13 1_555 1_555
C19 C18 1_555 1_555
H14 C19 1_555 1_555
C20 C19 1_555 1_555
H15 C20 1_555 1_555
C21 C12 1_555 1_555
H16 C21 1_555 1_555
N3 C9 1_555 1_555
C1 C7 1_555 1_555
C5 C6 1_555 1_555
C17 C18 1_555 1_555
C20 C21 1_555 1_555

#END
