
#######################################################################
#
#                 Cambridge Crystallographic Data Centre
#                                CCDC 
#
#######################################################################
#
# If this CIF has been generated from an entry in the Cambridge 
# Structural Database, then it will include bibliographic, chemical, 
# crystal, experimental, refinement or atomic coordinate data resulting 
# from the CCDC's data processing and validation procedures.
#
#######################################################################

data_SEWRUI
_chemical_formula_moiety         'C83 H43 N1 O10,2(C2 H6 O1)'
_chemical_name_systematic        
"2-(Benzoylamino)-6,12,15,18-tetrakis(t-butylperoxy)-2,5,6,12,15,18-hexahydrooxireno[2',3':1,9]C60fullerene ethanol solvate"
_symmetry_cell_setting           triclinic
_symmetry_space_group_name_H-M   'P -1'
_symmetry_Int_Tables_number      2
_space_group_name_Hall           '-P 1'
loop_
_symmetry_equiv_pos_site_id
_symmetry_equiv_pos_as_xyz
1 x,y,z
2 -x,-y,-z
_cell_length_a                   9.961(2)
_cell_length_b                   13.569(3)
_cell_length_c                   24.135(5)
_cell_angle_alpha                91.30(3)
_cell_angle_beta                 91.51(3)
_cell_angle_gamma                109.84(3)
_cell_volume                     3065.68
_exptl_crystal_colour            red
_exptl_crystal_description       Block
_cell_formula_units_Z            2
_exptl_crystal_recrystallization_method 'carbon disulfide/ethanol'
loop_
_atom_site_label
_atom_site_type_symbol
_atom_site_fract_x
_atom_site_fract_y
_atom_site_fract_z
O1 O 0.6039(3) 0.3485(2) 0.25201(12)
O2 O 0.4501(5) 0.3803(4) 0.37667(15)
O3 O 0.5555(3) 0.6321(2) 0.23173(14)
O4 O 0.7026(3) 0.6269(2) 0.23149(17)
O5 O 0.0437(4) 0.2126(3) 0.34649(12)
O6 O 0.1296(5) 0.1562(4) 0.3691(2)
O8 O 0.3471(3) 0.0819(2) 0.28896(12)
O9 O 0.2999(3) -0.0270(2) 0.26660(13)
O10 O 0.1850(4) 0.5214(3) 0.3199(2)
O11 O 0.0975(5) 0.5827(3) 0.32055(18)
N1 N 0.5019(4) 0.5068(4) 0.31320(19)
H1 H 0.561(6) 0.584(4) 0.305(2)
C1 C -0.0719(5) 0.1562(4) 0.03023(19)
C2 C 0.0664(5) 0.1863(4) 0.00349(18)
C3 C 0.1673(5) 0.1408(4) 0.02001(18)
C4 C 0.1341(5) 0.0633(4) 0.06313(19)
C5 C 0.0022(4) 0.0346(3) 0.08810(19)
C6 C -0.1023(5) 0.0827(4) 0.07129(19)
C7 C -0.1727(4) 0.0983(3) 0.12034(19)
C8 C -0.2130(4) 0.1872(4) 0.1265(2)
C9 C -0.1812(5) 0.2634(4) 0.0837(2)
C10 C -0.1111(5) 0.2488(4) 0.0365(2)
C11 C 0.0015(5) 0.3356(5) 0.0144(2)
C12 C 0.1121(5) 0.2974(4) -0.00574(19)
C13 C 0.2572(5) 0.3596(4) 0.00126(18)
C14 C 0.3600(5) 0.3114(4) 0.01787(18)
C15 C 0.3174(5) 0.2052(4) 0.02740(17)
C16 C 0.3763(5) 0.1673(3) 0.07511(18)
C17 C 0.2640(5) 0.0800(3) 0.09688(18)
C18 C 0.2574(4) 0.0691(3) 0.15409(18)
C19 C 0.1198(4) 0.0402(3) 0.17980(18)
C20 C -0.0045(4) 0.0225(3) 0.14721(19)
C21 C -0.1141(4) 0.0619(3) 0.16721(19)
C22 C -0.0909(4) 0.1156(3) 0.21802(18)
C23 C -0.1311(4) 0.2091(3) 0.22515(18)
C24 C -0.1919(4) 0.2430(3) 0.17988(19)
C25 C -0.1466(4) 0.3539(3) 0.1705(2)
C26 C -0.1394(5) 0.3667(4) 0.1108(2)
C27 C -0.0313(5) 0.4509(4) 0.0896(2)
C28 C 0.0410(5) 0.4347(4) 0.0406(2)
C29 C 0.1922(5) 0.5004(4) 0.0479(2)
C30 C 0.2959(5) 0.4609(4) 0.02851(19)
C31 C 0.4247(5) 0.4772(3) 0.0622(2)
C32 C 0.4647(4) 0.3842(3) 0.05592(18)
C33 C 0.5176(4) 0.3484(3) 0.10230(17)
C34 C 0.4739(4) 0.2371(3) 0.11199(17)
C35 C 0.4670(4) 0.2218(3) 0.17031(17)
C36 C 0.3626(4) 0.1393(3) 0.19137(17)
C37 C 0.2999(4) 0.1416(3) 0.24833(17)
C38 C 0.1404(4) 0.0936(3) 0.23333(17)
C39 C 0.0359(5) 0.1308(3) 0.25171(18)
C40 C 0.0684(5) 0.2297(3) 0.28850(17)
C41 C -0.0320(4) 0.2809(3) 0.26279(17)
C42 C 0.0114(5) 0.3866(3) 0.25429(18)
C43 C -0.0453(5) 0.4226(3) 0.2061(2)
C44 C 0.0682(5) 0.5089(3) 0.1841(2)
C45 C 0.0733(5) 0.5235(4) 0.1273(2)
C46 C 0.2110(5) 0.5531(3) 0.1014(2)
C47 C 0.3330(5) 0.5661(3) 0.1340(2)
C48 C 0.4439(5) 0.5283(3) 0.1147(2)
C49 C 0.5051(4) 0.4927(3) 0.16055(19)
C50 C 0.5419(4) 0.4046(3) 0.15498(17)
C51 C 0.5228(4) 0.3280(3) 0.19965(16)
C52 C 0.4574(4) 0.3444(3) 0.25205(17)
C53 C 0.3429(4) 0.2526(3) 0.27829(17)
H2 H 0.383(3) 0.243(2) 0.3248(13)
C54 C 0.2225(4) 0.2967(3) 0.28125(16)
C55 C 0.2640(4) 0.3986(3) 0.27270(17)
C56 C 0.1635(5) 0.4616(3) 0.26914(18)
C57 C 0.1958(5) 0.5271(3) 0.2177(2)
C58 C 0.3255(5) 0.5536(3) 0.1936(2)
C59 C 0.4581(4) 0.5292(3) 0.21420(19)
C60 C 0.4238(4) 0.4474(3) 0.26309(18)
C61 C 0.5028(6) 0.4716(6) 0.3657(2)
C62 C 0.5726(7) 0.5564(7) 0.4082(3)
C63 C 0.6317(8) 0.5272(7) 0.4560(3)
H3 H 0.6275 0.4580 0.4588
C64 C 0.6965(10) 0.5990(13) 0.4995(4)
H4 H 0.7432 0.5830 0.5300
C65 C 0.6825(15) 0.7062(15) 0.4914(7)
H5 H 0.7160 0.7562 0.5201
C66 C 0.6241(14) 0.7344(15) 0.4448(7)
H6 H 0.6217 0.8019 0.4413
C67 C 0.5680(8) 0.6569(7) 0.4023(4)
H7 H 0.5277 0.6732 0.3702
C68 C 0.7937(5) 0.7299(4) 0.2129(3)
C69 C 0.9389(7) 0.7154(5) 0.2143(5)
H8 H 0.9495 0.6804 0.2474
H9 H 1.0130 0.7827 0.2140
H10 H 0.9456 0.6739 0.1824
C70 C 0.7919(6) 0.8128(4) 0.2526(3)
H11 H 0.6981 0.8179 0.2524
H12 H 0.8597 0.8784 0.2423
H13 H 0.8167 0.7963 0.2891
C71 C 0.7454(9) 0.7500(6) 0.1539(3)
H14 H 0.7473 0.6947 0.1288
H15 H 0.8090 0.8158 0.1417
H16 H 0.6501 0.7522 0.1547
C72 C 0.0614(10) 0.0533(6) 0.3967(3)
C73 C -0.0329(16) 0.0890(11) 0.4437(8)
H20 H -0.1063 0.1132 0.4267
H21 H 0.0334 0.1565 0.4643
H22 H -0.0701 0.0411 0.4703
C75 C -0.0422(13) -0.0216(7) 0.3583(4)
H26 H -0.1111 0.0060 0.3428
H27 H -0.0891 -0.0866 0.3752
H28 H 0.0098 -0.0376 0.3263
C77 C 0.1697(13) 0.0282(8) 0.4212(4)
H32 H 0.2080 0.0768 0.4514
H33 H 0.2385 0.0325 0.3944
H34 H 0.1297 -0.0414 0.4341
C79 C 0.4127(5) -0.0691(4) 0.2795(3)
C80 C 0.4325(7) -0.0681(5) 0.3428(3)
H35 H 0.4685 0.0031 0.3570
H36 H 0.4990 -0.1028 0.3523
H37 H 0.3423 -0.1040 0.3587
C81 C 0.3492(6) -0.1803(4) 0.2562(3)
H38 H 0.2638 -0.2164 0.2752
H39 H 0.4169 -0.2158 0.2613
H40 H 0.3265 -0.1791 0.2174
C82 C 0.5474(6) -0.0067(4) 0.2499(3)
H41 H 0.5268 -0.0098 0.2107
H42 H 0.6210 -0.0361 0.2573
H43 H 0.5792 0.0650 0.2633
C83 C 0.0419(16) 0.5871(9) 0.3753(6)
C85 C -0.0472(10) 0.6574(6) 0.3647(4)
H44 H -0.1211 0.6262 0.3356
H45 H 0.0114 0.7247 0.3533
H46 H -0.0952 0.6651 0.3979
C87 C 0.1504(10) 0.6361(6) 0.4137(3)
H50 H 0.2119 0.5925 0.4214
H51 H 0.1182 0.6498 0.4501
H52 H 0.2177 0.7033 0.4022
C88 C -0.056(2) 0.4774(8) 0.3880(6)
H56 H -0.1304 0.4474 0.3605
H57 H -0.0990 0.4774 0.4238
H58 H 0.0009 0.4309 0.3910
O14 O 0.6130(6) 0.2278(5) 0.4214(2)
C90 C 0.6097(8) 0.1701(8) 0.4756(3)
C91 C 0.5884(8) 0.0784(8) 0.5050(2)
C92 C 0.3625(10) 0.8247(4) 0.0870(3)
C94 C 0.5186(9) 0.8480(5) 0.1009(3)
O15 O 0.1927(3) 0.80312(16) 0.10587(10)
O7? O -0.0701(8) 0.1342(6) 0.3530(3)
O12? O 0.1417(14) 0.4875(10) 0.3552(5)
H17? H 0.1435 0.1151 0.3952
H18? H 0.0490 0.0130 0.3624
H19? H 0.0691 0.0124 0.438(6)
C74? C -0.017(2) 0.1541(15) 0.4517(7)
H23? H -0.0979 0.1809 0.4589
H24? H 0.0663 0.2210 0.4484
H25? H 0.0011 0.1268 0.4873
C76? C -0.1853(14) -0.0100(10) 0.4036(5)
H29? H -0.2635 0.0202 0.4088
H30? H -0.1881 -0.0526 0.4354
H31? H -0.2081 -0.0520 0.3708
C78? C -0.0427(17) 0.0767(11) 0.3997(5)
C84? C 0.053(4) 0.531(4) 0.3888(11)
C86? C -0.090(6) 0.505(5) 0.3589(14)
H47? H -0.0808 0.5443 0.3239
H48? H -0.1602 0.5210 0.3799
H49? H -0.1346 0.4299 0.3456
H53? H 0.1771 0.6923 0.3893
H54? H 0.2445 0.6276 0.4271
H55? H 0.1144 0.6572 0.4474
C89? C 0.048(3) 0.467(2) 0.4419(9)
H59? H -0.0270 0.3865 0.4300
H60? H -0.0016 0.4829 0.4709
H61? H 0.1285 0.4534 0.4507
O13? O 0.6642(5) 0.2302(3) 0.3655(3)
C93? C 0.4773(6) 0.9066(5) 0.0564(2)
O16? O 0.5000 1.0000 0.0000
loop_
_geom_bond_atom_site_label_1
_geom_bond_atom_site_label_2
_geom_bond_site_symmetry_1
_geom_bond_site_symmetry_2
O1 C51 1_555 1_555
O2 C61 1_555 1_555
O3 O4 1_555 1_555
O4 C68 1_555 1_555
O5 O6 1_555 1_555
O6 C72 1_555 1_555
O8 O9 1_555 1_555
O9 C79 1_555 1_555
O10 O11 1_555 1_555
O11 C83 1_555 1_555
N1 H1 1_555 1_555
C1 C2 1_555 1_555
C2 C3 1_555 1_555
C3 C4 1_555 1_555
C4 C5 1_555 1_555
C5 C6 1_555 1_555
C6 C1 1_555 1_555
C7 C6 1_555 1_555
C8 C7 1_555 1_555
C9 C8 1_555 1_555
C10 C1 1_555 1_555
C11 C10 1_555 1_555
C12 C2 1_555 1_555
C13 C12 1_555 1_555
C14 C13 1_555 1_555
C15 C3 1_555 1_555
C16 C15 1_555 1_555
C17 C4 1_555 1_555
C18 C17 1_555 1_555
C19 C18 1_555 1_555
C20 C5 1_555 1_555
C21 C7 1_555 1_555
C22 C21 1_555 1_555
C23 C22 1_555 1_555
C24 C8 1_555 1_555
C25 C24 1_555 1_555
C26 C9 1_555 1_555
C27 C26 1_555 1_555
C28 C11 1_555 1_555
C29 C28 1_555 1_555
C30 C13 1_555 1_555
C31 C30 1_555 1_555
C32 C14 1_555 1_555
C33 C32 1_555 1_555
C34 C16 1_555 1_555
C35 C34 1_555 1_555
C36 C18 1_555 1_555
C37 O8 1_555 1_555
C38 C19 1_555 1_555
C39 C22 1_555 1_555
C40 O5 1_555 1_555
C41 C23 1_555 1_555
C42 C41 1_555 1_555
C43 C25 1_555 1_555
C44 C43 1_555 1_555
C45 C27 1_555 1_555
C46 C29 1_555 1_555
C47 C46 1_555 1_555
C48 C31 1_555 1_555
C49 C48 1_555 1_555
C50 C33 1_555 1_555
C51 C35 1_555 1_555
C52 O1 1_555 1_555
C53 C37 1_555 1_555
H2 C53 1_555 1_555
C54 C40 1_555 1_555
C55 C54 1_555 1_555
C56 O10 1_555 1_555
C57 C44 1_555 1_555
C58 C47 1_555 1_555
C59 O3 1_555 1_555
C60 N1 1_555 1_555
C61 N1 1_555 1_555
C62 C61 1_555 1_555
C63 C62 1_555 1_555
H3 C63 1_555 1_555
C64 C63 1_555 1_555
H4 C64 1_555 1_555
C65 C64 1_555 1_555
H5 C65 1_555 1_555
C66 C65 1_555 1_555
H6 C66 1_555 1_555
C67 C62 1_555 1_555
H7 C67 1_555 1_555
C68 C69 1_555 1_555
C69 H8 1_555 1_555
H9 C69 1_555 1_555
H10 C69 1_555 1_555
C70 C68 1_555 1_555
H11 C70 1_555 1_555
H12 C70 1_555 1_555
H13 C70 1_555 1_555
C71 C68 1_555 1_555
H14 C71 1_555 1_555
H15 C71 1_555 1_555
H16 C71 1_555 1_555
C72 C73 1_555 1_555
C73 H20 1_555 1_555
H21 C73 1_555 1_555
H22 C73 1_555 1_555
C75 C72 1_555 1_555
H26 C75 1_555 1_555
H27 C75 1_555 1_555
H28 C75 1_555 1_555
C77 C72 1_555 1_555
H32 C77 1_555 1_555
H33 C77 1_555 1_555
H34 C77 1_555 1_555
C79 C80 1_555 1_555
C80 H35 1_555 1_555
H36 C80 1_555 1_555
H37 C80 1_555 1_555
C81 C79 1_555 1_555
H38 C81 1_555 1_555
H39 C81 1_555 1_555
H40 C81 1_555 1_555
C82 C79 1_555 1_555
H41 C82 1_555 1_555
H42 C82 1_555 1_555
H43 C82 1_555 1_555
C83 C85 1_555 1_555
C85 H44 1_555 1_555
H45 C85 1_555 1_555
H46 C85 1_555 1_555
C87 C83 1_555 1_555
H50 C87 1_555 1_555
H51 C87 1_555 1_555
H52 C87 1_555 1_555
C88 C83 1_555 1_555
H56 C88 1_555 1_555
H57 C88 1_555 1_555
H58 C88 1_555 1_555
O14 C90 1_555 1_555
C90 C91 1_555 1_555
C92 C94 1_555 1_555
O15 C92 1_555 1_555
C9 C10 1_555 1_555
C11 C12 1_555 1_555
C14 C15 1_555 1_555
C16 C17 1_555 1_555
C19 C20 1_555 1_555
C20 C21 1_555 1_555
C23 C24 1_555 1_555
C25 C26 1_555 1_555
C27 C28 1_555 1_555
C29 C30 1_555 1_555
C31 C32 1_555 1_555
C33 C34 1_555 1_555
C35 C36 1_555 1_555
C36 C37 1_555 1_555
C37 C38 1_555 1_555
C38 C39 1_555 1_555
C39 C40 1_555 1_555
C40 C41 1_555 1_555
C42 C43 1_555 1_555
C42 C56 1_555 1_555
C44 C45 1_555 1_555
C45 C46 1_555 1_555
C47 C48 1_555 1_555
C49 C50 1_555 1_555
C49 C59 1_555 1_555
C50 C51 1_555 1_555
C51 C52 1_555 1_555
C52 C53 1_555 1_555
C52 C60 1_555 1_555
C53 C54 1_555 1_555
C55 C56 1_555 1_555
C55 C60 1_555 1_555
C56 C57 1_555 1_555
C57 C58 1_555 1_555
C58 C59 1_555 1_555
C59 C60 1_555 1_555
C66 C67 1_555 1_555

#END
