
#######################################################################
#
#                 Cambridge Crystallographic Data Centre
#                                CCDC 
#
#######################################################################
#
# If this CIF has been generated from an entry in the Cambridge 
# Structural Database, then it will include bibliographic, chemical, 
# crystal, experimental, refinement or atomic coordinate data resulting 
# from the CCDC's data processing and validation procedures.
#
#######################################################################

data_SEWSET
_chemical_formula_moiety         'C76 H34 N2 O7,3(C1 H1 Cl3)'
_chemical_name_systematic        
"6,18-bis(t-Butylperoxy)-12,15-bis(pyrrolidinyl)-6,12,15,18-tetrahydrooxireno[2',3':1,9]-2a,14a-dioxa-2(12)a,14(15)a-dihomoC60[5,6]fullerene chloroform solvate"
_symmetry_cell_setting           triclinic
_symmetry_space_group_name_H-M   'P -1'
_symmetry_Int_Tables_number      2
_space_group_name_Hall           '-P 1'
loop_
_symmetry_equiv_pos_site_id
_symmetry_equiv_pos_as_xyz
1 x,y,z
2 -x,-y,-z
_cell_length_a                   9.7211(19)
_cell_length_b                   13.513(3)
_cell_length_c                   23.003(5)
_cell_angle_alpha                88.89(3)
_cell_angle_beta                 87.79(3)
_cell_angle_gamma                79.64(3)
_cell_volume                     2969.99
_exptl_crystal_colour            red
_exptl_crystal_description       block
_cell_formula_units_Z            2
_exptl_crystal_recrystallization_method deuterochloroform
loop_
_atom_site_label
_atom_site_type_symbol
_atom_site_fract_x
_atom_site_fract_y
_atom_site_fract_z
Cl1 Cl 0.34390(9) 0.20330(7) 0.42747(4)
Cl2 Cl 0.61435(8) 0.08776(6) 0.39141(4)
Cl3 Cl 0.42880(9) 0.19000(7) 0.30541(4)
C79 C 0.4850(3) 0.1940(2) 0.37695(15)
H39 H 0.5272 0.2541 0.3803
Cl4 Cl 0.26718(12) 0.12355(9) 0.18517(5)
Cl5 Cl 0.04012(13) 0.24390(9) 0.12481(6)
Cl6 Cl 0.2350(2) 0.09547(12) 0.06325(6)
C80 C 0.1479(5) 0.1242(3) 0.12991(17)
H40 H 0.0891 0.0739 0.1393
Cl7 Cl 0.66363(11) 0.66443(9) 0.11677(5)
Cl8 Cl 0.90886(12) 0.51036(9) 0.12306(6)
Cl9 Cl 0.85695(14) 0.63300(15) 0.01887(5)
C81 C 0.8380(4) 0.6306(3) 0.09535(17)
H41 H 0.8896 0.6796 0.1109
O1 O 0.02338(19) -0.52225(14) 0.26845(8)
O2 O 0.3215(2) -0.57186(14) 0.26880(8)
O3 O -0.18481(19) -0.33605(15) 0.24470(8)
O4 O 0.3531(2) -0.27222(16) 0.13776(8)
O5 O 0.2383(2) -0.20651(18) 0.10724(9)
O6 O -0.0681(2) -0.12227(15) 0.16920(9)
O7 O -0.1167(2) -0.01349(16) 0.17387(10)
N1 N -0.0368(2) -0.62701(17) 0.34335(11)
N2 N 0.3944(2) -0.51807(18) 0.17619(11)
C1 C 0.4141(3) -0.2056(2) 0.46522(12)
C2 C 0.3213(3) -0.1099(2) 0.45600(13)
C3 C 0.3264(3) -0.0589(2) 0.40322(13)
C4 C 0.4246(3) -0.1003(2) 0.35688(13)
C5 C 0.5112(3) -0.1925(2) 0.36576(13)
C6 C 0.5058(3) -0.2458(2) 0.42041(13)
C7 C 0.5236(3) -0.3532(2) 0.40790(12)
C8 C 0.4534(3) -0.4143(2) 0.44182(12)
C9 C 0.3590(3) -0.3730(2) 0.48895(12)
C10 C 0.3382(3) -0.2703(2) 0.50030(12)
C11 C 0.1980(3) -0.2151(2) 0.51188(12)
C12 C 0.1872(3) -0.1166(2) 0.48427(12)
C13 C 0.0647(3) -0.0726(2) 0.45749(12)
C14 C 0.0700(3) -0.0191(2) 0.40270(13)
C15 C 0.1984(3) -0.0111(2) 0.37607(13)
C16 C 0.2178(3) -0.0226(2) 0.31361(13)
C17 C 0.3581(3) -0.0768(2) 0.30206(13)
C18 C 0.3798(3) -0.1469(2) 0.25776(12)
C19 C 0.4681(3) -0.2440(2) 0.26712(12)
C20 C 0.5313(3) -0.2668(2) 0.31985(12)
C21 C 0.5348(3) -0.3649(2) 0.34532(12)
C22 C 0.4748(3) -0.4388(2) 0.31728(12)
C23 C 0.4069(3) -0.5070(2) 0.35401(12)
C24 C 0.3949(3) -0.4921(2) 0.41431(12)
C25 C 0.2663(3) -0.5011(2) 0.44601(12)
C26 C 0.2421(3) -0.4254(2) 0.49096(11)
C27 C 0.1074(3) -0.3721(2) 0.50123(12)
C28 C 0.0844(3) -0.2651(2) 0.51217(12)
C29 C -0.0434(3) -0.2189(2) 0.48361(12)
C30 C -0.0522(3) -0.1255(2) 0.45712(12)
C31 C -0.1173(3) -0.1060(2) 0.40130(12)
C32 C -0.0434(3) -0.0389(2) 0.36771(13)
C33 C -0.0243(3) -0.0520(2) 0.30807(12)
C34 C 0.1094(3) -0.0416(2) 0.27989(13)
C35 C 0.1355(3) -0.1093(2) 0.23184(12)
C36 C 0.2689(3) -0.1614(2) 0.22084(12)
C37 C 0.3019(3) -0.2683(2) 0.19652(12)
C38 C 0.4176(3) -0.3202(2) 0.23644(12)
C39 C 0.4233(3) -0.4161(2) 0.25956(12)
C40 C 0.3347(3) -0.4842(2) 0.23144(12)
C41 C 0.2994(3) -0.55017(19) 0.32684(12)
C42 C 0.1749(3) -0.55389(19) 0.35550(12)
C43 C 0.1567(3) -0.5232(2) 0.41508(12)
C44 C 0.0170(3) -0.4652(2) 0.42451(12)
C45 C -0.0063(3) -0.3917(2) 0.46662(12)
C46 C -0.0960(3) -0.2986(2) 0.45472(12)
C47 C -0.1489(3) -0.2828(2) 0.39921(12)
C48 C -0.1617(3) -0.1842(2) 0.37253(12)
C49 C -0.1446(3) -0.1940(2) 0.31089(12)
C50 C -0.0797(3) -0.1279(2) 0.27878(12)
C51 C 0.0042(3) -0.1547(2) 0.22136(12)
C52 C 0.0424(3) -0.2668(2) 0.21679(11)
C53 C 0.1751(3) -0.3167(2) 0.20788(11)
C54 C 0.1899(3) -0.4224(2) 0.22644(12)
C55 C 0.0643(3) -0.4373(2) 0.24806(12)
C56 C 0.0261(3) -0.5415(2) 0.33134(12)
C57 C -0.0488(3) -0.4525(2) 0.36895(12)
C58 C -0.1242(3) -0.3594(2) 0.35512(12)
C59 C -0.1315(3) -0.3041(2) 0.29690(12)
C60 C -0.0364(3) -0.3397(2) 0.24561(12)
C61 C 0.0364(3) -0.7234(2) 0.31713(15)
H1 H 0.0867 -0.7115 0.2808
H2 H 0.1039 -0.7609 0.3436
C62 C -0.0779(13) -0.7805(9) 0.3075(7)
H3 H -0.1044 -0.8121 0.3421
H4 H -0.0499 -0.8296 0.2769
C64 C -0.1952(9) -0.6995(7) 0.2881(7)
H7 H -0.2847 -0.7222 0.2899
H8 H -0.1794 -0.6776 0.2471
C66 C -0.1888(3) -0.6140(2) 0.33096(16)
H11 H -0.2234 -0.5476 0.3139
H12 H -0.2456 -0.6214 0.3662
C67 C 0.5400(3) -0.5729(3) 0.17635(14)
H13 H 0.5499 -0.6298 0.2032
H14 H 0.6043 -0.5291 0.1862
C68 C 0.5627(4) -0.6068(3) 0.11361(15)
H15 H 0.6355 -0.6660 0.1102
H16 H 0.5881 -0.5538 0.0887
C69 C 0.4202(4) -0.6310(3) 0.09776(17)
H17 H 0.3959 -0.6054 0.0591
H18 H 0.4229 -0.7031 0.0986
C70 C 0.3141(3) -0.5800(2) 0.14285(14)
H19 H 0.2357 -0.5381 0.1244
H20 H 0.2793 -0.6292 0.1679
C71 C 0.2491(4) -0.2345(3) 0.04667(13)
C72 C 0.3799(4) -0.2057(3) 0.01872(15)
H21 H 0.3778 -0.1350 0.0236
H22 H 0.3843 -0.2205 -0.0220
H23 H 0.4608 -0.2432 0.0368
C73 C 0.1161(4) -0.1692(3) 0.02405(17)
H24 H 0.1210 -0.0994 0.0286
H25 H 0.0360 -0.1845 0.0457
H26 H 0.1079 -0.1826 -0.0164
C74 C 0.2471(5) -0.3461(3) 0.04069(19)
H27 H 0.1624 -0.3613 0.0586
H28 H 0.3262 -0.3845 0.0595
H29 H 0.2514 -0.3628 0.0002
C75 C -0.2615(3) 0.0065(3) 0.15498(16)
C76 C -0.2952(4) 0.1222(3) 0.16054(19)
H30 H -0.2925 0.1399 0.2006
H31 H -0.3868 0.1470 0.1464
H32 H -0.2272 0.1515 0.1380
C77 C -0.3546(4) -0.0410(3) 0.19627(18)
H33 H -0.3467 -0.0177 0.2350
H34 H -0.3267 -0.1129 0.1955
H35 H -0.4498 -0.0229 0.1848
C78 C -0.2653(4) -0.0228(3) 0.09285(16)
H36 H -0.2037 0.0111 0.0695
H37 H -0.3590 -0.0041 0.0796
H38 H -0.2356 -0.0942 0.0895
C63? C -0.0785(16) -0.7586(13) 0.2817(9)
H5? H -0.0629 -0.8317 0.2778
H6? H -0.0797 -0.7297 0.2414
C65? C -0.2135(10) -0.7149(7) 0.3200(8)
H9? H -0.2995 -0.7125 0.2976
H10? H -0.2214 -0.7536 0.3547
loop_
_geom_bond_atom_site_label_1
_geom_bond_atom_site_label_2
_geom_bond_site_symmetry_1
_geom_bond_site_symmetry_2
Cl1 C79 1_555 1_555
Cl2 C79 1_555 1_555
Cl3 C79 1_555 1_555
Cl4 C80 1_555 1_555
Cl5 C80 1_555 1_555
Cl6 C80 1_555 1_555
Cl7 C81 1_555 1_555
Cl8 C81 1_555 1_555
Cl9 C81 1_555 1_555
O1 C55 1_555 1_555
O2 C40 1_555 1_555
O3 C59 1_555 1_555
O4 O5 1_555 1_555
O5 C71 1_555 1_555
O6 O7 1_555 1_555
O7 C75 1_555 1_555
N1 C56 1_555 1_555
N2 C40 1_555 1_555
C1 C2 1_555 1_555
C2 C3 1_555 1_555
C3 C4 1_555 1_555
C4 C5 1_555 1_555
C5 C6 1_555 1_555
C6 C1 1_555 1_555
C7 C6 1_555 1_555
C8 C7 1_555 1_555
C9 C8 1_555 1_555
C10 C1 1_555 1_555
C11 C10 1_555 1_555
C12 C2 1_555 1_555
C13 C12 1_555 1_555
C14 C13 1_555 1_555
C15 C3 1_555 1_555
C16 C15 1_555 1_555
C17 C4 1_555 1_555
C18 C17 1_555 1_555
C19 C18 1_555 1_555
C20 C5 1_555 1_555
C21 C7 1_555 1_555
C22 C21 1_555 1_555
C23 C22 1_555 1_555
C24 C8 1_555 1_555
C25 C24 1_555 1_555
C26 C9 1_555 1_555
C27 C26 1_555 1_555
C28 C11 1_555 1_555
C29 C28 1_555 1_555
C30 C13 1_555 1_555
C31 C30 1_555 1_555
C32 C14 1_555 1_555
C33 C32 1_555 1_555
C34 C16 1_555 1_555
C35 C34 1_555 1_555
C36 C18 1_555 1_555
C37 O4 1_555 1_555
C38 C19 1_555 1_555
C39 C22 1_555 1_555
C40 C39 1_555 1_555
C41 O2 1_555 1_555
C42 C41 1_555 1_555
C43 C25 1_555 1_555
C44 C43 1_555 1_555
C45 C27 1_555 1_555
C46 C29 1_555 1_555
C47 C46 1_555 1_555
C48 C31 1_555 1_555
C49 C48 1_555 1_555
C50 C33 1_555 1_555
C51 O6 1_555 1_555
C52 C51 1_555 1_555
C53 C37 1_555 1_555
C54 C40 1_555 1_555
C55 C54 1_555 1_555
C56 O1 1_555 1_555
C57 C44 1_555 1_555
C58 C47 1_555 1_555
C59 C49 1_555 1_555
C60 O3 1_555 1_555
C61 N1 1_555 1_555
H1 C61 1_555 1_555
H2 C61 1_555 1_555
C62 C61 1_555 1_555
H3 C62 1_555 1_555
H4 C62 1_555 1_555
C64 C62 1_555 1_555
H7 C64 1_555 1_555
H8 C64 1_555 1_555
C66 N1 1_555 1_555
H11 C66 1_555 1_555
H12 C66 1_555 1_555
C67 N2 1_555 1_555
H13 C67 1_555 1_555
H14 C67 1_555 1_555
C68 C67 1_555 1_555
H15 C68 1_555 1_555
H16 C68 1_555 1_555
C69 C68 1_555 1_555
H17 C69 1_555 1_555
H18 C69 1_555 1_555
C70 N2 1_555 1_555
H19 C70 1_555 1_555
H20 C70 1_555 1_555
C71 C72 1_555 1_555
C72 H21 1_555 1_555
H22 C72 1_555 1_555
H23 C72 1_555 1_555
C73 C71 1_555 1_555
H24 C73 1_555 1_555
H25 C73 1_555 1_555
H26 C73 1_555 1_555
C74 C71 1_555 1_555
H27 C74 1_555 1_555
H28 C74 1_555 1_555
H29 C74 1_555 1_555
C75 C76 1_555 1_555
C76 H30 1_555 1_555
H31 C76 1_555 1_555
H32 C76 1_555 1_555
C77 C75 1_555 1_555
H33 C77 1_555 1_555
H34 C77 1_555 1_555
H35 C77 1_555 1_555
C78 C75 1_555 1_555
H36 C78 1_555 1_555
H37 C78 1_555 1_555
H38 C78 1_555 1_555
C79 H39 1_555 1_555
C80 H40 1_555 1_555
C81 H41 1_555 1_555
C9 C10 1_555 1_555
C11 C12 1_555 1_555
C14 C15 1_555 1_555
C16 C17 1_555 1_555
C19 C20 1_555 1_555
C20 C21 1_555 1_555
C23 C24 1_555 1_555
C23 C41 1_555 1_555
C25 C26 1_555 1_555
C27 C28 1_555 1_555
C29 C30 1_555 1_555
C31 C32 1_555 1_555
C33 C34 1_555 1_555
C35 C36 1_555 1_555
C35 C51 1_555 1_555
C36 C37 1_555 1_555
C37 C38 1_555 1_555
C38 C39 1_555 1_555
C42 C43 1_555 1_555
C42 C56 1_555 1_555
C44 C45 1_555 1_555
C45 C46 1_555 1_555
C47 C48 1_555 1_555
C49 C50 1_555 1_555
C50 C51 1_555 1_555
C52 C53 1_555 1_555
C52 C60 1_555 1_555
C53 C54 1_555 1_555
C55 C60 1_555 1_555
C56 C57 1_555 1_555
C57 C58 1_555 1_555
C58 C59 1_555 1_555
C59 C60 1_555 1_555
C64 C66 1_555 1_555
C69 C70 1_555 1_555

#END
