
#######################################################################
#
#                 Cambridge Crystallographic Data Centre
#                                CCDC 
#
#######################################################################
#
# If this CIF has been generated from an entry in the Cambridge 
# Structural Database, then it will include bibliographic, chemical, 
# crystal, experimental, refinement or atomic coordinate data resulting 
# from the CCDC's data processing and validation procedures.
#
#######################################################################

data_SEWSOE
_chemical_formula_moiety         'C42 H34 N4 O4 S2'
_chemical_name_systematic        
2,2'-Disulfanediylbis(6-(2-hydroxy-4-isopropoxyphenyl)-5-phenylnicotinonitrile)
_symmetry_cell_setting           triclinic
_symmetry_space_group_name_H-M   'P -1'
_symmetry_Int_Tables_number      2
_space_group_name_Hall           '-P 1'
loop_
_symmetry_equiv_pos_site_id
_symmetry_equiv_pos_as_xyz
1 x,y,z
2 -x,-y,-z
_cell_length_a                   11.5891(16)
_cell_length_b                   13.0949(18)
_cell_length_c                   14.337(3)
_cell_angle_alpha                103.536(3)
_cell_angle_beta                 98.487(3)
_cell_angle_gamma                113.896(2)
_cell_volume                     1860.7
_exptl_crystal_colour            yellow
_exptl_crystal_description       prism
_cell_formula_units_Z            2
loop_
_atom_site_label
_atom_site_type_symbol
_atom_site_fract_x
_atom_site_fract_y
_atom_site_fract_z
S1 S -0.10034(6) 0.78604(6) 0.44317(5)
S2 S 0.08402(7) 0.85375(6) 0.42868(5)
N1 N -0.4397(2) 0.6022(3) 0.4141(2)
N2 N 0.0012(2) 0.68902(18) 0.55802(15)
N3 N 0.3959(3) 1.0231(3) 0.3893(2)
N4 N 0.1265(2) 0.99462(18) 0.61450(15)
O1 O 0.2496(2) 0.8216(2) 0.6474(2)
H1 H 0.1796 0.8029 0.6083
O2 O 0.48482(17) 0.64112(17) 0.78113(14)
O3 O -0.0402(3) 0.90320(19) 0.7146(2)
H2 H -0.0042 0.9011 0.6697
O4 O -0.0751(2) 1.17899(18) 0.97809(17)
C1 C -0.1075(2) 0.6849(2) 0.50934(18)
C2 C -0.2320(2) 0.6036(2) 0.50837(19)
C3 C -0.2373(3) 0.5331(2) 0.5680(2)
H3 H -0.3186 0.4795 0.5701
C4 C -0.1247(2) 0.5407(2) 0.62421(19)
C5 C -0.0024(2) 0.6172(2) 0.61366(18)
C6 C -0.1379(2) 0.4771(2) 0.6987(2)
C7 C -0.2097(3) 0.3549(3) 0.6701(3)
H4 H -0.2511 0.3106 0.6032
C8 C -0.2191(4) 0.2995(3) 0.7428(3)
H5 H -0.2655 0.2176 0.7240
C9 C -0.1606(4) 0.3643(4) 0.8415(3)
H6 H -0.1664 0.3265 0.8893
C10 C -0.0930(4) 0.4856(3) 0.8701(3)
H7 H -0.0550 0.5297 0.9373
C11 C -0.0815(3) 0.5415(3) 0.7997(2)
H8 H -0.0356 0.6235 0.8197
C12 C 0.1257(2) 0.6261(2) 0.65807(19)
C13 C 0.1386(3) 0.5353(2) 0.68645(19)
H9 H 0.0628 0.4669 0.6776
C14 C 0.2570(3) 0.5420(2) 0.7266(2)
H10 H 0.2604 0.4790 0.7441
C15 C 0.3725(2) 0.6432(2) 0.74140(19)
C16 C 0.3656(3) 0.7355(3) 0.7146(2)
H11 H 0.4421 0.8037 0.7246
C17 C 0.2448(3) 0.7271(2) 0.6727(2)
C18 C 0.6255(3) 0.7200(3) 0.6802(3)
H12 H 0.6177 0.6430 0.6504
H13 H 0.7101 0.7790 0.6828
H14 H 0.5583 0.7296 0.6410
C19 C 0.6105(3) 0.7333(3) 0.7839(2)
H15 H 0.6162 0.8111 0.8141
C20 C 0.7110(3) 0.7168(4) 0.8487(4)
H16 H 0.6993 0.7282 0.9147
H17 H 0.7972 0.7734 0.8518
H18 H 0.7008 0.6384 0.8213
C21 C -0.3480(3) 0.6014(3) 0.4545(2)
C22 C 0.3569(3) 1.0359(3) 0.4579(2)
C23 C 0.3068(3) 1.0521(2) 0.5431(2)
C24 C 0.1779(2) 0.9773(2) 0.53901(19)
C25 C 0.1998(3) 1.0864(2) 0.70079(19)
C26 C 0.3353(3) 1.1563(2) 0.7150(2)
C27 C 0.3853(3) 1.1396(3) 0.6340(2)
H19 H 0.4730 1.1875 0.6403
C28 C 0.4277(3) 1.2408(3) 0.8140(2)
C29 C 0.4423(3) 1.1987(3) 0.8930(2)
H20 H 0.3930 1.1190 0.8842
C30 C 0.5293(4) 1.2739(4) 0.9844(2)
H21 H 0.5390 1.2446 1.0366
C31 C 0.6008(4) 1.3905(4) 0.9984(3)
H22 H 0.6589 1.4411 1.0602
C32 C 0.5873(4) 1.4335(3) 0.9215(3)
H23 H 0.6358 1.5136 0.9317
C33 C 0.5018(3) 1.3589(3) 0.8279(2)
H24 H 0.4950 1.3886 0.7755
C34 C 0.1260(3) 1.1067(2) 0.7731(2)
C35 C 0.0113(3) 1.0160(3) 0.7760(2)
C36 C -0.0568(3) 1.0366(3) 0.8453(2)
H25 H -0.1298 0.9738 0.8490
C37 C -0.0164(3) 1.1494(3) 0.9081(2)
C38 C 0.0948(3) 1.2424(3) 0.9030(2)
H26 H 0.1226 1.3190 0.9442
C39 C 0.1628(3) 1.2206(2) 0.8373(2)
H27 H 0.2365 1.2837 0.8349
C40 C -0.1928(4) 1.0888(3) 0.9881(3)
H28 H -0.1839 1.0165 0.9826
C41 C -0.3097(4) 1.0635(4) 0.9093(4)
H29 H -0.3197 1.1340 0.9166
H30 H -0.3867 1.0030 0.9159
H31 H -0.2977 1.0373 0.8447
C42 C -0.2021(5) 1.1391(4) 1.0916(4)
H32 H -0.1283 1.1499 1.1404
H33 H -0.2818 1.0856 1.1012
H34 H -0.2021 1.2139 1.0987
loop_
_geom_bond_atom_site_label_1
_geom_bond_atom_site_label_2
_geom_bond_site_symmetry_1
_geom_bond_site_symmetry_2
S1 S2 1_555 1_555
S2 C24 1_555 1_555
N1 C21 1_555 1_555
N2 C1 1_555 1_555
N3 C22 1_555 1_555
N4 C24 1_555 1_555
O1 H1 1_555 1_555
O2 C15 1_555 1_555
O3 H2 1_555 1_555
O4 C37 1_555 1_555
C1 S1 1_555 1_555
C2 C1 1_555 1_555
C3 C2 1_555 1_555
H3 C3 1_555 1_555
C4 C3 1_555 1_555
C5 N2 1_555 1_555
C6 C4 1_555 1_555
C7 C6 1_555 1_555
H4 C7 1_555 1_555
C8 C7 1_555 1_555
H5 C8 1_555 1_555
C9 C8 1_555 1_555
H6 C9 1_555 1_555
C10 C9 1_555 1_555
H7 C10 1_555 1_555
C11 C6 1_555 1_555
H8 C11 1_555 1_555
C12 C5 1_555 1_555
C13 C12 1_555 1_555
H9 C13 1_555 1_555
C14 C13 1_555 1_555
H10 C14 1_555 1_555
C15 C14 1_555 1_555
C16 C15 1_555 1_555
H11 C16 1_555 1_555
C17 O1 1_555 1_555
C18 H12 1_555 1_555
H13 C18 1_555 1_555
H14 C18 1_555 1_555
C19 O2 1_555 1_555
H15 C19 1_555 1_555
C20 C19 1_555 1_555
H16 C20 1_555 1_555
H17 C20 1_555 1_555
H18 C20 1_555 1_555
C21 C2 1_555 1_555
C22 C23 1_555 1_555
C23 C24 1_555 1_555
C25 N4 1_555 1_555
C26 C25 1_555 1_555
C27 C23 1_555 1_555
H19 C27 1_555 1_555
C28 C26 1_555 1_555
C29 C28 1_555 1_555
H20 C29 1_555 1_555
C30 C29 1_555 1_555
H21 C30 1_555 1_555
C31 C30 1_555 1_555
H22 C31 1_555 1_555
C32 C31 1_555 1_555
H23 C32 1_555 1_555
C33 C28 1_555 1_555
H24 C33 1_555 1_555
C34 C25 1_555 1_555
C35 O3 1_555 1_555
C36 C35 1_555 1_555
H25 C36 1_555 1_555
C37 C36 1_555 1_555
C38 C37 1_555 1_555
H26 C38 1_555 1_555
C39 C34 1_555 1_555
H27 C39 1_555 1_555
C40 O4 1_555 1_555
H28 C40 1_555 1_555
C41 C40 1_555 1_555
H29 C41 1_555 1_555
H30 C41 1_555 1_555
H31 C41 1_555 1_555
C42 C40 1_555 1_555
H32 C42 1_555 1_555
H33 C42 1_555 1_555
H34 C42 1_555 1_555
C4 C5 1_555 1_555
C10 C11 1_555 1_555
C12 C17 1_555 1_555
C16 C17 1_555 1_555
C18 C19 1_555 1_555
C26 C27 1_555 1_555
C32 C33 1_555 1_555
C34 C35 1_555 1_555
C38 C39 1_555 1_555

#END
