
#######################################################################
#
#                 Cambridge Crystallographic Data Centre
#                                CCDC 
#
#######################################################################
#
# If this CIF has been generated from an entry in the Cambridge 
# Structural Database, then it will include bibliographic, chemical, 
# crystal, experimental, refinement or atomic coordinate data resulting 
# from the CCDC's data processing and validation procedures.
#
#######################################################################

data_SEWSAP
_chemical_formula_moiety         'C80 H47 N1 O11,C1 H1 Cl3'
_chemical_name_systematic        
"1-(2,2-Dimethoxyethylamino)-6,12,15,18-tetrakis(t-butylperoxy)-9-hydroxy-1,6,9,12,15,18-hexahydrooxireno[2',3':1,9]C60fullerene chloroform solvate"
_symmetry_cell_setting           monoclinic
_symmetry_space_group_name_H-M   'P 21/c'
_symmetry_Int_Tables_number      14
_space_group_name_Hall           '-P 2ybc'
loop_
_symmetry_equiv_pos_site_id
_symmetry_equiv_pos_as_xyz
1 x,y,z
2 -x,1/2+y,1/2-z
3 -x,-y,-z
4 x,1/2-y,1/2+z
_cell_length_a                   23.629(5)
_cell_length_b                   13.811(3)
_cell_length_c                   19.000(4)
_cell_angle_alpha                90
_cell_angle_beta                 99.96(3)
_cell_angle_gamma                90
_cell_volume                     6107.01
_exptl_crystal_colour            red
_exptl_crystal_description       Block
_cell_formula_units_Z            4
_exptl_crystal_recrystallization_method 
'carbon disulfide/chloroform/acetonitrile'
loop_
_atom_site_label
_atom_site_type_symbol
_atom_site_fract_x
_atom_site_fract_y
_atom_site_fract_z
Cl1 Cl 0.0188(3) 0.6930(9) 0.1609(6)
Cl2 Cl 0.0342(4) 0.6125(10) 0.0306(7)
Cl3 Cl 0.1207(4) 0.5783(8) 0.1501(9)
C81 C 0.0735(3) 0.6623(6) 0.1106(5)
H48 H 0.0952 0.7224 0.1001
O1 O 0.23238(11) 0.4978(2) 0.82322(14)
O2 O 0.17250(12) 0.5144(2) 0.78995(15)
O3 O 0.33987(14) 0.2903(3) 0.7521(3)
O4 O 0.2968(3) 0.2761(4) 0.7800(4)
O6 O 0.30705(11) 0.28733(18) 0.53411(15)
O7 O 0.35225(11) 0.25298(18) 0.49376(14)
O8 O 0.19264(13) 0.4920(2) 0.44313(17)
O9 O 0.14043(16) 0.5014(3) 0.46792(18)
O10 O 0.10315(14) 0.2277(3) 0.6708(2)
O11 O 0.08244(16) 0.3075(3) 0.5626(3)
O12 O 0.13439(10) 0.64101(19) 0.63016(15)
H1 H 0.1193 0.5638 0.6304
N1 N 0.15361(12) 0.4607(2) 0.62723(18)
H2 H 0.1352 0.4593 0.5677
C1 C 0.4268(2) 0.8481(3) 0.6026(3)
C2 C 0.46481(18) 0.7752(3) 0.5821(3)
C3 C 0.49717(16) 0.7324(3) 0.6458(3)
C4 C 0.47882(18) 0.7769(3) 0.7069(3)
C5 C 0.4355(2) 0.8486(3) 0.6803(3)
C6 C 0.3885(2) 0.8634(3) 0.7155(3)
C7 C 0.3321(2) 0.8748(3) 0.6745(3)
C8 C 0.3231(2) 0.8742(3) 0.5996(3)
C9 C 0.3716(2) 0.8602(3) 0.5629(3)
C10 C 0.3531(2) 0.8013(3) 0.5010(2)
C11 C 0.3895(2) 0.7319(4) 0.4803(2)
C12 C 0.4462(2) 0.7193(3) 0.5215(2)
C13 C 0.45820(19) 0.6163(3) 0.5223(2)
C14 C 0.49025(15) 0.5755(3) 0.5848(2)
C15 C 0.50888(15) 0.6350(3) 0.6470(2)
C16 C 0.50364(14) 0.5769(3) 0.7094(2)
C17 C 0.48649(16) 0.6206(3) 0.7680(2)
C18 C 0.47349(17) 0.7228(3) 0.7662(2)
C19 C 0.4251(2) 0.7374(4) 0.8032(2)
C20 C 0.3838(2) 0.8057(3) 0.7772(2)
C21 C 0.3235(2) 0.7829(4) 0.7757(2)
C22 C 0.2911(2) 0.8258(3) 0.7113(3)
C23 C 0.24560(17) 0.7740(3) 0.6722(3)
C24 C 0.23678(16) 0.7731(3) 0.5948(2)
C25 C 0.27508(19) 0.8234(3) 0.5591(3)
C26 C 0.29366(19) 0.7792(3) 0.4989(2)
C27 C 0.27223(18) 0.6877(3) 0.4760(2)
C28 C 0.3098(2) 0.6154(3) 0.45470(19)
C29 C 0.3670(2) 0.6379(3) 0.4556(2)
C30 C 0.40978(19) 0.5667(4) 0.4819(2)
C31 C 0.39318(19) 0.4787(3) 0.5060(2)
C32 C 0.42518(18) 0.4365(3) 0.5707(2)
C33 C 0.47264(16) 0.4825(3) 0.6080(2)
C34 C 0.48069(14) 0.4838(3) 0.6843(2)
C35 C 0.44089(16) 0.4387(3) 0.7193(2)
C36 C 0.42367(16) 0.4830(3) 0.7819(2)
C37 C 0.44607(17) 0.5722(3) 0.8055(2)
C38 C 0.40905(18) 0.6428(4) 0.82750(19)
C39 C 0.3504(2) 0.6216(4) 0.82393(19)
C40 C 0.3067(2) 0.6917(4) 0.7963(2)
C41 C 0.25746(18) 0.6420(3) 0.7574(2)
C42 C 0.22830(16) 0.6828(3) 0.6964(2)
C43 C 0.19524(16) 0.6270(3) 0.6324(2)
C44 C 0.21415(15) 0.6807(3) 0.5693(2)
C45 C 0.23096(17) 0.6387(3) 0.5116(2)
C46 C 0.23570(17) 0.5314(3) 0.5014(2)
C47 C 0.29263(18) 0.5211(3) 0.47511(19)
C48 C 0.33382(18) 0.4555(3) 0.5009(2)
C49 C 0.32694(16) 0.3828(3) 0.5589(2)
C50 C 0.38550(17) 0.3860(3) 0.6070(2)
C51 C 0.39324(16) 0.3873(3) 0.6802(2)
C52 C 0.34408(16) 0.3850(3) 0.7229(2)
C53 C 0.36483(18) 0.4591(3) 0.7810(2)
C54 C 0.32858(17) 0.5261(3) 0.80206(19)
C55 C 0.26391(16) 0.5333(3) 0.7701(2)
C56 C 0.25242(16) 0.4823(3) 0.6988(2)
C57 C 0.21008(15) 0.5166(3) 0.6335(2)
C58 C 0.23960(15) 0.4817(3) 0.5716(2)
C59 C 0.28191(15) 0.4201(3) 0.5992(2)
C60 C 0.29024(16) 0.4215(3) 0.6779(2)
C61 C 0.1388(2) 0.5273(4) 0.8468(3)
C62 C 0.1397(2) 0.4328(5) 0.8861(3)
H3 H 0.1240 0.3828 0.8533
H4 H 0.1170 0.4384 0.9232
H5 H 0.1785 0.4167 0.9067
C63 C 0.1610(3) 0.6105(6) 0.8922(4)
H6 H 0.1586 0.6681 0.8636
H7 H 0.2004 0.5989 0.9132
H8 H 0.1385 0.6186 0.9293
C64 C 0.07947(19) 0.5456(4) 0.8035(3)
H9 H 0.0796 0.6057 0.7782
H10 H 0.0518 0.5487 0.8350
H11 H 0.0695 0.4938 0.7699
C65 C 0.2837(2) 0.1656(3) 0.7748(3)
C66 C 0.2445(2) 0.1862(3) 0.8281(3)
H12 H 0.2113 0.2207 0.8049
H13 H 0.2647 0.2247 0.8666
H14 H 0.2329 0.1262 0.8467
C67 C 0.33640(17) 0.1093(3) 0.8073(2)
H15 H 0.3597 0.0972 0.7716
H16 H 0.3250 0.0488 0.8254
H17 H 0.3581 0.1460 0.8457
C68 C 0.25124(19) 0.1153(4) 0.7083(3)
H18 H 0.2770 0.1032 0.6754
H19 H 0.2204 0.1561 0.6860
H20 H 0.2359 0.0551 0.7218
C69 C 0.36156(18) 0.1506(3) 0.5110(2)
C70 C 0.38597(16) 0.1367(3) 0.5895(2)
H21 H 0.4210 0.1730 0.6016
H22 H 0.3937 0.0692 0.5989
H23 H 0.3587 0.1590 0.6179
C71 C 0.30698(17) 0.0965(3) 0.4863(2)
H24 H 0.2942 0.1082 0.4363
H25 H 0.2781 0.1180 0.5126
H26 H 0.3136 0.0284 0.4941
C72 C 0.40576(18) 0.1263(3) 0.4641(2)
H27 H 0.4406 0.1613 0.4807
H28 H 0.3910 0.1442 0.4156
H29 H 0.4135 0.0580 0.4665
C73 C 0.0969(3) 0.5292(7) 0.4026(4)
C74 C 0.0431(3) 0.5282(6) 0.4438(4)
H30 H 0.0467 0.5805 0.4775
H31 H 0.0422 0.4678 0.4686
H32 H 0.0082 0.5356 0.4100
C75 C 0.1060(3) 0.6225(6) 0.3790(5)
H33 H 0.1088 0.6669 0.4183
H34 H 0.0744 0.6409 0.3425
H35 H 0.1410 0.6240 0.3598
C76 C 0.0906(2) 0.4497(5) 0.3514(3)
H36 H 0.0843 0.3904 0.3753
H37 H 0.1248 0.4443 0.3309
H38 H 0.0583 0.4621 0.3143
C77 C 0.15718(17) 0.3628(3) 0.6562(3)
H39 H 0.1690 0.3648 0.7077
H40 H 0.1853 0.3255 0.6360
C78 C 0.0985(2) 0.3161(4) 0.6375(4)
H41 H 0.0701 0.3557 0.6563
C79 C 0.0478(2) 0.1840(4) 0.6704(3)
H42 H 0.0527 0.1218 0.6931
H43 H 0.0284 0.1764 0.6220
H44 H 0.0253 0.2248 0.6958
C80 C 0.1192(3) 0.2442(5) 0.5289(4)
H45 H 0.1051 0.2416 0.4784
H46 H 0.1188 0.1803 0.5487
H47 H 0.1577 0.2689 0.5373
Cl4? Cl 0.1051(6) 0.5557(9) 0.1123(10)
Cl5? Cl 0.0368(6) 0.6528(11) 0.1670(7)
Cl6? Cl 0.0378(7) 0.6851(10) 0.0315(8)
O5? O 0.3026(3) 0.2386(4) 0.7185(4)
H49? H 0.1037 0.7143 0.1251
loop_
_geom_bond_atom_site_label_1
_geom_bond_atom_site_label_2
_geom_bond_site_symmetry_1
_geom_bond_site_symmetry_2
Cl1 C81 1_555 1_555
Cl2 C81 1_555 1_555
Cl3 C81 1_555 1_555
O1 O2 1_555 1_555
O2 C61 1_555 1_555
O3 O4 1_555 1_555
O4 C65 1_555 1_555
O6 O7 1_555 1_555
O7 C69 1_555 1_555
O8 O9 1_555 1_555
O9 C73 1_555 1_555
O10 C78 1_555 1_555
O11 C78 1_555 1_555
O12 H1 1_555 1_555
N1 H2 1_555 1_555
C1 C2 1_555 1_555
C2 C3 1_555 1_555
C3 C4 1_555 1_555
C4 C5 1_555 1_555
C5 C1 1_555 1_555
C6 C5 1_555 1_555
C7 C6 1_555 1_555
C8 C7 1_555 1_555
C9 C1 1_555 1_555
C10 C9 1_555 1_555
C11 C10 1_555 1_555
C12 C2 1_555 1_555
C13 C12 1_555 1_555
C14 C13 1_555 1_555
C15 C3 1_555 1_555
C16 C15 1_555 1_555
C17 C16 1_555 1_555
C18 C4 1_555 1_555
C19 C18 1_555 1_555
C20 C6 1_555 1_555
C21 C20 1_555 1_555
C22 C7 1_555 1_555
C23 C22 1_555 1_555
C24 C23 1_555 1_555
C25 C8 1_555 1_555
C26 C10 1_555 1_555
C27 C26 1_555 1_555
C28 C27 1_555 1_555
C29 C11 1_555 1_555
C30 C13 1_555 1_555
C31 C30 1_555 1_555
C32 C31 1_555 1_555
C33 C14 1_555 1_555
C34 C16 1_555 1_555
C35 C34 1_555 1_555
C36 C35 1_555 1_555
C37 C17 1_555 1_555
C38 C19 1_555 1_555
C39 C38 1_555 1_555
C40 C21 1_555 1_555
C41 C40 1_555 1_555
C42 C23 1_555 1_555
C43 O12 1_555 1_555
C44 C24 1_555 1_555
C45 C27 1_555 1_555
C46 O8 1_555 1_555
C47 C28 1_555 1_555
C48 C31 1_555 1_555
C49 O6 1_555 1_555
C50 C32 1_555 1_555
C51 C35 1_555 1_555
C52 O3 1_555 1_555
C53 C36 1_555 1_555
C54 C39 1_555 1_555
C55 O1 1_555 1_555
C56 C55 1_555 1_555
C57 N1 1_555 1_555
C58 C46 1_555 1_555
C59 C49 1_555 1_555
C60 C52 1_555 1_555
C61 C62 1_555 1_555
C62 H3 1_555 1_555
H4 C62 1_555 1_555
H5 C62 1_555 1_555
C63 C61 1_555 1_555
H6 C63 1_555 1_555
H7 C63 1_555 1_555
H8 C63 1_555 1_555
C64 C61 1_555 1_555
H9 C64 1_555 1_555
H10 C64 1_555 1_555
H11 C64 1_555 1_555
C65 C66 1_555 1_555
C66 H12 1_555 1_555
H13 C66 1_555 1_555
H14 C66 1_555 1_555
C67 C65 1_555 1_555
H15 C67 1_555 1_555
H16 C67 1_555 1_555
H17 C67 1_555 1_555
C68 C65 1_555 1_555
H18 C68 1_555 1_555
H19 C68 1_555 1_555
H20 C68 1_555 1_555
C69 C70 1_555 1_555
C70 H21 1_555 1_555
H22 C70 1_555 1_555
H23 C70 1_555 1_555
C71 C69 1_555 1_555
H24 C71 1_555 1_555
H25 C71 1_555 1_555
H26 C71 1_555 1_555
C72 C69 1_555 1_555
H27 C72 1_555 1_555
H28 C72 1_555 1_555
H29 C72 1_555 1_555
C73 C74 1_555 1_555
C74 H30 1_555 1_555
H31 C74 1_555 1_555
H32 C74 1_555 1_555
C75 C73 1_555 1_555
H33 C75 1_555 1_555
H34 C75 1_555 1_555
H35 C75 1_555 1_555
C76 C73 1_555 1_555
H36 C76 1_555 1_555
H37 C76 1_555 1_555
H38 C76 1_555 1_555
C77 N1 1_555 1_555
H39 C77 1_555 1_555
H40 C77 1_555 1_555
C78 C77 1_555 1_555
H41 C78 1_555 1_555
C79 O10 1_555 1_555
H42 C79 1_555 1_555
H43 C79 1_555 1_555
H44 C79 1_555 1_555
C80 O11 1_555 1_555
H45 C80 1_555 1_555
H46 C80 1_555 1_555
H47 C80 1_555 1_555
C81 H48 1_555 1_555
C8 C9 1_555 1_555
C11 C12 1_555 1_555
C14 C15 1_555 1_555
C17 C18 1_555 1_555
C19 C20 1_555 1_555
C21 C22 1_555 1_555
C24 C25 1_555 1_555
C25 C26 1_555 1_555
C28 C29 1_555 1_555
C29 C30 1_555 1_555
C32 C33 1_555 1_555
C33 C34 1_555 1_555
C36 C37 1_555 1_555
C37 C38 1_555 1_555
C39 C40 1_555 1_555
C41 C42 1_555 1_555
C41 C55 1_555 1_555
C42 C43 1_555 1_555
C43 C44 1_555 1_555
C43 C57 1_555 1_555
C44 C45 1_555 1_555
C45 C46 1_555 1_555
C46 C47 1_555 1_555
C47 C48 1_555 1_555
C48 C49 1_555 1_555
C49 C50 1_555 1_555
C50 C51 1_555 1_555
C51 C52 1_555 1_555
C52 C53 1_555 1_555
C53 C54 1_555 1_555
C54 C55 1_555 1_555
C56 C57 1_555 1_555
C56 C60 1_555 1_555
C57 C58 1_555 1_555
C58 C59 1_555 1_555
C59 C60 1_555 1_555

#END
