
#######################################################################
#
#                 Cambridge Crystallographic Data Centre
#                                CCDC 
#
#######################################################################
#
# If this CIF has been generated from an entry in the Cambridge 
# Structural Database, then it will include bibliographic, chemical, 
# crystal, experimental, refinement or atomic coordinate data resulting 
# from the CCDC's data processing and validation procedures.
#
#######################################################################

data_SEWVOI
_chemical_formula_moiety         'C37 H42 N4 O3'
_chemical_name_systematic        
3',6'-bis(diethylamino)-4-{[4-(dimethylamino)phenyl](methyl)amino}-3H-spiro[2-benzofuran-1,9'-xanthen]-3-one
_symmetry_cell_setting           triclinic
_symmetry_space_group_name_H-M   'P -1'
_symmetry_Int_Tables_number      2
_space_group_name_Hall           '-P 1'
loop_
_symmetry_equiv_pos_site_id
_symmetry_equiv_pos_as_xyz
1 x,y,z
2 -x,-y,-z
_cell_length_a                   11.882(9)
_cell_length_b                   11.961(9)
_cell_length_c                   12.314(9)
_cell_angle_alpha                85.729(13)
_cell_angle_beta                 74.484(13)
_cell_angle_gamma                74.596(13)
_cell_volume                     1625.71
_exptl_crystal_colour            colorless
_exptl_crystal_description       block
_cell_formula_units_Z            2
loop_
_atom_site_label
_atom_site_type_symbol
_atom_site_fract_x
_atom_site_fract_y
_atom_site_fract_z
C1 C 0.1358(5) 0.4142(5) 1.3692(5)
H1 H 0.1046 0.4904 1.3420
H2 H 0.0733 0.3923 1.4273
H3 H 0.1627 0.3598 1.3084
C2 C 0.2130(5) 0.4183(5) 1.5355(4)
H4 H 0.2733 0.3583 1.5593
H5 H 0.1344 0.4066 1.5707
H6 H 0.2167 0.4925 1.5570
C3 C 0.3423(6) 0.4294(5) 1.3436(4)
C4 C 0.4323(6) 0.4468(5) 1.3895(4)
H7 H 0.4161 0.4547 1.4671
C5 C 0.5451(5) 0.4525(5) 1.3220(4)
H8 H 0.6031 0.4631 1.3554
C6 C 0.5721(5) 0.4427(4) 1.2074(4)
C7 C 0.4819(6) 0.4304(4) 1.1608(4)
H9 H 0.4973 0.4256 1.0829
C8 C 0.3706(5) 0.4252(4) 1.2271(4)
H10 H 0.3119 0.4185 1.1926
C9 C 0.7570(5) 0.5130(5) 1.1708(4)
H11 H 0.7897 0.4743 1.2310
H12 H 0.7036 0.5869 1.1965
H13 H 0.8217 0.5241 1.1084
C10 C 0.7553(5) 0.3412(4) 1.0741(4)
C11 C 0.7310(5) 0.2340(5) 1.1057(4)
H14 H 0.6663 0.2306 1.1671
C12 C 0.7986(5) 0.1329(4) 1.0498(4)
H15 H 0.7800 0.0632 1.0753
C13 C 0.8950(5) 0.1332(4) 0.9551(4)
H16 H 0.9408 0.0653 0.9166
C14 C 0.9186(4) 0.2385(4) 0.9218(3)
C15 C 0.8532(5) 0.3396(4) 0.9763(4)
C16 C 0.8981(5) 0.4368(5) 0.9120(4)
C17 C 1.0136(5) 0.2594(4) 0.8169(3)
C18 C 0.9875(5) 0.2324(4) 0.7092(4)
C19 C 1.0765(5) 0.1732(4) 0.6225(4)
C20 C 1.0545(5) 0.1509(4) 0.5205(4)
H17 H 1.1170 0.1080 0.4646
C21 C 0.9398(5) 0.1926(4) 0.5029(4)
C22 C 0.8481(5) 0.2548(4) 0.5904(4)
H18 H 0.7704 0.2834 0.5812
C23 C 0.8721(5) 0.2743(4) 0.6907(4)
H19 H 0.8098 0.3163 0.7474
C24 C 0.8000(6) 0.2289(5) 0.3812(4)
H20 H 0.8116 0.2379 0.3003
H21 H 0.7723 0.3059 0.4136
C25 C 0.7014(6) 0.1658(5) 0.4264(5)
H22 H 0.7252 0.0912 0.3912
H23 H 0.6277 0.2104 0.4102
H24 H 0.6891 0.1558 0.5065
C26 C 1.0033(5) 0.0983(5) 0.3140(4)
H25 H 0.9610 0.0577 0.2797
H26 H 1.0584 0.0405 0.3478
C27 C 1.0753(6) 0.1608(5) 0.2237(4)
H27 H 1.0218 0.2173 0.1887
H28 H 1.1303 0.1062 0.1682
H29 H 1.1201 0.1989 0.2563
C28 C 1.1405(5) 0.2058(4) 0.8178(4)
C29 C 1.2234(5) 0.1468(4) 0.7268(4)
C30 C 1.3438(5) 0.1000(4) 0.7248(4)
H30 H 1.3967 0.0604 0.6613
C31 C 1.3871(6) 0.1118(5) 0.8183(5)
C32 C 1.3029(5) 0.1694(4) 0.9113(4)
H31 H 1.3276 0.1782 0.9750
C33 C 1.1831(5) 0.2140(4) 0.9110(4)
H32 H 1.1290 0.2507 0.9755
C34 C 1.5585(6) 0.1125(5) 0.8954(5)
H33 H 1.6377 0.0624 0.8947
H34 H 1.5070 0.1110 0.9710
C35 C 1.5697(6) 0.2339(6) 0.8677(5)
H35 H 1.6218 0.2359 0.7934
H36 H 1.6031 0.2591 0.9215
H37 H 1.4913 0.2845 0.8704
C36 C 1.5926(5) 0.0098(6) 0.7177(5)
H38 H 1.6730 0.0145 0.7174
H39 H 1.5728 0.0501 0.6513
C37 C 1.5928(6) -0.1166(6) 0.7121(6)
H40 H 1.6177 -0.1579 0.7751
H41 H 1.6480 -0.1500 0.6432
H42 H 1.5130 -0.1218 0.7144
N1 N 0.2348(5) 0.4144(4) 1.4140(4)
N2 N 0.6899(4) 0.4421(4) 1.1348(3)
N3 N 0.9150(4) 0.1732(4) 0.4032(3)
N4 N 1.5080(5) 0.0659(4) 0.8161(4)
O1 O 0.8635(3) 0.5408(3) 0.9240(3)
O2 O 0.9912(3) 0.3896(3) 0.8230(2)
O3 O 1.1944(3) 0.1304(3) 0.6276(2)
loop_
_geom_bond_atom_site_label_1
_geom_bond_atom_site_label_2
_geom_bond_site_symmetry_1
_geom_bond_site_symmetry_2
C1 H1 1_555 1_555
H2 C1 1_555 1_555
H3 C1 1_555 1_555
C2 H4 1_555 1_555
H5 C2 1_555 1_555
H6 C2 1_555 1_555
C3 C4 1_555 1_555
C4 H7 1_555 1_555
C5 C4 1_555 1_555
H8 C5 1_555 1_555
C6 C5 1_555 1_555
C7 C6 1_555 1_555
H9 C7 1_555 1_555
C8 C3 1_555 1_555
H10 C8 1_555 1_555
C9 H11 1_555 1_555
H12 C9 1_555 1_555
H13 C9 1_555 1_555
C10 C11 1_555 1_555
C11 H14 1_555 1_555
C12 C11 1_555 1_555
H15 C12 1_555 1_555
C13 C12 1_555 1_555
H16 C13 1_555 1_555
C14 C13 1_555 1_555
C15 C10 1_555 1_555
C16 C15 1_555 1_555
C17 C14 1_555 1_555
C18 C17 1_555 1_555
C19 C18 1_555 1_555
C20 C19 1_555 1_555
H17 C20 1_555 1_555
C21 C20 1_555 1_555
C22 C21 1_555 1_555
H18 C22 1_555 1_555
C23 C18 1_555 1_555
H19 C23 1_555 1_555
C24 H20 1_555 1_555
H21 C24 1_555 1_555
C25 C24 1_555 1_555
H22 C25 1_555 1_555
H23 C25 1_555 1_555
H24 C25 1_555 1_555
C26 H25 1_555 1_555
H26 C26 1_555 1_555
C27 C26 1_555 1_555
H27 C27 1_555 1_555
H28 C27 1_555 1_555
H29 C27 1_555 1_555
C28 C17 1_555 1_555
C29 C28 1_555 1_555
C30 C29 1_555 1_555
H30 C30 1_555 1_555
C31 C30 1_555 1_555
C32 C31 1_555 1_555
H31 C32 1_555 1_555
C33 C28 1_555 1_555
H32 C33 1_555 1_555
C34 H33 1_555 1_555
H34 C34 1_555 1_555
C35 C34 1_555 1_555
H35 C35 1_555 1_555
H36 C35 1_555 1_555
H37 C35 1_555 1_555
C36 H38 1_555 1_555
H39 C36 1_555 1_555
C37 C36 1_555 1_555
H40 C37 1_555 1_555
H41 C37 1_555 1_555
H42 C37 1_555 1_555
N1 C1 1_555 1_555
N2 C6 1_555 1_555
N3 C21 1_555 1_555
N4 C31 1_555 1_555
O1 C16 1_555 1_555
O2 C16 1_555 1_555
O3 C19 1_555 1_555
C2 N1 1_555 1_555
C3 N1 1_555 1_555
C7 C8 1_555 1_555
C9 N2 1_555 1_555
C10 N2 1_555 1_555
C14 C15 1_555 1_555
C17 O2 1_555 1_555
C22 C23 1_555 1_555
C24 N3 1_555 1_555
C26 N3 1_555 1_555
C29 O3 1_555 1_555
C32 C33 1_555 1_555
C34 N4 1_555 1_555
C36 N4 1_555 1_555

#END
