
#######################################################################
#
#                 Cambridge Crystallographic Data Centre
#                                CCDC 
#
#######################################################################
#
# If this CIF has been generated from an entry in the Cambridge 
# Structural Database, then it will include bibliographic, chemical, 
# crystal, experimental, refinement or atomic coordinate data resulting 
# from the CCDC's data processing and validation procedures.
#
#######################################################################

data_SEWVIC
_chemical_formula_moiety         'C35 H37 N3 O4'
_chemical_name_systematic        
3',6'-bis(diethylamino)-4-[(4-methoxyphenyl)amino]-3H-spiro[2-benzofuran-1,9'-xanthen]-3-one
_symmetry_cell_setting           monoclinic
_symmetry_space_group_name_H-M   'P 21/c'
_symmetry_Int_Tables_number      14
_space_group_name_Hall           '-P 2ybc'
loop_
_symmetry_equiv_pos_site_id
_symmetry_equiv_pos_as_xyz
1 x,y,z
2 -x,1/2+y,1/2-z
3 -x,-y,-z
4 x,1/2-y,1/2+z
_cell_length_a                   8.512(9)
_cell_length_b                   16.310(16)
_cell_length_c                   22.28(2)
_cell_angle_alpha                90
_cell_angle_beta                 100.21(3)
_cell_angle_gamma                90
_cell_volume                     3044.17
_exptl_crystal_colour            colorless
_exptl_crystal_description       Block
_cell_formula_units_Z            4
loop_
_atom_site_label
_atom_site_type_symbol
_atom_site_fract_x
_atom_site_fract_y
_atom_site_fract_z
C1 C -0.1115(5) 1.3334(2) -0.2777(2)
H1 H -0.1224 1.3519 -0.2377
H2 H -0.1854 1.3626 -0.3078
H3 H -0.0046 1.3435 -0.2841
C2 C -0.0607(4) 1.19640(18) -0.23904(12)
C3 C -0.1134(4) 1.11607(18) -0.24098(13)
H4 H -0.2011 1.1004 -0.2698
C4 C -0.0367(4) 1.05922(18) -0.20044(13)
H5 H -0.0726 1.0053 -0.2026
C5 C 0.0942(4) 1.08115(16) -0.15614(12)
C6 C 0.1464(4) 1.16176(17) -0.15390(13)
H6 H 0.2324 1.1778 -0.1245
C7 C 0.0694(4) 1.21933(17) -0.19609(14)
H7 H 0.1062 1.2731 -0.1951
C8 C 0.1215(3) 0.96544(15) -0.08163(11)
C9 C -0.0401(3) 0.96033(16) -0.07549(12)
H8 H -0.1141 0.9959 -0.0976
C10 C -0.0902(3) 0.90303(16) -0.03700(12)
H9 H -0.1976 0.9013 -0.0338
C11 C 0.0160(3) 0.84743(17) -0.00267(12)
H10 H -0.0188 0.8100 0.0236
C12 C 0.1733(3) 0.85061(15) -0.00953(11)
C13 C 0.2245(3) 0.90698(15) -0.04771(11)
C14 C 0.3953(3) 0.89317(16) -0.04736(13)
C15 C 0.3114(3) 0.79576(15) 0.01875(12)
C16 C 0.2837(3) 0.70687(15) 0.00113(11)
C17 C 0.3055(4) 0.64426(16) 0.04414(12)
C18 C 0.2772(4) 0.56216(17) 0.02855(13)
H11 H 0.2959 0.5222 0.0587
C19 C 0.2205(5) 0.53887(16) -0.03244(13)
C20 C 0.2027(4) 0.60257(18) -0.07655(13)
H12 H 0.1707 0.5898 -0.1176
C21 C 0.2320(4) 0.68314(17) -0.05945(12)
H13 H 0.2168 0.7234 -0.0895
C22 C 0.1226(5) 0.4355(2) -0.11319(16)
H14 H 0.0660 0.3837 -0.1147
H15 H 0.0490 0.4768 -0.1329
C23 C 0.2571(6) 0.4279(3) -0.1453(2)
H16 H 0.3215 0.4765 -0.1389
H17 H 0.2180 0.4210 -0.1882
H18 H 0.3204 0.3812 -0.1301
C24 C 0.3654(3) 0.80496(15) 0.08635(12)
C25 C 0.3876(3) 0.73818(16) 0.12547(12)
C26 C 0.4452(4) 0.74597(19) 0.18783(13)
H19 H 0.4589 0.6994 0.2123
C27 C 0.4825(4) 0.82334(19) 0.21396(13)
C28 C 0.4605(4) 0.8916(2) 0.17455(15)
H20 H 0.4859 0.9437 0.1902
C29 C 0.4021(3) 0.88225(18) 0.11321(14)
H21 H 0.3863 0.9287 0.0887
C30 C 0.1581(7) 0.3944(3) -0.0022(2)
H22 H 0.0669 0.3601 -0.0178
H23 H 0.1401 0.4199 0.0353
C31 C 0.3064(8) 0.3444(4) 0.0092(3)
H24 H 0.2967 0.3025 0.0385
H25 H 0.3228 0.3195 -0.0283
H26 H 0.3957 0.3790 0.0246
C32 C 0.5447(6) 0.7617(3) 0.31820(17)
H27 H 0.4547 0.7258 0.3042
H28 H 0.5355 0.7812 0.3585
C33 C 0.6973(7) 0.7135(3) 0.3221(2)
H29 H 0.6966 0.6683 0.3497
H30 H 0.7059 0.6930 0.2824
H31 H 0.7867 0.7484 0.3367
C34 C 0.5614(6) 0.9132(3) 0.3055(2)
H32 H 0.5472 0.9090 0.3477
H33 H 0.4820 0.9511 0.2848
C35 C 0.7263(7) 0.9457(4) 0.3032(3)
H34 H 0.7393 0.9985 0.3225
H35 H 0.8049 0.9086 0.3242
H36 H 0.7397 0.9506 0.2615
N1 N 0.1821(3) 1.02229(14) -0.11626(11)
H37 H 0.2841 1.0227 -0.1138
N2 N 0.5379(4) 0.83227(18) 0.27637(13)
N3 N 0.1805(5) 0.45904(16) -0.04854(12)
O1 O -0.1444(3) 1.24811(14) -0.28291(10)
O2 O 0.4847(3) 0.93041(13) -0.07442(11)
O3 O 0.4461(2) 0.82851(11) -0.01108(9)
O4 O 0.3552(3) 0.65829(11) 0.10599(8)
C36? C 0.2909(17) 0.3928(5) -0.0078(6)
H38? H 0.3264 0.3501 -0.0326
H39? H 0.3827 0.4182 0.0174
C37? C 0.1710(18) 0.3600(8) 0.0306(5)
H40? H 0.2214 0.3185 0.0581
H41? H 0.1362 0.4041 0.0536
H42? H 0.0806 0.3368 0.0042
C38? C 0.660(3) 0.767(2) 0.3059(11)
H43? H 0.7451 0.7924 0.3349
H44? H 0.7066 0.7384 0.2752
C39? C 0.559(5) 0.7089(15) 0.3383(16)
H45? H 0.6253 0.6659 0.3583
H46? H 0.5131 0.7391 0.3680
H47? H 0.4749 0.6856 0.3088
C40? C 0.6791(19) 0.9002(11) 0.2898(9)
H48? H 0.7653 0.8828 0.3217
H49? H 0.7212 0.9138 0.2533
C41? C 0.581(3) 0.9729(7) 0.3110(10)
H50? H 0.6502 1.0194 0.3209
H51? H 0.4954 0.9872 0.2787
H52? H 0.5390 0.9565 0.3463
loop_
_geom_bond_atom_site_label_1
_geom_bond_atom_site_label_2
_geom_bond_site_symmetry_1
_geom_bond_site_symmetry_2
C1 H1 1_555 1_555
H2 C1 1_555 1_555
H3 C1 1_555 1_555
C2 C3 1_555 1_555
C3 H4 1_555 1_555
C4 C3 1_555 1_555
H5 C4 1_555 1_555
C5 C4 1_555 1_555
C6 C5 1_555 1_555
H6 C6 1_555 1_555
C7 C2 1_555 1_555
H7 C7 1_555 1_555
C8 C9 1_555 1_555
C9 H8 1_555 1_555
C10 C9 1_555 1_555
H9 C10 1_555 1_555
C11 C10 1_555 1_555
H10 C11 1_555 1_555
C12 C11 1_555 1_555
C13 C8 1_555 1_555
C14 C13 1_555 1_555
C15 C12 1_555 1_555
C16 C15 1_555 1_555
C17 C16 1_555 1_555
C18 C17 1_555 1_555
H11 C18 1_555 1_555
C19 C18 1_555 1_555
C20 C19 1_555 1_555
H12 C20 1_555 1_555
C21 C16 1_555 1_555
H13 C21 1_555 1_555
C22 H14 1_555 1_555
H15 C22 1_555 1_555
C23 C22 1_555 1_555
H16 C23 1_555 1_555
H17 C23 1_555 1_555
H18 C23 1_555 1_555
C24 C15 1_555 1_555
C25 C24 1_555 1_555
C26 C25 1_555 1_555
H19 C26 1_555 1_555
C27 C26 1_555 1_555
C28 C27 1_555 1_555
H20 C28 1_555 1_555
C29 C24 1_555 1_555
H21 C29 1_555 1_555
C30 H22 1_555 1_555
H23 C30 1_555 1_555
C31 C30 1_555 1_555
H24 C31 1_555 1_555
H25 C31 1_555 1_555
H26 C31 1_555 1_555
C32 H27 1_555 1_555
H28 C32 1_555 1_555
C33 C32 1_555 1_555
H29 C33 1_555 1_555
H30 C33 1_555 1_555
H31 C33 1_555 1_555
C34 H32 1_555 1_555
H33 C34 1_555 1_555
C35 C34 1_555 1_555
H34 C35 1_555 1_555
H35 C35 1_555 1_555
H36 C35 1_555 1_555
N1 C5 1_555 1_555
H37 N1 1_555 1_555
N2 C27 1_555 1_555
N3 C19 1_555 1_555
O1 C1 1_555 1_555
O2 C14 1_555 1_555
O3 C14 1_555 1_555
O4 C17 1_555 1_555
C2 O1 1_555 1_555
C6 C7 1_555 1_555
C8 N1 1_555 1_555
C12 C13 1_555 1_555
C15 O3 1_555 1_555
C20 C21 1_555 1_555
C22 N3 1_555 1_555
C25 O4 1_555 1_555
C28 C29 1_555 1_555
C30 N3 1_555 1_555
C32 N2 1_555 1_555
C34 N2 1_555 1_555

#END
