
#######################################################################
#
#                 Cambridge Crystallographic Data Centre
#                                CCDC 
#
#######################################################################
#
# If this CIF has been generated from an entry in the Cambridge 
# Structural Database, then it will include bibliographic, chemical, 
# crystal, experimental, refinement or atomic coordinate data resulting 
# from the CCDC's data processing and validation procedures.
#
#######################################################################

data_SEWZAW
_chemical_formula_moiety         'C74 H46 O2,3.25(C1 H2 Cl2),0.75(C2 H6 O1 S1)'
_chemical_name_systematic        
'9,10,11,20,21,22-Hexaphenyltetrabenzo(a,c,l,n)pentacene 9,22:11,20-diepoxide dichloromethane dimethylsulfoxide solvate'
_symmetry_cell_setting           monoclinic
_symmetry_space_group_name_H-M   'P 21/c'
_symmetry_Int_Tables_number      14
_space_group_name_Hall           '-P 2ybc'
loop_
_symmetry_equiv_pos_site_id
_symmetry_equiv_pos_as_xyz
1 x,y,z
2 -x,1/2+y,1/2-z
3 -x,-y,-z
4 x,1/2-y,1/2+z
_cell_length_a                   12.6834(2)
_cell_length_b                   18.7000(3)
_cell_length_c                   16.3911(2)
_cell_angle_alpha                90
_cell_angle_beta                 126.091(1)
_cell_angle_gamma                90
_cell_volume                     3141.53
_exptl_crystal_colour            colorless
_exptl_crystal_description       Prism
_chemical_melting_point          'above 470 deg.C'
_cell_formula_units_Z            2
loop_
_atom_site_label
_atom_site_type_symbol
_atom_site_fract_x
_atom_site_fract_y
_atom_site_fract_z
O1 O 0.69547(15) 0.46764(8) 0.43137(12)
C1 C 0.4258(2) 0.43628(12) 0.4472(2)
C2 C 0.5468(2) 0.45087(12) 0.4660(2)
C3 C 0.6341(2) 0.40809(12) 0.4450(2)
C4 C 0.7513(2) 0.38247(13) 0.5510(2)
C5 C 0.7801(2) 0.31488(13) 0.6012(2)
C6 C 0.7065(2) 0.25184(13) 0.5531(2)
H1 H 0.6360 0.25308 0.4834
C7 C 0.7357(3) 0.18914(14) 0.6060(2)
H2 H 0.6848 0.14758 0.5727
C8 C 0.8394(3) 0.18612(15) 0.7081(2)
H3 H 0.8584 0.14269 0.7444
C9 C 0.9142(3) 0.24575(15) 0.7564(2)
H4 H 0.9854 0.24264 0.8258
C10 C 0.8880(2) 0.31158(13) 0.7056(2)
C11 C 0.9641(2) 0.37536(14) 0.7572(2)
C12 C 1.0746(3) 0.3745(2) 0.8593(2)
H5 H 1.1028 0.3303 0.8946
C13 C 1.1423(3) 0.4358(2) 0.9087(2)
H6 H 1.2160 0.4334 0.9773
C14 C 1.1032(3) 0.5015(2) 0.8585(2)
H7 H 1.1489 0.5440 0.8935
C15 C 0.9993(2) 0.50467(14) 0.7591(2)
H8 H 0.9737 0.54954 0.7255
C16 C 0.9288(2) 0.44234(13) 0.7051(2)
C17 C 0.8207(2) 0.44287(13) 0.6007(2)
C18 C 0.7474(2) 0.50572(12) 0.5254(2)
C19 C 0.6188(2) 0.51297(12) 0.5168(2)
C20 C 0.3496(2) 0.37069(12) 0.3912(2)
C21 C 0.2317(2) 0.37626(14) 0.2952(2)
H9 H 0.1980 0.42213 0.2665
C22 C 0.1633(3) 0.3154(2) 0.2414(2)
H10 H 0.0826 0.3198 0.1765
C23 C 0.2123(3) 0.2486(2) 0.2820(2)
H11 H 0.1663 0.2069 0.2445
C24 C 0.3283(3) 0.24236(15) 0.3772(2)
H12 H 0.3616 0.19639 0.4056
C25 C 0.3962(2) 0.30327(13) 0.4313(2)
H13 H 0.4757 0.29860 0.4968
C26 C 0.5770(2) 0.36321(13) 0.3515(2)
C27 C 0.4572(2) 0.38206(14) 0.2630(2)
H14 H 0.4076 0.41965 0.2640
C28 C 0.4099(3) 0.3464(2) 0.1735(2)
H15 H 0.3269 0.3587 0.1141
C29 C 0.4824(3) 0.2929(2) 0.1702(2)
H16 H 0.4491 0.2683 0.1088
C30 C 0.6041(3) 0.2752(2) 0.2570(2)
H17 H 0.6552 0.2392 0.2547
C31 C 0.6511(3) 0.31027(14) 0.3471(2)
H18 H 0.7345 0.29811 0.4062
C32 C 0.8202(2) 0.56806(12) 0.5220(2)
C33 C 0.9484(2) 0.55770(14) 0.5537(2)
H19 H 0.9926 0.51454 0.5869
C34 C 1.0118(2) 0.60973(15) 0.5371(2)
H20 H 1.0991 0.60230 0.5593
C35 C 0.9476(3) 0.6724(2) 0.4882(2)
H21 H 0.9910 0.7082 0.4770
C36 C 0.8201(3) 0.68323(15) 0.4555(2)
H22 H 0.7760 0.72630 0.4218
C37 C 0.7567(2) 0.63078(13) 0.4722(2)
H23 H 0.6691 0.63813 0.4491
O1B O 0.30453(15) 0.53236(8) 0.56863(12)
C1B C 0.5742(2) 0.56372(12) 0.5528(2)
C2B C 0.4532(2) 0.54913(12) 0.5340(2)
C3B C 0.3659(2) 0.59191(12) 0.5550(2)
C4B C 0.2487(2) 0.61753(13) 0.4490(2)
C5B C 0.2199(2) 0.68512(13) 0.3988(2)
C6B C 0.2935(2) 0.74816(13) 0.4469(2)
H1B H 0.3640 0.74692 0.5166
C7B C 0.2643(3) 0.81086(14) 0.3940(2)
H2B H 0.3152 0.85242 0.4273
C8B C 0.1606(3) 0.81388(15) 0.2919(2)
H3B H 0.1416 0.85731 0.2556
C9B C 0.0858(3) 0.75425(15) 0.2436(2)
H4B H 0.0146 0.75736 0.1742
C10B C 0.1120(2) 0.68842(13) 0.2944(2)
C11B C 0.0359(2) 0.62464(14) 0.2428(2)
C12B C -0.0746(3) 0.6255(2) 0.1407(2)
H5B H -0.1028 0.6697 0.1054
C13B C -0.1423(3) 0.5642(2) 0.0913(2)
H6B H -0.2160 0.5666 0.0227
C14B C -0.1032(3) 0.4985(2) 0.1415(2)
H7B H -0.1489 0.4560 0.1065
C15B C 0.0007(2) 0.49533(14) 0.2409(2)
H8B H 0.0263 0.45046 0.2745
C16B C 0.0712(2) 0.55766(13) 0.2949(2)
C17B C 0.1793(2) 0.55713(13) 0.3993(2)
C18B C 0.2526(2) 0.49428(12) 0.4746(2)
C19B C 0.3812(2) 0.48703(12) 0.4832(2)
C20B C 0.6504(2) 0.62931(12) 0.6088(2)
C21B C 0.7683(2) 0.62374(14) 0.7048(2)
H9B H 0.8020 0.57787 0.7335
C22B C 0.8367(3) 0.6846(2) 0.7586(2)
H10B H 0.9174 0.6802 0.8235
C23B C 0.7877(3) 0.7514(2) 0.7180(2)
H11B H 0.8337 0.7931 0.7555
C24B C 0.6717(3) 0.75764(15) 0.6228(2)
H12B H 0.6384 0.80361 0.5944
C25B C 0.6038(2) 0.69673(13) 0.5687(2)
H13B H 0.5243 0.70140 0.5032
C26B C 0.4230(2) 0.63679(13) 0.6485(2)
C27B C 0.5428(2) 0.61794(14) 0.7370(2)
H14B H 0.5924 0.58035 0.7360
C28B C 0.5901(3) 0.6536(2) 0.8265(2)
H15B H 0.6731 0.6413 0.8859
C29B C 0.5176(3) 0.7071(2) 0.8298(2)
H16B H 0.5509 0.7317 0.8912
C30B C 0.3959(3) 0.7248(2) 0.7430(2)
H17B H 0.3448 0.7608 0.7453
C31B C 0.3489(3) 0.68973(14) 0.6529(2)
H18B H 0.2655 0.70189 0.5938
C32B C 0.1798(2) 0.43194(12) 0.4780(2)
C33B C 0.0516(2) 0.44230(14) 0.4463(2)
H19B H 0.0074 0.48546 0.4131
C34B C -0.0118(2) 0.39027(15) 0.4629(2)
H20B H -0.0991 0.39770 0.4407
C35B C 0.0524(3) 0.3276(2) 0.5118(2)
H21B H 0.0090 0.2918 0.5230
C36B C 0.1799(3) 0.31677(15) 0.5445(2)
H22B H 0.2240 0.27370 0.5782
C37B C 0.2433(2) 0.36922(13) 0.5278(2)
H23B H 0.3309 0.36187 0.5509
C38 C 0.1923(5) 0.5594(3) 0.1287(4)
H24 H 0.2201 0.5245 0.0994
H25 H 0.1179 0.5385 0.1250
Cl1 Cl 0.14253(14) 0.63941(7) 0.05812(9)
Cl2 Cl 0.32518(10) 0.57572(5) 0.25864(8)
S1 S 0.5407(4) 0.5552(2) 0.1152(2)
O2 O 0.4095(12) 0.5312(7) 0.0665(10)
C41 C 0.5777(16) 0.6051(8) 0.2202(11)
H30 H 0.5276 0.6497 0.1969
H31 H 0.6712 0.6161 0.2636
H32 H 0.5549 0.5772 0.2584
C42 C 0.6389(10) 0.4772(6) 0.1808(8)
H33 H 0.6123 0.4381 0.1325
H34 H 0.6267 0.4627 0.2322
H35 H 0.7310 0.4885 0.2134
C39? C 0.5885(7) 0.5527(7) 0.2213(6)
H26? H 0.5852 0.6022 0.2411
H27? H 0.5840 0.5196 0.2664
Cl3? Cl 0.4544(3) 0.5381(3) 0.0972(2)
Cl4? Cl 0.7347(4) 0.5398(3) 0.2373(4)
C40? C 0.5750(21) 0.5187(17) 0.1965(37)
H28? H 0.5633 0.5046 0.2489
H29? H 0.5576 0.4768 0.1532
Cl5? Cl 0.4742(20) 0.5911(14) 0.1249(18)
Cl6? Cl 0.7316(21) 0.5532(12) 0.2507(16)
loop_
_geom_bond_atom_site_label_1
_geom_bond_atom_site_label_2
_geom_bond_site_symmetry_1
_geom_bond_site_symmetry_2
O1 C3 1_555 1_555
C1 C2 1_555 1_555
C2 C3 1_555 1_555
C3 C4 1_555 1_555
C4 C5 1_555 1_555
C5 C6 1_555 1_555
C6 H1 1_555 1_555
C7 C6 1_555 1_555
H2 C7 1_555 1_555
C8 C7 1_555 1_555
H3 C8 1_555 1_555
C9 C8 1_555 1_555
H4 C9 1_555 1_555
C10 C5 1_555 1_555
C11 C10 1_555 1_555
C12 C11 1_555 1_555
H5 C12 1_555 1_555
C13 C12 1_555 1_555
H6 C13 1_555 1_555
C14 C13 1_555 1_555
H7 C14 1_555 1_555
C15 C14 1_555 1_555
H8 C15 1_555 1_555
C16 C11 1_555 1_555
C17 C4 1_555 1_555
C18 O1 1_555 1_555
C19 C2 1_555 1_555
C20 C1 1_555 1_555
C21 C20 1_555 1_555
H9 C21 1_555 1_555
C22 C21 1_555 1_555
H10 C22 1_555 1_555
C23 C22 1_555 1_555
H11 C23 1_555 1_555
C24 C23 1_555 1_555
H12 C24 1_555 1_555
C25 C20 1_555 1_555
H13 C25 1_555 1_555
C26 C3 1_555 1_555
C27 C26 1_555 1_555
H14 C27 1_555 1_555
C28 C27 1_555 1_555
H15 C28 1_555 1_555
C29 C28 1_555 1_555
H16 C29 1_555 1_555
C30 C29 1_555 1_555
H17 C30 1_555 1_555
C31 C26 1_555 1_555
H18 C31 1_555 1_555
C32 C18 1_555 1_555
C33 C32 1_555 1_555
H19 C33 1_555 1_555
C34 C33 1_555 1_555
H20 C34 1_555 1_555
C35 C34 1_555 1_555
H21 C35 1_555 1_555
C36 C35 1_555 1_555
H22 C36 1_555 1_555
C37 C32 1_555 1_555
H23 C37 1_555 1_555
C38 H24 1_555 1_555
H25 C38 1_555 1_555
Cl1 C38 1_555 1_555
Cl2 C38 1_555 1_555
S1 O2 1_555 1_555
C41 S1 1_555 1_555
H30 C41 1_555 1_555
H31 C41 1_555 1_555
H32 C41 1_555 1_555
C42 S1 1_555 1_555
H33 C42 1_555 1_555
H34 C42 1_555 1_555
H35 C42 1_555 1_555
O1B C3B 1_555 1_555
C1B C19 1_555 1_555
C2B C1B 1_555 1_555
C3B C2B 1_555 1_555
C4B C3B 1_555 1_555
C5B C4B 1_555 1_555
C6B C5B 1_555 1_555
H1B C6B 1_555 1_555
C7B C6B 1_555 1_555
H2B C7B 1_555 1_555
C8B C7B 1_555 1_555
H3B C8B 1_555 1_555
C9B C8B 1_555 1_555
H4B C9B 1_555 1_555
C10B C5B 1_555 1_555
C11B C10B 1_555 1_555
C12B C11B 1_555 1_555
H5B C12B 1_555 1_555
C13B C12B 1_555 1_555
H6B C13B 1_555 1_555
C14B C13B 1_555 1_555
H7B C14B 1_555 1_555
C15B C14B 1_555 1_555
H8B C15B 1_555 1_555
C16B C11B 1_555 1_555
C17B C4B 1_555 1_555
C18B O1B 1_555 1_555
C19B C1 1_555 1_555
C20B C1B 1_555 1_555
C21B C20B 1_555 1_555
H9B C21B 1_555 1_555
C22B C21B 1_555 1_555
H10B C22B 1_555 1_555
C23B C22B 1_555 1_555
H11B C23B 1_555 1_555
C24B C23B 1_555 1_555
H12B C24B 1_555 1_555
C25B C20B 1_555 1_555
H13B C25B 1_555 1_555
C26B C3B 1_555 1_555
C27B C26B 1_555 1_555
H14B C27B 1_555 1_555
C28B C27B 1_555 1_555
H15B C28B 1_555 1_555
C29B C28B 1_555 1_555
H16B C29B 1_555 1_555
C30B C29B 1_555 1_555
H17B C30B 1_555 1_555
C31B C26B 1_555 1_555
H18B C31B 1_555 1_555
C32B C18B 1_555 1_555
C33B C32B 1_555 1_555
H19B C33B 1_555 1_555
C34B C33B 1_555 1_555
H20B C34B 1_555 1_555
C35B C34B 1_555 1_555
H21B C35B 1_555 1_555
C36B C35B 1_555 1_555
H22B C36B 1_555 1_555
C37B C32B 1_555 1_555
H23B C37B 1_555 1_555
C9 C10 1_555 1_555
C15 C16 1_555 1_555
C16 C17 1_555 1_555
C17 C18 1_555 1_555
C18 C19 1_555 1_555
C24 C25 1_555 1_555
C30 C31 1_555 1_555
C36 C37 1_555 1_555
C2B C19B 1_555 1_555
C9B C10B 1_555 1_555
C15B C16B 1_555 1_555
C16B C17B 1_555 1_555
C17B C18B 1_555 1_555
C18B C19B 1_555 1_555
C24B C25B 1_555 1_555
C30B C31B 1_555 1_555
C36B C37B 1_555 1_555

#END
