
#######################################################################
#
#                 Cambridge Crystallographic Data Centre
#                                CCDC 
#
#######################################################################
#
# If this CIF has been generated from an entry in the Cambridge 
# Structural Database, then it will include bibliographic, chemical, 
# crystal, experimental, refinement or atomic coordinate data resulting 
# from the CCDC's data processing and validation procedures.
#
#######################################################################

data_SEWZEA
_chemical_formula_moiety         'C76 H50,2.5(C4 H8 O2)'
_chemical_name_systematic        
'9,11,20,22-Tetraphenyl-10,21-di-p-tolyltetrabenzo(a,c,l,n)pentacene ethyl acetate solvate'
_symmetry_cell_setting           monoclinic
_symmetry_space_group_name_H-M   'P 21'
_symmetry_Int_Tables_number      4
_space_group_name_Hall           'P 2yb'
loop_
_symmetry_equiv_pos_site_id
_symmetry_equiv_pos_as_xyz
1 x,y,z
2 -x,1/2+y,-z
_cell_length_a                   14.8577(3)
_cell_length_b                   29.2657(6)
_cell_length_c                   15.1524(5)
_cell_angle_alpha                90
_cell_angle_beta                 105.778(1)
_cell_angle_gamma                90
_cell_volume                     6340.34
_exptl_crystal_colour            orange
_exptl_crystal_description       Prism
_cell_formula_units_Z            4
_exptl_crystal_recrystallization_method 'ethyl acetate/ethanol'
loop_
_atom_site_label
_atom_site_type_symbol
_atom_site_fract_x
_atom_site_fract_y
_atom_site_fract_z
C77 C 0.9718(3) 0.58149(15) 0.9376(3)
H51 H 0.9826 0.54953 0.9446
C78 C 1.0416(3) 0.6111(2) 0.9834(3)
H52 H 1.0988 0.5997 1.0216
C79 C 1.0263(4) 0.6580(2) 0.9724(4)
H53 H 1.0731 0.6789 1.0036
C80 C 0.9427(4) 0.6741(2) 0.9161(3)
H54 H 0.9342 0.7061 0.9070
C81 C 0.8708(3) 0.64452(14) 0.8723(3)
C82 C 0.7810(3) 0.66177(13) 0.8203(3)
C83 C 0.7495(4) 0.70538(15) 0.8356(3)
H55 H 0.7894 0.72472 0.8796
C84 C 0.6625(4) 0.7210(2) 0.7886(4)
H56 H 0.6434 0.7510 0.7991
C85 C 0.6022(4) 0.6925(2) 0.7252(3)
H57 H 0.5405 0.7023 0.6954
C86 C 0.6322(3) 0.6504(2) 0.7062(3)
H58 H 0.5913 0.6317 0.6615
C87 C 0.7231(3) 0.63380(13) 0.7516(3)
C88 C 0.7531(3) 0.58597(13) 0.7410(3)
C89 C 0.7210(3) 0.55930(12) 0.6640(2)
C90 C 0.7395(2) 0.51005(12) 0.6717(2)
C91 C 0.7343(3) 0.48089(14) 0.5962(3)
C92 C 0.7268(2) 0.43290(13) 0.6116(2)
C93 C 0.7452(3) 0.39566(13) 0.5539(3)
C94 C 0.7106(3) 0.35254(13) 0.5657(2)
C95 C 0.7449(3) 0.30891(14) 0.5392(3)
C96 C 0.8367(3) 0.3020(2) 0.5359(3)
H59 H 0.8770 0.3276 0.5414
C97 C 0.8711(4) 0.2590(2) 0.5248(3)
H60 H 0.9337 0.2558 0.5216
C98 C 0.8158(4) 0.2211(2) 0.5184(4)
H61 H 0.8401 0.1916 0.5117
C99 C 0.7247(4) 0.2260(2) 0.5219(3)
H62 H 0.6862 0.1997 0.5175
C100 C 0.6879(3) 0.26903(14) 0.5320(3)
C101 C 0.5900(3) 0.27381(14) 0.5339(3)
C102 C 0.5213(4) 0.24151(14) 0.4959(3)
H63 H 0.5392 0.21420 0.4713
C103 C 0.4286(3) 0.24766(15) 0.4928(3)
H64 H 0.3834 0.22517 0.4656
C104 C 0.4016(3) 0.2877(2) 0.5303(3)
H65 H 0.3381 0.2925 0.5293
C105 C 0.4689(3) 0.31993(13) 0.5686(2)
H66 H 0.4498 0.34728 0.5921
C106 C 0.6348(3) 0.35037(14) 0.6103(3)
C107 C 0.5632(3) 0.31418(12) 0.5744(2)
C108 C 0.6339(3) 0.38044(12) 0.6779(3)
C109 C 0.6957(2) 0.42029(12) 0.6897(2)
C110 C 0.7202(3) 0.44712(13) 0.7688(2)
C111 C 0.7553(3) 0.49160(12) 0.7616(3)
C112 C 0.8076(3) 0.51950(13) 0.8368(2)
C113 C 0.8142(3) 0.56594(13) 0.8233(2)
C114 C 0.8860(3) 0.59669(13) 0.8816(3)
C115 C 0.6558(3) 0.57661(13) 0.5769(3)
C116 C 0.6788(4) 0.6122(2) 0.5266(3)
H67 H 0.7390 0.6258 0.5449
C117 C 0.6098(5) 0.6280(2) 0.4465(3)
H68 H 0.6247 0.6514 0.4093
C118 C 0.5238(5) 0.6092(2) 0.4249(4)
H69 H 0.4775 0.6210 0.3737
C119 C 0.5006(4) 0.5745(2) 0.4727(4)
H70 H 0.4398 0.5614 0.4545
C120 C 0.5666(3) 0.5583(2) 0.5484(3)
H71 H 0.5505 0.5337 0.5823
C121 C 0.7381(3) 0.49822(14) 0.5074(3)
C122 C 0.8103(3) 0.5253(2) 0.4961(3)
H72 H 0.8605 0.5329 0.5478
C123 C 0.8106(4) 0.5417(2) 0.4093(4)
H73 H 0.8614 0.5599 0.4029
C124 C 0.7384(4) 0.5320(2) 0.3335(3)
C125 C 0.6679(4) 0.5054(2) 0.3446(3)
H74 H 0.6180 0.4985 0.2921
C126 C 0.6646(3) 0.48791(15) 0.4274(3)
H75 H 0.6139 0.46907 0.4315
C127 C 0.8082(3) 0.40327(13) 0.4948(3)
C128 C 0.8965(3) 0.42338(15) 0.5279(3)
H76 H 0.9154 0.43405 0.5894
C129 C 0.9556(3) 0.4280(2) 0.4743(4)
H77 H 1.0157 0.4411 0.4987
C130 C 0.9277(4) 0.4133(2) 0.3823(4)
H78 H 0.9679 0.4172 0.3436
C131 C 0.8418(4) 0.3933(2) 0.3495(3)
H79 H 0.8232 0.3822 0.2883
C132 C 0.7822(3) 0.3893(2) 0.4047(3)
H80 H 0.7218 0.3765 0.3800
C133 C 0.5593(3) 0.38153(13) 0.7271(2)
C134 C 0.5467(3) 0.34765(13) 0.7865(3)
H81 H 0.5885 0.32243 0.7995
C135 C 0.4741(3) 0.35012(15) 0.8271(3)
H82 H 0.4680 0.32744 0.8700
C136 C 0.4097(3) 0.3858(2) 0.8053(3)
H83 H 0.3580 0.3872 0.8309
C137 C 0.4228(3) 0.4187(2) 0.7466(3)
H84 H 0.3803 0.4437 0.7327
C138 C 0.4935(3) 0.41710(12) 0.7077(2)
H85 H 0.4993 0.44050 0.6662
C139 C 0.7053(2) 0.43026(13) 0.8564(2)
C140 C 0.7518(3) 0.39136(15) 0.8993(3)
H86 H 0.7939 0.37567 0.8727
C141 C 0.7370(3) 0.3755(2) 0.9800(3)
H87 H 0.7705 0.3494 1.0089
C142 C 0.6743(3) 0.3969(2) 1.0202(3)
C143 C 0.6277(3) 0.4347(2) 0.9765(3)
H88 H 0.5834 0.4495 1.0015
C144 C 0.6441(3) 0.45156(15) 0.8971(3)
H89 H 0.6125 0.47842 0.8699
C145 C 0.8574(2) 0.49573(12) 0.9250(2)
C146 C 0.9251(3) 0.46370(14) 0.9237(3)
H90 H 0.9396 0.45694 0.8679
C147 C 0.9716(3) 0.4415(2) 1.0030(3)
H91 H 1.0172 0.4191 1.0009
C148 C 0.9537(3) 0.4509(2) 1.0834(3)
H92 H 0.9875 0.4357 1.1377
C149 C 0.8850(3) 0.4832(2) 1.0872(3)
H93 H 0.8702 0.4893 1.1432
C150 C 0.8388(3) 0.50637(15) 1.0070(3)
H94 H 0.7944 0.52948 1.0089
C151 C 0.7398(5) 0.5503(3) 0.2398(4)
H95 H 0.7330 0.5248 0.1964
H96 H 0.7992 0.5659 0.2447
H97 H 0.6880 0.5718 0.2178
C152 C 0.6566(4) 0.3773(3) 1.1060(4)
H98 H 0.6654 0.4012 1.1529
H99 H 0.7005 0.3522 1.1288
H100 H 0.5923 0.3657 1.0921
C1 C 0.0595(3) 0.38573(14) -0.1945(3)
H1 H 0.0433 0.41720 -0.1972
C2 C -0.0043(3) 0.3545(2) -0.2462(3)
H2 H -0.0628 0.3645 -0.2845
C3 C 0.0192(3) 0.3088(2) -0.2407(3)
H3 H -0.0238 0.2873 -0.2757
C4 C 0.1031(4) 0.2938(2) -0.1858(3)
H4 H 0.1172 0.2621 -0.1831
C5 C 0.1695(3) 0.32513(13) -0.1330(3)
C6 C 0.2585(3) 0.30985(14) -0.0727(3)
C7 C 0.2951(4) 0.26619(14) -0.0852(3)
H5 H 0.2603 0.24644 -0.1319
C8 C 0.3814(4) 0.2521(2) -0.0299(3)
H6 H 0.4051 0.2227 -0.0376
C9 C 0.4308(3) 0.28080(15) 0.0345(3)
H7 H 0.4904 0.27127 0.0712
C10 C 0.3984(3) 0.32358(14) 0.0495(3)
H8 H 0.4357 0.34284 0.0956
C11 C 0.3102(3) 0.33869(13) -0.0034(3)
C12 C 0.2739(3) 0.38525(13) 0.0045(3)
C13 C 0.2996(3) 0.41224(13) 0.0818(3)
C14 C 0.2795(3) 0.46104(13) 0.0724(2)
C15 C 0.2795(3) 0.49089(12) 0.1472(2)
C16 C 0.2882(2) 0.53858(13) 0.1336(2)
C17 C 0.2665(3) 0.57469(13) 0.1895(3)
C18 C 0.3047(3) 0.61810(13) 0.1829(2)
C19 C 0.2672(3) 0.66158(13) 0.2105(3)
C20 C 0.1731(3) 0.66726(15) 0.2078(3)
H9 H 0.1322 0.64169 0.1955
C21 C 0.1388(3) 0.7094(2) 0.2229(3)
H10 H 0.0750 0.7128 0.2221
C22 C 0.1981(3) 0.7470(2) 0.2392(3)
H11 H 0.1745 0.7763 0.2486
C23 C 0.2892(3) 0.74227(13) 0.2417(3)
H12 H 0.3287 0.76838 0.2540
C24 C 0.3281(3) 0.69956(14) 0.2268(3)
C25 C 0.4240(3) 0.69470(13) 0.2227(3)
C26 C 0.4936(3) 0.72674(13) 0.2657(3)
H13 H 0.4769 0.75213 0.2970
C27 C 0.5844(3) 0.72186(15) 0.2631(3)
H14 H 0.6295 0.74434 0.2903
C28 C 0.6105(3) 0.68413(14) 0.2207(2)
H15 H 0.6739 0.67999 0.2206
C29 C 0.5430(3) 0.65244(15) 0.1784(3)
H16 H 0.5614 0.62666 0.1494
C30 C 0.4489(3) 0.65713(13) 0.1770(3)
C31 C 0.3775(3) 0.62267(13) 0.1381(3)
C32 C 0.3791(3) 0.59145(13) 0.0690(2)
C33 C 0.3195(3) 0.55210(12) 0.0568(3)
C34 C 0.2938(3) 0.52554(13) -0.0246(3)
C35 C 0.2631(3) 0.47959(13) -0.0173(3)
C36 C 0.2150(2) 0.45113(13) -0.0919(2)
C37 C 0.2124(3) 0.40397(14) -0.0776(3)
C38 C 0.1458(3) 0.37216(14) -0.1395(3)
C39 C 0.3621(3) 0.39515(13) 0.1713(3)
C40 C 0.3344(4) 0.35946(14) 0.2196(3)
H17 H 0.2736 0.34664 0.1985
C41 C 0.3967(5) 0.3432(2) 0.2981(4)
H18 H 0.3777 0.3188 0.3303
C42 C 0.4832(5) 0.3605(2) 0.3309(3)
H19 H 0.5247 0.3482 0.3848
C43 C 0.5111(4) 0.3968(2) 0.2842(3)
H20 H 0.5720 0.4095 0.3065
C44 C 0.4515(3) 0.41399(14) 0.2073(3)
H21 H 0.4704 0.43924 0.1773
C45 C 0.2749(3) 0.47186(14) 0.2361(3)
C46 C 0.2024(3) 0.44272(15) 0.2413(3)
H22 H 0.1561 0.43493 0.1866
C47 C 0.1959(4) 0.4247(2) 0.3240(4)
H23 H 0.1447 0.4055 0.3251
C48 C 0.2617(4) 0.4342(2) 0.4033(4)
C49 C 0.3376(4) 0.4641(2) 0.4000(3)
H24 H 0.3850 0.4711 0.4544
C50 C 0.3411(3) 0.48249(15) 0.3171(3)
H25 H 0.3902 0.50300 0.3156
C51 C 0.2044(3) 0.56703(14) 0.2525(3)
C52 C 0.1182(3) 0.54580(15) 0.2209(3)
H26 H 0.0983 0.53480 0.1597
C53 C 0.0613(3) 0.5407(2) 0.2790(3)
H27 H 0.0024 0.5261 0.2564
C54 C 0.0865(4) 0.5557(2) 0.3667(4)
H28 H 0.0460 0.5519 0.4049
C55 C 0.1736(4) 0.5770(2) 0.4000(3)
H29 H 0.1935 0.5874 0.4617
C56 C 0.2298(3) 0.58269(15) 0.3426(3)
H30 H 0.2881 0.59785 0.3650
C57 C 0.4523(3) 0.59466(13) 0.0170(3)
C58 C 0.4585(3) 0.63255(15) -0.0381(3)
H31 H 0.4135 0.65640 -0.0470
C59 C 0.5316(4) 0.6347(2) -0.0797(3)
H32 H 0.5365 0.6603 -0.1167
C60 C 0.5955(4) 0.6006(2) -0.0677(3)
H33 H 0.6444 0.6026 -0.0970
C61 C 0.5910(3) 0.5631(2) -0.0136(3)
H34 H 0.6372 0.5399 -0.0043
C62 C 0.5178(3) 0.5599(2) 0.0269(3)
H35 H 0.5126 0.5336 0.0618
C63 C 0.3047(3) 0.54468(13) -0.1107(3)
C64 C 0.2586(3) 0.58528(14) -0.1478(3)
H36 H 0.2172 0.59977 -0.1185
C65 C 0.2730(3) 0.6040(2) -0.2256(3)
H37 H 0.2387 0.6306 -0.2505
C66 C 0.3349(3) 0.5861(2) -0.2693(3)
C67 C 0.3802(3) 0.5457(2) -0.2324(3)
H38 H 0.4228 0.5319 -0.2611
C68 C 0.3651(3) 0.52532(14) -0.1559(3)
H39 H 0.3965 0.49761 -0.1337
C69 C 0.1629(3) 0.47331(13) -0.1796(3)
C70 C 0.0958(3) 0.50659(14) -0.1790(3)
H40 H 0.0842 0.51518 -0.1227
C71 C 0.0462(3) 0.5271(2) -0.2594(3)
H41 H -0.0020 0.5482 -0.2584
C72 C 0.0658(3) 0.5173(2) -0.3413(3)
H42 H 0.0340 0.5326 -0.3963
C73 C 0.1323(3) 0.4852(2) -0.3408(3)
H43 H 0.1458 0.4777 -0.3969
C74 C 0.1803(3) 0.4633(2) -0.2619(3)
H44 H 0.2262 0.4411 -0.2643
C75 C 0.2575(6) 0.4124(3) 0.4944(4)
H45 H 0.1921 0.4069 0.4931
H46 H 0.2860 0.4332 0.5451
H47 H 0.2917 0.3834 0.5031
C76 C 0.3541(4) 0.6098(2) -0.3520(4)
H48 H 0.3504 0.5874 -0.4009
H49 H 0.4168 0.6233 -0.3342
H50 H 0.3075 0.6338 -0.3740
loop_
_geom_bond_atom_site_label_1
_geom_bond_atom_site_label_2
_geom_bond_site_symmetry_1
_geom_bond_site_symmetry_2
C1 H1 1_555 1_555
C2 C1 1_555 1_555
H2 C2 1_555 1_555
C3 C2 1_555 1_555
H3 C3 1_555 1_555
C4 C3 1_555 1_555
H4 C4 1_555 1_555
C5 C4 1_555 1_555
C6 C5 1_555 1_555
C7 C6 1_555 1_555
H5 C7 1_555 1_555
C8 C7 1_555 1_555
H6 C8 1_555 1_555
C9 C8 1_555 1_555
H7 C9 1_555 1_555
C10 C9 1_555 1_555
H8 C10 1_555 1_555
C11 C6 1_555 1_555
C12 C11 1_555 1_555
C13 C12 1_555 1_555
C14 C13 1_555 1_555
C15 C14 1_555 1_555
C16 C15 1_555 1_555
C17 C16 1_555 1_555
C18 C17 1_555 1_555
C19 C18 1_555 1_555
C20 C19 1_555 1_555
H9 C20 1_555 1_555
C21 C20 1_555 1_555
H10 C21 1_555 1_555
C22 C21 1_555 1_555
H11 C22 1_555 1_555
C23 C22 1_555 1_555
H12 C23 1_555 1_555
C24 C19 1_555 1_555
C25 C24 1_555 1_555
C26 C25 1_555 1_555
H13 C26 1_555 1_555
C27 C26 1_555 1_555
H14 C27 1_555 1_555
C28 C27 1_555 1_555
H15 C28 1_555 1_555
C29 C28 1_555 1_555
H16 C29 1_555 1_555
C30 C25 1_555 1_555
C31 C18 1_555 1_555
C32 C31 1_555 1_555
C33 C16 1_555 1_555
C34 C33 1_555 1_555
C35 C14 1_555 1_555
C36 C35 1_555 1_555
C37 C12 1_555 1_555
C38 C1 1_555 1_555
C39 C13 1_555 1_555
C40 C39 1_555 1_555
H17 C40 1_555 1_555
C41 C40 1_555 1_555
H18 C41 1_555 1_555
C42 C41 1_555 1_555
H19 C42 1_555 1_555
C43 C42 1_555 1_555
H20 C43 1_555 1_555
C44 C39 1_555 1_555
H21 C44 1_555 1_555
C45 C15 1_555 1_555
C46 C45 1_555 1_555
H22 C46 1_555 1_555
C47 C46 1_555 1_555
H23 C47 1_555 1_555
C48 C47 1_555 1_555
C49 C48 1_555 1_555
H24 C49 1_555 1_555
C50 C45 1_555 1_555
H25 C50 1_555 1_555
C51 C17 1_555 1_555
C52 C51 1_555 1_555
H26 C52 1_555 1_555
C53 C52 1_555 1_555
H27 C53 1_555 1_555
C54 C53 1_555 1_555
H28 C54 1_555 1_555
C55 C54 1_555 1_555
H29 C55 1_555 1_555
C56 C51 1_555 1_555
H30 C56 1_555 1_555
C57 C32 1_555 1_555
C58 C57 1_555 1_555
H31 C58 1_555 1_555
C59 C58 1_555 1_555
H32 C59 1_555 1_555
C60 C59 1_555 1_555
H33 C60 1_555 1_555
C61 C60 1_555 1_555
H34 C61 1_555 1_555
C62 C57 1_555 1_555
H35 C62 1_555 1_555
C63 C34 1_555 1_555
C64 C63 1_555 1_555
H36 C64 1_555 1_555
C65 C64 1_555 1_555
H37 C65 1_555 1_555
C66 C65 1_555 1_555
C67 C66 1_555 1_555
H38 C67 1_555 1_555
C68 C63 1_555 1_555
H39 C68 1_555 1_555
C69 C36 1_555 1_555
C70 C69 1_555 1_555
H40 C70 1_555 1_555
C71 C70 1_555 1_555
H41 C71 1_555 1_555
C72 C71 1_555 1_555
H42 C72 1_555 1_555
C73 C72 1_555 1_555
H43 C73 1_555 1_555
C74 C69 1_555 1_555
H44 C74 1_555 1_555
C75 C48 1_555 1_555
H45 C75 1_555 1_555
H46 C75 1_555 1_555
H47 C75 1_555 1_555
C76 C66 1_555 1_555
H48 C76 1_555 1_555
H49 C76 1_555 1_555
H50 C76 1_555 1_555
C77 H51 1_555 1_555
C78 C77 1_555 1_555
H52 C78 1_555 1_555
C79 C78 1_555 1_555
H53 C79 1_555 1_555
C80 C79 1_555 1_555
H54 C80 1_555 1_555
C81 C80 1_555 1_555
C82 C81 1_555 1_555
C83 C82 1_555 1_555
H55 C83 1_555 1_555
C84 C83 1_555 1_555
H56 C84 1_555 1_555
C85 C84 1_555 1_555
H57 C85 1_555 1_555
C86 C85 1_555 1_555
H58 C86 1_555 1_555
C87 C82 1_555 1_555
C88 C87 1_555 1_555
C89 C88 1_555 1_555
C90 C89 1_555 1_555
C91 C90 1_555 1_555
C92 C91 1_555 1_555
C93 C92 1_555 1_555
C94 C93 1_555 1_555
C95 C94 1_555 1_555
C96 C95 1_555 1_555
H59 C96 1_555 1_555
C97 C96 1_555 1_555
H60 C97 1_555 1_555
C98 C97 1_555 1_555
H61 C98 1_555 1_555
C99 C98 1_555 1_555
H62 C99 1_555 1_555
C100 C95 1_555 1_555
C101 C100 1_555 1_555
C102 C101 1_555 1_555
H63 C102 1_555 1_555
C103 C102 1_555 1_555
H64 C103 1_555 1_555
C104 C103 1_555 1_555
H65 C104 1_555 1_555
C105 C104 1_555 1_555
H66 C105 1_555 1_555
C106 C94 1_555 1_555
C107 C101 1_555 1_555
C108 C106 1_555 1_555
C109 C92 1_555 1_555
C110 C109 1_555 1_555
C111 C90 1_555 1_555
C112 C111 1_555 1_555
C113 C88 1_555 1_555
C114 C77 1_555 1_555
C115 C89 1_555 1_555
C116 C115 1_555 1_555
H67 C116 1_555 1_555
C117 C116 1_555 1_555
H68 C117 1_555 1_555
C118 C117 1_555 1_555
H69 C118 1_555 1_555
C119 C118 1_555 1_555
H70 C119 1_555 1_555
C120 C115 1_555 1_555
H71 C120 1_555 1_555
C121 C91 1_555 1_555
C122 C121 1_555 1_555
H72 C122 1_555 1_555
C123 C122 1_555 1_555
H73 C123 1_555 1_555
C124 C123 1_555 1_555
C125 C124 1_555 1_555
H74 C125 1_555 1_555
C126 C121 1_555 1_555
H75 C126 1_555 1_555
C127 C93 1_555 1_555
C128 C127 1_555 1_555
H76 C128 1_555 1_555
C129 C128 1_555 1_555
H77 C129 1_555 1_555
C130 C129 1_555 1_555
H78 C130 1_555 1_555
C131 C130 1_555 1_555
H79 C131 1_555 1_555
C132 C127 1_555 1_555
H80 C132 1_555 1_555
C133 C108 1_555 1_555
C134 C133 1_555 1_555
H81 C134 1_555 1_555
C135 C134 1_555 1_555
H82 C135 1_555 1_555
C136 C135 1_555 1_555
H83 C136 1_555 1_555
C137 C136 1_555 1_555
H84 C137 1_555 1_555
C138 C133 1_555 1_555
H85 C138 1_555 1_555
C139 C110 1_555 1_555
C140 C139 1_555 1_555
H86 C140 1_555 1_555
C141 C140 1_555 1_555
H87 C141 1_555 1_555
C142 C141 1_555 1_555
C143 C142 1_555 1_555
H88 C143 1_555 1_555
C144 C139 1_555 1_555
H89 C144 1_555 1_555
C145 C112 1_555 1_555
C146 C145 1_555 1_555
H90 C146 1_555 1_555
C147 C146 1_555 1_555
H91 C147 1_555 1_555
C148 C147 1_555 1_555
H92 C148 1_555 1_555
C149 C148 1_555 1_555
H93 C149 1_555 1_555
C150 C145 1_555 1_555
H94 C150 1_555 1_555
C151 C124 1_555 1_555
H95 C151 1_555 1_555
H96 C151 1_555 1_555
H97 C151 1_555 1_555
C152 C142 1_555 1_555
H98 C152 1_555 1_555
H99 C152 1_555 1_555
H100 C152 1_555 1_555
C5 C38 1_555 1_555
C10 C11 1_555 1_555
C23 C24 1_555 1_555
C29 C30 1_555 1_555
C30 C31 1_555 1_555
C32 C33 1_555 1_555
C34 C35 1_555 1_555
C36 C37 1_555 1_555
C37 C38 1_555 1_555
C43 C44 1_555 1_555
C49 C50 1_555 1_555
C55 C56 1_555 1_555
C61 C62 1_555 1_555
C67 C68 1_555 1_555
C73 C74 1_555 1_555
C81 C114 1_555 1_555
C86 C87 1_555 1_555
C99 C100 1_555 1_555
C105 C107 1_555 1_555
C106 C107 1_555 1_555
C108 C109 1_555 1_555
C110 C111 1_555 1_555
C112 C113 1_555 1_555
C113 C114 1_555 1_555
C119 C120 1_555 1_555
C125 C126 1_555 1_555
C131 C132 1_555 1_555
C137 C138 1_555 1_555
C143 C144 1_555 1_555
C149 C150 1_555 1_555

#END
