
#######################################################################
#
#                 Cambridge Crystallographic Data Centre
#                                CCDC 
#
#######################################################################
#
# If this CIF has been generated from an entry in the Cambridge 
# Structural Database, then it will include bibliographic, chemical, 
# crystal, experimental, refinement or atomic coordinate data resulting 
# from the CCDC's data processing and validation procedures.
#
#######################################################################

data_SEYCEF
_chemical_formula_moiety         'C6 H3 N3 O7,C13 H17 N3 O1'
_chemical_name_systematic        
'9-methyl-2-propyl-5,6-dihydro-4H-furo[2,3-f][1,2,4]triazolo[1,5-a]azepine picric acid'
_symmetry_cell_setting           monoclinic
_symmetry_space_group_name_H-M   'C c'
_symmetry_Int_Tables_number      9
_space_group_name_Hall           'C -2yc'
loop_
_symmetry_equiv_pos_site_id
_symmetry_equiv_pos_as_xyz
1 x,y,z
2 x,-y,1/2+z
3 1/2+x,1/2+y,z
4 1/2+x,1/2-y,1/2+z
_cell_length_a                   17.278(2)
_cell_length_b                   17.364(2)
_cell_length_c                   7.004(2)
_cell_angle_alpha                90
_cell_angle_beta                 97.13(2)
_cell_angle_gamma                90
_cell_volume                     2085.06
_exptl_crystal_colour            yellow
_exptl_crystal_description       Block
_chemical_melting_point          172-174deg.C
_cell_formula_units_Z            4
_exptl_crystal_recrystallization_method dichloromethane/methanol
loop_
_atom_site_label
_atom_site_type_symbol
_atom_site_fract_x
_atom_site_fract_y
_atom_site_fract_z
O1 O 0.4814(3) 0.6088(3) 0.6767(7)
O2 O 0.5358(12) 0.5007(16) 0.602(4)
O3 O 0.3715(4) 0.2805(3) 0.5197(11)
O4 O 0.2493(3) 0.2913(2) 0.4241(9)
O5 O 0.1477(3) 0.5429(3) 0.2313(7)
O6 O 0.1837(3) 0.6279(3) 0.4496(9)
O7 O 0.3422(3) 0.6357(2) 0.4672(7)
H1 H 0.3440 0.6557 0.5737
N1 N 0.4763(3) 0.5428(4) 0.6203(8)
N2 N 0.3143(4) 0.3191(3) 0.4701(9)
N3 N 0.1939(3) 0.5693(3) 0.3610(9)
C1 C 0.3363(3) 0.5650(3) 0.4831(9)
C2 C 0.3988(3) 0.5129(3) 0.5481(8)
C3 C 0.3927(4) 0.4346(3) 0.5394(8)
H2 H 0.4359 0.4036 0.5767
C4 C 0.3216(4) 0.4021(3) 0.4743(8)
C5 C 0.2580(3) 0.4465(3) 0.4142(9)
H3 H 0.2106 0.4238 0.3683
C6 C 0.2651(3) 0.5250(3) 0.4226(8)
O8 O 0.2688(3) 1.0592(2) 0.4099(7)
N4 N 0.4088(3) 0.7703(2) 0.4973(7)
N5 N 0.4665(3) 0.8815(3) 0.4688(7)
C7 C 0.3520(3) 0.8237(3) 0.4809(8)
C8 C 0.3977(4) 1.0365(3) 0.4570(8)
C9 C 0.3435(4) 1.0899(4) 0.4396(9)
H4 H 0.3540 1.1425 0.4462
C10 C 0.2776(4) 0.9812(3) 0.4115(10)
C11 C 0.2036(4) 0.9358(4) 0.3845(11)
H5 H 0.1689 0.9581 0.2794
H6 H 0.1782 0.9399 0.5002
C12 C 0.2158(4) 0.8508(4) 0.3416(12)
H7 H 0.1653 0.8255 0.3270
H8 H 0.2363 0.8471 0.2191
C13 C 0.2685(4) 0.8081(3) 0.4871(10)
H9 H 0.2556 0.8214 0.6140
H10 H 0.2592 0.7534 0.4685
N6 N 0.3868(3) 0.8908(2) 0.4620(6)
C14 C 0.3547(3) 0.9659(3) 0.4418(7)
C15 C 0.4825(4) 1.0521(3) 0.4899(10)
H11 H 0.4911 1.1062 0.5113
H12 H 0.5061 1.0363 0.3791
H13 H 0.5055 1.0239 0.6006
C16 C 0.4775(3) 0.8084(3) 0.4916(9)
C17 C 0.5546(4) 0.7686(3) 0.5089(11)
H14 H 0.5635 0.7442 0.6343
H15 H 0.5950 0.8071 0.5039
C18 C 0.5634(5) 0.7085(4) 0.3576(13)
H16 H 0.6120 0.6810 0.3920
H17 H 0.5211 0.6717 0.3551
C19 C 0.5632(6) 0.7425(5) 0.1599(15)
H18 H 0.6018 0.7824 0.1640
H19 H 0.5127 0.7638 0.1177
H20 H 0.5749 0.7030 0.0720
O9? O 0.5198(17) 0.5019(15) 0.681(5)
loop_
_geom_bond_atom_site_label_1
_geom_bond_atom_site_label_2
_geom_bond_site_symmetry_1
_geom_bond_site_symmetry_2
O1 N1 1_555 1_555
O2 N1 1_555 1_555
O3 N2 1_555 1_555
O4 N2 1_555 1_555
O5 N3 1_555 1_555
O6 N3 1_555 1_555
O7 H1 1_555 1_555
N1 C2 1_555 1_555
N2 C4 1_555 1_555
N3 C6 1_555 1_555
C1 O7 1_555 1_555
C2 C1 1_555 1_555
C3 C2 1_555 1_555
H2 C3 1_555 1_555
C4 C3 1_555 1_555
C5 C4 1_555 1_555
H3 C5 1_555 1_555
C6 C1 1_555 1_555
O8 C9 1_555 1_555
N4 C7 1_555 1_555
N5 N6 1_555 1_555
C7 C13 1_555 1_555
C8 C9 1_555 1_555
C9 H4 1_555 1_555
C10 O8 1_555 1_555
C11 C10 1_555 1_555
H5 C11 1_555 1_555
H6 C11 1_555 1_555
C12 C11 1_555 1_555
H7 C12 1_555 1_555
H8 C12 1_555 1_555
C13 C12 1_555 1_555
H9 C13 1_555 1_555
H10 C13 1_555 1_555
N6 C7 1_555 1_555
C14 C8 1_555 1_555
C15 C8 1_555 1_555
H11 C15 1_555 1_555
H12 C15 1_555 1_555
H13 C15 1_555 1_555
C16 N4 1_555 1_555
C17 C16 1_555 1_555
H14 C17 1_555 1_555
H15 C17 1_555 1_555
C18 C17 1_555 1_555
H16 C18 1_555 1_555
H17 C18 1_555 1_555
C19 C18 1_555 1_555
H18 C19 1_555 1_555
H19 C19 1_555 1_555
H20 C19 1_555 1_555
C5 C6 1_555 1_555
N5 C16 1_555 1_555
C10 C14 1_555 1_555
N6 C14 1_555 1_555

#END
