
#######################################################################
#
#                 Cambridge Crystallographic Data Centre
#                                CCDC 
#
#######################################################################
#
# If this CIF has been generated from an entry in the Cambridge 
# Structural Database, then it will include bibliographic, chemical, 
# crystal, experimental, refinement or atomic coordinate data resulting 
# from the CCDC's data processing and validation procedures.
#
#######################################################################

data_SEYCOP
_chemical_formula_moiety         'C18 H13 N1'
_chemical_name_systematic        7-methylbenzo[c]acridine
_symmetry_cell_setting           monoclinic
_symmetry_space_group_name_H-M   'P 21/c'
_symmetry_Int_Tables_number      14
_space_group_name_Hall           '-P 2ybc'
loop_
_symmetry_equiv_pos_site_id
_symmetry_equiv_pos_as_xyz
1 x,y,z
2 -x,1/2+y,1/2-z
3 -x,-y,-z
4 x,1/2-y,1/2+z
_cell_length_a                   5.84890(10)
_cell_length_b                   14.86250(10)
_cell_length_c                   14.5162(3)
_cell_angle_alpha                90
_cell_angle_beta                 98.835(2)
_cell_angle_gamma                90
_cell_volume                     1246.91
_exptl_crystal_colour            yellow
_exptl_crystal_description       block
_cell_formula_units_Z            4
loop_
_atom_site_label
_atom_site_type_symbol
_atom_site_fract_x
_atom_site_fract_y
_atom_site_fract_z
N1 N 0.1866(5) 0.6740(2) 0.8368(2)
C1 C 0.2480(6) 0.7232(2) 0.9138(3)
C2 C 0.4382(6) 0.7872(3) 0.9144(3)
C3 C 0.1395(6) 0.7168(3) 0.9955(3)
C4 C 0.0124(6) 0.6140(3) 0.8355(3)
C5 C -0.1096(6) 0.6022(3) 0.9129(3)
C6 C -0.0411(6) 0.6554(3) 0.9945(3)
C7 C -0.0522(7) 0.5611(3) 0.7520(3)
H1 H 0.0266 0.5695 0.7017
C8 C 0.5615(7) 0.7926(3) 0.8390(3)
H2 H 0.5222 0.7557 0.7872
C9 C 0.6846(7) 0.9040(3) 0.9911(3)
H3 H 0.7257 0.9418 1.0419
C10 C 0.5032(7) 0.8436(3) 0.9918(3)
C11 C -0.2912(7) 0.5361(3) 0.8996(3)
H4 H -0.3753 0.5256 0.9480
C12 C 0.7420(7) 0.8531(3) 0.8423(3)
H5 H 0.8244 0.8562 0.7925
C13 C 0.8025(7) 0.9089(3) 0.9182(3)
H6 H 0.9235 0.9497 0.9191
C14 C 0.2202(7) 0.7750(3) 1.0739(3)
H7 H 0.1527 0.7704 1.1277
C15 C 0.3884(7) 0.8346(3) 1.0710(3)
H8 H 0.4323 0.8717 1.1222
C16 C -0.3453(8) 0.4881(3) 0.8189(3)
H9 H -0.4658 0.4467 0.8132
C17 C -0.1694(6) 0.6445(3) 1.0772(3)
H10 H -0.1038 0.6842 1.1264
H11 H -0.1557 0.5835 1.0988
H12 H -0.3297 0.6590 1.0585
C18 C -0.2226(7) 0.5006(3) 0.7456(3)
H13 H -0.2590 0.4666 0.6916
loop_
_geom_bond_atom_site_label_1
_geom_bond_atom_site_label_2
_geom_bond_site_symmetry_1
_geom_bond_site_symmetry_2
N1 C1 1_555 1_555
C1 C2 1_555 1_555
C2 C8 1_555 1_555
C3 C1 1_555 1_555
C4 N1 1_555 1_555
C5 C4 1_555 1_555
C6 C3 1_555 1_555
C7 C4 1_555 1_555
H1 C7 1_555 1_555
C8 H2 1_555 1_555
C9 H3 1_555 1_555
C10 C2 1_555 1_555
C11 C5 1_555 1_555
H4 C11 1_555 1_555
C12 C8 1_555 1_555
H5 C12 1_555 1_555
C13 C9 1_555 1_555
H6 C13 1_555 1_555
C14 C3 1_555 1_555
H7 C14 1_555 1_555
C15 C10 1_555 1_555
H8 C15 1_555 1_555
C16 C11 1_555 1_555
H9 C16 1_555 1_555
C17 C6 1_555 1_555
H10 C17 1_555 1_555
H11 C17 1_555 1_555
H12 C17 1_555 1_555
C18 C7 1_555 1_555
H13 C18 1_555 1_555
C5 C6 1_555 1_555
C9 C10 1_555 1_555
C12 C13 1_555 1_555
C14 C15 1_555 1_555
C16 C18 1_555 1_555

#END
