
#######################################################################
#
#                 Cambridge Crystallographic Data Centre
#                                CCDC 
#
#######################################################################
#
# If this CIF has been generated from an entry in the Cambridge 
# Structural Database, then it will include bibliographic, chemical, 
# crystal, experimental, refinement or atomic coordinate data resulting 
# from the CCDC's data processing and validation procedures.
#
#######################################################################

data_SEYDEI
_chemical_formula_moiety         'C37 H26 N1 O2 P1 S1'
_chemical_name_systematic        
(4-(diphenylphosphoryl)phenyl)(4-(10H-phenothiazin-10-yl)phenyl)methanone
_symmetry_cell_setting           triclinic
_symmetry_space_group_name_H-M   'P -1'
_symmetry_Int_Tables_number      2
_space_group_name_Hall           '-P 1'
loop_
_symmetry_equiv_pos_site_id
_symmetry_equiv_pos_as_xyz
1 x,y,z
2 -x,-y,-z
_cell_length_a                   9.2070(5)
_cell_length_b                   11.9330(7)
_cell_length_c                   14.0261(9)
_cell_angle_alpha                102.918(5)
_cell_angle_beta                 98.844(5)
_cell_angle_gamma                100.594(5)
_cell_volume                     1445.55
_exptl_crystal_colour            colorless
_exptl_crystal_description       block
_cell_formula_units_Z            2
_exptl_crystal_recrystallization_method 
'Re-crystallisation from solvent: Dichloromethane/Hexane'
_exptl_crystal_preparation       ', Luminescent'
loop_
_atom_site_label
_atom_site_type_symbol
_atom_site_fract_x
_atom_site_fract_y
_atom_site_fract_z
P1 P 0.90663(5) 0.27589(4) 0.58862(3)
S1 S 0.79115(8) 0.80649(5) -0.01270(4)
O1 O 1.03788(15) 0.25254(13) 0.54440(9)
O2 O 0.33911(15) 0.36476(13) 0.27447(12)
N1 N 0.60887(18) 0.82720(14) 0.14337(11)
C1 C 0.6271(2) 0.62680(16) 0.30894(13)
H1 H 0.6866 0.6247 0.3682
C2 C 0.5794(2) 0.40150(15) 0.37516(13)
C3 C 0.9565(2) 0.38334(16) 0.70848(13)
C4 C 0.5751(2) 0.72849(16) 0.18215(12)
C5 C 0.6585(2) 0.72433(16) 0.27240(12)
H2 H 0.7362 0.7882 0.3084
C6 C 0.5080(2) 0.53086(16) 0.25904(13)
C7 C 0.4565(2) 0.63169(18) 0.13071(14)
H3 H 0.4001 0.6321 0.0698
C8 C 0.7776(2) 0.32930(15) 0.50803(12)
C9 C 0.7556(2) 0.90637(16) 0.17472(13)
C10 C 0.5332(2) 0.36594(15) 0.45541(13)
H4 H 0.4352 0.3652 0.4646
C11 C 0.9319(2) 0.49653(17) 0.72066(14)
H5 H 0.8796 0.5169 0.6673
C12 C 0.7940(2) 0.14502(16) 0.60731(13)
C13 C 0.5291(2) 0.82831(16) 0.04760(14)
C14 C 0.4655(2) 0.42888(16) 0.30044(13)
C15 C 0.6316(2) 0.33171(16) 0.52170(13)
H6 H 0.6001 0.3100 0.5762
C16 C 0.7007(2) 0.14923(17) 0.67625(15)
H7 H 0.6998 0.2215 0.7180
C17 C 0.7265(2) 0.40234(18) 0.36270(14)
H8 H 0.7597 0.4282 0.3103
C18 C 0.8526(2) 0.90445(17) 0.10820(15)
C19 C 0.7991(2) 0.98748(18) 0.26735(14)
H9 H 0.7334 0.9906 0.3116
C20 C 0.8239(2) 0.36486(17) 0.42786(14)
H10 H 0.9211 0.3635 0.4177
C21 C 0.7956(3) 0.03631(18) 0.54650(14)
H11 H 0.8589 0.0317 0.5008
C22 C 0.9851(2) 0.57912(19) 0.81192(16)
H12 H 0.9681 0.6548 0.8198
C23 C 0.9932(3) 0.9818(2) 0.13549(18)
H13 H 1.0583 0.9804 0.0910
C24 C 0.6015(3) 0.81952(16) -0.03171(14)
C25 C 1.0327(2) 0.3541(2) 0.78948(15)
H14 H 1.0474 0.2779 0.7829
C26 C 0.4231(2) 0.53633(17) 0.16961(14)
H15 H 0.3421 0.4741 0.1355
C27 C 1.0626(3) 0.5498(2) 0.89046(16)
H16 H 1.0991 0.6060 0.9514
C28 C 0.6094(2) 0.04733(19) 0.68339(17)
H17 H 0.5472 0.0509 0.7298
C29 C 0.9396(3) 1.0638(2) 0.29428(16)
H18 H 0.9689 1.1173 0.3569
C30 C 1.0364(3) 1.0606(2) 0.22843(18)
H19 H 1.1311 1.1118 0.2468
C31 C 0.6104(3) -0.0596(2) 0.62171(17)
H20 H 0.5479 -0.1282 0.6261
C32 C 0.7023(3) -0.06582(19) 0.55413(17)
H21 H 0.7027 -0.1386 0.5130
C33 C 0.3814(3) 0.8430(2) 0.03499(18)
H22 H 0.3331 0.8519 0.0889
C34 C 1.0869(3) 0.4377(2) 0.87998(16)
H23 H 1.1396 0.4182 0.9337
C35 C 0.5259(4) 0.8234(2) -0.12471(17)
H24 H 0.5751 0.8190 -0.1781
C36 C 0.3786(5) 0.8336(2) -0.1370(2)
H25 H 0.3271 0.8332 -0.1996
C37 C 0.3069(4) 0.8442(2) -0.0582(2)
H26 H 0.2076 0.8523 -0.0671
loop_
_geom_bond_atom_site_label_1
_geom_bond_atom_site_label_2
_geom_bond_site_symmetry_1
_geom_bond_site_symmetry_2
P1 O1 1_555 1_555
S1 C18 1_555 1_555
O2 C14 1_555 1_555
N1 C4 1_555 1_555
C1 H1 1_555 1_555
C2 C10 1_555 1_555
C3 P1 1_555 1_555
C4 C5 1_555 1_555
C5 C1 1_555 1_555
H2 C5 1_555 1_555
C6 C1 1_555 1_555
C7 C4 1_555 1_555
H3 C7 1_555 1_555
C8 P1 1_555 1_555
C9 N1 1_555 1_555
C10 H4 1_555 1_555
C11 C3 1_555 1_555
H5 C11 1_555 1_555
C12 P1 1_555 1_555
C13 N1 1_555 1_555
C14 C2 1_555 1_555
C15 C8 1_555 1_555
H6 C15 1_555 1_555
C16 C12 1_555 1_555
H7 C16 1_555 1_555
C17 C2 1_555 1_555
H8 C17 1_555 1_555
C18 C9 1_555 1_555
C19 C9 1_555 1_555
H9 C19 1_555 1_555
C20 C8 1_555 1_555
H10 C20 1_555 1_555
C21 C12 1_555 1_555
H11 C21 1_555 1_555
C22 C11 1_555 1_555
H12 C22 1_555 1_555
C23 C18 1_555 1_555
H13 C23 1_555 1_555
C24 S1 1_555 1_555
C25 C3 1_555 1_555
H14 C25 1_555 1_555
C26 C6 1_555 1_555
H15 C26 1_555 1_555
C27 C22 1_555 1_555
H16 C27 1_555 1_555
C28 C16 1_555 1_555
H17 C28 1_555 1_555
C29 C19 1_555 1_555
H18 C29 1_555 1_555
C30 C23 1_555 1_555
H19 C30 1_555 1_555
C31 C28 1_555 1_555
H20 C31 1_555 1_555
C32 C21 1_555 1_555
H21 C32 1_555 1_555
C33 C13 1_555 1_555
H22 C33 1_555 1_555
C34 C25 1_555 1_555
H23 C34 1_555 1_555
C35 C24 1_555 1_555
H24 C35 1_555 1_555
C36 C35 1_555 1_555
H25 C36 1_555 1_555
C37 C33 1_555 1_555
H26 C37 1_555 1_555
C6 C14 1_555 1_555
C7 C26 1_555 1_555
C10 C15 1_555 1_555
C13 C24 1_555 1_555
C17 C20 1_555 1_555
C27 C34 1_555 1_555
C29 C30 1_555 1_555
C31 C32 1_555 1_555
C36 C37 1_555 1_555

#END
