
#######################################################################
#
#                 Cambridge Crystallographic Data Centre
#                                CCDC 
#
#######################################################################
#
# If this CIF has been generated from an entry in the Cambridge 
# Structural Database, then it will include bibliographic, chemical, 
# crystal, experimental, refinement or atomic coordinate data resulting 
# from the CCDC's data processing and validation procedures.
#
#######################################################################

data_SEYDOS
_chemical_formula_moiety         'C36 H26 N1 O3 P1 S2'
_chemical_name_systematic        
10-(4-((4-(diphenylphosphoryl)phenyl)sulfonyl)phenyl)-10H-phenothiazine
_symmetry_cell_setting           tetragonal
_symmetry_space_group_name_H-M   'I 41/a'
_symmetry_Int_Tables_number      88
_space_group_name_Hall           '-I 4ad'
loop_
_symmetry_equiv_pos_site_id
_symmetry_equiv_pos_as_xyz
1 x,y,z
2 3/4-y,1/4+x,1/4+z
3 -x,1/2-y,z
4 1/4+y,1/4-x,1/4+z
5 1/2+x,1/2+y,1/2+z
6 1/4-y,3/4+x,3/4+z
7 1/2-x,-y,1/2+z
8 3/4+y,3/4-x,3/4+z
9 -x,-y,-z
10 1/4+y,3/4-x,3/4-z
11 x,1/2+y,-z
12 3/4-y,3/4+x,3/4-z
13 1/2-x,1/2-y,1/2-z
14 3/4+y,1/4-x,1/4-z
15 1/2+x,y,1/2-z
16 1/4-y,1/4+x,1/4-z
_cell_length_a                   34.8219(11)
_cell_length_b                   34.8219(11)
_cell_length_c                   9.9098(3)
_cell_angle_alpha                90
_cell_angle_beta                 90
_cell_angle_gamma                90
_cell_volume                     12016.3
_exptl_crystal_colour            yellow
_exptl_crystal_description       block
_cell_formula_units_Z            16
loop_
_atom_site_label
_atom_site_type_symbol
_atom_site_fract_x
_atom_site_fract_y
_atom_site_fract_z
S1 S 0.24219(3) 0.20809(3) 0.00169(9)
P1 P 0.30731(3) 0.08471(3) 0.41279(10)
S2 S 0.45126(3) 0.26404(3) -0.26427(11)
O1 O 0.21751(7) 0.18628(8) -0.0855(3)
O2 O 0.22619(8) 0.23848(8) 0.0820(3)
O3 O 0.30996(10) 0.04709(9) 0.3446(3)
C1 C 0.27948(10) 0.22719(10) -0.0948(3)
C2 C 0.29724(11) 0.26127(11) -0.0593(4)
H1 H 0.2892 0.2744 0.0173
C3 C 0.33947(10) 0.25627(10) -0.2525(3)
N1 N 0.36921(9) 0.27146(8) -0.3309(3)
C4 C 0.32191(11) 0.22183(11) -0.2849(4)
H2 H 0.3303 0.2081 -0.3597
C5 C 0.36747(11) 0.34169(11) -0.3125(4)
H3 H 0.3418 0.3417 -0.3380
C6 C 0.26053(11) 0.13619(11) 0.0870(4)
H4 H 0.2489 0.1279 0.0076
C7 C 0.26398(10) 0.17476(11) 0.1137(4)
C8 C 0.29221(11) 0.20760(11) -0.2084(4)
H5 H 0.2805 0.1846 -0.2329
C9 C 0.38976(11) 0.24826(10) -0.4263(4)
C10 C 0.37238(12) 0.23448(12) -0.5423(4)
H6 H 0.3469 0.2404 -0.5611
C11 C 0.42843(11) 0.24192(11) -0.4039(4)
C12 C 0.32665(11) 0.27585(11) -0.1364(4)
H7 H 0.3382 0.2989 -0.1117
C13 C 0.27449(11) 0.10959(12) 0.1793(4)
H8 H 0.2718 0.0835 0.1623
C14 C 0.38717(11) 0.30738(11) -0.3008(4)
C15 C 0.29240(11) 0.12185(11) 0.2962(4)
C16 C 0.29655(12) 0.16076(12) 0.3200(4)
H9 H 0.3091 0.1691 0.3975
C17 C 0.35216(12) 0.09993(12) 0.4838(4)
C18 C 0.38610(13) 0.37590(12) -0.2862(4)
H10 H 0.3727 0.3990 -0.2925
C19 C 0.38551(13) 0.08917(14) 0.4174(5)
H11 H 0.3839 0.0750 0.3380
C20 C 0.28214(12) 0.18752(12) 0.2294(4)
H12 H 0.2847 0.2137 0.2463
C21 C 0.42432(14) 0.37611(13) -0.2509(4)
H13 H 0.4366 0.3992 -0.2320
C22 C 0.44921(13) 0.21964(12) -0.4934(5)
H14 H 0.4752 0.2151 -0.4784
C23 C 0.39203(16) 0.13145(18) 0.6500(5)
H15 H 0.3942 0.1460 0.7284
C24 C 0.42575(11) 0.30767(11) -0.2680(4)
C25 C 0.39337(15) 0.21173(14) -0.6302(5)
H16 H 0.3817 0.2015 -0.7067
C26 C 0.42438(16) 0.11999(16) 0.5822(6)
H17 H 0.4486 0.1265 0.6147
C27 C 0.44435(12) 0.34213(13) -0.2436(4)
H18 H 0.4704 0.3423 -0.2222
C28 C 0.43148(16) 0.20422(14) -0.6041(5)
H19 H 0.4453 0.1885 -0.6624
C29 C 0.27304(13) 0.08625(15) 0.5493(4)
C30 C 0.35613(14) 0.12137(16) 0.6018(5)
H20 H 0.3343 0.1290 0.6487
C31 C 0.2219(2) 0.0864(3) 0.7610(7)
H21 H 0.2049 0.0870 0.8333
C32 C 0.42069(15) 0.09901(16) 0.4668(6)
H22 H 0.4426 0.0912 0.4208
C33 C 0.2486(2) 0.0593(3) 0.7560(7)
H23 H 0.2504 0.0411 0.8245
C34 C 0.2451(2) 0.11292(18) 0.5591(7)
H24 H 0.2432 0.1319 0.4934
C35 C 0.27444(19) 0.0583(3) 0.6450(7)
H25 H 0.2923 0.0385 0.6378
C36 C 0.2190(3) 0.1126(2) 0.6650(9)
H26 H 0.1995 0.1308 0.6685
loop_
_geom_bond_atom_site_label_1
_geom_bond_atom_site_label_2
_geom_bond_site_symmetry_1
_geom_bond_site_symmetry_2
S1 O1 1_555 1_555
P1 O3 1_555 1_555
S2 C11 1_555 1_555
O2 S1 1_555 1_555
C1 S1 1_555 1_555
C2 C1 1_555 1_555
H1 C2 1_555 1_555
C3 N1 1_555 1_555
N1 C9 1_555 1_555
C4 C3 1_555 1_555
H2 C4 1_555 1_555
C5 H3 1_555 1_555
C6 H4 1_555 1_555
C7 S1 1_555 1_555
C8 C1 1_555 1_555
H5 C8 1_555 1_555
C9 C10 1_555 1_555
C10 H6 1_555 1_555
C11 C9 1_555 1_555
C12 C2 1_555 1_555
H7 C12 1_555 1_555
C13 C6 1_555 1_555
H8 C13 1_555 1_555
C14 N1 1_555 1_555
C15 P1 1_555 1_555
C16 C15 1_555 1_555
H9 C16 1_555 1_555
C17 P1 1_555 1_555
C18 C5 1_555 1_555
H10 C18 1_555 1_555
C19 C17 1_555 1_555
H11 C19 1_555 1_555
C20 C7 1_555 1_555
H12 C20 1_555 1_555
C21 C18 1_555 1_555
H13 C21 1_555 1_555
C22 C11 1_555 1_555
H14 C22 1_555 1_555
C23 H15 1_555 1_555
C24 S2 1_555 1_555
C25 C10 1_555 1_555
H16 C25 1_555 1_555
C26 C23 1_555 1_555
H17 C26 1_555 1_555
C27 C21 1_555 1_555
H18 C27 1_555 1_555
C28 C22 1_555 1_555
H19 C28 1_555 1_555
C29 P1 1_555 1_555
C30 C17 1_555 1_555
H20 C30 1_555 1_555
C31 H21 1_555 1_555
C32 C19 1_555 1_555
H22 C32 1_555 1_555
C33 C31 1_555 1_555
H23 C33 1_555 1_555
C34 C29 1_555 1_555
H24 C34 1_555 1_555
C35 C29 1_555 1_555
H25 C35 1_555 1_555
C36 C31 1_555 1_555
H26 C36 1_555 1_555
C3 C12 1_555 1_555
C4 C8 1_555 1_555
C5 C14 1_555 1_555
C6 C7 1_555 1_555
C13 C15 1_555 1_555
C14 C24 1_555 1_555
C16 C20 1_555 1_555
C23 C30 1_555 1_555
C24 C27 1_555 1_555
C25 C28 1_555 1_555
C26 C32 1_555 1_555
C33 C35 1_555 1_555
C34 C36 1_555 1_555

#END
