
#######################################################################
#
#                 Cambridge Crystallographic Data Centre
#                                CCDC 
#
#######################################################################
#
# If this CIF has been generated from an entry in the Cambridge 
# Structural Database, then it will include bibliographic, chemical, 
# crystal, experimental, refinement or atomic coordinate data resulting 
# from the CCDC's data processing and validation procedures.
#
#######################################################################

data_SEYHIP
_chemical_formula_moiety         'C15 H10 Br2 N2'
_chemical_name_systematic        
(4-Bromophenyl)(2-bromo-1-phenylvinyl)cyanamide
_symmetry_cell_setting           monoclinic
_symmetry_space_group_name_H-M   'P 21/c'
_symmetry_Int_Tables_number      14
_space_group_name_Hall           '-P 2ybc'
loop_
_symmetry_equiv_pos_site_id
_symmetry_equiv_pos_as_xyz
1 x,y,z
2 -x,1/2+y,1/2-z
3 -x,-y,-z
4 x,1/2-y,1/2+z
_cell_length_a                   13.8463(13)
_cell_length_b                   10.1510(11)
_cell_length_c                   10.2472(8)
_cell_angle_alpha                90
_cell_angle_beta                 91.449(8)
_cell_angle_gamma                90
_cell_volume                     1439.82
_exptl_crystal_colour            colorless
_exptl_crystal_description       block
_cell_formula_units_Z            4
loop_
_atom_site_label
_atom_site_type_symbol
_atom_site_fract_x
_atom_site_fract_y
_atom_site_fract_z
C1 C 0.7206(3) 0.9117(4) 0.8954(5)
H1 H 0.6922 0.8466 0.9454
C2 C 0.7016(3) 0.9099(4) 0.7686(4)
C3 C 0.6388(3) 0.8095(5) 0.7076(5)
C4 C 0.6422(4) 0.6805(5) 0.7515(6)
H2 H 0.6883 0.6554 0.8143
C5 C 0.5777(7) 0.5901(7) 0.7022(9)
H3 H 0.5806 0.5033 0.7312
C6 C 0.5103(6) 0.6255(11) 0.6123(11)
H4 H 0.4653 0.5639 0.5823
C7 C 0.5074(4) 0.7507(9) 0.5648(7)
H5 H 0.4618 0.7742 0.5008
C8 C 0.5725(3) 0.8417(5) 0.6124(5)
H6 H 0.5714 0.9269 0.5790
C9 C 0.7115(3) 1.1360(5) 0.7066(5)
C10 C 0.7937(3) 0.9797(4) 0.5747(4)
C11 C 0.7983(3) 1.0671(4) 0.4709(4)
H7 H 0.7600 1.1424 0.4691
C12 C 0.8601(4) 1.0415(5) 0.3702(5)
H8 H 0.8654 1.1011 0.3018
C13 C 0.9134(3) 0.9285(5) 0.3713(4)
C14 C 0.9062(3) 0.8391(5) 0.4710(5)
H9 H 0.9412 0.7610 0.4695
C15 C 0.8463(3) 0.8661(4) 0.5740(4)
H10 H 0.8420 0.8067 0.6427
Br1 Br 0.79953(4) 1.03349(6) 0.98309(5)
Br2 Br 1.00161(4) 0.89783(7) 0.23608(5)
N1 N 0.7358(2) 1.0104(3) 0.6844(3)
N2 N 0.6906(3) 1.2426(4) 0.7229(5)
loop_
_geom_bond_atom_site_label_1
_geom_bond_atom_site_label_2
_geom_bond_site_symmetry_1
_geom_bond_site_symmetry_2
C1 H1 1_555 1_555
C2 C1 1_555 1_555
C3 C2 1_555 1_555
C4 C3 1_555 1_555
H2 C4 1_555 1_555
C5 C4 1_555 1_555
H3 C5 1_555 1_555
C6 C5 1_555 1_555
H4 C6 1_555 1_555
C7 C6 1_555 1_555
H5 C7 1_555 1_555
C8 C3 1_555 1_555
H6 C8 1_555 1_555
C9 N1 1_555 1_555
C10 C11 1_555 1_555
C11 H7 1_555 1_555
C12 C11 1_555 1_555
H8 C12 1_555 1_555
C13 C12 1_555 1_555
C14 C13 1_555 1_555
H9 C14 1_555 1_555
C15 C10 1_555 1_555
H10 C15 1_555 1_555
Br1 C1 1_555 1_555
Br2 C13 1_555 1_555
N1 C2 1_555 1_555
N2 C9 1_555 1_555
C7 C8 1_555 1_555
C10 N1 1_555 1_555
C14 C15 1_555 1_555

#END
