
#######################################################################
#
#                 Cambridge Crystallographic Data Centre
#                                CCDC 
#
#######################################################################
#
# If this CIF has been generated from an entry in the Cambridge 
# Structural Database, then it will include bibliographic, chemical, 
# crystal, experimental, refinement or atomic coordinate data resulting 
# from the CCDC's data processing and validation procedures.
#
#######################################################################

data_SEYHEL
_chemical_formula_moiety         'C15 H10 Br1 Cl1 N2'
_chemical_name_systematic        
(2-Bromo-1-phenylvinyl)(4-chlorophenyl)cyanamide
_symmetry_cell_setting           monoclinic
_symmetry_space_group_name_H-M   'P 21/c'
_symmetry_Int_Tables_number      14
_space_group_name_Hall           '-P 2ybc'
loop_
_symmetry_equiv_pos_site_id
_symmetry_equiv_pos_as_xyz
1 x,y,z
2 -x,1/2+y,1/2-z
3 -x,-y,-z
4 x,1/2-y,1/2+z
_cell_length_a                   13.4990(12)
_cell_length_b                   10.1988(9)
_cell_length_c                   10.2864(11)
_cell_angle_alpha                90
_cell_angle_beta                 92.0190(10)
_cell_angle_gamma                90
_cell_volume                     1415.29
_exptl_crystal_colour            colorless
_exptl_crystal_description       block
_cell_formula_units_Z            4
loop_
_atom_site_label
_atom_site_type_symbol
_atom_site_fract_x
_atom_site_fract_y
_atom_site_fract_z
Br1 Br 0.19079(3) 0.46566(5) 0.01790(3)
Cl1 Cl 0.00110(7) 0.61369(12) 0.75235(9)
N1 N 0.3032(3) 0.2556(3) 0.2786(3)
N2 N 0.25856(18) 0.4890(2) 0.3162(2)
C1 C 0.2820(2) 0.3632(4) 0.2943(3)
C2 C 0.2946(2) 0.5877(3) 0.2310(3)
C3 C 0.2743(2) 0.5859(3) 0.1041(3)
H1 H 0.3040 0.6496 0.0539
C4 C 0.2005(2) 0.5220(3) 0.4250(3)
C5 C 0.1468(2) 0.6365(3) 0.4231(3)
H2 H 0.1506 0.6937 0.3532
C6 C 0.0868(2) 0.6664(3) 0.5259(3)
H3 H 0.0509 0.7443 0.5260
C7 C 0.0813(2) 0.5800(4) 0.6269(3)
C8 C 0.1353(3) 0.4664(4) 0.6306(3)
H4 H 0.1310 0.4095 0.7008
C9 C 0.1960(2) 0.4369(3) 0.5300(3)
H5 H 0.2337 0.3605 0.5323
C10 C 0.3601(2) 0.6886(3) 0.2920(3)
C11 C 0.422(5) 0.643(7) 0.395(7)
H6 H 0.4151 0.5574 0.4239
C12 C 0.494(2) 0.724(3) 0.455(3)
H7 H 0.5343 0.6922 0.5226
C13 C 0.503(2) 0.852(3) 0.412(3)
H8 H 0.5530 0.9047 0.4483
C14 C 0.440(2) 0.901(2) 0.316(3)
H9 H 0.4438 0.9888 0.2922
C15 C 0.370(3) 0.819(5) 0.256(4)
H10 H 0.3288 0.8527 0.1893
C16? C 0.434(6) 0.668(7) 0.384(9)
H11? H 0.4428 0.5852 0.4201
C17? C 0.4951(19) 0.771(3) 0.423(3)
H12? H 0.5451 0.7581 0.4862
C18? C 0.4811(19) 0.892(4) 0.367(3)
H13? H 0.5248 0.9600 0.3888
C19? C 0.404(3) 0.916(3) 0.278(3)
H14? H 0.3934 1.0003 0.2453
C20? C 0.341(3) 0.814(6) 0.239(5)
H15? H 0.2892 0.8274 0.1787
loop_
_geom_bond_atom_site_label_1
_geom_bond_atom_site_label_2
_geom_bond_site_symmetry_1
_geom_bond_site_symmetry_2
Br1 C3 1_555 1_555
Cl1 C7 1_555 1_555
N1 C1 1_555 1_555
N2 C1 1_555 1_555
C2 N2 1_555 1_555
C3 C2 1_555 1_555
H1 C3 1_555 1_555
C4 N2 1_555 1_555
C5 C4 1_555 1_555
H2 C5 1_555 1_555
C6 C5 1_555 1_555
H3 C6 1_555 1_555
C7 C6 1_555 1_555
C8 C7 1_555 1_555
H4 C8 1_555 1_555
C9 C4 1_555 1_555
H5 C9 1_555 1_555
C10 C2 1_555 1_555
C11 C10 1_555 1_555
H6 C11 1_555 1_555
C12 C11 1_555 1_555
H7 C12 1_555 1_555
C13 C12 1_555 1_555
H8 C13 1_555 1_555
C14 C13 1_555 1_555
H9 C14 1_555 1_555
C15 C10 1_555 1_555
H10 C15 1_555 1_555
C8 C9 1_555 1_555
C14 C15 1_555 1_555

#END
