
#######################################################################
#
#                 Cambridge Crystallographic Data Centre
#                                CCDC 
#
#######################################################################
#
# If this CIF has been generated from an entry in the Cambridge 
# Structural Database, then it will include bibliographic, chemical, 
# crystal, experimental, refinement or atomic coordinate data resulting 
# from the CCDC's data processing and validation procedures.
#
#######################################################################

data_SEYJUE
_chemical_name_common            'orsellide F hydrate'
_chemical_formula_moiety         'C15 H18 O8,0.25(H2 O1)'
_chemical_name_systematic        
'5-hydroxy-2-methoxy-6-methyl-4-oxooxan-3-yl 2,4-dihydroxy-6-methylbenzoate hydrate'
_symmetry_cell_setting           orthorhombic
_symmetry_space_group_name_H-M   'P 21 21 2'
_symmetry_Int_Tables_number      18
_space_group_name_Hall           'P 2 2ab'
loop_
_symmetry_equiv_pos_site_id
_symmetry_equiv_pos_as_xyz
1 x,y,z
2 1/2+x,1/2-y,-z
3 1/2-x,1/2+y,-z
4 -x,-y,z
_cell_length_a                   16.2797(3)
_cell_length_b                   18.2450(3)
_cell_length_c                   10.7116(3)
_cell_angle_alpha                90
_cell_angle_beta                 90
_cell_angle_gamma                90
_cell_volume                     3181.59
_exptl_crystal_colour            colorless
_exptl_crystal_description       block
_cell_formula_units_Z            8
loop_
_atom_site_label
_atom_site_type_symbol
_atom_site_fract_x
_atom_site_fract_y
_atom_site_fract_z
O1 O 0.49797(15) -0.37525(12) 0.8327(2)
H1 H 0.5360 -0.4054 0.8194
O2 O 0.45161(14) -0.12650(12) 0.9069(3)
H2 H 0.4758 -0.0867 0.9211
O3 O 0.57448(15) -0.04070(12) 0.9402(3)
O4 O 0.70179(14) -0.08209(11) 0.9119(2)
O5 O 0.66653(16) 0.00189(14) 0.7077(2)
O6 O 0.73229(18) 0.13595(16) 0.6594(3)
H3 H 0.6849 0.1250 0.6345
O7 O 0.85502(14) 0.06120(11) 0.9128(2)
O8 O 0.84855(15) -0.05394(12) 0.8156(2)
C1 C 0.5307(2) -0.30802(17) 0.8568(3)
C2 C 0.4768(2) -0.25035(18) 0.8713(3)
H4 H 0.4192 -0.2580 0.8649
C3 C 0.5078(2) -0.18094(16) 0.8953(3)
C4 C 0.5936(2) -0.16810(16) 0.9035(3)
C5 C 0.6480(2) -0.22888(17) 0.8899(3)
C6 C 0.6151(2) -0.29777(17) 0.8663(3)
H5 H 0.6508 -0.3385 0.8565
C7 C 0.7403(2) -0.22400(18) 0.9019(4)
H6 H 0.7642 -0.2731 0.8943
H7 H 0.7545 -0.2033 0.9834
H8 H 0.7621 -0.1924 0.8356
C8 C 0.6205(2) -0.09263(17) 0.9208(3)
C9 C 0.8238(2) -0.01107(17) 0.9168(3)
H9 H 0.8410 -0.0352 0.9964
C10 C 0.7300(2) -0.00815(17) 0.9099(3)
H10 H 0.7073 0.0196 0.9826
C11 C 0.7074(2) 0.02953(18) 0.7885(3)
C12 C 0.7457(2) 0.10485(18) 0.7766(3)
H11 H 0.7220 0.1377 0.8420
C13 C 0.8388(2) 0.09846(16) 0.7971(3)
H12 H 0.8636 0.0701 0.7268
C14 C 0.8785(2) 0.17334(18) 0.8036(4)
H13 H 0.8517 0.2025 0.8688
H14 H 0.8725 0.1981 0.7229
H15 H 0.9370 0.1679 0.8233
C15 C 0.9273(3) -0.0868(3) 0.8289(6)
H16 H 0.9354 -0.1230 0.7625
H17 H 0.9309 -0.1110 0.9104
H18 H 0.9698 -0.0489 0.8230
O9 O 0.42788(15) -0.12466(13) 0.5628(3)
H19 H 0.4595 -0.0888 0.5732
O10 O 0.42912(14) -0.37816(13) 0.5057(3)
H20 H 0.4604 -0.4146 0.4994
O11 O 0.56908(15) -0.44596(13) 0.4970(2)
O12 O 0.67323(14) -0.39239(12) 0.5981(2)
O13 O 0.61130(15) -0.48922(12) 0.7689(2)
O14 O 0.67612(15) -0.62308(12) 0.8223(2)
H21 H 0.6255 -0.6144 0.8270
O15 O 0.83591(15) -0.52456(12) 0.6517(2)
O16 O 0.80286(15) -0.41490(12) 0.7549(3)
C16 C 0.4730(2) -0.18749(19) 0.5535(3)
C17 C 0.4310(2) -0.25182(19) 0.5330(3)
H22 H 0.3729 -0.2515 0.5250
C18 C 0.4743(2) -0.31717(18) 0.5242(3)
C19 C 0.5608(2) -0.31785(18) 0.5396(3)
C20 C 0.6030(2) -0.25110(18) 0.5576(3)
C21 C 0.5587(2) -0.18610(18) 0.5638(3)
H23 H 0.5865 -0.1408 0.5749
C22 C 0.6957(2) -0.24494(18) 0.5652(3)
H24 H 0.7151 -0.2676 0.6427
H25 H 0.7116 -0.1931 0.5639
H26 H 0.7205 -0.2701 0.4936
C23 C 0.5999(2) -0.39030(17) 0.5396(3)
C24 C 0.8004(2) -0.45416(18) 0.6425(3)
H27 H 0.8293 -0.4256 0.5761
C25 C 0.7094(2) -0.46309(17) 0.6067(3)
H28 H 0.7054 -0.4883 0.5240
C26 C 0.6685(2) -0.50936(17) 0.7050(3)
C27 C 0.7102(2) -0.58288(17) 0.7226(3)
H29 H 0.7052 -0.6120 0.6439
C28 C 0.8017(2) -0.56851(17) 0.7496(3)
H30 H 0.8070 -0.5418 0.8307
C29 C 0.8513(2) -0.63838(19) 0.7554(4)
H31 H 0.8468 -0.6644 0.6757
H32 H 0.8303 -0.6696 0.8228
H33 H 0.9091 -0.6265 0.7716
C30 C 0.8851(3) -0.3925(2) 0.7857(5)
H34 H 0.9065 -0.3607 0.7195
H35 H 0.9202 -0.4359 0.7935
H36 H 0.8846 -0.3657 0.8649
O17 O 0.5000 0.0000 0.6557(4)
H37 H 0.4536 -0.0067 0.6902
H37C H 0.5464 0.0067 0.6902
H38? H 0.5374 -0.0191 0.7005
loop_
_geom_bond_atom_site_label_1
_geom_bond_atom_site_label_2
_geom_bond_site_symmetry_1
_geom_bond_site_symmetry_2
O1 H1 1_555 1_555
O2 H2 1_555 1_555
O3 C8 1_555 1_555
O4 C8 1_555 1_555
O5 C11 1_555 1_555
O6 H3 1_555 1_555
O7 C9 1_555 1_555
O8 C9 1_555 1_555
C1 O1 1_555 1_555
C2 C1 1_555 1_555
H4 C2 1_555 1_555
C3 O2 1_555 1_555
C4 C3 1_555 1_555
C5 C4 1_555 1_555
C6 C1 1_555 1_555
H5 C6 1_555 1_555
C7 C5 1_555 1_555
H6 C7 1_555 1_555
H7 C7 1_555 1_555
H8 C7 1_555 1_555
C8 C4 1_555 1_555
C9 H9 1_555 1_555
C10 O4 1_555 1_555
H10 C10 1_555 1_555
C11 C10 1_555 1_555
C12 O6 1_555 1_555
H11 C12 1_555 1_555
C13 O7 1_555 1_555
H12 C13 1_555 1_555
C14 C13 1_555 1_555
H13 C14 1_555 1_555
H14 C14 1_555 1_555
H15 C14 1_555 1_555
C15 O8 1_555 1_555
H16 C15 1_555 1_555
H17 C15 1_555 1_555
H18 C15 1_555 1_555
O9 H19 1_555 1_555
O10 H20 1_555 1_555
O11 C23 1_555 1_555
O12 C23 1_555 1_555
O13 C26 1_555 1_555
O14 H21 1_555 1_555
O15 C24 1_555 1_555
O16 C24 1_555 1_555
C16 O9 1_555 1_555
C17 C16 1_555 1_555
H22 C17 1_555 1_555
C18 O10 1_555 1_555
C19 C18 1_555 1_555
C20 C19 1_555 1_555
C21 C16 1_555 1_555
H23 C21 1_555 1_555
C22 C20 1_555 1_555
H24 C22 1_555 1_555
H25 C22 1_555 1_555
H26 C22 1_555 1_555
C23 C19 1_555 1_555
C24 H27 1_555 1_555
C25 O12 1_555 1_555
H28 C25 1_555 1_555
C26 C25 1_555 1_555
C27 O14 1_555 1_555
H29 C27 1_555 1_555
C28 O15 1_555 1_555
H30 C28 1_555 1_555
C29 C28 1_555 1_555
H31 C29 1_555 1_555
H32 C29 1_555 1_555
H33 C29 1_555 1_555
C30 O16 1_555 1_555
H34 C30 1_555 1_555
H35 C30 1_555 1_555
H36 C30 1_555 1_555
O17 H37 1_555 1_555
H37C O17 1_555 1_555
C2 C3 1_555 1_555
C5 C6 1_555 1_555
C9 C10 1_555 1_555
C11 C12 1_555 1_555
C12 C13 1_555 1_555
C17 C18 1_555 1_555
C20 C21 1_555 1_555
C24 C25 1_555 1_555
C26 C27 1_555 1_555
C27 C28 1_555 1_555

#END
