
#######################################################################
#
#                 Cambridge Crystallographic Data Centre
#                                CCDC 
#
#######################################################################
#
# If this CIF has been generated from an entry in the Cambridge 
# Structural Database, then it will include bibliographic, chemical, 
# crystal, experimental, refinement or atomic coordinate data resulting 
# from the CCDC's data processing and validation procedures.
#
#######################################################################

data_SEYJEO
_chemical_compound_source        'branches and leaves of Isodon rubescens'
_chemical_name_common            11-O-acetylangustifolin
_chemical_formula_moiety         'C23 H30 O7'
_chemical_name_systematic        
"3-methoxy-7a-methyl-8'-methylidene-1',9'-dioxododecahydro-1H,1'H,3'H-spiro[2-benzofuran-4,4'-[7,9a]methanocyclohepta[c]pyran]-5'-yl acetate"
_chemical_properties_biological  
'tested for activity against human lung cancer cell lines A549 and leukaemia cell lines K562'
_symmetry_cell_setting           orthorhombic
_symmetry_space_group_name_H-M   'P 21 21 21'
_symmetry_Int_Tables_number      19
_space_group_name_Hall           'P 2ac 2ab'
loop_
_symmetry_equiv_pos_site_id
_symmetry_equiv_pos_as_xyz
1 x,y,z
2 1/2-x,-y,1/2+z
3 1/2+x,1/2-y,-z
4 -x,1/2+y,1/2-z
_cell_length_a                   7.0000(4)
_cell_length_b                   13.1559(5)
_cell_length_c                   17.8399(7)
_cell_angle_alpha                90
_cell_angle_beta                 90
_cell_angle_gamma                90
_cell_volume                     1642.9
_cell_formula_units_Z            4
loop_
_atom_site_label
_atom_site_type_symbol
_atom_site_fract_x
_atom_site_fract_y
_atom_site_fract_z
C1 C 0.6765(4) 0.5971(2) 0.19763(19)
H1 H 0.7569 0.5647 0.1604
H2 H 0.6558 0.5498 0.2386
C2 C 0.5222(5) 0.6229(3) 0.16956(19)
H3 H 0.4483 0.5643 0.1538
H4 H 0.5409 0.6679 0.1271
C3 C 0.4319(4) 0.6749(3) 0.2312(2)
H5 H 0.4263 0.6269 0.2725
H6 H 0.3010 0.6879 0.2163
C4 C 0.5065(4) 0.7701(2) 0.26185(17)
C5 C 0.6724(4) 0.7505(2) 0.28252(16)
H7 H 0.7421 0.8149 0.2868
C6 C 0.6613(4) 0.7026(3) 0.36082(18)
H8 H 0.6918 0.6299 0.3601
C7 C 1.0155(4) 0.8165(3) 0.25838(19)
C8 C 0.9431(4) 0.8339(2) 0.18315(17)
C9 C 0.8109(4) 0.7623(2) 0.16002(16)
H9 H 0.6933 0.8023 0.1556
C10 C 0.7652(4) 0.6896(2) 0.22485(16)
C11 C 0.8328(4) 0.7170(2) 0.08177(18)
H10 H 0.7070 0.6899 0.0684
C12 C 0.8753(5) 0.7992(3) 0.02506(19)
H11 H 0.9491 0.7703 -0.0157
H12 H 0.7560 0.8242 0.0044
C13 C 0.9784(5) 0.8820(3) 0.0566(2)
H13 H 1.0777 0.9043 0.0215
C14 C 1.0660(4) 0.8371(3) 0.12188(19)
H14 H 1.1067 0.7685 0.1098
H15 H 1.1788 0.8760 0.1352
C15 C 0.8809(4) 0.9405(3) 0.1749(2)
C16 C 0.8990(5) 0.9687(3) 0.0944(2)
C17 C 0.8595(6) 1.0575(3) 0.0675(3)
H16 H 0.8825 1.0715 0.0172
H17 H 0.8081 1.1074 0.0984
C18 C 0.4792(4) 0.8610(3) 0.2103(2)
H18 H 0.3462 0.8683 0.1984
H19 H 0.5506 0.8508 0.1649
H20 H 0.5238 0.9214 0.2349
C19 C 0.4457(5) 0.7923(3) 0.3401(2)
H21 H 0.4950 0.8580 0.3555
H22 H 0.3074 0.7945 0.3429
C20 C 0.9091(4) 0.6495(3) 0.25965(19)
H23 H 0.9933 0.6153 0.2246
H24 H 0.8657 0.6008 0.2967
C21 C 0.7820(6) 0.7033(4) 0.4783(2)
H25 H 0.8604 0.7444 0.5104
H26 H 0.8404 0.6379 0.4718
H27 H 0.6581 0.6951 0.5005
C22 C 0.9343(5) 0.5601(3) 0.0361(2)
C23 C 1.0462(6) 0.4808(3) 0.0507(3)
H28 H 1.1179 0.4936 0.0955
H29 H 1.1325 0.4704 0.0095
H30 H 0.9689 0.4212 0.0574
O1 O 0.5138(3) 0.7184(3) 0.38667(14)
O2 O 0.7631(3) 0.7513(2) 0.40774(12)
O3 O 0.8213(3) 0.99091(17) 0.22341(15)
O4 O 0.9996(3) 0.72782(19) 0.29288(13)
O5 O 1.0937(3) 0.8809(2) 0.28638(16)
O6 O 0.9474(3) 0.63822(18) 0.08560(13)
O7 O 0.8416(5) 0.5587(3) -0.0121(2)
loop_
_geom_bond_atom_site_label_1
_geom_bond_atom_site_label_2
_geom_bond_site_symmetry_1
_geom_bond_site_symmetry_2
C1 H1 1_555 1_555
H2 C1 1_555 1_555
C2 C1 1_555 1_555
H3 C2 1_555 1_555
H4 C2 1_555 1_555
C3 C2 1_555 1_555
H5 C3 1_555 1_555
H6 C3 1_555 1_555
C4 C3 1_555 1_555
C5 C4 1_555 1_555
H7 C5 1_555 1_555
C6 C5 1_555 1_555
H8 C6 1_555 1_555
C7 C8 1_555 1_555
C8 C9 1_555 1_555
C9 H9 1_555 1_555
C10 C1 1_555 1_555
C11 C9 1_555 1_555
H10 C11 1_555 1_555
C12 C11 1_555 1_555
H11 C12 1_555 1_555
H12 C12 1_555 1_555
C13 C12 1_555 1_555
H13 C13 1_555 1_555
C14 C8 1_555 1_555
H14 C14 1_555 1_555
H15 C14 1_555 1_555
C15 C8 1_555 1_555
C16 C13 1_555 1_555
C17 C16 1_555 1_555
H16 C17 1_555 1_555
H17 C17 1_555 1_555
C18 C4 1_555 1_555
H18 C18 1_555 1_555
H19 C18 1_555 1_555
H20 C18 1_555 1_555
C19 C4 1_555 1_555
H21 C19 1_555 1_555
H22 C19 1_555 1_555
C20 C10 1_555 1_555
H23 C20 1_555 1_555
H24 C20 1_555 1_555
C21 H25 1_555 1_555
H26 C21 1_555 1_555
H27 C21 1_555 1_555
C22 C23 1_555 1_555
C23 H28 1_555 1_555
H29 C23 1_555 1_555
H30 C23 1_555 1_555
O1 C6 1_555 1_555
O2 C6 1_555 1_555
O3 C15 1_555 1_555
O4 C7 1_555 1_555
O5 C7 1_555 1_555
O6 C11 1_555 1_555
O7 C22 1_555 1_555
C5 C10 1_555 1_555
C9 C10 1_555 1_555
C13 C14 1_555 1_555
C15 C16 1_555 1_555
C19 O1 1_555 1_555
C20 O4 1_555 1_555
C21 O2 1_555 1_555
C22 O6 1_555 1_555

#END
