
#######################################################################
#
#                 Cambridge Crystallographic Data Centre
#                                CCDC 
#
#######################################################################
#
# If this CIF has been generated from an entry in the Cambridge 
# Structural Database, then it will include bibliographic, chemical, 
# crystal, experimental, refinement or atomic coordinate data resulting 
# from the CCDC's data processing and validation procedures.
#
#######################################################################

data_SEYNER
_chemical_formula_moiety         'C19 H15 N1'
_chemical_name_systematic        3-Methyl-2-phenyl-4-(prop-1-yn-1-yl)quinoline
_symmetry_cell_setting           monoclinic
_symmetry_space_group_name_H-M   'P 21/c'
_symmetry_Int_Tables_number      14
_space_group_name_Hall           '-P 2ybc'
loop_
_symmetry_equiv_pos_site_id
_symmetry_equiv_pos_as_xyz
1 x,y,z
2 -x,1/2+y,1/2-z
3 -x,-y,-z
4 x,1/2-y,1/2+z
_cell_length_a                   8.5121(7)
_cell_length_b                   14.917(2)
_cell_length_c                   12.0927(19)
_cell_angle_alpha                90
_cell_angle_beta                 110.119(13)
_cell_angle_gamma                90
_cell_volume                     1441.78
_exptl_crystal_colour            yellow
_exptl_crystal_description       prism
_cell_formula_units_Z            4
loop_
_atom_site_label
_atom_site_type_symbol
_atom_site_fract_x
_atom_site_fract_y
_atom_site_fract_z
N1 N 0.8069(2) 0.63794(11) 0.65831(14)
C1 C 0.7177(2) 0.63729(13) 0.54474(16)
C2 C 0.7004(2) 0.56110(13) 0.46994(17)
C3 C 0.7937(3) 0.48595(13) 0.51774(19)
C4 C 0.8955(2) 0.48519(14) 0.63920(19)
C5 C 0.8948(3) 0.56212(14) 0.70644(18)
C6 C 0.9911(3) 0.56349(18) 0.8281(2)
H1 H 0.9901 0.6140 0.8729
C7 C 1.0852(3) 0.4910(2) 0.8796(2)
H2 H 1.1479 0.4921 0.9595
C8 C 1.0878(3) 0.41484(19) 0.8127(3)
H3 H 1.1535 0.3660 0.8486
C9 C 0.9951(3) 0.41113(16) 0.6953(2)
H4 H 0.9976 0.3598 0.6522
C10 C 0.5789(3) 0.56074(15) 0.34462(19)
H5 H 0.6335 0.5836 0.2930
H6 H 0.4845 0.5979 0.3393
H7 H 0.5417 0.5006 0.3220
C11 C 0.7916(3) 0.40802(14) 0.4464(2)
C12 C 0.8003(3) 0.34362(15) 0.3914(2)
C13 C 0.8127(3) 0.26419(16) 0.3240(3)
H8 H 0.8937 0.2747 0.2864
H9 H 0.7058 0.2521 0.2652
H10 H 0.8468 0.2137 0.3760
C14 C 0.6351(2) 0.72447(12) 0.49818(16)
C15 C 0.6667(3) 0.76885(14) 0.40687(17)
H11 H 0.7363 0.7426 0.3713
C16 C 0.5958(3) 0.85155(14) 0.36851(18)
H12 H 0.6189 0.8809 0.3080
C17 C 0.4912(3) 0.89048(15) 0.41938(19)
H13 H 0.4417 0.9456 0.3924
C18 C 0.4600(3) 0.84768(15) 0.5105(2)
H14 H 0.3904 0.8744 0.5457
C19 C 0.5315(3) 0.76511(14) 0.55012(18)
H15 H 0.5098 0.7368 0.6119
loop_
_geom_bond_atom_site_label_1
_geom_bond_atom_site_label_2
_geom_bond_site_symmetry_1
_geom_bond_site_symmetry_2
N1 C1 1_555 1_555
C1 C2 1_555 1_555
C2 C3 1_555 1_555
C3 C4 1_555 1_555
C4 C5 1_555 1_555
C5 N1 1_555 1_555
C6 C5 1_555 1_555
H1 C6 1_555 1_555
C7 C6 1_555 1_555
H2 C7 1_555 1_555
C8 C7 1_555 1_555
H3 C8 1_555 1_555
C9 C4 1_555 1_555
H4 C9 1_555 1_555
C10 C2 1_555 1_555
H5 C10 1_555 1_555
H6 C10 1_555 1_555
H7 C10 1_555 1_555
C11 C3 1_555 1_555
C12 C11 1_555 1_555
C13 C12 1_555 1_555
H8 C13 1_555 1_555
H9 C13 1_555 1_555
H10 C13 1_555 1_555
C14 C1 1_555 1_555
C15 C14 1_555 1_555
H11 C15 1_555 1_555
C16 C15 1_555 1_555
H12 C16 1_555 1_555
C17 C16 1_555 1_555
H13 C17 1_555 1_555
C18 C17 1_555 1_555
H14 C18 1_555 1_555
C19 C14 1_555 1_555
H15 C19 1_555 1_555
C8 C9 1_555 1_555
C18 C19 1_555 1_555

#END
