
#######################################################################
#
#                 Cambridge Crystallographic Data Centre
#                                CCDC 
#
#######################################################################
#
# If this CIF has been generated from an entry in the Cambridge 
# Structural Database, then it will include bibliographic, chemical, 
# crystal, experimental, refinement or atomic coordinate data resulting 
# from the CCDC's data processing and validation procedures.
#
#######################################################################

data_SEYSIA
_chemical_formula_moiety         'C14 H15 Br1 F1 N1 O5'
_chemical_name_systematic        
3-(1,3-Benzodioxol-5-yl)-2-bromo-2-fluoro-3-hydroxy-1-(morpholin-4-yl)propan-1-one
_symmetry_cell_setting           monoclinic
_symmetry_space_group_name_H-M   'P 21/n'
_symmetry_Int_Tables_number      14
_space_group_name_Hall           '-P 2yn'
loop_
_symmetry_equiv_pos_site_id
_symmetry_equiv_pos_as_xyz
1 x,y,z
2 1/2-x,1/2+y,1/2-z
3 -x,-y,-z
4 1/2+x,1/2-y,1/2+z
_cell_length_a                   11.4903(14)
_cell_length_b                   10.5872(13)
_cell_length_c                   12.8936(16)
_cell_angle_alpha                90
_cell_angle_beta                 107.270(2)
_cell_angle_gamma                90
_cell_volume                     1497.79
_exptl_crystal_colour            colorless
_exptl_crystal_description       prism
_cell_formula_units_Z            4
loop_
_atom_site_label
_atom_site_type_symbol
_atom_site_fract_x
_atom_site_fract_y
_atom_site_fract_z
C1 C 0.8087(2) 0.4124(2) 0.31622(18)
H1 H 0.7891 0.3344 0.2825
C2 C 0.9191(2) 0.4690(2) 0.32741(18)
C3 C 1.1013(3) 0.5242(3) 0.3148(2)
H2 H 1.1817 0.4913 0.3519
H3 H 1.1038 0.5628 0.2473
C4 C 0.9506(2) 0.5825(2) 0.37933(19)
C5 C 0.8743(2) 0.6465(3) 0.4233(2)
H4 H 0.8967 0.7227 0.4597
C6 C 0.7605(2) 0.5919(3) 0.4112(2)
H5 H 0.7055 0.6332 0.4397
C7 C 0.72720(19) 0.4779(2) 0.35800(17)
C8 C 0.6025(2) 0.4218(3) 0.34594(18)
H6 H 0.6112 0.3299 0.3529
C9 C 0.5094(2) 0.4516(2) 0.23540(19)
C10 C 0.3861(2) 0.3845(2) 0.2216(2)
C11 C 0.3208(3) 0.4094(4) 0.0186(2)
H7 H 0.3382 0.3373 -0.0208
H8 H 0.3877 0.4688 0.0303
C12 C 0.2047(3) 0.4707(4) -0.0456(3)
H9 H 0.1913 0.5459 -0.0078
H10 H 0.2121 0.4965 -0.1156
C13 C 0.0889(3) 0.3543(3) 0.0392(3)
H11 H 0.0192 0.2985 0.0274
H12 H 0.0729 0.4293 0.0761
C14 C 0.1995(2) 0.2894(3) 0.1098(2)
H13 H 0.189 0.2727 0.1805
H14 H 0.2103 0.2092 0.0775
Br1 Br 0.48013(3) 0.63237(3) 0.21517(2)
F1 F 0.55965(12) 0.41121(15) 0.15707(10)
N1 N 0.30822(18) 0.3685(2) 0.12281(17)
O1 O 1.06683(17) 0.61481(19) 0.38094(17)
O2 O 1.01398(15) 0.4243(2) 0.29309(15)
O3 O 0.56202(17) 0.4667(2) 0.43170(14)
H15 H 0.4948 0.4367 0.4268
O4 O 0.36549(17) 0.3477(2) 0.30413(15)
O5 O 0.10296(19) 0.3892(2) -0.06205(17)
loop_
_geom_bond_atom_site_label_1
_geom_bond_atom_site_label_2
_geom_bond_site_symmetry_1
_geom_bond_site_symmetry_2
C1 H1 1_555 1_555
C2 C1 1_555 1_555
C3 H2 1_555 1_555
H3 C3 1_555 1_555
C4 C2 1_555 1_555
C5 C4 1_555 1_555
H4 C5 1_555 1_555
C6 C5 1_555 1_555
H5 C6 1_555 1_555
C7 C1 1_555 1_555
C8 C7 1_555 1_555
H6 C8 1_555 1_555
C9 C8 1_555 1_555
C10 C9 1_555 1_555
C11 H7 1_555 1_555
H8 C11 1_555 1_555
C12 C11 1_555 1_555
H9 C12 1_555 1_555
H10 C12 1_555 1_555
C13 H11 1_555 1_555
H12 C13 1_555 1_555
C14 C13 1_555 1_555
H13 C14 1_555 1_555
H14 C14 1_555 1_555
Br1 C9 1_555 1_555
F1 C9 1_555 1_555
N1 C10 1_555 1_555
O1 C3 1_555 1_555
O2 C2 1_555 1_555
O3 C8 1_555 1_555
H15 O3 1_555 1_555
O4 C10 1_555 1_555
O5 C12 1_555 1_555
C3 O2 1_555 1_555
C4 O1 1_555 1_555
C6 C7 1_555 1_555
C11 N1 1_555 1_555
C13 O5 1_555 1_555
C14 N1 1_555 1_555

#END
