
#######################################################################
#
#                 Cambridge Crystallographic Data Centre
#                                CCDC 
#
#######################################################################
#
# If this CIF has been generated from an entry in the Cambridge 
# Structural Database, then it will include bibliographic, chemical, 
# crystal, experimental, refinement or atomic coordinate data resulting 
# from the CCDC's data processing and validation procedures.
#
#######################################################################

data_SEYSIB
_chemical_formula_moiety         'C28 H24 N3 O2 P1'
_chemical_name_systematic        
"N'-(1-benzyl-5-methyl-2-oxo-1,2-dihydro-3H-indol-3-ylidene)-P,P-diphenylphosphinic hydrazide"
_symmetry_cell_setting           monoclinic
_symmetry_space_group_name_H-M   'P 21/c'
_symmetry_Int_Tables_number      14
_space_group_name_Hall           '-P 2ybc'
loop_
_symmetry_equiv_pos_site_id
_symmetry_equiv_pos_as_xyz
1 x,y,z
2 -x,1/2+y,1/2-z
3 -x,-y,-z
4 x,1/2-y,1/2+z
_cell_length_a                   12.7322(17)
_cell_length_b                   10.7425(15)
_cell_length_c                   18.314(3)
_cell_angle_alpha                90
_cell_angle_beta                 108.230(5)
_cell_angle_gamma                90
_cell_volume                     2379.18
_cell_formula_units_Z            4
loop_
_atom_site_label
_atom_site_type_symbol
_atom_site_fract_x
_atom_site_fract_y
_atom_site_fract_z
P1 P 0.75642(5) 0.26678(6) 0.41078(4)
O1 O 0.65299(14) 0.30450(17) 0.35217(10)
O2 O 0.72027(15) 0.08009(16) 0.60910(10)
N1 N 0.61084(16) -0.09588(18) 0.58730(11)
N2 N 0.74642(16) 0.15373(18) 0.47150(11)
H1 H 0.7740 0.1623 0.5205
N3 N 0.69228(16) 0.04718(17) 0.43952(11)
C1 C 0.65754(18) -0.0236(2) 0.48387(13)
C2 C 0.59170(18) -0.1357(2) 0.46037(13)
C3 C 0.81248(19) 0.3871(2) 0.47975(13)
C4 C 0.56286(18) -0.1760(2) 0.52434(13)
C5 C 0.6802(2) -0.1783(2) 0.72086(13)
C6 C 0.55436(19) -0.2005(2) 0.39161(14)
H2 H 0.5733 -0.1736 0.3491
C7 C 0.66903(19) -0.0029(2) 0.56733(13)
C8 C 0.8584(2) 0.2118(2) 0.36915(15)
C9 C 0.4883(2) -0.3059(2) 0.38605(14)
C10 C 0.4976(2) -0.2799(2) 0.52060(15)
H3 H 0.4786 -0.3068 0.5631
C11 C 0.5939(2) -0.1027(2) 0.66247(13)
H4 H 0.5218 -0.1388 0.6562
H5 H 0.5937 -0.0189 0.6822
C12 C 0.7473(2) 0.4904(2) 0.47799(15)
H6 H 0.6789 0.4973 0.4403
C13 C 0.4616(2) -0.3426(2) 0.45103(15)
H7 H 0.4173 -0.4126 0.4476
C14 C 0.9447(2) 0.1344(2) 0.40830(18)
H8 H 0.9509 0.1081 0.4579
C15 C 0.7284(2) -0.1315(3) 0.79372(15)
H9 H 0.7109 -0.0514 0.8053
C16 C 0.9146(2) 0.3791(3) 0.53662(15)
H10 H 0.9597 0.3103 0.5384
C17 C 0.8504(3) 0.2505(3) 0.29528(16)
H11 H 0.7932 0.3029 0.2684
C18 C 0.9491(3) 0.4728(3) 0.59030(17)
H12 H 1.0173 0.4669 0.6284
C19 C 0.7834(3) 0.5834(3) 0.53193(18)
H13 H 0.7392 0.6529 0.5304
C20 C 0.8027(2) -0.2019(3) 0.84989(17)
H14 H 0.8340 -0.1692 0.8989
C21 C 0.7097(3) -0.2965(3) 0.70566(17)
H15 H 0.6788 -0.3300 0.6568
C22 C 0.8834(3) 0.5739(3) 0.58750(17)
H16 H 0.9069 0.6369 0.6238
C23 C 0.451(2) -0.379(3) 0.314(2)
H17 H 0.4334 -0.3235 0.2706
H18 H 0.3874 -0.4270 0.3126
H19 H 0.5098 -0.4339 0.3114
C24 C 0.9283(3) 0.2103(4) 0.2621(2)
H20 H 0.9226 0.2355 0.2124
C25 C 0.8301(3) -0.3194(3) 0.83361(18)
H21 H 0.8797 -0.3669 0.8714
C26 C 0.7843(3) -0.3661(3) 0.76155(19)
H22 H 0.8034 -0.4456 0.7500
C27 C 1.0125(3) 0.1352(4) 0.3007(3)
H23 H 1.0643 0.1098 0.2776
C28 C 1.0218(3) 0.0961(3) 0.3737(2)
H24 H 1.0797 0.0441 0.4000
C29? C 0.440(4) -0.379(4) 0.311(3)
H25? H 0.4663 -0.3428 0.2716
H26? H 0.3609 -0.3744 0.2949
H27? H 0.4632 -0.4640 0.3186
loop_
_geom_bond_atom_site_label_1
_geom_bond_atom_site_label_2
_geom_bond_site_symmetry_1
_geom_bond_site_symmetry_2
P1 O1 1_555 1_555
O2 C7 1_555 1_555
N1 C4 1_555 1_555
N2 P1 1_555 1_555
H1 N2 1_555 1_555
N3 N2 1_555 1_555
C1 N3 1_555 1_555
C2 C1 1_555 1_555
C3 P1 1_555 1_555
C4 C2 1_555 1_555
C5 C11 1_555 1_555
C6 C2 1_555 1_555
H2 C6 1_555 1_555
C7 N1 1_555 1_555
C8 P1 1_555 1_555
C9 C6 1_555 1_555
C10 C4 1_555 1_555
H3 C10 1_555 1_555
C11 N1 1_555 1_555
H4 C11 1_555 1_555
H5 C11 1_555 1_555
C12 C3 1_555 1_555
H6 C12 1_555 1_555
C13 C9 1_555 1_555
H7 C13 1_555 1_555
C14 C8 1_555 1_555
H8 C14 1_555 1_555
C15 C5 1_555 1_555
H9 C15 1_555 1_555
C16 C3 1_555 1_555
H10 C16 1_555 1_555
C17 C8 1_555 1_555
H11 C17 1_555 1_555
C18 C16 1_555 1_555
H12 C18 1_555 1_555
C19 C12 1_555 1_555
H13 C19 1_555 1_555
C20 C15 1_555 1_555
H14 C20 1_555 1_555
C21 C5 1_555 1_555
H15 C21 1_555 1_555
C22 C18 1_555 1_555
H16 C22 1_555 1_555
C23 C9 1_555 1_555
H17 C23 1_555 1_555
H18 C23 1_555 1_555
H19 C23 1_555 1_555
C24 C17 1_555 1_555
H20 C24 1_555 1_555
C25 C20 1_555 1_555
H21 C25 1_555 1_555
C26 C21 1_555 1_555
H22 C26 1_555 1_555
C27 C24 1_555 1_555
H23 C27 1_555 1_555
C28 C14 1_555 1_555
H24 C28 1_555 1_555
C1 C7 1_555 1_555
C10 C13 1_555 1_555
C19 C22 1_555 1_555
C25 C26 1_555 1_555
C27 C28 1_555 1_555

#END
