
#######################################################################
#
#                 Cambridge Crystallographic Data Centre
#                                CCDC 
#
#######################################################################
#
# If this CIF has been generated from an entry in the Cambridge 
# Structural Database, then it will include bibliographic, chemical, 
# crystal, experimental, refinement or atomic coordinate data resulting 
# from the CCDC's data processing and validation procedures.
#
#######################################################################

data_SEYSOH
_chemical_formula_moiety         'C31 H35 Br1 N3 O3 P1'
_chemical_name_systematic        
"5-methyl-2-(propan-2-yl)cyclohexyl N'-(1-benzyl-6-bromo-2-oxo-1,2-dihydro-3H-indol-3-ylidene)-P-phenylphosphonohydrazidate"
_symmetry_cell_setting           monoclinic
_symmetry_space_group_name_H-M   'C 2'
_symmetry_Int_Tables_number      5
_space_group_name_Hall           'C 2y'
loop_
_symmetry_equiv_pos_site_id
_symmetry_equiv_pos_as_xyz
1 x,y,z
2 -x,y,-z
3 1/2+x,1/2+y,z
4 1/2-x,1/2+y,-z
_cell_length_a                   18.7508(4)
_cell_length_b                   10.6771(2)
_cell_length_c                   30.7325(7)
_cell_angle_alpha                90
_cell_angle_beta                 105.2650(10)
_cell_angle_gamma                90
_cell_volume                     5935.7
_exptl_crystal_colour            yellow
_exptl_crystal_description       block
_cell_formula_units_Z            8
loop_
_atom_site_label
_atom_site_type_symbol
_atom_site_fract_x
_atom_site_fract_y
_atom_site_fract_z
Br1 Br -0.05910(2) -0.79217(3) -0.05862(2)
P1 P -0.56949(3) -1.00966(6) -0.16919(2)
O1 O -0.63221(10) -1.0759(2) -0.15953(6)
O2 O -0.40809(10) -1.1376(2) -0.04908(6)
O3 O -0.57938(10) -0.87008(17) -0.18559(6)
N1 N -0.28861(11) -1.0608(2) -0.03738(7)
C1 C -0.16029(13) -0.8377(3) -0.07087(8)
N2 N -0.43857(12) -0.9390(2) -0.12257(7)
N3 N -0.50000(11) -1.0050(2) -0.12139(7)
H1 H -0.503415 -1.043701 -0.096742
C2 C -0.21136(14) -0.7706(3) -0.10346(8)
H2 H -0.195802 -0.703832 -0.119214
C3 C -0.30709(13) -0.9015(3) -0.08952(8)
C4 C -0.28611(13) -0.8031(3) -0.11268(8)
H3 H -0.322111 -0.758008 -0.134630
C5 C -0.37764(13) -0.9617(2) -0.09212(8)
C6 C -0.17938(14) -0.9364(3) -0.04639(9)
H4 H -0.143394 -0.980231 -0.024033
C7 C -0.61015(14) -0.7723(3) -0.16236(8)
H5 H -0.593929 -0.787237 -0.129082
C8 C -0.53588(14) -1.0792(3) -0.21264(8)
C9 C -0.26205(16) -1.3359(3) -0.05692(10)
H6 H -0.314048 -1.323454 -0.065401
C10 C -0.25376(14) -0.9668(2) -0.05652(8)
C11 C -0.21695(14) -1.2574(3) -0.02477(8)
C12 C -0.25081(16) -1.1525(3) -0.00384(9)
H7 H -0.286559 -1.188190 0.011426
H8 H -0.211466 -1.109804 0.019258
C13 C -0.36318(14) -1.0636(3) -0.05731(9)
C14 C -0.55464(17) -1.2029(3) -0.22496(10)
H9 H -0.585609 -1.248341 -0.210609
C15 C -0.48296(19) -1.1940(3) -0.27922(10)
H10 H -0.464705 -1.233348 -0.301856
C16 C -0.69407(14) -0.7807(3) -0.17841(9)
H11 H -0.710462 -0.861253 -0.168316
H12 H -0.709460 -0.779376 -0.211790
C17 C -0.49030(15) -1.0134(3) -0.23383(9)
H13 H -0.476983 -0.929286 -0.225394
C18 C -0.46425(17) -1.0707(3) -0.26731(10)
H14 H -0.433687 -1.025357 -0.281991
C19 C -0.5280(2) -1.2599(3) -0.25834(10)
H15 H -0.540818 -1.344248 -0.266718
C20 C -0.73168(17) -0.6730(4) -0.16035(10)
H16 H -0.716929 -0.677821 -0.126662
C21 C -0.57926(16) -0.6472(3) -0.17324(9)
H17 H -0.592177 -0.640282 -0.206861
C22 C -0.23161(19) -1.4313(3) -0.07645(11)
H18 H -0.262847 -1.483821 -0.098341
C23 C -0.61964(18) -0.5400(3) -0.15631(11)
H19 H -0.606072 -0.541123 -0.122927
H20 H -0.603040 -0.459074 -0.165970
C24 C -0.14128(15) -1.2785(3) -0.01288(10)
H21 H -0.109623 -1.226388 0.008945
C25 C -0.11147(18) -1.3753(4) -0.03264(12)
H22 H -0.059587 -1.389152 -0.024018
C26 C -0.46607(18) -0.6306(4) -0.10528(11)
H23 H -0.481577 -0.550976 -0.094784
H24 H -0.411972 -0.635563 -0.096620
H25 H -0.486363 -0.700194 -0.091537
C27 C -0.81563(19) -0.6860(5) -0.17631(15)
H26 H -0.831025 -0.688733 -0.209345
H27 H -0.838880 -0.614096 -0.165686
H28 H -0.830862 -0.763363 -0.164159
C28 C -0.1560(2) -1.4513(3) -0.06445(11)
H29 H -0.135227 -1.516746 -0.078091
C29 C -0.70373(19) -0.5493(3) -0.17397(11)
H30 H -0.727054 -0.479229 -0.161723
H31 H -0.717910 -0.542238 -0.207267
C30 C -0.49457(17) -0.6384(3) -0.15655(10)
H32 H -0.474273 -0.717387 -0.166033
C31 C -0.4640(2) -0.5302(4) -0.17891(14)
H33 H -0.483429 -0.535889 -0.211732
H34 H -0.409920 -0.535000 -0.170951
H35 H -0.479100 -0.450307 -0.168362
Br2 Br -0.41865(2) -1.38785(3) -0.44405(2)
P2 P -0.49645(3) -0.57503(6) -0.33426(2)
O4 O -0.50131(11) -0.44072(19) -0.34443(7)
O5 O -0.55989(9) -0.63926(18) -0.31801(6)
N4 N -0.49488(11) -0.7792(2) -0.38074(7)
O6 O -0.42587(11) -0.6785(2) -0.45325(7)
N5 N -0.49393(12) -0.6519(2) -0.38180(7)
H36 H -0.492073 -0.611126 -0.406363
N6 N -0.41270(11) -0.8909(2) -0.46499(7)
C32 C -0.47878(14) -1.1955(3) -0.40070(9)
H37 H -0.495164 -1.262702 -0.385532
C33 C -0.43994(15) -1.2193(3) -0.43270(9)
C34 C -0.43545(13) -0.7885(3) -0.44498(8)
C35 C -0.47130(13) -0.8402(3) -0.41066(8)
C36 C -0.28885(13) -0.8930(3) -0.47949(8)
C37 C -0.46809(13) -0.9758(3) -0.41341(8)
C38 C -0.67842(14) -0.7395(3) -0.32847(9)
H38 H -0.666738 -0.740691 -0.294791
C39 C -0.41724(14) -0.6198(3) -0.29057(9)
C40 C -0.65131(15) -0.8654(3) -0.34305(10)
H39 H -0.596050 -0.863869 -0.333526
C41 C -0.49335(14) -1.0720(3) -0.39116(8)
H40 H -0.520255 -1.053980 -0.369679
C42 C -0.43040(13) -1.0036(3) -0.44634(8)
C43 C -0.37152(14) -0.8816(3) -0.49923(8)
H41 H -0.382574 -0.800074 -0.514891
H42 H -0.388309 -0.948590 -0.521887
C44 C -0.34942(15) -0.7694(3) -0.23675(9)
H43 H -0.346412 -0.848939 -0.222539
C45 C -0.41286(15) -0.7361(3) -0.27009(9)
H44 H -0.452969 -0.793228 -0.278722
C46 C -0.66521(15) -0.5017(3) -0.32700(10)
H45 H -0.639698 -0.432263 -0.338055
H46 H -0.652024 -0.497345 -0.293651
C47 C -0.63897(14) -0.6256(3) -0.34135(9)
H47 H -0.645387 -0.625178 -0.374695
C48 C -0.41533(14) -1.1243(3) -0.45662(9)
H48 H -0.389648 -1.142313 -0.478724
C49 C -0.35832(16) -0.5362(3) -0.27792(10)
H49 H -0.361075 -0.456314 -0.291851
C50 C -0.25002(16) -0.9930(3) -0.49012(10)
H50 H -0.275534 -1.056256 -0.509923
C51 C -0.74911(16) -0.4858(3) -0.34551(11)
H51 H -0.760958 -0.487067 -0.379191
C52 C -0.76247(15) -0.7205(3) -0.34602(10)
H52 H -0.776490 -0.723234 -0.379394
H53 H -0.788159 -0.790073 -0.335171
C53 C -0.29110(15) -0.6865(4) -0.22447(9)
H54 H -0.247788 -0.709474 -0.201949
C54 C -0.29541(16) -0.5709(4) -0.24471(10)
H55 H -0.255108 -0.514220 -0.235949
C55 C -0.78812(16) -0.5960(4) -0.33060(11)
H56 H -0.842160 -0.587223 -0.343367
H57 H -0.777885 -0.595666 -0.297312
C56 C -0.17402(17) -1.0022(3) -0.47221(11)
H58 H -0.147926 -1.071413 -0.479930
C57 C -0.25080(15) -0.8005(3) -0.45036(9)
H59 H -0.276970 -0.731075 -0.442865
C58 C -0.13637(16) -0.9114(3) -0.44328(10)
H60 H -0.084464 -0.918025 -0.430859
C59 C -0.67440(17) -0.8860(4) -0.39390(10)
H61 H -0.728156 -0.896647 -0.404033
H62 H -0.650110 -0.961306 -0.401329
H63 H -0.659797 -0.813381 -0.409045
C60 C -0.17508(16) -0.8094(4) -0.43235(10)
H64 H -0.149432 -0.746237 -0.412560
C61 C -0.6761(2) -0.9755(4) -0.31895(13)
H65 H -0.661858 -0.960318 -0.286350
H66 H -0.652408 -1.052442 -0.325529
H67 H -0.729909 -0.984418 -0.329485
C62 C -0.7738(2) -0.3600(4) -0.33119(15)
H68 H -0.761068 -0.355428 -0.298192
H69 H -0.827388 -0.351309 -0.343280
H70 H -0.748760 -0.292327 -0.342890
loop_
_geom_bond_atom_site_label_1
_geom_bond_atom_site_label_2
_geom_bond_site_symmetry_1
_geom_bond_site_symmetry_2
Br1 C1 1_555 1_555
P1 O1 1_555 1_555
O2 C13 1_555 1_555
O3 P1 1_555 1_555
N1 C10 1_555 1_555
C1 C2 1_555 1_555
N2 N3 1_555 1_555
N3 P1 1_555 1_555
H1 N3 1_555 1_555
C2 H2 1_555 1_555
C3 C4 1_555 1_555
C4 C2 1_555 1_555
H3 C4 1_555 1_555
C5 N2 1_555 1_555
C6 C1 1_555 1_555
H4 C6 1_555 1_555
C7 O3 1_555 1_555
H5 C7 1_555 1_555
C8 P1 1_555 1_555
C9 H6 1_555 1_555
C10 C3 1_555 1_555
C11 C9 1_555 1_555
C12 N1 1_555 1_555
H7 C12 1_555 1_555
H8 C12 1_555 1_555
C13 N1 1_555 1_555
C14 C8 1_555 1_555
H9 C14 1_555 1_555
C15 H10 1_555 1_555
C16 C7 1_555 1_555
H11 C16 1_555 1_555
H12 C16 1_555 1_555
C17 C8 1_555 1_555
H13 C17 1_555 1_555
C18 C15 1_555 1_555
H14 C18 1_555 1_555
C19 C14 1_555 1_555
H15 C19 1_555 1_555
C20 C16 1_555 1_555
H16 C20 1_555 1_555
C21 C7 1_555 1_555
H17 C21 1_555 1_555
C22 C9 1_555 1_555
H18 C22 1_555 1_555
C23 C21 1_555 1_555
H19 C23 1_555 1_555
H20 C23 1_555 1_555
C24 C11 1_555 1_555
H21 C24 1_555 1_555
C25 C24 1_555 1_555
H22 C25 1_555 1_555
C26 H23 1_555 1_555
H24 C26 1_555 1_555
H25 C26 1_555 1_555
C27 C20 1_555 1_555
H26 C27 1_555 1_555
H27 C27 1_555 1_555
H28 C27 1_555 1_555
C28 C22 1_555 1_555
H29 C28 1_555 1_555
C29 C20 1_555 1_555
H30 C29 1_555 1_555
H31 C29 1_555 1_555
C30 C21 1_555 1_555
H32 C30 1_555 1_555
C31 C30 1_555 1_555
H33 C31 1_555 1_555
H34 C31 1_555 1_555
H35 C31 1_555 1_555
Br2 C33 1_555 1_555
P2 O4 1_555 1_555
O5 P2 1_555 1_555
N4 N5 1_555 1_555
O6 C34 1_555 1_555
N5 P2 1_555 1_555
H36 N5 1_555 1_555
N6 C34 1_555 1_555
C32 H37 1_555 1_555
C33 C32 1_555 1_555
C34 C35 1_555 1_555
C35 N4 1_555 1_555
C36 C43 1_555 1_555
C37 C35 1_555 1_555
C38 H38 1_555 1_555
C39 P2 1_555 1_555
C40 C38 1_555 1_555
H39 C40 1_555 1_555
C41 C32 1_555 1_555
H40 C41 1_555 1_555
C42 N6 1_555 1_555
C43 N6 1_555 1_555
H41 C43 1_555 1_555
H42 C43 1_555 1_555
C44 H43 1_555 1_555
C45 C39 1_555 1_555
H44 C45 1_555 1_555
C46 H45 1_555 1_555
H46 C46 1_555 1_555
C47 O5 1_555 1_555
H47 C47 1_555 1_555
C48 C33 1_555 1_555
H48 C48 1_555 1_555
C49 C39 1_555 1_555
H49 C49 1_555 1_555
C50 C36 1_555 1_555
H50 C50 1_555 1_555
C51 C46 1_555 1_555
H51 C51 1_555 1_555
C52 C38 1_555 1_555
H52 C52 1_555 1_555
H53 C52 1_555 1_555
C53 C44 1_555 1_555
H54 C53 1_555 1_555
C54 C49 1_555 1_555
H55 C54 1_555 1_555
C55 C51 1_555 1_555
H56 C55 1_555 1_555
H57 C55 1_555 1_555
C56 C50 1_555 1_555
H58 C56 1_555 1_555
C57 C36 1_555 1_555
H59 C57 1_555 1_555
C58 C56 1_555 1_555
H60 C58 1_555 1_555
C59 C40 1_555 1_555
H61 C59 1_555 1_555
H62 C59 1_555 1_555
H63 C59 1_555 1_555
C60 C57 1_555 1_555
H64 C60 1_555 1_555
C61 C40 1_555 1_555
H65 C61 1_555 1_555
H66 C61 1_555 1_555
H67 C61 1_555 1_555
C62 C51 1_555 1_555
H68 C62 1_555 1_555
H69 C62 1_555 1_555
H70 C62 1_555 1_555
C3 C5 1_555 1_555
C5 C13 1_555 1_555
C6 C10 1_555 1_555
C11 C12 1_555 1_555
C15 C19 1_555 1_555
C17 C18 1_555 1_555
C23 C29 1_555 1_555
C25 C28 1_555 1_555
C26 C30 1_555 1_555
C37 C41 1_555 1_555
C37 C42 1_555 1_555
C38 C47 1_555 1_555
C42 C48 1_555 1_555
C44 C45 1_555 1_555
C46 C47 1_555 1_555
C52 C55 1_555 1_555
C53 C54 1_555 1_555
C58 C60 1_555 1_555

#END
