
#######################################################################
#
#                 Cambridge Crystallographic Data Centre
#                                CCDC 
#
#######################################################################
#
# If this CIF has been generated from an entry in the Cambridge 
# Structural Database, then it will include bibliographic, chemical, 
# crystal, experimental, refinement or atomic coordinate data resulting 
# from the CCDC's data processing and validation procedures.
#
#######################################################################

data_SEZDOQ
_chemical_formula_moiety         'C21 H24 N2 O4'
_chemical_name_systematic        
(4R)-5-Acetoxy-4,7-dibenzyl-6-hydroxy-1,3,4,5,6,7-hexahydro-2H-1,3-diazepin-2-one
_chemical_properties_biological  
'derivative of a compound having potential protease inhibitory activity'
_symmetry_cell_setting           monoclinic
_symmetry_space_group_name_H-M   'P 21'
_symmetry_Int_Tables_number      4
_space_group_name_Hall           'P 2yb'
loop_
_symmetry_equiv_pos_site_id
_symmetry_equiv_pos_as_xyz
1 x,y,z
2 -x,1/2+y,-z
_cell_length_a                   10.756(4)
_cell_length_b                   6.687(3)
_cell_length_c                   14.318(5)
_cell_angle_alpha                90
_cell_angle_beta                 106.75(1)
_cell_angle_gamma                90
_cell_volume                     986.133
_exptl_crystal_colour            colorless
_exptl_crystal_description       parallelepiped
_cell_formula_units_Z            2
_exptl_crystal_recrystallization_method 'ethyl acetate/methanol'
loop_
_atom_site_label
_atom_site_type_symbol
_atom_site_fract_x
_atom_site_fract_y
_atom_site_fract_z
O1 O 0.3597(1) 0.7500 0.4607(1)
O2 O 0.3964(1) 0.5292(3) 0.7945(1)
O3 O 0.4782(2) 0.1291(3) 0.6476(1)
O4 O 0.4291(2) 0.2904(4) 0.9087(1)
N1 N 0.4455(2) 0.6968(4) 0.6228(1)
N2 N 0.3385(2) 0.4421(4) 0.5217(1)
C1 C 0.3812(2) 0.6367(4) 0.5316(1)
C2 C 0.5387(2) 0.5719(4) 0.6947(1)
C3 C 0.4760(2) 0.4201(4) 0.7456(1)
C4 C 0.3947(2) 0.2595(4) 0.6795(1)
C5 C 0.2862(2) 0.3430(4) 0.5942(1)
C6 C 0.6297(2) 0.7145(4) 0.7675(2)
C7 C 0.7350(2) 0.6085(4) 0.8435(1)
C8 C 0.7363(2) 0.6083(5) 0.9409(2)
C9 C 0.8328(3) 0.5112(5) 1.0105(2)
C10 C 0.9285(3) 0.4076(5) 0.9849(2)
C11 C 0.9275(3) 0.4031(5) 0.8886(2)
C12 C 0.8319(2) 0.5042(5) 0.8186(2)
C13 C 0.3865(2) 0.4498(5) 0.8791(2)
C14 C 0.3151(3) 0.5872(7) 0.9275(2)
C15 C 0.1936(2) 0.1764(4) 0.5412(2)
C16 C 0.1140(2) 0.0882(4) 0.6022(1)
C17 C 0.1468(2) -0.0940(5) 0.6500(2)
C18 C 0.0739(3) -0.1738(5) 0.7061(2)
C19 C -0.0320(2) -0.0714(6) 0.7169(2)
C20 C -0.0666(2) 0.1087(5) 0.6700(2)
C21 C 0.0054(2) 0.1871(5) 0.6124(2)
H1 H 0.4604(26) 0.8106(48) 0.6266(18)
H2 H 0.5887(18) 0.4970(32) 0.6599(13)
H3 H 0.5417(20) 0.3572(35) 0.7924(15)
H4 H 0.5106(29) 0.1918(59) 0.6029(21)
H5 H 0.3565(19) 0.1848(35) 0.7217(14)
H6 H 0.2362(19) 0.4460(35) 0.6181(14)
H7 H 0.2954(20) 0.4160(40) 0.4599(17)
H8 H 0.6647(24) 0.8042(48) 0.7277(17)
H9 H 0.5798(23) 0.7799(45) 0.7987(16)
H10 H 0.6718(22) 0.6686(41) 0.9607(16)
H11 H 0.8370(26) 0.5127(51) 1.0754(21)
H12 H 0.9997(30) 0.3376(50) 1.0342(20)
H13 H 0.9962(29) 0.3282(57) 0.8690(19)
H14 H 0.8293(21) 0.4935(37) 0.7481(16)
H15 H 0.3637(35) 0.6083(71) 0.9834(27)
H16 H 0.2290(45) 0.5553(84) 0.9213(30)
H17 H 0.2966(43) 0.7237(78) 0.8936(29)
H18 H 0.2454(25) 0.0779(48) 0.5182(17)
H19 H 0.1315(21) 0.2358(39) 0.4827(16)
H20 H 0.2225(25) -0.1671(44) 0.6446(16)
H21 H 0.0997(28) -0.2867(55) 0.7368(20)
H22 H -0.0819(25) -0.1155(52) 0.7588(18)
H23 H -0.1427(25) 0.1734(45) 0.6716(17)
H24 H -0.0203(24) 0.3108(51) 0.5797(18)
loop_
_geom_bond_atom_site_label_1
_geom_bond_atom_site_label_2
_geom_bond_site_symmetry_1
_geom_bond_site_symmetry_2
O1 C1 1_555 1_555
O2 C3 1_555 1_555
O3 C4 1_555 1_555
O4 C13 1_555 1_555
N1 C1 1_555 1_555
N2 C1 1_555 1_555
C2 N1 1_555 1_555
C3 C2 1_555 1_555
C4 C3 1_555 1_555
C5 N2 1_555 1_555
C6 C2 1_555 1_555
C7 C6 1_555 1_555
C8 C7 1_555 1_555
C9 C8 1_555 1_555
C10 C9 1_555 1_555
C11 C10 1_555 1_555
C12 C7 1_555 1_555
C13 O2 1_555 1_555
C14 C13 1_555 1_555
C15 C5 1_555 1_555
C16 C15 1_555 1_555
C17 C16 1_555 1_555
C18 C17 1_555 1_555
C19 C18 1_555 1_555
C20 C19 1_555 1_555
C21 C16 1_555 1_555
H1 N1 1_555 1_555
H2 C2 1_555 1_555
H3 C3 1_555 1_555
H4 O3 1_555 1_555
H5 C4 1_555 1_555
H6 C5 1_555 1_555
H7 N2 1_555 1_555
H8 C6 1_555 1_555
H9 C6 1_555 1_555
H10 C8 1_555 1_555
H11 C9 1_555 1_555
H12 C10 1_555 1_555
H13 C11 1_555 1_555
H14 C12 1_555 1_555
H15 C14 1_555 1_555
H16 C14 1_555 1_555
H17 C14 1_555 1_555
H18 C15 1_555 1_555
H19 C15 1_555 1_555
H20 C17 1_555 1_555
H21 C18 1_555 1_555
H22 C19 1_555 1_555
H23 C20 1_555 1_555
H24 C21 1_555 1_555
C4 C5 1_555 1_555
C11 C12 1_555 1_555
C20 C21 1_555 1_555

#END
