
#######################################################################
#
#                 Cambridge Crystallographic Data Centre
#                                CCDC 
#
#######################################################################
#
# If this CIF has been generated from an entry in the Cambridge 
# Structural Database, then it will include bibliographic, chemical, 
# crystal, experimental, refinement or atomic coordinate data resulting 
# from the CCDC's data processing and validation procedures.
#
#######################################################################

data_SEZFUY
_chemical_compound_source        'Rabdosin ternifoline Hara'
_chemical_formula_moiety         'C22 H32 O6'
_chemical_name_systematic        'Ternifoline C'
_symmetry_cell_setting           monoclinic
_symmetry_space_group_name_H-M   'P 21'
_symmetry_Int_Tables_number      4
_space_group_name_Hall           'P 2yb'
loop_
_symmetry_equiv_pos_site_id
_symmetry_equiv_pos_as_xyz
1 x,y,z
2 -x,1/2+y,-z
_cell_length_a                   11.071(1)
_cell_length_b                   6.084(1)
_cell_length_c                   15.553(1)
_cell_angle_alpha                90
_cell_angle_beta                 104.22(1)
_cell_angle_gamma                90
_cell_volume                     1015.49
_cell_formula_units_Z            2
loop_
_atom_site_label
_atom_site_type_symbol
_atom_site_fract_x
_atom_site_fract_y
_atom_site_fract_z
O1 O 0.2528(3) 0.3689(5) 0.0439(2)
O2 O 0.1696(3) 0.6940(7) -0.0075(2)
O3 O 0.5717(2) 0.2910(5) 0.4182(2)
O4 O 0.3889(3) -0.0635(4) 0.2445(2)
O5 O 0.4406(3) -0.1021(5) 0.3943(2)
O6 O 0.3667(2) 0.4960(5) 0.4375(2)
C1 C 0.3480(3) 0.4731(7) 0.1140(2)
C2 C 0.4592(4) 0.5119(9) 0.0762(2)
C3 C 0.5725(4) 0.5911(8) 0.1475(3)
C4 C 0.6137(3) 0.4221(7) 0.2218(2)
C5 C 0.5001(3) 0.3726(7) 0.2612(2)
C6 C 0.5270(3) 0.1916(7) 0.3332(2)
C7 C 0.4093(4) 0.053 0.3265(2)
C8 C 0.2924(3) 0.1892(7) 0.3278(2)
C9 C 0.2722(3) 0.3611(7) 0.2505(2)
C10 C 0.3709(3) 0.3201(6) 0.1958(2)
C11 C 0.1353(3) 0.3629(9) 0.1945(3)
C12 C 0.0407(4) 0.364(1) 0.2527(3)
C13 C 0.0814(4) 0.216(1) 0.3357(3)
C14 C 0.1751(4) 0.0453(8) 0.3186(3)
C15 C 0.2943(4) 0.3004(7) 0.4183(2)
C16 C 0.1578(4) 0.3466(9) 0.4125(3)
C17 C 0.1172(5) 0.483(1) 0.4651(4)
C18 C 0.6703(4) 0.2191(9) 0.1858(3)
C19 C 0.7152(4) 0.5292(9) 0.2953(3)
C20 C 0.361(4) 0.0770(7) 0.1678(2)
C21 C 0.1715(4) 0.4982(9) -0.0122(3)
C22 C 0.0857(5) 0.356(1) -0.0801(3)
loop_
_geom_bond_atom_site_label_1
_geom_bond_atom_site_label_2
_geom_bond_site_symmetry_1
_geom_bond_site_symmetry_2
O1 C1 1_555 1_555
O2 C21 1_555 1_555
O3 C6 1_555 1_555
O4 C7 1_555 1_555
O5 C7 1_555 1_555
O6 C15 1_555 1_555
C1 C2 1_555 1_555
C2 C3 1_555 1_555
C3 C4 1_555 1_555
C4 C5 1_555 1_555
C5 C6 1_555 1_555
C6 C7 1_555 1_555
C7 C8 1_555 1_555
C8 C9 1_555 1_555
C9 C10 1_555 1_555
C10 C1 1_555 1_555
C11 C9 1_555 1_555
C12 C11 1_555 1_555
C13 C12 1_555 1_555
C14 C8 1_555 1_555
C15 C8 1_555 1_555
C16 C13 1_555 1_555
C17 C16 1_555 1_555
C18 C4 1_555 1_555
C19 C4 1_555 1_555
C20 O4 1_555 1_555
C21 O1 1_555 1_555
C22 C21 1_555 1_555
C5 C10 1_555 1_555
C10 C20 1_555 1_555
C13 C14 1_555 1_555
C15 C16 1_555 1_555

#END
