
#######################################################################
#
#                 Cambridge Crystallographic Data Centre
#                                CCDC 
#
#######################################################################
#
# If this CIF has been generated from an entry in the Cambridge 
# Structural Database, then it will include bibliographic, chemical, 
# crystal, experimental, refinement or atomic coordinate data resulting 
# from the CCDC's data processing and validation procedures.
#
#######################################################################

data_SEZGOU
_chemical_formula_moiety         'C9 H14 O3,H2 O1'
_chemical_name_systematic        '3-(4-Oxocyclohexyl)propionic acid monohydrate'
_symmetry_cell_setting           triclinic
_symmetry_space_group_name_H-M   'P -1'
_symmetry_Int_Tables_number      2
_space_group_name_Hall           '-P 1'
loop_
_symmetry_equiv_pos_site_id
_symmetry_equiv_pos_as_xyz
1 x,y,z
2 -x,-y,-z
_cell_length_a                   7.4636(2)
_cell_length_b                   7.9944(3)
_cell_length_c                   8.4817(3)
_cell_angle_alpha                90.852(2)
_cell_angle_beta                 106.9030(10)
_cell_angle_gamma                90.778(2)
_cell_volume                     484.076
_exptl_crystal_colour            colorless
_exptl_crystal_description       block
_chemical_melting_point          '326 K'
_cell_formula_units_Z            2
loop_
_atom_site_label
_atom_site_type_symbol
_atom_site_fract_x
_atom_site_fract_y
_atom_site_fract_z
O1 O 0.43881(12) 0.20680(11) -0.05401(10)
C1 C 0.32314(17) 0.19412(16) 0.39011(15)
H1 H 0.3494 0.0777 0.4312
O2 O 0.10888(13) 0.46580(11) 0.74499(11)
C2 C 0.17108(17) 0.18539(16) 0.22356(15)
H2 H 0.1358 0.3004 0.1865
H3 H 0.0584 0.1278 0.2371
O3 O -0.09635(13) 0.25624(12) 0.73677(11)
H4 H -0.1290 0.3188 0.8036
C3 C 0.23702(18) 0.09181(17) 0.09093(15)
H5 H 0.2534 -0.0278 0.1192
H6 H 0.1401 0.0991 -0.0168
C4 C 0.41831(18) 0.16404(15) 0.07739(15)
C5 C 0.57229(18) 0.17934(18) 0.23759(16)
H9 H 0.6802 0.2418 0.2202
H10 H 0.6148 0.0664 0.2764
C6 C 0.50335(18) 0.27070(17) 0.36871(15)
H11 H 0.6026 0.2685 0.4755
H12 H 0.4815 0.3892 0.3377
C7 C 0.26440(18) 0.29753(16) 0.51985(15)
H13 H 0.3699 0.3022 0.6226
H14 H 0.2408 0.4134 0.4804
C8 C 0.09139(18) 0.23090(17) 0.55953(15)
H15 H -0.0153 0.2294 0.4576
H16 H 0.1134 0.1140 0.5963
C9 C 0.03898(17) 0.33118(16) 0.69024(15)
O4 O -0.25491(15) 0.41010(13) 0.93165(12)
H7 H -0.204(3) 0.445(3) 1.025(3)
H8 H -0.353(3) 0.343(3) 0.940(3)
loop_
_geom_bond_atom_site_label_1
_geom_bond_atom_site_label_2
_geom_bond_site_symmetry_1
_geom_bond_site_symmetry_2
O1 C4 1_555 1_555
C1 H1 1_555 1_555
O2 C9 1_555 1_555
C2 C1 1_555 1_555
H2 C2 1_555 1_555
H3 C2 1_555 1_555
O3 H4 1_555 1_555
C3 C2 1_555 1_555
H5 C3 1_555 1_555
H6 C3 1_555 1_555
C4 C3 1_555 1_555
O4 H7 1_555 1_555
H8 O4 1_555 1_555
C5 C4 1_555 1_555
H9 C5 1_555 1_555
H10 C5 1_555 1_555
C6 C1 1_555 1_555
H11 C6 1_555 1_555
H12 C6 1_555 1_555
C7 C1 1_555 1_555
H13 C7 1_555 1_555
H14 C7 1_555 1_555
C8 C7 1_555 1_555
H15 C8 1_555 1_555
H16 C8 1_555 1_555
C9 O3 1_555 1_555
C5 C6 1_555 1_555
C8 C9 1_555 1_555

#END
