
#######################################################################
#
#                 Cambridge Crystallographic Data Centre
#                                CCDC 
#
#######################################################################
#
# If this CIF has been generated from an entry in the Cambridge 
# Structural Database, then it will include bibliographic, chemical, 
# crystal, experimental, refinement or atomic coordinate data resulting 
# from the CCDC's data processing and validation procedures.
#
#######################################################################

data_SEZJAJ
_chemical_formula_moiety         'C19 H21 F1 N3 O3 P1 S1'
_chemical_name_systematic        
'rac-Diethyl ((5-(4-fluorophenyl)-1,3,4-thiadiazol-2-ylamino)(phenyl)methyl)phosphonate'
_symmetry_cell_setting           monoclinic
_symmetry_space_group_name_H-M   'P 21/c'
_symmetry_Int_Tables_number      14
_space_group_name_Hall           '-P 2ybc'
loop_
_symmetry_equiv_pos_site_id
_symmetry_equiv_pos_as_xyz
1 x,y,z
2 -x,1/2+y,1/2-z
3 -x,-y,-z
4 x,1/2-y,1/2+z
_cell_length_a                   9.874(2)
_cell_length_b                   15.415(3)
_cell_length_c                   14.412(3)
_cell_angle_alpha                90
_cell_angle_beta                 104.17(3)
_cell_angle_gamma                90
_cell_volume                     2126.87
_exptl_crystal_colour            colorless
_exptl_crystal_description       block
_chemical_melting_point          '455 K'
_cell_formula_units_Z            4
_exptl_crystal_recrystallization_method acetone
loop_
_atom_site_label
_atom_site_type_symbol
_atom_site_fract_x
_atom_site_fract_y
_atom_site_fract_z
S1 S 0.74034(14) 0.20363(10) 0.52107(9)
P1 P 0.87932(16) -0.04792(11) 0.32013(10)
F1 F 0.3034(4) 0.5008(3) 0.6181(3)
O1 O 0.7216(4) -0.0753(3) 0.3006(3)
O2 O 0.9733(4) -0.0814(3) 0.4072(2)
O3 O 0.9128(4) -0.0728(3) 0.2245(2)
N1 N 0.8471(4) 0.0969(3) 0.4092(3)
H1 H 0.8918 0.0724 0.4614
N2 N 0.6707(5) 0.1941(3) 0.3382(3)
N3 N 0.5845(5) 0.2561(3) 0.3636(3)
C1 C 0.5256(4) -0.0694(3) 0.3678(6)
H2 H 0.4862 -0.0954 0.4158
H3 H 0.4622 -0.0764 0.3061
H4 H 0.5411 -0.0087 0.3813
C2 C 0.6572(4) -0.1111(3) 0.3681(6)
H5 H 0.7195 -0.1057 0.4313
H6 H 0.6409 -0.1724 0.3547
C3 C 1.0374(5) -0.1338(3) 0.1174(6)
H7 H 1.1262 -0.1565 0.1131
H8 H 1.0145 -0.0842 0.0762
H9 H 0.9669 -0.1775 0.0979
C4 C 1.0447(5) -0.1077(3) 0.2177(5)
H10 H 1.0681 -0.1576 0.2595
H11 H 1.1173 -0.0644 0.2381
C5 C 0.8710(4) 0.0687(4) 0.3192(3)
H12 H 0.7886 0.0854 0.2692
C6 C 0.9971(4) 0.1109(3) 0.2944(4)
C7 C 0.9944(4) 0.1403(3) 0.2056(5)
H13 H 0.9128 0.1347 0.1574
C8 C 1.1099(5) 0.1786(3) 0.1846(6)
H14 H 1.1065 0.1973 0.1227
C9 C 1.2285(5) 0.1887(2) 0.2550(6)
H15 H 1.3050 0.2168 0.2418
C10 C 1.2364(5) 0.1584(3) 0.3437(6)
H16 H 1.3192 0.1639 0.3909
C11 C 1.1235(4) 0.1198(3) 0.3646(5)
H17 H 1.1299 0.0991 0.4261
C12 C 0.7554(4) 0.1615(3) 0.4131(3)
C13 C 0.6049(4) 0.2676(3) 0.4542(4)
C14 C 0.5259(4) 0.3281(4) 0.4984(4)
C15 C 0.5539(4) 0.3377(4) 0.5972(4)
H18 H 0.6239 0.3046 0.6363
C16 C 0.4796(3) 0.3954(4) 0.6376(4)
H19 H 0.4991 0.4024 0.7036
C17 C 0.3751(3) 0.4429(4) 0.5779(4)
C18 C 0.3443(3) 0.4346(4) 0.4820(4)
H20 H 0.2728 0.4672 0.4437
C19 C 0.4197(4) 0.3774(4) 0.4416(4)
H21 H 0.3995 0.3716 0.3754
loop_
_geom_bond_atom_site_label_1
_geom_bond_atom_site_label_2
_geom_bond_site_symmetry_1
_geom_bond_site_symmetry_2
S1 C12 1_555 1_555
P1 O1 1_555 1_555
F1 C17 1_555 1_555
O1 C2 1_555 1_555
O2 P1 1_555 1_555
O3 P1 1_555 1_555
N1 H1 1_555 1_555
N2 N3 1_555 1_555
N3 C13 1_555 1_555
C1 H2 1_555 1_555
H3 C1 1_555 1_555
H4 C1 1_555 1_555
C2 C1 1_555 1_555
H5 C2 1_555 1_555
H6 C2 1_555 1_555
C3 H7 1_555 1_555
H8 C3 1_555 1_555
H9 C3 1_555 1_555
C4 O3 1_555 1_555
H10 C4 1_555 1_555
H11 C4 1_555 1_555
C5 P1 1_555 1_555
H12 C5 1_555 1_555
C6 C5 1_555 1_555
C7 C6 1_555 1_555
H13 C7 1_555 1_555
C8 C7 1_555 1_555
H14 C8 1_555 1_555
C9 C8 1_555 1_555
H15 C9 1_555 1_555
C10 C9 1_555 1_555
H16 C10 1_555 1_555
C11 C6 1_555 1_555
H17 C11 1_555 1_555
C12 N1 1_555 1_555
C13 S1 1_555 1_555
C14 C13 1_555 1_555
C15 C14 1_555 1_555
H18 C15 1_555 1_555
C16 C15 1_555 1_555
H19 C16 1_555 1_555
C17 C16 1_555 1_555
C18 C17 1_555 1_555
H20 C18 1_555 1_555
C19 C14 1_555 1_555
H21 C19 1_555 1_555
N1 C5 1_555 1_555
N2 C12 1_555 1_555
C3 C4 1_555 1_555
C10 C11 1_555 1_555
C18 C19 1_555 1_555

#END
