
#######################################################################
#
#                 Cambridge Crystallographic Data Centre
#                                CCDC 
#
#######################################################################
#
# If this CIF has been generated from an entry in the Cambridge 
# Structural Database, then it will include bibliographic, chemical, 
# crystal, experimental, refinement or atomic coordinate data resulting 
# from the CCDC's data processing and validation procedures.
#
#######################################################################

data_SEZLOA
_chemical_formula_moiety         'C10 H17 N1 O3'
_chemical_name_systematic        
4-Methoxy-7-methyl-6-oxa-1-azaspiro[4.5]decan-2-one
_symmetry_cell_setting           monoclinic
_symmetry_space_group_name_H-M   'P 21/n'
_symmetry_Int_Tables_number      14
_space_group_name_Hall           '-P 2yn'
loop_
_symmetry_equiv_pos_site_id
_symmetry_equiv_pos_as_xyz
1 x,y,z
2 1/2-x,1/2+y,1/2-z
3 -x,-y,-z
4 1/2+x,1/2-y,1/2+z
_cell_length_a                   11.044(3)
_cell_length_b                   8.0060(19)
_cell_length_c                   11.730(3)
_cell_angle_alpha                90
_cell_angle_beta                 98.346(4)
_cell_angle_gamma                90
_cell_volume                     1026.16
_exptl_crystal_colour            colorless
_exptl_crystal_description       block
_cell_formula_units_Z            4
loop_
_atom_site_label
_atom_site_type_symbol
_atom_site_fract_x
_atom_site_fract_y
_atom_site_fract_z
O1 O 0.97386(10) 0.47983(15) 0.33728(9)
O2 O 0.60054(10) 0.40871(14) 0.34545(9)
O3 O 0.80502(9) 0.10587(13) 0.50278(9)
N1 N 0.86166(11) 0.37611(16) 0.47113(10)
H1 H 0.9057 0.4208 0.5320
C1 C 0.88679(13) 0.39972(18) 0.36361(12)
C2 C 0.78908(13) 0.3125(2) 0.28101(12)
H2 H 0.8208 0.2075 0.2519
H3 H 0.7590 0.3854 0.2148
C3 C 0.68739(12) 0.27672(18) 0.35375(11)
H4 H 0.6467 0.1674 0.3320
C4 C 0.75685(13) 0.27179(18) 0.47893(12)
C5 C 0.68654(14) 0.3323(2) 0.57317(12)
H5 H 0.6464 0.4401 0.5497
H6 H 0.7444 0.3514 0.6447
C6 C 0.58995(15) 0.2062(2) 0.59670(14)
H7 H 0.5504 0.2442 0.6627
H8 H 0.5261 0.1970 0.5284
C7 C 0.64955(15) 0.0376(2) 0.62357(13)
H9 H 0.5862 -0.0458 0.6350
H10 H 0.7081 0.0449 0.6958
C8 C 0.71644(14) -0.01809(19) 0.52586(13)
H11 H 0.6551 -0.0322 0.4549
C9 C 0.51382(15) 0.3990(2) 0.24312(15)
H12 H 0.5544 0.4247 0.1763
H13 H 0.4479 0.4796 0.2475
H14 H 0.4795 0.2860 0.2352
C10 C 0.78554(18) -0.1806(2) 0.54926(15)
H15 H 0.8433 -0.1706 0.6207
H16 H 0.8305 -0.2054 0.4851
H17 H 0.7275 -0.2711 0.5571
loop_
_geom_bond_atom_site_label_1
_geom_bond_atom_site_label_2
_geom_bond_site_symmetry_1
_geom_bond_site_symmetry_2
O1 C1 1_555 1_555
O2 C3 1_555 1_555
O3 C4 1_555 1_555
N1 H1 1_555 1_555
C1 N1 1_555 1_555
C2 C1 1_555 1_555
H2 C2 1_555 1_555
H3 C2 1_555 1_555
C3 C2 1_555 1_555
H4 C3 1_555 1_555
C4 N1 1_555 1_555
C5 C4 1_555 1_555
H5 C5 1_555 1_555
H6 C5 1_555 1_555
C6 C5 1_555 1_555
H7 C6 1_555 1_555
H8 C6 1_555 1_555
C7 C6 1_555 1_555
H9 C7 1_555 1_555
H10 C7 1_555 1_555
C8 O3 1_555 1_555
H11 C8 1_555 1_555
C9 O2 1_555 1_555
H12 C9 1_555 1_555
H13 C9 1_555 1_555
H14 C9 1_555 1_555
C10 C8 1_555 1_555
H15 C10 1_555 1_555
H16 C10 1_555 1_555
H17 C10 1_555 1_555
C3 C4 1_555 1_555
C7 C8 1_555 1_555

#END
