
#######################################################################
#
#                 Cambridge Crystallographic Data Centre
#                                CCDC 
#
#######################################################################
#
# If this CIF has been generated from an entry in the Cambridge 
# Structural Database, then it will include bibliographic, chemical, 
# crystal, experimental, refinement or atomic coordinate data resulting 
# from the CCDC's data processing and validation procedures.
#
#######################################################################

data_SEZLIU
_chemical_formula_moiety         'C14 H20 N2 O2'
_chemical_name_systematic        
4-Methoxy-7-methyl-2-(1H-pyrrol-2-yl)-6-oxa-1-azaspiro[4.5]dec-1-ene
_symmetry_cell_setting           orthorhombic
_symmetry_space_group_name_H-M   'P b c n'
_symmetry_Int_Tables_number      60
_space_group_name_Hall           '-P 2n 2ab'
loop_
_symmetry_equiv_pos_site_id
_symmetry_equiv_pos_as_xyz
1 x,y,z
2 1/2-x,1/2-y,1/2+z
3 -x,y,1/2-z
4 1/2+x,1/2-y,-z
5 -x,-y,-z
6 1/2+x,1/2+y,1/2-z
7 x,-y,1/2+z
8 1/2-x,1/2+y,z
_cell_length_a                   15.663(3)
_cell_length_b                   8.2891(17)
_cell_length_c                   21.056(4)
_cell_angle_alpha                90
_cell_angle_beta                 90
_cell_angle_gamma                90
_cell_volume                     2733.75
_exptl_crystal_colour            colorless
_exptl_crystal_description       block
_cell_formula_units_Z            8
loop_
_atom_site_label
_atom_site_type_symbol
_atom_site_fract_x
_atom_site_fract_y
_atom_site_fract_z
O1 O 0.59644(10) 0.4975(2) 0.37348(8)
O2 O 0.69237(13) 0.6293(2) 0.46341(9)
N1 N 0.56623(13) 0.7524(2) 0.32818(10)
N2 N 0.59898(13) 0.9061(2) 0.20759(10)
H1 H 0.5484 0.8601 0.2074
C1 C 0.57509(16) 0.6610(3) 0.38838(12)
C2 C 0.52935(16) 0.4103(3) 0.34152(13)
H2 H 0.5152 0.4671 0.3010
C3 C 0.45003(17) 0.4032(3) 0.38265(13)
H3 H 0.4622 0.3396 0.4214
H4 H 0.4036 0.3485 0.3591
C4 C 0.42148(17) 0.5722(3) 0.40125(14)
H5 H 0.3990 0.6288 0.3634
H6 H 0.3749 0.5649 0.4329
C5 C 0.49516(18) 0.6674(3) 0.42892(13)
H7 H 0.5086 0.6246 0.4717
H8 H 0.4774 0.7814 0.4339
C6 C 0.65402(17) 0.7360(3) 0.41979(13)
H9 H 0.6358 0.8351 0.4432
C7 C 0.70841(16) 0.7870(3) 0.36374(13)
H10 H 0.7403 0.8876 0.3727
H11 H 0.7489 0.7012 0.3510
C8 C 0.64038(15) 0.8129(3) 0.31436(13)
C9 C 0.65707(15) 0.8975(3) 0.25616(13)
C10 C 0.72797(16) 0.9849(3) 0.23779(14)
H12 H 0.7787 0.9995 0.2618
C11 C 0.71157(17) 1.0485(3) 0.17727(14)
H13 H 0.7486 1.1148 0.1529
C12 C 0.63166(17) 0.9964(3) 0.16014(14)
H14 H 0.6038 1.0201 0.1212
C13 C 0.56531(19) 0.2459(3) 0.32608(16)
H15 H 0.5835 0.1926 0.3654
H16 H 0.6144 0.2578 0.2976
H17 H 0.5213 0.1805 0.3052
C14 C 0.7541(2) 0.7080(4) 0.50177(17)
H18 H 0.7785 0.6306 0.5319
H19 H 0.7269 0.7963 0.5252
H20 H 0.7996 0.7514 0.4747
loop_
_geom_bond_atom_site_label_1
_geom_bond_atom_site_label_2
_geom_bond_site_symmetry_1
_geom_bond_site_symmetry_2
O1 C1 1_555 1_555
O2 C6 1_555 1_555
N1 C1 1_555 1_555
N2 H1 1_555 1_555
C1 C5 1_555 1_555
C2 O1 1_555 1_555
H2 C2 1_555 1_555
C3 C2 1_555 1_555
H3 C3 1_555 1_555
H4 C3 1_555 1_555
C4 C3 1_555 1_555
H5 C4 1_555 1_555
H6 C4 1_555 1_555
C5 C4 1_555 1_555
H7 C5 1_555 1_555
H8 C5 1_555 1_555
C6 C1 1_555 1_555
H9 C6 1_555 1_555
C7 C6 1_555 1_555
H10 C7 1_555 1_555
H11 C7 1_555 1_555
C8 N1 1_555 1_555
C9 N2 1_555 1_555
C10 C9 1_555 1_555
H12 C10 1_555 1_555
C11 C10 1_555 1_555
H13 C11 1_555 1_555
C12 N2 1_555 1_555
H14 C12 1_555 1_555
C13 C2 1_555 1_555
H15 C13 1_555 1_555
H16 C13 1_555 1_555
H17 C13 1_555 1_555
C14 O2 1_555 1_555
H18 C14 1_555 1_555
H19 C14 1_555 1_555
H20 C14 1_555 1_555
C7 C8 1_555 1_555
C8 C9 1_555 1_555
C11 C12 1_555 1_555

#END
