
#######################################################################
#
#                 Cambridge Crystallographic Data Centre
#                                CCDC 
#
#######################################################################
#
# If this CIF has been generated from an entry in the Cambridge 
# Structural Database, then it will include bibliographic, chemical, 
# crystal, experimental, refinement or atomic coordinate data resulting 
# from the CCDC's data processing and validation procedures.
#
#######################################################################

data_SEZMAN
_chemical_formula_moiety         'C10 H17 N1 O3'
_chemical_name_systematic        
4-Methoxy-7-methyl-6-oxa-1-azaspiro[4.5]decan-2-one
_symmetry_cell_setting           orthorhombic
_symmetry_space_group_name_H-M   'P b c a'
_symmetry_Int_Tables_number      61
_space_group_name_Hall           '-P 2ac 2ab'
loop_
_symmetry_equiv_pos_site_id
_symmetry_equiv_pos_as_xyz
1 x,y,z
2 1/2-x,-y,1/2+z
3 -x,1/2+y,1/2-z
4 1/2+x,1/2-y,-z
5 -x,-y,-z
6 1/2+x,y,1/2-z
7 x,1/2-y,1/2+z
8 1/2-x,1/2+y,z
_cell_length_a                   13.826(3)
_cell_length_b                   9.5792(19)
_cell_length_c                   16.063(3)
_cell_angle_alpha                90
_cell_angle_beta                 90
_cell_angle_gamma                90
_cell_volume                     2127.42
_exptl_crystal_colour            colorless
_exptl_crystal_description       block
_cell_formula_units_Z            8
loop_
_atom_site_label
_atom_site_type_symbol
_atom_site_fract_x
_atom_site_fract_y
_atom_site_fract_z
O1 O -0.21142(9) 0.81859(14) 0.59507(8)
O2 O -0.04884(10) 0.61535(13) 0.41611(7)
O3 O 0.04279(8) 0.84847(12) 0.61967(7)
N1 N -0.03317(11) 0.65360(14) 0.55626(8)
H1 H -0.0127 0.5697 0.5699
C1 C -0.05759(12) 0.68967(18) 0.47830(10)
C2 C -0.09792(13) 0.83578(17) 0.47980(11)
H2 H -0.1583 0.8419 0.4469
H3 H -0.0505 0.9036 0.4574
C3 C -0.11739(12) 0.86259(18) 0.57207(11)
H4 H -0.1065 0.9628 0.5867
C4 C -0.28364(15) 0.9168(3) 0.57188(14)
H5 H -0.2685 1.0078 0.5965
H6 H -0.3468 0.8849 0.5921
H7 H -0.2854 0.9252 0.5111
C5 C -0.04395(12) 0.76709(17) 0.61603(10)
C6 C -0.07238(13) 0.7162(2) 0.70194(11)
H8 H -0.1289 0.6532 0.6973
H9 H -0.0915 0.7970 0.7367
C7 C 0.01067(15) 0.6389(2) 0.74399(12)
H10 H -0.0072 0.6156 0.8020
H11 H 0.0239 0.5506 0.7140
C8 C 0.10043(15) 0.7300(2) 0.74356(12)
H12 H 0.0896 0.8127 0.7793
H13 H 0.1557 0.6769 0.7667
C9 C 0.12437(13) 0.77713(19) 0.65608(11)
H14 H 0.1400 0.6933 0.6215
C10 C 0.20805(15) 0.8782(2) 0.65167(15)
H15 H 0.2658 0.8348 0.6758
H16 H 0.1920 0.9629 0.6829
H17 H 0.2207 0.9024 0.5934
loop_
_geom_bond_atom_site_label_1
_geom_bond_atom_site_label_2
_geom_bond_site_symmetry_1
_geom_bond_site_symmetry_2
O1 C3 1_555 1_555
O2 C1 1_555 1_555
O3 C5 1_555 1_555
N1 H1 1_555 1_555
C1 N1 1_555 1_555
C2 C1 1_555 1_555
H2 C2 1_555 1_555
H3 C2 1_555 1_555
C3 C2 1_555 1_555
H4 C3 1_555 1_555
C4 O1 1_555 1_555
H5 C4 1_555 1_555
H6 C4 1_555 1_555
H7 C4 1_555 1_555
C5 N1 1_555 1_555
C6 C5 1_555 1_555
H8 C6 1_555 1_555
H9 C6 1_555 1_555
C7 C6 1_555 1_555
H10 C7 1_555 1_555
H11 C7 1_555 1_555
C8 C7 1_555 1_555
H12 C8 1_555 1_555
H13 C8 1_555 1_555
C9 O3 1_555 1_555
H14 C9 1_555 1_555
C10 C9 1_555 1_555
H15 C10 1_555 1_555
H16 C10 1_555 1_555
H17 C10 1_555 1_555
C3 C5 1_555 1_555
C8 C9 1_555 1_555

#END
