
#######################################################################
#
#                 Cambridge Crystallographic Data Centre
#                                CCDC 
#
#######################################################################
#
# If this CIF has been generated from an entry in the Cambridge 
# Structural Database, then it will include bibliographic, chemical, 
# crystal, experimental, refinement or atomic coordinate data resulting 
# from the CCDC's data processing and validation procedures.
#
#######################################################################

data_SEZPAP
_chemical_formula_moiety         'C21 H16 F1 N1 O3,C1 H4 O1'
_chemical_name_systematic        
'Methyl 2-amino-4-(3-fluorophenyl)-4H-benzo(h)chromene-3-carboxylate methanol solvate'
_symmetry_cell_setting           triclinic
_symmetry_space_group_name_H-M   'P -1'
_symmetry_Int_Tables_number      2
_space_group_name_Hall           '-P 1'
loop_
_symmetry_equiv_pos_site_id
_symmetry_equiv_pos_as_xyz
1 x,y,z
2 -x,-y,-z
_cell_length_a                   11.225(2)
_cell_length_b                   11.375(2)
_cell_length_c                   17.283(4)
_cell_angle_alpha                76.26(3)
_cell_angle_beta                 71.80(3)
_cell_angle_gamma                71.50(3)
_cell_volume                     1964.43
_exptl_crystal_colour            colorless
_exptl_crystal_description       block
_chemical_melting_point          '393-395 K'
_cell_formula_units_Z            4
loop_
_atom_site_label
_atom_site_type_symbol
_atom_site_fract_x
_atom_site_fract_y
_atom_site_fract_z
F1 F -0.2564(6) 0.4151(5) 0.3817(4)
O1 O 0.2548(3) -0.0661(3) 0.16499(17)
O2 O -0.0570(3) -0.0254(3) 0.09241(17)
O3 O -0.1881(3) 0.0810(4) 0.1963(2)
N1 N 0.1966(4) -0.0615(5) 0.0592(3)
H2 H 0.2782 -0.0867 0.0362
H3 H 0.1405 -0.0490 0.0317
C1 C 0.0407(2) 0.3724(4) 0.2171(3)
H4 H 0.0964 0.4188 0.1813
C2 C -0.0682(2) 0.4288(4) 0.2751(3)
H5 H -0.0861 0.5132 0.2786
C3 C -0.1454(3) 0.3596(4) 0.3249(3)
C4 C -0.1250(2) 0.2379(3) 0.3226(3)
H6 H -0.1826 0.1935 0.3584
C5 C -0.0173(2) 0.1786(2) 0.2664(3)
C6 C 0.0646(2) 0.2462(3) 0.2136(3)
H7 H 0.1366 0.2075 0.1752
C7 C 0.0103(2) 0.0371(2) 0.2663(3)
H8 H -0.0667 0.0106 0.3017
C8 C 0.0333(2) 0.0065(2) 0.1816(3)
C9 C 0.1575(3) -0.0423(2) 0.1364(3)
C10 C 0.2407(3) -0.0880(2) 0.2535(3)
C11 C 0.3485(3) -0.1572(2) 0.2845(3)
C12 C 0.4708(4) -0.2120(2) 0.2337(3)
H9 H 0.4823 -0.2004 0.1770
C13 C 0.5734(4) -0.2827(3) 0.2674(3)
H10 H 0.6537 -0.3175 0.2336
C14 C 0.5544(4) -0.3011(3) 0.3532(3)
H11 H 0.6230 -0.3482 0.3762
C15 C 0.4384(4) -0.2513(2) 0.4026(3)
H12 H 0.4279 -0.2670 0.4594
C16 C 0.3327(4) -0.1765(2) 0.3710(3)
C17 C 0.2104(3) -0.1223(2) 0.4209(4)
H13 H 0.1990 -0.1334 0.4776
C18 C 0.1108(2) -0.0555(2) 0.3893(3)
H14 H 0.0320 -0.0212 0.4246
C19 C 0.1209(3) -0.0347(2) 0.3023(3)
C20 C -0.0746(2) 0.0270(2) 0.1482(3)
C21 C -0.3012(4) 0.1015(3) 0.1676(2)
H15 H -0.3771 0.1415 0.2062
H16 H -0.3096 0.0225 0.1624
H17 H -0.2925 0.1542 0.1149
O4 O 0.4695(4) 0.7903(5) 0.9942(3)
H1 H 0.4861 0.7166 1.0157
C22 C 0.5776(5) 0.8160(5) 0.9426(6)
H18 H 0.5583 0.9023 0.9173
H19 H 0.6110 0.7630 0.9007
H20 H 0.6414 0.8011 0.9725
F2 F 0.6167(4) 0.0926(3) 0.4294(3)
O5 O 0.1703(3) 0.6173(3) 0.2181(2)
O6 O 0.5473(3) 0.5256(4) 0.0651(2)
O7 O 0.6211(3) 0.4393(3) 0.1777(2)
N2 N 0.2812(4) 0.5989(5) 0.0906(3)
H22 H 0.2069 0.6336 0.0798
H23 H 0.3496 0.5784 0.0513
C23 C 0.4574(7) 0.0844(5) 0.3717(4)
H24 H 0.4720 -0.0014 0.3906
C24 C 0.5255(4) 0.1515(3) 0.3864(4)
C25 C 0.5053(4) 0.2797(3) 0.3599(3)
H25 H 0.5537 0.3232 0.3715
C26 C 0.4142(4) 0.3418(3) 0.3170(3)
C27 C 0.3439(3) 0.2736(2) 0.3012(3)
H26 H 0.2814 0.3147 0.2721
C28 C 0.3646(4) 0.1466(2) 0.3277(3)
H27 H 0.3167 0.1024 0.3162
C29 C 0.3871(4) 0.4827(4) 0.2892(3)
H28 H 0.4520 0.5111 0.3016
C30 C 0.3985(4) 0.5207(4) 0.1973(3)
C31 C 0.2905(4) 0.5768(4) 0.1682(3)
C32 C 0.1560(3) 0.6115(4) 0.3020(3)
C33 C 0.0296(2) 0.6755(4) 0.3443(3)
C34 C -0.0692(2) 0.7446(5) 0.3058(4)
H29 H -0.0551 0.7485 0.2494
C35 C -0.1865(3) 0.8066(6) 0.3508(4)
H30 H -0.2509 0.8532 0.3242
C36 C -0.2121(7) 0.8018(6) 0.4358(6)
H31 H -0.2927 0.8439 0.4657
C37 C -0.1189(3) 0.7357(7) 0.4733(5)
H32 H -0.1366 0.7323 0.5300
C38 C 0.0067(2) 0.6701(5) 0.4308(4)
C39 C 0.1084(2) 0.6014(6) 0.4686(4)
H33 H 0.0935 0.5958 0.5252
C40 C 0.2269(3) 0.5435(5) 0.4245(3)
H34 H 0.2918 0.4994 0.4513
C41 C 0.2538(3) 0.5488(4) 0.3385(3)
C42 C 0.5226(4) 0.4960(5) 0.1404(3)
C43 C 0.7488(5) 0.4164(6) 0.1246(3)
H35 H 0.8108 0.3764 0.1567
H36 H 0.7652 0.4945 0.0941
H37 H 0.7566 0.3628 0.0869
O8 O 1.0305(5) 0.7351(5) 0.0521(4)
H21 H 1.0062 0.8076 0.0613
C44 C 0.9358(8) 0.7060(7) 0.0402(2)
H38 H 0.9642 0.6210 0.0295
H39 H 0.9088 0.7614 -0.0061
H40 H 0.8641 0.7138 0.0885
loop_
_geom_bond_atom_site_label_1
_geom_bond_atom_site_label_2
_geom_bond_site_symmetry_1
_geom_bond_site_symmetry_2
F1 C3 1_555 1_555
O1 C9 1_555 1_555
O2 C20 1_555 1_555
O3 C20 1_555 1_555
O4 H1 1_555 1_555
N1 H2 1_555 1_555
H3 N1 1_555 1_555
C1 H4 1_555 1_555
C2 C1 1_555 1_555
H5 C2 1_555 1_555
C3 C2 1_555 1_555
C4 C3 1_555 1_555
H6 C4 1_555 1_555
C5 C4 1_555 1_555
C6 C1 1_555 1_555
H7 C6 1_555 1_555
C7 C5 1_555 1_555
H8 C7 1_555 1_555
C8 C7 1_555 1_555
C9 N1 1_555 1_555
C10 O1 1_555 1_555
C11 C10 1_555 1_555
C12 C11 1_555 1_555
H9 C12 1_555 1_555
C13 C12 1_555 1_555
H10 C13 1_555 1_555
C14 C13 1_555 1_555
H11 C14 1_555 1_555
C15 C14 1_555 1_555
H12 C15 1_555 1_555
C16 C11 1_555 1_555
C17 C16 1_555 1_555
H13 C17 1_555 1_555
C18 C17 1_555 1_555
H14 C18 1_555 1_555
C19 C7 1_555 1_555
C20 C8 1_555 1_555
C21 O3 1_555 1_555
H15 C21 1_555 1_555
H16 C21 1_555 1_555
H17 C21 1_555 1_555
C22 O4 1_555 1_555
H18 C22 1_555 1_555
H19 C22 1_555 1_555
H20 C22 1_555 1_555
F2 C24 1_555 1_555
O5 C31 1_555 1_555
O6 C42 1_555 1_555
O7 C42 1_555 1_555
O8 H21 1_555 1_555
N2 H22 1_555 1_555
H23 N2 1_555 1_555
C23 H24 1_555 1_555
C24 C23 1_555 1_555
C25 C24 1_555 1_555
H25 C25 1_555 1_555
C26 C25 1_555 1_555
C27 C26 1_555 1_555
H26 C27 1_555 1_555
C28 C23 1_555 1_555
H27 C28 1_555 1_555
C29 C26 1_555 1_555
H28 C29 1_555 1_555
C30 C29 1_555 1_555
C31 N2 1_555 1_555
C32 O5 1_555 1_555
C33 C32 1_555 1_555
C34 C33 1_555 1_555
H29 C34 1_555 1_555
C35 C34 1_555 1_555
H30 C35 1_555 1_555
C36 C35 1_555 1_555
H31 C36 1_555 1_555
C37 C36 1_555 1_555
H32 C37 1_555 1_555
C38 C33 1_555 1_555
C39 C38 1_555 1_555
H33 C39 1_555 1_555
C40 C39 1_555 1_555
H34 C40 1_555 1_555
C41 C29 1_555 1_555
C42 C30 1_555 1_555
C43 O7 1_555 1_555
H35 C43 1_555 1_555
H36 C43 1_555 1_555
H37 C43 1_555 1_555
C44 O8 1_555 1_555
H38 C44 1_555 1_555
H39 C44 1_555 1_555
H40 C44 1_555 1_555
C5 C6 1_555 1_555
C8 C9 1_555 1_555
C10 C19 1_555 1_555
C15 C16 1_555 1_555
C18 C19 1_555 1_555
C27 C28 1_555 1_555
C30 C31 1_555 1_555
C32 C41 1_555 1_555
C37 C38 1_555 1_555
C40 C41 1_555 1_555

#END
