
#######################################################################
#
#                 Cambridge Crystallographic Data Centre
#                                CCDC 
#
#######################################################################
#
# If this CIF has been generated from an entry in the Cambridge 
# Structural Database, then it will include bibliographic, chemical, 
# crystal, experimental, refinement or atomic coordinate data resulting 
# from the CCDC's data processing and validation procedures.
#
#######################################################################

data_SEZROE
_chemical_formula_moiety         'C19 H29 N1 O2'
_chemical_name_systematic        
3aS-(3a\a,4(5R*,6R*),4a\b,7a\b,7b\a)-4-(Decahydro-1H-dicylopenta(b,d)pyrrol-4-yl)-5,6-dihydro-5-methyl-6-(1-methylethyl)-2H-pyran-2-one
_symmetry_cell_setting           orthorhombic
_symmetry_space_group_name_H-M   'P 21 21 21'
_symmetry_Int_Tables_number      19
_space_group_name_Hall           'P 2ac 2ab'
loop_
_symmetry_equiv_pos_site_id
_symmetry_equiv_pos_as_xyz
1 x,y,z
2 1/2+x,1/2-y,-z
3 -x,1/2+y,1/2-z
4 1/2-x,-y,1/2+z
_cell_length_a                   13.187(4)
_cell_length_b                   13.144(4)
_cell_length_c                   9.668(3)
_cell_angle_alpha                90
_cell_angle_beta                 90
_cell_angle_gamma                90
_cell_volume                     1675.75
_chemical_melting_point          483-484K
_cell_formula_units_Z            4
loop_
_atom_site_label
_atom_site_type_symbol
_atom_site_fract_x
_atom_site_fract_y
_atom_site_fract_z
O1 O 0.6171(1) 0.3726(1) 0.2153(2)
O2 O 0.5866(1) 0.2409(1) 0.0799(2)
N1 N 0.3071(1) 0.4367(1) 0.2334(2)
C1 C 0.2304(2) 0.3642(2) 0.1820(2)
C2 C 0.2239(2) 0.2634(2) 0.2654(3)
C3 C 0.1227(2) 0.2670(2) 0.3431(3)
C4 C 0.0553(2) 0.3352(2) 0.2544(3)
C5 C 0.1279(2) 0.4177(2) 0.2027(2)
C6 C 0.1489(2) 0.5016(2) 0.3100(2)
C7 C 0.0872(2) 0.5985(2) 0.2888(3)
C8 C 0.1476(3) 0.6615(3) 0.1955(7)
C9 C 0.2518(2) 0.6202(2) 0.1782(3)
C10 C 0.2599(2) 0.5315(1) 0.2840(2)
C11 C 0.4073(2) 0.4171(2) 0.2225(2)
C12 C 0.4441(2) 0.3289(2) 0.1656(3)
C13 C 0.5506(2) 0.3095(2) 0.1492(3)
C14 C 0.5769(2) 0.4366(2) 0.3247(2)
C15 C 0.4840(2) 0.4950(2) 0.2718(2)
C16 C 0.6644(2) 0.5026(2) 0.3747(2)
C17 C 0.7580(2) 0.4391(2) 0.4092(3)
C18 C 0.6330(2) 0.5656(2) 0.5000(3)
C19 C 0.5105(2) 0.5695(2) 0.1549(3)
H1 H 0.2421(17) 0.3484(16) 0.0904(24)
H2 H 0.2239(20) 0.2055(19) 0.2070(27)
H3 H 0.2804(21) 0.2518(19) 0.3258(28)
H4 H 0.0953(20) 0.1995(20) 0.3577(28)
H5 H 0.1362(21) 0.2985(19) 0.4372(27)
H6 H -0.0026(22) 0.3636(19) 0.3104(27)
H7 H 0.0304(18) 0.2955(16) 0.1744(26)
H8 H 0.1032(19) 0.4475(19) 0.1272(28)
H9 H 0.1374(18) 0.4741(17) 0.3992(25)
H10 H 0.0750(28) 0.6342(30) 0.3677(44)
H11 H 0.0195(23) 0.5904(20) 0.2612(31)
H12 H 0.1152 0.6614 0.1066
H13 H 0.1508 0.7299 0.2302
H14 H 0.2607(23) 0.5905(23) 0.0816(35)
H15 H 0.2988(24) 0.6756(22) 0.1997(31)
H16 H 0.2947(15) 0.5565(15) 0.3614(22)
H17 H 0.3970(16) 0.2789(17) 0.1228(24)
H18 H 0.5552(14) 0.3907(14) 0.3992(21)
H19 H 0.4542(18) 0.5322(17) 0.3484(26)
H20 H 0.6839(17) 0.5510(16) 0.2978(22)
H21 H 0.7444(26) 0.3935(26) 0.4791(36)
H22 H 0.8125(23) 0.4816(22) 0.4376(29)
H23 H 0.7810(22) 0.3991(21) 0.3164(33)
H24 H 0.6073(20) 0.5218(20) 0.5716(28)
H25 H 0.5721(21) 0.6069(22) 0.4830(28)
H26 H 0.6951(21) 0.6101(20) 0.5343(26)
H27 H 0.5499(22) 0.5346(21) 0.0841(31)
H28 H 0.5496(20) 0.6298(21) 0.1840(27)
H29 H 0.4489(19) 0.5957(18) 0.1184(26)
loop_
_geom_bond_atom_site_label_1
_geom_bond_atom_site_label_2
_geom_bond_site_symmetry_1
_geom_bond_site_symmetry_2
O1 C13 1_555 1_555
O2 C13 1_555 1_555
N1 C1 1_555 1_555
C1 C2 1_555 1_555
C2 C3 1_555 1_555
C3 C4 1_555 1_555
C4 C5 1_555 1_555
C5 C1 1_555 1_555
C6 C5 1_555 1_555
C7 C6 1_555 1_555
C8 C7 1_555 1_555
C9 C8 1_555 1_555
C10 N1 1_555 1_555
C11 N1 1_555 1_555
C12 C11 1_555 1_555
C13 C12 1_555 1_555
C14 O1 1_555 1_555
C15 C11 1_555 1_555
C16 C14 1_555 1_555
C17 C16 1_555 1_555
C18 C16 1_555 1_555
C19 C15 1_555 1_555
H1 C1 1_555 1_555
H2 C2 1_555 1_555
H3 C2 1_555 1_555
H4 C3 1_555 1_555
H5 C3 1_555 1_555
H6 C4 1_555 1_555
H7 C4 1_555 1_555
H8 C5 1_555 1_555
H9 C6 1_555 1_555
H10 C7 1_555 1_555
H11 C7 1_555 1_555
H12 C8 1_555 1_555
H13 C8 1_555 1_555
H14 C9 1_555 1_555
H15 C9 1_555 1_555
H16 C10 1_555 1_555
H17 C12 1_555 1_555
H18 C14 1_555 1_555
H19 C15 1_555 1_555
H20 C16 1_555 1_555
H21 C17 1_555 1_555
H22 C17 1_555 1_555
H23 C17 1_555 1_555
H24 C18 1_555 1_555
H25 C18 1_555 1_555
H26 C18 1_555 1_555
H27 C19 1_555 1_555
H28 C19 1_555 1_555
H29 C19 1_555 1_555
C6 C10 1_555 1_555
C9 C10 1_555 1_555
C14 C15 1_555 1_555

#END
