
#######################################################################
#
#                 Cambridge Crystallographic Data Centre
#                                CCDC 
#
#######################################################################
#
# If this CIF has been generated from an entry in the Cambridge 
# Structural Database, then it will include bibliographic, chemical, 
# crystal, experimental, refinement or atomic coordinate data resulting 
# from the CCDC's data processing and validation procedures.
#
#######################################################################

data_SEZREV
_chemical_formula_moiety         'C14 H13 N3 O3,H2 O1'
_chemical_name_systematic        
'4-Hydroxy-3-methoxybenzaldehyde nicotinoylhydrazone monohydrate'
_symmetry_cell_setting           monoclinic
_symmetry_space_group_name_H-M   'P 21/c'
_symmetry_Int_Tables_number      14
_space_group_name_Hall           '-P 2ybc'
loop_
_symmetry_equiv_pos_site_id
_symmetry_equiv_pos_as_xyz
1 x,y,z
2 -x,1/2+y,1/2-z
3 -x,-y,-z
4 x,1/2-y,1/2+z
_cell_length_a                   13.323(3)
_cell_length_b                   7.1147(14)
_cell_length_c                   14.589(3)
_cell_angle_alpha                90
_cell_angle_beta                 101.42(3)
_cell_angle_gamma                90
_cell_volume                     1355.5
_exptl_crystal_colour            colorless
_exptl_crystal_description       block
_cell_formula_units_Z            4
_exptl_crystal_recrystallization_method methanol
loop_
_atom_site_label
_atom_site_type_symbol
_atom_site_fract_x
_atom_site_fract_y
_atom_site_fract_z
O1 O 0.15658(13) 0.2186(2) -0.06936(12)
O2 O 0.67815(12) 0.1600(2) 0.13490(11)
O3 O 0.77037(12) 0.4103(2) 0.26134(12)
H1 H 0.7865 0.3013 0.2531
N1 N -0.12369(15) 0.4055(3) -0.20219(14)
N2 N 0.21050(14) 0.5038(3) -0.00927(13)
H2 H 0.1954 0.6195 -0.0014
N3 N 0.30654(15) 0.4334(3) 0.03106(13)
C1 C 0.14139(18) 0.3879(4) -0.06082(16)
C2 C 0.04311(18) 0.4746(3) -0.10990(15)
C3 C 0.02335(19) 0.6662(4) -0.12054(17)
H3 H 0.0720 0.7540 -0.0935
C4 C -0.0702(2) 0.7238(4) -0.17226(17)
H4 H -0.0857 0.8509 -0.1799
C5 C -0.14024(19) 0.5893(4) -0.21230(17)
H5 H -0.2021 0.6295 -0.2482
C6 C -0.03339(18) 0.3516(4) -0.15091(16)
H6 H -0.0213 0.2235 -0.1423
C7 C 0.36377(18) 0.5515(4) 0.08356(16)
H7 H 0.3371 0.6686 0.0939
C8 C 0.46974(17) 0.5084(3) 0.12780(15)
C9 C 0.52143(18) 0.6325(4) 0.19433(16)
H8 H 0.4886 0.7407 0.2088
C10 C 0.62129(18) 0.5970(4) 0.23932(16)
H9 H 0.6543 0.6795 0.2849
C11 C 0.67179(17) 0.4400(4) 0.21693(16)
C12 C 0.62061(18) 0.3132(3) 0.14963(16)
C13 C 0.52079(18) 0.3472(3) 0.10539(16)
H10 H 0.4873 0.2633 0.0607
C14 C 0.62646(19) 0.0149(4) 0.07578(17)
H11 H 0.5672 -0.0251 0.0988
H12 H 0.6719 -0.0898 0.0756
H13 H 0.6056 0.0622 0.0133
O4 O 0.18919(14) 0.8984(2) 0.03963(12)
H14 H 0.1860 1.0007 0.0081
H15 H 0.2050 0.9135 0.0991
loop_
_geom_bond_atom_site_label_1
_geom_bond_atom_site_label_2
_geom_bond_site_symmetry_1
_geom_bond_site_symmetry_2
O1 C1 1_555 1_555
O2 C12 1_555 1_555
O3 H1 1_555 1_555
N1 C5 1_555 1_555
N2 H2 1_555 1_555
N3 N2 1_555 1_555
C1 N2 1_555 1_555
C2 C1 1_555 1_555
C3 C2 1_555 1_555
H3 C3 1_555 1_555
C4 C3 1_555 1_555
H4 C4 1_555 1_555
C5 C4 1_555 1_555
H5 C5 1_555 1_555
C6 N1 1_555 1_555
H6 C6 1_555 1_555
C7 N3 1_555 1_555
H7 C7 1_555 1_555
C8 C7 1_555 1_555
C9 C8 1_555 1_555
H8 C9 1_555 1_555
C10 C9 1_555 1_555
H9 C10 1_555 1_555
C11 O3 1_555 1_555
C12 C11 1_555 1_555
C13 C8 1_555 1_555
H10 C13 1_555 1_555
C14 O2 1_555 1_555
H11 C14 1_555 1_555
H12 C14 1_555 1_555
H13 C14 1_555 1_555
O4 H14 1_555 1_555
H15 O4 1_555 1_555
C2 C6 1_555 1_555
C10 C11 1_555 1_555
C12 C13 1_555 1_555

#END
