
#######################################################################
#
#                 Cambridge Crystallographic Data Centre
#                                CCDC 
#
#######################################################################
#
# If this CIF has been generated from an entry in the Cambridge 
# Structural Database, then it will include bibliographic, chemical, 
# crystal, experimental, refinement or atomic coordinate data resulting 
# from the CCDC's data processing and validation procedures.
#
#######################################################################

data_SEZTID
_chemical_formula_moiety         'C24 H18 Br1 N1 O2 S1'
_chemical_name_systematic        
(S)-1-((4-bromophenyl)sulfonyl)-3-phenyl-2,3-dihydro-1H-benzo[g]indole
_symmetry_cell_setting           orthorhombic
_symmetry_space_group_name_H-M   'P 21 21 21'
_symmetry_Int_Tables_number      19
_space_group_name_Hall           'P 2ac 2ab'
loop_
_symmetry_equiv_pos_site_id
_symmetry_equiv_pos_as_xyz
1 x,y,z
2 1/2-x,-y,1/2+z
3 1/2+x,1/2-y,-z
4 -x,1/2+y,1/2-z
_cell_length_a                   7.0085(4)
_cell_length_b                   10.9667(7)
_cell_length_c                   26.5254(15)
_cell_angle_alpha                90
_cell_angle_beta                 90
_cell_angle_gamma                90
_cell_volume                     2038.75
_cell_formula_units_Z            4
loop_
_atom_site_label
_atom_site_type_symbol
_atom_site_fract_x
_atom_site_fract_y
_atom_site_fract_z
Br1 Br 0.69128(9) 0.07606(8) 0.17121(2)
S1 S -0.06692(15) 0.06994(14) 0.30531(5)
O1 O -0.1836(4) 0.1722(3) 0.29279(12)
O2 O -0.1459(4) -0.0506(3) 0.30477(12)
N1 N 0.0134(4) 0.0964(4) 0.36366(13)
C1 C 0.1496(6) 0.0127(4) 0.38610(15)
C2 C 0.1152(6) -0.1070(4) 0.40350(16)
C3 C -0.0610(6) -0.1675(5) 0.40208(18)
H1 H -0.1654 -0.1284 0.3877
C4 C -0.0834(8) -0.2813(5) 0.4210(2)
H2 H -0.2021 -0.3190 0.4196
C5 C 0.0728(8) -0.3427(5) 0.44283(19)
H3 H 0.0579 -0.4212 0.4555
C6 C 0.2445(7) -0.2866(5) 0.44521(17)
H4 H 0.3468 -0.3276 0.4598
C7 C 0.2728(6) -0.1681(5) 0.42622(17)
C8 C 0.4514(6) -0.1095(5) 0.43015(18)
H5 H 0.5536 -0.1514 0.4443
C9 C 0.4776(6) 0.0071(5) 0.41361(18)
H6 H 0.5961 0.0445 0.4165
C10 C 0.3236(6) 0.0694(5) 0.39218(14)
C11 C 0.3170(6) 0.2013(5) 0.37422(17)
H7 H 0.3729 0.2066 0.3404
C12 C 0.0988(6) 0.2206(5) 0.3706(2)
H8 H 0.0507 0.2582 0.4012
H9 H 0.0678 0.2727 0.3423
C13 C 0.4215(6) 0.2884(4) 0.40941(18)
C14 C 0.5951(6) 0.3342(5) 0.3944(2)
H10 H 0.6459 0.3124 0.3633
C15 C 0.6940(7) 0.4131(5) 0.4258(2)
H11 H 0.8104 0.4448 0.4151
C16 C 0.6250(7) 0.4453(6) 0.4717(2)
H12 H 0.6933 0.4980 0.4925
C17 C 0.4519(7) 0.3986(5) 0.48718(18)
H13 H 0.4030 0.4193 0.5186
C18 C 0.3516(7) 0.3212(5) 0.45601(18)
H14 H 0.2345 0.2906 0.4666
C19 C 0.1359(5) 0.0692(5) 0.26582(16)
C20 C 0.1817(8) 0.1712(5) 0.23837(18)
H15 H 0.1013 0.2386 0.2391
C21 C 0.3464(8) 0.1746(6) 0.20967(19)
H16 H 0.3774 0.2430 0.1907
C22 C 0.4636(6) 0.0731(6) 0.21010(16)
C23 C 0.4210(7) -0.0308(6) 0.23658(18)
H17 H 0.5014 -0.0983 0.2357
C24 C 0.2523(6) -0.0319(5) 0.26496(17)
H18 H 0.2189 -0.1011 0.2832
loop_
_geom_bond_atom_site_label_1
_geom_bond_atom_site_label_2
_geom_bond_site_symmetry_1
_geom_bond_site_symmetry_2
Br1 C22 1_555 1_555
S1 O1 1_555 1_555
O2 S1 1_555 1_555
N1 S1 1_555 1_555
C1 N1 1_555 1_555
C2 C1 1_555 1_555
C3 C2 1_555 1_555
H1 C3 1_555 1_555
C4 C3 1_555 1_555
H2 C4 1_555 1_555
C5 C4 1_555 1_555
H3 C5 1_555 1_555
C6 C5 1_555 1_555
H4 C6 1_555 1_555
C7 C2 1_555 1_555
C8 C7 1_555 1_555
H5 C8 1_555 1_555
C9 C8 1_555 1_555
H6 C9 1_555 1_555
C10 C1 1_555 1_555
C11 C10 1_555 1_555
H7 C11 1_555 1_555
C12 N1 1_555 1_555
H8 C12 1_555 1_555
H9 C12 1_555 1_555
C13 C11 1_555 1_555
C14 C13 1_555 1_555
H10 C14 1_555 1_555
C15 C14 1_555 1_555
H11 C15 1_555 1_555
C16 C15 1_555 1_555
H12 C16 1_555 1_555
C17 C16 1_555 1_555
H13 C17 1_555 1_555
C18 C13 1_555 1_555
H14 C18 1_555 1_555
C19 S1 1_555 1_555
C20 C19 1_555 1_555
H15 C20 1_555 1_555
C21 C20 1_555 1_555
H16 C21 1_555 1_555
C22 C21 1_555 1_555
C23 C22 1_555 1_555
H17 C23 1_555 1_555
C24 C19 1_555 1_555
H18 C24 1_555 1_555
C6 C7 1_555 1_555
C9 C10 1_555 1_555
C11 C12 1_555 1_555
C17 C18 1_555 1_555
C23 C24 1_555 1_555

#END
