
#######################################################################
#
#                 Cambridge Crystallographic Data Centre
#                                CCDC 
#
#######################################################################
#
# If this CIF has been generated from an entry in the Cambridge 
# Structural Database, then it will include bibliographic, chemical, 
# crystal, experimental, refinement or atomic coordinate data resulting 
# from the CCDC's data processing and validation procedures.
#
#######################################################################

data_SEZWUR
_chemical_formula_moiety         'C31 H34 N2 O1'
_chemical_name_systematic        
3-(6-(1-((2,6-Diisopropylphenyl)amino)ethyl)pyridin-2-yl)biphenyl-2-ol
_symmetry_cell_setting           monoclinic
_symmetry_space_group_name_H-M   'P 21/c'
_symmetry_Int_Tables_number      14
_space_group_name_Hall           '-P 2ybc'
loop_
_symmetry_equiv_pos_site_id
_symmetry_equiv_pos_as_xyz
1 x,y,z
2 -x,1/2+y,1/2-z
3 -x,-y,-z
4 x,1/2-y,1/2+z
_cell_length_a                   9.6467(12)
_cell_length_b                   24.689(3)
_cell_length_c                   11.3413(15)
_cell_angle_alpha                90
_cell_angle_beta                 110.409(3)
_cell_angle_gamma                90
_cell_volume                     2531.57
_exptl_crystal_colour            colorless
_exptl_crystal_description       block
_cell_formula_units_Z            4
loop_
_atom_site_label
_atom_site_type_symbol
_atom_site_fract_x
_atom_site_fract_y
_atom_site_fract_z
O1 O 0.1722(3) 0.06800(9) 0.0471(2)
H1 H 0.1490 0.0915 0.0905
N1 N 0.1435(3) 0.11186(11) 0.2402(3)
N2 N 0.0633(3) 0.22521(11) 0.1294(2)
H2 H 0.1069 0.1985 0.0856
C1 C 0.2433(4) 0.02609(14) 0.1227(3)
C2 C 0.2843(4) -0.01735(13) 0.0629(3)
C3 C 0.3562(4) -0.06017(14) 0.1379(3)
H3 H 0.3834 -0.0906 0.0996
C4 C 0.3901(4) -0.06026(15) 0.2673(3)
H4 H 0.4408 -0.0900 0.3168
C5 C 0.3491(4) -0.01657(14) 0.3228(3)
H5 H 0.3715 -0.0167 0.4113
C6 C 0.2758(4) 0.02799(13) 0.2533(3)
C7 C 0.2329(4) 0.07388(14) 0.3157(3)
C8 C 0.2758(4) 0.07942(14) 0.4460(3)
H6 H 0.3397 0.0534 0.4997
C9 C 0.2261(4) 0.12226(16) 0.4967(3)
H7 H 0.2556 0.1262 0.5854
C10 C 0.1321(4) 0.15979(15) 0.4172(3)
H8 H 0.0954 0.1896 0.4505
C11 C 0.0932(4) 0.15305(14) 0.2895(3)
C12 C -0.0116(4) 0.19140(13) 0.1972(3)
H9 H -0.0523 0.2164 0.2464
C13 C 0.1525(4) 0.26793(14) 0.2013(3)
C14 C 0.0800(4) 0.31296(14) 0.2282(3)
C15 C 0.1622(4) 0.35456(15) 0.2996(3)
H10 H 0.1133 0.3846 0.3201
C16 C 0.3155(5) 0.35339(16) 0.3420(3)
H11 H 0.3713 0.3824 0.3907
C17 C 0.3862(4) 0.30953(15) 0.3126(3)
H12 H 0.4911 0.3095 0.3389
C18 C 0.3082(4) 0.26550(14) 0.2457(3)
C19 C -0.0884(4) 0.31864(14) 0.1757(3)
H13 H -0.1304 0.2856 0.1248
C20 C -0.1506(4) 0.32220(14) 0.2821(3)
H14 H -0.1164 0.2911 0.3383
H15 H -0.2589 0.3221 0.2467
H16 H -0.1165 0.3557 0.3295
C21 C -0.1360(4) 0.36801(14) 0.0895(3)
H17 H -0.0997 0.4011 0.1384
H18 H -0.2442 0.3692 0.0527
H19 H -0.0946 0.3654 0.0221
C22 C 0.3928(4) 0.21858(15) 0.2180(3)
H20 H 0.3210 0.1885 0.1828
C23 C 0.5126(5) 0.19740(18) 0.3351(4)
H21 H 0.5887 0.2252 0.3682
H22 H 0.5573 0.1649 0.3140
H23 H 0.4691 0.1884 0.3989
C24 C 0.4591(5) 0.23377(17) 0.1196(4)
H24 H 0.3803 0.2457 0.0428
H25 H 0.5094 0.2022 0.1007
H26 H 0.5304 0.2632 0.1516
C25 C 0.2544(4) -0.01924(13) -0.0748(3)
C26 C 0.1183(4) -0.00507(13) -0.1627(3)
H27 H 0.0425 0.0083 -0.1350
C27 C 0.0918(4) -0.01025(14) -0.2900(3)
H28 H -0.0022 -0.0006 -0.3489
C28 C 0.2004(4) -0.02924(14) -0.3324(4)
H29 H 0.1818 -0.0328 -0.4200
C29 C 0.3366(4) -0.04308(14) -0.2458(4)
H30 H 0.4127 -0.0559 -0.2739
C30 C 0.3629(4) -0.03836(13) -0.1173(3)
H31 H 0.4565 -0.0484 -0.0584
C31 C -0.1416(4) 0.16174(14) 0.1034(3)
H32 H -0.2107 0.1881 0.0492
H33 H -0.1924 0.1404 0.1489
H34 H -0.1056 0.1376 0.0518
loop_
_geom_bond_atom_site_label_1
_geom_bond_atom_site_label_2
_geom_bond_site_symmetry_1
_geom_bond_site_symmetry_2
O1 H1 1_555 1_555
N1 C7 1_555 1_555
N2 H2 1_555 1_555
C1 O1 1_555 1_555
C2 C1 1_555 1_555
C3 C2 1_555 1_555
H3 C3 1_555 1_555
C4 C3 1_555 1_555
H4 C4 1_555 1_555
C5 C4 1_555 1_555
H5 C5 1_555 1_555
C6 C1 1_555 1_555
C7 C6 1_555 1_555
C8 C7 1_555 1_555
H6 C8 1_555 1_555
C9 C8 1_555 1_555
H7 C9 1_555 1_555
C10 C9 1_555 1_555
H8 C10 1_555 1_555
C11 N1 1_555 1_555
C12 N2 1_555 1_555
H9 C12 1_555 1_555
C13 N2 1_555 1_555
C14 C13 1_555 1_555
C15 C14 1_555 1_555
H10 C15 1_555 1_555
C16 C15 1_555 1_555
H11 C16 1_555 1_555
C17 C16 1_555 1_555
H12 C17 1_555 1_555
C18 C13 1_555 1_555
C19 C14 1_555 1_555
H13 C19 1_555 1_555
C20 C19 1_555 1_555
H14 C20 1_555 1_555
H15 C20 1_555 1_555
H16 C20 1_555 1_555
C21 C19 1_555 1_555
H17 C21 1_555 1_555
H18 C21 1_555 1_555
H19 C21 1_555 1_555
C22 C18 1_555 1_555
H20 C22 1_555 1_555
C23 C22 1_555 1_555
H21 C23 1_555 1_555
H22 C23 1_555 1_555
H23 C23 1_555 1_555
C24 C22 1_555 1_555
H24 C24 1_555 1_555
H25 C24 1_555 1_555
H26 C24 1_555 1_555
C25 C2 1_555 1_555
C26 C25 1_555 1_555
H27 C26 1_555 1_555
C27 C26 1_555 1_555
H28 C27 1_555 1_555
C28 C27 1_555 1_555
H29 C28 1_555 1_555
C29 C28 1_555 1_555
H30 C29 1_555 1_555
C30 C25 1_555 1_555
H31 C30 1_555 1_555
C31 C12 1_555 1_555
H32 C31 1_555 1_555
H33 C31 1_555 1_555
H34 C31 1_555 1_555
C5 C6 1_555 1_555
C10 C11 1_555 1_555
C11 C12 1_555 1_555
C17 C18 1_555 1_555
C29 C30 1_555 1_555

#END
