
#######################################################################
#
#                 Cambridge Crystallographic Data Centre
#                                CCDC 
#
#######################################################################
#
# If this CIF has been generated from an entry in the Cambridge 
# Structural Database, then it will include bibliographic, chemical, 
# crystal, experimental, refinement or atomic coordinate data resulting 
# from the CCDC's data processing and validation procedures.
#
#######################################################################

data_SEZZAZ
_chemical_formula_moiety         'C13 H15 Br1 O3'
_chemical_name_systematic        
'ethyl 3-(7-bromo-2,3-dihydro-1-benzofuran-5-yl)propanoate'
_symmetry_cell_setting           monoclinic
_symmetry_space_group_name_H-M   'C 2'
_symmetry_Int_Tables_number      5
_space_group_name_Hall           'C 2y'
loop_
_symmetry_equiv_pos_site_id
_symmetry_equiv_pos_as_xyz
1 x,y,z
2 -x,y,-z
3 1/2+x,1/2+y,z
4 1/2-x,1/2+y,-z
_cell_length_a                   16.779(4)
_cell_length_b                   7.2732(14)
_cell_length_c                   10.636(2)
_cell_angle_alpha                90
_cell_angle_beta                 104.952(4)
_cell_angle_gamma                90
_cell_volume                     1254.04
_exptl_crystal_colour            colorless
_exptl_crystal_description       block
_chemical_melting_point          '321 K'
_cell_formula_units_Z            4
_exptl_crystal_recrystallization_method methanol
loop_
_atom_site_label
_atom_site_type_symbol
_atom_site_fract_x
_atom_site_fract_y
_atom_site_fract_z
Br1 Br 0.564027(15) 0.36149(6) 0.88065(3)
O1 O 0.56792(13) 0.7475(3) 0.7520(2)
O2 O 0.87606(14) 0.3621(4) 0.63848(18)
O3 O 0.86836(15) 0.0613(3) 0.6681(2)
C1 C 0.73361(17) 0.4220(4) 0.8906(3)
H1 H 0.7424 0.3089 0.9327
C2 C 0.65492(16) 0.4935(4) 0.8531(2)
C3 C 0.64263(16) 0.6622(4) 0.7945(2)
C4 C 0.5828(2) 0.9140(4) 0.6859(4)
H2 H 0.5595 1.0193 0.7197
H3 H 0.5569 0.9044 0.5934
C5 C 0.6740(2) 0.9374(4) 0.7084(4)
H4 H 0.6939 1.0412 0.7651
H5 H 0.6890 0.9546 0.6271
C6 C 0.70739(19) 0.7597(4) 0.7722(3)
C7 C 0.78603(17) 0.6874(4) 0.8070(2)
H6 H 0.8298 0.7533 0.7907
C8 C 0.79959(16) 0.5165(4) 0.8661(2)
C9 C 0.8847(2) 0.4337(4) 0.9054(3)
H7 H 0.9223 0.5143 0.8759
H8 H 0.9026 0.4292 0.9996
C10 C 0.89142(19) 0.2439(4) 0.8530(3)
H9 H 0.9460 0.1958 0.8931
H10 H 0.8517 0.1647 0.8783
C11 C 0.87696(17) 0.2353(4) 0.7078(3)
C14 C 0.8721(5) 0.0378(11) 0.5338(6)
H16 H 0.9247 0.0803 0.5228
H17 H 0.8283 0.1064 0.4752
C15 C 0.8619(5) -0.1652(11) 0.5068(8)
H18 H 0.8611 -0.1885 0.4176
H19 H 0.8110 -0.2061 0.5228
H20 H 0.9071 -0.2304 0.5628
C12? C 0.8455(10) 0.013(2) 0.5309(10)
H11? H 0.8540 0.1161 0.4780
H12? H 0.7882 -0.0244 0.5033
C13? C 0.9028(8) -0.148(3) 0.5198(16)
H13? H 0.9019 -0.1663 0.4301
H14? H 0.8843 -0.2573 0.5539
H15? H 0.9581 -0.1197 0.5686
loop_
_geom_bond_atom_site_label_1
_geom_bond_atom_site_label_2
_geom_bond_site_symmetry_1
_geom_bond_site_symmetry_2
Br1 C2 1_555 1_555
O1 C3 1_555 1_555
O2 C11 1_555 1_555
O3 C11 1_555 1_555
C1 H1 1_555 1_555
C2 C1 1_555 1_555
C3 C2 1_555 1_555
C4 O1 1_555 1_555
H2 C4 1_555 1_555
H3 C4 1_555 1_555
C5 C4 1_555 1_555
H4 C5 1_555 1_555
H5 C5 1_555 1_555
C6 C3 1_555 1_555
C7 C6 1_555 1_555
H6 C7 1_555 1_555
C8 C1 1_555 1_555
C9 C8 1_555 1_555
H7 C9 1_555 1_555
H8 C9 1_555 1_555
C10 C9 1_555 1_555
H9 C10 1_555 1_555
H10 C10 1_555 1_555
C11 C10 1_555 1_555
C14 O3 1_555 1_555
H16 C14 1_555 1_555
H17 C14 1_555 1_555
C15 C14 1_555 1_555
H18 C15 1_555 1_555
H19 C15 1_555 1_555
H20 C15 1_555 1_555
C5 C6 1_555 1_555
C7 C8 1_555 1_555

#END
