
#######################################################################
#
#                 Cambridge Crystallographic Data Centre
#                                CCDC 
#
#######################################################################
#
# If this CIF has been generated from an entry in the Cambridge 
# Structural Database, then it will include bibliographic, chemical, 
# crystal, experimental, refinement or atomic coordinate data resulting 
# from the CCDC's data processing and validation procedures.
#
#######################################################################

data_SFDMOX
_chemical_name_common            Sulfodimethoxine
_chemical_formula_moiety         'C12 H14 N4 O4 S1'
_chemical_name_systematic        
4-(4'-Aminobenzenesulfonamido)-2,6-dimethoxypyrimidine
_chemical_properties_biological  'antibacterial activity'
_symmetry_cell_setting           triclinic
_symmetry_space_group_name_H-M   'P -1'
_symmetry_Int_Tables_number      2
_space_group_name_Hall           '-P 1'
loop_
_symmetry_equiv_pos_site_id
_symmetry_equiv_pos_as_xyz
1 x,y,z
2 -x,-y,-z
_cell_length_a                   7.99(3)
_cell_length_b                   9.41(3)
_cell_length_c                   14.46(4)
_cell_angle_alpha                58.9(1)
_cell_angle_beta                 78.9(1)
_cell_angle_gamma                116.0(2)
_cell_volume                     701.866
_cell_formula_units_Z            2
loop_
_atom_site_label
_atom_site_type_symbol
_atom_site_fract_x
_atom_site_fract_y
_atom_site_fract_z
C1 C 0.38000 0.05500 0.15500
C2 C 0.46600 0.28000 0.41800
C3 C 0.62700 0.37600 0.52100
C4 C 0.09700 -0.33100 0.74700
C5 C 0.61400 0.20100 0.09400
C6 C 0.73300 0.13500 0.08500
C7 C 0.62800 -0.07700 0.13500
C8 C 0.39400 -0.21400 0.19200
C9 C 0.27200 -0.15200 0.20400
C10 C 0.31400 0.19300 0.32000
C11 C 0.18700 -0.02400 0.42800
C12 C 0.20800 -0.07200 0.53000
N1 N 0.74700 -0.13800 0.12400
N2 N 0.32200 0.27600 0.20800
N3 N 0.34800 0.07300 0.53000
N4 N 0.46000 0.34900 0.31400
O1 O -0.00500 -0.04800 0.26300
O2 O 0.27900 0.30000 0.03800
O3 O 0.61300 0.43800 0.40700
O4 O 0.08700 -0.27900 0.63600
S1 S 0.22720 0.14000 0.16410
loop_
_geom_bond_atom_site_label_1
_geom_bond_atom_site_label_2
_geom_bond_site_symmetry_1
_geom_bond_site_symmetry_2
C1 C5 1_555 1_555
C2 N3 1_555 1_555
C3 O3 1_555 1_555
C4 O4 1_555 1_555
C5 C6 1_555 1_555
C6 C7 1_555 1_555
C7 C8 1_555 1_555
C8 C9 1_555 1_555
C9 C1 1_555 1_555
C10 C11 1_555 1_555
C11 C12 1_555 1_555
C12 N3 1_555 1_555
N1 C7 1_555 1_555
N2 C10 1_555 1_555
N4 C2 1_555 1_555
O1 S1 1_555 1_555
O2 S1 1_555 1_555
O3 C2 1_555 1_555
O4 C12 1_555 1_555
S1 C1 1_555 1_555
C10 N4 1_555 1_555
N2 S1 1_555 1_555

#END
