
#######################################################################
#
#                 Cambridge Crystallographic Data Centre
#                                CCDC 
#
#######################################################################
#
# If this CIF has been generated from an entry in the Cambridge 
# Structural Database, then it will include bibliographic, chemical, 
# crystal, experimental, refinement or atomic coordinate data resulting 
# from the CCDC's data processing and validation procedures.
#
#######################################################################

data_SIBBUD
_chemical_formula_moiety         'C15 H16 Cl1 N2 O2 1+,Cl1 O4 1-,H2 O1'
_chemical_name_systematic        
'5-chloro-8-(2-oxo-2-(pyrrolidin-1-yl)ethoxy)quinolin-1-ium perchlorate monohydrate'
_symmetry_cell_setting           triclinic
_symmetry_space_group_name_H-M   'P -1'
_symmetry_Int_Tables_number      2
_space_group_name_Hall           '-P 1'
loop_
_symmetry_equiv_pos_site_id
_symmetry_equiv_pos_as_xyz
1 x,y,z
2 -x,-y,-z
_cell_length_a                   7.040(2)
_cell_length_b                   9.028(3)
_cell_length_c                   14.578(5)
_cell_angle_alpha                99.866(6)
_cell_angle_beta                 102.255(7)
_cell_angle_gamma                96.336(6)
_cell_volume                     881.612
_exptl_crystal_colour            yellow
_exptl_crystal_description       rod
_cell_formula_units_Z            2
loop_
_atom_site_label
_atom_site_type_symbol
_atom_site_fract_x
_atom_site_fract_y
_atom_site_fract_z
Cl1 Cl 1.40956(17) 0.11859(16) 1.15477(8)
N1 N 1.0682(5) -0.2333(4) 0.8375(3)
H1 H 1.0016 -0.2472 0.7792
N2 N 0.8053(5) 0.1319(4) 0.5398(2)
O1 O 0.9992(4) -0.0056(3) 0.7495(2)
O2 O 0.7991(5) -0.1001(4) 0.5726(2)
C1 C 1.1063(7) -0.3511(5) 0.8738(4)
H2 H 1.0645 -0.4478 0.8358
C2 C 1.2077(8) -0.3360(6) 0.9678(4)
H3 H 1.2354 -0.4213 0.9929
C3 C 1.2664(7) -0.1937(6) 1.0231(3)
H4 H 1.3324 -0.1819 1.0869
C4 C 1.2286(6) -0.0665(5) 0.9851(3)
C5 C 1.2886(6) 0.0858(5) 1.0353(3)
C6 C 1.2538(6) 0.2025(5) 0.9921(3)
H5 H 1.2946 0.3016 1.0269
C7 C 1.1572(6) 0.1778(5) 0.8956(3)
H6 H 1.1364 0.2607 0.8667
C8 C 1.0927(6) 0.0342(5) 0.8431(3)
C9 C 1.1291(5) -0.0886(5) 0.8880(3)
C10 C 0.9503(7) 0.1127(5) 0.6999(3)
H7 H 1.0684 0.1796 0.7005
H8 H 0.8656 0.1723 0.7302
C11 C 0.8454(6) 0.0376(5) 0.5985(3)
C12 C 0.7000(7) 0.0758(6) 0.4392(3)
H9 H 0.5696 0.0226 0.4344
H10 H 0.7720 0.0080 0.4058
C13 C 0.6887(10) 0.2183(8) 0.3998(4)
H11 H 0.7882 0.2316 0.3637
H12 H 0.5605 0.2135 0.3577
C14 C 0.7223(13) 0.3447(8) 0.4823(4)
H13 H 0.5989 0.3631 0.4983
H14 H 0.7842 0.4370 0.4684
C15 C 0.8554(9) 0.2968(6) 0.5636(4)
H15 H 0.9927 0.3287 0.5658
H16 H 0.8284 0.3381 0.6247
Cl2 Cl 0.51897(19) 0.40192(14) 0.77038(9)
O3 O 0.7197(9) 0.4354(8) 0.8154(5)
O4 O 0.4808(8) 0.2439(5) 0.7447(4)
O5 O 0.5021(10) 0.4770(7) 0.6945(5)
O6 O 0.4338(13) 0.4514(6) 0.8415(6)
O7 O 0.8423(6) -0.3294(4) 0.6657(3)
H17 H 0.831(5) -0.261(3) 0.632(3)
H18 H 0.730(3) -0.374(6) 0.665(5)
loop_
_geom_bond_atom_site_label_1
_geom_bond_atom_site_label_2
_geom_bond_site_symmetry_1
_geom_bond_site_symmetry_2
Cl1 C5 1_555 1_555
N1 H1 1_555 1_555
N2 C11 1_555 1_555
O1 C8 1_555 1_555
O2 C11 1_555 1_555
C1 N1 1_555 1_555
H2 C1 1_555 1_555
C2 C1 1_555 1_555
H3 C2 1_555 1_555
C3 C2 1_555 1_555
H4 C3 1_555 1_555
C4 C3 1_555 1_555
C5 C4 1_555 1_555
C6 C5 1_555 1_555
H5 C6 1_555 1_555
C7 C6 1_555 1_555
H6 C7 1_555 1_555
C8 C7 1_555 1_555
C9 N1 1_555 1_555
C10 O1 1_555 1_555
H7 C10 1_555 1_555
H8 C10 1_555 1_555
C11 C10 1_555 1_555
C12 N2 1_555 1_555
H9 C12 1_555 1_555
H10 C12 1_555 1_555
C13 C12 1_555 1_555
H11 C13 1_555 1_555
H12 C13 1_555 1_555
C14 C13 1_555 1_555
H13 C14 1_555 1_555
H14 C14 1_555 1_555
C15 N2 1_555 1_555
H15 C15 1_555 1_555
H16 C15 1_555 1_555
Cl2 O3 1_555 1_555
O4 Cl2 1_555 1_555
O5 Cl2 1_555 1_555
O6 Cl2 1_555 1_555
O7 H17 1_555 1_555
H18 O7 1_555 1_555
C4 C9 1_555 1_555
C8 C9 1_555 1_555
C14 C15 1_555 1_555

#END
