
#######################################################################
#
#                 Cambridge Crystallographic Data Centre
#                                CCDC 
#
#######################################################################
#
# If this CIF has been generated from an entry in the Cambridge 
# Structural Database, then it will include bibliographic, chemical, 
# crystal, experimental, refinement or atomic coordinate data resulting 
# from the CCDC's data processing and validation procedures.
#
#######################################################################

data_SIBDAJ
_chemical_formula_moiety         'C19 H17 N3 O4 S1'
_chemical_name_systematic        
N-Benzyl-2-nitro-N-(4-pyridylmethyl)benzenesulfonamide
_symmetry_cell_setting           orthorhombic
_symmetry_space_group_name_H-M   'P 21 21 21'
_symmetry_Int_Tables_number      19
_space_group_name_Hall           'P 2ac 2ab'
loop_
_symmetry_equiv_pos_site_id
_symmetry_equiv_pos_as_xyz
1 x,y,z
2 1/2-x,-y,1/2+z
3 -x,1/2+y,1/2-z
4 1/2+x,1/2-y,-z
_cell_length_a                   7.3524(13)
_cell_length_b                   13.910(3)
_cell_length_c                   18.135(3)
_cell_angle_alpha                90
_cell_angle_beta                 90
_cell_angle_gamma                90
_cell_volume                     1854.7
_exptl_crystal_colour            colorless
_exptl_crystal_description       block
_chemical_melting_point          '389.5-391.3 K'
_cell_formula_units_Z            4
_exptl_crystal_recrystallization_method 'ethyl acetate/petroleum ether'
loop_
_atom_site_label
_atom_site_type_symbol
_atom_site_fract_x
_atom_site_fract_y
_atom_site_fract_z
S1 S -0.00962(7) 0.88297(4) 0.07236(3)
O1 O -0.1122(2) 0.95492(12) 0.10993(10)
O2 O -0.0743(2) 0.84373(12) 0.00468(8)
O3 O -0.3779(2) 0.79517(15) 0.12334(12)
O4 O -0.345(3) 0.8574(14) 0.2316(9)
N1 N 0.3586(6) 1.0819(2) -0.18811(17)
N2 N 0.1902(3) 0.92511(12) 0.05728(9)
N3 N -0.2993(3) 0.80440(18) 0.18163(12)
C1 C 0.2834(3) 0.97544(16) 0.11797(12)
H1 H 0.3954 0.9416 0.1291
H2 H 0.2070 0.9727 0.1615
C2 C 0.3276(3) 1.07875(16) 0.10198(11)
C3 C 0.4919(4) 1.11625(18) 0.12544(14)
H3 H 0.5783 1.0765 0.1472
C4 C 0.5271(5) 1.2136(2) 0.11626(18)
H4 H 0.6372 1.2385 0.1328
C5 C 0.4074(5) 1.27243(19) 0.08438(16)
H5 H 0.4332 1.3375 0.0790
C6 C 0.2488(5) 1.2361(2) 0.06017(15)
H6 H 0.1657 1.2768 0.0374
C7 C 0.2062(4) 1.14000(17) 0.06828(13)
H7 H 0.0956 1.1167 0.0510
C8 C 0.3036(3) 0.88825(16) -0.00359(11)
H8 H 0.2501 0.8293 -0.0222
H9 H 0.4234 0.8728 0.0154
C9 C 0.3234(3) 0.95875(15) -0.06666(12)
C10 C 0.4874(4) 0.9999(2) -0.08314(15)
H10 H 0.5895 0.9868 -0.0546
C11 C 0.4992(7) 1.0622(2) -0.14380(18)
H11 H 0.6104 1.0913 -0.1537
C12 C 0.2002(6) 1.0408(3) -0.17031(16)
H12 H 0.0992 1.0543 -0.1994
C13 C 0.1785(4) 0.9799(2) -0.11162(13)
H13 H 0.0652 0.9529 -0.1022
C14 C 0.0185(3) 0.78741(14) 0.13756(11)
C15 C 0.1838(3) 0.74083(16) 0.14343(13)
H14 H 0.2776 0.7559 0.1110
C16 C 0.2104(3) 0.67176(19) 0.19748(14)
H15 H 0.3214 0.6399 0.2004
C17 C 0.0745(4) 0.64978(19) 0.24674(13)
H16 H 0.0943 0.6041 0.2833
C18 C -0.0900(3) 0.69527(19) 0.24185(12)
H17 H -0.1826 0.6811 0.2750
C19 C -0.1164(3) 0.76246(16) 0.18704(12)
O5? O -0.379(3) 0.8287(15) 0.2378(10)
loop_
_geom_bond_atom_site_label_1
_geom_bond_atom_site_label_2
_geom_bond_site_symmetry_1
_geom_bond_site_symmetry_2
S1 O1 1_555 1_555
O2 S1 1_555 1_555
O3 N3 1_555 1_555
O4 N3 1_555 1_555
N1 C11 1_555 1_555
N2 S1 1_555 1_555
N3 C19 1_555 1_555
C1 N2 1_555 1_555
H1 C1 1_555 1_555
H2 C1 1_555 1_555
C2 C1 1_555 1_555
C3 C2 1_555 1_555
H3 C3 1_555 1_555
C4 C3 1_555 1_555
H4 C4 1_555 1_555
C5 C4 1_555 1_555
H5 C5 1_555 1_555
C6 C5 1_555 1_555
H6 C6 1_555 1_555
C7 C2 1_555 1_555
H7 C7 1_555 1_555
C8 N2 1_555 1_555
H8 C8 1_555 1_555
H9 C8 1_555 1_555
C9 C8 1_555 1_555
C10 C9 1_555 1_555
H10 C10 1_555 1_555
C11 C10 1_555 1_555
H11 C11 1_555 1_555
C12 N1 1_555 1_555
H12 C12 1_555 1_555
C13 C9 1_555 1_555
H13 C13 1_555 1_555
C14 S1 1_555 1_555
C15 C14 1_555 1_555
H14 C15 1_555 1_555
C16 C15 1_555 1_555
H15 C16 1_555 1_555
C17 C16 1_555 1_555
H16 C17 1_555 1_555
C18 C17 1_555 1_555
H17 C18 1_555 1_555
C19 C14 1_555 1_555
C6 C7 1_555 1_555
C12 C13 1_555 1_555
C18 C19 1_555 1_555

#END
