
#######################################################################
#
#                 Cambridge Crystallographic Data Centre
#                                CCDC 
#
#######################################################################
#
# If this CIF has been generated from an entry in the Cambridge 
# Structural Database, then it will include bibliographic, chemical, 
# crystal, experimental, refinement or atomic coordinate data resulting 
# from the CCDC's data processing and validation procedures.
#
#######################################################################

data_SIBFUF
_chemical_formula_moiety         '2(C2 H8 N1 1+),C10 H4 O8 2-,2(C12 H8 N2)'
_chemical_name_systematic        
'bis(Dimethylammonium) 2,5-dicarboxybenzene-1,4-dicarboxylate bis(1,10-phenanthroline)'
_symmetry_cell_setting           triclinic
_symmetry_space_group_name_H-M   'P -1'
_symmetry_Int_Tables_number      2
_space_group_name_Hall           '-P 1'
loop_
_symmetry_equiv_pos_site_id
_symmetry_equiv_pos_as_xyz
1 x,y,z
2 -x,-y,-z
_cell_length_a                   7.1333(10)
_cell_length_b                   9.3392(14)
_cell_length_c                   13.1127(19)
_cell_angle_alpha                74.543(2)
_cell_angle_beta                 88.942(3)
_cell_angle_gamma                86.179(3)
_cell_volume                     840.091
_exptl_crystal_colour            colorless
_exptl_crystal_description       prism
_cell_formula_units_Z            1
loop_
_atom_site_label
_atom_site_type_symbol
_atom_site_fract_x
_atom_site_fract_y
_atom_site_fract_z
C1 C 0.2854(3) -0.0028(3) 1.15541(16)
H1 H 0.2899 -0.0417 1.2285
C2 C 0.3214(3) 0.1388(3) 1.11381(17)
H2 H 0.3504 0.1970 1.1582
N1 N 0.19096(19) -0.12123(17) 0.91349(12)
C4 C 0.2339(2) -0.0386(2) 0.97916(13)
N2 N 0.2663(2) 0.16961(16) 0.82680(12)
C5 C 0.2741(2) 0.1151(2) 0.93369(13)
C8 C 0.3163(2) 0.2031(2) 1.00132(16)
C10 C 0.2397(2) -0.0967(2) 1.09053(14)
C11 C 0.1532(3) -0.2607(2) 0.95730(17)
H5 H 0.1233 -0.3183 0.9127
C13 C 0.1978(3) -0.2453(3) 1.13124(17)
H6 H 0.1996 -0.2876 1.2040
C14 C 0.3502(3) 0.3519(3) 0.9542(2)
H7 H 0.3778 0.4139 0.9960
C15 C 0.3005(3) 0.3105(2) 0.78643(18)
H8 H 0.2961 0.3482 0.7133
C16 C 0.1549(3) -0.3274(2) 1.06579(19)
H9 H 0.1271 -0.4263 1.0924
C17 C 0.3429(3) 0.4061(2) 0.8467(2)
H10 H 0.3656 0.5048 0.8145
C3 C 0.8377(3) 0.3058(2) 0.57458(13)
O1 O 0.8255(2) 0.17515(14) 0.57223(11)
C6 C 0.6669(2) 0.41345(17) 0.53936(12)
C7 C 0.5482(2) 0.37538(17) 0.46960(12)
H3 H 0.5812 0.2895 0.4486
C9 C 0.6169(2) 0.54343(17) 0.57116(12)
O2 O 0.98412(18) 0.35243(17) 0.60385(12)
O3 O 0.8962(2) 0.56751(16) 0.66754(12)
H4 H 0.950(3) 0.468(3) 0.631(2)
C12 C 0.7198(3) 0.6079(2) 0.64786(15)
O4 O 0.6367(2) 0.69657(19) 0.68733(14)
C3A C 0.1623(3) 0.6942(2) 0.42542(13)
O1A O 0.1745(2) 0.82485(14) 0.42777(11)
C6A C 0.3331(2) 0.58655(17) 0.46064(12)
C7A C 0.4518(2) 0.62462(17) 0.53040(12)
H3A H 0.4188 0.7105 0.5514
C9A C 0.3831(2) 0.45657(17) 0.42884(12)
O2A O 0.01588(18) 0.64757(17) 0.39615(12)
O3A O 0.1038(2) 0.43249(16) 0.33246(12)
H4A H 0.050(3) 0.532(3) 0.369(2)
C12A C 0.2802(3) 0.3921(2) 0.35214(15)
O4A O 0.3633(2) 0.30343(19) 0.31267(14)
N3 N 0.15141(19) 1.00663(15) 0.67303(11)
H11 H 0.1728 1.0112 0.7395
H12 H 0.0583 1.0753 0.6457
C18 C 0.0911(3) 0.8588(2) 0.67628(17)
H13 H 0.0673 0.8534 0.6056
H14 H -0.0217 0.8413 0.7176
H15 H 0.1880 0.7848 0.7078
C19 C 0.3229(3) 1.0427(3) 0.60939(19)
H16 H 0.4237 0.9714 0.6392
H17 H 0.3563 1.1406 0.6095
H18 H 0.3004 1.0397 0.5381
loop_
_geom_bond_atom_site_label_1
_geom_bond_atom_site_label_2
_geom_bond_site_symmetry_1
_geom_bond_site_symmetry_2
C1 H1 1_555 1_555
C2 C1 1_555 1_555
H2 C2 1_555 1_555
C3 O1 1_555 1_555
N1 C4 1_555 1_555
C4 C5 1_555 1_555
N2 C5 1_555 1_555
C5 C8 1_555 1_555
C6 C3 1_555 1_555
C7 C6 1_555 1_555
H3 C7 1_555 1_555
C8 C2 1_555 1_555
C9 C6 1_555 1_555
O2 C3 1_555 1_555
O3 H4 1_555 1_555
C10 C1 1_555 1_555
C11 N1 1_555 1_555
H5 C11 1_555 1_555
C12 C9 1_555 1_555
O4 C12 1_555 1_555
C13 C10 1_555 1_555
H6 C13 1_555 1_555
C14 C8 1_555 1_555
H7 C14 1_555 1_555
C15 N2 1_555 1_555
H8 C15 1_555 1_555
C16 C11 1_555 1_555
H9 C16 1_555 1_555
C17 C14 1_555 1_555
H10 C17 1_555 1_555
N3 H11 1_555 1_555
H12 N3 1_555 1_555
C18 N3 1_555 1_555
H13 C18 1_555 1_555
H14 C18 1_555 1_555
H15 C18 1_555 1_555
C19 N3 1_555 1_555
H16 C19 1_555 1_555
H17 C19 1_555 1_555
H18 C19 1_555 1_555
C3A O1A 1_555 1_555
C6A C3A 1_555 1_555
C7A C9 1_555 1_555
H3A C7A 1_555 1_555
C9A C7 1_555 1_555
O2A C3A 1_555 1_555
O3A H4A 1_555 1_555
C12A C9A 1_555 1_555
O4A C12A 1_555 1_555
C4 C10 1_555 1_555
O3 C12 1_555 1_555
C13 C16 1_555 1_555
C15 C17 1_555 1_555
C6A C7A 1_555 1_555
C6A C9A 1_555 1_555
O3A C12A 1_555 1_555

#END
