
#######################################################################
#
#                 Cambridge Crystallographic Data Centre
#                                CCDC 
#
#######################################################################
#
# If this CIF has been generated from an entry in the Cambridge 
# Structural Database, then it will include bibliographic, chemical, 
# crystal, experimental, refinement or atomic coordinate data resulting 
# from the CCDC's data processing and validation procedures.
#
#######################################################################

data_SIBMAR02
_chemical_formula_moiety         'C35 H36 N2 O3'
_chemical_name_systematic        
2'-Phenylamino-6'-di-n-butylamino-3'-methylspiro(isobenzofuran-1(3H),9'(9H)-xanthen-3-one)
_symmetry_cell_setting           monoclinic
_symmetry_space_group_name_H-M   'P 21/c'
_symmetry_Int_Tables_number      14
_space_group_name_Hall           '-P 2ybc'
loop_
_symmetry_equiv_pos_site_id
_symmetry_equiv_pos_as_xyz
1 x,y,z
2 -x,1/2+y,1/2-z
3 -x,-y,-z
4 x,1/2-y,1/2+z
_cell_length_a                   8.611(2)
_cell_length_b                   22.261(6)
_cell_length_c                   16.676(4)
_cell_angle_alpha                90.00
_cell_angle_beta                 111.233(11)
_cell_angle_gamma                90.00
_cell_volume                     2979.61
_cell_formula_units_Z            4
loop_
_atom_site_label
_atom_site_type_symbol
_atom_site_fract_x
_atom_site_fract_y
_atom_site_fract_z
O1 O 0.3461(3) -0.46080(9) -0.49331(12)
O2 O 0.5583(3) -0.35128(9) -0.28771(14)
O3 O 0.7106(4) -0.29105(12) -0.18193(18)
N1 N 0.5459(4) -0.23413(12) -0.55450(19)
H1 H 0.6178 -0.2295 -0.5788
N2 N 0.2226(3) -0.60450(12) -0.31578(17)
C1 C 0.5075(5) -0.12780(15) -0.5611(2)
H2 H 0.5750 -0.1251 -0.5937
C2 C 0.4391(6) -0.07685(17) -0.5424(3)
H3 H 0.4590 -0.0400 -0.5632
C3 C 0.3415(6) -0.07933(18) -0.4933(3)
H4 H 0.2954 -0.0446 -0.4804
C4 C 0.3132(5) -0.13384(18) -0.4637(3)
H5 H 0.2480 -0.1360 -0.4299
C5 C 0.3794(4) -0.18554(16) -0.4829(2)
H6 H 0.3576 -0.2222 -0.4625
C6 C 0.4780(4) -0.18354(14) -0.5324(2)
C7 C 0.5031(4) -0.29313(14) -0.5391(2)
C8 C 0.5599(4) -0.31565(14) -0.4571(2)
H7 H 0.6310 -0.2922 -0.4129
C9 C 0.5149(3) -0.37236(13) -0.43767(18)
C10 C 0.5862(4) -0.39711(13) -0.34741(18)
C11 C 0.5001(4) -0.45388(13) -0.34006(19)
C12 C 0.5297(4) -0.48221(14) -0.2614(2)
H8 H 0.6112 -0.4664 -0.2126
C13 C 0.4452(4) -0.53196(14) -0.2522(2)
H9 H 0.4715 -0.5494 -0.1982
C14 C 0.3185(4) -0.55721(13) -0.3237(2)
C15 C 0.2919(4) -0.53068(13) -0.40323(19)
H10 H 0.2124 -0.5468 -0.4525
C16 C 0.3816(4) -0.48074(12) -0.41025(19)
C17 C 0.4101(4) -0.40621(13) -0.50489(19)
C18 C 0.3618(4) -0.38592(14) -0.5888(2)
H11 H 0.2983 -0.4108 -0.6334
C19 C 0.4058(4) -0.32972(15) -0.6076(2)
C20 C 0.3486(5) -0.30815(18) -0.6998(2)
H12 H 0.2839 -0.3390 -0.7373
H13 H 0.4440 -0.2990 -0.7145
H14 H 0.2818 -0.2727 -0.7060
C21 C 0.7738(4) -0.40007(13) -0.31468(18)
C22 C 0.8743(4) -0.43528(14) -0.3438(2)
H15 H 0.8282 -0.4632 -0.3875
C23 C 1.0449(5) -0.42812(19) -0.3067(3)
H16 H 1.1150 -0.4513 -0.3254
C24 C 1.1116(5) -0.3864(2) -0.2417(3)
H17 H 1.2265 -0.3815 -0.2181
C25 C 1.0117(6) -0.3516(2) -0.2107(2)
H18 H 1.0564 -0.3242 -0.1661
C26 C 0.8420(4) -0.36005(15) -0.2500(2)
C27 C 0.7051(5) -0.32949(15) -0.2337(2)
C28 C 0.0728(4) -0.62192(15) -0.3877(2)
H19 H 0.0220 -0.5860 -0.4192
H20 H -0.0057 -0.6393 -0.3647
C29 C 0.1003(4) -0.66603(15) -0.4499(2)
H21 H 0.1722 -0.6479 -0.4765
H22 H 0.1565 -0.7013 -0.4186
C30 C -0.0606(5) -0.6849(2) -0.5193(3)
H23 H -0.1134 -0.6499 -0.5526
H24 H -0.1350 -0.7007 -0.4925
C31 C -0.0364(7) -0.7320(2) -0.5793(3)
H25 H -0.1424 -0.7422 -0.6220
H26 H 0.0132 -0.7672 -0.5469
H27 H 0.0352 -0.7164 -0.6070
C32 C 0.2540(5) -0.63588(18) -0.2354(2)
H28 H 0.3702 -0.6300 -0.1999
H29 H 0.2383 -0.6785 -0.2480
C33 C 0.1532(9) -0.6193(4) -0.1839(4)
H30 H 0.0455 -0.6381 -0.2123
H31 H 0.2037 -0.6401 -0.1294
C34 C 0.1231(13) -0.5687(4) -0.1656(6)
H32 H 0.0745 -0.5474 -0.2197
H33 H 0.2302 -0.5500 -0.1354
C35 C 0.0117(8) -0.5536(3) -0.1124(4)
H34 H 0.0096 -0.5109 -0.1047
H35 H 0.0566 -0.5728 -0.0571
H36 H -0.0995 -0.5679 -0.1425
loop_
_geom_bond_atom_site_label_1
_geom_bond_atom_site_label_2
_geom_bond_site_symmetry_1
_geom_bond_site_symmetry_2
O1 C16 1_555 1_555
O2 C10 1_555 1_555
O3 C27 1_555 1_555
N1 H1 1_555 1_555
N2 C14 1_555 1_555
C1 H2 1_555 1_555
C2 C1 1_555 1_555
H3 C2 1_555 1_555
C3 C2 1_555 1_555
H4 C3 1_555 1_555
C4 C3 1_555 1_555
H5 C4 1_555 1_555
C5 C4 1_555 1_555
H6 C5 1_555 1_555
C6 N1 1_555 1_555
C7 N1 1_555 1_555
C8 C7 1_555 1_555
H7 C8 1_555 1_555
C9 C8 1_555 1_555
C10 C9 1_555 1_555
C11 C10 1_555 1_555
C12 C11 1_555 1_555
H8 C12 1_555 1_555
C13 C12 1_555 1_555
H9 C13 1_555 1_555
C14 C13 1_555 1_555
C15 C14 1_555 1_555
H10 C15 1_555 1_555
C16 C11 1_555 1_555
C17 O1 1_555 1_555
C18 C17 1_555 1_555
H11 C18 1_555 1_555
C19 C7 1_555 1_555
C20 C19 1_555 1_555
H12 C20 1_555 1_555
H13 C20 1_555 1_555
H14 C20 1_555 1_555
C21 C10 1_555 1_555
C22 C21 1_555 1_555
H15 C22 1_555 1_555
C23 C22 1_555 1_555
H16 C23 1_555 1_555
C24 C23 1_555 1_555
H17 C24 1_555 1_555
C25 C24 1_555 1_555
H18 C25 1_555 1_555
C26 C21 1_555 1_555
C27 O2 1_555 1_555
C28 N2 1_555 1_555
H19 C28 1_555 1_555
H20 C28 1_555 1_555
C29 C28 1_555 1_555
H21 C29 1_555 1_555
H22 C29 1_555 1_555
C30 C29 1_555 1_555
H23 C30 1_555 1_555
H24 C30 1_555 1_555
C31 C30 1_555 1_555
H25 C31 1_555 1_555
H26 C31 1_555 1_555
H27 C31 1_555 1_555
C32 N2 1_555 1_555
H28 C32 1_555 1_555
H29 C32 1_555 1_555
C33 C32 1_555 1_555
H30 C33 1_555 1_555
H31 C33 1_555 1_555
C34 C33 1_555 1_555
H32 C34 1_555 1_555
H33 C34 1_555 1_555
C35 C34 1_555 1_555
H34 C35 1_555 1_555
H35 C35 1_555 1_555
H36 C35 1_555 1_555
C1 C6 1_555 1_555
C5 C6 1_555 1_555
C9 C17 1_555 1_555
C15 C16 1_555 1_555
C18 C19 1_555 1_555
C25 C26 1_555 1_555
C26 C27 1_555 1_555

#END
