
#######################################################################
#
#                 Cambridge Crystallographic Data Centre
#                                CCDC 
#
#######################################################################
#
# If this CIF has been generated from an entry in the Cambridge 
# Structural Database, then it will include bibliographic, chemical, 
# crystal, experimental, refinement or atomic coordinate data resulting 
# from the CCDC's data processing and validation procedures.
#
#######################################################################

data_SIBNAV
_chemical_formula_moiety         'C13 H13 N1 O4'
_chemical_name_systematic        
'ethyl 5-(4-methoxyphenyl)-1,3-oxazole-2-carboxylate'
_symmetry_cell_setting           monoclinic
_symmetry_space_group_name_H-M   'P 21/n'
_symmetry_Int_Tables_number      14
_space_group_name_Hall           '-P 2yn'
loop_
_symmetry_equiv_pos_site_id
_symmetry_equiv_pos_as_xyz
1 x,y,z
2 1/2-x,1/2+y,1/2-z
3 -x,-y,-z
4 1/2+x,1/2-y,1/2+z
_cell_length_a                   6.8375(18)
_cell_length_b                   13.912(4)
_cell_length_c                   12.798(3)
_cell_angle_alpha                90
_cell_angle_beta                 92.529(3)
_cell_angle_gamma                90
_cell_volume                     1216.2
_cell_formula_units_Z            4
loop_
_atom_site_label
_atom_site_type_symbol
_atom_site_fract_x
_atom_site_fract_y
_atom_site_fract_z
N1 N 0.2112(2) 0.64464(12) 1.21263(12)
O1 O 0.21720(17) 0.60841(8) 1.04370(9)
O2 O 0.1385(2) 0.84147(11) 1.14508(11)
O3 O 0.1477(2) 0.78436(9) 0.98104(10)
O4 O 0.3601(2) 0.18101(10) 0.88168(12)
C1 C 0.1976(3) 0.67670(14) 1.11780(14)
C2 C 0.2411(3) 0.54761(15) 1.20121(15)
H1 H 0.2564 0.5040 1.2561
C3 C 0.2452(2) 0.52467(13) 1.09850(14)
C4 C 0.2730(2) 0.43680(13) 1.03949(14)
C5 C 0.3084(3) 0.35011(14) 1.09146(15)
H2 H 0.3135 0.3487 1.1642
C6 C 0.3358(3) 0.26717(14) 1.03695(15)
H3 H 0.3590 0.2099 1.0729
C7 C 0.3294(3) 0.26754(13) 0.92843(15)
C8 C 0.2928(3) 0.35277(14) 0.87575(15)
H4 H 0.2863 0.3538 0.8030
C9 C 0.2659(3) 0.43647(13) 0.93133(14)
H5 H 0.2425 0.4937 0.8953
C10 C 0.1594(3) 0.77665(14) 1.08469(15)
C11 C 0.0933(4) 0.87844(15) 0.93858(18)
H6 H 0.0076 0.9108 0.9857
H7 H 0.0230 0.8706 0.8716
C12 C 0.2702(5) 0.93726(19) 0.9251(2)
H8 H 0.2328 0.9989 0.8971
H9 H 0.3540 0.9054 0.8778
H10 H 0.3386 0.9456 0.9915
C13 C 0.3509(4) 0.17738(17) 0.77046(18)
H11 H 0.3757 0.1129 0.7479
H12 H 0.4476 0.2198 0.7438
H13 H 0.2231 0.1971 0.7447
loop_
_geom_bond_atom_site_label_1
_geom_bond_atom_site_label_2
_geom_bond_site_symmetry_1
_geom_bond_site_symmetry_2
N1 C1 1_555 1_555
O1 C1 1_555 1_555
O2 C10 1_555 1_555
O3 C10 1_555 1_555
O4 C7 1_555 1_555
C1 C10 1_555 1_555
C2 N1 1_555 1_555
H1 C2 1_555 1_555
C3 O1 1_555 1_555
C4 C3 1_555 1_555
C5 C4 1_555 1_555
H2 C5 1_555 1_555
C6 C5 1_555 1_555
H3 C6 1_555 1_555
C7 C6 1_555 1_555
C8 C7 1_555 1_555
H4 C8 1_555 1_555
C9 C4 1_555 1_555
H5 C9 1_555 1_555
C11 O3 1_555 1_555
H6 C11 1_555 1_555
H7 C11 1_555 1_555
C12 C11 1_555 1_555
H8 C12 1_555 1_555
H9 C12 1_555 1_555
H10 C12 1_555 1_555
C13 O4 1_555 1_555
H11 C13 1_555 1_555
H12 C13 1_555 1_555
H13 C13 1_555 1_555
C2 C3 1_555 1_555
C8 C9 1_555 1_555

#END
