
#######################################################################
#
#                 Cambridge Crystallographic Data Centre
#                                CCDC 
#
#######################################################################
#
# If this CIF has been generated from an entry in the Cambridge 
# Structural Database, then it will include bibliographic, chemical, 
# crystal, experimental, refinement or atomic coordinate data resulting 
# from the CCDC's data processing and validation procedures.
#
#######################################################################

data_SIBRIH
_chemical_formula_moiety         'C29 H28 B1 F10 N1'
_chemical_name_systematic        
1-{1-[bis(pentafluorophenyl)boranyl]-6-methylhepta-1,4,6-trien-2-yl}-2,2,6,6-tetramethylpiperidine
_symmetry_cell_setting           monoclinic
_symmetry_space_group_name_H-M   'C 2/c'
_symmetry_Int_Tables_number      15
_space_group_name_Hall           '-C 2yn'
loop_
_symmetry_equiv_pos_site_id
_symmetry_equiv_pos_as_xyz
1 x,y,z
2 -x,y,1/2-z
3 1/2+x,1/2+y,z
4 1/2-x,1/2+y,1/2-z
5 -x,-y,-z
6 x,-y,1/2+z
7 1/2-x,1/2-y,-z
8 1/2+x,1/2-y,1/2+z
_cell_length_a                   29.854(5)
_cell_length_b                   10.5623(15)
_cell_length_c                   23.234(6)
_cell_angle_alpha                90
_cell_angle_beta                 129.007(8)
_cell_angle_gamma                90
_cell_volume                     5693.05
_exptl_crystal_colour            yellow
_exptl_crystal_description       plate
_cell_formula_units_Z            8
loop_
_atom_site_label
_atom_site_type_symbol
_atom_site_fract_x
_atom_site_fract_y
_atom_site_fract_z
B1 B 0.62637(13) 0.4564(3) 0.31431(16)
N1 N 0.61102(9) 0.7397(2) 0.19884(12)
C1 C 0.63236(11) 0.6286(2) 0.23744(14)
C2 C 0.60879(11) 0.5690(3) 0.26661(15)
H1 H 0.5748 0.6087 0.2532
C3 C 0.68765(11) 0.5742(3) 0.25563(14)
H2 H 0.6871 0.4806 0.2573
H3 H 0.6904 0.5991 0.2168
C4 C 0.73888(11) 0.6252(3) 0.32986(15)
H4 H 0.7378 0.6202 0.3698
C5 C 0.78552(12) 0.6767(3) 0.34345(16)
H5 H 0.786 0.683 0.303
C6 C 0.83647(13) 0.7245(3) 0.41581(18)
C7 C 0.8786(6) 0.7870(19) 0.4222(11)
H6 H 0.8759 0.801 0.3797
H7 H 0.9111 0.8171 0.4692
C8 C 0.8399(5) 0.6952(18) 0.4830(4)
H8 H 0.8384 0.6034 0.4876
H9 H 0.8073 0.735 0.4765
H10 H 0.8761 0.7284 0.5279
C9 C 0.60782(12) 0.7626(3) 0.13156(15)
C10 C 0.55503(13) 0.8484(3) 0.07718(16)
H11 H 0.5518 0.8625 0.0326
H12 H 0.5198 0.8035 0.0614
C11 C 0.55758(14) 0.9769(3) 0.10938(17)
H13 H 0.5758 1.0396 0.0982
H14 H 0.5179 1.0061 0.0858
C12 C 0.59184(13) 0.9687(3) 0.19286(17)
H15 H 0.5785 1.0363 0.2083
H16 H 0.633 0.9849 0.2175
C13 C 0.58679(12) 0.8409(3) 0.21979(15)
C14 C 0.66254(13) 0.8257(3) 0.15121(17)
H17 H 0.6696 0.9058 0.177
H18 H 0.6572 0.8421 0.1057
H19 H 0.6956 0.7693 0.1834
C15 C 0.59434(12) 0.6373(3) 0.08893(15)
H20 H 0.6282 0.5819 0.1177
H21 H 0.5846 0.6554 0.0408
H22 H 0.5617 0.5951 0.0813
C16 C 0.52303(12) 0.8192(3) 0.18549(17)
H23 H 0.5004 0.7985 0.1328
H24 H 0.5077 0.8964 0.1908
H25 H 0.5207 0.7492 0.2111
C17 C 0.62503(14) 0.8501(3) 0.30464(16)
H26 H 0.621 0.7726 0.3242
H27 H 0.6131 0.9231 0.3181
H28 H 0.6654 0.8604 0.3256
C18 C 0.68458(11) 0.3737(3) 0.35631(15)
C19 C 0.69210(12) 0.2701(3) 0.32618(15)
F1 F 0.65067(6) 0.24171(15) 0.25379(8)
C20 C 0.74032(12) 0.1929(3) 0.36720(16)
F2 F 0.74538(7) 0.09251(16) 0.33544(10)
C21 C 0.78456(12) 0.2219(3) 0.44071(16)
F3 F 0.83258(7) 0.14943(17) 0.48073(10)
C22 C 0.78000(12) 0.3260(3) 0.47234(15)
F4 F 0.82314(7) 0.35553(17) 0.54367(9)
C23 C 0.72995(12) 0.3977(3) 0.43017(15)
F5 F 0.72611(7) 0.49651(15) 0.46424(8)
C24 C 0.58606(11) 0.4098(3) 0.33366(14)
C25 C 0.57072(11) 0.2843(3) 0.33004(14)
F6 F 0.58725(6) 0.19544(14) 0.30427(8)
C26 C 0.53901(11) 0.2414(3) 0.35047(15)
F7 F 0.52636(7) 0.11729(15) 0.34621(9)
C27 C 0.51955(11) 0.3275(3) 0.37532(15)
F8 F 0.48793(7) 0.28719(16) 0.39485(9)
C28 C 0.53347(12) 0.4530(3) 0.38043(15)
F9 F 0.51652(7) 0.53749(16) 0.40708(9)
C29 C 0.56553(11) 0.4919(3) 0.35922(14)
F10 F 0.57865(7) 0.61716(15) 0.36712(9)
C30? C 0.8817(15) 0.763(5) 0.421(3)
H29? H 0.8801 0.7592 0.3788
H30? H 0.9152 0.7946 0.4666
C31? C 0.8290(13) 0.752(5) 0.4737(15)
H31? H 0.8637 0.7933 0.5167
H32? H 0.8226 0.6725 0.4893
H33? H 0.7957 0.808 0.4524
loop_
_geom_bond_atom_site_label_1
_geom_bond_atom_site_label_2
_geom_bond_site_symmetry_1
_geom_bond_site_symmetry_2
B1 C2 1_555 1_555
N1 C1 1_555 1_555
C1 C2 1_555 1_555
C2 H1 1_555 1_555
C3 C1 1_555 1_555
H2 C3 1_555 1_555
H3 C3 1_555 1_555
C4 C3 1_555 1_555
H4 C4 1_555 1_555
C5 C4 1_555 1_555
H5 C5 1_555 1_555
C6 C5 1_555 1_555
C7 C6 1_555 1_555
H6 C7 1_555 1_555
H7 C7 1_555 1_555
C8 C6 1_555 1_555
H8 C8 1_555 1_555
H9 C8 1_555 1_555
H10 C8 1_555 1_555
C9 N1 1_555 1_555
C10 C9 1_555 1_555
H11 C10 1_555 1_555
H12 C10 1_555 1_555
C11 C10 1_555 1_555
H13 C11 1_555 1_555
H14 C11 1_555 1_555
C12 C11 1_555 1_555
H15 C12 1_555 1_555
H16 C12 1_555 1_555
C13 N1 1_555 1_555
C14 C9 1_555 1_555
H17 C14 1_555 1_555
H18 C14 1_555 1_555
H19 C14 1_555 1_555
C15 C9 1_555 1_555
H20 C15 1_555 1_555
H21 C15 1_555 1_555
H22 C15 1_555 1_555
C16 C13 1_555 1_555
H23 C16 1_555 1_555
H24 C16 1_555 1_555
H25 C16 1_555 1_555
C17 C13 1_555 1_555
H26 C17 1_555 1_555
H27 C17 1_555 1_555
H28 C17 1_555 1_555
C18 B1 1_555 1_555
C19 C18 1_555 1_555
F1 C19 1_555 1_555
C20 C19 1_555 1_555
F2 C20 1_555 1_555
C21 C20 1_555 1_555
F3 C21 1_555 1_555
C22 C21 1_555 1_555
F4 C22 1_555 1_555
C23 C18 1_555 1_555
F5 C23 1_555 1_555
C24 B1 1_555 1_555
C25 C24 1_555 1_555
F6 C25 1_555 1_555
C26 C25 1_555 1_555
F7 C26 1_555 1_555
C27 C26 1_555 1_555
F8 C27 1_555 1_555
C28 C27 1_555 1_555
F9 C28 1_555 1_555
C29 C24 1_555 1_555
F10 C29 1_555 1_555
C12 C13 1_555 1_555
C22 C23 1_555 1_555
C28 C29 1_555 1_555

#END
