
#######################################################################
#
#                 Cambridge Crystallographic Data Centre
#                                CCDC 
#
#######################################################################
#
# If this CIF has been generated from an entry in the Cambridge 
# Structural Database, then it will include bibliographic, chemical, 
# crystal, experimental, refinement or atomic coordinate data resulting 
# from the CCDC's data processing and validation procedures.
#
#######################################################################

data_SIBSII
_chemical_formula_moiety         'C42 H36 B1 F10 N1 O1'
_chemical_name_systematic        
bis(pentafluorophenyl)(4-phenylbut-1-en-3-yn-2-olato)[5-phenyl-2-(2,2,6,6-tetramethylpiperidin-1-ium-1-yl)penta-1,4-dien-1-yl]boron
_symmetry_cell_setting           monoclinic
_symmetry_space_group_name_H-M   'P 21/c'
_symmetry_Int_Tables_number      14
_space_group_name_Hall           '-P 2ybc'
loop_
_symmetry_equiv_pos_site_id
_symmetry_equiv_pos_as_xyz
1 x,y,z
2 -x,1/2+y,1/2-z
3 -x,-y,-z
4 x,1/2-y,1/2+z
_cell_length_a                   21.1713(5)
_cell_length_b                   9.5824(2)
_cell_length_c                   20.2501(3)
_cell_angle_alpha                90
_cell_angle_beta                 117.8120(1)
_cell_angle_gamma                90
_cell_volume                     3633.61
_exptl_crystal_colour            colorless
_exptl_crystal_description       plate
_cell_formula_units_Z            4
loop_
_atom_site_label
_atom_site_type_symbol
_atom_site_fract_x
_atom_site_fract_y
_atom_site_fract_z
O1 O 0.20713(10) 0.56166(19) 0.26232(9)
C1 C 0.27692(15) 0.8452(3) 0.31968(14)
C2 C 0.26550(14) 0.7475(3) 0.35919(14)
H1 H 0.2746 0.7794 0.4072
C3 C 0.31252(17) 0.9849(3) 0.35030(14)
H2 H 0.3439 1.0090 0.3280
H3 H 0.2754 1.0582 0.3358
C4 C 0.35593(16) 0.9825(3) 0.43384(15)
H4 H 0.3950 0.9195 0.4552
C5 C 0.34333(16) 1.0621(3) 0.47951(15)
H5 H 0.3047 1.1259 0.4570
C6 C 0.13047(16) 0.4517(3) 0.08226(16)
C7 C 0.14768(15) 0.4491(3) 0.14767(15)
C8 C 0.17063(15) 0.4446(3) 0.22663(14)
C9 C 0.15691(17) 0.3343(3) 0.25686(17)
H6 H 0.1732 0.3310 0.3092
H7 H 0.1308 0.2581 0.2263
N1 N 0.25567(12) 0.8157(3) 0.23912(11)
H8 H 0.2353(14) 0.728(3) 0.2339(14)
C10 C 0.32053(15) 0.7888(3) 0.22234(14)
C11 C 0.34219(17) 0.9230(3) 0.19700(16)
H9 H 0.3683 0.9834 0.2412
H10 H 0.3756 0.8983 0.1773
C12 C 0.28103(18) 1.0057(4) 0.13811(17)
H11 H 0.2574 0.9505 0.0915
H12 H 0.2995 1.0927 0.1270
C13 C 0.22741(18) 1.0413(3) 0.16559(16)
H13 H 0.1888 1.0988 0.1274
H14 H 0.2515 1.0979 0.2116
C14 C 0.19457(16) 0.9134(3) 0.18190(15)
C15 C 0.29844(17) 0.6764(3) 0.16237(16)
H15 H 0.3405 0.6443 0.1585
H16 H 0.2634 0.7149 0.1143
H17 H 0.2772 0.5976 0.1758
C16 C 0.38355(16) 0.7332(4) 0.29295(15)
H18 H 0.4230 0.7104 0.2823
H19 H 0.3689 0.6491 0.3098
H20 H 0.3992 0.8045 0.3322
C17 C 0.14903(16) 0.8295(3) 0.11129(15)
H21 H 0.1040 0.8789 0.0812
H22 H 0.1389 0.7373 0.1251
H23 H 0.1749 0.8185 0.0822
C18 C 0.14574(17) 0.9555(3) 0.21427(16)
H24 H 0.1735 1.0038 0.2619
H25 H 0.1236 0.8720 0.2225
H26 H 0.1084 1.0179 0.1794
C19 C 0.38287(16) 1.0627(3) 0.56188(15)
C20 C 0.43804(16) 0.9705(3) 0.60210(16)
H27 H 0.4524 0.9050 0.5765
C21 C 0.47234(17) 0.9731(4) 0.67940(16)
H28 H 0.5098 0.9088 0.7064
C22 C 0.45259(18) 1.0685(4) 0.71756(16)
H29 H 0.4764 1.0702 0.7706
C23 C 0.3987(2) 1.1601(3) 0.67864(16)
H30 H 0.3852 1.2264 0.7046
C24 C 0.36350(19) 1.1570(3) 0.60105(16)
H31 H 0.3256 1.2206 0.5745
B1 B 0.23956(18) 0.5859(3) 0.34459(16)
C25 C 0.31320(15) 0.4945(3) 0.39217(14)
F1 F 0.31496(9) 0.37854(19) 0.28877(9)
C26 C 0.34479(15) 0.4042(3) 0.36275(15)
F2 F 0.43472(10) 0.2476(2) 0.37141(11)
C27 C 0.40839(17) 0.3346(3) 0.40470(17)
F3 F 0.50597(10) 0.2856(2) 0.52174(11)
C28 C 0.44457(17) 0.3537(4) 0.48057(18)
F4 F 0.45190(10) 0.4650(2) 0.58728(9)
C29 C 0.41679(17) 0.4435(4) 0.51289(15)
F5 F 0.32968(9) 0.59693(18) 0.50578(8)
C30 C 0.35357(16) 0.5108(3) 0.46930(15)
C31 C 0.17935(15) 0.5592(3) 0.37459(14)
F6 F 0.10604(9) 0.7341(2) 0.29347(10)
C32 C 0.11774(16) 0.6373(3) 0.34675(15)
F7 F 0.00681(11) 0.7076(3) 0.33720(12)
C33 C 0.06487(17) 0.6257(4) 0.36771(18)
F8 F 0.02135(11) 0.5148(3) 0.44209(11)
C34 C 0.07165(18) 0.5282(4) 0.41975(17)
F9 F 0.13784(11) 0.3468(2) 0.49947(9)
C35 C 0.13078(18) 0.4446(4) 0.44884(15)
F10 F 0.23623(10) 0.36708(18) 0.45575(9)
C36 C 0.18233(16) 0.4603(3) 0.42599(15)
C37 C 0.11032(17) 0.4547(3) 0.00359(15)
C38 C 0.1582(2) 0.4968(4) -0.02087(18)
H32 H 0.2045 0.5270 0.0143
C39 C 0.1396(2) 0.4954(5) -0.09562(18)
H33 H 0.1730 0.5244 -0.1119
C40 C 0.0724(2) 0.4518(5) -0.14694(18)
H34 H 0.0597 0.4497 -0.1985
C41 C 0.0236(2) 0.4112(4) -0.12370(17)
H35 H -0.0229 0.3825 -0.1593
C42 C 0.04241(18) 0.4122(4) -0.04816(16)
H36 H 0.0089 0.3838 -0.0320
loop_
_geom_bond_atom_site_label_1
_geom_bond_atom_site_label_2
_geom_bond_site_symmetry_1
_geom_bond_site_symmetry_2
O1 C8 1_555 1_555
C1 C2 1_555 1_555
C2 H1 1_555 1_555
C3 C1 1_555 1_555
H2 C3 1_555 1_555
H3 C3 1_555 1_555
C4 C3 1_555 1_555
H4 C4 1_555 1_555
C5 C4 1_555 1_555
H5 C5 1_555 1_555
C6 C7 1_555 1_555
C7 C8 1_555 1_555
C8 C9 1_555 1_555
C9 H6 1_555 1_555
H7 C9 1_555 1_555
N1 C1 1_555 1_555
H8 N1 1_555 1_555
C10 N1 1_555 1_555
C11 C10 1_555 1_555
H9 C11 1_555 1_555
H10 C11 1_555 1_555
C12 C11 1_555 1_555
H11 C12 1_555 1_555
H12 C12 1_555 1_555
C13 C12 1_555 1_555
H13 C13 1_555 1_555
H14 C13 1_555 1_555
C14 N1 1_555 1_555
C15 C10 1_555 1_555
H15 C15 1_555 1_555
H16 C15 1_555 1_555
H17 C15 1_555 1_555
C16 C10 1_555 1_555
H18 C16 1_555 1_555
H19 C16 1_555 1_555
H20 C16 1_555 1_555
C17 C14 1_555 1_555
H21 C17 1_555 1_555
H22 C17 1_555 1_555
H23 C17 1_555 1_555
C18 C14 1_555 1_555
H24 C18 1_555 1_555
H25 C18 1_555 1_555
H26 C18 1_555 1_555
C19 C5 1_555 1_555
C20 C19 1_555 1_555
H27 C20 1_555 1_555
C21 C20 1_555 1_555
H28 C21 1_555 1_555
C22 C21 1_555 1_555
H29 C22 1_555 1_555
C23 C22 1_555 1_555
H30 C23 1_555 1_555
C24 C19 1_555 1_555
H31 C24 1_555 1_555
B1 O1 1_555 1_555
C25 B1 1_555 1_555
F1 C26 1_555 1_555
C26 C25 1_555 1_555
F2 C27 1_555 1_555
C27 C26 1_555 1_555
F3 C28 1_555 1_555
C28 C27 1_555 1_555
F4 C29 1_555 1_555
C29 C28 1_555 1_555
F5 C30 1_555 1_555
C30 C25 1_555 1_555
C31 B1 1_555 1_555
F6 C32 1_555 1_555
C32 C31 1_555 1_555
F7 C33 1_555 1_555
C33 C32 1_555 1_555
F8 C34 1_555 1_555
C34 C33 1_555 1_555
F9 C35 1_555 1_555
C35 C34 1_555 1_555
F10 C36 1_555 1_555
C36 C31 1_555 1_555
C37 C6 1_555 1_555
C38 C37 1_555 1_555
H32 C38 1_555 1_555
C39 C38 1_555 1_555
H33 C39 1_555 1_555
C40 C39 1_555 1_555
H34 C40 1_555 1_555
C41 C40 1_555 1_555
H35 C41 1_555 1_555
C42 C37 1_555 1_555
H36 C42 1_555 1_555
C2 B1 1_555 1_555
C13 C14 1_555 1_555
C23 C24 1_555 1_555
C29 C30 1_555 1_555
C35 C36 1_555 1_555
C41 C42 1_555 1_555

#END
