
#######################################################################
#
#                 Cambridge Crystallographic Data Centre
#                                CCDC 
#
#######################################################################
#
# If this CIF has been generated from an entry in the Cambridge 
# Structural Database, then it will include bibliographic, chemical, 
# crystal, experimental, refinement or atomic coordinate data resulting 
# from the CCDC's data processing and validation procedures.
#
#######################################################################

data_SIBSEE
_chemical_formula_moiety         'C40 H34 B1 F10 N1'
_chemical_name_systematic        
bis(pentafluorophenyl)(phenylethynyl)[5-phenyl-2-(2,2,6,6-tetramethylpiperidin-1-ium-1-yl)penta-1,4-dien-1-yl]borate
_symmetry_cell_setting           triclinic
_symmetry_space_group_name_H-M   'P -1'
_symmetry_Int_Tables_number      2
_space_group_name_Hall           '-P 1'
loop_
_symmetry_equiv_pos_site_id
_symmetry_equiv_pos_as_xyz
1 x,y,z
2 -x,-y,-z
_cell_length_a                   9.4038(3)
_cell_length_b                   10.8415(3)
_cell_length_c                   18.5386(6)
_cell_angle_alpha                96.508(1)
_cell_angle_beta                 101.595(1)
_cell_angle_gamma                105.266(1)
_cell_volume                     1758.27
_exptl_crystal_colour            colorless
_exptl_crystal_description       prism
_cell_formula_units_Z            2
loop_
_atom_site_label
_atom_site_type_symbol
_atom_site_fract_x
_atom_site_fract_y
_atom_site_fract_z
C1 C 0.2728(3) 0.2050(3) 0.24281(16)
C2 C 0.3610(3) 0.1281(3) 0.24301(16)
H1 H 0.3040 0.0401 0.2283
C3 C 0.1005(3) 0.1558(3) 0.2225(2)
H2 H 0.0642 0.1435 0.2679
H3 H 0.0593 0.2206 0.2001
C4 C 0.0450(3) 0.0299(3) 0.1684(2)
H4 H 0.0744 0.0282 0.1228
C5 C -0.0418(3) -0.0783(3) 0.1805(2)
H5 H -0.0759 -0.0743 0.2248
C6 C 0.6451(3) 0.2926(2) 0.29271(15)
C7 C 0.7318(3) 0.3979(3) 0.32149(16)
N1 N 0.3445(3) 0.3483(2) 0.26645(12)
H6 H 0.441(3) 0.356(3) 0.2755(15)
C8 C 0.3269(3) 0.4082(3) 0.34380(16)
C9 C 0.4439(4) 0.5431(3) 0.36542(18)
H7 H 0.4298 0.5884 0.4111
H8 H 0.5459 0.5325 0.3769
C10 C 0.4347(5) 0.6274(3) 0.3055(2)
H9 H 0.3360 0.6447 0.2963
H10 H 0.5142 0.7108 0.3227
C11 C 0.4544(4) 0.5596(3) 0.23342(19)
H11 H 0.5550 0.5460 0.2428
H12 H 0.4504 0.6163 0.1960
C12 C 0.3345(3) 0.4293(3) 0.20188(16)
C13 C 0.3697(5) 0.3216(4) 0.39829(19)
H13 H 0.4685 0.3122 0.3961
H14 H 0.2945 0.2369 0.3849
H15 H 0.3732 0.3606 0.4486
C14 C 0.1676(4) 0.4163(4) 0.3437(2)
H16 H 0.1626 0.4449 0.3944
H17 H 0.0948 0.3313 0.3241
H18 H 0.1440 0.4777 0.3125
C15 C 0.1791(4) 0.4501(4) 0.1742(2)
H19 H 0.1505 0.4919 0.2159
H20 H 0.1039 0.3668 0.1531
H21 H 0.1844 0.5047 0.1363
C16 C 0.3767(4) 0.3579(3) 0.13788(17)
H22 H 0.3864 0.4109 0.0993
H23 H 0.2981 0.2763 0.1172
H24 H 0.4726 0.3409 0.1563
B1 B 0.5415(3) 0.1464(3) 0.26205(18)
C17 C -0.0905(3) -0.2052(3) 0.13068(18)
C18 C -0.2179(4) -0.2999(3) 0.1362(2)
H25 H -0.2738 -0.2816 0.1706
C19 C -0.2633(5) -0.4212(4) 0.0913(2)
H26 H -0.3500 -0.4844 0.0955
C20 C -0.1853(5) -0.4499(4) 0.0418(2)
H27 H -0.2174 -0.5323 0.0114
C21 C -0.0578(5) -0.3574(4) 0.0360(2)
H28 H -0.0022 -0.3773 0.0018
C22 C -0.0113(4) -0.2366(3) 0.0798(2)
H29 H 0.0756 -0.1743 0.0751
C23 C 0.5784(3) 0.0813(3) 0.18496(15)
F1 F 0.4159(2) -0.12460(16) 0.19062(11)
C24 C 0.5106(3) -0.0502(3) 0.15529(17)
F2 F 0.4612(3) -0.2406(2) 0.06712(13)
C25 C 0.5342(4) -0.1130(3) 0.09219(19)
F3 F 0.6573(3) -0.1048(3) -0.00674(11)
C26 C 0.6312(4) -0.0458(4) 0.05477(17)
F4 F 0.7980(3) 0.1519(3) 0.04506(12)
C27 C 0.7018(4) 0.0842(4) 0.08109(18)
F5 F 0.7491(2) 0.27225(18) 0.16466(11)
C28 C 0.6735(3) 0.1442(3) 0.14378(16)
C29 C 0.5920(3) 0.0643(2) 0.32767(15)
F6 F 0.3532(2) -0.01431(18) 0.35753(12)
C30 C 0.5023(3) -0.0061(3) 0.36888(17)
F7 F 0.4598(2) -0.14160(18) 0.45874(11)
C31 C 0.5548(4) -0.0733(3) 0.42224(17)
F8 F 0.7545(3) -0.1379(2) 0.48900(12)
C32 C 0.7030(4) -0.0719(3) 0.43763(18)
F9 F 0.9458(2) 0.0016(2) 0.41417(12)
C33 C 0.7988(3) -0.0033(3) 0.39966(17)
F10 F 0.84273(17) 0.12796(17) 0.31190(10)
C34 C 0.7414(3) 0.0622(3) 0.34716(15)
C35 C 0.8427(3) 0.5227(3) 0.35324(17)
C36 C 0.9105(3) 0.5995(3) 0.3073(2)
H30 H 0.8809 0.5728 0.2551
C37 C 1.0229(4) 0.7166(3) 0.3388(3)
H31 H 1.0691 0.7688 0.3078
C38 C 1.0659(4) 0.7554(4) 0.4147(3)
H32 H 1.1418 0.8342 0.4356
C39 C 0.9998(5) 0.6810(4) 0.4602(3)
H33 H 1.0305 0.7087 0.5124
C40 C 0.8871(4) 0.5641(3) 0.4300(2)
H34 H 0.8411 0.5133 0.4616
loop_
_geom_bond_atom_site_label_1
_geom_bond_atom_site_label_2
_geom_bond_site_symmetry_1
_geom_bond_site_symmetry_2
C1 C2 1_555 1_555
C2 H1 1_555 1_555
C3 C1 1_555 1_555
H2 C3 1_555 1_555
H3 C3 1_555 1_555
C4 C3 1_555 1_555
H4 C4 1_555 1_555
C5 C4 1_555 1_555
H5 C5 1_555 1_555
C6 C7 1_555 1_555
C7 C35 1_555 1_555
N1 C1 1_555 1_555
H6 N1 1_555 1_555
C8 N1 1_555 1_555
C9 C8 1_555 1_555
H7 C9 1_555 1_555
H8 C9 1_555 1_555
C10 C9 1_555 1_555
H9 C10 1_555 1_555
H10 C10 1_555 1_555
C11 C10 1_555 1_555
H11 C11 1_555 1_555
H12 C11 1_555 1_555
C12 N1 1_555 1_555
C13 C8 1_555 1_555
H13 C13 1_555 1_555
H14 C13 1_555 1_555
H15 C13 1_555 1_555
C14 C8 1_555 1_555
H16 C14 1_555 1_555
H17 C14 1_555 1_555
H18 C14 1_555 1_555
C15 C12 1_555 1_555
H19 C15 1_555 1_555
H20 C15 1_555 1_555
H21 C15 1_555 1_555
C16 C12 1_555 1_555
H22 C16 1_555 1_555
H23 C16 1_555 1_555
H24 C16 1_555 1_555
B1 C2 1_555 1_555
C17 C5 1_555 1_555
C18 C17 1_555 1_555
H25 C18 1_555 1_555
C19 C18 1_555 1_555
H26 C19 1_555 1_555
C20 C19 1_555 1_555
H27 C20 1_555 1_555
C21 C20 1_555 1_555
H28 C21 1_555 1_555
C22 C17 1_555 1_555
H29 C22 1_555 1_555
C23 B1 1_555 1_555
F1 C24 1_555 1_555
C24 C23 1_555 1_555
F2 C25 1_555 1_555
C25 C24 1_555 1_555
F3 C26 1_555 1_555
C26 C25 1_555 1_555
F4 C27 1_555 1_555
C27 C26 1_555 1_555
F5 C28 1_555 1_555
C28 C23 1_555 1_555
C29 B1 1_555 1_555
F6 C30 1_555 1_555
C30 C29 1_555 1_555
F7 C31 1_555 1_555
C31 C30 1_555 1_555
F8 C32 1_555 1_555
C32 C31 1_555 1_555
F9 C33 1_555 1_555
C33 C32 1_555 1_555
F10 C34 1_555 1_555
C34 C29 1_555 1_555
C35 C36 1_555 1_555
C36 H30 1_555 1_555
C37 C36 1_555 1_555
H31 C37 1_555 1_555
C38 C37 1_555 1_555
H32 C38 1_555 1_555
C39 C38 1_555 1_555
H33 C39 1_555 1_555
C40 C35 1_555 1_555
H34 C40 1_555 1_555
C6 B1 1_555 1_555
C11 C12 1_555 1_555
C21 C22 1_555 1_555
C27 C28 1_555 1_555
C33 C34 1_555 1_555
C39 C40 1_555 1_555

#END
