
#######################################################################
#
#                 Cambridge Crystallographic Data Centre
#                                CCDC 
#
#######################################################################
#
# If this CIF has been generated from an entry in the Cambridge 
# Structural Database, then it will include bibliographic, chemical, 
# crystal, experimental, refinement or atomic coordinate data resulting 
# from the CCDC's data processing and validation procedures.
#
#######################################################################

data_SIBSUS
_chemical_formula_moiety         'C21 H8 Br1 F4 N1'
_chemical_name_systematic        
4-Bromo-3,5-difluoro-2,6-bis(4-fluorophenylethynyl)pyridine
_symmetry_cell_setting           orthorhombic
_symmetry_space_group_name_H-M   'C m c m'
_symmetry_Int_Tables_number      63
_space_group_name_Hall           '-C 2n 2'
loop_
_symmetry_equiv_pos_site_id
_symmetry_equiv_pos_as_xyz
1 x,y,z
2 1/2+x,1/2+y,z
3 -x,y,1/2-z
4 x,-y,-z
5 1/2-x,1/2+y,1/2-z
6 1/2+x,1/2-y,-z
7 -x,-y,1/2+z
8 1/2-x,1/2-y,1/2+z
9 -x,-y,-z
10 1/2-x,1/2-y,-z
11 x,-y,1/2+z
12 -x,y,z
13 1/2+x,1/2-y,1/2+z
14 1/2-x,1/2+y,z
15 x,y,1/2-z
16 1/2+x,1/2+y,1/2-z
_cell_length_a                   6.7571(5)
_cell_length_b                   7.5303(6)
_cell_length_c                   34.319(2)
_cell_angle_alpha                90
_cell_angle_beta                 90
_cell_angle_gamma                90
_cell_volume                     1746.25
_exptl_crystal_colour            colorless
_exptl_crystal_description       cube
_chemical_melting_point          '225-227 deg.C'
_cell_formula_units_Z            4
loop_
_atom_site_label
_atom_site_type_symbol
_atom_site_fract_x
_atom_site_fract_y
_atom_site_fract_z
Br1 Br 0.0000 0.28407(5) 0.2500
F1 F 0.0000 0.5453(2) 0.18128(5)
F2 F 0.0000 1.3004(3) 0.00303(5)
N1 N 0.0000 0.9072(4) 0.2500
C1 C 0.0000 0.5336(5) 0.2500
C2 C 0.0000 0.6302(4) 0.21575(8)
C3 C 0.0000 0.8162(4) 0.21620(8)
C4 C 0.0000 0.9149(4) 0.18028(8)
C5 C 0.0000 0.9924(4) 0.14994(8)
C6 C 0.0000 1.0758(4) 0.11229(8)
C7 C 0.1111(6) 0.9956(6) 0.08201(11)
H1 H 0.184(8) 0.887(7) 0.0885(14)
C8 C 0.1138(6) 1.0712(6) 0.04520(12)
H2 H 0.187(8) 1.018(7) 0.0237(13)
C9 C 0.0000 1.2262(4) 0.03928(8)
C10 C 0.0998(7) 1.3090(6) 0.06815(12)
H3 H 0.178(8) 1.414(7) 0.0621(15)
C11 C 0.1000(7) 1.2334(6) 0.10528(11)
H4 H 0.173(8) 1.282(6) 0.1265(14)
F1N F 0.0000 0.5453(2) 0.31872(5)
F2N F 0.0000 1.3004(3) 0.49697(5)
C2N C 0.0000 0.6302(4) 0.28425(8)
C3N C 0.0000 0.8162(4) 0.28380(8)
C4N C 0.0000 0.9149(4) 0.31972(8)
C5N C 0.0000 0.9924(4) 0.35006(8)
C6N C 0.0000 1.0758(4) 0.38771(8)
C7N C 0.1111(6) 0.9956(6) 0.41799(11)
C7B C -0.1111(6) 0.9956(6) 0.41799(11)
C7K C -0.1111(6) 0.9956(6) 0.08201(11)
H1N H 0.184(8) 0.887(7) 0.4115(14)
H1B H -0.184(8) 0.887(7) 0.4115(14)
H1K H -0.184(8) 0.887(7) 0.0885(14)
C8N C 0.1138(6) 1.0712(6) 0.45480(12)
C8B C -0.1138(6) 1.0712(6) 0.45480(12)
C8K C -0.1138(6) 1.0712(6) 0.04520(12)
H2B H -0.187(8) 1.018(7) 0.4763(13)
H2N H 0.187(8) 1.018(7) 0.4763(13)
H2K H -0.187(8) 1.018(7) 0.0237(13)
C9N C 0.0000 1.2262(4) 0.46072(8)
C10N C 0.0998(7) 1.3090(6) 0.43185(12)
C10B C -0.0998(7) 1.3090(6) 0.43185(12)
C10K C -0.0998(7) 1.3090(6) 0.06815(12)
H3N H 0.178(8) 1.414(7) 0.4379(15)
H3B H -0.178(8) 1.414(7) 0.4379(15)
H3K H -0.178(8) 1.414(7) 0.0621(15)
C11N C 0.1000(7) 1.2334(6) 0.39472(11)
C11B C -0.1000(7) 1.2334(6) 0.39472(11)
C11K C -0.1000(7) 1.2334(6) 0.10528(11)
H4N H 0.173(8) 1.282(6) 0.3735(14)
H4B H -0.173(8) 1.282(6) 0.3735(14)
H4K H -0.173(8) 1.282(6) 0.1265(14)
loop_
_geom_bond_atom_site_label_1
_geom_bond_atom_site_label_2
_geom_bond_site_symmetry_1
_geom_bond_site_symmetry_2
Br1 C1 1_555 1_555
F1 C2 1_555 1_555
F2 C9 1_555 1_555
N1 C3 1_555 1_555
C1 C2 1_555 1_555
C2 C3 1_555 1_555
C3 C4 1_555 1_555
C4 C5 1_555 1_555
C5 C6 1_555 1_555
C6 C7 1_555 1_555
C7 H1 1_555 1_555
C8 C7 1_555 1_555
H2 C8 1_555 1_555
C9 C8 1_555 1_555
C10 C9 1_555 1_555
H3 C10 1_555 1_555
C11 C6 1_555 1_555
H4 C11 1_555 1_555
F1N C2N 1_555 1_555
F2N C9N 1_555 1_555
C2N C1 1_555 1_555
C3N N1 1_555 1_555
C4N C3N 1_555 1_555
C5N C4N 1_555 1_555
C6N C5N 1_555 1_555
C7N C6N 1_555 1_555
C7B C6N 1_555 1_555
C7K C6 1_555 1_555
H1N C7N 1_555 1_555
H1B C7B 1_555 1_555
H1K C7K 1_555 1_555
C8N C7N 1_555 1_555
C8B C7B 1_555 1_555
C8K C8 1_555 1_555
H2B C8B 1_555 1_555
H2N C8N 1_555 1_555
H2K C8K 1_555 1_555
C9N C8N 1_555 1_555
C10N C9N 1_555 1_555
C10B C9N 1_555 1_555
C10K C9 1_555 1_555
H3N C10N 1_555 1_555
H3B C10B 1_555 1_555
H3K C10K 1_555 1_555
C11N C6N 1_555 1_555
C11B C6N 1_555 1_555
C11K C6 1_555 1_555
H4N C11N 1_555 1_555
H4B C11B 1_555 1_555
H4K C11K 1_555 1_555
C7 C7K 1_555 1_555
C9 C8K 1_555 1_555
C10 C11 1_555 1_555
C10 C10K 1_555 1_555
C11 C11K 1_555 1_555
C2N C3N 1_555 1_555
C7N C7B 1_555 1_555
C7K C8K 1_555 1_555
C8N C8B 1_555 1_555
C8B C9N 1_555 1_555
C10N C10B 1_555 1_555
C10N C11N 1_555 1_555
C10B C11B 1_555 1_555
C10K C11K 1_555 1_555
C11N C11B 1_555 1_555

#END
