
#######################################################################
#
#                 Cambridge Crystallographic Data Centre
#                                CCDC 
#
#######################################################################
#
# If this CIF has been generated from an entry in the Cambridge 
# Structural Database, then it will include bibliographic, chemical, 
# crystal, experimental, refinement or atomic coordinate data resulting 
# from the CCDC's data processing and validation procedures.
#
#######################################################################

data_SIBTAZ
_chemical_formula_moiety         'C21 H8 Br1 Cl2 F2 N1'
_chemical_name_systematic        
4-Bromo-3,5-difluoro-2,6-bis(2-chlorophenylethynyl)pyridine
_symmetry_cell_setting           monoclinic
_symmetry_space_group_name_H-M   'C 2/c'
_symmetry_Int_Tables_number      15
_space_group_name_Hall           '-C 2yn'
loop_
_symmetry_equiv_pos_site_id
_symmetry_equiv_pos_as_xyz
1 x,y,z
2 1/2+x,1/2+y,z
3 -x,y,1/2-z
4 1/2-x,1/2+y,1/2-z
5 -x,-y,-z
6 1/2-x,1/2-y,-z
7 x,-y,1/2+z
8 1/2+x,1/2-y,1/2+z
_cell_length_a                   30.759(3)
_cell_length_b                   8.0868(8)
_cell_length_c                   7.3531(8)
_cell_angle_alpha                90
_cell_angle_beta                 101.63(3)
_cell_angle_gamma                90
_cell_volume                     1791.47
_exptl_crystal_colour            colorless
_exptl_crystal_description       plate
_chemical_melting_point          '196.4-197.6 deg.C'
_cell_formula_units_Z            4
loop_
_atom_site_label
_atom_site_type_symbol
_atom_site_fract_x
_atom_site_fract_y
_atom_site_fract_z
Br1 Br 0.5000 0.40398(10) 0.2500
Cl1 Cl 0.31484(5) -0.10762(19) -0.2683(2)
F1 F 0.42843(10) 0.1584(4) 0.0597(4)
N1 N 0.5000 -0.1762(8) 0.2500
C1 C 0.5000 0.1731(10) 0.2500
C2 C 0.46434(17) 0.0807(7) 0.1552(7)
C3 C 0.46473(17) -0.0929(7) 0.1545(7)
C4 C 0.42826(18) -0.1843(7) 0.0506(7)
C5 C 0.39883(18) -0.2628(6) -0.0405(8)
C6 C 0.36525(18) -0.3720(6) -0.1362(8)
C7 C 0.32453(19) -0.3196(7) -0.2405(7)
C8 C 0.2921(2) -0.4293(7) -0.3224(8)
C9 C 0.3008(2) -0.5980(8) -0.3015(8)
C10 C 0.3410(2) -0.6552(8) -0.2014(8)
C11 C 0.3729(2) -0.5434(7) -0.1180(8)
H1 H 0.264(2) -0.384(7) -0.405(8)
H2 H 0.2802(17) -0.666(6) -0.349(7)
H3 H 0.3461(18) -0.770(7) -0.189(7)
H4 H 0.397(2) -0.567(7) -0.053(8)
Cl1B Cl 0.68516(5) -0.10762(19) 0.7683(2)
F1B F 0.57157(10) 0.1584(4) 0.4403(4)
C2B C 0.53566(17) 0.0807(7) 0.3448(7)
C3B C 0.53527(17) -0.0929(7) 0.3455(7)
C4B C 0.57174(18) -0.1843(7) 0.4494(7)
C5B C 0.60117(18) -0.2628(6) 0.5405(8)
C6B C 0.63475(18) -0.3720(6) 0.6362(8)
C7B C 0.67547(19) -0.3196(7) 0.7405(7)
C8B C 0.7079(2) -0.4293(7) 0.8224(8)
C9B C 0.6992(2) -0.5980(8) 0.8015(8)
C10B C 0.6590(2) -0.6552(8) 0.7014(8)
C11B C 0.6271(2) -0.5434(7) 0.6180(8)
H1B H 0.736(2) -0.384(7) 0.905(8)
H2B H 0.7198(17) -0.666(6) 0.849(7)
H3B H 0.6539(18) -0.770(7) 0.689(7)
H4B H 0.603(2) -0.567(7) 0.553(8)
loop_
_geom_bond_atom_site_label_1
_geom_bond_atom_site_label_2
_geom_bond_site_symmetry_1
_geom_bond_site_symmetry_2
Br1 C1 1_555 1_555
Cl1 C7 1_555 1_555
F1 C2 1_555 1_555
N1 C3 1_555 1_555
C1 C2 1_555 1_555
C2 C3 1_555 1_555
C3 C4 1_555 1_555
C4 C5 1_555 1_555
C5 C6 1_555 1_555
C6 C7 1_555 1_555
C7 C8 1_555 1_555
C8 C9 1_555 1_555
C9 C10 1_555 1_555
C10 C11 1_555 1_555
C11 C6 1_555 1_555
H1 C8 1_555 1_555
H2 C9 1_555 1_555
H3 C10 1_555 1_555
H4 C11 1_555 1_555
Cl1B C7B 1_555 1_555
F1B C2B 1_555 1_555
C2B C1 1_555 1_555
C3B N1 1_555 1_555
C4B C3B 1_555 1_555
C5B C4B 1_555 1_555
C6B C5B 1_555 1_555
C7B C6B 1_555 1_555
C8B C7B 1_555 1_555
C9B C8B 1_555 1_555
C10B C9B 1_555 1_555
C11B C6B 1_555 1_555
H1B C8B 1_555 1_555
H2B C9B 1_555 1_555
H3B C10B 1_555 1_555
H4B C11B 1_555 1_555
C2B C3B 1_555 1_555
C10B C11B 1_555 1_555

#END
