
#######################################################################
#
#                 Cambridge Crystallographic Data Centre
#                                CCDC 
#
#######################################################################
#
# If this CIF has been generated from an entry in the Cambridge 
# Structural Database, then it will include bibliographic, chemical, 
# crystal, experimental, refinement or atomic coordinate data resulting 
# from the CCDC's data processing and validation procedures.
#
#######################################################################

data_SIBWOS
_chemical_formula_moiety         'C13 H24 B1 N1 O4'
_chemical_name_systematic        
1-(morpholin-4-yl)-2-(4,4,5,5-tetramethyl-1,3,2-dioxaborolan-2-yl)propan-1-one
_symmetry_cell_setting           monoclinic
_symmetry_space_group_name_H-M   'P 21/c'
_symmetry_Int_Tables_number      14
_space_group_name_Hall           '-P 2ybc'
loop_
_symmetry_equiv_pos_site_id
_symmetry_equiv_pos_as_xyz
1 x,y,z
2 -x,1/2+y,1/2-z
3 -x,-y,-z
4 x,1/2-y,1/2+z
_cell_length_a                   8.1648(3)
_cell_length_b                   16.1293(6)
_cell_length_c                   11.1095(4)
_cell_angle_alpha                90
_cell_angle_beta                 98.450(2)
_cell_angle_gamma                90
_cell_volume                     1447.16
_exptl_crystal_colour            colorless
_exptl_crystal_description       rod
_cell_formula_units_Z            4
loop_
_atom_site_label
_atom_site_type_symbol
_atom_site_fract_x
_atom_site_fract_y
_atom_site_fract_z
C1 C 0.8820(4) 0.12099(17) 0.6489(3)
H1 H 0.8803 0.0787 0.5853
H2 H 0.8060 0.1048 0.7053
H3 H 0.9944 0.1260 0.6933
C2 C 0.8274(3) 0.20460(15) 0.5903(3)
H4 H 0.9030 0.2178 0.5298
C3 C 0.8460(3) 0.27308(16) 0.6852(3)
C4 C 0.8757(3) 0.41985(17) 0.7382(3)
H5 H 0.9881 0.4442 0.7472
H6 H 0.8576 0.3975 0.8181
C5 C 0.7492(3) 0.48579(17) 0.6982(3)
H7 H 0.6369 0.4628 0.6988
H8 H 0.7645 0.5325 0.7567
C6 C 0.7358(4) 0.44918(18) 0.4943(3)
H9 H 0.7407 0.4704 0.4113
H10 H 0.6240 0.4257 0.4955
C7 C 0.8640(3) 0.38155(17) 0.5240(3)
H11 H 0.8393 0.3349 0.4664
H12 H 0.9751 0.4034 0.5157
C8 C 0.3911(3) 0.24308(16) 0.4287(3)
C9 C 0.4085(3) 0.14759(16) 0.4132(3)
C10 C 0.4204(3) 0.29272(17) 0.3169(3)
H13 H 0.5263 0.2763 0.2925
H14 H 0.4231 0.3520 0.3364
H15 H 0.3306 0.2818 0.2501
C11 C 0.2325(3) 0.27152(17) 0.4719(3)
H16 H 0.2327 0.3321 0.4785
H17 H 0.2251 0.2471 0.5517
H18 H 0.1372 0.2538 0.4135
C12 C 0.3589(3) 0.11750(19) 0.2837(3)
H19 H 0.4316 0.1426 0.2310
H20 H 0.2439 0.1334 0.2551
H21 H 0.3692 0.0570 0.2812
C13 C 0.3217(3) 0.09714(17) 0.5007(3)
H22 H 0.2016 0.1037 0.4796
H23 H 0.3566 0.1167 0.5840
H24 H 0.3511 0.0385 0.4949
N1 N 0.8625(3) 0.35246(13) 0.6480(2)
O1 O 0.7625(3) 0.51585(12) 0.5791(2)
O2 O 0.8448(2) 0.25625(12) 0.79334(18)
O3 O 0.5314(2) 0.26222(11) 0.52354(17)
O4 O 0.5865(2) 0.13428(11) 0.44937(18)
B1 B 0.6446(3) 0.20078(18) 0.5193(3)
loop_
_geom_bond_atom_site_label_1
_geom_bond_atom_site_label_2
_geom_bond_site_symmetry_1
_geom_bond_site_symmetry_2
C1 H1 1_555 1_555
H2 C1 1_555 1_555
H3 C1 1_555 1_555
C2 C1 1_555 1_555
H4 C2 1_555 1_555
C3 C2 1_555 1_555
C4 H5 1_555 1_555
H6 C4 1_555 1_555
C5 C4 1_555 1_555
H7 C5 1_555 1_555
H8 C5 1_555 1_555
C6 H9 1_555 1_555
H10 C6 1_555 1_555
C7 C6 1_555 1_555
H11 C7 1_555 1_555
H12 C7 1_555 1_555
C8 C9 1_555 1_555
C9 C12 1_555 1_555
C10 C8 1_555 1_555
H13 C10 1_555 1_555
H14 C10 1_555 1_555
H15 C10 1_555 1_555
C11 C8 1_555 1_555
H16 C11 1_555 1_555
H17 C11 1_555 1_555
H18 C11 1_555 1_555
C12 H19 1_555 1_555
H20 C12 1_555 1_555
H21 C12 1_555 1_555
C13 C9 1_555 1_555
H22 C13 1_555 1_555
H23 C13 1_555 1_555
H24 C13 1_555 1_555
N1 C3 1_555 1_555
O1 C5 1_555 1_555
O2 C3 1_555 1_555
O3 C8 1_555 1_555
O4 C9 1_555 1_555
B1 C2 1_555 1_555
C4 N1 1_555 1_555
C6 O1 1_555 1_555
C7 N1 1_555 1_555
O3 B1 1_555 1_555
O4 B1 1_555 1_555

#END
