
#######################################################################
#
#                 Cambridge Crystallographic Data Centre
#                                CCDC 
#
#######################################################################
#
# If this CIF has been generated from an entry in the Cambridge 
# Structural Database, then it will include bibliographic, chemical, 
# crystal, experimental, refinement or atomic coordinate data resulting 
# from the CCDC's data processing and validation procedures.
#
#######################################################################

data_SIBZUB
_chemical_formula_moiety         'C19 H15 N1 O2'
_chemical_name_systematic        
exo-8-(1,2,3,4-tetrahydro-1,4-epoxynaphthalen-2-yl)quinoline-1-oxide
_symmetry_cell_setting           monoclinic
_symmetry_space_group_name_H-M   'P 21/n'
_symmetry_Int_Tables_number      14
_space_group_name_Hall           '-P 2yn'
loop_
_symmetry_equiv_pos_site_id
_symmetry_equiv_pos_as_xyz
1 x,y,z
2 1/2-x,1/2+y,1/2-z
3 -x,-y,-z
4 1/2+x,1/2-y,1/2+z
_cell_length_a                   9.382(3)
_cell_length_b                   9.839(3)
_cell_length_c                   15.406(5)
_cell_angle_alpha                90
_cell_angle_beta                 104.824(7)
_cell_angle_gamma                90
_cell_volume                     1374.79
_exptl_crystal_colour            colorless
_exptl_crystal_description       prismatic
_cell_formula_units_Z            4
loop_
_atom_site_label
_atom_site_type_symbol
_atom_site_fract_x
_atom_site_fract_y
_atom_site_fract_z
N1 N 0.0077(3) 0.8066(2) 1.05375(15)
O1 O 0.1237(2) 0.7318(2) 1.07428(12)
O2 O 0.0929(2) 0.5754(2) 0.76236(12)
C1 C -0.0392(4) 0.8617(3) 1.12064(19)
H1 H 0.0145 0.8461 1.1795
C2 C -0.1637(4) 0.9408(3) 1.1057(2)
H2 H -0.1941 0.9766 1.1539
C3 C -0.2415(4) 0.9662(3) 1.0211(2)
H3 H -0.3257 1.0198 1.0108
C4 C -0.1963(3) 0.9123(3) 0.9488(2)
C5 C -0.2752(3) 0.9382(3) 0.8605(2)
H4 H -0.3563 0.9960 0.8496
C6 C -0.2361(3) 0.8811(3) 0.7914(2)
H5 H -0.2911 0.8975 0.7330
C7 C -0.1135(3) 0.7975(3) 0.80683(19)
H6 H -0.0902 0.7572 0.7576
C8 C -0.0245(3) 0.7709(3) 0.89062(17)
C9 C -0.0695(3) 0.8282(3) 0.96376(17)
C10 C 0.1118(3) 0.6858(3) 0.89924(17)
H7 H 0.1888 0.7160 0.9514
C11 C 0.0839(3) 0.5317(3) 0.90747(19)
H8 H 0.1397 0.4962 0.9648
H9 H -0.0200 0.5127 0.9001
C12 C 0.1384(3) 0.4737(3) 0.83058(18)
H10 H 0.1022 0.3821 0.8121
C13 C 0.1731(3) 0.6847(3) 0.81532(18)
H11 H 0.1666 0.7721 0.7839
C14 C 0.3247(3) 0.6256(3) 0.84320(17)
C15 C 0.3027(3) 0.4882(3) 0.85287(17)
C16 C 0.4188(4) 0.4009(3) 0.88163(19)
H12 H 0.4039 0.3092 0.8910
C17 C 0.5601(4) 0.4551(4) 0.8963(2)
H13 H 0.6413 0.3977 0.9130
C18 C 0.5814(4) 0.5900(4) 0.8865(2)
H14 H 0.6769 0.6234 0.8968
C19 C 0.4637(3) 0.6785(3) 0.86161(19)
H15 H 0.4788 0.7715 0.8575
loop_
_geom_bond_atom_site_label_1
_geom_bond_atom_site_label_2
_geom_bond_site_symmetry_1
_geom_bond_site_symmetry_2
N1 O1 1_555 1_555
O2 C12 1_555 1_555
C1 N1 1_555 1_555
H1 C1 1_555 1_555
C2 C1 1_555 1_555
H2 C2 1_555 1_555
C3 C2 1_555 1_555
H3 C3 1_555 1_555
C4 C3 1_555 1_555
C5 C4 1_555 1_555
H4 C5 1_555 1_555
C6 C5 1_555 1_555
H5 C6 1_555 1_555
C7 C6 1_555 1_555
H6 C7 1_555 1_555
C8 C7 1_555 1_555
C9 N1 1_555 1_555
C10 C8 1_555 1_555
H7 C10 1_555 1_555
C11 C10 1_555 1_555
H8 C11 1_555 1_555
H9 C11 1_555 1_555
C12 C11 1_555 1_555
H10 C12 1_555 1_555
C13 O2 1_555 1_555
H11 C13 1_555 1_555
C14 C13 1_555 1_555
C15 C12 1_555 1_555
C16 C15 1_555 1_555
H12 C16 1_555 1_555
C17 C16 1_555 1_555
H13 C17 1_555 1_555
C18 C17 1_555 1_555
H14 C18 1_555 1_555
C19 C14 1_555 1_555
H15 C19 1_555 1_555
C4 C9 1_555 1_555
C8 C9 1_555 1_555
C10 C13 1_555 1_555
C14 C15 1_555 1_555
C18 C19 1_555 1_555

#END
