
#######################################################################
#
#                 Cambridge Crystallographic Data Centre
#                                CCDC 
#
#######################################################################
#
# If this CIF has been generated from an entry in the Cambridge 
# Structural Database, then it will include bibliographic, chemical, 
# crystal, experimental, refinement or atomic coordinate data resulting 
# from the CCDC's data processing and validation procedures.
#
#######################################################################

data_SIBZUA
_chemical_formula_moiety         'C40 H44 N2'
_chemical_name_systematic        
N,N'-Tetracyclo[6.6.2.0^2,7^.0^9,14^]hexadeca-2,4,6,9,11,13-hexaene-15,16-diylidenebis(2,6-diisopropylaniline)
_symmetry_cell_setting           monoclinic
_symmetry_space_group_name_H-M   'P 21/c'
_symmetry_Int_Tables_number      14
_space_group_name_Hall           '-P 2ybc'
loop_
_symmetry_equiv_pos_site_id
_symmetry_equiv_pos_as_xyz
1 x,y,z
2 -x,1/2+y,1/2-z
3 -x,-y,-z
4 x,1/2-y,1/2+z
_cell_length_a                   10.5237(18)
_cell_length_b                   21.689(4)
_cell_length_c                   15.496(3)
_cell_angle_alpha                90
_cell_angle_beta                 109.85(1)
_cell_angle_gamma                90
_cell_volume                     3326.79
_exptl_crystal_colour            yellow
_exptl_crystal_description       block
_cell_formula_units_Z            4
loop_
_atom_site_label
_atom_site_type_symbol
_atom_site_fract_x
_atom_site_fract_y
_atom_site_fract_z
C1 C 0.33597(18) 0.07472(8) 0.41848(12)
H1 H 0.3434 0.0356 0.4442
C2 C 0.4004(2) 0.08866(11) 0.35644(14)
H2 H 0.4520 0.0587 0.3407
C3 C 0.3888(2) 0.14629(12) 0.31809(13)
H3 H 0.4317 0.1549 0.2759
C4 C 0.31424(19) 0.19185(9) 0.34131(11)
H4 H 0.3073 0.2309 0.3155
C5 C 0.25001(16) 0.17838(7) 0.40361(10)
C6 C 0.26055(16) 0.11973(7) 0.44162(10)
C7 C 0.18338(15) 0.11205(7) 0.50790(10)
H5 H 0.1901 0.0702 0.5330
C8 C 0.03879(16) 0.13140(7) 0.45711(10)
C9 C 0.02779(16) 0.18972(8) 0.41831(10)
C10 C 0.16212(16) 0.22168(7) 0.43628(10)
H6 H 0.1527 0.2625 0.4076
C11 C -0.07589(19) 0.09711(9) 0.44738(13)
H7 H -0.0692 0.0580 0.4732
C12 C -0.2008(2) 0.12182(13) 0.39864(16)
H8 H -0.2786 0.0992 0.3920
C13 C -0.2113(2) 0.17920(13) 0.36010(15)
H9 H -0.2961 0.1950 0.3273
C14 C -0.09753(19) 0.21372(10) 0.36943(12)
H10 H -0.1050 0.2527 0.3431
C15 C 0.24208(14) 0.16090(6) 0.58206(9)
C16 C 0.22476(14) 0.22450(6) 0.54124(9)
C17 C 0.32679(15) 0.09471(6) 0.70892(9)
C18 C 0.22093(16) 0.06214(7) 0.72379(10)
C19 C 0.2528(2) 0.00599(7) 0.76971(12)
H11 H 0.1844 -0.0172 0.7793
C20 C 0.3823(2) -0.01575(8) 0.80090(13)
H12 H 0.4009 -0.0537 0.8304
C21 C 0.48478(19) 0.01802(8) 0.78899(11)
H13 H 0.5727 0.0030 0.8120
C22 C 0.46074(16) 0.07418(7) 0.74338(10)
C23 C 0.25396(16) 0.33190(7) 0.55843(10)
C24 C 0.15824(19) 0.37187(7) 0.57248(11)
C25 C 0.1578(2) 0.43239(9) 0.54259(14)
H14 H 0.0944 0.4600 0.5497
C26 C 0.2490(3) 0.45233(9) 0.50276(15)
H15 H 0.2453 0.4928 0.4823
C27 C 0.3447(2) 0.41316(9) 0.49307(13)
H16 H 0.4067 0.4277 0.4671
C28 C 0.35153(18) 0.35182(7) 0.52126(10)
C29 C 0.08073(16) 0.08932(7) 0.69663(11)
H17 H 0.0616 0.1082 0.6361
C30 C -0.0304(2) 0.04226(9) 0.68803(17)
H18 H -0.0207 0.0082 0.6512
H19 H -0.1170 0.0613 0.6596
H20 H -0.0236 0.0276 0.7479
C31 C 0.0757(2) 0.14074(9) 0.76285(14)
H21 H 0.0900 0.1236 0.8225
H22 H -0.0111 0.1605 0.7409
H23 H 0.1449 0.1705 0.7667
C32 C 0.57340(17) 0.11335(8) 0.73250(12)
H24 H 0.5503 0.1565 0.7388
C33 C 0.5860(2) 0.10652(10) 0.63828(14)
H25 H 0.6055 0.0643 0.6288
H26 H 0.6578 0.1324 0.6343
H27 H 0.5027 0.1185 0.5922
C34 C 0.7103(2) 0.10116(13) 0.80589(15)
H28 H 0.7012 0.1026 0.8654
H29 H 0.7737 0.1320 0.8021
H30 H 0.7423 0.0612 0.7963
C35 C 0.06118(19) 0.34922(9) 0.61832(13)
H31 H 0.1056 0.3148 0.6581
C36 C 0.0283(3) 0.39730(11) 0.67951(16)
H32 H -0.0203 0.4309 0.6424
H33 H 0.1107 0.4125 0.7234
H34 H -0.0261 0.3788 0.7112
C37 C -0.0673(2) 0.32408(16) 0.54989(19)
H35 H -0.1120 0.3560 0.5076
H36 H -0.1256 0.3097 0.5817
H37 H -0.0459 0.2905 0.5168
C38 C 0.46258(18) 0.30890(8) 0.51704(11)
H38 H 0.4201 0.2689 0.4956
C39 C 0.5327(3) 0.32861(13) 0.45040(17)
H39 H 0.5797 0.3667 0.4708
H40 H 0.4667 0.3341 0.3905
H41 H 0.5961 0.2974 0.4479
C40 C 0.5658(2) 0.29834(9) 0.61246(14)
H42 H 0.6126 0.3362 0.6350
H43 H 0.6294 0.2675 0.6092
H44 H 0.5202 0.2847 0.6532
N1 N 0.30405(11) 0.15385(5) 0.66719(8)
N2 N 0.26052(12) 0.27091(5) 0.59310(8)
loop_
_geom_bond_atom_site_label_1
_geom_bond_atom_site_label_2
_geom_bond_site_symmetry_1
_geom_bond_site_symmetry_2
C1 H1 1_555 1_555
C2 C1 1_555 1_555
H2 C2 1_555 1_555
C3 C2 1_555 1_555
H3 C3 1_555 1_555
C4 C3 1_555 1_555
H4 C4 1_555 1_555
C5 C4 1_555 1_555
C6 C1 1_555 1_555
C7 C6 1_555 1_555
H5 C7 1_555 1_555
C8 C7 1_555 1_555
C9 C8 1_555 1_555
C10 C5 1_555 1_555
H6 C10 1_555 1_555
C11 C8 1_555 1_555
H7 C11 1_555 1_555
C12 C11 1_555 1_555
H8 C12 1_555 1_555
C13 C12 1_555 1_555
H9 C13 1_555 1_555
C14 C9 1_555 1_555
H10 C14 1_555 1_555
C15 C7 1_555 1_555
C16 C10 1_555 1_555
C17 C18 1_555 1_555
C18 C19 1_555 1_555
C19 H11 1_555 1_555
C20 C19 1_555 1_555
H12 C20 1_555 1_555
C21 C20 1_555 1_555
H13 C21 1_555 1_555
C22 C17 1_555 1_555
C23 C24 1_555 1_555
C24 C25 1_555 1_555
C25 H14 1_555 1_555
C26 C25 1_555 1_555
H15 C26 1_555 1_555
C27 C26 1_555 1_555
H16 C27 1_555 1_555
C28 C23 1_555 1_555
C29 C18 1_555 1_555
H17 C29 1_555 1_555
C30 C29 1_555 1_555
H18 C30 1_555 1_555
H19 C30 1_555 1_555
H20 C30 1_555 1_555
C31 C29 1_555 1_555
H21 C31 1_555 1_555
H22 C31 1_555 1_555
H23 C31 1_555 1_555
C32 C22 1_555 1_555
H24 C32 1_555 1_555
C33 C32 1_555 1_555
H25 C33 1_555 1_555
H26 C33 1_555 1_555
H27 C33 1_555 1_555
C34 C32 1_555 1_555
H28 C34 1_555 1_555
H29 C34 1_555 1_555
H30 C34 1_555 1_555
C35 C24 1_555 1_555
H31 C35 1_555 1_555
C36 C35 1_555 1_555
H32 C36 1_555 1_555
H33 C36 1_555 1_555
H34 C36 1_555 1_555
C37 C35 1_555 1_555
H35 C37 1_555 1_555
H36 C37 1_555 1_555
H37 C37 1_555 1_555
C38 C28 1_555 1_555
H38 C38 1_555 1_555
C39 C38 1_555 1_555
H39 C39 1_555 1_555
H40 C39 1_555 1_555
H41 C39 1_555 1_555
C40 C38 1_555 1_555
H42 C40 1_555 1_555
H43 C40 1_555 1_555
H44 C40 1_555 1_555
N1 C15 1_555 1_555
N2 C16 1_555 1_555
C5 C6 1_555 1_555
C9 C10 1_555 1_555
C13 C14 1_555 1_555
C15 C16 1_555 1_555
C17 N1 1_555 1_555
C21 C22 1_555 1_555
C23 N2 1_555 1_555
C27 C28 1_555 1_555

#END
