
#######################################################################
#
#                 Cambridge Crystallographic Data Centre
#                                CCDC 
#
#######################################################################
#
# If this CIF has been generated from an entry in the Cambridge 
# Structural Database, then it will include bibliographic, chemical, 
# crystal, experimental, refinement or atomic coordinate data resulting 
# from the CCDC's data processing and validation procedures.
#
#######################################################################

data_SICBEO
_chemical_formula_moiety         'C20 H18 N2 O1'
_chemical_name_systematic        
3-(4-methylphenyl)-1-phenyl-1,5,6,7-tetrahydro-4H-indazol-4-one
_symmetry_cell_setting           monoclinic
_symmetry_space_group_name_H-M   'P 21/c'
_symmetry_Int_Tables_number      14
_space_group_name_Hall           '-P 2ybc'
loop_
_symmetry_equiv_pos_site_id
_symmetry_equiv_pos_as_xyz
1 x,y,z
2 -x,1/2+y,1/2-z
3 -x,-y,-z
4 x,1/2-y,1/2+z
_cell_length_a                   11.586(3)
_cell_length_b                   15.822(3)
_cell_length_c                   8.7845(18)
_cell_angle_alpha                90
_cell_angle_beta                 97.997(8)
_cell_angle_gamma                90
_cell_volume                     1594.66
_exptl_crystal_colour            colorless
_exptl_crystal_description       block
_cell_formula_units_Z            4
loop_
_atom_site_label
_atom_site_type_symbol
_atom_site_fract_x
_atom_site_fract_y
_atom_site_fract_z
N1 N 0.72578(15) 1.03570(10) -0.1019(2)
N2 N 0.77564(15) 1.02172(10) 0.0467(2)
O1 O 0.50893(14) 0.82718(11) 0.0784(2)
C1 C 0.63702(18) 0.98203(12) -0.1468(3)
C2 C 0.8135(2) 0.98817(14) 0.3586(3)
H1 H 0.8298 1.0420 0.3249
C3 C 0.71457(19) 0.95893(12) 0.0977(3)
C4 C 0.62582(18) 0.93136(12) -0.0208(2)
C5 C 0.7785(2) 1.09674(12) -0.1905(2)
C6 C 0.7103(2) 1.14602(13) -0.2962(3)
H2 H 0.6295 1.1426 -0.3059
C7 C 0.7672(2) 0.83110(15) 0.4635(3)
H3 H 0.7510 0.7773 0.4977
C8 C 0.74862(18) 0.93300(13) 0.2583(3)
C9 C 0.8985(2) 1.10416(13) -0.1702(3)
H4 H 0.9439 1.0720 -0.0960
C10 C 0.8824(3) 1.20695(15) -0.3705(3)
H5 H 0.9177 1.2434 -0.4332
C11 C 0.8325(2) 0.88554(15) 0.5630(3)
C12 C 0.7249(2) 0.85386(13) 0.3145(3)
H6 H 0.6800 0.8157 0.2511
C13 C 0.5684(2) 0.97496(13) -0.3011(3)
H7 H 0.6170 0.9879 -0.3794
H8 H 0.5039 1.0146 -0.3110
C14 C 0.8543(2) 0.96483(15) 0.5072(3)
H9 H 0.8977 1.0033 0.5718
C15 C 0.4625(2) 0.85721(14) -0.1875(3)
H10 H 0.3907 0.8890 -0.1903
H11 H 0.4418 0.7980 -0.2012
C16 C 0.53269(19) 0.86807(13) -0.0312(3)
C17 C 0.7630(2) 1.20067(14) -0.3879(3)
H12 H 0.7177 1.2333 -0.4615
C18 C 0.8795(3) 0.86141(16) 0.7252(3)
H13 H 0.8572 0.9033 0.7946
H14 H 0.9630 0.8580 0.7358
H15 H 0.8483 0.8075 0.7488
C19 C 0.9499(2) 1.15958(14) -0.2609(3)
H16 H 1.0306 1.1651 -0.2481
C20 C 0.5225(2) 0.88486(14) -0.3213(3)
H17 H 0.4680 0.8812 -0.4154
H18 H 0.5869 0.8469 -0.3308
loop_
_geom_bond_atom_site_label_1
_geom_bond_atom_site_label_2
_geom_bond_site_symmetry_1
_geom_bond_site_symmetry_2
N1 N2 1_555 1_555
N2 C3 1_555 1_555
O1 C16 1_555 1_555
C1 N1 1_555 1_555
C2 H1 1_555 1_555
C3 C4 1_555 1_555
C4 C1 1_555 1_555
C5 N1 1_555 1_555
C6 C5 1_555 1_555
H2 C6 1_555 1_555
C7 H3 1_555 1_555
C8 C2 1_555 1_555
C9 C5 1_555 1_555
H4 C9 1_555 1_555
C10 H5 1_555 1_555
C11 C7 1_555 1_555
C12 C7 1_555 1_555
H6 C12 1_555 1_555
C13 C1 1_555 1_555
H7 C13 1_555 1_555
H8 C13 1_555 1_555
C14 C2 1_555 1_555
H9 C14 1_555 1_555
C15 H10 1_555 1_555
H11 C15 1_555 1_555
C16 C4 1_555 1_555
C17 C6 1_555 1_555
H12 C17 1_555 1_555
C18 C11 1_555 1_555
H13 C18 1_555 1_555
H14 C18 1_555 1_555
H15 C18 1_555 1_555
C19 C9 1_555 1_555
H16 C19 1_555 1_555
C20 C13 1_555 1_555
H17 C20 1_555 1_555
H18 C20 1_555 1_555
C3 C8 1_555 1_555
C8 C12 1_555 1_555
C10 C17 1_555 1_555
C10 C19 1_555 1_555
C11 C14 1_555 1_555
C15 C16 1_555 1_555
C15 C20 1_555 1_555

#END
