
#######################################################################
#
#                 Cambridge Crystallographic Data Centre
#                                CCDC 
#
#######################################################################
#
# If this CIF has been generated from an entry in the Cambridge 
# Structural Database, then it will include bibliographic, chemical, 
# crystal, experimental, refinement or atomic coordinate data resulting 
# from the CCDC's data processing and validation procedures.
#
#######################################################################

data_SICFUH
_chemical_formula_moiety         'C21 H32 O2,0.5(C1 H4 O1)'
_chemical_name_systematic        '3-Hydroxypregn-8-en-20-one methanol solvate'
_symmetry_cell_setting           orthorhombic
_symmetry_space_group_name_H-M   'P 21 21 2'
_symmetry_Int_Tables_number      18
_space_group_name_Hall           'P 2 2ab'
loop_
_symmetry_equiv_pos_site_id
_symmetry_equiv_pos_as_xyz
1 x,y,z
2 -x,-y,z
3 1/2+x,1/2-y,-z
4 1/2-x,1/2+y,-z
_cell_length_a                   7.5505(2)
_cell_length_b                   50.0402(10)
_cell_length_c                   9.7193(2)
_cell_angle_alpha                90
_cell_angle_beta                 90
_cell_angle_gamma                90
_cell_volume                     3672.23
_exptl_crystal_colour            colorless
_exptl_crystal_description       block
_cell_formula_units_Z            8
loop_
_atom_site_label
_atom_site_type_symbol
_atom_site_fract_x
_atom_site_fract_y
_atom_site_fract_z
O1 O 0.3172(4) 0.49300(5) 0.7505(4)
H1 H 0.3441 0.4906 0.6772
O2 O 0.1046(4) 0.25532(5) 0.8117(3)
C1 C 0.0833(4) 0.42651(6) 0.7803(4)
H2 H -0.0289 0.4201 0.7390
H3 H 0.0694 0.4260 0.8815
C2 C 0.1144(5) 0.45566(6) 0.7359(4)
H4 H 0.1135 0.4568 0.6342
H5 H 0.0174 0.4670 0.7715
C3 C 0.2908(5) 0.46574(6) 0.7905(5)
H6 H 0.2847 0.4653 0.8932
C4 C 0.4409(5) 0.44770(6) 0.7468(4)
H7 H 0.5535 0.4544 0.7861
H8 H 0.4515 0.4479 0.6453
C5 C 0.4083(4) 0.41919(6) 0.7959(3)
H9 H 0.3930 0.4203 0.8979
C6 C 0.5646(4) 0.40098(6) 0.7715(4)
H10 H 0.6729 0.4094 0.8091
H11 H 0.5816 0.3985 0.6714
C7 C 0.5372(4) 0.37388(6) 0.8393(3)
H12 H 0.6085 0.3604 0.7893
H13 H 0.5825 0.3747 0.9348
C8 C 0.3465(4) 0.36460(6) 0.8430(3)
C9 C 0.2089(4) 0.37946(6) 0.8027(3)
C10 C 0.2334(4) 0.40727(6) 0.7387(3)
C11 C 0.0200(4) 0.36889(6) 0.8089(4)
H14 H -0.0253 0.3673 0.7137
H15 H -0.0542 0.3823 0.8570
C12 C -0.0043(4) 0.34167(6) 0.8811(4)
H16 H -0.0119 0.3444 0.9817
H17 H -0.1164 0.3334 0.8500
C13 C 0.1496(4) 0.32306(6) 0.8488(3)
C14 C 0.3175(4) 0.33706(6) 0.9021(3)
H18 H 0.2996 0.3396 1.0032
C15 C 0.4622(4) 0.31561(6) 0.8872(4)
H19 H 0.5636 0.3193 0.9489
H20 H 0.5051 0.3144 0.7911
C16 C 0.3630(5) 0.28972(7) 0.9304(4)
H21 H 0.3881 0.2751 0.8644
H22 H 0.4017 0.2839 1.0231
C17 C 0.1631(5) 0.29628(6) 0.9311(3)
H23 H 0.1269 0.2999 1.0283
C18 C 0.2381(5) 0.40389(7) 0.5811(4)
H24 H 0.1283 0.3953 0.5502
H25 H 0.3395 0.3927 0.5554
H26 H 0.2493 0.4215 0.5375
C19 C 0.1587(5) 0.31735(6) 0.6934(3)
H27 H 0.1841 0.3340 0.6439
H28 H 0.0449 0.3101 0.6622
H29 H 0.2527 0.3043 0.6751
C20 C 0.0459(5) 0.27385(6) 0.8754(4)
C21 C -0.1498(5) 0.27603(7) 0.9005(5)
H30 H -0.2084 0.2596 0.8693
H31 H -0.1971 0.2913 0.8496
H32 H -0.1716 0.2785 0.9991
O3 O 0.8268(4) 0.48998(6) 0.0360(4)
H33 H 0.7565 0.4950 -0.0257
O4 O 0.5990(4) 0.28288(5) 0.5848(3)
C22 C 0.9286(4) 0.42189(7) 0.1824(4)
H34 H 0.9398 0.4117 0.0955
H35 H 1.0250 0.4160 0.2445
C23 C 0.9515(5) 0.45186(7) 0.1516(4)
H36 H 0.9519 0.4620 0.2391
H37 H 1.0667 0.4548 0.1055
C24 C 0.8030(5) 0.46207(7) 0.0601(5)
H38 H 0.8067 0.4524 -0.0298
C25 C 0.6254(5) 0.45708(7) 0.1286(5)
H39 H 0.5288 0.4634 0.0681
H40 H 0.6190 0.4671 0.2163
C26 C 0.6028(4) 0.42710(7) 0.1566(4)
H41 H 0.6139 0.4180 0.0655
C27 C 0.4196(4) 0.42026(7) 0.2107(4)
H42 H 0.3288 0.4283 0.1500
H43 H 0.4047 0.4279 0.3040
C28 C 0.3926(4) 0.38993(6) 0.2165(4)
H44 H 0.3007 0.3859 0.2861
H45 H 0.3476 0.3838 0.1262
C29 C 0.5569(4) 0.37424(6) 0.2511(3)
C30 C 0.7190(4) 0.38501(6) 0.2623(3)
C31 C 0.7493(4) 0.41521(6) 0.2494(4)
C32 C 0.8817(5) 0.36822(6) 0.2975(4)
H46 H 0.9296 0.3745 0.3865
H47 H 0.9733 0.3716 0.2266
C33 C 0.8517(4) 0.33779(6) 0.3075(4)
H48 H 0.8632 0.3297 0.2150
H49 H 0.9433 0.3298 0.3677
C34 C 0.6686(5) 0.33163(6) 0.3656(3)
C35 C 0.5336(4) 0.34439(6) 0.2666(3)
H50 H 0.5557 0.3364 0.1739
C36 C 0.3562(4) 0.33286(6) 0.3179(3)
H51 H 0.2647 0.3337 0.2450
H52 H 0.3133 0.3427 0.3999
C37 C 0.4023(5) 0.30348(6) 0.3541(4)
H53 H 0.3547 0.2912 0.2834
H54 H 0.3514 0.2986 0.4445
C38 C 0.6087(5) 0.30185(6) 0.3587(3)
H55 H 0.6514 0.2940 0.2700
C39 C 0.7447(5) 0.42707(7) 0.3966(4)
H56 H 0.8441 0.4199 0.4501
H57 H 0.6330 0.4222 0.4413
H58 H 0.7542 0.4466 0.3915
C40 C 0.6523(5) 0.34264(6) 0.5133(3)
H59 H 0.6608 0.3622 0.5114
H60 H 0.7479 0.3354 0.5702
H61 H 0.5377 0.3374 0.5522
C41 C 0.6794(5) 0.28493(6) 0.4763(4)
C42 C 0.8528(6) 0.27088(8) 0.4532(5)
H62 H 0.8967 0.2638 0.5408
H63 H 0.9392 0.2835 0.4155
H64 H 0.8356 0.2561 0.3881
O5 O 0.1803(6) 0.50271(7) 0.4871(5)
H65 H 0.1179 0.4939 0.5426
C43 C 0.2705(10) 0.48454(13) 0.3951(7)
H66 H 0.2640 0.4914 0.3009
H67 H 0.2138 0.4669 0.3993
H68 H 0.3948 0.4829 0.4228
loop_
_geom_bond_atom_site_label_1
_geom_bond_atom_site_label_2
_geom_bond_site_symmetry_1
_geom_bond_site_symmetry_2
O1 H1 1_555 1_555
O2 C20 1_555 1_555
C1 H2 1_555 1_555
H3 C1 1_555 1_555
C2 C1 1_555 1_555
H4 C2 1_555 1_555
H5 C2 1_555 1_555
C3 O1 1_555 1_555
H6 C3 1_555 1_555
C4 C3 1_555 1_555
H7 C4 1_555 1_555
H8 C4 1_555 1_555
C5 C4 1_555 1_555
H9 C5 1_555 1_555
C6 C5 1_555 1_555
H10 C6 1_555 1_555
H11 C6 1_555 1_555
C7 C6 1_555 1_555
H12 C7 1_555 1_555
H13 C7 1_555 1_555
C8 C7 1_555 1_555
C9 C8 1_555 1_555
C10 C1 1_555 1_555
C11 C9 1_555 1_555
H14 C11 1_555 1_555
H15 C11 1_555 1_555
C12 C11 1_555 1_555
H16 C12 1_555 1_555
H17 C12 1_555 1_555
C13 C12 1_555 1_555
C14 C8 1_555 1_555
H18 C14 1_555 1_555
C15 C14 1_555 1_555
H19 C15 1_555 1_555
H20 C15 1_555 1_555
C16 C15 1_555 1_555
H21 C16 1_555 1_555
H22 C16 1_555 1_555
C17 C13 1_555 1_555
H23 C17 1_555 1_555
C18 C10 1_555 1_555
H24 C18 1_555 1_555
H25 C18 1_555 1_555
H26 C18 1_555 1_555
C19 C13 1_555 1_555
H27 C19 1_555 1_555
H28 C19 1_555 1_555
H29 C19 1_555 1_555
C20 C17 1_555 1_555
C21 C20 1_555 1_555
H30 C21 1_555 1_555
H31 C21 1_555 1_555
H32 C21 1_555 1_555
O3 H33 1_555 1_555
O4 C41 1_555 1_555
C22 H34 1_555 1_555
H35 C22 1_555 1_555
C23 C22 1_555 1_555
H36 C23 1_555 1_555
H37 C23 1_555 1_555
C24 O3 1_555 1_555
H38 C24 1_555 1_555
C25 C24 1_555 1_555
H39 C25 1_555 1_555
H40 C25 1_555 1_555
C26 C25 1_555 1_555
H41 C26 1_555 1_555
C27 C26 1_555 1_555
H42 C27 1_555 1_555
H43 C27 1_555 1_555
C28 C27 1_555 1_555
H44 C28 1_555 1_555
H45 C28 1_555 1_555
C29 C28 1_555 1_555
C30 C29 1_555 1_555
C31 C22 1_555 1_555
C32 C30 1_555 1_555
H46 C32 1_555 1_555
H47 C32 1_555 1_555
C33 C32 1_555 1_555
H48 C33 1_555 1_555
H49 C33 1_555 1_555
C34 C33 1_555 1_555
C35 C29 1_555 1_555
H50 C35 1_555 1_555
C36 C35 1_555 1_555
H51 C36 1_555 1_555
H52 C36 1_555 1_555
C37 C36 1_555 1_555
H53 C37 1_555 1_555
H54 C37 1_555 1_555
C38 C34 1_555 1_555
H55 C38 1_555 1_555
C39 C31 1_555 1_555
H56 C39 1_555 1_555
H57 C39 1_555 1_555
H58 C39 1_555 1_555
C40 C34 1_555 1_555
H59 C40 1_555 1_555
H60 C40 1_555 1_555
H61 C40 1_555 1_555
C41 C38 1_555 1_555
C42 C41 1_555 1_555
H62 C42 1_555 1_555
H63 C42 1_555 1_555
H64 C42 1_555 1_555
O5 H65 1_555 1_555
C43 O5 1_555 1_555
H66 C43 1_555 1_555
H67 C43 1_555 1_555
H68 C43 1_555 1_555
C2 C3 1_555 1_555
C5 C10 1_555 1_555
C9 C10 1_555 1_555
C13 C14 1_555 1_555
C16 C17 1_555 1_555
C23 C24 1_555 1_555
C26 C31 1_555 1_555
C30 C31 1_555 1_555
C34 C35 1_555 1_555
C37 C38 1_555 1_555

#END
