
#######################################################################
#
#                 Cambridge Crystallographic Data Centre
#                                CCDC 
#
#######################################################################
#
# If this CIF has been generated from an entry in the Cambridge 
# Structural Database, then it will include bibliographic, chemical, 
# crystal, experimental, refinement or atomic coordinate data resulting 
# from the CCDC's data processing and validation procedures.
#
#######################################################################

data_SICPOK
_chemical_formula_moiety         'C23 H17 N3 O2'
_chemical_name_systematic        
3-Amino-1-(3,4-dimethoxyphenyl)-2,4-dicyano-9H-fluorene
_symmetry_cell_setting           triclinic
_symmetry_space_group_name_H-M   'P -1'
_symmetry_Int_Tables_number      2
_space_group_name_Hall           '-P 1'
loop_
_symmetry_equiv_pos_site_id
_symmetry_equiv_pos_as_xyz
1 x,y,z
2 -x,-y,-z
_cell_length_a                   8.971(3)
_cell_length_b                   10.693(3)
_cell_length_c                   11.058(4)
_cell_angle_alpha                105.558(5)
_cell_angle_beta                 109.570(6)
_cell_angle_gamma                97.644(5)
_cell_volume                     933.39
_exptl_crystal_colour            'pale yellow'
_exptl_crystal_description       block
_chemical_melting_point          '525-527 K'
_cell_formula_units_Z            2
_exptl_crystal_recrystallization_method dmf/water
loop_
_atom_site_label
_atom_site_type_symbol
_atom_site_fract_x
_atom_site_fract_y
_atom_site_fract_z
O1 O 0.02176(15) 0.57678(12) 0.18164(13)
O2 O 0.15704(16) 0.41297(12) 0.28692(14)
N1 N 0.8487(2) 1.05695(19) -0.07042(19)
N2 N 0.9122(2) 1.01312(17) 0.2426(2)
H1 H 0.966(3) 1.018(2) 0.335(3)
H2 H 0.969(3) 1.039(2) 0.202(2)
N3 N 0.8200(2) 0.8912(2) 0.4707(2)
C1 C 0.6889(2) 0.91849(17) 0.02432(18)
C2 C 0.7627(2) 0.93047(17) 0.16265(19)
C3 C 0.6750(2) 0.85463(18) 0.21534(18)
C4 C 0.5196(2) 0.76766(17) 0.13374(18)
C5 C 0.4502(2) 0.75971(17) -0.00193(19)
C6 C 0.2902(2) 0.67324(19) -0.11112(19)
H3 H 0.2845 0.5771 -0.1244
H4 H 0.1971 0.6965 -0.0888
C7 C 0.2914(2) 0.70557(19) -0.23464(19)
C8 C 0.4335(2) 0.80288(18) -0.20128(18)
C9 C 0.5336(2) 0.83427(17) -0.05654(18)
C10 C 0.1742(3) 0.6553(2) -0.3658(2)
H5 H 0.0780 0.5897 -0.3880
C11 C 0.1992(3) 0.7021(2) -0.4643(2)
H6 H 0.1200 0.6676 -0.5550
C12 C 0.3385(3) 0.7988(2) -0.4321(2)
H7 H 0.3528 0.8303 -0.5009
C13 C 0.4570(3) 0.8502(2) -0.3012(2)
H8 H 0.5524 0.9164 -0.2798
C14 C 0.7759(2) 0.99496(19) -0.02956(19)
C15 C 0.7505(2) 0.87178(19) 0.3565(2)
C16 C 0.4339(2) 0.68066(17) 0.18652(18)
C17 C 0.2711(2) 0.67832(17) 0.16698(18)
H9 H 0.2212 0.7397 0.1296
C18 C 0.1824(2) 0.58859(17) 0.20096(18)
C19 C 0.2561(2) 0.49863(17) 0.25853(18)
C20 C 0.4172(2) 0.50240(18) 0.2807(2)
H10 H 0.4683 0.4429 0.3207
C21 C 0.5057(2) 0.59311(19) 0.2449(2)
H11 H 0.6170 0.5949 0.2608
C22 C -0.0562(2) 0.6664(2) 0.1225(2)
H12 H -0.0047 0.7587 0.1843
H13 H -0.1721 0.6450 0.1071
H14 H -0.0451 0.6569 0.0354
C23 C 0.2280(3) 0.3240(2) 0.3509(3)
H15 H 0.2661 0.2639 0.2902
H16 H 0.1462 0.2711 0.3700
H17 H 0.3205 0.3758 0.4364
loop_
_geom_bond_atom_site_label_1
_geom_bond_atom_site_label_2
_geom_bond_site_symmetry_1
_geom_bond_site_symmetry_2
O1 C18 1_555 1_555
O2 C19 1_555 1_555
N1 C14 1_555 1_555
N2 H1 1_555 1_555
H2 N2 1_555 1_555
N3 C15 1_555 1_555
C1 C2 1_555 1_555
C2 N2 1_555 1_555
C3 C2 1_555 1_555
C4 C3 1_555 1_555
C5 C4 1_555 1_555
C6 C5 1_555 1_555
H3 C6 1_555 1_555
H4 C6 1_555 1_555
C7 C6 1_555 1_555
C8 C7 1_555 1_555
C9 C1 1_555 1_555
C10 C7 1_555 1_555
H5 C10 1_555 1_555
C11 C10 1_555 1_555
H6 C11 1_555 1_555
C12 C11 1_555 1_555
H7 C12 1_555 1_555
C13 C8 1_555 1_555
H8 C13 1_555 1_555
C14 C1 1_555 1_555
C15 C3 1_555 1_555
C16 C4 1_555 1_555
C17 C16 1_555 1_555
H9 C17 1_555 1_555
C18 C17 1_555 1_555
C19 C18 1_555 1_555
C20 C19 1_555 1_555
H10 C20 1_555 1_555
C21 C16 1_555 1_555
H11 C21 1_555 1_555
C22 O1 1_555 1_555
H12 C22 1_555 1_555
H13 C22 1_555 1_555
H14 C22 1_555 1_555
C23 O2 1_555 1_555
H15 C23 1_555 1_555
H16 C23 1_555 1_555
H17 C23 1_555 1_555
C5 C9 1_555 1_555
C8 C9 1_555 1_555
C12 C13 1_555 1_555
C20 C21 1_555 1_555

#END
