
#######################################################################
#
#                 Cambridge Crystallographic Data Centre
#                                CCDC 
#
#######################################################################
#
# If this CIF has been generated from an entry in the Cambridge 
# Structural Database, then it will include bibliographic, chemical, 
# crystal, experimental, refinement or atomic coordinate data resulting 
# from the CCDC's data processing and validation procedures.
#
#######################################################################

data_SICQEB
_chemical_formula_moiety         'C21 H18 F6 O2 S2'
_chemical_name_systematic        
1,2-bis(2-n-Propyl-5-formylthien-3-yl)perfluorocyclopentene
_symmetry_cell_setting           triclinic
_symmetry_space_group_name_H-M   'P -1'
_symmetry_Int_Tables_number      2
_space_group_name_Hall           '-P 1'
loop_
_symmetry_equiv_pos_site_id
_symmetry_equiv_pos_as_xyz
1 x,y,z
2 -x,-y,-z
_cell_length_a                   10.6721(18)
_cell_length_b                   14.059(2)
_cell_length_c                   16.532(3)
_cell_angle_alpha                88.656(3)
_cell_angle_beta                 73.603(3)
_cell_angle_gamma                67.958(3)
_cell_volume                     2196.13
_cell_formula_units_Z            4
_chemical_properties_physical    light-sensitive
_exptl_crystal_preparation       photochromic
loop_
_atom_site_label
_atom_site_type_symbol
_atom_site_fract_x
_atom_site_fract_y
_atom_site_fract_z
S1 S 1.02150(11) 0.05700(8) 0.17747(7)
S2 S 0.66832(13) 0.31858(10) 0.48132(7)
F1 F 0.8040(8) 0.4085(7) 0.0618(5)
F2 F 1.0141(10) 0.4028(11) 0.0655(8)
F3 F 0.7270(7) 0.6002(4) 0.0960(4)
F4 F 0.8811(6) 0.5787(4) 0.1615(4)
F5 F 0.5668(9) 0.5531(13) 0.2212(9)
F6 F 0.6644(10) 0.6043(8) 0.2972(6)
O1 O 1.3452(3) -0.0535(3) 0.1266(2)
O2 O 0.3672(4) 0.3159(4) 0.5490(3)
C1 C 1.3005(5) 0.0383(4) 0.1283(3)
H1 H 1.3663 0.0690 0.1139
C2 C 1.1521(4) 0.1059(3) 0.1507(2)
C3 C 1.0944(4) 0.2106(3) 0.1544(2)
H2 H 1.1486 0.2507 0.1416
C4 C 0.9439(4) 0.2533(3) 0.1798(2)
C5 C 0.8888(4) 0.1781(3) 0.1942(2)
C6 C 0.7371(4) 0.1883(3) 0.2171(3)
H3 H 0.6770 0.2602 0.2349
H4 H 0.7195 0.1703 0.1662
C7 C 0.6931(5) 0.1275(4) 0.2823(4)
H5 H 0.7082 0.1462 0.3338
H6 H 0.7531 0.0554 0.2652
C8 C 0.5393(5) 0.1396(4) 0.3019(4)
H7 H 0.4794 0.2115 0.3112
H8 H 0.5145 0.1063 0.3517
H9 H 0.5273 0.1087 0.2549
C9 C 0.8593(4) 0.3642(3) 0.1878(2)
C10 C 0.8798(5) 0.4247(3) 0.1120(3)
C11 C 0.7872(5) 0.5361(4) 0.1450(3)
C12 C 0.6972(5) 0.5339(3) 0.2319(3)
C13 C 0.7569(4) 0.4249(3) 0.2540(2)
C14 C 0.6969(4) 0.3965(3) 0.3390(2)
C15 C 0.7736(4) 0.3484(3) 0.3930(3)
C16 C 0.9268(5) 0.3235(4) 0.3846(3)
H10 H 0.9718 0.3364 0.3281
H11 H 0.9319 0.3706 0.4244
C17 C 1.0091(5) 0.2171(4) 0.3992(4)
H12 H 1.0040 0.1690 0.3603
H13 H 0.9676 0.2040 0.4564
C18 C 1.1639(6) 0.1986(5) 0.3868(4)
H14 H 1.2068 0.2079 0.3294
H15 H 1.2129 0.1296 0.3987
H16 H 1.1694 0.2468 0.4246
C19 C 0.5537(5) 0.4113(3) 0.3715(3)
H17 H 0.4866 0.4452 0.3440
C20 C 0.5220(5) 0.3720(4) 0.4464(3)
C21 C 0.3867(6) 0.3652(5) 0.4910(4)
H18 H 0.3093 0.4028 0.4723
S3 S 0.20151(12) 0.82874(8) 0.01855(7)
S4 S -0.03899(12) 0.93010(8) 0.39039(7)
F7 F 0.4076(8) 0.4791(9) 0.1746(5)
F8 F 0.2748(13) 0.4723(13) 0.0947(7)
F9 F 0.2837(10) 0.3852(7) 0.2812(8)
F10 F 0.1028(8) 0.4379(6) 0.2317(6)
F11 F -0.0120(9) 0.5591(9) 0.3665(5)
F12 F 0.1968(10) 0.5438(10) 0.3684(5)
O3 O 0.4938(4) 0.8236(3) -0.0885(2)
O4 O -0.3540(4) 1.0277(4) 0.4837(3)
C22 C 0.4933(5) 0.7641(4) -0.0353(3)
H19 H 0.5804 0.7221 -0.0288
C23 C 0.3692(4) 0.7519(3) 0.0195(3)
C24 C 0.3669(4) 0.6831(3) 0.0787(3)
H20 H 0.4479 0.6345 0.0880
C25 C 0.2279(4) 0.6933(3) 0.1246(2)
C26 C 0.1262(4) 0.7699(3) 0.0990(2)
C27 C -0.0320(4) 0.8035(3) 0.1300(3)
H21 H -0.0536 0.7427 0.1427
H22 H -0.0664 0.8467 0.1828
C28 C -0.1127(5) 0.8609(4) 0.0720(3)
H23 H -0.0753 0.8203 0.0177
H24 H -0.0986 0.9250 0.0628
C29 C -0.2701(5) 0.8849(5) 0.1054(4)
H25 H -0.2850 0.8219 0.1162
H26 H -0.3155 0.9184 0.0642
H27 H -0.3094 0.9294 0.1571
C30 C 0.1999(4) 0.6250(3) 0.1901(3)
C31 C 0.2706(4) 0.5102(3) 0.1693(3)
C32 C 0.2083(5) 0.4643(3) 0.2471(3)
C33 C 0.1147(5) 0.5538(4) 0.3134(3)
C34 C 0.1147(4) 0.6491(3) 0.2699(3)
C35 C 0.0317(4) 0.7507(3) 0.3176(2)
C36 C 0.0885(4) 0.8210(3) 0.3295(2)
C37 C 0.2402(4) 0.8105(3) 0.2986(3)
H28 H 0.2997 0.7405 0.3041
H29 H 0.2624 0.8206 0.2387
C38 C 0.2788(5) 0.8828(4) 0.3426(3)
H30 H 0.2538 0.8751 0.4028
H31 H 0.2235 0.9530 0.3347
C39 C 0.4340(5) 0.8647(4) 0.3110(4)
H32 H 0.4893 0.7966 0.3216
H33 H 0.4515 0.9145 0.3402
H34 H 0.4599 0.8715 0.2513
C40 C -0.1155(4) 0.7868(3) 0.3597(2)
H35 H -0.1700 0.7485 0.3597
C41 C -0.1686(4) 0.8824(4) 0.4000(3)
C42 C -0.3149(5) 0.9429(5) 0.4491(3)
H36 H -0.3817 0.9140 0.4539
F13? F 0.8801(10) 0.3798(7) 0.0409(5)
F14? F 1.0099(9) 0.4286(11) 0.0892(9)
F15? F 0.6931(12) 0.5476(11) 0.0962(7)
F16? F 0.8423(17) 0.6023(10) 0.1183(10)
F17? F 0.5555(9) 0.5750(13) 0.2486(9)
F18? F 0.7350(10) 0.5972(8) 0.2737(6)
F19? F 0.4130(8) 0.4737(9) 0.1312(5)
F20? F 0.2224(13) 0.4857(13) 0.1067(7)
F21? F 0.3317(10) 0.4090(8) 0.2677(8)
F22? F 0.1733(11) 0.3900(6) 0.2262(7)
F23? F -0.0140(9) 0.5466(9) 0.3219(6)
F24? F 0.1379(11) 0.5493(11) 0.3885(5)
loop_
_geom_bond_atom_site_label_1
_geom_bond_atom_site_label_2
_geom_bond_site_symmetry_1
_geom_bond_site_symmetry_2
S1 C2 1_555 1_555
S2 C15 1_555 1_555
S3 C23 1_555 1_555
S4 C36 1_555 1_555
F1 C10 1_555 1_555
F2 C10 1_555 1_555
F3 C11 1_555 1_555
F4 C11 1_555 1_555
F5 C12 1_555 1_555
F6 C12 1_555 1_555
F7 C31 1_555 1_555
F8 C31 1_555 1_555
F9 C32 1_555 1_555
F10 C32 1_555 1_555
F11 C33 1_555 1_555
F12 C33 1_555 1_555
O1 C1 1_555 1_555
O2 C21 1_555 1_555
O3 C22 1_555 1_555
O4 C42 1_555 1_555
C1 H1 1_555 1_555
C2 C1 1_555 1_555
C3 C2 1_555 1_555
H2 C3 1_555 1_555
C4 C3 1_555 1_555
C5 S1 1_555 1_555
C6 C5 1_555 1_555
H3 C6 1_555 1_555
H4 C6 1_555 1_555
C7 C6 1_555 1_555
H5 C7 1_555 1_555
H6 C7 1_555 1_555
C8 C7 1_555 1_555
H7 C8 1_555 1_555
H8 C8 1_555 1_555
H9 C8 1_555 1_555
C9 C4 1_555 1_555
C10 C9 1_555 1_555
C11 C10 1_555 1_555
C12 C11 1_555 1_555
C13 C9 1_555 1_555
C14 C13 1_555 1_555
C15 C14 1_555 1_555
C16 C15 1_555 1_555
H10 C16 1_555 1_555
H11 C16 1_555 1_555
C17 C16 1_555 1_555
H12 C17 1_555 1_555
H13 C17 1_555 1_555
C18 C17 1_555 1_555
H14 C18 1_555 1_555
H15 C18 1_555 1_555
H16 C18 1_555 1_555
C19 C14 1_555 1_555
H17 C19 1_555 1_555
C20 S2 1_555 1_555
C21 C20 1_555 1_555
H18 C21 1_555 1_555
C22 H19 1_555 1_555
C23 C22 1_555 1_555
C24 C23 1_555 1_555
H20 C24 1_555 1_555
C25 C24 1_555 1_555
C26 S3 1_555 1_555
C27 C26 1_555 1_555
H21 C27 1_555 1_555
H22 C27 1_555 1_555
C28 C27 1_555 1_555
H23 C28 1_555 1_555
H24 C28 1_555 1_555
C29 C28 1_555 1_555
H25 C29 1_555 1_555
H26 C29 1_555 1_555
H27 C29 1_555 1_555
C30 C25 1_555 1_555
C31 C30 1_555 1_555
C32 C31 1_555 1_555
C33 C32 1_555 1_555
C34 C30 1_555 1_555
C35 C34 1_555 1_555
C36 C35 1_555 1_555
C37 C36 1_555 1_555
H28 C37 1_555 1_555
H29 C37 1_555 1_555
C38 C37 1_555 1_555
H30 C38 1_555 1_555
H31 C38 1_555 1_555
C39 C38 1_555 1_555
H32 C39 1_555 1_555
H33 C39 1_555 1_555
H34 C39 1_555 1_555
C40 C35 1_555 1_555
H35 C40 1_555 1_555
C41 S4 1_555 1_555
C42 C41 1_555 1_555
H36 C42 1_555 1_555
C4 C5 1_555 1_555
C12 C13 1_555 1_555
C19 C20 1_555 1_555
C25 C26 1_555 1_555
C33 C34 1_555 1_555
C40 C41 1_555 1_555

#END
