
#######################################################################
#
#                 Cambridge Crystallographic Data Centre
#                                CCDC 
#
#######################################################################
#
# If this CIF has been generated from an entry in the Cambridge 
# Structural Database, then it will include bibliographic, chemical, 
# crystal, experimental, refinement or atomic coordinate data resulting 
# from the CCDC's data processing and validation procedures.
#
#######################################################################

data_SICSII
_chemical_formula_moiety         'C18 H22 Br1 N1 O4 S1'
_chemical_name_systematic        
N-(1-(2-Bromophenyl)-2,5-dihydroxypentyl)-4-methylbenzenesulfonamide
_symmetry_cell_setting           triclinic
_symmetry_space_group_name_H-M   'P 1'
_symmetry_Int_Tables_number      1
_space_group_name_Hall           'P 1'
loop_
_symmetry_equiv_pos_site_id
_symmetry_equiv_pos_as_xyz
1 x,y,z
_cell_length_a                   7.5536(18)
_cell_length_b                   7.5571(18)
_cell_length_c                   16.888(4)
_cell_angle_alpha                91.672(3)
_cell_angle_beta                 98.728(3)
_cell_angle_gamma                102.127(3)
_cell_volume                     929.734
_exptl_crystal_colour            colorless
_exptl_crystal_description       piece
_cell_formula_units_Z            2
loop_
_atom_site_label
_atom_site_type_symbol
_atom_site_fract_x
_atom_site_fract_y
_atom_site_fract_z
Br1 Br 0.34873(6) 0.44128(6) 0.11285(3)
S1 S 0.03275(16) 0.16599(16) 0.34281(8)
O1 O 0.3669(5) 1.0076(5) 0.4424(2)
H1 H 0.3040 1.0115 0.4791
O2 O -0.0570(5) 0.2971(5) 0.3133(2)
O3 O 0.6206(5) 0.4192(5) 0.3769(2)
H2 H 0.6741 0.3645 0.3471
O4 O -0.0173(5) 0.1031(5) 0.4165(2)
N1 N 0.2455(6) 0.2553(6) 0.3533(3)
H3 H 0.3113 0.2513 0.4006
C1 C -0.1102(8) -0.4958(8) 0.0787(3)
H4 H -0.2399 -0.5195 0.0545
H5 H -0.0836 -0.6039 0.1046
H6 H -0.0337 -0.4664 0.0369
C2 C -0.0671(7) -0.3308(7) 0.1435(3)
C3 C -0.0499(7) -0.3536(7) 0.2247(3)
H7 H -0.0595 -0.4729 0.2424
C4 C -0.0173(7) -0.2020(8) 0.2850(3)
H8 H -0.0055 -0.2277 0.3400
C5 C -0.0034(7) -0.0278(7) 0.2663(3)
C6 C 0.3424(7) 0.3440(7) 0.2911(3)
H9 H 0.2539 0.4051 0.2583
C7 C 0.5018(7) 0.4970(7) 0.3317(3)
H10 H 0.5636 0.5625 0.2893
C8 C 0.4388(7) 0.6431(7) 0.3884(3)
H11 H 0.3276 0.6763 0.3593
H12 H 0.4056 0.5847 0.4374
C9 C 0.5856(7) 0.8151(7) 0.4130(3)
H13 H 0.6143 0.8762 0.3640
H14 H 0.6986 0.7811 0.4396
C10 C 0.5286(7) 0.9585(7) 0.4731(3)
H15 H 0.5154 0.9036 0.5250
H16 H 0.6284 1.0687 0.4835
C11 C 0.4057(7) 0.2097(7) 0.2276(3)
C12 C 0.4128(7) 0.2309(8) 0.1470(3)
C13 C 0.4705(7) 0.1102(8) 0.0891(3)
H17 H 0.4686 0.1413 0.0349
C14 C 0.5250(7) -0.0410(8) 0.1116(3)
H18 H 0.5645 -0.1200 0.0766
C15 C 0.5171(7) -0.0684(8) 0.1912(3)
H19 H 0.5519 -0.1737 0.2121
C16 C 0.4576(7) 0.0563(7) 0.2473(3)
H20 H 0.4567 0.0236 0.3011
C17 C -0.0192(7) -0.0029(7) 0.1855(3)
H21 H -0.0102 0.1163 0.1677
C18 C -0.0495(8) -0.1557(8) 0.1263(4)
H22 H -0.0574 -0.1295 0.0713
Br2 Br 0.64347(6) 0.54126(7) 0.88714(4)
S2 S 0.26391(16) 0.10114(16) 0.65757(8)
O5 O 1.0425(5) 0.3809(5) 0.5571(2)
H23 H 1.0521 0.3097 0.5197
O6 O 0.1619(5) 0.0108(5) 0.5843(2)
O7 O 0.4139(5) 0.0306(5) 0.6853(2)
O8 O 0.4907(5) 0.6739(5) 0.6216(2)
H24 H 0.4623 0.7523 0.6506
C19 C -0.1226(8) 0.0960(7) 0.8589(3)
N2 N 0.3404(6) 0.3103(6) 0.6461(3)
H25 H 0.3092 0.3510 0.5988
C20 C 0.0622(9) 0.1271(8) 0.8760(4)
H26 H 0.1177 0.1506 0.9308
C21 C -0.2496(9) 0.0873(8) 0.9256(4)
H27 H -0.1731 0.1159 0.9786
H28 H -0.3269 -0.0348 0.9238
H29 H -0.3276 0.1756 0.9159
C22 C -0.1884(7) 0.0746(8) 0.7799(4)
H30 H -0.3170 0.0588 0.7634
C23 C -0.0723(7) 0.0745(7) 0.7175(3)
H31 H -0.1287 0.0564 0.6628
C24 C 0.1113(7) 0.0992(7) 0.7353(3)
C25 C 0.4601(6) 0.4417(7) 0.7088(3)
H32 H 0.5390 0.3715 0.7419
C26 C 0.5905(7) 0.5787(7) 0.6671(3)
H33 H 0.6776 0.6633 0.7092
C27 C 0.7095(7) 0.4861(7) 0.6112(3)
H34 H 0.7582 0.3913 0.6411
H35 H 0.6263 0.4258 0.5624
C28 C 0.8676(7) 0.6178(7) 0.5857(3)
H36 H 0.9541 0.6731 0.6344
H37 H 0.8196 0.7163 0.5585
C29 C 0.9818(7) 0.5276(7) 0.5254(3)
H38 H 0.9013 0.4885 0.4732
H39 H 1.0884 0.6206 0.5155
C30 C 0.3581(7) 0.5361(7) 0.7711(3)
C31 C 0.1882(7) 0.5733(7) 0.7509(3)
H40 H 0.1284 0.5439 0.6971
C32 C 0.0888(8) 0.6575(8) 0.8075(3)
H41 H -0.0267 0.6821 0.7861
C33 C 0.1517(8) 0.7010(8) 0.8871(4)
H42 H 0.0859 0.7514 0.9224
C34 C 0.3183(8) 0.6641(7) 0.9099(3)
H43 H 0.3751 0.6896 0.9643
C35 C 0.4164(7) 0.5844(7) 0.8522(3)
C36 C 0.1836(7) 0.1271(8) 0.8154(3)
H44 H 0.3125 0.1465 0.8318
loop_
_geom_bond_atom_site_label_1
_geom_bond_atom_site_label_2
_geom_bond_site_symmetry_1
_geom_bond_site_symmetry_2
Br1 C12 1_555 1_555
S1 O2 1_555 1_555
O1 H1 1_555 1_555
O3 H2 1_555 1_555
O4 S1 1_555 1_555
N1 S1 1_555 1_555
H3 N1 1_555 1_555
C1 H4 1_555 1_555
H5 C1 1_555 1_555
H6 C1 1_555 1_555
C2 C1 1_555 1_555
C3 C2 1_555 1_555
H7 C3 1_555 1_555
C4 C3 1_555 1_555
H8 C4 1_555 1_555
C5 S1 1_555 1_555
C6 N1 1_555 1_555
H9 C6 1_555 1_555
C7 O3 1_555 1_555
H10 C7 1_555 1_555
C8 C7 1_555 1_555
H11 C8 1_555 1_555
H12 C8 1_555 1_555
C9 C8 1_555 1_555
H13 C9 1_555 1_555
H14 C9 1_555 1_555
C10 O1 1_555 1_555
H15 C10 1_555 1_555
H16 C10 1_555 1_555
C11 C6 1_555 1_555
C12 C11 1_555 1_555
C13 C12 1_555 1_555
H17 C13 1_555 1_555
C14 C13 1_555 1_555
H18 C14 1_555 1_555
C15 C14 1_555 1_555
H19 C15 1_555 1_555
C16 C11 1_555 1_555
H20 C16 1_555 1_555
C17 C5 1_555 1_555
H21 C17 1_555 1_555
C18 C2 1_555 1_555
H22 C18 1_555 1_555
Br2 C35 1_555 1_555
S2 O6 1_555 1_555
O5 H23 1_555 1_555
O7 S2 1_555 1_555
O8 H24 1_555 1_555
C19 C20 1_555 1_555
N2 S2 1_555 1_555
H25 N2 1_555 1_555
C20 H26 1_555 1_555
C21 C19 1_555 1_555
H27 C21 1_555 1_555
H28 C21 1_555 1_555
H29 C21 1_555 1_555
C22 C19 1_555 1_555
H30 C22 1_555 1_555
C23 C22 1_555 1_555
H31 C23 1_555 1_555
C24 S2 1_555 1_555
C25 N2 1_555 1_555
H32 C25 1_555 1_555
C26 O8 1_555 1_555
H33 C26 1_555 1_555
C27 C26 1_555 1_555
H34 C27 1_555 1_555
H35 C27 1_555 1_555
C28 C27 1_555 1_555
H36 C28 1_555 1_555
H37 C28 1_555 1_555
C29 O5 1_555 1_555
H38 C29 1_555 1_555
H39 C29 1_555 1_555
C30 C25 1_555 1_555
C31 C30 1_555 1_555
H40 C31 1_555 1_555
C32 C31 1_555 1_555
H41 C32 1_555 1_555
C33 C32 1_555 1_555
H42 C33 1_555 1_555
C34 C33 1_555 1_555
H43 C34 1_555 1_555
C35 C30 1_555 1_555
C36 C20 1_555 1_555
H44 C36 1_555 1_555
C4 C5 1_555 1_555
C6 C7 1_555 1_555
C9 C10 1_555 1_555
C15 C16 1_555 1_555
C17 C18 1_555 1_555
C23 C24 1_555 1_555
C24 C36 1_555 1_555
C25 C26 1_555 1_555
C28 C29 1_555 1_555
C34 C35 1_555 1_555

#END
