
#######################################################################
#
#                 Cambridge Crystallographic Data Centre
#                                CCDC 
#
#######################################################################
#
# If this CIF has been generated from an entry in the Cambridge 
# Structural Database, then it will include bibliographic, chemical, 
# crystal, experimental, refinement or atomic coordinate data resulting 
# from the CCDC's data processing and validation procedures.
#
#######################################################################

data_SICSUV
_chemical_formula_moiety         'C35 H25 O1 P1'
_chemical_name_systematic        
{4-[8-(diphenylphosphino)naphthalen-1-yl]phenyl}(phenyl)methanone
_symmetry_cell_setting           monoclinic
_symmetry_space_group_name_H-M   'P 21/n'
_symmetry_Int_Tables_number      14
_space_group_name_Hall           '-P 2yn'
loop_
_symmetry_equiv_pos_site_id
_symmetry_equiv_pos_as_xyz
1 x,y,z
2 1/2-x,1/2+y,1/2-z
3 -x,-y,-z
4 1/2+x,1/2-y,1/2+z
_cell_length_a                   9.2014(16)
_cell_length_b                   12.252(2)
_cell_length_c                   23.243(4)
_cell_angle_alpha                90
_cell_angle_beta                 92.962(3)
_cell_angle_gamma                90
_cell_volume                     2616.81
_exptl_crystal_colour            colorless
_exptl_crystal_description       block
_cell_formula_units_Z            4
loop_
_atom_site_label
_atom_site_type_symbol
_atom_site_fract_x
_atom_site_fract_y
_atom_site_fract_z
C1 C 0.51963(19) -0.01292(16) 0.23266(9)
C2 C 0.5766(3) -0.0960(2) 0.26576(11)
H1 H 0.5624 -0.1673 0.2530
C3 C 0.6554(3) -0.0789(2) 0.31799(12)
H2 H 0.6919 -0.1378 0.3394
C4 C 0.6776(3) 0.0233(2) 0.33675(10)
H3 H 0.7302 0.0351 0.3715
C5 C 0.6225(2) 0.11367(18) 0.30464(8)
C6 C 0.53942(18) 0.09764(15) 0.25135(8)
C7 C 0.4844(2) 0.19414(15) 0.22168(8)
C8 C 0.5185(2) 0.29425(17) 0.24479(9)
H4 H 0.4835 0.3562 0.2256
C9 C 0.6040(3) 0.30774(19) 0.29618(10)
H5 H 0.6266 0.3773 0.3099
C10 C 0.6527(3) 0.2194(2) 0.32526(9)
H6 H 0.7075 0.2283 0.3597
C11 C 0.4408(2) -0.04928(16) 0.17821(9)
C12 C 0.5059(2) -0.0487(2) 0.12563(10)
H7 H 0.5979 -0.0182 0.1232
C13 C 0.4363(3) -0.0924(2) 0.07719(10)
H8 H 0.4825 -0.0917 0.0425
C14 C 0.2984(2) -0.13764(17) 0.07912(9)
C15 C 0.2335(2) -0.14001(17) 0.13188(9)
H9 H 0.1414 -0.1705 0.1344
C16 C 0.3052(2) -0.09727(16) 0.18063(9)
H10 H 0.2612 -0.1009 0.2157
C17 C 0.2268(3) -0.1886(2) 0.02750(11)
C18 C 0.0657(3) -0.20676(18) 0.02467(9)
C19 C -0.0291(2) -0.1252(2) 0.03866(9)
H11 H 0.0078 -0.0592 0.0527
C20 C -0.1779(3) -0.1396(3) 0.03229(10)
H12 H -0.2399 -0.0826 0.0409
C21 C -0.2339(3) -0.2360(3) 0.01366(11)
H13 H -0.3342 -0.2455 0.0099
C22 C -0.1434(4) -0.3192(2) 0.00043(11)
H14 H -0.1823 -0.3861 -0.0114
C23 C 0.0076(4) -0.3049(2) 0.00446(11)
H15 H 0.0688 -0.3608 -0.0064
C24 C 0.3651(2) 0.33164(16) 0.13167(8)
C25 C 0.4744(2) 0.3693(2) 0.09743(9)
H16 H 0.5484 0.3223 0.0874
C26 C 0.4735(3) 0.4764(3) 0.07819(10)
H17 H 0.5481 0.5012 0.0560
C27 C 0.3635(4) 0.5460(2) 0.09156(12)
H18 H 0.3635 0.6177 0.0784
C28 C 0.2540(3) 0.5099(2) 0.12413(11)
H19 H 0.1787 0.5568 0.1327
C29 C 0.2547(2) 0.40368(17) 0.14440(9)
H20 H 0.1801 0.3802 0.1669
C30 C 0.1922(2) 0.16079(15) 0.17608(8)
C31 C 0.0809(2) 0.15335(18) 0.13318(9)
H21 H 0.1016 0.1655 0.0950
C32 C -0.0587(2) 0.1283(2) 0.14663(11)
H22 H -0.1321 0.1256 0.1177
C33 C -0.0904(3) 0.1073(2) 0.20254(12)
H23 H -0.1849 0.0895 0.2114
C34 C 0.0177(2) 0.11268(18) 0.24553(10)
H24 H -0.0033 0.0976 0.2834
C35 C 0.1581(2) 0.14059(17) 0.23230(9)
H25 H 0.2303 0.1458 0.2617
O1 O 0.2978(2) -0.2168(2) -0.01256(9)
P1 P 0.37550(5) 0.18803(4) 0.15269(2)
loop_
_geom_bond_atom_site_label_1
_geom_bond_atom_site_label_2
_geom_bond_site_symmetry_1
_geom_bond_site_symmetry_2
C1 C2 1_555 1_555
C2 H1 1_555 1_555
C3 C2 1_555 1_555
H2 C3 1_555 1_555
C4 C3 1_555 1_555
H3 C4 1_555 1_555
C5 C4 1_555 1_555
C6 C1 1_555 1_555
C7 C6 1_555 1_555
C8 C7 1_555 1_555
H4 C8 1_555 1_555
C9 C8 1_555 1_555
H5 C9 1_555 1_555
C10 C5 1_555 1_555
H6 C10 1_555 1_555
C11 C1 1_555 1_555
C12 C11 1_555 1_555
H7 C12 1_555 1_555
C13 C12 1_555 1_555
H8 C13 1_555 1_555
C14 C13 1_555 1_555
C15 C14 1_555 1_555
H9 C15 1_555 1_555
C16 C11 1_555 1_555
H10 C16 1_555 1_555
C17 C14 1_555 1_555
C18 C17 1_555 1_555
C19 C18 1_555 1_555
H11 C19 1_555 1_555
C20 C19 1_555 1_555
H12 C20 1_555 1_555
C21 C20 1_555 1_555
H13 C21 1_555 1_555
C22 C21 1_555 1_555
H14 C22 1_555 1_555
C23 C18 1_555 1_555
H15 C23 1_555 1_555
C24 C25 1_555 1_555
C25 H16 1_555 1_555
C26 C25 1_555 1_555
H17 C26 1_555 1_555
C27 C26 1_555 1_555
H18 C27 1_555 1_555
C28 C27 1_555 1_555
H19 C28 1_555 1_555
C29 C24 1_555 1_555
H20 C29 1_555 1_555
C30 C31 1_555 1_555
C31 H21 1_555 1_555
C32 C31 1_555 1_555
H22 C32 1_555 1_555
C33 C32 1_555 1_555
H23 C33 1_555 1_555
C34 C33 1_555 1_555
H24 C34 1_555 1_555
C35 C30 1_555 1_555
H25 C35 1_555 1_555
O1 C17 1_555 1_555
P1 C7 1_555 1_555
C5 C6 1_555 1_555
C9 C10 1_555 1_555
C15 C16 1_555 1_555
C22 C23 1_555 1_555
C24 P1 1_555 1_555
C28 C29 1_555 1_555
C30 P1 1_555 1_555
C34 C35 1_555 1_555

#END
