
#######################################################################
#
#                 Cambridge Crystallographic Data Centre
#                                CCDC 
#
#######################################################################
#
# If this CIF has been generated from an entry in the Cambridge 
# Structural Database, then it will include bibliographic, chemical, 
# crystal, experimental, refinement or atomic coordinate data resulting 
# from the CCDC's data processing and validation procedures.
#
#######################################################################

data_SICTEG
_chemical_formula_moiety         'C28 H21 P1'
_chemical_name_systematic        diphenyl(8-phenylnaphthalen-1-yl)phosphine
_symmetry_cell_setting           monoclinic
_symmetry_space_group_name_H-M   'P 21/n'
_symmetry_Int_Tables_number      14
_space_group_name_Hall           '-P 2yn'
loop_
_symmetry_equiv_pos_site_id
_symmetry_equiv_pos_as_xyz
1 x,y,z
2 1/2-x,1/2+y,1/2-z
3 -x,-y,-z
4 1/2+x,1/2-y,1/2+z
_cell_length_a                   10.8662(12)
_cell_length_b                   9.9764(11)
_cell_length_c                   18.874(2)
_cell_angle_alpha                90
_cell_angle_beta                 92.821(2)
_cell_angle_gamma                90
_cell_volume                     2043.57
_exptl_crystal_colour            colorless
_exptl_crystal_description       block
_cell_formula_units_Z            4
loop_
_atom_site_label
_atom_site_type_symbol
_atom_site_fract_x
_atom_site_fract_y
_atom_site_fract_z
C1 C 0.85384(13) 0.14723(15) 0.12365(8)
C2 C 0.74759(13) 0.10988(15) 0.16236(8)
C3 C 0.63067(14) 0.10495(16) 0.12325(9)
C4 C 0.62220(16) 0.13677(19) 0.05010(10)
H1 H 0.5458 0.1344 0.0256
C5 C 0.72326(17) 0.1705(2) 0.01537(10)
H2 H 0.7168 0.1907 -0.0328
C6 C 0.83813(16) 0.17500(18) 0.05246(9)
H3 H 0.9070 0.1978 0.0277
C7 C 0.74705(14) 0.07472(16) 0.23610(8)
C8 C 0.63897(16) 0.0372(2) 0.26502(10)
H4 H 0.6407 0.0135 0.3127
C9 C 0.52676(16) 0.0332(2) 0.22609(11)
H5 H 0.4554 0.0071 0.2476
C10 C 0.85561(14) 0.07707(17) 0.28795(8)
C11 C 0.91254(17) -0.04124(19) 0.31013(10)
H6 H 0.8890 -0.1220 0.2889
C12 C 1.00442(19) -0.0394(2) 0.36385(12)
H7 H 1.0428 -0.1189 0.3782
C13 C 1.03895(18) 0.0791(2) 0.39586(10)
H8 H 1.1001 0.0796 0.4321
C14 C 0.98353(16) 0.1966(2) 0.37459(9)
H9 H 1.0079 0.2770 0.3959
C15 C 0.89123(15) 0.19605(18) 0.32137(9)
H10 H 0.8527 0.2759 0.3078
C16 C 1.09775(13) 0.23605(16) 0.09396(8)
C17 C 1.09020(17) 0.37408(18) 0.08445(10)
H11 H 1.0408 0.4244 0.1133
C18 C 1.15492(18) 0.43797(19) 0.03281(10)
H12 H 1.1468 0.5300 0.0264
C19 C 1.23122(16) 0.3657(2) -0.00898(10)
H13 H 1.2754 0.4084 -0.0434
C20 C 1.24144(16) 0.2293(2) 0.00071(10)
H14 H 1.2935 0.1801 -0.0270
C21 C 1.17515(15) 0.16473(18) 0.05123(9)
H15 H 1.1824 0.0724 0.0567
C22 C 1.06473(14) -0.01168(16) 0.16373(8)
C23 C 1.00303(15) -0.11465(17) 0.12804(9)
H16 H 0.9281 -0.0973 0.1038
C24 C 1.05104(17) -0.24305(18) 0.12782(10)
H17 H 1.0081 -0.3110 0.1037
C25 C 1.16164(18) -0.27079(19) 0.16297(10)
H18 H 1.1940 -0.3571 0.1624
C26 C 1.22424(18) -0.1703(2) 0.19903(11)
H19 H 1.2992 -0.1886 0.2230
C27 C 1.17618(16) -0.04189(19) 0.19982(10)
H20 H 1.2189 0.0252 0.2248
P1 P 1.01104(3) 0.16239(4) 0.16595(2)
C28 C 0.52252(15) 0.0675(2) 0.15686(10)
H21 H 0.4475 0.0666 0.1309
loop_
_geom_bond_atom_site_label_1
_geom_bond_atom_site_label_2
_geom_bond_site_symmetry_1
_geom_bond_site_symmetry_2
C1 C2 1_555 1_555
C2 C3 1_555 1_555
C3 C4 1_555 1_555
C4 H1 1_555 1_555
C5 C4 1_555 1_555
H2 C5 1_555 1_555
C6 C1 1_555 1_555
H3 C6 1_555 1_555
C7 C2 1_555 1_555
C8 C7 1_555 1_555
H4 C8 1_555 1_555
C9 C8 1_555 1_555
H5 C9 1_555 1_555
C10 C7 1_555 1_555
C11 C10 1_555 1_555
H6 C11 1_555 1_555
C12 C11 1_555 1_555
H7 C12 1_555 1_555
C13 C12 1_555 1_555
H8 C13 1_555 1_555
C14 C13 1_555 1_555
H9 C14 1_555 1_555
C15 C10 1_555 1_555
H10 C15 1_555 1_555
C16 C17 1_555 1_555
C17 H11 1_555 1_555
C18 C17 1_555 1_555
H12 C18 1_555 1_555
C19 C18 1_555 1_555
H13 C19 1_555 1_555
C20 C19 1_555 1_555
H14 C20 1_555 1_555
C21 C16 1_555 1_555
H15 C21 1_555 1_555
C22 C23 1_555 1_555
C23 H16 1_555 1_555
C24 C23 1_555 1_555
H17 C24 1_555 1_555
C25 C24 1_555 1_555
H18 C25 1_555 1_555
C26 C25 1_555 1_555
H19 C26 1_555 1_555
C27 C22 1_555 1_555
H20 C27 1_555 1_555
P1 C1 1_555 1_555
C28 C3 1_555 1_555
H21 C28 1_555 1_555
C5 C6 1_555 1_555
C9 C28 1_555 1_555
C14 C15 1_555 1_555
C16 P1 1_555 1_555
C20 C21 1_555 1_555
C22 P1 1_555 1_555
C26 C27 1_555 1_555

#END
