
#######################################################################
#
#                 Cambridge Crystallographic Data Centre
#                                CCDC 
#
#######################################################################
#
# If this CIF has been generated from an entry in the Cambridge 
# Structural Database, then it will include bibliographic, chemical, 
# crystal, experimental, refinement or atomic coordinate data resulting 
# from the CCDC's data processing and validation procedures.
#
#######################################################################

data_SICTAB
_chemical_formula_moiety         'C22 H20 N2 O1'
_chemical_name_systematic        
5-Cyclopropyl-2-(4-methoxyphenyl)-9-methylpyrazolo[5,1-a]isoquinoline
_symmetry_cell_setting           monoclinic
_symmetry_space_group_name_H-M   'P 21'
_symmetry_Int_Tables_number      4
_space_group_name_Hall           'P 2yb'
loop_
_symmetry_equiv_pos_site_id
_symmetry_equiv_pos_as_xyz
1 x,y,z
2 -x,1/2+y,-z
_cell_length_a                   8.2463(11)
_cell_length_b                   8.2323(11)
_cell_length_c                   13.2910(18)
_cell_angle_alpha                90
_cell_angle_beta                 105.2570(10)
_cell_angle_gamma                90
_cell_volume                     870.473
_chemical_melting_point          '161-162 deg.C'
_cell_formula_units_Z            2
loop_
_atom_site_label
_atom_site_type_symbol
_atom_site_fract_x
_atom_site_fract_y
_atom_site_fract_z
O1 O -0.44369(17) 1.2361(2) 0.46668(10)
N1 N 0.08379(15) 0.91508(15) 0.11343(9)
N2 N -0.05071(15) 0.98325(16) 0.13825(10)
C1 C 0.09774(19) 0.90481(18) 0.01082(11)
C2 C 0.2406(2) 0.84110(19) -0.00228(12)
H1 H 0.2540 0.8349 -0.0695
C3 C 0.3737(2) 0.78218(19) 0.08253(12)
C4 C 0.5246(2) 0.7182(2) 0.06834(14)
H2 H 0.5408 0.7134 0.0018
C5 C 0.6476(2) 0.6629(2) 0.15185(15)
H3 H 0.7470 0.6230 0.1408
C6 C 0.6281(2) 0.6645(2) 0.25318(15)
C7 C 0.4815(2) 0.7280(2) 0.26843(13)
H4 H 0.4663 0.7301 0.3353
C8 C 0.35536(19) 0.78930(18) 0.18490(12)
C9 C 0.20473(19) 0.86233(17) 0.19974(11)
C10 C 0.14429(19) 0.8992(2) 0.28428(12)
H5 H 0.1966 0.8796 0.3542
C11 C -0.01260(18) 0.97259(19) 0.24292(12)
C12 C -0.12943(19) 1.03977(18) 0.29891(11)
C13 C -0.0815(2) 1.0561(3) 0.40694(13)
H6 H 0.0251 1.0224 0.4441
C14 C -0.1887(2) 1.1210(3) 0.45975(14)
H7 H -0.1539 1.1314 0.5319
C15 C -0.3478(2) 1.1711(2) 0.40626(14)
C16 C -0.3997(2) 1.1543(2) 0.29897(14)
H8 H -0.5069 1.1870 0.2623
C17 C -0.2899(2) 1.0882(2) 0.24660(12)
H9 H -0.3254 1.0762 0.1745
C18 C -0.6041(3) 1.2981(3) 0.41445(18)
H10 H -0.6584 1.3397 0.4647
H11 H -0.6712 1.2129 0.3750
H12 H -0.5913 1.3840 0.3682
C19 C -0.0466(2) 0.9674(2) -0.07011(12)
H13 H -0.0768 1.0802 -0.0601
C20 C -0.1928(2) 0.8594(2) -0.11943(15)
H14 H -0.1862 0.7461 -0.0986
H15 H -0.3046 0.9062 -0.1349
C21 C -0.0778(2) 0.9164(3) -0.18149(13)
H16 H -0.1199 0.9977 -0.2348
H17 H -0.0016 0.8377 -0.1985
C22 C 0.7648(2) 0.6020(3) 0.34337(18)
H18 H 0.7303 0.6127 0.4066
H19 H 0.8656 0.6637 0.3490
H20 H 0.7859 0.4897 0.3321
loop_
_geom_bond_atom_site_label_1
_geom_bond_atom_site_label_2
_geom_bond_site_symmetry_1
_geom_bond_site_symmetry_2
O1 C15 1_555 1_555
N1 N2 1_555 1_555
N2 C11 1_555 1_555
C1 N1 1_555 1_555
C2 C1 1_555 1_555
H1 C2 1_555 1_555
C3 C2 1_555 1_555
C4 C3 1_555 1_555
H2 C4 1_555 1_555
C5 C4 1_555 1_555
H3 C5 1_555 1_555
C6 C5 1_555 1_555
C7 C6 1_555 1_555
H4 C7 1_555 1_555
C8 C3 1_555 1_555
C9 N1 1_555 1_555
C10 C9 1_555 1_555
H5 C10 1_555 1_555
C11 C10 1_555 1_555
C12 C11 1_555 1_555
C13 C12 1_555 1_555
H6 C13 1_555 1_555
C14 C13 1_555 1_555
H7 C14 1_555 1_555
C15 C14 1_555 1_555
C16 C15 1_555 1_555
H8 C16 1_555 1_555
C17 C12 1_555 1_555
H9 C17 1_555 1_555
C18 O1 1_555 1_555
H10 C18 1_555 1_555
H11 C18 1_555 1_555
H12 C18 1_555 1_555
C19 C1 1_555 1_555
H13 C19 1_555 1_555
C20 C19 1_555 1_555
H14 C20 1_555 1_555
H15 C20 1_555 1_555
C21 C19 1_555 1_555
H16 C21 1_555 1_555
H17 C21 1_555 1_555
C22 C6 1_555 1_555
H18 C22 1_555 1_555
H19 C22 1_555 1_555
H20 C22 1_555 1_555
C7 C8 1_555 1_555
C8 C9 1_555 1_555
C16 C17 1_555 1_555
C20 C21 1_555 1_555

#END
