
#######################################################################
#
#                 Cambridge Crystallographic Data Centre
#                                CCDC 
#
#######################################################################
#
# If this CIF has been generated from an entry in the Cambridge 
# Structural Database, then it will include bibliographic, chemical, 
# crystal, experimental, refinement or atomic coordinate data resulting 
# from the CCDC's data processing and validation procedures.
#
#######################################################################

data_SICXIM
_chemical_formula_moiety         'C21 H17 N3 O4,0.25(C3 H6 O1)'
_chemical_name_systematic        
'trans-1-(3-Nitrophenyl)-2-(1-(hydroxyimino)ethyl)-1,2,3,4-tetrahydro-3-oxobenzo(f)quinoline acetone solvate'
_symmetry_cell_setting           monoclinic
_symmetry_space_group_name_H-M   'C 2/c'
_symmetry_Int_Tables_number      15
_space_group_name_Hall           '-C 2yn'
loop_
_symmetry_equiv_pos_site_id
_symmetry_equiv_pos_as_xyz
1 x,y,z
2 1/2+x,1/2+y,z
3 -x,y,1/2-z
4 1/2-x,1/2+y,1/2-z
5 -x,-y,-z
6 1/2-x,1/2-y,-z
7 x,-y,1/2+z
8 1/2+x,1/2-y,1/2+z
_cell_length_a                   18.383(2)
_cell_length_b                   9.9133(12)
_cell_length_c                   23.371(3)
_cell_angle_alpha                90
_cell_angle_beta                 106.34(2)
_cell_angle_gamma                90
_cell_volume                     4087.02
_exptl_crystal_colour            white
_exptl_crystal_description       block
_cell_formula_units_Z            8
_exptl_crystal_recrystallization_method acetone/ethanol
loop_
_atom_site_label
_atom_site_type_symbol
_atom_site_fract_x
_atom_site_fract_y
_atom_site_fract_z
N1 N 0.95736(17) 0.0846(3) 0.92686(14)
H1 H 0.9713 0.0062 0.9416
N2 N 1.01143(19) 0.5263(3) 0.91693(15)
N3 N 0.7055(3) 0.5160(4) 0.99350(19)
O1 O 0.99825(14) 0.1751(2) 1.01888(12)
O2 O 0.94670(15) 0.5869(3) 0.92760(12)
H2 H 0.9493 0.6690 0.9245
O3 O 0.7551(2) 0.5960(4) 1.0142(2)
O4 O 0.6443(2) 0.5217(4) 1.0029(2)
C1 C 0.9688(2) 0.1895(4) 0.96406(18)
C2 C 0.9450(2) 0.3259(4) 0.93724(16)
H3 H 0.9316 0.3802 0.9678
C3 C 0.8735(2) 0.3186(4) 0.88276(16)
H4 H 0.8711 0.4034 0.8607
C4 C 0.8813(2) 0.2054(4) 0.84097(17)
C5 C 0.9238(2) 0.0942(4) 0.86477(17)
C6 C 0.9351(2) -0.0137(4) 0.8283(2)
H5 H 0.9645 -0.0876 0.8453
C7 C 0.9029(3) -0.0084(5) 0.7688(2)
H6 H 0.9108 -0.0788 0.7450
C8 C 0.8570(2) 0.1029(5) 0.74196(19)
C9 C 0.8220(3) 0.1067(6) 0.6800(2)
H7 H 0.8306 0.0369 0.6561
C10 C 0.7757(3) 0.2108(6) 0.6545(2)
H8 H 0.7524 0.2117 0.6136
C11 C 0.7637(3) 0.3166(5) 0.6907(2)
H9 H 0.7322 0.3876 0.6733
C12 C 0.7972(3) 0.3179(5) 0.7506(2)
H10 H 0.7882 0.3893 0.7735
C13 C 0.8460(2) 0.2102(4) 0.77847(17)
C14 C 1.0095(2) 0.3977(4) 0.92141(17)
C15 C 1.0735(2) 0.3208(4) 0.9095(2)
H11 H 1.1082 0.3826 0.8994
H12 H 1.0541 0.2597 0.8769
H13 H 1.0994 0.2708 0.9444
C16 C 0.8011(2) 0.3101(4) 0.90248(16)
C17 C 0.7866(2) 0.4102(4) 0.93925(17)
H14 H 0.8217 0.4787 0.9532
C18 C 0.7197(2) 0.4073(4) 0.95499(17)
C19 C 0.6659(2) 0.3090(5) 0.93562(19)
H15 H 0.6210 0.3096 0.9466
C20 C 0.6804(3) 0.2101(5) 0.8996(2)
H16 H 0.6450 0.1420 0.8860
C21 C 0.7472(2) 0.2098(4) 0.88295(19)
H17 H 0.7559 0.1415 0.8584
O5 O 1.0000 0.4771(18) 0.7500
C22 C 1.0000 0.601(2) 0.7500
C23 C 1.0043(8) 0.6881(11) 0.7972(6)
H18 H 1.0074 0.6370 0.8327
H19 H 0.9598 0.7440 0.7883
H20 H 1.0485 0.7438 0.8033
C23B C 0.9957(8) 0.6881(11) 0.7028(6)
H18B H 0.9926 0.6370 0.6673
H19B H 1.0402 0.7440 0.7117
H20B H 0.9515 0.7438 0.6967
loop_
_geom_bond_atom_site_label_1
_geom_bond_atom_site_label_2
_geom_bond_site_symmetry_1
_geom_bond_site_symmetry_2
N1 H1 1_555 1_555
N2 O2 1_555 1_555
N3 O3 1_555 1_555
O1 C1 1_555 1_555
O2 H2 1_555 1_555
O4 N3 1_555 1_555
O5 C22 1_555 1_555
C1 N1 1_555 1_555
C2 C1 1_555 1_555
H3 C2 1_555 1_555
C3 C2 1_555 1_555
H4 C3 1_555 1_555
C4 C3 1_555 1_555
C5 N1 1_555 1_555
C6 C5 1_555 1_555
H5 C6 1_555 1_555
C7 C6 1_555 1_555
H6 C7 1_555 1_555
C8 C7 1_555 1_555
C9 C8 1_555 1_555
H7 C9 1_555 1_555
C10 C9 1_555 1_555
H8 C10 1_555 1_555
C11 C10 1_555 1_555
H9 C11 1_555 1_555
C12 C11 1_555 1_555
H10 C12 1_555 1_555
C13 C4 1_555 1_555
C14 N2 1_555 1_555
C15 C14 1_555 1_555
H11 C15 1_555 1_555
H12 C15 1_555 1_555
H13 C15 1_555 1_555
C16 C3 1_555 1_555
C17 C16 1_555 1_555
H14 C17 1_555 1_555
C18 N3 1_555 1_555
C19 C18 1_555 1_555
H15 C19 1_555 1_555
C20 C19 1_555 1_555
H16 C20 1_555 1_555
C21 C16 1_555 1_555
H17 C21 1_555 1_555
C22 C23 1_555 1_555
C23 H18 1_555 1_555
H19 C23 1_555 1_555
H20 C23 1_555 1_555
C23B C22 1_555 1_555
H18B C23B 1_555 1_555
H19B C23B 1_555 1_555
H20B C23B 1_555 1_555
C2 C14 1_555 1_555
C4 C5 1_555 1_555
C8 C13 1_555 1_555
C12 C13 1_555 1_555
C17 C18 1_555 1_555
C20 C21 1_555 1_555

#END
