
#######################################################################
#
#                 Cambridge Crystallographic Data Centre
#                                CCDC 
#
#######################################################################
#
# If this CIF has been generated from an entry in the Cambridge 
# Structural Database, then it will include bibliographic, chemical, 
# crystal, experimental, refinement or atomic coordinate data resulting 
# from the CCDC's data processing and validation procedures.
#
#######################################################################

data_SICYEL
_chemical_formula_moiety         'C13 H20 O4'
_chemical_name_systematic        
2-methoxydecahydro-3,5-methanocyclohepta[1,6]benzo[1,2-b]oxirene-4,6-diol
_symmetry_cell_setting           monoclinic
_symmetry_space_group_name_H-M   'P 21/c'
_symmetry_Int_Tables_number      14
_space_group_name_Hall           '-P 2ybc'
loop_
_symmetry_equiv_pos_site_id
_symmetry_equiv_pos_as_xyz
1 x,y,z
2 -x,1/2+y,1/2-z
3 -x,-y,-z
4 x,1/2-y,1/2+z
_cell_length_a                   10.8545(6)
_cell_length_b                   11.1988(4)
_cell_length_c                   10.9655(6)
_cell_angle_alpha                90
_cell_angle_beta                 117.846(7)
_cell_angle_gamma                90
_cell_volume                     1178.59
_exptl_crystal_colour            colorless
_exptl_crystal_description       block
_cell_formula_units_Z            4
loop_
_atom_site_label
_atom_site_type_symbol
_atom_site_fract_x
_atom_site_fract_y
_atom_site_fract_z
O1 O -1.25115(13) -0.16308(10) -0.64875(12)
O2 O -1.25091(16) 0.15559(12) -1.05449(13)
H1 H -1.178(3) 0.201(2) -1.018(3)
O3 O -0.98416(14) -0.19409(11) -0.57188(12)
H2 H -1.062(3) -0.211(2) -0.574(3)
O4 O -1.20870(13) -0.35856(10) -0.79147(13)
C1 C -1.3067(2) 0.19086(15) -0.86544(19)
H3 H -1.3524 0.2583 -0.9249
H4 H -1.2234 0.2201 -0.7868
C2 C -1.4038(2) 0.13732(16) -0.8152(2)
H5 H -1.4834 0.1032 -0.8939
H6 H -1.4381 0.2014 -0.7798
C3 C -1.3408(2) 0.04152(17) -0.7043(2)
H7 H -1.2827 0.0810 -0.6173
H8 H -1.4163 0.0031 -0.6954
C4 C -1.25509(17) -0.05452(14) -0.72475(16)
C5 C -1.11634(17) -0.01742(14) -0.71478(16)
H9 H -1.0699 0.0421 -0.6419
C6 C -1.13448(17) 0.02914(14) -0.85533(16)
H10 H -1.0540 0.0798 -0.8367
C7 C -1.26529(18) 0.10137(15) -0.94385(17)
H11 H -1.3421 0.0440 -0.9858
C8 C -1.1227(2) -0.08464(15) -0.93017(18)
H12 H -1.2072 -0.0961 -1.0163
H13 H -1.0447 -0.0778 -0.9499
C9 C -1.10057(17) -0.18946(14) -0.83227(16)
H14 H -1.0417 -0.2507 -0.8427
C10 C -1.02186(17) -0.12540(14) -0.69351(16)
H15 H -0.9352 -0.0949 -0.6889
C11 C -1.31609(18) -0.16715(14) -0.79763(16)
H16 H -1.4180 -0.1718 -0.8463
C12 C -1.23855(17) -0.24301(14) -0.85429(16)
H17 H -1.2984 -0.2532 -0.9536
C13 C -1.3254(2) -0.43236(19) -0.8335(2)
H18 H -1.3692 -0.4420 -0.9319
H19 H -1.3903 -0.3967 -0.8076
H20 H -1.2971 -0.5090 -0.7900
loop_
_geom_bond_atom_site_label_1
_geom_bond_atom_site_label_2
_geom_bond_site_symmetry_1
_geom_bond_site_symmetry_2
O1 C4 1_555 1_555
O2 H1 1_555 1_555
O3 H2 1_555 1_555
O4 C12 1_555 1_555
C1 H3 1_555 1_555
H4 C1 1_555 1_555
C2 C1 1_555 1_555
H5 C2 1_555 1_555
H6 C2 1_555 1_555
C3 C2 1_555 1_555
H7 C3 1_555 1_555
H8 C3 1_555 1_555
C4 C3 1_555 1_555
C5 C4 1_555 1_555
H9 C5 1_555 1_555
C6 C5 1_555 1_555
H10 C6 1_555 1_555
C7 O2 1_555 1_555
H11 C7 1_555 1_555
C8 C6 1_555 1_555
H12 C8 1_555 1_555
H13 C8 1_555 1_555
C9 C8 1_555 1_555
H14 C9 1_555 1_555
C10 O3 1_555 1_555
H15 C10 1_555 1_555
C11 O1 1_555 1_555
H16 C11 1_555 1_555
C12 C9 1_555 1_555
H17 C12 1_555 1_555
C13 O4 1_555 1_555
H18 C13 1_555 1_555
H19 C13 1_555 1_555
H20 C13 1_555 1_555
C1 C7 1_555 1_555
C4 C11 1_555 1_555
C5 C10 1_555 1_555
C6 C7 1_555 1_555
C9 C10 1_555 1_555
C11 C12 1_555 1_555

#END
