
#######################################################################
#
#                 Cambridge Crystallographic Data Centre
#                                CCDC 
#
#######################################################################
#
# If this CIF has been generated from an entry in the Cambridge 
# Structural Database, then it will include bibliographic, chemical, 
# crystal, experimental, refinement or atomic coordinate data resulting 
# from the CCDC's data processing and validation procedures.
#
#######################################################################

data_SIDCIU
_chemical_formula_moiety         'C24 H24 Br1 Cl1 F3 N1 O3'
_chemical_name_systematic        
'ethyl 5-(4-bromophenyl)-4-(4-chlorobenzene-1-carbonyl)-2-ethyl-3-methyl-3-(trifluoromethyl)prolinate'
_symmetry_cell_setting           orthorhombic
_symmetry_space_group_name_H-M   'P 21 21 21'
_symmetry_Int_Tables_number      19
_space_group_name_Hall           'P 2ac 2ab'
loop_
_symmetry_equiv_pos_site_id
_symmetry_equiv_pos_as_xyz
1 x,y,z
2 1/2-x,-y,1/2+z
3 -x,1/2+y,1/2-z
4 1/2+x,1/2-y,-z
_cell_length_a                   11.6781(4)
_cell_length_b                   13.5026(4)
_cell_length_c                   15.2910(5)
_cell_angle_alpha                90
_cell_angle_beta                 90
_cell_angle_gamma                90
_cell_volume                     2411.16
_exptl_crystal_colour            colorless
_exptl_crystal_description       block
_cell_formula_units_Z            4
loop_
_atom_site_label
_atom_site_type_symbol
_atom_site_fract_x
_atom_site_fract_y
_atom_site_fract_z
Br1 Br 0.92061(3) 0.37742(3) 0.74950(3)
Cl1 Cl 1.61731(11) 0.66304(8) 0.94215(11)
O1 O 1.34492(18) 0.23484(17) 0.99016(15)
O2 O 1.3694(2) -0.02601(19) 1.05728(16)
O3 O 1.53569(19) -0.09389(17) 1.01938(13)
F1 F 1.69821(16) 0.15848(15) 0.84013(14)
F2 F 1.59780(15) 0.06255(15) 0.76009(12)
F3 F 1.69612(16) 0.00249(16) 0.86609(14)
N1 N 1.32890(19) 0.04277(19) 0.89479(17)
H1 H 1.2650 0.0237 0.9172
C1 C 1.4159(3) 0.4306(3) 0.9812(3)
H2 H 1.3481 0.4172 1.0107
C2 C 1.4611(4) 0.5244(3) 0.9832(3)
H3 H 1.4233 0.5748 1.0130
C3 C 1.5616(3) 0.5432(3) 0.9411(3)
C4 C 1.6187(3) 0.4714(3) 0.8977(2)
H4 H 1.6880 0.4855 0.8704
C5 C 1.5738(3) 0.3776(2) 0.8939(2)
H5 H 1.6125 0.3283 0.8635
C6 C 1.4708(2) 0.3556(2) 0.9353(2)
C7 C 1.4181(2) 0.2551(2) 0.9360(2)
C8 C 1.4527(2) 0.1791(2) 0.86745(19)
H6 H 1.4923 0.2120 0.8190
C9 C 1.5296(2) 0.0944(2) 0.90546(18)
C10 C 1.4425(2) 0.0015(2) 0.91160(19)
C11 C 1.3460(2) 0.1225(2) 0.83260(19)
H7 H 1.3679 0.0921 0.7769
C12 C 1.2408(2) 0.1841(2) 0.8156(2)
C13 C 1.1329(2) 0.1569(2) 0.8433(2)
H8 H 1.1241 0.0989 0.8754
C14 C 1.0380(3) 0.2135(3) 0.8246(2)
H9 H 0.9660 0.1939 0.8439
C15 C 1.0503(3) 0.2991(2) 0.7772(2)
C16 C 1.1556(3) 0.3282(3) 0.7481(3)
H10 H 1.1637 0.3859 0.7154
C17 C 1.2499(3) 0.2708(3) 0.7678(3)
H11 H 1.3216 0.2909 0.7484
C18 C 1.5827(2) 0.1215(2) 0.99394(19)
H12 H 1.6335 0.1769 0.9866
H13 H 1.6249 0.0659 1.0162
H14 H 1.5231 0.1388 1.0344
C19 C 1.6294(3) 0.0789(3) 0.8425(2)
C20 C 1.4428(3) -0.0405(2) 1.0047(2)
C21 C 1.4637(3) -0.0856(2) 0.8481(2)
H15 H 1.4581 -0.0618 0.7884
H16 H 1.5406 -0.1108 0.8569
C22 C 1.3777(3) -0.1695(3) 0.8618(3)
H17 H 1.3933 -0.2219 0.8210
H18 H 1.3015 -0.1450 0.8525
H19 H 1.3843 -0.1943 0.9204
C23 C 1.5488(4) -0.1342(3) 1.1074(2)
H20 H 1.4950 -0.1022 1.1466
H21 H 1.5319 -0.2046 1.1068
C24 C 1.6599(5) -0.1192(5) 1.1374(4)
H22 H 1.6671 -0.1456 1.1955
H23 H 1.6763 -0.0496 1.1383
H24 H 1.7130 -0.1522 1.0993
loop_
_geom_bond_atom_site_label_1
_geom_bond_atom_site_label_2
_geom_bond_site_symmetry_1
_geom_bond_site_symmetry_2
Br1 C15 1_555 1_555
Cl1 C3 1_555 1_555
O1 C7 1_555 1_555
O2 C20 1_555 1_555
O3 C20 1_555 1_555
F1 C19 1_555 1_555
F2 C19 1_555 1_555
F3 C19 1_555 1_555
N1 H1 1_555 1_555
C1 H2 1_555 1_555
C2 C1 1_555 1_555
H3 C2 1_555 1_555
C3 C2 1_555 1_555
C4 C3 1_555 1_555
H4 C4 1_555 1_555
C5 C4 1_555 1_555
H5 C5 1_555 1_555
C6 C1 1_555 1_555
C7 C6 1_555 1_555
C8 C7 1_555 1_555
H6 C8 1_555 1_555
C9 C8 1_555 1_555
C10 N1 1_555 1_555
C11 N1 1_555 1_555
H7 C11 1_555 1_555
C12 C11 1_555 1_555
C13 C12 1_555 1_555
H8 C13 1_555 1_555
C14 C13 1_555 1_555
H9 C14 1_555 1_555
C15 C14 1_555 1_555
C16 C15 1_555 1_555
H10 C16 1_555 1_555
C17 C12 1_555 1_555
H11 C17 1_555 1_555
C18 C9 1_555 1_555
H12 C18 1_555 1_555
H13 C18 1_555 1_555
H14 C18 1_555 1_555
C19 C9 1_555 1_555
C20 C10 1_555 1_555
C21 C10 1_555 1_555
H15 C21 1_555 1_555
H16 C21 1_555 1_555
C22 C21 1_555 1_555
H17 C22 1_555 1_555
H18 C22 1_555 1_555
H19 C22 1_555 1_555
C23 O3 1_555 1_555
H20 C23 1_555 1_555
H21 C23 1_555 1_555
C24 C23 1_555 1_555
H22 C24 1_555 1_555
H23 C24 1_555 1_555
H24 C24 1_555 1_555
C5 C6 1_555 1_555
C8 C11 1_555 1_555
C9 C10 1_555 1_555
C16 C17 1_555 1_555

#END
