
#######################################################################
#
#                 Cambridge Crystallographic Data Centre
#                                CCDC 
#
#######################################################################
#
# If this CIF has been generated from an entry in the Cambridge 
# Structural Database, then it will include bibliographic, chemical, 
# crystal, experimental, refinement or atomic coordinate data resulting 
# from the CCDC's data processing and validation procedures.
#
#######################################################################

data_SIDCIT
_chemical_formula_moiety         'C19 H18 N2 O2'
_chemical_name_systematic        
'Ethyl 3-(1-(pyridin-2-ylmethyl)-1H-indol-2-yl)acrylate'
_symmetry_cell_setting           triclinic
_symmetry_space_group_name_H-M   'P -1'
_symmetry_Int_Tables_number      2
_space_group_name_Hall           '-P 1'
loop_
_symmetry_equiv_pos_site_id
_symmetry_equiv_pos_as_xyz
1 x,y,z
2 -x,-y,-z
_cell_length_a                   9.009(4)
_cell_length_b                   9.547(3)
_cell_length_c                   11.337(6)
_cell_angle_alpha                70.79(4)
_cell_angle_beta                 85.00(5)
_cell_angle_gamma                67.54(3)
_cell_volume                     850.114
_exptl_crystal_colour            colorless
_exptl_crystal_description       Prism
_cell_formula_units_Z            2
loop_
_atom_site_label
_atom_site_type_symbol
_atom_site_fract_x
_atom_site_fract_y
_atom_site_fract_z
O1 O -0.08728(19) 0.61145(19) 1.13126(15)
O2 O -0.28040(18) 0.82572(17) 1.16315(14)
N1 N 0.11965(19) 0.88101(19) 0.71094(15)
N2 N 0.5145(2) 0.5561(2) 0.7738(2)
C1 C 0.1221(2) 1.0115(2) 0.61036(19)
C2 C 0.2209(3) 1.0156(3) 0.5094(2)
H1 H 0.3034 0.9211 0.5017
C3 C 0.1941(3) 1.1630(3) 0.4207(2)
H2 H 0.2599 1.1703 0.3505
C4 C 0.0717(3) 1.3024(3) 0.4319(2)
H3 H 0.0552 1.4019 0.3686
C5 C -0.0237(3) 1.2979(3) 0.5314(2)
H4 H -0.1055 1.3934 0.5381
C6 C -0.0001(2) 1.1502(2) 0.62471(19)
C7 C -0.0736(2) 1.0997(2) 0.7386(2)
H5 H -0.1596 1.1671 0.7733
C8 C 0.0016(2) 0.9356(2) 0.78987(19)
C9 C -0.0289(2) 0.8288(3) 0.9035(2)
H6 H 0.0286 0.7174 0.9189
C10 C -0.1305(3) 0.8723(2) 0.9888(2)
H7 H -0.1865 0.9831 0.9771
C11 C -0.1594(3) 0.7550(3) 1.1008(2)
C12 C -0.3235(3) 0.7214(3) 1.2741(2)
H8 H -0.3401 0.6354 1.2532
H9 H -0.2352 0.6709 1.3389
C13 C -0.4671(4) 0.8120(4) 1.3208(4)
H10 H -0.4520 0.9004 1.3372
H11 H -0.4922 0.7429 1.3986
H12 H -0.5560 0.8551 1.2588
C14 C 0.2337(2) 0.7185(2) 0.7292(2)
H13 H 0.2526 0.7005 0.6471
H14 H 0.1858 0.6427 0.7824
C15 C 0.3937(2) 0.6821(2) 0.78909(19)
C16 C 0.4136(3) 0.7722(3) 0.8536(2)
H15 H 0.3184(17) 0.8579(18) 0.858(2)
C17 C 0.5617(3) 0.7307(3) 0.9080(2)
H16 H 0.5763 0.7924 0.9536
C18 C 0.6851(3) 0.6023(3) 0.8961(3)
H17 H 0.7882 0.5708 0.9334
C19 C 0.6587(3) 0.5188(3) 0.8292(3)
H18 H 0.7467 0.4283 0.8205
loop_
_geom_bond_atom_site_label_1
_geom_bond_atom_site_label_2
_geom_bond_site_symmetry_1
_geom_bond_site_symmetry_2
O1 C11 1_555 1_555
O2 C11 1_555 1_555
N1 C1 1_555 1_555
N2 C15 1_555 1_555
C1 C2 1_555 1_555
C2 H1 1_555 1_555
C3 C2 1_555 1_555
H2 C3 1_555 1_555
C4 C3 1_555 1_555
H3 C4 1_555 1_555
C5 C4 1_555 1_555
H4 C5 1_555 1_555
C6 C1 1_555 1_555
C7 C6 1_555 1_555
H5 C7 1_555 1_555
C8 N1 1_555 1_555
C9 C8 1_555 1_555
H6 C9 1_555 1_555
C10 C9 1_555 1_555
H7 C10 1_555 1_555
C11 C10 1_555 1_555
C12 O2 1_555 1_555
H8 C12 1_555 1_555
H9 C12 1_555 1_555
C13 C12 1_555 1_555
H10 C13 1_555 1_555
H11 C13 1_555 1_555
H12 C13 1_555 1_555
C14 N1 1_555 1_555
H13 C14 1_555 1_555
H14 C14 1_555 1_555
C15 C14 1_555 1_555
C16 C15 1_555 1_555
H15 C16 1_555 1_555
C17 C16 1_555 1_555
H16 C17 1_555 1_555
C18 C17 1_555 1_555
H17 C18 1_555 1_555
C19 N2 1_555 1_555
H18 C19 1_555 1_555
C5 C6 1_555 1_555
C7 C8 1_555 1_555
C18 C19 1_555 1_555

#END
