
#######################################################################
#
#                 Cambridge Crystallographic Data Centre
#                                CCDC 
#
#######################################################################
#
# If this CIF has been generated from an entry in the Cambridge 
# Structural Database, then it will include bibliographic, chemical, 
# crystal, experimental, refinement or atomic coordinate data resulting 
# from the CCDC's data processing and validation procedures.
#
#######################################################################

data_SIDCAM
_chemical_formula_moiety         'C22 H20 Br1 Cl1 F3 N1 O3'
_chemical_name_systematic        
'methyl 5-(4-bromophenyl)-4-(4-chlorobenzene-1-carbonyl)-2,3-dimethyl-3-(trifluoromethyl)prolinate'
_symmetry_cell_setting           monoclinic
_symmetry_space_group_name_H-M   'C 2'
_symmetry_Int_Tables_number      5
_space_group_name_Hall           'C 2y'
loop_
_symmetry_equiv_pos_site_id
_symmetry_equiv_pos_as_xyz
1 x,y,z
2 -x,y,-z
3 1/2+x,1/2+y,z
4 1/2-x,1/2+y,-z
_cell_length_a                   22.803(2)
_cell_length_b                   8.0763(8)
_cell_length_c                   13.3188(14)
_cell_angle_alpha                90
_cell_angle_beta                 117.960(3)
_cell_angle_gamma                90
_cell_volume                     2166.53
_exptl_crystal_colour            colorless
_exptl_crystal_description       block
_cell_formula_units_Z            4
loop_
_atom_site_label
_atom_site_type_symbol
_atom_site_fract_x
_atom_site_fract_y
_atom_site_fract_z
Br1 Br 0.06582(2) 0.13782(6) 0.17938(4)
Cl1 Cl 0.52098(6) 0.1481(2) 0.17248(10)
F1 F 0.33703(11) -0.4469(3) 0.47328(15)
F2 F 0.41193(12) -0.6335(3) 0.52169(18)
F3 F 0.42767(10) -0.3949(3) 0.46938(17)
O1 O 0.34021(14) -0.9260(3) 0.4185(2)
O2 O 0.26700(14) -0.7735(4) 0.4445(2)
O3 O 0.31125(15) -0.4754(4) 0.0671(2)
N1 N 0.23367(14) -0.5934(4) 0.2570(2)
H1 H 0.2013 -0.6097 0.2719
C1 C 0.19833(16) -0.3084(4) 0.1887(3)
C2 C 0.20278(18) -0.2411(5) 0.2887(3)
H2 H 0.2324 -0.2867 0.3584
C3 C 0.1642(2) -0.1090(5) 0.2860(3)
H3 H 0.1674 -0.0660 0.3532
C4 C 0.12064(18) -0.0405(5) 0.1831(3)
C5 C 0.11531(19) -0.1036(5) 0.0830(3)
H4 H 0.0856 -0.0574 0.0136
C6 C 0.15456(18) -0.2359(5) 0.0869(3)
H5 H 0.1515 -0.2774 0.0195
C7 C 0.23949(17) -0.4562(4) 0.1920(3)
H6 H 0.2241 -0.4941 0.1138
C8 C 0.31566(15) -0.4187(4) 0.2453(3)
H7 H 0.3258 -0.3194 0.2928
C9 C 0.35142(17) -0.5711(4) 0.3227(3)
C10 C 0.29161(18) -0.6983(4) 0.2926(3)
C11 C 0.33478(18) -0.3885(4) 0.1515(3)
C12 C 0.38088(18) -0.2511(5) 0.1603(3)
C13 C 0.38653(19) -0.2105(5) 0.0634(3)
H8 H 0.3610 -0.2665 -0.0044
C14 C 0.4297(2) -0.0881(5) 0.0676(4)
H9 H 0.4331 -0.0605 0.0027
C15 C 0.4674(2) -0.0073(5) 0.1678(4)
C16 C 0.46305(19) -0.0454(6) 0.2654(4)
H10 H 0.4893 0.0099 0.3331
C17 C 0.41956(19) -0.1658(5) 0.2610(3)
H11 H 0.4158 -0.1909 0.3259
C18 C 0.2827(2) -0.8152(5) 0.1966(3)
H12 H 0.2467 -0.8898 0.1811
H13 H 0.3228 -0.8773 0.2187
H14 H 0.2730 -0.7520 0.1296
C19 C 0.4094(2) -0.6433(6) 0.3081(4)
H15 H 0.4432 -0.5606 0.3272
H16 H 0.3937 -0.6772 0.2306
H17 H 0.4276 -0.7372 0.3573
C20 C 0.2975(2) -0.8011(4) 0.3946(3)
C21 C 0.3507(2) -1.0204(6) 0.5178(3)
H18 H 0.3815 -1.1086 0.5293
H19 H 0.3093 -1.0660 0.5068
H20 H 0.3685 -0.9493 0.5832
C22 C 0.3809(2) -0.5130(5) 0.4461(3)
loop_
_geom_bond_atom_site_label_1
_geom_bond_atom_site_label_2
_geom_bond_site_symmetry_1
_geom_bond_site_symmetry_2
Br1 C4 1_555 1_555
Cl1 C15 1_555 1_555
F1 C22 1_555 1_555
F2 C22 1_555 1_555
F3 C22 1_555 1_555
O1 C20 1_555 1_555
O2 C20 1_555 1_555
O3 C11 1_555 1_555
N1 H1 1_555 1_555
C1 C2 1_555 1_555
C2 H2 1_555 1_555
C3 C2 1_555 1_555
H3 C3 1_555 1_555
C4 C3 1_555 1_555
C5 C4 1_555 1_555
H4 C5 1_555 1_555
C6 C1 1_555 1_555
H5 C6 1_555 1_555
C7 N1 1_555 1_555
H6 C7 1_555 1_555
C8 C7 1_555 1_555
H7 C8 1_555 1_555
C9 C8 1_555 1_555
C10 N1 1_555 1_555
C11 C8 1_555 1_555
C12 C11 1_555 1_555
C13 C12 1_555 1_555
H8 C13 1_555 1_555
C14 C13 1_555 1_555
H9 C14 1_555 1_555
C15 C14 1_555 1_555
C16 C15 1_555 1_555
H10 C16 1_555 1_555
C17 C12 1_555 1_555
H11 C17 1_555 1_555
C18 C10 1_555 1_555
H12 C18 1_555 1_555
H13 C18 1_555 1_555
H14 C18 1_555 1_555
C19 C9 1_555 1_555
H15 C19 1_555 1_555
H16 C19 1_555 1_555
H17 C19 1_555 1_555
C20 C10 1_555 1_555
C21 O1 1_555 1_555
H18 C21 1_555 1_555
H19 C21 1_555 1_555
H20 C21 1_555 1_555
C22 C9 1_555 1_555
C1 C7 1_555 1_555
C5 C6 1_555 1_555
C9 C10 1_555 1_555
C16 C17 1_555 1_555

#END
