
#######################################################################
#
#                 Cambridge Crystallographic Data Centre
#                                CCDC 
#
#######################################################################
#
# If this CIF has been generated from an entry in the Cambridge 
# Structural Database, then it will include bibliographic, chemical, 
# crystal, experimental, refinement or atomic coordinate data resulting 
# from the CCDC's data processing and validation procedures.
#
#######################################################################

data_SIDDOB
_chemical_formula_moiety         'C17 H8 F6 O2'
_chemical_name_systematic        
4-phenyl-3,6-bis(trifluoromethyl)-2H-1-benzopyran-2-one
_symmetry_cell_setting           monoclinic
_symmetry_space_group_name_H-M   'P 21/c'
_symmetry_Int_Tables_number      14
_space_group_name_Hall           '-P 2ybc'
loop_
_symmetry_equiv_pos_site_id
_symmetry_equiv_pos_as_xyz
1 x,y,z
2 -x,1/2+y,1/2-z
3 -x,-y,-z
4 x,1/2-y,1/2+z
_cell_length_a                   7.2348(3)
_cell_length_b                   35.4035(14)
_cell_length_c                   12.1571(5)
_cell_angle_alpha                90
_cell_angle_beta                 90.375(4)
_cell_angle_gamma                90
_cell_volume                     3113.82
_exptl_crystal_colour            colorless
_exptl_crystal_description       prism
_cell_formula_units_Z            8
loop_
_atom_site_label
_atom_site_type_symbol
_atom_site_fract_x
_atom_site_fract_y
_atom_site_fract_z
F1 F 0.5869(8) 0.32504(12) 0.5403(7)
F2 F 0.6233(6) 0.35029(17) 0.3936(4)
F3 F 0.7828(5) 0.36529(14) 0.5198(5)
F4 F -0.3687(4) 0.45488(13) 0.7285(3)
F5 F -0.2735(5) 0.40361(10) 0.7931(4)
F6 F -0.2024(4) 0.45502(12) 0.8681(3)
O1 O 0.4044(4) 0.45235(8) 0.5084(2)
O2 O 0.6438(6) 0.42997(12) 0.4215(4)
C1 C 0.5164(6) 0.42330(14) 0.4800(3)
C2 C 0.4774(5) 0.38626(11) 0.5281(3)
C3 C 0.6144(7) 0.35635(16) 0.4997(4)
C4 C 0.3305(4) 0.38045(9) 0.5940(3)
C5 C 0.2108(4) 0.41238(9) 0.6169(3)
C6 C 0.0521(4) 0.40975(9) 0.6814(3)
H1 H 0.0180 0.3865 0.7107
C7 C -0.0549(5) 0.44135(10) 0.7020(3)
C8 C -0.0057(6) 0.47631(10) 0.6594(3)
H2 H -0.0773 0.4975 0.6745
C9 C 0.1479(6) 0.47963(10) 0.5953(3)
H3 H 0.1813 0.5030 0.5665
C10 C 0.2541(5) 0.44760(10) 0.5737(3)
C11 C 0.2868(5) 0.34407(9) 0.6492(3)
C12 C 0.1753(7) 0.31728(13) 0.6007(5)
H4 H 0.1281 0.3213 0.5303
C13 C 0.1330(9) 0.28410(15) 0.6574(6)
H5 H 0.0584 0.2660 0.6240
C14 C 0.1991(9) 0.27794(15) 0.7605(7)
H6 H 0.1724 0.2555 0.7969
C15 C 0.3039(9) 0.30461(16) 0.8098(5)
H7 H 0.3468 0.3008 0.8812
C16 C 0.3483(7) 0.33775(13) 0.7543(4)
H8 H 0.4209 0.3559 0.7892
C17 C -0.2210(6) 0.43823(12) 0.7725(4)
F7 F 1.0927(8) 0.32296(17) 0.3228(4)
F8 F 1.1286(6) 0.31463(12) 0.1586(4)
F9 F 1.2905(5) 0.35179(13) 0.2363(5)
F10 F 0.3015(5) 0.44062(11) -0.1137(2)
F11 F 0.2049(5) 0.39412(10) -0.0277(3)
F12 F 0.1369(5) 0.44741(15) 0.0250(4)
O3 O 0.9115(4) 0.43691(7) 0.2448(2)
O4 O 1.1424(5) 0.41240(12) 0.3357(3)
C18 C 1.0215(6) 0.40687(12) 0.2706(3)
C19 C 0.9847(5) 0.37119(11) 0.2129(3)
C20 C 1.1194(7) 0.34036(15) 0.2356(4)
C21 C 0.8350(5) 0.36702(9) 0.1473(3)
C22 C 0.7125(4) 0.39895(9) 0.1308(2)
C23 C 0.5520(5) 0.39754(9) 0.0667(3)
H9 H 0.5192 0.3752 0.0314
C24 C 0.4416(5) 0.42909(11) 0.0555(3)
C25 C 0.4919(6) 0.46292(11) 0.1054(3)
H10 H 0.4186 0.4843 0.0959
C26 C 0.6477(7) 0.46488(11) 0.1681(3)
H11 H 0.6801 0.4874 0.2024
C27 C 0.7572(5) 0.43345(10) 0.1807(3)
C28 C 0.7853(5) 0.33093(9) 0.0894(3)
C29 C 0.8318(7) 0.32588(13) -0.0188(4)
H12 H 0.8965 0.3446 -0.0560
C30 C 0.7820(9) 0.29279(17) -0.0726(5)
H13 H 0.8135 0.2893 -0.1460
C31 C 0.6873(8) 0.26550(15) -0.0183(6)
H14 H 0.6563 0.2432 -0.0544
C32 C 0.6384(8) 0.27041(13) 0.0865(5)
H15 H 0.5717 0.2517 0.1223
C33 C 0.6857(7) 0.30294(12) 0.1422(4)
H16 H 0.6508 0.3061 0.2151
C34 C 0.2736(6) 0.42801(13) -0.0141(4)
loop_
_geom_bond_atom_site_label_1
_geom_bond_atom_site_label_2
_geom_bond_site_symmetry_1
_geom_bond_site_symmetry_2
F1 C3 1_555 1_555
F2 C3 1_555 1_555
F3 C3 1_555 1_555
F4 C17 1_555 1_555
F5 C17 1_555 1_555
F6 C17 1_555 1_555
O1 C1 1_555 1_555
O2 C1 1_555 1_555
C1 C2 1_555 1_555
C2 C3 1_555 1_555
C4 C2 1_555 1_555
C5 C4 1_555 1_555
C6 C5 1_555 1_555
H1 C6 1_555 1_555
C7 C6 1_555 1_555
C8 C7 1_555 1_555
H2 C8 1_555 1_555
C9 C8 1_555 1_555
H3 C9 1_555 1_555
C10 O1 1_555 1_555
C11 C4 1_555 1_555
C12 C11 1_555 1_555
H4 C12 1_555 1_555
C13 C12 1_555 1_555
H5 C13 1_555 1_555
C14 C13 1_555 1_555
H6 C14 1_555 1_555
C15 C14 1_555 1_555
H7 C15 1_555 1_555
C16 C11 1_555 1_555
H8 C16 1_555 1_555
C17 C7 1_555 1_555
F7 C20 1_555 1_555
F8 C20 1_555 1_555
F9 C20 1_555 1_555
F10 C34 1_555 1_555
F11 C34 1_555 1_555
F12 C34 1_555 1_555
O3 C18 1_555 1_555
O4 C18 1_555 1_555
C18 C19 1_555 1_555
C19 C20 1_555 1_555
C21 C19 1_555 1_555
C22 C21 1_555 1_555
C23 C22 1_555 1_555
H9 C23 1_555 1_555
C24 C23 1_555 1_555
C25 C24 1_555 1_555
H10 C25 1_555 1_555
C26 C25 1_555 1_555
H11 C26 1_555 1_555
C27 O3 1_555 1_555
C28 C21 1_555 1_555
C29 C28 1_555 1_555
H12 C29 1_555 1_555
C30 C29 1_555 1_555
H13 C30 1_555 1_555
C31 C30 1_555 1_555
H14 C31 1_555 1_555
C32 C31 1_555 1_555
H15 C32 1_555 1_555
C33 C28 1_555 1_555
H16 C33 1_555 1_555
C34 C24 1_555 1_555
C5 C10 1_555 1_555
C9 C10 1_555 1_555
C15 C16 1_555 1_555
C22 C27 1_555 1_555
C26 C27 1_555 1_555
C32 C33 1_555 1_555

#END
