
#######################################################################
#
#                 Cambridge Crystallographic Data Centre
#                                CCDC 
#
#######################################################################
#
# If this CIF has been generated from an entry in the Cambridge 
# Structural Database, then it will include bibliographic, chemical, 
# crystal, experimental, refinement or atomic coordinate data resulting 
# from the CCDC's data processing and validation procedures.
#
#######################################################################

data_SIDDAN
_chemical_compound_source        'leaves of Cleistocalyx operculatus'
_chemical_name_common            'cleistoperlone A'
_chemical_formula_moiety         'C36 H34 O8'
_chemical_name_systematic        
4,9-dihydroxy-11-methoxy-6,6,7a,12-tetramethyl-2-phenyl-10-(3-phenylacryloyl)-7a,8-dihydro-2H-pyrano[3,2-d]xanthene-5,7(3H,6H)-dione
_chemical_properties_biological  
'promising in vitro antiherpes simplex virus type-1 (HSV-1) effect'
_symmetry_cell_setting           monoclinic
_symmetry_space_group_name_H-M   'C 2/c'
_symmetry_Int_Tables_number      15
_space_group_name_Hall           '-C 2yn'
loop_
_symmetry_equiv_pos_site_id
_symmetry_equiv_pos_as_xyz
1 x,y,z
2 -x,y,1/2-z
3 1/2+x,1/2+y,z
4 1/2-x,1/2+y,1/2-z
5 -x,-y,-z
6 x,-y,1/2+z
7 1/2-x,1/2-y,-z
8 1/2+x,1/2-y,1/2+z
_cell_length_a                   24.7977(3)
_cell_length_b                   13.25910(16)
_cell_length_c                   18.0031(2)
_cell_angle_alpha                90
_cell_angle_beta                 96.1889(11)
_cell_angle_gamma                90
_cell_volume                     5884.83
_exptl_crystal_colour            yellow
_exptl_crystal_description       block
_cell_formula_units_Z            8
loop_
_atom_site_label
_atom_site_type_symbol
_atom_site_fract_x
_atom_site_fract_y
_atom_site_fract_z
O1 O 0.61581(3) 0.59831(6) 0.75923(4)
O2 O 0.77234(3) 0.56487(6) 0.63481(4)
O3 O 0.67569(3) 0.26921(6) 0.68511(5)
H1 H 0.650857 0.249997 0.708224
O4 O 0.59965(4) 0.28171(7) 0.76214(6)
O5 O 0.84775(3) 0.46360(6) 0.67221(4)
O6 O 0.71236(3) 0.41293(7) 0.47697(5)
O7 O 0.84463(4) 0.66455(7) 0.45274(5)
O8 O 0.92232(3) 0.67573(7) 0.55404(5)
H2 H 0.904613 0.687239 0.513801
C1 C 0.65231(4) 0.53525(8) 0.72919(6)
C2 C 0.69489(4) 0.58016(8) 0.69811(6)
C3 C 0.73057(4) 0.51605(8) 0.66442(6)
C4 C 0.72364(4) 0.41299(8) 0.65817(6)
C5 C 0.68066(4) 0.36985(8) 0.69133(6)
C6 C 0.64410(4) 0.42899(8) 0.72895(6)
C7 C 0.60129(5) 0.37621(9) 0.76396(7)
C8 C 0.55967(5) 0.42855(9) 0.80194(7)
H3 H 0.553013 0.496674 0.792693
C9 C 0.53144(5) 0.37940(10) 0.84943(7)
H4 H 0.540240 0.311954 0.858226
C10 C 0.48798(5) 0.42088(10) 0.88914(7)
C11 C 0.47683(5) 0.52354(10) 0.89192(7)
H5 H 0.498053 0.569038 0.868582
C12 C 0.43448(6) 0.55880(11) 0.92905(8)
H6 H 0.427549 0.627655 0.930671
C13 C 0.40252(5) 0.49200(12) 0.96367(8)
H7 H 0.373916 0.515809 0.988172
C14 C 0.41307(5) 0.38988(12) 0.96186(8)
H8 H 0.391509 0.344855 0.985069
C15 C 0.45575(5) 0.35437(11) 0.92549(7)
H9 H 0.463052 0.285585 0.925249
C16 C 0.70315(5) 0.69244(8) 0.69709(7)
H10 H 0.735687 0.709509 0.728390
H11 H 0.672730 0.725380 0.715368
H12 H 0.706311 0.714140 0.646874
C17 C 0.75998(4) 0.34930(8) 0.61560(6)
H13 H 0.738236 0.300368 0.585575
H14 H 0.785310 0.312706 0.650555
C18 C 0.63194(5) 0.62530(10) 0.83519(7)
H15 H 0.667326 0.655473 0.839068
H16 H 0.632919 0.566005 0.865907
H17 H 0.606421 0.672568 0.851660
C19 C 0.81595(4) 0.50377(8) 0.61044(6)
C20 C 0.79148(4) 0.41410(8) 0.56485(6)
C21 C 0.75412(4) 0.45600(8) 0.49869(6)
C22 C 0.77065(5) 0.55024(9) 0.45632(6)
C23 C 0.82241(5) 0.59970(9) 0.49191(6)
C24 C 0.84566(4) 0.57480(8) 0.56460(6)
C25 C 0.89620(5) 0.61287(8) 0.59178(6)
C26 C 0.92345(4) 0.57741(9) 0.66507(6)
H18 H 0.942915 0.633147 0.690489
H19 H 0.949584 0.525355 0.656619
C27 C 0.88230(4) 0.53553(8) 0.71444(6)
H20 H 0.860254 0.590748 0.731127
C28 C 0.91060(5) 0.48160(10) 0.78135(6)
C29 C 0.92375(5) 0.53344(11) 0.84785(7)
H21 H 0.913107 0.600298 0.851907
C30 C 0.95264(6) 0.48612(14) 0.90819(8)
H22 H 0.961143 0.521185 0.952653
C31 C 0.96888(6) 0.38680(14) 0.90249(8)
H23 H 0.988763 0.355420 0.942771
C32 C 0.95555(7) 0.33483(13) 0.83721(9)
H24 H 0.966007 0.267818 0.833509
C33 C 0.92647(6) 0.38195(11) 0.77654(8)
H25 H 0.917618 0.346264 0.732440
C34 C 0.83586(5) 0.35134(9) 0.53275(7)
H26 H 0.851557 0.390036 0.495473
H27 H 0.820160 0.290792 0.510596
H28 H 0.863508 0.334084 0.572191
C35 C 0.72409(5) 0.62772(10) 0.45415(8)
H29 H 0.691545 0.598605 0.429394
H30 H 0.733523 0.686721 0.427463
H31 H 0.718244 0.646063 0.504240
C36 C 0.77837(5) 0.51780(11) 0.37571(7)
H32 H 0.805984 0.466897 0.376997
H33 H 0.789046 0.575123 0.348191
H34 H 0.744870 0.491221 0.351868
loop_
_geom_bond_atom_site_label_1
_geom_bond_atom_site_label_2
_geom_bond_site_symmetry_1
_geom_bond_site_symmetry_2
O1 C1 1_555 1_555
O2 C3 1_555 1_555
O3 H1 1_555 1_555
O4 C7 1_555 1_555
O5 C19 1_555 1_555
O6 C21 1_555 1_555
O7 C23 1_555 1_555
O8 H2 1_555 1_555
C1 C2 1_555 1_555
C2 C3 1_555 1_555
C3 C4 1_555 1_555
C4 C5 1_555 1_555
C5 O3 1_555 1_555
C6 C1 1_555 1_555
C7 C6 1_555 1_555
C8 C7 1_555 1_555
H3 C8 1_555 1_555
C9 C8 1_555 1_555
H4 C9 1_555 1_555
C10 C9 1_555 1_555
C11 C10 1_555 1_555
H5 C11 1_555 1_555
C12 C11 1_555 1_555
H6 C12 1_555 1_555
C13 C12 1_555 1_555
H7 C13 1_555 1_555
C14 C13 1_555 1_555
H8 C14 1_555 1_555
C15 C10 1_555 1_555
H9 C15 1_555 1_555
C16 C2 1_555 1_555
H10 C16 1_555 1_555
H11 C16 1_555 1_555
H12 C16 1_555 1_555
C17 C4 1_555 1_555
H13 C17 1_555 1_555
H14 C17 1_555 1_555
C18 O1 1_555 1_555
H15 C18 1_555 1_555
H16 C18 1_555 1_555
H17 C18 1_555 1_555
C19 O2 1_555 1_555
C20 C17 1_555 1_555
C21 C20 1_555 1_555
C22 C21 1_555 1_555
C23 C22 1_555 1_555
C24 C19 1_555 1_555
C25 O8 1_555 1_555
C26 C25 1_555 1_555
H18 C26 1_555 1_555
H19 C26 1_555 1_555
C27 O5 1_555 1_555
H20 C27 1_555 1_555
C28 C27 1_555 1_555
C29 C28 1_555 1_555
H21 C29 1_555 1_555
C30 C29 1_555 1_555
H22 C30 1_555 1_555
C31 C30 1_555 1_555
H23 C31 1_555 1_555
C32 C31 1_555 1_555
H24 C32 1_555 1_555
C33 C28 1_555 1_555
H25 C33 1_555 1_555
C34 C20 1_555 1_555
H26 C34 1_555 1_555
H27 C34 1_555 1_555
H28 C34 1_555 1_555
C35 C22 1_555 1_555
H29 C35 1_555 1_555
H30 C35 1_555 1_555
H31 C35 1_555 1_555
C36 C22 1_555 1_555
H32 C36 1_555 1_555
H33 C36 1_555 1_555
H34 C36 1_555 1_555
C5 C6 1_555 1_555
C14 C15 1_555 1_555
C19 C20 1_555 1_555
C23 C24 1_555 1_555
C24 C25 1_555 1_555
C26 C27 1_555 1_555
C32 C33 1_555 1_555

#END
