
#######################################################################
#
#                 Cambridge Crystallographic Data Centre
#                                CCDC 
#
#######################################################################
#
# If this CIF has been generated from an entry in the Cambridge 
# Structural Database, then it will include bibliographic, chemical, 
# crystal, experimental, refinement or atomic coordinate data resulting 
# from the CCDC's data processing and validation procedures.
#
#######################################################################

data_SIDFAO
_chemical_formula_moiety         'C23 H21 Br1 N2 O2'
_chemical_name_systematic        
2-(4-Benzyl-3,4-dihydro-2H-1,4-benzoxazin-2-yl)-1-(4-bromophenyl)-N-hydroxyethanimine
_symmetry_cell_setting           triclinic
_symmetry_space_group_name_H-M   'P -1'
_symmetry_Int_Tables_number      2
_space_group_name_Hall           '-P 1'
loop_
_symmetry_equiv_pos_site_id
_symmetry_equiv_pos_as_xyz
1 x,y,z
2 -x,-y,-z
_cell_length_a                   5.1604(7)
_cell_length_b                   13.8657(19)
_cell_length_c                   14.351(2)
_cell_angle_alpha                104.433(3)
_cell_angle_beta                 90.414(3)
_cell_angle_gamma                95.735(3)
_cell_volume                     988.915
_exptl_crystal_colour            colorless
_exptl_crystal_description       prismatic
_cell_formula_units_Z            2
loop_
_atom_site_label
_atom_site_type_symbol
_atom_site_fract_x
_atom_site_fract_y
_atom_site_fract_z
Br1 Br 0.5294(2) 0.87302(8) 0.44594(9)
N1 N 1.3544(13) 0.5148(5) 0.4144(5)
O1 O 1.5081(13) 0.4360(4) 0.3896(4)
H1 H 1.5940 0.4335 0.4371
O2 O 0.949(2) 0.4639(9) 0.1373(8)
N2 N 0.837(3) 0.2640(12) 0.1583(13)
C1 C 1.114(4) 0.4098(10) 0.1781(12)
H2 H 1.2165 0.3745 0.1255
C2 C 0.715(4) 0.2965(17) 0.0852(17)
C3 C 0.776(3) 0.3937(15) 0.0739(12)
C4 C 0.661(3) 0.4254(14) 0.0010(12)
H3 H 0.7079 0.4889 -0.0081
C5 C 0.473(4) 0.3593(16) -0.0582(13)
H4 H 0.3827 0.3820 -0.1035
C6 C 0.416(4) 0.2650(19) -0.0533(15)
H5 H 0.2916 0.2226 -0.0956
C7 C 0.542(3) 0.2311(12) 0.0152(11)
H6 H 0.5122 0.1639 0.0155
C8 C 0.692(3) 0.1915(12) 0.2024(11)
H7 H 0.5443 0.1589 0.1600
H8 H 0.6231 0.2278 0.2623
C9 C 1.2528(14) 0.5375(5) 0.3424(5)
C10 C 1.2981(16) 0.4872(6) 0.2419(6)
H9 H 1.4598 0.4573 0.2430
H10 H 1.3329 0.5400 0.2089
C11 C 0.9971(17) 0.3302(7) 0.2298(7)
H11 H 1.1327 0.2965 0.2517
H12 H 0.8972 0.3604 0.2844
C12 C 1.0755(15) 0.6180(6) 0.3677(6)
C13 C 0.9754(17) 0.6454(7) 0.4575(6)
H13 H 1.0171 0.6120 0.5034
C14 C 0.8134(19) 0.7215(7) 0.4820(7)
H14 H 0.7493 0.7394 0.5436
C15 C 0.7500(16) 0.7694(6) 0.4143(7)
C16 C 0.8443(19) 0.7444(7) 0.3246(7)
H15 H 0.8012 0.7786 0.2795
C17 C 1.0054(18) 0.6678(6) 0.2996(6)
H16 H 1.0664 0.6499 0.2375
C18 C 0.851(2) 0.1080(7) 0.2245(8)
C19 C 0.963(3) 0.0597(10) 0.1439(9)
H17 H 0.9385 0.0780 0.0866
C20 C 1.113(3) -0.0168(10) 0.1459(12)
H18 H 1.1794 -0.0525 0.0890
C21 C 1.162(3) -0.0398(9) 0.2264(11)
H19 H 1.2706 -0.0892 0.2275
C22 C 1.057(3) 0.0078(10) 0.3070(10)
H20 H 1.0934 -0.0091 0.3641
C23 C 0.897(2) 0.0807(8) 0.3082(8)
H21 H 0.8211 0.1115 0.3650
C24? C 1.015(3) 0.4297(11) 0.2088(15)
H22? H 0.8721 0.4689 0.2351
H23? H 1.3482 0.5343 0.2060
H24? H 1.4289 0.4419 0.2390
N3? N 0.739(3) 0.2647(13) 0.1958(11)
C25? C 0.536(4) 0.2780(16) -0.0866(15)
H25? H 0.4900 0.2817 -0.1483
C26? C 0.467(3) 0.2006(10) 0.0471(9)
H26? H 0.3709 0.1533 0.0725
C27? C 0.649(3) 0.1855(10) 0.2418(9)
H27? H 0.4800 0.1537 0.2147
H28? H 0.6326 0.2132 0.3103
O3? O 1.009(2) 0.3999(10) 0.1060(8)
C28? C 0.734(4) 0.3404(14) -0.0314(12)
H29? H 0.8271 0.3887 -0.0562
C29? C 0.409(4) 0.2091(16) -0.0422(14)
H30? H 0.2739 0.1651 -0.0769
C30? C 0.674(4) 0.2642(15) 0.1017(14)
C31? C 0.796(4) 0.3330(17) 0.0587(13)
H31? H 1.1371 0.2948 0.1975
H32? H 1.0183 0.3414 0.2965
loop_
_geom_bond_atom_site_label_1
_geom_bond_atom_site_label_2
_geom_bond_site_symmetry_1
_geom_bond_site_symmetry_2
Br1 C15 1_555 1_555
N1 O1 1_555 1_555
O1 H1 1_555 1_555
O2 C1 1_555 1_555
N2 C2 1_555 1_555
C1 H2 1_555 1_555
C2 C3 1_555 1_555
C3 O2 1_555 1_555
C4 C3 1_555 1_555
H3 C4 1_555 1_555
C5 C4 1_555 1_555
H4 C5 1_555 1_555
C6 C5 1_555 1_555
H5 C6 1_555 1_555
C7 C2 1_555 1_555
H6 C7 1_555 1_555
C8 N2 1_555 1_555
H7 C8 1_555 1_555
H8 C8 1_555 1_555
C9 N1 1_555 1_555
C10 C1 1_555 1_555
H9 C10 1_555 1_555
H10 C10 1_555 1_555
C11 N2 1_555 1_555
H11 C11 1_555 1_555
H12 C11 1_555 1_555
C12 C9 1_555 1_555
C13 C12 1_555 1_555
H13 C13 1_555 1_555
C14 C13 1_555 1_555
H14 C14 1_555 1_555
C15 C14 1_555 1_555
C16 C15 1_555 1_555
H15 C16 1_555 1_555
C17 C12 1_555 1_555
H16 C17 1_555 1_555
C18 C8 1_555 1_555
C19 C18 1_555 1_555
H17 C19 1_555 1_555
C20 C19 1_555 1_555
H18 C20 1_555 1_555
C21 C20 1_555 1_555
H19 C21 1_555 1_555
C22 C21 1_555 1_555
H20 C22 1_555 1_555
C23 C18 1_555 1_555
H21 C23 1_555 1_555
C1 C11 1_555 1_555
C6 C7 1_555 1_555
C9 C10 1_555 1_555
C16 C17 1_555 1_555
C22 C23 1_555 1_555

#END
