
#######################################################################
#
#                 Cambridge Crystallographic Data Centre
#                                CCDC 
#
#######################################################################
#
# If this CIF has been generated from an entry in the Cambridge 
# Structural Database, then it will include bibliographic, chemical, 
# crystal, experimental, refinement or atomic coordinate data resulting 
# from the CCDC's data processing and validation procedures.
#
#######################################################################

data_SIDFOC
_chemical_formula_moiety         'C15 H13 Br1 O3'
_chemical_name_systematic        
2-(4-Bromophenyl)-7-methoxy-6,7-dihydro-1-benzofuran-4(5H)-one
_symmetry_cell_setting           monoclinic
_symmetry_space_group_name_H-M   'C c'
_symmetry_Int_Tables_number      9
_space_group_name_Hall           'C -2yc'
loop_
_symmetry_equiv_pos_site_id
_symmetry_equiv_pos_as_xyz
1 x,y,z
2 x,-y,1/2+z
3 1/2+x,1/2+y,z
4 1/2+x,1/2-y,1/2+z
_cell_length_a                   13.420(2)
_cell_length_b                   13.721(3)
_cell_length_c                   7.3447(13)
_cell_angle_alpha                90
_cell_angle_beta                 102.624(3)
_cell_angle_gamma                90
_cell_volume                     1319.73
_exptl_crystal_colour            colorless
_cell_formula_units_Z            4
loop_
_atom_site_label
_atom_site_type_symbol
_atom_site_fract_x
_atom_site_fract_y
_atom_site_fract_z
Br1 Br 1.00630(3) -0.10747(2) 0.75037(4)
O1 O 0.5432(2) 0.0733(2) 0.3071(3)
C1 C 0.5686(3) -0.0254(3) 0.3242(4)
C2 C 0.4866(2) -0.0783(2) 0.2395(6)
H1 H 0.4830 -0.1474 0.2308
C3 C 0.4061(3) -0.0112(3) 0.1651(5)
C4 C 0.3008(3) -0.0235(3) 0.0674(5)
O2 O 0.2621(2) -0.10336(18) 0.0209(4)
C5 C 0.2390(3) 0.0679(3) 0.0355(5)
H2 H 0.2038 0.0760 0.1399
H3 H 0.1856 0.0600 -0.0802
C6 C 0.2979(3) 0.1605(3) 0.0188(6)
H4 H 0.2518 0.2169 0.0188
H5 H 0.3181 0.1599 -0.1030
C7 C 0.3936(3) 0.1757(3) 0.1730(7)
H6 H 0.3741 0.2002 0.2887
O3 O 0.4539(2) 0.24607(16) 0.1057(3)
C8 C 0.5319(5) 0.2897(7) 0.2481(15)
H7 H 0.5699 0.3377 0.1912
H8 H 0.5788 0.2391 0.3100
H9 H 0.5003 0.3222 0.3401
C9 C 0.4466(3) 0.0789(3) 0.2107(4)
C10 C 0.6715(3) -0.0454(2) 0.4250(5)
C11 C 0.7412(3) 0.0290(2) 0.4788(4)
H10 H 0.7200 0.0943 0.4500
C12 C 0.8409(3) 0.0120(2) 0.5731(4)
H11 H 0.8878 0.0642 0.6072
C13 C 0.8698(3) -0.0835(3) 0.6160(4)
C14 C 0.8028(3) -0.1594(2) 0.5661(4)
H12 H 0.8241 -0.2244 0.5972
C15 C 0.7046(3) -0.1408(2) 0.4709(4)
H13 H 0.6585 -0.1935 0.4357
C16? C 0.2818(17) 0.1661(15) 0.119(5)
H14? H 0.2497 0.2192 0.0350
H15? H 0.2629 0.1753 0.2405
C17? C 0.3969(19) 0.1741(13) 0.147(6)
H16? H 0.4138 0.1919 0.0248
O4? O 0.4300(16) 0.2498(14) 0.275(3)
C18? C 0.520(5) 0.298(6) 0.237(12)
H17? H 0.5365 0.3548 0.3182
H18? H 0.5061 0.3183 0.1063
H19? H 0.5776 0.2522 0.2614
loop_
_geom_bond_atom_site_label_1
_geom_bond_atom_site_label_2
_geom_bond_site_symmetry_1
_geom_bond_site_symmetry_2
Br1 C13 1_555 1_555
O1 C1 1_555 1_555
C1 C2 1_555 1_555
C2 H1 1_555 1_555
C3 C2 1_555 1_555
C4 C3 1_555 1_555
O2 C4 1_555 1_555
C5 C4 1_555 1_555
H2 C5 1_555 1_555
H3 C5 1_555 1_555
C6 C5 1_555 1_555
H4 C6 1_555 1_555
H5 C6 1_555 1_555
C7 C6 1_555 1_555
H6 C7 1_555 1_555
O3 C7 1_555 1_555
C8 O3 1_555 1_555
H7 C8 1_555 1_555
H8 C8 1_555 1_555
H9 C8 1_555 1_555
C9 O1 1_555 1_555
C10 C1 1_555 1_555
C11 C10 1_555 1_555
H10 C11 1_555 1_555
C12 C11 1_555 1_555
H11 C12 1_555 1_555
C13 C12 1_555 1_555
C14 C13 1_555 1_555
H12 C14 1_555 1_555
C15 C10 1_555 1_555
H13 C15 1_555 1_555
C3 C9 1_555 1_555
C7 C9 1_555 1_555
C14 C15 1_555 1_555

#END
