
#######################################################################
#
#                 Cambridge Crystallographic Data Centre
#                                CCDC 
#
#######################################################################
#
# If this CIF has been generated from an entry in the Cambridge 
# Structural Database, then it will include bibliographic, chemical, 
# crystal, experimental, refinement or atomic coordinate data resulting 
# from the CCDC's data processing and validation procedures.
#
#######################################################################

data_SIDGIY
_chemical_formula_moiety         'C37 H37 N1 O1'
_chemical_name_systematic        
2,6-di-t-butyl-4-(6-phenyl-5,12-dihydrobenzo[4,5]cyclohepta[1,2-b]indol-12-yl)phenol
_symmetry_cell_setting           triclinic
_symmetry_space_group_name_H-M   'P -1'
_symmetry_Int_Tables_number      2
_space_group_name_Hall           '-P 1'
loop_
_symmetry_equiv_pos_site_id
_symmetry_equiv_pos_as_xyz
1 x,y,z
2 -x,-y,-z
_cell_length_a                   10.3724(6)
_cell_length_b                   14.9192(9)
_cell_length_c                   20.5335(12)
_cell_angle_alpha                74.817(5)
_cell_angle_beta                 76.036(5)
_cell_angle_gamma                83.497(5)
_cell_volume                     2971.72
_exptl_crystal_colour            'light colorless'
_exptl_crystal_description       block
_cell_formula_units_Z            4
loop_
_atom_site_label
_atom_site_type_symbol
_atom_site_fract_x
_atom_site_fract_y
_atom_site_fract_z
C1 C 0.2720(2) 0.24846(14) 0.37923(10)
H1 H 0.3519 0.2381 0.3492
O1 O -0.07202(15) 0.18342(13) 0.42175(9)
H2 H -0.1348 0.1945 0.4520
C2 C 0.26882(19) 0.30485(14) 0.42338(10)
C3 C 0.3878(2) 0.35808(15) 0.42208(11)
H3 H 0.3620 0.4242 0.4070
C4 C 0.0326(2) 0.27877(15) 0.47119(11)
C5 C 0.5176(2) 0.34209(15) 0.37417(11)
C6 C 0.6458(2) 0.09020(15) 0.42058(11)
C7 C 0.1581(2) 0.20626(15) 0.37840(11)
C8 C 0.0402(2) 0.22415(15) 0.42431(11)
C9 C 0.5860(2) 0.40890(15) 0.31478(11)
C10 C 0.4079(2) 0.34347(16) 0.49515(12)
C11 C 0.6000(2) 0.26350(16) 0.38316(11)
C12 C 0.1493(2) 0.31889(16) 0.46819(11)
H4 H 0.1470 0.3571 0.4978
N1 N 0.71662(18) 0.27782(14) 0.33277(9)
H5 H 0.7820 0.2375 0.3276
C13 C 0.5820(2) 0.17755(15) 0.43788(11)
C14 C 0.5125(2) 0.17815(16) 0.50242(11)
H6 H 0.4985 0.1199 0.5326
C15 C 0.1631(2) 0.14627(18) 0.32734(13)
C16 C 0.4561(2) 0.25712(16) 0.53182(11)
C17 C 0.7050(2) 0.02297(16) 0.46730(12)
H7 H 0.7036 0.0330 0.5103
C18 C 0.7110(2) 0.36690(17) 0.29235(11)
C19 C -0.0975(2) 0.29720(19) 0.52219(14)
C20 C 0.6477(2) 0.07195(18) 0.35720(12)
H8 H 0.6079 0.1153 0.3253
C21 C 0.5537(3) 0.49936(17) 0.27943(12)
H9 H 0.4702 0.5278 0.2923
C22 C 0.8084(3) 0.4144(2) 0.23849(13)
H10 H 0.8923 0.3867 0.2253
C23 C 0.7657(3) -0.05819(18) 0.45111(14)
H11 H 0.8053 -0.1018 0.4829
C24 C 0.6482(3) 0.54529(19) 0.22515(13)
H12 H 0.6278 0.6051 0.2009
C25 C 0.3693(3) 0.41472(19) 0.52850(14)
H13 H 0.3416 0.4724 0.5039
C26 C 0.7076(3) -0.0094(2) 0.34081(14)
H14 H 0.7076 -0.0204 0.2983
C27 C 0.7744(3) 0.5035(2) 0.20598(14)
H15 H 0.8371 0.5370 0.1702
C28 C 0.4538(3) 0.2453(2) 0.60216(13)
H16 H 0.4811 0.1881 0.6276
C29 C 0.0727(3) 0.1912(3) 0.27694(16)
H17 H -0.0187 0.1856 0.3011
H18 H 0.0899 0.1603 0.2399
H19 H 0.0906 0.2558 0.2583
C30 C 0.3708(3) 0.4024(2) 0.59790(16)
H20 H 0.3444 0.4512 0.6194
C31 C 0.7677(3) -0.07452(19) 0.38783(16)
H21 H 0.8090 -0.1289 0.3767
C32 C 0.3023(3) 0.1399(3) 0.28169(19)
H22 H 0.3316 0.2014 0.2591
H23 H 0.2999 0.1072 0.2475
H24 H 0.3626 0.1070 0.3098
C33 C 0.4116(3) 0.3174(2) 0.63404(15)
H25 H 0.4109 0.3082 0.6807
C34 C -0.2035(3) 0.3484(2) 0.48260(19)
H26 H -0.1700 0.4056 0.4522
H27 H -0.2826 0.3616 0.5149
H28 H -0.2239 0.3100 0.4559
C35 C -0.0763(3) 0.3583(3) 0.56792(18)
H29 H -0.0143 0.3268 0.5954
H30 H -0.1597 0.3703 0.5978
H31 H -0.0418 0.4162 0.5392
C36 C -0.1501(3) 0.2055(2) 0.57173(16)
H32 H -0.1747 0.1676 0.5458
H33 H -0.2265 0.2189 0.6056
H34 H -0.0819 0.1728 0.5946
C37 C 0.1231(4) 0.0476(2) 0.36482(18)
H35 H 0.1862 0.0177 0.3921
H36 H 0.1215 0.0133 0.3315
H37 H 0.0363 0.0497 0.3945
C38 C 0.1603(2) 0.23615(17) -0.12346(11)
C39 C -0.1686(2) 0.28766(17) -0.07990(11)
C40 C 0.2788(2) 0.19041(17) -0.14765(12)
H38 H 0.2828 0.1601 -0.1824
C41 C 0.2638(2) 0.28061(18) -0.04279(11)
C42 C 0.3928(2) 0.18795(17) -0.12204(13)
C43 C 0.0447(2) 0.23739(19) -0.15866(12)
H39 H 0.0811 0.2597 -0.2084
N2 N -0.2631(2) 0.36101(14) -0.08429(10)
H40 H -0.3306 0.3679 -0.0518
C44 C -0.2514(2) 0.22689(18) 0.04860(11)
C45 C -0.1135(3) 0.38624(19) -0.18542(12)
C46 C -0.0736(2) 0.30145(18) -0.14162(12)
C47 C -0.1788(2) 0.21025(17) -0.01960(11)
C48 C 0.3814(2) 0.23397(18) -0.06930(12)
C49 C 0.1540(2) 0.27924(18) -0.07098(11)
H41 H 0.0738 0.3085 -0.0536
C50 C -0.2326(3) 0.42126(18) -0.14863(13)
O2 O 0.49002(18) 0.23694(17) -0.04194(11)
H42 H 0.5525 0.2050 -0.0587
C51 C -0.1271(2) 0.12431(18) -0.02418(13)
H43 H -0.1299 0.0813 0.0180
C52 C 0.0018(2) 0.1395(2) -0.14861(14)
C53 C 0.2556(3) 0.3333(2) 0.01376(13)
C54 C -0.0674(2) 0.0881(2) -0.08506(14)
C55 C -0.2486(3) 0.3102(2) 0.06552(14)
H44 H -0.1997 0.3576 0.0336
C56 C -0.3258(3) 0.1580(2) 0.09810(13)
H45 H -0.3316 0.1015 0.0880
C57 C 0.5242(3) 0.1392(2) -0.15297(16)
C58 C -0.0602(3) 0.4369(2) -0.25346(14)
H46 H 0.0189 0.4165 -0.2793
C59 C -0.0863(3) -0.0062(2) -0.07817(19)
H47 H -0.1283 -0.0420 -0.0356
C60 C -0.3175(3) 0.3248(2) 0.12936(15)
H48 H -0.3165 0.3820 0.1394
C61 C 0.5064(3) 0.0939(3) -0.20878(19)
H49 H 0.4356 0.0519 -0.1899
H50 H 0.5874 0.0602 -0.2245
H51 H 0.4849 0.1412 -0.2470
C62 C -0.3011(3) 0.5027(2) -0.17646(17)
H52 H -0.3804 0.5238 -0.1513
C63 C 0.0398(3) 0.0978(3) -0.20421(17)
H53 H 0.0817 0.1324 -0.2473
C64 C 0.2908(5) 0.2678(3) 0.07930(15)
H54 H 0.2402 0.2133 0.0927
H55 H 0.2703 0.2992 0.1161
H56 H 0.3841 0.2499 0.0700
C65 C -0.3911(4) 0.1723(3) 0.16195(15)
H57 H -0.4386 0.1250 0.1948
C66 C 0.1170(4) 0.3765(4) 0.0345(2)
H58 H 0.0957 0.4223 -0.0045
H59 H 0.1140 0.4055 0.0715
H60 H 0.0537 0.3290 0.0497
C67 C -0.2468(5) 0.5501(3) -0.2423(2)
H61 H -0.2892 0.6051 -0.2622
C68 C -0.1284(4) 0.5172(3) -0.28043(18)
H62 H -0.0948 0.5507 -0.3254
C69 C 0.6325(3) 0.2099(3) -0.1872(2)
H63 H 0.6102 0.2509 -0.2280
H64 H 0.7166 0.1775 -0.1996
H65 H 0.6382 0.2455 -0.1553
C70 C 0.3514(4) 0.4129(3) -0.01444(19)
H66 H 0.4415 0.3875 -0.0216
H67 H 0.3382 0.4507 0.0182
H68 H 0.3344 0.4504 -0.0576
C71 C -0.3865(4) 0.2550(3) 0.17705(15)
H69 H -0.4307 0.2640 0.2202
C72 C 0.5702(4) 0.0605(3) -0.0973(2)
H70 H 0.5937 0.0862 -0.0638
H71 H 0.6462 0.0268 -0.1184
H72 H 0.4995 0.0191 -0.0749
C73 C -0.0433(4) -0.0466(3) -0.1340(3)
H73 H -0.0551 -0.1092 -0.1286
C74 C 0.0161(4) 0.0060(4) -0.1964(3)
H74 H 0.0412 -0.0200 -0.2344
loop_
_geom_bond_atom_site_label_1
_geom_bond_atom_site_label_2
_geom_bond_site_symmetry_1
_geom_bond_site_symmetry_2
C1 H1 1_555 1_555
O1 H2 1_555 1_555
C2 C1 1_555 1_555
C3 C2 1_555 1_555
H3 C3 1_555 1_555
C4 C8 1_555 1_555
C5 C3 1_555 1_555
C6 C13 1_555 1_555
C7 C1 1_555 1_555
C8 O1 1_555 1_555
C9 C5 1_555 1_555
C10 C3 1_555 1_555
C11 C5 1_555 1_555
C12 C2 1_555 1_555
H4 C12 1_555 1_555
N1 C11 1_555 1_555
H5 N1 1_555 1_555
C13 C11 1_555 1_555
C14 C13 1_555 1_555
H6 C14 1_555 1_555
C15 C7 1_555 1_555
C16 C10 1_555 1_555
C17 C6 1_555 1_555
H7 C17 1_555 1_555
C18 C9 1_555 1_555
C19 C4 1_555 1_555
C20 C6 1_555 1_555
H8 C20 1_555 1_555
C21 C9 1_555 1_555
H9 C21 1_555 1_555
C22 C18 1_555 1_555
H10 C22 1_555 1_555
C23 C17 1_555 1_555
H11 C23 1_555 1_555
C24 C21 1_555 1_555
H12 C24 1_555 1_555
C25 C10 1_555 1_555
H13 C25 1_555 1_555
C26 C20 1_555 1_555
H14 C26 1_555 1_555
C27 C22 1_555 1_555
H15 C27 1_555 1_555
C28 C16 1_555 1_555
H16 C28 1_555 1_555
C29 C15 1_555 1_555
H17 C29 1_555 1_555
H18 C29 1_555 1_555
H19 C29 1_555 1_555
C30 C25 1_555 1_555
H20 C30 1_555 1_555
C31 C23 1_555 1_555
H21 C31 1_555 1_555
C32 C15 1_555 1_555
H22 C32 1_555 1_555
H23 C32 1_555 1_555
H24 C32 1_555 1_555
C33 C28 1_555 1_555
H25 C33 1_555 1_555
C34 C19 1_555 1_555
H26 C34 1_555 1_555
H27 C34 1_555 1_555
H28 C34 1_555 1_555
C35 C19 1_555 1_555
H29 C35 1_555 1_555
H30 C35 1_555 1_555
H31 C35 1_555 1_555
C36 C19 1_555 1_555
H32 C36 1_555 1_555
H33 C36 1_555 1_555
H34 C36 1_555 1_555
C37 C15 1_555 1_555
H35 C37 1_555 1_555
H36 C37 1_555 1_555
H37 C37 1_555 1_555
C38 C40 1_555 1_555
C39 N2 1_555 1_555
C40 H38 1_555 1_555
C41 C48 1_555 1_555
C42 C40 1_555 1_555
C43 C38 1_555 1_555
H39 C43 1_555 1_555
N2 H40 1_555 1_555
C44 C47 1_555 1_555
C45 C46 1_555 1_555
C46 C39 1_555 1_555
C47 C39 1_555 1_555
C48 C42 1_555 1_555
C49 C38 1_555 1_555
H41 C49 1_555 1_555
C50 N2 1_555 1_555
O2 C48 1_555 1_555
H42 O2 1_555 1_555
C51 C47 1_555 1_555
H43 C51 1_555 1_555
C52 C43 1_555 1_555
C53 C41 1_555 1_555
C54 C51 1_555 1_555
C55 C44 1_555 1_555
H44 C55 1_555 1_555
C56 C44 1_555 1_555
H45 C56 1_555 1_555
C57 C42 1_555 1_555
C58 C45 1_555 1_555
H46 C58 1_555 1_555
C59 C54 1_555 1_555
H47 C59 1_555 1_555
C60 C55 1_555 1_555
H48 C60 1_555 1_555
C61 C57 1_555 1_555
H49 C61 1_555 1_555
H50 C61 1_555 1_555
H51 C61 1_555 1_555
C62 C50 1_555 1_555
H52 C62 1_555 1_555
C63 C52 1_555 1_555
H53 C63 1_555 1_555
C64 C53 1_555 1_555
H54 C64 1_555 1_555
H55 C64 1_555 1_555
H56 C64 1_555 1_555
C65 C56 1_555 1_555
H57 C65 1_555 1_555
C66 C53 1_555 1_555
H58 C66 1_555 1_555
H59 C66 1_555 1_555
H60 C66 1_555 1_555
C67 C62 1_555 1_555
H61 C67 1_555 1_555
C68 C58 1_555 1_555
H62 C68 1_555 1_555
C69 C57 1_555 1_555
H63 C69 1_555 1_555
H64 C69 1_555 1_555
H65 C69 1_555 1_555
C70 C53 1_555 1_555
H66 C70 1_555 1_555
H67 C70 1_555 1_555
H68 C70 1_555 1_555
C71 C60 1_555 1_555
H69 C71 1_555 1_555
C72 C57 1_555 1_555
H70 C72 1_555 1_555
H71 C72 1_555 1_555
H72 C72 1_555 1_555
C73 C59 1_555 1_555
H73 C73 1_555 1_555
C74 C63 1_555 1_555
H74 C74 1_555 1_555
C4 C12 1_555 1_555
C7 C8 1_555 1_555
N1 C18 1_555 1_555
C14 C16 1_555 1_555
C24 C27 1_555 1_555
C26 C31 1_555 1_555
C30 C33 1_555 1_555
C41 C49 1_555 1_555
C43 C46 1_555 1_555
C45 C50 1_555 1_555
C52 C54 1_555 1_555
C65 C71 1_555 1_555
C67 C68 1_555 1_555
C73 C74 1_555 1_555

#END
