
#######################################################################
#
#                 Cambridge Crystallographic Data Centre
#                                CCDC 
#
#######################################################################
#
# If this CIF has been generated from an entry in the Cambridge 
# Structural Database, then it will include bibliographic, chemical, 
# crystal, experimental, refinement or atomic coordinate data resulting 
# from the CCDC's data processing and validation procedures.
#
#######################################################################

data_SIDGOE
_chemical_formula_moiety         'C23 H21 N1 O4'
_chemical_name_systematic        
(S,E)-2-benzyl-4-(3-methoxybenzylidene)-6-oxa-2-azaspiro[4.5]dec-7-ene-1,9-dione
_symmetry_cell_setting           monoclinic
_symmetry_space_group_name_H-M   'P 21'
_symmetry_Int_Tables_number      4
_space_group_name_Hall           'P 2yb'
loop_
_symmetry_equiv_pos_site_id
_symmetry_equiv_pos_as_xyz
1 x,y,z
2 -x,1/2+y,-z
_cell_length_a                   5.56360(10)
_cell_length_b                   10.0307(3)
_cell_length_c                   17.1567(4)
_cell_angle_alpha                90
_cell_angle_beta                 94.850(2)
_cell_angle_gamma                90
_cell_volume                     954.032
_exptl_crystal_colour            white
_exptl_crystal_description       block
_cell_formula_units_Z            2
_exptl_crystal_recrystallization_method 'dichloromethane / petroleum ether'
loop_
_atom_site_label
_atom_site_type_symbol
_atom_site_fract_x
_atom_site_fract_y
_atom_site_fract_z
O1 O 0.9096(3) 0.55304(19) 0.09472(10)
O2 O 1.1005(3) 0.7359(2) 0.21838(10)
N1 N 0.8221(3) 0.6261(2) 0.28589(10)
O3 O -0.0807(4) 0.2530(2) 0.31672(14)
O4 O 0.6675(4) 0.9338(2) 0.05484(14)
C1 C 0.9196(4) 0.6671(2) 0.22069(13)
C2 C 0.6130(4) 0.5065(2) 0.18619(13)
C3 C 0.7615(4) 0.6131(2) 0.15025(12)
C4 C 0.7616(4) 0.7555(3) 0.40699(13)
C5 C 0.0706(4) 0.2159(3) 0.26079(16)
C6 C 0.6154(4) 0.5377(3) 0.27207(13)
H1 H 0.4676 0.5818 0.2838
H2 H 0.6362 0.4574 0.3034
C7 C 0.9189(4) 0.6636(3) 0.36378(13)
H3 H 1.0737 0.7066 0.3600
H4 H 0.9475 0.5831 0.3945
C8 C 0.5173(4) 0.4024(3) 0.14770(14)
H5 H 0.5453 0.3963 0.0951
C9 C 0.5704(5) 0.8257(3) 0.37096(15)
H6 H 0.5315 0.8157 0.3175
C10 C 0.6023(4) 0.7231(3) 0.11238(14)
H7 H 0.4737 0.6825 0.0787
H8 H 0.5286 0.7717 0.1531
C11 C 0.9941(4) 0.6336(3) 0.04029(13)
H9 H 1.1073 0.5972 0.0096
C12 C 0.3715(4) 0.2951(3) 0.17849(14)
C13 C 0.2107(4) 0.3193(3) 0.23483(15)
H10 H 0.1969 0.4046 0.2552
C14 C 0.7364(4) 0.8203(3) 0.06480(13)
C15 C 0.9323(5) 0.7595(3) 0.02617(14)
H11 H 1.0147 0.8094 -0.0087
C16 C 0.0874(5) 0.0890(3) 0.23096(18)
H12 H -0.0064 0.0202 0.2484
C17 C 0.3885(5) 0.1668(3) 0.14831(16)
H13 H 0.4949 0.1491 0.1106
C18 C 0.4352(6) 0.9113(4) 0.4134(2)
H14 H 0.3054 0.9574 0.3885
C19 C 0.2464(6) 0.0659(3) 0.17455(19)
H15 H 0.2579 -0.0194 0.1539
C20 C 0.8159(6) 0.7737(4) 0.48685(15)
H16 H 0.9444 0.7272 0.5122
C21 C 0.4942(8) 0.9277(5) 0.4928(2)
H17 H 0.4049 0.9855 0.5214
C22 C -0.2362(5) 0.1524(4) 0.3429(2)
H18 H -0.3352 0.1176 0.2990
H19 H -0.3370 0.1901 0.3799
H20 H -0.1410 0.0817 0.3674
C23 C 0.6833(8) 0.8590(4) 0.52913(18)
H21 H 0.7227 0.8698 0.5825
loop_
_geom_bond_atom_site_label_1
_geom_bond_atom_site_label_2
_geom_bond_site_symmetry_1
_geom_bond_site_symmetry_2
O1 C3 1_555 1_555
O2 C1 1_555 1_555
N1 C1 1_555 1_555
O3 C5 1_555 1_555
O4 C14 1_555 1_555
C1 C3 1_555 1_555
C2 C3 1_555 1_555
C3 C10 1_555 1_555
C4 C7 1_555 1_555
C5 C13 1_555 1_555
C6 N1 1_555 1_555
H1 C6 1_555 1_555
H2 C6 1_555 1_555
C7 N1 1_555 1_555
H3 C7 1_555 1_555
H4 C7 1_555 1_555
C8 C2 1_555 1_555
H5 C8 1_555 1_555
C9 C4 1_555 1_555
H6 C9 1_555 1_555
C10 H7 1_555 1_555
H8 C10 1_555 1_555
C11 O1 1_555 1_555
H9 C11 1_555 1_555
C12 C8 1_555 1_555
C13 C12 1_555 1_555
H10 C13 1_555 1_555
C14 C10 1_555 1_555
C15 C11 1_555 1_555
H11 C15 1_555 1_555
C16 C5 1_555 1_555
H12 C16 1_555 1_555
C17 C12 1_555 1_555
H13 C17 1_555 1_555
C18 C9 1_555 1_555
H14 C18 1_555 1_555
C19 C16 1_555 1_555
H15 C19 1_555 1_555
C20 C4 1_555 1_555
H16 C20 1_555 1_555
C21 C18 1_555 1_555
H17 C21 1_555 1_555
C22 O3 1_555 1_555
H18 C22 1_555 1_555
H19 C22 1_555 1_555
H20 C22 1_555 1_555
C23 C20 1_555 1_555
H21 C23 1_555 1_555
C2 C6 1_555 1_555
C14 C15 1_555 1_555
C17 C19 1_555 1_555
C21 C23 1_555 1_555

#END
