
#######################################################################
#
#                 Cambridge Crystallographic Data Centre
#                                CCDC 
#
#######################################################################
#
# If this CIF has been generated from an entry in the Cambridge 
# Structural Database, then it will include bibliographic, chemical, 
# crystal, experimental, refinement or atomic coordinate data resulting 
# from the CCDC's data processing and validation procedures.
#
#######################################################################

data_SIDGEU
_chemical_formula_moiety         'C21 H28 O3 S1'
_chemical_name_systematic        
2,6-di-t-butyl-4-methyl-4-(phenylsulfonyl)cyclohexa-2,5-dien-1-one
_symmetry_cell_setting           orthorhombic
_symmetry_space_group_name_H-M   'P 21 21 21'
_symmetry_Int_Tables_number      19
_space_group_name_Hall           'P 2ac 2ab'
loop_
_symmetry_equiv_pos_site_id
_symmetry_equiv_pos_as_xyz
1 x,y,z
2 1/2-x,-y,1/2+z
3 1/2+x,1/2-y,-z
4 -x,1/2+y,1/2-z
_cell_length_a                   8.0562(4)
_cell_length_b                   11.4317(4)
_cell_length_c                   23.0771(8)
_cell_angle_alpha                90
_cell_angle_beta                 90
_cell_angle_gamma                90
_cell_volume                     2125.31
_exptl_crystal_colour            'light colorless'
_exptl_crystal_description       block
_cell_formula_units_Z            4
loop_
_atom_site_label
_atom_site_type_symbol
_atom_site_fract_x
_atom_site_fract_y
_atom_site_fract_z
S1 S 0.60060(8) 0.39199(7) 0.23460(2)
O1 O 0.6715(2) 0.28662(19) 0.25806(9)
O2 O 0.6703(2) 0.50237(19) 0.25150(8)
O3 O 0.1762(3) 0.3840(3) 0.06989(14)
C1 C 0.6176(3) 0.3833(3) 0.15527(9)
C2 C 0.5361(3) 0.2737(3) 0.13580(10)
H1 H 0.5836 0.2030 0.1469
C3 C 0.3991(4) 0.2701(2) 0.10338(9)
C4 C 0.3176(3) 0.3832(3) 0.08881(12)
C5 C 0.4089(4) 0.4938(3) 0.09744(11)
C6 C 0.5465(4) 0.4905(3) 0.13022(11)
H2 H 0.6006 0.5608 0.1376
C7 C 0.3212(4) 0.1564(3) 0.08289(11)
C8 C 0.1530(4) 0.1375(4) 0.11256(14)
H3 H 0.1686 0.1335 0.1538
H4 H 0.1047 0.0657 0.0991
H5 H 0.0803 0.2015 0.1035
C9 C 0.2961(5) 0.1594(4) 0.01653(12)
H6 H 0.2200 0.2209 0.0067
H7 H 0.2519 0.0857 0.0038
H8 H 0.4008 0.1733 -0.0021
C10 C 0.4323(6) 0.0518(3) 0.09594(17)
H9 H 0.5390 0.0634 0.0784
H10 H 0.3824 -0.0179 0.0806
H11 H 0.4453 0.0439 0.1371
C11 C 0.3445(5) 0.6065(4) 0.06940(13)
C12 C 0.1780(6) 0.6409(5) 0.0958(2)
H12 H 0.0949 0.5852 0.0845
H13 H 0.1471 0.7173 0.0824
H14 H 0.1873 0.6418 0.1373
C13 C 0.3279(6) 0.5873(4) 0.00368(15)
H15 H 0.4328 0.5629 -0.0119
H16 H 0.2943 0.6591 -0.0145
H17 H 0.2461 0.5280 -0.0036
C14 C 0.4628(7) 0.7075(3) 0.0786(2)
H18 H 0.4694 0.7252 0.1192
H19 H 0.4233 0.7748 0.0579
H20 H 0.5709 0.6864 0.0645
C15 C 0.8080(3) 0.3792(4) 0.14477(12)
H21 H 0.8579 0.4495 0.1595
H22 H 0.8295 0.3729 0.1040
H23 H 0.8542 0.3127 0.1644
C16 C 0.3874(3) 0.3936(3) 0.25195(9)
C17 C 0.3092(4) 0.2893(3) 0.26404(14)
H24 H 0.3654 0.2186 0.2604
C18 C 0.1449(4) 0.2919(4) 0.28178(15)
H25 H 0.0899 0.2225 0.2902
C19 C 0.0630(4) 0.3966(5) 0.28695(14)
H26 H -0.0467 0.3978 0.2995
C20 C 0.1409(4) 0.4984(4) 0.27395(15)
H27 H 0.0837 0.5688 0.2771
C21 C 0.3055(4) 0.4981(3) 0.25601(13)
H28 H 0.3590 0.5678 0.2469
loop_
_geom_bond_atom_site_label_1
_geom_bond_atom_site_label_2
_geom_bond_site_symmetry_1
_geom_bond_site_symmetry_2
S1 O1 1_555 1_555
O2 S1 1_555 1_555
O3 C4 1_555 1_555
C1 S1 1_555 1_555
C2 C1 1_555 1_555
H1 C2 1_555 1_555
C3 C2 1_555 1_555
C4 C3 1_555 1_555
C5 C4 1_555 1_555
C6 C1 1_555 1_555
H2 C6 1_555 1_555
C7 C3 1_555 1_555
C8 C7 1_555 1_555
H3 C8 1_555 1_555
H4 C8 1_555 1_555
H5 C8 1_555 1_555
C9 C7 1_555 1_555
H6 C9 1_555 1_555
H7 C9 1_555 1_555
H8 C9 1_555 1_555
C10 C7 1_555 1_555
H9 C10 1_555 1_555
H10 C10 1_555 1_555
H11 C10 1_555 1_555
C11 C5 1_555 1_555
C12 C11 1_555 1_555
H12 C12 1_555 1_555
H13 C12 1_555 1_555
H14 C12 1_555 1_555
C13 C11 1_555 1_555
H15 C13 1_555 1_555
H16 C13 1_555 1_555
H17 C13 1_555 1_555
C14 C11 1_555 1_555
H18 C14 1_555 1_555
H19 C14 1_555 1_555
H20 C14 1_555 1_555
C15 C1 1_555 1_555
H21 C15 1_555 1_555
H22 C15 1_555 1_555
H23 C15 1_555 1_555
C16 S1 1_555 1_555
C17 C16 1_555 1_555
H24 C17 1_555 1_555
C18 C17 1_555 1_555
H25 C18 1_555 1_555
C19 C18 1_555 1_555
H26 C19 1_555 1_555
C20 C19 1_555 1_555
H27 C20 1_555 1_555
C21 C16 1_555 1_555
H28 C21 1_555 1_555
C5 C6 1_555 1_555
C20 C21 1_555 1_555

#END
