
#######################################################################
#
#                 Cambridge Crystallographic Data Centre
#                                CCDC 
#
#######################################################################
#
# If this CIF has been generated from an entry in the Cambridge 
# Structural Database, then it will include bibliographic, chemical, 
# crystal, experimental, refinement or atomic coordinate data resulting 
# from the CCDC's data processing and validation procedures.
#
#######################################################################

data_SIDHOD
_chemical_formula_moiety         'C14 H10 O2 Se2'
_chemical_name_systematic        2,2'-diselane-1,2-diyldibenzaldehyde
_symmetry_cell_setting           orthorhombic
_symmetry_space_group_name_H-M   'P c a 21'
_symmetry_Int_Tables_number      29
_space_group_name_Hall           'P 2c -2ac'
loop_
_symmetry_equiv_pos_site_id
_symmetry_equiv_pos_as_xyz
1 x,y,z
2 -x,-y,1/2+z
3 1/2+x,-y,z
4 1/2-x,y,1/2+z
_cell_length_a                   7.9969(4)
_cell_length_b                   20.8794(12)
_cell_length_c                   15.8307(13)
_cell_angle_alpha                90
_cell_angle_beta                 90
_cell_angle_gamma                90
_cell_volume                     2643.26
_exptl_crystal_colour            colorless
_exptl_crystal_description       plate
_cell_formula_units_Z            8
_exptl_crystal_recrystallization_method chloroform/ether
loop_
_atom_site_label
_atom_site_type_symbol
_atom_site_fract_x
_atom_site_fract_y
_atom_site_fract_z
Se1 Se 0.28790(7) 0.97992(2) 0.49443(3)
Se2 Se 0.19476(6) 0.87910(2) 0.45433(3)
O1 O 0.3470(5) 1.09899(18) 0.5574(3)
O2 O 0.0817(5) 0.7735(2) 0.3675(3)
C1 C 0.3838(6) 0.9658(2) 0.6050(3)
C2 C 0.4120(7) 0.9054(2) 0.6365(4)
H1 H 0.3843 0.8697 0.6043
C3 C 0.4813(8) 0.8975(3) 0.7156(4)
H2 H 0.4978 0.8565 0.7368
C4 C 0.5258(9) 0.9495(4) 0.7630(4)
H3 H 0.5741 0.9436 0.8159
C5 C 0.5001(8) 1.0097(3) 0.7334(4)
H4 H 0.5304 1.0449 0.7659
C6 C 0.4280(7) 1.0185(3) 0.6542(3)
C7 C 0.4030(8) 1.0839(3) 0.6251(4)
H5 H 0.4327 1.1168 0.6618
C8 C 0.3899(6) 0.8416(2) 0.4040(3)
C9 C 0.5489(6) 0.8655(2) 0.4199(3)
H6 H 0.5632 0.9011 0.4544
C10 C 0.6857(7) 0.8354(3) 0.3837(4)
H7 H 0.7925 0.8505 0.3956
C11 C 0.6675(7) 0.7841(3) 0.3309(4)
H8 H 0.7606 0.7653 0.3060
C12 C 0.5114(8) 0.7610(3) 0.3153(4)
H9 H 0.4987 0.7259 0.2797
C13 C 0.3723(7) 0.7886(2) 0.3511(3)
C14 C 0.2097(9) 0.7594(3) 0.3331(4)
H10 H 0.2056 0.7276 0.2920
Se3 Se 0.86191(8) 0.62585(2) 0.20787(3)
Se4 Se 0.77959(8) 0.52284(2) 0.24510(4)
O3 O 0.9629(6) 0.7366(2) 0.1318(3)
O4 O 0.7185(6) 0.4024(2) 0.3038(3)
C15 C 0.6639(6) 0.6584(2) 0.1531(3)
C16 C 0.5099(7) 0.6291(2) 0.1612(3)
H11 H 0.5007 0.5913 0.1919
C17 C 0.3708(8) 0.6552(3) 0.1246(4)
H12 H 0.2677 0.6353 0.1315
C18 C 0.3818(8) 0.7108(3) 0.0773(4)
H13 H 0.2871 0.7283 0.0521
C19 C 0.5348(8) 0.7399(3) 0.0682(4)
H14 H 0.5443 0.7767 0.0355
C20 C 0.6750(7) 0.7148(2) 0.1072(3)
C21 C 0.8333(9) 0.7512(3) 0.0986(5)
H15 H 0.8322 0.7878 0.0652
C22 C 0.6710(6) 0.5345(3) 0.3540(3)
C23 C 0.6429(8) 0.5942(3) 0.3860(4)
H16 H 0.6776 0.6305 0.3569
C24 C 0.5596(9) 0.5995(4) 0.4646(5)
H17 H 0.5386 0.6398 0.4872
C25 C 0.5104(9) 0.5468(5) 0.5071(4)
H18 H 0.4563 0.5508 0.5588
C26 C 0.5403(9) 0.4883(4) 0.4740(4)
H19 H 0.5055 0.4522 0.5034
C27 C 0.6210(7) 0.4810(3) 0.3977(3)
C28 C 0.6491(9) 0.4163(3) 0.3702(5)
H20 H 0.6125 0.3831 0.4048
loop_
_geom_bond_atom_site_label_1
_geom_bond_atom_site_label_2
_geom_bond_site_symmetry_1
_geom_bond_site_symmetry_2
Se1 Se2 1_555 1_555
Se2 C8 1_555 1_555
O1 C7 1_555 1_555
O2 C14 1_555 1_555
C1 Se1 1_555 1_555
C2 C1 1_555 1_555
H1 C2 1_555 1_555
C3 C2 1_555 1_555
H2 C3 1_555 1_555
C4 C3 1_555 1_555
H3 C4 1_555 1_555
C5 C4 1_555 1_555
H4 C5 1_555 1_555
C6 C1 1_555 1_555
C7 C6 1_555 1_555
H5 C7 1_555 1_555
C8 C9 1_555 1_555
C9 H6 1_555 1_555
C10 C9 1_555 1_555
H7 C10 1_555 1_555
C11 C10 1_555 1_555
H8 C11 1_555 1_555
C12 C11 1_555 1_555
H9 C12 1_555 1_555
C13 C8 1_555 1_555
C14 C13 1_555 1_555
H10 C14 1_555 1_555
Se3 Se4 1_555 1_555
Se4 C22 1_555 1_555
O3 C21 1_555 1_555
O4 C28 1_555 1_555
C15 Se3 1_555 1_555
C16 C15 1_555 1_555
H11 C16 1_555 1_555
C17 C16 1_555 1_555
H12 C17 1_555 1_555
C18 C17 1_555 1_555
H13 C18 1_555 1_555
C19 C18 1_555 1_555
H14 C19 1_555 1_555
C20 C15 1_555 1_555
C21 C20 1_555 1_555
H15 C21 1_555 1_555
C22 C23 1_555 1_555
C23 H16 1_555 1_555
C24 C23 1_555 1_555
H17 C24 1_555 1_555
C25 C24 1_555 1_555
H18 C25 1_555 1_555
C26 C25 1_555 1_555
H19 C26 1_555 1_555
C27 C22 1_555 1_555
C28 C27 1_555 1_555
H20 C28 1_555 1_555
C5 C6 1_555 1_555
C12 C13 1_555 1_555
C19 C20 1_555 1_555
C26 C27 1_555 1_555

#END
