
#######################################################################
#
#                 Cambridge Crystallographic Data Centre
#                                CCDC 
#
#######################################################################
#
# If this CIF has been generated from an entry in the Cambridge 
# Structural Database, then it will include bibliographic, chemical, 
# crystal, experimental, refinement or atomic coordinate data resulting 
# from the CCDC's data processing and validation procedures.
#
#######################################################################

data_SIDQIH
_chemical_formula_moiety         'C34 H24'
_chemical_name_systematic        
trans,trans-9-(2-(4-(2-(1-Naphthyl)vinyl)phenyl)vinyl)anthracene
_symmetry_cell_setting           monoclinic
_symmetry_space_group_name_H-M   'P 21/n'
_symmetry_Int_Tables_number      14
_space_group_name_Hall           '-P 2yn'
loop_
_symmetry_equiv_pos_site_id
_symmetry_equiv_pos_as_xyz
1 x,y,z
2 1/2-x,1/2+y,1/2-z
3 -x,-y,-z
4 1/2+x,1/2-y,1/2+z
_cell_length_a                   15.7869(7)
_cell_length_b                   6.0629(3)
_cell_length_c                   25.6359(10)
_cell_angle_alpha                90
_cell_angle_beta                 107.102(5)
_cell_angle_gamma                90
_cell_volume                     2345.23
_exptl_crystal_colour            yellow
_exptl_crystal_description       needle
_cell_formula_units_Z            4
loop_
_atom_site_label
_atom_site_type_symbol
_atom_site_fract_x
_atom_site_fract_y
_atom_site_fract_z
C1 C 0.74337(11) 0.5154(3) 0.15549(6)
C2 C 0.59679(12) 0.6217(3) 0.09772(6)
C3 C 0.70576(12) 0.3248(3) 0.17326(6)
C4 C 0.68863(12) 0.6585(3) 0.11658(6)
C5 C 0.55974(12) 0.4306(3) 0.11596(7)
C6 C 0.61529(12) 0.2870(3) 0.15257(7)
H1 H 0.5912 0.1616 0.1636
C7 C 0.84959(11) 1.3543(3) -0.03223(7)
C8 C 0.77378(12) 1.0324(3) 0.02037(6)
C9 C 0.76273(13) 0.1795(3) 0.21148(7)
H2 H 0.7390 0.0547 0.2230
C10 C 0.88552(13) 1.5281(3) -0.05929(7)
H3 H 0.9201 1.6349 -0.0368
C11 C 0.83641(12) 0.5481(3) 0.17757(7)
H4 H 0.8625 0.6696 0.1663
C12 C 0.88734(11) 1.7238(3) -0.19875(7)
C13 C 0.85061(14) 0.2194(3) 0.23141(7)
H5 H 0.8866 0.1224 0.2564
C14 C 0.85084(13) 1.3760(3) 0.02200(7)
H6 H 0.8774 1.4997 0.0415
C15 C 0.81384(12) 1.2198(3) 0.04762(7)
H7 H 0.8158 1.2404 0.0839
C16 C 0.73105(12) 0.8421(3) 0.09511(7)
H8 H 0.7596 0.9505 0.1197
C17 C 0.87406(12) 1.5493(3) -0.11210(7)
H9 H 0.8405 1.4398 -0.1342
C18 C 0.81085(12) 1.1640(3) -0.05918(7)
H10 H 0.8102 1.1412 -0.0952
C19 C 0.73152(12) 0.8634(3) 0.04505(7)
H11 H 0.7005 0.7556 0.0212
C20 C 0.88794(13) 0.4075(3) 0.21444(8)
H12 H 0.9483 0.4350 0.2287
C21 C 0.77357(13) 1.0094(3) -0.03362(7)
H13 H 0.7473 0.8852 -0.0530
C22 C 0.83840(13) 1.5560(4) -0.23259(8)
H14 H 0.8148 1.4419 -0.2170
C23 C 0.91978(12) 1.8983(3) -0.22464(8)
C24 C 0.90752(12) 1.7237(3) -0.14040(7)
C25 C 0.53689(14) 0.7700(4) 0.06202(7)
H15 H 0.5591 0.8960 0.0500
C26 C 0.46612(13) 0.3956(4) 0.09637(8)
H16 H 0.4416 0.2708 0.1073
C27 C 0.95838(13) 1.8931(3) -0.11163(8)
H17 H 0.9727 1.8931 -0.0738
C28 C 0.98923(14) 2.0656(4) -0.13766(10)
H18 H 1.0231 2.1783 -0.1171
C29 C 0.90382(14) 1.8937(4) -0.28172(9)
H19 H 0.9251 2.0080 -0.2985
C30 C 0.96976(14) 2.0684(4) -0.19266(10)
H20 H 0.9898 2.1845 -0.2096
C31 C 0.44860(15) 0.7318(4) 0.04520(8)
H21 H 0.4112 0.8325 0.0222
C32 C 0.41257(14) 0.5423(4) 0.06200(8)
H22 H 0.3518 0.5173 0.0495
C33 C 0.82489(15) 1.5573(4) -0.28775(8)
H23 H 0.7930 1.4438 -0.3091
C34 C 0.85875(15) 1.7285(5) -0.31232(9)
H24 H 0.8500 1.7276 -0.3498
loop_
_geom_bond_atom_site_label_1
_geom_bond_atom_site_label_2
_geom_bond_site_symmetry_1
_geom_bond_site_symmetry_2
C1 C3 1_555 1_555
C2 C4 1_555 1_555
C3 C6 1_555 1_555
C4 C1 1_555 1_555
C5 C2 1_555 1_555
C6 C5 1_555 1_555
H1 C6 1_555 1_555
C7 C10 1_555 1_555
C8 C15 1_555 1_555
C9 C3 1_555 1_555
H2 C9 1_555 1_555
C10 H3 1_555 1_555
C11 C1 1_555 1_555
H4 C11 1_555 1_555
C12 C22 1_555 1_555
C13 C9 1_555 1_555
H5 C13 1_555 1_555
C14 C7 1_555 1_555
H6 C14 1_555 1_555
C15 C14 1_555 1_555
H7 C15 1_555 1_555
C16 C4 1_555 1_555
H8 C16 1_555 1_555
C17 C10 1_555 1_555
H9 C17 1_555 1_555
C18 C7 1_555 1_555
H10 C18 1_555 1_555
C19 C8 1_555 1_555
H11 C19 1_555 1_555
C20 C11 1_555 1_555
H12 C20 1_555 1_555
C21 C8 1_555 1_555
H13 C21 1_555 1_555
C22 H14 1_555 1_555
C23 C12 1_555 1_555
C24 C12 1_555 1_555
C25 C2 1_555 1_555
H15 C25 1_555 1_555
C26 C5 1_555 1_555
H16 C26 1_555 1_555
C27 C24 1_555 1_555
H17 C27 1_555 1_555
C28 C27 1_555 1_555
H18 C28 1_555 1_555
C29 C23 1_555 1_555
H19 C29 1_555 1_555
C30 C23 1_555 1_555
H20 C30 1_555 1_555
C31 C25 1_555 1_555
H21 C31 1_555 1_555
C32 C26 1_555 1_555
H22 C32 1_555 1_555
C33 C22 1_555 1_555
H23 C33 1_555 1_555
C34 C29 1_555 1_555
H24 C34 1_555 1_555
C13 C20 1_555 1_555
C16 C19 1_555 1_555
C17 C24 1_555 1_555
C18 C21 1_555 1_555
C28 C30 1_555 1_555
C31 C32 1_555 1_555
C33 C34 1_555 1_555

#END
