
#######################################################################
#
#                 Cambridge Crystallographic Data Centre
#                                CCDC 
#
#######################################################################
#
# If this CIF has been generated from an entry in the Cambridge 
# Structural Database, then it will include bibliographic, chemical, 
# crystal, experimental, refinement or atomic coordinate data resulting 
# from the CCDC's data processing and validation procedures.
#
#######################################################################

data_SIDROP
_chemical_formula_moiety         'C29 H29 N3 O2 S1'
_chemical_name_systematic        
't-butyl [2-(1,3-benzothiazol-2-yl)-2-cyano-1-(4-methylphenyl)-3-phenylpropyl]carbamate'
_symmetry_cell_setting           rhombohedral
_symmetry_space_group_name_H-M   'R 3'
_symmetry_Int_Tables_number      146
_space_group_name_Hall           'R 3'
loop_
_symmetry_equiv_pos_site_id
_symmetry_equiv_pos_as_xyz
1 x,y,z
2 -y,x-y,z
3 -x+y,-x,z
4 2/3+x,1/3+y,1/3+z
5 2/3-y,1/3+x-y,1/3+z
6 2/3-x+y,1/3-x,1/3+z
7 1/3+x,2/3+y,2/3+z
8 1/3-y,2/3+x-y,2/3+z
9 1/3-x+y,2/3-x,2/3+z
_cell_length_a                   37.1770(12)
_cell_length_b                   37.1770(12)
_cell_length_c                   20.0838(7)
_cell_angle_alpha                90
_cell_angle_beta                 90
_cell_angle_gamma                120
_cell_volume                     24039.5
_exptl_crystal_colour            'light colorless'
_exptl_crystal_description       block
_cell_formula_units_Z            36
loop_
_atom_site_label
_atom_site_type_symbol
_atom_site_fract_x
_atom_site_fract_y
_atom_site_fract_z
S1 S 0.59879(2) 0.65819(2) 0.09204(4)
C1 C 0.52249(12) 0.72766(11) 0.0182(2)
H1 H 0.5054 0.7250 0.0552
O1 O 0.40709(5) 0.57245(6) 0.03353(9)
N1 N 0.54346(7) 0.60603(8) 0.00937(13)
C2 C 0.57141(13) 0.77056(13) -0.0655(3)
H2 H 0.5868 0.7966 -0.0872
N2 N 0.44277(7) 0.59363(8) 0.13250(12)
C3 C 0.55102(11) 0.69872(13) -0.05783(19)
H3 H 0.5534 0.6760 -0.0740
C4 C 0.57416(14) 0.73719(15) -0.0862(2)
H4 H 0.5927 0.7406 -0.1214
C5 C 0.49570(9) 0.65124(10) 0.02355(16)
H5 H 0.4871 0.6306 -0.0129
H6 H 0.4704 0.6508 0.0399
C6 C 0.52369(9) 0.69279(10) -0.00478(16)
C7 C 0.51353(8) 0.63662(9) 0.08186(14)
C8 C 0.54936(8) 0.63200(8) 0.05629(14)
C9 C 0.61316(9) 0.63111(10) 0.03877(15)
C10 C 0.65160(10) 0.63272(12) 0.03172(16)
H7 H 0.6749 0.6510 0.0581
C11 C 0.65446(12) 0.60699(14) -0.01447(18)
H8 H 0.6803 0.6080 -0.0204
C12 C 0.62083(13) 0.57972(12) -0.05246(18)
H9 H 0.6238 0.5619 -0.0831
C13 C 0.58315(11) 0.57800(11) -0.04659(17)
H10 H 0.5601 0.5592 -0.0729
C14 C 0.57954(9) 0.60447(9) -0.00109(14)
C15 C 0.52750(8) 0.66771(9) 0.13623(15)
C16 C 0.47929(8) 0.59287(9) 0.10850(14)
H11 H 0.4701 0.5736 0.0695
C17 C 0.49659(8) 0.57552(8) 0.15890(14)
C18 C 0.50889(9) 0.54753(9) 0.13775(15)
H12 H 0.5051 0.5389 0.0925
C19 C 0.52652(10) 0.53235(10) 0.18197(16)
H13 H 0.5352 0.5139 0.1659
C20 C 0.53198(10) 0.54273(10) 0.24770(17)
C21 C 0.51953(9) 0.57119(9) 0.26934(15)
H14 H 0.5231 0.5795 0.3147
C22 C 0.55056(13) 0.52517(13) 0.29459(19)
H15 H 0.5743 0.5479 0.3176
H16 H 0.5599 0.5087 0.2695
H17 H 0.5297 0.5074 0.3274
C23 C 0.50233(9) 0.58690(9) 0.22579(15)
H18 H 0.4942 0.6059 0.2416
C24 C 0.35508(14) 0.61346(14) 0.0423(2)
H19 H 0.3709 0.6405 0.0642
H20 H 0.3303 0.6114 0.0214
H21 H 0.3724 0.6106 0.0083
C25 C 0.40910(8) 0.58210(9) 0.09241(14)
C26 C 0.34208(9) 0.57914(10) 0.09369(15)
C27 C 0.31776(11) 0.53671(14) 0.0618(3)
H22 H 0.3143 0.5154 0.0940
H23 H 0.3328 0.5353 0.0228
H24 H 0.2904 0.5319 0.0481
C28 C 0.31855(12) 0.58460(17) 0.1505(2)
H25 H 0.3100 0.5618 0.1823
H26 H 0.2939 0.5845 0.1331
H27 H 0.3365 0.6111 0.1730
C29 C 0.54575(14) 0.76577(13) -0.0120(3)
H28 H 0.5442 0.7890 0.0040
O2 O 0.37959(6) 0.58422(7) 0.12664(10)
N3 N 0.53781(8) 0.69168(8) 0.17836(14)
S2 S 0.60018(2) 0.66137(2) 0.59077(4)
O3 O 0.40880(5) 0.57347(6) 0.53140(9)
O4 O 0.38109(6) 0.58634(7) 0.62287(10)
N4 N 0.54503(7) 0.60933(7) 0.50796(12)
N5 N 0.44399(7) 0.59526(7) 0.63039(11)
N6 N 0.53802(8) 0.69386(8) 0.67781(14)
C30 C 0.55090(11) 0.70149(12) 0.44057(18)
H29 H 0.5528 0.6786 0.4235
C31 C 0.57415(13) 0.74032(15) 0.4127(2)
H30 H 0.5923 0.7440 0.3768
C32 C 0.57176(12) 0.77345(13) 0.4352(2)
H31 H 0.5873 0.7997 0.4141
C33 C 0.54650(13) 0.76863(12) 0.4889(2)
H32 H 0.5451 0.7919 0.5054
C34 C 0.52329(11) 0.73044(11) 0.51892(19)
H33 H 0.5065 0.7276 0.5564
C35 C 0.52439(9) 0.69588(10) 0.49437(15)
C36 C 0.51490(8) 0.63971(9) 0.58048(14)
C37 C 0.55085(8) 0.63516(8) 0.55498(13)
C38 C 0.52824(8) 0.67022(8) 0.63520(15)
C39 C 0.49661(9) 0.65388(9) 0.52249(15)
H34 H 0.4884 0.6334 0.4859
H35 H 0.4711 0.6530 0.5389
C40 C 0.58115(9) 0.60783(9) 0.49772(14)
C41 C 0.58480(11) 0.58108(11) 0.45251(17)
H36 H 0.5618 0.5623 0.4262
C42 C 0.62210(12) 0.58247(12) 0.44709(18)
H37 H 0.6250 0.5644 0.4168
C43 C 0.65587(12) 0.60987(14) 0.48530(18)
H38 H 0.6817 0.6109 0.4794
C44 C 0.65298(10) 0.63558(13) 0.53145(17)
H39 H 0.6761 0.6537 0.5582
C45 C 0.61476(9) 0.63427(10) 0.53783(14)
C46 C 0.41069(8) 0.58360(9) 0.58978(14)
C47 C 0.34456(8) 0.58306(9) 0.58825(14)
C48 C 0.35904(12) 0.61731(12) 0.53698(19)
H40 H 0.3349 0.6165 0.5160
H41 H 0.3757 0.6133 0.5030
H42 H 0.3760 0.6443 0.5587
C49 C 0.31935(10) 0.54077(12) 0.5554(2)
H43 H 0.2922 0.5367 0.5420
H44 H 0.3154 0.5190 0.5870
H45 H 0.3342 0.5393 0.5160
C50 C 0.32116(12) 0.58924(16) 0.6444(2)
H46 H 0.2967 0.5894 0.6265
H47 H 0.3393 0.6158 0.6665
H48 H 0.3123 0.5666 0.6766
C51 C 0.50405(8) 0.58928(9) 0.72419(14)
H49 H 0.4951 0.6075 0.7404
C52 C 0.48098(8) 0.59538(9) 0.60671(14)
H50 H 0.4722 0.5763 0.5675
C53 C 0.52200(9) 0.57415(9) 0.76730(14)
H51 H 0.5250 0.5819 0.8129
C54 C 0.53605(9) 0.54717(9) 0.74487(16)
C55 C 0.53123(10) 0.53733(10) 0.67893(15)
H52 H 0.5412 0.5200 0.6623
C56 C 0.51232(9) 0.55159(9) 0.63497(15)
H53 H 0.5086 0.5431 0.5897
C57 C 0.55542(13) 0.53022(13) 0.79152(19)
H54 H 0.5674 0.5163 0.7659
H55 H 0.5342 0.5102 0.8219
H56 H 0.5773 0.5530 0.8173
C58 C 0.49878(8) 0.57830(8) 0.65709(13)
O5 O 0.42181(7) 0.62950(6) 0.37369(9)
N7 N 0.40733(8) 0.56430(7) 0.37742(11)
O6 O 0.42299(7) 0.59738(6) 0.27810(9)
N8 N 0.42093(8) 0.46007(7) 0.31701(12)
N9 N 0.33837(10) 0.47107(9) 0.48349(16)
S3 S 0.35152(3) 0.40762(2) 0.37292(5)
C59 C 0.40910(13) 0.42132(11) 0.29011(15)
C60 C 0.43301(18) 0.41450(15) 0.24361(18)
H57 H 0.4584 0.4368 0.2272
C61 C 0.35741(10) 0.50490(9) 0.30699(15)
C62 C 0.3820(3) 0.34291(17) 0.2454(2)
H58 H 0.3728 0.3158 0.2285
C63 C 0.4188(2) 0.37478(17) 0.2225(2)
H59 H 0.4346 0.3692 0.1914
C64 C 0.3575(2) 0.34804(13) 0.2922(2)
H60 H 0.3323 0.3253 0.3083
C65 C 0.37227(16) 0.38892(11) 0.31444(17)
C66 C 0.44148(9) 0.51495(8) 0.43520(14)
H61 H 0.4644 0.5253 0.4023
H62 H 0.4447 0.5390 0.4611
C67 C 0.39938(8) 0.49495(7) 0.39757(13)
C68 C 0.36498(9) 0.48162(8) 0.44620(14)
C69 C 0.44497(8) 0.48500(8) 0.48172(13)
C70 C 0.42940(9) 0.47918(9) 0.54662(15)
H63 H 0.4178 0.4952 0.5625
C71 C 0.43088(10) 0.45029(11) 0.58755(16)
H64 H 0.4208 0.4471 0.6319
C72 C 0.44675(11) 0.42588(12) 0.56536(19)
H65 H 0.4470 0.4056 0.5938
C73 C 0.46225(12) 0.43125(13) 0.50115(19)
H66 H 0.4734 0.4148 0.4854
C74 C 0.46136(10) 0.46048(12) 0.46030(17)
H67 H 0.4722 0.4640 0.4164
C75 C 0.39363(8) 0.45681(8) 0.36010(13)
C76 C 0.32167(10) 0.50249(10) 0.33368(19)
H68 H 0.3230 0.5153 0.3753
C77 C 0.28436(11) 0.48174(11) 0.3002(2)
H69 H 0.2602 0.4800 0.3195
C78 C 0.28158(13) 0.46331(12) 0.2384(3)
C79 C 0.24086(17) 0.44064(15) 0.2015(3)
H70 H 0.2462 0.4390 0.1541
H71 H 0.2256 0.4557 0.2067
H72 H 0.2243 0.4125 0.2196
C80 C 0.31801(15) 0.46679(13) 0.2115(2)
H73 H 0.3170 0.4548 0.1692
C81 C 0.35534(12) 0.48727(11) 0.24522(18)
H74 H 0.3797 0.4893 0.2261
C82 C 0.42704(9) 0.66693(8) 0.33939(14)
C83 C 0.46708(13) 0.68699(12) 0.2997(2)
H75 H 0.4718 0.7133 0.2810
H76 H 0.4651 0.6684 0.2635
H77 H 0.4903 0.6922 0.3290
C84 C 0.38997(13) 0.65529(13) 0.2958(2)
H78 H 0.3916 0.6805 0.2775
H79 H 0.3645 0.6402 0.3222
H80 H 0.3896 0.6376 0.2593
C85 C 0.42936(14) 0.69434(10) 0.39626(18)
H81 H 0.4364 0.7218 0.3791
H82 H 0.4507 0.6972 0.4278
H83 H 0.4024 0.6819 0.4189
C86 C 0.41778(8) 0.59737(8) 0.33758(13)
C87 C 0.39825(9) 0.52538(8) 0.34499(13)
H84 H 0.4209 0.5320 0.3121
O7 O 0.42710(7) 0.60379(7) 0.77584(9)
S4 S 0.36029(3) 0.41088(2) 0.86071(5)
N10 N 0.33431(9) 0.47011(9) 0.96357(17)
N11 N 0.43072(8) 0.46797(8) 0.81428(12)
N12 N 0.40561(8) 0.56575(7) 0.87049(12)
O8 O 0.41711(8) 0.62991(6) 0.87208(10)
C88 C 0.42566(10) 0.66937(8) 0.84213(15)
C89 C 0.46975(15) 0.69227(13) 0.8160(3)
H85 H 0.4768 0.7204 0.8024
H86 H 0.4721 0.6773 0.7776
H87 H 0.4889 0.6939 0.8511
C90 C 0.39410(15) 0.66157(15) 0.7895(2)
H88 H 0.3969 0.6881 0.7752
H89 H 0.3662 0.6437 0.8075
H90 H 0.3985 0.6478 0.7513
C91 C 0.42112(17) 0.69224(12) 0.9007(2)
H91 H 0.4297 0.7208 0.8876
H92 H 0.4387 0.6926 0.9374
H93 H 0.3920 0.6782 0.9151
C92 C 0.41732(8) 0.60041(8) 0.83392(13)
C93 C 0.40101(9) 0.52894(8) 0.83649(13)
H94 H 0.4261 0.5380 0.8078
C94 C 0.36290(11) 0.50787(10) 0.79147(17)
C95 C 0.36582(14) 0.49165(11) 0.73063(18)
H95 H 0.3919 0.4955 0.7162
C96 C 0.33145(18) 0.47017(13) 0.6913(2)
H96 H 0.3342 0.4593 0.6500
C97 C 0.29297(17) 0.46378(12) 0.7099(3)
C98 C 0.29026(14) 0.48086(12) 0.7710(3)
H97 H 0.2643 0.4772 0.7851
C99 C 0.32488(11) 0.50283(10) 0.8106(2)
H98 H 0.3226 0.5146 0.8513
C100 C 0.2543(2) 0.43910(16) 0.6690(4)
H99 H 0.2309 0.4396 0.6905
H100 H 0.2483 0.4103 0.6654
H101 H 0.2586 0.4513 0.6244
C101 C 0.39998(9) 0.46181(8) 0.85223(13)
C102 C 0.44341(11) 0.43050(12) 1.06763(18)
H102 H 0.4435 0.4104 1.0968
C103 C 0.42479(11) 0.43120(9) 0.78894(14)
C104 C 0.45375(13) 0.42741(11) 0.74818(16)
H103 H 0.4791 0.4512 0.7352
C105 C 0.44409(15) 0.38845(12) 0.72809(17)
H104 H 0.4632 0.3851 0.7011
C106 C 0.40693(16) 0.35371(12) 0.74639(19)
H105 H 0.4009 0.3272 0.7304
C107 C 0.37850(15) 0.35635(11) 0.7868(2)
H106 H 0.3535 0.3322 0.7997
C108 C 0.38793(13) 0.39617(10) 0.80833(17)
C109 C 0.44022(9) 0.51895(8) 0.93376(14)
H107 H 0.4652 0.5314 0.9049
H108 H 0.4402 0.5417 0.9594
C110 C 0.44283(8) 0.48912(8) 0.98144(14)
C111 C 0.46233(10) 0.46695(12) 0.96384(17)
H109 H 0.4761 0.4721 0.9221
C112 C 0.46198(12) 0.43757(13) 1.00612(19)
H110 H 0.4747 0.4221 0.9926
C113 C 0.42460(10) 0.45290(10) 1.08661(16)
H111 H 0.4122 0.4486 1.1294
C114 C 0.40075(8) 0.49789(8) 0.88924(14)
C115 C 0.36332(9) 0.48198(8) 0.93159(16)
C116 C 0.42365(9) 0.48156(9) 1.04361(15)
H112 H 0.4099 0.4961 1.0565
loop_
_geom_bond_atom_site_label_1
_geom_bond_atom_site_label_2
_geom_bond_site_symmetry_1
_geom_bond_site_symmetry_2
S1 C8 1_555 1_555
C1 H1 1_555 1_555
O1 C25 1_555 1_555
N1 C8 1_555 1_555
C2 H2 1_555 1_555
N2 C16 1_555 1_555
C3 H3 1_555 1_555
C4 C2 1_555 1_555
H4 C4 1_555 1_555
C5 H5 1_555 1_555
H6 C5 1_555 1_555
C6 C1 1_555 1_555
C7 C5 1_555 1_555
C8 C7 1_555 1_555
C9 S1 1_555 1_555
C10 C9 1_555 1_555
H7 C10 1_555 1_555
C11 C10 1_555 1_555
H8 C11 1_555 1_555
C12 C11 1_555 1_555
H9 C12 1_555 1_555
C13 C12 1_555 1_555
H10 C13 1_555 1_555
C14 N1 1_555 1_555
C15 C7 1_555 1_555
C16 C7 1_555 1_555
H11 C16 1_555 1_555
C17 C16 1_555 1_555
C18 C17 1_555 1_555
H12 C18 1_555 1_555
C19 C18 1_555 1_555
H13 C19 1_555 1_555
C20 C19 1_555 1_555
C21 C20 1_555 1_555
H14 C21 1_555 1_555
C22 C20 1_555 1_555
H15 C22 1_555 1_555
H16 C22 1_555 1_555
H17 C22 1_555 1_555
C23 C17 1_555 1_555
H18 C23 1_555 1_555
C24 H19 1_555 1_555
H20 C24 1_555 1_555
H21 C24 1_555 1_555
C25 N2 1_555 1_555
C26 C24 1_555 1_555
C27 C26 1_555 1_555
H22 C27 1_555 1_555
H23 C27 1_555 1_555
H24 C27 1_555 1_555
C28 C26 1_555 1_555
H25 C28 1_555 1_555
H26 C28 1_555 1_555
H27 C28 1_555 1_555
C29 C1 1_555 1_555
H28 C29 1_555 1_555
O2 C25 1_555 1_555
N3 C15 1_555 1_555
S2 C37 1_555 1_555
O3 C46 1_555 1_555
O4 C46 1_555 1_555
N4 C37 1_555 1_555
N5 C46 1_555 1_555
N6 C38 1_555 1_555
C30 H29 1_555 1_555
C31 C30 1_555 1_555
H30 C31 1_555 1_555
C32 C31 1_555 1_555
H31 C32 1_555 1_555
C33 C32 1_555 1_555
H32 C33 1_555 1_555
C34 C33 1_555 1_555
H33 C34 1_555 1_555
C35 C30 1_555 1_555
C36 C37 1_555 1_555
C38 C36 1_555 1_555
C39 C35 1_555 1_555
H34 C39 1_555 1_555
H35 C39 1_555 1_555
C40 N4 1_555 1_555
C41 C40 1_555 1_555
H36 C41 1_555 1_555
C42 C41 1_555 1_555
H37 C42 1_555 1_555
C43 C42 1_555 1_555
H38 C43 1_555 1_555
C44 C43 1_555 1_555
H39 C44 1_555 1_555
C45 S2 1_555 1_555
C47 O4 1_555 1_555
C48 C47 1_555 1_555
H40 C48 1_555 1_555
H41 C48 1_555 1_555
H42 C48 1_555 1_555
C49 C47 1_555 1_555
H43 C49 1_555 1_555
H44 C49 1_555 1_555
H45 C49 1_555 1_555
C50 C47 1_555 1_555
H46 C50 1_555 1_555
H47 C50 1_555 1_555
H48 C50 1_555 1_555
C51 H49 1_555 1_555
C52 N5 1_555 1_555
H50 C52 1_555 1_555
C53 C51 1_555 1_555
H51 C53 1_555 1_555
C54 C53 1_555 1_555
C55 C54 1_555 1_555
H52 C55 1_555 1_555
C56 C55 1_555 1_555
H53 C56 1_555 1_555
C57 C54 1_555 1_555
H54 C57 1_555 1_555
H55 C57 1_555 1_555
H56 C57 1_555 1_555
C58 C51 1_555 1_555
O5 C82 1_555 1_555
N7 C86 1_555 1_555
O6 C86 1_555 1_555
N8 C59 1_555 1_555
N9 C68 1_555 1_555
S3 C65 1_555 1_555
C59 C60 1_555 1_555
C60 H57 1_555 1_555
C61 C76 1_555 1_555
C62 H58 1_555 1_555
C63 C60 1_555 1_555
H59 C63 1_555 1_555
C64 C62 1_555 1_555
H60 C64 1_555 1_555
C65 C59 1_555 1_555
C66 H61 1_555 1_555
H62 C66 1_555 1_555
C67 C66 1_555 1_555
C68 C67 1_555 1_555
C69 C66 1_555 1_555
C70 C69 1_555 1_555
H63 C70 1_555 1_555
C71 C70 1_555 1_555
H64 C71 1_555 1_555
C72 C71 1_555 1_555
H65 C72 1_555 1_555
C73 C72 1_555 1_555
H66 C73 1_555 1_555
C74 C69 1_555 1_555
H67 C74 1_555 1_555
C75 N8 1_555 1_555
C76 H68 1_555 1_555
C77 C76 1_555 1_555
H69 C77 1_555 1_555
C78 C77 1_555 1_555
C79 C78 1_555 1_555
H70 C79 1_555 1_555
H71 C79 1_555 1_555
H72 C79 1_555 1_555
C80 C78 1_555 1_555
H73 C80 1_555 1_555
C81 C61 1_555 1_555
H74 C81 1_555 1_555
C82 C83 1_555 1_555
C83 H75 1_555 1_555
H76 C83 1_555 1_555
H77 C83 1_555 1_555
C84 C82 1_555 1_555
H78 C84 1_555 1_555
H79 C84 1_555 1_555
H80 C84 1_555 1_555
C85 C82 1_555 1_555
H81 C85 1_555 1_555
H82 C85 1_555 1_555
H83 C85 1_555 1_555
C86 O5 1_555 1_555
C87 N7 1_555 1_555
H84 C87 1_555 1_555
O7 C92 1_555 1_555
S4 C101 1_555 1_555
N10 C115 1_555 1_555
N11 C101 1_555 1_555
N12 C92 1_555 1_555
O8 C88 1_555 1_555
C88 C89 1_555 1_555
C89 H85 1_555 1_555
H86 C89 1_555 1_555
H87 C89 1_555 1_555
C90 C88 1_555 1_555
H88 C90 1_555 1_555
H89 C90 1_555 1_555
H90 C90 1_555 1_555
C91 C88 1_555 1_555
H91 C91 1_555 1_555
H92 C91 1_555 1_555
H93 C91 1_555 1_555
C92 O8 1_555 1_555
C93 N12 1_555 1_555
H94 C93 1_555 1_555
C94 C93 1_555 1_555
C95 C94 1_555 1_555
H95 C95 1_555 1_555
C96 C95 1_555 1_555
H96 C96 1_555 1_555
C97 C96 1_555 1_555
C98 C97 1_555 1_555
H97 C98 1_555 1_555
C99 C94 1_555 1_555
H98 C99 1_555 1_555
C100 C97 1_555 1_555
H99 C100 1_555 1_555
H100 C100 1_555 1_555
H101 C100 1_555 1_555
C101 C114 1_555 1_555
C102 H102 1_555 1_555
C103 N11 1_555 1_555
C104 C103 1_555 1_555
H103 C104 1_555 1_555
C105 C104 1_555 1_555
H104 C105 1_555 1_555
C106 C105 1_555 1_555
H105 C106 1_555 1_555
C107 C106 1_555 1_555
H106 C107 1_555 1_555
C108 S4 1_555 1_555
C109 H107 1_555 1_555
H108 C109 1_555 1_555
C110 C109 1_555 1_555
C111 C110 1_555 1_555
H109 C111 1_555 1_555
C112 C102 1_555 1_555
H110 C112 1_555 1_555
C113 C102 1_555 1_555
H111 C113 1_555 1_555
C114 C93 1_555 1_555
C115 C114 1_555 1_555
C116 C110 1_555 1_555
H112 C116 1_555 1_555
C2 C29 1_555 1_555
C3 C4 1_555 1_555
C3 C6 1_555 1_555
C5 C6 1_555 1_555
C9 C14 1_555 1_555
C13 C14 1_555 1_555
C21 C23 1_555 1_555
C26 O2 1_555 1_555
C34 C35 1_555 1_555
C36 C39 1_555 1_555
C36 C52 1_555 1_555
C40 C45 1_555 1_555
C44 C45 1_555 1_555
C52 C58 1_555 1_555
C56 C58 1_555 1_555
S3 C75 1_555 1_555
C61 C87 1_555 1_555
C62 C63 1_555 1_555
C64 C65 1_555 1_555
C67 C75 1_555 1_555
C67 C87 1_555 1_555
C73 C74 1_555 1_555
C80 C81 1_555 1_555
C98 C99 1_555 1_555
C103 C108 1_555 1_555
C107 C108 1_555 1_555
C109 C114 1_555 1_555
C111 C112 1_555 1_555
C113 C116 1_555 1_555

#END
