
#######################################################################
#
#                 Cambridge Crystallographic Data Centre
#                                CCDC 
#
#######################################################################
#
# If this CIF has been generated from an entry in the Cambridge 
# Structural Database, then it will include bibliographic, chemical, 
# crystal, experimental, refinement or atomic coordinate data resulting 
# from the CCDC's data processing and validation procedures.
#
#######################################################################

data_SIDWOU
_chemical_formula_moiety         'C21 H34 O4'
_chemical_name_systematic        
1-(methoxymethyl)-4,9a-dimethyl-7-(propan-2-yl)-1,2,3,3a,4,5,6,8,9,9a-decahydrodicyclopenta[a,d][8]annulene-1,5,9-triol
_symmetry_cell_setting           monoclinic
_symmetry_space_group_name_H-M   'P 21'
_symmetry_Int_Tables_number      4
_space_group_name_Hall           'P 2yb'
loop_
_symmetry_equiv_pos_site_id
_symmetry_equiv_pos_as_xyz
1 x,y,z
2 -x,1/2+y,-z
_cell_length_a                   9.4900(2)
_cell_length_b                   23.5415(4)
_cell_length_c                   14.3791(3)
_cell_angle_alpha                90
_cell_angle_beta                 90.026(6)
_cell_angle_gamma                90
_cell_volume                     3212.42
_exptl_crystal_colour            colorless
_exptl_crystal_description       block
_cell_formula_units_Z            6
loop_
_atom_site_label
_atom_site_type_symbol
_atom_site_fract_x
_atom_site_fract_y
_atom_site_fract_z
C1 C 0.9502(4) 0.56866(18) -0.0161(3)
H1 H 0.9777 0.5641 -0.0777
C2 C 0.8129(5) 0.56255(18) -0.0029(3)
C3 C 0.7131(5) 0.5514(2) -0.0858(3)
C4 C 0.5823(5) 0.5263(2) -0.0398(4)
H2 H 0.4994 0.5317 -0.0783
H3 H 0.5943 0.4861 -0.0273
C5 C 0.5717(5) 0.5602(2) 0.0501(3)
H4 H 0.5129 0.5407 0.0950
H5 H 0.5321 0.5976 0.0384
C6 C 0.7245(4) 0.56511(19) 0.0858(3)
H6 H 0.7368 0.6026 0.1142
C7 C 0.7574(5) 0.5187(2) 0.1609(3)
H7 H 0.6659 0.5086 0.1878
C8 C 0.8431(5) 0.5435(2) 0.2415(3)
H8 H 0.8002 0.5797 0.2592
C9 C 0.9985(5) 0.5540(2) 0.2229(3)
H9 H 1.0428 0.5663 0.2803
H10 H 1.0420 0.5184 0.2048
C10 C 1.0280(4) 0.5975(2) 0.1488(3)
C11 C 1.0719(5) 0.58163(18) 0.0494(3)
C12 C 1.1435(5) 0.6380(2) 0.0196(3)
H11 H 1.2409 0.6380 0.0423
C13 C 1.0615(6) 0.6836(2) 0.0706(4)
H12 H 1.1195 0.7166 0.0829
H13 H 0.9786 0.6951 0.0359
C14 C 1.0223(5) 0.6537(2) 0.1586(3)
C15 C 0.9789(8) 0.6863(3) 0.2444(4)
H14 H 0.9396 0.6591 0.2890
C16 C 0.7772(6) 0.5128(3) -0.1580(4)
H15 H 0.8541 0.5323 -0.1889
H16 H 0.8151 0.4792 -0.1280
C17 C 0.8180(6) 0.4632(2) 0.1244(4)
H17 H 0.9050 0.4707 0.0927
H18 H 0.7523 0.4462 0.0820
H19 H 0.8349 0.4379 0.1755
C18 C 1.1779(5) 0.5327(2) 0.0432(4)
H20 H 1.1298 0.4972 0.0522
H21 H 1.2486 0.5372 0.0905
H22 H 1.2218 0.5329 -0.0169
C19 C 1.1044(10) 0.7140(5) 0.2890(7)
H23 H 1.1182 0.7510 0.2625
H24 H 1.1866 0.6912 0.2783
H25 H 1.0886 0.7175 0.3547
C20 C 0.8676(13) 0.7288(6) 0.2227(10)
H26 H 0.8283 0.7431 0.2796
H27 H 0.7947 0.7111 0.1866
H28 H 0.9080 0.7596 0.1880
C21 C 0.7319(8) 0.4596(3) -0.2909(4)
H29 H 0.8138 0.4767 -0.3183
H30 H 0.6631 0.4523 -0.3385
H31 H 0.7578 0.4245 -0.2616
O1 O 0.6698(4) 0.60473(16) -0.1265(3)
H32 H 0.7357 0.6185 -0.1558
O2 O 0.8361(4) 0.50627(18) 0.3204(2)
H33 H 0.7555 0.5059 0.3408
O3 O 1.1443(4) 0.64799(16) -0.0787(2)
H34 H 1.2257 0.6476 -0.0978
O4 O 0.6749(5) 0.4964(2) -0.2247(3)
C22 C 0.7357(5) 0.7682(2) 0.8818(4)
H35 H 0.7495 0.7446 0.9328
C23 C 0.6039(5) 0.78510(17) 0.8718(3)
C24 C 0.4891(6) 0.7624(2) 0.9364(4)
C25 C 0.3601(6) 0.7607(2) 0.8746(4)
H36 H 0.3601 0.7270 0.8360
H37 H 0.2744 0.7614 0.9113
C26 C 0.3728(6) 0.8136(2) 0.8162(5)
H38 H 0.3371 0.8463 0.8497
H39 H 0.3202 0.8095 0.7587
C27 C 0.5330(5) 0.82045(18) 0.7958(3)
H40 H 0.5523 0.8019 0.7362
C28 C 0.5721(5) 0.88471(18) 0.7849(4)
H41 H 0.4864 0.9032 0.7618
C29 C 0.6845(5) 0.89552(19) 0.7104(4)
H42 H 0.6559 0.8761 0.6532
C30 C 0.8331(5) 0.8762(2) 0.7356(4)
H43 H 0.8992 0.8919 0.6910
H44 H 0.8575 0.8909 0.7965
C31 C 0.8469(5) 0.8120(2) 0.7364(4)
C32 C 0.8685(5) 0.7795(2) 0.8270(4)
C33 C 0.9233(7) 0.7223(3) 0.7852(6)
H45 H 1.0250 0.7260 0.7753
C34 C 0.8534(10) 0.7168(3) 0.6903(6)
H46 H 0.7610 0.6994 0.6949
H47 H 0.9111 0.6952 0.6474
C35 C 0.8436(8) 0.7790(2) 0.6619(4)
C36 C 0.4727(8) 0.8014(3) 1.0200(5)
H48 H 0.5540 0.7974 1.0603
H49 H 0.4686 0.8406 0.9991
C37 C 0.6056(7) 0.9139(2) 0.8761(5)
H50 H 0.6816 0.8944 0.9064
H51 H 0.5239 0.9133 0.9154
H52 H 0.6326 0.9525 0.8643
C38 C 0.9770(7) 0.8070(3) 0.8914(7)
H53 H 0.9362 0.8398 0.9206
H54 H 1.0579 0.8183 0.8559
H55 H 1.0051 0.7803 0.9382
C39 C 0.813(2) 0.7951(6) 0.5594(7)
H56 H 0.8031 0.8365 0.5578
C40 C 0.946(4) 0.7810(13) 0.5055(17)
H57 H 0.9886 0.7476 0.5313
H58 H 1.0105 0.8122 0.5095
H59 H 0.9223 0.7742 0.4415
C41 C 0.680(4) 0.7710(13) 0.5142(17)
H60 H 0.6677 0.7876 0.4538
H61 H 0.5997 0.7796 0.5522
H62 H 0.6890 0.7305 0.5082
C42 C 0.325(5) 0.8288(14) 1.143(3)
H63 H 0.3847 0.8203 1.1950
H64 H 0.2279 0.8268 1.1624
H65 H 0.3448 0.8663 1.1206
O5 O 0.5208(5) 0.70818(16) 0.9766(3)
H66 H 0.5377 0.6853 0.9351
O6 O 0.6852(4) 0.95601(14) 0.6933(3)
H67 H 0.7303 0.9627 0.6459
O7 O 0.9001(4) 0.67305(17) 0.8405(4)
H68 H 0.9372 0.6710 0.9003
O8 O 0.3488(7) 0.7883(2) 1.0704(4)
C47 C 0.2655(5) 0.55478(18) 0.4815(3)
H80 H 0.2371 0.5590 0.4200
C48 C 0.4023(5) 0.56183(19) 0.4939(3)
C49 C 0.5005(5) 0.5736(2) 0.4109(3)
C50 C 0.6308(6) 0.5991(3) 0.4561(4)
H81 H 0.6180 0.6393 0.4687
H82 H 0.7133 0.5941 0.4171
C51 C 0.6439(5) 0.5653(3) 0.5461(4)
H83 H 0.7023 0.5853 0.5908
H84 H 0.6849 0.5282 0.5344
C52 C 0.4912(5) 0.5594(2) 0.5825(3)
H85 H 0.4807 0.5215 0.6098
C53 C 0.4593(5) 0.6043(2) 0.6595(3)
H86 H 0.5508 0.6136 0.6872
C54 C 0.3714(5) 0.5787(2) 0.7385(3)
H87 H 0.4130 0.5420 0.7548
C55 C 0.2158(5) 0.5693(2) 0.7205(3)
H88 H 0.1711 0.5573 0.7779
H89 H 0.1734 0.6051 0.7020
C56 C 0.1872(4) 0.5255(2) 0.6460(3)
C57 C 0.1453(5) 0.54116(18) 0.5474(3)
C58 C 0.0752(5) 0.4841(2) 0.5164(3)
H90 H -0.0224 0.4839 0.5387
C59 C 0.1558(7) 0.4387(2) 0.5689(4)
H91 H 0.0974 0.4057 0.5808
H92 H 0.2395 0.4271 0.5352
C60 C 0.1934(6) 0.4694(2) 0.6584(3)
C61 C 0.2311(8) 0.4371(3) 0.7458(5)
H93 H 0.2664 0.4648 0.7910
C62 C 0.4343(6) 0.6125(3) 0.3375(4)
H94 H 0.3584 0.5927 0.3061
H95 H 0.3953 0.6460 0.3673
C63 C 0.3995(8) 0.6608(2) 0.6241(4)
H96 H 0.3219 0.6536 0.5829
H97 H 0.4716 0.6813 0.5914
H98 H 0.3675 0.6831 0.6759
C64 C 0.0357(5) 0.5892(2) 0.5416(4)
H99 H 0.0802 0.6249 0.5554
H100 H -0.0382 0.5823 0.5858
H101 H -0.0035 0.5905 0.4801
C65 C 0.3476(11) 0.3954(6) 0.7278(9)
H102 H 0.3390 0.3640 0.7699
H103 H 0.4367 0.4139 0.7374
H104 H 0.3419 0.3820 0.6649
C66 C 0.1072(10) 0.4083(5) 0.7887(7)
H105 H 0.0293 0.4342 0.7913
H106 H 0.1310 0.3962 0.8506
H107 H 0.0818 0.3758 0.7520
C67 C 0.4843(9) 0.6702(4) 0.2114(5)
H108 H 0.3983 0.6568 0.1839
H109 H 0.5523 0.6774 0.1634
H110 H 0.4662 0.7046 0.2451
O9 O 0.5440(4) 0.52051(16) 0.3697(2)
H111 H 0.4743 0.5013 0.3578
O10 O 0.3799(4) 0.61480(16) 0.8194(2)
H112 H 0.4626 0.6185 0.8348
O11 O 0.0738(4) 0.47327(16) 0.4191(2)
H113 H -0.0026 0.4827 0.3974
O12 O 0.5371(5) 0.6287(2) 0.2727(3)
C43? C 0.876(3) 0.7992(10) 0.5652(10)
H69? H 0.8547 0.8399 0.5619
C44? C 1.027(3) 0.7904(15) 0.535(2)
H70? H 1.0858 0.8182 0.5647
H71? H 1.0336 0.7943 0.4689
H72? H 1.0571 0.7530 0.5530
C45? C 0.769(5) 0.7678(17) 0.506(2)
H73? H 0.7750 0.7278 0.5178
H74? H 0.7882 0.7748 0.4411
H75? H 0.6757 0.7810 0.5203
C46? C 0.283(4) 0.8376(10) 1.109(3)
H76? H 0.3462 0.8692 1.1055
H77? H 0.2583 0.8305 1.1726
H78? H 0.1987 0.8461 1.0741
H79? H 0.8479 0.6429 0.8169
loop_
_geom_bond_atom_site_label_1
_geom_bond_atom_site_label_2
_geom_bond_site_symmetry_1
_geom_bond_site_symmetry_2
C1 H1 1_555 1_555
C2 C1 1_555 1_555
C3 C2 1_555 1_555
C4 C3 1_555 1_555
H2 C4 1_555 1_555
H3 C4 1_555 1_555
C5 C4 1_555 1_555
H4 C5 1_555 1_555
H5 C5 1_555 1_555
C6 C2 1_555 1_555
H6 C6 1_555 1_555
C7 C6 1_555 1_555
H7 C7 1_555 1_555
C8 C7 1_555 1_555
H8 C8 1_555 1_555
C9 C8 1_555 1_555
H9 C9 1_555 1_555
H10 C9 1_555 1_555
C10 C9 1_555 1_555
C11 C1 1_555 1_555
C12 C11 1_555 1_555
H11 C12 1_555 1_555
C13 C12 1_555 1_555
H12 C13 1_555 1_555
H13 C13 1_555 1_555
C14 C10 1_555 1_555
C15 C14 1_555 1_555
H14 C15 1_555 1_555
C16 C3 1_555 1_555
H15 C16 1_555 1_555
H16 C16 1_555 1_555
C17 C7 1_555 1_555
H17 C17 1_555 1_555
H18 C17 1_555 1_555
H19 C17 1_555 1_555
C18 C11 1_555 1_555
H20 C18 1_555 1_555
H21 C18 1_555 1_555
H22 C18 1_555 1_555
C19 C15 1_555 1_555
H23 C19 1_555 1_555
H24 C19 1_555 1_555
H25 C19 1_555 1_555
C20 C15 1_555 1_555
H26 C20 1_555 1_555
H27 C20 1_555 1_555
H28 C20 1_555 1_555
C21 H29 1_555 1_555
H30 C21 1_555 1_555
H31 C21 1_555 1_555
O1 C3 1_555 1_555
H32 O1 1_555 1_555
O2 C8 1_555 1_555
H33 O2 1_555 1_555
O3 C12 1_555 1_555
H34 O3 1_555 1_555
O4 C16 1_555 1_555
C22 H35 1_555 1_555
C23 C22 1_555 1_555
C24 C23 1_555 1_555
C25 C24 1_555 1_555
H36 C25 1_555 1_555
H37 C25 1_555 1_555
C26 C25 1_555 1_555
H38 C26 1_555 1_555
H39 C26 1_555 1_555
C27 C23 1_555 1_555
H40 C27 1_555 1_555
C28 C27 1_555 1_555
H41 C28 1_555 1_555
C29 C28 1_555 1_555
H42 C29 1_555 1_555
C30 C29 1_555 1_555
H43 C30 1_555 1_555
H44 C30 1_555 1_555
C31 C30 1_555 1_555
C32 C22 1_555 1_555
C33 C32 1_555 1_555
H45 C33 1_555 1_555
C34 C33 1_555 1_555
H46 C34 1_555 1_555
H47 C34 1_555 1_555
C35 C31 1_555 1_555
C36 C24 1_555 1_555
H48 C36 1_555 1_555
H49 C36 1_555 1_555
C37 C28 1_555 1_555
H50 C37 1_555 1_555
H51 C37 1_555 1_555
H52 C37 1_555 1_555
C38 C32 1_555 1_555
H53 C38 1_555 1_555
H54 C38 1_555 1_555
H55 C38 1_555 1_555
C39 C35 1_555 1_555
H56 C39 1_555 1_555
C40 C39 1_555 1_555
H57 C40 1_555 1_555
H58 C40 1_555 1_555
H59 C40 1_555 1_555
C41 C39 1_555 1_555
H60 C41 1_555 1_555
H61 C41 1_555 1_555
H62 C41 1_555 1_555
C42 H63 1_555 1_555
H64 C42 1_555 1_555
H65 C42 1_555 1_555
O5 C24 1_555 1_555
H66 O5 1_555 1_555
O6 C29 1_555 1_555
H67 O6 1_555 1_555
O7 C33 1_555 1_555
H68 O7 1_555 1_555
O8 C36 1_555 1_555
C47 H80 1_555 1_555
C48 C47 1_555 1_555
C49 C48 1_555 1_555
C50 C49 1_555 1_555
H81 C50 1_555 1_555
H82 C50 1_555 1_555
C51 C50 1_555 1_555
H83 C51 1_555 1_555
H84 C51 1_555 1_555
C52 C48 1_555 1_555
H85 C52 1_555 1_555
C53 C52 1_555 1_555
H86 C53 1_555 1_555
C54 C53 1_555 1_555
H87 C54 1_555 1_555
C55 C54 1_555 1_555
H88 C55 1_555 1_555
H89 C55 1_555 1_555
C56 C55 1_555 1_555
C57 C47 1_555 1_555
C58 C57 1_555 1_555
H90 C58 1_555 1_555
C59 C58 1_555 1_555
H91 C59 1_555 1_555
H92 C59 1_555 1_555
C60 C56 1_555 1_555
C61 C60 1_555 1_555
H93 C61 1_555 1_555
C62 C49 1_555 1_555
H94 C62 1_555 1_555
H95 C62 1_555 1_555
C63 C53 1_555 1_555
H96 C63 1_555 1_555
H97 C63 1_555 1_555
H98 C63 1_555 1_555
C64 C57 1_555 1_555
H99 C64 1_555 1_555
H100 C64 1_555 1_555
H101 C64 1_555 1_555
C65 C61 1_555 1_555
H102 C65 1_555 1_555
H103 C65 1_555 1_555
H104 C65 1_555 1_555
C66 C61 1_555 1_555
H105 C66 1_555 1_555
H106 C66 1_555 1_555
H107 C66 1_555 1_555
C67 H108 1_555 1_555
H109 C67 1_555 1_555
H110 C67 1_555 1_555
O9 C49 1_555 1_555
H111 O9 1_555 1_555
O10 C54 1_555 1_555
H112 O10 1_555 1_555
O11 C58 1_555 1_555
H113 O11 1_555 1_555
O12 C62 1_555 1_555
C5 C6 1_555 1_555
C10 C11 1_555 1_555
C13 C14 1_555 1_555
C21 O4 1_555 1_555
C26 C27 1_555 1_555
C31 C32 1_555 1_555
C34 C35 1_555 1_555
C42 O8 1_555 1_555
C51 C52 1_555 1_555
C56 C57 1_555 1_555
C59 C60 1_555 1_555
C67 O12 1_555 1_555

#END
