
#######################################################################
#
#                 Cambridge Crystallographic Data Centre
#                                CCDC 
#
#######################################################################
#
# If this CIF has been generated from an entry in the Cambridge 
# Structural Database, then it will include bibliographic, chemical, 
# crystal, experimental, refinement or atomic coordinate data resulting 
# from the CCDC's data processing and validation procedures.
#
#######################################################################

data_SIDWUA
_chemical_formula_moiety         'C21 H32 O6'
_chemical_name_systematic        
12-hydroperoxy-3,10-dihydroxy-3-(methoxymethyl)-11,12-dimethyl-7-(propan-2-yl)-1,2,3,5,9,10,11,11a-octahydro-6H-5,8-methanocyclopenta[10]annulen-6-one
_symmetry_cell_setting           monoclinic
_symmetry_space_group_name_H-M   'P 21'
_symmetry_Int_Tables_number      4
_space_group_name_Hall           'P 2yb'
loop_
_symmetry_equiv_pos_site_id
_symmetry_equiv_pos_as_xyz
1 x,y,z
2 -x,1/2+y,-z
_cell_length_a                   7.9776(2)
_cell_length_b                   16.7122(4)
_cell_length_c                   8.7185(2)
_cell_angle_alpha                90
_cell_angle_beta                 116.1470(10)
_cell_angle_gamma                90
_cell_volume                     1043.43
_exptl_crystal_colour            colorless
_exptl_crystal_description       block
_cell_formula_units_Z            2
loop_
_atom_site_label
_atom_site_type_symbol
_atom_site_fract_x
_atom_site_fract_y
_atom_site_fract_z
C1 C 0.3279(4) 0.13669(19) 0.4568(4)
H1 H 0.3720 0.1491 0.3771
C2 C 0.2760(4) 0.20056(19) 0.5171(4)
C3 C 0.3328(5) 0.2837(2) 0.4788(5)
C4 C 0.2552(6) 0.3425(2) 0.5644(5)
H2 H 0.1269 0.3565 0.4894
H3 H 0.3299 0.3909 0.5986
C5 C 0.2685(5) 0.2956(2) 0.7193(5)
H4 H 0.1904 0.3195 0.7663
H5 H 0.3963 0.2938 0.8075
C6 C 0.1980(4) 0.21066(18) 0.6488(4)
H6 H 0.2612 0.1721 0.7412
C7 C -0.0185(4) 0.20374(19) 0.5905(4)
H7 H -0.0464 0.2491 0.6467
C8 C -0.0732(4) 0.1303(2) 0.6646(4)
H8 H 0.0155 0.1260 0.7856
C9 C -0.0856(5) 0.04805(19) 0.5817(5)
H9 H -0.1224 0.0080 0.6415
H10 H -0.1796 0.0495 0.4637
C10 C 0.0992(4) 0.02608(17) 0.5884(4)
C11 C 0.1354(5) 0.01114(19) 0.4325(4)
C12 C 0.3292(5) 0.04791(18) 0.4923(4)
H11 H 0.3981 0.0193 0.4398
C13 C 0.4157(4) 0.02998(19) 0.6831(4)
C14 C 0.2615(4) 0.02026(19) 0.7317(4)
C15 C 0.2921(6) 0.0061(3) 0.9127(5)
H12 H 0.1693 0.0048 0.9127
C16 C 0.2775(8) 0.3022(3) 0.2919(7)
H13 H 0.3194 0.3554 0.2811
H14 H 0.3358 0.2641 0.2464
C17 C -0.1451(5) 0.2173(3) 0.4003(5)
H15 H -0.0975 0.1879 0.3334
H16 H -0.1479 0.2733 0.3747
H17 H -0.2692 0.1993 0.3737
C18 C -0.0095(6) 0.0367(3) 0.2570(5)
H18 H 0.0245 0.0165 0.1715
H19 H -0.0155 0.0941 0.2511
H20 H -0.1293 0.0157 0.2374
C19 C 0.4081(9) 0.0705(4) 1.0390(5)
H21 H 0.5186 0.0809 1.0246
H22 H 0.4428 0.0523 1.1535
H23 H 0.3359 0.1187 1.0184
C20 C 0.3815(10) -0.0759(4) 0.9703(8)
H24 H 0.4985 -0.0776 0.9638
H25 H 0.2999 -0.1164 0.8973
H26 H 0.4024 -0.0854 1.0859
C21 C 0.035(6) 0.308(3) 0.024(2)
H27 H -0.0980 0.3046 -0.0420
H28 H 0.0786 0.3589 0.0078
H29 H 0.0935 0.2662 -0.0114
O1 O 0.5336(4) 0.29009(17) 0.5645(5)
H30 H 0.5798 0.2453 0.5774
O2 O -0.2534(4) 0.14915(17) 0.6552(4)
H31 H -0.2926 0.1107 0.6881
O3 O 0.5823(3) 0.03132(19) 0.7787(3)
O4 O 0.1540(4) -0.07533(15) 0.4387(4)
O5 O 0.1990(6) -0.1009(2) 0.3037(5)
H32 H 0.2629 -0.1415 0.3333
O6 O 0.0802(7) 0.2973(4) 0.1991(5)
C22? C -0.025(7) 0.277(4) 0.021(3)
H33? H -0.1563 0.2779 -0.0089
H34? H 0.0015 0.3144 -0.0484
H35? H 0.0090 0.2238 0.0014
loop_
_geom_bond_atom_site_label_1
_geom_bond_atom_site_label_2
_geom_bond_site_symmetry_1
_geom_bond_site_symmetry_2
C1 H1 1_555 1_555
C2 C1 1_555 1_555
C3 C2 1_555 1_555
C4 C3 1_555 1_555
H2 C4 1_555 1_555
H3 C4 1_555 1_555
C5 C4 1_555 1_555
H4 C5 1_555 1_555
H5 C5 1_555 1_555
C6 C2 1_555 1_555
H6 C6 1_555 1_555
C7 C6 1_555 1_555
H7 C7 1_555 1_555
C8 C7 1_555 1_555
H8 C8 1_555 1_555
C9 C8 1_555 1_555
H9 C9 1_555 1_555
H10 C9 1_555 1_555
C10 C9 1_555 1_555
C11 C10 1_555 1_555
C12 C1 1_555 1_555
H11 C12 1_555 1_555
C13 C12 1_555 1_555
C14 C10 1_555 1_555
C15 C14 1_555 1_555
H12 C15 1_555 1_555
C16 C3 1_555 1_555
H13 C16 1_555 1_555
H14 C16 1_555 1_555
C17 C7 1_555 1_555
H15 C17 1_555 1_555
H16 C17 1_555 1_555
H17 C17 1_555 1_555
C18 C11 1_555 1_555
H18 C18 1_555 1_555
H19 C18 1_555 1_555
H20 C18 1_555 1_555
C19 C15 1_555 1_555
H21 C19 1_555 1_555
H22 C19 1_555 1_555
H23 C19 1_555 1_555
C20 C15 1_555 1_555
H24 C20 1_555 1_555
H25 C20 1_555 1_555
H26 C20 1_555 1_555
C21 H27 1_555 1_555
H28 C21 1_555 1_555
H29 C21 1_555 1_555
O1 C3 1_555 1_555
H30 O1 1_555 1_555
O2 C8 1_555 1_555
H31 O2 1_555 1_555
O3 C13 1_555 1_555
O4 C11 1_555 1_555
O5 O4 1_555 1_555
H32 O5 1_555 1_555
O6 C16 1_555 1_555
C5 C6 1_555 1_555
C11 C12 1_555 1_555
C13 C14 1_555 1_555
C21 O6 1_555 1_555

#END
