
#######################################################################
#
#                 Cambridge Crystallographic Data Centre
#                                CCDC 
#
#######################################################################
#
# If this CIF has been generated from an entry in the Cambridge 
# Structural Database, then it will include bibliographic, chemical, 
# crystal, experimental, refinement or atomic coordinate data resulting 
# from the CCDC's data processing and validation procedures.
#
#######################################################################

data_SIFGOE02
_chemical_formula_moiety         'C19 H18 N1 O2 1+,C7 H7 O4 S1 1-'
_chemical_name_systematic        
'2-(2-(4-Hydroxy-3-methoxyphenyl)vinyl)-1-methylquinolinium 4-methoxybenzenesulfonate'
_symmetry_cell_setting           monoclinic
_symmetry_space_group_name_H-M   'P n'
_symmetry_Int_Tables_number      7
_space_group_name_Hall           'P -2yac'
loop_
_symmetry_equiv_pos_site_id
_symmetry_equiv_pos_as_xyz
1 x,y,z
2 1/2+x,-y,1/2+z
_cell_length_a                   8.1672(3)
_cell_length_b                   6.7031(3)
_cell_length_c                   20.7581(8)
_cell_angle_alpha                90
_cell_angle_beta                 91.9120(11)
_cell_angle_gamma                90
_cell_volume                     1135.78
_exptl_crystal_colour            brown
_exptl_crystal_description       block
_cell_formula_units_Z            2
loop_
_atom_site_label
_atom_site_type_symbol
_atom_site_fract_x
_atom_site_fract_y
_atom_site_fract_z
S1 S 0.90337(9) 0.23026(12) 0.36151(4)
C1 C 0.7439(4) 0.0565(4) 0.37303(14)
C2 C 0.4612(4) -0.0394(9) 0.37838(19)
H1 H 0.3499 -0.0117 0.3733
C3 C 0.5825(4) 0.1101(6) 0.36510(17)
H2 H 0.5524 0.2377 0.3517
C4 C 0.2530(6) -0.3873(10) 0.3887(3)
H3 H 0.1973 -0.5022 0.4048
H4 H 0.2583 -0.3963 0.3427
H5 H 0.1943 -0.2689 0.3999
C5 C 0.6718(6) -0.2743(6) 0.4071(2)
H6 H 0.7025 -0.4003 0.4218
C6 C 0.5160(5) -0.2279(5) 0.39925(19)
C7 C 0.7882(5) -0.1356(6) 0.3933(2)
H7 H 0.8985 -0.1695 0.3976
O1 O 1.0521(3) 0.1142(6) 0.35621(17)
O2 O 0.9091(3) 0.3519(4) 0.42022(12)
O3 O 0.8559(5) 0.3462(6) 0.30547(15)
O4 O 0.4051(4) -0.3796(5) 0.41489(19)
N1 N 1.0734(3) -0.2498(3) 0.09248(12)
C8 C 0.9121(4) -0.5483(5) 0.10605(15)
H8 H 0.9050 -0.5603 0.0614
C9 C 1.0070(4) -0.3372(4) 0.19984(14)
H9 H 0.9617 -0.4278 0.2281
C10 C 0.7568(3) -0.8633(4) 0.11258(14)
C11 C 0.6076(3) -1.1705(4) 0.13122(15)
C12 C 0.6563(4) -1.0613(5) 0.02307(15)
H10 H 0.6460 -1.0808 -0.0212
C13 C 1.1552(3) -0.0348(4) 0.18145(16)
C14 C 1.2313(4) 0.0549(5) 0.07285(19)
H11 H 1.2306 0.0287 0.0288
C15 C 1.0744(5) -0.2911(6) 0.02300(18)
H12 H 1.1323 -0.1867 0.0017
H13 H 0.9638 -0.2972 0.0060
H14 H 1.1278 -0.4163 0.0159
C16 C 0.9989(3) -0.3770(4) 0.13268(14)
C17 C 0.8420(3) -0.6893(4) 0.14045(15)
H15 H 0.8471 -0.6771 0.1851
C18 C 1.3096(5) 0.2669(5) 0.1630(3)
H16 H 1.3628 0.3811 0.1782
C19 C 0.5540(5) -1.2924(6) 0.23635(18)
H17 H 0.5031 -1.4036 0.2569
H18 H 0.5009 -1.1711 0.2487
H19 H 0.6677 -1.2869 0.2494
C20 C 0.6901(3) -1.0041(4) 0.15507(14)
H20 H 0.7016 -0.9850 0.1994
C21 C 1.1545(3) -0.0763(4) 0.11527(15)
C22 C 1.3069(4) 0.2213(5) 0.0974(2)
H21 H 1.3584 0.3074 0.0694
C23 C 0.5890(3) -1.2001(4) 0.06498(15)
C24 C 1.2332(4) 0.1417(5) 0.2051(2)
H22 H 1.2325 0.1724 0.2488
C25 C 0.7373(4) -0.8966(5) 0.04693(16)
H23 H 0.7802 -0.8051 0.0184
C26 C 1.0799(4) -0.1691(5) 0.22350(15)
H24 H 1.0800 -0.1425 0.2675
O5 O 0.5052(3) -1.3625(3) 0.04388(11)
H25 H 0.4916 -1.3565 0.0046
O6 O 0.5395(3) -1.3153(4) 0.16854(12)
loop_
_geom_bond_atom_site_label_1
_geom_bond_atom_site_label_2
_geom_bond_site_symmetry_1
_geom_bond_site_symmetry_2
S1 C1 1_555 1_555
C1 C3 1_555 1_555
C2 H1 1_555 1_555
C3 C2 1_555 1_555
H2 C3 1_555 1_555
C4 H3 1_555 1_555
H4 C4 1_555 1_555
H5 C4 1_555 1_555
C5 H6 1_555 1_555
C6 C2 1_555 1_555
C7 C1 1_555 1_555
H7 C7 1_555 1_555
O1 S1 1_555 1_555
O2 S1 1_555 1_555
O3 S1 1_555 1_555
O4 C4 1_555 1_555
N1 C15 1_555 1_555
C8 H8 1_555 1_555
C9 H9 1_555 1_555
C10 C17 1_555 1_555
C11 C20 1_555 1_555
C12 H10 1_555 1_555
C13 C21 1_555 1_555
C14 H11 1_555 1_555
C15 H12 1_555 1_555
H13 C15 1_555 1_555
H14 C15 1_555 1_555
C16 N1 1_555 1_555
C17 C8 1_555 1_555
H15 C17 1_555 1_555
C18 H16 1_555 1_555
C19 H17 1_555 1_555
H18 C19 1_555 1_555
H19 C19 1_555 1_555
C20 C10 1_555 1_555
H20 C20 1_555 1_555
C21 N1 1_555 1_555
C22 C14 1_555 1_555
H21 C22 1_555 1_555
C23 C11 1_555 1_555
C24 C13 1_555 1_555
H22 C24 1_555 1_555
C25 C10 1_555 1_555
H23 C25 1_555 1_555
C26 C9 1_555 1_555
H24 C26 1_555 1_555
O5 C23 1_555 1_555
H25 O5 1_555 1_555
O6 C11 1_555 1_555
C5 C6 1_555 1_555
C5 C7 1_555 1_555
C6 O4 1_555 1_555
C8 C16 1_555 1_555
C9 C16 1_555 1_555
C12 C23 1_555 1_555
C12 C25 1_555 1_555
C13 C26 1_555 1_555
C14 C21 1_555 1_555
C18 C22 1_555 1_555
C18 C24 1_555 1_555
C19 O6 1_555 1_555

#END
