
#######################################################################
#
#                 Cambridge Crystallographic Data Centre
#                                CCDC 
#
#######################################################################
#
# If this CIF has been generated from an entry in the Cambridge 
# Structural Database, then it will include bibliographic, chemical, 
# crystal, experimental, refinement or atomic coordinate data resulting 
# from the CCDC's data processing and validation procedures.
#
#######################################################################

data_SIFGAQ
_chemical_formula_moiety         
'C35 H54 N2 O10,0.25(C7 H16),0.25(C3 H6 O1),0.75(C4 H8 O2),0.25(C1 H4 O1),H2 O1'
_chemical_name_systematic        
"7\a,12\a-diacetoxy-5\b-cholan-24-amide-3-spiro-6'-(1',2',4',5'-tetraoxacyclohexane)-3'-spiro-1''-((4''S)-carbamoyl)cyclohexane acetone ethyl acetate n-heptane methanol solvate monohydrate"
_chemical_properties_biological  
'low antimalarial activity against D6, W2 and TM91C235'
_symmetry_cell_setting           monoclinic
_symmetry_space_group_name_H-M   'C 2'
_symmetry_Int_Tables_number      5
_space_group_name_Hall           'C 2y'
loop_
_symmetry_equiv_pos_site_id
_symmetry_equiv_pos_as_xyz
1 x,y,z
2 -x,y,-z
3 1/2+x,1/2+y,z
4 1/2-x,1/2+y,-z
_cell_length_a                   44.540(12)
_cell_length_b                   16.362(5)
_cell_length_c                   29.574(9)
_cell_angle_alpha                90
_cell_angle_beta                 99.42(3)
_cell_angle_gamma                90
_cell_volume                     21261.8
_exptl_crystal_colour            colorless
_exptl_crystal_description       parallelepiped
_chemical_melting_point          '165-167 deg.C'
_cell_formula_units_Z            16
_exptl_crystal_recrystallization_method 'ethyl acetate/heptane'
loop_
_atom_site_label
_atom_site_type_symbol
_atom_site_fract_x
_atom_site_fract_y
_atom_site_fract_z
C1 C 0.67903(15) 0.8997(4) 0.5416(2)
C2 C 0.67677(15) 0.9474(4) 0.5858(2)
C3 C 0.67221(14) 1.0370(4) 0.57398(19)
C4 C 0.69825(15) 1.0692(4) 0.55207(19)
C5 C 0.70108(15) 1.0220(4) 0.50763(19)
C6 C 0.72656(16) 1.0574(4) 0.4846(2)
C7 C 0.75833(15) 1.0365(4) 0.50787(19)
C8 C 0.76251(14) 0.9453(4) 0.51886(19)
C9 C 0.73695(13) 0.9079(4) 0.54219(18)
C10 C 0.70408(15) 0.9284(4) 0.51534(19)
C11 C 0.74209(13) 0.8165(4) 0.54824(18)
C12 C 0.77429(12) 0.7910(3) 0.57188(17)
C13 C 0.79943(13) 0.8322(4) 0.55194(18)
C14 C 0.79323(14) 0.9251(4) 0.54781(18)
C15 C 0.82172(14) 0.9607(4) 0.5343(2)
C16 C 0.84720(14) 0.9052(4) 0.5580(2)
C17 C 0.83252(13) 0.8334(4) 0.57952(18)
C18 C 0.69874(15) 0.8852(4) 0.4689(2)
C19 C 0.80059(14) 0.7935(4) 0.50389(19)
C20 C 0.85175(14) 0.7549(4) 0.5828(2)
C21 C 0.83655(15) 0.6832(4) 0.6037(2)
C22 C 0.88340(14) 0.7710(4) 0.6089(2)
C23 C 0.90644(15) 0.7024(5) 0.6076(2)
C24 C 0.93701(16) 0.7263(6) 0.6315(2)
O1 O 0.94293(11) 0.7276(6) 0.67423(16)
N1 N 0.95761(13) 0.7500(5) 0.60655(19)
O2 O 0.64319(10) 1.0433(3) 0.54620(13)
O3 O 0.63757(9) 1.1301(3) 0.53507(13)
C25 C 0.63560(13) 1.1706(4) 0.57776(19)
C26 C 0.63253(13) 1.2597(4) 0.5651(2)
C27 C 0.60171(13) 1.2786(4) 0.5365(2)
C28 C 0.57624(13) 1.2498(4) 0.5609(2)
C29 C 0.57919(14) 1.1603(5) 0.5727(2)
C30 C 0.61021(14) 1.1390(4) 0.6007(2)
O4 O 0.66515(9) 1.1637(3) 0.60695(13)
O5 O 0.67046(10) 1.0768(3) 0.61714(13)
C31 C 0.54519(15) 1.2647(5) 0.5324(2)
O6 O 0.54085(10) 1.2594(4) 0.49034(14)
N2 N 0.52233(12) 1.2812(4) 0.55622(18)
O7 O 0.76562(10) 1.0823(2) 0.55026(13)
C32 C 0.78328(18) 1.1484(4) 0.5503(2)
O8 O 0.79455(12) 1.1708(3) 0.51738(15)
C33 C 0.7857(3) 1.1942(5) 0.5941(3)
O9 O 0.77727(8) 0.8133(2) 0.62063(11)
C34 C 0.76679(13) 0.7584(4) 0.64803(18)
O10 O 0.75609(10) 0.6929(2) 0.63477(13)
C35 C 0.77062(15) 0.7896(4) 0.69549(19)
H1 H 0.6825 0.8426 0.5495
H2 H 0.6596 0.9036 0.5214
H3 H 0.6598 0.9272 0.5993
H4 H 0.6953 0.9401 0.6078
H5 H 0.7171 1.0641 0.5736
H6 H 0.6950 1.1267 0.5450
H7 H 0.6820 1.0310 0.4864
H8 H 0.7239 1.0379 0.4533
H9 H 0.7245 1.1165 0.4836
H10 H 0.7727 1.0522 0.4875
H11 H 0.7618 0.9170 0.4895
H12 H 0.7386 0.9321 0.5728
H13 H 0.7381 0.7909 0.5183
H14 H 0.7274 0.7952 0.5661
H15 H 0.7764 0.7316 0.5693
H16 H 0.7924 0.9449 0.5789
H17 H 0.8248 1.0167 0.5449
H18 H 0.8207 0.9596 0.5013
H19 H 0.8604 0.9355 0.5815
H20 H 0.8593 0.8853 0.5359
H21 H 0.8309 0.8494 0.6110
H22 H 0.7006 0.8272 0.4734
H23 H 0.7136 0.9034 0.4509
H24 H 0.6787 0.8979 0.4530
H25 H 0.8045 0.7360 0.5073
H26 H 0.8165 0.8189 0.4906
H27 H 0.7814 0.8019 0.4842
H28 H 0.8539 0.7392 0.5515
H29 H 0.8494 0.6359 0.6051
H30 H 0.8173 0.6714 0.5851
H31 H 0.8334 0.6975 0.6341
H32 H 0.8818 0.7818 0.6407
H33 H 0.8912 0.8202 0.5966
H34 H 0.8997 0.6541 0.6221
H35 H 0.9075 0.6890 0.5760
H36 H 0.6485 1.2746 0.5479
H37 H 0.6351 1.2924 0.5928
H38 H 0.5999 1.3370 0.5311
H39 H 0.6001 1.2515 0.5070
H40 H 0.5774 1.2808 0.5895
H41 H 0.5762 1.1286 0.5447
H42 H 0.5633 1.1452 0.5901
H43 H 0.6118 1.1627 0.6311
H44 H 0.6120 1.0801 0.6041
H45 H 0.7753 1.1647 0.6150
H46 H 0.7765 1.2472 0.5884
H47 H 0.8067 1.2005 0.6073
H48 H 0.7797 0.8429 0.6967
H49 H 0.7836 0.7532 0.7154
H50 H 0.7511 0.7928 0.7052
C36 C 1.33197(14) 0.8992(4) 0.9778(2)
C37 C 1.33726(14) 0.9463(4) 0.9353(2)
C38 C 1.33875(13) 1.0377(4) 0.94358(18)
C39 C 1.31136(13) 1.0678(4) 0.96344(18)
C40 C 1.30669(14) 1.0215(4) 1.00665(19)
C41 C 1.27921(14) 1.0556(4) 1.02535(18)
C42 C 1.24835(14) 1.0337(3) 0.99690(18)
C43 C 1.24588(13) 0.9436(4) 0.98524(17)
C44 C 1.27364(14) 0.9076(4) 0.96666(18)
C45 C 1.30437(13) 0.9279(4) 0.99827(18)
C46 C 1.26917(13) 0.8170(4) 0.95750(18)
C47 C 1.23857(13) 0.7891(3) 0.93049(17)
C48 C 1.21210(13) 0.8291(4) 0.94907(18)
C49 C 1.21710(13) 0.9217(4) 0.95308(18)
C50 C 1.18676(13) 0.9550(4) 0.9632(2)
C51 C 1.16267(13) 0.8951(4) 0.94017(19)
C52 C 1.17950(12) 0.8252(3) 0.91860(18)
C53 C 1.30677(15) 0.8828(4) 1.04534(19)
C54 C 1.21005(14) 0.7905(4) 0.99607(18)
C55 C 1.16266(13) 0.7438(4) 0.91372(18)
C56 C 1.17613(15) 0.6837(4) 0.8827(2)
C57 C 1.12810(14) 0.7551(4) 0.8952(2)
C58 C 1.10941(14) 0.6789(4) 0.8991(2)
C59 C 1.07605(13) 0.6949(4) 0.8847(2)
O11 O 1.06196(10) 0.7385(3) 0.90903(15)
N3 N 1.06355(13) 0.6658(4) 0.84519(18)
O12 O 1.34073(9) 1.0747(3) 0.90061(13)
O13 O 1.34259(9) 1.1636(2) 0.90904(12)
C60 C 1.37069(12) 1.1796(4) 0.93901(18)
C61 C 1.36908(13) 1.2697(4) 0.94959(19)
C62 C 1.39893(12) 1.3036(4) 0.97656(19)
C63 C 1.42486(12) 1.2847(4) 0.95051(19)
C64 C 1.42754(13) 1.1906(4) 0.9450(2)
C65 C 1.39800(13) 1.1550(4) 0.9186(2)
O14 O 1.36951(9) 1.1395(2) 0.98195(12)
O15 O 1.36732(9) 1.0513(2) 0.97365(13)
C66 C 1.45560(13) 1.3204(4) 0.9713(2)
O16 O 1.47259(9) 1.3467(3) 0.94607(13)
N4 N 1.46306(11) 1.3184(4) 1.01673(16)
O17 O 1.24460(9) 1.0813(2) 0.95366(12)
C67 C 1.22441(13) 1.1430(4) 0.94877(19)
O18 O 1.20880(9) 1.1610(3) 0.97681(14)
C68 C 1.22473(16) 1.1876(4) 0.9044(2)
O19 O 1.23700(8) 0.8123(2) 0.88297(12)
C69 C 1.24897(12) 0.7599(4) 0.85549(19)
O20 O 1.26042(10) 0.6953(3) 0.86928(13)
C70 C 1.24574(15) 0.7904(4) 0.80773(19)
H51 H 1.3500 0.9041 1.0010
H52 H 1.3294 0.8418 0.9699
H53 H 1.3562 0.9281 0.9263
H54 H 1.3209 0.9343 0.9102
H55 H 1.2933 1.0620 0.9405
H56 H 1.3140 1.1254 0.9707
H57 H 1.3247 1.0313 1.0299
H58 H 1.2810 1.1146 1.0271
H59 H 1.2797 1.0353 1.0563
H60 H 1.2321 1.0486 1.0141
H61 H 1.2449 0.9149 1.0141
H62 H 1.2743 0.9338 0.9370
H63 H 1.2722 0.7891 0.9868
H64 H 1.2851 0.7987 0.9411
H65 H 1.2369 0.7296 0.9327
H66 H 1.2195 0.9416 0.9226
H67 H 1.1867 0.9572 0.9960
H68 H 1.1830 1.0095 0.9506
H69 H 1.1486 0.9228 0.9166
H70 H 1.1512 0.8729 0.9626
H71 H 1.1818 0.8429 0.8877
H72 H 1.2899 0.8983 1.0600
H73 H 1.3255 0.8978 1.0646
H74 H 1.3064 0.8248 1.0404
H75 H 1.1936 0.8151 1.0084
H76 H 1.2288 0.7996 1.0166
H77 H 1.2065 0.7328 0.9924
H78 H 1.1646 0.7191 0.9443
H79 H 1.1649 0.6333 0.8808
H80 H 1.1971 0.6733 0.8952
H81 H 1.1748 0.7068 0.8526
H82 H 1.1203 0.7990 0.9121
H83 H 1.1256 0.7714 0.8633
H84 H 1.1158 0.6363 0.8799
H85 H 1.1131 0.6597 0.9305
H86 H 1.3528 1.2788 0.9672
H87 H 1.3641 1.2997 0.9210
H88 H 1.3972 1.3622 0.9804
H89 H 1.4029 1.2788 1.0067
H90 H 1.4194 1.3079 0.9197
H91 H 1.4442 1.1785 0.9287
H92 H 1.4319 1.1653 0.9750
H93 H 1.3954 1.1735 0.8870
H94 H 1.3995 1.0958 0.9185
H95 H 1.2389 1.1618 0.8878
H96 H 1.2307 1.2434 0.9107
H97 H 1.2048 1.1862 0.8863
H98 H 1.2359 0.8428 0.8057
H99 H 1.2337 0.7527 0.7875
H100 H 1.2655 0.7955 0.7991
C71 C 1.20972(14) 0.8151(4) 0.64761(18)
C72 C 1.20034(13) 0.7744(4) 0.69043(19)
C73 C 1.17798(12) 0.8264(4) 0.71048(17)
C74 C 1.18937(13) 0.9136(4) 0.71975(18)
C75 C 1.19911(13) 0.9540(4) 0.67819(19)
C76 C 1.21097(14) 1.0411(4) 0.68986(19)
C77 C 1.24338(14) 1.0455(4) 0.71591(17)
C78 C 1.26550(13) 0.9934(4) 0.69538(19)
C79 C 1.25385(14) 0.9049(4) 0.68825(19)
C80 C 1.22259(14) 0.9033(4) 0.65620(18)
C81 C 1.27751(14) 0.8467(4) 0.6726(2)
C82 C 1.30973(16) 0.8564(4) 0.6997(3)
C83 C 1.32108(16) 0.9448(4) 0.7003(3)
C84 C 1.29730(13) 0.9961(4) 0.7218(2)
C85 C 1.31265(15) 1.0804(4) 0.7309(2)
C86 C 1.34770(16) 1.0595(5) 0.7435(3)
C87 C 1.35089(16) 0.9653(5) 0.7328(4)
C88 C 1.22451(16) 0.9356(4) 0.60828(19)
C89 C 1.3229(2) 0.9726(6) 0.6517(3)
C90 C 1.3814(2) 0.9468(6) 0.7173(6)
C91 C 1.3849(2) 0.8585(8) 0.7075(8)
C92 C 1.4082(2) 0.9796(8) 0.7492(7)
C93 C 1.4379(3) 0.9786(12) 0.7245(8)
C94 C 1.4625(3) 1.0225(11) 0.7563(7)
O21 O 1.4761(3) 0.9842(12) 0.7936(6)
N5 N 1.4711(2) 1.0951(7) 0.7457(4)
O22 O 1.17320(8) 0.7847(2) 0.75133(12)
O23 O 1.12678(9) 0.8675(3) 0.69804(13)
C95 C 1.12222(13) 0.8245(4) 0.73856(19)
C96 C 1.09970(14) 0.8766(4) 0.7589(2)
C97 C 1.06807(14) 0.8732(5) 0.7294(2)
C98 C 1.05726(13) 0.7850(4) 0.7221(2)
C99 C 1.07987(13) 0.7345(4) 0.7000(2)
C100 C 1.11143(13) 0.7383(4) 0.7291(2)
O24 O 1.15044(8) 0.8223(3) 0.67831(12)
O25 O 1.14982(9) 0.8294(3) 0.77100(12)
C101 C 1.02590(15) 0.7813(5) 0.6934(2)
O26 O 1.02163(10) 0.7971(4) 0.65218(15)
N6 N 1.00286(13) 0.7663(5) 0.71469(19)
O27 O 1.24417(9) 1.0162(2) 0.76318(12)
C102 C 1.25118(13) 1.0679(4) 0.79826(19)
O28 O 1.25256(11) 1.1404(3) 0.79421(15)
C103 C 1.25672(16) 1.0225(4) 0.8427(2)
O29 O 1.31041(11) 0.8282(3) 0.74661(18)
C104 C 1.32418(19) 0.7570(5) 0.7618(4)
O30 O 1.33305(16) 0.7117(4) 0.7349(4)
C105 C 1.3273(2) 0.7475(6) 0.8127(4)
H101 H 1.1921 0.8170 0.6235
H102 H 1.2250 0.7813 0.6369
H103 H 1.1913 0.7215 0.6821
H104 H 1.2183 0.7657 0.7133
H105 H 1.1733 0.9459 0.7295
H106 H 1.2065 0.9130 0.7447
H107 H 1.1808 0.9593 0.6549
H108 H 1.2100 1.0717 0.6616
H109 H 1.1975 1.0676 0.7080
H110 H 1.2503 1.1024 0.7168
H111 H 1.2664 1.0157 0.6649
H112 H 1.2503 0.8852 0.7182
H113 H 1.2709 0.7908 0.6756
H114 H 1.2781 0.8565 0.6404
H115 H 1.3236 0.8222 0.6853
H116 H 1.2964 0.9720 0.7519
H117 H 1.3054 1.1081 0.7561
H118 H 1.3087 1.1147 0.7038
H119 H 1.3550 1.0706 0.7756
H120 H 1.3594 1.0921 0.7252
H121 H 1.3506 0.9354 0.7615
H122 H 1.2392 0.9043 0.5953
H123 H 1.2306 0.9919 0.6102
H124 H 1.2050 0.9308 0.5892
H125 H 1.3297 1.0283 0.6522
H126 H 1.3031 0.9684 0.6332
H127 H 1.3369 0.9384 0.6390
H128 H 1.3811 0.9755 0.6881
H129 H 1.3676 0.8401 0.6864
H130 H 1.3865 0.8280 0.7355
H131 H 1.4030 0.8506 0.6943
H132 H 1.4119 0.9465 0.7767
H133 H 1.4040 1.0351 0.7579
H134 H 1.4440 0.9229 0.7195
H135 H 1.4337 1.0063 0.6952
H136 H 1.1068 0.9327 0.7612
H137 H 1.0984 0.8573 0.7896
H138 H 1.0538 0.9036 0.7444
H139 H 1.0688 0.8986 0.7000
H140 H 1.0560 0.7612 0.7522
H141 H 1.0731 0.6781 0.6970
H142 H 1.0808 0.7555 0.6695
H143 H 1.1110 0.7105 0.7579
H144 H 1.1258 0.7097 0.7133
H145 H 1.2537 0.9651 0.8370
H146 H 1.2428 1.0414 0.8620
H147 H 1.2772 1.0319 0.8576
H148 H 1.3180 0.7933 0.8253
H149 H 1.3485 0.7452 0.8258
H150 H 1.3175 0.6980 0.8197
C106 C 1.29696(13) 1.3077(4) 0.85538(19)
C107 C 1.31001(13) 1.2714(4) 0.81549(18)
C108 C 1.33379(13) 1.3240(4) 0.80050(18)
C109 C 1.32389(14) 1.4121(4) 0.79270(19)
C110 C 1.31003(14) 1.4479(4) 0.83303(19)
C111 C 1.30001(14) 1.5371(4) 0.8218(2)
C112 C 1.26892(14) 1.5455(4) 0.7898(2)
C113 C 1.24459(13) 1.4907(4) 0.80485(19)
C114 C 1.25520(13) 1.4016(4) 0.81089(18)
C115 C 1.28505(13) 1.3961(4) 0.84835(18)
C116 C 1.23007(13) 1.3437(4) 0.81962(19)
C117 C 1.19946(14) 1.3536(4) 0.78778(18)
C118 C 1.18892(13) 1.4452(3) 0.78472(18)
C119 C 1.21463(14) 1.4958(3) 0.77162(19)
C120 C 1.20031(15) 1.5806(4) 0.7629(2)
C121 C 1.16681(14) 1.5616(4) 0.7422(2)
C122 C 1.16258(14) 1.4689(4) 0.7459(2)
C123 C 1.27886(15) 1.4250(4) 0.89499(19)
C124 C 1.18058(14) 1.4677(4) 0.83168(19)
C125 C 1.12959(15) 1.4443(4) 0.7495(2)
C126 C 1.12481(18) 1.3524(5) 0.7502(3)
C127 C 1.10752(15) 1.4852(5) 0.7096(2)
C128 C 1.07437(16) 1.4708(5) 0.7113(3)
C129 C 1.06475(17) 1.5101(5) 0.7539(3)
O31 O 1.07683(15) 1.5712(4) 0.7710(2)
N7 N 1.04093(19) 1.4725(6) 0.7676(3)
O32 O 1.34094(9) 1.2852(3) 0.76014(13)
O33 O 1.36573(10) 1.3319(3) 0.74569(14)
C130 C 1.39210(15) 1.3215(5) 0.7816(2)
C131 C 1.41589(16) 1.3748(5) 0.7670(3)
C132 C 1.44674(16) 1.3640(5) 0.7989(2)
C133 C 1.45558(14) 1.2732(5) 0.8007(2)
C134 C 1.43208(14) 1.2223(5) 0.8182(2)
C135 C 1.40121(14) 1.2311(5) 0.7874(2)
O34 O 1.38507(10) 1.3580(3) 0.82228(15)
O35 O 1.35977(9) 1.3137(3) 0.83619(13)
C136 C 1.48743(15) 1.2540(5) 0.8261(2)
O36 O 1.50491(11) 1.2123(4) 0.80741(16)
N8 N 1.49618(13) 1.2815(4) 0.86999(19)
O37 O 1.27272(10) 1.5180(2) 0.74385(13)
C137 C 1.26715(15) 1.5707(4) 0.7092(2)
O38 O 1.26303(12) 1.6432(3) 0.71315(18)
C138 C 1.2663(3) 1.5266(6) 0.6641(3)
O39 O 1.20236(9) 1.3287(2) 0.74168(12)
C139 C 1.19017(14) 1.2561(4) 0.7260(2)
O40 O 1.18092(12) 1.2068(3) 0.75008(16)
C140 C 1.18857(16) 1.2491(4) 0.6757(2)
H151 H 1.3126 1.3064 0.8824
H152 H 1.2804 1.2732 0.8615
H153 H 1.3187 1.2183 0.8244
H154 H 1.2937 1.2633 0.7899
H155 H 1.3090 1.4156 0.7649
H156 H 1.3413 1.4448 0.7882
H157 H 1.3266 1.4506 0.8592
H158 H 1.3155 1.5639 0.8074
H159 H 1.2989 1.5656 0.8503
H160 H 1.2622 1.6026 0.7887
H161 H 1.2408 1.5104 0.8347
H162 H 1.2611 1.3848 0.7817
H163 H 1.2268 1.3513 0.8510
H164 H 1.2371 1.2881 0.8169
H165 H 1.1840 1.3199 0.7990
H166 H 1.2185 1.4751 0.7420
H167 H 1.2102 1.6114 0.7415
H168 H 1.2015 1.6113 0.7912
H169 H 1.1531 1.5904 0.7590
H170 H 1.1626 1.5787 0.7104
H171 H 1.1673 1.4447 0.7175
H172 H 1.2630 1.3923 0.9042
H173 H 1.2726 1.4812 0.8929
H174 H 1.2970 1.4196 0.9172
H175 H 1.1641 1.4336 0.8377
H176 H 1.1745 1.5240 0.8314
H177 H 1.1979 1.4595 0.8551
H178 H 1.1249 1.4665 0.7783
H179 H 1.1040 1.3409 0.7529
H180 H 1.1381 1.3292 0.7759
H181 H 1.1293 1.3289 0.7224
H182 H 1.1113 1.5437 0.7103
H183 H 1.1120 1.4645 0.6807
H184 H 1.0705 1.4125 0.7116
H185 H 1.0622 1.4934 0.6840
H186 H 1.4095 1.4315 0.7675
H187 H 1.4182 1.3612 0.7358
H188 H 1.4623 1.3959 0.7875
H189 H 1.4452 1.3833 0.8294
H190 H 1.4554 1.2563 0.7689
H191 H 1.4304 1.2392 0.8491
H192 H 1.4383 1.1654 0.8192
H193 H 1.3859 1.2017 0.8008
H194 H 1.4022 1.2073 0.7577
H195 H 1.2700 1.4695 0.6698
H196 H 1.2816 1.5487 0.6483
H197 H 1.2466 1.5337 0.6457
H198 H 1.1980 1.2960 0.6645
H199 H 1.1677 1.2464 0.6612
H200 H 1.1990 1.2005 0.6687
C141 C 0.6677(2) 0.5334(6) 0.8285(3)
C142 C 0.6395(3) 0.5800(8) 0.8297(4)
C143 C 0.6429(2) 0.6522(7) 0.8581(5)
C144 C 0.6136(3) 0.7103(7) 0.8493(4)
C145 C 0.6211(4) 0.7881(8) 0.8735(4)
C146 C 0.5904(3) 0.8494(8) 0.8670(5)
C147 C 0.5969(3) 0.9358(8) 0.8882(6)
H201 H 0.6631 0.4861 0.8094
H202 H 0.6761 0.5164 0.8590
H203 H 0.6821 0.5672 0.8164
H204 H 0.6311 0.5962 0.7987
H205 H 0.6248 0.5442 0.8405
H206 H 0.6605 0.6828 0.8521
H207 H 0.6466 0.6359 0.8901
H208 H 0.6077 0.7202 0.8167
H209 H 0.5967 0.6843 0.8605
H210 H 0.6375 0.8149 0.8613
H211 H 0.6279 0.7776 0.9058
H212 H 0.5826 0.8553 0.8345
H213 H 0.5746 0.8236 0.8810
H214 H 0.5783 0.9667 0.8847
H215 H 0.6114 0.9634 0.8729
H216 H 0.6050 0.9305 0.9202
O41 O 0.6398(2) 0.4865(7) 0.5658(3)
C148 C 0.6626(4) 0.6245(8) 0.5603(4)
C149 C 0.6451(3) 0.5638(9) 0.5793(3)
O42 O 0.6367(2) 0.5958(5) 0.6186(3)
C150 C 0.6173(3) 0.5416(9) 0.6422(4)
C151 C 0.6150(4) 0.5872(10) 0.6875(4)
H217 H 0.6696 0.6026 0.5337
H218 H 0.6798 0.6398 0.5827
H219 H 0.6502 0.6717 0.5517
H220 H 0.6266 0.4884 0.6483
H221 H 0.5973 0.5347 0.6238
H222 H 0.6028 0.5559 0.7050
H223 H 0.6059 0.6398 0.6806
H224 H 0.6351 0.5940 0.7049
O43 O 0.8559(2) -0.0093(7) 0.9495(4)
C152 C 0.8348(3) 0.1328(9) 0.9411(4)
C153 C 0.8538(3) 0.0648(10) 0.9310(4)
O44 O 0.8691(3) 0.0901(8) 0.8955(5)
C154 C 0.8899(5) 0.0407(13) 0.8710(8)
C155 C 0.9135(6) 0.0111(15) 0.9113(7)
H225 H 0.8241 0.1177 0.9655
H226 H 0.8203 0.1460 0.9143
H227 H 0.8473 0.1796 0.9502
H228 H 0.8992 0.0742 0.8499
H229 H 0.8792 -0.0047 0.8544
H230 H 0.9260 -0.0302 0.9008
H231 H 0.9032 -0.0112 0.9346
H232 H 0.9260 0.0563 0.9236
O45 O 0.1355(13) 0.256(2) 0.3895(16)
C156 C 0.1262(9) 0.154(2) 0.4489(10)
C157 C 0.1262(12) 0.1824(18) 0.4012(11)
O46 O 0.1339(4) 0.1153(11) 0.3755(6)
C158 C 0.1327(10) 0.1141(18) 0.3254(8)
C159 C 0.1434(5) 0.0273(14) 0.3162(7)
O47 O 0.1013(6) 0.4715(17) 0.4329(9)
O48 O 0.4885(8) 0.078(2) 0.0625(11)
O49 O 0.4887(8) 0.837(3) 0.2819(12)
O50 O 0.4489(15) 0.459(4) 0.121(2)
O51 O 0.0547(6) 0.5211(18) 0.1358(8)
C160 C 0.0739(10) 0.465(2) 0.1330(13)
C161 C 0.0722(6) 0.4255(18) 0.0885(10)
C162 C 0.1017(17) 0.417(6) 0.162(3)
O52 O 0.4986(7) 0.0468(18) 0.3878(10)
C163 C 0.5114(8) 0.047(2) 0.4418(11)
loop_
_geom_bond_atom_site_label_1
_geom_bond_atom_site_label_2
_geom_bond_site_symmetry_1
_geom_bond_site_symmetry_2
C1 C2 1_555 1_555
C2 C3 1_555 1_555
C3 C4 1_555 1_555
C4 C5 1_555 1_555
C5 C6 1_555 1_555
C6 C7 1_555 1_555
C7 C8 1_555 1_555
C8 C9 1_555 1_555
C9 C10 1_555 1_555
C10 C1 1_555 1_555
C11 C9 1_555 1_555
C12 C11 1_555 1_555
C13 C12 1_555 1_555
C14 C8 1_555 1_555
C15 C14 1_555 1_555
C16 C15 1_555 1_555
C17 C13 1_555 1_555
C18 C10 1_555 1_555
C19 C13 1_555 1_555
C20 C17 1_555 1_555
C21 C20 1_555 1_555
C22 C20 1_555 1_555
C23 C22 1_555 1_555
C24 C23 1_555 1_555
O1 C24 1_555 1_555
N1 C24 1_555 1_555
O2 C3 1_555 1_555
O3 O2 1_555 1_555
C25 O3 1_555 1_555
C26 C25 1_555 1_555
C27 C26 1_555 1_555
C28 C27 1_555 1_555
C29 C28 1_555 1_555
C30 C25 1_555 1_555
O4 C25 1_555 1_555
O5 C3 1_555 1_555
C31 C28 1_555 1_555
O6 C31 1_555 1_555
N2 C31 1_555 1_555
O7 C7 1_555 1_555
C32 O7 1_555 1_555
O8 C32 1_555 1_555
C33 C32 1_555 1_555
O9 C12 1_555 1_555
C34 O9 1_555 1_555
O10 C34 1_555 1_555
C35 C34 1_555 1_555
C36 C37 1_555 1_555
C37 C38 1_555 1_555
C38 C39 1_555 1_555
C39 C40 1_555 1_555
C40 C41 1_555 1_555
C41 C42 1_555 1_555
C42 C43 1_555 1_555
C43 C44 1_555 1_555
C44 C45 1_555 1_555
C45 C36 1_555 1_555
C46 C44 1_555 1_555
C47 C46 1_555 1_555
C48 C47 1_555 1_555
C49 C43 1_555 1_555
C50 C49 1_555 1_555
C51 C50 1_555 1_555
C52 C48 1_555 1_555
C53 C45 1_555 1_555
C54 C48 1_555 1_555
C55 C52 1_555 1_555
C56 C55 1_555 1_555
C57 C55 1_555 1_555
C58 C57 1_555 1_555
C59 C58 1_555 1_555
O11 C59 1_555 1_555
N3 C59 1_555 1_555
O12 C38 1_555 1_555
O13 O12 1_555 1_555
C60 O13 1_555 1_555
C61 C60 1_555 1_555
C62 C61 1_555 1_555
C63 C62 1_555 1_555
C64 C63 1_555 1_555
C65 C60 1_555 1_555
O14 C60 1_555 1_555
O15 C38 1_555 1_555
C66 C63 1_555 1_555
O16 C66 1_555 1_555
N4 C66 1_555 1_555
O17 C42 1_555 1_555
C67 O17 1_555 1_555
O18 C67 1_555 1_555
C68 C67 1_555 1_555
O19 C47 1_555 1_555
C69 O19 1_555 1_555
O20 C69 1_555 1_555
C70 C69 1_555 1_555
C71 C72 1_555 1_555
C72 C73 1_555 1_555
C73 C74 1_555 1_555
C74 C75 1_555 1_555
C75 C76 1_555 1_555
C76 C77 1_555 1_555
C77 C78 1_555 1_555
C78 C79 1_555 1_555
C79 C80 1_555 1_555
C80 C71 1_555 1_555
C81 C79 1_555 1_555
C82 C81 1_555 1_555
C83 C82 1_555 1_555
C84 C78 1_555 1_555
C85 C84 1_555 1_555
C86 C85 1_555 1_555
C87 C83 1_555 1_555
C88 C80 1_555 1_555
C89 C83 1_555 1_555
C90 C87 1_555 1_555
C91 C90 1_555 1_555
C92 C90 1_555 1_555
C93 C92 1_555 1_555
C94 C93 1_555 1_555
O21 C94 1_555 1_555
N5 C94 1_555 1_555
O22 C73 1_555 1_555
O23 C95 1_555 1_555
C95 C96 1_555 1_555
C96 C97 1_555 1_555
C97 C98 1_555 1_555
C98 C99 1_555 1_555
C99 C100 1_555 1_555
C100 C95 1_555 1_555
O24 C73 1_555 1_555
O25 O22 1_555 1_555
C101 C98 1_555 1_555
O26 C101 1_555 1_555
N6 C101 1_555 1_555
O27 C77 1_555 1_555
C102 O27 1_555 1_555
O28 C102 1_555 1_555
C103 C102 1_555 1_555
O29 C82 1_555 1_555
C104 O29 1_555 1_555
O30 C104 1_555 1_555
C105 C104 1_555 1_555
C106 C107 1_555 1_555
C107 C108 1_555 1_555
C108 C109 1_555 1_555
C109 C110 1_555 1_555
C110 C111 1_555 1_555
C111 C112 1_555 1_555
C112 C113 1_555 1_555
C113 C114 1_555 1_555
C114 C115 1_555 1_555
C115 C106 1_555 1_555
C116 C114 1_555 1_555
C117 C116 1_555 1_555
C118 C117 1_555 1_555
C119 C113 1_555 1_555
C120 C119 1_555 1_555
C121 C120 1_555 1_555
C122 C118 1_555 1_555
C123 C115 1_555 1_555
C124 C118 1_555 1_555
C125 C122 1_555 1_555
C126 C125 1_555 1_555
C127 C125 1_555 1_555
C128 C127 1_555 1_555
C129 C128 1_555 1_555
O31 C129 1_555 1_555
N7 C129 1_555 1_555
O32 C108 1_555 1_555
O33 O32 1_555 1_555
C130 O33 1_555 1_555
C131 C130 1_555 1_555
C132 C131 1_555 1_555
C133 C132 1_555 1_555
C134 C133 1_555 1_555
C135 C130 1_555 1_555
O34 C130 1_555 1_555
O35 C108 1_555 1_555
C136 C133 1_555 1_555
O36 C136 1_555 1_555
N8 C136 1_555 1_555
O37 C112 1_555 1_555
C137 O37 1_555 1_555
O38 C137 1_555 1_555
C138 C137 1_555 1_555
O39 C117 1_555 1_555
C139 O39 1_555 1_555
O40 C139 1_555 1_555
C140 C139 1_555 1_555
C141 C142 1_555 1_555
C142 C143 1_555 1_555
C143 C144 1_555 1_555
C144 C145 1_555 1_555
C145 C146 1_555 1_555
C146 C147 1_555 1_555
C147 H214 1_555 1_555
O41 C149 1_555 1_555
C148 C149 1_555 1_555
C149 O42 1_555 1_555
O42 C150 1_555 1_555
C150 C151 1_555 1_555
C151 H222 1_555 1_555
O43 C153 1_555 1_555
C152 C153 1_555 1_555
C153 O44 1_555 1_555
O44 C154 1_555 1_555
C154 C155 1_555 1_555
C155 H230 1_555 1_555
O45 C157 1_555 1_555
C156 C157 1_555 1_555
C157 O46 1_555 1_555
O46 C158 1_555 1_555
C158 C159 1_555 1_555
O51 C160 1_555 1_555
C160 C161 1_555 1_555
C162 C160 1_555 1_555
O52 C163 1_555 1_555
H1 C1 1_555 1_555
H2 C1 1_555 1_555
H3 C2 1_555 1_555
H4 C2 1_555 1_555
H5 C4 1_555 1_555
H6 C4 1_555 1_555
H7 C5 1_555 1_555
H8 C6 1_555 1_555
H9 C6 1_555 1_555
H10 C7 1_555 1_555
H11 C8 1_555 1_555
H12 C9 1_555 1_555
H13 C11 1_555 1_555
H14 C11 1_555 1_555
H15 C12 1_555 1_555
H16 C14 1_555 1_555
H17 C15 1_555 1_555
H18 C15 1_555 1_555
H19 C16 1_555 1_555
H20 C16 1_555 1_555
H21 C17 1_555 1_555
H22 C18 1_555 1_555
H23 C18 1_555 1_555
H24 C18 1_555 1_555
H25 C19 1_555 1_555
H26 C19 1_555 1_555
H27 C19 1_555 1_555
H28 C20 1_555 1_555
H29 C21 1_555 1_555
H30 C21 1_555 1_555
H31 C21 1_555 1_555
H32 C22 1_555 1_555
H33 C22 1_555 1_555
H34 C23 1_555 1_555
H35 C23 1_555 1_555
H36 C26 1_555 1_555
H37 C26 1_555 1_555
H38 C27 1_555 1_555
H39 C27 1_555 1_555
H40 C28 1_555 1_555
H41 C29 1_555 1_555
H42 C29 1_555 1_555
H43 C30 1_555 1_555
H44 C30 1_555 1_555
H45 C33 1_555 1_555
H46 C33 1_555 1_555
H47 C33 1_555 1_555
H48 C35 1_555 1_555
H49 C35 1_555 1_555
H50 C35 1_555 1_555
H51 C36 1_555 1_555
H52 C36 1_555 1_555
H53 C37 1_555 1_555
H54 C37 1_555 1_555
H55 C39 1_555 1_555
H56 C39 1_555 1_555
H57 C40 1_555 1_555
H58 C41 1_555 1_555
H59 C41 1_555 1_555
H60 C42 1_555 1_555
H61 C43 1_555 1_555
H62 C44 1_555 1_555
H63 C46 1_555 1_555
H64 C46 1_555 1_555
H65 C47 1_555 1_555
H66 C49 1_555 1_555
H67 C50 1_555 1_555
H68 C50 1_555 1_555
H69 C51 1_555 1_555
H70 C51 1_555 1_555
H71 C52 1_555 1_555
H72 C53 1_555 1_555
H73 C53 1_555 1_555
H74 C53 1_555 1_555
H75 C54 1_555 1_555
H76 C54 1_555 1_555
H77 C54 1_555 1_555
H78 C55 1_555 1_555
H79 C56 1_555 1_555
H80 C56 1_555 1_555
H81 C56 1_555 1_555
H82 C57 1_555 1_555
H83 C57 1_555 1_555
H84 C58 1_555 1_555
H85 C58 1_555 1_555
H86 C61 1_555 1_555
H87 C61 1_555 1_555
H88 C62 1_555 1_555
H89 C62 1_555 1_555
H90 C63 1_555 1_555
H91 C64 1_555 1_555
H92 C64 1_555 1_555
H93 C65 1_555 1_555
H94 C65 1_555 1_555
H95 C68 1_555 1_555
H96 C68 1_555 1_555
H97 C68 1_555 1_555
H98 C70 1_555 1_555
H99 C70 1_555 1_555
H100 C70 1_555 1_555
H101 C71 1_555 1_555
H102 C71 1_555 1_555
H103 C72 1_555 1_555
H104 C72 1_555 1_555
H105 C74 1_555 1_555
H106 C74 1_555 1_555
H107 C75 1_555 1_555
H108 C76 1_555 1_555
H109 C76 1_555 1_555
H110 C77 1_555 1_555
H111 C78 1_555 1_555
H112 C79 1_555 1_555
H113 C81 1_555 1_555
H114 C81 1_555 1_555
H115 C82 1_555 1_555
H116 C84 1_555 1_555
H117 C85 1_555 1_555
H118 C85 1_555 1_555
H119 C86 1_555 1_555
H120 C86 1_555 1_555
H121 C87 1_555 1_555
H122 C88 1_555 1_555
H123 C88 1_555 1_555
H124 C88 1_555 1_555
H125 C89 1_555 1_555
H126 C89 1_555 1_555
H127 C89 1_555 1_555
H128 C90 1_555 1_555
H129 C91 1_555 1_555
H130 C91 1_555 1_555
H131 C91 1_555 1_555
H132 C92 1_555 1_555
H133 C92 1_555 1_555
H134 C93 1_555 1_555
H135 C93 1_555 1_555
H136 C96 1_555 1_555
H137 C96 1_555 1_555
H138 C97 1_555 1_555
H139 C97 1_555 1_555
H140 C98 1_555 1_555
H141 C99 1_555 1_555
H142 C99 1_555 1_555
H143 C100 1_555 1_555
H144 C100 1_555 1_555
H145 C103 1_555 1_555
H146 C103 1_555 1_555
H147 C103 1_555 1_555
H148 C105 1_555 1_555
H149 C105 1_555 1_555
H150 C105 1_555 1_555
H151 C106 1_555 1_555
H152 C106 1_555 1_555
H153 C107 1_555 1_555
H154 C107 1_555 1_555
H155 C109 1_555 1_555
H156 C109 1_555 1_555
H157 C110 1_555 1_555
H158 C111 1_555 1_555
H159 C111 1_555 1_555
H160 C112 1_555 1_555
H161 C113 1_555 1_555
H162 C114 1_555 1_555
H163 C116 1_555 1_555
H164 C116 1_555 1_555
H165 C117 1_555 1_555
H166 C119 1_555 1_555
H167 C120 1_555 1_555
H168 C120 1_555 1_555
H169 C121 1_555 1_555
H170 C121 1_555 1_555
H171 C122 1_555 1_555
H172 C123 1_555 1_555
H173 C123 1_555 1_555
H174 C123 1_555 1_555
H175 C124 1_555 1_555
H176 C124 1_555 1_555
H177 C124 1_555 1_555
H178 C125 1_555 1_555
H179 C126 1_555 1_555
H180 C126 1_555 1_555
H181 C126 1_555 1_555
H182 C127 1_555 1_555
H183 C127 1_555 1_555
H184 C128 1_555 1_555
H185 C128 1_555 1_555
H186 C131 1_555 1_555
H187 C131 1_555 1_555
H188 C132 1_555 1_555
H189 C132 1_555 1_555
H190 C133 1_555 1_555
H191 C134 1_555 1_555
H192 C134 1_555 1_555
H193 C135 1_555 1_555
H194 C135 1_555 1_555
H195 C138 1_555 1_555
H196 C138 1_555 1_555
H197 C138 1_555 1_555
H198 C140 1_555 1_555
H199 C140 1_555 1_555
H200 C140 1_555 1_555
H201 C141 1_555 1_555
H202 C141 1_555 1_555
H203 C141 1_555 1_555
H204 C142 1_555 1_555
H205 C142 1_555 1_555
H206 C143 1_555 1_555
H207 C143 1_555 1_555
H208 C144 1_555 1_555
H209 C144 1_555 1_555
H210 C145 1_555 1_555
H211 C145 1_555 1_555
H212 C146 1_555 1_555
H213 C146 1_555 1_555
H215 C147 1_555 1_555
H216 C147 1_555 1_555
H217 C148 1_555 1_555
H218 C148 1_555 1_555
H219 C148 1_555 1_555
H220 C150 1_555 1_555
H221 C150 1_555 1_555
H223 C151 1_555 1_555
H224 C151 1_555 1_555
H225 C152 1_555 1_555
H226 C152 1_555 1_555
H227 C152 1_555 1_555
H228 C154 1_555 1_555
H229 C154 1_555 1_555
H231 C155 1_555 1_555
H232 C155 1_555 1_555
C5 C10 1_555 1_555
C13 C14 1_555 1_555
C16 C17 1_555 1_555
C29 C30 1_555 1_555
O4 O5 1_555 1_555
C40 C45 1_555 1_555
C48 C49 1_555 1_555
C51 C52 1_555 1_555
C64 C65 1_555 1_555
O14 O15 1_555 1_555
C75 C80 1_555 1_555
C83 C84 1_555 1_555
C86 C87 1_555 1_555
O23 O24 1_555 1_555
C95 O25 1_555 1_555
C110 C115 1_555 1_555
C118 C119 1_555 1_555
C121 C122 1_555 1_555
C134 C135 1_555 1_555
O34 O35 1_555 1_555

#END
