
#######################################################################
#
#                 Cambridge Crystallographic Data Centre
#                                CCDC 
#
#######################################################################
#
# If this CIF has been generated from an entry in the Cambridge 
# Structural Database, then it will include bibliographic, chemical, 
# crystal, experimental, refinement or atomic coordinate data resulting 
# from the CCDC's data processing and validation procedures.
#
#######################################################################

data_SIFHEX
_chemical_formula_moiety         'C24 H33 N1 O1'
_chemical_name_systematic        
5-methyl-2,3,7,8-tetrapropylpyrano[4,3,2-ij]isoquinoline
_symmetry_cell_setting           triclinic
_symmetry_space_group_name_H-M   'P -1'
_symmetry_Int_Tables_number      2
_space_group_name_Hall           '-P 1'
loop_
_symmetry_equiv_pos_site_id
_symmetry_equiv_pos_as_xyz
1 x,y,z
2 -x,-y,-z
_cell_length_a                   4.9014(7)
_cell_length_b                   9.7990(15)
_cell_length_c                   22.684(3)
_cell_angle_alpha                89.971(5)
_cell_angle_beta                 91.811(5)
_cell_angle_gamma                90.012(5)
_cell_volume                     1088.94
_exptl_crystal_colour            yellow
_exptl_crystal_description       needle
_cell_formula_units_Z            2
loop_
_atom_site_label
_atom_site_type_symbol
_atom_site_fract_x
_atom_site_fract_y
_atom_site_fract_z
N1 N 0.4200(5) 0.2856(2) 0.78423(11)
O1 O 0.0803(5) 0.2862(2) 0.71602(11)
C1 C 0.2510(6) 0.5024(3) 0.74992(13)
C2 C 0.2522(6) 0.3594(3) 0.75009(14)
C3 C 0.0642(6) 0.5712(3) 0.71165(12)
C4 C -0.1165(6) 0.4900(3) 0.67430(13)
C5 C 0.4362(6) 0.5717(3) 0.78853(13)
C6 C 0.6168(6) 0.4901(3) 0.82582(13)
C7 C -0.3133(6) 0.5599(4) 0.63164(14)
H1 H -0.3863 0.6403 0.6505
H2 H -0.4646 0.4988 0.6227
C8 C 0.8132(6) 0.5597(4) 0.86820(14)
H3 H 0.8867 0.6398 0.8492
H4 H 0.9641 0.4983 0.8772
C9 C -0.1010(7) 0.3531(4) 0.67797(14)
C10 C 0.0696(7) 0.7126(3) 0.71304(14)
H5 H -0.0514 0.7611 0.6885
C11 C 0.4315(7) 0.7136(3) 0.78686(14)
H6 H 0.5529 0.7624 0.8111
C12 C 0.5990(7) 0.3524(4) 0.82187(14)
C13 C 0.2499(7) 0.7839(3) 0.74985(16)
C14 C -0.2691(8) 0.2497(4) 0.64383(17)
H7 H -0.3601 0.1911 0.6715
H8 H -0.4091 0.2973 0.6207
C15 C -0.1852(7) 0.6025(4) 0.57427(14)
H9 H -0.0318 0.6625 0.5831
H10 H -0.1162 0.5221 0.5547
C16 C 0.6863(7) 0.6028(4) 0.92555(15)
H11 H 0.5338 0.6633 0.9168
H12 H 0.6163 0.5228 0.9452
C17 C 0.7682(8) 0.2490(4) 0.85657(17)
H13 H 0.8611 0.1906 0.8291
H14 H 0.9065 0.2970 0.8800
C18 C -0.3864(9) 0.6749(5) 0.53309(17)
H15 H -0.5360 0.6149 0.5233
H16 H -0.2970 0.7007 0.4977
H17 H -0.4539 0.7550 0.5521
C19 C 0.8884(9) 0.6746(5) 0.96659(18)
H18 H 1.0406 0.6154 0.9752
H19 H 0.8014 0.6977 1.0026
H20 H 0.9517 0.7564 0.9481
C20 C 0.2514(10) 0.9396(4) 0.7499(2)
H21 H 0.4033 0.9720 0.7282
H22 H 0.2675 0.9721 0.7898
H23 H 0.0844 0.9727 0.7319
C21 C 0.6089(11) 0.1639(5) 0.8956(2)
H24 H 0.4530 0.1277 0.8734
H25 H 0.5398 0.2207 0.9268
C22 C -0.1114(11) 0.1644(5) 0.6043(2)
H26 H 0.0449 0.1279 0.6264
H27 H -0.0426 0.2216 0.5732
C23 C 0.7648(12) 0.0478(6) 0.9229(2)
H28 H 0.8129 -0.0157 0.8927
H29 H 0.6539 0.0027 0.9511
H30 H 0.9277 0.0818 0.9423
C24 C -0.2661(12) 0.0485(5) 0.5767(2)
H31 H -0.3293 -0.0111 0.6070
H32 H -0.1488 -0.0014 0.5513
H33 H -0.4195 0.0832 0.5541
loop_
_geom_bond_atom_site_label_1
_geom_bond_atom_site_label_2
_geom_bond_site_symmetry_1
_geom_bond_site_symmetry_2
N1 C2 1_555 1_555
O1 C2 1_555 1_555
C1 C2 1_555 1_555
C3 C1 1_555 1_555
C4 C3 1_555 1_555
C5 C1 1_555 1_555
C6 C5 1_555 1_555
C7 C4 1_555 1_555
H1 C7 1_555 1_555
H2 C7 1_555 1_555
C8 C6 1_555 1_555
H3 C8 1_555 1_555
H4 C8 1_555 1_555
C9 O1 1_555 1_555
C10 C3 1_555 1_555
H5 C10 1_555 1_555
C11 C5 1_555 1_555
H6 C11 1_555 1_555
C12 N1 1_555 1_555
C13 C10 1_555 1_555
C14 C9 1_555 1_555
H7 C14 1_555 1_555
H8 C14 1_555 1_555
C15 C7 1_555 1_555
H9 C15 1_555 1_555
H10 C15 1_555 1_555
C16 C8 1_555 1_555
H11 C16 1_555 1_555
H12 C16 1_555 1_555
C17 C12 1_555 1_555
H13 C17 1_555 1_555
H14 C17 1_555 1_555
C18 C15 1_555 1_555
H15 C18 1_555 1_555
H16 C18 1_555 1_555
H17 C18 1_555 1_555
C19 C16 1_555 1_555
H18 C19 1_555 1_555
H19 C19 1_555 1_555
H20 C19 1_555 1_555
C20 C13 1_555 1_555
H21 C20 1_555 1_555
H22 C20 1_555 1_555
H23 C20 1_555 1_555
C21 C17 1_555 1_555
H24 C21 1_555 1_555
H25 C21 1_555 1_555
C22 C14 1_555 1_555
H26 C22 1_555 1_555
H27 C22 1_555 1_555
C23 C21 1_555 1_555
H28 C23 1_555 1_555
H29 C23 1_555 1_555
H30 C23 1_555 1_555
C24 C22 1_555 1_555
H31 C24 1_555 1_555
H32 C24 1_555 1_555
H33 C24 1_555 1_555
C4 C9 1_555 1_555
C6 C12 1_555 1_555
C11 C13 1_555 1_555

#END
