
#######################################################################
#
#                 Cambridge Crystallographic Data Centre
#                                CCDC 
#
#######################################################################
#
# If this CIF has been generated from an entry in the Cambridge 
# Structural Database, then it will include bibliographic, chemical, 
# crystal, experimental, refinement or atomic coordinate data resulting 
# from the CCDC's data processing and validation procedures.
#
#######################################################################

data_SIFHOG
_chemical_formula_moiety         'C20 H24 N2 P1 1+,F6 P1 1-'
_chemical_name_systematic        
'3-Butyl-2-(diphenylphosphino)-1-methyl-1H-imidazol-3-ium hexafluorophosphate'
_symmetry_cell_setting           orthorhombic
_symmetry_space_group_name_H-M   'P 21 21 21'
_symmetry_Int_Tables_number      19
_space_group_name_Hall           'P 2ac 2ab'
loop_
_symmetry_equiv_pos_site_id
_symmetry_equiv_pos_as_xyz
1 x,y,z
2 1/2-x,-y,1/2+z
3 -x,1/2+y,1/2-z
4 1/2+x,1/2-y,-z
_cell_length_a                   10.972(2)
_cell_length_b                   12.542(2)
_cell_length_c                   15.935(3)
_cell_angle_alpha                90
_cell_angle_beta                 90
_cell_angle_gamma                90
_cell_volume                     2192.83
_exptl_crystal_colour            yellow
_exptl_crystal_description       block
_cell_formula_units_Z            4
loop_
_atom_site_label
_atom_site_type_symbol
_atom_site_fract_x
_atom_site_fract_y
_atom_site_fract_z
P1 P 0.93678(9) 0.16902(8) 0.87678(6)
N1 N 0.7409(3) 0.1985(2) 0.7686(2)
N2 N 0.8723(3) 0.0962(2) 0.70899(18)
C1 C 1.0778(4) 0.2324(3) 0.8432(2)
C2 C 1.1076(4) 0.2655(3) 0.7633(2)
H1 H 1.0533 0.2532 0.7196
C3 C 1.2163(4) 0.3163(4) 0.7469(3)
H2 H 1.2344 0.3386 0.6926
C4 C 1.2968(4) 0.3336(4) 0.8098(3)
H3 H 1.3711 0.3664 0.7984
C5 C 1.2694(5) 0.3034(4) 0.8896(3)
H4 H 1.3250 0.3163 0.9325
C6 C 1.1615(5) 0.2543(4) 0.9075(3)
H5 H 1.1434 0.2352 0.9625
C7 C 0.9809(3) 0.0304(3) 0.8993(2)
C8 C 1.0990(4) -0.0086(3) 0.8905(2)
H6 H 1.1601 0.0344 0.8684
C9 C 1.1246(4) -0.1124(3) 0.9150(3)
H7 H 1.2033 -0.1391 0.9094
C10 C 1.0340(4) -0.1760(4) 0.9475(2)
H8 H 1.0514 -0.2455 0.9640
C11 C 0.9175(4) -0.1366(4) 0.9557(3)
H9 H 0.8561 -0.1799 0.9772
C12 C 0.8911(4) -0.0331(3) 0.9323(2)
H10 H 0.8126 -0.0065 0.9388
C13 C 0.8507(3) 0.1534(3) 0.7793(2)
C14 C 0.7767(4) 0.1068(3) 0.6552(3)
H11 H 0.7696 0.0757 0.6024
C15 C 0.6948(4) 0.1703(4) 0.6925(3)
H12 H 0.6201 0.1913 0.6704
C16 C 0.9812(4) 0.0327(3) 0.6910(3)
H13 H 1.0363 0.0368 0.7376
H14 H 1.0204 0.0599 0.6416
H15 H 0.9582 -0.0403 0.6820
C17 C 0.6789(4) 0.2706(3) 0.8280(3)
H16 H 0.6976 0.2484 0.8849
H17 H 0.5915 0.2646 0.8202
C18 C 0.7154(4) 0.3840(3) 0.8171(3)
H18 H 0.7081 0.4029 0.7583
H19 H 0.8003 0.3917 0.8329
C19 C 0.6393(5) 0.4608(4) 0.8688(3)
H20 H 0.5538 0.4488 0.8565
H21 H 0.6519 0.4456 0.9278
C20 C 0.6681(6) 0.5739(4) 0.8532(4)
H22 H 0.6160 0.6181 0.8869
H23 H 0.6553 0.5899 0.7950
H24 H 0.7516 0.5874 0.8676
P2 P 1.50404(10) -0.02323(10) 0.91686(7)
F1 F 1.5470(9) 0.0714(5) 0.9664(4)
F2 F 1.4740(7) -0.1227(4) 0.8656(4)
F3 F 1.4171(4) -0.0667(6) 0.9844(3)
F4 F 1.4009(4) 0.0330(5) 0.8699(3)
F5 F 1.6068(3) -0.0848(5) 0.9646(4)
F6 F 1.5972(3) 0.0121(4) 0.8479(3)
loop_
_geom_bond_atom_site_label_1
_geom_bond_atom_site_label_2
_geom_bond_site_symmetry_1
_geom_bond_site_symmetry_2
P1 C1 1_555 1_555
N1 C13 1_555 1_555
N2 C13 1_555 1_555
C1 C2 1_555 1_555
C2 H1 1_555 1_555
C3 C2 1_555 1_555
H2 C3 1_555 1_555
C4 C3 1_555 1_555
H3 C4 1_555 1_555
C5 C4 1_555 1_555
H4 C5 1_555 1_555
C6 C1 1_555 1_555
H5 C6 1_555 1_555
C7 P1 1_555 1_555
C8 C7 1_555 1_555
H6 C8 1_555 1_555
C9 C8 1_555 1_555
H7 C9 1_555 1_555
C10 C9 1_555 1_555
H8 C10 1_555 1_555
C11 C10 1_555 1_555
H9 C11 1_555 1_555
C12 C7 1_555 1_555
H10 C12 1_555 1_555
C13 P1 1_555 1_555
C14 N2 1_555 1_555
H11 C14 1_555 1_555
C15 N1 1_555 1_555
H12 C15 1_555 1_555
C16 N2 1_555 1_555
H13 C16 1_555 1_555
H14 C16 1_555 1_555
H15 C16 1_555 1_555
C17 N1 1_555 1_555
H16 C17 1_555 1_555
H17 C17 1_555 1_555
C18 C17 1_555 1_555
H18 C18 1_555 1_555
H19 C18 1_555 1_555
C19 C18 1_555 1_555
H20 C19 1_555 1_555
H21 C19 1_555 1_555
C20 C19 1_555 1_555
H22 C20 1_555 1_555
H23 C20 1_555 1_555
H24 C20 1_555 1_555
P2 F1 1_555 1_555
F2 P2 1_555 1_555
F3 P2 1_555 1_555
F4 P2 1_555 1_555
F5 P2 1_555 1_555
F6 P2 1_555 1_555
C5 C6 1_555 1_555
C11 C12 1_555 1_555
C14 C15 1_555 1_555

#END
