
#######################################################################
#
#                 Cambridge Crystallographic Data Centre
#                                CCDC 
#
#######################################################################
#
# If this CIF has been generated from an entry in the Cambridge 
# Structural Database, then it will include bibliographic, chemical, 
# crystal, experimental, refinement or atomic coordinate data resulting 
# from the CCDC's data processing and validation procedures.
#
#######################################################################

data_SIFVUB
_chemical_formula_moiety         'C15 H14 N2 O1'
_chemical_name_systematic        2-((4-methylphenoxy)methyl)-1H-benzimidazole
_symmetry_cell_setting           orthorhombic
_symmetry_space_group_name_H-M   'P n 21 a'
_symmetry_Int_Tables_number      33
_space_group_name_Hall           'P -2ac -2n'
loop_
_symmetry_equiv_pos_site_id
_symmetry_equiv_pos_as_xyz
1 x,y,z
2 1/2+x,y,1/2-z
3 1/2-x,1/2+y,1/2+z
4 -x,1/2+y,-z
_cell_length_a                   10.1845(5)
_cell_length_b                   31.422(2)
_cell_length_c                   8.1289(6)
_cell_angle_alpha                90
_cell_angle_beta                 90
_cell_angle_gamma                90
_cell_volume                     2601.39
_cell_formula_units_Z            8
loop_
_atom_site_label
_atom_site_type_symbol
_atom_site_fract_x
_atom_site_fract_y
_atom_site_fract_z
O1 O 0.4597(3) 0.65289(14) 0.5194(4)
N1 N 0.2490(3) 0.71024(13) 0.7786(4)
N2 N 0.4682(3) 0.71281(14) 0.7738(4)
H1 H 0.537(5) 0.705(2) 0.751(7)
C1 C 0.2946(3) 0.73091(14) 0.9213(5)
C2 C 0.4307(3) 0.73245(13) 0.9186(5)
C3 C 0.5024(4) 0.75205(17) 1.0408(6)
H2 H 0.5937 0.7527 1.0387
C4 C 0.4319(4) 0.77060(17) 1.1660(6)
H3 H 0.4771 0.7846 1.2494
C5 C 0.2963(5) 0.76923(18) 1.1726(6)
H4 H 0.2523 0.7822 1.2594
C6 C 0.2252(4) 0.74863(17) 1.0503(6)
H5 H 0.1341 0.7468 1.0552
C7 C 0.3560(3) 0.70047(15) 0.6963(5)
C8 C 0.3558(5) 0.6820(2) 0.5282(6)
H6 H 0.370(4) 0.7049(17) 0.448(6)
H7 H 0.278(4) 0.6638(14) 0.505(6)
C9 C 0.4935(5) 0.63677(19) 0.3678(6)
C10 C 0.4346(8) 0.6468(2) 0.2231(7)
H8 H 0.3629 0.6651 0.2204
C11 C 0.4838(9) 0.6290(2) 0.0793(8)
H9 H 0.4439 0.6362 -0.0198
C12 C 0.5856(8) 0.6021(3) 0.0755(11)
C13 C 0.6376(7) 0.5917(4) 0.2227(13)
H10 H 0.7051 0.5718 0.2247
C14 C 0.5971(6) 0.6086(3) 0.3687(10)
H11 H 0.6385 0.6013 0.4667
C15 C 0.6340(9) 0.5839(4) -0.0877(12)
H12 H 0.6219 0.5536 -0.0882
H13 H 0.7256 0.5903 -0.1011
H14 H 0.5851 0.5963 -0.1765
O2 O 0.1980(3) 0.44096(15) 0.5123(4)
N3 N -0.0158(3) 0.38665(13) 0.7837(4)
N4 N 0.2012(3) 0.38374(14) 0.7744(4)
H15 H 0.270(4) 0.3880(16) 0.732(5)
C16 C 0.0303(3) 0.36639(15) 0.9216(5)
C17 C 0.1670(3) 0.36427(14) 0.9174(5)
C18 C 0.2397(4) 0.34409(16) 1.0406(6)
H16 H 0.3310 0.3433 1.0378
C19 C 0.1696(5) 0.32545(17) 1.1663(6)
H17 H 0.2144 0.3112 1.2494
C20 C 0.0343(5) 0.32745(17) 1.1716(6)
H18 H -0.0093 0.3147 1.2591
C21 C -0.0381(4) 0.34752(16) 1.0526(6)
H19 H -0.1293 0.3486 1.0585
C22 C 0.0902(4) 0.39620(16) 0.6998(6)
C23 C 0.0886(4) 0.4141(2) 0.5296(6)
H20 H 0.002(5) 0.4301(15) 0.504(5)
H21 H 0.120(8) 0.384(3) 0.507(12)
C24 C 0.2229(4) 0.45714(17) 0.3570(6)
C25 C 0.1538(6) 0.4476(2) 0.2187(7)
H22 H 0.0838 0.4287 0.2237
C26 C 0.1881(7) 0.4662(2) 0.0703(6)
H23 H 0.1381 0.4600 -0.0224
C27 C 0.2913(7) 0.4929(2) 0.0549(8)
C28 C 0.3616(6) 0.5015(3) 0.1927(10)
H24 H 0.4342 0.5194 0.1857
C29 C 0.3270(6) 0.4840(2) 0.3458(8)
H25 H 0.3753 0.4908 0.4392
C30 C 0.3261(9) 0.5118(3) -0.1098(9)
H26 H 0.2909 0.4942 -0.1958
H27 H 0.4199 0.5132 -0.1204
H28 H 0.2898 0.5399 -0.1180
loop_
_geom_bond_atom_site_label_1
_geom_bond_atom_site_label_2
_geom_bond_site_symmetry_1
_geom_bond_site_symmetry_2
O1 C8 1_555 1_555
N1 C1 1_555 1_555
N2 H1 1_555 1_555
C1 C2 1_555 1_555
C2 N2 1_555 1_555
C3 C2 1_555 1_555
H2 C3 1_555 1_555
C4 C3 1_555 1_555
H3 C4 1_555 1_555
C5 C4 1_555 1_555
H4 C5 1_555 1_555
C6 C1 1_555 1_555
H5 C6 1_555 1_555
C7 N1 1_555 1_555
C8 C7 1_555 1_555
H6 C8 1_555 1_555
H7 C8 1_555 1_555
C9 O1 1_555 1_555
C10 C9 1_555 1_555
H8 C10 1_555 1_555
C11 C10 1_555 1_555
H9 C11 1_555 1_555
C12 C11 1_555 1_555
C13 C12 1_555 1_555
H10 C13 1_555 1_555
C14 C9 1_555 1_555
H11 C14 1_555 1_555
C15 C12 1_555 1_555
H12 C15 1_555 1_555
H13 C15 1_555 1_555
H14 C15 1_555 1_555
O2 C23 1_555 1_555
N3 C16 1_555 1_555
N4 H15 1_555 1_555
C16 C17 1_555 1_555
C17 N4 1_555 1_555
C18 C17 1_555 1_555
H16 C18 1_555 1_555
C19 C18 1_555 1_555
H17 C19 1_555 1_555
C20 C19 1_555 1_555
H18 C20 1_555 1_555
C21 C16 1_555 1_555
H19 C21 1_555 1_555
C22 N3 1_555 1_555
C23 C22 1_555 1_555
H20 C23 1_555 1_555
H21 C23 1_555 1_555
C24 O2 1_555 1_555
C25 C24 1_555 1_555
H22 C25 1_555 1_555
C26 C25 1_555 1_555
H23 C26 1_555 1_555
C27 C26 1_555 1_555
C28 C27 1_555 1_555
H24 C28 1_555 1_555
C29 C24 1_555 1_555
H25 C29 1_555 1_555
C30 C27 1_555 1_555
H26 C30 1_555 1_555
H27 C30 1_555 1_555
H28 C30 1_555 1_555
N2 C7 1_555 1_555
C5 C6 1_555 1_555
C13 C14 1_555 1_555
N4 C22 1_555 1_555
C20 C21 1_555 1_555
C28 C29 1_555 1_555

#END
