
#######################################################################
#
#                 Cambridge Crystallographic Data Centre
#                                CCDC 
#
#######################################################################
#
# If this CIF has been generated from an entry in the Cambridge 
# Structural Database, then it will include bibliographic, chemical, 
# crystal, experimental, refinement or atomic coordinate data resulting 
# from the CCDC's data processing and validation procedures.
#
#######################################################################

data_SIFWIO
_chemical_formula_moiety         'C26 H28 N4 S1,2(H2 O1)'
_chemical_name_systematic        
'2,5-bis(1-n-Butylbenzimidazol-2-yl)thiophene dihydrate'
_symmetry_cell_setting           monoclinic
_symmetry_space_group_name_H-M   'P 21/n'
_symmetry_Int_Tables_number      14
_space_group_name_Hall           '-P 2yn'
loop_
_symmetry_equiv_pos_site_id
_symmetry_equiv_pos_as_xyz
1 x,y,z
2 1/2-x,1/2+y,1/2-z
3 -x,-y,-z
4 1/2+x,1/2-y,1/2+z
_cell_length_a                   8.7215(8)
_cell_length_b                   18.9156(18)
_cell_length_c                   14.7475(14)
_cell_angle_alpha                90
_cell_angle_beta                 96.696(2)
_cell_angle_gamma                90
_cell_volume                     2416.34
_exptl_crystal_colour            colorless
_exptl_crystal_description       block
_chemical_melting_point          '104-105 deg.C'
_cell_formula_units_Z            4
_exptl_crystal_recrystallization_method ethanol
loop_
_atom_site_label
_atom_site_type_symbol
_atom_site_fract_x
_atom_site_fract_y
_atom_site_fract_z
S1 S 0.87633(5) 0.43289(2) 0.42144(3)
N1 N 0.83595(17) 0.33321(8) 0.56724(10)
N2 N 1.07642(17) 0.29061(7) 0.60024(10)
N3 N 0.78192(17) 0.54493(8) 0.28945(10)
N4 N 1.00757(17) 0.57042(7) 0.23741(10)
C1 C 0.8353(2) 0.28250(9) 0.63479(12)
C2 C 0.7140(2) 0.25821(10) 0.68027(13)
H5 H 0.6147 0.2762 0.6670
C3 C 0.7467(3) 0.20647(11) 0.74557(13)
H6 H 0.6677 0.1893 0.7767
C4 C 0.8950(3) 0.17944(11) 0.76594(14)
H7 H 0.9124 0.1445 0.8104
C5 C 1.0173(3) 0.20284(10) 0.72219(13)
H8 H 1.1164 0.1847 0.7361
C6 C 0.9843(2) 0.25509(9) 0.65608(11)
C7 C 0.9801(2) 0.33633(9) 0.54852(11)
C8 C 1.0249(2) 0.38411(9) 0.47847(11)
C9 C 1.1625(2) 0.40051(10) 0.44756(12)
H9 H 1.2558 0.3796 0.4699
C10 C 1.1486(2) 0.45213(10) 0.37863(12)
H10 H 1.2319 0.4688 0.3508
C11 C 1.0002(2) 0.47558(9) 0.35647(11)
C12 C 0.9309(2) 0.52949(9) 0.29425(11)
C13 C 0.7588(2) 0.59849(9) 0.22544(12)
C14 C 0.6256(2) 0.63654(10) 0.19526(13)
H11 H 0.5321 0.6266 0.2170
C15 C 0.6374(3) 0.68927(11) 0.13207(14)
H12 H 0.5501 0.7154 0.1110
C16 C 0.7772(3) 0.70446(11) 0.09893(14)
H13 H 0.7807 0.7405 0.0564
C17 C 0.9098(3) 0.66765(10) 0.12742(13)
H14 H 1.0026 0.6775 0.1047
C18 C 0.8985(2) 0.61470(9) 0.19210(12)
C19 C 1.2436(2) 0.28256(9) 0.60209(12)
H15 H 1.2848 0.2617 0.6600
H16 H 1.2898 0.3290 0.5983
C20 C 1.2898(2) 0.23667(10) 0.52476(13)
H17 H 1.2389 0.2545 0.4673
H18 H 1.4003 0.2408 0.5231
C21 C 1.2492(3) 0.15895(11) 0.53360(16)
H19 H 1.1434 0.1553 0.5474
H20 H 1.2551 0.1358 0.4754
C22 C 1.3529(3) 0.12048(13) 0.6064(2)
H21 H 1.4577 0.1229 0.5926
H22 H 1.3215 0.0719 0.6083
H23 H 1.3457 0.1422 0.6646
C23 C 1.1671(2) 0.56479(9) 0.21648(12)
H24 H 1.2349 0.5561 0.2723
H25 H 1.1979 0.6090 0.1907
C24 C 1.1837(2) 0.50510(10) 0.14917(13)
H26 H 1.1511 0.4612 0.1751
H27 H 1.1154 0.5142 0.0937
C25 C 1.3474(2) 0.49601(10) 0.12489(13)
H28 H 1.3835 0.5406 0.1028
H29 H 1.4150 0.4830 0.1792
C26 C 1.3551(3) 0.43952(12) 0.05222(15)
H30 H 1.3223 0.3950 0.0747
H31 H 1.4593 0.4354 0.0378
H32 H 1.2886 0.4524 -0.0017
O1 O 0.51172(15) 0.49862(8) 0.36924(9)
H1 H 0.5976 0.5086 0.3443
H2 H 0.4924 0.5376 0.4035
O2 O 0.53710(15) 0.39404(7) 0.50835(10)
H3 H 0.6320 0.3744 0.5234
H4 H 0.5502 0.4267 0.4635
loop_
_geom_bond_atom_site_label_1
_geom_bond_atom_site_label_2
_geom_bond_site_symmetry_1
_geom_bond_site_symmetry_2
S1 C8 1_555 1_555
N1 C1 1_555 1_555
N2 C6 1_555 1_555
N3 C12 1_555 1_555
N4 C12 1_555 1_555
O1 H1 1_555 1_555
H2 O1 1_555 1_555
O2 H3 1_555 1_555
H4 O2 1_555 1_555
C1 C2 1_555 1_555
C2 H5 1_555 1_555
C3 C2 1_555 1_555
H6 C3 1_555 1_555
C4 C3 1_555 1_555
H7 C4 1_555 1_555
C5 C4 1_555 1_555
H8 C5 1_555 1_555
C6 C1 1_555 1_555
C7 N1 1_555 1_555
C8 C7 1_555 1_555
C9 C8 1_555 1_555
H9 C9 1_555 1_555
C10 C9 1_555 1_555
H10 C10 1_555 1_555
C11 S1 1_555 1_555
C12 C11 1_555 1_555
C13 N3 1_555 1_555
C14 C13 1_555 1_555
H11 C14 1_555 1_555
C15 C14 1_555 1_555
H12 C15 1_555 1_555
C16 C15 1_555 1_555
H13 C16 1_555 1_555
C17 C16 1_555 1_555
H14 C17 1_555 1_555
C18 N4 1_555 1_555
C19 N2 1_555 1_555
H15 C19 1_555 1_555
H16 C19 1_555 1_555
C20 C19 1_555 1_555
H17 C20 1_555 1_555
H18 C20 1_555 1_555
C21 C20 1_555 1_555
H19 C21 1_555 1_555
H20 C21 1_555 1_555
C22 C21 1_555 1_555
H21 C22 1_555 1_555
H22 C22 1_555 1_555
H23 C22 1_555 1_555
C23 N4 1_555 1_555
H24 C23 1_555 1_555
H25 C23 1_555 1_555
C24 C23 1_555 1_555
H26 C24 1_555 1_555
H27 C24 1_555 1_555
C25 C24 1_555 1_555
H28 C25 1_555 1_555
H29 C25 1_555 1_555
C26 C25 1_555 1_555
H30 C26 1_555 1_555
H31 C26 1_555 1_555
H32 C26 1_555 1_555
N2 C7 1_555 1_555
C5 C6 1_555 1_555
C10 C11 1_555 1_555
C13 C18 1_555 1_555
C17 C18 1_555 1_555

#END
