
#######################################################################
#
#                 Cambridge Crystallographic Data Centre
#                                CCDC 
#
#######################################################################
#
# If this CIF has been generated from an entry in the Cambridge 
# Structural Database, then it will include bibliographic, chemical, 
# crystal, experimental, refinement or atomic coordinate data resulting 
# from the CCDC's data processing and validation procedures.
#
#######################################################################

data_SIFWEM
_chemical_formula_moiety         'C17 H18 N2 O2'
_chemical_name_systematic        
2-(2-((4-methylphenoxy)methyl)-1H-benzimidazol-1-yl)ethanol
_symmetry_cell_setting           orthorhombic
_symmetry_space_group_name_H-M   'P 21 21 21'
_symmetry_Int_Tables_number      19
_space_group_name_Hall           'P 2ac 2ab'
loop_
_symmetry_equiv_pos_site_id
_symmetry_equiv_pos_as_xyz
1 x,y,z
2 1/2-x,-y,1/2+z
3 1/2+x,1/2-y,-z
4 -x,1/2+y,1/2-z
_cell_length_a                   4.4469(4)
_cell_length_b                   14.2061(11)
_cell_length_c                   23.7756(19)
_cell_angle_alpha                90
_cell_angle_beta                 90
_cell_angle_gamma                90
_cell_volume                     1501.98
_cell_formula_units_Z            4
loop_
_atom_site_label
_atom_site_type_symbol
_atom_site_fract_x
_atom_site_fract_y
_atom_site_fract_z
O1 O 0.6530(6) 0.34225(17) 0.33801(12)
O2 O 0.6808(8) 0.06531(19) 0.24928(13)
H1 H 0.6143 0.0211 0.2677
N1 N 0.7962(6) 0.26264(19) 0.22181(14)
N2 N 0.5295(7) 0.3942(2) 0.20643(15)
C1 C 0.6540(8) 0.2509(3) 0.17093(18)
C2 C 0.4888(8) 0.3330(3) 0.16222(19)
C3 C 0.3156(11) 0.3428(3) 0.1137(2)
H2 H 0.2021 0.3967 0.1075
C4 C 0.3173(14) 0.2703(5) 0.0754(2)
H3 H 0.2054 0.2756 0.0425
C5 C 0.4844(14) 0.1894(4) 0.0853(2)
H4 H 0.4829 0.1419 0.0583
C6 C 0.6503(11) 0.1768(3) 0.1328(2)
H5 H 0.7558 0.1213 0.1394
C7 C 0.7139(8) 0.3500(3) 0.24073(18)
C8 C 0.8172(12) 0.3902(3) 0.2947(2)
H6 H 1.036(8) 0.381(2) 0.3024(14)
H7 H 0.749(8) 0.462(3) 0.2952(15)
C9 C 0.6976(9) 0.3729(3) 0.39258(19)
C10 C 0.8759(11) 0.4463(3) 0.4086(2)
H8 H 0.9811 0.4808 0.3818
C11 C 0.8991(12) 0.4691(3) 0.4651(2)
H9 H 1.0228 0.5189 0.4753
C12 C 0.7488(10) 0.4216(3) 0.5062(2)
C13 C 0.5714(10) 0.3482(3) 0.4888(2)
H10 H 0.4659 0.3137 0.5155
C14 C 0.5441(9) 0.3237(3) 0.4327(2)
H11 H 0.4210 0.2738 0.4223
C15 C 0.7798(14) 0.4466(4) 0.56781(18)
H12 H 0.9859 0.4395 0.5791
H13 H 0.6555 0.4055 0.5899
H14 H 0.7179 0.5106 0.5736
C16 C 1.0053(8) 0.1972(3) 0.2481(2)
H15 H 1.1452 0.2325 0.2712
H16 H 1.1205 0.1660 0.2188
C17 C 0.8555(10) 0.1231(3) 0.28410(18)
H17 H 1.0066 0.0858 0.3033
H18 H 0.7293 0.1529 0.3122
loop_
_geom_bond_atom_site_label_1
_geom_bond_atom_site_label_2
_geom_bond_site_symmetry_1
_geom_bond_site_symmetry_2
O1 C8 1_555 1_555
O2 H1 1_555 1_555
N1 C1 1_555 1_555
N2 C2 1_555 1_555
C1 C2 1_555 1_555
C2 C3 1_555 1_555
C3 H2 1_555 1_555
C4 C3 1_555 1_555
H3 C4 1_555 1_555
C5 C4 1_555 1_555
H4 C5 1_555 1_555
C6 C1 1_555 1_555
H5 C6 1_555 1_555
C7 N1 1_555 1_555
C8 C7 1_555 1_555
H6 C8 1_555 1_555
H7 C8 1_555 1_555
C9 O1 1_555 1_555
C10 C9 1_555 1_555
H8 C10 1_555 1_555
C11 C10 1_555 1_555
H9 C11 1_555 1_555
C12 C11 1_555 1_555
C13 C12 1_555 1_555
H10 C13 1_555 1_555
C14 C9 1_555 1_555
H11 C14 1_555 1_555
C15 C12 1_555 1_555
H12 C15 1_555 1_555
H13 C15 1_555 1_555
H14 C15 1_555 1_555
C16 N1 1_555 1_555
H15 C16 1_555 1_555
H16 C16 1_555 1_555
C17 O2 1_555 1_555
H17 C17 1_555 1_555
H18 C17 1_555 1_555
N2 C7 1_555 1_555
C5 C6 1_555 1_555
C13 C14 1_555 1_555
C16 C17 1_555 1_555

#END
