
#######################################################################
#
#                 Cambridge Crystallographic Data Centre
#                                CCDC 
#
#######################################################################
#
# If this CIF has been generated from an entry in the Cambridge 
# Structural Database, then it will include bibliographic, chemical, 
# crystal, experimental, refinement or atomic coordinate data resulting 
# from the CCDC's data processing and validation procedures.
#
#######################################################################

data_SIFWIQ
_chemical_formula_moiety         'C16 H15 Cl1 N2 O2'
_chemical_name_systematic        
2-(2-((4-chlorophenoxy)methyl)-1H-benzimidazol-1-yl)ethanol
_symmetry_cell_setting           orthorhombic
_symmetry_space_group_name_H-M   'P 21 21 21'
_symmetry_Int_Tables_number      19
_space_group_name_Hall           'P 2ac 2ab'
loop_
_symmetry_equiv_pos_site_id
_symmetry_equiv_pos_as_xyz
1 x,y,z
2 1/2-x,-y,1/2+z
3 1/2+x,1/2-y,-z
4 -x,1/2+y,1/2-z
_cell_length_a                   4.3906(17)
_cell_length_b                   14.324(5)
_cell_length_c                   23.559(9)
_cell_angle_alpha                90
_cell_angle_beta                 90
_cell_angle_gamma                90
_cell_volume                     1481.65
_cell_formula_units_Z            4
loop_
_atom_site_label
_atom_site_type_symbol
_atom_site_fract_x
_atom_site_fract_y
_atom_site_fract_z
Cl1 Cl -0.7026(3) -0.44377(7) -0.57941(4)
O1 O -0.8586(5) -0.35212(13) -0.33834(8)
O2 O -0.8215(7) -0.07278(15) -0.25078(10)
H1 H -0.8831 -0.0281 -0.2693
N1 N -0.7097(5) -0.27070(14) -0.22232(10)
N2 N -0.9729(6) -0.40136(15) -0.20462(10)
C1 C -0.8524(6) -0.25747(17) -0.17090(11)
C2 C -1.0162(6) -0.33940(18) -0.16011(12)
C3 C -1.1889(8) -0.3482(2) -0.11061(13)
H2 H -1.3006 -0.4020 -0.1032
C4 C -1.1877(10) -0.2745(3) -0.07326(14)
H3 H -1.2989 -0.2788 -0.0398
C5 C -1.0231(10) -0.1937(3) -0.08465(16)
H4 H -1.0264 -0.1455 -0.0582
C6 C -0.8569(9) -0.1823(2) -0.13312(15)
H5 H -0.7520 -0.1273 -0.1406
C7 C -0.7886(6) -0.35803(16) -0.24010(11)
C8 C -0.4992(7) -0.2060(2) -0.25039(16)
H6 H -0.3623 -0.2416 -0.2744
H7 H -0.3770 -0.1752 -0.2217
C9 C -0.6548(9) -0.1325(2) -0.28611(16)
H8 H -0.785(8) -0.161(2) -0.3152(13)
H9 H -0.490(8) -0.097(3) -0.3047(14)
C10 C -0.6891(8) -0.39911(19) -0.29489(12)
H10 H -0.4723 -0.3897 -0.3004
H11 H -0.7310 -0.4656 -0.2957
C11 C -0.8086(7) -0.37888(17) -0.39382(12)
C12 C -0.6309(8) -0.4529(2) -0.41048(14)
H12 H -0.5316 -0.4892 -0.3834
C13 C -0.5998(9) -0.4736(2) -0.46774(15)
H13 H -0.4788 -0.5234 -0.4792
C14 C -0.7479(7) -0.4203(2) -0.50734(13)
C15 C -0.9273(7) -0.3469(2) -0.49070(14)
H14 H -1.0281 -0.3111 -0.5178
C16 C -0.9579(7) -0.3261(2) -0.43386(13)
H15 H -1.0796 -0.2763 -0.4226
loop_
_geom_bond_atom_site_label_1
_geom_bond_atom_site_label_2
_geom_bond_site_symmetry_1
_geom_bond_site_symmetry_2
Cl1 C14 1_555 1_555
O1 C10 1_555 1_555
O2 H1 1_555 1_555
N1 C1 1_555 1_555
N2 C2 1_555 1_555
C1 C2 1_555 1_555
C2 C3 1_555 1_555
C3 H2 1_555 1_555
C4 C3 1_555 1_555
H3 C4 1_555 1_555
C5 C4 1_555 1_555
H4 C5 1_555 1_555
C6 C1 1_555 1_555
H5 C6 1_555 1_555
C7 N1 1_555 1_555
C8 N1 1_555 1_555
H6 C8 1_555 1_555
H7 C8 1_555 1_555
C9 O2 1_555 1_555
H8 C9 1_555 1_555
H9 C9 1_555 1_555
C10 C7 1_555 1_555
H10 C10 1_555 1_555
H11 C10 1_555 1_555
C11 O1 1_555 1_555
C12 C11 1_555 1_555
H12 C12 1_555 1_555
C13 C12 1_555 1_555
H13 C13 1_555 1_555
C14 C13 1_555 1_555
C15 C14 1_555 1_555
H14 C15 1_555 1_555
C16 C11 1_555 1_555
H15 C16 1_555 1_555
N2 C7 1_555 1_555
C5 C6 1_555 1_555
C8 C9 1_555 1_555
C15 C16 1_555 1_555

#END
