
#######################################################################
#
#                 Cambridge Crystallographic Data Centre
#                                CCDC 
#
#######################################################################
#
# If this CIF has been generated from an entry in the Cambridge 
# Structural Database, then it will include bibliographic, chemical, 
# crystal, experimental, refinement or atomic coordinate data resulting 
# from the CCDC's data processing and validation procedures.
#
#######################################################################

data_SIFXIR
_chemical_formula_moiety         'C66 H84 N24 O12,C16 H36 N1 1+,Cl1 1-'
_chemical_name_systematic        
'tetra-n-butylammonium 5,7,13,15,21,23,29,31,37,39,45,47-dodecakis(prop-2-en-1-yl)-1,3,5,7,9,11,13,15,17,19,21,23,25,27,29,31,33,35,37,39,41,43,45,47-tetracosaazatridecacyclo[41.5.1.1^3,9^.1^11,17^.1^19,25^.1^27,33^.1^35,41^.0^4,8^.0^12,16^.0^20,24^.0^28,32^.0^36,40^.0^44,48^]tetrapentacontane-6,14,22,30,38,46,49,50,51,52,53,54-dodecone chloride unknown solvate'
_symmetry_cell_setting           monoclinic
_symmetry_space_group_name_H-M   'C 2/c'
_symmetry_Int_Tables_number      15
_space_group_name_Hall           '-C 2yn'
loop_
_symmetry_equiv_pos_site_id
_symmetry_equiv_pos_as_xyz
1 x,y,z
2 -x,y,1/2-z
3 1/2+x,1/2+y,z
4 1/2-x,1/2+y,1/2-z
5 -x,-y,-z
6 x,-y,1/2+z
7 1/2-x,1/2-y,-z
8 1/2+x,1/2-y,1/2+z
_cell_length_a                   28.1925(10)
_cell_length_b                   14.3442(8)
_cell_length_c                   25.2053(13)
_cell_angle_alpha                90
_cell_angle_beta                 95.973(5)
_cell_angle_gamma                90
_cell_volume                     10137.7
_exptl_crystal_colour            colorless
_exptl_crystal_description       irregular
_cell_formula_units_Z            4
loop_
_atom_site_label
_atom_site_type_symbol
_atom_site_fract_x
_atom_site_fract_y
_atom_site_fract_z
Cl1 Cl 0.7500 0.2500 0.5000
O1 O 0.67433(7) 0.32785(14) 0.30170(7)
O2 O 0.56001(7) 0.00745(14) 0.38379(8)
O3 O 0.58552(8) 0.37290(17) 0.48809(8)
O4 O 0.71323(7) 0.68866(14) 0.42867(8)
O5 O 0.72660(7) 0.50055(14) 0.64698(8)
O6 O 0.61313(7) 0.15374(15) 0.69227(8)
N1 N 0.67844(8) 0.17874(16) 0.33658(9)
N2 N 0.63665(8) 0.28563(16) 0.37499(9)
N3 N 0.58719(8) 0.15693(16) 0.40090(9)
N4 N 0.63802(8) 0.05068(16) 0.37669(9)
N5 N 0.64215(8) 0.41879(17) 0.43403(9)
N6 N 0.65470(8) 0.44736(17) 0.52031(9)
N7 N 0.69852(8) 0.58322(16) 0.49427(9)
N8 N 0.70044(8) 0.53236(16) 0.41116(9)
N9 N 0.67491(8) 0.38765(16) 0.60929(9)
N10 N 0.73705(8) 0.34384(16) 0.66524(9)
N11 N 0.68871(8) 0.21129(17) 0.68704(9)
N12 N 0.63178(8) 0.24350(17) 0.62192(9)
C1 C 0.66413(10) 0.2704(2) 0.33443(11)
C2 C 0.66644(10) 0.13336(19) 0.38567(11)
H1 H 0.6955 0.1218 0.4111
C3 C 0.63255(9) 0.2043(2) 0.40819(11)
H2 H 0.6423 0.2183 0.4466
C4 C 0.59174(10) 0.0658(2) 0.38703(10)
C5 C 0.54312(10) 0.1939(2) 0.41757(12)
H3 H 0.5510 0.2360 0.4483
H4 H 0.5242 0.1415 0.4299
C6 C 0.51304(11) 0.2458(2) 0.37541(14)
H5 H 0.4850 0.2746 0.3856
C7 C 0.52160(13) 0.2557(2) 0.32541(14)
H6 H 0.5492 0.2282 0.3134
H7 H 0.5002 0.2904 0.3014
C8 C 0.65691(11) -0.0425(2) 0.37140(12)
H8 H 0.6863 -0.0381 0.3532
H9 H 0.6334 -0.0794 0.3482
C9 C 0.66822(12) -0.0937(2) 0.42247(14)
H10 H 0.6795 -0.1559 0.4205
C10 C 0.66391(15) -0.0599(3) 0.46991(15)
H11 H 0.6528 0.0021 0.4736
H12 H 0.6719 -0.0972 0.5007
C11 C 0.61854(11) 0.3772(2) 0.38612(11)
H13 H 0.6225 0.4187 0.3555
H14 H 0.5840 0.3724 0.3897
C12 C 0.62355(11) 0.4092(2) 0.48153(11)
C13 C 0.69174(10) 0.44927(19) 0.44077(11)
H15 H 0.7144 0.3978 0.4345
C14 C 0.69699(10) 0.48321(19) 0.49983(10)
H16 H 0.7267 0.4585 0.5202
C15 C 0.70492(9) 0.60956(19) 0.44315(11)
C16 C 0.70744(11) 0.6478(2) 0.53923(11)
H17 H 0.7318 0.6935 0.5306
H18 H 0.7210 0.6121 0.5708
C17 C 0.66554(14) 0.6991(2) 0.55349(14)
H19 H 0.6706 0.7389 0.5836
C18 C 0.62286(17) 0.6966(3) 0.53019(18)
H20 H 0.6155 0.6581 0.4998
H21 H 0.5986 0.7334 0.5433
C19 C 0.71364(11) 0.5344(2) 0.35726(11)
H22 H 0.7036 0.5950 0.3410
H23 H 0.6957 0.4850 0.3364
C20 C 0.76532(14) 0.5213(2) 0.35253(15)
H24 H 0.7754 0.5314 0.3182
C21 C 0.79800(14) 0.4978(3) 0.38959(17)
H25 H 0.7900 0.4868 0.4248
H26 H 0.8301 0.4916 0.3818
C22 C 0.64505(10) 0.4501(2) 0.57553(11)
H27 H 0.6499 0.5145 0.5891
H28 H 0.6112 0.4335 0.5777
C23 C 0.71421(10) 0.4196(2) 0.64126(11)
C24 C 0.67398(9) 0.28673(19) 0.60477(11)
H29 H 0.6802 0.2655 0.5683
C25 C 0.71455(10) 0.2564(2) 0.64792(10)
H30 H 0.7376 0.2130 0.6331
C26 C 0.64201(10) 0.1981(2) 0.66973(11)
C27 C 0.71105(11) 0.1616(2) 0.73368(11)
H31 H 0.7434 0.1415 0.7265
H32 H 0.6922 0.1049 0.7393
C28 C 0.71500(11) 0.2190(2) 0.78380(11)
H33 H 0.6881 0.2545 0.7914
C29 C 0.75355(12) 0.2227(2) 0.81769(12)
H34 H 0.7810 0.1879 0.8111
H35 H 0.7540 0.2602 0.8488
C30 C 0.58893(10) 0.2218(2) 0.58645(13)
H36 H 0.5820 0.2746 0.5615
H37 H 0.5617 0.2156 0.6080
C31 C 0.59288(13) 0.1352(3) 0.55504(13)
H38 H 0.6200 0.1280 0.5360
C32 C 0.56150(16) 0.0684(3) 0.55198(16)
H39 H 0.5340 0.0735 0.5706
H40 H 0.5661 0.0146 0.5312
C33 C 0.78370(9) 0.3518(2) 0.69374(11)
H41 H 0.7847 0.3143 0.7268
H42 H 0.7894 0.4177 0.7042
O1F O 0.82567(7) 0.17215(14) 0.69830(7)
O2F O 0.93999(7) 0.49255(14) 0.61621(8)
O3F O 0.91448(8) 0.12710(17) 0.51191(8)
O4F O 0.78677(7) -0.18866(14) 0.57133(8)
O5F O 0.77340(7) -0.00055(14) 0.35302(8)
O6F O 0.88687(7) 0.34626(15) 0.30773(8)
N1F N 0.82156(8) 0.32126(16) 0.66342(9)
N2F N 0.86335(8) 0.21437(16) 0.62501(9)
N3F N 0.91281(8) 0.34307(16) 0.59910(9)
N4F N 0.86198(8) 0.44932(16) 0.62331(9)
N5F N 0.85785(8) 0.08121(17) 0.56597(9)
N6F N 0.84530(8) 0.05264(17) 0.47969(9)
N7F N 0.80148(8) -0.08322(16) 0.50573(9)
N8F N 0.79956(8) -0.03236(16) 0.58884(9)
N9F N 0.82509(8) 0.11235(16) 0.39071(9)
N10F N 0.76295(8) 0.15616(16) 0.33476(9)
N11F N 0.81129(8) 0.28871(17) 0.31296(9)
N12F N 0.86822(8) 0.25650(17) 0.37808(9)
C1F C 0.83587(10) 0.2296(2) 0.66557(11)
C2F C 0.83356(10) 0.36664(19) 0.61433(11)
H1F H 0.8045 0.3782 0.5889
C3F C 0.86745(9) 0.2957(2) 0.59181(11)
H2F H 0.8577 0.2817 0.5534
C4F C 0.90826(10) 0.4342(2) 0.61297(10)
C5F C 0.95688(10) 0.3061(2) 0.58243(12)
H3F H 0.9490 0.2640 0.5517
H4F H 0.9758 0.3585 0.5701
C6F C 0.98696(11) 0.2542(2) 0.62459(14)
H5F H 1.0150 0.2254 0.6144
C7F C 0.97840(13) 0.2443(2) 0.67459(14)
H6F H 0.9508 0.2718 0.6866
H7F H 0.9998 0.2096 0.6986
C8F C 0.84309(11) 0.5425(2) 0.62860(12)
H8F H 0.8137 0.5381 0.6468
H9F H 0.8666 0.5794 0.6518
C9F C 0.83178(12) 0.5937(2) 0.57753(14)
H10F H 0.8205 0.6559 0.5795
C10F C 0.83609(15) 0.5599(3) 0.53009(15)
H11F H 0.8472 0.4979 0.5264
H12F H 0.8281 0.5972 0.4993
C11F C 0.88146(11) 0.1228(2) 0.61388(11)
H13F H 0.8775 0.0813 0.6445
H14F H 0.9160 0.1276 0.6103
C12F C 0.87645(11) 0.0908(2) 0.51847(11)
C13F C 0.80826(10) 0.05073(19) 0.55923(11)
H15F H 0.7856 0.1022 0.5655
C14F C 0.80301(10) 0.01679(19) 0.50017(10)
H16F H 0.7733 0.0415 0.4798
C15F C 0.79508(9) -0.10956(19) 0.55685(11)
C16F C 0.79256(11) -0.1478(2) 0.46077(11)
H17F H 0.7682 -0.1935 0.4694
H18F H 0.7790 -0.1121 0.4292
C17F C 0.83446(14) -0.1991(2) 0.44651(14)
H19F H 0.8294 -0.2389 0.4164
C18F C 0.87714(17) -0.1966(3) 0.46981(18)
H20F H 0.8845 -0.1581 0.5002
H21F H 0.9014 -0.2334 0.4567
C19F C 0.78636(11) -0.0344(2) 0.64274(11)
H22F H 0.7964 -0.0950 0.6590
H23F H 0.8043 0.0150 0.6636
C20F C 0.73468(14) -0.0213(2) 0.64747(15)
H24F H 0.7246 -0.0314 0.6818
C21F C 0.70200(14) 0.0022(3) 0.61041(17)
H25F H 0.7100 0.0132 0.5752
H26F H 0.6699 0.0084 0.6182
C22F C 0.85495(10) 0.0499(2) 0.42447(11)
H27F H 0.8501 -0.0145 0.4109
H28F H 0.8888 0.0665 0.4223
C23F C 0.78579(10) 0.0804(2) 0.35874(11)
C24F C 0.82602(9) 0.21327(19) 0.39523(11)
H29F H 0.8198 0.2345 0.4317
C25F C 0.78545(10) 0.2436(2) 0.35208(10)
H30F H 0.7624 0.2870 0.3669
C26F C 0.85799(10) 0.3019(2) 0.33027(11)
C27F C 0.78895(11) 0.3384(2) 0.26632(11)
H31F H 0.7566 0.3585 0.2735
H32F H 0.8078 0.3951 0.2607
C28F C 0.78500(11) 0.2810(2) 0.21620(11)
H33F H 0.8119 0.2455 0.2086
C29F C 0.74645(12) 0.2773(2) 0.18231(12)
H34F H 0.7190 0.3121 0.1889
H35F H 0.7460 0.2398 0.1512
C30F C 0.91107(10) 0.2782(2) 0.41355(13)
H36F H 0.9180 0.2254 0.4385
H37F H 0.9383 0.2844 0.3920
C31F C 0.90712(13) 0.3648(3) 0.44496(13)
H38F H 0.8800 0.3720 0.4640
C32F C 0.93850(16) 0.4316(3) 0.44802(16)
H39F H 0.9660 0.4265 0.4294
H40F H 0.9339 0.4854 0.4688
C33F C 0.71630(9) 0.1482(2) 0.30626(11)
H41F H 0.7153 0.1857 0.2732
H42F H 0.7106 0.0823 0.2958
N13 N 0.5000 0.0888(2) 0.7500
C34 C 0.54478(9) 0.0290(2) 0.75289(11)
H43 H 0.5727 0.0714 0.7555
H44 H 0.5466 -0.0073 0.7864
C35 C 0.54974(10) -0.0380(2) 0.70796(12)
H45 H 0.5471 -0.0041 0.6736
H46 H 0.5241 -0.0853 0.7065
C36 C 0.59842(11) -0.0853(2) 0.71758(14)
H47 H 0.6235 -0.0367 0.7200
H48 H 0.6005 -0.1180 0.7523
C37 C 0.60849(13) -0.1545(3) 0.67486(19)
H49 H 0.5864 -0.2072 0.6752
H50 H 0.6414 -0.1771 0.6818
H51 H 0.6042 -0.1241 0.6399
C38 C 0.50323(10) 0.1486(2) 0.80007(10)
H52 H 0.4722 0.1801 0.8017
H53 H 0.5084 0.1069 0.8315
C39 C 0.54182(10) 0.2216(2) 0.80454(12)
H54 H 0.5346 0.2688 0.7762
H55 H 0.5727 0.1921 0.7990
C40 C 0.54608(13) 0.2691(3) 0.85831(13)
H56 H 0.5529 0.2214 0.8865
H57 H 0.5151 0.2984 0.8636
C41 C 0.58495(15) 0.3432(3) 0.86448(16)
H58 H 0.6160 0.3140 0.8617
H59 H 0.5851 0.3732 0.8994
H60 H 0.5788 0.3900 0.8363
C34A C 0.45522(9) 0.0290(2) 0.74711(11)
H43A H 0.4273 0.0714 0.7445
H44A H 0.4534 -0.0073 0.7136
C35A C 0.45026(10) -0.0380(2) 0.79204(12)
H45A H 0.4529 -0.0041 0.8264
H46A H 0.4759 -0.0853 0.7935
C36A C 0.40158(11) -0.0853(2) 0.78242(14)
H47A H 0.3765 -0.0367 0.7800
H48A H 0.3995 -0.1180 0.7477
C37A C 0.39151(13) -0.1545(3) 0.82514(19)
H49A H 0.4136 -0.2072 0.8248
H50A H 0.3586 -0.1771 0.8182
H51A H 0.3958 -0.1241 0.8601
C38A C 0.49677(10) 0.1486(2) 0.69993(10)
H52A H 0.5278 0.1801 0.6983
H53A H 0.4916 0.1069 0.6685
C39A C 0.45818(10) 0.2216(2) 0.69546(12)
H54A H 0.4654 0.2688 0.7238
H55A H 0.4273 0.1921 0.7010
C40A C 0.45392(13) 0.2691(3) 0.64169(13)
H56A H 0.4471 0.2214 0.6135
H57A H 0.4849 0.2984 0.6364
C41A C 0.41505(15) 0.3432(3) 0.63552(16)
H58A H 0.3840 0.3140 0.6383
H59A H 0.4149 0.3732 0.6006
H60A H 0.4212 0.3900 0.6637
loop_
_geom_bond_atom_site_label_1
_geom_bond_atom_site_label_2
_geom_bond_site_symmetry_1
_geom_bond_site_symmetry_2
O1 C1 1_555 1_555
O2 C4 1_555 1_555
O3 C12 1_555 1_555
O4 C15 1_555 1_555
O5 C23 1_555 1_555
O6 C26 1_555 1_555
N1 C1 1_555 1_555
N2 C1 1_555 1_555
N3 C3 1_555 1_555
N4 C2 1_555 1_555
N5 C11 1_555 1_555
N6 C12 1_555 1_555
N7 C14 1_555 1_555
N8 C13 1_555 1_555
N9 C22 1_555 1_555
N10 C23 1_555 1_555
N11 C25 1_555 1_555
N12 C24 1_555 1_555
C2 N1 1_555 1_555
H1 C2 1_555 1_555
C3 N2 1_555 1_555
H2 C3 1_555 1_555
C4 N3 1_555 1_555
C5 N3 1_555 1_555
H3 C5 1_555 1_555
H4 C5 1_555 1_555
C6 C5 1_555 1_555
H5 C6 1_555 1_555
C7 C6 1_555 1_555
H6 C7 1_555 1_555
H7 C7 1_555 1_555
C8 N4 1_555 1_555
H8 C8 1_555 1_555
H9 C8 1_555 1_555
C9 C8 1_555 1_555
H10 C9 1_555 1_555
C10 C9 1_555 1_555
H11 C10 1_555 1_555
H12 C10 1_555 1_555
C11 N2 1_555 1_555
H13 C11 1_555 1_555
H14 C11 1_555 1_555
C12 N5 1_555 1_555
C13 N5 1_555 1_555
H15 C13 1_555 1_555
C14 N6 1_555 1_555
H16 C14 1_555 1_555
C15 N7 1_555 1_555
C16 N7 1_555 1_555
H17 C16 1_555 1_555
H18 C16 1_555 1_555
C17 C16 1_555 1_555
H19 C17 1_555 1_555
C18 C17 1_555 1_555
H20 C18 1_555 1_555
H21 C18 1_555 1_555
C19 N8 1_555 1_555
H22 C19 1_555 1_555
H23 C19 1_555 1_555
C20 C19 1_555 1_555
H24 C20 1_555 1_555
C21 C20 1_555 1_555
H25 C21 1_555 1_555
H26 C21 1_555 1_555
C22 N6 1_555 1_555
H27 C22 1_555 1_555
H28 C22 1_555 1_555
C23 N9 1_555 1_555
C24 N9 1_555 1_555
H29 C24 1_555 1_555
C25 N10 1_555 1_555
H30 C25 1_555 1_555
C26 N11 1_555 1_555
C27 N11 1_555 1_555
H31 C27 1_555 1_555
H32 C27 1_555 1_555
C28 C27 1_555 1_555
H33 C28 1_555 1_555
C29 C28 1_555 1_555
H34 C29 1_555 1_555
H35 C29 1_555 1_555
C30 N12 1_555 1_555
H36 C30 1_555 1_555
H37 C30 1_555 1_555
C31 C30 1_555 1_555
H38 C31 1_555 1_555
C32 C31 1_555 1_555
H39 C32 1_555 1_555
H40 C32 1_555 1_555
C33 N10 1_555 1_555
H41 C33 1_555 1_555
H42 C33 1_555 1_555
N13 C34 1_555 1_555
C34 H43 1_555 1_555
H44 C34 1_555 1_555
C35 C34 1_555 1_555
H45 C35 1_555 1_555
H46 C35 1_555 1_555
C36 C35 1_555 1_555
H47 C36 1_555 1_555
H48 C36 1_555 1_555
C37 C36 1_555 1_555
H49 C37 1_555 1_555
H50 C37 1_555 1_555
H51 C37 1_555 1_555
C38 N13 1_555 1_555
H52 C38 1_555 1_555
H53 C38 1_555 1_555
C39 C38 1_555 1_555
H54 C39 1_555 1_555
H55 C39 1_555 1_555
C40 C39 1_555 1_555
H56 C40 1_555 1_555
H57 C40 1_555 1_555
C41 C40 1_555 1_555
H58 C41 1_555 1_555
H59 C41 1_555 1_555
H60 C41 1_555 1_555
O1F C1F 1_555 1_555
O2F C4F 1_555 1_555
O3F C12F 1_555 1_555
O4F C15F 1_555 1_555
O5F C23F 1_555 1_555
O6F C26F 1_555 1_555
N1F C33 1_555 1_555
N2F C1F 1_555 1_555
N3F C3F 1_555 1_555
N4F C2F 1_555 1_555
N5F C11F 1_555 1_555
N6F C12F 1_555 1_555
N7F C14F 1_555 1_555
N8F C13F 1_555 1_555
N9F C22F 1_555 1_555
N10F C23F 1_555 1_555
N11F C25F 1_555 1_555
N12F C24F 1_555 1_555
C1F N1F 1_555 1_555
C2F N1F 1_555 1_555
H1F C2F 1_555 1_555
C3F N2F 1_555 1_555
H2F C3F 1_555 1_555
C4F N3F 1_555 1_555
C5F N3F 1_555 1_555
H3F C5F 1_555 1_555
H4F C5F 1_555 1_555
C6F C5F 1_555 1_555
H5F C6F 1_555 1_555
C7F C6F 1_555 1_555
H6F C7F 1_555 1_555
H7F C7F 1_555 1_555
C8F N4F 1_555 1_555
H8F C8F 1_555 1_555
H9F C8F 1_555 1_555
C9F C8F 1_555 1_555
H10F C9F 1_555 1_555
C10F C9F 1_555 1_555
H11F C10F 1_555 1_555
H12F C10F 1_555 1_555
C11F N2F 1_555 1_555
H13F C11F 1_555 1_555
H14F C11F 1_555 1_555
C12F N5F 1_555 1_555
C13F N5F 1_555 1_555
H15F C13F 1_555 1_555
C14F N6F 1_555 1_555
H16F C14F 1_555 1_555
C15F N7F 1_555 1_555
C16F N7F 1_555 1_555
H17F C16F 1_555 1_555
H18F C16F 1_555 1_555
C17F C16F 1_555 1_555
H19F C17F 1_555 1_555
C18F C17F 1_555 1_555
H20F C18F 1_555 1_555
H21F C18F 1_555 1_555
C19F N8F 1_555 1_555
H22F C19F 1_555 1_555
H23F C19F 1_555 1_555
C20F C19F 1_555 1_555
H24F C20F 1_555 1_555
C21F C20F 1_555 1_555
H25F C21F 1_555 1_555
H26F C21F 1_555 1_555
C22F N6F 1_555 1_555
H27F C22F 1_555 1_555
H28F C22F 1_555 1_555
C23F N9F 1_555 1_555
C24F N9F 1_555 1_555
H29F C24F 1_555 1_555
C25F N10F 1_555 1_555
H30F C25F 1_555 1_555
C26F N11F 1_555 1_555
C27F N11F 1_555 1_555
H31F C27F 1_555 1_555
H32F C27F 1_555 1_555
C28F C27F 1_555 1_555
H33F C28F 1_555 1_555
C29F C28F 1_555 1_555
H34F C29F 1_555 1_555
H35F C29F 1_555 1_555
C30F N12F 1_555 1_555
H36F C30F 1_555 1_555
H37F C30F 1_555 1_555
C31F C30F 1_555 1_555
H38F C31F 1_555 1_555
C32F C31F 1_555 1_555
H39F C32F 1_555 1_555
H40F C32F 1_555 1_555
C33F N1 1_555 1_555
H41F C33F 1_555 1_555
H42F C33F 1_555 1_555
C34A N13 1_555 1_555
H43A C34A 1_555 1_555
H44A C34A 1_555 1_555
C35A C34A 1_555 1_555
H45A C35A 1_555 1_555
H46A C35A 1_555 1_555
C36A C35A 1_555 1_555
H47A C36A 1_555 1_555
H48A C36A 1_555 1_555
C37A C36A 1_555 1_555
H49A C37A 1_555 1_555
H50A C37A 1_555 1_555
H51A C37A 1_555 1_555
C38A N13 1_555 1_555
H52A C38A 1_555 1_555
H53A C38A 1_555 1_555
C39A C38A 1_555 1_555
H54A C39A 1_555 1_555
H55A C39A 1_555 1_555
C40A C39A 1_555 1_555
H56A C40A 1_555 1_555
H57A C40A 1_555 1_555
C41A C40A 1_555 1_555
H58A C41A 1_555 1_555
H59A C41A 1_555 1_555
H60A C41A 1_555 1_555
N4 C4 1_555 1_555
N8 C15 1_555 1_555
N12 C26 1_555 1_555
C2 C3 1_555 1_555
C13 C14 1_555 1_555
C24 C25 1_555 1_555
N4F C4F 1_555 1_555
N8F C15F 1_555 1_555
N10F C33F 1_555 1_555
N12F C26F 1_555 1_555
C2F C3F 1_555 1_555
C13F C14F 1_555 1_555
C24F C25F 1_555 1_555

#END
