
#######################################################################
#
#                 Cambridge Crystallographic Data Centre
#                                CCDC 
#
#######################################################################
#
# If this CIF has been generated from an entry in the Cambridge 
# Structural Database, then it will include bibliographic, chemical, 
# crystal, experimental, refinement or atomic coordinate data resulting 
# from the CCDC's data processing and validation procedures.
#
#######################################################################

data_SIGBIU01
_chemical_formula_moiety         'C36 H34 Si2'
_chemical_name_systematic        
({9-[2-(9H-fluoren-9-ylidene)-1-(trimethylsilyl)ethenyl]-9H-fluoren-9-yl}ethynyl)(trimethyl)silane
_symmetry_cell_setting           monoclinic
_symmetry_space_group_name_H-M   'P 21/n'
_symmetry_Int_Tables_number      14
_space_group_name_Hall           '-P 2yn'
loop_
_symmetry_equiv_pos_site_id
_symmetry_equiv_pos_as_xyz
1 x,y,z
2 1/2-x,1/2+y,1/2-z
3 -x,-y,-z
4 1/2+x,1/2-y,1/2+z
_cell_length_a                   8.7073(3)
_cell_length_b                   9.0834(3)
_cell_length_c                   19.9120(6)
_cell_angle_alpha                90
_cell_angle_beta                 101.7160(10)
_cell_angle_gamma                90
_cell_volume                     1542.07
_exptl_crystal_colour            colorless
_exptl_crystal_description       block
_cell_formula_units_Z            2
loop_
_atom_site_label
_atom_site_type_symbol
_atom_site_fract_x
_atom_site_fract_y
_atom_site_fract_z
C1 C 0.6179(2) 0.4065(2) 0.37923(8)
C2 C 0.7535(3) 0.3363(3) 0.40861(11)
H1 H 0.7712 0.3073 0.4543
C3 C 0.8642(3) 0.3089(3) 0.36910(14)
H2 H 0.9569 0.2608 0.3884
C4 C 0.8381(3) 0.3524(3) 0.30165(14)
H3 H 0.9139 0.3338 0.2759
C5 C 0.7026(3) 0.4225(3) 0.27188(10)
H4 H 0.6860 0.4513 0.2262
C6 C 0.5897(2) 0.4502(2) 0.31050(8)
C7 C 0.4373(2) 0.52260(19) 0.29362(8)
C8 C 0.3536(3) 0.5820(2) 0.23292(9)
H5 H 0.3946 0.5796 0.1933
C9 C 0.2096(3) 0.6442(2) 0.23201(11)
H6 H 0.1536 0.6851 0.1915
C10 C 0.1467(3) 0.6472(3) 0.29003(12)
H7 H 0.0487 0.6894 0.2883
C11 C 0.2279(3) 0.5880(3) 0.35067(11)
H8 H 0.1853 0.5897 0.3899
C12 C 0.3728(2) 0.5265(2) 0.35228(8)
C13 C 0.4840(2) 0.4567(3) 0.41061(9)
C14 C 0.5485(6) 0.5864(6) 0.5299(2)
C15 C 0.5485(19) 0.8746(11) 0.3765(6)
H9 H 0.5942 0.9695 0.3724
H10 H 0.4460 0.8867 0.3865
H11 H 0.5401 0.8218 0.3341
C16 C 0.8678(12) 0.7353(15) 0.4228(8)
H12 H 0.8569 0.6607 0.3880
H13 H 0.9404 0.7025 0.4630
H14 H 0.9064 0.8242 0.4060
C17 C 0.7189(6) 0.8856(6) 0.5245(2)
H15 H 0.7750 0.9721 0.5157
H16 H 0.7827 0.8294 0.5605
H17 H 0.6235 0.9139 0.5381
C18 C 0.8175(8) 1.0018(6) 0.5176(3)
H18 H 0.8853 0.9632 0.5579
H19 H 0.8780 1.0589 0.4918
H20 H 0.7389 1.0630 0.5309
C19 C 0.5676(15) 0.9193(12) 0.3922(6)
H21 H 0.4990 0.9844 0.4102
H22 H 0.6166 0.9720 0.3604
H23 H 0.5080 0.8386 0.3690
C20 C 0.8571(17) 0.7211(19) 0.4263(9)
H24 H 0.8967 0.6451 0.4588
H25 H 0.7999 0.6772 0.3849
H26 H 0.9431 0.7773 0.4163
C21 C 0.6305(5) 0.7259(4) 0.51838(19)
Si1 Si 0.72139(15) 0.84723(16) 0.46403(6)
C22 C 0.5648(4) 0.6017(4) 0.46675(14)
Si2 Si 0.67162(14) 0.77170(15) 0.44520(5)
C23 C 0.4265(7) 0.3615(6) 0.4491(2)
C1B C 0.3821(2) 0.5935(2) 0.62077(8)
C2B C 0.2465(3) 0.6637(3) 0.59139(11)
H1B H 0.2288 0.6927 0.5457
C3B C 0.1358(3) 0.6911(3) 0.63090(14)
H2B H 0.0431 0.7392 0.6116
C4B C 0.1619(3) 0.6476(3) 0.69835(14)
H3B H 0.0861 0.6662 0.7241
C5B C 0.2974(3) 0.5775(3) 0.72812(10)
H4B H 0.3140 0.5487 0.7738
C6B C 0.4103(2) 0.5498(2) 0.68950(8)
C7B C 0.5627(2) 0.47740(19) 0.70638(8)
C8B C 0.6464(3) 0.4180(2) 0.76708(9)
H5B H 0.6054 0.4204 0.8067
C9B C 0.7904(3) 0.3558(2) 0.76799(11)
H6B H 0.8464 0.3149 0.8085
C10B C 0.8533(3) 0.3528(3) 0.70997(12)
H7B H 0.9513 0.3106 0.7117
C11B C 0.7721(3) 0.4120(3) 0.64933(11)
H8B H 0.8147 0.4103 0.6101
C12B C 0.6272(2) 0.4735(2) 0.64772(8)
C13B C 0.5160(2) 0.5433(3) 0.58939(9)
C14B C 0.4515(6) 0.4136(6) 0.4701(2)
C15B C 0.4515(19) 0.1254(11) 0.6235(6)
H9B H 0.4058 0.0305 0.6276
H10B H 0.5540 0.1133 0.6135
H11B H 0.4599 0.1782 0.6659
C16B C 0.1322(12) 0.2647(15) 0.5772(8)
H12B H 0.1431 0.3393 0.6120
H13B H 0.0596 0.2975 0.5370
H14B H 0.0936 0.1758 0.5940
C17B C 0.2811(6) 0.1144(6) 0.4755(2)
H15B H 0.2250 0.0279 0.4843
H16B H 0.2173 0.1706 0.4395
H17B H 0.3765 0.0861 0.4619
C18B C 0.1825(8) -0.0018(6) 0.4824(3)
H18B H 0.1147 0.0368 0.4421
H19B H 0.1220 -0.0589 0.5082
H20B H 0.2611 -0.0630 0.4691
C19B C 0.4324(15) 0.0807(12) 0.6078(6)
H21B H 0.5010 0.0156 0.5898
H22B H 0.3834 0.0280 0.6396
H23B H 0.4920 0.1614 0.6310
C20B C 0.1429(17) 0.2789(19) 0.5737(9)
H24B H 0.1033 0.3549 0.5412
H25B H 0.2001 0.3228 0.6151
H26B H 0.0569 0.2227 0.5837
C21B C 0.3695(5) 0.2741(4) 0.48162(19)
Si1B Si 0.27861(15) 0.15277(16) 0.53597(6)
C22B C 0.4352(4) 0.3983(4) 0.53325(14)
Si2B Si 0.32838(14) 0.22830(15) 0.55480(5)
C23B C 0.5735(7) 0.6385(6) 0.5509(2)
loop_
_geom_bond_atom_site_label_1
_geom_bond_atom_site_label_2
_geom_bond_site_symmetry_1
_geom_bond_site_symmetry_2
C1 C2 1_555 1_555
C2 H1 1_555 1_555
C3 C2 1_555 1_555
H2 C3 1_555 1_555
C4 C3 1_555 1_555
H3 C4 1_555 1_555
C5 C4 1_555 1_555
H4 C5 1_555 1_555
C6 C1 1_555 1_555
C7 C6 1_555 1_555
C8 C7 1_555 1_555
H5 C8 1_555 1_555
C9 C8 1_555 1_555
H6 C9 1_555 1_555
C10 C9 1_555 1_555
H7 C10 1_555 1_555
C11 C10 1_555 1_555
H8 C11 1_555 1_555
C12 C7 1_555 1_555
C13 C1 1_555 1_555
C14 C22 1_555 1_555
C15 H9 1_555 1_555
H9 C19 1_555 1_555
H10 C15 1_555 1_555
H11 C15 1_555 1_555
C16 H12 1_555 1_555
H12 C20 1_555 1_555
H13 C16 1_555 1_555
H14 C16 1_555 1_555
C17 H15 1_555 1_555
H15 Si1 1_555 1_555
H16 C17 1_555 1_555
H17 C17 1_555 1_555
C18 C17 1_555 1_555
H18 C18 1_555 1_555
H19 C18 1_555 1_555
H20 C18 1_555 1_555
C19 H10 1_555 1_555
H21 C15 1_555 1_555
H22 C15 1_555 1_555
H23 C19 1_555 1_555
C20 H13 1_555 1_555
H24 C16 1_555 1_555
H25 C16 1_555 1_555
H26 C16 1_555 1_555
C21 C17 1_555 1_555
Si1 C15 1_555 1_555
C22 C13 1_555 1_555
Si2 C15 1_555 1_555
C23 C13 1_555 1_555
C1B C2B 1_555 1_555
C2B H1B 1_555 1_555
C3B C2B 1_555 1_555
H2B C3B 1_555 1_555
C4B C3B 1_555 1_555
H3B C4B 1_555 1_555
C5B C4B 1_555 1_555
H4B C5B 1_555 1_555
C6B C1B 1_555 1_555
C7B C6B 1_555 1_555
C8B C7B 1_555 1_555
H5B C8B 1_555 1_555
C9B C8B 1_555 1_555
H6B C9B 1_555 1_555
C10B C9B 1_555 1_555
H7B C10B 1_555 1_555
C11B C10B 1_555 1_555
H8B C11B 1_555 1_555
C12B C7B 1_555 1_555
C13B C14 1_555 1_555
C14B C13 1_555 1_555
C15B H9B 1_555 1_555
H9B C19B 1_555 1_555
H10B C15B 1_555 1_555
H11B C15B 1_555 1_555
C16B H12B 1_555 1_555
H12B C20B 1_555 1_555
H13B C16B 1_555 1_555
H14B C16B 1_555 1_555
C17B H15B 1_555 1_555
H15B Si1B 1_555 1_555
H16B C17B 1_555 1_555
H17B C17B 1_555 1_555
C18B C17B 1_555 1_555
H18B C18B 1_555 1_555
H19B C18B 1_555 1_555
H20B C18B 1_555 1_555
C19B H10B 1_555 1_555
H21B C15B 1_555 1_555
H22B C15B 1_555 1_555
H23B C19B 1_555 1_555
C20B H13B 1_555 1_555
H24B C16B 1_555 1_555
H25B C16B 1_555 1_555
H26B C16B 1_555 1_555
C21B C23 1_555 1_555
Si1B C15B 1_555 1_555
C22B C13B 1_555 1_555
Si2B C15B 1_555 1_555
C23B C14 1_555 1_555
C5 C6 1_555 1_555
C11 C12 1_555 1_555
C12 C13 1_555 1_555
C16 Si1 1_555 1_555
C16 Si2 1_555 1_555
H14 C20 1_555 1_555
C17 Si1 1_555 1_555
C18 Si1 1_555 1_555
C19 H21 1_555 1_555
C19 H22 1_555 1_555
C19 Si1 1_555 1_555
C19 Si2 1_555 1_555
C20 H24 1_555 1_555
C20 H25 1_555 1_555
C20 H26 1_555 1_555
C20 Si1 1_555 1_555
C20 Si2 1_555 1_555
C21 C22 1_555 1_555
C21 Si2 1_555 1_555
C21 C23B 1_555 1_555
Si1 Si2 1_555 1_555
C22 Si2 1_555 1_555
C23 C14B 1_555 1_555
C1B C13B 1_555 1_555
C5B C6B 1_555 1_555
C11B C12B 1_555 1_555
C12B C13B 1_555 1_555
C13B C23B 1_555 1_555
C14B C22B 1_555 1_555
C16B Si1B 1_555 1_555
C16B Si2B 1_555 1_555
H14B C20B 1_555 1_555
C17B C21B 1_555 1_555
C17B Si1B 1_555 1_555
C18B Si1B 1_555 1_555
C19B H21B 1_555 1_555
C19B H22B 1_555 1_555
C19B Si1B 1_555 1_555
C19B Si2B 1_555 1_555
C20B H24B 1_555 1_555
C20B H25B 1_555 1_555
C20B H26B 1_555 1_555
C20B Si1B 1_555 1_555
C20B Si2B 1_555 1_555
C21B C22B 1_555 1_555
C21B Si2B 1_555 1_555
Si1B Si2B 1_555 1_555
C22B Si2B 1_555 1_555

#END
