
#######################################################################
#
#                 Cambridge Crystallographic Data Centre
#                                CCDC 
#
#######################################################################
#
# If this CIF has been generated from an entry in the Cambridge 
# Structural Database, then it will include bibliographic, chemical, 
# crystal, experimental, refinement or atomic coordinate data resulting 
# from the CCDC's data processing and validation procedures.
#
#######################################################################

data_SIGCAM
_chemical_formula_moiety         'C9 H16 N2 O4 S1'
_chemical_name_systematic        "4,4'-Thioureylenedibutyric acid"
_symmetry_cell_setting           monoclinic
_symmetry_space_group_name_H-M   'P 21/c'
_symmetry_Int_Tables_number      14
_space_group_name_Hall           '-P 2ybc'
loop_
_symmetry_equiv_pos_site_id
_symmetry_equiv_pos_as_xyz
1 x,y,z
2 -x,1/2+y,1/2-z
3 -x,-y,-z
4 x,1/2-y,1/2+z
_cell_length_a                   25.592(8)
_cell_length_b                   5.213(2)
_cell_length_c                   8.921(3)
_cell_angle_alpha                90
_cell_angle_beta                 92.50
_cell_angle_gamma                90
_cell_volume                     1189.03
_cell_formula_units_Z            4
loop_
_atom_site_label
_atom_site_type_symbol
_atom_site_fract_x
_atom_site_fract_y
_atom_site_fract_z
S1 S 0.24374(6) 0.0921(3) 0.3461(1)
O1 O 0.0106(2) 0.2314(8) 0.8645(4)
O2 O 0.0575(1) -0.1051(8) 0.9385(4)
O3 O 0.4949(2) -0.7321(7) 0.3697(5)
O4 O 0.4401(1) -0.9114(8) 0.5206(5)
N1 N 0.2089(2) -0.1323(8) 0.5874(5)
N2 N 0.2867(2) -0.2847(8) 0.5123(4)
C1 C 0.2458(2) -0.120(1) 0.4891(5)
C2 C 0.1630(2) 0.029(1) 0.5872(5)
C3 C 0.1314(2) -0.031(1) 0.7206(5)
C4 C 0.0843(2) 0.136(1) 0.7290(6)
C5 C 0.0495(2) 0.077(1) 0.8533(6)
C6 C 0.3275(2) -0.323(1) 0.4128(6)
C7 C 0.3679(2) -0.503(1) 0.4807(6)
C8 C 0.4115(2) -0.547(1) 0.3778(6)
C9 C 0.4496(2) -0.748(1) 0.4307(6)
H1 H 0.2127 -0.2574 0.6647
H2 H 0.2863 -0.3840 0.6017
H3 H 0.1734 0.2035 0.5910
H4 H 0.1422 -0.0011 0.4980
H5 H 0.1205 -0.2050 0.7146
H6 H 0.1529 -0.0070 0.8092
H7 H 0.0959 0.3081 0.7406
H8 H 0.0644 0.1190 0.6372
H9 H 0.3139 -0.3933 0.3209
H10 H 0.3436 -0.1623 0.3935
H11 H 0.3817 -0.4306 0.5719
H12 H 0.3516 -0.6619 0.5009
H13 H 0.3989 -0.5984 0.2829
H14 H 0.4299 -0.3904 0.3673
H15 H -0.0147 0.1824 0.9457
H16 H 0.5200 -0.8342 0.3994
loop_
_geom_bond_atom_site_label_1
_geom_bond_atom_site_label_2
_geom_bond_site_symmetry_1
_geom_bond_site_symmetry_2
S1 C1 1_555 1_555
O1 C5 1_555 1_555
O2 C5 1_555 1_555
O3 C9 1_555 1_555
O4 C9 1_555 1_555
N1 C1 1_555 1_555
N2 C1 1_555 1_555
C2 N1 1_555 1_555
C3 C2 1_555 1_555
C4 C3 1_555 1_555
C5 C4 1_555 1_555
C6 N2 1_555 1_555
C7 C6 1_555 1_555
C8 C7 1_555 1_555
C9 C8 1_555 1_555
H1 N1 1_555 1_555
H2 N2 1_555 1_555
H3 C2 1_555 1_555
H4 C2 1_555 1_555
H5 C3 1_555 1_555
H6 C3 1_555 1_555
H7 C4 1_555 1_555
H8 C4 1_555 1_555
H9 C6 1_555 1_555
H10 C6 1_555 1_555
H11 C7 1_555 1_555
H12 C7 1_555 1_555
H13 C8 1_555 1_555
H14 C8 1_555 1_555
H15 O1 1_555 1_555
H16 O3 1_555 1_555

#END
