
#######################################################################
#
#                 Cambridge Crystallographic Data Centre
#                                CCDC 
#
#######################################################################
#
# If this CIF has been generated from an entry in the Cambridge 
# Structural Database, then it will include bibliographic, chemical, 
# crystal, experimental, refinement or atomic coordinate data resulting 
# from the CCDC's data processing and validation procedures.
#
#######################################################################

data_SIGCAN
_chemical_formula_moiety         'C9 H9 N3 O3'
_chemical_name_systematic        'Methyl 2-((pyrazinecarbonyl)amino)acrylate'
_chemical_properties_biological  
'antimycobacterial activity against M. tuberculosis ATTC 27294'
_symmetry_cell_setting           monoclinic
_symmetry_space_group_name_H-M   'C 2/c'
_symmetry_Int_Tables_number      15
_space_group_name_Hall           '-C 2yn'
loop_
_symmetry_equiv_pos_site_id
_symmetry_equiv_pos_as_xyz
1 x,y,z
2 1/2+x,1/2+y,z
3 -x,y,1/2-z
4 1/2-x,1/2+y,1/2-z
5 -x,-y,-z
6 1/2-x,1/2-y,-z
7 x,-y,1/2+z
8 1/2+x,1/2-y,1/2+z
_cell_length_a                   41.838(7)
_cell_length_b                   3.7273(6)
_cell_length_c                   24.707(4)
_cell_angle_alpha                90.00
_cell_angle_beta                 101.835(2)
_cell_angle_gamma                90.00
_cell_volume                     3770.97
_chemical_melting_point          95.5deg.C
_cell_formula_units_Z            16
_exptl_crystal_recrystallization_method ethanol
loop_
_atom_site_label
_atom_site_type_symbol
_atom_site_fract_x
_atom_site_fract_y
_atom_site_fract_z
O1 O 0.13984(2) 0.9894(3) 0.44921(4)
O3 O 0.21432(2) 0.5694(3) 0.33352(4)
O5 O 0.18041(2) 0.8574(3) 0.26467(4)
N1 N 0.21397(3) 0.5423(3) 0.50514(5)
N3 N 0.17922(3) 0.7601(3) 0.40751(5)
H1 H 0.1974(4) 0.643(5) 0.4164(7)
N5 N 0.19291(3) 0.6789(3) 0.60392(5)
C1 C 0.18565(3) 0.7072(3) 0.50578(6)
C3 C 0.17503(3) 0.7742(4) 0.55453(6)
H3 H 0.1546 0.8902 0.5529
C5 C 0.22126(3) 0.5157(4) 0.60301(6)
H5 H 0.2347 0.4433 0.6370
C7 C 0.23176(3) 0.4481(4) 0.55436(6)
H7 H 0.2521 0.3318 0.5560
C9 C 0.16554(3) 0.8312(4) 0.45165(6)
C11 C 0.16672(3) 0.8502(4) 0.35238(6)
C13 C 0.13809(4) 1.0079(4) 0.33233(7)
H9 H 0.1239(5) 1.060(5) 0.3533(8)
H10 H 0.1331(4) 1.052(5) 0.2925(8)
C15 C 0.18979(3) 0.7430(4) 0.31660(6)
C17 C 0.20121(4) 0.7607(4) 0.22723(6)
H13 H 0.2237 0.8355 0.2428
H14 H 0.1936 0.8806 0.1916
H15 H 0.2006 0.5002 0.2218
O2 O 0.11151(2) 0.6727(3) 0.06172(5)
O4 O 0.03539(3) 0.1382(3) 0.16527(4)
O6 O 0.07181(3) 0.3018(3) 0.24118(4)
N2 N 0.03631(3) 0.2768(3) -0.00300(5)
N4 N 0.07135(3) 0.4061(3) 0.09795(5)
H2 H 0.0525(4) 0.312(5) 0.0879(7)
N6 N 0.05994(3) 0.4450(4) -0.09810(5)
C2 C 0.06553(3) 0.4299(4) -0.00031(6)
C4 C 0.07741(3) 0.5116(4) -0.04738(6)
H4 H 0.0984 0.6171 -0.0435
C6 C 0.03055(3) 0.2976(4) -0.10049(6)
H6 H 0.0172 0.2489 -0.1357
C8 C 0.01881(3) 0.2132(4) -0.05341(6)
H8 H -0.0022 0.1077 -0.0573
C10 C 0.08552(3) 0.5153(4) 0.05583(6)
C12 C 0.08423(3) 0.4291(4) 0.15463(6)
C14 C 0.11324(4) 0.5638(4) 0.17832(7)
H11 H 0.1188(4) 0.562(5) 0.2193(8)
H12 H 0.1277(5) 0.657(5) 0.1582(8)
C16 C 0.06111(3) 0.2752(4) 0.18673(6)
C18 C 0.05117(4) 0.1515(5) 0.27551(7)
H16 H 0.0288 0.2396 0.2630
H17 H 0.0593 0.2236 0.3140
H18 H 0.0514 -0.1108 0.2728
loop_
_geom_bond_atom_site_label_1
_geom_bond_atom_site_label_2
_geom_bond_site_symmetry_1
_geom_bond_site_symmetry_2
O1 C9 1_555 1_555
O2 C10 1_555 1_555
O3 C15 1_555 1_555
O4 C16 1_555 1_555
O5 C15 1_555 1_555
O6 C16 1_555 1_555
N1 C1 1_555 1_555
N2 C2 1_555 1_555
N3 H1 1_555 1_555
N4 H2 1_555 1_555
N5 C3 1_555 1_555
N6 C4 1_555 1_555
C1 C3 1_555 1_555
C2 C4 1_555 1_555
C3 H3 1_555 1_555
C4 H4 1_555 1_555
C5 N5 1_555 1_555
H5 C5 1_555 1_555
C6 N6 1_555 1_555
H6 C6 1_555 1_555
C7 N1 1_555 1_555
H7 C7 1_555 1_555
C8 N2 1_555 1_555
H8 C8 1_555 1_555
C9 N3 1_555 1_555
C10 N4 1_555 1_555
C11 N3 1_555 1_555
C12 N4 1_555 1_555
C13 C11 1_555 1_555
H9 C13 1_555 1_555
H10 C13 1_555 1_555
C14 C12 1_555 1_555
H11 C14 1_555 1_555
H12 C14 1_555 1_555
C15 C11 1_555 1_555
C16 C12 1_555 1_555
C17 O5 1_555 1_555
H13 C17 1_555 1_555
H14 C17 1_555 1_555
H15 C17 1_555 1_555
C18 O6 1_555 1_555
H16 C18 1_555 1_555
H17 C18 1_555 1_555
H18 C18 1_555 1_555
C1 C9 1_555 1_555
C2 C10 1_555 1_555
C5 C7 1_555 1_555
C6 C8 1_555 1_555

#END
