
#######################################################################
#
#                 Cambridge Crystallographic Data Centre
#                                CCDC 
#
#######################################################################
#
# If this CIF has been generated from an entry in the Cambridge 
# Structural Database, then it will include bibliographic, chemical, 
# crystal, experimental, refinement or atomic coordinate data resulting 
# from the CCDC's data processing and validation procedures.
#
#######################################################################

data_SIGDIY
_chemical_formula_moiety         'C21 H21 N1 O4'
_chemical_name_systematic        
N-[2-hydroxy-3-(4-methoxyphenyl)-2-methylpent-4-ynoyl]-3-methylbenzamide
_symmetry_cell_setting           orthorhombic
_symmetry_space_group_name_H-M   'P 21 21 21'
_symmetry_Int_Tables_number      19
_space_group_name_Hall           'P 2ac 2ab'
loop_
_symmetry_equiv_pos_site_id
_symmetry_equiv_pos_as_xyz
1 x,y,z
2 1/2-x,-y,1/2+z
3 -x,1/2+y,1/2-z
4 1/2+x,1/2-y,-z
_cell_length_a                   9.4694(3)
_cell_length_b                   11.3663(4)
_cell_length_c                   17.8427(6)
_cell_angle_alpha                90
_cell_angle_beta                 90
_cell_angle_gamma                90
_cell_volume                     1920.45
_exptl_crystal_colour            colorless
_exptl_crystal_description       plate
_cell_formula_units_Z            4
loop_
_atom_site_label
_atom_site_type_symbol
_atom_site_fract_x
_atom_site_fract_y
_atom_site_fract_z
O1 O 0.45375(18) 0.1730(2) 0.39202(11)
H1 H 0.5142 0.1487 0.4211
O2 O 0.1815(2) 0.4458(2) 0.54289(15)
O3 O 0.1378(2) 0.2112(2) 0.49544(16)
O4 O 0.1407(3) 0.5867(2) 0.2299(2)
N1 N 0.3270(2) 0.3295(2) 0.47279(14)
H2 H 0.4103 0.3279 0.4535
C1 C 0.3864(3) 0.5341(3) 0.49356(16)
C2 C 0.3200(3) 0.1343(3) 0.41571(18)
C3 C 0.2253(3) 0.1269(3) 0.34332(19)
H3 H 0.1323 0.0976 0.3585
C4 C 0.2498(3) 0.2277(3) 0.46636(17)
C5 C 0.2881(3) 0.4336(3) 0.50616(15)
C6 C 0.2046(3) 0.2468(3) 0.30831(16)
C7 C 0.4934(4) 0.7100(3) 0.5419(2)
C8 C 0.4535(4) 0.5508(3) 0.42554(19)
H4 H 0.4417 0.4970 0.3867
C9 C 0.5566(4) 0.7276(3) 0.4734(2)
H5 H 0.6124 0.7939 0.4659
C10 C 0.2855(3) 0.0420(3) 0.2906(2)
C11 C 0.0798(3) 0.3087(3) 0.3210(2)
H6 H 0.0074 0.2733 0.3480
C12 C 0.4067(4) 0.6138(3) 0.55051(18)
H7 H 0.3607 0.6024 0.5960
C13 C 0.3073(3) 0.3014(3) 0.26639(17)
H8 H 0.3903 0.2608 0.2558
C14 C 0.1671(3) 0.4750(3) 0.25416(19)
C15 C 0.0618(3) 0.4209(3) 0.2942(2)
H9 H -0.0224 0.4605 0.3032
C16 C 0.5384(5) 0.6485(4) 0.4162(2)
H10 H 0.5836 0.6608 0.3707
C17 C 0.3332(4) -0.0249(3) 0.2475(3)
H11 H 0.3711 -0.0780 0.2133
C18 C 0.2912(4) 0.4146(3) 0.23943(17)
H12 H 0.3628 0.4499 0.2117
C19 C 0.3258(5) 0.0177(3) 0.4575(3)
H13 H 0.3662 -0.0414 0.4256
H14 H 0.2319 -0.0054 0.4716
H15 H 0.3828 0.0262 0.5016
C20 C 0.2552(5) 0.6629(4) 0.2197(3)
H16 H 0.3028 0.6436 0.1738
H17 H 0.3195 0.6548 0.2609
H18 H 0.2217 0.7426 0.2173
C21 C 0.5161(7) 0.7962(5) 0.6051(3)
H19 H 0.6070 0.8326 0.5998
H20 H 0.5118 0.7553 0.6522
H21 H 0.4438 0.8554 0.6037
loop_
_geom_bond_atom_site_label_1
_geom_bond_atom_site_label_2
_geom_bond_site_symmetry_1
_geom_bond_site_symmetry_2
O1 H1 1_555 1_555
O2 C5 1_555 1_555
O3 C4 1_555 1_555
O4 C14 1_555 1_555
N1 H2 1_555 1_555
C1 C5 1_555 1_555
C2 O1 1_555 1_555
C3 C2 1_555 1_555
H3 C3 1_555 1_555
C4 N1 1_555 1_555
C5 N1 1_555 1_555
C6 C3 1_555 1_555
C7 C9 1_555 1_555
C8 C1 1_555 1_555
H4 C8 1_555 1_555
C9 H5 1_555 1_555
C10 C3 1_555 1_555
C11 C6 1_555 1_555
H6 C11 1_555 1_555
C12 C1 1_555 1_555
H7 C12 1_555 1_555
C13 C6 1_555 1_555
H8 C13 1_555 1_555
C14 C15 1_555 1_555
C15 C11 1_555 1_555
H9 C15 1_555 1_555
C16 C8 1_555 1_555
H10 C16 1_555 1_555
C17 C10 1_555 1_555
H11 C17 1_555 1_555
C18 C13 1_555 1_555
H12 C18 1_555 1_555
C19 C2 1_555 1_555
H13 C19 1_555 1_555
H14 C19 1_555 1_555
H15 C19 1_555 1_555
C20 O4 1_555 1_555
H16 C20 1_555 1_555
H17 C20 1_555 1_555
H18 C20 1_555 1_555
C21 C7 1_555 1_555
H19 C21 1_555 1_555
H20 C21 1_555 1_555
H21 C21 1_555 1_555
C2 C4 1_555 1_555
C7 C12 1_555 1_555
C9 C16 1_555 1_555
C14 C18 1_555 1_555

#END
