
#######################################################################
#
#                 Cambridge Crystallographic Data Centre
#                                CCDC 
#
#######################################################################
#
# If this CIF has been generated from an entry in the Cambridge 
# Structural Database, then it will include bibliographic, chemical, 
# crystal, experimental, refinement or atomic coordinate data resulting 
# from the CCDC's data processing and validation procedures.
#
#######################################################################

data_SIGHIC
_chemical_formula_moiety         'C6 H7 N2 O1 1+,I1 1-'
_chemical_name_systematic        '4-carbamoylpyridin-1-ium iodide'
_symmetry_cell_setting           monoclinic
_symmetry_space_group_name_H-M   'P 21/n'
_symmetry_Int_Tables_number      14
_space_group_name_Hall           '-P 2yn'
loop_
_symmetry_equiv_pos_site_id
_symmetry_equiv_pos_as_xyz
1 x,y,z
2 1/2-x,1/2+y,1/2-z
3 -x,-y,-z
4 1/2+x,1/2-y,1/2+z
_cell_length_a                   5.0161(3)
_cell_length_b                   23.0293(10)
_cell_length_c                   7.3561(4)
_cell_angle_alpha                90
_cell_angle_beta                 106.988(6)
_cell_angle_gamma                90
_cell_volume                     812.678
_exptl_crystal_colour            'light yellow'
_exptl_crystal_description       plate
_cell_formula_units_Z            4
loop_
_atom_site_label
_atom_site_type_symbol
_atom_site_fract_x
_atom_site_fract_y
_atom_site_fract_z
I1 I 0.04237(14) 0.43722(2) 0.24676(8)
O1 O 0.8423(15) 0.7554(3) 0.2439(10)
N1 N 0.4309(19) 0.5628(3) 0.2585(13)
H1 H 0.3929 0.5263 0.2569
N2 N 0.4156(18) 0.7786(3) 0.2699(12)
H2 H 0.4423 0.8153 0.2634
H3 H 0.2604 0.7659 0.2820
C1 C 0.542(2) 0.6774(4) 0.2633(14)
C2 C 0.615(2) 0.7412(4) 0.2611(15)
C3 C 0.382(2) 0.6568(4) 0.3728(15)
H4 H 0.3118 0.6817 0.4473
C4 C 0.646(2) 0.6408(4) 0.1537(15)
H5 H 0.7548 0.6552 0.0810
C5 C 0.586(2) 0.5814(4) 0.1527(15)
H6 H 0.6539 0.5557 0.0794
C6 C 0.330(2) 0.5977(4) 0.3677(15)
H7 H 0.2245 0.5822 0.4408
loop_
_geom_bond_atom_site_label_1
_geom_bond_atom_site_label_2
_geom_bond_site_symmetry_1
_geom_bond_site_symmetry_2
O1 C2 1_555 1_555
N1 H1 1_555 1_555
N2 H2 1_555 1_555
H3 N2 1_555 1_555
C1 C2 1_555 1_555
C2 N2 1_555 1_555
C3 C1 1_555 1_555
H4 C3 1_555 1_555
C4 C1 1_555 1_555
H5 C4 1_555 1_555
C5 N1 1_555 1_555
H6 C5 1_555 1_555
C6 N1 1_555 1_555
H7 C6 1_555 1_555
C3 C6 1_555 1_555
C4 C5 1_555 1_555

#END
