
#######################################################################
#
#                 Cambridge Crystallographic Data Centre
#                                CCDC 
#
#######################################################################
#
# If this CIF has been generated from an entry in the Cambridge 
# Structural Database, then it will include bibliographic, chemical, 
# crystal, experimental, refinement or atomic coordinate data resulting 
# from the CCDC's data processing and validation procedures.
#
#######################################################################

data_SIGLOL
_chemical_formula_moiety         'C26 H32 B1 N1'
_chemical_name_systematic        4-(Dimesitylboryl)-3,5-dimethylaniline
_symmetry_cell_setting           monoclinic
_symmetry_space_group_name_H-M   'C 2/c'
_symmetry_Int_Tables_number      15
_space_group_name_Hall           '-C 2yn'
loop_
_symmetry_equiv_pos_site_id
_symmetry_equiv_pos_as_xyz
1 x,y,z
2 -x,y,1/2-z
3 1/2+x,1/2+y,z
4 1/2-x,1/2+y,1/2-z
5 -x,-y,-z
6 x,-y,1/2+z
7 1/2-x,1/2-y,-z
8 1/2+x,1/2-y,1/2+z
_cell_length_a                   11.6020(10)
_cell_length_b                   11.6688(9)
_cell_length_c                   16.4915(15)
_cell_angle_alpha                90
_cell_angle_beta                 107.555(6)
_cell_angle_gamma                90
_cell_volume                     2128.66
_exptl_crystal_colour            colorless
_exptl_crystal_description       prism
_cell_formula_units_Z            4
loop_
_atom_site_label
_atom_site_type_symbol
_atom_site_fract_x
_atom_site_fract_y
_atom_site_fract_z
B1 B 0.0000 0.0682(2) 0.2500
N1 N 0.0000 -0.4398(2) 0.2500
C1 C -0.01941(15) 0.13864(14) 0.16545(11)
C2 C 0.04919(15) 0.11708(14) 0.10900(11)
C3 C 0.04151(16) 0.18967(16) 0.04117(12)
H1 H 0.0893 0.1752 0.0061
C4 C -0.03576(18) 0.28360(17) 0.02409(12)
C5 C -0.10807(17) 0.30184(16) 0.07643(12)
H2 H -0.1635 0.3618 0.0641
C6 C -0.09983(16) 0.23286(15) 0.14682(12)
C7 C 0.13602(16) 0.01762(15) 0.12185(12)
H3 H 0.1798 0.0219 0.0809
H4 H 0.0917 -0.0530 0.1146
H5 H 0.1918 0.0208 0.1782
C8 C -0.0409(2) 0.3596(2) -0.04650(14)
H6 H -0.0967 0.4207 -0.0476
H7 H -0.0672 0.3174 -0.0989
H8 H 0.0380 0.3909 -0.0398
C9 C -0.18158(19) 0.26106(17) 0.20011(15)
H9 H -0.1381 0.3067 0.2480
H10 H -0.2080 0.1914 0.2199
H11 H -0.2506 0.3030 0.1663
C10 C 0.0000 -0.06703(19) 0.2500
C11 C -0.09645(15) -0.12972(14) 0.19489(11)
C12 C -0.09541(15) -0.24908(14) 0.19634(11)
H12 H -0.1604 -0.2887 0.1604
C13 C 0.0000 -0.3108(2) 0.2500
C14 C -0.20474(16) -0.07079(16) 0.13506(13)
H13 H -0.2641 -0.1271 0.1077
H14 H -0.1801 -0.0293 0.0928
H15 H -0.2388 -0.0186 0.1665
H16 H -0.071(4) -0.480(4) 0.281(3)
C1A C 0.01941(15) 0.13864(14) 0.33455(11)
C2A C -0.04919(15) 0.11708(14) 0.39100(11)
C3A C -0.04151(16) 0.18967(16) 0.45883(12)
H1A H -0.0893 0.1752 0.4939
C4A C 0.03576(18) 0.28360(17) 0.47591(12)
C5A C 0.10807(17) 0.30184(16) 0.42357(12)
H2A H 0.1635 0.3618 0.4359
C6A C 0.09983(16) 0.23286(15) 0.35318(12)
C7A C -0.13602(16) 0.01762(15) 0.37815(12)
H3A H -0.1798 0.0219 0.4191
H4A H -0.0917 -0.0530 0.3854
H5A H -0.1918 0.0208 0.3218
C8A C 0.0409(2) 0.3596(2) 0.54650(14)
H6A H 0.0967 0.4207 0.5476
H7A H 0.0672 0.3174 0.5989
H8A H -0.0380 0.3909 0.5398
C9A C 0.18158(19) 0.26106(17) 0.29989(15)
H9A H 0.1381 0.3067 0.2520
H10A H 0.2080 0.1914 0.2801
H11A H 0.2506 0.3030 0.3337
C11A C 0.09645(15) -0.12972(14) 0.30511(11)
C12A C 0.09541(15) -0.24908(14) 0.30366(11)
H12A H 0.1604 -0.2887 0.3396
C14A C 0.20474(16) -0.07079(16) 0.36494(13)
H13A H 0.2641 -0.1271 0.3923
H14A H 0.1801 -0.0293 0.4072
H15A H 0.2388 -0.0186 0.3335
H16A H 0.071(4) -0.480(4) 0.219(3)
loop_
_geom_bond_atom_site_label_1
_geom_bond_atom_site_label_2
_geom_bond_site_symmetry_1
_geom_bond_site_symmetry_2
B1 C1 1_555 1_555
N1 C13 1_555 1_555
C1 C2 1_555 1_555
C2 C3 1_555 1_555
C3 H1 1_555 1_555
C4 C3 1_555 1_555
C5 C4 1_555 1_555
H2 C5 1_555 1_555
C6 C1 1_555 1_555
C7 C2 1_555 1_555
H3 C7 1_555 1_555
H4 C7 1_555 1_555
H5 C7 1_555 1_555
C8 C4 1_555 1_555
H6 C8 1_555 1_555
H7 C8 1_555 1_555
H8 C8 1_555 1_555
C9 C6 1_555 1_555
H9 C9 1_555 1_555
H10 C9 1_555 1_555
H11 C9 1_555 1_555
C10 B1 1_555 1_555
C11 C10 1_555 1_555
C12 C11 1_555 1_555
H12 C12 1_555 1_555
C13 C12 1_555 1_555
C14 C11 1_555 1_555
H13 C14 1_555 1_555
H14 C14 1_555 1_555
H15 C14 1_555 1_555
H16 N1 1_555 1_555
C1A B1 1_555 1_555
C2A C1A 1_555 1_555
C3A C2A 1_555 1_555
H1A C3A 1_555 1_555
C4A C3A 1_555 1_555
C5A C4A 1_555 1_555
H2A C5A 1_555 1_555
C6A C1A 1_555 1_555
C7A C2A 1_555 1_555
H3A C7A 1_555 1_555
H4A C7A 1_555 1_555
H5A C7A 1_555 1_555
C8A C4A 1_555 1_555
H6A C8A 1_555 1_555
H7A C8A 1_555 1_555
H8A C8A 1_555 1_555
C9A C6A 1_555 1_555
H9A C9A 1_555 1_555
H10A C9A 1_555 1_555
H11A C9A 1_555 1_555
C11A C10 1_555 1_555
C12A C13 1_555 1_555
H12A C12A 1_555 1_555
C14A C11A 1_555 1_555
H13A C14A 1_555 1_555
H14A C14A 1_555 1_555
H15A C14A 1_555 1_555
H16A N1 1_555 1_555
C5 C6 1_555 1_555
C5A C6A 1_555 1_555
C11A C12A 1_555 1_555

#END
