
#######################################################################
#
#                 Cambridge Crystallographic Data Centre
#                                CCDC 
#
#######################################################################
#
# If this CIF has been generated from an entry in the Cambridge 
# Structural Database, then it will include bibliographic, chemical, 
# crystal, experimental, refinement or atomic coordinate data resulting 
# from the CCDC's data processing and validation procedures.
#
#######################################################################

data_SIGLIF
_chemical_formula_moiety         'C24 H28 B1 N1'
_chemical_name_systematic        4-(Dimesitylboryl)aniline
_symmetry_cell_setting           monoclinic
_symmetry_space_group_name_H-M   'C 2/c'
_symmetry_Int_Tables_number      15
_space_group_name_Hall           '-C 2yn'
loop_
_symmetry_equiv_pos_site_id
_symmetry_equiv_pos_as_xyz
1 x,y,z
2 -x,y,1/2-z
3 1/2+x,1/2+y,z
4 1/2-x,1/2+y,1/2-z
5 -x,-y,-z
6 x,-y,1/2+z
7 1/2-x,1/2-y,-z
8 1/2+x,1/2-y,1/2+z
_cell_length_a                   12.7564(13)
_cell_length_b                   9.8867(10)
_cell_length_c                   16.1989(15)
_cell_angle_alpha                90
_cell_angle_beta                 100.352(4)
_cell_angle_gamma                90
_cell_volume                     2009.73
_exptl_crystal_colour            colorless
_exptl_crystal_description       prism
_cell_formula_units_Z            4
loop_
_atom_site_label
_atom_site_type_symbol
_atom_site_fract_x
_atom_site_fract_y
_atom_site_fract_z
N1 N 0.0000 0.04575(13) 0.2500
H1 H 0.0347 0.0205 0.2893
B1 B 0.0000 0.62668(14) 0.2500
C1 C 0.0000 0.47112(12) 0.2500
C2 C 0.05769(7) 0.39562(9) 0.31709(6)
H2 H 0.0959 0.4416 0.3629
C3 C 0.05937(8) 0.25592(10) 0.31716(6)
H3 H 0.0999 0.2097 0.3618
C4 C 0.0000 0.18358(13) 0.2500
C5 C 0.04635(7) 0.70719(9) 0.33352(5)
C6 C -0.00047(7) 0.69868(9) 0.40585(6)
C7 C 0.03935(8) 0.77579(10) 0.47697(6)
H4 H 0.0067 0.7692 0.5237
C8 C 0.12586(8) 0.86174(10) 0.48010(6)
C9 C 0.17496(8) 0.86629(10) 0.41011(6)
H5 H 0.2346 0.9209 0.4115
C10 C 0.13736(7) 0.79128(9) 0.33793(6)
C11 C -0.09592(8) 0.60969(11) 0.41032(6)
H6 H -0.0768 0.5429 0.4534
H7 H -0.1182 0.5655 0.3573
H8 H -0.1532 0.6642 0.4231
C12 C 0.16672(9) 0.94563(12) 0.55672(7)
H9 H 0.1230 0.9304 0.5983
H10 H 0.1642 1.0396 0.5417
H11 H 0.2389 0.9203 0.5790
C13 C 0.19866(8) 0.79806(12) 0.26670(7)
H12 H 0.2570 0.8601 0.2808
H13 H 0.1523 0.8285 0.2168
H14 H 0.2256 0.7099 0.2572
H1A H -0.0347 0.0205 0.2107
C2A C -0.05769(7) 0.39562(9) 0.18291(6)
H2A H -0.0959 0.4416 0.1371
C3A C -0.05937(8) 0.25592(10) 0.18284(6)
H3A H -0.0999 0.2097 0.1382
C5A C -0.04635(7) 0.70719(9) 0.16648(5)
C6A C 0.00047(7) 0.69868(9) 0.09415(6)
C7A C -0.03935(8) 0.77579(10) 0.02303(6)
H4A H -0.0067 0.7692 -0.0237
C8A C -0.12586(8) 0.86174(10) 0.01990(6)
C9A C -0.17496(8) 0.86629(10) 0.08989(6)
H5A H -0.2346 0.9209 0.0885
C10A C -0.13736(7) 0.79128(9) 0.16207(6)
C11A C 0.09592(8) 0.60969(11) 0.08968(6)
H6A H 0.0768 0.5429 0.0466
H7A H 0.1182 0.5655 0.1427
H8A H 0.1532 0.6642 0.0769
C12A C -0.16672(9) 0.94563(12) -0.05672(7)
H9A H -0.1230 0.9304 -0.0983
H10A H -0.1642 1.0396 -0.0417
H11A H -0.2389 0.9203 -0.0790
C13A C -0.19866(8) 0.79806(12) 0.23330(7)
H12A H -0.2570 0.8601 0.2192
H13A H -0.1523 0.8285 0.2832
H14A H -0.2256 0.7099 0.2428
loop_
_geom_bond_atom_site_label_1
_geom_bond_atom_site_label_2
_geom_bond_site_symmetry_1
_geom_bond_site_symmetry_2
N1 H1 1_555 1_555
B1 C1 1_555 1_555
C1 C2 1_555 1_555
C2 H2 1_555 1_555
C3 C2 1_555 1_555
H3 C3 1_555 1_555
C4 N1 1_555 1_555
C5 B1 1_555 1_555
C6 C5 1_555 1_555
C7 C6 1_555 1_555
H4 C7 1_555 1_555
C8 C7 1_555 1_555
C9 C8 1_555 1_555
H5 C9 1_555 1_555
C10 C5 1_555 1_555
C11 C6 1_555 1_555
H6 C11 1_555 1_555
H7 C11 1_555 1_555
H8 C11 1_555 1_555
C12 C8 1_555 1_555
H9 C12 1_555 1_555
H10 C12 1_555 1_555
H11 C12 1_555 1_555
C13 C10 1_555 1_555
H12 C13 1_555 1_555
H13 C13 1_555 1_555
H14 C13 1_555 1_555
H1A N1 1_555 1_555
C2A C1 1_555 1_555
H2A C2A 1_555 1_555
C3A C4 1_555 1_555
H3A C3A 1_555 1_555
C5A B1 1_555 1_555
C6A C5A 1_555 1_555
C7A C6A 1_555 1_555
H4A C7A 1_555 1_555
C8A C7A 1_555 1_555
C9A C8A 1_555 1_555
H5A C9A 1_555 1_555
C10A C5A 1_555 1_555
C11A C6A 1_555 1_555
H6A C11A 1_555 1_555
H7A C11A 1_555 1_555
H8A C11A 1_555 1_555
C12A C8A 1_555 1_555
H9A C12A 1_555 1_555
H10A C12A 1_555 1_555
H11A C12A 1_555 1_555
C13A C10A 1_555 1_555
H12A C13A 1_555 1_555
H13A C13A 1_555 1_555
H14A C13A 1_555 1_555
C3 C4 1_555 1_555
C9 C10 1_555 1_555
C2A C3A 1_555 1_555
C9A C10A 1_555 1_555

#END
