
#######################################################################
#
#                 Cambridge Crystallographic Data Centre
#                                CCDC 
#
#######################################################################
#
# If this CIF has been generated from an entry in the Cambridge 
# Structural Database, then it will include bibliographic, chemical, 
# crystal, experimental, refinement or atomic coordinate data resulting 
# from the CCDC's data processing and validation procedures.
#
#######################################################################

data_SIGPEG
_chemical_formula_moiety         'C6 H7 N2 O1 1+,0.5(I2),I1 1-'
_chemical_name_systematic        '4-carbamoylpyridin-1-ium iodidie iodine'
_symmetry_cell_setting           monoclinic
_symmetry_space_group_name_H-M   'P 21/c'
_symmetry_Int_Tables_number      14
_space_group_name_Hall           '-P 2ybc'
loop_
_symmetry_equiv_pos_site_id
_symmetry_equiv_pos_as_xyz
1 x,y,z
2 -x,1/2+y,1/2-z
3 -x,-y,-z
4 x,1/2-y,1/2+z
_cell_length_a                   8.0528(5)
_cell_length_b                   7.3721(5)
_cell_length_c                   17.0288(11)
_cell_angle_alpha                90
_cell_angle_beta                 96.288(6)
_cell_angle_gamma                90
_cell_volume                     1004.85
_exptl_crystal_colour            'dark red'
_exptl_crystal_description       plate
_cell_formula_units_Z            4
loop_
_atom_site_label
_atom_site_type_symbol
_atom_site_fract_x
_atom_site_fract_y
_atom_site_fract_z
I1 I 0.31775(7) 0.97079(7) 0.15872(3)
I2 I 0.44476(7) 0.63257(9) 0.04948(3)
I2B I 0.55524(7) 0.36743(9) -0.04948(3)
N1 N 0.2384(12) 0.6083(13) 0.2793(6)
H1 H 0.2635 0.6913 0.2471
N2 N 0.0945(11) 0.2276(10) 0.5060(4)
H2 H 0.0621 0.1455 0.5368
H3 H 0.1304 0.3301 0.5251
O1 O 0.0397(11) 0.0543(10) 0.3988(5)
C1 C 0.2280(15) 0.6544(14) 0.3553(8)
H4 H 0.2503 0.7722 0.3730
C2 C 0.2119(14) 0.4412(16) 0.2518(6)
H5 H 0.2239 0.4155 0.1993
C3 C 0.1663(13) 0.3051(14) 0.3013(5)
H6 H 0.1470 0.1879 0.2821
C4 C 0.1820(14) 0.5176(13) 0.4074(6)
H7 H 0.1736 0.5445 0.4602
C5 C 0.1499(9) 0.3448(11) 0.3791(5)
C6 C 0.0891(9) 0.1962(11) 0.4292(5)
loop_
_geom_bond_atom_site_label_1
_geom_bond_atom_site_label_2
_geom_bond_site_symmetry_1
_geom_bond_site_symmetry_2
I2 I2B 1_555 1_555
N1 H1 1_555 1_555
N2 H2 1_555 1_555
H3 N2 1_555 1_555
O1 C6 1_555 1_555
C1 N1 1_555 1_555
H4 C1 1_555 1_555
C2 N1 1_555 1_555
H5 C2 1_555 1_555
C3 C2 1_555 1_555
H6 C3 1_555 1_555
C4 C1 1_555 1_555
H7 C4 1_555 1_555
C5 C3 1_555 1_555
C6 N2 1_555 1_555
C4 C5 1_555 1_555
C5 C6 1_555 1_555

#END
