
#######################################################################
#
#                 Cambridge Crystallographic Data Centre
#                                CCDC 
#
#######################################################################
#
# If this CIF has been generated from an entry in the Cambridge 
# Structural Database, then it will include bibliographic, chemical, 
# crystal, experimental, refinement or atomic coordinate data resulting 
# from the CCDC's data processing and validation procedures.
#
#######################################################################

data_SIGPUW
_chemical_formula_moiety         '2(C16 H12 O1),C8 F4 N2'
_chemical_name_systematic        
'2,3,5,6-tetrafluorobenzene-1,4-dicarbonitrile bis(1-(anthracen-9-yl)ethan-1-one)'
_symmetry_cell_setting           monoclinic
_symmetry_space_group_name_H-M   'P 21/n'
_symmetry_Int_Tables_number      14
_space_group_name_Hall           '-P 2yn'
loop_
_symmetry_equiv_pos_site_id
_symmetry_equiv_pos_as_xyz
1 x,y,z
2 1/2-x,1/2+y,1/2-z
3 -x,-y,-z
4 1/2+x,1/2-y,1/2+z
_cell_length_a                   11.6109(4)
_cell_length_b                   10.4279(4)
_cell_length_c                   13.0037(5)
_cell_angle_alpha                90
_cell_angle_beta                 95.0520(10)
_cell_angle_gamma                90
_cell_volume                     1568.34
_exptl_crystal_colour            yellow
_exptl_crystal_description       block
_cell_formula_units_Z            2
_chemical_properties_physical    Deliquescent
_exptl_crystal_preparation       Luminescent
loop_
_atom_site_label
_atom_site_type_symbol
_atom_site_fract_x
_atom_site_fract_y
_atom_site_fract_z
C1 C 0.53502(16) 0.4802(2) 0.40313(15)
C2 C 0.50395(17) 0.5999(2) 0.43250(15)
C3 C 0.46813(16) 0.62187(19) 0.53003(16)
C4 C 0.4359(2) 0.7486(3) 0.5615(2)
F1 F 0.56819(11) 0.46179(14) 0.30840(9)
F2 F 0.50741(13) 0.69758(13) 0.36700(11)
N1 N 0.4104(2) 0.8472(2) 0.5883(2)
C1B C 0.46498(16) 0.5198(2) 0.59687(15)
C2B C 0.49605(17) 0.4001(2) 0.56750(15)
C3B C 0.53187(16) 0.37813(19) 0.46997(16)
C4B C 0.5641(2) 0.2514(3) 0.4385(2)
F1B F 0.43181(11) 0.53821(14) 0.69160(9)
F2B F 0.49259(13) 0.30242(13) 0.63300(11)
N1B N 0.5896(2) 0.1528(2) 0.4117(2)
C5 C 0.15669(15) 0.60364(18) 0.45491(14)
C6 C 0.14070(18) 0.7190(2) 0.39558(18)
H1 H 0.1543 0.7178 0.3246
C7 C 0.1068(2) 0.8291(2) 0.4380(2)
H2 H 0.0970 0.9042 0.3968
C8 C 0.0856(2) 0.8338(2) 0.5425(2)
H3 H 0.0609 0.9118 0.5711
C9 C 0.10012(19) 0.7287(2) 0.60278(19)
H4 H 0.0869 0.7343 0.6737
C10 C 0.13507(15) 0.60870(19) 0.56173(15)
C11 C 0.14861(17) 0.4978(2) 0.62077(15)
H5 H 0.1340 0.5016 0.6914
C12 C 0.18262(16) 0.38204(19) 0.58078(14)
C13 C 0.19700(19) 0.2685(2) 0.64173(18)
H6 H 0.1820 0.2713 0.7123
C14 C 0.2314(2) 0.1575(2) 0.6014(2)
H7 H 0.2404 0.0831 0.6435
C15 C 0.2540(2) 0.1515(2) 0.4975(2)
H8 H 0.2784 0.0726 0.4700
C16 C 0.24158(19) 0.2556(2) 0.43563(17)
H9 H 0.2573 0.2487 0.3654
C17 C 0.20519(15) 0.37610(18) 0.47418(14)
C18 C 0.19171(15) 0.48744(18) 0.41386(13)
C19 C 0.21579(18) 0.4820(2) 0.30188(15)
C20 C 0.1222(2) 0.4367(3) 0.22600(17)
H10 H 0.0622 0.5026 0.2164
H11 H 0.0887 0.3578 0.2514
H12 H 0.1539 0.4195 0.1599
O1 O 0.30633(14) 0.5167(2) 0.27400(12)
loop_
_geom_bond_atom_site_label_1
_geom_bond_atom_site_label_2
_geom_bond_site_symmetry_1
_geom_bond_site_symmetry_2
C1 C2 1_555 1_555
C2 C3 1_555 1_555
C3 C4 1_555 1_555
C4 N1 1_555 1_555
F1 C1 1_555 1_555
F2 C2 1_555 1_555
C5 C6 1_555 1_555
C6 H1 1_555 1_555
C7 C6 1_555 1_555
H2 C7 1_555 1_555
C8 C7 1_555 1_555
H3 C8 1_555 1_555
C9 C8 1_555 1_555
H4 C9 1_555 1_555
C10 C5 1_555 1_555
C11 C10 1_555 1_555
H5 C11 1_555 1_555
C12 C11 1_555 1_555
C13 C12 1_555 1_555
H6 C13 1_555 1_555
C14 C13 1_555 1_555
H7 C14 1_555 1_555
C15 C14 1_555 1_555
H8 C15 1_555 1_555
C16 C15 1_555 1_555
H9 C16 1_555 1_555
C17 C12 1_555 1_555
C18 C5 1_555 1_555
C19 C18 1_555 1_555
C20 C19 1_555 1_555
H10 C20 1_555 1_555
H11 C20 1_555 1_555
H12 C20 1_555 1_555
O1 C19 1_555 1_555
C1B C3 1_555 1_555
C2B C1B 1_555 1_555
C3B C1 1_555 1_555
C4B C3B 1_555 1_555
F1B C1B 1_555 1_555
F2B C2B 1_555 1_555
N1B C4B 1_555 1_555
C9 C10 1_555 1_555
C16 C17 1_555 1_555
C17 C18 1_555 1_555
C2B C3B 1_555 1_555

#END
