
#######################################################################
#
#                 Cambridge Crystallographic Data Centre
#                                CCDC 
#
#######################################################################
#
# If this CIF has been generated from an entry in the Cambridge 
# Structural Database, then it will include bibliographic, chemical, 
# crystal, experimental, refinement or atomic coordinate data resulting 
# from the CCDC's data processing and validation procedures.
#
#######################################################################

data_SIGXEO
_chemical_formula_moiety         'C23 H15 I1 O2'
_chemical_name_systematic        
1-[iodo(phenyl)methylidene]-3-phenyl-1H-2-benzopyran-4-carbaldehyde
_symmetry_cell_setting           monoclinic
_symmetry_space_group_name_H-M   'P 21/c'
_symmetry_Int_Tables_number      14
_space_group_name_Hall           '-P 2ybc'
loop_
_symmetry_equiv_pos_site_id
_symmetry_equiv_pos_as_xyz
1 x,y,z
2 -x,1/2+y,1/2-z
3 -x,-y,-z
4 x,1/2-y,1/2+z
_cell_length_a                   17.9540(7)
_cell_length_b                   5.5694(2)
_cell_length_c                   19.6128(8)
_cell_angle_alpha                90
_cell_angle_beta                 103.4000(10)
_cell_angle_gamma                90
_cell_volume                     1907.75
_exptl_crystal_colour            colorless
_exptl_crystal_description       prismatic
_cell_formula_units_Z            4
loop_
_atom_site_label
_atom_site_type_symbol
_atom_site_fract_x
_atom_site_fract_y
_atom_site_fract_z
I1 I 0.26011(2) 0.27338(5) 0.23710(2)
O1 O 0.18804(9) 0.4153(3) 0.35595(8)
O2 O 0.15721(15) 0.4021(5) 0.58925(11)
C1 C 0.27710(15) 0.6689(5) 0.43538(13)
C2 C 0.32821(19) 0.8604(6) 0.44316(16)
H1 H 0.3535 0.8944 0.4079
C3 C 0.3414(2) 0.9986(6) 0.50234(19)
H2 H 0.3757 1.1262 0.5072
C4 C 0.3041(2) 0.9494(6) 0.55490(18)
H3 H 0.3145 1.0413 0.5956
C5 C 0.25214(19) 0.7674(5) 0.54766(16)
H4 H 0.2269 0.7376 0.5832
C6 C 0.23648(14) 0.6253(5) 0.48743(13)
C7 C 0.17729(14) 0.4391(5) 0.47403(13)
C8 C 0.15296(13) 0.3545(5) 0.40789(13)
C9 C 0.26125(13) 0.5157(4) 0.37301(12)
C10 C 0.30628(14) 0.4683(5) 0.32903(12)
C11 C 0.38812(14) 0.5300(5) 0.33922(13)
C12 C 0.4141(2) 0.6890(7) 0.2962(2)
H5 H 0.3798 0.7657 0.2599
C13 C 0.4931(3) 0.7338(9) 0.3078(3)
H6 H 0.5109 0.8451 0.2800
C14 C 0.5436(3) 0.6171(12) 0.3589(3)
H7 H 0.5958 0.6443 0.3650
C15 C 0.5185(2) 0.4633(10) 0.4006(2)
H8 H 0.5532 0.3857 0.4363
C16 C 0.44124(17) 0.4187(7) 0.39077(18)
H9 H 0.4248 0.3098 0.4201
C17 C 0.08792(14) 0.1922(5) 0.38065(14)
C18 C 0.01608(17) 0.2327(5) 0.39408(17)
H10 H 0.0079 0.3662 0.4199
C19 C -0.04306(16) 0.0738(7) 0.36893(18)
H11 H -0.0910 0.1012 0.3778
C20 C -0.03160(18) -0.1233(7) 0.33111(18)
H12 H -0.0714 -0.2314 0.3154
C21 C 0.03847(19) -0.1622(6) 0.31620(17)
H13 H 0.0458 -0.2949 0.2897
C22 C 0.09802(15) -0.0044(5) 0.34043(14)
H14 H 0.1452 -0.0303 0.3297
C23 C 0.14507(17) 0.3353(6) 0.52931(15)
H15 H 0.1121 0.2056 0.5170
loop_
_geom_bond_atom_site_label_1
_geom_bond_atom_site_label_2
_geom_bond_site_symmetry_1
_geom_bond_site_symmetry_2
I1 C10 1_555 1_555
O1 C8 1_555 1_555
O2 C23 1_555 1_555
C1 C2 1_555 1_555
C2 H1 1_555 1_555
C3 C2 1_555 1_555
H2 C3 1_555 1_555
C4 C3 1_555 1_555
H3 C4 1_555 1_555
C5 C4 1_555 1_555
H4 C5 1_555 1_555
C6 C1 1_555 1_555
C7 C6 1_555 1_555
C8 C7 1_555 1_555
C9 O1 1_555 1_555
C10 C9 1_555 1_555
C11 C10 1_555 1_555
C12 C11 1_555 1_555
H5 C12 1_555 1_555
C13 C12 1_555 1_555
H6 C13 1_555 1_555
C14 C13 1_555 1_555
H7 C14 1_555 1_555
C15 C14 1_555 1_555
H8 C15 1_555 1_555
C16 C11 1_555 1_555
H9 C16 1_555 1_555
C17 C8 1_555 1_555
C18 C17 1_555 1_555
H10 C18 1_555 1_555
C19 C18 1_555 1_555
H11 C19 1_555 1_555
C20 C19 1_555 1_555
H12 C20 1_555 1_555
C21 C20 1_555 1_555
H13 C21 1_555 1_555
C22 C17 1_555 1_555
H14 C22 1_555 1_555
C23 C7 1_555 1_555
H15 C23 1_555 1_555
C1 C9 1_555 1_555
C5 C6 1_555 1_555
C15 C16 1_555 1_555
C21 C22 1_555 1_555

#END
