
#######################################################################
#
#                 Cambridge Crystallographic Data Centre
#                                CCDC 
#
#######################################################################
#
# If this CIF has been generated from an entry in the Cambridge 
# Structural Database, then it will include bibliographic, chemical, 
# crystal, experimental, refinement or atomic coordinate data resulting 
# from the CCDC's data processing and validation procedures.
#
#######################################################################

data_SIGZEN
_chemical_formula_moiety         'C18 H14 N2 O3'
_chemical_name_systematic        
'2-Methyl-3-(3-phenylacryloyl)quinoxaline 1,4-dioxide'
_chemical_properties_biological  'antibacterial and growth promoting activity'
_symmetry_cell_setting           monoclinic
_symmetry_space_group_name_H-M   'P 1 1 21/b'
_symmetry_Int_Tables_number      14
_space_group_name_Hall           '-P 2bc'
loop_
_symmetry_equiv_pos_site_id
_symmetry_equiv_pos_as_xyz
1 x,y,z
2 -x,1/2-y,1/2+z
3 -x,-y,-z
4 x,1/2+y,1/2-z
_cell_length_a                   5.579(1)
_cell_length_b                   8.963(2)
_cell_length_c                   29.405(7)
_cell_angle_alpha                90
_cell_angle_beta                 90
_cell_angle_gamma                92.62(2)
_cell_volume                     1468.85
_exptl_crystal_colour            orange
_cell_formula_units_Z            4
loop_
_atom_site_label
_atom_site_type_symbol
_atom_site_fract_x
_atom_site_fract_y
_atom_site_fract_z
O1 O -0.0116(4) 0.9870(3) 0.2934(1)
O2 O 0.7053(4) 0.6355(2) 0.3369(1)
O3 O 0.5934(4) 0.8295(2) 0.4282(1)
N1 N 0.1608(4) 0.9045(2) 0.3036(1)
N2 N 0.5329(3) 0.7204(2) 0.3261(1)
C1 C 0.2371(5) 0.8645(3) 0.2236(1)
C2 C 0.3748(5) 0.8013(3) 0.1906(1)
C3 C 0.5615(6) 0.7111(3) 0.2013(1)
C4 C 0.6189(4) 0.6829(3) 0.2465(1)
C5 C 0.4806(4) 0.7480(3) 0.2801(1)
C6 C 0.2940(4) 0.8371(3) 0.2690(1)
C7 C 0.2223(4) 0.8786(3) 0.3476(1)
C8 C 0.4003(4) 0.7843(2) 0.3578(1)
C9 C 0.0829(6) 0.9617(4) 0.3822(1)
C10 C 0.4629(4) 0.7446(3) 0.4067(1)
C11 C 0.3479(4) 0.6119(3) 0.4263(1)
C12 C 0.1553(4) 0.5390(3) 0.4088(1)
C13 C 0.0281(4) 0.4093(2) 0.4294(1)
C14 C 0.1069(5) 0.3387(3) 0.4682(1)
C15 C -0.0206(5) 0.2176(3) 0.4866(1)
C16 C -0.2317(5) 0.1667(3) 0.4663(1)
C17 C -0.3119(5) 0.2331(3) 0.4280(1)
C18 C -0.1859(4) 0.3561(3) 0.4093(1)
H1 H 0.0703(16) 0.9337(15) 0.2183(9)
H2 H 0.3258(15) 0.8244(14) 0.1588(7)
H3 H 0.6537(16) 0.6697(14) 0.1742(7)
H4 H 0.7944(15) 0.5993(14) 0.2523(8)
H5 H -0.0822(16) 0.9535(14) 0.3811(8)
H6 H 0.0734(16) 1.0826(14) 0.3734(8)
H7 H 0.1389(16) 0.9583(15) 0.4126(8)
H8 H 0.4046(15) 0.5957(13) 0.4555(7)
H9 H 0.0966(15) 0.5680(13) 0.3800(6)
H10 H 0.2614(16) 0.3710(15) 0.4833(8)
H11 H 0.0429(16) 0.1884(14) 0.5148(7)
H12 H -0.3071(15) 0.0779(14) 0.4809(7)
H13 H -0.4355(15) 0.1824(14) 0.4136(7)
H14 H -0.2369(15) 0.4057(14) 0.3822(7)
loop_
_geom_bond_atom_site_label_1
_geom_bond_atom_site_label_2
_geom_bond_site_symmetry_1
_geom_bond_site_symmetry_2
O1 N1 1_555 1_555
O2 N2 1_555 1_555
O3 C10 1_555 1_555
N1 C6 1_555 1_555
N2 C5 1_555 1_555
C1 C2 1_555 1_555
C2 C3 1_555 1_555
C3 C4 1_555 1_555
C4 C5 1_555 1_555
C5 C6 1_555 1_555
C6 C1 1_555 1_555
C7 N1 1_555 1_555
C8 N2 1_555 1_555
C9 C7 1_555 1_555
C10 C8 1_555 1_555
C11 C10 1_555 1_555
C12 C11 1_555 1_555
C13 C12 1_555 1_555
C14 C13 1_555 1_555
C15 C14 1_555 1_555
C16 C15 1_555 1_555
C17 C16 1_555 1_555
C18 C13 1_555 1_555
H1 C1 1_555 1_555
H2 C2 1_555 1_555
H3 C3 1_555 1_555
H4 C4 1_555 1_555
H5 C9 1_555 1_555
H6 C9 1_555 1_555
H7 C9 1_555 1_555
H8 C11 1_555 1_555
H9 C12 1_555 1_555
H10 C14 1_555 1_555
H11 C15 1_555 1_555
H12 C16 1_555 1_555
H13 C17 1_555 1_555
H14 C18 1_555 1_555
C7 C8 1_555 1_555
C17 C18 1_555 1_555

#END
