
#######################################################################
#
#                 Cambridge Crystallographic Data Centre
#                                CCDC 
#
#######################################################################
#
# If this CIF has been generated from an entry in the Cambridge 
# Structural Database, then it will include bibliographic, chemical, 
# crystal, experimental, refinement or atomic coordinate data resulting 
# from the CCDC's data processing and validation procedures.
#
#######################################################################

data_SIHFEU
_chemical_formula_moiety         'C7 H10 O5'
_chemical_name_systematic        
2,3-Dideoxy-D-arabino-hept-2-enono-1,4-lactone
_symmetry_cell_setting           monoclinic
_symmetry_space_group_name_H-M   'P 21'
_symmetry_Int_Tables_number      4
_space_group_name_Hall           'P 2yb'
loop_
_symmetry_equiv_pos_site_id
_symmetry_equiv_pos_as_xyz
1 x,y,z
2 -x,1/2+y,-z
_cell_length_a                   9.243(2)
_cell_length_b                   9.568(2)
_cell_length_c                   4.588(1)
_cell_angle_alpha                90
_cell_angle_beta                 102.0(2)
_cell_angle_gamma                90
_cell_volume                     396.882
_exptl_crystal_colour            colorless
_chemical_melting_point          106-108deg.C
_cell_formula_units_Z            2
loop_
_atom_site_label
_atom_site_type_symbol
_atom_site_fract_x
_atom_site_fract_y
_atom_site_fract_z
O1 O -0.6845(4) -0.1482(6) -0.1332(10)
O2 O -0.4667(4) -0.1498(6) 0.1861(8)
O3 O -0.2618(5) 0.0608(7) 0.0870(9)
O4 O -0.1265(5) -0.2209(7) 0.5911(9)
O5 O 0.0804(4) 0.0000 0.5143(11)
C1 C -0.5987(6) -0.0908(8) 0.0659(15)
C2 C -0.6144(6) 0.0410(9) 0.2188(14)
C3 C -0.4919(7) 0.0575(9) 0.4354(14)
C4 C -0.3881(6) -0.0601(8) 0.4274(12)
C5 C -0.2406(6) -0.0155(8) 0.3622(12)
C6 C -0.1407(6) -0.1388(8) 0.3241(12)
C7 C 0.0074(7) -0.0922(8) 0.2752(15)
loop_
_geom_bond_atom_site_label_1
_geom_bond_atom_site_label_2
_geom_bond_site_symmetry_1
_geom_bond_site_symmetry_2
O1 C1 1_555 1_555
O2 C1 1_555 1_555
O3 C5 1_555 1_555
O4 C6 1_555 1_555
O5 C7 1_555 1_555
C1 C2 1_555 1_555
C2 C3 1_555 1_555
C3 C4 1_555 1_555
C4 O2 1_555 1_555
C5 C4 1_555 1_555
C6 C5 1_555 1_555
C7 C6 1_555 1_555

#END
