
#######################################################################
#
#                 Cambridge Crystallographic Data Centre
#                                CCDC 
#
#######################################################################
#
# If this CIF has been generated from an entry in the Cambridge 
# Structural Database, then it will include bibliographic, chemical, 
# crystal, experimental, refinement or atomic coordinate data resulting 
# from the CCDC's data processing and validation procedures.
#
#######################################################################

data_SIHJEY02
_chemical_name_common            
"Dianin's compound carbon tetrachloride clathrate"
_chemical_formula_moiety         '6(C18 H20 O2),C1 Cl4'
_chemical_name_systematic        
'hexakis(4-(p-Hydroxyphenyl)-2,2,4-trimethylchroman) carbon tetrachloride clathrate'
_symmetry_cell_setting           rhombohedral
_symmetry_space_group_name_H-M   'R -3'
_symmetry_Int_Tables_number      148
_space_group_name_Hall           '-R 3'
loop_
_symmetry_equiv_pos_site_id
_symmetry_equiv_pos_as_xyz
1 x,y,z
2 1/3+x,2/3+y,2/3+z
3 2/3+x,1/3+y,1/3+z
4 -y,x-y,z
5 -x+y,-x,z
6 1/3-y,2/3+x-y,2/3+z
7 1/3-x+y,2/3-x,2/3+z
8 2/3-y,1/3+x-y,1/3+z
9 2/3-x+y,1/3-x,1/3+z
10 -x,-y,-z
11 2/3-x,1/3-y,1/3-z
12 1/3-x,2/3-y,2/3-z
13 y,-x+y,-z
14 x-y,x,-z
15 2/3+y,1/3-x+y,1/3-z
16 2/3+x-y,1/3+x,1/3-z
17 1/3+y,2/3-x+y,2/3-z
18 1/3+x-y,2/3+x,2/3-z
_cell_length_a                   26.912(7)
_cell_length_b                   26.912(7)
_cell_length_c                   10.901(3)
_cell_angle_alpha                90
_cell_angle_beta                 90
_cell_angle_gamma                120
_cell_volume                     6837.37
_chemical_melting_point          160-162deg.C
_cell_formula_units_Z            3
loop_
_atom_site_label
_atom_site_type_symbol
_atom_site_fract_x
_atom_site_fract_y
_atom_site_fract_z
O1 O 0.0662(2) 0.1199(1) 0.9847(3)
O2 O 0.0882(1) 0.2627(1) 0.3709(3)
C1 C 0.0890(2) 0.1617(2) 0.8927(4)
C2 C 0.1416(2) 0.1754(2) 0.8384(5)
C3 C 0.1628(2) 0.2163(2) 0.7453(5)
C4 C 0.1337(2) 0.2439(2) 0.7048(4)
C5 C 0.0817(2) 0.2300(2) 0.7634(4)
C6 C 0.0599(2) 0.1889(2) 0.8564(5)
C7 C 0.1586(2) 0.2873(2) 0.5991(5)
C8 C 0.1664(2) 0.2603(2) 0.4788(5)
C9 C 0.1116(2) 0.2254(2) 0.4036(4)
C10 C 0.0880(2) 0.2990(2) 0.4600(5)
C11 C 0.1204(2) 0.3133(2) 0.5681(5)
C12 C 0.1180(2) 0.3530(2) 0.6472(5)
C13 C 0.0840(2) 0.3776(2) 0.6201(5)
C14 C 0.0516(2) 0.3623(2) 0.5123(5)
C15 C 0.0540(2) 0.3238(2) 0.4319(5)
C16 C 0.0645(2) 0.1722(2) 0.4682(4)
C17 C 0.1266(2) 0.2091(2) 0.2810(5)
C18 C 0.2194(2) 0.3366(2) 0.6354(5)
C19? C 0.0000 0.0000 0.347(2)
Cl1? Cl 0.0000 0.0000 0.5000
Cl2? Cl -0.0507 0.0169(1) 0.2986(3)
loop_
_geom_bond_atom_site_label_1
_geom_bond_atom_site_label_2
_geom_bond_site_symmetry_1
_geom_bond_site_symmetry_2
O1 C1 1_555 1_555
O2 C9 1_555 1_555
C1 C2 1_555 1_555
C2 C3 1_555 1_555
C3 C4 1_555 1_555
C4 C5 1_555 1_555
C5 C6 1_555 1_555
C6 C1 1_555 1_555
C7 C4 1_555 1_555
C8 C7 1_555 1_555
C9 C8 1_555 1_555
C10 O2 1_555 1_555
C11 C7 1_555 1_555
C12 C11 1_555 1_555
C13 C12 1_555 1_555
C14 C13 1_555 1_555
C15 C10 1_555 1_555
C16 C9 1_555 1_555
C17 C9 1_555 1_555
C18 C7 1_555 1_555
C10 C11 1_555 1_555
C14 C15 1_555 1_555

#END
