
#######################################################################
#
#                 Cambridge Crystallographic Data Centre
#                                CCDC 
#
#######################################################################
#
# If this CIF has been generated from an entry in the Cambridge 
# Structural Database, then it will include bibliographic, chemical, 
# crystal, experimental, refinement or atomic coordinate data resulting 
# from the CCDC's data processing and validation procedures.
#
#######################################################################

data_SIHNEE
_chemical_formula_moiety         'C32 H33 Br1 O5'
_chemical_name_systematic        
'(2S,3S)-2-(2,6-Di-isopropylphenyl) 4-ethyl 3-(4-bromophenyl)-5-phenyl-2,3-dihydrofuran-2,4-dicarboxylate'
_symmetry_cell_setting           orthorhombic
_symmetry_space_group_name_H-M   'P 21 21 21'
_symmetry_Int_Tables_number      19
_space_group_name_Hall           'P 2ac 2ab'
loop_
_symmetry_equiv_pos_site_id
_symmetry_equiv_pos_as_xyz
1 x,y,z
2 1/2-x,-y,1/2+z
3 -x,1/2+y,1/2-z
4 1/2+x,1/2-y,-z
_cell_length_a                   11.8267(13)
_cell_length_b                   15.0872(17)
_cell_length_c                   16.4482(18)
_cell_angle_alpha                90
_cell_angle_beta                 90
_cell_angle_gamma                90
_cell_volume                     2934.88
_exptl_crystal_colour            colorless
_exptl_crystal_description       block
_cell_formula_units_Z            4
_exptl_crystal_recrystallization_method 'dichloromethane/petroleum ether'
loop_
_atom_site_label
_atom_site_type_symbol
_atom_site_fract_x
_atom_site_fract_y
_atom_site_fract_z
Br1 Br 1.551512(18) 0.891001(17) 0.865318(16)
O1 O 0.92815(11) 0.81897(8) 0.81676(8)
O2 O 0.92448(11) 0.89957(10) 0.61423(8)
O3 O 0.78827(10) 0.87535(9) 0.70720(8)
O4 O 1.04011(15) 0.56409(8) 0.72020(10)
O5 O 1.16810(11) 0.65560(8) 0.66583(8)
C1 C 0.89682(15) 0.88231(12) 0.68240(11)
C2 C 0.98057(14) 0.86765(12) 0.75129(12)
H1 H 1.0090 0.9247 0.7712
C3 C 1.07903(15) 0.80991(11) 0.72178(11)
H2 H 1.0832 0.8123 0.6623
C4 C 1.03490(15) 0.71962(11) 0.74800(11)
C5 C 0.95182(16) 0.73073(11) 0.80337(11)
C6 C 0.88091(16) 0.67075(12) 0.85238(12)
C7 C 0.91725(17) 0.58708(12) 0.87595(12)
H3 H 0.9900 0.5684 0.8630
C8 C 0.8455(2) 0.53137(14) 0.91874(14)
H4 H 0.8704 0.4756 0.9347
C9 C 0.7374(2) 0.55828(16) 0.93766(14)
H5 H 0.6886 0.5201 0.9648
C10 C 0.70158(18) 0.64227(16) 0.91616(14)
H6 H 0.6293 0.6611 0.9301
C11 C 0.77268(17) 0.69794(14) 0.87421(13)
H7 H 0.7481 0.7545 0.8602
C12 C 1.19376(15) 0.83223(11) 0.75756(12)
C13 C 1.28532(17) 0.84915(13) 0.70707(13)
H8 H 1.2751 0.8481 0.6510
C14 C 1.39184(17) 0.86754(13) 0.73842(14)
H9 H 1.4524 0.8791 0.7040
C15 C 1.40597(16) 0.86828(12) 0.82163(13)
C16 C 1.31725(17) 0.85161(14) 0.87333(14)
H10 H 1.3282 0.8520 0.9293
C17 C 1.21084(17) 0.83412(13) 0.84101(12)
H11 H 1.1503 0.8236 0.8758
C18 C 0.70407(15) 0.87629(13) 0.64595(11)
C19 C 0.66084(16) 0.79422(13) 0.62221(13)
C20 C 0.57405(18) 0.79550(16) 0.56527(13)
H12 H 0.5436 0.7422 0.5471
C21 C 0.53223(17) 0.87426(16) 0.53531(13)
H13 H 0.4736 0.8735 0.4977
C22 C 0.57651(17) 0.95404(15) 0.56065(13)
H14 H 0.5473 1.0066 0.5399
C23 C 0.66460(16) 0.95717(13) 0.61696(12)
C24 C 0.71302(16) 1.04591(13) 0.64227(13)
H15 H 0.7732 1.0345 0.6819
C25 C 0.7657(2) 1.09456(16) 0.57083(15)
H16 H 0.8227 1.0579 0.5464
H17 H 0.7994 1.1487 0.5896
H18 H 0.7083 1.1078 0.5314
C26 C 0.62321(19) 1.10255(16) 0.68435(14)
H19 H 0.5644 1.1168 0.6463
H20 H 0.6571 1.1563 0.7040
H21 H 0.5917 1.0702 0.7292
C27 C 0.70910(19) 0.70809(14) 0.65506(14)
H22 H 0.7534 0.7242 0.7032
C28 C 0.7914(3) 0.6676(2) 0.5960(2)
H23 H 0.8314 0.6201 0.6220
H24 H 0.8444 0.7119 0.5784
H25 H 0.7511 0.6450 0.5498
C29 C 0.6207(3) 0.6441(2) 0.6840(2)
H26 H 0.5713 0.6734 0.7217
H27 H 0.6566 0.5949 0.7104
H28 H 0.5777 0.6232 0.6384
C30 C 1.07787(16) 0.63771(12) 0.71215(12)
C31 C 1.22394(18) 0.58068(12) 0.62771(13)
H29 H 1.1711 0.5478 0.5942
H30 H 1.2546 0.5411 0.6686
C32 C 1.31683(19) 0.61875(16) 0.57664(13)
H31 H 1.2849 0.6561 0.5354
H32 H 1.3585 0.5715 0.5515
H33 H 1.3667 0.6530 0.6103
loop_
_geom_bond_atom_site_label_1
_geom_bond_atom_site_label_2
_geom_bond_site_symmetry_1
_geom_bond_site_symmetry_2
Br1 C15 1_555 1_555
O1 C2 1_555 1_555
O2 C1 1_555 1_555
O3 C1 1_555 1_555
O4 C30 1_555 1_555
O5 C30 1_555 1_555
C1 C2 1_555 1_555
C2 H1 1_555 1_555
C3 C2 1_555 1_555
H2 C3 1_555 1_555
C4 C3 1_555 1_555
C5 O1 1_555 1_555
C6 C5 1_555 1_555
C7 C6 1_555 1_555
H3 C7 1_555 1_555
C8 C7 1_555 1_555
H4 C8 1_555 1_555
C9 C8 1_555 1_555
H5 C9 1_555 1_555
C10 C9 1_555 1_555
H6 C10 1_555 1_555
C11 C6 1_555 1_555
H7 C11 1_555 1_555
C12 C3 1_555 1_555
C13 C12 1_555 1_555
H8 C13 1_555 1_555
C14 C13 1_555 1_555
H9 C14 1_555 1_555
C15 C14 1_555 1_555
C16 C15 1_555 1_555
H10 C16 1_555 1_555
C17 C12 1_555 1_555
H11 C17 1_555 1_555
C18 O3 1_555 1_555
C19 C18 1_555 1_555
C20 C19 1_555 1_555
H12 C20 1_555 1_555
C21 C20 1_555 1_555
H13 C21 1_555 1_555
C22 C21 1_555 1_555
H14 C22 1_555 1_555
C23 C18 1_555 1_555
C24 C23 1_555 1_555
H15 C24 1_555 1_555
C25 C24 1_555 1_555
H16 C25 1_555 1_555
H17 C25 1_555 1_555
H18 C25 1_555 1_555
C26 C24 1_555 1_555
H19 C26 1_555 1_555
H20 C26 1_555 1_555
H21 C26 1_555 1_555
C27 C19 1_555 1_555
H22 C27 1_555 1_555
C28 C27 1_555 1_555
H23 C28 1_555 1_555
H24 C28 1_555 1_555
H25 C28 1_555 1_555
C29 C27 1_555 1_555
H26 C29 1_555 1_555
H27 C29 1_555 1_555
H28 C29 1_555 1_555
C30 C4 1_555 1_555
C31 O5 1_555 1_555
H29 C31 1_555 1_555
H30 C31 1_555 1_555
C32 C31 1_555 1_555
H31 C32 1_555 1_555
H32 C32 1_555 1_555
H33 C32 1_555 1_555
C4 C5 1_555 1_555
C10 C11 1_555 1_555
C16 C17 1_555 1_555
C22 C23 1_555 1_555

#END
