
#######################################################################
#
#                 Cambridge Crystallographic Data Centre
#                                CCDC 
#
#######################################################################
#
# If this CIF has been generated from an entry in the Cambridge 
# Structural Database, then it will include bibliographic, chemical, 
# crystal, experimental, refinement or atomic coordinate data resulting 
# from the CCDC's data processing and validation procedures.
#
#######################################################################

data_SIHNON
_chemical_compound_source        'roots of Stemona sessilifolia'
_chemical_name_common            Dihydrostemoninine
_chemical_formula_moiety         'C22 H33 N1 O5'
_chemical_name_systematic        
(1'S,2S*,3a'R*,4S*,8'S*,10a'S,10'bR*)-1'-ethyl-4-methyl-8'-((2S,4S)-4-methyl-5-oxotetrahydrofuran-2-yl)-dodecahydro-5H-spiro(furan-2,2'-furo(3,2-c)pyrrolo(1,2-a)azepin)-5-one
_symmetry_cell_setting           monoclinic
_symmetry_space_group_name_H-M   'P 21'
_symmetry_Int_Tables_number      4
_space_group_name_Hall           'P 2yb'
loop_
_symmetry_equiv_pos_site_id
_symmetry_equiv_pos_as_xyz
1 x,y,z
2 -x,1/2+y,-z
_cell_length_a                   11.101(2)
_cell_length_b                   7.9980(16)
_cell_length_c                   12.196(2)
_cell_angle_alpha                90
_cell_angle_beta                 100.35(3)
_cell_angle_gamma                90
_cell_volume                     1065.21
_exptl_crystal_colour            colorless
_exptl_crystal_description       Column
_cell_formula_units_Z            2
loop_
_atom_site_label
_atom_site_type_symbol
_atom_site_fract_x
_atom_site_fract_y
_atom_site_fract_z
N1 N 0.0452(3) -0.4510(6) -0.3726(3)
O1 O -0.1273(3) -0.3393(5) -0.0813(3)
O2 O -0.5007(3) -0.3848(8) -0.0763(3)
O3 O -0.3259(3) -0.4440(5) -0.1325(2)
O4 O 0.2326(3) -0.2109(6) -0.4419(3)
O5 O 0.3418(4) 0.0112(7) -0.4728(4)
C1 C 0.0955(4) -0.6593(7) -0.2327(4)
H1 H 0.0838 -0.7794 -0.2323
H2 H 0.1058 -0.6184 -0.1567
C2 C 0.2070(4) -0.6147(7) -0.2848(4)
H3 H 0.2817 -0.6159 -0.2295
H4 H 0.2157 -0.6908 -0.3447
C3 C 0.1760(4) -0.4388(7) -0.3284(3)
H5 H 0.1896 -0.3595 -0.2661
C4 C -0.0228(4) -0.3014(7) -0.4143(4)
H6 H -0.1080 -0.3321 -0.4382
H7 H 0.0077 -0.2629 -0.4797
C5 C -0.0170(4) -0.1544(7) -0.3323(4)
H8 H 0.0680 -0.1353 -0.2992
H9 H -0.0464 -0.0549 -0.3741
C6 C -0.0899(4) -0.1762(7) -0.2386(4)
H10 H -0.0716 -0.0838 -0.1868
H11 H -0.1766 -0.1717 -0.2698
C7 C -0.0629(4) -0.3384(6) -0.1755(4)
H12 H 0.0253 -0.3467 -0.1476
C8 C -0.1067(4) -0.4974(6) -0.2417(3)
H13 H -0.1795 -0.4677 -0.2964
C9 C -0.0131(4) -0.5743(6) -0.3056(3)
H14 H -0.0556 -0.6583 -0.3570
C10 C -0.1485(4) -0.6117(6) -0.1541(4)
H15 H -0.0752 -0.6620 -0.1095
C11 C -0.1982(4) -0.4843(6) -0.0816(4)
C12 C -0.2074(4) -0.5251(7) 0.0385(3)
H16 H -0.2205 -0.6438 0.0475
H17 H -0.1336 -0.4917 0.0890
C13 C -0.3145(4) -0.4271(9) 0.0595(4)
H18 H -0.2845 -0.3137 0.0788
C14 C -0.3937(4) -0.4153(8) -0.0529(4)
C15 C -0.3792(6) -0.4841(11) 0.1535(4)
H19 H -0.3221 -0.4837 0.2227
H20 H -0.4107 -0.5951 0.1382
H21 H -0.4456 -0.4092 0.1588
C16 C -0.2336(5) -0.7530(7) -0.2027(5)
H22 H -0.1945 -0.8152 -0.2549
H23 H -0.3080 -0.7045 -0.2443
C17 C -0.2685(7) -0.8757(9) -0.1170(6)
H24 H -0.3215 -0.9605 -0.1548
H25 H -0.3100 -0.8165 -0.0663
H26 H -0.1957 -0.9268 -0.0763
C18 C 0.2523(4) -0.3885(7) -0.4139(4)
H27 H 0.2289 -0.4563 -0.4813
C19 C 0.3905(4) -0.4021(8) -0.3728(4)
H28 H 0.4109 -0.3880 -0.2927
H29 H 0.4215 -0.5092 -0.3928
C20 C 0.4420(4) -0.2595(8) -0.4332(4)
H30 H 0.4544 -0.3006 -0.5061
C21 C 0.3388(5) -0.1348(9) -0.4519(5)
C22 C 0.5619(5) -0.1865(9) -0.3732(5)
H31 H 0.6238 -0.2717 -0.3635
H32 H 0.5515 -0.1451 -0.3016
H33 H 0.5863 -0.0965 -0.4164
loop_
_geom_bond_atom_site_label_1
_geom_bond_atom_site_label_2
_geom_bond_site_symmetry_1
_geom_bond_site_symmetry_2
N1 C3 1_555 1_555
O1 C7 1_555 1_555
O2 C14 1_555 1_555
O3 C11 1_555 1_555
O4 C18 1_555 1_555
O5 C21 1_555 1_555
C1 H1 1_555 1_555
H2 C1 1_555 1_555
C2 C1 1_555 1_555
H3 C2 1_555 1_555
H4 C2 1_555 1_555
C3 C2 1_555 1_555
H5 C3 1_555 1_555
C4 N1 1_555 1_555
H6 C4 1_555 1_555
H7 C4 1_555 1_555
C5 C4 1_555 1_555
H8 C5 1_555 1_555
H9 C5 1_555 1_555
C6 C5 1_555 1_555
H10 C6 1_555 1_555
H11 C6 1_555 1_555
C7 C6 1_555 1_555
H12 C7 1_555 1_555
C8 C7 1_555 1_555
H13 C8 1_555 1_555
C9 N1 1_555 1_555
H14 C9 1_555 1_555
C10 C8 1_555 1_555
H15 C10 1_555 1_555
C11 O1 1_555 1_555
C12 C11 1_555 1_555
H16 C12 1_555 1_555
H17 C12 1_555 1_555
C13 C12 1_555 1_555
H18 C13 1_555 1_555
C14 O3 1_555 1_555
C15 C13 1_555 1_555
H19 C15 1_555 1_555
H20 C15 1_555 1_555
H21 C15 1_555 1_555
C16 C10 1_555 1_555
H22 C16 1_555 1_555
H23 C16 1_555 1_555
C17 C16 1_555 1_555
H24 C17 1_555 1_555
H25 C17 1_555 1_555
H26 C17 1_555 1_555
C18 C3 1_555 1_555
H27 C18 1_555 1_555
C19 C18 1_555 1_555
H28 C19 1_555 1_555
H29 C19 1_555 1_555
C20 C19 1_555 1_555
H30 C20 1_555 1_555
C21 O4 1_555 1_555
C22 C20 1_555 1_555
H31 C22 1_555 1_555
H32 C22 1_555 1_555
H33 C22 1_555 1_555
C1 C9 1_555 1_555
C8 C9 1_555 1_555
C10 C11 1_555 1_555
C13 C14 1_555 1_555
C20 C21 1_555 1_555

#END
