
#######################################################################
#
#                 Cambridge Crystallographic Data Centre
#                                CCDC 
#
#######################################################################
#
# If this CIF has been generated from an entry in the Cambridge 
# Structural Database, then it will include bibliographic, chemical, 
# crystal, experimental, refinement or atomic coordinate data resulting 
# from the CCDC's data processing and validation procedures.
#
#######################################################################

data_SIHPOQ
_chemical_formula_moiety         'C19 H10 N2 O1'
_chemical_name_systematic        
8H-Indeno[1,2-b]naphtho[1,8-ef][1,4]diazepin-8-one
_symmetry_cell_setting           monoclinic
_symmetry_space_group_name_H-M   'P 21/n'
_symmetry_Int_Tables_number      14
_space_group_name_Hall           '-P 2yn'
loop_
_symmetry_equiv_pos_site_id
_symmetry_equiv_pos_as_xyz
1 x,y,z
2 1/2-x,1/2+y,1/2-z
3 -x,-y,-z
4 1/2+x,1/2-y,1/2+z
_cell_length_a                   10.541(4)
_cell_length_b                   8.865(4)
_cell_length_c                   13.749(6)
_cell_angle_alpha                90
_cell_angle_beta                 99.388(16)
_cell_angle_gamma                90
_cell_volume                     1267.58
_exptl_crystal_colour            blue
_exptl_crystal_description       platelet
_cell_formula_units_Z            4
loop_
_atom_site_label
_atom_site_type_symbol
_atom_site_fract_x
_atom_site_fract_y
_atom_site_fract_z
O1 O 0.15931(11) -0.07460(14) 0.73048(8)
N1 N 0.13007(11) 0.14314(14) 1.04793(8)
N2 N 0.00791(12) 0.13900(14) 0.82006(9)
C1 C 0.16176(13) 0.07137(17) 0.97466(10)
C2 C 0.10299(14) 0.06850(17) 0.86882(10)
C3 C 0.18061(14) -0.04166(17) 0.81738(11)
C4 C 0.28306(14) -0.09863(18) 0.89427(11)
C5 C 0.37833(15) -0.20471(19) 0.88614(13)
C6 C 0.46126(15) -0.2436(2) 0.97076(13)
C7 C 0.45035(15) -0.17904(19) 1.06193(13)
C8 C 0.35613(14) -0.07307(18) 1.06984(11)
C9 C 0.27176(13) -0.03361(17) 0.98513(11)
C10 C 0.02577(13) 0.24428(16) 1.04371(10)
C11 C 0.01610(14) 0.30202(17) 1.13616(10)
C12 C -0.07663(14) 0.40800(18) 1.15125(11)
C13 C -0.16134(14) 0.45810(17) 1.07285(11)
C14 C -0.15756(14) 0.40335(16) 0.97650(11)
C15 C -0.24832(15) 0.46099(17) 0.89772(11)
C16 C -0.25093(15) 0.41312(18) 0.80339(11)
C17 C -0.16213(14) 0.30436(17) 0.78459(11)
C18 C -0.07042(13) 0.24426(16) 0.85820(10)
C19 C -0.06415(13) 0.29351(16) 0.95904(10)
H1 H 0.3886 -0.2462 0.8179
H2 H 0.5339 -0.3292 0.9646
H3 H 0.5093 -0.2157 1.1196
H4 H 0.3450 -0.0252 1.1318
H5 H 0.0815 0.2691 1.1929
H6 H -0.0815 0.4440 1.2201
H7 H -0.2296 0.5330 1.0851
H8 H -0.3115 0.5346 0.9158
H9 H -0.3109 0.4608 0.7462
H10 H -0.1606 0.2594 0.7195
loop_
_geom_bond_atom_site_label_1
_geom_bond_atom_site_label_2
_geom_bond_site_symmetry_1
_geom_bond_site_symmetry_2
O1 C3 1_555 1_555
N1 C1 1_555 1_555
N2 C2 1_555 1_555
C1 C2 1_555 1_555
C2 C3 1_555 1_555
C3 C4 1_555 1_555
C4 C5 1_555 1_555
C5 C6 1_555 1_555
C6 C7 1_555 1_555
C7 C8 1_555 1_555
C8 C9 1_555 1_555
C9 C1 1_555 1_555
C10 N1 1_555 1_555
C11 C10 1_555 1_555
C12 C11 1_555 1_555
C13 C12 1_555 1_555
C14 C13 1_555 1_555
C15 C14 1_555 1_555
C16 C15 1_555 1_555
C17 C16 1_555 1_555
C18 N2 1_555 1_555
C19 C10 1_555 1_555
H1 C5 1_555 1_555
H2 C6 1_555 1_555
H3 C7 1_555 1_555
H4 C8 1_555 1_555
H5 C11 1_555 1_555
H6 C12 1_555 1_555
H7 C13 1_555 1_555
H8 C15 1_555 1_555
H9 C16 1_555 1_555
H10 C17 1_555 1_555
C4 C9 1_555 1_555
C14 C19 1_555 1_555
C17 C18 1_555 1_555
C18 C19 1_555 1_555

#END
