
#######################################################################
#
#                 Cambridge Crystallographic Data Centre
#                                CCDC 
#
#######################################################################
#
# If this CIF has been generated from an entry in the Cambridge 
# Structural Database, then it will include bibliographic, chemical, 
# crystal, experimental, refinement or atomic coordinate data resulting 
# from the CCDC's data processing and validation procedures.
#
#######################################################################

data_SIHPIK
_chemical_formula_moiety         'C30 H20 N4 O1,0.5(C2 H3 N1)'
_chemical_name_systematic        
"3'-Methoxy-1'H-spiro[isoindolo[2,1-a]perimidine-12,2'-naphtho[1,8-ef][1,4]diazepine] acetonitrile solvate"
_symmetry_cell_setting           triclinic
_symmetry_space_group_name_H-M   'P -1'
_symmetry_Int_Tables_number      2
_space_group_name_Hall           '-P 1'
loop_
_symmetry_equiv_pos_site_id
_symmetry_equiv_pos_as_xyz
1 x,y,z
2 -x,-y,-z
_cell_length_a                   12.409(4)
_cell_length_b                   14.230(6)
_cell_length_c                   15.949(7)
_cell_angle_alpha                116.175(13)
_cell_angle_beta                 108.024(11)
_cell_angle_gamma                94.274(13)
_cell_volume                     2328.81
_exptl_crystal_colour            red
_exptl_crystal_description       block
_cell_formula_units_Z            4
loop_
_atom_site_label
_atom_site_type_symbol
_atom_site_fract_x
_atom_site_fract_y
_atom_site_fract_z
O1 O 0.7511(2) 0.8383(2) 0.06684(18)
N1 N 0.5768(2) 0.8306(2) 0.12040(19)
N2 N 0.4877(2) 0.9658(2) 0.1006(2)
N3 N 0.8530(2) 0.7519(2) 0.1408(2)
N4 N 0.6612(2) 0.7485(2) 0.2175(2)
C1 C 0.5674(2) 0.9352(2) 0.1491(2)
C2 C 0.6876(2) 0.8260(2) 0.1858(2)
C3 C 0.7355(2) 0.9426(2) 0.2692(2)
C4 C 0.8342(2) 0.9879(2) 0.3565(2)
C5 C 0.8624(3) 1.0992(2) 0.4191(2)
C6 C 0.7942(3) 1.1625(2) 0.3934(2)
C7 C 0.6936(3) 1.1170(2) 0.3059(2)
C8 C 0.6658(2) 1.0054(2) 0.2438(2)
C9 C 0.4035(2) 0.8839(2) 0.0069(2)
C10 C 0.3176(3) 0.9121(3) -0.0493(2)
C11 C 0.2324(3) 0.8314(3) -0.1409(2)
C12 C 0.2331(3) 0.7257(3) -0.1762(3)
C13 C 0.3201(2) 0.6926(3) -0.1215(2)
C14 C 0.3256(3) 0.5841(3) -0.1545(2)
C15 C 0.4135(3) 0.5580(2) -0.0989(2)
C16 C 0.5011(3) 0.6383(2) -0.0066(2)
C17 C 0.4966(2) 0.7444(2) 0.0279(2)
C18 C 0.4070(2) 0.7741(2) -0.0283(2)
C19 C 0.7706(2) 0.7967(2) 0.1301(2)
C20 C 0.8986(2) 0.7150(2) 0.2093(2)
C21 C 1.0014(3) 0.6847(2) 0.2055(2)
C22 C 1.0639(3) 0.6472(2) 0.2685(3)
C23 C 1.0249(3) 0.6412(2) 0.3367(3)
C24 C 0.9209(3) 0.6724(2) 0.3457(2)
C25 C 0.8849(3) 0.6682(2) 0.4198(2)
C26 C 0.7865(3) 0.6988(3) 0.4304(2)
C27 C 0.7180(3) 0.7316(2) 0.3654(2)
C28 C 0.7471(2) 0.7329(2) 0.2892(2)
C29 C 0.8539(2) 0.7077(2) 0.2790(2)
C30 C 0.8364(3) 0.8354(3) 0.0213(3)
H1 H 0.8817 0.9445 0.3732
H2 H 0.9296 1.1325 0.4803
H3 H 0.8165 1.2386 0.4367
H4 H 0.6461 1.1604 0.2892
H5 H 0.3161 0.9859 -0.0260
H6 H 0.1726 0.8511 -0.1791
H7 H 0.1741 0.6729 -0.2388
H8 H 0.2674 0.5281 -0.2158
H9 H 0.4160 0.4844 -0.1230
H10 H 0.5620 0.6190 0.0310
H11 H 1.0302 0.6897 0.1586
H12 H 1.1334 0.6261 0.2633
H13 H 1.0684 0.6161 0.3797
H14 H 0.9297 0.6437 0.4626
H15 H 0.7649 0.6985 0.4825
H16 H 0.6497 0.7530 0.3737
H17 H 0.6057 0.7760 0.2421
H18 H 0.8972 0.8999 0.0635
H19 H 0.7996 0.8295 -0.0432
H20 H 0.8684 0.7749 0.0139
O2 O 0.2021(2) 0.97391(19) 0.32924(18)
N5 N 0.3397(2) 0.9239(2) 0.2318(2)
N6 N 0.4528(2) 0.8166(2) 0.2820(2)
N7 N 0.1583(2) 1.1119(2) 0.3020(2)
N8 N 0.3279(2) 1.0708(2) 0.2003(2)
C31 C 0.4313(2) 0.9077(2) 0.2948(2)
C32 C 0.3312(2) 1.0367(2) 0.2747(2)
C33 C 0.4404(2) 1.0910(2) 0.3711(2)
C34 C 0.4825(3) 1.1992(2) 0.4445(2)
C35 C 0.5851(3) 1.2270(3) 0.5277(2)
C36 C 0.6424(3) 1.1497(3) 0.5372(2)
C37 C 0.5997(2) 1.0422(2) 0.4636(2)
C38 C 0.4980(2) 1.0140(2) 0.3806(2)
C39 C 0.3687(3) 0.7238(2) 0.1985(2)
C40 C 0.3833(3) 0.6233(2) 0.1833(2)
C41 C 0.3015(3) 0.5304(3) 0.0998(3)
C42 C 0.2081(4) 0.5368(3) 0.0328(3)
C43 C 0.1895(3) 0.6378(2) 0.0440(2)
C44 C 0.0952(3) 0.6500(3) -0.0241(2)
C45 C 0.0823(3) 0.7497(3) -0.0085(2)
C46 C 0.1606(3) 0.8439(2) 0.0767(2)
C47 C 0.2541(2) 0.8353(2) 0.1451(2)
C48 C 0.2709(2) 0.7329(2) 0.1298(2)
C49 C 0.2227(2) 1.0470(2) 0.2997(2)
C50 C 0.1718(2) 1.2026(2) 0.2882(2)
C51 C 0.0930(3) 1.2631(3) 0.3121(2)
C52 C 0.0969(3) 1.3625(3) 0.3129(3)
C53 C 0.1817(3) 1.4012(3) 0.2905(3)
C54 C 0.2632(3) 1.3415(2) 0.2629(2)
C55 C 0.3462(3) 1.3825(3) 0.2370(3)
C56 C 0.4203(3) 1.3243(3) 0.2036(3)
C57 C 0.4154(3) 1.2220(2) 0.1966(2)
C58 C 0.3368(2) 1.1792(2) 0.2232(2)
C59 C 0.2574(3) 1.2387(2) 0.2584(2)
C60 C 0.1054(3) 0.9766(3) 0.3610(3)
H21 H 0.4429 1.2519 0.4387
H22 H 0.6167 1.3005 0.5788
H23 H 0.7114 1.1710 0.5950
H24 H 0.6388 0.9891 0.4693
H25 H 0.4487 0.6172 0.2292
H26 H 0.3114 0.4613 0.0902
H27 H 0.1542 0.4724 -0.0233
H28 H 0.0397 0.5877 -0.0817
H29 H 0.0190 0.7556 -0.0565
H30 H 0.1493 0.9128 0.0870
H31 H 0.0350 1.2374 0.3295
H32 H 0.0411 1.4020 0.3289
H33 H 0.1852 1.4693 0.2930
H34 H 0.3511 1.4523 0.2430
H35 H 0.4751 1.3526 0.1850
H36 H 0.4678 1.1818 0.1735
H37 H 0.3803 1.0385 0.1603
H38 H 0.1324 1.0248 0.4316
H39 H 0.0476 1.0007 0.3259
H40 H 0.0724 0.9062 0.3468
N9 N 0.6851(6) 0.4344(5) 0.4226(4)
C61 C 0.8980(9) 0.4440(6) 0.4574(6)
C62 C 0.8085(10) 0.4429(7) 0.4441(7)
H41 H 0.9077 0.3723 0.4325
H42 H 0.9247 0.4769 0.4247
H43 H 0.9418 0.4844 0.5282
C63? C 0.5361(17) 0.5337(12) 0.4801(11)
C64? C 0.6040(14) 0.4839(10) 0.4559(9)
H44? H 0.5745 0.5937 0.5462
H45? H 0.5058 0.5588 0.4335
H46? H 0.4738 0.4893 0.4788
loop_
_geom_bond_atom_site_label_1
_geom_bond_atom_site_label_2
_geom_bond_site_symmetry_1
_geom_bond_site_symmetry_2
O1 C19 1_555 1_555
N1 C1 1_555 1_555
N2 C1 1_555 1_555
N3 C19 1_555 1_555
N4 C2 1_555 1_555
C1 C8 1_555 1_555
C2 N1 1_555 1_555
C3 C2 1_555 1_555
C4 C3 1_555 1_555
C5 C4 1_555 1_555
C6 C5 1_555 1_555
C7 C6 1_555 1_555
C8 C3 1_555 1_555
C9 N2 1_555 1_555
C10 C9 1_555 1_555
C11 C10 1_555 1_555
C12 C11 1_555 1_555
C13 C12 1_555 1_555
C14 C13 1_555 1_555
C15 C14 1_555 1_555
C16 C15 1_555 1_555
C17 N1 1_555 1_555
C18 C9 1_555 1_555
C19 C2 1_555 1_555
C20 N3 1_555 1_555
C21 C20 1_555 1_555
C22 C21 1_555 1_555
C23 C22 1_555 1_555
C24 C23 1_555 1_555
C25 C24 1_555 1_555
C26 C25 1_555 1_555
C27 C26 1_555 1_555
C28 N4 1_555 1_555
C29 C20 1_555 1_555
C30 O1 1_555 1_555
H1 C4 1_555 1_555
H2 C5 1_555 1_555
H3 C6 1_555 1_555
H4 C7 1_555 1_555
H5 C10 1_555 1_555
H6 C11 1_555 1_555
H7 C12 1_555 1_555
H8 C14 1_555 1_555
H9 C15 1_555 1_555
H10 C16 1_555 1_555
H11 C21 1_555 1_555
H12 C22 1_555 1_555
H13 C23 1_555 1_555
H14 C25 1_555 1_555
H15 C26 1_555 1_555
H16 C27 1_555 1_555
H17 N4 1_555 1_555
H18 C30 1_555 1_555
H19 C30 1_555 1_555
H20 C30 1_555 1_555
O2 C49 1_555 1_555
N5 C31 1_555 1_555
N6 C31 1_555 1_555
N7 C49 1_555 1_555
N8 C32 1_555 1_555
C31 C38 1_555 1_555
C32 N5 1_555 1_555
C33 C32 1_555 1_555
C34 C33 1_555 1_555
C35 C34 1_555 1_555
C36 C35 1_555 1_555
C37 C36 1_555 1_555
C38 C33 1_555 1_555
C39 N6 1_555 1_555
C40 C39 1_555 1_555
C41 C40 1_555 1_555
C42 C41 1_555 1_555
C43 C42 1_555 1_555
C44 C43 1_555 1_555
C45 C44 1_555 1_555
C46 C45 1_555 1_555
C47 N5 1_555 1_555
C48 C39 1_555 1_555
C49 C32 1_555 1_555
C50 N7 1_555 1_555
C51 C50 1_555 1_555
C52 C51 1_555 1_555
C53 C52 1_555 1_555
C54 C53 1_555 1_555
C55 C54 1_555 1_555
C56 C55 1_555 1_555
C57 C56 1_555 1_555
C58 N8 1_555 1_555
C59 C50 1_555 1_555
C60 O2 1_555 1_555
H21 C34 1_555 1_555
H22 C35 1_555 1_555
H23 C36 1_555 1_555
H24 C37 1_555 1_555
H25 C40 1_555 1_555
H26 C41 1_555 1_555
H27 C42 1_555 1_555
H28 C44 1_555 1_555
H29 C45 1_555 1_555
H30 C46 1_555 1_555
H31 C51 1_555 1_555
H32 C52 1_555 1_555
H33 C53 1_555 1_555
H34 C55 1_555 1_555
H35 C56 1_555 1_555
H36 C57 1_555 1_555
H37 N8 1_555 1_555
H38 C60 1_555 1_555
H39 C60 1_555 1_555
H40 C60 1_555 1_555
N9 C62 1_555 1_555
C61 C62 1_555 1_555
H41 C61 1_555 1_555
H42 C61 1_555 1_555
H43 C61 1_555 1_555
C7 C8 1_555 1_555
C13 C18 1_555 1_555
C16 C17 1_555 1_555
C17 C18 1_555 1_555
C24 C29 1_555 1_555
C27 C28 1_555 1_555
C28 C29 1_555 1_555
C37 C38 1_555 1_555
C43 C48 1_555 1_555
C46 C47 1_555 1_555
C47 C48 1_555 1_555
C54 C59 1_555 1_555
C57 C58 1_555 1_555
C58 C59 1_555 1_555

#END
