
#######################################################################
#
#                 Cambridge Crystallographic Data Centre
#                                CCDC 
#
#######################################################################
#
# If this CIF has been generated from an entry in the Cambridge 
# Structural Database, then it will include bibliographic, chemical, 
# crystal, experimental, refinement or atomic coordinate data resulting 
# from the CCDC's data processing and validation procedures.
#
#######################################################################

data_SIHZEP
_chemical_formula_moiety         'C22 H21 F7 N2 O2'
_chemical_name_systematic        
3-(1-(3,5-bis(trifluoromethyl)phenyl)ethoxy)-4-(4-fluorophenyl)-N-methylpyrrolidine-1-carboxamide
_chemical_properties_biological  
'showed good bioavailability and was rapidly brain penetrant'
_symmetry_cell_setting           monoclinic
_symmetry_space_group_name_H-M   'P 21'
_symmetry_Int_Tables_number      4
_space_group_name_Hall           'P 2yb'
loop_
_symmetry_equiv_pos_site_id
_symmetry_equiv_pos_as_xyz
1 x,y,z
2 -x,1/2+y,-z
_cell_length_a                   8.575(6)
_cell_length_b                   9.263(6)
_cell_length_c                   27.14(2)
_cell_angle_alpha                90
_cell_angle_beta                 96.65(1)
_cell_angle_gamma                90
_cell_volume                     2141.23
_exptl_crystal_colour            colorless
_cell_formula_units_Z            4
loop_
_atom_site_label
_atom_site_type_symbol
_atom_site_fract_x
_atom_site_fract_y
_atom_site_fract_z
F1 F 0.0870(4) 0.0492(3) 0.27174(11)
F2 F 0.1880(3) -0.1257(4) 0.31388(9)
F3 F -0.0289(3) -0.1526(4) 0.26946(10)
F7 F 0.6491(7) -0.0597(7) 0.14903(19)
F8 F 0.6901(7) -0.2317(8) 0.1959(2)
F9 F 0.6635(8) -0.0158(8) 0.2259(3)
F10 F 0.5378(3) 0.2857(3) 0.14917(9)
O1 O -0.0467(3) -0.2165(3) 0.08499(9)
O2 O -0.4091(3) 0.2416(3) -0.01997(10)
N1 N -0.2768(4) 0.0611(4) 0.02280(12)
N2 N -0.5026(4) 0.0104(4) -0.02824(12)
H1 H -0.4905 -0.0780 -0.0189
C1 C 0.1969(5) -0.1329(4) 0.22759(14)
C2 C 0.3567(5) -0.1121(5) 0.23083(15)
H2 H 0.4115 -0.0787 0.2602
C3 C 0.4356(5) -0.1410(5) 0.19019(16)
C4 C 0.3553(5) -0.1873(4) 0.14622(14)
H3 H 0.4088 -0.2028 0.1188
C5 C 0.1934(4) -0.2113(4) 0.14268(13)
C6 C 0.1156(4) -0.1849(4) 0.18321(14)
H4 H 0.0082 -0.2016 0.1813
C7 C 0.1106(4) -0.2676(4) 0.09401(14)
H5 H 0.1685 -0.2358 0.0669
C8 C 0.1044(5) -0.4326(5) 0.09419(15)
H6 H 0.0498 -0.4661 0.0634
H7 H 0.0502 -0.4649 0.1212
H8 H 0.2093 -0.4705 0.0980
C9 C -0.0715(5) -0.0900(4) 0.05602(14)
H9 H -0.0008 -0.0898 0.0301
C10 C -0.2407(5) -0.0918(5) 0.03218(16)
H10 H -0.2510 -0.1464 0.0015
H11 H -0.3095 -0.1332 0.0544
C11 C -0.1549(5) 0.1557(4) 0.04709(15)
H12 H -0.2005 0.2345 0.0642
H13 H -0.0905 0.1954 0.0233
C12 C -0.0591(4) 0.0559(4) 0.08383(13)
H14 H -0.1146 0.0467 0.1133
C13 C 0.1036(5) 0.1133(4) 0.10020(14)
C14 C 0.1372(5) 0.1690(5) 0.14872(15)
H15 H 0.0599 0.1668 0.1701
C15 C 0.2821(5) 0.2265(5) 0.16506(15)
H16 H 0.3032 0.2633 0.1970
C16 C 0.3941(5) 0.2281(5) 0.13314(16)
C17 C 0.3681(5) 0.1750(5) 0.08575(15)
H17 H 0.4466 0.1766 0.0648
C18 C 0.2215(5) 0.1190(4) 0.07010(15)
H18 H 0.2019 0.0838 0.0379
C19 C -0.3979(4) 0.1102(5) -0.00906(14)
C20 C -0.6350(5) 0.0484(5) -0.06422(14)
H19 H -0.6970 -0.0362 -0.0728
H20 H -0.5972 0.0869 -0.0935
H21 H -0.6983 0.1195 -0.0502
C21 C 0.1111(5) -0.0897(5) 0.27031(15)
C22 C 0.6082(6) -0.1153(5) 0.19434(17)
F11 F -0.1535(3) 0.2803(3) 0.21204(10)
F12 F -0.1825(4) 0.4909(3) 0.18086(9)
F13 F 0.0348(3) 0.4337(4) 0.22321(9)
F14 F -0.6291(5) 0.3503(6) 0.3021(2)
F15 F -0.6564(6) 0.5751(6) 0.2874(3)
F16 F -0.6152(8) 0.5067(10) 0.3602(2)
F20 F -0.5053(3) 0.0706(3) 0.32789(10)
O3 O -0.0132(3) 0.5605(3) 0.43395(9)
O4 O 0.4205(3) 0.1316(3) 0.52392(10)
N3 N 0.2828(4) 0.3002(4) 0.47543(11)
N4 N 0.5021(4) 0.3663(4) 0.52766(11)
H22 H 0.4883 0.4530 0.5167
C23 C -0.1839(5) 0.4704(5) 0.26713(14)
C24 C -0.3397(5) 0.4544(5) 0.27117(14)
H23 H -0.4060 0.4162 0.2449
C25 C -0.4003(5) 0.4953(5) 0.31470(15)
C26 C -0.3006(5) 0.5580(4) 0.35398(14)
H24 H -0.3405 0.5861 0.3829
C27 C -0.1425(4) 0.5775(4) 0.34902(14)
C28 C -0.0845(5) 0.5320(4) 0.30588(14)
H25 H 0.0218 0.5427 0.3028
C29 C -0.0322(5) 0.6474(4) 0.38970(14)
H26 H 0.0705 0.6612 0.3779
C30 C -0.0947(5) 0.7952(5) 0.40536(15)
H27 H -0.0221 0.8361 0.4312
H28 H -0.1948 0.7821 0.4173
H29 H -0.1060 0.8590 0.3773
C31 C 0.0848(4) 0.4365(4) 0.43076(14)
H30 H 0.1070 0.4225 0.3965
C32 C 0.2369(4) 0.4496(4) 0.46493(14)
H31 H 0.3161 0.5000 0.4487
H32 H 0.2207 0.5006 0.4951
C33 C 0.1530(4) 0.2006(4) 0.46005(15)
H33 H 0.1382 0.1325 0.4863
H34 H 0.1720 0.1476 0.4305
C34 C 0.0101(4) 0.3005(5) 0.44956(14)
H35 H -0.0273 0.3239 0.4814
C35 C -0.1260(4) 0.2378(4) 0.41622(14)
C36 C -0.2753(5) 0.2352(5) 0.43197(14)
H36 H -0.2893 0.2724 0.4630
C37 C -0.4022(5) 0.1788(5) 0.40265(15)
H37 H -0.5006 0.1754 0.4139
C38 C -0.3809(5) 0.1281(5) 0.35690(16)
C39 C -0.2369(5) 0.1302(5) 0.33865(15)
H38 H -0.2260 0.0954 0.3071
C40 C -0.1092(5) 0.1857(5) 0.36878(15)
H39 H -0.0112 0.1883 0.3573
C41 C 0.4026(4) 0.2607(5) 0.50978(14)
C42 C 0.6324(5) 0.3346(5) 0.56541(14)
H40 H 0.6906 0.4214 0.5738
H41 H 0.7000 0.2643 0.5529
H42 H 0.5925 0.2972 0.5945
C43 C -0.1177(5) 0.4205(6) 0.22179(16)
C44 C -0.5710(5) 0.4825(5) 0.31831(16)
F4? F 0.6503(7) 0.0148(7) 0.2086(3)
F5? F 0.6796(7) -0.1710(8) 0.1604(2)
F6? F 0.6780(7) -0.1968(7) 0.2356(2)
F17? F -0.6442(8) 0.6109(8) 0.3147(4)
F18? F -0.6449(10) 0.4004(12) 0.2847(4)
F19? F -0.5993(7) 0.4440(8) 0.3661(2)
loop_
_geom_bond_atom_site_label_1
_geom_bond_atom_site_label_2
_geom_bond_site_symmetry_1
_geom_bond_site_symmetry_2
F1 C21 1_555 1_555
F2 C21 1_555 1_555
F3 C21 1_555 1_555
F7 C22 1_555 1_555
F8 C22 1_555 1_555
F9 C22 1_555 1_555
F10 C16 1_555 1_555
O1 C7 1_555 1_555
O2 C19 1_555 1_555
N1 C10 1_555 1_555
N2 H1 1_555 1_555
C1 C2 1_555 1_555
C2 H2 1_555 1_555
C3 C2 1_555 1_555
C4 C3 1_555 1_555
H3 C4 1_555 1_555
C5 C4 1_555 1_555
C6 C1 1_555 1_555
H4 C6 1_555 1_555
C7 C5 1_555 1_555
H5 C7 1_555 1_555
C8 C7 1_555 1_555
H6 C8 1_555 1_555
H7 C8 1_555 1_555
H8 C8 1_555 1_555
C9 O1 1_555 1_555
H9 C9 1_555 1_555
C10 C9 1_555 1_555
H10 C10 1_555 1_555
H11 C10 1_555 1_555
C11 N1 1_555 1_555
H12 C11 1_555 1_555
H13 C11 1_555 1_555
C12 C9 1_555 1_555
H14 C12 1_555 1_555
C13 C12 1_555 1_555
C14 C13 1_555 1_555
H15 C14 1_555 1_555
C15 C14 1_555 1_555
H16 C15 1_555 1_555
C16 C15 1_555 1_555
C17 C16 1_555 1_555
H17 C17 1_555 1_555
C18 C13 1_555 1_555
H18 C18 1_555 1_555
C19 N1 1_555 1_555
C20 N2 1_555 1_555
H19 C20 1_555 1_555
H20 C20 1_555 1_555
H21 C20 1_555 1_555
C21 C1 1_555 1_555
C22 C3 1_555 1_555
F11 C43 1_555 1_555
F12 C43 1_555 1_555
F13 C43 1_555 1_555
F14 C44 1_555 1_555
F15 C44 1_555 1_555
F16 C44 1_555 1_555
F20 C38 1_555 1_555
O3 C29 1_555 1_555
O4 C41 1_555 1_555
N3 C32 1_555 1_555
N4 H22 1_555 1_555
C23 C24 1_555 1_555
C24 H23 1_555 1_555
C25 C24 1_555 1_555
C26 C25 1_555 1_555
H24 C26 1_555 1_555
C27 C26 1_555 1_555
C28 C23 1_555 1_555
H25 C28 1_555 1_555
C29 C27 1_555 1_555
H26 C29 1_555 1_555
C30 C29 1_555 1_555
H27 C30 1_555 1_555
H28 C30 1_555 1_555
H29 C30 1_555 1_555
C31 O3 1_555 1_555
H30 C31 1_555 1_555
C32 C31 1_555 1_555
H31 C32 1_555 1_555
H32 C32 1_555 1_555
C33 N3 1_555 1_555
H33 C33 1_555 1_555
H34 C33 1_555 1_555
C34 C31 1_555 1_555
H35 C34 1_555 1_555
C35 C34 1_555 1_555
C36 C35 1_555 1_555
H36 C36 1_555 1_555
C37 C36 1_555 1_555
H37 C37 1_555 1_555
C38 C37 1_555 1_555
C39 C38 1_555 1_555
H38 C39 1_555 1_555
C40 C35 1_555 1_555
H39 C40 1_555 1_555
C41 N3 1_555 1_555
C42 N4 1_555 1_555
H40 C42 1_555 1_555
H41 C42 1_555 1_555
H42 C42 1_555 1_555
C43 C23 1_555 1_555
C44 C25 1_555 1_555
N2 C19 1_555 1_555
C5 C6 1_555 1_555
C11 C12 1_555 1_555
C17 C18 1_555 1_555
N4 C41 1_555 1_555
C27 C28 1_555 1_555
C33 C34 1_555 1_555
C39 C40 1_555 1_555

#END
