
#######################################################################
#
#                 Cambridge Crystallographic Data Centre
#                                CCDC 
#
#######################################################################
#
# If this CIF has been generated from an entry in the Cambridge 
# Structural Database, then it will include bibliographic, chemical, 
# crystal, experimental, refinement or atomic coordinate data resulting 
# from the CCDC's data processing and validation procedures.
#
#######################################################################

data_SIJLUV
_chemical_formula_moiety         'C17 H17 N1,C1 H1 Cl3'
_chemical_name_systematic        
'2,2-dimethyl-4-[(naphthalen-2-yl)methylidene]-3,4-dihydro-2H-pyrrole chloroform solvate'
_symmetry_cell_setting           orthorhombic
_symmetry_space_group_name_H-M   'F d d 2'
_symmetry_Int_Tables_number      43
_space_group_name_Hall           'F 2 -2d'
loop_
_symmetry_equiv_pos_site_id
_symmetry_equiv_pos_as_xyz
1 x,y,z
2 -x,-y,z
3 1/4+x,1/4-y,1/4+z
4 1/4-x,1/4+y,1/4+z
5 x,1/2+y,1/2+z
6 -x,1/2-y,1/2+z
7 1/4+x,3/4-y,3/4+z
8 1/4-x,3/4+y,3/4+z
9 1/2+x,y,1/2+z
10 1/2-x,-y,1/2+z
11 3/4+x,1/4-y,3/4+z
12 3/4-x,1/4+y,3/4+z
13 1/2+x,1/2+y,z
14 1/2-x,1/2-y,z
15 3/4+x,3/4-y,1/4+z
16 3/4-x,3/4+y,1/4+z
_cell_length_a                   31.773(6)
_cell_length_b                   36.815(7)
_cell_length_c                   5.9489(12)
_cell_angle_alpha                90
_cell_angle_beta                 90
_cell_angle_gamma                90
_cell_volume                     6958.57
_exptl_crystal_colour            colorless
_exptl_crystal_description       rod
_cell_formula_units_Z            16
loop_
_atom_site_label
_atom_site_type_symbol
_atom_site_fract_x
_atom_site_fract_y
_atom_site_fract_z
Cl1 Cl 0.01103(3) 0.07733(3) 0.12224(15)
Cl2 Cl 0.00595(3) 0.12707(2) -0.25352(17)
Cl3 Cl 0.00177(3) 0.04968(2) -0.33025(18)
C1 C 0.02419(11) 0.08456(9) -0.1617(6)
H1 H 0.0555 0.0838 -0.1778
C2 C 0.27685(10) -0.04401(8) 0.2874(5)
H2 H 0.2819 -0.0293 0.4159
C3 C 0.30978(9) -0.06448(8) 0.2194(5)
C4 C 0.13103(10) -0.00044(8) 0.3608(6)
H3 H 0.1381 0.0097 0.5026
C5 C 0.09072(11) 0.00304(9) 0.2806(7)
H4 H 0.0701 0.0154 0.3671
C6 C 0.08008(11) -0.01167(9) 0.0707(6)
H5 H 0.0522 -0.0089 0.0152
C7 C 0.10935(10) -0.02993(9) -0.0554(6)
H6 H 0.1015 -0.0399 -0.1966
C8 C 0.15120(10) -0.03405(8) 0.0230(6)
C9 C 0.18295(10) -0.05251(8) -0.1016(6)
H7 H 0.1762 -0.0626 -0.2441
C10 C 0.22277(10) -0.05602(9) -0.0204(6)
H8 H 0.2432 -0.0686 -0.1069
C11 C 0.23448(9) -0.04112(8) 0.1920(6)
C12 C 0.20426(10) -0.02266(8) 0.3134(5)
H9 H 0.2118 -0.0121 0.4535
C13 C 0.16223(9) -0.01900(8) 0.2350(6)
C14 C 0.35063(10) -0.06414(8) 0.3322(6)
H10 H 0.3566 -0.0481 0.4534
N1 N 0.37778(9) -0.08659(8) 0.2585(5)
C15 C 0.35823(10) -0.10923(9) 0.0778(6)
C16 C 0.31511(10) -0.09101(8) 0.0287(6)
H11 H 0.3155 -0.0783 -0.1180
H12 H 0.2922 -0.1092 0.0280
C17 C 0.35295(11) -0.14740(9) 0.1739(7)
H13 H 0.3806 -0.1572 0.2143
H14 H 0.3398 -0.1631 0.0609
H15 H 0.3351 -0.1464 0.3080
C18 C 0.38712(11) -0.10994(11) -0.1256(6)
H16 H 0.3921 -0.0851 -0.1778
H17 H 0.3739 -0.1241 -0.2461
H18 H 0.4140 -0.1211 -0.0841
loop_
_geom_bond_atom_site_label_1
_geom_bond_atom_site_label_2
_geom_bond_site_symmetry_1
_geom_bond_site_symmetry_2
Cl1 C1 1_555 1_555
Cl2 C1 1_555 1_555
Cl3 C1 1_555 1_555
C1 H1 1_555 1_555
C2 H2 1_555 1_555
C3 C2 1_555 1_555
C4 H3 1_555 1_555
C5 C4 1_555 1_555
H4 C5 1_555 1_555
C6 C5 1_555 1_555
H5 C6 1_555 1_555
C7 C6 1_555 1_555
H6 C7 1_555 1_555
C8 C7 1_555 1_555
C9 C8 1_555 1_555
H7 C9 1_555 1_555
C10 C9 1_555 1_555
H8 C10 1_555 1_555
C11 C2 1_555 1_555
C12 C11 1_555 1_555
H9 C12 1_555 1_555
C13 C4 1_555 1_555
C14 C3 1_555 1_555
H10 C14 1_555 1_555
N1 C14 1_555 1_555
C15 N1 1_555 1_555
C16 C3 1_555 1_555
H11 C16 1_555 1_555
H12 C16 1_555 1_555
C17 C15 1_555 1_555
H13 C17 1_555 1_555
H14 C17 1_555 1_555
H15 C17 1_555 1_555
C18 C15 1_555 1_555
H16 C18 1_555 1_555
H17 C18 1_555 1_555
H18 C18 1_555 1_555
C8 C13 1_555 1_555
C10 C11 1_555 1_555
C12 C13 1_555 1_555
C15 C16 1_555 1_555

#END
