
#######################################################################
#
#                 Cambridge Crystallographic Data Centre
#                                CCDC 
#
#######################################################################
#
# If this CIF has been generated from an entry in the Cambridge 
# Structural Database, then it will include bibliographic, chemical, 
# crystal, experimental, refinement or atomic coordinate data resulting 
# from the CCDC's data processing and validation procedures.
#
#######################################################################

data_SIJMUV
_chemical_formula_moiety         'C26 H41 N1 O5 Si1'
_chemical_name_systematic        
4-Benzyl-3-(5-((t-butyl(dimethyl)silyl)oxy)-3-methoxy-2-methyloct-7-enoyl)-1,3-oxazolidin-2-one
_symmetry_cell_setting           monoclinic
_symmetry_space_group_name_H-M   'P 21'
_symmetry_Int_Tables_number      4
_space_group_name_Hall           'P 2yb'
loop_
_symmetry_equiv_pos_site_id
_symmetry_equiv_pos_as_xyz
1 x,y,z
2 -x,1/2+y,-z
_cell_length_a                   8.6842(5)
_cell_length_b                   8.7472(6)
_cell_length_c                   18.5924(13)
_cell_angle_alpha                90
_cell_angle_beta                 93.142(6)
_cell_angle_gamma                90
_cell_volume                     1410.2
_exptl_crystal_colour            colorless
_exptl_crystal_description       Prism
_cell_formula_units_Z            2
_exptl_crystal_recrystallization_method acetonitrile
loop_
_atom_site_label
_atom_site_type_symbol
_atom_site_fract_x
_atom_site_fract_y
_atom_site_fract_z
Si1 Si -0.3769(3) -0.0650(3) -0.13427(11)
O1 O -0.7373(5) 0.3760(6) -0.2521(2)
O2 O -0.5582(4) 0.3697(6) -0.4575(2)
N1 N -0.7223(5) 0.3055(7) -0.3728(3)
O3 O -0.3123(5) 0.1829(6) -0.3531(2)
O4 O -0.9174(5) 0.2306(6) -0.3092(2)
C1 C -0.5837(7) 0.3667(8) -0.3935(3)
C2 C -1.0237(7) 0.3046(7) -0.5308(3)
O5 O -0.3503(6) 0.1100(7) -0.1619(3)
C3 C -0.8353(6) 0.2383(7) -0.4268(3)
H1 H -0.7841 0.1708 -0.4601
C4 C -0.7851(6) 0.3104(8) -0.3057(3)
C5 C -0.4655(6) 0.4143(8) -0.3348(3)
H2 H -0.5188 0.4686 -0.2974
C6 C -0.3893(7) 0.2692(8) -0.3009(3)
H3 H -0.4702 0.2052 -0.2818
C7 C -0.9573(7) 0.2611(7) -0.5940(3)
H4 H -0.8509 0.2672 -0.5968
C8 C -1.1826(7) 0.2949(8) -0.5276(4)
H5 H -1.2289 0.3227 -0.4856
C9 C -0.9248(7) 0.3660(8) -0.4677(3)
H6 H -0.9900 0.4184 -0.4349
H7 H -0.8523 0.4398 -0.4851
C10 C -0.3465(7) 0.5227(9) -0.3651(4)
H8 H -0.2745 0.4648 -0.3915
H9 H -0.2923 0.5755 -0.3262
H10 H -0.3981 0.5955 -0.3966
C11 C -0.2740(7) 0.3099(9) -0.2397(3)
H11 H -0.1852 0.3586 -0.2594
H12 H -0.3207 0.3829 -0.2083
C12 C -1.0468(9) 0.2091(8) -0.6528(4)
H13 H -1.0009 0.1792 -0.6946
C13 C -1.2075(8) 0.2018(9) -0.6489(4)
H14 H -1.2690 0.1686 -0.6884
C14 C -0.9325(7) 0.1471(8) -0.3763(4)
H15 H -1.0393 0.1429 -0.3943
H16 H -0.8935 0.0437 -0.3703
C15 C -1.2730(8) 0.2439(9) -0.5866(4)
H17 H -1.3795 0.2384 -0.5838
C16 C -0.3960(9) 0.0559(9) -0.3824(4)
H18 H -0.3403 0.0112 -0.4204
H19 H -0.4953 0.0894 -0.4014
H20 H -0.4089 -0.0187 -0.3454
C17 C -0.5933(11) -0.0816(12) -0.1258(5)
C18 C -0.2204(8) 0.1720(10) -0.1958(4)
H21 H -0.1828 0.0949 -0.2289
C19 C -0.0868(9) 0.2147(13) -0.1413(4)
H22 H -0.0563 0.1246 -0.1137
H23 H 0.0010 0.2472 -0.1675
C20 C -0.6775(13) -0.0371(15) -0.1974(5)
H24 H -0.6595 0.0690 -0.2071
H25 H -0.7861 -0.0543 -0.1944
H26 H -0.6396 -0.0982 -0.2355
C21 C -0.2746(13) -0.0983(15) -0.0450(5)
H27 H -0.1668 -0.1145 -0.0513
H28 H -0.3170 -0.1868 -0.0228
H29 H -0.2872 -0.0108 -0.0147
C22 C -0.1269(10) 0.3368(15) -0.0915(4)
H30 H -0.2101 0.3223 -0.0628
C23 C -0.0475(15) 0.4693(18) -0.0857(7)
H31 H -0.078(15) 0.55(2) -0.044(7)
H32 H 0.030(16) 0.48(2) -0.124(7)
C24 C -0.6445(13) 0.0264(17) -0.0683(6)
H33 H -0.5993 -0.0043 -0.0223
H34 H -0.7548 0.0238 -0.0672
H35 H -0.6118 0.1284 -0.0790
C25 C -0.3069(18) -0.2036(14) -0.2006(6)
H36 H -0.3588 -0.1858 -0.2467
H37 H -0.3279 -0.3057 -0.1850
H38 H -0.1978 -0.1910 -0.2043
C26 C -0.6360(16) -0.2452(16) -0.1072(8)
H39 H -0.5964 -0.3136 -0.1421
H40 H -0.7461 -0.2546 -0.1077
H41 H -0.5922 -0.2704 -0.0602
loop_
_geom_bond_atom_site_label_1
_geom_bond_atom_site_label_2
_geom_bond_site_symmetry_1
_geom_bond_site_symmetry_2
Si1 O5 1_555 1_555
O1 C4 1_555 1_555
O2 C1 1_555 1_555
N1 C1 1_555 1_555
O3 C6 1_555 1_555
O4 C4 1_555 1_555
C1 C5 1_555 1_555
C2 C7 1_555 1_555
O5 C18 1_555 1_555
C3 N1 1_555 1_555
H1 C3 1_555 1_555
C4 N1 1_555 1_555
C5 H2 1_555 1_555
C6 C5 1_555 1_555
H3 C6 1_555 1_555
C7 H4 1_555 1_555
C8 C2 1_555 1_555
H5 C8 1_555 1_555
C9 C2 1_555 1_555
H6 C9 1_555 1_555
H7 C9 1_555 1_555
C10 C5 1_555 1_555
H8 C10 1_555 1_555
H9 C10 1_555 1_555
H10 C10 1_555 1_555
C11 C6 1_555 1_555
H11 C11 1_555 1_555
H12 C11 1_555 1_555
C12 C7 1_555 1_555
H13 C12 1_555 1_555
C13 C12 1_555 1_555
H14 C13 1_555 1_555
C14 O4 1_555 1_555
H15 C14 1_555 1_555
H16 C14 1_555 1_555
C15 C8 1_555 1_555
H17 C15 1_555 1_555
C16 O3 1_555 1_555
H18 C16 1_555 1_555
H19 C16 1_555 1_555
H20 C16 1_555 1_555
C17 Si1 1_555 1_555
C18 C11 1_555 1_555
H21 C18 1_555 1_555
C19 C18 1_555 1_555
H22 C19 1_555 1_555
H23 C19 1_555 1_555
C20 C17 1_555 1_555
H24 C20 1_555 1_555
H25 C20 1_555 1_555
H26 C20 1_555 1_555
C21 Si1 1_555 1_555
H27 C21 1_555 1_555
H28 C21 1_555 1_555
H29 C21 1_555 1_555
C22 C19 1_555 1_555
H30 C22 1_555 1_555
C23 C22 1_555 1_555
H31 C23 1_555 1_555
H32 C23 1_555 1_555
C24 C17 1_555 1_555
H33 C24 1_555 1_555
H34 C24 1_555 1_555
H35 C24 1_555 1_555
C25 Si1 1_555 1_555
H36 C25 1_555 1_555
H37 C25 1_555 1_555
H38 C25 1_555 1_555
C26 C17 1_555 1_555
H39 C26 1_555 1_555
H40 C26 1_555 1_555
H41 C26 1_555 1_555
C3 C9 1_555 1_555
C3 C14 1_555 1_555
C13 C15 1_555 1_555

#END
