
#######################################################################
#
#                 Cambridge Crystallographic Data Centre
#                                CCDC 
#
#######################################################################
#
# If this CIF has been generated from an entry in the Cambridge 
# Structural Database, then it will include bibliographic, chemical, 
# crystal, experimental, refinement or atomic coordinate data resulting 
# from the CCDC's data processing and validation procedures.
#
#######################################################################

data_SIJPEH
_chemical_formula_moiety         'C21 H15 N1 O3 S1,0.5(C1 H2 Cl2)'
_chemical_name_systematic        
'11-Hydroxy-9-phenyl-10a,11-dihydro-7aH-7-thia-9-aza-cyclopenta[b]phenanthrene-8,10-dione dichloromethane solvate'
_symmetry_cell_setting           monoclinic
_symmetry_space_group_name_H-M   'C 2'
_symmetry_Int_Tables_number      5
_space_group_name_Hall           'C 2y'
loop_
_symmetry_equiv_pos_site_id
_symmetry_equiv_pos_as_xyz
1 x,y,z
2 -x,y,-z
3 1/2+x,1/2+y,z
4 1/2-x,1/2+y,-z
_cell_length_a                   21.7228(10)
_cell_length_b                   6.8583(3)
_cell_length_c                   25.9808(13)
_cell_angle_alpha                90
_cell_angle_beta                 104.546(3)
_cell_angle_gamma                90
_cell_volume                     3746.59
_exptl_crystal_colour            colorless
_cell_formula_units_Z            8
loop_
_atom_site_label
_atom_site_type_symbol
_atom_site_fract_x
_atom_site_fract_y
_atom_site_fract_z
S1 S 0.41664(3) 0.51344(12) 0.48787(3)
O1 O 0.42581(11) 0.9401(4) 0.45043(10)
H1 H 0.4478 0.8559 0.4696
O2 O 0.22790(10) 0.8272(3) 0.37272(9)
O3 O 0.28225(10) 0.3300(4) 0.49126(10)
N1 N 0.24270(9) 0.5538(3) 0.42563(8)
C1 C 0.41391(11) 0.5138(4) 0.41915(10)
C2 C 0.43764(15) 0.3474(5) 0.39822(15)
H2 H 0.4522 0.2394 0.4202
C3 C 0.43931(16) 0.3443(5) 0.34660(15)
H3 H 0.4557 0.2342 0.3330
C4 C 0.41686(13) 0.5039(5) 0.31267(12)
C5 C 0.41886(17) 0.5009(7) 0.25824(14)
H4 H 0.4344 0.3897 0.2445
C6 C 0.39903(19) 0.6531(9) 0.22642(15)
H5 H 0.4010 0.6485 0.1907
C7 C 0.37499(18) 0.8213(8) 0.24614(14)
H6 H 0.3608 0.9275 0.2234
C8 C 0.37230(16) 0.8303(6) 0.29831(13)
H7 H 0.3567 0.9435 0.3110
C9 C 0.39267(12) 0.6720(5) 0.33306(11)
C10 C 0.39231(11) 0.6732(4) 0.38811(10)
C11 C 0.37199(13) 0.8487(4) 0.41492(11)
H8 H 0.3525 0.9443 0.3870
C12 C 0.32264(12) 0.7967(4) 0.44587(10)
H9 H 0.3153 0.9138 0.4658
C13 C 0.25951(12) 0.7361(4) 0.40908(10)
C14 C 0.18252(11) 0.4601(4) 0.40650(9)
C15 C 0.12874(12) 0.5440(4) 0.41664(11)
H10 H 0.1309 0.6666 0.4332
C16 C 0.07169(13) 0.4437(6) 0.40194(15)
H11 H 0.0348 0.4988 0.4086
C17 C 0.06840(16) 0.2642(6) 0.37772(14)
H12 H 0.0293 0.1978 0.3678
C18 C 0.12243(16) 0.1808(5) 0.36786(12)
H13 H 0.1201 0.0578 0.3515
C19 C 0.18009(14) 0.2797(4) 0.38226(11)
H14 H 0.2170 0.2246 0.3756
C20 C 0.28739(11) 0.4817(4) 0.46956(9)
C21 C 0.34087(11) 0.6281(4) 0.48524(10)
H15 H 0.3417 0.6775 0.5212
S2 S 0.42676(3) 0.43953(15) 0.01340(3)
O4 O 0.45767(12) -0.0023(4) 0.04461(10)
H16 H 0.4679 0.0841 0.0260
O5 O 0.31516(12) 0.1302(4) 0.13000(10)
O6 O 0.28563(12) 0.6034(5) 0.00366(11)
N2 N 0.29180(10) 0.3925(3) 0.07302(9)
C22 C 0.46620(12) 0.4225(5) 0.08164(11)
C23 C 0.50294(15) 0.5849(5) 0.10543(16)
H17 H 0.5034 0.6999 0.0859
C24 C 0.53757(16) 0.5723(5) 0.15701(15)
H18 H 0.5632 0.6780 0.1724
C25 C 0.53566(14) 0.4039(5) 0.18754(12)
C26 C 0.57204(17) 0.3874(7) 0.24150(14)
H19 H 0.5970 0.4936 0.2574
C27 C 0.5716(2) 0.2252(9) 0.27011(16)
H20 H 0.5961 0.2185 0.3055
C28 C 0.5348(2) 0.0671(7) 0.24741(14)
H21 H 0.5347 -0.0463 0.2677
C29 C 0.49885(17) 0.0733(5) 0.19614(13)
H22 H 0.4742 -0.0355 0.1818
C30 C 0.49820(12) 0.2419(4) 0.16420(11)
C31 C 0.46366(12) 0.2539(4) 0.10970(11)
C32 C 0.42577(13) 0.0846(5) 0.08109(11)
H23 H 0.4224 -0.0148 0.1079
C33 C 0.35841(13) 0.1476(5) 0.05201(11)
H24 H 0.3365 0.0332 0.0324
C34 C 0.32070(12) 0.2138(4) 0.09061(11)
C35 C 0.24473(12) 0.4873(4) 0.09379(10)
C36 C 0.25737(15) 0.6693(5) 0.11656(12)
H25 H 0.2976 0.7268 0.1203
C37 C 0.2104(2) 0.7669(6) 0.13386(14)
H26 H 0.2185 0.8907 0.1496
C38 C 0.1514(2) 0.6798(7) 0.12762(17)
H27 H 0.1197 0.7449 0.1398
C39 C 0.13857(17) 0.5021(7) 0.10421(17)
H28 H 0.0979 0.4471 0.0995
C40 C 0.18574(15) 0.4010(5) 0.08719(14)
H29 H 0.1775 0.2769 0.0716
C41 C 0.30666(12) 0.4565(5) 0.02716(10)
C42 C 0.35287(13) 0.3153(5) 0.01290(11)
H30 H 0.3342 0.2652 -0.0234
C43 C 0.2514(3) 0.3557(11) 0.2374(2)
H31 H 0.2978 0.3583 0.2433
H32 H 0.2328 0.3837 0.1997
Cl1 Cl 0.22948(11) 0.5347(3) 0.27451(7)
Cl2 Cl 0.22833(11) 0.1216(3) 0.25150(8)
loop_
_geom_bond_atom_site_label_1
_geom_bond_atom_site_label_2
_geom_bond_site_symmetry_1
_geom_bond_site_symmetry_2
S1 C1 1_555 1_555
O1 H1 1_555 1_555
O2 C13 1_555 1_555
O3 C20 1_555 1_555
N1 C13 1_555 1_555
C1 C2 1_555 1_555
C2 H2 1_555 1_555
C3 C2 1_555 1_555
H3 C3 1_555 1_555
C4 C3 1_555 1_555
C5 C4 1_555 1_555
H4 C5 1_555 1_555
C6 C5 1_555 1_555
H5 C6 1_555 1_555
C7 C6 1_555 1_555
H6 C7 1_555 1_555
C8 C7 1_555 1_555
H7 C8 1_555 1_555
C9 C4 1_555 1_555
C10 C1 1_555 1_555
C11 O1 1_555 1_555
H8 C11 1_555 1_555
C12 C11 1_555 1_555
H9 C12 1_555 1_555
C13 C12 1_555 1_555
C14 N1 1_555 1_555
C15 C14 1_555 1_555
H10 C15 1_555 1_555
C16 C15 1_555 1_555
H11 C16 1_555 1_555
C17 C16 1_555 1_555
H12 C17 1_555 1_555
C18 C17 1_555 1_555
H13 C18 1_555 1_555
C19 C14 1_555 1_555
H14 C19 1_555 1_555
C20 N1 1_555 1_555
C21 S1 1_555 1_555
H15 C21 1_555 1_555
S2 C22 1_555 1_555
O4 H16 1_555 1_555
O5 C34 1_555 1_555
O6 C41 1_555 1_555
N2 C34 1_555 1_555
C22 C23 1_555 1_555
C23 H17 1_555 1_555
C24 C23 1_555 1_555
H18 C24 1_555 1_555
C25 C24 1_555 1_555
C26 C25 1_555 1_555
H19 C26 1_555 1_555
C27 C26 1_555 1_555
H20 C27 1_555 1_555
C28 C27 1_555 1_555
H21 C28 1_555 1_555
C29 C28 1_555 1_555
H22 C29 1_555 1_555
C30 C25 1_555 1_555
C31 C22 1_555 1_555
C32 O4 1_555 1_555
H23 C32 1_555 1_555
C33 C32 1_555 1_555
H24 C33 1_555 1_555
C34 C33 1_555 1_555
C35 N2 1_555 1_555
C36 C35 1_555 1_555
H25 C36 1_555 1_555
C37 C36 1_555 1_555
H26 C37 1_555 1_555
C38 C37 1_555 1_555
H27 C38 1_555 1_555
C39 C38 1_555 1_555
H28 C39 1_555 1_555
C40 C35 1_555 1_555
H29 C40 1_555 1_555
C41 N2 1_555 1_555
C42 S2 1_555 1_555
H30 C42 1_555 1_555
C43 H31 1_555 1_555
H32 C43 1_555 1_555
Cl1 C43 1_555 1_555
Cl2 C43 1_555 1_555
C8 C9 1_555 1_555
C9 C10 1_555 1_555
C10 C11 1_555 1_555
C12 C21 1_555 1_555
C18 C19 1_555 1_555
C20 C21 1_555 1_555
C29 C30 1_555 1_555
C30 C31 1_555 1_555
C31 C32 1_555 1_555
C33 C42 1_555 1_555
C39 C40 1_555 1_555
C41 C42 1_555 1_555

#END
