
#######################################################################
#
#                 Cambridge Crystallographic Data Centre
#                                CCDC 
#
#######################################################################
#
# If this CIF has been generated from an entry in the Cambridge 
# Structural Database, then it will include bibliographic, chemical, 
# crystal, experimental, refinement or atomic coordinate data resulting 
# from the CCDC's data processing and validation procedures.
#
#######################################################################

data_SIJWIT
_chemical_formula_moiety         'C29 H25 N3 O4 S1'
_chemical_name_systematic        
"Ethyl 1-benzyl-1''-methyl-2,2''-dioxo-5'-thioxo-1,1'',2,2''-tetrahydrodispiro[indole-3,2'-pyrrolidine-4',3''-indole]-3'-carboxylate"
_symmetry_cell_setting           monoclinic
_symmetry_space_group_name_H-M   'P 21'
_symmetry_Int_Tables_number      4
_space_group_name_Hall           'P 2yb'
loop_
_symmetry_equiv_pos_site_id
_symmetry_equiv_pos_as_xyz
1 x,y,z
2 -x,1/2+y,-z
_cell_length_a                   9.1180(12)
_cell_length_b                   11.0735(16)
_cell_length_c                   13.0418(18)
_cell_angle_alpha                90
_cell_angle_beta                 101.398(4)
_cell_angle_gamma                90
_cell_volume                     1290.84
_exptl_crystal_colour            colorless
_exptl_crystal_description       Prism
_cell_formula_units_Z            2
_exptl_crystal_recrystallization_method dichloromethane/methanol
loop_
_atom_site_label
_atom_site_type_symbol
_atom_site_fract_x
_atom_site_fract_y
_atom_site_fract_z
S1 S 0.15922(6) 0.18048(4) 0.39297(4)
O1 O -0.09330(16) 0.02421(13) 0.69062(12)
O2 O 0.02208(14) 0.35382(12) 0.58749(11)
O3 O 0.3314(3) 0.08383(17) 0.87219(14)
N1 N 0.07197(19) -0.11793(15) 0.77434(12)
N2 N 0.13514(18) 0.03477(14) 0.55111(12)
N3 N 0.25763(17) 0.43088(14) 0.59005(12)
C1 C 0.2770(2) -0.08312(17) 0.70108(15)
C2 C 0.4131(2) -0.11265(18) 0.67608(16)
H1 H 0.4511 -0.0670 0.6254
C3 C 0.4933(3) -0.20950(19) 0.72572(17)
H2 H 0.5876 -0.2297 0.7099
C4 C 0.4365(3) -0.2769(2) 0.79814(17)
H3 H 0.4947 -0.3410 0.8337
C5 C 0.2961(3) -0.25310(19) 0.82008(17)
H4 H 0.2558 -0.3015 0.8679
C6 C 0.2178(2) -0.15662(18) 0.76970(15)
C7 C 0.0281(2) -0.02391(17) 0.70802(15)
C8 C 0.1667(2) 0.01727(17) 0.66417(14)
C9 C -0.0370(14) -0.1642(13) 0.8335(6)
H5 H -0.0313 -0.2535 0.8347
H6 H -0.1386 -0.1415 0.7962
C10 C -0.0146(3) -0.1175(3) 0.94799(18)
C11 C 0.1226(3) -0.0774(4) 1.0039(2)
H7 H 0.2071 -0.0751 0.9715
C12 C 0.1361(3) -0.0408(4) 1.1073(2)
H8 H 0.2298 -0.0135 1.1455
C13 C 0.0124(4) -0.0443(4) 1.15478(18)
H9 H 0.0216 -0.0193 1.2254
C14 C -0.1248(3) -0.0843(3) 1.0989(2)
H10 H -0.2093 -0.0867 1.1313
C15 C -0.1383(3) -0.1209(3) 0.9955(2)
H11 H -0.2320 -0.1483 0.9572
C16 C 0.2027(2) 0.14938(16) 0.70328(14)
H12 H 0.1054 0.1839 0.7136
C17 C 0.2426(2) 0.21954(16) 0.60954(15)
C18 C 0.1766(2) 0.13926(16) 0.51643(15)
C19 C 0.3085(3) 0.1608(2) 0.80891(17)
O4 O 0.3925(5) 0.2618(3) 0.8194(3)
C20 C 0.5084(6) 0.2740(4) 0.9149(3)
H13 H 0.5876 0.2126 0.9158
H14 H 0.4642 0.2626 0.9777
C21 C 0.5723(6) 0.3982(5) 0.9140(4)
H15 H 0.6593 0.4060 0.9713
H16 H 0.4964 0.4578 0.9231
H17 H 0.6031 0.4122 0.8472
C22 C 0.4020(2) 0.25935(17) 0.61222(15)
C23 C 0.5357(2) 0.19630(18) 0.62763(18)
H18 H 0.5370 0.1111 0.6363
C24 C 0.6687(2) 0.2598(2) 0.6303(2)
H19 H 0.7611 0.2175 0.6409
C25 C 0.6671(2) 0.38330(19) 0.61767(17)
H20 H 0.7588 0.4249 0.6198
C26 C 0.5343(2) 0.44823(19) 0.60183(15)
H21 H 0.5331 0.5333 0.5926
C27 C 0.4035(2) 0.38373(17) 0.60006(14)
C28 C 0.1575(2) 0.34201(16) 0.59461(15)
C29 C 0.2186(2) 0.55778(17) 0.57543(17)
H22 H 0.1107 0.5677 0.5707
H23 H 0.2461 0.5869 0.5108
H24 H 0.2728 0.6044 0.6349
H25 H 0.090(3) -0.030(3) 0.502(2)
C30? C -0.0216(16) -0.1879(13) 0.8324(7)
H26? H -0.0044 -0.2750 0.8222
H27? H -0.1280 -0.1708 0.8026
C31? C 0.0067(4) -0.1624(3) 0.94561(17)
C32? C 0.0413(4) -0.2565(2) 1.0167(2)
H28? H 0.0521 -0.3363 0.9925
C33? C 0.0601(4) -0.2340(3) 1.1234(2)
H29? H 0.0838 -0.2984 1.1720
C34? C 0.0443(4) -0.1173(4) 1.15892(19)
H30? H 0.0572 -0.1019 1.2318
C35? C 0.0097(5) -0.0231(3) 1.0878(3)
H31? H -0.0011 0.0566 1.1121
C36? C -0.0091(5) -0.0457(3) 0.9811(3)
H32? H -0.0328 0.0187 0.9325
O5? O 0.3173(6) 0.2832(4) 0.8271(3)
C37? C 0.3991(7) 0.3094(5) 0.9342(4)
H33? H 0.4932 0.2624 0.9511
H34? H 0.3371 0.2911 0.9865
C38? C 0.4296(7) 0.4405(5) 0.9301(6)
H35? H 0.4802 0.4683 0.9995
H36? H 0.3350 0.4842 0.9088
H37? H 0.4938 0.4557 0.8795
loop_
_geom_bond_atom_site_label_1
_geom_bond_atom_site_label_2
_geom_bond_site_symmetry_1
_geom_bond_site_symmetry_2
S1 C18 1_555 1_555
O1 C7 1_555 1_555
O2 C28 1_555 1_555
O3 C19 1_555 1_555
N1 C6 1_555 1_555
N2 C8 1_555 1_555
N3 C27 1_555 1_555
C1 C2 1_555 1_555
C2 H1 1_555 1_555
C3 C2 1_555 1_555
H2 C3 1_555 1_555
C4 C3 1_555 1_555
H3 C4 1_555 1_555
C5 C4 1_555 1_555
H4 C5 1_555 1_555
C6 C1 1_555 1_555
C7 N1 1_555 1_555
C8 C1 1_555 1_555
C9 N1 1_555 1_555
H5 C9 1_555 1_555
H6 C9 1_555 1_555
C10 C9 1_555 1_555
C11 C10 1_555 1_555
H7 C11 1_555 1_555
C12 C11 1_555 1_555
H8 C12 1_555 1_555
C13 C12 1_555 1_555
H9 C13 1_555 1_555
C14 C13 1_555 1_555
H10 C14 1_555 1_555
C15 C10 1_555 1_555
H11 C15 1_555 1_555
C16 C8 1_555 1_555
H12 C16 1_555 1_555
C17 C16 1_555 1_555
C18 N2 1_555 1_555
C19 C16 1_555 1_555
O4 C19 1_555 1_555
C20 O4 1_555 1_555
H13 C20 1_555 1_555
H14 C20 1_555 1_555
C21 C20 1_555 1_555
H15 C21 1_555 1_555
H16 C21 1_555 1_555
H17 C21 1_555 1_555
C22 C17 1_555 1_555
C23 C22 1_555 1_555
H18 C23 1_555 1_555
C24 C23 1_555 1_555
H19 C24 1_555 1_555
C25 C24 1_555 1_555
H20 C25 1_555 1_555
C26 C25 1_555 1_555
H21 C26 1_555 1_555
C27 C22 1_555 1_555
C28 N3 1_555 1_555
C29 N3 1_555 1_555
H22 C29 1_555 1_555
H23 C29 1_555 1_555
H24 C29 1_555 1_555
H25 N2 1_555 1_555
C5 C6 1_555 1_555
C7 C8 1_555 1_555
C14 C15 1_555 1_555
C17 C18 1_555 1_555
C17 C28 1_555 1_555
C26 C27 1_555 1_555

#END
