
#######################################################################
#
#                 Cambridge Crystallographic Data Centre
#                                CCDC 
#
#######################################################################
#
# If this CIF has been generated from an entry in the Cambridge 
# Structural Database, then it will include bibliographic, chemical, 
# crystal, experimental, refinement or atomic coordinate data resulting 
# from the CCDC's data processing and validation procedures.
#
#######################################################################

data_SIJWUD
_chemical_formula_moiety         'C19 H33 B1 N2'
_chemical_name_systematic        
9-(3,5-Di-t-butylpyrazolyl)-9-borabicyclo(3.3.1)nonane
_symmetry_cell_setting           orthorhombic
_symmetry_space_group_name_H-M   'P b c a'
_symmetry_Int_Tables_number      61
_space_group_name_Hall           '-P 2ac 2ab'
loop_
_symmetry_equiv_pos_site_id
_symmetry_equiv_pos_as_xyz
1 x,y,z
2 1/2-x,-y,1/2+z
3 1/2+x,1/2-y,-z
4 -x,1/2+y,1/2-z
5 -x,-y,-z
6 1/2+x,y,1/2-z
7 1/2-x,1/2+y,z
8 x,1/2-y,1/2+z
_cell_length_a                   19.526(7)
_cell_length_b                   16.555(1)
_cell_length_c                   11.257(3)
_cell_angle_alpha                90
_cell_angle_beta                 90
_cell_angle_gamma                90
_cell_volume                     3638.86
_chemical_melting_point          89-90deg.C
_cell_formula_units_Z            8
loop_
_atom_site_label
_atom_site_type_symbol
_atom_site_fract_x
_atom_site_fract_y
_atom_site_fract_z
B1 B 0.17529(25) 0.60758(24) 0.20150(32)
N1 N 0.24508(17) 0.60703(15) 0.15769(21)
N2 N 0.26096(17) 0.67351(16) 0.08478(22)
C1 C 0.32433(21) 0.66453(19) 0.05143(28)
C2 C 0.35295(22) 0.59410(20) 0.10305(28)
H1 H 0.39911(22) 0.57522(20) 0.09347(28)
C3 C 0.30328(20) 0.55853(20) 0.16824(27)
C4 C 0.12922(20) 0.68453(20) 0.18340(31)
H2 H 0.15625(20) 0.73004(20) 0.15901(31)
C5 C 0.07767(22) 0.66191(22) 0.08417(32)
H3 H 0.10310(22) 0.65421(22) 0.01206(32)
H4 H 0.04695(22) 0.70673(22) 0.07484(32)
C6 C 0.03685(20) 0.58604(20) 0.10831(33)
H5 H 0.00125(20) 0.59545(20) 0.16546(33)
H6 H 0.01696(20) 0.56769(20) 0.03514(33)
C7 C 0.07968(22) 0.51467(21) 0.15242(32)
H7 H 0.05202(22) 0.46971(21) 0.17691(32)
H8 H 0.10891(22) 0.49840(21) 0.08817(32)
C8 C 0.13197(20) 0.53542(19) 0.25310(28)
H9 H 0.15710(20) 0.48701(19) 0.27049(28)
C9 C 0.09540(21) 0.56109(22) 0.36925(31)
H10 H 0.12737(21) 0.55641(22) 0.43368(31)
H11 H 0.05774(21) 0.52487(22) 0.38217(31)
C10 C 0.06912(38) 0.64372(27) 0.37450(45)
H12 H 0.02128(38) 0.63941(27) 0.35585(45)
H13 H 0.07191(38) 0.66106(27) 0.45574(45)
C11 C 0.09411(23) 0.70878(23) 0.30182(34)
H14 H 0.06764(23) 0.75736(23) 0.29412(34)
H15 H 0.13189(23) 0.71821(23) 0.35460(34)
C12 C 0.35895(19) 0.72670(20) -0.02754(27)
C13 C 0.40929(21) 0.68441(22) -0.11151(31)
H16 H 0.43096(21) 0.72482(22) -0.15975(31)
H17 H 0.38538(21) 0.64687(22) -0.16158(31)
H18 H 0.44341(21) 0.65616(22) -0.06631(31)
C14 C 0.39828(21) 0.78622(22) 0.05176(30)
H19 H 0.41957(21) 0.82614(22) 0.00215(30)
H20 H 0.43280(21) 0.75810(22) 0.09625(30)
H21 H 0.36711(21) 0.81218(22) 0.10553(30)
C15 C 0.30554(21) 0.77306(21) -0.09925(32)
H22 H 0.27875(21) 0.73630(21) -0.14603(32)
H23 H 0.32831(21) 0.81072(21) -0.15069(32)
H24 H 0.27610(21) 0.80189(21) -0.04569(32)
C16 C 0.30961(21) 0.48004(19) 0.23794(29)
C17 C 0.38488(21) 0.45368(22) 0.24151(33)
H25 H 0.41121(21) 0.49527(22) 0.27951(33)
H26 H 0.40299(21) 0.44370(22) 0.16359(33)
H27 H 0.38729(21) 0.40505(22) 0.28779(33)
C18 C 0.27016(21) 0.41221(20) 0.17520(30)
H28 H 0.22312(21) 0.42675(20) 0.16261(30)
H29 H 0.27237(21) 0.36410(20) 0.22266(30)
H30 H 0.29184(21) 0.40259(20) 0.09998(30)
C19 C 0.28659(20) 0.49156(21) 0.36861(29)
H31 H 0.24067(20) 0.51096(21) 0.37921(29)
H32 H 0.31826(20) 0.52959(21) 0.40220(29)
H33 H 0.29158(20) 0.44035(21) 0.40767(29)
loop_
_geom_bond_atom_site_label_1
_geom_bond_atom_site_label_2
_geom_bond_site_symmetry_1
_geom_bond_site_symmetry_2
B1 N1 1_555 1_555
N1 N2 1_555 1_555
N2 C1 1_555 1_555
C1 C2 1_555 1_555
C2 H1 1_555 1_555
C3 N1 1_555 1_555
C4 B1 1_555 1_555
H2 C4 1_555 1_555
C5 C4 1_555 1_555
H3 C5 1_555 1_555
H4 C5 1_555 1_555
C6 C5 1_555 1_555
H5 C6 1_555 1_555
H6 C6 1_555 1_555
C7 C6 1_555 1_555
H7 C7 1_555 1_555
H8 C7 1_555 1_555
C8 B1 1_555 1_555
H9 C8 1_555 1_555
C9 C8 1_555 1_555
H10 C9 1_555 1_555
H11 C9 1_555 1_555
C10 C9 1_555 1_555
H12 C10 1_555 1_555
H13 C10 1_555 1_555
C11 C4 1_555 1_555
H14 C11 1_555 1_555
H15 C11 1_555 1_555
C12 C1 1_555 1_555
C13 C12 1_555 1_555
H16 C13 1_555 1_555
H17 C13 1_555 1_555
H18 C13 1_555 1_555
C14 C12 1_555 1_555
H19 C14 1_555 1_555
H20 C14 1_555 1_555
H21 C14 1_555 1_555
C15 C12 1_555 1_555
H22 C15 1_555 1_555
H23 C15 1_555 1_555
H24 C15 1_555 1_555
C16 C3 1_555 1_555
C17 C16 1_555 1_555
H25 C17 1_555 1_555
H26 C17 1_555 1_555
H27 C17 1_555 1_555
C18 C16 1_555 1_555
H28 C18 1_555 1_555
H29 C18 1_555 1_555
H30 C18 1_555 1_555
C19 C16 1_555 1_555
H31 C19 1_555 1_555
H32 C19 1_555 1_555
H33 C19 1_555 1_555
C2 C3 1_555 1_555
C7 C8 1_555 1_555
C10 C11 1_555 1_555

#END
