
#######################################################################
#
#                 Cambridge Crystallographic Data Centre
#                                CCDC 
#
#######################################################################
#
# If this CIF has been generated from an entry in the Cambridge 
# Structural Database, then it will include bibliographic, chemical, 
# crystal, experimental, refinement or atomic coordinate data resulting 
# from the CCDC's data processing and validation procedures.
#
#######################################################################

data_SIJYUH
_chemical_formula_moiety         'C18 H16 Br1 N1 O4'
_chemical_name_systematic        
5-(4-Bromophenyl)-4,5,6,7-tetrahydro-3H-2,8,5-benzodioxazacycloundecine-1,9-dione
_symmetry_cell_setting           monoclinic
_symmetry_space_group_name_H-M   'P 21/c'
_symmetry_Int_Tables_number      14
_space_group_name_Hall           '-P 2ybc'
loop_
_symmetry_equiv_pos_site_id
_symmetry_equiv_pos_as_xyz
1 x,y,z
2 -x,1/2+y,1/2-z
3 -x,-y,-z
4 x,1/2-y,1/2+z
_cell_length_a                   21.197(4)
_cell_length_b                   4.8526(9)
_cell_length_c                   16.152(3)
_cell_angle_alpha                90
_cell_angle_beta                 99.692(3)
_cell_angle_gamma                90
_cell_volume                     1637.69
_cell_formula_units_Z            4
loop_
_atom_site_label
_atom_site_type_symbol
_atom_site_fract_x
_atom_site_fract_y
_atom_site_fract_z
Br1 Br 0.468720(14) 0.42001(7) -0.178265(19)
N1 N 0.30338(9) -0.2454(4) 0.02214(12)
O1 O 0.21790(9) -0.1993(5) 0.23703(13)
O2 O 0.24794(8) 0.0952(3) 0.14513(9)
O3 O 0.16517(8) -0.1759(4) 0.02063(10)
O4 O 0.10494(10) 0.1294(5) -0.05948(12)
C1 C 0.41796(12) 0.2098(6) -0.11523(16)
C2 C 0.36470(13) 0.0733(5) -0.15525(16)
H1 H 0.3541 0.0820 -0.2135
C3 C 0.32697(12) -0.0757(5) -0.11041(15)
H2 H 0.2906 -0.1634 -0.1387
C4 C 0.34200(11) -0.0986(5) -0.02303(15)
C5 C 0.39753(12) 0.0359(5) 0.01575(16)
H3 H 0.4100 0.0206 0.0736
C6 C 0.43406(12) 0.1898(6) -0.02944(16)
H4 H 0.4700 0.2815 -0.0018
C7 C 0.31978(12) -0.2721(5) 0.11264(14)
H5 H 0.3639 -0.3325 0.1264
H6 H 0.2932 -0.4152 0.1308
C8 C 0.31210(11) -0.0136(5) 0.16184(15)
H7 H 0.3234 -0.0534 0.2213
H8 H 0.3416 0.1253 0.1480
C9 C 0.20513(12) -0.0192(6) 0.18630(15)
C10 C 0.14129(12) 0.1145(5) 0.16681(15)
C11 C 0.11784(14) 0.2262(7) 0.23443(17)
H9 H 0.1415 0.2081 0.2881
C12 C 0.06041(16) 0.3632(7) 0.2239(2)
H10 H 0.0459 0.4409 0.2699
C13 C 0.02456(15) 0.3849(7) 0.1453(2)
H11 H -0.0147 0.4754 0.1378
C14 C 0.04662(13) 0.2730(7) 0.07759(17)
H12 H 0.0218 0.2878 0.0245
C15 C 0.10509(11) 0.1383(5) 0.08649(15)
C16 C 0.12478(12) 0.0340(6) 0.00866(16)
C17 C 0.19109(12) -0.2667(6) -0.05207(15)
H13 H 0.1995 -0.1093 -0.0856
H14 H 0.1608 -0.3866 -0.0866
C18 C 0.25232(12) -0.4198(5) -0.02129(17)
H15 H 0.2437 -0.5650 0.0165
H16 H 0.2669 -0.5061 -0.0689
loop_
_geom_bond_atom_site_label_1
_geom_bond_atom_site_label_2
_geom_bond_site_symmetry_1
_geom_bond_site_symmetry_2
Br1 C1 1_555 1_555
N1 C4 1_555 1_555
O1 C9 1_555 1_555
O2 C8 1_555 1_555
O3 C16 1_555 1_555
O4 C16 1_555 1_555
C1 C2 1_555 1_555
C2 H1 1_555 1_555
C3 C2 1_555 1_555
H2 C3 1_555 1_555
C4 C3 1_555 1_555
C5 C4 1_555 1_555
H3 C5 1_555 1_555
C6 C1 1_555 1_555
H4 C6 1_555 1_555
C7 N1 1_555 1_555
H5 C7 1_555 1_555
H6 C7 1_555 1_555
C8 C7 1_555 1_555
H7 C8 1_555 1_555
H8 C8 1_555 1_555
C9 O2 1_555 1_555
C10 C9 1_555 1_555
C11 C10 1_555 1_555
H9 C11 1_555 1_555
C12 C11 1_555 1_555
H10 C12 1_555 1_555
C13 C12 1_555 1_555
H11 C13 1_555 1_555
C14 C13 1_555 1_555
H12 C14 1_555 1_555
C15 C10 1_555 1_555
C16 C15 1_555 1_555
C17 O3 1_555 1_555
H13 C17 1_555 1_555
H14 C17 1_555 1_555
C18 N1 1_555 1_555
H15 C18 1_555 1_555
H16 C18 1_555 1_555
C5 C6 1_555 1_555
C14 C15 1_555 1_555
C17 C18 1_555 1_555

#END
