
#######################################################################
#
#                 Cambridge Crystallographic Data Centre
#                                CCDC 
#
#######################################################################
#
# If this CIF has been generated from an entry in the Cambridge 
# Structural Database, then it will include bibliographic, chemical, 
# crystal, experimental, refinement or atomic coordinate data resulting 
# from the CCDC's data processing and validation procedures.
#
#######################################################################

data_SIJYOB
_chemical_formula_moiety         'C18 H16 N2 O6'
_chemical_name_systematic        
5-(3-Nitrophenyl)-4,5,6,7-tetrahydro-3H-2,8,5-benzodioxazacycloundecine-1,9-dione
_symmetry_cell_setting           monoclinic
_symmetry_space_group_name_H-M   'P 21/n'
_symmetry_Int_Tables_number      14
_space_group_name_Hall           '-P 2yn'
loop_
_symmetry_equiv_pos_site_id
_symmetry_equiv_pos_as_xyz
1 x,y,z
2 1/2-x,1/2+y,1/2-z
3 -x,-y,-z
4 1/2+x,1/2-y,1/2+z
_cell_length_a                   7.925(2)
_cell_length_b                   15.854(4)
_cell_length_c                   13.208(3)
_cell_angle_alpha                90
_cell_angle_beta                 90.813(4)
_cell_angle_gamma                90
_cell_volume                     1659.33
_cell_formula_units_Z            4
loop_
_atom_site_label
_atom_site_type_symbol
_atom_site_fract_x
_atom_site_fract_y
_atom_site_fract_z
N1 N 0.8964(2) 0.77746(12) 0.72258(13)
N2 N 0.4735(3) 0.90525(12) 0.93755(16)
O1 O 1.3464(3) 0.92049(18) 0.60128(16)
O2 O 1.1829(2) 0.80810(11) 0.57909(11)
O3 O 0.8803(2) 0.88273(11) 0.52987(12)
O4 O 0.8371(3) 0.78967(14) 0.40455(14)
O5 O 0.4246(2) 0.91346(11) 1.02504(13)
O6 O 0.3831(2) 0.91879(13) 0.86322(14)
C1 C 1.2220(3) 0.89844(15) 0.44050(18)
C2 C 1.3537(4) 0.93247(17) 0.3856(2)
H1 H 1.4575 0.9415 0.4175
C3 C 1.3337(5) 0.95298(18) 0.2851(2)
H2 H 1.4242 0.9743 0.2491
C4 C 1.1810(5) 0.94196(19) 0.2385(2)
H3 H 1.1659 0.9578 0.1712
C5 C 1.0488(5) 0.90734(19) 0.2910(2)
H4 H 0.9455 0.8991 0.2582
C6 C 1.0671(4) 0.88458(15) 0.39214(17)
C7 C 0.9175(3) 0.84679(17) 0.44180(18)
C8 C 0.7363(3) 0.84872(18) 0.58272(19)
H5 H 0.6463 0.8378 0.5340
H6 H 0.6960 0.8907 0.6300
C9 C 0.7746(3) 0.76858(15) 0.63978(17)
H7 H 0.6702 0.7468 0.6668
H8 H 0.8170 0.7272 0.5924
C10 C 1.0570(3) 0.73310(16) 0.71543(18)
H9 H 1.0443 0.6877 0.6666
H10 H 1.0831 0.7077 0.7806
C11 C 1.2031(3) 0.78682(17) 0.68509(18)
H11 H 1.2066 0.8378 0.7257
H12 H 1.3080 0.7564 0.6960
C12 C 1.2558(3) 0.87829(18) 0.54826(19)
C13 C 0.8515(3) 0.81561(14) 0.81218(16)
C14 C 0.6868(3) 0.84244(14) 0.83026(16)
H13 H 0.6031 0.8355 0.7809
C15 C 0.6492(3) 0.87922(14) 0.92147(16)
C16 C 0.7647(3) 0.89381(16) 0.99762(17)
H14 H 0.7350 0.9194 1.0581
C17 C 0.9274(3) 0.86831(18) 0.97933(18)
H15 H 1.0102 0.8773 1.0288
C18 C 0.9713(3) 0.82990(16) 0.89019(17)
H16 H 1.0825 0.8130 0.8812
loop_
_geom_bond_atom_site_label_1
_geom_bond_atom_site_label_2
_geom_bond_site_symmetry_1
_geom_bond_site_symmetry_2
N1 C9 1_555 1_555
N2 O5 1_555 1_555
O1 C12 1_555 1_555
O2 C11 1_555 1_555
O3 C7 1_555 1_555
O4 C7 1_555 1_555
O6 N2 1_555 1_555
C1 C2 1_555 1_555
C2 H1 1_555 1_555
C3 C2 1_555 1_555
H2 C3 1_555 1_555
C4 C3 1_555 1_555
H3 C4 1_555 1_555
C5 C4 1_555 1_555
H4 C5 1_555 1_555
C6 C1 1_555 1_555
C7 C6 1_555 1_555
C8 O3 1_555 1_555
H5 C8 1_555 1_555
H6 C8 1_555 1_555
C9 C8 1_555 1_555
H7 C9 1_555 1_555
H8 C9 1_555 1_555
C10 N1 1_555 1_555
H9 C10 1_555 1_555
H10 C10 1_555 1_555
C11 C10 1_555 1_555
H11 C11 1_555 1_555
H12 C11 1_555 1_555
C12 O2 1_555 1_555
C13 N1 1_555 1_555
C14 C13 1_555 1_555
H13 C14 1_555 1_555
C15 N2 1_555 1_555
C16 C15 1_555 1_555
H14 C16 1_555 1_555
C17 C16 1_555 1_555
H15 C17 1_555 1_555
C18 C13 1_555 1_555
H16 C18 1_555 1_555
C1 C12 1_555 1_555
C5 C6 1_555 1_555
C14 C15 1_555 1_555
C17 C18 1_555 1_555

#END
