
#######################################################################
#
#                 Cambridge Crystallographic Data Centre
#                                CCDC 
#
#######################################################################
#
# If this CIF has been generated from an entry in the Cambridge 
# Structural Database, then it will include bibliographic, chemical, 
# crystal, experimental, refinement or atomic coordinate data resulting 
# from the CCDC's data processing and validation procedures.
#
#######################################################################

data_SIJZAO
_chemical_formula_moiety         'C13 H15 N3 O3'
_chemical_name_systematic        
'Methyl (1,5-dimethyl-3-oxo-2-phenyl-2,3-dihydro-1H-pyrazol-4-yl)carbamate'
_symmetry_cell_setting           monoclinic
_symmetry_space_group_name_H-M   'P 21/c'
_symmetry_Int_Tables_number      14
_space_group_name_Hall           '-P 2ybc'
loop_
_symmetry_equiv_pos_site_id
_symmetry_equiv_pos_as_xyz
1 x,y,z
2 -x,1/2+y,1/2-z
3 -x,-y,-z
4 x,1/2-y,1/2+z
_cell_length_a                   6.7180(13)
_cell_length_b                   17.305(4)
_cell_length_c                   11.455(2)
_cell_angle_alpha                90
_cell_angle_beta                 97.33(3)
_cell_angle_gamma                90
_cell_volume                     1320.82
_cell_formula_units_Z            4
loop_
_atom_site_label
_atom_site_type_symbol
_atom_site_fract_x
_atom_site_fract_y
_atom_site_fract_z
O1 O 0.6182(3) 0.31611(11) 1.18649(17)
N1 N 0.7121(3) 0.39322(12) 1.05150(18)
H1 H 0.6615 0.4282 1.0922
C1 C 0.6166(6) 0.24291(19) 1.2439(3)
H2 H 0.5439 0.2471 1.3106
H3 H 0.7520 0.2271 1.2698
H4 H 0.5528 0.2053 1.1899
N2 N 0.7902(3) 0.47285(13) 0.77119(19)
O2 O 0.7934(3) 0.26549(11) 1.04946(18)
C2 C 0.7148(4) 0.31995(15) 1.0911(2)
O3 O 0.4916(3) 0.48200(11) 0.85270(16)
N3 N 0.9843(3) 0.44510(13) 0.81038(19)
C3 C 0.7869(4) 0.41609(14) 0.9476(2)
C4 C 0.6663(4) 0.45874(14) 0.8579(2)
C5 C 0.9734(4) 0.40860(14) 0.9169(2)
C6 C 1.0823(4) 0.40588(19) 0.7185(3)
H5 H 1.2134 0.3887 0.7513
H6 H 1.0942 0.4412 0.6552
H7 H 1.0030 0.3622 0.6892
C7 C 1.1525(4) 0.36942(17) 0.9797(3)
H8 H 1.1194 0.3478 1.0520
H9 H 1.2593 0.4062 0.9966
H10 H 1.1946 0.3289 0.9312
C8 C 0.7681(4) 0.53533(15) 0.6900(2)
C9 C 0.5827(5) 0.54999(17) 0.6284(2)
H11 H 0.4741 0.5185 0.6388
C10 C 0.5580(5) 0.61156(19) 0.5511(3)
H12 H 0.4315 0.6222 0.5113
C11 C 0.7158(6) 0.65643(19) 0.5329(3)
H13 H 0.6983 0.6970 0.4793
C12 C 0.9025(6) 0.64202(19) 0.5935(3)
H14 H 1.0106 0.6730 0.5806
C13 C 0.9310(5) 0.58190(18) 0.6736(3)
H15 H 1.0566 0.5728 0.7156
loop_
_geom_bond_atom_site_label_1
_geom_bond_atom_site_label_2
_geom_bond_site_symmetry_1
_geom_bond_site_symmetry_2
O1 C1 1_555 1_555
N1 H1 1_555 1_555
C1 H2 1_555 1_555
H3 C1 1_555 1_555
H4 C1 1_555 1_555
N2 N3 1_555 1_555
O2 C2 1_555 1_555
C2 O1 1_555 1_555
O3 C4 1_555 1_555
N3 C5 1_555 1_555
C3 N1 1_555 1_555
C4 N2 1_555 1_555
C5 C3 1_555 1_555
C6 N3 1_555 1_555
H5 C6 1_555 1_555
H6 C6 1_555 1_555
H7 C6 1_555 1_555
C7 C5 1_555 1_555
H8 C7 1_555 1_555
H9 C7 1_555 1_555
H10 C7 1_555 1_555
C8 N2 1_555 1_555
C9 C8 1_555 1_555
H11 C9 1_555 1_555
C10 C9 1_555 1_555
H12 C10 1_555 1_555
C11 C10 1_555 1_555
H13 C11 1_555 1_555
C12 C11 1_555 1_555
H14 C12 1_555 1_555
C13 C8 1_555 1_555
H15 C13 1_555 1_555
N1 C2 1_555 1_555
C3 C4 1_555 1_555
C12 C13 1_555 1_555

#END
