
#######################################################################
#
#                 Cambridge Crystallographic Data Centre
#                                CCDC 
#
#######################################################################
#
# If this CIF has been generated from an entry in the Cambridge 
# Structural Database, then it will include bibliographic, chemical, 
# crystal, experimental, refinement or atomic coordinate data resulting 
# from the CCDC's data processing and validation procedures.
#
#######################################################################

data_SIJZES
_chemical_formula_moiety         'C14 H17 N3 O3,H2 O1'
_chemical_name_systematic        
'Methyl (1,5-dimethyl-3-oxo-2-phenyl-2,3-dihydro-1H-pyrazol-4-yl)methylcarbamate monohydrate'
_symmetry_cell_setting           monoclinic
_symmetry_space_group_name_H-M   'C c'
_symmetry_Int_Tables_number      9
_space_group_name_Hall           'C -2yc'
loop_
_symmetry_equiv_pos_site_id
_symmetry_equiv_pos_as_xyz
1 x,y,z
2 x,-y,1/2+z
3 1/2+x,1/2+y,z
4 1/2+x,1/2-y,1/2+z
_cell_length_a                   12.044(2)
_cell_length_b                   11.961(2)
_cell_length_c                   20.724(4)
_cell_angle_alpha                90
_cell_angle_beta                 97.47(3)
_cell_angle_gamma                90
_cell_volume                     2960.13
_cell_formula_units_Z            8
loop_
_atom_site_label
_atom_site_type_symbol
_atom_site_fract_x
_atom_site_fract_y
_atom_site_fract_z
O1 O 0.1815(4) -0.3897(4) 0.0935(3)
O2 O 0.1653(5) -0.5650(5) 0.0519(3)
O3 O 0.1082(4) -0.4514(4) 0.2485(2)
N1 N 0.0267(5) -0.4887(4) 0.1040(3)
N2 N -0.0941(4) -0.2613(4) 0.1840(2)
N3 N -0.0133(5) -0.3012(4) 0.2347(2)
C1 C 0.2871(8) -0.3821(9) 0.0712(5)
H1 H 0.3184 -0.3094 0.0812
H2 H 0.2786 -0.3937 0.0250
H3 H 0.3361 -0.4381 0.0923
C2 C 0.1283(7) -0.4884(6) 0.0812(3)
C3 C -0.0452(7) -0.5868(6) 0.0948(4)
H4 H -0.0227 -0.6323 0.0606
H5 H -0.1215 -0.5636 0.0833
H6 H -0.0387 -0.6292 0.1344
C4 C -0.0019(6) -0.4031(5) 0.1458(3)
C5 C -0.0789(6) -0.3221(6) 0.1297(3)
C6 C 0.0401(5) -0.3938(5) 0.2128(3)
C7 C -0.1392(7) -0.2928(7) 0.0652(3)
H7 H -0.1894 -0.2318 0.0697
H8 H -0.1811 -0.3563 0.0473
H9 H -0.0862 -0.2711 0.0366
C8 C -0.1215(6) -0.1424(6) 0.1828(3)
H10 H -0.1918 -0.1306 0.1561
H11 H -0.0639 -0.1012 0.1653
H12 H -0.1269 -0.1171 0.2263
C9 C -0.0214(5) -0.2740(5) 0.3007(3)
C10 C -0.1231(6) -0.2524(6) 0.3205(3)
H13 H -0.1885 -0.2571 0.2914
C11 C -0.1268(7) -0.2232(7) 0.3856(4)
H14 H -0.1952 -0.2066 0.3996
C12 C -0.0300(8) -0.2188(7) 0.4293(4)
H15 H -0.0330 -0.2001 0.4726
C13 C 0.0707(7) -0.2421(6) 0.4079(4)
H16 H 0.1357 -0.2412 0.4375
C14 C 0.0774(6) -0.2672(5) 0.3431(3)
H17 H 0.1464 -0.2791 0.3286
O4 O -0.1532(4) -0.7947(4) 0.3942(3)
O5 O 0.0292(5) -0.7902(4) 0.4394(2)
O6 O -0.1225(4) -0.6810(4) 0.2447(2)
N4 N -0.0546(4) -0.6370(4) 0.3893(3)
N5 N -0.2983(4) -0.4935(4) 0.3103(3)
N6 N -0.2680(4) -0.5616(4) 0.2598(2)
C15 C -0.1596(9) -0.9097(6) 0.4130(5)
H18 H -0.2345 -0.9367 0.4009
H19 H -0.1402 -0.9160 0.4593
H20 H -0.1084 -0.9533 0.3915
C16 C -0.0521(6) -0.7461(6) 0.4102(3)
C17 C 0.0463(7) -0.5704(7) 0.4004(4)
H21 H 0.1048 -0.6131 0.4248
H22 H 0.0322 -0.5043 0.4243
H23 H 0.0690 -0.5495 0.3593
C18 C -0.1490(5) -0.5969(5) 0.3480(3)
C19 C -0.2261(6) -0.5204(5) 0.3649(3)
C20 C -0.1712(5) -0.6201(5) 0.2804(3)
C21 C -0.2435(7) -0.4791(6) 0.4298(4)
H24 H -0.3049 -0.4272 0.4256
H25 H -0.1768 -0.4423 0.4496
H26 H -0.2603 -0.5409 0.4565
C22 C -0.4144(6) -0.4665(6) 0.3122(3)
H27 H -0.4209 -0.4197 0.3492
H28 H -0.4562 -0.5341 0.3157
H29 H -0.4434 -0.4277 0.2731
C23 C -0.3157(5) -0.5401(5) 0.1936(3)
C24 C -0.3314(6) -0.6299(6) 0.1524(3)
H30 H -0.3123 -0.7017 0.1672
C25 C -0.3756(6) -0.6120(7) 0.0891(3)
H31 H -0.3844 -0.6719 0.0603
C26 C -0.4075(6) -0.5054(7) 0.0674(4)
H32 H -0.4395 -0.4941 0.0246
C27 C -0.3911(7) -0.4168(7) 0.1097(4)
H33 H -0.4137 -0.3456 0.0956
C28 C -0.3417(6) -0.4323(6) 0.1728(3)
H34 H -0.3263 -0.3718 0.2007
O7 O 0.3403(6) -0.4141(6) 0.2424(5)
H35 H 0.260(11) -0.407(10) 0.251(6)
H36 H 0.335(10) -0.334(10) 0.238(6)
O8 O 0.1168(5) -0.6903(4) 0.2508(3)
H37 H 0.1245 -0.6513 0.2854
H38 H 0.0685 -0.6577 0.2236
loop_
_geom_bond_atom_site_label_1
_geom_bond_atom_site_label_2
_geom_bond_site_symmetry_1
_geom_bond_site_symmetry_2
O1 C1 1_555 1_555
O2 C2 1_555 1_555
O3 C6 1_555 1_555
N1 C2 1_555 1_555
N2 N3 1_555 1_555
N3 C6 1_555 1_555
C1 H1 1_555 1_555
H2 C1 1_555 1_555
H3 C1 1_555 1_555
C2 O1 1_555 1_555
C3 N1 1_555 1_555
H4 C3 1_555 1_555
H5 C3 1_555 1_555
H6 C3 1_555 1_555
C4 N1 1_555 1_555
C5 N2 1_555 1_555
C6 C4 1_555 1_555
C7 C5 1_555 1_555
H7 C7 1_555 1_555
H8 C7 1_555 1_555
H9 C7 1_555 1_555
C8 N2 1_555 1_555
H10 C8 1_555 1_555
H11 C8 1_555 1_555
H12 C8 1_555 1_555
C9 N3 1_555 1_555
C10 C9 1_555 1_555
H13 C10 1_555 1_555
C11 C10 1_555 1_555
H14 C11 1_555 1_555
C12 C11 1_555 1_555
H15 C12 1_555 1_555
C13 C12 1_555 1_555
H16 C13 1_555 1_555
C14 C9 1_555 1_555
H17 C14 1_555 1_555
O4 C15 1_555 1_555
O5 C16 1_555 1_555
O6 C20 1_555 1_555
N4 C16 1_555 1_555
N5 N6 1_555 1_555
N6 C20 1_555 1_555
C15 H18 1_555 1_555
H19 C15 1_555 1_555
H20 C15 1_555 1_555
C16 O4 1_555 1_555
C17 N4 1_555 1_555
H21 C17 1_555 1_555
H22 C17 1_555 1_555
H23 C17 1_555 1_555
C18 N4 1_555 1_555
C19 N5 1_555 1_555
C20 C18 1_555 1_555
C21 C19 1_555 1_555
H24 C21 1_555 1_555
H25 C21 1_555 1_555
H26 C21 1_555 1_555
C22 N5 1_555 1_555
H27 C22 1_555 1_555
H28 C22 1_555 1_555
H29 C22 1_555 1_555
C23 N6 1_555 1_555
C24 C23 1_555 1_555
H30 C24 1_555 1_555
C25 C24 1_555 1_555
H31 C25 1_555 1_555
C26 C25 1_555 1_555
H32 C26 1_555 1_555
C27 C26 1_555 1_555
H33 C27 1_555 1_555
C28 C23 1_555 1_555
H34 C28 1_555 1_555
O7 H35 1_555 1_555
H36 O7 1_555 1_555
O8 H37 1_555 1_555
H38 O8 1_555 1_555
C4 C5 1_555 1_555
C13 C14 1_555 1_555
C18 C19 1_555 1_555
C27 C28 1_555 1_555

#END
