
#######################################################################
#
#                 Cambridge Crystallographic Data Centre
#                                CCDC 
#
#######################################################################
#
# If this CIF has been generated from an entry in the Cambridge 
# Structural Database, then it will include bibliographic, chemical, 
# crystal, experimental, refinement or atomic coordinate data resulting 
# from the CCDC's data processing and validation procedures.
#
#######################################################################

data_SIKBAR
_chemical_formula_moiety         'C11 H13 N3 O1'
_chemical_name_systematic        
4-Amino-1,5-dimethyl-2-phenyl-1,2-dihydro-3H-pyrazol-3-one
_symmetry_cell_setting           hexagonal
_symmetry_space_group_name_H-M   'P 65'
_symmetry_Int_Tables_number      170
_space_group_name_Hall           'P 65'
loop_
_symmetry_equiv_pos_site_id
_symmetry_equiv_pos_as_xyz
1 x,y,z
2 -y,x-y,2/3+z
3 -x+y,-x,1/3+z
4 -x,-y,1/2+z
5 y,-x+y,1/6+z
6 x-y,x,5/6+z
_cell_length_a                   7.5160(11)
_cell_length_b                   7.5160(11)
_cell_length_c                   32.005(6)
_cell_angle_alpha                90
_cell_angle_beta                 90
_cell_angle_gamma                120
_cell_volume                     1565.75
_cell_formula_units_Z            6
loop_
_atom_site_label
_atom_site_type_symbol
_atom_site_fract_x
_atom_site_fract_y
_atom_site_fract_z
O1 O 0.8252(5) 0.2305(6) 0.14151(11)
N1 N 0.5772(6) 0.3217(6) 0.12995(13)
C1 C 0.6272(7) 0.6442(8) 0.15823(18)
H1 H 0.6107 0.6847 0.1317
N2 N 0.4610(6) 0.3227(6) 0.09464(12)
C2 C 0.6663(9) 0.7735(10) 0.1919(2)
H2 H 0.6765 0.9009 0.1880
N3 N 0.7245(8) 0.0673(8) 0.05600(16)
H3 H 0.6943 0.0333 0.0302
H4 H 0.8113 0.0429 0.0685
C3 C 0.6899(9) 0.7149(11) 0.2309(2)
H5 H 0.7145 0.8018 0.2536
C4 C 0.6774(8) 0.5260(10) 0.23693(17)
H6 H 0.6963 0.4874 0.2634
C5 C 0.6369(8) 0.3960(8) 0.20351(15)
H7 H 0.6255 0.2681 0.2073
C6 C 0.6128(7) 0.4584(7) 0.16357(14)
C7 C 0.6950(8) 0.2353(7) 0.11909(15)
C8 C 0.6346(7) 0.1599(7) 0.07703(15)
C9 C 0.4965(8) 0.2119(7) 0.06374(15)
C10 C 0.2487(8) 0.2514(9) 0.10675(19)
H8 H 0.1720 0.2510 0.0827
H9 H 0.2456 0.3415 0.1276
H10 H 0.1887 0.1147 0.1178
C11 C 0.3939(9) 0.1791(9) 0.02236(17)
H11 H 0.4311 0.0990 0.0049
H12 H 0.4370 0.3096 0.0094
H13 H 0.2476 0.1076 0.0261
loop_
_geom_bond_atom_site_label_1
_geom_bond_atom_site_label_2
_geom_bond_site_symmetry_1
_geom_bond_site_symmetry_2
O1 C7 1_555 1_555
N1 N2 1_555 1_555
C1 H1 1_555 1_555
N2 C9 1_555 1_555
C2 C1 1_555 1_555
H2 C2 1_555 1_555
N3 H3 1_555 1_555
H4 N3 1_555 1_555
C3 C2 1_555 1_555
H5 C3 1_555 1_555
C4 C3 1_555 1_555
H6 C4 1_555 1_555
C5 C4 1_555 1_555
H7 C5 1_555 1_555
C6 N1 1_555 1_555
C7 N1 1_555 1_555
C8 N3 1_555 1_555
C9 C8 1_555 1_555
C10 N2 1_555 1_555
H8 C10 1_555 1_555
H9 C10 1_555 1_555
H10 C10 1_555 1_555
C11 C9 1_555 1_555
H11 C11 1_555 1_555
H12 C11 1_555 1_555
H13 C11 1_555 1_555
C1 C6 1_555 1_555
C5 C6 1_555 1_555
C7 C8 1_555 1_555

#END
