
#######################################################################
#
#                 Cambridge Crystallographic Data Centre
#                                CCDC 
#
#######################################################################
#
# If this CIF has been generated from an entry in the Cambridge 
# Structural Database, then it will include bibliographic, chemical, 
# crystal, experimental, refinement or atomic coordinate data resulting 
# from the CCDC's data processing and validation procedures.
#
#######################################################################

data_SIKBIX
_chemical_formula_moiety         'C16 H25 B1 N4'
_chemical_name_systematic        
9,9-bis(3-Methylpyrazolyl)-9-borabicyclo(3.3.1)nonane
_symmetry_cell_setting           monoclinic
_symmetry_space_group_name_H-M   'P 21/n'
_symmetry_Int_Tables_number      14
_space_group_name_Hall           '-P 2yn'
loop_
_symmetry_equiv_pos_site_id
_symmetry_equiv_pos_as_xyz
1 x,y,z
2 1/2-x,1/2+y,1/2-z
3 -x,-y,-z
4 1/2+x,1/2-y,1/2+z
_cell_length_a                   8.094(2)
_cell_length_b                   16.114(4)
_cell_length_c                   11.923(4)
_cell_angle_alpha                90
_cell_angle_beta                 96.20(3)
_cell_angle_gamma                90
_cell_volume                     1545.98
_chemical_melting_point          193-195deg.C
_cell_formula_units_Z            4
loop_
_atom_site_label
_atom_site_type_symbol
_atom_site_fract_x
_atom_site_fract_y
_atom_site_fract_z
B1 B 0.12626 0.14139 0.43920
N1 N 0.13687 0.09323 0.32604
N2 N 0.05648 0.01943 0.30111
N3 N 0.25933 0.09572 0.52906
N4 N 0.22578 0.05192 0.62084
H1 H 0.12449 0.03232 0.62969
C1 C 0.09522 -0.00284 0.19826
C2 C 0.20036 0.05557 0.15689
H2 H 0.24762 0.05331 0.08473
C3 C 0.22332 0.11435 0.24019
H3 H 0.28997 0.16408 0.24141
C4 C 0.36646 0.03103 0.68370
C5 C 0.49682 0.06165 0.63043
H4 H 0.61095 0.05880 0.65093
C6 C 0.42445 0.10136 0.53505
H5 H 0.48048 0.13348 0.47863
C7 C 0.18455 0.23724 0.42917
H6 H 0.29230 0.23951 0.40265
C8 C 0.06428 0.28432 0.34236
H7 H 0.08169 0.26456 0.26859
H8 H 0.09143 0.34226 0.34815
C9 C -0.12034 0.27494 0.35609
H9 H -0.14608 0.31034 0.41659
H10 H -0.18345 0.29210 0.28719
C10 C -0.17107 0.18610 0.38255
H11 H -0.28212 0.18731 0.40379
H12 H -0.16879 0.15323 0.31559
C11 C -0.05711 0.14466 0.47859
H13 H -0.09633 0.08972 0.49214
C12 C -0.05886 0.19109 0.59152
H14 H -0.01044 0.15510 0.65030
H15 H -0.17278 0.20177 0.60224
C13 C 0.03462 0.27414 0.60301
H16 H 0.06166 0.28533 0.68194
H17 H -0.03834 0.31659 0.56997
C14 C 0.19583 0.27761 0.54656
H18 H 0.22589 0.33482 0.53906
H19 H 0.28108 0.24964 0.59457
C15 C 0.02971 -0.08061 0.14159
H20 H 0.07112 -0.08551 0.06941
H21 H -0.08952 -0.07873 0.13145
C16 C 0.36561 -0.01414 0.79263
H22 H 0.47790 -0.02343 0.82499
H23 H 0.31026 -0.06649 0.77951
H24 H 0.30813 0.01839 0.84359
loop_
_geom_bond_atom_site_label_1
_geom_bond_atom_site_label_2
_geom_bond_site_symmetry_1
_geom_bond_site_symmetry_2
B1 N1 1_555 1_555
N1 N2 1_555 1_555
N2 C1 1_555 1_555
N3 B1 1_555 1_555
N4 N3 1_555 1_555
H1 N4 1_555 1_555
C1 C2 1_555 1_555
C2 H2 1_555 1_555
C3 N1 1_555 1_555
H3 C3 1_555 1_555
C4 N4 1_555 1_555
C5 C4 1_555 1_555
H4 C5 1_555 1_555
C6 N3 1_555 1_555
H5 C6 1_555 1_555
C7 B1 1_555 1_555
H6 C7 1_555 1_555
C8 C7 1_555 1_555
H7 C8 1_555 1_555
H8 C8 1_555 1_555
C9 C8 1_555 1_555
H9 C9 1_555 1_555
H10 C9 1_555 1_555
C10 C9 1_555 1_555
H11 C10 1_555 1_555
H12 C10 1_555 1_555
C11 B1 1_555 1_555
H13 C11 1_555 1_555
C12 C11 1_555 1_555
H14 C12 1_555 1_555
H15 C12 1_555 1_555
C13 C12 1_555 1_555
H16 C13 1_555 1_555
H17 C13 1_555 1_555
C14 C7 1_555 1_555
H18 C14 1_555 1_555
H19 C14 1_555 1_555
C15 C1 1_555 1_555
H20 C15 1_555 1_555
H21 C15 1_555 1_555
C16 C4 1_555 1_555
H22 C16 1_555 1_555
H23 C16 1_555 1_555
H24 C16 1_555 1_555
C2 C3 1_555 1_555
C5 C6 1_555 1_555
C10 C11 1_555 1_555
C13 C14 1_555 1_555

#END
