
#######################################################################
#
#                 Cambridge Crystallographic Data Centre
#                                CCDC 
#
#######################################################################
#
# If this CIF has been generated from an entry in the Cambridge 
# Structural Database, then it will include bibliographic, chemical, 
# crystal, experimental, refinement or atomic coordinate data resulting 
# from the CCDC's data processing and validation procedures.
#
#######################################################################

data_SIKCIB
_chemical_formula_moiety         'C20 H23 Cl1 N2 O5'
_chemical_name_systematic        
't-butyl 4-(3-((4-chlorobenzylidene)amino)-2-oxotetrahydrofuran-3-yl)-2-oxopyrrolidine-1-carboxylate'
_symmetry_cell_setting           orthorhombic
_symmetry_space_group_name_H-M   'P b c n'
_symmetry_Int_Tables_number      60
_space_group_name_Hall           '-P 2n 2ab'
loop_
_symmetry_equiv_pos_site_id
_symmetry_equiv_pos_as_xyz
1 x,y,z
2 1/2+x,1/2-y,-z
3 -x,y,1/2-z
4 1/2-x,1/2-y,1/2+z
5 -x,-y,-z
6 1/2-x,1/2+y,z
7 x,-y,1/2+z
8 1/2+x,1/2+y,1/2-z
_cell_length_a                   29.349(2)
_cell_length_b                   11.9764(9)
_cell_length_c                   11.5790(9)
_cell_angle_alpha                90
_cell_angle_beta                 90
_cell_angle_gamma                90
_cell_volume                     4069.96
_exptl_crystal_colour            colorless
_exptl_crystal_description       plate
_cell_formula_units_Z            8
loop_
_atom_site_label
_atom_site_type_symbol
_atom_site_fract_x
_atom_site_fract_y
_atom_site_fract_z
Cl1 Cl 0.54060(6) 0.97854(17) 0.63983(16)
O1 O 0.8831(2) 0.8067(7) 0.4049(6)
O2 O 0.70233(19) 0.6179(5) 0.0949(4)
O3 O 0.75491(18) 0.7442(5) 0.1366(4)
O4 O 0.8931(2) 0.7217(5) 0.5800(7)
O5 O 0.8297(2) 0.5567(5) 0.6173(6)
N1 N 0.7002(2) 0.6700(6) 0.3665(5)
N2 N 0.8339(3) 0.6777(7) 0.4586(6)
C1 C 0.6404(3) 0.7811(6) 0.5280(9)
H1 H 0.6603 0.7266 0.5599
C2 C 0.6090(3) 0.8336(8) 0.5978(7)
H2 H 0.6070 0.8155 0.6775
C3 C 0.5803(3) 0.9133(7) 0.5499(9)
C4 C 0.5832(3) 0.9413(6) 0.4363(9)
H3 H 0.5635 0.9968 0.4053
C5 C 0.6148(3) 0.8888(8) 0.3658(7)
H4 H 0.6169 0.9085 0.2864
C6 C 0.6434(3) 0.8072(7) 0.4115(9)
C7 C 0.6755(3) 0.7507(8) 0.3326(7)
H5 H 0.6777 0.7751 0.2548
C8 C 0.6784(3) 0.5293(7) 0.1532(7)
H6 H 0.6744 0.4642 0.1015
H7 H 0.6480 0.5549 0.1791
C9 C 0.7081(2) 0.4993(6) 0.2560(7)
H8 H 0.7313 0.4428 0.2348
H9 H 0.6896 0.4706 0.3210
C10 C 0.7302(3) 0.6106(6) 0.2861(7)
C11 C 0.7327(3) 0.6668(8) 0.1680(7)
C12 C 0.8042(3) 0.7057(6) 0.3588(7)
H10 H 0.8225 0.7255 0.2900
H11 H 0.7834 0.7683 0.3775
C13 C 0.7776(3) 0.5971(6) 0.3395(6)
H12 H 0.7961 0.5475 0.2881
C14 C 0.7759(3) 0.5445(6) 0.4598(7)
H13 H 0.7471 0.5644 0.4994
H14 H 0.7779 0.4621 0.4544
C15 C 0.8153(3) 0.5897(9) 0.5234(10)
C16 C 0.8705(4) 0.7359(11) 0.4872(14)
C17 C 0.9288(4) 0.8566(9) 0.4149(8)
C18 C 0.9324(3) 0.9379(7) 0.5200(8)
H15 H 0.9328 0.8946 0.5918
H16 H 0.9061 0.9883 0.5202
H17 H 0.9605 0.9817 0.5139
C19 C 0.9679(3) 0.7740(7) 0.4150(8)
H18 H 0.9650 0.7239 0.3486
H19 H 0.9672 0.7302 0.4865
H20 H 0.9969 0.8145 0.4101
C20 C 0.9290(3) 0.9209(9) 0.2992(9)
H21 H 0.9278 0.8676 0.2350
H22 H 0.9570 0.9654 0.2933
H23 H 0.9025 0.9704 0.2957
loop_
_geom_bond_atom_site_label_1
_geom_bond_atom_site_label_2
_geom_bond_site_symmetry_1
_geom_bond_site_symmetry_2
Cl1 C3 1_555 1_555
O1 C16 1_555 1_555
O2 C8 1_555 1_555
O3 C11 1_555 1_555
O4 C16 1_555 1_555
O5 C15 1_555 1_555
N1 C7 1_555 1_555
N2 C12 1_555 1_555
C1 H1 1_555 1_555
C2 C1 1_555 1_555
H2 C2 1_555 1_555
C3 C2 1_555 1_555
C4 C3 1_555 1_555
H3 C4 1_555 1_555
C5 C4 1_555 1_555
H4 C5 1_555 1_555
C6 C1 1_555 1_555
C7 C6 1_555 1_555
H5 C7 1_555 1_555
C8 H6 1_555 1_555
H7 C8 1_555 1_555
C9 C8 1_555 1_555
H8 C9 1_555 1_555
H9 C9 1_555 1_555
C10 N1 1_555 1_555
C11 O2 1_555 1_555
C12 H10 1_555 1_555
H11 C12 1_555 1_555
C13 C10 1_555 1_555
H12 C13 1_555 1_555
C14 C13 1_555 1_555
H13 C14 1_555 1_555
H14 C14 1_555 1_555
C15 N2 1_555 1_555
C16 N2 1_555 1_555
C17 O1 1_555 1_555
C18 C17 1_555 1_555
H15 C18 1_555 1_555
H16 C18 1_555 1_555
H17 C18 1_555 1_555
C19 C17 1_555 1_555
H18 C19 1_555 1_555
H19 C19 1_555 1_555
H20 C19 1_555 1_555
C20 C17 1_555 1_555
H21 C20 1_555 1_555
H22 C20 1_555 1_555
H23 C20 1_555 1_555
C5 C6 1_555 1_555
C9 C10 1_555 1_555
C10 C11 1_555 1_555
C12 C13 1_555 1_555
C14 C15 1_555 1_555

#END
