
#######################################################################
#
#                 Cambridge Crystallographic Data Centre
#                                CCDC 
#
#######################################################################
#
# If this CIF has been generated from an entry in the Cambridge 
# Structural Database, then it will include bibliographic, chemical, 
# crystal, experimental, refinement or atomic coordinate data resulting 
# from the CCDC's data processing and validation procedures.
#
#######################################################################

data_SIKDIC
_chemical_formula_moiety         'C14 H10 Cl1 N3 O4 S1'
_chemical_name_systematic        
'phenyl [(2-chloro-4-nitrophenyl)carbamothioyl]carbamate unknown solvate'
_symmetry_cell_setting           triclinic
_symmetry_space_group_name_H-M   'P -1'
_symmetry_Int_Tables_number      2
_space_group_name_Hall           '-P 1'
loop_
_symmetry_equiv_pos_site_id
_symmetry_equiv_pos_as_xyz
1 x,y,z
2 -x,-y,-z
_cell_length_a                   3.8516(2)
_cell_length_b                   13.9886(10)
_cell_length_c                   16.4009(11)
_cell_angle_alpha                112.954(7)
_cell_angle_beta                 91.956(5)
_cell_angle_gamma                94.804(5)
_cell_volume                     808.677
_exptl_crystal_colour            colorless
_exptl_crystal_description       needle
_cell_formula_units_Z            2
loop_
_atom_site_label
_atom_site_type_symbol
_atom_site_fract_x
_atom_site_fract_y
_atom_site_fract_z
Cl1 Cl 0.03323(15) 0.91761(4) 0.25339(4)
S1 S -0.78084(15) 0.52958(4) 0.13220(4)
O1 O -0.7380(5) 0.69761(14) -0.06896(11)
O2 O -0.3807(5) 0.79727(14) 0.05360(11)
O3 O 0.0620(9) 0.7790(2) 0.56989(16)
O4 O 0.3402(6) 0.91590(17) 0.56389(13)
N1 N -0.6978(5) 0.64450(15) 0.04011(13)
H1 H -0.8418 0.5930 0.0021
N2 N -0.4086(5) 0.71947(15) 0.17871(13)
H2 H -0.3421 0.7673 0.1584
N3 N 0.1397(7) 0.83605(19) 0.53127(15)
C1 C -0.5856(6) 0.72187(18) 0.01205(15)
C2 C -0.6155(6) 0.63636(17) 0.11995(15)
C3 C -0.6598(6) 0.7645(2) -0.11361(16)
C4 C -0.5326(8) 0.7183(2) -0.19575(18)
H3 H -0.4792 0.6480 -0.2171
C5 C -0.4842(8) 0.7773(3) -0.2467(2)
H4 H -0.3998 0.7468 -0.3040
C6 C -0.5580(7) 0.8793(2) -0.2144(2)
H5 H -0.5249 0.9193 -0.2495
C7 C -0.6801(8) 0.9237(2) -0.1312(2)
H6 H -0.7285 0.9945 -0.1089
C8 C -0.7329(7) 0.8661(2) -0.07972(18)
H7 H -0.8175 0.8964 -0.0224
C9 C -0.2822(6) 0.74256(17) 0.26592(15)
C10 C -0.0700(6) 0.83742(18) 0.30912(16)
C11 C 0.0664(6) 0.86950(19) 0.39591(16)
H8 H 0.2087 0.9339 0.4243
C12 C -0.0110(7) 0.8048(2) 0.43979(15)
C13 C -0.2163(7) 0.7107(2) 0.39997(17)
H9 H -0.2645 0.6678 0.4319
C14 C -0.3516(7) 0.6794(2) 0.31299(16)
H10 H -0.4924 0.6145 0.2852
loop_
_geom_bond_atom_site_label_1
_geom_bond_atom_site_label_2
_geom_bond_site_symmetry_1
_geom_bond_site_symmetry_2
Cl1 C10 1_555 1_555
S1 C2 1_555 1_555
O1 C1 1_555 1_555
O2 C1 1_555 1_555
O3 N3 1_555 1_555
O4 N3 1_555 1_555
N1 H1 1_555 1_555
N2 H2 1_555 1_555
N3 C12 1_555 1_555
C1 N1 1_555 1_555
C2 N1 1_555 1_555
C3 O1 1_555 1_555
C4 C3 1_555 1_555
H3 C4 1_555 1_555
C5 C4 1_555 1_555
H4 C5 1_555 1_555
C6 C5 1_555 1_555
H5 C6 1_555 1_555
C7 C6 1_555 1_555
H6 C7 1_555 1_555
C8 C3 1_555 1_555
H7 C8 1_555 1_555
C9 N2 1_555 1_555
C10 C9 1_555 1_555
C11 C10 1_555 1_555
H8 C11 1_555 1_555
C12 C11 1_555 1_555
C13 C12 1_555 1_555
H9 C13 1_555 1_555
C14 C9 1_555 1_555
H10 C14 1_555 1_555
N2 C2 1_555 1_555
C7 C8 1_555 1_555
C13 C14 1_555 1_555

#END
