
#######################################################################
#
#                 Cambridge Crystallographic Data Centre
#                                CCDC 
#
#######################################################################
#
# If this CIF has been generated from an entry in the Cambridge 
# Structural Database, then it will include bibliographic, chemical, 
# crystal, experimental, refinement or atomic coordinate data resulting 
# from the CCDC's data processing and validation procedures.
#
#######################################################################

data_SIKFUQ
_chemical_formula_moiety         'C29 H33 N5 O3 2+,2(F6 P1 1-)'
_chemical_name_systematic        
'13,16,19-trioxa-10,25,33-triaza-7,22-diazoniahexacyclo[29.3.1.1^7,10^.1^22,25^.0^5,34^.0^27,32^]heptatriaconta-1(35),2,4,7(37),8,22(36),23,27,29,31,33-undecaene bis(hexafluorophosphate)'
_symmetry_cell_setting           triclinic
_symmetry_space_group_name_H-M   'P -1'
_symmetry_Int_Tables_number      2
_space_group_name_Hall           '-P 1'
loop_
_symmetry_equiv_pos_site_id
_symmetry_equiv_pos_as_xyz
1 x,y,z
2 -x,-y,-z
_cell_length_a                   11.3348(6)
_cell_length_b                   19.7029(9)
_cell_length_c                   15.6220(8)
_cell_angle_alpha                90.00
_cell_angle_beta                 101.927(5)
_cell_angle_gamma                90.00
_cell_volume                     3413.52
_exptl_crystal_colour            colorless
_exptl_crystal_description       needle
_cell_formula_units_Z            4
loop_
_atom_site_label
_atom_site_type_symbol
_atom_site_fract_x
_atom_site_fract_y
_atom_site_fract_z
P1 P 0.31293(14) 0.14367(7) 0.19289(9)
F1 F 0.1968(4) 0.1488(2) 0.1170(3)
F2 F 0.4215(4) 0.1384(2) 0.2721(3)
F3 F 0.2365(5) 0.1633(3) 0.2615(3)
F4 F 0.3336(5) 0.2208(2) 0.1815(3)
F5 F 0.3845(5) 0.1230(3) 0.1223(4)
F6 F 0.2952(7) 0.0659(2) 0.2012(3)
P2 P 0.81306(14) 0.35632(7) 0.69298(9)
F7 F 0.6960(4) 0.3518(2) 0.6173(3)
F8 F 0.8337(5) 0.27883(19) 0.6814(3)
F9 F 0.9215(4) 0.3618(2) 0.7725(3)
F10 F 0.8844(5) 0.3769(3) 0.6229(4)
F11 F 0.7370(5) 0.3370(3) 0.7620(3)
F12 F 0.7948(7) 0.4337(2) 0.7016(3)
P3 P 0.22591(14) 0.34245(8) 0.48198(10)
F13 F 0.1131(4) 0.3213(3) 0.4098(3)
F14 F 0.3366(5) 0.3712(3) 0.5512(4)
F15 F 0.2392(6) 0.4072(3) 0.4262(3)
F16 F 0.1447(6) 0.3836(3) 0.5333(4)
F17 F 0.2192(10) 0.2826(2) 0.5392(4)
F18 F 0.3058(6) 0.3067(4) 0.4261(5)
P4 P 0.72610(14) 0.15746(8) 0.98190(10)
F19 F 0.6133(4) 0.1784(3) 0.9094(3)
F20 F 0.7387(6) 0.0921(3) 0.9255(3)
F21 F 0.6443(6) 0.1155(3) 1.0320(4)
F22 F 0.7203(10) 0.2174(3) 1.0388(4)
F23 F 0.8069(6) 0.1919(4) 0.9266(4)
F24 F 0.8371(5) 0.1282(3) 1.0512(4)
N1 N 0.6273(3) 0.0812(2) 0.4472(3)
O1 O 0.9233(3) 0.10773(18) 0.3038(2)
N2 N 0.6539(4) 0.00614(19) 0.1982(3)
O2 O 1.0174(3) -0.02867(18) 0.3005(2)
C1 C 0.6598(4) -0.0122(2) 0.3563(3)
C2 C 0.6197(4) 0.1062(3) 0.5258(3)
C3 C 0.6510(4) 0.0151(2) 0.4408(3)
N3 N 0.7357(4) -0.0340(2) 0.0974(3)
N4 N 0.6750(4) 0.2294(2) 0.4170(3)
O3 O 0.9329(4) -0.1218(2) 0.1570(3)
C4 C 0.6429(5) 0.0371(2) 0.2821(3)
H1 H 0.5637 0.0577 0.2753
H2 H 0.7023 0.0730 0.2963
N5 N 0.7943(4) 0.2286(2) 0.3268(3)
C5 C 0.6422(4) 0.0648(3) 0.6050(3)
C6 C 0.6692(4) -0.0308(3) 0.5156(4)
C7 C 0.6858(5) -0.0788(2) 0.3493(4)
H3 H 0.6922 -0.0960 0.2950
C8 C 0.7572(5) 0.0007(2) 0.1716(3)
H4 H 0.8314 0.0180 0.1999
C9 C 0.6837(6) 0.2144(3) 0.3364(4)
H5 H 0.6223 0.1968 0.2933
C10 C 0.5649(5) -0.0262(3) 0.1388(4)
H6 H 0.4841 -0.0300 0.1418
C11 C 0.5909(5) 0.1767(3) 0.5323(4)
C12 C 0.6934(5) -0.1005(3) 0.5020(4)
H7 H 0.7023 -0.1306 0.5489
C13 C 0.5876(5) 0.2037(4) 0.6145(4)
H8 H 0.5689 0.2493 0.6191
C14 C 0.6167(5) -0.0507(3) 0.0763(4)
H9 H 0.5786 -0.0748 0.0272
C15 C 0.7036(5) -0.1236(3) 0.4236(4)
H10 H 0.7224 -0.1690 0.4169
C16 C 0.6368(5) 0.0977(4) 0.6860(4)
H11 H 0.6513 0.0720 0.7371
C17 C 0.6641(5) -0.0019(3) 0.5953(4)
H12 H 0.6763 -0.0296 0.6445
C18 C 0.5638(5) 0.2197(3) 0.4534(4)
H13 H 0.5341 0.2635 0.4681
H14 H 0.5015 0.1985 0.4097
C19 C 1.0058(5) 0.0056(3) 0.3776(4)
H15 H 1.0657 -0.0109 0.4268
H16 H 0.9265 -0.0025 0.3898
C20 C 0.8276(6) -0.0507(3) 0.0446(4)
H17 H 0.8004 -0.0896 0.0079
H18 H 0.8353 -0.0126 0.0067
C21 C 1.0237(5) 0.0803(3) 0.3647(4)
H19 H 1.0322 0.1037 0.4203
H20 H 1.0970 0.0874 0.3431
C22 C 0.9517(6) 0.1706(3) 0.2678(4)
H21 H 0.9809 0.1623 0.2146
H22 H 1.0151 0.1933 0.3091
C23 C 1.0236(6) -0.1011(3) 0.3091(4)
H23 H 0.9502 -0.1181 0.3242
H24 H 1.0911 -0.1137 0.3553
C24 C 0.8579(6) 0.2539(3) 0.4057(4)
H25 H 0.9379 0.2681 0.4178
C25 C 1.0386(6) -0.1308(3) 0.2250(4)
H26 H 1.1070 -0.1097 0.2073
H27 H 1.0556 -0.1789 0.2330
C26 C 0.9453(6) -0.0656(4) 0.0997(4)
H28 H 1.0022 -0.0774 0.0634
H29 H 0.9757 -0.0260 0.1342
C27 C 0.8442(6) 0.2145(3) 0.2482(4)
H30 H 0.7829 0.1926 0.2044
H31 H 0.8653 0.2570 0.2239
C28 C 0.6120(6) 0.1631(4) 0.6911(4)
H32 H 0.6105 0.1825 0.7451
C29 C 0.7815(6) 0.2541(3) 0.4621(4)
H33 H 0.7987 0.2683 0.5201
N6 N 0.1270(3) 0.41894(19) 0.9473(2)
O4 O 0.4229(3) 0.39235(17) 0.8037(2)
N7 N 0.1542(4) 0.49348(19) 0.6983(3)
C30 C 0.1604(4) 0.5124(2) 0.8565(3)
O5 O 0.5180(3) 0.52883(19) 0.8006(2)
C31 C 0.1510(4) 0.4847(2) 0.9409(3)
C32 C 0.1200(4) 0.3935(3) 1.0260(3)
N8 N 0.2360(4) 0.5337(2) 0.5972(3)
C33 C 0.1697(4) 0.5305(3) 1.0161(4)
N9 N 0.2941(4) 0.2709(2) 0.8271(3)
C34 C 0.1421(5) 0.4616(2) 0.7817(3)
C35 C 0.1409(4) 0.4348(3) 1.1043(3)
C36 C 0.1849(5) 0.5788(2) 0.8495(4)
H34 H 0.1909 0.5962 0.7952
N10 N 0.1747(4) 0.2705(2) 0.9172(3)
O6 O 0.4322(4) 0.6220(2) 0.6571(3)
C37 C 0.2578(5) 0.4992(2) 0.6710(3)
H35 H 0.3321 0.4820 0.6991
C38 C 0.1923(5) 0.6006(3) 1.0020(4)
H36 H 0.2004 0.6308 1.0486
C39 C 0.1638(5) 0.5019(3) 1.0955(4)
H37 H 0.1760 0.5294 1.1450
C40 C 0.1831(6) 0.2853(3) 0.8362(4)
H38 H 0.1216 0.3027 0.7929
C41 C 0.0637(5) 0.2804(3) 0.9538(4)
H39 H 0.0015 0.3017 0.9100
H40 H 0.0338 0.2366 0.9682
C42 C 0.0899(5) 0.3229(3) 1.0321(4)
C43 C 0.2021(5) 0.6235(3) 0.9237(4)
H41 H 0.2202 0.6690 0.9169
C44 C 0.0879(5) 0.2962(3) 1.1140(4)
H42 H 0.0698 0.2505 1.1186
C45 C 0.1363(5) 0.4017(4) 1.1854(4)
H43 H 0.1508 0.4274 1.2364
C46 C 0.0660(5) 0.5259(3) 0.6386(4)
H44 H -0.0148 0.5298 0.6417
C47 C 0.1163(5) 0.5507(3) 0.5760(3)
H45 H 0.0778 0.5749 0.5270
C48 C 0.5066(5) 0.4942(3) 0.8772(3)
H46 H 0.4275 0.5025 0.8896
H47 H 0.5668 0.5105 0.9263
C49 C 0.3267(6) 0.5511(3) 0.5443(4)
H48 H 0.3339 0.5136 0.5054
H49 H 0.2994 0.5905 0.5085
C50 C 0.4518(6) 0.3292(3) 0.7683(4)
H50 H 0.5148 0.3066 0.8100
H51 H 0.4816 0.3373 0.7153
C51 C 0.5235(5) 0.4199(3) 0.8645(4)
H52 H 0.5968 0.4125 0.8429
H53 H 0.5319 0.3967 0.9202
C52 C 0.5237(6) 0.6019(3) 0.8085(4)
H54 H 0.5909 0.6148 0.8548
H55 H 0.4501 0.6189 0.8231
C53 C 0.1126(6) 0.3366(4) 1.1911(4)
H56 H 0.1121 0.3172 1.2453
C54 C 0.5392(6) 0.6313(3) 0.7249(4)
H57 H 0.5565 0.6794 0.7327
H58 H 0.6073 0.6099 0.7070
C55 C 0.3576(7) 0.2464(3) 0.9055(4)
H59 H 0.4378 0.2324 0.9174
C56 C 0.2814(6) 0.2462(3) 0.9625(4)
H60 H 0.2989 0.2322 1.0206
C57 C 0.4459(6) 0.5655(4) 0.5998(4)
H61 H 0.4758 0.5258 0.6343
H62 H 0.5030 0.5772 0.5637
C58 C 0.3451(6) 0.2858(3) 0.7486(4)
H63 H 0.3662 0.2434 0.7240
H64 H 0.2839 0.3079 0.7049
loop_
_geom_bond_atom_site_label_1
_geom_bond_atom_site_label_2
_geom_bond_site_symmetry_1
_geom_bond_site_symmetry_2
P1 F1 1_555 1_555
F2 P1 1_555 1_555
F3 P1 1_555 1_555
F4 P1 1_555 1_555
F5 P1 1_555 1_555
F6 P1 1_555 1_555
P2 F7 1_555 1_555
F8 P2 1_555 1_555
F9 P2 1_555 1_555
F10 P2 1_555 1_555
F11 P2 1_555 1_555
F12 P2 1_555 1_555
P3 F13 1_555 1_555
F14 P3 1_555 1_555
F15 P3 1_555 1_555
F16 P3 1_555 1_555
F17 P3 1_555 1_555
F18 P3 1_555 1_555
P4 F19 1_555 1_555
F20 P4 1_555 1_555
F21 P4 1_555 1_555
F22 P4 1_555 1_555
F23 P4 1_555 1_555
F24 P4 1_555 1_555
N1 C2 1_555 1_555
O1 C21 1_555 1_555
N2 C4 1_555 1_555
O2 C19 1_555 1_555
C1 C3 1_555 1_555
C2 C5 1_555 1_555
C3 N1 1_555 1_555
N3 C8 1_555 1_555
N4 C9 1_555 1_555
O3 C25 1_555 1_555
C4 C1 1_555 1_555
H1 C4 1_555 1_555
H2 C4 1_555 1_555
N5 C9 1_555 1_555
C5 C16 1_555 1_555
C6 C3 1_555 1_555
C7 C1 1_555 1_555
H3 C7 1_555 1_555
C8 N2 1_555 1_555
H4 C8 1_555 1_555
C9 H5 1_555 1_555
C10 N2 1_555 1_555
H6 C10 1_555 1_555
C11 C2 1_555 1_555
C12 C6 1_555 1_555
H7 C12 1_555 1_555
C13 C11 1_555 1_555
H8 C13 1_555 1_555
C14 N3 1_555 1_555
H9 C14 1_555 1_555
C15 C7 1_555 1_555
H10 C15 1_555 1_555
C16 H11 1_555 1_555
C17 C5 1_555 1_555
H12 C17 1_555 1_555
C18 N4 1_555 1_555
H13 C18 1_555 1_555
H14 C18 1_555 1_555
C19 H15 1_555 1_555
H16 C19 1_555 1_555
C20 N3 1_555 1_555
H17 C20 1_555 1_555
H18 C20 1_555 1_555
C21 C19 1_555 1_555
H19 C21 1_555 1_555
H20 C21 1_555 1_555
C22 O1 1_555 1_555
H21 C22 1_555 1_555
H22 C22 1_555 1_555
C23 O2 1_555 1_555
H23 C23 1_555 1_555
H24 C23 1_555 1_555
C24 N5 1_555 1_555
H25 C24 1_555 1_555
C25 C23 1_555 1_555
H26 C25 1_555 1_555
H27 C25 1_555 1_555
C26 O3 1_555 1_555
H28 C26 1_555 1_555
H29 C26 1_555 1_555
C27 N5 1_555 1_555
H30 C27 1_555 1_555
H31 C27 1_555 1_555
C28 C13 1_555 1_555
H32 C28 1_555 1_555
C29 N4 1_555 1_555
H33 C29 1_555 1_555
N6 C31 1_555 1_555
O4 C50 1_555 1_555
N7 C34 1_555 1_555
C30 C31 1_555 1_555
O5 C48 1_555 1_555
C31 C33 1_555 1_555
C32 N6 1_555 1_555
N8 C37 1_555 1_555
C33 C38 1_555 1_555
N9 C40 1_555 1_555
C34 C30 1_555 1_555
C35 C32 1_555 1_555
C36 C30 1_555 1_555
H34 C36 1_555 1_555
N10 C40 1_555 1_555
O6 C54 1_555 1_555
C37 N7 1_555 1_555
H35 C37 1_555 1_555
C38 H36 1_555 1_555
C39 C33 1_555 1_555
H37 C39 1_555 1_555
C40 H38 1_555 1_555
C41 N10 1_555 1_555
H39 C41 1_555 1_555
H40 C41 1_555 1_555
C42 C32 1_555 1_555
C43 C36 1_555 1_555
H41 C43 1_555 1_555
C44 C42 1_555 1_555
H42 C44 1_555 1_555
C45 C35 1_555 1_555
H43 C45 1_555 1_555
C46 N7 1_555 1_555
H44 C46 1_555 1_555
C47 N8 1_555 1_555
H45 C47 1_555 1_555
C48 H46 1_555 1_555
H47 C48 1_555 1_555
C49 N8 1_555 1_555
H48 C49 1_555 1_555
H49 C49 1_555 1_555
C50 H50 1_555 1_555
H51 C50 1_555 1_555
C51 O4 1_555 1_555
H52 C51 1_555 1_555
H53 C51 1_555 1_555
C52 O5 1_555 1_555
H54 C52 1_555 1_555
H55 C52 1_555 1_555
C53 C44 1_555 1_555
H56 C53 1_555 1_555
C54 C52 1_555 1_555
H57 C54 1_555 1_555
H58 C54 1_555 1_555
C55 N9 1_555 1_555
H59 C55 1_555 1_555
C56 N10 1_555 1_555
H60 C56 1_555 1_555
C57 O6 1_555 1_555
H61 C57 1_555 1_555
H62 C57 1_555 1_555
C58 N9 1_555 1_555
H63 C58 1_555 1_555
H64 C58 1_555 1_555
C6 C17 1_555 1_555
C10 C14 1_555 1_555
C11 C18 1_555 1_555
C12 C15 1_555 1_555
C16 C28 1_555 1_555
C20 C26 1_555 1_555
C22 C27 1_555 1_555
C24 C29 1_555 1_555
C35 C39 1_555 1_555
C38 C43 1_555 1_555
C41 C42 1_555 1_555
C45 C53 1_555 1_555
C46 C47 1_555 1_555
C48 C51 1_555 1_555
C49 C57 1_555 1_555
C50 C58 1_555 1_555
C55 C56 1_555 1_555

#END
