
#######################################################################
#
#                 Cambridge Crystallographic Data Centre
#                                CCDC 
#
#######################################################################
#
# If this CIF has been generated from an entry in the Cambridge 
# Structural Database, then it will include bibliographic, chemical, 
# crystal, experimental, refinement or atomic coordinate data resulting 
# from the CCDC's data processing and validation procedures.
#
#######################################################################

data_SIKHUS
_chemical_formula_moiety         'C31 H25 Cl1 N2 O3'
_chemical_name_systematic        
"ethyl 2-chloro-6-(4-methylphenyl)-6,8,9,14-tetrahydro[1]benzopyrano[4',3':2,3]indolizino[8,7-b]indole-15-carboxylate"
_symmetry_cell_setting           monoclinic
_symmetry_space_group_name_H-M   'P 21/c'
_symmetry_Int_Tables_number      14
_space_group_name_Hall           '-P 2ybc'
loop_
_symmetry_equiv_pos_site_id
_symmetry_equiv_pos_as_xyz
1 x,y,z
2 -x,1/2+y,1/2-z
3 -x,-y,-z
4 x,1/2-y,1/2+z
_cell_length_a                   13.114(2)
_cell_length_b                   22.015(4)
_cell_length_c                   9.2346(16)
_cell_angle_alpha                90
_cell_angle_beta                 105.660(5)
_cell_angle_gamma                90
_cell_volume                     2567.11
_exptl_crystal_colour            yellow
_exptl_crystal_description       block
_cell_formula_units_Z            4
loop_
_atom_site_label
_atom_site_type_symbol
_atom_site_fract_x
_atom_site_fract_y
_atom_site_fract_z
C1 C -0.2353(2) 0.35069(14) 0.4260(3)
C2 C -0.3392(3) 0.36311(19) 0.3463(4)
H1 H -0.3807 0.3902 0.3829
C3 C -0.3779(3) 0.3341(2) 0.2126(5)
H2 H -0.4470 0.3418 0.1567
C4 C -0.3171(3) 0.2934(2) 0.1575(5)
H3 H -0.3465 0.2740 0.0663
C5 C -0.2146(3) 0.28110(19) 0.2345(4)
H4 H -0.1743 0.2539 0.1962
C6 C -0.1715(2) 0.31031(14) 0.3724(4)
C7 C -0.0708(2) 0.30993(12) 0.4803(3)
C8 C -0.07691(19) 0.34810(11) 0.5931(3)
C9 C 0.0269(2) 0.27460(16) 0.4884(4)
H5 H 0.0210 0.2348 0.5306
H6 H 0.0348 0.2690 0.3878
C10 C 0.1216(2) 0.30608(14) 0.5824(3)
H7 H 0.1806 0.2779 0.6075
H8 H 0.1404 0.3393 0.5254
C11 C 0.00916(19) 0.35617(10) 0.7264(3)
C12 C 0.02258(19) 0.37933(10) 0.8706(3)
C13 C -0.0641(2) 0.40711(12) 0.9171(3)
C14 C -0.1299(3) 0.4425(2) 1.1176(4)
H9 H -0.1597 0.4764 1.0531
H10 H -0.1863 0.4138 1.1160
C15 C -0.0843(4) 0.4636(2) 1.2690(5)
H11 H -0.0509 0.4302 1.3308
H12 H -0.1390 0.4802 1.3085
H13 H -0.0325 0.4944 1.2687
C16 C 0.2902(2) 0.34076(11) 1.1509(3)
C17 C 0.3568(2) 0.34417(13) 1.2950(4)
H14 H 0.4171 0.3200 1.3219
C18 C 0.3345(3) 0.38301(15) 1.3983(4)
H15 H 0.3778 0.3846 1.4962
C19 C 0.2470(3) 0.41941(13) 1.3540(3)
C20 C 0.1793(2) 0.41673(12) 1.2119(3)
H16 H 0.1211 0.4426 1.1856
C21 C 0.1973(2) 0.37566(11) 1.1071(3)
C22 C 0.13011(19) 0.36617(10) 0.9537(3)
C23 C 0.17516(18) 0.33615(10) 0.8573(3)
C24 C 0.28661(19) 0.31391(11) 0.8968(3)
H17 H 0.2877 0.2761 0.8411
C25 C 0.36532(18) 0.35703(11) 0.8585(3)
C26 C 0.4523(2) 0.33511(14) 0.8189(3)
H18 H 0.4615 0.2934 0.8129
C27 C 0.5259(2) 0.37407(16) 0.7880(4)
H19 H 0.5839 0.3582 0.7612
C28 C 0.5153(2) 0.43604(15) 0.7960(3)
C29 C 0.5934(3) 0.47864(18) 0.7569(5)
H20 H 0.5859 0.5184 0.7957
H21 H 0.5803 0.4807 0.6496
H22 H 0.6640 0.4640 0.8006
C30 C 0.4285(2) 0.45719(13) 0.8353(3)
H23 H 0.4195 0.4989 0.8415
C31 C 0.3539(2) 0.41899(12) 0.8662(3)
H24 H 0.2956 0.4351 0.8922
Cl1 Cl 0.22041(9) 0.47092(5) 1.48087(10)
N1 N -0.17655(17) 0.37309(11) 0.5607(3)
H25 H -0.1983 0.3986 0.6161
N2 N 0.10320(15) 0.32991(8) 0.7208(2)
O1 O -0.14529(19) 0.42482(13) 0.8337(3)
O2 O -0.04686(16) 0.41316(11) 1.0630(2)
O3 O 0.31673(14) 0.29909(8) 1.0559(2)
loop_
_geom_bond_atom_site_label_1
_geom_bond_atom_site_label_2
_geom_bond_site_symmetry_1
_geom_bond_site_symmetry_2
C1 C2 1_555 1_555
C2 H1 1_555 1_555
C3 C2 1_555 1_555
H2 C3 1_555 1_555
C4 C3 1_555 1_555
H3 C4 1_555 1_555
C5 C4 1_555 1_555
H4 C5 1_555 1_555
C6 C1 1_555 1_555
C7 C6 1_555 1_555
C8 C7 1_555 1_555
C9 C7 1_555 1_555
H5 C9 1_555 1_555
H6 C9 1_555 1_555
C10 C9 1_555 1_555
H7 C10 1_555 1_555
H8 C10 1_555 1_555
C11 C8 1_555 1_555
C12 C11 1_555 1_555
C13 C12 1_555 1_555
C14 H9 1_555 1_555
H10 C14 1_555 1_555
C15 C14 1_555 1_555
H11 C15 1_555 1_555
H12 C15 1_555 1_555
H13 C15 1_555 1_555
C16 C17 1_555 1_555
C17 H14 1_555 1_555
C18 C17 1_555 1_555
H15 C18 1_555 1_555
C19 C18 1_555 1_555
C20 C19 1_555 1_555
H16 C20 1_555 1_555
C21 C16 1_555 1_555
C22 C12 1_555 1_555
C23 C22 1_555 1_555
C24 C23 1_555 1_555
H17 C24 1_555 1_555
C25 C24 1_555 1_555
C26 C25 1_555 1_555
H18 C26 1_555 1_555
C27 C26 1_555 1_555
H19 C27 1_555 1_555
C28 C27 1_555 1_555
C29 C28 1_555 1_555
H20 C29 1_555 1_555
H21 C29 1_555 1_555
H22 C29 1_555 1_555
C30 C28 1_555 1_555
H23 C30 1_555 1_555
C31 C25 1_555 1_555
H24 C31 1_555 1_555
Cl1 C19 1_555 1_555
N1 C1 1_555 1_555
H25 N1 1_555 1_555
N2 C10 1_555 1_555
O1 C13 1_555 1_555
O2 C13 1_555 1_555
O3 C16 1_555 1_555
C5 C6 1_555 1_555
C8 N1 1_555 1_555
C11 N2 1_555 1_555
C14 O2 1_555 1_555
C20 C21 1_555 1_555
C21 C22 1_555 1_555
C23 N2 1_555 1_555
C24 O3 1_555 1_555
C30 C31 1_555 1_555

#END
