
#######################################################################
#
#                 Cambridge Crystallographic Data Centre
#                                CCDC 
#
#######################################################################
#
# If this CIF has been generated from an entry in the Cambridge 
# Structural Database, then it will include bibliographic, chemical, 
# crystal, experimental, refinement or atomic coordinate data resulting 
# from the CCDC's data processing and validation procedures.
#
#######################################################################

data_SIKJAA
_chemical_formula_moiety         'C31 H25 Cl1 N2 O4'
_chemical_name_systematic        
"methyl 2-chloro-11-methoxy-6-(4-methylphenyl)-6,8,9,14-tetrahydro[1]benzopyrano[4',3':2,3]indolizino[8,7-b]indole-15-carboxylate"
_symmetry_cell_setting           monoclinic
_symmetry_space_group_name_H-M   'P 21/c'
_symmetry_Int_Tables_number      14
_space_group_name_Hall           '-P 2ybc'
loop_
_symmetry_equiv_pos_site_id
_symmetry_equiv_pos_as_xyz
1 x,y,z
2 -x,1/2+y,1/2-z
3 -x,-y,-z
4 x,1/2-y,1/2+z
_cell_length_a                   15.2082(10)
_cell_length_b                   10.9099(6)
_cell_length_c                   15.7373(11)
_cell_angle_alpha                90
_cell_angle_beta                 106.780(2)
_cell_angle_gamma                90
_cell_volume                     2499.95
_exptl_crystal_colour            colorless
_exptl_crystal_description       block
_cell_formula_units_Z            4
loop_
_atom_site_label
_atom_site_type_symbol
_atom_site_fract_x
_atom_site_fract_y
_atom_site_fract_z
C1 C 0.69213(14) 0.53986(19) 0.72401(13)
C2 C 0.77406(15) 0.6048(2) 0.74397(15)
H1 H 0.7799 0.6754 0.7130
C3 C 0.84602(15) 0.5608(2) 0.81109(15)
H2 H 0.9017 0.6026 0.8260
C4 C 0.83756(15) 0.4549(2) 0.85759(15)
C5 C 0.91016(17) 0.3301(3) 0.98173(17)
H3 H 0.8663 0.3527 1.0123
H4 H 0.9691 0.3178 1.0241
H5 H 0.8908 0.2556 0.9492
C6 C 0.75742(15) 0.3889(2) 0.83768(15)
H6 H 0.7528 0.3178 0.8687
C7 C 0.68207(14) 0.43229(19) 0.76867(14)
C8 C 0.59030(14) 0.38922(19) 0.72880(14)
C9 C 0.54919(14) 0.47221(18) 0.66377(13)
C10 C 0.53650(15) 0.2841(2) 0.74830(15)
H7 H 0.5092 0.3073 0.7946
H8 H 0.5772 0.2153 0.7696
C11 C 0.46158(15) 0.2465(2) 0.66596(15)
H9 H 0.4886 0.2020 0.6264
H10 H 0.4189 0.1922 0.6826
C12 C 0.45495(14) 0.46217(18) 0.61095(13)
C13 C 0.39032(13) 0.53916(17) 0.55521(13)
C14 C 0.41078(15) 0.66411(19) 0.53629(13)
C15 C 0.35228(18) 0.8621(2) 0.49503(19)
H11 H 0.3987 0.9006 0.5422
H12 H 0.2959 0.9072 0.4840
H13 H 0.3718 0.8609 0.4422
C16 C 0.16727(15) 0.1235(2) 0.42277(16)
H14 H 0.1150 0.1305 0.4418
C17 C 0.16443(16) 0.0540(2) 0.34878(16)
H15 H 0.1100 0.0146 0.3190
C18 C 0.24035(17) 0.0413(2) 0.31748(15)
C19 C 0.23757(18) -0.0356(3) 0.23661(17)
H16 H 0.1968 0.0016 0.1848
H17 H 0.2160 -0.1164 0.2441
H18 H 0.2981 -0.0407 0.2297
C20 C 0.31954(16) 0.0998(2) 0.36384(17)
H19 H 0.3717 0.0928 0.3447
C21 C 0.32341(15) 0.1693(2) 0.43863(16)
H20 H 0.3782 0.2072 0.4689
C22 C 0.24713(14) 0.18310(18) 0.46900(14)
C23 C 0.25076(14) 0.26075(19) 0.54970(15)
H21 H 0.2637 0.2072 0.6018
C24 C 0.32269(14) 0.35922(19) 0.56668(14)
C25 C 0.30570(13) 0.47170(18) 0.52727(13)
C26 C 0.21293(13) 0.49633(19) 0.47004(13)
C27 C 0.18714(14) 0.5899(2) 0.40744(14)
H22 H 0.2316 0.6417 0.3972
C28 C 0.09585(15) 0.6061(2) 0.36055(14)
C29 C 0.02920(16) 0.5307(2) 0.37316(17)
H23 H -0.0322 0.5441 0.3425
C30 C 0.05388(16) 0.4346(2) 0.43180(18)
H24 H 0.0090 0.3814 0.4395
C31 C 0.14406(15) 0.4165(2) 0.47900(15)
Cl1 Cl 0.06473(4) 0.72553(6) 0.28460(4)
N1 N 0.60989(11) 0.56345(15) 0.66054(11)
H25 H 0.5987 0.6251 0.6250
N2 N 0.41164(11) 0.35363(15) 0.61934(11)
O1 O 0.91635(10) 0.42344(17) 0.92292(11)
O2 O 0.48553(10) 0.70281(13) 0.53683(10)
O3 O 0.33800(10) 0.73807(13) 0.52016(10)
O4 O 0.16368(10) 0.32075(13) 0.53961(10)
loop_
_geom_bond_atom_site_label_1
_geom_bond_atom_site_label_2
_geom_bond_site_symmetry_1
_geom_bond_site_symmetry_2
C1 C2 1_555 1_555
C2 H1 1_555 1_555
C3 C2 1_555 1_555
H2 C3 1_555 1_555
C4 C3 1_555 1_555
C5 H3 1_555 1_555
H4 C5 1_555 1_555
H5 C5 1_555 1_555
C6 C4 1_555 1_555
H6 C6 1_555 1_555
C7 C1 1_555 1_555
C8 C7 1_555 1_555
C9 C8 1_555 1_555
C10 C8 1_555 1_555
H7 C10 1_555 1_555
H8 C10 1_555 1_555
C11 C10 1_555 1_555
H9 C11 1_555 1_555
H10 C11 1_555 1_555
C12 C9 1_555 1_555
C13 C12 1_555 1_555
C14 C13 1_555 1_555
C15 H11 1_555 1_555
H12 C15 1_555 1_555
H13 C15 1_555 1_555
C16 H14 1_555 1_555
C17 C16 1_555 1_555
H15 C17 1_555 1_555
C18 C17 1_555 1_555
C19 C18 1_555 1_555
H16 C19 1_555 1_555
H17 C19 1_555 1_555
H18 C19 1_555 1_555
C20 C18 1_555 1_555
H19 C20 1_555 1_555
C21 C20 1_555 1_555
H20 C21 1_555 1_555
C22 C16 1_555 1_555
C23 C22 1_555 1_555
H21 C23 1_555 1_555
C24 C23 1_555 1_555
C25 C13 1_555 1_555
C26 C25 1_555 1_555
C27 C26 1_555 1_555
H22 C27 1_555 1_555
C28 C27 1_555 1_555
C29 C28 1_555 1_555
H23 C29 1_555 1_555
C30 C29 1_555 1_555
H24 C30 1_555 1_555
C31 C26 1_555 1_555
Cl1 C28 1_555 1_555
N1 C1 1_555 1_555
H25 N1 1_555 1_555
N2 C11 1_555 1_555
O1 C4 1_555 1_555
O2 C14 1_555 1_555
O3 C14 1_555 1_555
O4 C23 1_555 1_555
C5 O1 1_555 1_555
C6 C7 1_555 1_555
C9 N1 1_555 1_555
C12 N2 1_555 1_555
C15 O3 1_555 1_555
C21 C22 1_555 1_555
C24 C25 1_555 1_555
C24 N2 1_555 1_555
C30 C31 1_555 1_555
C31 O4 1_555 1_555

#END
