
#######################################################################
#
#                 Cambridge Crystallographic Data Centre
#                                CCDC 
#
#######################################################################
#
# If this CIF has been generated from an entry in the Cambridge 
# Structural Database, then it will include bibliographic, chemical, 
# crystal, experimental, refinement or atomic coordinate data resulting 
# from the CCDC's data processing and validation procedures.
#
#######################################################################

data_SIKMIL
_chemical_formula_moiety         'C14 H19 N1 O7'
_chemical_name_systematic        
'2-({[3,4-dihydroxy-5-(hydroxymethyl)-2-methoxyoxolan-2-yl]methyl}amino)benzoic acid'
_symmetry_cell_setting           orthorhombic
_symmetry_space_group_name_H-M   'P 21 21 21'
_symmetry_Int_Tables_number      19
_space_group_name_Hall           'P 2ac 2ab'
loop_
_symmetry_equiv_pos_site_id
_symmetry_equiv_pos_as_xyz
1 x,y,z
2 1/2-x,-y,1/2+z
3 1/2+x,1/2-y,-z
4 -x,1/2+y,1/2-z
_cell_length_a                   6.84700(10)
_cell_length_b                   10.83630(10)
_cell_length_c                   19.7908(2)
_cell_angle_alpha                90
_cell_angle_beta                 90
_cell_angle_gamma                90
_cell_volume                     1468.4
_exptl_crystal_description       block
_cell_formula_units_Z            4
loop_
_atom_site_label
_atom_site_type_symbol
_atom_site_fract_x
_atom_site_fract_y
_atom_site_fract_z
O1 O 0.67491(14) -0.29871(8) 0.74598(5)
H1 H 0.6640 -0.3719 0.7558
O2 O 0.42082(15) -0.22414(8) 0.61115(4)
O3 O 0.74464(14) -0.16054(8) 0.62260(5)
O4 O 0.35175(15) -0.04302(8) 0.72431(5)
H2 H 0.2519 -0.0801 0.7138
O5 O 1.09138(17) 0.31982(10) 0.66178(7)
H3 H 1.1803 0.2882 0.6835
N1 N 0.63947(19) 0.07951(10) 0.60880(7)
O6 O 0.08884(17) -0.22459(12) 0.69402(8)
H4 H -0.0294 -0.2301 0.6881
O7 O 0.99224(18) 0.12527(9) 0.65728(7)
C1 C 0.48793(19) -0.24987(11) 0.72899(6)
H5 H 0.3992 -0.2552 0.7677
C2 C 0.39581(19) -0.31025(11) 0.66655(7)
H6 H 0.4643 -0.3874 0.6562
C3 C 0.6335(2) 0.20115(12) 0.59158(6)
C4 C 0.51634(19) -0.11562(11) 0.70772(6)
H7 H 0.6341 -0.0815 0.7288
C5 C 0.4937(2) -0.01173(12) 0.59130(7)
H8 H 0.4963 -0.0284 0.5432
H9 H 0.3644 0.0172 0.6034
C6 C 0.54485(18) -0.12756(11) 0.63097(6)
C7 C 0.7890(2) 0.28106(11) 0.60913(6)
C8 C 0.4721(2) 0.25111(13) 0.55746(7)
H10 H 0.3679 0.2005 0.5456
C9 C 0.1800(2) -0.33522(14) 0.67350(9)
H11 H 0.1266 -0.3625 0.6306
H12 H 0.1578 -0.3994 0.7068
C10 C 0.6190(3) 0.45274(13) 0.55815(8)
H13 H 0.6141 0.5358 0.5465
C11 C 0.7770(2) 0.40627(12) 0.59223(7)
H14 H 0.8783 0.4590 0.6044
C12 C 0.9633(2) 0.23357(13) 0.64428(7)
C13 C 0.4673(3) 0.37469(14) 0.54137(8)
H15 H 0.3593 0.4063 0.5187
C14 C 0.8038(3) -0.18917(16) 0.55511(9)
H16 H 0.7895 -0.1173 0.5272
H17 H 0.7236 -0.2545 0.5377
H18 H 0.9380 -0.2149 0.5552
H19 H 0.755(3) 0.0561(16) 0.6245(9)
loop_
_geom_bond_atom_site_label_1
_geom_bond_atom_site_label_2
_geom_bond_site_symmetry_1
_geom_bond_site_symmetry_2
O1 H1 1_555 1_555
O2 C2 1_555 1_555
O3 C6 1_555 1_555
O4 H2 1_555 1_555
O5 H3 1_555 1_555
N1 C3 1_555 1_555
O6 H4 1_555 1_555
O7 C12 1_555 1_555
C1 O1 1_555 1_555
H5 C1 1_555 1_555
C2 C1 1_555 1_555
H6 C2 1_555 1_555
C3 C7 1_555 1_555
C4 O4 1_555 1_555
H7 C4 1_555 1_555
C5 N1 1_555 1_555
H8 C5 1_555 1_555
H9 C5 1_555 1_555
C6 O2 1_555 1_555
C7 C11 1_555 1_555
C8 C3 1_555 1_555
H10 C8 1_555 1_555
C9 O6 1_555 1_555
H11 C9 1_555 1_555
H12 C9 1_555 1_555
C10 H13 1_555 1_555
C11 C10 1_555 1_555
H14 C11 1_555 1_555
C12 O5 1_555 1_555
C13 C8 1_555 1_555
H15 C13 1_555 1_555
C14 O3 1_555 1_555
H16 C14 1_555 1_555
H17 C14 1_555 1_555
H18 C14 1_555 1_555
H19 N1 1_555 1_555
C1 C4 1_555 1_555
C2 C9 1_555 1_555
C4 C6 1_555 1_555
C5 C6 1_555 1_555
C7 C12 1_555 1_555
C10 C13 1_555 1_555

#END
