
#######################################################################
#
#                 Cambridge Crystallographic Data Centre
#                                CCDC 
#
#######################################################################
#
# If this CIF has been generated from an entry in the Cambridge 
# Structural Database, then it will include bibliographic, chemical, 
# crystal, experimental, refinement or atomic coordinate data resulting 
# from the CCDC's data processing and validation procedures.
#
#######################################################################

data_SIKNEH
_chemical_formula_moiety         'C22 H19 N3 O2'
_chemical_name_systematic        
N-(Biphenyl-2-yl)-6,7-dimethoxyquinazolin-4-amine
_symmetry_cell_setting           triclinic
_symmetry_space_group_name_H-M   'P -1'
_symmetry_Int_Tables_number      2
_space_group_name_Hall           '-P 1'
loop_
_symmetry_equiv_pos_site_id
_symmetry_equiv_pos_as_xyz
1 x,y,z
2 -x,-y,-z
_cell_length_a                   9.0750(6)
_cell_length_b                   9.9130(6)
_cell_length_c                   9.9979(7)
_cell_angle_alpha                99.285(2)
_cell_angle_beta                 92.699(2)
_cell_angle_gamma                95.589(2)
_cell_volume                     881.604
_exptl_crystal_colour            'light yellow'
_exptl_crystal_description       rod
_cell_formula_units_Z            2
loop_
_atom_site_label
_atom_site_type_symbol
_atom_site_fract_x
_atom_site_fract_y
_atom_site_fract_z
O1 O 0.1338(2) 0.1141(2) 0.95313(18)
O2 O 0.3421(2) -0.0328(2) 0.87571(19)
N1 N -0.0635(2) 0.2863(2) 0.5194(2)
H1 H -0.0856 0.2972 0.6048
N2 N 0.0795(2) 0.1784(2) 0.3552(2)
N3 N 0.2701(2) 0.0415(2) 0.4130(2)
C1 C -0.1419(3) 0.3693(3) 0.4463(3)
C2 C -0.1098(3) 0.3896(3) 0.3155(3)
H2 H -0.0359 0.3420 0.2698
C3 C -0.1853(3) 0.4789(3) 0.2522(3)
H3 H -0.1631 0.4916 0.1629
C4 C -0.2925(3) 0.5499(3) 0.3169(3)
H4 H -0.3449 0.6101 0.2723
C5 C -0.3224(3) 0.5321(3) 0.4484(3)
H5 H -0.3935 0.5833 0.4945
C6 C -0.2508(3) 0.4410(3) 0.5142(3)
C7 C -0.2899(3) 0.4239(3) 0.6546(3)
C8 C -0.2853(3) 0.5383(3) 0.7579(3)
H6 H -0.2570 0.6275 0.7383
C9 C -0.3213(3) 0.5234(3) 0.8876(3)
H7 H -0.3172 0.6021 0.9564
C10 C -0.3634(3) 0.3946(3) 0.9183(3)
H8 H -0.3877 0.3846 1.0078
C11 C -0.3696(3) 0.2807(3) 0.8176(3)
H9 H -0.3984 0.1920 0.8380
C12 C -0.3342(3) 0.2951(3) 0.6867(3)
H10 H -0.3403 0.2161 0.6181
C13 C 0.0434(3) 0.2025(2) 0.4839(3)
C14 C 0.1898(3) 0.0976(3) 0.3296(3)
H11 H 0.2124 0.0788 0.2371
C15 C 0.2310(3) 0.0641(3) 0.5456(3)
C16 C 0.3109(3) 0.0050(3) 0.6428(3)
H12 H 0.3904 -0.0467 0.6155
C17 C 0.2749(3) 0.0215(3) 0.7749(3)
C18 C 0.1581(3) 0.1022(3) 0.8180(3)
C19 C 0.0805(3) 0.1600(3) 0.7261(3)
H13 H 0.0024 0.2129 0.7548
C20 C 0.1152(3) 0.1420(3) 0.5875(3)
C21 C 0.0098(3) 0.1843(3) 0.9983(3)
H14 H -0.0003 0.1812 1.0949
H15 H -0.0808 0.1394 0.9461
H16 H 0.0257 0.2802 0.9847
C22 C 0.4514(3) -0.1236(3) 0.8351(3)
H17 H 0.4968 -0.1522 0.9155
H18 H 0.5281 -0.0760 0.7886
H19 H 0.4042 -0.2048 0.7733
loop_
_geom_bond_atom_site_label_1
_geom_bond_atom_site_label_2
_geom_bond_site_symmetry_1
_geom_bond_site_symmetry_2
O1 C18 1_555 1_555
O2 C17 1_555 1_555
N1 H1 1_555 1_555
N2 C13 1_555 1_555
N3 C14 1_555 1_555
C1 N1 1_555 1_555
C2 C1 1_555 1_555
H2 C2 1_555 1_555
C3 C2 1_555 1_555
H3 C3 1_555 1_555
C4 C3 1_555 1_555
H4 C4 1_555 1_555
C5 C4 1_555 1_555
H5 C5 1_555 1_555
C6 C1 1_555 1_555
C7 C6 1_555 1_555
C8 C7 1_555 1_555
H6 C8 1_555 1_555
C9 C8 1_555 1_555
H7 C9 1_555 1_555
C10 C9 1_555 1_555
H8 C10 1_555 1_555
C11 C10 1_555 1_555
H9 C11 1_555 1_555
C12 C7 1_555 1_555
H10 C12 1_555 1_555
C13 N1 1_555 1_555
C14 N2 1_555 1_555
H11 C14 1_555 1_555
C15 N3 1_555 1_555
C16 C15 1_555 1_555
H12 C16 1_555 1_555
C17 C16 1_555 1_555
C18 C17 1_555 1_555
C19 C18 1_555 1_555
H13 C19 1_555 1_555
C20 C13 1_555 1_555
C21 O1 1_555 1_555
H14 C21 1_555 1_555
H15 C21 1_555 1_555
H16 C21 1_555 1_555
C22 O2 1_555 1_555
H17 C22 1_555 1_555
H18 C22 1_555 1_555
H19 C22 1_555 1_555
C5 C6 1_555 1_555
C11 C12 1_555 1_555
C15 C20 1_555 1_555
C19 C20 1_555 1_555

#END
