
#######################################################################
#
#                 Cambridge Crystallographic Data Centre
#                                CCDC 
#
#######################################################################
#
# If this CIF has been generated from an entry in the Cambridge 
# Structural Database, then it will include bibliographic, chemical, 
# crystal, experimental, refinement or atomic coordinate data resulting 
# from the CCDC's data processing and validation procedures.
#
#######################################################################

data_SIKQUY
_chemical_formula_moiety         'C10 H14 Cl2 F1 N1 O2 S1'
_chemical_name_systematic        (+)-N-Fluoro-2,10-(3,3-dichlorocamphorsultam)
_symmetry_cell_setting           orthorhombic
_symmetry_space_group_name_H-M   'P 21 21 21'
_symmetry_Int_Tables_number      19
_space_group_name_Hall           'P 2ac 2ab'
loop_
_symmetry_equiv_pos_site_id
_symmetry_equiv_pos_as_xyz
1 x,y,z
2 1/2-x,-y,1/2+z
3 1/2+x,1/2-y,-z
4 -x,1/2+y,1/2-z
_cell_length_a                   8.417(2)
_cell_length_b                   12.245(2)
_cell_length_c                   12.387(1)
_cell_angle_alpha                90
_cell_angle_beta                 90
_cell_angle_gamma                90
_cell_volume                     1276.68
_chemical_melting_point          161-162deg.C
_cell_formula_units_Z            4
loop_
_atom_site_label
_atom_site_type_symbol
_atom_site_fract_x
_atom_site_fract_y
_atom_site_fract_z
S1 S 0.1165(2) 0.1875(1) 0.0348(1)
Cl1 Cl 0.5585(2) 0.2166(2) 0.3366(4)
Cl2 Cl 0.3103(2) 0.0627(1) 0.3596(1)
C1 C 0.3088(6) 0.2208(4) 0.1955(4)
C2 C 0.3480(6) 0.1995(5) 0.3165(4)
C3 C 0.2472(8) 0.2837(5) 0.3747(5)
C4 C 0.3164(9) 0.3986(5) 0.3554(6)
C5 C 0.2816(8) 0.4169(4) 0.2335(5)
C6 C 0.1859(6) 0.3146(4) 0.2017(4)
C7 C 0.0912(6) 0.2882(4) 0.3071(5)
C8 C 0.0992(7) 0.3196(5) 0.0944(5)
C9 C -0.0097(7) 0.1849(5) 0.3054(5)
C10 C -0.0205(9) 0.3800(5) 0.3402(6)
N1 N 0.2332(6) 0.1304(3) 0.1378(4)
F1 F 0.3550(5) 0.0709(3) 0.0845(3)
O1 O -0.0293(5) 0.1298(3) 0.0351(4)
O2 O 0.2070(6) 0.1897(4) -0.0627(3)
H1 H 0.4037 0.2352 0.1559
H2 H 0.2316 0.2666 0.4500
H3 H 0.4240 0.4003 0.3710
H4 H 0.2614 0.4523 0.3998
H5 H 0.3734 0.4220 0.1904
H6 H 0.2170 0.4822 0.2195
H7 H -0.0131 0.3360 0.1066
H8 H 0.1413 0.3740 0.0496
H9 H -0.0680 0.1790 0.3723
H10 H 0.0557 0.1232 0.2977
H11 H -0.0847 0.1879 0.2479
H12 H -0.1052 0.3876 0.2878
H13 H 0.0369 0.4479 0.3407
H14 H -0.0651 0.3677 0.4085
loop_
_geom_bond_atom_site_label_1
_geom_bond_atom_site_label_2
_geom_bond_site_symmetry_1
_geom_bond_site_symmetry_2
S1 C8 1_555 1_555
Cl1 C2 1_555 1_555
Cl2 C2 1_555 1_555
C1 C2 1_555 1_555
C2 C3 1_555 1_555
C3 C4 1_555 1_555
C4 C5 1_555 1_555
C5 C6 1_555 1_555
C6 C1 1_555 1_555
C7 C3 1_555 1_555
C8 C6 1_555 1_555
C9 C7 1_555 1_555
C10 C7 1_555 1_555
N1 S1 1_555 1_555
F1 N1 1_555 1_555
O1 S1 1_555 1_555
O2 S1 1_555 1_555
H1 C1 1_555 1_555
H2 C3 1_555 1_555
H3 C4 1_555 1_555
H4 C4 1_555 1_555
H5 C5 1_555 1_555
H6 C5 1_555 1_555
H7 C8 1_555 1_555
H8 C8 1_555 1_555
H9 C9 1_555 1_555
H10 C9 1_555 1_555
H11 C9 1_555 1_555
H12 C10 1_555 1_555
H13 C10 1_555 1_555
H14 C10 1_555 1_555
C1 N1 1_555 1_555
C6 C7 1_555 1_555

#END
