
#######################################################################
#
#                 Cambridge Crystallographic Data Centre
#                                CCDC 
#
#######################################################################
#
# If this CIF has been generated from an entry in the Cambridge 
# Structural Database, then it will include bibliographic, chemical, 
# crystal, experimental, refinement or atomic coordinate data resulting 
# from the CCDC's data processing and validation procedures.
#
#######################################################################

data_SILDUP
_chemical_formula_moiety         'C11 H11 F1 N2 O2'
_chemical_name_systematic        
2-azaniumyl-3-(5-fluoro-1H-indol-3-yl)propanoate
_symmetry_cell_setting           orthorhombic
_symmetry_space_group_name_H-M   'P 21 21 21'
_symmetry_Int_Tables_number      19
_space_group_name_Hall           'P 2ac 2ab'
loop_
_symmetry_equiv_pos_site_id
_symmetry_equiv_pos_as_xyz
1 x,y,z
2 1/2-x,-y,1/2+z
3 -x,1/2+y,1/2-z
4 1/2+x,1/2-y,-z
_cell_length_a                   4.9666(4)
_cell_length_b                   5.7741(4)
_cell_length_c                   35.618(2)
_cell_angle_alpha                90
_cell_angle_beta                 90
_cell_angle_gamma                90
_cell_volume                     1021.44
_exptl_crystal_colour            colorless
_exptl_crystal_description       plate
_cell_formula_units_Z            4
loop_
_atom_site_label
_atom_site_type_symbol
_atom_site_fract_x
_atom_site_fract_y
_atom_site_fract_z
F1 F 0.0129(6) 0.1883(5) 0.29815(7)
O1 O 0.3370(8) -0.0809(6) 0.43672(9)
O2 O 0.4574(6) 0.0557(5) 0.49292(7)
N1 N 0.7769(8) 0.7923(8) 0.34743(12)
H1 H 0.854(12) 0.908(11) 0.3382(15)
C1 C 0.8534(9) 0.6838(9) 0.38013(12)
H2 H 0.988121 0.738268 0.396878
C2 C 0.7066(8) 0.4864(8) 0.38489(11)
C3 C 0.5318(8) 0.4696(7) 0.35305(10)
C4 C 0.3400(9) 0.3036(8) 0.34198(11)
H3 H 0.305421 0.169062 0.356560
C5 C 0.2065(9) 0.3459(8) 0.30930(12)
C6 C 0.2484(10) 0.5384(10) 0.28654(12)
H4 H 0.146204 0.558356 0.264228
C7 C 0.4391(10) 0.6998(9) 0.29665(12)
H5 H 0.474435 0.831089 0.281351
C8 C 0.5793(9) 0.6638(8) 0.33026(12)
N2 N 0.4541(8) 0.5005(6) 0.46793(9)
H6 H 0.416(11) 0.656(9) 0.4584(14)
H7 H 0.592(12) 0.518(10) 0.4831(16)
H8 H 0.331(10) 0.462(8) 0.4842(13)
C9 C 0.4119(8) 0.0750(8) 0.45819(11)
C10 C 0.4536(8) 0.3113(7) 0.43969(10)
H9 H 0.299268 0.338840 0.422220
C11 C 0.7139(8) 0.3164(9) 0.41639(11)
H10 H 0.866526 0.355012 0.433128
H11 H 0.746753 0.159923 0.405998
loop_
_geom_bond_atom_site_label_1
_geom_bond_atom_site_label_2
_geom_bond_site_symmetry_1
_geom_bond_site_symmetry_2
F1 C5 1_555 1_555
O1 C9 1_555 1_555
O2 C9 1_555 1_555
N1 H1 1_555 1_555
C1 N1 1_555 1_555
H2 C1 1_555 1_555
C2 C1 1_555 1_555
C3 C2 1_555 1_555
C4 C3 1_555 1_555
H3 C4 1_555 1_555
C5 C4 1_555 1_555
C6 C5 1_555 1_555
H4 C6 1_555 1_555
C7 C6 1_555 1_555
H5 C7 1_555 1_555
C8 N1 1_555 1_555
N2 H6 1_555 1_555
H7 N2 1_555 1_555
H8 N2 1_555 1_555
C9 C10 1_555 1_555
C10 N2 1_555 1_555
H9 C10 1_555 1_555
C11 C2 1_555 1_555
H10 C11 1_555 1_555
H11 C11 1_555 1_555
C3 C8 1_555 1_555
C7 C8 1_555 1_555
C10 C11 1_555 1_555

#END
