
#######################################################################
#
#                 Cambridge Crystallographic Data Centre
#                                CCDC 
#
#######################################################################
#
# If this CIF has been generated from an entry in the Cambridge 
# Structural Database, then it will include bibliographic, chemical, 
# crystal, experimental, refinement or atomic coordinate data resulting 
# from the CCDC's data processing and validation procedures.
#
#######################################################################

data_SILDOG
_chemical_compound_source        'Fruits of Phellodendron chinense Schneid'
_chemical_formula_moiety         'C30 H48 O3'
_chemical_name_systematic        Niloticin
_symmetry_cell_setting           monoclinic
_symmetry_space_group_name_H-M   'C 2'
_symmetry_Int_Tables_number      5
_space_group_name_Hall           'C 2y'
loop_
_symmetry_equiv_pos_site_id
_symmetry_equiv_pos_as_xyz
1 x,y,z
2 1/2+x,1/2+y,z
3 -x,y,-z
4 1/2-x,1/2+y,-z
_cell_length_a                   24.169(2)
_cell_length_b                   6.811(1)
_cell_length_c                   16.573(2)
_cell_angle_alpha                90
_cell_angle_beta                 93.48(1)
_cell_angle_gamma                90
_cell_volume                     2723.13
_exptl_crystal_colour            colorless
_chemical_melting_point          149-151deg.C
_cell_formula_units_Z            4
loop_
_atom_site_label
_atom_site_type_symbol
_atom_site_fract_x
_atom_site_fract_y
_atom_site_fract_z
O1 O 0.4707(1) 0.0000 0.8652(2)
O2 O 0.2460(1) 0.5530(6) 0.1333(2)
O3 O 0.2971(1) 0.8231(6) 0.0048(1)
C1 C 0.3690(2) 0.1540(7) 0.7264(2)
C2 C 0.3824(2) 0.1035(8) 0.8159(2)
C3 C 0.4428(2) 0.1333(3) 0.8373(2)
C4 C 0.4659(1) 0.3360(8) 0.8209(2)
C5 C 0.4465(1) 0.4015(6) 0.7333(2)
C6 C 0.4645(1) 0.6107(7) 0.7143(2)
C7 C 0.4427(1) 0.6786(6) 0.6326(2)
C8 C 0.4045(1) 0.5879(6) 0.5862(2)
C9 C 0.3814(1) 0.3914(6) 0.6120(2)
C10 C 0.3846(1) 0.3668(6) 0.7056(2)
C11 C 0.3240(1) 0.3492(7) 0.5707(2)
C12 C 0.3206(1) 0.3713(7) 0.4782(2)
C13 C 0.3638(1) 0.5126(6) 0.4448(2)
C14 C 0.3788(1) 0.6740(6) 0.5088(2)
C15 C 0.4141(1) 0.8146(6) 0.4609(2)
C16 C 0.3854(1) 0.8122(6) 0.3750(2)
C17 C 0.3442(1) 0.6386(6) 0.3712(2)
C18 C 0.4165(1) 0.3966(6) 0.4260(2)
C19 C 0.3452(1) 0.5117(8) 0.7433(2)
C20 C 0.3357(1) 0.5469(6) 0.2863(2)
C21 C 0.3004(2) 0.3629(7) 0.2832(2)
C22 C 0.3116(2) 0.7047(7) 0.2281(2)
C23 C 0.2986(1) 0.6522(7) 0.1400(2)
C24 C 0.2949(1) 0.8372(7) 0.0917(2)
C25 C 0.3415(1) 0.9286(7) 0.0517(2)
C26 C 0.3413(2) 1.1454(8) 0.0419(2)
C27 C 0.3971(2) 0.8290(10) 0.0506(3)
C28 C 0.4474(2) 0.4733(8) 0.8888(2)
C29 C 0.5295(2) 0.3280(10) 0.8285(3)
C30 C 0.3265(2) 0.7899(7) 0.5316(2)
H1 H 0.237(2) 0.513(9) 0.076(2)
H2 H 0.388(2) 0.066(8) 0.692(2)
H3 H 0.327(2) 0.141(8) 0.713(2)
H4 H 0.359(2) 0.190(8) 0.853(2)
H5 H 0.371(2) -0.037(9) 0.826(2)
H6 H 0.466(2) 0.306(8) 0.700(2)
H7 H 0.451(2) 0.701(8) 0.757(3)
H8 H 0.506(2) 0.617(8) 0.719(3)
H9 H 0.459(2) 0.803(8) 0.611(3)
H10 H 0.406(2) 0.284(8) 0.590(2)
H11 H 0.313(2) 0.211(8) 0.585(2)
H12 H 0.297(2) 0.440(8) 0.595(2)
H13 H 0.324(2) 0.242(8) 0.452(2)
H14 H 0.282(2) 0.428(8) 0.461(2)
H15 H 0.414(2) 0.951(8) 0.485(2)
H16 H 0.453(2) 0.764(8) 0.461(2)
H17 H 0.365(2) 0.941(8) 0.365(2)
H18 H 0.413(2) 0.796(8) 0.332(2)
H19 H 0.305(2) 0.678(8) 0.380(2)
H20 H 0.444(2) 0.489(9) 0.405(2)
H21 H 0.407(2) 0.298(8) 0.385(3)
H22 H 0.432(2) 0.337(8) 0.477(2)
H23 H 0.356(2) 0.648(9) 0.729(3)
H24 H 0.347(2) 0.493(8) 0.802(2)
H25 H 0.306(2) 0.485(9) 0.720(2)
H26 H 0.373(2) 0.502(9) 0.268(2)
H27 H 0.294(2) 0.312(9) 0.228(2)
H28 H 0.261(2) 0.403(8) 0.301(2)
H29 H 0.315(2) 0.262(8) 0.320(3)
H30 H 0.277(2) 0.753(8) 0.251(3)
H31 H 0.339(2) 0.817(9) 0.231(2)
H32 H 0.330(2) 0.564(8) 0.119(3)
H33 H 0.270(2) 0.903(8) 0.128(3)
H34 H 0.370(2) 1.205(9) 0.076(3)
H35 H 0.303(2) 1.201(9) 0.057(2)
H36 H 0.345(2) 1.183(9) -0.015(3)
H37 H 0.425(2) 0.902(9) 0.087(2)
H38 H 0.409(2) 0.819(9) -0.002(3)
H39 H 0.395(2) 0.695(9) 0.076(3)
H40 H 0.462(2) 0.607(8) 0.885(3)
H41 H 0.462(2) 0.419(8) 0.945(2)
H42 H 0.406(2) 0.473(9) 0.889(2)
H43 H 0.547(2) 0.456(9) 0.819(2)
H44 H 0.544(2) 0.229(8) 0.787(2)
H45 H 0.543(2) 0.279(8) 0.883(3)
H46 H 0.307(2) 0.851(9) 0.483(3)
H47 H 0.337(2) 0.893(9) 0.571(2)
H48 H 0.300(2) 0.701(9) 0.558(2)
loop_
_geom_bond_atom_site_label_1
_geom_bond_atom_site_label_2
_geom_bond_site_symmetry_1
_geom_bond_site_symmetry_2
O1 C3 1_555 1_555
O2 C23 1_555 1_555
O3 C24 1_555 1_555
C1 C2 1_555 1_555
C2 C3 1_555 1_555
C3 C4 1_555 1_555
C4 C5 1_555 1_555
C5 C6 1_555 1_555
C6 C7 1_555 1_555
C7 C8 1_555 1_555
C8 C9 1_555 1_555
C9 C10 1_555 1_555
C10 C1 1_555 1_555
C11 C9 1_555 1_555
C12 C11 1_555 1_555
C13 C12 1_555 1_555
C14 C8 1_555 1_555
C15 C14 1_555 1_555
C16 C15 1_555 1_555
C17 C13 1_555 1_555
C18 C13 1_555 1_555
C19 C10 1_555 1_555
C20 C17 1_555 1_555
C21 C20 1_555 1_555
C22 C20 1_555 1_555
C23 C22 1_555 1_555
C24 C23 1_555 1_555
C25 O3 1_555 1_555
C26 C25 1_555 1_555
C27 C25 1_555 1_555
C28 C4 1_555 1_555
C29 C4 1_555 1_555
C30 C14 1_555 1_555
H1 O2 1_555 1_555
H2 C1 1_555 1_555
H3 C1 1_555 1_555
H4 C2 1_555 1_555
H5 C2 1_555 1_555
H6 C5 1_555 1_555
H7 C6 1_555 1_555
H8 C6 1_555 1_555
H9 C7 1_555 1_555
H10 C9 1_555 1_555
H11 C11 1_555 1_555
H12 C11 1_555 1_555
H13 C12 1_555 1_555
H14 C12 1_555 1_555
H15 C15 1_555 1_555
H16 C15 1_555 1_555
H17 C16 1_555 1_555
H18 C16 1_555 1_555
H19 C17 1_555 1_555
H20 C18 1_555 1_555
H21 C18 1_555 1_555
H22 C18 1_555 1_555
H23 C19 1_555 1_555
H24 C19 1_555 1_555
H25 C19 1_555 1_555
H26 C20 1_555 1_555
H27 C21 1_555 1_555
H28 C21 1_555 1_555
H29 C21 1_555 1_555
H30 C22 1_555 1_555
H31 C22 1_555 1_555
H32 C23 1_555 1_555
H33 C24 1_555 1_555
H34 C26 1_555 1_555
H35 C26 1_555 1_555
H36 C26 1_555 1_555
H37 C27 1_555 1_555
H38 C27 1_555 1_555
H39 C27 1_555 1_555
H40 C28 1_555 1_555
H41 C28 1_555 1_555
H42 C28 1_555 1_555
H43 C29 1_555 1_555
H44 C29 1_555 1_555
H45 C29 1_555 1_555
H46 C30 1_555 1_555
H47 C30 1_555 1_555
H48 C30 1_555 1_555
C5 C10 1_555 1_555
C13 C14 1_555 1_555
C16 C17 1_555 1_555
C24 C25 1_555 1_555

#END
