
#######################################################################
#
#                 Cambridge Crystallographic Data Centre
#                                CCDC 
#
#######################################################################
#
# If this CIF has been generated from an entry in the Cambridge 
# Structural Database, then it will include bibliographic, chemical, 
# crystal, experimental, refinement or atomic coordinate data resulting 
# from the CCDC's data processing and validation procedures.
#
#######################################################################

data_SILGIE
_chemical_formula_moiety         'C14 H19 N3 O4'
_chemical_name_systematic        
2-(N'-(3-(Dimethylammonio)propyl)oxamido)benzoate
_symmetry_cell_setting           monoclinic
_symmetry_space_group_name_H-M   'P 21/c'
_symmetry_Int_Tables_number      14
_space_group_name_Hall           '-P 2ybc'
loop_
_symmetry_equiv_pos_site_id
_symmetry_equiv_pos_as_xyz
1 x,y,z
2 -x,1/2+y,1/2-z
3 -x,-y,-z
4 x,1/2-y,1/2+z
_cell_length_a                   14.780(5)
_cell_length_b                   8.762(3)
_cell_length_c                   11.576(4)
_cell_angle_alpha                90
_cell_angle_beta                 104.193(5)
_cell_angle_gamma                90
_cell_volume                     1453.36
_exptl_crystal_colour            colorless
_exptl_crystal_description       block
_cell_formula_units_Z            4
_exptl_crystal_recrystallization_method ethanol/water
loop_
_atom_site_label
_atom_site_type_symbol
_atom_site_fract_x
_atom_site_fract_y
_atom_site_fract_z
C1 C 0.8415(2) 0.5075(3) 0.5747(3)
C2 C 0.81197(19) 0.3653(3) 0.4998(3)
C3 C 0.8755(2) 0.3010(3) 0.4428(3)
H1 H 0.9354 0.3413 0.4566
C4 C 0.8514(2) 0.1781(4) 0.3659(3)
H2 H 0.8943 0.1380 0.3272
C5 C 0.7636(2) 0.1161(3) 0.3474(3)
H3 H 0.7471 0.0340 0.2955
C6 C 0.6995(2) 0.1739(3) 0.4047(3)
H4 H 0.6409 0.1292 0.3929
C7 C 0.72259(19) 0.2997(3) 0.4806(3)
C8 C 0.5848(2) 0.2933(3) 0.5658(3)
C9 C 0.53513(19) 0.3990(3) 0.6361(3)
C10 C 0.41422(19) 0.4063(4) 0.7457(3)
H5 H 0.4076 0.5132 0.7235
H6 H 0.4460 0.4002 0.8295
C11 C 0.31874(19) 0.3339(3) 0.7258(3)
H7 H 0.3249 0.2307 0.7571
H8 H 0.2900 0.3286 0.6410
C12 C 0.25722(19) 0.4261(3) 0.7870(3)
H9 H 0.2923 0.4511 0.8671
H10 H 0.2405 0.5211 0.7441
C13 C 0.1151(2) 0.4356(4) 0.8607(3)
H11 H 0.1554 0.4706 0.9340
H12 H 0.0665 0.3734 0.8777
H13 H 0.0880 0.5217 0.8135
C14 C 0.1101(2) 0.2974(4) 0.6764(3)
H14 H 0.0570 0.2423 0.6884
H15 H 0.1451 0.2334 0.6360
H16 H 0.0893 0.3866 0.6292
N1 N 0.65712(15) 0.3637(3) 0.5368(2)
H17 H 0.6642 0.4589 0.5547
N2 N 0.46907(16) 0.3289(3) 0.6754(2)
H18 H 0.4583 0.2341 0.6585
N3 N 0.17012(16) 0.3439(3) 0.7937(2)
H19 H 0.1880(18) 0.2573(18) 0.837(2)
O1 O 0.92471(14) 0.5334(2) 0.6149(2)
O2 O 0.77507(13) 0.5939(2) 0.58818(19)
O3 O 0.56068(15) 0.1614(2) 0.5449(2)
O4 O 0.55702(13) 0.5330(2) 0.6540(2)
loop_
_geom_bond_atom_site_label_1
_geom_bond_atom_site_label_2
_geom_bond_site_symmetry_1
_geom_bond_site_symmetry_2
C1 C2 1_555 1_555
C2 C3 1_555 1_555
C3 H1 1_555 1_555
C4 C3 1_555 1_555
H2 C4 1_555 1_555
C5 C4 1_555 1_555
H3 C5 1_555 1_555
C6 C5 1_555 1_555
H4 C6 1_555 1_555
C7 C2 1_555 1_555
C8 C9 1_555 1_555
C9 N2 1_555 1_555
C10 H5 1_555 1_555
H6 C10 1_555 1_555
C11 C10 1_555 1_555
H7 C11 1_555 1_555
H8 C11 1_555 1_555
C12 C11 1_555 1_555
H9 C12 1_555 1_555
H10 C12 1_555 1_555
C13 H11 1_555 1_555
H12 C13 1_555 1_555
H13 C13 1_555 1_555
C14 H14 1_555 1_555
H15 C14 1_555 1_555
H16 C14 1_555 1_555
N1 C7 1_555 1_555
H17 N1 1_555 1_555
N2 C10 1_555 1_555
H18 N2 1_555 1_555
N3 C12 1_555 1_555
H19 N3 1_555 1_555
O1 C1 1_555 1_555
O2 C1 1_555 1_555
O3 C8 1_555 1_555
O4 C9 1_555 1_555
C6 C7 1_555 1_555
C8 N1 1_555 1_555
C13 N3 1_555 1_555
C14 N3 1_555 1_555

#END
