
#######################################################################
#
#                 Cambridge Crystallographic Data Centre
#                                CCDC 
#
#######################################################################
#
# If this CIF has been generated from an entry in the Cambridge 
# Structural Database, then it will include bibliographic, chemical, 
# crystal, experimental, refinement or atomic coordinate data resulting 
# from the CCDC's data processing and validation procedures.
#
#######################################################################

data_SILGAW
_chemical_formula_moiety         'C22 H22 N2 O2 S1'
_chemical_name_systematic        
2-(Benzoylmethylsulfanyl)-6-benzyl-5-isopropylpyrimidin-4(3H)-one
_symmetry_cell_setting           monoclinic
_symmetry_space_group_name_H-M   'P 21/n'
_symmetry_Int_Tables_number      14
_space_group_name_Hall           '-P 2yn'
loop_
_symmetry_equiv_pos_site_id
_symmetry_equiv_pos_as_xyz
1 x,y,z
2 1/2-x,1/2+y,1/2-z
3 -x,-y,-z
4 1/2+x,1/2-y,1/2+z
_cell_length_a                   8.691(2)
_cell_length_b                   23.223(6)
_cell_length_c                   10.705(3)
_cell_angle_alpha                90
_cell_angle_beta                 111.949(4)
_cell_angle_gamma                90
_cell_volume                     2003.99
_exptl_crystal_colour            colorless
_exptl_crystal_description       plate
_cell_formula_units_Z            4
_exptl_crystal_recrystallization_method 'ethyl acetate'
loop_
_atom_site_label
_atom_site_type_symbol
_atom_site_fract_x
_atom_site_fract_y
_atom_site_fract_z
S1 S 0.74405(15) 0.14324(5) 0.58050(11)
O1 O 0.5071(3) 0.23901(12) 0.4777(3)
O2 O 0.3701(3) -0.00995(11) 0.5886(2)
N1 N 0.5429(4) 0.06432(13) 0.6032(3)
H1 H 0.5734 0.0479 0.5442
N2 N 0.5769(4) 0.14324(13) 0.7453(3)
C1 C 0.6581(5) 0.31823(17) 0.5976(4)
C2 C 0.5386(5) 0.3564(2) 0.5210(4)
H2 H 0.4443 0.3426 0.4523
C3 C 0.5575(6) 0.4147(2) 0.5452(5)
H3 H 0.4763 0.4401 0.4927
C4 C 0.6947(7) 0.4352(2) 0.6456(6)
H4 H 0.7071 0.4746 0.6611
C5 C 0.8153(6) 0.3981(2) 0.7244(4)
H5 H 0.9089 0.4122 0.7934
C6 C 0.7952(5) 0.33933(19) 0.6994(4)
H6 H 0.8760 0.3140 0.7525
C7 C 0.6320(5) 0.25571(18) 0.5645(4)
C8 C 0.7706(5) 0.21571(14) 0.6419(4)
H7 H 0.7811 0.2154 0.7353
H8 H 0.8735 0.2307 0.6391
C9 C 0.6094(5) 0.11632(16) 0.6528(4)
C10 C 0.4286(5) 0.03664(18) 0.6432(4)
C11 C 0.3910(5) 0.06488(17) 0.7479(4)
C12 C 0.4662(6) 0.11664(18) 0.7929(4)
C13 C 0.2691(5) 0.03583(18) 0.7980(4)
H9 H 0.2676 0.0580 0.8754
C14 C 0.3136(5) -0.02547(18) 0.8449(4)
H10 H 0.2296 -0.0413 0.8728
H11 H 0.4184 -0.0260 0.9193
H12 H 0.3212 -0.0481 0.7723
C15 C 0.0966(6) 0.0379(2) 0.6919(5)
H13 H 0.0693 0.0769 0.6621
H14 H 0.0188 0.0238 0.7289
H15 H 0.0916 0.0143 0.6169
C16 C 0.4398(6) 0.15025(17) 0.9048(4)
H16 H 0.3314 0.1407 0.9053
H17 H 0.5221 0.1381 0.9904
C17 C 0.4508(7) 0.21374(19) 0.8932(5)
C18 C 0.3165(7) 0.2464(3) 0.8216(5)
H18 H 0.2148 0.2283 0.7786
C19 C 0.3263(9) 0.3049(4) 0.8110(6)
H19 H 0.2322 0.3262 0.7624
C20 C 0.4709(11) 0.3311(3) 0.8706(7)
H20 H 0.4779 0.3707 0.8610
C21 C 0.6078(7) 0.3015(3) 0.9445(6)
H21 H 0.7078 0.3205 0.9880
C22 C 0.5972(7) 0.2424(3) 0.9547(4)
H22 H 0.6919 0.2217 1.0046
loop_
_geom_bond_atom_site_label_1
_geom_bond_atom_site_label_2
_geom_bond_site_symmetry_1
_geom_bond_site_symmetry_2
S1 C8 1_555 1_555
O1 C7 1_555 1_555
O2 C10 1_555 1_555
N1 H1 1_555 1_555
N2 C9 1_555 1_555
C1 C2 1_555 1_555
C2 H2 1_555 1_555
C3 C2 1_555 1_555
H3 C3 1_555 1_555
C4 C3 1_555 1_555
H4 C4 1_555 1_555
C5 C4 1_555 1_555
H5 C5 1_555 1_555
C6 C1 1_555 1_555
H6 C6 1_555 1_555
C7 C1 1_555 1_555
C8 C7 1_555 1_555
H7 C8 1_555 1_555
H8 C8 1_555 1_555
C9 S1 1_555 1_555
C10 N1 1_555 1_555
C11 C10 1_555 1_555
C12 N2 1_555 1_555
C13 C11 1_555 1_555
H9 C13 1_555 1_555
C14 C13 1_555 1_555
H10 C14 1_555 1_555
H11 C14 1_555 1_555
H12 C14 1_555 1_555
C15 C13 1_555 1_555
H13 C15 1_555 1_555
H14 C15 1_555 1_555
H15 C15 1_555 1_555
C16 C12 1_555 1_555
H16 C16 1_555 1_555
H17 C16 1_555 1_555
C17 C16 1_555 1_555
C18 C17 1_555 1_555
H18 C18 1_555 1_555
C19 C18 1_555 1_555
H19 C19 1_555 1_555
C20 C19 1_555 1_555
H20 C20 1_555 1_555
C21 C20 1_555 1_555
H21 C21 1_555 1_555
C22 C17 1_555 1_555
H22 C22 1_555 1_555
N1 C9 1_555 1_555
C5 C6 1_555 1_555
C11 C12 1_555 1_555
C21 C22 1_555 1_555

#END
