
#######################################################################
#
#                 Cambridge Crystallographic Data Centre
#                                CCDC 
#
#######################################################################
#
# If this CIF has been generated from an entry in the Cambridge 
# Structural Database, then it will include bibliographic, chemical, 
# crystal, experimental, refinement or atomic coordinate data resulting 
# from the CCDC's data processing and validation procedures.
#
#######################################################################

data_SILPAH
_chemical_formula_moiety         'C14 H7 F4 N1'
_chemical_name_systematic        
2-((4-fluorophenyl)ethynyl)-5-(trifluoromethyl)pyridine
_symmetry_cell_setting           monoclinic
_symmetry_space_group_name_H-M   'P 21/c'
_symmetry_Int_Tables_number      14
_space_group_name_Hall           '-P 2ybc'
loop_
_symmetry_equiv_pos_site_id
_symmetry_equiv_pos_as_xyz
1 x,y,z
2 -x,1/2+y,1/2-z
3 -x,-y,-z
4 x,1/2-y,1/2+z
_cell_length_a                   13.274(3)
_cell_length_b                   14.344(3)
_cell_length_c                   6.1256(12)
_cell_angle_alpha                90
_cell_angle_beta                 101.518(9)
_cell_angle_gamma                90
_cell_volume                     1142.84
_exptl_crystal_colour            colorless
_exptl_crystal_description       Lamellar
_cell_formula_units_Z            4
loop_
_atom_site_label
_atom_site_type_symbol
_atom_site_fract_x
_atom_site_fract_y
_atom_site_fract_z
F1 F 1.40975(11) 0.12044(11) 0.0414(3)
F2 F 0.56248(10) 0.21412(10) 0.7480(3)
F3 F 0.53688(10) 0.07057(11) 0.6625(3)
F4 F 0.61616(10) 0.10874(11) 0.9900(2)
N1 N 0.79669(14) 0.09111(13) 0.4071(3)
C1 C 1.32199(18) 0.12057(15) 0.1217(4)
C2 C 1.23570(18) 0.07977(15) -0.0031(4)
H1 H 1.2376 0.0517 -0.1427
C3 C 1.14632(17) 0.08068(15) 0.0794(4)
H2 H 1.0858 0.0530 -0.0045
C4 C 1.14364(16) 0.12176(15) 0.2843(4)
C5 C 1.05144(18) 0.12169(15) 0.3733(4)
C6 C 0.97480(18) 0.12149(15) 0.4484(4)
C7 C 0.88323(16) 0.12291(14) 0.5403(4)
C8 C 0.88502(17) 0.15646(14) 0.7554(4)
H3 H 0.9475 0.1781 0.8449
C9 C 0.79542(17) 0.15790(15) 0.8360(4)
H4 H 0.7949 0.1796 0.9823
C10 C 0.70571(16) 0.12673(15) 0.6980(4)
C11 C 0.60572(17) 0.12970(16) 0.7746(4)
C12 C 0.71094(18) 0.09363(16) 0.4874(4)
H5 H 0.6494 0.0714 0.3953
C13 C 1.32301(18) 0.16170(16) 0.3256(4)
H6 H 1.3840 0.1891 0.4083
C14 C 1.23314(17) 0.16196(15) 0.4065(4)
H7 H 1.2322 0.1898 0.5468
loop_
_geom_bond_atom_site_label_1
_geom_bond_atom_site_label_2
_geom_bond_site_symmetry_1
_geom_bond_site_symmetry_2
F1 C1 1_555 1_555
F2 C11 1_555 1_555
F3 C11 1_555 1_555
F4 C11 1_555 1_555
N1 C7 1_555 1_555
C1 C2 1_555 1_555
C2 H1 1_555 1_555
C3 C2 1_555 1_555
H2 C3 1_555 1_555
C4 C3 1_555 1_555
C5 C4 1_555 1_555
C6 C5 1_555 1_555
C7 C6 1_555 1_555
C8 C7 1_555 1_555
H3 C8 1_555 1_555
C9 C8 1_555 1_555
H4 C9 1_555 1_555
C10 C9 1_555 1_555
C11 C10 1_555 1_555
C12 N1 1_555 1_555
H5 C12 1_555 1_555
C13 C1 1_555 1_555
H6 C13 1_555 1_555
C14 C4 1_555 1_555
H7 C14 1_555 1_555
C10 C12 1_555 1_555
C13 C14 1_555 1_555

#END
