
#######################################################################
#
#                 Cambridge Crystallographic Data Centre
#                                CCDC 
#
#######################################################################
#
# If this CIF has been generated from an entry in the Cambridge 
# Structural Database, then it will include bibliographic, chemical, 
# crystal, experimental, refinement or atomic coordinate data resulting 
# from the CCDC's data processing and validation procedures.
#
#######################################################################

data_SILROV
_chemical_formula_moiety         'C22 H23 N1 O5'
_chemical_name_systematic        
4-Hydroxy-N,N-bis(2-hydroxy-3-methoxybenzyl)aniline
_symmetry_cell_setting           triclinic
_symmetry_space_group_name_H-M   'P -1'
_symmetry_Int_Tables_number      2
_space_group_name_Hall           '-P 1'
loop_
_symmetry_equiv_pos_site_id
_symmetry_equiv_pos_as_xyz
1 x,y,z
2 -x,-y,-z
_cell_length_a                   10.4059(19)
_cell_length_b                   13.699(2)
_cell_length_c                   15.196(2)
_cell_angle_alpha                113.549(3)
_cell_angle_beta                 96.908(2)
_cell_angle_gamma                99.792(2)
_cell_volume                     1913.91
_exptl_crystal_colour            colorless
_exptl_crystal_description       block
_cell_formula_units_Z            4
loop_
_atom_site_label
_atom_site_type_symbol
_atom_site_fract_x
_atom_site_fract_y
_atom_site_fract_z
N1 N 0.3458(2) 0.5001(2) 0.18136(16)
O1 O 0.1094(2) 0.05510(17) -0.04810(14)
H1 H 0.0418 0.0440 -0.0879
O2 O 0.24705(18) 0.55357(17) 0.34615(12)
H2 H 0.3008 0.5341 0.3113
O3 O 0.0467(2) 0.5905(2) 0.42750(15)
O4 O 0.5303(2) 0.49388(16) 0.35279(14)
H3 H 0.5355 0.4929 0.4067
O5 O 0.6420(2) 0.64758(17) 0.53099(15)
C1 C 0.2808(3) 0.3875(3) 0.1176(2)
C2 C 0.1742(3) 0.3542(3) 0.0402(2)
H7 H 0.1425 0.4065 0.0252
C3 C 0.1133(3) 0.2432(3) -0.0159(2)
H8 H 0.0402 0.2219 -0.0669
C4 C 0.1614(3) 0.1659(3) 0.0042(2)
C5 C 0.2668(3) 0.1982(3) 0.0823(2)
H9 H 0.2980 0.1459 0.0974
C6 C 0.3257(3) 0.3077(3) 0.1376(2)
H10 H 0.3972 0.3286 0.1895
C7 C 0.2828(3) 0.5848(2) 0.1707(2)
H11 H 0.2599 0.5679 0.1016
H12 H 0.3468 0.6552 0.2033
C8 C 0.1581(3) 0.5936(2) 0.2131(2)
C9 C 0.1497(3) 0.5826(2) 0.2980(2)
C10 C 0.0415(3) 0.6043(3) 0.3434(2)
C11 C -0.0580(3) 0.6366(3) 0.3011(2)
H13 H -0.1302 0.6515 0.3304
C12 C -0.0498(3) 0.6467(3) 0.2150(2)
H14 H -0.1176 0.6676 0.1862
C13 C 0.0569(3) 0.6264(3) 0.1709(2)
H15 H 0.0616 0.6344 0.1133
C14 C -0.0543(3) 0.6161(3) 0.4813(2)
H16 H -0.0568 0.6912 0.4987
H17 H -0.0358 0.6054 0.5398
H18 H -0.1389 0.5691 0.4418
C15 C 0.4914(3) 0.5294(2) 0.18503(19)
H19 H 0.5058 0.5520 0.1334
H20 H 0.5272 0.4655 0.1736
C16 C 0.5636(3) 0.6209(3) 0.2829(2)
C17 C 0.5774(3) 0.5989(3) 0.3648(2)
C18 C 0.6368(3) 0.6832(3) 0.4588(2)
C19 C 0.6838(3) 0.7870(3) 0.4686(2)
H21 H 0.7231 0.8430 0.5306
C20 C 0.6738(3) 0.8101(3) 0.3875(3)
H22 H 0.7071 0.8810 0.3949
C21 C 0.6141(3) 0.7272(3) 0.2955(2)
H23 H 0.6076 0.7429 0.2412
C22 C 0.7085(3) 0.7266(3) 0.62790(19)
H24 H 0.7983 0.7573 0.6272
H25 H 0.7101 0.6915 0.6714
H26 H 0.6620 0.7839 0.6501
N2 N 0.4358(2) 0.9610(2) 0.19252(16)
O6 O 0.6991(2) 1.39497(17) 0.44554(14)
H4 H 0.7205 1.4046 0.5027
O7 O 0.30272(19) 0.95072(16) -0.00158(13)
H5 H 0.2383 0.9564 -0.0344
O8 O 0.1087(2) 0.80271(18) -0.14366(15)
O9 O 0.17730(18) 0.98333(16) 0.17445(13)
H6 H 0.2501 0.9817 0.1591
O10 O -0.0183(2) 1.0235(2) 0.25875(15)
C23 C 0.5141(3) 1.0693(3) 0.2602(2)
C24 C 0.5500(3) 1.1011(2) 0.3610(2)
H27 H 0.5304 1.0499 0.3862
C25 C 0.6153(3) 1.2095(3) 0.4240(2)
H28 H 0.6394 1.2304 0.4910
C26 C 0.6440(3) 1.2852(3) 0.3870(2)
C27 C 0.6139(3) 1.2538(3) 0.2871(2)
H29 H 0.6378 1.3042 0.2618
C28 C 0.5477(3) 1.1467(3) 0.2252(2)
H30 H 0.5253 1.1263 0.1581
C29 C 0.4974(3) 0.9035(2) 0.10890(18)
H31 H 0.5642 0.8715 0.1301
H32 H 0.5413 0.9557 0.0873
C30 C 0.3925(3) 0.8142(3) 0.0244(2)
C31 C 0.2957(3) 0.8415(3) -0.0254(2)
C32 C 0.1927(3) 0.7609(3) -0.1006(2)
C33 C 0.1868(3) 0.6525(3) -0.1228(2)
H33 H 0.1175 0.5985 -0.1711
C34 C 0.2835(3) 0.6227(3) -0.0739(2)
H34 H 0.2798 0.5492 -0.0897
C35 C 0.3846(3) 0.7035(3) -0.0020(2)
H35 H 0.4498 0.6834 0.0301
C36 C 0.0044(3) 0.7281(3) -0.2222(2)
H36 H 0.0411 0.6820 -0.2740
H37 H -0.0468 0.7678 -0.2461
H38 H -0.0521 0.6836 -0.1999
C37 C 0.3824(3) 0.8887(2) 0.2352(2)
H39 H 0.4550 0.8861 0.2800
H40 H 0.3482 0.8153 0.1829
C38 C 0.2732(3) 0.9204(2) 0.2897(2)
C39 C 0.1764(3) 0.9610(3) 0.2540(2)
C40 C 0.0678(3) 0.9796(3) 0.2994(2)
C41 C 0.0546(3) 0.9549(3) 0.3772(2)
H41 H -0.0182 0.9663 0.4067
C42 C 0.1512(4) 0.9124(3) 0.4117(2)
H42 H 0.1422 0.8945 0.4640
C43 C 0.2600(3) 0.8967(3) 0.3690(2)
H43 H 0.3251 0.8700 0.3937
C44 C -0.1383(3) 1.0354(3) 0.2931(2)
H44 H -0.1878 0.9654 0.2849
H45 H -0.1907 1.0632 0.2564
H46 H -0.1175 1.0857 0.3614
loop_
_geom_bond_atom_site_label_1
_geom_bond_atom_site_label_2
_geom_bond_site_symmetry_1
_geom_bond_site_symmetry_2
N1 C1 1_555 1_555
N2 C23 1_555 1_555
O1 H1 1_555 1_555
O2 H2 1_555 1_555
O3 C10 1_555 1_555
O4 H3 1_555 1_555
O5 C18 1_555 1_555
O6 H4 1_555 1_555
O7 H5 1_555 1_555
O8 C32 1_555 1_555
O9 H6 1_555 1_555
O10 C40 1_555 1_555
C1 C2 1_555 1_555
C2 H7 1_555 1_555
C3 C2 1_555 1_555
H8 C3 1_555 1_555
C4 O1 1_555 1_555
C5 C4 1_555 1_555
H9 C5 1_555 1_555
C6 C1 1_555 1_555
H10 C6 1_555 1_555
C7 N1 1_555 1_555
H11 C7 1_555 1_555
H12 C7 1_555 1_555
C8 C7 1_555 1_555
C9 O2 1_555 1_555
C10 C9 1_555 1_555
C11 C10 1_555 1_555
H13 C11 1_555 1_555
C12 C11 1_555 1_555
H14 C12 1_555 1_555
C13 C8 1_555 1_555
H15 C13 1_555 1_555
C14 O3 1_555 1_555
H16 C14 1_555 1_555
H17 C14 1_555 1_555
H18 C14 1_555 1_555
C15 N1 1_555 1_555
H19 C15 1_555 1_555
H20 C15 1_555 1_555
C16 C15 1_555 1_555
C17 O4 1_555 1_555
C18 C17 1_555 1_555
C19 C18 1_555 1_555
H21 C19 1_555 1_555
C20 C19 1_555 1_555
H22 C20 1_555 1_555
C21 C16 1_555 1_555
H23 C21 1_555 1_555
C22 O5 1_555 1_555
H24 C22 1_555 1_555
H25 C22 1_555 1_555
H26 C22 1_555 1_555
C23 C24 1_555 1_555
C24 H27 1_555 1_555
C25 C24 1_555 1_555
H28 C25 1_555 1_555
C26 O6 1_555 1_555
C27 C26 1_555 1_555
H29 C27 1_555 1_555
C28 C23 1_555 1_555
H30 C28 1_555 1_555
C29 N2 1_555 1_555
H31 C29 1_555 1_555
H32 C29 1_555 1_555
C30 C29 1_555 1_555
C31 O7 1_555 1_555
C32 C31 1_555 1_555
C33 C32 1_555 1_555
H33 C33 1_555 1_555
C34 C33 1_555 1_555
H34 C34 1_555 1_555
C35 C30 1_555 1_555
H35 C35 1_555 1_555
C36 O8 1_555 1_555
H36 C36 1_555 1_555
H37 C36 1_555 1_555
H38 C36 1_555 1_555
C37 N2 1_555 1_555
H39 C37 1_555 1_555
H40 C37 1_555 1_555
C38 C37 1_555 1_555
C39 O9 1_555 1_555
C40 C39 1_555 1_555
C41 C40 1_555 1_555
H41 C41 1_555 1_555
C42 C41 1_555 1_555
H42 C42 1_555 1_555
C43 C38 1_555 1_555
H43 C43 1_555 1_555
C44 O10 1_555 1_555
H44 C44 1_555 1_555
H45 C44 1_555 1_555
H46 C44 1_555 1_555
C3 C4 1_555 1_555
C5 C6 1_555 1_555
C8 C9 1_555 1_555
C12 C13 1_555 1_555
C16 C17 1_555 1_555
C20 C21 1_555 1_555
C25 C26 1_555 1_555
C27 C28 1_555 1_555
C30 C31 1_555 1_555
C34 C35 1_555 1_555
C38 C39 1_555 1_555
C42 C43 1_555 1_555

#END
