
#######################################################################
#
#                 Cambridge Crystallographic Data Centre
#                                CCDC 
#
#######################################################################
#
# If this CIF has been generated from an entry in the Cambridge 
# Structural Database, then it will include bibliographic, chemical, 
# crystal, experimental, refinement or atomic coordinate data resulting 
# from the CCDC's data processing and validation procedures.
#
#######################################################################

data_SILRAH
_chemical_formula_moiety         'C16 H19 F2 N1 O2'
_chemical_name_systematic        
2-((1S,3S)-3-Acetyl-2,2-dimethylcyclobutyl)-N-(2,6-difluorophenyl)acetamide
_symmetry_cell_setting           monoclinic
_symmetry_space_group_name_H-M   'P 21/n'
_symmetry_Int_Tables_number      14
_space_group_name_Hall           '-P 2yn'
loop_
_symmetry_equiv_pos_site_id
_symmetry_equiv_pos_as_xyz
1 x,y,z
2 1/2-x,1/2+y,1/2-z
3 -x,-y,-z
4 1/2+x,1/2-y,1/2+z
_cell_length_a                   8.7840(18)
_cell_length_b                   12.914(3)
_cell_length_c                   13.747(3)
_cell_angle_alpha                90
_cell_angle_beta                 99.20(3)
_cell_angle_gamma                90
_cell_volume                     1539.35
_exptl_crystal_colour            colorless
_exptl_crystal_description       block
_chemical_melting_point          '392 K'
_cell_formula_units_Z            4
_exptl_crystal_recrystallization_method ethanol
loop_
_atom_site_label
_atom_site_type_symbol
_atom_site_fract_x
_atom_site_fract_y
_atom_site_fract_z
F1 F 0.3196(4) 0.6850(2) 1.17341(19)
F2 F 0.1731(4) 0.97005(19) 0.9730(2)
O1 O 0.4326(4) 0.3369(3) 1.0109(3)
O2 O 0.0165(3) 0.7648(2) 0.9196(2)
N1 N 0.2668(4) 0.7654(2) 0.9872(2)
H1 H 0.3592 0.7486 0.9802
C1 C 0.2701(7) 0.2067(3) 0.9316(4)
H2 H 0.3562 0.1623 0.9541
H3 H 0.2472 0.2041 0.8609
H4 H 0.1819 0.1838 0.9589
C2 C 0.3089(6) 0.3152(3) 0.9638(3)
C3 C 0.1890(5) 0.3958(3) 0.9335(3)
H5 H 0.0876 0.3686 0.9416
C4 C 0.1781(4) 0.4476(3) 0.8287(3)
C5 C 0.1363(5) 0.5490(3) 0.8790(3)
H6 H 0.0242 0.5511 0.8766
C6 C 0.2092(5) 0.5046(3) 0.9783(3)
H7 H 0.1494 0.5167 1.0307
H8 H 0.3160 0.5247 0.9984
C7 C 0.0567(6) 0.4049(4) 0.7473(4)
H9 H -0.0410 0.4021 0.7700
H10 H 0.0859 0.3366 0.7299
H11 H 0.0487 0.4492 0.6906
C8 C 0.3368(5) 0.4528(3) 0.7956(3)
H12 H 0.3563 0.3889 0.7640
H13 H 0.4150 0.4637 0.8519
H14 H 0.3382 0.5090 0.7500
C9 C 0.1893(5) 0.6545(3) 0.8476(3)
H15 H 0.2997 0.6538 0.8474
H16 H 0.1379 0.6710 0.7816
C10 C 0.1500(5) 0.7342(3) 0.9197(3)
C11 C 0.2446(4) 0.8255(3) 1.0702(3)
C12 C 0.1926(5) 0.9262(3) 1.0629(3)
C13 C 0.1628(5) 0.9823(3) 1.1429(4)
H17 H 0.1261 1.0498 1.1354
C14 C 0.1885(5) 0.9364(4) 1.2332(4)
H18 H 0.1694 0.9735 1.2880
C15 C 0.2414(6) 0.8377(4) 1.2453(3)
H19 H 0.2602 0.8076 1.3075
C16 C 0.2665(5) 0.7839(3) 1.1642(3)
loop_
_geom_bond_atom_site_label_1
_geom_bond_atom_site_label_2
_geom_bond_site_symmetry_1
_geom_bond_site_symmetry_2
F1 C16 1_555 1_555
F2 C12 1_555 1_555
O1 C2 1_555 1_555
O2 C10 1_555 1_555
N1 H1 1_555 1_555
C1 H2 1_555 1_555
H3 C1 1_555 1_555
H4 C1 1_555 1_555
C2 C1 1_555 1_555
C3 C2 1_555 1_555
H5 C3 1_555 1_555
C4 C3 1_555 1_555
C5 C4 1_555 1_555
H6 C5 1_555 1_555
C6 C3 1_555 1_555
H7 C6 1_555 1_555
H8 C6 1_555 1_555
C7 C4 1_555 1_555
H9 C7 1_555 1_555
H10 C7 1_555 1_555
H11 C7 1_555 1_555
C8 C4 1_555 1_555
H12 C8 1_555 1_555
H13 C8 1_555 1_555
H14 C8 1_555 1_555
C9 C5 1_555 1_555
H15 C9 1_555 1_555
H16 C9 1_555 1_555
C10 N1 1_555 1_555
C11 N1 1_555 1_555
C12 C11 1_555 1_555
C13 C12 1_555 1_555
H17 C13 1_555 1_555
C14 C13 1_555 1_555
H18 C14 1_555 1_555
C15 C14 1_555 1_555
H19 C15 1_555 1_555
C16 C11 1_555 1_555
C5 C6 1_555 1_555
C9 C10 1_555 1_555
C15 C16 1_555 1_555

#END
