
#######################################################################
#
#                 Cambridge Crystallographic Data Centre
#                                CCDC 
#
#######################################################################
#
# If this CIF has been generated from an entry in the Cambridge 
# Structural Database, then it will include bibliographic, chemical, 
# crystal, experimental, refinement or atomic coordinate data resulting 
# from the CCDC's data processing and validation procedures.
#
#######################################################################

data_SILRUC
_chemical_formula_moiety         'C40 H72 Li4 O4'
_chemical_name_systematic        
bis(\m~4~-2,3-Dibutylbuta-1,3-diene-1,4-diyl)-tetrakis(tetrahydrofuran)-tetra-lithium(i)
_symmetry_cell_setting           monoclinic
_symmetry_space_group_name_H-M   'C 2/c'
_symmetry_Int_Tables_number      15
_space_group_name_Hall           '-C 2yn'
loop_
_symmetry_equiv_pos_site_id
_symmetry_equiv_pos_as_xyz
1 x,y,z
2 -x,y,1/2-z
3 1/2+x,1/2+y,z
4 1/2-x,1/2+y,1/2-z
5 -x,-y,-z
6 x,-y,1/2+z
7 1/2-x,1/2-y,-z
8 1/2+x,1/2-y,1/2+z
_cell_length_a                   25.138(9)
_cell_length_b                   8.419(3)
_cell_length_c                   20.378(7)
_cell_angle_alpha                90
_cell_angle_beta                 97.560(6)
_cell_angle_gamma                90
_cell_volume                     4275.25
_cell_formula_units_Z            4
loop_
_atom_site_label
_atom_site_type_symbol
_atom_site_fract_x
_atom_site_fract_y
_atom_site_fract_z
O1 O 0.08894(11) -0.4226(3) 0.33678(14)
O2 O 0.01551(11) 0.1466(3) 0.12989(14)
C1 C 0.04013(15) -0.2623(4) 0.18046(19)
H1 H 0.0255 -0.3414 0.1492
C2 C 0.08950(14) -0.1969(4) 0.18732(17)
C3 C 0.10640(14) -0.0745(4) 0.24070(18)
C4 C 0.07140(15) -0.0210(4) 0.28067(19)
H2 H 0.0771 0.0576 0.3150
C5 C 0.13079(15) -0.2379(4) 0.14111(19)
H3 H 0.1666 -0.2466 0.1677
H4 H 0.1218 -0.3431 0.1209
C6 C 0.13393(15) -0.1176(5) 0.08607(18)
H5 H 0.0994 -0.1173 0.0565
H6 H 0.1391 -0.0104 0.1059
C7 C 0.17880(19) -0.1504(6) 0.0451(2)
H7 H 0.2134 -0.1498 0.0747
H8 H 0.1738 -0.2580 0.0258
C8 C 0.1820(2) -0.0327(6) -0.0100(2)
H9 H 0.1480 -0.0326 -0.0397
H10 H 0.2112 -0.0626 -0.0349
H11 H 0.1888 0.0737 0.0088
C9 C 0.16469(14) -0.0186(4) 0.25067(19)
H12 H 0.1791 -0.0232 0.2078
H13 H 0.1660 0.0935 0.2655
C10 C 0.20004(14) -0.1183(5) 0.30115(19)
H14 H 0.1837 -0.1206 0.3428
H15 H 0.2006 -0.2287 0.2845
C11 C 0.25733(15) -0.0595(6) 0.3164(2)
H16 H 0.2743 -0.0621 0.2752
H17 H 0.2568 0.0524 0.3312
C12 C 0.29114(18) -0.1559(6) 0.3689(3)
H18 H 0.2910 -0.2676 0.3553
H19 H 0.2763 -0.1469 0.4109
H20 H 0.3280 -0.1157 0.3746
C13 C 0.1180(2) -0.5467(5) 0.3096(2)
H21 H 0.1335 -0.5079 0.2703
H22 H 0.0940 -0.6374 0.2960
C14 C 0.1614(2) -0.5963(7) 0.3625(3)
H23 H 0.1536 -0.7026 0.3797
H24 H 0.1963 -0.6008 0.3450
C15 C 0.1629(3) -0.4801(8) 0.4135(3)
H25 H 0.1932 -0.4060 0.4112
H26 H 0.1677 -0.5320 0.4575
C16 C 0.1113(2) -0.3925(6) 0.4034(2)
H27 H 0.0870 -0.4310 0.4344
H28 H 0.1174 -0.2773 0.4107
C17 C -0.0193(2) 0.1567(7) 0.0709(3)
H29 H -0.0560 0.1840 0.0800
H30 H -0.0208 0.0539 0.0472
C18 C 0.0022(2) 0.2849(7) 0.0300(3)
H31 H 0.0033 0.2478 -0.0159
H32 H -0.0205 0.3812 0.0288
C19 C 0.0564(2) 0.3183(6) 0.0629(2)
H33 H 0.0652 0.4324 0.0596
H34 H 0.0834 0.2545 0.0435
C20 C 0.05376(19) 0.2712(5) 0.1335(2)
H35 H 0.0892 0.2340 0.1549
H36 H 0.0422 0.3619 0.1591
Li1 Li 0.0416(3) -0.2645(8) 0.2867(3)
Li2 Li 0.0118(3) -0.0217(8) 0.1940(3)
O1A O -0.08894(11) -0.4226(3) 0.16322(14)
O2A O -0.01551(11) 0.1466(3) 0.37011(14)
C1A C -0.04013(15) -0.2623(4) 0.31954(19)
H1A H -0.0255 -0.3414 0.3508
C2A C -0.08950(14) -0.1969(4) 0.31268(17)
C3A C -0.10640(14) -0.0745(4) 0.25930(18)
C4A C -0.07140(15) -0.0210(4) 0.21933(19)
H2A H -0.0771 0.0576 0.1850
C5A C -0.13079(15) -0.2379(4) 0.35889(19)
H3A H -0.1666 -0.2466 0.3323
H4A H -0.1218 -0.3431 0.3791
C6A C -0.13393(15) -0.1176(5) 0.41393(18)
H5A H -0.0994 -0.1173 0.4435
H6A H -0.1391 -0.0104 0.3941
C7A C -0.17880(19) -0.1504(6) 0.4549(2)
H7A H -0.2134 -0.1498 0.4253
H8A H -0.1738 -0.2580 0.4742
C8A C -0.1820(2) -0.0327(6) 0.5100(2)
H9A H -0.1480 -0.0326 0.5397
H10A H -0.2112 -0.0626 0.5349
H11A H -0.1888 0.0737 0.4912
C9A C -0.16469(14) -0.0186(4) 0.24933(19)
H12A H -0.1791 -0.0232 0.2922
H13A H -0.1660 0.0935 0.2345
C10A C -0.20004(14) -0.1183(5) 0.19885(19)
H14A H -0.1837 -0.1206 0.1572
H15A H -0.2006 -0.2287 0.2155
C11A C -0.25733(15) -0.0595(6) 0.1836(2)
H16A H -0.2743 -0.0621 0.2248
H17A H -0.2568 0.0524 0.1688
C12A C -0.29114(18) -0.1559(6) 0.1311(3)
H18A H -0.2910 -0.2676 0.1447
H19A H -0.2763 -0.1469 0.0891
H20A H -0.3280 -0.1157 0.1254
C13A C -0.1180(2) -0.5467(5) 0.1904(2)
H21A H -0.1335 -0.5079 0.2297
H22A H -0.0940 -0.6374 0.2040
C14A C -0.1614(2) -0.5963(7) 0.1375(3)
H23A H -0.1536 -0.7026 0.1203
H24A H -0.1963 -0.6008 0.1550
C15A C -0.1629(3) -0.4801(8) 0.0865(3)
H25A H -0.1932 -0.4060 0.0888
H26A H -0.1677 -0.5320 0.0425
C16A C -0.1113(2) -0.3925(6) 0.0966(2)
H27A H -0.0870 -0.4310 0.0656
H28A H -0.1174 -0.2773 0.0893
C17A C 0.0193(2) 0.1567(7) 0.4291(3)
H29A H 0.0560 0.1840 0.4200
H30A H 0.0208 0.0539 0.4528
C18A C -0.0022(2) 0.2849(7) 0.4700(3)
H31A H -0.0033 0.2478 0.5159
H32A H 0.0205 0.3812 0.4712
C19A C -0.0564(2) 0.3183(6) 0.4371(2)
H33A H -0.0652 0.4324 0.4404
H34A H -0.0834 0.2545 0.4565
C20A C -0.05376(19) 0.2712(5) 0.3665(2)
H35A H -0.0892 0.2340 0.3451
H36A H -0.0422 0.3619 0.3409
Li1A Li -0.0416(3) -0.2645(8) 0.2133(3)
Li2A Li -0.0118(3) -0.0217(8) 0.3060(3)
loop_
_geom_bond_atom_site_label_1
_geom_bond_atom_site_label_2
_geom_bond_site_symmetry_1
_geom_bond_site_symmetry_2
O1 C13 1_555 1_555
O2 C17 1_555 1_555
C1 H1 1_555 1_555
C2 C1 1_555 1_555
C3 C2 1_555 1_555
C4 C3 1_555 1_555
H2 C4 1_555 1_555
C5 C2 1_555 1_555
H3 C5 1_555 1_555
H4 C5 1_555 1_555
C6 C5 1_555 1_555
H5 C6 1_555 1_555
H6 C6 1_555 1_555
C7 C6 1_555 1_555
H7 C7 1_555 1_555
H8 C7 1_555 1_555
C8 C7 1_555 1_555
H9 C8 1_555 1_555
H10 C8 1_555 1_555
H11 C8 1_555 1_555
C9 C3 1_555 1_555
H12 C9 1_555 1_555
H13 C9 1_555 1_555
C10 C9 1_555 1_555
H14 C10 1_555 1_555
H15 C10 1_555 1_555
C11 C10 1_555 1_555
H16 C11 1_555 1_555
H17 C11 1_555 1_555
C12 C11 1_555 1_555
H18 C12 1_555 1_555
H19 C12 1_555 1_555
H20 C12 1_555 1_555
C13 H21 1_555 1_555
H22 C13 1_555 1_555
C14 C13 1_555 1_555
H23 C14 1_555 1_555
H24 C14 1_555 1_555
C15 C14 1_555 1_555
H25 C15 1_555 1_555
H26 C15 1_555 1_555
C16 O1 1_555 1_555
H27 C16 1_555 1_555
H28 C16 1_555 1_555
C17 H29 1_555 1_555
H30 C17 1_555 1_555
C18 C17 1_555 1_555
H31 C18 1_555 1_555
H32 C18 1_555 1_555
C19 C18 1_555 1_555
H33 C19 1_555 1_555
H34 C19 1_555 1_555
C20 O2 1_555 1_555
H35 C20 1_555 1_555
H36 C20 1_555 1_555
Li1 O1 1_555 1_555
Li2 O2 1_555 1_555
O1A C13A 1_555 1_555
O2A C17A 1_555 1_555
C1A Li1 1_555 1_555
H1A C1A 1_555 1_555
C2A C1A 1_555 1_555
C3A C2A 1_555 1_555
C4A Li2 1_555 1_555
H2A C4A 1_555 1_555
C5A C2A 1_555 1_555
H3A C5A 1_555 1_555
H4A C5A 1_555 1_555
C6A C5A 1_555 1_555
H5A C6A 1_555 1_555
H6A C6A 1_555 1_555
C7A C6A 1_555 1_555
H7A C7A 1_555 1_555
H8A C7A 1_555 1_555
C8A C7A 1_555 1_555
H9A C8A 1_555 1_555
H10A C8A 1_555 1_555
H11A C8A 1_555 1_555
C9A C3A 1_555 1_555
H12A C9A 1_555 1_555
H13A C9A 1_555 1_555
C10A C9A 1_555 1_555
H14A C10A 1_555 1_555
H15A C10A 1_555 1_555
C11A C10A 1_555 1_555
H16A C11A 1_555 1_555
H17A C11A 1_555 1_555
C12A C11A 1_555 1_555
H18A C12A 1_555 1_555
H19A C12A 1_555 1_555
H20A C12A 1_555 1_555
C13A H21A 1_555 1_555
H22A C13A 1_555 1_555
C14A C13A 1_555 1_555
H23A C14A 1_555 1_555
H24A C14A 1_555 1_555
C15A C14A 1_555 1_555
H25A C15A 1_555 1_555
H26A C15A 1_555 1_555
C16A O1A 1_555 1_555
H27A C16A 1_555 1_555
H28A C16A 1_555 1_555
C17A H29A 1_555 1_555
H30A C17A 1_555 1_555
C18A C17A 1_555 1_555
H31A C18A 1_555 1_555
H32A C18A 1_555 1_555
C19A C18A 1_555 1_555
H33A C19A 1_555 1_555
H34A C19A 1_555 1_555
C20A O2A 1_555 1_555
H35A C20A 1_555 1_555
H36A C20A 1_555 1_555
Li1A C1 1_555 1_555
Li2A C4 1_555 1_555
C1 Li1 1_555 1_555
C1 Li2 1_555 1_555
C4 Li1 1_555 1_555
C4 Li2 1_555 1_555
C15 C16 1_555 1_555
C19 C20 1_555 1_555
O1A Li1A 1_555 1_555
O2A Li2A 1_555 1_555
C1A Li1A 1_555 1_555
C1A Li2A 1_555 1_555
C3A C4A 1_555 1_555
C4A Li1A 1_555 1_555
C4A Li2A 1_555 1_555
C15A C16A 1_555 1_555
C19A C20A 1_555 1_555

#END
