
#######################################################################
#
#                 Cambridge Crystallographic Data Centre
#                                CCDC 
#
#######################################################################
#
# If this CIF has been generated from an entry in the Cambridge 
# Structural Database, then it will include bibliographic, chemical, 
# crystal, experimental, refinement or atomic coordinate data resulting 
# from the CCDC's data processing and validation procedures.
#
#######################################################################

data_SILSUE
_chemical_formula_moiety         'C8 H12 N1 1+,I1 1-'
_chemical_name_systematic        '1-phenylethylammonium iodide'
_symmetry_cell_setting           monoclinic
_symmetry_space_group_name_H-M   'P 21/n'
_symmetry_Int_Tables_number      14
_space_group_name_Hall           '-P 2yn'
loop_
_symmetry_equiv_pos_site_id
_symmetry_equiv_pos_as_xyz
1 x,y,z
2 1/2-x,1/2+y,1/2-z
3 -x,-y,-z
4 1/2+x,1/2-y,1/2+z
_cell_length_a                   13.6913(11)
_cell_length_b                   5.8551(5)
_cell_length_c                   13.8665(11)
_cell_angle_alpha                90
_cell_angle_beta                 117.941(2)
_cell_angle_gamma                90
_cell_volume                     982.015
_exptl_crystal_colour            colorless
_exptl_crystal_description       plate
_cell_formula_units_Z            4
_exptl_crystal_recrystallization_method toluene
loop_
_atom_site_label
_atom_site_type_symbol
_atom_site_fract_x
_atom_site_fract_y
_atom_site_fract_z
I1 I 0.75709(2) -0.11605(2) 0.41429(2)
N1 N 0.6230(2) 0.3841(4) 0.2631(2)
H1 H 0.648(3) 0.518(6) 0.305(3)
H2 H 0.655(3) 0.381(4) 0.216(3)
H3 H 0.647(3) 0.278(6) 0.310(3)
C1 C 0.4685(2) 0.1522(4) 0.1307(2)
H4 H 0.503106 0.149252 0.082824
H5 H 0.387980 0.143102 0.086381
H6 H 0.494747 0.021948 0.180823
C2 C 0.4990(2) 0.3743(4) 0.1962(2)
H7 H 0.474694 0.505195 0.143760
C3 C 0.4476(2) 0.4016(3) 0.2708(2)
C4 C 0.45667(19) 0.2340(4) 0.34644(19)
H8 H 0.496735 0.097926 0.351913
C5 C 0.40847(19) 0.2635(4) 0.4128(2)
H9 H 0.415448 0.148289 0.463865
C6 C 0.34928(19) 0.4620(4) 0.4053(2)
H10 H 0.315927 0.482763 0.451319
C7 C 0.3394(2) 0.6286(4) 0.3307(2)
H11 H 0.299031 0.764153 0.325346
C8 C 0.3877(2) 0.5989(3) 0.2640(2)
H12 H 0.380176 0.714279 0.212825
loop_
_geom_bond_atom_site_label_1
_geom_bond_atom_site_label_2
_geom_bond_site_symmetry_1
_geom_bond_site_symmetry_2
N1 H1 1_555 1_555
H2 N1 1_555 1_555
H3 N1 1_555 1_555
C1 H4 1_555 1_555
H5 C1 1_555 1_555
H6 C1 1_555 1_555
C2 N1 1_555 1_555
H7 C2 1_555 1_555
C3 C2 1_555 1_555
C4 C3 1_555 1_555
H8 C4 1_555 1_555
C5 C4 1_555 1_555
H9 C5 1_555 1_555
C6 C5 1_555 1_555
H10 C6 1_555 1_555
C7 C6 1_555 1_555
H11 C7 1_555 1_555
C8 C3 1_555 1_555
H12 C8 1_555 1_555
C1 C2 1_555 1_555
C7 C8 1_555 1_555

#END
