
#######################################################################
#
#                 Cambridge Crystallographic Data Centre
#                                CCDC 
#
#######################################################################
#
# If this CIF has been generated from an entry in the Cambridge 
# Structural Database, then it will include bibliographic, chemical, 
# crystal, experimental, refinement or atomic coordinate data resulting 
# from the CCDC's data processing and validation procedures.
#
#######################################################################

data_SILSOW
_chemical_formula_moiety         'C13 H13 N1 O4'
_chemical_name_systematic        
'Ethyl N-(4-methyl-2-oxo-1H-benzopyran-7-yl)carbamate'
_symmetry_cell_setting           monoclinic
_symmetry_space_group_name_H-M   'P 21/c'
_symmetry_Int_Tables_number      14
_space_group_name_Hall           '-P 2ybc'
loop_
_symmetry_equiv_pos_site_id
_symmetry_equiv_pos_as_xyz
1 x,y,z
2 -x,1/2+y,1/2-z
3 -x,-y,-z
4 x,1/2-y,1/2+z
_cell_length_a                   11.3660(10)
_cell_length_b                   24.875(2)
_cell_length_c                   9.0750(11)
_cell_angle_alpha                90
_cell_angle_beta                 112.425(2)
_cell_angle_gamma                90
_cell_volume                     2371.74
_exptl_crystal_colour            colorless
_exptl_crystal_description       block
_cell_formula_units_Z            8
_exptl_crystal_recrystallization_method ethanol-petroleum
loop_
_atom_site_label
_atom_site_type_symbol
_atom_site_fract_x
_atom_site_fract_y
_atom_site_fract_z
N1 N 0.9015(2) 0.28355(9) 0.8953(3)
H1 H 0.9571 0.2848 0.9914
O1 O 0.6168(2) 0.38887(8) 0.4701(2)
O2 O 0.4820(2) 0.43292(10) 0.2653(3)
O3 O 0.9400(2) 0.19733(8) 0.9377(2)
O4 O 0.7880(2) 0.22272(8) 0.7035(2)
C1 C 0.5710(3) 0.43702(14) 0.3906(4)
C2 C 0.6316(3) 0.48530(13) 0.4690(4)
H3 H 0.6024 0.5179 0.4178
C3 C 0.7279(3) 0.48639(12) 0.6116(4)
C4 C 0.7739(3) 0.43540(11) 0.6909(3)
C5 C 0.8744(3) 0.42925(12) 0.8372(4)
H4 H 0.9158 0.4597 0.8920
C6 C 0.9145(3) 0.37971(12) 0.9033(3)
H5 H 0.9810 0.3771 1.0023
C7 C 0.8560(3) 0.33308(11) 0.8226(3)
C8 C 0.7551(3) 0.33765(12) 0.6777(3)
H6 H 0.7134 0.3072 0.6233
C9 C 0.7171(3) 0.38830(12) 0.6150(3)
C10 C 0.7875(3) 0.53776(13) 0.6904(4)
H7 H 0.7475 0.5675 0.6221
H8 H 0.8766 0.5374 0.7101
H9 H 0.7764 0.5414 0.7897
C11 C 0.8682(3) 0.23365(12) 0.8320(4)
C12 C 0.9173(3) 0.14170(11) 0.8869(4)
H10 H 0.9315 0.1363 0.7891
H11 H 0.8305 0.1314 0.8688
C13 C 1.0104(3) 0.10912(12) 1.0206(4)
H12 H 1.0956 0.1202 1.0383
H13 H 1.0005 0.0717 0.9927
H14 H 0.9945 0.1147 1.1161
N2 N 0.5937(2) 0.15407(9) 0.4348(3)
H2 H 0.6510 0.1692 0.5157
O5 O 0.25690(18) 0.18418(7) -0.0695(2)
O6 O 0.1001(2) 0.19225(9) -0.3016(2)
O7 O 0.68274(18) 0.07941(8) 0.5614(2)
O8 O 0.5105(2) 0.07233(8) 0.3349(3)
C14 C 0.1758(3) 0.21595(13) -0.1872(3)
C15 C 0.1863(3) 0.27277(12) -0.1633(3)
H15 H 0.1308 0.2949 -0.2417
C16 C 0.2722(3) 0.29573(11) -0.0336(3)
C17 C 0.3577(3) 0.26164(11) 0.0885(3)
C18 C 0.4538(3) 0.27906(12) 0.2297(3)
H16 H 0.4667 0.3157 0.2490
C19 C 0.5295(3) 0.24323(12) 0.3404(4)
H17 H 0.5920 0.2560 0.4338
C20 C 0.5137(3) 0.18778(11) 0.3146(3)
C21 C 0.4216(3) 0.16943(11) 0.1753(3)
H18 H 0.4100 0.1327 0.1551
C22 C 0.3470(3) 0.20605(11) 0.0665(3)
C23 C 0.2786(3) 0.35549(12) -0.0124(4)
H19 H 0.2132 0.3721 -0.1019
H20 H 0.3603 0.3682 -0.0052
H21 H 0.2663 0.3646 0.0836
C24 C 0.5883(3) 0.09907(12) 0.4339(4)
C25 C 0.6840(3) 0.02102(12) 0.5736(4)
H22 H 0.6739 0.0049 0.4722
H23 H 0.6148 0.0089 0.6030
C26 C 0.8085(3) 0.00531(14) 0.6981(4)
H24 H 0.8760 0.0161 0.6655
H25 H 0.8109 -0.0330 0.7124
H26 H 0.8189 0.0227 0.7968
loop_
_geom_bond_atom_site_label_1
_geom_bond_atom_site_label_2
_geom_bond_site_symmetry_1
_geom_bond_site_symmetry_2
N1 H1 1_555 1_555
N2 H2 1_555 1_555
O1 C1 1_555 1_555
O2 C1 1_555 1_555
O3 C11 1_555 1_555
O4 C11 1_555 1_555
O5 C14 1_555 1_555
O6 C14 1_555 1_555
O7 C24 1_555 1_555
O8 C24 1_555 1_555
C1 C2 1_555 1_555
C2 H3 1_555 1_555
C3 C2 1_555 1_555
C4 C3 1_555 1_555
C5 C4 1_555 1_555
H4 C5 1_555 1_555
C6 C5 1_555 1_555
H5 C6 1_555 1_555
C7 N1 1_555 1_555
C8 C7 1_555 1_555
H6 C8 1_555 1_555
C9 O1 1_555 1_555
C10 C3 1_555 1_555
H7 C10 1_555 1_555
H8 C10 1_555 1_555
H9 C10 1_555 1_555
C11 N1 1_555 1_555
C12 O3 1_555 1_555
H10 C12 1_555 1_555
H11 C12 1_555 1_555
C13 C12 1_555 1_555
H12 C13 1_555 1_555
H13 C13 1_555 1_555
H14 C13 1_555 1_555
C14 C15 1_555 1_555
C15 H15 1_555 1_555
C16 C15 1_555 1_555
C17 C16 1_555 1_555
C18 C17 1_555 1_555
H16 C18 1_555 1_555
C19 C18 1_555 1_555
H17 C19 1_555 1_555
C20 N2 1_555 1_555
C21 C20 1_555 1_555
H18 C21 1_555 1_555
C22 O5 1_555 1_555
C23 C16 1_555 1_555
H19 C23 1_555 1_555
H20 C23 1_555 1_555
H21 C23 1_555 1_555
C24 N2 1_555 1_555
C25 O7 1_555 1_555
H22 C25 1_555 1_555
H23 C25 1_555 1_555
C26 C25 1_555 1_555
H24 C26 1_555 1_555
H25 C26 1_555 1_555
H26 C26 1_555 1_555
C4 C9 1_555 1_555
C6 C7 1_555 1_555
C8 C9 1_555 1_555
C17 C22 1_555 1_555
C19 C20 1_555 1_555
C21 C22 1_555 1_555

#END
