
#######################################################################
#
#                 Cambridge Crystallographic Data Centre
#                                CCDC 
#
#######################################################################
#
# If this CIF has been generated from an entry in the Cambridge 
# Structural Database, then it will include bibliographic, chemical, 
# crystal, experimental, refinement or atomic coordinate data resulting 
# from the CCDC's data processing and validation procedures.
#
#######################################################################

data_SILSIQ
_chemical_formula_moiety         'C15 H13 N1 O3'
_chemical_name_systematic        
(E)-4-Methoxy-N-(3,4-methylenedioxybenzylidene)aniline
_symmetry_cell_setting           monoclinic
_symmetry_space_group_name_H-M   'P 21'
_symmetry_Int_Tables_number      4
_space_group_name_Hall           'P 2yb'
loop_
_symmetry_equiv_pos_site_id
_symmetry_equiv_pos_as_xyz
1 x,y,z
2 -x,1/2+y,-z
_cell_length_a                   14.497(2)
_cell_length_b                   6.1192(14)
_cell_length_c                   14.732(2)
_cell_angle_alpha                90
_cell_angle_beta                 102.819(2)
_cell_angle_gamma                90
_cell_volume                     1274.3
_exptl_crystal_colour            colorless
_exptl_crystal_description       needle
_chemical_melting_point          '383-385 K'
_cell_formula_units_Z            4
_exptl_crystal_recrystallization_method ethanol
loop_
_atom_site_label
_atom_site_type_symbol
_atom_site_fract_x
_atom_site_fract_y
_atom_site_fract_z
N1 N 0.6221(5) 0.9203(17) 0.3790(6)
O1 O 0.5892(6) 0.9143(17) 0.0183(5)
O2 O 0.6377(6) 1.2521(18) -0.0237(6)
O3 O 0.6112(5) 0.7729(15) 0.7511(5)
C1 C 0.6309(7) 1.118(2) 0.3467(7)
H1 H 0.6380 1.2347 0.3881
C2 C 0.6299(7) 1.162(2) 0.2514(8)
C3 C 0.6029(7) 0.995(2) 0.1830(6)
H2 H 0.5837 0.8580 0.1989
C4 C 0.6063(7) 1.044(2) 0.0925(7)
C5 C 0.6351(8) 1.250(2) 0.0672(8)
C6 C 0.6617(8) 1.416(2) 0.1340(8)
H3 H 0.6821 1.5520 0.1180
C7 C 0.6564(7) 1.369(2) 0.2239(8)
H4 H 0.6709 1.4784 0.2685
C8 C 0.6020(12) 1.046(3) -0.0599(8)
H5 H 0.6462 0.9762 -0.0913
H6 H 0.5421 1.0648 -0.1042
C9 C 0.6204(6) 0.8953(18) 0.4729(6)
C10 C 0.6592(7) 0.6977(18) 0.5177(7)
H7 H 0.6855 0.5962 0.4838
C11 C 0.6591(6) 0.6538(19) 0.6074(7)
H8 H 0.6873 0.5264 0.6349
C12 C 0.6169(7) 0.798(2) 0.6591(6)
C13 C 0.5796(7) 0.9931(18) 0.6168(7)
H9 H 0.5537 1.0945 0.6511
C14 C 0.5803(6) 1.037(2) 0.5270(7)
H10 H 0.5531 1.1664 0.5006
C15 C 0.6397(11) 0.565(2) 0.7928(8)
H11 H 0.5998 0.4524 0.7595
H12 H 0.6341 0.5659 0.8565
H13 H 0.7042 0.5366 0.7903
N2 N 0.8902(5) 0.4200(18) 0.4322(5)
O4 O 0.9310(6) 0.4245(16) 0.0858(5)
O5 O 0.8841(6) 0.7662(16) 0.0242(5)
O6 O 0.8685(5) 0.2769(16) 0.8033(5)
C16 C 0.8780(6) 0.617(2) 0.3959(7)
H14 H 0.8673 0.7332 0.4329
C17 C 0.8809(7) 0.658(2) 0.2997(8)
C18 C 0.9081(7) 0.501(2) 0.2429(6)
H15 H 0.9264 0.3628 0.2669
C19 C 0.9082(7) 0.545(2) 0.1546(7)
C20 C 0.8787(7) 0.760(2) 0.1160(7)
C21 C 0.8521(7) 0.914(2) 0.1707(8)
H16 H 0.8331 1.0519 0.1467
C22 C 0.8534(7) 0.866(2) 0.2635(8)
H17 H 0.8359 0.9717 0.3016
C23 C 0.9174(12) 0.556(3) 0.0050(10)
H18 H 0.8717 0.4874 -0.0450
H19 H 0.9766 0.5708 -0.0148
C24 C 0.8867(6) 0.3895(17) 0.5252(6)
C25 C 0.9184(6) 0.539(2) 0.5986(6)
H20 H 0.9446 0.6712 0.5860
C26 C 0.9114(7) 0.493(2) 0.6877(6)
H21 H 0.9336 0.5949 0.7343
C27 C 0.8717(6) 0.298(2) 0.7113(7)
C28 C 0.8436(7) 0.150(2) 0.6423(7)
H22 H 0.8205 0.0154 0.6561
C29 C 0.8489(7) 0.1971(19) 0.5499(7)
H23 H 0.8260 0.0946 0.5038
C30 C 0.8285(10) 0.076(2) 0.8290(8)
H24 H 0.7652 0.0589 0.7926
H25 H 0.8273 0.0800 0.8939
H26 H 0.8665 -0.0456 0.8176
loop_
_geom_bond_atom_site_label_1
_geom_bond_atom_site_label_2
_geom_bond_site_symmetry_1
_geom_bond_site_symmetry_2
N1 C1 1_555 1_555
O1 C4 1_555 1_555
O2 C5 1_555 1_555
O3 C12 1_555 1_555
C1 H1 1_555 1_555
C2 C1 1_555 1_555
C3 C2 1_555 1_555
H2 C3 1_555 1_555
C4 C3 1_555 1_555
C5 C4 1_555 1_555
C6 C5 1_555 1_555
H3 C6 1_555 1_555
C7 C2 1_555 1_555
H4 C7 1_555 1_555
C8 O1 1_555 1_555
H5 C8 1_555 1_555
H6 C8 1_555 1_555
C9 N1 1_555 1_555
C10 C9 1_555 1_555
H7 C10 1_555 1_555
C11 C10 1_555 1_555
H8 C11 1_555 1_555
C12 C11 1_555 1_555
C13 C12 1_555 1_555
H9 C13 1_555 1_555
C14 C9 1_555 1_555
H10 C14 1_555 1_555
C15 O3 1_555 1_555
H11 C15 1_555 1_555
H12 C15 1_555 1_555
H13 C15 1_555 1_555
N2 C16 1_555 1_555
O4 C19 1_555 1_555
O5 C20 1_555 1_555
O6 C27 1_555 1_555
C16 H14 1_555 1_555
C17 C16 1_555 1_555
C18 C17 1_555 1_555
H15 C18 1_555 1_555
C19 C18 1_555 1_555
C20 C19 1_555 1_555
C21 C20 1_555 1_555
H16 C21 1_555 1_555
C22 C17 1_555 1_555
H17 C22 1_555 1_555
C23 O4 1_555 1_555
H18 C23 1_555 1_555
H19 C23 1_555 1_555
C24 N2 1_555 1_555
C25 C24 1_555 1_555
H20 C25 1_555 1_555
C26 C25 1_555 1_555
H21 C26 1_555 1_555
C27 C26 1_555 1_555
C28 C27 1_555 1_555
H22 C28 1_555 1_555
C29 C24 1_555 1_555
H23 C29 1_555 1_555
C30 O6 1_555 1_555
H24 C30 1_555 1_555
H25 C30 1_555 1_555
H26 C30 1_555 1_555
O2 C8 1_555 1_555
C6 C7 1_555 1_555
C13 C14 1_555 1_555
O5 C23 1_555 1_555
C21 C22 1_555 1_555
C28 C29 1_555 1_555

#END
