
#######################################################################
#
#                 Cambridge Crystallographic Data Centre
#                                CCDC 
#
#######################################################################
#
# If this CIF has been generated from an entry in the Cambridge 
# Structural Database, then it will include bibliographic, chemical, 
# crystal, experimental, refinement or atomic coordinate data resulting 
# from the CCDC's data processing and validation procedures.
#
#######################################################################

data_SILSUC
_chemical_formula_moiety         'C15 H15 N1 O3'
_chemical_name_systematic        4-Methoxy-N-(3,4-methylenedioxybenzyl)aniline
_symmetry_cell_setting           orthorhombic
_symmetry_space_group_name_H-M   'P b c n'
_symmetry_Int_Tables_number      60
_space_group_name_Hall           '-P 2n 2ab'
loop_
_symmetry_equiv_pos_site_id
_symmetry_equiv_pos_as_xyz
1 x,y,z
2 1/2-x,1/2-y,1/2+z
3 1/2+x,1/2-y,-z
4 -x,y,1/2-z
5 -x,-y,-z
6 1/2+x,1/2+y,1/2-z
7 1/2-x,1/2+y,z
8 x,-y,1/2+z
_cell_length_a                   54.050(3)
_cell_length_b                   7.3530(10)
_cell_length_c                   6.4830(9)
_cell_angle_alpha                90
_cell_angle_beta                 90
_cell_angle_gamma                90
_cell_volume                     2576.54
_exptl_crystal_colour            colorless
_exptl_crystal_description       block
_chemical_melting_point          '339-341 K'
_cell_formula_units_Z            8
_exptl_crystal_recrystallization_method ethanol
loop_
_atom_site_label
_atom_site_type_symbol
_atom_site_fract_x
_atom_site_fract_y
_atom_site_fract_z
N1 N 0.37308(6) 0.2577(5) 0.7958(6)
H1 H 0.3836 0.2220 0.8954
O1 O 0.47087(6) 0.1691(6) 0.6437(6)
O2 O 0.47446(6) 0.3279(5) 0.3376(6)
O3 O 0.27794(6) 0.2373(5) 1.1237(6)
C1 C 0.37902(8) 0.1547(6) 0.6126(7)
H3 H 0.3668 0.1788 0.5067
H4 H 0.3786 0.0257 0.6440
C2 C 0.40408(8) 0.2046(6) 0.5346(7)
C3 C 0.42537(8) 0.1544(6) 0.6460(7)
H5 H 0.4242 0.0916 0.7701
C4 C 0.44761(8) 0.2016(6) 0.5649(7)
C5 C 0.45004(8) 0.2954(6) 0.3819(7)
C6 C 0.42980(9) 0.3458(7) 0.2706(8)
H6 H 0.4312 0.4090 0.1469
C7 C 0.40707(8) 0.2980(6) 0.3510(8)
H7 H 0.3930 0.3305 0.2776
C8 C 0.48742(10) 0.2496(9) 0.5030(10)
H8 H 0.4970 0.3425 0.5727
H9 H 0.4988 0.1582 0.4512
C9 C 0.34927(7) 0.2513(6) 0.8788(7)
C10 C 0.34322(8) 0.3562(6) 1.0500(7)
H10 H 0.3553 0.4287 1.1099
C11 C 0.31982(8) 0.3557(6) 1.1336(7)
H11 H 0.3163 0.4286 1.2472
C12 C 0.30174(8) 0.2492(6) 1.0509(7)
C13 C 0.30695(8) 0.1451(6) 0.8808(7)
H12 H 0.2945 0.0744 0.8220
C14 C 0.33044(8) 0.1440(6) 0.7956(7)
H13 H 0.3337 0.0711 0.6816
C15 C 0.27188(10) 0.3404(9) 1.3020(9)
H14 H 0.2819 0.3011 1.4157
H15 H 0.2547 0.3230 1.3352
H16 H 0.2749 0.4670 1.2755
H2? H 0.3765 0.3751 0.7687
loop_
_geom_bond_atom_site_label_1
_geom_bond_atom_site_label_2
_geom_bond_site_symmetry_1
_geom_bond_site_symmetry_2
N1 H1 1_555 1_555
O1 C4 1_555 1_555
O2 C5 1_555 1_555
O3 C12 1_555 1_555
C1 N1 1_555 1_555
H3 C1 1_555 1_555
H4 C1 1_555 1_555
C2 C1 1_555 1_555
C3 C2 1_555 1_555
H5 C3 1_555 1_555
C4 C3 1_555 1_555
C5 C4 1_555 1_555
C6 C5 1_555 1_555
H6 C6 1_555 1_555
C7 C2 1_555 1_555
H7 C7 1_555 1_555
C8 O1 1_555 1_555
H8 C8 1_555 1_555
H9 C8 1_555 1_555
C9 N1 1_555 1_555
C10 C9 1_555 1_555
H10 C10 1_555 1_555
C11 C10 1_555 1_555
H11 C11 1_555 1_555
C12 C11 1_555 1_555
C13 C12 1_555 1_555
H12 C13 1_555 1_555
C14 C9 1_555 1_555
H13 C14 1_555 1_555
C15 O3 1_555 1_555
H14 C15 1_555 1_555
H15 C15 1_555 1_555
H16 C15 1_555 1_555
O2 C8 1_555 1_555
C6 C7 1_555 1_555
C13 C14 1_555 1_555

#END
