
#######################################################################
#
#                 Cambridge Crystallographic Data Centre
#                                CCDC 
#
#######################################################################
#
# If this CIF has been generated from an entry in the Cambridge 
# Structural Database, then it will include bibliographic, chemical, 
# crystal, experimental, refinement or atomic coordinate data resulting 
# from the CCDC's data processing and validation procedures.
#
#######################################################################

data_SILTUC
_chemical_formula_moiety         'C15 H16 N2 O3'
_chemical_name_systematic        1,3-bis(o-Methoxyphenyl)urea
_symmetry_cell_setting           orthorhombic
_symmetry_space_group_name_H-M   'P 21 21 2'
_symmetry_Int_Tables_number      18
_space_group_name_Hall           'P 2 2ab'
loop_
_symmetry_equiv_pos_site_id
_symmetry_equiv_pos_as_xyz
1 x,y,z
2 1/2+x,1/2-y,-z
3 1/2-x,1/2+y,-z
4 -x,-y,z
_cell_length_a                   11.030(3)
_cell_length_b                   12.551(3)
_cell_length_c                   4.754(8)
_cell_angle_alpha                90
_cell_angle_beta                 90
_cell_angle_gamma                90
_cell_volume                     658.132
_exptl_crystal_colour            white
_chemical_melting_point          190-191deg.C
_cell_formula_units_Z            2
loop_
_atom_site_label
_atom_site_type_symbol
_atom_site_fract_x
_atom_site_fract_y
_atom_site_fract_z
C1 C 0.8181(1) 0.1116(1) 0.6959(3)
C2 C 0.7909(1) 0.2120(1) 0.8085(3)
C3 C 0.6875(1) 0.2660(1) 0.7181(4)
C4 C 0.6157(1) 0.2226(1) 0.5089(4)
C5 C 0.6441(1) 0.1253(1) 0.3916(4)
C6 C 0.74456(1) 0.0695(1) 0.4891(4)
C7 C 1.00000 0.00000 0.6514(3)
C8 C 0.8537(2) 0.3551(1) 1.1025(4)
N1 N 0.9180(1) 0.05509(9) 0.8090(3)
O1 O 1.00000 0.00000 0.3919(3)
O2 O 0.87011(9) 0.24914(9) 1.0049(3)
H1 H 0.935(1) 0.064(1) 0.978(5)
H2 H 0.667(2) 0.330(1) 0.795(4)
H3 H 0.540(2) 0.264(2) 0.452(5)
H4 H 0.596(2) 0.092(2) 0.238(5)
H5 H 0.766(2) 0.000(2) 0.412(3)
H6 H 0.863(2) 0.406(2) 0.959(6)
H7 H 0.921(2) 0.372(2) 1.235(4)
H8 H 0.770(2) 0.361(2) 1.203(4)
N1C N 1.0820(1) -0.05509(9) 0.8090(3)
C1C C 1.1819(1) -0.1116(1) 0.6959(3)
H1C H 1.065(1) -0.064(1) 0.978(5)
C2C C 1.2091(1) -0.2120(1) 0.8085(3)
C6C C 1.25544(1) -0.0695(1) 0.4891(4)
C3C C 1.3125(1) -0.2660(1) 0.7181(4)
O2C O 1.12989(9) -0.24914(9) 1.0049(3)
C5C C 1.3559(1) -0.1253(1) 0.3916(4)
H5C H 1.234(2) 0.000(2) 0.412(3)
C4C C 1.3843(1) -0.2226(1) 0.5089(4)
H2C H 1.333(2) -0.330(1) 0.795(4)
C8C C 1.1463(2) -0.3551(1) 1.1025(4)
H4C H 1.404(2) -0.092(2) 0.238(5)
H3C H 1.460(2) -0.264(2) 0.452(5)
H6C H 1.137(2) -0.406(2) 0.959(6)
H7C H 1.079(2) -0.372(2) 1.235(4)
H8C H 1.230(2) -0.361(2) 1.203(4)
loop_
_geom_bond_atom_site_label_1
_geom_bond_atom_site_label_2
_geom_bond_site_symmetry_1
_geom_bond_site_symmetry_2
C1 C2 1_555 1_555
C2 C3 1_555 1_555
C3 C4 1_555 1_555
C4 C5 1_555 1_555
C5 C6 1_555 1_555
C6 C1 1_555 1_555
C7 N1 1_555 1_555
C8 O2 1_555 1_555
N1 C1 1_555 1_555
O1 C7 1_555 1_555
O2 C2 1_555 1_555
H1 N1 1_555 1_555
H2 C3 1_555 1_555
H3 C4 1_555 1_555
H4 C5 1_555 1_555
H5 C6 1_555 1_555
H6 C8 1_555 1_555
H7 C8 1_555 1_555
H8 C8 1_555 1_555
N1C C7 1_555 1_555
C1C N1C 1_555 1_555
H1C N1C 1_555 1_555
C2C C1C 1_555 1_555
C6C C1C 1_555 1_555
C3C C2C 1_555 1_555
O2C C2C 1_555 1_555
C5C C6C 1_555 1_555
H5C C6C 1_555 1_555
C4C C3C 1_555 1_555
H2C C3C 1_555 1_555
C8C O2C 1_555 1_555
H4C C5C 1_555 1_555
H3C C4C 1_555 1_555
H6C C8C 1_555 1_555
H7C C8C 1_555 1_555
H8C C8C 1_555 1_555
C5C C4C 1_555 1_555

#END
