
#######################################################################
#
#                 Cambridge Crystallographic Data Centre
#                                CCDC 
#
#######################################################################
#
# If this CIF has been generated from an entry in the Cambridge 
# Structural Database, then it will include bibliographic, chemical, 
# crystal, experimental, refinement or atomic coordinate data resulting 
# from the CCDC's data processing and validation procedures.
#
#######################################################################

data_SILVOY
_chemical_formula_moiety         'C13 H10 N4 O5,C2 H6 O1 S1'
_chemical_name_systematic        
'1-(m-Nitrophenyl)-3-(p-nitrophenyl)-urea dimethylsulfoxide clathrate'
_symmetry_cell_setting           triclinic
_symmetry_space_group_name_H-M   'P -1'
_symmetry_Int_Tables_number      2
_space_group_name_Hall           '-P 1'
loop_
_symmetry_equiv_pos_site_id
_symmetry_equiv_pos_as_xyz
1 x,y,z
2 -x,-y,-z
_cell_length_a                   9.635(3)
_cell_length_b                   10.07(1)
_cell_length_c                   10.195(4)
_cell_angle_alpha                68.93(6)
_cell_angle_beta                 78.05(3)
_cell_angle_gamma                70.93(5)
_cell_volume                     867.861
_exptl_crystal_colour            brown-yellow
_chemical_melting_point          'above 300deg.C'
_cell_formula_units_Z            2
loop_
_atom_site_label
_atom_site_type_symbol
_atom_site_fract_x
_atom_site_fract_y
_atom_site_fract_z
C1 C 0.3922(2) 0.2614(2) 0.0761(2)
O1 O 0.5068(1) 0.2917(2) 0.0670(2)
N1 N 0.2794(2) 0.2750(2) 0.1823(2)
C2 C 0.2741(2) 0.3224(2) 0.2953(2)
C3 C 0.1641(2) 0.2941(2) 0.4067(2)
C4 C 0.1462(2) 0.3427(2) 0.5200(2)
C5 C 0.2401(2) 0.4195(2) 0.5239(2)
C6 C 0.3505(2) 0.4475(2) 0.4163(2)
C7 C 0.3681(2) 0.3996(2) 0.3023(2)
N2 N 0.2216(2) 0.4720(2) 0.6440(2)
O2 O 0.1275(2) 0.4416(2) 0.7409(2)
O3 O 0.3026(2) 0.5421(2) 0.6450(2)
N3 N 0.3601(2) 0.2069(2) -0.0156(2)
C8 C 0.4499(2) 0.1711(2) -0.1308(2)
C9 C 0.5924(2) 0.1874(2) -0.1720(2)
C10 C 0.6702(2) 0.1474(2) -0.2881(2)
C11 C 0.6158(2) 0.0919(2) -0.3653(2)
C12 C 0.4754(2) 0.0762(2) -0.3226(2)
C13 C 0.3936(2) 0.1138(2) -0.2076(2)
N4 N 0.8206(2) 0.1633(2) -0.3286(2)
O4 O 0.8698(2) 0.2109(2) -0.2597(2)
O5 O 0.8911(2) 0.1266(2) -0.4302(2)
H1 H 0.208(2) 0.252(2) 0.179(2)
H2 H 0.271(2) 0.198(2) 0.006(2)
H3 H 0.101 0.240 0.404
H4 H 0.071 0.324 0.595
H5 H 0.413 0.501 0.421
H6 H 0.445 0.418 0.229
H7 H 0.634 0.225 -0.121
H8 H 0.673 0.065 -0.445
H9 H 0.434 0.038 -0.374
H10 H 0.297 0.100 -0.100
S1 S -0.06781(6) 0.17055(6) 0.08001(5)
O6 O 0.0834(1) 0.1544(2) 0.1129(2)
C14 C -0.1761(3) 0.1393(3) 0.2435(3)
C15 C -0.1503(3) 0.3633(3) 0.0110(3)
H11 H -0.146 0.037 0.296
H12 H -0.164 0.196 0.293
H13 H -0.277 0.166 0.227
H14 H -0.103 0.401 -0.080
H15 H -0.252 0.381 0.006
H16 H -0.139 0.412 0.072
S2? S -0.0782(9) 0.2274(8) 0.1740(8)
loop_
_geom_bond_atom_site_label_1
_geom_bond_atom_site_label_2
_geom_bond_site_symmetry_1
_geom_bond_site_symmetry_2
C1 O1 1_555 1_555
N1 C1 1_555 1_555
C2 N1 1_555 1_555
C3 C2 1_555 1_555
C4 C3 1_555 1_555
C5 C4 1_555 1_555
C6 C5 1_555 1_555
C7 C2 1_555 1_555
N2 C5 1_555 1_555
O2 N2 1_555 1_555
O3 N2 1_555 1_555
N3 C1 1_555 1_555
C8 N3 1_555 1_555
C9 C8 1_555 1_555
C10 C9 1_555 1_555
C11 C10 1_555 1_555
C12 C11 1_555 1_555
C13 C8 1_555 1_555
N4 C10 1_555 1_555
O4 N4 1_555 1_555
O5 N4 1_555 1_555
S1 O6 1_555 1_555
C14 S1 1_555 1_555
C15 S1 1_555 1_555
H1 N1 1_555 1_555
H2 N3 1_555 1_555
H3 C3 1_555 1_555
H4 C4 1_555 1_555
H5 C6 1_555 1_555
H6 C7 1_555 1_555
H7 C9 1_555 1_555
H8 C11 1_555 1_555
H9 C12 1_555 1_555
H10 C13 1_555 1_555
H11 C14 1_555 1_555
H12 C14 1_555 1_555
H13 C14 1_555 1_555
H14 C15 1_555 1_555
H15 C15 1_555 1_555
H16 C15 1_555 1_555
C6 C7 1_555 1_555
C12 C13 1_555 1_555

#END
