
#######################################################################
#
#                 Cambridge Crystallographic Data Centre
#                                CCDC 
#
#######################################################################
#
# If this CIF has been generated from an entry in the Cambridge 
# Structural Database, then it will include bibliographic, chemical, 
# crystal, experimental, refinement or atomic coordinate data resulting 
# from the CCDC's data processing and validation procedures.
#
#######################################################################

data_SILWER
_chemical_formula_moiety         'C26 H24 N2'
_chemical_name_systematic        
N,N'-Butane-2,3-diylidenebis(2-methylnaphthalen-1-amine)
_symmetry_cell_setting           monoclinic
_symmetry_space_group_name_H-M   'P 21/c'
_symmetry_Int_Tables_number      14
_space_group_name_Hall           '-P 2ybc'
loop_
_symmetry_equiv_pos_site_id
_symmetry_equiv_pos_as_xyz
1 x,y,z
2 -x,1/2+y,1/2-z
3 -x,-y,-z
4 x,1/2-y,1/2+z
_cell_length_a                   15.137(9)
_cell_length_b                   7.266(4)
_cell_length_c                   9.703(6)
_cell_angle_alpha                90
_cell_angle_beta                 101.976(6)
_cell_angle_gamma                90
_cell_volume                     1043.96
_exptl_crystal_colour            yellow
_exptl_crystal_description       block
_cell_formula_units_Z            2
loop_
_atom_site_label
_atom_site_type_symbol
_atom_site_fract_x
_atom_site_fract_y
_atom_site_fract_z
C1 C 0.19588(12) 0.1096(3) 0.54005(19)
C2 C 0.26166(12) -0.0245(3) 0.5218(2)
C3 C 0.23920(13) -0.1898(3) 0.4465(2)
H1 H 0.1790 -0.2147 0.4072
C4 C 0.30354(16) -0.3136(4) 0.4299(3)
H2 H 0.2872 -0.4205 0.3780
C5 C 0.39389(18) -0.2806(5) 0.4905(3)
H3 H 0.4375 -0.3667 0.4801
C6 C 0.41887(16) -0.1251(5) 0.5642(3)
H4 H 0.4796 -0.1056 0.6037
C7 C 0.35409(13) 0.0100(4) 0.5828(2)
C8 C 0.37689(16) 0.1767(4) 0.6567(3)
H5 H 0.4370 0.2009 0.6971
C9 C 0.31275(17) 0.3018(4) 0.6698(2)
H6 H 0.3299 0.4098 0.7196
C10 C 0.22011(14) 0.2725(3) 0.6098(2)
C11 C 0.15145(17) 0.4171(3) 0.6238(3)
H7 H 0.1054 0.4203 0.5393
H8 H 0.1805 0.5351 0.6383
H9 H 0.1247 0.3883 0.7026
C12 C 0.04745(11) 0.0141(3) 0.54044(19)
C13 C 0.06830(13) -0.0339(4) 0.6939(2)
H10 H 0.1316 -0.0169 0.7312
H11 H 0.0524 -0.1599 0.7056
H12 H 0.0342 0.0446 0.7432
N1 N 0.10397(10) 0.0770(2) 0.47185(16)
C1B C -0.19588(12) -0.1096(3) 0.45995(19)
C2B C -0.26166(12) 0.0245(3) 0.4782(2)
C3B C -0.23920(13) 0.1898(3) 0.5535(2)
H1B H -0.1790 0.2147 0.5928
C4B C -0.30354(16) 0.3136(4) 0.5701(3)
H2B H -0.2872 0.4205 0.6220
C5B C -0.39389(18) 0.2806(5) 0.5095(3)
H3B H -0.4375 0.3667 0.5199
C6B C -0.41887(16) 0.1251(5) 0.4358(3)
H4B H -0.4796 0.1056 0.3963
C7B C -0.35409(13) -0.0100(4) 0.4172(2)
C8B C -0.37689(16) -0.1767(4) 0.3433(3)
H5B H -0.4370 -0.2009 0.3029
C9B C -0.31275(17) -0.3018(4) 0.3302(2)
H6B H -0.3299 -0.4098 0.2804
C10B C -0.22011(14) -0.2725(3) 0.3902(2)
C11B C -0.15145(17) -0.4171(3) 0.3762(3)
H7B H -0.1054 -0.4203 0.4607
H8B H -0.1805 -0.5351 0.3617
H9B H -0.1247 -0.3883 0.2974
C12B C -0.04745(11) -0.0141(3) 0.45956(19)
C13B C -0.06830(13) 0.0339(4) 0.3061(2)
H10B H -0.1316 0.0169 0.2688
H11B H -0.0524 0.1599 0.2944
H12B H -0.0342 -0.0446 0.2568
N1B N -0.10397(10) -0.0770(2) 0.52815(16)
loop_
_geom_bond_atom_site_label_1
_geom_bond_atom_site_label_2
_geom_bond_site_symmetry_1
_geom_bond_site_symmetry_2
C1 C2 1_555 1_555
C2 C3 1_555 1_555
C3 H1 1_555 1_555
C4 C3 1_555 1_555
H2 C4 1_555 1_555
C5 C4 1_555 1_555
H3 C5 1_555 1_555
C6 C5 1_555 1_555
H4 C6 1_555 1_555
C7 C2 1_555 1_555
C8 C7 1_555 1_555
H5 C8 1_555 1_555
C9 C8 1_555 1_555
H6 C9 1_555 1_555
C10 C1 1_555 1_555
C11 C10 1_555 1_555
H7 C11 1_555 1_555
H8 C11 1_555 1_555
H9 C11 1_555 1_555
C12 C13 1_555 1_555
C13 H10 1_555 1_555
H11 C13 1_555 1_555
H12 C13 1_555 1_555
N1 C1 1_555 1_555
C1B C2B 1_555 1_555
C2B C3B 1_555 1_555
C3B H1B 1_555 1_555
C4B C3B 1_555 1_555
H2B C4B 1_555 1_555
C5B C4B 1_555 1_555
H3B C5B 1_555 1_555
C6B C5B 1_555 1_555
H4B C6B 1_555 1_555
C7B C2B 1_555 1_555
C8B C7B 1_555 1_555
H5B C8B 1_555 1_555
C9B C8B 1_555 1_555
H6B C9B 1_555 1_555
C10B C1B 1_555 1_555
C11B C10B 1_555 1_555
H7B C11B 1_555 1_555
H8B C11B 1_555 1_555
H9B C11B 1_555 1_555
C12B C12 1_555 1_555
C13B C12B 1_555 1_555
H10B C13B 1_555 1_555
H11B C13B 1_555 1_555
H12B C13B 1_555 1_555
N1B C1B 1_555 1_555
C6 C7 1_555 1_555
C9 C10 1_555 1_555
C12 N1 1_555 1_555
C6B C7B 1_555 1_555
C9B C10B 1_555 1_555
C12B N1B 1_555 1_555

#END
