
#######################################################################
#
#                 Cambridge Crystallographic Data Centre
#                                CCDC 
#
#######################################################################
#
# If this CIF has been generated from an entry in the Cambridge 
# Structural Database, then it will include bibliographic, chemical, 
# crystal, experimental, refinement or atomic coordinate data resulting 
# from the CCDC's data processing and validation procedures.
#
#######################################################################

data_SIMBIA
_chemical_formula_moiety         'C8 H12 N2 O2'
_chemical_name_systematic        
'1-Methyl-3-propyl-1H-pyrazole-5-carboxylic acid'
_symmetry_cell_setting           monoclinic
_symmetry_space_group_name_H-M   'P 21/c'
_symmetry_Int_Tables_number      14
_space_group_name_Hall           '-P 2ybc'
loop_
_symmetry_equiv_pos_site_id
_symmetry_equiv_pos_as_xyz
1 x,y,z
2 -x,1/2+y,1/2-z
3 -x,-y,-z
4 x,1/2-y,1/2+z
_cell_length_a                   4.9336(19)
_cell_length_b                   19.121(7)
_cell_length_c                   9.568(4)
_cell_angle_alpha                90
_cell_angle_beta                 92.136(7)
_cell_angle_gamma                90
_cell_volume                     901.974
_exptl_crystal_colour            colorless
_exptl_crystal_description       block
_chemical_melting_point          '423-427 K'
_cell_formula_units_Z            4
_exptl_crystal_recrystallization_method 'methanol/ethyl acetate'
loop_
_atom_site_label
_atom_site_type_symbol
_atom_site_fract_x
_atom_site_fract_y
_atom_site_fract_z
O1 O 0.7756(3) 0.22535(10) -0.19643(18)
H1 H 0.887(7) 0.2471(16) -0.245(3)
O2 O 0.6976(4) 0.33056(10) -0.1072(2)
N1 N 0.2945(4) 0.26597(10) 0.06131(19)
N2 N 0.1416(4) 0.21980(10) 0.1296(2)
C1 C 0.6546(5) 0.26908(13) -0.1126(2)
C2 C 0.4590(4) 0.23211(12) -0.0261(2)
C3 C 0.4085(5) 0.16227(12) -0.0133(2)
H2 H 0.4905 0.1260 -0.0607
C4 C 0.2087(5) 0.15646(12) 0.0855(2)
C5 C 0.0766(5) 0.09284(13) 0.1413(3)
H3 H -0.0493 0.1070 0.2115
H4 H -0.0278 0.0706 0.0658
C6 C 0.2655(7) 0.04127(16) 0.2037(4)
H5 H 0.3816 0.0643 0.2737
H6 H 0.3800 0.0234 0.1317
C7 C 0.1225(9) -0.01936(19) 0.2712(5)
H7 H 0.0049 -0.0019 0.3409
H8 H 0.2545 -0.0502 0.3143
H9 H 0.0173 -0.0444 0.2012
C8 C 0.2658(5) 0.33973(12) 0.0891(3)
H10 H 0.4412 0.3597 0.1098
H11 H 0.1528 0.3462 0.1677
H12 H 0.1842 0.3624 0.0085
loop_
_geom_bond_atom_site_label_1
_geom_bond_atom_site_label_2
_geom_bond_site_symmetry_1
_geom_bond_site_symmetry_2
O1 H1 1_555 1_555
O2 C1 1_555 1_555
N1 N2 1_555 1_555
N2 C4 1_555 1_555
C1 O1 1_555 1_555
C2 N1 1_555 1_555
C3 C2 1_555 1_555
H2 C3 1_555 1_555
C4 C3 1_555 1_555
C5 C4 1_555 1_555
H3 C5 1_555 1_555
H4 C5 1_555 1_555
C6 C5 1_555 1_555
H5 C6 1_555 1_555
H6 C6 1_555 1_555
C7 C6 1_555 1_555
H7 C7 1_555 1_555
H8 C7 1_555 1_555
H9 C7 1_555 1_555
C8 N1 1_555 1_555
H10 C8 1_555 1_555
H11 C8 1_555 1_555
H12 C8 1_555 1_555
C1 C2 1_555 1_555

#END
