
#######################################################################
#
#                 Cambridge Crystallographic Data Centre
#                                CCDC 
#
#######################################################################
#
# If this CIF has been generated from an entry in the Cambridge 
# Structural Database, then it will include bibliographic, chemical, 
# crystal, experimental, refinement or atomic coordinate data resulting 
# from the CCDC's data processing and validation procedures.
#
#######################################################################

data_SIMFOJ
_chemical_formula_moiety         'C11 H14 N4 O6'
_chemical_name_systematic        
4,5,7,8-Tetrahydro-6H-3-(\b-D-ribofuranosyl)imidazo(4,5-e)(1,4)diazepine-5,8-dione
_symmetry_cell_setting           orthorhombic
_symmetry_space_group_name_H-M   'P 21 21 21'
_symmetry_Int_Tables_number      19
_space_group_name_Hall           'P 2ac 2ab'
loop_
_symmetry_equiv_pos_site_id
_symmetry_equiv_pos_as_xyz
1 x,y,z
2 1/2+x,1/2-y,-z
3 -x,1/2+y,1/2-z
4 1/2-x,-y,1/2+z
_cell_length_a                   5.6226(13)
_cell_length_b                   13.956(5)
_cell_length_c                   15.803(9)
_cell_angle_alpha                90
_cell_angle_beta                 90
_cell_angle_gamma                90
_cell_volume                     1240.05
_exptl_crystal_colour            white
_chemical_melting_point          'above 170deg.C'
_cell_formula_units_Z            4
loop_
_atom_site_label
_atom_site_type_symbol
_atom_site_fract_x
_atom_site_fract_y
_atom_site_fract_z
O1 O -0.3135(6) -0.1563(2) -0.0394(1)
O2 O -0.7106(5) -0.1554(2) 0.2659(1)
O3 O 0.2565(5) 0.0124(2) 0.0993(1)
O4 O 0.0973(6) 0.2280(2) 0.2020(2)
O5 O 0.5062(5) 0.2069(2) 0.1115(2)
O6 O -0.0316(5) 0.0695(2) -0.0408(2)
N1 N -0.2930(6) -0.0451(2) 0.2986(2)
N2 N -0.0470(5) 0.0087(2) 0.1996(2)
N3 N -0.1947(6) -0.0708(2) 0.0732(2)
N4 N -0.5425(6) -0.2162(2) 0.1480(2)
C1 C -0.1146(7) 0.0113(3) 0.2828(2)
C2 C -0.2821(7) -0.1511(2) 0.0371(2)
C3 C -0.3334(8) -0.2329(2) 0.0971(2)
C4 C -0.5460(7) -0.1550(2) 0.2145(2)
C5 C -0.3483(6) -0.0892(2) 0.2218(2)
C6 C -0.1977(7) -0.0548(2) 0.1604(2)
C7 C 0.1555(7) 0.0632(2) 0.1669(2)
C8 C 0.0941(6) 0.1621(2) 0.1344(2)
C9 C 0.2910(7) 0.1789(2) 0.0707(2)
C10 C 0.3355(7) 0.0782(2) 0.0343(2)
C11 C 0.2171(8) 0.0552(3) -0.0469(2)
H1 H -0.0305 0.2552 0.2041
H2 H 0.4803 0.2559 0.1558
H3 H -0.1119 0.0597 -0.0986
H4 H -0.1490 -0.0179 0.0396
H5 H -0.6769 -0.2480 0.1350
H6 H -0.0372 0.0573 0.3328
H7 H -0.1990 -0.2412 0.1338
H8 H -0.3580 -0.2903 0.0648
H9 H 0.2619 0.0713 0.2138
H10 H -0.0610 0.1687 0.1098
H11 H 0.2491 0.2276 0.0304
H12 H 0.5020 0.0750 0.0210
H13 H 0.2474 -0.0107 -0.0605
H14 H 0.2790 0.0954 -0.0910
loop_
_geom_bond_atom_site_label_1
_geom_bond_atom_site_label_2
_geom_bond_site_symmetry_1
_geom_bond_site_symmetry_2
O1 C2 1_555 1_555
O2 C4 1_555 1_555
O3 C7 1_555 1_555
O4 C8 1_555 1_555
O5 C9 1_555 1_555
O6 C11 1_555 1_555
N1 C1 1_555 1_555
N2 C1 1_555 1_555
N3 C2 1_555 1_555
N4 C3 1_555 1_555
C1 H6 1_555 1_555
C2 C3 1_555 1_555
C3 H7 1_555 1_555
C4 N4 1_555 1_555
C5 N1 1_555 1_555
C6 N2 1_555 1_555
C7 N2 1_555 1_555
C8 C7 1_555 1_555
C9 C8 1_555 1_555
C10 O3 1_555 1_555
C11 C10 1_555 1_555
H1 O4 1_555 1_555
H2 O5 1_555 1_555
H3 O6 1_555 1_555
H4 N3 1_555 1_555
H5 N4 1_555 1_555
H8 C3 1_555 1_555
H9 C7 1_555 1_555
H10 C8 1_555 1_555
H11 C9 1_555 1_555
H12 C10 1_555 1_555
H13 C11 1_555 1_555
H14 C11 1_555 1_555
N3 C6 1_555 1_555
C4 C5 1_555 1_555
C5 C6 1_555 1_555
C9 C10 1_555 1_555

#END
