
#######################################################################
#
#                 Cambridge Crystallographic Data Centre
#                                CCDC 
#
#######################################################################
#
# If this CIF has been generated from an entry in the Cambridge 
# Structural Database, then it will include bibliographic, chemical, 
# crystal, experimental, refinement or atomic coordinate data resulting 
# from the CCDC's data processing and validation procedures.
#
#######################################################################

data_SIMGIH
_chemical_formula_moiety         'C15 H18 Cl2 O2'
_chemical_name_systematic        
4,4-dichloro-5-(4-methoxyphenyl)octahydrocyclopenta[b]pyran
_symmetry_cell_setting           monoclinic
_symmetry_space_group_name_H-M   'P 21/c'
_symmetry_Int_Tables_number      14
_space_group_name_Hall           '-P 2ybc'
loop_
_symmetry_equiv_pos_site_id
_symmetry_equiv_pos_as_xyz
1 x,y,z
2 -x,1/2+y,1/2-z
3 -x,-y,-z
4 x,1/2-y,1/2+z
_cell_length_a                   13.738(5)
_cell_length_b                   7.647(5)
_cell_length_c                   14.648(5)
_cell_angle_alpha                90
_cell_angle_beta                 108.843(5)
_cell_angle_gamma                90
_cell_volume                     1456.37
_exptl_crystal_colour            colorless
_exptl_crystal_description       Block
_cell_formula_units_Z            4
loop_
_atom_site_label
_atom_site_type_symbol
_atom_site_fract_x
_atom_site_fract_y
_atom_site_fract_z
Cl1 Cl 0.64217(5) 0.55192(7) 0.40146(4)
Cl2 Cl 0.64789(5) 0.35186(9) 0.23801(4)
O1 O 0.60973(12) 0.1063(2) 0.50061(11)
O2 O 0.95639(11) 0.0164(2) 0.11142(10)
C1 C 0.72714(13) 0.2298(2) 0.42416(12)
H1 H 0.7890 0.3025 0.4387
C2 C 0.63763(14) 0.3305(2) 0.35601(12)
C3 C 0.80848(13) 0.0412(2) 0.31905(12)
C4 C 0.90078(13) 0.1286(2) 0.33364(12)
H2 H 0.9284 0.1933 0.3898
C5 C 0.70711(16) 0.1884(3) 0.51930(13)
H3 H 0.7129 0.2933 0.5592
C6 C 0.91259(13) 0.0279(2) 0.18303(12)
C7 C 0.82203(14) -0.0640(2) 0.16820(13)
H4 H 0.7953 -0.1308 0.1127
C8 C 0.95304(13) 0.1226(2) 0.26735(13)
H5 H 1.0150 0.1819 0.2794
C9 C 0.77129(13) -0.0569(2) 0.23524(13)
H6 H 0.7105 -0.1196 0.2241
C10 C 0.8153(2) -0.0383(3) 0.48929(16)
H7 H 0.7990 -0.1618 0.4890
H8 H 0.8883 -0.0265 0.4993
C11 C 0.52755(18) 0.2165(4) 0.4474(2)
H9 H 0.5303 0.3259 0.4816
H10 H 0.4623 0.1605 0.4410
C12 C 1.05120(19) 0.1056(3) 0.12614(18)
H11 H 1.0739 0.0877 0.0714
H12 H 1.0417 0.2284 0.1340
H13 H 1.1020 0.0609 0.1830
C13 C 0.78775(19) 0.0538(3) 0.56839(15)
H14 H 0.8479 0.1102 0.6126
H15 H 0.7607 -0.0287 0.6044
C14 C 0.53495(15) 0.2525(3) 0.34883(17)
H16 H 0.5255 0.1443 0.3124
H17 H 0.4807 0.3325 0.3146
C15 C 0.75221(14) 0.0468(2) 0.39228(13)
H18 H 0.6876 -0.0180 0.3661
loop_
_geom_bond_atom_site_label_1
_geom_bond_atom_site_label_2
_geom_bond_site_symmetry_1
_geom_bond_site_symmetry_2
Cl1 C2 1_555 1_555
Cl2 C2 1_555 1_555
O1 C5 1_555 1_555
O2 C6 1_555 1_555
C1 H1 1_555 1_555
C2 C1 1_555 1_555
C3 C4 1_555 1_555
C4 H2 1_555 1_555
C5 C1 1_555 1_555
H3 C5 1_555 1_555
C6 C7 1_555 1_555
C7 H4 1_555 1_555
C8 C4 1_555 1_555
H5 C8 1_555 1_555
C9 C3 1_555 1_555
H6 C9 1_555 1_555
C10 H7 1_555 1_555
H8 C10 1_555 1_555
C11 O1 1_555 1_555
H9 C11 1_555 1_555
H10 C11 1_555 1_555
C12 O2 1_555 1_555
H11 C12 1_555 1_555
H12 C12 1_555 1_555
H13 C12 1_555 1_555
C13 C5 1_555 1_555
H14 C13 1_555 1_555
H15 C13 1_555 1_555
C14 C2 1_555 1_555
H16 C14 1_555 1_555
H17 C14 1_555 1_555
C15 C1 1_555 1_555
H18 C15 1_555 1_555
C3 C15 1_555 1_555
C6 C8 1_555 1_555
C7 C9 1_555 1_555
C10 C13 1_555 1_555
C10 C15 1_555 1_555
C11 C14 1_555 1_555

#END
