
#######################################################################
#
#                 Cambridge Crystallographic Data Centre
#                                CCDC 
#
#######################################################################
#
# If this CIF has been generated from an entry in the Cambridge 
# Structural Database, then it will include bibliographic, chemical, 
# crystal, experimental, refinement or atomic coordinate data resulting 
# from the CCDC's data processing and validation procedures.
#
#######################################################################

data_SIMGUR
_chemical_name_common            
(E)-N-(1-(3-Oxo-3-phenylpropyl)imidazolidin-2-ylidene)nitramide
_chemical_formula_moiety         'C12 H14 N4 O3'
_chemical_name_systematic        
(E)-3-(2-Nitriminoimidazolidin-1-yl)-1-phenylpropan-1-one
_symmetry_cell_setting           monoclinic
_symmetry_space_group_name_H-M   'P 21/c'
_symmetry_Int_Tables_number      14
_space_group_name_Hall           '-P 2ybc'
loop_
_symmetry_equiv_pos_site_id
_symmetry_equiv_pos_as_xyz
1 x,y,z
2 -x,1/2+y,1/2-z
3 -x,-y,-z
4 x,1/2-y,1/2+z
_cell_length_a                   15.346(4)
_cell_length_b                   6.0908(15)
_cell_length_c                   13.784(3)
_cell_angle_alpha                90
_cell_angle_beta                 102.098(4)
_cell_angle_gamma                90
_cell_volume                     1259.77
_exptl_crystal_colour            colorless
_exptl_crystal_description       block
_cell_formula_units_Z            4
_exptl_crystal_recrystallization_method ethanol
loop_
_atom_site_label
_atom_site_type_symbol
_atom_site_fract_x
_atom_site_fract_y
_atom_site_fract_z
O1 O 0.89456(9) 0.4085(3) 0.57018(12)
O2 O 0.62133(12) 0.2316(4) 0.85036(15)
O3 O 0.54319(14) -0.0283(4) 0.77931(16)
N1 N 0.68641(11) -0.0235(3) 0.57030(13)
N2 N 0.58391(13) -0.2046(4) 0.62248(17)
H1 H 0.5493 -0.2437 0.6611
N3 N 0.65419(10) 0.1137(3) 0.71315(13)
N4 N 0.60406(13) 0.1005(4) 0.78249(15)
C1 C 1.07620(13) 0.3262(3) 0.62309(14)
H2 H 1.0577 0.4668 0.6018
C2 C 1.16612(14) 0.2813(4) 0.65379(16)
H3 H 1.2078 0.3920 0.6533
C3 C 1.19427(14) 0.0738(4) 0.68500(15)
H4 H 1.2547 0.0448 0.7069
C4 C 1.13284(14) -0.0900(4) 0.68366(16)
H5 H 1.1519 -0.2313 0.7031
C5 C 1.04285(14) -0.0474(4) 0.65363(15)
H6 H 1.0018 -0.1597 0.6534
C6 C 1.01342(12) 0.1622(3) 0.62384(12)
C7 C 0.91721(13) 0.2204(3) 0.59318(13)
C8 C 0.84777(12) 0.0457(3) 0.59221(14)
H7 H 0.8564 -0.0212 0.6574
H8 H 0.8550 -0.0676 0.5451
C9 C 0.75451(12) 0.1381(4) 0.56442(15)
H9 H 0.7491 0.2595 0.6083
H10 H 0.7446 0.1951 0.4973
C10 C 0.66626(17) -0.2033(5) 0.5001(2)
H11 H 0.7167 -0.3017 0.5055
H12 H 0.6496 -0.1494 0.4326
C11 C 0.58803(18) -0.3171(5) 0.5314(2)
H13 H 0.5334 -0.2981 0.4821
H14 H 0.5994 -0.4727 0.5427
C12 C 0.63860(12) -0.0357(4) 0.64033(16)
loop_
_geom_bond_atom_site_label_1
_geom_bond_atom_site_label_2
_geom_bond_site_symmetry_1
_geom_bond_site_symmetry_2
O1 C7 1_555 1_555
O2 N4 1_555 1_555
O3 N4 1_555 1_555
N1 C9 1_555 1_555
N2 H1 1_555 1_555
N3 N4 1_555 1_555
C1 H2 1_555 1_555
C2 C1 1_555 1_555
H3 C2 1_555 1_555
C3 C2 1_555 1_555
H4 C3 1_555 1_555
C4 C3 1_555 1_555
H5 C4 1_555 1_555
C5 C4 1_555 1_555
H6 C5 1_555 1_555
C6 C1 1_555 1_555
C7 C6 1_555 1_555
C8 C7 1_555 1_555
H7 C8 1_555 1_555
H8 C8 1_555 1_555
C9 C8 1_555 1_555
H9 C9 1_555 1_555
H10 C9 1_555 1_555
C10 N1 1_555 1_555
H11 C10 1_555 1_555
H12 C10 1_555 1_555
C11 N2 1_555 1_555
H13 C11 1_555 1_555
H14 C11 1_555 1_555
C12 N1 1_555 1_555
N2 C12 1_555 1_555
N3 C12 1_555 1_555
C5 C6 1_555 1_555
C10 C11 1_555 1_555

#END
