
#######################################################################
#
#                 Cambridge Crystallographic Data Centre
#                                CCDC 
#
#######################################################################
#
# If this CIF has been generated from an entry in the Cambridge 
# Structural Database, then it will include bibliographic, chemical, 
# crystal, experimental, refinement or atomic coordinate data resulting 
# from the CCDC's data processing and validation procedures.
#
#######################################################################

data_SIMJII
_chemical_formula_moiety         'C26 H25 N3 O5'
_chemical_name_systematic        
2-(2-(3-(3,5-Dimethoxyphenyl)-1,2,4-oxadiazol-5-yl)phenoxy)-N-(2,6-dimethylphenyl)acetamide
_symmetry_cell_setting           triclinic
_symmetry_space_group_name_H-M   'P -1'
_symmetry_Int_Tables_number      2
_space_group_name_Hall           '-P 1'
loop_
_symmetry_equiv_pos_site_id
_symmetry_equiv_pos_as_xyz
1 x,y,z
2 -x,-y,-z
_cell_length_a                   7.3200(15)
_cell_length_b                   12.630(3)
_cell_length_c                   13.106(3)
_cell_angle_alpha                95.37(3)
_cell_angle_beta                 101.06(3)
_cell_angle_gamma                103.48(3)
_cell_volume                     1144.2
_exptl_crystal_colour            colorless
_exptl_crystal_description       block
_chemical_melting_point          '419-420 K'
_cell_formula_units_Z            2
_exptl_crystal_recrystallization_method ethanol
loop_
_atom_site_label
_atom_site_type_symbol
_atom_site_fract_x
_atom_site_fract_y
_atom_site_fract_z
O1 O 0.3738(5) -0.2031(3) 0.7085(3)
O2 O 0.6959(4) 0.1635(3) 0.8227(2)
O3 O 0.1682(4) 0.1486(2) 0.3487(2)
O4 O 0.0182(4) 0.1649(2) 0.1575(2)
O5 O 0.1340(5) 0.4105(3) 0.0536(2)
N1 N 0.2816(5) 0.1636(3) 0.4531(2)
N2 N 0.1300(5) -0.0156(3) 0.3976(2)
N3 N 0.2857(5) 0.3462(3) 0.1901(3)
H1 H 0.2880 0.2884 0.2197
C1 C 0.2473(8) -0.2889(4) 0.6317(5)
H2 H 0.2419 -0.3582 0.6571
H3 H 0.2935 -0.2899 0.5680
H4 H 0.1208 -0.2766 0.6182
C2 C 0.7412(7) 0.2758(4) 0.8085(4)
H5 H 0.8343 0.3184 0.8688
H6 H 0.6266 0.3016 0.8001
H7 H 0.7935 0.2834 0.7470
C3 C 0.5675(6) 0.0903(4) 0.7431(3)
C4 C 0.5289(6) -0.0181(4) 0.7583(3)
H8 H 0.5905 -0.0374 0.8200
C5 C 0.4015(6) -0.0979(4) 0.6841(3)
C6 C 0.3069(6) -0.0714(4) 0.5914(3)
H9 H 0.2181 -0.1256 0.5414
C7 C 0.3476(6) 0.0364(4) 0.5754(3)
C8 C 0.4766(6) 0.1189(4) 0.6499(3)
H10 H 0.5019 0.1918 0.6380
C9 C 0.2518(6) 0.0642(3) 0.4753(3)
C10 C 0.0835(6) 0.0413(3) 0.3235(3)
C11 C -0.0464(5) -0.0039(3) 0.2205(3)
C12 C -0.1374(6) -0.1151(3) 0.2040(3)
H11 H -0.1090 -0.1578 0.2560
C13 C -0.2688(7) -0.1638(4) 0.1123(3)
H12 H -0.3291 -0.2386 0.1018
C14 C -0.3091(7) -0.0993(4) 0.0366(3)
H13 H -0.4016 -0.1307 -0.0246
C15 C -0.2177(6) 0.0085(3) 0.0487(3)
H14 H -0.2460 0.0502 -0.0042
C16 C -0.0824(6) 0.0568(3) 0.1396(3)
C17 C -0.0099(6) 0.2329(3) 0.0789(3)
H15 H -0.1362 0.2469 0.0720
H16 H -0.0031 0.1962 0.0118
C18 C 0.1413(7) 0.3383(4) 0.1084(3)
C19 C 0.4371(7) 0.4428(3) 0.2324(4)
C20 C 0.4323(9) 0.5036(4) 0.3245(4)
C21 C 0.5882(11) 0.5932(4) 0.3679(5)
H17 H 0.5907 0.6348 0.4308
C22 C 0.7353(10) 0.6200(4) 0.3197(5)
H18 H 0.8349 0.6820 0.3495
C23 C 0.7467(9) 0.5593(5) 0.2266(5)
H19 H 0.8520 0.5785 0.1959
C24 C 0.5918(8) 0.4688(4) 0.1826(4)
C25 C 0.5993(8) 0.4040(4) 0.0840(5)
H20 H 0.7151 0.4367 0.0623
H21 H 0.4895 0.4034 0.0302
H22 H 0.5981 0.3299 0.0955
C26 C 0.2561(8) 0.4750(5) 0.3734(5)
H23 H 0.1659 0.4099 0.3333
H24 H 0.1961 0.5349 0.3733
H25 H 0.2959 0.4622 0.4444
loop_
_geom_bond_atom_site_label_1
_geom_bond_atom_site_label_2
_geom_bond_site_symmetry_1
_geom_bond_site_symmetry_2
O1 C1 1_555 1_555
O2 C2 1_555 1_555
O3 N1 1_555 1_555
O4 C16 1_555 1_555
O5 C18 1_555 1_555
N1 C9 1_555 1_555
N2 C9 1_555 1_555
N3 H1 1_555 1_555
C1 H2 1_555 1_555
H3 C1 1_555 1_555
H4 C1 1_555 1_555
C2 H5 1_555 1_555
H6 C2 1_555 1_555
H7 C2 1_555 1_555
C3 O2 1_555 1_555
C4 C3 1_555 1_555
H8 C4 1_555 1_555
C5 O1 1_555 1_555
C6 C5 1_555 1_555
H9 C6 1_555 1_555
C7 C6 1_555 1_555
C8 C3 1_555 1_555
H10 C8 1_555 1_555
C9 C7 1_555 1_555
C10 O3 1_555 1_555
C11 C10 1_555 1_555
C12 C11 1_555 1_555
H11 C12 1_555 1_555
C13 C12 1_555 1_555
H12 C13 1_555 1_555
C14 C13 1_555 1_555
H13 C14 1_555 1_555
C15 C14 1_555 1_555
H14 C15 1_555 1_555
C16 C11 1_555 1_555
C17 O4 1_555 1_555
H15 C17 1_555 1_555
H16 C17 1_555 1_555
C18 N3 1_555 1_555
C19 N3 1_555 1_555
C20 C19 1_555 1_555
C21 C20 1_555 1_555
H17 C21 1_555 1_555
C22 C21 1_555 1_555
H18 C22 1_555 1_555
C23 C22 1_555 1_555
H19 C23 1_555 1_555
C24 C19 1_555 1_555
C25 C24 1_555 1_555
H20 C25 1_555 1_555
H21 C25 1_555 1_555
H22 C25 1_555 1_555
C26 C20 1_555 1_555
H23 C26 1_555 1_555
H24 C26 1_555 1_555
H25 C26 1_555 1_555
N2 C10 1_555 1_555
C4 C5 1_555 1_555
C7 C8 1_555 1_555
C15 C16 1_555 1_555
C17 C18 1_555 1_555
C23 C24 1_555 1_555

#END
