
#######################################################################
#
#                 Cambridge Crystallographic Data Centre
#                                CCDC 
#
#######################################################################
#
# If this CIF has been generated from an entry in the Cambridge 
# Structural Database, then it will include bibliographic, chemical, 
# crystal, experimental, refinement or atomic coordinate data resulting 
# from the CCDC's data processing and validation procedures.
#
#######################################################################

data_SIMKUU
_chemical_formula_moiety         'C18 H19 N1 O2 S1'
_chemical_name_systematic        
cis-L-(+)-4,5-Dihydro-1-(2-phenylethyl)-4-(phenylmethyl)-3H-1\l^4^-isothiazole-1,3-dione
_symmetry_cell_setting           monoclinic
_symmetry_space_group_name_H-M   'P 21'
_symmetry_Int_Tables_number      4
_space_group_name_Hall           'P 2yb'
loop_
_symmetry_equiv_pos_site_id
_symmetry_equiv_pos_as_xyz
1 x,y,z
2 -x,1/2+y,-z
_cell_length_a                   8.885(3)
_cell_length_b                   6.315(2)
_cell_length_c                   14.954(7)
_cell_angle_alpha                90
_cell_angle_beta                 101.82(3)
_cell_angle_gamma                90
_cell_volume                     821.259
_exptl_crystal_colour            colorless
_chemical_melting_point          187-187.5deg.C
_cell_formula_units_Z            2
loop_
_atom_site_label
_atom_site_type_symbol
_atom_site_fract_x
_atom_site_fract_y
_atom_site_fract_z
S1 S 0.7326(1) 0.0000 0.0855(1)
N1 N 0.7900(3) 0.0274(8) -0.0059(2)
C1 C 0.9445(5) 0.0745(8) 0.0108(3)
C2 C 1.0177(4) 0.1044(9) 0.1126(2)
C3 C 0.9118(4) -0.0068(10) 0.1652(2)
O1 O 0.6294(3) 0.1604(8) 0.1080(2)
C4 C 1.1849(4) 0.0303(10) 0.1381(3)
C5 C 1.2554(4) 0.0821(9) 0.2363(3)
C6 C 1.3190(6) 0.2778(11) 0.2588(4)
C7 C 1.3823(8) 0.3288(15) 0.3481(5)
C8 C 1.3769(6) 0.1883(18) 0.4172(4)
C9 C 1.3122(6) -0.0037(18) 0.3963(3)
C10 C 1.2527(5) -0.0620(11) 0.3053(3)
C11 C 0.6404(5) -0.2477(10) 0.0807(3)
C12 C 0.5671(5) -0.2928(12) 0.1616(3)
C13 C 0.6793(5) -0.2975(11) 0.2525(3)
C14 C 0.7864(7) -0.4572(12) 0.2720(4)
C15 C 0.8977(9) -0.4534(15) 0.3524(4)
C16 C 0.8969(8) -0.2917(18) 0.4140(4)
C17 C 0.7924(8) -0.1355(15) 0.3952(4)
C18 C 0.6845(6) -0.1371(11) 0.3161(4)
O2 O 1.0163(3) 0.0949(7) -0.0498(2)
H1 H 1.0159 0.2529 0.1261
H2 H 0.9445 -0.1497 0.1802
H3 H 0.9061 0.0680 0.2203
H4 H 1.1891 -0.1199 0.1290
H5 H 1.2433 0.0975 0.0987
H6 H 1.3191 0.3808 0.2116
H7 H 1.4307 0.4640 0.3621
H8 H 1.4186 0.2257 0.4796
H9 H 1.3063 -0.1018 0.4445
H10 H 1.2112 -0.2012 0.2912
H11 H 0.7143 -0.3567 0.0771
H12 H 0.5624 -0.2543 0.0259
H13 H 0.5156 -0.4271 0.1523
H14 H 0.4907 -0.1866 0.1640
H15 H 0.7841 -0.5722 0.2298
H16 H 0.9745 -0.5623 0.3648
H17 H 0.9709 -0.2903 0.4706
H18 H 0.7941 -0.0217 0.4379
H19 H 0.6104 -0.0246 0.3043
loop_
_geom_bond_atom_site_label_1
_geom_bond_atom_site_label_2
_geom_bond_site_symmetry_1
_geom_bond_site_symmetry_2
S1 N1 1_555 1_555
N1 C1 1_555 1_555
C1 C2 1_555 1_555
C2 C3 1_555 1_555
C3 S1 1_555 1_555
O1 S1 1_555 1_555
C4 C2 1_555 1_555
C5 C4 1_555 1_555
C6 C5 1_555 1_555
C7 C6 1_555 1_555
C8 C7 1_555 1_555
C9 C8 1_555 1_555
C10 C5 1_555 1_555
C11 S1 1_555 1_555
C12 C11 1_555 1_555
C13 C12 1_555 1_555
C14 C13 1_555 1_555
C15 C14 1_555 1_555
C16 C15 1_555 1_555
C17 C16 1_555 1_555
C18 C13 1_555 1_555
O2 C1 1_555 1_555
H1 C2 1_555 1_555
H2 C3 1_555 1_555
H3 C3 1_555 1_555
H4 C4 1_555 1_555
H5 C4 1_555 1_555
H6 C6 1_555 1_555
H7 C7 1_555 1_555
H8 C8 1_555 1_555
H9 C9 1_555 1_555
H10 C10 1_555 1_555
H11 C11 1_555 1_555
H12 C11 1_555 1_555
H13 C12 1_555 1_555
H14 C12 1_555 1_555
H15 C14 1_555 1_555
H16 C15 1_555 1_555
H17 C16 1_555 1_555
H18 C17 1_555 1_555
H19 C18 1_555 1_555
C9 C10 1_555 1_555
C17 C18 1_555 1_555

#END
