
#######################################################################
#
#                 Cambridge Crystallographic Data Centre
#                                CCDC 
#
#######################################################################
#
# If this CIF has been generated from an entry in the Cambridge 
# Structural Database, then it will include bibliographic, chemical, 
# crystal, experimental, refinement or atomic coordinate data resulting 
# from the CCDC's data processing and validation procedures.
#
#######################################################################

data_SIMKOO
_chemical_formula_moiety         'C18 H19 N1 O2 S1'
_chemical_name_systematic        
trans-L-(+)-4,5-Dihydro-1-(2-phenylethyl)-4-(phenylmethyl)-3H-1\l^4^-isothiazole-1,3-dione
_symmetry_cell_setting           monoclinic
_symmetry_space_group_name_H-M   'P 21/c'
_symmetry_Int_Tables_number      14
_space_group_name_Hall           '-P 2ybc'
loop_
_symmetry_equiv_pos_site_id
_symmetry_equiv_pos_as_xyz
1 x,y,z
2 -x,1/2+y,1/2-z
3 -x,-y,-z
4 x,1/2-y,1/2+z
_cell_length_a                   14.559(4)
_cell_length_b                   10.623(3)
_cell_length_c                   10.743(4)
_cell_angle_alpha                90
_cell_angle_beta                 97.893(12)
_cell_angle_gamma                90
_cell_volume                     1645.77
_exptl_crystal_colour            colorless
_chemical_melting_point          144-145deg.C
_cell_formula_units_Z            4
loop_
_atom_site_label
_atom_site_type_symbol
_atom_site_fract_x
_atom_site_fract_y
_atom_site_fract_z
S1 S 0.9685(1) 0.1033(1) 0.1676(2)
N1 N 0.9566(3) -0.0211(3) 0.2422(5)
C1 C 0.9158(3) -0.0002(5) 0.3477(7)
C2 C 0.8956(3) 0.1385(5) 0.3713(6)
C3 C 0.9228(3) 0.2175(5) 0.2635(6)
O1 O 0.9230(3) 0.1067(4) 0.0386(4)
C4 C 0.7945(4) 0.1614(6) 0.3962(6)
C5 C 0.7253(3) 0.1463(5) 0.2812(6)
C6 C 0.7004(4) 0.0300(6) 0.2314(6)
C7 C 0.6421(5) 0.0168(7) 0.1212(8)
C8 C 0.6056(4) 0.1211(9) 0.0568(8)
C9 C 0.6275(4) 0.2369(8) 0.1049(8)
C10 C 0.6858(4) 0.2505(6) 0.2166(7)
C11 C 1.0874(3) 0.1279(5) 0.1673(6)
C12 C 1.1412(4) 0.1401(7) 0.2935(6)
C13 C 1.2465(3) 0.1358(6) 0.3006(6)
C14 C 1.2984(4) 0.1274(6) 0.4148(7)
C15 C 1.3938(4) 0.1250(7) 0.4279(8)
C16 C 1.4377(4) 0.1306(7) 0.3262(8)
C17 C 1.3877(5) 0.1380(8) 0.2121(8)
C18 C 1.2918(4) 0.1397(7) 0.1988(7)
O2 O 0.8971(3) -0.0823(4) 0.4176(4)
H1 H 0.9360 0.1630 0.4456
H2 H 0.8697 0.2593 0.2190
H3 H 0.9681 0.2797 0.2943
H4 H 0.7893 0.2434 0.4322
H5 H 0.7807 0.1000 0.4565
H6 H 0.7255 -0.0441 0.2747
H7 H 0.6261 -0.0654 0.0879
H8 H 0.5653 0.1132 -0.0214
H9 H 0.6021 0.3107 0.0615
H10 H 0.6996 0.3333 0.2500
H11 H 1.0959 0.2025 0.1198
H12 H 1.1117 0.0583 0.1252
H13 H 1.1232 0.0739 0.3459
H14 H 1.1247 0.2185 0.3290
H15 H 1.2676 0.1267 0.4882
H16 H 1.4295 0.1162 0.5095
H17 H 1.5043 0.1288 0.3365
H18 H 1.4192 0.1431 0.1394
H19 H 1.2557 0.1431 0.1171
loop_
_geom_bond_atom_site_label_1
_geom_bond_atom_site_label_2
_geom_bond_site_symmetry_1
_geom_bond_site_symmetry_2
S1 N1 1_555 1_555
N1 C1 1_555 1_555
C1 C2 1_555 1_555
C2 C3 1_555 1_555
C3 S1 1_555 1_555
O1 S1 1_555 1_555
C4 C2 1_555 1_555
C5 C4 1_555 1_555
C6 C5 1_555 1_555
C7 C6 1_555 1_555
C8 C7 1_555 1_555
C9 C8 1_555 1_555
C10 C5 1_555 1_555
C11 S1 1_555 1_555
C12 C11 1_555 1_555
C13 C12 1_555 1_555
C14 C13 1_555 1_555
C15 C14 1_555 1_555
C16 C15 1_555 1_555
C17 C16 1_555 1_555
C18 C13 1_555 1_555
O2 C1 1_555 1_555
H1 C2 1_555 1_555
H2 C3 1_555 1_555
H3 C3 1_555 1_555
H4 C4 1_555 1_555
H5 C4 1_555 1_555
H6 C6 1_555 1_555
H7 C7 1_555 1_555
H8 C8 1_555 1_555
H9 C9 1_555 1_555
H10 C10 1_555 1_555
H11 C11 1_555 1_555
H12 C11 1_555 1_555
H13 C12 1_555 1_555
H14 C12 1_555 1_555
H15 C14 1_555 1_555
H16 C15 1_555 1_555
H17 C16 1_555 1_555
H18 C17 1_555 1_555
H19 C18 1_555 1_555
C9 C10 1_555 1_555
C17 C18 1_555 1_555

#END
