
#######################################################################
#
#                 Cambridge Crystallographic Data Centre
#                                CCDC 
#
#######################################################################
#
# If this CIF has been generated from an entry in the Cambridge 
# Structural Database, then it will include bibliographic, chemical, 
# crystal, experimental, refinement or atomic coordinate data resulting 
# from the CCDC's data processing and validation procedures.
#
#######################################################################

data_SIMKEF
_chemical_formula_moiety         'C40 H48 O8'
_chemical_name_systematic        'Methyl 6-methoxygambogate'
_symmetry_cell_setting           monoclinic
_symmetry_space_group_name_H-M   'P 21'
_symmetry_Int_Tables_number      4
_space_group_name_Hall           'P 2yb'
loop_
_symmetry_equiv_pos_site_id
_symmetry_equiv_pos_as_xyz
1 x,y,z
2 -x,1/2+y,-z
_cell_length_a                   7.865(3)
_cell_length_b                   17.017(7)
_cell_length_c                   13.711(6)
_cell_angle_alpha                90
_cell_angle_beta                 105.322(6)
_cell_angle_gamma                90
_cell_volume                     1769.84
_exptl_crystal_colour            colorless
_exptl_crystal_description       prism
_cell_formula_units_Z            2
_exptl_crystal_recrystallization_method ethanol
loop_
_atom_site_label
_atom_site_type_symbol
_atom_site_fract_x
_atom_site_fract_y
_atom_site_fract_z
O1 O 0.5187(6) 0.4902(2) 0.2713(3)
O2 O 0.7046(4) 0.23511(19) 0.2426(2)
O3 O 0.9237(7) 0.2103(3) 0.5463(3)
O4 O 0.8083(6) 0.3577(2) 0.5729(3)
O5 O 0.5472(4) 0.0946(2) 0.1436(2)
O6 O 0.5658(6) -0.0343(2) 0.2965(3)
O7 O 0.1983(6) 0.3344(3) 0.3839(3)
O8 O 0.3480(8) 0.2268(3) 0.4380(4)
C1 C 0.4618(9) 0.5561(3) 0.3239(4)
C2 C 0.5470(10) 0.5550(4) 0.4337(4)
H1 H 0.5404 0.5999 0.4712
C3 C 0.6330(9) 0.4927(4) 0.4817(4)
H2 H 0.6777 0.4939 0.5517
C4 C 0.6574(8) 0.4233(3) 0.4258(4)
C5 C 0.7372(7) 0.3556(3) 0.4701(4)
C6 C 0.7569(7) 0.2895(3) 0.4128(4)
C7 C 0.6901(6) 0.2951(3) 0.3070(3)
C8 C 0.6127(6) 0.3626(3) 0.2596(4)
C9 C 0.5938(7) 0.4244(3) 0.3201(4)
C10 C 0.7517(6) 0.1570(3) 0.2772(4)
C11 C 0.8407(7) 0.1514(3) 0.3876(4)
C12 C 0.8475(7) 0.2180(4) 0.4566(4)
C13 C 0.5929(6) 0.1014(3) 0.2509(4)
C14 C 0.6617(8) 0.0210(3) 0.2962(4)
C15 C 0.8607(8) 0.0173(3) 0.3400(5)
H3 H 0.9021 -0.0348 0.3664
C16 C 0.8921(8) 0.0789(3) 0.4205(5)
H4 H 0.9434 0.0677 0.4883
C17 C 0.7047(7) 0.1018(3) 0.1087(4)
C18 C 0.8537(7) 0.1191(3) 0.2049(4)
H5 H 0.9377 0.1567 0.1900
C19 C 0.9515(7) 0.0471(4) 0.2605(5)
H6 H 1.0726 0.0612 0.2934
H7 H 0.9529 0.0057 0.2122
C20 C 0.2619(10) 0.5505(5) 0.3030(6)
H8 H 0.2094 0.5530 0.2314
H9 H 0.2194 0.5933 0.3356
H10 H 0.2312 0.5016 0.3288
C21 C 0.5154(9) 0.6285(4) 0.2739(5)
H11 H 0.4726 0.6749 0.3011
H12 H 0.4580 0.6266 0.2020
C22 C 0.7133(10) 0.6369(4) 0.2884(6)
H13 H 0.7716 0.6362 0.3602
H14 H 0.7554 0.5920 0.2579
C23 C 0.7639(11) 0.7107(5) 0.2432(6)
H15 H 0.7458 0.7570 0.2752
C24 C 0.8284(12) 0.7198(6) 0.1670(7)
C25 C 0.8507(13) 0.6514(6) 0.1007(7)
H16 H 0.9012 0.6698 0.0484
H17 H 0.7378 0.6281 0.0706
H18 H 0.9272 0.6128 0.1410
C26 C 0.888(2) 0.7909(10) 0.1209(14)
H19 H 0.8023 0.8037 0.0588
H20 H 0.9993 0.7803 0.1072
H21 H 0.9003 0.8343 0.1669
C28 C 0.5530(7) 0.3704(3) 0.1460(3)
H25 H 0.4452 0.4010 0.1275
H26 H 0.5273 0.3186 0.1162
C29 C 0.6908(7) 0.4095(3) 0.1038(4)
H27 H 0.7724 0.4406 0.1489
C30 C 0.7106(8) 0.4053(4) 0.0109(5)
C31 C 0.8509(11) 0.4509(5) -0.0172(6)
H28 H 0.9261 0.4746 0.0423
H29 H 0.7984 0.4913 -0.0646
H30 H 0.9192 0.4165 -0.0475
C32 C 0.5965(11) 0.3570(4) -0.0713(5)
H31 H 0.4992 0.3365 -0.0492
H32 H 0.6640 0.3143 -0.0875
H33 H 0.5527 0.3891 -0.1302
C33 C 0.7212(10) 0.0255(4) 0.0523(5)
H34 H 0.7303 -0.0183 0.0975
H35 H 0.8247 0.0279 0.0278
H36 H 0.6190 0.0192 -0.0037
C34 C 0.6785(9) 0.1691(4) 0.0333(4)
H37 H 0.5662 0.1636 -0.0153
H38 H 0.7705 0.1681 -0.0008
H39 H 0.6822 0.2182 0.0684
C35 C 0.2699(8) 0.2663(4) 0.3681(5)
C36 C 0.2475(6) 0.2510(3) 0.2599(4)
C37 C 0.3255(6) 0.1904(3) 0.2271(4)
H40 H 0.3111 0.1886 0.1576
C38 C 0.4320(7) 0.1257(3) 0.2856(4)
H41 H 0.3565 0.0801 0.2821
H42 H 0.4710 0.1415 0.3560
C39 C 0.1371(8) 0.3088(4) 0.1866(4)
H43 H 0.1286 0.2921 0.1186
H44 H 0.1912 0.3598 0.1974
H45 H 0.0213 0.3115 0.1970
C40 C 0.2139(10) 0.3574(5) 0.4855(5)
H46 H 0.1879 0.3133 0.5229
H47 H 0.1325 0.3992 0.4865
H48 H 0.3320 0.3751 0.5157
C41 C 0.7167(10) 0.3145(6) 0.6312(5)
H49 H 0.6355 0.3485 0.6521
H50 H 0.7994 0.2933 0.6898
H51 H 0.6529 0.2723 0.5912
C27? C 0.858(5) 0.8123(12) 0.167(3)
H22? H 0.9077 0.8263 0.1127
H23? H 0.9377 0.8278 0.2304
H24? H 0.7475 0.8387 0.1590
loop_
_geom_bond_atom_site_label_1
_geom_bond_atom_site_label_2
_geom_bond_site_symmetry_1
_geom_bond_site_symmetry_2
O1 C1 1_555 1_555
O2 C7 1_555 1_555
O3 C12 1_555 1_555
O4 C5 1_555 1_555
O5 C13 1_555 1_555
O6 C14 1_555 1_555
O7 C35 1_555 1_555
O8 C35 1_555 1_555
C1 C2 1_555 1_555
C2 H1 1_555 1_555
C3 C2 1_555 1_555
H2 C3 1_555 1_555
C4 C3 1_555 1_555
C5 C4 1_555 1_555
C6 C5 1_555 1_555
C7 C6 1_555 1_555
C8 C7 1_555 1_555
C9 O1 1_555 1_555
C10 O2 1_555 1_555
C11 C10 1_555 1_555
C12 C6 1_555 1_555
C13 C10 1_555 1_555
C14 C13 1_555 1_555
C15 C14 1_555 1_555
H3 C15 1_555 1_555
C16 C11 1_555 1_555
H4 C16 1_555 1_555
C17 O5 1_555 1_555
C18 C10 1_555 1_555
H5 C18 1_555 1_555
C19 C15 1_555 1_555
H6 C19 1_555 1_555
H7 C19 1_555 1_555
C20 C1 1_555 1_555
H8 C20 1_555 1_555
H9 C20 1_555 1_555
H10 C20 1_555 1_555
C21 C1 1_555 1_555
H11 C21 1_555 1_555
H12 C21 1_555 1_555
C22 C21 1_555 1_555
H13 C22 1_555 1_555
H14 C22 1_555 1_555
C23 C22 1_555 1_555
H15 C23 1_555 1_555
C24 C23 1_555 1_555
C25 C24 1_555 1_555
H16 C25 1_555 1_555
H17 C25 1_555 1_555
H18 C25 1_555 1_555
C26 C24 1_555 1_555
H19 C26 1_555 1_555
H20 C26 1_555 1_555
H21 C26 1_555 1_555
C28 C8 1_555 1_555
H25 C28 1_555 1_555
H26 C28 1_555 1_555
C29 C28 1_555 1_555
H27 C29 1_555 1_555
C30 C29 1_555 1_555
C31 C30 1_555 1_555
H28 C31 1_555 1_555
H29 C31 1_555 1_555
H30 C31 1_555 1_555
C32 C30 1_555 1_555
H31 C32 1_555 1_555
H32 C32 1_555 1_555
H33 C32 1_555 1_555
C33 C17 1_555 1_555
H34 C33 1_555 1_555
H35 C33 1_555 1_555
H36 C33 1_555 1_555
C34 C17 1_555 1_555
H37 C34 1_555 1_555
H38 C34 1_555 1_555
H39 C34 1_555 1_555
C35 C36 1_555 1_555
C36 C37 1_555 1_555
C37 H40 1_555 1_555
C38 C13 1_555 1_555
H41 C38 1_555 1_555
H42 C38 1_555 1_555
C39 C36 1_555 1_555
H43 C39 1_555 1_555
H44 C39 1_555 1_555
H45 C39 1_555 1_555
C40 O7 1_555 1_555
H46 C40 1_555 1_555
H47 C40 1_555 1_555
H48 C40 1_555 1_555
C41 O4 1_555 1_555
H49 C41 1_555 1_555
H50 C41 1_555 1_555
H51 C41 1_555 1_555
C4 C9 1_555 1_555
C8 C9 1_555 1_555
C11 C12 1_555 1_555
C15 C16 1_555 1_555
C17 C18 1_555 1_555
C18 C19 1_555 1_555
C37 C38 1_555 1_555

#END
