
#######################################################################
#
#                 Cambridge Crystallographic Data Centre
#                                CCDC 
#
#######################################################################
#
# If this CIF has been generated from an entry in the Cambridge 
# Structural Database, then it will include bibliographic, chemical, 
# crystal, experimental, refinement or atomic coordinate data resulting 
# from the CCDC's data processing and validation procedures.
#
#######################################################################

data_SIMLAC
_chemical_formula_moiety         'C16 H36 N1 1+,C8 H5 N2 O2 S1 1-'
_chemical_name_systematic        
'Tetrabutylammonium 5-(2-hydroxyphenyl)-1,3,4-oxadiazole-2-thiolate'
_symmetry_cell_setting           monoclinic
_symmetry_space_group_name_H-M   'P 21/n'
_symmetry_Int_Tables_number      14
_space_group_name_Hall           '-P 2yn'
loop_
_symmetry_equiv_pos_site_id
_symmetry_equiv_pos_as_xyz
1 x,y,z
2 1/2-x,1/2+y,1/2-z
3 -x,-y,-z
4 1/2+x,1/2-y,1/2+z
_cell_length_a                   16.600(6)
_cell_length_b                   13.228(5)
_cell_length_c                   23.957(9)
_cell_angle_alpha                90
_cell_angle_beta                 97.710(6)
_cell_angle_gamma                90
_cell_volume                     5213.04
_exptl_crystal_colour            colorless
_exptl_crystal_description       plate
_cell_formula_units_Z            8
_exptl_crystal_recrystallization_method methanol
loop_
_atom_site_label
_atom_site_type_symbol
_atom_site_fract_x
_atom_site_fract_y
_atom_site_fract_z
S1 S 0.37223(4) 0.70771(5) 0.20112(3)
O1 O 0.30749(9) 0.60789(11) 0.10893(6)
O2 O 0.31975(14) 0.31664(15) 0.04194(10)
H1 H 0.3507(19) 0.347(2) 0.0708(13)
N1 N 0.39980(12) 0.51807(15) 0.16416(9)
N2 N 0.36975(13) 0.46067(15) 0.11638(9)
C1 C 0.36270(14) 0.60585(19) 0.15926(10)
C2 C 0.31688(15) 0.51541(18) 0.08591(10)
C3 C 0.26839(15) 0.48733(19) 0.03352(10)
C4 C 0.27140(17) 0.3875(2) 0.01407(12)
C5 C 0.22353(19) 0.3599(2) -0.03591(13)
H2 H 0.2256 0.2926 -0.0496
C6 C 0.17315(18) 0.4302(3) -0.06550(13)
H3 H 0.1405 0.4108 -0.0994
C7 C 0.16958(18) 0.5278(3) -0.04651(12)
H4 H 0.1346 0.5754 -0.0672
C8 C 0.21686(16) 0.5564(2) 0.00271(11)
H5 H 0.2143 0.6240 0.0158
S2 S 0.34712(4) 0.71102(5) 0.67823(3)
O3 O 0.27317(9) 0.60672(11) 0.59033(6)
O4 O 0.31007(11) 0.33542(13) 0.50700(8)
H6 H 0.3400(18) 0.360(2) 0.5362(12)
N3 N 0.38606(12) 0.53313(14) 0.63132(9)
N4 N 0.35079(12) 0.47286(14) 0.58594(8)
C9 C 0.33942(14) 0.61234(17) 0.63338(10)
C10 C 0.28563(14) 0.51866(17) 0.56379(10)
C11 C 0.22823(15) 0.48426(17) 0.51656(10)
C12 C 0.24315(15) 0.39264(18) 0.49015(10)
C13 C 0.18907(16) 0.3588(2) 0.44487(11)
H7 H 0.1994 0.2972 0.4267
C14 C 0.12055(18) 0.4140(2) 0.42610(12)
H8 H 0.0838 0.3901 0.3951
C15 C 0.10472(19) 0.5043(2) 0.45203(12)
H9 H 0.0570 0.5417 0.4392
C16 C 0.15880(16) 0.5394(2) 0.49666(11)
H10 H 0.1485 0.6018 0.5140
N5 N 0.64839(11) 0.57678(14) 0.20150(8)
C17 C 0.63841(15) 0.64087(18) 0.14823(10)
H11 H 0.6500 0.7121 0.1591
H12 H 0.6799 0.6194 0.1246
C18 C 0.55586(16) 0.6366(2) 0.11253(11)
H13 H 0.5450 0.5668 0.0986
H14 H 0.5131 0.6552 0.1358
C19 C 0.55304(18) 0.7082(2) 0.06317(11)
H15 H 0.6037 0.7010 0.0460
H16 H 0.5505 0.7785 0.0770
C20 C 0.4807(2) 0.6891(3) 0.01852(13)
H17 H 0.4817 0.7374 -0.0124
H18 H 0.4303 0.6976 0.0351
H19 H 0.4835 0.6201 0.0041
C21 C 0.59405(14) 0.61311(17) 0.24331(10)
H20 H 0.6053 0.5713 0.2777
H21 H 0.5369 0.6007 0.2271
C22 C 0.60217(16) 0.72338(19) 0.26044(11)
H22 H 0.5795 0.7668 0.2285
H23 H 0.6603 0.7408 0.2706
C23 C 0.55669(16) 0.7419(2) 0.31053(11)
H24 H 0.5847 0.7058 0.3438
H25 H 0.5011 0.7139 0.3022
C24 C 0.5515(2) 0.8540(2) 0.32434(14)
H26 H 0.5218 0.8625 0.3567
H27 H 0.5228 0.8898 0.2918
H28 H 0.6064 0.8817 0.3334
C25 C 0.62430(14) 0.46778(16) 0.18865(10)
H29 H 0.5664 0.4663 0.1721
H30 H 0.6291 0.4300 0.2246
C26 C 0.67344(16) 0.41286(18) 0.14902(11)
H31 H 0.6709 0.4507 0.1132
H32 H 0.7311 0.4090 0.1661
C27 C 0.64023(18) 0.30731(19) 0.13752(12)
H33 H 0.5832 0.3119 0.1193
H34 H 0.6405 0.2712 0.1737
C28 C 0.6894(2) 0.2470(2) 0.09976(13)
H35 H 0.6657 0.1794 0.0935
H36 H 0.7457 0.2410 0.1179
H37 H 0.6884 0.2817 0.0635
C29 C 0.73787(14) 0.58491(17) 0.22524(10)
H38 H 0.7703 0.5604 0.1962
H39 H 0.7510 0.6574 0.2317
C30 C 0.76561(14) 0.52838(18) 0.27942(10)
H40 H 0.7463 0.4576 0.2760
H41 H 0.7424 0.5605 0.3110
C31 C 0.85770(15) 0.5303(2) 0.29096(11)
H42 H 0.8762 0.6015 0.2941
H43 H 0.8801 0.4995 0.2587
C32 C 0.89112(17) 0.4743(2) 0.34442(12)
H44 H 0.9506 0.4780 0.3498
H45 H 0.8741 0.4034 0.3413
H46 H 0.8702 0.5054 0.3767
N6 N 0.37404(12) 0.39697(14) 0.33340(9)
C33 C 0.4069(10) 0.4927(8) 0.3637(6)
H47 H 0.4665 0.4849 0.3727
H48 H 0.3972 0.5493 0.3366
C34 C 0.3747(8) 0.5252(6) 0.4176(3)
H49 H 0.3885 0.4726 0.4467
H50 H 0.3147 0.5300 0.4102
C35 C 0.4091(5) 0.6269(5) 0.4404(3)
H51 H 0.3982 0.6349 0.4798
H52 H 0.4688 0.6269 0.4406
C36 C 0.3731(5) 0.7151(5) 0.4062(3)
H53 H 0.3971 0.7781 0.4224
H54 H 0.3142 0.7165 0.4066
H55 H 0.3846 0.7083 0.3673
C41 C 0.28409(14) 0.40714(19) 0.31129(12)
H65 H 0.2660 0.3443 0.2909
H66 H 0.2535 0.4130 0.3439
C42 C 0.26181(17) 0.4962(2) 0.27233(14)
H67 H 0.3034 0.5043 0.2466
H68 H 0.2611 0.5588 0.2949
C43 C 0.17851(19) 0.4807(3) 0.23776(15)
H69 H 0.1396 0.4579 0.2630
H70 H 0.1588 0.5461 0.2211
C44 C 0.1803(2) 0.4042(3) 0.19130(15)
H71 H 0.1256 0.3969 0.1704
H72 H 0.1986 0.3388 0.2076
H73 H 0.2178 0.4270 0.1656
C45 C 0.38041(15) 0.31129(18) 0.37581(11)
H74 H 0.3556 0.2502 0.3568
H75 H 0.3478 0.3293 0.4061
C46 C 0.46590(16) 0.2847(2) 0.40281(11)
H76 H 0.4897 0.3429 0.4252
H77 H 0.5003 0.2707 0.3730
C47 C 0.46514(18) 0.1922(2) 0.44100(12)
H78 H 0.5200 0.1837 0.4625
H79 H 0.4267 0.2047 0.4685
C48 C 0.4413(2) 0.0947(2) 0.40990(14)
H80 H 0.4422 0.0391 0.4370
H81 H 0.4799 0.0804 0.3833
H82 H 0.3865 0.1015 0.3893
C49 C 0.42319(15) 0.37380(18) 0.28570(11)
H83 H 0.4168 0.4309 0.2588
H84 H 0.4813 0.3704 0.3016
C50 C 0.40114(17) 0.2770(2) 0.25339(12)
H85 H 0.4079 0.2186 0.2795
H86 H 0.3435 0.2796 0.2361
C51 C 0.45533(17) 0.2639(2) 0.20792(11)
H87 H 0.4516 0.3254 0.1842
H88 H 0.5124 0.2573 0.2259
C52 C 0.4340(2) 0.1731(3) 0.17077(14)
H89 H 0.4712 0.1691 0.1424
H90 H 0.3780 0.1797 0.1520
H91 H 0.4388 0.1117 0.1938
C37? C 0.410(2) 0.4999(15) 0.3510(12)
H56? H 0.4692 0.4931 0.3647
H57? H 0.4038 0.5470 0.3186
C38? C 0.3654(13) 0.5394(10) 0.3978(5)
H58? H 0.3743 0.4943 0.4310
H59? H 0.3063 0.5432 0.3847
C39? C 0.3997(8) 0.6445(8) 0.4127(4)
H60? H 0.4592 0.6394 0.4235
H61? H 0.3897 0.6884 0.3790
C40? C 0.3624(6) 0.6929(8) 0.4603(4)
H62? H 0.3865 0.7598 0.4683
H63? H 0.3730 0.6504 0.4940
H64? H 0.3036 0.6997 0.4495
loop_
_geom_bond_atom_site_label_1
_geom_bond_atom_site_label_2
_geom_bond_site_symmetry_1
_geom_bond_site_symmetry_2
S1 C1 1_555 1_555
O1 C1 1_555 1_555
O2 H1 1_555 1_555
N1 N2 1_555 1_555
N2 C2 1_555 1_555
C1 N1 1_555 1_555
C2 O1 1_555 1_555
C3 C2 1_555 1_555
C4 O2 1_555 1_555
C5 C4 1_555 1_555
H2 C5 1_555 1_555
C6 C5 1_555 1_555
H3 C6 1_555 1_555
C7 C6 1_555 1_555
H4 C7 1_555 1_555
C8 C3 1_555 1_555
H5 C8 1_555 1_555
S2 C9 1_555 1_555
O3 C9 1_555 1_555
O4 H6 1_555 1_555
N3 N4 1_555 1_555
N4 C10 1_555 1_555
C9 N3 1_555 1_555
C10 O3 1_555 1_555
C11 C10 1_555 1_555
C12 O4 1_555 1_555
C13 C12 1_555 1_555
H7 C13 1_555 1_555
C14 C13 1_555 1_555
H8 C14 1_555 1_555
C15 C14 1_555 1_555
H9 C15 1_555 1_555
C16 C11 1_555 1_555
H10 C16 1_555 1_555
N5 C17 1_555 1_555
C17 H11 1_555 1_555
H12 C17 1_555 1_555
C18 C17 1_555 1_555
H13 C18 1_555 1_555
H14 C18 1_555 1_555
C19 C18 1_555 1_555
H15 C19 1_555 1_555
H16 C19 1_555 1_555
C20 C19 1_555 1_555
H17 C20 1_555 1_555
H18 C20 1_555 1_555
H19 C20 1_555 1_555
C21 N5 1_555 1_555
H20 C21 1_555 1_555
H21 C21 1_555 1_555
C22 C21 1_555 1_555
H22 C22 1_555 1_555
H23 C22 1_555 1_555
C23 C22 1_555 1_555
H24 C23 1_555 1_555
H25 C23 1_555 1_555
C24 C23 1_555 1_555
H26 C24 1_555 1_555
H27 C24 1_555 1_555
H28 C24 1_555 1_555
C25 N5 1_555 1_555
H29 C25 1_555 1_555
H30 C25 1_555 1_555
C26 C25 1_555 1_555
H31 C26 1_555 1_555
H32 C26 1_555 1_555
C27 C26 1_555 1_555
H33 C27 1_555 1_555
H34 C27 1_555 1_555
C28 C27 1_555 1_555
H35 C28 1_555 1_555
H36 C28 1_555 1_555
H37 C28 1_555 1_555
C29 N5 1_555 1_555
H38 C29 1_555 1_555
H39 C29 1_555 1_555
C30 C29 1_555 1_555
H40 C30 1_555 1_555
H41 C30 1_555 1_555
C31 C30 1_555 1_555
H42 C31 1_555 1_555
H43 C31 1_555 1_555
C32 C31 1_555 1_555
H44 C32 1_555 1_555
H45 C32 1_555 1_555
H46 C32 1_555 1_555
N6 C33 1_555 1_555
C33 H47 1_555 1_555
H48 C33 1_555 1_555
C34 C33 1_555 1_555
H49 C34 1_555 1_555
H50 C34 1_555 1_555
C35 C34 1_555 1_555
H51 C35 1_555 1_555
H52 C35 1_555 1_555
C36 C35 1_555 1_555
H53 C36 1_555 1_555
H54 C36 1_555 1_555
H55 C36 1_555 1_555
C41 N6 1_555 1_555
H65 C41 1_555 1_555
H66 C41 1_555 1_555
C42 C41 1_555 1_555
H67 C42 1_555 1_555
H68 C42 1_555 1_555
C43 C42 1_555 1_555
H69 C43 1_555 1_555
H70 C43 1_555 1_555
C44 C43 1_555 1_555
H71 C44 1_555 1_555
H72 C44 1_555 1_555
H73 C44 1_555 1_555
C45 N6 1_555 1_555
H74 C45 1_555 1_555
H75 C45 1_555 1_555
C46 C45 1_555 1_555
H76 C46 1_555 1_555
H77 C46 1_555 1_555
C47 C46 1_555 1_555
H78 C47 1_555 1_555
H79 C47 1_555 1_555
C48 C47 1_555 1_555
H80 C48 1_555 1_555
H81 C48 1_555 1_555
H82 C48 1_555 1_555
C49 N6 1_555 1_555
H83 C49 1_555 1_555
H84 C49 1_555 1_555
C50 C49 1_555 1_555
H85 C50 1_555 1_555
H86 C50 1_555 1_555
C51 C50 1_555 1_555
H87 C51 1_555 1_555
H88 C51 1_555 1_555
C52 C51 1_555 1_555
H89 C52 1_555 1_555
H90 C52 1_555 1_555
H91 C52 1_555 1_555
C3 C4 1_555 1_555
C7 C8 1_555 1_555
C11 C12 1_555 1_555
C15 C16 1_555 1_555

#END
