
#######################################################################
#
#                 Cambridge Crystallographic Data Centre
#                                CCDC 
#
#######################################################################
#
# If this CIF has been generated from an entry in the Cambridge 
# Structural Database, then it will include bibliographic, chemical, 
# crystal, experimental, refinement or atomic coordinate data resulting 
# from the CCDC's data processing and validation procedures.
#
#######################################################################

data_SIMLAB10
_chemical_name_common            
'Methyl (3aR-(3alpha,4beta,5beta,5abeta,9(3R*,5S*,7R*,9R*),10bR,13a-alpha))-4-(acetyloxy)-3a-ethyl-9-(5-ethyl-octahydro-5-hydroxy-9-(methoxycarbonyl)-2H-3,7-methanoazacycloundecino(5,4-b)indol-9-yl)-octahydro-5-hydroxy-8-methoxy-6-methyl-1H-indolizino(8,1-c,d)carbazole-5-carboxylate methanol solvate'
_chemical_formula_moiety         'C46 H58 N4 O9,2(C1 H4 O1)'
_chemical_name_systematic        "18'-Epivinblastine methanol solvate"
_symmetry_cell_setting           monoclinic
_symmetry_space_group_name_H-M   'P 21'
_symmetry_Int_Tables_number      4
_space_group_name_Hall           'P 2yb'
loop_
_symmetry_equiv_pos_site_id
_symmetry_equiv_pos_as_xyz
1 x,y,z
2 -x,1/2+y,-z
_cell_length_a                   10.2759(12)
_cell_length_b                   22.353(3)
_cell_length_c                   10.4051(12)
_cell_angle_alpha                90
_cell_angle_beta                 106.502(9)
_cell_angle_gamma                90
_cell_volume                     2291.58
_exptl_crystal_colour            colorless
_cell_formula_units_Z            2
loop_
_atom_site_label
_atom_site_type_symbol
_atom_site_fract_x
_atom_site_fract_y
_atom_site_fract_z
C1 C -0.1422(5) 0.1507(2) 0.4400(6)
C2 C -0.2464(6) 0.1122(2) 0.4832(6)
C3 C -0.3825(6) 0.1446(3) 0.4737(6)
C4 C -0.3836(5) 0.1901(3) 0.5805(6)
O1 O -0.3223(5) 0.2448(2) 0.5492(5)
C5 C -0.2988(7) 0.1680(3) 0.7192(6)
N1 N -0.1716(5) 0.1440(2) 0.7114(4)
C6 C -0.0461(7) 0.1526(3) 0.8120(6)
C7 C 0.0677(7) 0.1743(3) 0.7532(7)
C8 C 0.1317(5) 0.1276(2) 0.6864(5)
C9 C 0.2555(5) 0.0990(3) 0.7580(5)
C10 C 0.3405(6) 0.1035(3) 0.8882(6)
C11 C 0.4571(7) 0.0687(3) 0.9267(6)
C12 C 0.4924(7) 0.0299(3) 0.8381(6)
C13 C 0.4100(6) 0.0244(3) 0.7087(6)
C14 C 0.2929(5) 0.0591(2) 0.6703(5)
N2 N 0.1940(5) 0.0632(2) 0.5504(5)
C15 C 0.0962(5) 0.1043(2) 0.5597(5)
C16 C -0.0118(5) 0.1184(2) 0.4279(5)
C17 C -0.1903(7) 0.0910(3) 0.6275(6)
C18 C -0.5291(7) 0.2051(3) 0.5796(7)
C19 C -0.5436(7) 0.2476(4) 0.6864(7)
C20 C -0.0678(5) 0.0607(3) 0.3504(5)
O2 O -0.0577(4) 0.0115(2) 0.3989(4)
O3 O -0.1376(4) 0.0736(2) 0.2246(4)
C21 C -0.1932(7) 0.0225(3) 0.1425(7)
N3 N 0.2596(4) 0.2680(2) 0.1376(4)
C22 C 0.2312(5) 0.3291(2) 0.1778(5)
C23 C 0.1664(5) 0.3685(2) 0.0519(5)
O4 O 0.1729(4) 0.4299(2) 0.0860(4)
C24 C 0.0233(5) 0.3457(2) -0.0142(5)
O5 O -0.0291(3) 0.3806(2) -0.1351(3)
C25 C -0.0767(5) 0.3479(2) 0.0736(5)
C26 C -0.1739(6) 0.3995(3) 0.0382(7)
C27 C -0.1836(6) 0.4437(3) 0.1180(6)
C28 C -0.0856(5) 0.4517(3) 0.2535(7)
N4 N 0.0347(4) 0.4151(2) 0.2634(4)
C29 C 0.1367(7) 0.4142(3) 0.3955(7)
C30 C 0.1968(6) 0.3514(3) 0.4101(6)
C31 C 0.1382(6) 0.3210(2) 0.2739(5)
C32 C 0.1279(5) 0.2535(2) 0.2816(5)
C33 C 0.0597(5) 0.2192(3) 0.3527(5)
C34 C 0.0612(5) 0.1569(2) 0.3460(5)
C35 C 0.1391(5) 0.1305(2) 0.2685(5)
C36 C 0.2084(6) 0.1647(2) 0.1990(5)
C37 C 0.2012(5) 0.2262(2) 0.2050(5)
C38 C 0.0002(5) 0.3525(2) 0.2235(5)
C39 C -0.1593(6) 0.2882(3) 0.0443(6)
C40 C -0.2678(6) 0.2783(3) 0.1163(8)
C41 C -0.0819(6) 0.3502(3) -0.2498(6)
O6 O -0.1093(4) 0.2984(2) -0.2551(4)
C42 C 0.2494(6) 0.3617(3) -0.0472(6)
O7 O 0.2191(4) 0.3303(2) -0.1456(4)
C43 C 0.4441(7) 0.3920(3) -0.1045(7)
O8 O 0.3610(4) 0.3949(2) -0.0143(4)
C44 C 0.1678(8) 0.0401(3) 0.1550(6)
O9 O 0.1448(4) 0.0692(2) 0.2694(3)
C45 C -0.1028(8) 0.3906(3) -0.3671(6)
C46 C 0.3915(6) 0.2546(3) 0.1216(7)
H1 H 0.317(5) 0.346(2) 0.217(4)
H2 H 0.134(5) 0.440(2) 0.140(5)
H3 H 0.030(5) 0.308(2) -0.044(4)
H4 H -0.232(4) 0.397(2) -0.043(4)
H5 H -0.256(5) 0.480(2) 0.092(5)
H6 H -0.127(4) 0.440(2) 0.325(4)
H7 H -0.048(5) 0.494(3) 0.267(5)
H8 H 0.097(5) 0.422(2) 0.477(5)
H9 H 0.213(6) 0.454(3) 0.396(5)
H10 H 0.301(5) 0.350(2) 0.434(4)
H11 H 0.176(5) 0.335(2) 0.484(5)
H12 H 0.015(4) 0.238(2) 0.407(4)
H13 H 0.258(4) 0.145(2) 0.146(4)
H14 H -0.064(4) 0.340(2) 0.273(4)
H15 H -0.0956 0.2559 0.0697
H16 H -0.2008 0.2852 -0.0506
H17 H -0.3108 0.2402 0.0921
H18 H -0.2276 0.2799 0.2115
H19 H -0.3342 0.3096 0.0897
H20 H 0.5221 0.4174 -0.0733
H21 H 0.4731 0.3515 -0.1094
H22 H 0.3915 0.4049 -0.1918
H23 H 0.1471 -0.0014 0.1625
H24 H 0.2635 0.0420 0.1647
H25 H 0.1143 0.0577 0.0728
H26 H -0.1407 0.3682 -0.4479
H27 H -0.1655 0.4212 -0.3589
H28 H -0.0191 0.4087 -0.3703
H29 H 0.3935 0.2134 0.0960
H30 H 0.4081 0.2798 0.0532
H31 H 0.4602 0.2614 0.2046
H32 H -0.186(5) 0.164(2) 0.346(5)
H33 H -0.118(4) 0.180(2) 0.498(4)
H34 H -0.267(4) 0.079(2) 0.420(4)
H35 H -0.4484 0.1146 0.4768
H36 H -0.4127 0.1634 0.3874
H37 H -0.258(6) 0.249(3) 0.602(6)
H38 H -0.346(5) 0.141(2) 0.753(4)
H39 H -0.279(5) 0.203(3) 0.769(5)
H40 H -0.060(5) 0.184(3) 0.884(6)
H41 H -0.004(5) 0.119(2) 0.878(5)
H42 H 0.145(5) 0.191(2) 0.827(5)
H43 H 0.026(5) 0.207(2) 0.696(5)
H44 H 0.324(5) 0.136(2) 0.947(5)
H45 H 0.525(5) 0.076(2) 1.016(5)
H46 H 0.577(6) 0.006(3) 0.876(5)
H47 H 0.431(6) 0.002(3) 0.648(6)
H48 H 0.192(6) 0.045(3) 0.477(6)
H49 H -0.253(6) 0.065(3) 0.656(6)
H50 H -0.098(5) 0.066(2) 0.644(4)
H51 H -0.576(5) 0.219(2) 0.484(5)
H52 H -0.573(6) 0.168(3) 0.584(5)
H53 H -0.6383 0.2539 0.6769
H54 H -0.5007 0.2315 0.7737
H55 H -0.5018 0.2850 0.6760
H56 H -0.2407 0.0359 0.0540
H57 H -0.1209 -0.0039 0.1379
H58 H -0.2550 0.0015 0.1806
O10 O 0.5555(5) 0.3497(2) 0.4572(5)
C47 C 0.605(1) 0.3639(4) 0.3557(9)
H59 H 0.6475 0.3293 0.3300
H60 H 0.6734 0.3943 0.3845
H61 H 0.5344 0.3782 0.2804
O11 O 0.5871(7) 0.4334(3) 0.6620(7)
C48 C 0.495(1) 0.4811(4) 0.6281(9)
H62 H 0.5726 0.4024 0.6127
H63 H 0.4264 0.4710 0.5472
H64 H 0.5426 0.5155 0.6094
H65 H 0.4433 0.4938 0.7085
loop_
_geom_bond_atom_site_label_1
_geom_bond_atom_site_label_2
_geom_bond_site_symmetry_1
_geom_bond_site_symmetry_2
C1 C2 1_555 1_555
C2 C3 1_555 1_555
C3 C4 1_555 1_555
C4 O1 1_555 1_555
O1 H37 1_555 1_555
C5 C4 1_555 1_555
N1 C5 1_555 1_555
C6 N1 1_555 1_555
C7 C6 1_555 1_555
C8 C7 1_555 1_555
C9 C8 1_555 1_555
C10 C9 1_555 1_555
C11 C10 1_555 1_555
C12 C11 1_555 1_555
C13 C12 1_555 1_555
C14 C9 1_555 1_555
N2 C14 1_555 1_555
C15 C8 1_555 1_555
C16 C1 1_555 1_555
C17 C2 1_555 1_555
C18 C4 1_555 1_555
C19 C18 1_555 1_555
C20 C16 1_555 1_555
O2 C20 1_555 1_555
O3 C20 1_555 1_555
C21 O3 1_555 1_555
N3 C22 1_555 1_555
C22 C23 1_555 1_555
C23 O4 1_555 1_555
O4 H2 1_555 1_555
C24 C23 1_555 1_555
O5 C24 1_555 1_555
C25 C24 1_555 1_555
C26 C25 1_555 1_555
C27 C26 1_555 1_555
C28 C27 1_555 1_555
N4 C28 1_555 1_555
C29 N4 1_555 1_555
C30 C29 1_555 1_555
C31 C22 1_555 1_555
C32 C31 1_555 1_555
C33 C32 1_555 1_555
C34 C16 1_555 1_555
C35 C34 1_555 1_555
C36 C35 1_555 1_555
C37 N3 1_555 1_555
C38 C25 1_555 1_555
C39 C25 1_555 1_555
C40 C39 1_555 1_555
C41 O5 1_555 1_555
O6 C41 1_555 1_555
C42 C23 1_555 1_555
O7 C42 1_555 1_555
C43 O8 1_555 1_555
O8 C42 1_555 1_555
C44 O9 1_555 1_555
O9 C35 1_555 1_555
C45 C41 1_555 1_555
C46 N3 1_555 1_555
H1 C22 1_555 1_555
H3 C24 1_555 1_555
H4 C26 1_555 1_555
H5 C27 1_555 1_555
H6 C28 1_555 1_555
H7 C28 1_555 1_555
H8 C29 1_555 1_555
H9 C29 1_555 1_555
H10 C30 1_555 1_555
H11 C30 1_555 1_555
H12 C33 1_555 1_555
H13 C36 1_555 1_555
H14 C38 1_555 1_555
H15 C39 1_555 1_555
H16 C39 1_555 1_555
H17 C40 1_555 1_555
H18 C40 1_555 1_555
H19 C40 1_555 1_555
H20 C43 1_555 1_555
H21 C43 1_555 1_555
H22 C43 1_555 1_555
H23 C44 1_555 1_555
H24 C44 1_555 1_555
H25 C44 1_555 1_555
H26 C45 1_555 1_555
H27 C45 1_555 1_555
H28 C45 1_555 1_555
H29 C46 1_555 1_555
H30 C46 1_555 1_555
H31 C46 1_555 1_555
H32 C1 1_555 1_555
H33 C1 1_555 1_555
H34 C2 1_555 1_555
H35 C3 1_555 1_555
H36 C3 1_555 1_555
H38 C5 1_555 1_555
H39 C5 1_555 1_555
H40 C6 1_555 1_555
H41 C6 1_555 1_555
H42 C7 1_555 1_555
H43 C7 1_555 1_555
H44 C10 1_555 1_555
H45 C11 1_555 1_555
H46 C12 1_555 1_555
H47 C13 1_555 1_555
H48 N2 1_555 1_555
H49 C17 1_555 1_555
H50 C17 1_555 1_555
H51 C18 1_555 1_555
H52 C18 1_555 1_555
H53 C19 1_555 1_555
H54 C19 1_555 1_555
H55 C19 1_555 1_555
H56 C21 1_555 1_555
H57 C21 1_555 1_555
H58 C21 1_555 1_555
O10 C47 1_555 1_555
C47 H59 1_555 1_555
H60 C47 1_555 1_555
H61 C47 1_555 1_555
O11 C48 1_555 1_555
C48 H63 1_555 1_555
H62 O11 1_555 1_555
H64 C48 1_555 1_555
H65 C48 1_555 1_555
N1 C17 1_555 1_555
C13 C14 1_555 1_555
N2 C15 1_555 1_555
C15 C16 1_555 1_555
N4 C38 1_555 1_555
C30 C31 1_555 1_555
C31 C38 1_555 1_555
C32 C37 1_555 1_555
C33 C34 1_555 1_555
C36 C37 1_555 1_555

#END
