
#######################################################################
#
#                 Cambridge Crystallographic Data Centre
#                                CCDC 
#
#######################################################################
#
# If this CIF has been generated from an entry in the Cambridge 
# Structural Database, then it will include bibliographic, chemical, 
# crystal, experimental, refinement or atomic coordinate data resulting 
# from the CCDC's data processing and validation procedures.
#
#######################################################################

data_SIMNOU
_chemical_formula_moiety         'C51 H69 N7 O7,H2 O1'
_chemical_name_systematic        
'methyl 3-(((4-((t-butoxycarbonyl)amino)phenyl)carbamoyl)amino)-7,12-bis((phenylcarbamoyl)amino)cholan-24-oate unknown solvate monohydrate'
_symmetry_cell_setting           hexagonal
_symmetry_space_group_name_H-M   'P 61'
_symmetry_Int_Tables_number      169
_space_group_name_Hall           'P 61'
loop_
_symmetry_equiv_pos_site_id
_symmetry_equiv_pos_as_xyz
1 x,y,z
2 -y,x-y,1/3+z
3 -x+y,-x,2/3+z
4 -x,-y,1/2+z
5 y,-x+y,5/6+z
6 x-y,x,1/6+z
_cell_length_a                   29.1996(10)
_cell_length_b                   29.1996(10)
_cell_length_c                   11.3965(4)
_cell_angle_alpha                90
_cell_angle_beta                 90
_cell_angle_gamma                120
_cell_volume                     8415.04
_exptl_crystal_colour            colorless
_exptl_crystal_description       needle
_cell_formula_units_Z            6
loop_
_atom_site_label
_atom_site_type_symbol
_atom_site_fract_x
_atom_site_fract_y
_atom_site_fract_z
C1 C 0.40856(11) 0.54031(10) 1.1944(2)
H1 H 0.3944 0.5534 1.2567
H2 H 0.4221 0.5190 1.2327
C2 C 0.45467(11) 0.58772(10) 1.1347(2)
H3 H 0.4713 0.5754 1.0763
H4 H 0.4817 0.6096 1.1937
C3 C 0.43396(11) 0.62048(10) 1.0740(2)
H5 H 0.4164 0.6304 1.1361
C4 C 0.39145(10) 0.58732(10) 0.9852(2)
H6 H 0.4069 0.5757 0.9227
H7 H 0.3782 0.6092 0.9483
C5 C 0.34493(10) 0.53840(10) 1.0431(2)
H8 H 0.3295 0.5520 1.1025
C6 C 0.30043(10) 0.50508(10) 0.9556(2)
H9 H 0.2681 0.4811 1.0004
H10 H 0.2927 0.5291 0.9092
C7 C 0.31262(9) 0.47208(9) 0.8712(2)
H11 H 0.2787 0.4463 0.8321
C8 C 0.33348(9) 0.44010(9) 0.9371(2)
H12 H 0.3038 0.4133 0.9863
C9 C 0.36275(10) 0.50400(10) 1.1110(2)
C10 C 0.37941(9) 0.47483(9) 1.0210(2)
H13 H 0.4082 0.5028 0.9718
C11 C 0.40234(10) 0.44306(10) 1.0778(2)
H14 H 0.3757 0.4166 1.1319
H15 H 0.4337 0.4673 1.1250
C12 C 0.41859(9) 0.41417(9) 0.9878(2)
H16 H 0.4306 0.3924 1.0317
C13 C 0.37085(9) 0.37692(9) 0.9111(2)
C14 C 0.34914(9) 0.40996(9) 0.8524(2)
H17 H 0.3783 0.4370 0.8024
C15 C 0.30688(10) 0.37066(10) 0.7689(2)
H18 H 0.2997 0.3892 0.7051
H19 H 0.2735 0.3475 0.8112
C16 C 0.33174(11) 0.33876(11) 0.7205(3)
H20 H 0.3428 0.3486 0.6379
H21 H 0.3059 0.3004 0.7240
C17 C 0.38081(10) 0.35245(10) 0.7992(2)
H22 H 0.4126 0.3813 0.7589
C18 C 0.31723(11) 0.46431(11) 1.1891(2)
H23 H 0.3295 0.4447 1.2372
H24 H 0.2877 0.4395 1.1396
H25 H 0.3054 0.4834 1.2402
C19 C 0.32950(10) 0.33264(10) 0.9896(2)
H26 H 0.3466 0.3169 1.0353
H27 H 0.3017 0.3054 0.9404
H28 H 0.3139 0.3474 1.0430
C20 C 0.38987(11) 0.30509(10) 0.8116(3)
H29 H 0.3568 0.2744 0.8432
C21 C 0.43538(11) 0.31638(11) 0.8954(3)
H30 H 0.4673 0.3489 0.8710
H31 H 0.4422 0.2868 0.8935
H32 H 0.4258 0.3208 0.9753
C22 C 0.39983(13) 0.29039(12) 0.6873(3)
H33 H 0.3705 0.2855 0.6353
H34 H 0.4329 0.3204 0.6560
C23 C 0.40440(14) 0.24042(13) 0.6816(3)
H35 H 0.4112 0.2344 0.5995
H36 H 0.4347 0.2455 0.7300
C24 C 0.35623(17) 0.19414(14) 0.7236(3)
C25 C 0.2666(3) 0.1346(3) 0.6784(8)
H37 H 0.2717 0.1088 0.7229
H38 H 0.2461 0.1178 0.6073
H39 H 0.2474 0.1472 0.7269
C26 C 0.50756(10) 0.67407(10) 0.9338(2)
C27 C 0.57407(11) 0.74096(10) 0.8006(3)
C28 C 0.57232(13) 0.76970(13) 0.7046(3)
H40 H 0.5430 0.7750 0.6953
C29 C 0.61223(13) 0.79031(13) 0.6237(3)
H41 H 0.6107 0.8107 0.5604
C30 C 0.65496(11) 0.78206(11) 0.6325(3)
C31 C 0.65607(13) 0.75209(13) 0.7256(3)
H42 H 0.6844 0.7450 0.7322
C32 C 0.61645(12) 0.73253(12) 0.8088(3)
H43 H 0.6184 0.7128 0.8731
C33 C 0.33486(9) 0.52683(9) 0.6948(2)
C34 C 0.37249(10) 0.59273(9) 0.5308(2)
C35 C 0.32599(11) 0.58977(12) 0.4907(3)
H44 H 0.2932 0.5669 0.5277
C36 C 0.32828(12) 0.62084(12) 0.3957(3)
H45 H 0.2965 0.6184 0.3676
C37 C 0.37512(12) 0.65485(11) 0.3415(3)
H46 H 0.3760 0.6758 0.2769
C38 C 0.42141(12) 0.65801(11) 0.3832(3)
H47 H 0.4543 0.6815 0.3471
C39 C 0.41988(10) 0.62716(10) 0.4768(3)
H48 H 0.4517 0.6296 0.5043
C40 C 0.51334(9) 0.47759(9) 0.9606(2)
C41 C 0.60059(9) 0.55927(10) 0.9250(2)
C42 C 0.62216(10) 0.61049(11) 0.8810(2)
H49 H 0.5998 0.6218 0.8470
C43 C 0.67645(11) 0.64503(11) 0.8868(3)
H50 H 0.6910 0.6798 0.8564
C44 C 0.70950(11) 0.62906(12) 0.9368(3)
H51 H 0.7466 0.6526 0.9402
C45 C 0.68763(11) 0.57837(12) 0.9816(3)
H52 H 0.7101 0.5674 1.0167
C46 C 0.63359(10) 0.54321(11) 0.9764(2)
H53 H 0.6192 0.5085 1.0075
C47 C 0.74385(14) 0.81372(14) 0.5384(4)
C48 C 0.81278(17) 0.8117(2) 0.6535(6)
C49 C 0.8519(2) 0.8692(2) 0.6462(10)
H54 H 0.8579 0.8801 0.5637
H55 H 0.8853 0.8761 0.6819
H56 H 0.8382 0.8892 0.6880
C50 C 0.8236(2) 0.7796(3) 0.5629(8)
H57 H 0.7970 0.7421 0.5706
H58 H 0.8589 0.7844 0.5762
H59 H 0.8218 0.7919 0.4838
C51 C 0.8099(2) 0.7899(5) 0.7761(8)
H60 H 0.7927 0.8032 0.8291
H61 H 0.8457 0.8013 0.8044
H62 H 0.7893 0.7512 0.7739
N1 N 0.47565(9) 0.67007(8) 1.0239(2)
H63 H 0.4733(13) 0.6983(9) 1.035(3)
N2 N 0.53445(10) 0.72415(9) 0.8870(2)
H64 H 0.5238(13) 0.7465(11) 0.911(3)
N3 N 0.34996(8) 0.50473(8) 0.77872(18)
H65 H 0.3836(7) 0.5159(11) 0.784(3)
N4 N 0.37516(8) 0.56367(8) 0.6268(2)
H66 H 0.4066(8) 0.5685(12) 0.641(3)
N5 N 0.46300(8) 0.45334(8) 0.91686(19)
H67 H 0.4550(12) 0.4727(11) 0.872(3)
N6 N 0.54595(8) 0.52565(8) 0.90929(19)
H68 H 0.5317(12) 0.5396(12) 0.868(3)
N7 N 0.69322(11) 0.80325(11) 0.5420(3)
H69 H 0.6880(15) 0.8169(15) 0.476(2)
O1 O 0.35067(15) 0.17248(11) 0.8167(3)
O2 O 0.31737(14) 0.17875(16) 0.6463(3)
O3 O 0.51352(7) 0.63753(7) 0.89729(18)
O4 O 0.28805(6) 0.51461(7) 0.68058(16)
O5 O 0.52774(7) 0.45759(7) 1.03720(16)
O6 O 0.77099(12) 0.83250(13) 0.4513(3)
O7 O 0.75913(10) 0.80196(13) 0.6376(3)
O8 O 0.46815(7) 0.54675(7) 0.77422(16)
H70 H 0.4812(11) 0.5768(8) 0.802(3)
H71 H 0.4745(13) 0.5485(13) 0.7045(17)
loop_
_geom_bond_atom_site_label_1
_geom_bond_atom_site_label_2
_geom_bond_site_symmetry_1
_geom_bond_site_symmetry_2
C1 H1 1_555 1_555
H2 C1 1_555 1_555
C2 C1 1_555 1_555
H3 C2 1_555 1_555
H4 C2 1_555 1_555
C3 C2 1_555 1_555
H5 C3 1_555 1_555
C4 C3 1_555 1_555
H6 C4 1_555 1_555
H7 C4 1_555 1_555
C5 C4 1_555 1_555
H8 C5 1_555 1_555
C6 C5 1_555 1_555
H9 C6 1_555 1_555
H10 C6 1_555 1_555
C7 C6 1_555 1_555
H11 C7 1_555 1_555
C8 C7 1_555 1_555
H12 C8 1_555 1_555
C9 C1 1_555 1_555
C10 C8 1_555 1_555
H13 C10 1_555 1_555
C11 C10 1_555 1_555
H14 C11 1_555 1_555
H15 C11 1_555 1_555
C12 C11 1_555 1_555
H16 C12 1_555 1_555
C13 C12 1_555 1_555
C14 C8 1_555 1_555
H17 C14 1_555 1_555
C15 C14 1_555 1_555
H18 C15 1_555 1_555
H19 C15 1_555 1_555
C16 C15 1_555 1_555
H20 C16 1_555 1_555
H21 C16 1_555 1_555
C17 C13 1_555 1_555
H22 C17 1_555 1_555
C18 C9 1_555 1_555
H23 C18 1_555 1_555
H24 C18 1_555 1_555
H25 C18 1_555 1_555
C19 C13 1_555 1_555
H26 C19 1_555 1_555
H27 C19 1_555 1_555
H28 C19 1_555 1_555
C20 C17 1_555 1_555
H29 C20 1_555 1_555
C21 C20 1_555 1_555
H30 C21 1_555 1_555
H31 C21 1_555 1_555
H32 C21 1_555 1_555
C22 C20 1_555 1_555
H33 C22 1_555 1_555
H34 C22 1_555 1_555
C23 C22 1_555 1_555
H35 C23 1_555 1_555
H36 C23 1_555 1_555
C24 C23 1_555 1_555
C25 H37 1_555 1_555
H38 C25 1_555 1_555
H39 C25 1_555 1_555
C26 N1 1_555 1_555
C27 C28 1_555 1_555
C28 H40 1_555 1_555
C29 C28 1_555 1_555
H41 C29 1_555 1_555
C30 C29 1_555 1_555
C31 C30 1_555 1_555
H42 C31 1_555 1_555
C32 C27 1_555 1_555
H43 C32 1_555 1_555
C33 N3 1_555 1_555
C34 C35 1_555 1_555
C35 H44 1_555 1_555
C36 C35 1_555 1_555
H45 C36 1_555 1_555
C37 C36 1_555 1_555
H46 C37 1_555 1_555
C38 C37 1_555 1_555
H47 C38 1_555 1_555
C39 C34 1_555 1_555
H48 C39 1_555 1_555
C40 N5 1_555 1_555
C41 C42 1_555 1_555
C42 H49 1_555 1_555
C43 C42 1_555 1_555
H50 C43 1_555 1_555
C44 C43 1_555 1_555
H51 C44 1_555 1_555
C45 C44 1_555 1_555
H52 C45 1_555 1_555
C46 C41 1_555 1_555
H53 C46 1_555 1_555
C47 N7 1_555 1_555
C48 C49 1_555 1_555
C49 H54 1_555 1_555
H55 C49 1_555 1_555
H56 C49 1_555 1_555
C50 C48 1_555 1_555
H57 C50 1_555 1_555
H58 C50 1_555 1_555
H59 C50 1_555 1_555
C51 C48 1_555 1_555
H60 C51 1_555 1_555
H61 C51 1_555 1_555
H62 C51 1_555 1_555
N1 C3 1_555 1_555
H63 N1 1_555 1_555
N2 C26 1_555 1_555
H64 N2 1_555 1_555
N3 C7 1_555 1_555
H65 N3 1_555 1_555
N4 C33 1_555 1_555
H66 N4 1_555 1_555
N5 C12 1_555 1_555
H67 N5 1_555 1_555
N6 C40 1_555 1_555
H68 N6 1_555 1_555
N7 C30 1_555 1_555
H69 N7 1_555 1_555
O1 C24 1_555 1_555
O2 C24 1_555 1_555
O3 C26 1_555 1_555
O4 C33 1_555 1_555
O5 C40 1_555 1_555
O6 C47 1_555 1_555
O7 C47 1_555 1_555
O8 H70 1_555 1_555
H71 O8 1_555 1_555
C5 C9 1_555 1_555
C9 C10 1_555 1_555
C13 C14 1_555 1_555
C16 C17 1_555 1_555
C25 O2 1_555 1_555
C27 N2 1_555 1_555
C31 C32 1_555 1_555
C34 N4 1_555 1_555
C38 C39 1_555 1_555
C41 N6 1_555 1_555
C45 C46 1_555 1_555
C48 O7 1_555 1_555

#END
