
#######################################################################
#
#                 Cambridge Crystallographic Data Centre
#                                CCDC 
#
#######################################################################
#
# If this CIF has been generated from an entry in the Cambridge 
# Structural Database, then it will include bibliographic, chemical, 
# crystal, experimental, refinement or atomic coordinate data resulting 
# from the CCDC's data processing and validation procedures.
#
#######################################################################

data_SIMNUY
_chemical_formula_moiety         'C18 H17 N1 O2'
_chemical_name_systematic        
2,2,8-Trimethyl-2,3-dihydropyrano(2,3-a)carbazol-4(11H)-one
_symmetry_cell_setting           monoclinic
_symmetry_space_group_name_H-M   'P 21/n'
_symmetry_Int_Tables_number      14
_space_group_name_Hall           '-P 2yn'
loop_
_symmetry_equiv_pos_site_id
_symmetry_equiv_pos_as_xyz
1 x,y,z
2 1/2-x,1/2+y,1/2-z
3 -x,-y,-z
4 1/2+x,1/2-y,1/2+z
_cell_length_a                   6.7323(3)
_cell_length_b                   14.3303(7)
_cell_length_c                   15.6502(8)
_cell_angle_alpha                90
_cell_angle_beta                 99.1520(10)
_cell_angle_gamma                90
_cell_volume                     1490.65
_exptl_crystal_colour            yellow
_exptl_crystal_description       plate
_chemical_melting_point          '489-491 K'
_cell_formula_units_Z            4
_exptl_crystal_recrystallization_method ethanol
loop_
_atom_site_label
_atom_site_type_symbol
_atom_site_fract_x
_atom_site_fract_y
_atom_site_fract_z
C1 C -0.2265(2) 0.28205(10) 0.33056(10)
C2 C -0.3687(3) 0.21301(11) 0.33728(12)
H1 H -0.3726 0.1582 0.3052
C3 C -0.5030(3) 0.22888(12) 0.39311(12)
H2 H -0.5999 0.1837 0.3978
C4 C -0.5010(2) 0.31017(12) 0.44367(11)
C5 C -0.3611(2) 0.37843(11) 0.43512(10)
H3 H -0.3591 0.4332 0.4671
C6 C -0.2224(2) 0.36555(10) 0.37862(10)
C7 C -0.0635(2) 0.42209(10) 0.35340(10)
C8 C 0.0111(3) 0.51209(10) 0.37606(11)
H4 H -0.0448 0.5482 0.4155
C9 C 0.1672(3) 0.54513(10) 0.33884(11)
H5 H 0.2182 0.6042 0.3540
C10 C 0.2537(2) 0.49222(10) 0.27784(10)
C11 C 0.1767(2) 0.40375(9) 0.25316(9)
C12 C 0.0202(2) 0.36987(9) 0.29234(9)
C13 C 0.4290(2) 0.52526(10) 0.24281(11)
C14 C 0.5098(2) 0.46048(12) 0.18106(11)
H6 H 0.6162 0.4230 0.2133
H7 H 0.5690 0.4975 0.1397
C15 C 0.3540(2) 0.39582(11) 0.13186(10)
C16 C 0.1999(3) 0.44889(14) 0.06790(12)
H8 H 0.1010 0.4061 0.0397
H9 H 0.2665 0.4788 0.0254
H10 H 0.1353 0.4951 0.0983
C17 C 0.4503(3) 0.31758(13) 0.08771(13)
H11 H 0.5383 0.2825 0.1302
H12 H 0.5262 0.3435 0.0464
H13 H 0.3474 0.2773 0.0585
C18 C -0.6477(3) 0.32132(15) 0.50596(15)
H14 H -0.6206 0.2752 0.5508
H15 H -0.7823 0.3133 0.4757
H16 H -0.6340 0.3825 0.5312
N1 N -0.0805(2) 0.28588(8) 0.27825(9)
H17 H -0.0560 0.2432 0.2428
O1 O 0.24620(16) 0.34866(7) 0.19360(7)
O2 O 0.5125(2) 0.59946(8) 0.26454(10)
loop_
_geom_bond_atom_site_label_1
_geom_bond_atom_site_label_2
_geom_bond_site_symmetry_1
_geom_bond_site_symmetry_2
C1 C2 1_555 1_555
C2 H1 1_555 1_555
C3 C2 1_555 1_555
H2 C3 1_555 1_555
C4 C3 1_555 1_555
C5 C4 1_555 1_555
H3 C5 1_555 1_555
C6 C1 1_555 1_555
C7 C6 1_555 1_555
C8 C7 1_555 1_555
H4 C8 1_555 1_555
C9 C8 1_555 1_555
H5 C9 1_555 1_555
C10 C9 1_555 1_555
C11 C10 1_555 1_555
C12 C7 1_555 1_555
C13 C10 1_555 1_555
C14 C13 1_555 1_555
H6 C14 1_555 1_555
H7 C14 1_555 1_555
C15 C14 1_555 1_555
C16 C15 1_555 1_555
H8 C16 1_555 1_555
H9 C16 1_555 1_555
H10 C16 1_555 1_555
C17 C15 1_555 1_555
H11 C17 1_555 1_555
H12 C17 1_555 1_555
H13 C17 1_555 1_555
C18 C4 1_555 1_555
H14 C18 1_555 1_555
H15 C18 1_555 1_555
H16 C18 1_555 1_555
N1 C1 1_555 1_555
H17 N1 1_555 1_555
O1 C11 1_555 1_555
O2 C13 1_555 1_555
C5 C6 1_555 1_555
C11 C12 1_555 1_555
C12 N1 1_555 1_555
C15 O1 1_555 1_555

#END
