
#######################################################################
#
#                 Cambridge Crystallographic Data Centre
#                                CCDC 
#
#######################################################################
#
# If this CIF has been generated from an entry in the Cambridge 
# Structural Database, then it will include bibliographic, chemical, 
# crystal, experimental, refinement or atomic coordinate data resulting 
# from the CCDC's data processing and validation procedures.
#
#######################################################################

data_SIMPOW
_chemical_formula_moiety         'C58 H68 N8 O5,H2 O1'
_chemical_name_systematic        
'[4-(phenyldiazenyl)phenyl]methyl 3,7,12-tris[(phenylcarbamoyl)amino]cholan-24-oate monohydrate'
_symmetry_cell_setting           hexagonal
_symmetry_space_group_name_H-M   'P 61'
_symmetry_Int_Tables_number      169
_space_group_name_Hall           'P 61'
loop_
_symmetry_equiv_pos_site_id
_symmetry_equiv_pos_as_xyz
1 x,y,z
2 -y,x-y,1/3+z
3 -x+y,-x,2/3+z
4 -x,-y,1/2+z
5 y,-x+y,5/6+z
6 x-y,x,1/6+z
_cell_length_a                   29.021(4)
_cell_length_b                   29.021(4)
_cell_length_c                   11.4268(15)
_cell_angle_alpha                90
_cell_angle_beta                 90
_cell_angle_gamma                120
_cell_volume                     8334.51
_exptl_crystal_colour            yellow'
_exptl_crystal_description       needle
_cell_formula_units_Z            6
_exptl_crystal_recrystallization_method 'acetone/water (80:20)'
loop_
_atom_site_label
_atom_site_type_symbol
_atom_site_fract_x
_atom_site_fract_y
_atom_site_fract_z
O6 O 0.07785(15) 0.54852(16) 0.1576(4)
H57 H 0.082(3) 0.557(3) 0.228(2)
H58 H 0.093(2) 0.5803(11) 0.139(6)
C1 C 0.1316(2) 0.5423(2) -0.2591(5)
H1 H 0.1594 0.5561 -0.3205
H2 H 0.0968 0.5207 -0.2983
C2 C 0.1319(2) 0.5891(2) -0.1991(6)
H3 H 0.1029 0.5762 -0.1406
H4 H 0.1262 0.6110 -0.2575
C3 C 0.1856(2) 0.6226(2) -0.1389(5)
H5 H 0.2135 0.6328 -0.2006
C4 C 0.1951(2) 0.5893(2) -0.0483(5)
H6 H 0.1674 0.5771 0.0131
H7 H 0.2301 0.6115 -0.0104
C5 C 0.1937(2) 0.5405(2) -0.1067(5)
H8 H 0.2233 0.5548 -0.1653
C6 C 0.2051(2) 0.5074(2) -0.0200(5)
H9 H 0.2366 0.5318 0.0271
H10 H 0.2144 0.4840 -0.0647
C7 C 0.1593(2) 0.4729(2) 0.0635(5)
H11 H 0.1678 0.4472 0.1022
C8 C 0.1060(2) 0.4404(2) -0.0034(5)
H12 H 0.1090 0.4134 -0.0523
C9 C 0.1413(2) 0.5056(2) -0.1765(5)
C10 C 0.09481(19) 0.4756(2) -0.0872(5)
H13 H 0.0937 0.5034 -0.0378
C11 C 0.0400(2) 0.4437(2) -0.1449(5)
H14 H 0.0406 0.4176 -0.1997
H15 H 0.0327 0.4683 -0.1910
C12 C -0.0054(2) 0.4139(2) -0.0555(5)
H16 H -0.0392 0.3919 -0.0999
C13 C 0.0052(2) 0.3763(2) 0.0200(5)
C14 C 0.06030(19) 0.4105(2) 0.0807(5)
H17 H 0.0578 0.4376 0.1301
C15 C 0.0632(2) 0.3707(2) 0.1639(6)
H18 H 0.0883 0.3893 0.2289
H19 H 0.0746 0.3483 0.1219
C16 C 0.0058(2) 0.3371(3) 0.2095(6)
H20 H 0.0036 0.3459 0.2923
H21 H -0.0060 0.2987 0.2042
C17 C -0.0299(2) 0.3507(2) 0.1305(6)
H22 H -0.0335 0.3792 0.1713
C18 C 0.1486(2) 0.4666(3) -0.2554(6)
H23 H 0.1166 0.4461 -0.3031
H24 H 0.1546 0.4423 -0.2066
H25 H 0.1794 0.4867 -0.3068
C19 C 0.0036(3) 0.3332(2) -0.0578(6)
H26 H -0.0298 0.3161 -0.1018
H27 H 0.0060 0.3066 -0.0094
H28 H 0.0336 0.3491 -0.1125
C20 C -0.0864(2) 0.3026(2) 0.1153(7)
H29 H -0.0832 0.2726 0.0807
C21 C -0.1213(2) 0.3141(3) 0.0347(8)
H30 H -0.1137 0.3506 0.0476
H31 H -0.1588 0.2892 0.0517
H32 H -0.1137 0.3100 -0.0470
C22 C -0.1122(3) 0.2851(3) 0.2395(8)
H33 H -0.0869 0.2813 0.2911
H34 H -0.1171 0.3139 0.2721
C23 C -0.1647(4) 0.2342(4) 0.2443(11)
H35 H -0.1961 0.2323 0.2748
C24 C -0.1635(8) 0.1884(6) 0.1987(17)
C25 C 0.1643(2) 0.6769(2) -0.0001(5)
C26 C 0.19149(18) 0.5268(2) 0.2402(5)
C27 C -0.0372(2) 0.4770(2) -0.0281(5)
C28 C 0.1628(2) 0.7437(2) 0.1297(6)
C29 C 0.1934(3) 0.7719(3) 0.2281(7)
H36 H 0.2282 0.7771 0.2388
C30 C 0.1723(3) 0.7921(3) 0.3094(7)
H37 H 0.1936 0.8125 0.3735
C31 C 0.1221(3) 0.7832(3) 0.2984(9)
H38 H 0.1078 0.7959 0.3565
C32 C 0.0917(3) 0.7557(3) 0.2034(9)
H39 H 0.0567 0.7502 0.1950
C33 C 0.1117(3) 0.7360(3) 0.1204(8)
H40 H 0.0902 0.7168 0.0555
C34 C 0.22066(19) 0.5930(2) 0.4063(5)
C35 C 0.2642(2) 0.5887(3) 0.4452(6)
H41 H 0.2734 0.5652 0.4078
C36 C 0.2936(2) 0.6199(3) 0.5408(7)
H42 H 0.3230 0.6172 0.5686
C37 C 0.2808(2) 0.6546(2) 0.5952(6)
H43 H 0.3013 0.6756 0.6595
C38 C 0.2380(2) 0.6580(2) 0.5546(6)
H44 H 0.2285 0.6815 0.5915
C39 C 0.2088(2) 0.6276(2) 0.4605(6)
H45 H 0.1797 0.6309 0.4329
C40 C -0.0428(2) 0.5595(2) 0.0081(5)
C41 C -0.0130(2) 0.6116(2) 0.0522(6)
H46 H 0.0210 0.6234 0.0862
C42 C -0.0338(3) 0.6459(2) 0.0455(7)
H47 H -0.0139 0.6810 0.0759
C43 C -0.0825(3) 0.6296(3) -0.0040(7)
H48 H -0.0961 0.6532 -0.0083
C44 C -0.1120(3) 0.5779(3) -0.0484(6)
H49 H -0.1460 0.5663 -0.0820
C45 C -0.0920(2) 0.5438(3) -0.0436(5)
H50 H -0.1119 0.5091 -0.0758
C46 C -0.1486(3) 0.1201(3) 0.2069(7)
N1 N 0.19284(18) 0.67263(18) -0.0885(5)
H51 H 0.2259(14) 0.693(2) -0.113(7)
N2 N 0.18637(19) 0.72767(19) 0.0439(6)
H52 H 0.2210(11) 0.747(3) 0.057(8)
N3 N 0.15430(16) 0.50556(18) 0.1554(4)
H53 H 0.1280(19) 0.512(3) 0.145(7)
N4 N 0.18873(16) 0.56423(18) 0.3086(4)
H54 H 0.164(2) 0.572(3) 0.295(7)
N5 N -0.01167(17) 0.45285(18) 0.0163(4)
H55 H 0.003(3) 0.467(3) 0.084(3)
N6 N -0.02145(17) 0.52632(18) 0.0232(4)
H56 H 0.005(2) 0.534(3) 0.073(5)
O1 O -0.1963(7) 0.1639(5) 0.1110(15)
O2 O -0.134(3) 0.172(2) 0.244(5)
O3 O 0.12113(15) 0.63961(15) 0.0354(4)
O4 O 0.22510(14) 0.51286(16) 0.2557(4)
O5 O -0.07157(14) 0.45781(16) -0.1056(4)
loop_
_geom_bond_atom_site_label_1
_geom_bond_atom_site_label_2
_geom_bond_site_symmetry_1
_geom_bond_site_symmetry_2
C1 H1 1_555 1_555
H2 C1 1_555 1_555
C2 C1 1_555 1_555
H3 C2 1_555 1_555
H4 C2 1_555 1_555
C3 C2 1_555 1_555
H5 C3 1_555 1_555
C4 C3 1_555 1_555
H6 C4 1_555 1_555
H7 C4 1_555 1_555
C5 C4 1_555 1_555
H8 C5 1_555 1_555
C6 C5 1_555 1_555
H9 C6 1_555 1_555
H10 C6 1_555 1_555
C7 C6 1_555 1_555
H11 C7 1_555 1_555
C8 C7 1_555 1_555
H12 C8 1_555 1_555
C9 C1 1_555 1_555
C10 C8 1_555 1_555
H13 C10 1_555 1_555
C11 C10 1_555 1_555
H14 C11 1_555 1_555
H15 C11 1_555 1_555
C12 C11 1_555 1_555
H16 C12 1_555 1_555
C13 C12 1_555 1_555
C14 C8 1_555 1_555
H17 C14 1_555 1_555
C15 C14 1_555 1_555
H18 C15 1_555 1_555
H19 C15 1_555 1_555
C16 C15 1_555 1_555
H20 C16 1_555 1_555
H21 C16 1_555 1_555
C17 C13 1_555 1_555
H22 C17 1_555 1_555
C18 C9 1_555 1_555
H23 C18 1_555 1_555
H24 C18 1_555 1_555
H25 C18 1_555 1_555
C19 C13 1_555 1_555
H26 C19 1_555 1_555
H27 C19 1_555 1_555
H28 C19 1_555 1_555
C20 C17 1_555 1_555
H29 C20 1_555 1_555
C21 C20 1_555 1_555
H30 C21 1_555 1_555
H31 C21 1_555 1_555
H32 C21 1_555 1_555
C22 C20 1_555 1_555
H33 C22 1_555 1_555
H34 C22 1_555 1_555
C23 C22 1_555 1_555
H35 C23 1_555 1_555
C24 C23 1_555 1_555
C25 N1 1_555 1_555
C26 N3 1_555 1_555
C27 N5 1_555 1_555
C28 C29 1_555 1_555
C29 H36 1_555 1_555
C30 C29 1_555 1_555
H37 C30 1_555 1_555
C31 C30 1_555 1_555
H38 C31 1_555 1_555
C32 C31 1_555 1_555
H39 C32 1_555 1_555
C33 C28 1_555 1_555
H40 C33 1_555 1_555
C34 C35 1_555 1_555
C35 H41 1_555 1_555
C36 C35 1_555 1_555
H42 C36 1_555 1_555
C37 C36 1_555 1_555
H43 C37 1_555 1_555
C38 C37 1_555 1_555
H44 C38 1_555 1_555
C39 C34 1_555 1_555
H45 C39 1_555 1_555
C40 C41 1_555 1_555
C41 H46 1_555 1_555
C42 C41 1_555 1_555
H47 C42 1_555 1_555
C43 C42 1_555 1_555
H48 C43 1_555 1_555
C44 C43 1_555 1_555
H49 C44 1_555 1_555
C45 C40 1_555 1_555
H50 C45 1_555 1_555
C46 O2 1_555 1_555
N1 C3 1_555 1_555
H51 N1 1_555 1_555
N2 C25 1_555 1_555
H52 N2 1_555 1_555
N3 C7 1_555 1_555
H53 N3 1_555 1_555
N4 C26 1_555 1_555
H54 N4 1_555 1_555
N5 C12 1_555 1_555
H55 N5 1_555 1_555
N6 C27 1_555 1_555
H56 N6 1_555 1_555
O1 C24 1_555 1_555
O2 C24 1_555 1_555
O3 C25 1_555 1_555
O4 C26 1_555 1_555
O5 C27 1_555 1_555
O6 H57 1_555 1_555
H58 O6 1_555 1_555
C5 C9 1_555 1_555
C9 C10 1_555 1_555
C13 C14 1_555 1_555
C16 C17 1_555 1_555
C28 N2 1_555 1_555
C32 C33 1_555 1_555
C34 N4 1_555 1_555
C38 C39 1_555 1_555
C40 N6 1_555 1_555
C44 C45 1_555 1_555

#END
