
#######################################################################
#
#                 Cambridge Crystallographic Data Centre
#                                CCDC 
#
#######################################################################
#
# If this CIF has been generated from an entry in the Cambridge 
# Structural Database, then it will include bibliographic, chemical, 
# crystal, experimental, refinement or atomic coordinate data resulting 
# from the CCDC's data processing and validation procedures.
#
#######################################################################

data_SIMQUD
_chemical_formula_moiety         'C48 H59 F5 N6 O5,H2 O1'
_chemical_name_systematic        
'2,2,3,3,3-pentafluoropropyl 3,7,12-tris((phenylcarbamoyl)amino)cholan-24-oate monohydrate'
_symmetry_cell_setting           hexagonal
_symmetry_space_group_name_H-M   'P 61'
_symmetry_Int_Tables_number      169
_space_group_name_Hall           'P 61'
loop_
_symmetry_equiv_pos_site_id
_symmetry_equiv_pos_as_xyz
1 x,y,z
2 -y,x-y,1/3+z
3 -x+y,-x,2/3+z
4 -x,-y,1/2+z
5 y,-x+y,5/6+z
6 x-y,x,1/6+z
_cell_length_a                   28.9203(11)
_cell_length_b                   28.9203(11)
_cell_length_c                   11.5171(4)
_cell_angle_alpha                90
_cell_angle_beta                 90
_cell_angle_gamma                120
_cell_volume                     8342.18
_exptl_crystal_colour            colorless
_exptl_crystal_description       'cut needle'
_cell_formula_units_Z            6
loop_
_atom_site_label
_atom_site_type_symbol
_atom_site_fract_x
_atom_site_fract_y
_atom_site_fract_z
C1 C 0.58978(14) 0.45962(13) 0.5805(3)
H1 H 0.6037 0.4459 0.6421
H2 H 0.5767 0.4816 0.6185
C2 C 0.54296(13) 0.41247(13) 0.5211(3)
H3 H 0.5271 0.4255 0.4627
H4 H 0.5152 0.3909 0.5792
C3 C 0.56248(13) 0.37806(12) 0.4620(3)
H5 H 0.5797 0.3677 0.5242
C4 C 0.60607(12) 0.41087(12) 0.3749(3)
H6 H 0.5910 0.4227 0.3121
H7 H 0.6190 0.3882 0.3397
C5 C 0.65359(12) 0.46024(13) 0.4310(3)
H8 H 0.6689 0.4463 0.4901
C6 C 0.69844(12) 0.49263(13) 0.3440(3)
H9 H 0.7315 0.5163 0.3878
H10 H 0.7052 0.4677 0.2981
C7 C 0.68704(12) 0.52678(13) 0.2603(3)
H11 H 0.7215 0.5525 0.2219
C8 C 0.66662(12) 0.55962(12) 0.3244(3)
H12 H 0.6969 0.5866 0.3726
C9 C 0.63616(12) 0.49560(13) 0.4981(3)
C10 C 0.62017(12) 0.52549(12) 0.4086(3)
H13 H 0.5907 0.4974 0.3604
C11 C 0.59809(13) 0.55853(13) 0.4638(3)
H14 H 0.6253 0.5851 0.5170
H15 H 0.5663 0.5346 0.5108
C12 C 0.58232(13) 0.58821(12) 0.3741(3)
H16 H 0.5707 0.6107 0.4173
C13 C 0.63090(13) 0.62524(12) 0.2977(3)
C14 C 0.65156(12) 0.59039(12) 0.2398(3)
H17 H 0.6217 0.5633 0.1910
C15 C 0.69442(13) 0.62903(14) 0.1566(3)
H18 H 0.7006 0.6096 0.0933
H19 H 0.7285 0.6517 0.1978
C16 C 0.67101(14) 0.66273(15) 0.1089(3)
H20 H 0.6599 0.6533 0.0270
H21 H 0.6979 0.7012 0.1129
C17 C 0.62141(13) 0.65007(13) 0.1868(3)
H22 H 0.5891 0.6211 0.1471
C18 C 0.68237(14) 0.53501(14) 0.5757(3)
H23 H 0.6920 0.5151 0.6300
H24 H 0.6713 0.5569 0.6194
H25 H 0.7133 0.5581 0.5273
C19 C 0.67336(14) 0.66936(13) 0.3751(3)
H26 H 0.6573 0.6873 0.4171
H27 H 0.7028 0.6954 0.3266
H28 H 0.6870 0.6535 0.4308
C20 C 0.61325(14) 0.69853(14) 0.1981(3)
H29 H 0.6461 0.7285 0.2338
C21 C 0.56530(15) 0.68671(15) 0.2767(3)
H30 H 0.5330 0.6559 0.2460
H31 H 0.5604 0.7179 0.2783
H32 H 0.5721 0.6789 0.3556
C22 C 0.60741(16) 0.71565(16) 0.0739(4)
H33 H 0.6399 0.7240 0.0291
H34 H 0.5768 0.6850 0.0355
C23 C 0.59899(17) 0.76365(17) 0.0676(4)
H35 H 0.5990 0.7734 -0.0148
H36 H 0.5636 0.7536 0.1008
C24 C 0.6405(2) 0.81038(19) 0.1306(4)
C25 C 0.48774(13) 0.32472(12) 0.3240(3)
C26 C 0.66511(12) 0.47221(12) 0.0839(3)
C27 C 0.48676(13) 0.52429(13) 0.3493(3)
C28 C 0.62837(13) 0.40672(12) -0.0798(3)
C29 C 0.67527(15) 0.40990(16) -0.1173(3)
H37 H 0.7080 0.4324 -0.0787
C30 C 0.67372(16) 0.37929(16) -0.2136(4)
H38 H 0.7058 0.3812 -0.2395
C31 C 0.62703(16) 0.34687(14) -0.2706(3)
H39 H 0.6268 0.3269 -0.3364
C32 C 0.58060(15) 0.34345(14) -0.2319(3)
H40 H 0.5479 0.3204 -0.2702
C33 C 0.58084(14) 0.37346(13) -0.1366(3)
H41 H 0.5485 0.3711 -0.1108
C34 C 0.42072(13) 0.25775(13) 0.1908(3)
C35 C 0.42400(16) 0.23164(15) 0.0932(3)
H42 H 0.4541 0.2271 0.0823
C36 C 0.38334(18) 0.21199(16) 0.0111(3)
H43 H 0.3857 0.1938 -0.0553
C37 C 0.34005(18) 0.21849(16) 0.0248(4)
H44 H 0.3121 0.2046 -0.0308
C38 C 0.33770(18) 0.24584(18) 0.1217(4)
H45 H 0.3082 0.2514 0.1306
C39 C 0.37689(15) 0.26502(15) 0.2049(4)
H46 H 0.3742 0.2830 0.2713
C40 C 0.39826(13) 0.44226(14) 0.3150(3)
C41 C 0.37575(14) 0.38983(14) 0.2737(3)
H47 H 0.3980 0.3775 0.2418
C42 C 0.32081(15) 0.35578(16) 0.2796(4)
H48 H 0.3056 0.3205 0.2498
C43 C 0.28792(14) 0.37279(16) 0.3288(3)
H49 H 0.2505 0.3494 0.3337
C44 C 0.31078(14) 0.42438(16) 0.3702(3)
H50 H 0.2886 0.4362 0.4044
C45 C 0.36534(14) 0.45947(14) 0.3632(3)
H51 H 0.3801 0.4950 0.3911
C46 C 0.7306(3) 0.8757(3) 0.1265(10)
H52 H 0.7171 0.8885 0.1907
H53 H 0.7484 0.9048 0.0689
C47 C 0.7689(4) 0.8605(4) 0.1718(15)
C48 C 0.7957(5) 0.8452(6) 0.0891(18)
F1 F 0.8115(3) 0.9032(4) 0.2308(14)
F2 F 0.7450(3) 0.8193(3) 0.2488(9)
F3 F 0.8242(6) 0.8834(5) 0.0064(18)
F4 F 0.8353(4) 0.8391(6) 0.133(2)
F5 F 0.7649(4) 0.8027(4) 0.0208(15)
N1 N 0.51996(11) 0.32803(11) 0.4134(2)
H54 H 0.5233(16) 0.3001(11) 0.425(4)
N2 N 0.46041(12) 0.27388(11) 0.2770(3)
H55 H 0.4718(16) 0.2520(14) 0.294(4)
N3 N 0.64918(10) 0.49373(11) 0.1680(2)
H56 H 0.6158(8) 0.4807(14) 0.183(4)
N4 N 0.62441(11) 0.43455(11) 0.0175(2)
H57 H 0.5935(10) 0.4287(16) 0.035(4)
N5 N 0.53705(11) 0.54888(11) 0.3046(2)
H58 H 0.5452(16) 0.5310(14) 0.257(3)
N6 N 0.45356(11) 0.47573(11) 0.2989(3)
H59 H 0.4670(15) 0.4585(15) 0.262(3)
O1 O 0.63559(16) 0.83078(14) 0.2175(3)
O2 O 0.68871(17) 0.83115(17) 0.0749(4)
O3 O 0.48208(9) 0.36138(9) 0.2890(2)
O4 O 0.71231(9) 0.48603(10) 0.0687(2)
O5 O 0.47272(9) 0.54411(9) 0.4270(2)
O6 O 0.53009(10) 0.45242(10) 0.1633(2)
H60 H 0.5084(14) 0.4428(16) 0.106(3)
H61 H 0.5138(15) 0.4203(9) 0.186(4)
loop_
_geom_bond_atom_site_label_1
_geom_bond_atom_site_label_2
_geom_bond_site_symmetry_1
_geom_bond_site_symmetry_2
C1 H1 1_555 1_555
H2 C1 1_555 1_555
C2 C1 1_555 1_555
H3 C2 1_555 1_555
H4 C2 1_555 1_555
C3 C2 1_555 1_555
H5 C3 1_555 1_555
C4 C3 1_555 1_555
H6 C4 1_555 1_555
H7 C4 1_555 1_555
C5 C4 1_555 1_555
H8 C5 1_555 1_555
C6 C5 1_555 1_555
H9 C6 1_555 1_555
H10 C6 1_555 1_555
C7 C6 1_555 1_555
H11 C7 1_555 1_555
C8 C7 1_555 1_555
H12 C8 1_555 1_555
C9 C1 1_555 1_555
C10 C8 1_555 1_555
H13 C10 1_555 1_555
C11 C10 1_555 1_555
H14 C11 1_555 1_555
H15 C11 1_555 1_555
C12 C11 1_555 1_555
H16 C12 1_555 1_555
C13 C12 1_555 1_555
C14 C8 1_555 1_555
H17 C14 1_555 1_555
C15 C14 1_555 1_555
H18 C15 1_555 1_555
H19 C15 1_555 1_555
C16 C15 1_555 1_555
H20 C16 1_555 1_555
H21 C16 1_555 1_555
C17 C13 1_555 1_555
H22 C17 1_555 1_555
C18 C9 1_555 1_555
H23 C18 1_555 1_555
H24 C18 1_555 1_555
H25 C18 1_555 1_555
C19 C13 1_555 1_555
H26 C19 1_555 1_555
H27 C19 1_555 1_555
H28 C19 1_555 1_555
C20 C17 1_555 1_555
H29 C20 1_555 1_555
C21 C20 1_555 1_555
H30 C21 1_555 1_555
H31 C21 1_555 1_555
H32 C21 1_555 1_555
C22 C20 1_555 1_555
H33 C22 1_555 1_555
H34 C22 1_555 1_555
C23 C22 1_555 1_555
H35 C23 1_555 1_555
H36 C23 1_555 1_555
C24 C23 1_555 1_555
C25 N1 1_555 1_555
C26 N3 1_555 1_555
C27 N5 1_555 1_555
C28 C29 1_555 1_555
C29 H37 1_555 1_555
C30 C29 1_555 1_555
H38 C30 1_555 1_555
C31 C30 1_555 1_555
H39 C31 1_555 1_555
C32 C31 1_555 1_555
H40 C32 1_555 1_555
C33 C28 1_555 1_555
H41 C33 1_555 1_555
C34 C35 1_555 1_555
C35 H42 1_555 1_555
C36 C35 1_555 1_555
H43 C36 1_555 1_555
C37 C36 1_555 1_555
H44 C37 1_555 1_555
C38 C37 1_555 1_555
H45 C38 1_555 1_555
C39 C34 1_555 1_555
H46 C39 1_555 1_555
C40 C41 1_555 1_555
C41 H47 1_555 1_555
C42 C41 1_555 1_555
H48 C42 1_555 1_555
C43 C42 1_555 1_555
H49 C43 1_555 1_555
C44 C43 1_555 1_555
H50 C44 1_555 1_555
C45 C40 1_555 1_555
H51 C45 1_555 1_555
C46 H52 1_555 1_555
H53 C46 1_555 1_555
C47 C46 1_555 1_555
C48 C47 1_555 1_555
F1 C47 1_555 1_555
F2 C47 1_555 1_555
F3 C48 1_555 1_555
F4 C48 1_555 1_555
F5 C48 1_555 1_555
N1 C3 1_555 1_555
H54 N1 1_555 1_555
N2 C25 1_555 1_555
H55 N2 1_555 1_555
N3 C7 1_555 1_555
H56 N3 1_555 1_555
N4 C26 1_555 1_555
H57 N4 1_555 1_555
N5 C12 1_555 1_555
H58 N5 1_555 1_555
N6 C27 1_555 1_555
H59 N6 1_555 1_555
O1 C24 1_555 1_555
O2 C24 1_555 1_555
O3 C25 1_555 1_555
O4 C26 1_555 1_555
O5 C27 1_555 1_555
O6 H60 1_555 1_555
H61 O6 1_555 1_555
C5 C9 1_555 1_555
C9 C10 1_555 1_555
C13 C14 1_555 1_555
C16 C17 1_555 1_555
C28 N4 1_555 1_555
C32 C33 1_555 1_555
C34 N2 1_555 1_555
C38 C39 1_555 1_555
C40 N6 1_555 1_555
C44 C45 1_555 1_555
C46 O2 1_555 1_555

#END
