
#######################################################################
#
#                 Cambridge Crystallographic Data Centre
#                                CCDC 
#
#######################################################################
#
# If this CIF has been generated from an entry in the Cambridge 
# Structural Database, then it will include bibliographic, chemical, 
# crystal, experimental, refinement or atomic coordinate data resulting 
# from the CCDC's data processing and validation procedures.
#
#######################################################################

data_SIMRIS
_chemical_formula_moiety         'C46 H60 N6 O5,C6 H7 N1,H2 O1'
_chemical_name_systematic        
'methyl 3,7,12-tris((phenylcarbamoyl)amino)cholan-24-oate aniline monohydrate'
_symmetry_cell_setting           hexagonal
_symmetry_space_group_name_H-M   'P 61'
_symmetry_Int_Tables_number      169
_space_group_name_Hall           'P 61'
loop_
_symmetry_equiv_pos_site_id
_symmetry_equiv_pos_as_xyz
1 x,y,z
2 -y,x-y,1/3+z
3 -x+y,-x,2/3+z
4 -x,-y,1/2+z
5 y,-x+y,5/6+z
6 x-y,x,1/6+z
_cell_length_a                   29.1116(6)
_cell_length_b                   29.1116(6)
_cell_length_c                   11.4575(3)
_cell_angle_alpha                90
_cell_angle_beta                 90
_cell_angle_gamma                120
_cell_volume                     8409.16
_exptl_crystal_colour            colorless
_exptl_crystal_description       needle
_cell_formula_units_Z            6
loop_
_atom_site_label
_atom_site_type_symbol
_atom_site_fract_x
_atom_site_fract_y
_atom_site_fract_z
C1 C 0.40843(15) 0.53961(15) 0.9447(3)
H1 H 0.3944 0.5530 1.0065
H2 H 0.4214 0.5177 0.9829
C2 C 0.45510(16) 0.58669(14) 0.8862(3)
H3 H 0.4711 0.5741 0.8272
H4 H 0.4825 0.6079 0.9451
C3 C 0.43552(15) 0.62077(14) 0.8279(3)
H5 H 0.4181 0.6307 0.8903
C4 C 0.39246(14) 0.58815(14) 0.7381(3)
H6 H 0.4077 0.5764 0.6756
H7 H 0.3797 0.6107 0.7021
C5 C 0.34533(14) 0.53927(14) 0.7944(3)
H8 H 0.3300 0.5530 0.8538
C6 C 0.30073(14) 0.50660(14) 0.7070(3)
H9 H 0.2681 0.4828 0.7511
H10 H 0.2935 0.5311 0.6610
C7 C 0.31256(13) 0.47313(14) 0.6226(3)
H11 H 0.2785 0.4476 0.5834
C8 C 0.33253(13) 0.44045(13) 0.6873(3)
H12 H 0.3025 0.4137 0.7358
C9 C 0.36247(14) 0.50384(14) 0.8616(3)
C10 C 0.37881(13) 0.47461(13) 0.7714(3)
H13 H 0.4079 0.5026 0.7229
C11 C 0.40139(14) 0.44210(14) 0.8274(3)
H14 H 0.3746 0.4158 0.8814
H15 H 0.4330 0.4661 0.8741
C12 C 0.41703(14) 0.41274(14) 0.7374(3)
H16 H 0.4286 0.3905 0.7808
C13 C 0.36888(14) 0.37583(14) 0.6607(3)
C14 C 0.34793(13) 0.40975(14) 0.6026(3)
H17 H 0.3774 0.4367 0.5532
C15 C 0.30523(14) 0.37112(15) 0.5190(3)
H18 H 0.2993 0.3902 0.4546
H19 H 0.2713 0.3489 0.5604
C16 C 0.32868(16) 0.33718(16) 0.4729(3)
H20 H 0.3393 0.3458 0.3901
H21 H 0.3021 0.2990 0.4786
C17 C 0.37809(14) 0.35061(14) 0.5503(3)
H22 H 0.4100 0.3791 0.5093
C18 C 0.31646(16) 0.46425(15) 0.9390(3)
H23 H 0.3271 0.4416 0.9804
H24 H 0.2854 0.4422 0.8902
H25 H 0.3075 0.4837 0.9958
C19 C 0.32675(15) 0.33208(14) 0.7388(3)
H26 H 0.3435 0.3166 0.7868
H27 H 0.2993 0.3044 0.6898
H28 H 0.3107 0.3473 0.7894
C20 C 0.38622(15) 0.30217(15) 0.5634(3)
H29 H 0.3536 0.2726 0.5999
C21 C 0.43364(16) 0.31411(16) 0.6410(4)
H30 H 0.4408 0.2846 0.6365
H31 H 0.4257 0.3186 0.7219
H32 H 0.4649 0.3468 0.6143
C22 C 0.39251(18) 0.28443(17) 0.4407(4)
H33 H 0.3618 0.2785 0.3926
H34 H 0.4248 0.3136 0.4043
C23 C 0.3966(2) 0.23380(19) 0.4381(4)
H35 H 0.4014 0.2258 0.3565
H36 H 0.4282 0.2398 0.4832
C24 C 0.3484(3) 0.1876(2) 0.4881(5)
C25 C 0.51073(14) 0.67457(14) 0.6908(3)
C26 C 0.33469(13) 0.52794(13) 0.4478(3)
C27 C 0.51181(14) 0.47536(14) 0.7117(3)
C28 C 0.57783(16) 0.74063(14) 0.5582(3)
C29 C 0.5744(2) 0.76802(17) 0.4622(4)
H37 H 0.5457 0.7746 0.4556
C30 C 0.6130(2) 0.7857(2) 0.3762(4)
H38 H 0.6108 0.8048 0.3113
C31 C 0.6546(2) 0.7759(2) 0.3835(4)
H39 H 0.6811 0.7883 0.3246
C32 C 0.6572(2) 0.7480(2) 0.4773(4)
H40 H 0.6853 0.7404 0.4819
C33 C 0.61954(18) 0.73063(18) 0.5654(4)
H41 H 0.6223 0.7120 0.6305
C34 C 0.37219(14) 0.59400(13) 0.2840(3)
C35 C 0.32558(16) 0.59112(17) 0.2451(4)
H42 H 0.2929 0.5688 0.2833
C36 C 0.32769(18) 0.62145(18) 0.1490(4)
H43 H 0.2959 0.6194 0.1219
C37 C 0.37459(17) 0.65436(16) 0.0921(3)
H44 H 0.3752 0.6748 0.0269
C38 C 0.42058(17) 0.65704(15) 0.1317(3)
H45 H 0.4532 0.6795 0.0931
C39 C 0.41984(15) 0.62731(14) 0.2272(3)
H46 H 0.4519 0.6297 0.2539
C40 C 0.60037(14) 0.55603(15) 0.6777(3)
C41 C 0.62334(16) 0.60796(16) 0.6367(3)
H47 H 0.6017 0.6204 0.6034
C42 C 0.67768(17) 0.64150(17) 0.6445(4)
H48 H 0.6932 0.6768 0.6160
C43 C 0.70966(16) 0.62348(19) 0.6942(4)
H49 H 0.7469 0.6464 0.6998
C44 C 0.68669(16) 0.57266(18) 0.7346(3)
H50 H 0.7085 0.5606 0.7689
C45 C 0.63191(16) 0.53772(16) 0.7268(3)
H51 H 0.6167 0.5023 0.7545
C46 C 0.3084(5) 0.1221(4) 0.6373(10)
H52 H 0.2793 0.1298 0.6368
H53 H 0.3167 0.1176 0.7180
H54 H 0.2979 0.0893 0.5936
N1 N 0.47781(13) 0.67062(12) 0.7792(3)
H55 H 0.4759(19) 0.6992(13) 0.791(4)
N2 N 0.53947(14) 0.72548(13) 0.6478(3)
H56 H 0.5266(19) 0.7465(17) 0.661(5)
N3 N 0.35012(11) 0.50584(12) 0.5309(2)
H57 H 0.3844(10) 0.5212(16) 0.532(4)
N4 N 0.37542(12) 0.56560(12) 0.3811(3)
H58 H 0.4063(12) 0.5679(18) 0.395(4)
N5 N 0.46178(12) 0.45150(12) 0.6673(2)
H59 H 0.4541(18) 0.4720(16) 0.627(4)
N6 N 0.54526(12) 0.52344(12) 0.6606(3)
H60 H 0.5325(18) 0.5397(17) 0.623(4)
O1 O 0.3040(2) 0.1712(2) 0.4450(7)
O2 O 0.3562(2) 0.16678(17) 0.5820(4)
O3 O 0.51580(11) 0.63758(10) 0.6542(2)
O4 O 0.28772(10) 0.51528(10) 0.4330(2)
O5 O 0.52556(10) 0.45497(10) 0.7891(2)
O6 O 0.46865(10) 0.54738(10) 0.5258(2)
H61 H 0.4815(18) 0.5495(19) 0.457(3)
H62 H 0.4870(17) 0.5813(11) 0.545(4)
C47 C 0.1678(3) 0.2608(3) 0.2860(10)
C48 C 0.1650(4) 0.2528(4) 0.1660(10)
H63 H 0.1469 0.2654 0.1185
C49 C 0.1887(5) 0.2264(5) 0.1154(10)
H64 H 0.1867 0.2210 0.0333
C50 C 0.2152(4) 0.2079(4) 0.1848(15)
H65 H 0.2313 0.1899 0.1502
C51 C 0.2180(4) 0.2159(4) 0.3048(14)
H66 H 0.2361 0.2033 0.3523
C52 C 0.1943(4) 0.2423(3) 0.3554(10)
H67 H 0.1962 0.2477 0.4374
N7 N 0.1471(8) 0.2868(9) 0.329(3)
H68 H 0.1315 0.2992 0.2833
H69 H 0.1484 0.2923 0.4051
loop_
_geom_bond_atom_site_label_1
_geom_bond_atom_site_label_2
_geom_bond_site_symmetry_1
_geom_bond_site_symmetry_2
C1 H1 1_555 1_555
H2 C1 1_555 1_555
C2 C1 1_555 1_555
H3 C2 1_555 1_555
H4 C2 1_555 1_555
C3 C2 1_555 1_555
H5 C3 1_555 1_555
C4 C3 1_555 1_555
H6 C4 1_555 1_555
H7 C4 1_555 1_555
C5 C4 1_555 1_555
H8 C5 1_555 1_555
C6 C5 1_555 1_555
H9 C6 1_555 1_555
H10 C6 1_555 1_555
C7 C6 1_555 1_555
H11 C7 1_555 1_555
C8 C7 1_555 1_555
H12 C8 1_555 1_555
C9 C1 1_555 1_555
C10 C8 1_555 1_555
H13 C10 1_555 1_555
C11 C10 1_555 1_555
H14 C11 1_555 1_555
H15 C11 1_555 1_555
C12 C11 1_555 1_555
H16 C12 1_555 1_555
C13 C12 1_555 1_555
C14 C8 1_555 1_555
H17 C14 1_555 1_555
C15 C14 1_555 1_555
H18 C15 1_555 1_555
H19 C15 1_555 1_555
C16 C15 1_555 1_555
H20 C16 1_555 1_555
H21 C16 1_555 1_555
C17 C13 1_555 1_555
H22 C17 1_555 1_555
C18 C9 1_555 1_555
H23 C18 1_555 1_555
H24 C18 1_555 1_555
H25 C18 1_555 1_555
C19 C13 1_555 1_555
H26 C19 1_555 1_555
H27 C19 1_555 1_555
H28 C19 1_555 1_555
C20 C17 1_555 1_555
H29 C20 1_555 1_555
C21 C20 1_555 1_555
H30 C21 1_555 1_555
H31 C21 1_555 1_555
H32 C21 1_555 1_555
C22 C20 1_555 1_555
H33 C22 1_555 1_555
H34 C22 1_555 1_555
C23 C22 1_555 1_555
H35 C23 1_555 1_555
H36 C23 1_555 1_555
C24 C23 1_555 1_555
C25 N1 1_555 1_555
C26 N3 1_555 1_555
C27 N5 1_555 1_555
C28 C29 1_555 1_555
C29 H37 1_555 1_555
C30 C29 1_555 1_555
H38 C30 1_555 1_555
C31 C30 1_555 1_555
H39 C31 1_555 1_555
C32 C31 1_555 1_555
H40 C32 1_555 1_555
C33 C28 1_555 1_555
H41 C33 1_555 1_555
C34 C35 1_555 1_555
C35 H42 1_555 1_555
C36 C35 1_555 1_555
H43 C36 1_555 1_555
C37 C36 1_555 1_555
H44 C37 1_555 1_555
C38 C37 1_555 1_555
H45 C38 1_555 1_555
C39 C34 1_555 1_555
H46 C39 1_555 1_555
C40 C41 1_555 1_555
C41 H47 1_555 1_555
C42 C41 1_555 1_555
H48 C42 1_555 1_555
C43 C42 1_555 1_555
H49 C43 1_555 1_555
C44 C43 1_555 1_555
H50 C44 1_555 1_555
C45 C40 1_555 1_555
H51 C45 1_555 1_555
C46 H52 1_555 1_555
H53 C46 1_555 1_555
H54 C46 1_555 1_555
N1 C3 1_555 1_555
H55 N1 1_555 1_555
N2 C25 1_555 1_555
H56 N2 1_555 1_555
N3 C7 1_555 1_555
H57 N3 1_555 1_555
N4 C26 1_555 1_555
H58 N4 1_555 1_555
N5 C12 1_555 1_555
H59 N5 1_555 1_555
N6 C27 1_555 1_555
H60 N6 1_555 1_555
O1 C24 1_555 1_555
O2 C24 1_555 1_555
O3 C25 1_555 1_555
O4 C26 1_555 1_555
O5 C27 1_555 1_555
O6 H61 1_555 1_555
H62 O6 1_555 1_555
C47 C48 1_555 1_555
C48 H63 1_555 1_555
C49 C48 1_555 1_555
H64 C49 1_555 1_555
C50 C49 1_555 1_555
H65 C50 1_555 1_555
C51 C50 1_555 1_555
H66 C51 1_555 1_555
C52 C47 1_555 1_555
H67 C52 1_555 1_555
N7 C47 1_555 1_555
H68 N7 1_555 1_555
H69 N7 1_555 1_555
C5 C9 1_555 1_555
C9 C10 1_555 1_555
C13 C14 1_555 1_555
C16 C17 1_555 1_555
C28 N2 1_555 1_555
C32 C33 1_555 1_555
C34 N4 1_555 1_555
C38 C39 1_555 1_555
C40 N6 1_555 1_555
C44 C45 1_555 1_555
C46 O2 1_555 1_555
C51 C52 1_555 1_555

#END
