
#######################################################################
#
#                 Cambridge Crystallographic Data Centre
#                                CCDC 
#
#######################################################################
#
# If this CIF has been generated from an entry in the Cambridge 
# Structural Database, then it will include bibliographic, chemical, 
# crystal, experimental, refinement or atomic coordinate data resulting 
# from the CCDC's data processing and validation procedures.
#
#######################################################################

data_SIMRUC
_chemical_formula_moiety         'C19 H27 N3 O1 S1'
_chemical_name_systematic        
3-Butyl-2-(piperidin-1-yl)-5,6,7,8-tetrahydrobenzothieno(2,3-d)pyrimidin-4(3H)-one
_symmetry_cell_setting           triclinic
_symmetry_space_group_name_H-M   'P -1'
_symmetry_Int_Tables_number      2
_space_group_name_Hall           '-P 1'
loop_
_symmetry_equiv_pos_site_id
_symmetry_equiv_pos_as_xyz
1 x,y,z
2 -x,-y,-z
_cell_length_a                   9.8979(8)
_cell_length_b                   10.3679(9)
_cell_length_c                   10.9645(9)
_cell_angle_alpha                113.5370(10)
_cell_angle_beta                 107.6790(10)
_cell_angle_gamma                100.1670(10)
_cell_volume                     923.972
_exptl_crystal_colour            colorless
_exptl_crystal_description       block
_chemical_melting_point          '362 K'
_cell_formula_units_Z            2
_exptl_crystal_recrystallization_method hexane/dichloromethane
loop_
_atom_site_label
_atom_site_type_symbol
_atom_site_fract_x
_atom_site_fract_y
_atom_site_fract_z
S1 S 0.40177(10) 0.46312(8) 0.21177(8)
N1 N 0.3069(2) 0.1715(2) 0.1435(2)
N2 N 0.1870(2) 0.1033(2) 0.2765(2)
C1 C 0.2699(3) 0.3619(3) 0.3400(3)
N3 N 0.2303(2) -0.0775(2) 0.0898(2)
O1 O 0.1534(3) 0.2739(2) 0.4653(2)
C2 C 0.1233(3) -0.0109(3) 0.3111(3)
H1 H 0.1728 0.0261 0.4155
H2 H 0.1451 -0.1005 0.2622
C3 C 0.1995(3) 0.2514(3) 0.3694(3)
C4 C 0.2415(3) 0.0708(3) 0.1690(3)
C5 C 0.2966(3) 0.5199(3) 0.4082(3)
C6 C 0.3202(3) 0.3150(3) 0.2314(3)
C7 C 0.3667(3) 0.5875(3) 0.3505(3)
C8 C 0.0765(3) -0.1862(3) -0.0144(3)
H3 H 0.0417 -0.1704 -0.0984
H4 H 0.0077 -0.1703 0.0325
C9 C -0.0465(3) -0.0517(3) 0.2656(3)
H5 H -0.0666 0.0299 0.3320
H6 H -0.0941 -0.0642 0.1683
C10 C 0.2488(4) 0.6038(3) 0.5266(3)
H7 H 0.3113 0.6105 0.6178
H8 H 0.1449 0.5502 0.5003
C11 C 0.3358(3) -0.0959(3) 0.0196(3)
H9 H 0.4361 -0.0251 0.0891
H10 H 0.3044 -0.0759 -0.0620
C12 C 0.0763(4) -0.3444(3) -0.0643(3)
H11 H -0.0248 -0.4141 -0.1324
H12 H 0.1072 -0.3617 0.0190
C13 C -0.1149(3) -0.1924(4) 0.2660(4)
H13 H -0.0679 -0.1798 0.3635
H14 H -0.0941 -0.2739 0.2002
C14 C 0.4085(4) 0.7505(3) 0.3967(3)
H15 H 0.5133 0.7899 0.4151
H16 H 0.3472 0.7643 0.3183
C15 C 0.3392(4) -0.2539(4) -0.0343(4)
H17 H 0.3794 -0.2700 0.0488
H18 H 0.4061 -0.2661 -0.0838
C16 C 0.1840(4) -0.3699(4) -0.1381(4)
H19 H 0.1892 -0.4695 -0.1644
H20 H 0.1478 -0.3622 -0.2268
C17 C 0.2643(5) 0.7599(4) 0.5461(5)
H21 H 0.1719 0.7538 0.4765
H22 H 0.2716 0.8223 0.6431
C18 C 0.3868(5) 0.8343(4) 0.5298(4)
H23 H 0.4786 0.8629 0.6139
H24 H 0.3737 0.9257 0.5323
C19 C -0.2845(4) -0.2338(4) 0.2196(4)
H25 H -0.3059 -0.1533 0.2839
H26 H -0.3224 -0.3228 0.2242
H27 H -0.3323 -0.2514 0.1212
loop_
_geom_bond_atom_site_label_1
_geom_bond_atom_site_label_2
_geom_bond_site_symmetry_1
_geom_bond_site_symmetry_2
S1 C6 1_555 1_555
N1 C4 1_555 1_555
N2 C2 1_555 1_555
C1 C3 1_555 1_555
N3 C4 1_555 1_555
O1 C3 1_555 1_555
C2 H1 1_555 1_555
H2 C2 1_555 1_555
C3 N2 1_555 1_555
C4 N2 1_555 1_555
C5 C1 1_555 1_555
C6 N1 1_555 1_555
C7 S1 1_555 1_555
C8 N3 1_555 1_555
H3 C8 1_555 1_555
H4 C8 1_555 1_555
C9 C2 1_555 1_555
H5 C9 1_555 1_555
H6 C9 1_555 1_555
C10 C5 1_555 1_555
H7 C10 1_555 1_555
H8 C10 1_555 1_555
C11 N3 1_555 1_555
H9 C11 1_555 1_555
H10 C11 1_555 1_555
C12 C8 1_555 1_555
H11 C12 1_555 1_555
H12 C12 1_555 1_555
C13 C9 1_555 1_555
H13 C13 1_555 1_555
H14 C13 1_555 1_555
C14 C7 1_555 1_555
H15 C14 1_555 1_555
H16 C14 1_555 1_555
C15 C11 1_555 1_555
H17 C15 1_555 1_555
H18 C15 1_555 1_555
C16 C12 1_555 1_555
H19 C16 1_555 1_555
H20 C16 1_555 1_555
C17 C10 1_555 1_555
H21 C17 1_555 1_555
H22 C17 1_555 1_555
C18 C14 1_555 1_555
H23 C18 1_555 1_555
H24 C18 1_555 1_555
C19 C13 1_555 1_555
H25 C19 1_555 1_555
H26 C19 1_555 1_555
H27 C19 1_555 1_555
C1 C6 1_555 1_555
C5 C7 1_555 1_555
C15 C16 1_555 1_555
C17 C18 1_555 1_555

#END
