
#######################################################################
#
#                 Cambridge Crystallographic Data Centre
#                                CCDC 
#
#######################################################################
#
# If this CIF has been generated from an entry in the Cambridge 
# Structural Database, then it will include bibliographic, chemical, 
# crystal, experimental, refinement or atomic coordinate data resulting 
# from the CCDC's data processing and validation procedures.
#
#######################################################################

data_SIMRAK
_chemical_formula_moiety         'C48 H62 N6 O5,H2 O1'
_chemical_name_systematic        
'allyl 3,7,12-tris((phenylcarbamoyl)amino)cholan-24-oate unknown solvate  monohydrate'
_symmetry_cell_setting           hexagonal
_symmetry_space_group_name_H-M   'P 61'
_symmetry_Int_Tables_number      169
_space_group_name_Hall           'P 61'
loop_
_symmetry_equiv_pos_site_id
_symmetry_equiv_pos_as_xyz
1 x,y,z
2 -y,x-y,1/3+z
3 -x+y,-x,2/3+z
4 -x,-y,1/2+z
5 y,-x+y,5/6+z
6 x-y,x,1/6+z
_cell_length_a                   28.9183(14)
_cell_length_b                   28.9183(14)
_cell_length_c                   11.5106(6)
_cell_angle_alpha                90
_cell_angle_beta                 90
_cell_angle_gamma                120
_cell_volume                     8336.31
_exptl_crystal_colour            colorless
_exptl_crystal_description       needle
_cell_formula_units_Z            6
loop_
_atom_site_label
_atom_site_type_symbol
_atom_site_fract_x
_atom_site_fract_y
_atom_site_fract_z
C1 C 0.54039(12) 0.41033(12) -0.2092(3)
H1 H 0.5543 0.3967 -0.2710
H2 H 0.5181 0.4232 -0.2470
C2 C 0.58740(12) 0.45738(12) -0.1500(3)
H3 H 0.5743 0.4731 -0.0913
H4 H 0.6088 0.4852 -0.2080
C3 C 0.62180(12) 0.43769(12) -0.0915(3)
H5 H 0.6321 0.4204 -0.1537
C4 C 0.58935(11) 0.39421(11) -0.0023(3)
H6 H 0.5773 0.4093 0.0601
H7 H 0.6123 0.3817 0.0334
C5 C 0.54019(11) 0.34636(11) -0.0592(3)
H8 H 0.5545 0.3314 -0.1184
C6 C 0.50776(12) 0.30124(11) 0.0267(3)
H9 H 0.5326 0.2942 0.0723
H10 H 0.4840 0.2684 -0.0176
C7 C 0.47354(11) 0.31270(11) 0.1113(2)
H11 H 0.4482 0.2783 0.1502
C8 C 0.43991(11) 0.33221(11) 0.0462(2)
H12 H 0.4132 0.3018 -0.0022
C9 C 0.50442(11) 0.36340(12) -0.1266(3)
C10 C 0.47445(11) 0.37916(11) -0.0374(2)
H13 H 0.5023 0.4086 0.0112
C11 C 0.44060(12) 0.40081(12) -0.0927(2)
H14 H 0.4142 0.3734 -0.1459
H15 H 0.4642 0.4327 -0.1398
C12 C 0.41064(11) 0.41608(11) -0.0036(2)
H16 H 0.3880 0.4275 -0.0467
C13 C 0.37401(11) 0.36740(11) 0.0732(2)
C14 C 0.40888(11) 0.34701(11) 0.1307(3)
H17 H 0.4359 0.3769 0.1795
C15 C 0.37054(12) 0.30386(12) 0.2144(3)
H18 H 0.3902 0.2984 0.2784
H19 H 0.3486 0.2695 0.1735
C16 C 0.33552(13) 0.32643(13) 0.2606(3)
H20 H 0.3439 0.3369 0.3432
H21 H 0.2972 0.2992 0.2543
C17 C 0.34851(11) 0.37632(12) 0.1840(3)
H22 H 0.3772 0.4084 0.2248
C18 C 0.46498(12) 0.31695(12) -0.2044(3)
H23 H 0.4431 0.3280 -0.2485
H24 H 0.4418 0.2861 -0.1558
H25 H 0.4849 0.3072 -0.2584
C19 C 0.32992(12) 0.32475(12) -0.0038(3)
H26 H 0.3456 0.3098 -0.0569
H27 H 0.3130 0.3410 -0.0489
H28 H 0.3031 0.2962 0.0452
C20 C 0.30017(12) 0.38472(12) 0.1717(3)
H29 H 0.2703 0.3520 0.1353
C21 C 0.31195(13) 0.43272(13) 0.0953(3)
H30 H 0.3429 0.4648 0.1263
H31 H 0.2809 0.4378 0.0948
H32 H 0.3196 0.4263 0.0158
C22 C 0.28279(14) 0.39051(14) 0.2948(3)
H33 H 0.3132 0.4213 0.3332
H34 H 0.2746 0.3582 0.3400
C23 C 0.23387(15) 0.39846(17) 0.2995(4)
H35 H 0.2244 0.3996 0.3817
H36 H 0.2433 0.4332 0.2635
C24 C 0.18655(18) 0.3551(2) 0.2382(4)
C25 C 0.67579(11) 0.51289(12) 0.0468(3)
C26 C 0.52768(11) 0.33484(11) 0.2870(2)
C27 C 0.47445(11) 0.51177(11) 0.0211(2)
C28 C 0.74266(11) 0.58028(12) 0.1793(3)
C29 C 0.76973(14) 0.57723(15) 0.2763(3)
H37 H 0.7747 0.5474 0.2863
C30 C 0.78960(15) 0.61820(18) 0.3591(3)
H38 H 0.8093 0.6167 0.4237
C31 C 0.78080(15) 0.66085(17) 0.3476(4)
H39 H 0.7942 0.6886 0.4040
C32 C 0.75198(14) 0.66256(15) 0.2522(4)
H40 H 0.7447 0.6910 0.2450
C33 C 0.73371(13) 0.62290(14) 0.1672(3)
H41 H 0.7152 0.6251 0.1012
C34 C 0.59367(11) 0.37222(12) 0.4499(3)
C35 C 0.59061(13) 0.32497(13) 0.4886(3)
H42 H 0.5685 0.2922 0.4497
C36 C 0.62056(14) 0.32672(14) 0.5854(3)
H43 H 0.6182 0.2945 0.6124
C37 C 0.65346(13) 0.37373(14) 0.6429(3)
H44 H 0.6737 0.3741 0.7082
C38 C 0.65647(13) 0.42051(13) 0.6035(3)
H45 H 0.6791 0.4533 0.6419
C39 C 0.62673(11) 0.41957(12) 0.5087(3)
H46 H 0.6289 0.4518 0.4832
C40 C 0.55623(12) 0.60013(12) 0.0557(3)
C41 C 0.60867(12) 0.62245(12) 0.0964(3)
H47 H 0.6210 0.6003 0.1285
C42 C 0.64261(13) 0.67738(13) 0.0894(3)
H48 H 0.6780 0.6928 0.1184
C43 C 0.62520(14) 0.70958(13) 0.0405(3)
H49 H 0.6487 0.7470 0.0350
C44 C 0.57374(14) 0.68739(12) -0.0002(3)
H50 H 0.5619 0.7097 -0.0337
C45 C 0.53892(13) 0.63288(12) 0.0072(3)
H51 H 0.5034 0.6179 -0.0207
C46 C 0.1189(4) 0.2644(3) 0.2506(12)
H52 H 0.0986 0.2792 0.2117
H53 H 0.0977 0.2440 0.3189
C47 C 0.1209(7) 0.2254(7) 0.1688(15)
H54 H 0.0889 0.1969 0.1376
C48 C 0.1666(6) 0.2308(7) 0.1409(16)
H55 H 0.1985 0.2594 0.1723
H56 H 0.1683 0.2062 0.0889
N1 N 0.67178(10) 0.48043(10) -0.0422(2)
H57 H 0.7003(11) 0.4777(15) -0.059(4)
N2 N 0.72650(10) 0.54061(11) 0.0925(3)
H58 H 0.7476(14) 0.5274(15) 0.083(4)
N3 N 0.50604(10) 0.35041(9) 0.2024(2)
H59 H 0.5188(13) 0.3859(8) 0.197(4)
N4 N 0.56592(10) 0.37573(9) 0.3530(2)
H60 H 0.5729(15) 0.4091(9) 0.347(4)
N5 N 0.44971(10) 0.46121(10) 0.0663(2)
H61 H 0.4714(13) 0.4576(15) 0.113(3)
N6 N 0.52273(10) 0.54458(10) 0.0726(2)
H62 H 0.5396(14) 0.5320(14) 0.110(3)
O1 O 0.16653(13) 0.36029(15) 0.1503(3)
O2 O 0.16667(17) 0.30805(18) 0.2930(5)
O3 O 0.63856(8) 0.51849(9) 0.0827(2)
O4 O 0.51425(9) 0.28728(8) 0.30299(19)
O5 O 0.45460(9) 0.52576(9) -0.05654(19)
O6 O 0.54732(9) 0.46947(9) 0.20774(19)
H68 H 0.5511(16) 0.4778(15) 0.2785(19)
H69 H 0.5794(9) 0.4889(13) 0.188(4)
H63? H 0.1305 0.2412 0.2128
H64? H 0.1080 0.2797 0.1865
C49? C 0.0671(10) 0.2259(11) 0.310(2)
H65? H 0.0392 0.1955 0.2724
C50? C 0.0645(10) 0.2387(9) 0.4187(16)
H66? H 0.0936 0.2696 0.4521
H67? H 0.0336 0.2170 0.4637
loop_
_geom_bond_atom_site_label_1
_geom_bond_atom_site_label_2
_geom_bond_site_symmetry_1
_geom_bond_site_symmetry_2
C1 H1 1_555 1_555
H2 C1 1_555 1_555
C2 C1 1_555 1_555
H3 C2 1_555 1_555
H4 C2 1_555 1_555
C3 C2 1_555 1_555
H5 C3 1_555 1_555
C4 C3 1_555 1_555
H6 C4 1_555 1_555
H7 C4 1_555 1_555
C5 C4 1_555 1_555
H8 C5 1_555 1_555
C6 C5 1_555 1_555
H9 C6 1_555 1_555
H10 C6 1_555 1_555
C7 C6 1_555 1_555
H11 C7 1_555 1_555
C8 C7 1_555 1_555
H12 C8 1_555 1_555
C9 C1 1_555 1_555
C10 C8 1_555 1_555
H13 C10 1_555 1_555
C11 C10 1_555 1_555
H14 C11 1_555 1_555
H15 C11 1_555 1_555
C12 C11 1_555 1_555
H16 C12 1_555 1_555
C13 C12 1_555 1_555
C14 C8 1_555 1_555
H17 C14 1_555 1_555
C15 C14 1_555 1_555
H18 C15 1_555 1_555
H19 C15 1_555 1_555
C16 C15 1_555 1_555
H20 C16 1_555 1_555
H21 C16 1_555 1_555
C17 C13 1_555 1_555
H22 C17 1_555 1_555
C18 C9 1_555 1_555
H23 C18 1_555 1_555
H24 C18 1_555 1_555
H25 C18 1_555 1_555
C19 C13 1_555 1_555
H26 C19 1_555 1_555
H27 C19 1_555 1_555
H28 C19 1_555 1_555
C20 C17 1_555 1_555
H29 C20 1_555 1_555
C21 C20 1_555 1_555
H30 C21 1_555 1_555
H31 C21 1_555 1_555
H32 C21 1_555 1_555
C22 C20 1_555 1_555
H33 C22 1_555 1_555
H34 C22 1_555 1_555
C23 C22 1_555 1_555
H35 C23 1_555 1_555
H36 C23 1_555 1_555
C24 C23 1_555 1_555
C25 N1 1_555 1_555
C26 N3 1_555 1_555
C27 N5 1_555 1_555
C28 C29 1_555 1_555
C29 H37 1_555 1_555
C30 C29 1_555 1_555
H38 C30 1_555 1_555
C31 C30 1_555 1_555
H39 C31 1_555 1_555
C32 C31 1_555 1_555
H40 C32 1_555 1_555
C33 C28 1_555 1_555
H41 C33 1_555 1_555
C34 C35 1_555 1_555
C35 H42 1_555 1_555
C36 C35 1_555 1_555
H43 C36 1_555 1_555
C37 C36 1_555 1_555
H44 C37 1_555 1_555
C38 C37 1_555 1_555
H45 C38 1_555 1_555
C39 C34 1_555 1_555
H46 C39 1_555 1_555
C40 C41 1_555 1_555
C41 H47 1_555 1_555
C42 C41 1_555 1_555
H48 C42 1_555 1_555
C43 C42 1_555 1_555
H49 C43 1_555 1_555
C44 C43 1_555 1_555
H50 C44 1_555 1_555
C45 C40 1_555 1_555
H51 C45 1_555 1_555
C46 H52 1_555 1_555
H53 C46 1_555 1_555
C47 C46 1_555 1_555
H54 C47 1_555 1_555
C48 C47 1_555 1_555
H55 C48 1_555 1_555
H56 C48 1_555 1_555
N1 C3 1_555 1_555
H57 N1 1_555 1_555
N2 C25 1_555 1_555
H58 N2 1_555 1_555
N3 C7 1_555 1_555
H59 N3 1_555 1_555
N4 C26 1_555 1_555
H60 N4 1_555 1_555
N5 C12 1_555 1_555
H61 N5 1_555 1_555
N6 C27 1_555 1_555
H62 N6 1_555 1_555
O1 C24 1_555 1_555
O2 C24 1_555 1_555
O3 C25 1_555 1_555
O4 C26 1_555 1_555
O5 C27 1_555 1_555
O6 H68 1_555 1_555
H69 O6 1_555 1_555
C5 C9 1_555 1_555
C9 C10 1_555 1_555
C13 C14 1_555 1_555
C16 C17 1_555 1_555
C28 N2 1_555 1_555
C32 C33 1_555 1_555
C34 N4 1_555 1_555
C38 C39 1_555 1_555
C40 N6 1_555 1_555
C44 C45 1_555 1_555
C46 O2 1_555 1_555

#END
