
#######################################################################
#
#                 Cambridge Crystallographic Data Centre
#                                CCDC 
#
#######################################################################
#
# If this CIF has been generated from an entry in the Cambridge 
# Structural Database, then it will include bibliographic, chemical, 
# crystal, experimental, refinement or atomic coordinate data resulting 
# from the CCDC's data processing and validation procedures.
#
#######################################################################

data_SIMSEN
_chemical_formula_moiety         'C27 H34 N1 O2 1+,Cl1 1-'
_chemical_name_systematic        
'(R)-1-(2-Hydroxy-5-methylphenyl)-N-((S)-1-(2-methoxy-5-methylphenyl)-2-phenylethyl)butan-1-aminium chloride'
_symmetry_cell_setting           orthorhombic
_symmetry_space_group_name_H-M   'P 21 21 21'
_symmetry_Int_Tables_number      19
_space_group_name_Hall           'P 2ac 2ab'
loop_
_symmetry_equiv_pos_site_id
_symmetry_equiv_pos_as_xyz
1 x,y,z
2 1/2-x,-y,1/2+z
3 -x,1/2+y,1/2-z
4 1/2+x,1/2-y,-z
_cell_length_a                   9.8553(14)
_cell_length_b                   13.1962(19)
_cell_length_c                   18.825(3)
_cell_angle_alpha                90
_cell_angle_beta                 90
_cell_angle_gamma                90
_cell_volume                     2448.24
_exptl_crystal_colour            colorless
_exptl_crystal_description       block
_chemical_melting_point          '492-494 K'
_cell_formula_units_Z            4
_exptl_crystal_recrystallization_method ethanol/hexane
loop_
_atom_site_label
_atom_site_type_symbol
_atom_site_fract_x
_atom_site_fract_y
_atom_site_fract_z
C1 C 0.5112(3) 0.44927(19) 0.38399(13)
H1 H 0.5257 0.5105 0.3608
C2 C 0.4101(3) 0.3849(2) 0.36021(17)
H2 H 0.3591 0.4024 0.3205
C3 C 0.3847(3) 0.2961(2) 0.39456(19)
H3 H 0.3159 0.2534 0.3790
C4 C 0.4607(3) 0.2709(2) 0.45149(17)
H4 H 0.4437 0.2103 0.4751
C5 C 0.5633(3) 0.33371(18) 0.47519(14)
H5 H 0.6147 0.3148 0.5144
C6 C 0.5905(2) 0.42420(15) 0.44130(11)
C7 C 0.6996(2) 0.49521(16) 0.46668(12)
H6 H 0.7391 0.5302 0.4264
H7 H 0.7709 0.4568 0.4899
C8 C 0.6407(2) 0.57302(14) 0.51898(11)
H8 H 0.5527 0.5943 0.4999
C9 C 0.6151(2) 0.53212(14) 0.59232(10)
C10 C 0.4840(2) 0.52856(15) 0.61839(12)
H9 H 0.4132 0.5502 0.5895
C11 C 0.4545(2) 0.49376(16) 0.68641(13)
C12 C 0.5602(2) 0.45930(17) 0.72691(13)
H10 H 0.5424 0.4340 0.7721
C13 C 0.6923(2) 0.46093(17) 0.70283(12)
H11 H 0.7621 0.4364 0.7313
C14 C 0.72006(19) 0.49929(14) 0.63609(11)
C15 C 0.3097(3) 0.4976(2) 0.71320(18)
H12 H 0.2549 0.4512 0.6864
H13 H 0.2748 0.5651 0.7077
H14 H 0.3076 0.4790 0.7625
C16 C 0.9601(2) 0.4959(2) 0.65607(15)
H15 H 0.9458 0.5351 0.6984
H16 H 1.0424 0.5175 0.6334
H17 H 0.9671 0.4254 0.6683
C17 C 0.6689(2) 0.75214(14) 0.56655(10)
H18 H 0.5706 0.7415 0.5681
C18 C 0.6927(3) 0.85349(15) 0.53024(12)
H19 H 0.7893 0.8674 0.5290
H20 H 0.6606 0.8497 0.4816
C19 C 0.6206(3) 0.93971(18) 0.56818(15)
H21 H 0.5263 0.9212 0.5754
H22 H 0.6614 0.9491 0.6146
C20 C 0.6263(4) 1.0368(2) 0.52876(17)
H23 H 0.7188 1.0517 0.5166
H24 H 0.5906 1.0901 0.5579
H25 H 0.5733 1.0313 0.4861
C21 C 0.71962(19) 0.74655(13) 0.64187(10)
C22 C 0.6296(2) 0.73690(15) 0.69791(11)
H26 H 0.5371 0.7343 0.6882
C23 C 0.6720(3) 0.73095(17) 0.76779(12)
C24 C 0.5724(3) 0.7149(2) 0.82768(14)
H27 H 0.4818 0.7261 0.8106
H28 H 0.5917 0.7617 0.8654
H29 H 0.5803 0.6468 0.8451
C25 C 0.8098(3) 0.73871(18) 0.78093(12)
H30 H 0.8408 0.7364 0.8276
C26 C 0.9023(2) 0.74980(17) 0.72650(12)
H31 H 0.9943 0.7556 0.7367
C27 C 0.85830(19) 0.75234(15) 0.65706(10)
N1 N 0.72890(17) 0.66615(12) 0.52202(8)
H32 H 0.7427 0.6888 0.4775
H33 H 0.8102 0.6490 0.5402
O1 O 0.94600(13) 0.75705(13) 0.60056(7)
H34 H 1.0242 0.7609 0.6152
O2 O 0.84902(14) 0.51013(12) 0.60891(8)
Cl1 Cl 0.24550(5) 0.77487(5) 0.63820(3)
loop_
_geom_bond_atom_site_label_1
_geom_bond_atom_site_label_2
_geom_bond_site_symmetry_1
_geom_bond_site_symmetry_2
C1 H1 1_555 1_555
C2 C1 1_555 1_555
H2 C2 1_555 1_555
C3 C2 1_555 1_555
H3 C3 1_555 1_555
C4 C3 1_555 1_555
H4 C4 1_555 1_555
C5 C4 1_555 1_555
H5 C5 1_555 1_555
C6 C1 1_555 1_555
C7 C6 1_555 1_555
H6 C7 1_555 1_555
H7 C7 1_555 1_555
C8 C7 1_555 1_555
H8 C8 1_555 1_555
C9 C8 1_555 1_555
C10 C9 1_555 1_555
H9 C10 1_555 1_555
C11 C10 1_555 1_555
C12 C11 1_555 1_555
H10 C12 1_555 1_555
C13 C12 1_555 1_555
H11 C13 1_555 1_555
C14 C9 1_555 1_555
C15 C11 1_555 1_555
H12 C15 1_555 1_555
H13 C15 1_555 1_555
H14 C15 1_555 1_555
C16 H15 1_555 1_555
H16 C16 1_555 1_555
H17 C16 1_555 1_555
C17 H18 1_555 1_555
C18 C17 1_555 1_555
H19 C18 1_555 1_555
H20 C18 1_555 1_555
C19 C18 1_555 1_555
H21 C19 1_555 1_555
H22 C19 1_555 1_555
C20 C19 1_555 1_555
H23 C20 1_555 1_555
H24 C20 1_555 1_555
H25 C20 1_555 1_555
C21 C17 1_555 1_555
C22 C21 1_555 1_555
H26 C22 1_555 1_555
C23 C22 1_555 1_555
C24 C23 1_555 1_555
H27 C24 1_555 1_555
H28 C24 1_555 1_555
H29 C24 1_555 1_555
C25 C23 1_555 1_555
H30 C25 1_555 1_555
C26 C25 1_555 1_555
H31 C26 1_555 1_555
C27 C21 1_555 1_555
N1 C8 1_555 1_555
H32 N1 1_555 1_555
H33 N1 1_555 1_555
O1 C27 1_555 1_555
H34 O1 1_555 1_555
O2 C14 1_555 1_555
C5 C6 1_555 1_555
C13 C14 1_555 1_555
C16 O2 1_555 1_555
C17 N1 1_555 1_555
C26 C27 1_555 1_555

#END
