
#######################################################################
#
#                 Cambridge Crystallographic Data Centre
#                                CCDC 
#
#######################################################################
#
# If this CIF has been generated from an entry in the Cambridge 
# Structural Database, then it will include bibliographic, chemical, 
# crystal, experimental, refinement or atomic coordinate data resulting 
# from the CCDC's data processing and validation procedures.
#
#######################################################################

data_SIMSIR02
_chemical_formula_moiety         'C14 H11 O3 1-,C5 H7 N2 1+'
_chemical_name_systematic        '2-aminopyridin-1-ium hydroxy(diphenyl)acetate'
_symmetry_cell_setting           monoclinic
_symmetry_space_group_name_H-M   'P 21/c'
_symmetry_Int_Tables_number      14
_space_group_name_Hall           '-P 2ybc'
loop_
_symmetry_equiv_pos_site_id
_symmetry_equiv_pos_as_xyz
1 x,y,z
2 -x,1/2+y,1/2-z
3 -x,-y,-z
4 x,1/2-y,1/2+z
_cell_length_a                   10.0162(10)
_cell_length_b                   14.3681(13)
_cell_length_c                   11.9381(11)
_cell_angle_alpha                90
_cell_angle_beta                 104.645(3)
_cell_angle_gamma                90
_cell_volume                     1662.24
_exptl_crystal_colour            colorless
_exptl_crystal_description       block
_cell_formula_units_Z            4
loop_
_atom_site_label
_atom_site_type_symbol
_atom_site_fract_x
_atom_site_fract_y
_atom_site_fract_z
N1 N 0.35164(13) -0.10231(9) -0.09997(11)
H1 H 0.2982 -0.0727 -0.0662
H2 H 0.4382 -0.0892 -0.0840
N2 N 0.16559(12) -0.18792(9) -0.20092(11)
H3 H 0.1146 -0.1578 -0.1652
C1 C 0.30083(14) -0.16795(9) -0.17654(12)
C2 C 0.38172(16) -0.21944(11) -0.23529(13)
H4 H 0.4761 -0.2086 -0.2205
C3 C 0.32119(18) -0.28486(12) -0.31356(14)
H5 H 0.3750 -0.3186 -0.3523
C4 C 0.10547(17) -0.25375(12) -0.27967(15)
H6 H 0.0112 -0.2648 -0.2935
C5 C 0.17995(19) -0.30260(12) -0.33723(15)
H7 H 0.1389 -0.3472 -0.3915
O1 O 0.03412(9) 0.10410(7) 0.11859(8)
H8 H 0.0003 0.0525 0.1014
O2 O 0.17172(10) 0.00080(7) 0.00738(9)
O3 O 0.37394(10) 0.05941(8) 0.10052(10)
C6 C 0.24882(13) 0.04833(9) 0.08539(11)
C7 C 0.22933(13) 0.19400(9) 0.20037(12)
C8 C 0.17743(13) 0.09470(9) 0.17311(11)
C9 C 0.19971(16) 0.03104(10) 0.27868(12)
C10 C 0.28285(16) 0.22737(12) 0.31097(13)
H9 H 0.2932 0.1876 0.3740
C11 C 0.21721(19) 0.25528(11) 0.10855(15)
H10 H 0.1809 0.2342 0.0333
C12 C 0.3300(2) 0.00035(13) 0.33500(15)
H11 H 0.4062 0.0205 0.3105
C13 C 0.0888(2) 0.00008(12) 0.31807(17)
H12 H 0.0002 0.0199 0.2813
C14 C 0.2580(2) 0.34687(12) 0.1268(2)
H13 H 0.2503 0.3866 0.0640
C15 C 0.3216(2) 0.32060(14) 0.32864(18)
H14 H 0.3557 0.3428 0.4036
C16 C 0.3096(2) 0.37941(13) 0.2368(2)
H15 H 0.3365 0.4413 0.2490
C17 C 0.2359(3) -0.09004(15) 0.46525(19)
H16 H 0.2479 -0.1308 0.5275
C18 C 0.1080(3) -0.05981(16) 0.4111(2)
H17 H 0.0324 -0.0795 0.4368
C19 C 0.3480(3) -0.06055(15) 0.42816(18)
H18 H 0.4359 -0.0813 0.4654
loop_
_geom_bond_atom_site_label_1
_geom_bond_atom_site_label_2
_geom_bond_site_symmetry_1
_geom_bond_site_symmetry_2
N1 H1 1_555 1_555
H2 N1 1_555 1_555
N2 H3 1_555 1_555
C1 N1 1_555 1_555
C2 C1 1_555 1_555
H4 C2 1_555 1_555
C3 C2 1_555 1_555
H5 C3 1_555 1_555
C4 N2 1_555 1_555
H6 C4 1_555 1_555
C5 C3 1_555 1_555
H7 C5 1_555 1_555
O1 H8 1_555 1_555
O2 C6 1_555 1_555
O3 C6 1_555 1_555
C6 C8 1_555 1_555
C7 C8 1_555 1_555
C8 O1 1_555 1_555
C9 C8 1_555 1_555
C10 C7 1_555 1_555
H9 C10 1_555 1_555
C11 C7 1_555 1_555
H10 C11 1_555 1_555
C12 C9 1_555 1_555
H11 C12 1_555 1_555
C13 C9 1_555 1_555
H12 C13 1_555 1_555
C14 C11 1_555 1_555
H13 C14 1_555 1_555
C15 C10 1_555 1_555
H14 C15 1_555 1_555
C16 C14 1_555 1_555
H15 C16 1_555 1_555
C17 H16 1_555 1_555
C18 C13 1_555 1_555
H17 C18 1_555 1_555
C19 C12 1_555 1_555
H18 C19 1_555 1_555
N2 C1 1_555 1_555
C4 C5 1_555 1_555
C15 C16 1_555 1_555
C17 C18 1_555 1_555
C17 C19 1_555 1_555

#END
