
#######################################################################
#
#                 Cambridge Crystallographic Data Centre
#                                CCDC 
#
#######################################################################
#
# If this CIF has been generated from an entry in the Cambridge 
# Structural Database, then it will include bibliographic, chemical, 
# crystal, experimental, refinement or atomic coordinate data resulting 
# from the CCDC's data processing and validation procedures.
#
#######################################################################

data_SIMVEQ
_chemical_formula_moiety         'C14 H5 F4 N1 O3'
_chemical_name_systematic        
4,5,6,7-Tetrafluoro-2-(2-hydroxyphenyl)isoindoline-1,3-dione
_symmetry_cell_setting           orthorhombic
_symmetry_space_group_name_H-M   'P 21 21 21'
_symmetry_Int_Tables_number      19
_space_group_name_Hall           'P 2ac 2ab'
loop_
_symmetry_equiv_pos_site_id
_symmetry_equiv_pos_as_xyz
1 x,y,z
2 1/2-x,-y,1/2+z
3 -x,1/2+y,1/2-z
4 1/2+x,1/2-y,-z
_cell_length_a                   7.1741(14)
_cell_length_b                   8.5862(17)
_cell_length_c                   19.994(4)
_cell_angle_alpha                90
_cell_angle_beta                 90
_cell_angle_gamma                90
_cell_volume                     1231.6
_exptl_crystal_colour            'pale yellow'
_exptl_crystal_description       block
_chemical_melting_point          '526-527 K'
_cell_formula_units_Z            4
_exptl_crystal_recrystallization_method acetone
loop_
_atom_site_label
_atom_site_type_symbol
_atom_site_fract_x
_atom_site_fract_y
_atom_site_fract_z
O1 O -0.1913(2) 0.8342(2) 1.01130(8)
C1 C 0.2077(3) 0.9716(2) 0.93266(10)
O2 O 0.30879(19) 0.9848(2) 0.88482(7)
C2 C 0.2369(3) 1.0283(2) 1.00242(10)
C3 C 0.3795(3) 1.1116(3) 1.02994(11)
C4 C 0.3656(3) 1.1581(3) 1.09631(12)
C5 C 0.2105(4) 1.1218(3) 1.13324(11)
C6 C 0.0671(3) 1.0354(3) 1.10543(11)
C7 C 0.0816(3) 0.9886(2) 1.04006(10)
C8 C -0.0482(3) 0.8983(2) 0.99679(10)
C9 C -0.0515(3) 0.8314(3) 0.87496(10)
C10 C 0.0392(3) 0.7145(3) 0.84035(11)
H1 H 0.1556 0.6800 0.8544
C11 C -0.0441(4) 0.6494(3) 0.78494(12)
H2 H 0.0171 0.5718 0.7610
C12 C -0.2181(4) 0.6990(3) 0.76485(12)
H3 H -0.2748 0.6536 0.7278
C13 C -0.3084(4) 0.8156(3) 0.79935(11)
H4 H -0.4260 0.8482 0.7857
C14 C -0.2247(3) 0.8843(3) 0.85420(10)
F1 F 0.53099(17) 1.15288(17) 0.99578(7)
F2 F 0.5037(2) 1.23938(19) 1.12395(8)
F3 F 0.1976(3) 1.17079(19) 1.19626(7)
F4 F -0.0821(2) 1.0039(2) 1.14282(7)
N1 N 0.0331(2) 0.9009(2) 0.93265(8)
O3 O -0.3012(2) 1.0052(2) 0.88828(9)
H5 H -0.4151 1.0014 0.8851
loop_
_geom_bond_atom_site_label_1
_geom_bond_atom_site_label_2
_geom_bond_site_symmetry_1
_geom_bond_site_symmetry_2
O1 C8 1_555 1_555
C1 O2 1_555 1_555
C2 C1 1_555 1_555
C3 C2 1_555 1_555
C4 C3 1_555 1_555
C5 C4 1_555 1_555
C6 C5 1_555 1_555
C7 C2 1_555 1_555
C8 C7 1_555 1_555
C9 C10 1_555 1_555
C10 H1 1_555 1_555
C11 C10 1_555 1_555
H2 C11 1_555 1_555
C12 C11 1_555 1_555
H3 C12 1_555 1_555
C13 C12 1_555 1_555
H4 C13 1_555 1_555
C14 C9 1_555 1_555
F1 C3 1_555 1_555
F2 C4 1_555 1_555
F3 C5 1_555 1_555
F4 C6 1_555 1_555
N1 C1 1_555 1_555
O3 C14 1_555 1_555
H5 O3 1_555 1_555
C6 C7 1_555 1_555
C8 N1 1_555 1_555
C9 N1 1_555 1_555
C13 C14 1_555 1_555

#END
