
#######################################################################
#
#                 Cambridge Crystallographic Data Centre
#                                CCDC 
#
#######################################################################
#
# If this CIF has been generated from an entry in the Cambridge 
# Structural Database, then it will include bibliographic, chemical, 
# crystal, experimental, refinement or atomic coordinate data resulting 
# from the CCDC's data processing and validation procedures.
#
#######################################################################

data_SIMVIV
_chemical_formula_moiety         'C31 H41 Br1 N2 O1 Si2'
_chemical_name_systematic        
2-(4-bromophenyl)-5-(tert-butyl(dimethyl)silyl)-4-((tert-butyl(dimethyl)silyl)ethynyl)-6-(4-methoxyphenyl)pyrimidine
_symmetry_cell_setting           monoclinic
_symmetry_space_group_name_H-M   'P 21/n'
_symmetry_Int_Tables_number      14
_space_group_name_Hall           '-P 2yn'
loop_
_symmetry_equiv_pos_site_id
_symmetry_equiv_pos_as_xyz
1 x,y,z
2 1/2-x,1/2+y,1/2-z
3 -x,-y,-z
4 1/2+x,1/2-y,1/2+z
_cell_length_a                   10.0497(10)
_cell_length_b                   28.013(3)
_cell_length_c                   12.5855(11)
_cell_angle_alpha                90
_cell_angle_beta                 111.802(2)
_cell_angle_gamma                90
_cell_volume                     3289.67
_exptl_crystal_colour            colorless
_exptl_crystal_description       prismatic
_cell_formula_units_Z            4
loop_
_atom_site_label
_atom_site_type_symbol
_atom_site_fract_x
_atom_site_fract_y
_atom_site_fract_z
Br1 Br 0.94709(12) 0.01667(3) 0.76616(10)
Si1 Si 0.9673(2) 0.40980(6) 0.66453(16)
Si2 Si 0.92239(19) 0.37365(5) 1.07292(12)
N1 N 0.9513(4) 0.22404(13) 1.0527(3)
N2 N 0.9632(4) 0.25555(13) 0.8825(3)
O1 O 0.9612(4) 0.26297(14) 1.5432(2)
C1 C 0.9568(4) 0.21978(15) 0.9493(3)
C2 C 0.9477(4) 0.26813(16) 1.0915(3)
C3 C 0.9462(5) 0.30991(15) 1.0276(3)
C4 C 0.9581(5) 0.29953(16) 0.9219(4)
C5 C 0.9629(6) 0.33626(18) 0.8423(4)
C6 C 0.9645(7) 0.3642(2) 0.7710(5)
C7 C 0.9574(5) 0.17049(16) 0.9061(4)
C8 C 0.9720(6) 0.16243(19) 0.8031(4)
H1 H 0.9848 0.1881 0.7610
C9 C 0.9679(7) 0.1168(2) 0.7619(5)
H2 H 0.9759 0.1116 0.6915
C10 C 0.9521(7) 0.0794(2) 0.8243(6)
C11 C 0.9377(9) 0.0861(2) 0.9268(7)
H3 H 0.9260 0.0602 0.9689
C12 C 0.9409(7) 0.13186(19) 0.9664(5)
H4 H 0.9316 0.1368 1.0364
C13 C 0.9450(5) 0.26858(15) 1.2095(3)
C14 C 1.0706(5) 0.2749(2) 1.3030(4)
H5 H 1.1556 0.2807 1.2918
C15 C 1.0714(5) 0.2728(2) 1.4119(4)
H6 H 1.1567 0.2776 1.4739
C16 C 0.9478(5) 0.26386(17) 1.4305(3)
C17 C 0.8221(5) 0.25805(17) 1.3392(3)
H7 H 0.7370 0.2526 1.3505
C18 C 0.8227(5) 0.26034(17) 1.2296(3)
H8 H 0.7370 0.2561 1.1676
C19 C 0.8414(7) 0.2564(2) 1.5659(4)
H9 H 0.7726 0.2807 1.5280
H10 H 0.8646 0.2584 1.6470
H11 H 0.8017 0.2256 1.5389
C20 C 0.8935(11) 0.4653(3) 0.6937(8)
H12 H 0.9459 0.4749 0.7713
H13 H 0.7945 0.4607 0.6825
H14 H 0.9010 0.4897 0.6426
C21 C 0.8641(9) 0.3895(3) 0.5194(6)
H15 H 0.8598 0.4146 0.4662
H16 H 0.7687 0.3814 0.5133
H17 H 0.9094 0.3620 0.5024
C22 C 1.1513(9) 0.4117(3) 0.6980(9)
C23 C 1.2210(9) 0.3672(3) 0.6722(8)
H18 H 1.3177 0.3744 0.6802
H19 H 1.1677 0.3568 0.5953
H20 H 1.2216 0.3423 0.7248
C24 C 1.2418(10) 0.4360(4) 0.8111(9)
H21 H 1.2429 0.4165 0.8741
H22 H 1.2011 0.4666 0.8158
H23 H 1.3380 0.4403 0.8143
C25 C 0.9725(10) 0.3814(2) 1.2311(5)
H24 H 1.0683 0.3699 1.2707
H25 H 0.9072 0.3636 1.2555
H26 H 0.9676 0.4146 1.2482
C26 C 1.0464(9) 0.4158(2) 1.0397(6)
H27 H 1.0633 0.4432 1.0888
H28 H 1.0037 0.4259 0.9613
H29 H 1.1356 0.4001 1.0518
C27 C 0.7285(8) 0.3905(2) 0.9979(6)
C28 C 0.6313(8) 0.3558(3) 1.0322(7)
H30 H 0.5334 0.3662 0.9979
H31 H 0.6599 0.3556 1.1139
H32 H 0.6401 0.3242 1.0060
C29 C 0.7030(11) 0.4413(3) 1.0323(8)
H33 H 0.7598 0.4635 1.0091
H34 H 0.7298 0.4428 1.1138
H35 H 0.6034 0.4493 0.9955
C30 C 0.6791(8) 0.3890(3) 0.8695(6)
H36 H 0.6932 0.3576 0.8456
H37 H 0.7332 0.4116 0.8445
H38 H 0.5791 0.3971 0.8366
C31 C 1.1637(15) 0.4521(5) 0.5891(12)
H39 H 1.1503 0.4843 0.6090
H40 H 1.0910 0.4442 0.5166
H41 H 1.2565 0.4490 0.5843
loop_
_geom_bond_atom_site_label_1
_geom_bond_atom_site_label_2
_geom_bond_site_symmetry_1
_geom_bond_site_symmetry_2
Br1 C10 1_555 1_555
Si1 C6 1_555 1_555
Si2 C3 1_555 1_555
N1 C1 1_555 1_555
N2 C1 1_555 1_555
O1 C16 1_555 1_555
C1 C7 1_555 1_555
C2 N1 1_555 1_555
C3 C2 1_555 1_555
C4 N2 1_555 1_555
C5 C4 1_555 1_555
C6 C5 1_555 1_555
C7 C8 1_555 1_555
C8 H1 1_555 1_555
C9 C8 1_555 1_555
H2 C9 1_555 1_555
C10 C9 1_555 1_555
C11 C10 1_555 1_555
H3 C11 1_555 1_555
C12 C7 1_555 1_555
H4 C12 1_555 1_555
C13 C2 1_555 1_555
C14 C13 1_555 1_555
H5 C14 1_555 1_555
C15 C14 1_555 1_555
H6 C15 1_555 1_555
C16 C15 1_555 1_555
C17 C16 1_555 1_555
H7 C17 1_555 1_555
C18 C13 1_555 1_555
H8 C18 1_555 1_555
C19 O1 1_555 1_555
H9 C19 1_555 1_555
H10 C19 1_555 1_555
H11 C19 1_555 1_555
C20 Si1 1_555 1_555
H12 C20 1_555 1_555
H13 C20 1_555 1_555
H14 C20 1_555 1_555
C21 Si1 1_555 1_555
H15 C21 1_555 1_555
H16 C21 1_555 1_555
H17 C21 1_555 1_555
C22 Si1 1_555 1_555
C23 C22 1_555 1_555
H18 C23 1_555 1_555
H19 C23 1_555 1_555
H20 C23 1_555 1_555
C24 C22 1_555 1_555
H21 C24 1_555 1_555
H22 C24 1_555 1_555
H23 C24 1_555 1_555
C25 Si2 1_555 1_555
H24 C25 1_555 1_555
H25 C25 1_555 1_555
H26 C25 1_555 1_555
C26 Si2 1_555 1_555
H27 C26 1_555 1_555
H28 C26 1_555 1_555
H29 C26 1_555 1_555
C27 Si2 1_555 1_555
C28 C27 1_555 1_555
H30 C28 1_555 1_555
H31 C28 1_555 1_555
H32 C28 1_555 1_555
C29 C27 1_555 1_555
H33 C29 1_555 1_555
H34 C29 1_555 1_555
H35 C29 1_555 1_555
C30 C27 1_555 1_555
H36 C30 1_555 1_555
H37 C30 1_555 1_555
H38 C30 1_555 1_555
C31 C22 1_555 1_555
H39 C31 1_555 1_555
H40 C31 1_555 1_555
H41 C31 1_555 1_555
C3 C4 1_555 1_555
C11 C12 1_555 1_555
C17 C18 1_555 1_555

#END
