
#######################################################################
#
#                 Cambridge Crystallographic Data Centre
#                                CCDC 
#
#######################################################################
#
# If this CIF has been generated from an entry in the Cambridge 
# Structural Database, then it will include bibliographic, chemical, 
# crystal, experimental, refinement or atomic coordinate data resulting 
# from the CCDC's data processing and validation procedures.
#
#######################################################################

data_SIMWIV
_chemical_formula_moiety         'C22 H28 N2 O6'
_chemical_name_systematic        
(E,E)-N,N'-bis(3,4,5-Trimethoxybenzylidene)ethylenediamine
_symmetry_cell_setting           monoclinic
_symmetry_space_group_name_H-M   'C 2/c'
_symmetry_Int_Tables_number      15
_space_group_name_Hall           '-C 2yn'
loop_
_symmetry_equiv_pos_site_id
_symmetry_equiv_pos_as_xyz
1 x,y,z
2 1/2+x,1/2+y,z
3 -x,y,1/2-z
4 1/2-x,1/2+y,1/2-z
5 -x,-y,-z
6 1/2-x,1/2-y,-z
7 x,-y,1/2+z
8 1/2+x,1/2-y,1/2+z
_cell_length_a                   32.008(8)
_cell_length_b                   4.9175(12)
_cell_length_c                   13.945(4)
_cell_angle_alpha                90
_cell_angle_beta                 95.326(4)
_cell_angle_gamma                90
_cell_volume                     2185.46
_exptl_crystal_colour            colorless
_exptl_crystal_description       block
_cell_formula_units_Z            4
loop_
_atom_site_label
_atom_site_type_symbol
_atom_site_fract_x
_atom_site_fract_y
_atom_site_fract_z
O1 O 0.13907(4) 0.4533(3) 0.20272(9)
O2 O 0.20178(3) 0.1274(2) 0.15836(8)
O3 O 0.19633(3) -0.1625(3) -0.00262(8)
N1 N 0.04056(5) -0.0432(4) -0.14559(12)
C1 C -0.00111(6) -0.0261(6) -0.19801(15)
H1 H -0.0179 -0.1793 -0.1805
H2 H -0.0148 0.1391 -0.1795
C2 C 0.04917(5) 0.1186(5) -0.07681(14)
H3 H 0.0286 0.2422 -0.0625
C3 C 0.08967(5) 0.1253(4) -0.01738(12)
C4 C 0.09424(5) 0.2955(4) 0.06202(12)
H4 H 0.0722 0.4075 0.0758
C5 C 0.13159(5) 0.2998(4) 0.12105(12)
C6 C 0.16516(5) 0.1380(4) 0.09854(11)
C7 C 0.16099(5) -0.0248(3) 0.01564(12)
C8 C 0.12310(5) -0.0372(4) -0.04093(12)
H5 H 0.1199 -0.1524 -0.0940
C9 C 0.10634(6) 0.6251(5) 0.22895(15)
H6 H 0.0980 0.7463 0.1767
H7 H 0.1161 0.7290 0.2849
H8 H 0.0828 0.5163 0.2430
C10 C 0.22852(6) 0.3588(4) 0.15304(15)
H9 H 0.2379 0.3699 0.0898
H10 H 0.2523 0.3411 0.1999
H11 H 0.2133 0.5208 0.1659
C11 C 0.19456(6) -0.3240(4) -0.08760(14)
H12 H 0.1744 -0.4673 -0.0834
H13 H 0.2217 -0.4013 -0.0941
H14 H 0.1863 -0.2124 -0.1426
O1B O -0.13907(4) 0.4533(3) -0.70272(9)
O2B O -0.20178(3) 0.1274(2) -0.65836(8)
O3B O -0.19633(3) -0.1625(3) -0.49738(8)
N1B N -0.04056(5) -0.0432(4) -0.35441(12)
C1B C 0.00111(6) -0.0261(6) -0.30199(15)
H1B H 0.0179 -0.1793 -0.3195
H2B H 0.0148 0.1391 -0.3205
C2B C -0.04917(5) 0.1186(5) -0.42319(14)
H3B H -0.0286 0.2422 -0.4375
C3B C -0.08967(5) 0.1253(4) -0.48262(12)
C4B C -0.09424(5) 0.2955(4) -0.56202(12)
H4B H -0.0722 0.4075 -0.5758
C5B C -0.13159(5) 0.2998(4) -0.62105(12)
C6B C -0.16516(5) 0.1380(4) -0.59854(11)
C7B C -0.16099(5) -0.0248(3) -0.51564(12)
C8B C -0.12310(5) -0.0372(4) -0.45907(12)
H5B H -0.1199 -0.1524 -0.4060
C9B C -0.10634(6) 0.6251(5) -0.72895(15)
H6B H -0.0980 0.7463 -0.6767
H7B H -0.1161 0.7290 -0.7849
H8B H -0.0828 0.5163 -0.7430
C10B C -0.22852(6) 0.3588(4) -0.65304(15)
H9B H -0.2379 0.3699 -0.5898
H10B H -0.2523 0.3411 -0.6999
H11B H -0.2133 0.5208 -0.6659
C11B C -0.19456(6) -0.3240(4) -0.41240(14)
H12B H -0.1744 -0.4673 -0.4166
H13B H -0.2217 -0.4013 -0.4059
H14B H -0.1863 -0.2124 -0.3574
loop_
_geom_bond_atom_site_label_1
_geom_bond_atom_site_label_2
_geom_bond_site_symmetry_1
_geom_bond_site_symmetry_2
O1 C5 1_555 1_555
O2 C6 1_555 1_555
O3 C7 1_555 1_555
N1 C1 1_555 1_555
C1 H1 1_555 1_555
H2 C1 1_555 1_555
C2 N1 1_555 1_555
H3 C2 1_555 1_555
C3 C2 1_555 1_555
C4 C3 1_555 1_555
H4 C4 1_555 1_555
C5 C4 1_555 1_555
C6 C5 1_555 1_555
C7 C6 1_555 1_555
C8 C3 1_555 1_555
H5 C8 1_555 1_555
C9 O1 1_555 1_555
H6 C9 1_555 1_555
H7 C9 1_555 1_555
H8 C9 1_555 1_555
C10 O2 1_555 1_555
H9 C10 1_555 1_555
H10 C10 1_555 1_555
H11 C10 1_555 1_555
C11 O3 1_555 1_555
H12 C11 1_555 1_555
H13 C11 1_555 1_555
H14 C11 1_555 1_555
O1B C5B 1_555 1_555
O2B C6B 1_555 1_555
O3B C7B 1_555 1_555
N1B C1B 1_555 1_555
C1B C1 1_555 1_555
H1B C1B 1_555 1_555
H2B C1B 1_555 1_555
C2B N1B 1_555 1_555
H3B C2B 1_555 1_555
C3B C2B 1_555 1_555
C4B C3B 1_555 1_555
H4B C4B 1_555 1_555
C5B C4B 1_555 1_555
C6B C5B 1_555 1_555
C7B C6B 1_555 1_555
C8B C3B 1_555 1_555
H5B C8B 1_555 1_555
C9B O1B 1_555 1_555
H6B C9B 1_555 1_555
H7B C9B 1_555 1_555
H8B C9B 1_555 1_555
C10B O2B 1_555 1_555
H9B C10B 1_555 1_555
H10B C10B 1_555 1_555
H11B C10B 1_555 1_555
C11B O3B 1_555 1_555
H12B C11B 1_555 1_555
H13B C11B 1_555 1_555
H14B C11B 1_555 1_555
C7 C8 1_555 1_555
C7B C8B 1_555 1_555

#END
