
#######################################################################
#
#                 Cambridge Crystallographic Data Centre
#                                CCDC 
#
#######################################################################
#
# If this CIF has been generated from an entry in the Cambridge 
# Structural Database, then it will include bibliographic, chemical, 
# crystal, experimental, refinement or atomic coordinate data resulting 
# from the CCDC's data processing and validation procedures.
#
#######################################################################

data_SIMWUJ
_chemical_formula_moiety         'C23 H28 O2,C6 H14 O1'
_chemical_name_systematic        
"3,3,3',3',5,5'-hexamethyl-2,2',3,3'-tetrahydro-1,1'-spirobi[indene]-6,6'-diol diisopropyl ether solvate"
_symmetry_cell_setting           monoclinic
_symmetry_space_group_name_H-M   'P 21'
_symmetry_Int_Tables_number      4
_space_group_name_Hall           'P 2yb'
loop_
_symmetry_equiv_pos_site_id
_symmetry_equiv_pos_as_xyz
1 x,y,z
2 -x,1/2+y,-z
_cell_length_a                   10.8110(4)
_cell_length_b                   11.3987(3)
_cell_length_c                   11.7982(4)
_cell_angle_alpha                90
_cell_angle_beta                 104.616(4)
_cell_angle_gamma                90
_cell_volume                     1406.86
_exptl_crystal_colour            colorless
_exptl_crystal_description       block
_cell_formula_units_Z            2
loop_
_atom_site_label
_atom_site_type_symbol
_atom_site_fract_x
_atom_site_fract_y
_atom_site_fract_z
O1 O -0.04726(16) 1.06850(16) 0.10650(14)
H1 H 0.025(2) 1.078(3) 0.088(3)
O2 O 0.2564(2) 0.5320(2) 0.09114(16)
H2 H 0.1809 0.5446 0.0597
C1 C 0.0672(2) 0.93433(18) 0.25276(18)
H3 H 0.1400 0.9426 0.2251
C2 C -0.04238(19) 0.99662(18) 0.20155(17)
C3 C -0.1523(2) 0.9884(2) 0.24348(18)
C4 C -0.1484(2) 0.9127(2) 0.33654(19)
H4 H -0.2202 0.9060 0.3660
C5 C -0.0409(2) 0.84700(19) 0.38673(17)
C6 C 0.06798(18) 0.85973(18) 0.34536(16)
C7 C 0.1786(2) 0.7869(2) 0.41418(18)
C8 C 0.1082(3) 0.7018(2) 0.4803(2)
H5 H 0.0909 0.6279 0.4386
H6 H 0.1612 0.6863 0.5584
C9 C -0.0191(2) 0.7602(2) 0.4881(2)
C10 C -0.2696(2) 1.0591(3) 0.1896(2)
H7 H -0.3016 1.0369 0.1090
H8 H -0.2483 1.1410 0.1942
H9 H -0.3338 1.0446 0.2312
C11 C -0.1254(3) 0.6694(3) 0.4733(3)
H10 H -0.2035 0.7076 0.4766
H11 H -0.1029 0.6124 0.5350
H12 H -0.1367 0.6310 0.3990
C12 C -0.0051(3) 0.8247(3) 0.6046(2)
H13 H 0.0658 0.8779 0.6169
H14 H 0.0095 0.7687 0.6674
H15 H -0.0820 0.8678 0.6024
C13 C 0.2847(2) 0.8636(3) 0.4938(2)
H16 H 0.2779 0.9437 0.4652
H17 H 0.2744 0.8641 0.5731
C14 C 0.4148(2) 0.8138(2) 0.4933(2)
C15 C 0.3846(2) 0.73789(19) 0.38518(19)
C16 C 0.25433(19) 0.72288(17) 0.34117(17)
C17 C 0.2086(2) 0.65523(19) 0.24228(18)
H18 H 0.1210 0.6459 0.2117
C18 C 0.2945(2) 0.6013(2) 0.18896(19)
C19 C 0.4256(2) 0.6143(2) 0.2330(2)
C20 C 0.4685(2) 0.6839(2) 0.3310(2)
H19 H 0.5559 0.6946 0.3610
C21 C 0.5176(4) 0.9035(4) 0.4944(5)
H20 H 0.5927 0.8648 0.4837
H21 H 0.5378 0.9440 0.5681
H22 H 0.4877 0.9587 0.4321
C22 C 0.4635(4) 0.7337(4) 0.6039(3)
H23 H 0.3976 0.6791 0.6093
H24 H 0.4845 0.7816 0.6730
H25 H 0.5380 0.6914 0.5970
C23 C 0.5168(3) 0.5543(4) 0.1735(3)
H26 H 0.5051 0.5853 0.0959
H27 H 0.5000 0.4715 0.1692
H28 H 0.6031 0.5680 0.2177
O3 O 0.18378(16) 1.06161(17) 0.04646(15)
C24 C 0.2271(5) 1.2307(4) 0.1680(4)
H29 H 0.1374 1.2474 0.1533
H30 H 0.2746 1.3027 0.1827
H31 H 0.2526 1.1803 0.2350
C25 C 0.2538(3) 1.1696(3) 0.0606(4)
H32 H 0.3454 1.1530 0.0752
C26 C 0.2114(6) 1.2451(4) -0.0481(4)
H33 H 0.2173 1.2006 -0.1156
H34 H 0.2656 1.3129 -0.0408
H35 H 0.1246 1.2696 -0.0567
C27 C 0.2267(3) 0.9703(3) -0.0177(3)
H36 H 0.2508 1.0041 -0.0854
C28 C 0.3391(5) 0.9062(4) 0.0577(5)
H37 H 0.4076 0.9605 0.0867
H38 H 0.3669 0.8466 0.0122
H39 H 0.3146 0.8705 0.1225
C29 C 0.1145(5) 0.8889(4) -0.0596(4)
H40 H 0.0919 0.8545 0.0068
H41 H 0.1371 0.8280 -0.1068
H42 H 0.0431 0.9323 -0.1052
loop_
_geom_bond_atom_site_label_1
_geom_bond_atom_site_label_2
_geom_bond_site_symmetry_1
_geom_bond_site_symmetry_2
O1 H1 1_555 1_555
O2 H2 1_555 1_555
C1 H3 1_555 1_555
C2 O1 1_555 1_555
C3 C2 1_555 1_555
C4 C3 1_555 1_555
H4 C4 1_555 1_555
C5 C4 1_555 1_555
C6 C1 1_555 1_555
C7 C6 1_555 1_555
C8 C7 1_555 1_555
H5 C8 1_555 1_555
H6 C8 1_555 1_555
C9 C5 1_555 1_555
C10 C3 1_555 1_555
H7 C10 1_555 1_555
H8 C10 1_555 1_555
H9 C10 1_555 1_555
C11 C9 1_555 1_555
H10 C11 1_555 1_555
H11 C11 1_555 1_555
H12 C11 1_555 1_555
C12 C9 1_555 1_555
H13 C12 1_555 1_555
H14 C12 1_555 1_555
H15 C12 1_555 1_555
C13 C7 1_555 1_555
H16 C13 1_555 1_555
H17 C13 1_555 1_555
C14 C13 1_555 1_555
C15 C14 1_555 1_555
C16 C7 1_555 1_555
C17 C16 1_555 1_555
H18 C17 1_555 1_555
C18 O2 1_555 1_555
C19 C18 1_555 1_555
C20 C15 1_555 1_555
H19 C20 1_555 1_555
C21 C14 1_555 1_555
H20 C21 1_555 1_555
H21 C21 1_555 1_555
H22 C21 1_555 1_555
C22 C14 1_555 1_555
H23 C22 1_555 1_555
H24 C22 1_555 1_555
H25 C22 1_555 1_555
C23 C19 1_555 1_555
H26 C23 1_555 1_555
H27 C23 1_555 1_555
H28 C23 1_555 1_555
O3 C25 1_555 1_555
C24 H29 1_555 1_555
H30 C24 1_555 1_555
H31 C24 1_555 1_555
C25 C24 1_555 1_555
H32 C25 1_555 1_555
C26 C25 1_555 1_555
H33 C26 1_555 1_555
H34 C26 1_555 1_555
H35 C26 1_555 1_555
C27 O3 1_555 1_555
H36 C27 1_555 1_555
C28 C27 1_555 1_555
H37 C28 1_555 1_555
H38 C28 1_555 1_555
H39 C28 1_555 1_555
C29 C27 1_555 1_555
H40 C29 1_555 1_555
H41 C29 1_555 1_555
H42 C29 1_555 1_555
C1 C2 1_555 1_555
C5 C6 1_555 1_555
C8 C9 1_555 1_555
C15 C16 1_555 1_555
C17 C18 1_555 1_555
C19 C20 1_555 1_555

#END
