
#######################################################################
#
#                 Cambridge Crystallographic Data Centre
#                                CCDC 
#
#######################################################################
#
# If this CIF has been generated from an entry in the Cambridge 
# Structural Database, then it will include bibliographic, chemical, 
# crystal, experimental, refinement or atomic coordinate data resulting 
# from the CCDC's data processing and validation procedures.
#
#######################################################################

data_SIMWET
_chemical_formula_moiety         'C16 H22 Br1 N2 1+,B1 F4 1-'
_chemical_name_systematic        
'bis(2,4,6-trimethylpyridine)bromanium tetrafluoroborate'
_symmetry_cell_setting           monoclinic
_symmetry_space_group_name_H-M   'C 2/c'
_symmetry_Int_Tables_number      15
_space_group_name_Hall           '-C 2yn'
loop_
_symmetry_equiv_pos_site_id
_symmetry_equiv_pos_as_xyz
1 x,y,z
2 1/2+x,1/2+y,z
3 -x,y,1/2-z
4 1/2-x,1/2+y,1/2-z
5 -x,-y,-z
6 1/2-x,1/2-y,-z
7 x,-y,1/2+z
8 1/2+x,1/2-y,1/2+z
_cell_length_a                   29.0149(3)
_cell_length_b                   8.50144(7)
_cell_length_c                   15.54176(17)
_cell_angle_alpha                90
_cell_angle_beta                 100.7977(10)
_cell_angle_gamma                90
_cell_volume                     3765.79
_exptl_crystal_colour            colorless
_exptl_crystal_description       block
_cell_formula_units_Z            8
loop_
_atom_site_label
_atom_site_type_symbol
_atom_site_fract_x
_atom_site_fract_y
_atom_site_fract_z
Br1 Br 0.7500 0.2500 0.5000
N1 N 0.74710(6) 0.0212(2) 0.44437(11)
C1 C 0.78667(8) -0.0638(3) 0.44893(14)
C2 C 0.78509(9) -0.2059(3) 0.40556(17)
C3 C 0.74408(10) -0.2615(3) 0.35668(17)
C4 C 0.70434(9) -0.1723(3) 0.35489(16)
C5 C 0.70562(8) -0.0323(3) 0.39984(15)
C6 C 0.83157(9) 0.0005(3) 0.5012(2)
C7 C 0.74226(13) -0.4139(4) 0.3058(2)
C8 C 0.66233(10) 0.0654(4) 0.3987(2)
H1 H 0.8120 -0.2612 0.4075
H2 H 0.6755 -0.2073 0.3228
H3 H 0.8550 -0.0738 0.5031
H4 H 0.8398 0.0942 0.4751
H5 H 0.8270 0.0246 0.5593
H6 H 0.7164 -0.4741 0.3147
H7 H 0.7394 -0.3933 0.2456
H8 H 0.7698 -0.4755 0.3249
H9 H 0.6600 0.0873 0.4567
H10 H 0.6644 0.1646 0.3728
H11 H 0.6337 0.0151 0.3716
N1E N 0.75290(6) 0.4788(2) 0.55563(11)
C1E C 0.71333(8) 0.5638(3) 0.55107(14)
C2E C 0.71491(9) 0.7059(3) 0.59444(17)
C3E C 0.75592(10) 0.7615(3) 0.64332(17)
C4E C 0.79566(9) 0.6723(3) 0.64511(16)
C5E C 0.79438(8) 0.5323(3) 0.60016(15)
C6E C 0.66843(9) 0.4995(3) 0.4988(2)
C7E C 0.75774(13) 0.9139(4) 0.6942(2)
C8E C 0.83767(10) 0.4346(4) 0.6013(2)
H1E H 0.6880 0.7612 0.5925
H2E H 0.8245 0.7073 0.6772
H3E H 0.6450 0.5738 0.4969
H4E H 0.6602 0.4058 0.5249
H5E H 0.6730 0.4754 0.4407
H6E H 0.7836 0.9741 0.6853
H7E H 0.7606 0.8933 0.7544
H8E H 0.7302 0.9755 0.6751
H9E H 0.8400 0.4127 0.5433
H10E H 0.8356 0.3354 0.6272
H11E H 0.8663 0.4849 0.6284
Br2 Br 0.5000 0.5000 0.5000
N2 N 0.53353(8) 0.4764(2) 0.39050(16)
C9 C 0.54780(9) 0.6064(3) 0.3519(2)
C10 C 0.57181(10) 0.5912(4) 0.2848(2)
C11 C 0.58180(10) 0.4444(4) 0.2542(2)
C12 C 0.56576(11) 0.3147(4) 0.2938(2)
C13 C 0.54159(10) 0.3316(3) 0.3613(2)
C14 C 0.53639(16) 0.7647(3) 0.3844(3)
C15 C 0.60905(14) 0.4266(6) 0.1824(3)
C16 C 0.52371(17) 0.1923(3) 0.4025(3)
H12 H 0.5803 0.6827 0.2584
H13 H 0.5709 0.2148 0.2734
H14 H 0.5474 0.8447 0.3530
H15 H 0.5499 0.7828 0.4448
H16 H 0.5034 0.7781 0.3779
H17 H 0.5916 0.3667 0.1355
H18 H 0.6375 0.3747 0.2058
H19 H 0.6163 0.5263 0.1632
H20 H 0.4911 0.2053 0.4023
H21 H 0.5414 0.1824 0.4600
H22 H 0.5282 0.1028 0.3689
N2D N 0.46647(8) 0.5236(2) 0.60950(16)
C9D C 0.45220(9) 0.3936(3) 0.6481(2)
C10D C 0.42819(10) 0.4088(4) 0.7152(2)
C11D C 0.41820(10) 0.5556(4) 0.7458(2)
C12D C 0.43424(11) 0.6853(4) 0.7062(2)
C13D C 0.45841(10) 0.6684(3) 0.6387(2)
C14D C 0.46361(16) 0.2353(3) 0.6156(3)
C15D C 0.39095(14) 0.5734(6) 0.8176(3)
C16D C 0.47629(17) 0.8077(3) 0.5975(3)
H12D H 0.4197 0.3173 0.7416
H13D H 0.4291 0.7852 0.7266
H14D H 0.4526 0.1553 0.6470
H15D H 0.4501 0.2172 0.5552
H16D H 0.4966 0.2219 0.6221
H17D H 0.4084 0.6333 0.8645
H18D H 0.3625 0.6253 0.7942
H19D H 0.3837 0.4737 0.8368
H20D H 0.5089 0.7947 0.5977
H21D H 0.4586 0.8176 0.5400
H22D H 0.4718 0.8972 0.6311
B1 B 0.61102(14) 0.0502(5) 0.6339(2)
F1 F 0.6176(4) 0.1877(6) 0.6081(6)
F2 F 0.5823(2) 0.0507(7) 0.6917(4)
F3 F 0.5929(3) -0.0451(8) 0.5691(3)
F4 F 0.64851(18) -0.0262(10) 0.6756(5)
F5? F 0.5778(3) 0.1490(13) 0.5983(7)
F6? F 0.6096(6) 0.0116(14) 0.7103(4)
F7? F 0.6163(4) -0.0595(10) 0.5798(6)
F8? F 0.6506(3) 0.1435(12) 0.6403(7)
loop_
_geom_bond_atom_site_label_1
_geom_bond_atom_site_label_2
_geom_bond_site_symmetry_1
_geom_bond_site_symmetry_2
Br1 N1 1_555 1_555
N1 C1 1_555 1_555
C1 C2 1_555 1_555
C2 C3 1_555 1_555
C3 C4 1_555 1_555
C4 C5 1_555 1_555
C5 N1 1_555 1_555
C6 C1 1_555 1_555
C7 C3 1_555 1_555
C8 C5 1_555 1_555
H1 C2 1_555 1_555
H2 C4 1_555 1_555
H3 C6 1_555 1_555
H4 C6 1_555 1_555
H5 C6 1_555 1_555
H6 C7 1_555 1_555
H7 C7 1_555 1_555
H8 C7 1_555 1_555
H9 C8 1_555 1_555
H10 C8 1_555 1_555
H11 C8 1_555 1_555
Br2 N2 1_555 1_555
N2 C9 1_555 1_555
C9 C10 1_555 1_555
C10 C11 1_555 1_555
C11 C12 1_555 1_555
C12 C13 1_555 1_555
C13 N2 1_555 1_555
C14 C9 1_555 1_555
C15 C11 1_555 1_555
C16 C13 1_555 1_555
H12 C10 1_555 1_555
H13 C12 1_555 1_555
H14 C14 1_555 1_555
H15 C14 1_555 1_555
H16 C14 1_555 1_555
H17 C15 1_555 1_555
H18 C15 1_555 1_555
H19 C15 1_555 1_555
H20 C16 1_555 1_555
H21 C16 1_555 1_555
H22 C16 1_555 1_555
B1 F1 1_555 1_555
F2 B1 1_555 1_555
F3 B1 1_555 1_555
F4 B1 1_555 1_555
N1E Br1 1_555 1_555
C1E N1E 1_555 1_555
C2E C1E 1_555 1_555
C3E C2E 1_555 1_555
C4E C3E 1_555 1_555
C5E N1E 1_555 1_555
C6E C1E 1_555 1_555
C7E C3E 1_555 1_555
C8E C5E 1_555 1_555
H1E C2E 1_555 1_555
H2E C4E 1_555 1_555
H3E C6E 1_555 1_555
H4E C6E 1_555 1_555
H5E C6E 1_555 1_555
H6E C7E 1_555 1_555
H7E C7E 1_555 1_555
H8E C7E 1_555 1_555
H9E C8E 1_555 1_555
H10E C8E 1_555 1_555
H11E C8E 1_555 1_555
N2D Br2 1_555 1_555
C9D N2D 1_555 1_555
C10D C9D 1_555 1_555
C11D C10D 1_555 1_555
C12D C11D 1_555 1_555
C13D N2D 1_555 1_555
C14D C9D 1_555 1_555
C15D C11D 1_555 1_555
C16D C13D 1_555 1_555
H12D C10D 1_555 1_555
H13D C12D 1_555 1_555
H14D C14D 1_555 1_555
H15D C14D 1_555 1_555
H16D C14D 1_555 1_555
H17D C15D 1_555 1_555
H18D C15D 1_555 1_555
H19D C15D 1_555 1_555
H20D C16D 1_555 1_555
H21D C16D 1_555 1_555
H22D C16D 1_555 1_555
C4E C5E 1_555 1_555
C12D C13D 1_555 1_555

#END
