
#######################################################################
#
#                 Cambridge Crystallographic Data Centre
#                                CCDC 
#
#######################################################################
#
# If this CIF has been generated from an entry in the Cambridge 
# Structural Database, then it will include bibliographic, chemical, 
# crystal, experimental, refinement or atomic coordinate data resulting 
# from the CCDC's data processing and validation procedures.
#
#######################################################################

data_SIMYUK
_chemical_formula_moiety         'C27 H43 B2 Mg1 N3 O5'
_chemical_name_systematic        
(tris(4,4-dimethyl-4,5-dihydro-1,3-oxazol-2-yl)(phenyl)borate)-(pinacolatoborate)-magnesium
_symmetry_cell_setting           monoclinic
_symmetry_space_group_name_H-M   'P 21/c'
_symmetry_Int_Tables_number      14
_space_group_name_Hall           '-P 2ybc'
loop_
_symmetry_equiv_pos_site_id
_symmetry_equiv_pos_as_xyz
1 x,y,z
2 -x,1/2+y,1/2-z
3 -x,-y,-z
4 x,1/2-y,1/2+z
_cell_length_a                   9.290(3)
_cell_length_b                   24.265(8)
_cell_length_c                   13.856(5)
_cell_angle_alpha                90
_cell_angle_beta                 106.244(6)
_cell_angle_gamma                90
_cell_volume                     2998.75
_exptl_crystal_colour            colorless
_exptl_crystal_description       block
_cell_formula_units_Z            4
_chemical_properties_physical    Air-sensitive
loop_
_atom_site_label
_atom_site_type_symbol
_atom_site_fract_x
_atom_site_fract_y
_atom_site_fract_z
Mg1 Mg 0.70642(10) 0.86773(4) 0.23561(7)
B1 B 0.8458(3) 0.98539(13) 0.2430(2)
B2 B 0.6861(4) 0.76850(15) 0.2839(3)
H1 H 0.794(3) 0.7845(12) 0.269(2)
H2 H 0.706(4) 0.7708(13) 0.370(3)
C1 C 0.9111(4) 0.82821(14) 0.0478(3)
H3 H 1.0062 0.8357 0.0986
H4 H 0.9313 0.8157 -0.0144
H5 H 0.8562 0.7995 0.0725
C2 C 0.8180(3) 0.88037(11) 0.0273(2)
C3 C 0.6691(4) 0.87086(15) -0.0506(2)
H6 H 0.6132 0.8421 -0.0269
H7 H 0.6869 0.8592 -0.1140
H8 H 0.6110 0.9051 -0.0614
C4 C 0.9045(4) 0.92923(12) 0.0000(2)
H9 H 1.0068 0.9178 -0.0002
H10 H 0.8517 0.9438 -0.0673
C5 C 0.8436(3) 0.94876(11) 0.1435(2)
C6 C 0.4784(5) 0.92619(16) 0.3854(3)
H11 H 0.4810 0.8862 0.3758
H12 H 0.3942 0.9356 0.4120
H13 H 0.5724 0.9382 0.4330
C7 C 0.4588(3) 0.95539(12) 0.2842(3)
C8 C 0.3154(4) 0.93863(16) 0.2091(4)
H14 H 0.3120 0.9541 0.1432
H15 H 0.2302 0.9525 0.2306
H16 H 0.3103 0.8983 0.2045
C9 C 0.4742(3) 1.01789(12) 0.2970(3)
H17 H 0.3974 1.0370 0.2433
H18 H 0.4627 1.0293 0.3631
C10 C 0.6767(3) 0.98447(11) 0.2567(2)
C11 C 1.1093(4) 0.83430(13) 0.3917(3)
H19 H 1.0459 0.8057 0.3510
H20 H 1.1874 0.8170 0.4457
H21 H 1.1560 0.8561 0.3491
C12 C 1.0136(3) 0.87173(12) 0.4371(2)
C13 C 0.9461(4) 0.84110(14) 0.5091(2)
H22 H 0.8719 0.8646 0.5272
H23 H 1.0255 0.8314 0.5698
H24 H 0.8973 0.8074 0.4768
C14 C 1.0994(3) 0.92317(12) 0.4857(2)
H25 H 1.0672 0.9348 0.5449
H26 H 1.2088 0.9162 0.5071
C15 C 0.9359(3) 0.94646(11) 0.3375(2)
C16 C 0.9107(3) 1.04648(11) 0.2350(2)
C17 C 1.0623(3) 1.06018(12) 0.2709(2)
H27 H 1.1310 1.0329 0.3052
C18 C 1.1164(4) 1.11204(12) 0.2583(2)
H28 H 1.2203 1.1197 0.2843
C19 C 1.0203(4) 1.15267(12) 0.2083(2)
H29 H 1.0569 1.1885 0.2004
C20 C 0.8705(4) 1.14034(12) 0.1699(2)
H30 H 0.8033 1.1678 0.1343
C21 C 0.8163(3) 1.08825(12) 0.1826(2)
H31 H 0.7125 1.0807 0.1551
C22 C 0.4382(3) 0.77102(12) 0.1755(2)
C23 C 0.3456(4) 0.76314(14) 0.2499(3)
H32 H 0.4048 0.7428 0.3087
H33 H 0.2543 0.7424 0.2176
H34 H 0.3182 0.7992 0.2712
C24 C 0.3457(4) 0.79798(13) 0.0787(3)
H35 H 0.2972 0.8312 0.0950
H36 H 0.2690 0.7721 0.0418
H37 H 0.4114 0.8080 0.0371
C25 C 0.5163(3) 0.71740(12) 0.1580(2)
C26 C 0.5712(4) 0.72030(14) 0.0645(3)
H38 H 0.6279 0.7545 0.0656
H39 H 0.4850 0.7197 0.0045
H40 H 0.6361 0.6886 0.0633
C27 C 0.4220(3) 0.66591(12) 0.1564(3)
H41 H 0.4748 0.6338 0.1401
H42 H 0.3253 0.6701 0.1054
H43 H 0.4052 0.6607 0.2225
N1 N 0.7898(2) 0.90006(9) 0.12264(16)
N2 N 0.5920(2) 0.94159(9) 0.24838(17)
N3 N 0.8963(2) 0.89686(9) 0.35106(16)
O1 O 0.9110(2) 0.97050(8) 0.07676(14)
O2 O 0.6236(2) 1.03063(8) 0.29027(16)
O3 O 1.0614(2) 0.96493(8) 0.40681(14)
O4 O 0.5651(2) 0.80613(8) 0.22238(16)
O5 O 0.6421(2) 0.71398(8) 0.24468(17)
loop_
_geom_bond_atom_site_label_1
_geom_bond_atom_site_label_2
_geom_bond_site_symmetry_1
_geom_bond_site_symmetry_2
Mg1 N1 1_555 1_555
B1 C5 1_555 1_555
B2 H1 1_555 1_555
H2 B2 1_555 1_555
C1 H3 1_555 1_555
H4 C1 1_555 1_555
H5 C1 1_555 1_555
C2 C1 1_555 1_555
C3 C2 1_555 1_555
H6 C3 1_555 1_555
H7 C3 1_555 1_555
H8 C3 1_555 1_555
C4 C2 1_555 1_555
H9 C4 1_555 1_555
H10 C4 1_555 1_555
C5 N1 1_555 1_555
C6 H11 1_555 1_555
H12 C6 1_555 1_555
H13 C6 1_555 1_555
C7 C6 1_555 1_555
C8 C7 1_555 1_555
H14 C8 1_555 1_555
H15 C8 1_555 1_555
H16 C8 1_555 1_555
C9 C7 1_555 1_555
H17 C9 1_555 1_555
H18 C9 1_555 1_555
C10 B1 1_555 1_555
C11 H19 1_555 1_555
H20 C11 1_555 1_555
H21 C11 1_555 1_555
C12 C11 1_555 1_555
C13 C12 1_555 1_555
H22 C13 1_555 1_555
H23 C13 1_555 1_555
H24 C13 1_555 1_555
C14 C12 1_555 1_555
H25 C14 1_555 1_555
H26 C14 1_555 1_555
C15 B1 1_555 1_555
C16 B1 1_555 1_555
C17 C16 1_555 1_555
H27 C17 1_555 1_555
C18 C17 1_555 1_555
H28 C18 1_555 1_555
C19 C18 1_555 1_555
H29 C19 1_555 1_555
C20 C19 1_555 1_555
H30 C20 1_555 1_555
C21 C16 1_555 1_555
H31 C21 1_555 1_555
C22 C23 1_555 1_555
C23 H32 1_555 1_555
H33 C23 1_555 1_555
H34 C23 1_555 1_555
C24 C22 1_555 1_555
H35 C24 1_555 1_555
H36 C24 1_555 1_555
H37 C24 1_555 1_555
C25 C22 1_555 1_555
C26 C25 1_555 1_555
H38 C26 1_555 1_555
H39 C26 1_555 1_555
H40 C26 1_555 1_555
C27 C25 1_555 1_555
H41 C27 1_555 1_555
H42 C27 1_555 1_555
H43 C27 1_555 1_555
N1 C2 1_555 1_555
N2 Mg1 1_555 1_555
N3 Mg1 1_555 1_555
O1 C4 1_555 1_555
O2 C9 1_555 1_555
O3 C14 1_555 1_555
O4 Mg1 1_555 1_555
O5 B2 1_555 1_555
B2 O4 1_555 1_555
C5 O1 1_555 1_555
C7 N2 1_555 1_555
C10 N2 1_555 1_555
C10 O2 1_555 1_555
C12 N3 1_555 1_555
C15 N3 1_555 1_555
C15 O3 1_555 1_555
C20 C21 1_555 1_555
C22 O4 1_555 1_555
C25 O5 1_555 1_555

#END
