
#######################################################################
#
#                 Cambridge Crystallographic Data Centre
#                                CCDC 
#
#######################################################################
#
# If this CIF has been generated from an entry in the Cambridge 
# Structural Database, then it will include bibliographic, chemical, 
# crystal, experimental, refinement or atomic coordinate data resulting 
# from the CCDC's data processing and validation procedures.
#
#######################################################################

data_SIMZOF
_chemical_formula_moiety         'C32 H24 N10'
_chemical_name_systematic        
N,N-bis(6-(1H-pyrazol-1-yl)pyridin-2-yl)-N',N'-bis(pyridin-4-yl)benzene-1,4-diamine
_symmetry_cell_setting           monoclinic
_symmetry_space_group_name_H-M   'P 21/c'
_symmetry_Int_Tables_number      14
_space_group_name_Hall           '-P 2ybc'
loop_
_symmetry_equiv_pos_site_id
_symmetry_equiv_pos_as_xyz
1 x,y,z
2 -x,1/2+y,1/2-z
3 -x,-y,-z
4 x,1/2-y,1/2+z
_cell_length_a                   18.3083(18)
_cell_length_b                   6.8191(5)
_cell_length_c                   22.558(2)
_cell_angle_alpha                90
_cell_angle_beta                 101.5190(10)
_cell_angle_gamma                90
_cell_volume                     2759.55
_cell_formula_units_Z            4
loop_
_atom_site_label
_atom_site_type_symbol
_atom_site_fract_x
_atom_site_fract_y
_atom_site_fract_z
N1 N 0.25322(7) 0.5360(2) 0.19188(6)
N2 N 0.20811(7) -0.0549(2) 0.35747(6)
N3 N 0.36938(7) 0.6090(2) 0.24980(6)
N4 N 0.48158(7) 0.6559(2) 0.31560(6)
N5 N 0.55585(7) 0.6943(2) 0.32871(7)
N6 N 0.20063(7) 0.7783(2) 0.12327(6)
N7 N 0.15835(7) 1.0245(2) 0.05435(6)
N8 N 0.10777(9) 1.1046(3) 0.00867(7)
N9 N 0.39266(11) -0.2050(4) 0.49562(7)
N10 N -0.00390(9) -0.3328(3) 0.32349(9)
C1 C 0.24271(8) 0.3865(3) 0.23463(7)
C2 C 0.28131(9) 0.2115(3) 0.23758(7)
H1 H 0.3151 0.1912 0.2124
C3 C 0.27007(9) 0.0662(3) 0.27762(7)
H2 H 0.2957 -0.0521 0.2790
C4 C 0.22050(8) 0.0977(3) 0.31574(7)
C5 C 0.18266(9) 0.2726(3) 0.31357(7)
H3 H 0.1496 0.2938 0.3393
C6 C 0.19362(9) 0.4175(3) 0.27311(7)
H4 H 0.1680 0.5356 0.2718
C7 C 0.32754(8) 0.6016(2) 0.19383(7)
C8 C 0.35569(9) 0.6445(3) 0.14252(7)
H5 H 0.3250 0.6430 0.1043
C9 C 0.43036(9) 0.6893(3) 0.14986(8)
H6 H 0.4506 0.7179 0.1162
C10 C 0.47553(9) 0.6919(3) 0.20711(7)
H7 H 0.5262 0.7190 0.2129
C11 C 0.44141(8) 0.6525(2) 0.25481(7)
C12 C 0.57276(10) 0.6866(3) 0.38889(9)
H8 H 0.6204 0.7087 0.4114
C13 C 0.51217(10) 0.6425(3) 0.41424(8)
H9 H 0.5111 0.6284 0.4551
C14 C 0.45407(10) 0.6243(3) 0.36622(8)
H10 H 0.4049 0.5956 0.3679
C15 C 0.19128(8) 0.6065(3) 0.14985(7)
C16 C 0.12440(9) 0.5020(3) 0.13686(8)
H11 H 0.1191 0.3831 0.1558
C17 C 0.06646(9) 0.5810(3) 0.09504(9)
H12 H 0.0211 0.5151 0.0860
C18 C 0.07475(9) 0.7564(3) 0.06648(8)
H13 H 0.0361 0.8111 0.0382
C19 C 0.14301(9) 0.8453(3) 0.08207(7)
C20 C 0.14251(12) 1.2599(3) -0.00748(9)
H14 H 0.1214 1.3442 -0.0386
C21 C 0.21323(12) 1.2835(3) 0.02677(9)
H15 H 0.2474 1.3821 0.0238
C22 C 0.22176(10) 1.1296(3) 0.06601(9)
H16 H 0.2638 1.1021 0.0955
C23 C 0.38524(12) -0.0302(4) 0.46876(10)
H17 H 0.4227 0.0616 0.4813
C24 C 0.32600(10) 0.0252(3) 0.42369(8)
H18 H 0.3243 0.1501 0.4069
C25 C 0.26886(9) -0.1090(3) 0.40366(7)
C26 C 0.27719(10) -0.2938(3) 0.43000(8)
H19 H 0.2420 -0.3912 0.4173
C27 C 0.33845(13) -0.3312(4) 0.47525(9)
H20 H 0.3419 -0.4550 0.4928
C28 C 0.02268(10) -0.2326(3) 0.28157(9)
H21 H -0.0072 -0.2253 0.2431
C29 C 0.09079(9) -0.1389(3) 0.29044(8)
H22 H 0.1054 -0.0717 0.2589
C30 C 0.13748(9) -0.1464(3) 0.34753(7)
C31 C 0.10950(9) -0.2434(3) 0.39266(8)
H23 H 0.1369 -0.2474 0.4321
C32 C 0.04080(10) -0.3333(3) 0.37828(9)
H24 H 0.0242 -0.3995 0.4091
loop_
_geom_bond_atom_site_label_1
_geom_bond_atom_site_label_2
_geom_bond_site_symmetry_1
_geom_bond_site_symmetry_2
N1 C1 1_555 1_555
N2 C4 1_555 1_555
N3 C7 1_555 1_555
N4 N5 1_555 1_555
N5 C12 1_555 1_555
N6 C15 1_555 1_555
N7 N8 1_555 1_555
N8 C20 1_555 1_555
N9 C23 1_555 1_555
N10 C28 1_555 1_555
C1 C2 1_555 1_555
C2 H1 1_555 1_555
C3 C2 1_555 1_555
H2 C3 1_555 1_555
C4 C3 1_555 1_555
C5 C4 1_555 1_555
H3 C5 1_555 1_555
C6 C1 1_555 1_555
H4 C6 1_555 1_555
C7 N1 1_555 1_555
C8 C7 1_555 1_555
H5 C8 1_555 1_555
C9 C8 1_555 1_555
H6 C9 1_555 1_555
C10 C9 1_555 1_555
H7 C10 1_555 1_555
C11 N3 1_555 1_555
C12 H8 1_555 1_555
C13 C12 1_555 1_555
H9 C13 1_555 1_555
C14 N4 1_555 1_555
H10 C14 1_555 1_555
C15 N1 1_555 1_555
C16 C15 1_555 1_555
H11 C16 1_555 1_555
C17 C16 1_555 1_555
H12 C17 1_555 1_555
C18 C17 1_555 1_555
H13 C18 1_555 1_555
C19 N6 1_555 1_555
C20 H14 1_555 1_555
C21 C20 1_555 1_555
H15 C21 1_555 1_555
C22 N7 1_555 1_555
H16 C22 1_555 1_555
C23 H17 1_555 1_555
C24 C23 1_555 1_555
H18 C24 1_555 1_555
C25 N2 1_555 1_555
C26 C25 1_555 1_555
H19 C26 1_555 1_555
C27 N9 1_555 1_555
H20 C27 1_555 1_555
C28 H21 1_555 1_555
C29 C28 1_555 1_555
H22 C29 1_555 1_555
C30 N2 1_555 1_555
C31 C30 1_555 1_555
H23 C31 1_555 1_555
C32 N10 1_555 1_555
H24 C32 1_555 1_555
N4 C11 1_555 1_555
N7 C19 1_555 1_555
C5 C6 1_555 1_555
C10 C11 1_555 1_555
C13 C14 1_555 1_555
C18 C19 1_555 1_555
C21 C22 1_555 1_555
C24 C25 1_555 1_555
C26 C27 1_555 1_555
C29 C30 1_555 1_555
C31 C32 1_555 1_555

#END
