
#######################################################################
#
#                 Cambridge Crystallographic Data Centre
#                                CCDC 
#
#######################################################################
#
# If this CIF has been generated from an entry in the Cambridge 
# Structural Database, then it will include bibliographic, chemical, 
# crystal, experimental, refinement or atomic coordinate data resulting 
# from the CCDC's data processing and validation procedures.
#
#######################################################################

data_SIMZUK
_chemical_formula_moiety         'C11 H18 N2 2+,2(Br1 1-)'
_chemical_name_systematic        
'2-Methyl-1-(pyrrolidinium-2-ylmethyl)pyridinium dibromide'
_symmetry_cell_setting           monoclinic
_symmetry_space_group_name_H-M   'P 21/c'
_symmetry_Int_Tables_number      14
_space_group_name_Hall           '-P 2ybc'
loop_
_symmetry_equiv_pos_site_id
_symmetry_equiv_pos_as_xyz
1 x,y,z
2 -x,1/2+y,1/2-z
3 -x,-y,-z
4 x,1/2-y,1/2+z
_cell_length_a                   12.588(3)
_cell_length_b                   10.023(4)
_cell_length_c                   12.461(4)
_cell_angle_alpha                90
_cell_angle_beta                 117.617(13)
_cell_angle_gamma                90
_cell_volume                     1393.07
_exptl_crystal_colour            yellow
_exptl_crystal_description       block
_chemical_melting_point          '148 deg.C'
_cell_formula_units_Z            4
_exptl_crystal_recrystallization_method ethanol
loop_
_atom_site_label
_atom_site_type_symbol
_atom_site_fract_x
_atom_site_fract_y
_atom_site_fract_z
Br1 Br 0.41438(4) 0.56892(5) 0.64583(4)
Br2 Br 0.08574(4) 0.16025(5) 0.45070(4)
N1 N 0.3228(3) 0.3124(3) 0.4761(2)
N2 N 0.1717(2) 0.5515(3) 0.3133(2)
C1 C 0.4223(4) 0.2119(6) 0.5167(5)
C2 C 0.4018(6) 0.1369(6) 0.4052(5)
C3 C 0.3048(5) 0.2097(5) 0.2990(4)
C4 C 0.2946(3) 0.3451(4) 0.3492(3)
C5 C 0.1739(4) 0.4108(4) 0.2777(3)
C6 C 0.1146(4) 0.5837(6) 0.3801(4)
C7 C 0.1090(7) 0.7146(7) 0.4121(7)
C8 C 0.1624(7) 0.8095(9) 0.3721(7)
C9 C 0.2193(5) 0.7798(4) 0.3032(5)
C10 C 0.2226(3) 0.6472(3) 0.2744(4)
C11 C 0.2778(6) 0.6100(7) 0.1949(6)
H1 H 0.3570 0.4043 0.3502
H2 H 0.0792 0.5168 0.4044
H3 H 0.0712 0.7378 0.4582
H4 H 0.1598 0.8982 0.3927
H5 H 0.2539 0.8461 0.2773
H6 H 0.4190 0.1520 0.5763
H7 H 0.4995 0.2563 0.5514
H8 H 0.3484 0.5576 0.2404
H9 H 0.2213 0.5592 0.1271
H10 H 0.2989 0.6896 0.1663
H11 H 0.3764 0.0464 0.4090
H12 H 0.4750 0.1345 0.3974
H13 H 0.3489 0.3871 0.5289
H14 H 0.2604 0.2740 0.4796
H15 H 0.3271 0.2205 0.2347
H16 H 0.2295 0.1617 0.2683
H17 H 0.1534 0.4084 0.1925
H18 H 0.1146 0.3610 0.2905
loop_
_geom_bond_atom_site_label_1
_geom_bond_atom_site_label_2
_geom_bond_site_symmetry_1
_geom_bond_site_symmetry_2
N1 C1 1_555 1_555
N2 C5 1_555 1_555
C1 C2 1_555 1_555
C2 C3 1_555 1_555
C3 C4 1_555 1_555
C4 N1 1_555 1_555
C5 C4 1_555 1_555
C6 N2 1_555 1_555
C7 C6 1_555 1_555
C8 C7 1_555 1_555
C9 C8 1_555 1_555
C10 N2 1_555 1_555
C11 C10 1_555 1_555
H1 C4 1_555 1_555
H2 C6 1_555 1_555
H3 C7 1_555 1_555
H4 C8 1_555 1_555
H5 C9 1_555 1_555
H6 C1 1_555 1_555
H7 C1 1_555 1_555
H8 C11 1_555 1_555
H9 C11 1_555 1_555
H10 C11 1_555 1_555
H11 C2 1_555 1_555
H12 C2 1_555 1_555
H13 N1 1_555 1_555
H14 N1 1_555 1_555
H15 C3 1_555 1_555
H16 C3 1_555 1_555
H17 C5 1_555 1_555
H18 C5 1_555 1_555
C9 C10 1_555 1_555

#END
