
#######################################################################
#
#                 Cambridge Crystallographic Data Centre
#                                CCDC 
#
#######################################################################
#
# If this CIF has been generated from an entry in the Cambridge 
# Structural Database, then it will include bibliographic, chemical, 
# crystal, experimental, refinement or atomic coordinate data resulting 
# from the CCDC's data processing and validation procedures.
#
#######################################################################

data_SINBOH
_chemical_formula_moiety         'C12 H11 N3 O1 S1'
_chemical_name_systematic        
N'-(1-(2-Thienyl)ethylidene)pyridine-2-carbohydrazide
_symmetry_cell_setting           monoclinic
_symmetry_space_group_name_H-M   'P 21/c'
_symmetry_Int_Tables_number      14
_space_group_name_Hall           '-P 2ybc'
loop_
_symmetry_equiv_pos_site_id
_symmetry_equiv_pos_as_xyz
1 x,y,z
2 -x,1/2+y,1/2-z
3 -x,-y,-z
4 x,1/2-y,1/2+z
_cell_length_a                   12.162(2)
_cell_length_b                   9.8259(16)
_cell_length_c                   10.2461(17)
_cell_angle_alpha                90
_cell_angle_beta                 104.857(2)
_cell_angle_gamma                90
_cell_volume                     1183.5
_exptl_crystal_colour            'light yellow'
_exptl_crystal_description       block
_chemical_melting_point          '443-444 K'
_cell_formula_units_Z            4
loop_
_atom_site_label
_atom_site_type_symbol
_atom_site_fract_x
_atom_site_fract_y
_atom_site_fract_z
N1 N 0.1445(4) 0.8579(5) 0.0924(5)
H1 H 0.1133 0.8729 0.0084
N2 N 0.2426(4) 0.9265(4) 0.1575(4)
N3 N -0.0534(4) 0.7579(5) -0.0438(4)
O1 O 0.1393(3) 0.7400(4) 0.2790(4)
S1 S 0.43434(14) 1.0654(2) 0.33637(15)
C1 C 0.0987(4) 0.7684(6) 0.1611(5)
C2 C -0.0087(4) 0.7049(5) 0.0788(5)
C3 C -0.0575(5) 0.5980(6) 0.1313(6)
H2 H -0.0241 0.5642 0.2171
C4 C -0.1572(5) 0.5424(7) 0.0530(6)
H3 H -0.1922 0.4701 0.0850
C5 C -0.2034(5) 0.5957(7) -0.0723(6)
H4 H -0.2705 0.5604 -0.1269
C6 C -0.1494(5) 0.7020(7) -0.1162(6)
H5 H -0.1817 0.7372 -0.2017
C7 C 0.2513(5) 1.0330(7) -0.0622(6)
H6 H 0.1828 0.9830 -0.1004
H7 H 0.3093 1.0058 -0.1051
H8 H 0.2368 1.1286 -0.0761
C8 C 0.2906(4) 1.0040(5) 0.0875(5)
C9 C 0.3943(4) 1.0717(5) 0.1632(5)
C10 C 0.4717(5) 1.1431(7) 0.1159(6)
H9 H 0.4650 1.1585 0.0247
C11 C 0.5637(5) 1.1916(7) 0.2204(7)
H10 H 0.6242 1.2413 0.2049
C12 C 0.5543(5) 1.1585(7) 0.3430(7)
H11 H 0.6068 1.1831 0.4227
loop_
_geom_bond_atom_site_label_1
_geom_bond_atom_site_label_2
_geom_bond_site_symmetry_1
_geom_bond_site_symmetry_2
N1 H1 1_555 1_555
N2 N1 1_555 1_555
N3 C2 1_555 1_555
O1 C1 1_555 1_555
S1 C9 1_555 1_555
C1 N1 1_555 1_555
C2 C1 1_555 1_555
C3 C2 1_555 1_555
H2 C3 1_555 1_555
C4 C3 1_555 1_555
H3 C4 1_555 1_555
C5 C4 1_555 1_555
H4 C5 1_555 1_555
C6 N3 1_555 1_555
H5 C6 1_555 1_555
C7 H6 1_555 1_555
H7 C7 1_555 1_555
H8 C7 1_555 1_555
C8 N2 1_555 1_555
C9 C8 1_555 1_555
C10 C9 1_555 1_555
H9 C10 1_555 1_555
C11 C10 1_555 1_555
H10 C11 1_555 1_555
C12 S1 1_555 1_555
H11 C12 1_555 1_555
C5 C6 1_555 1_555
C7 C8 1_555 1_555
C11 C12 1_555 1_555

#END
