
#######################################################################
#
#                 Cambridge Crystallographic Data Centre
#                                CCDC 
#
#######################################################################
#
# If this CIF has been generated from an entry in the Cambridge 
# Structural Database, then it will include bibliographic, chemical, 
# crystal, experimental, refinement or atomic coordinate data resulting 
# from the CCDC's data processing and validation procedures.
#
#######################################################################

data_SINBUN
_chemical_formula_moiety         'C26 H20 N2 O2'
_chemical_name_systematic        
2-Benzyl-6-(benzylamino)-1H-benzo(de)isoquinoline-1,3(2H)-dione
_symmetry_cell_setting           triclinic
_symmetry_space_group_name_H-M   'P -1'
_symmetry_Int_Tables_number      2
_space_group_name_Hall           '-P 1'
loop_
_symmetry_equiv_pos_site_id
_symmetry_equiv_pos_as_xyz
1 x,y,z
2 -x,-y,-z
_cell_length_a                   8.354(2)
_cell_length_b                   10.314(3)
_cell_length_c                   12.503(3)
_cell_angle_alpha                78.068(4)
_cell_angle_beta                 87.225(4)
_cell_angle_gamma                69.065(4)
_cell_volume                     984.06
_exptl_crystal_colour            yellow
_exptl_crystal_description       prism
_chemical_melting_point          '428-430 K'
_cell_formula_units_Z            2
_exptl_crystal_recrystallization_method ethanol
loop_
_atom_site_label
_atom_site_type_symbol
_atom_site_fract_x
_atom_site_fract_y
_atom_site_fract_z
C1 C 0.2622(2) 0.59547(19) 0.71932(14)
C2 C 0.2342(2) 0.49746(18) 0.81289(13)
C3 C 0.1932(2) 0.3848(2) 0.79810(14)
H1 H 0.1755 0.3763 0.7274
C4 C 0.1775(3) 0.2837(2) 0.88512(14)
H2 H 0.1497 0.2087 0.8718
C5 C 0.2025(2) 0.29171(18) 0.99235(13)
C6 C 0.2351(2) 0.41232(17) 1.01200(13)
C7 C 0.2521(2) 0.43494(19) 1.11711(13)
H3 H 0.2387 0.3706 1.1778
C8 C 0.2876(3) 0.54894(19) 1.13225(14)
H4 H 0.2980 0.5618 1.2027
C9 C 0.3086(2) 0.64652(19) 1.04242(15)
H5 H 0.3353 0.7231 1.0533
C10 C 0.2900(2) 0.63026(17) 0.93806(13)
C11 C 0.2517(2) 0.51367(17) 0.92052(13)
C12 C 0.3131(2) 0.73448(19) 0.84477(15)
C13 C 0.3202(2) 0.81558(18) 0.64637(14)
H6 H 0.2690 0.9099 0.6620
H7 H 0.2606 0.8130 0.5826
C14 C 0.5053(2) 0.78830(18) 0.62048(13)
C15 C 0.5796(3) 0.8849(2) 0.63119(16)
H8 H 0.5142 0.9672 0.6550
C16 C 0.7474(4) 0.8621(3) 0.60742(19)
H9 H 0.7951 0.9286 0.6149
C17 C 0.8459(3) 0.7410(3) 0.57247(18)
H10 H 0.9607 0.7247 0.5570
C18 C 0.7732(3) 0.6437(3) 0.56048(18)
H11 H 0.8387 0.5617 0.5363
C19 C 0.6045(3) 0.6681(2) 0.58416(16)
H12 H 0.5562 0.6023 0.5756
C20 C 0.1766(3) 0.0588(2) 1.06164(15)
H13 H 0.2599 0.0172 1.0101
H14 H 0.0630 0.0818 1.0309
C21 C 0.2003(3) -0.04668(19) 1.16736(14)
C22 C 0.0616(3) -0.0690(2) 1.22008(15)
H15 H -0.0481 -0.0169 1.1904
C23 C 0.0825(3) -0.1670(2) 1.31597(17)
H16 H -0.0128 -0.1805 1.3509
C24 C 0.2425(4) -0.2446(2) 1.36027(17)
H17 H 0.2564 -0.3111 1.4252
C25 C 0.3827(3) -0.2244(2) 1.30889(18)
H18 H 0.4920 -0.2773 1.3389
C26 C 0.3621(3) -0.1256(2) 1.21254(16)
H19 H 0.4577 -0.1122 1.1779
N1 N 0.29555(19) 0.71192(14) 0.74032(11)
N2 N 0.1971(2) 0.18745(15) 1.07740(11)
H20 H 0.2061 0.1982 1.1430
O1 O 0.34627(19) 0.83731(13) 0.85503(10)
O2 O 0.25983(18) 0.58088(14) 0.62488(9)
loop_
_geom_bond_atom_site_label_1
_geom_bond_atom_site_label_2
_geom_bond_site_symmetry_1
_geom_bond_site_symmetry_2
C1 C2 1_555 1_555
C2 C3 1_555 1_555
C3 H1 1_555 1_555
C4 C3 1_555 1_555
H2 C4 1_555 1_555
C5 C4 1_555 1_555
C6 C5 1_555 1_555
C7 C6 1_555 1_555
H3 C7 1_555 1_555
C8 C7 1_555 1_555
H4 C8 1_555 1_555
C9 C8 1_555 1_555
H5 C9 1_555 1_555
C10 C9 1_555 1_555
C11 C2 1_555 1_555
C12 C10 1_555 1_555
C13 H6 1_555 1_555
H7 C13 1_555 1_555
C14 C13 1_555 1_555
C15 C14 1_555 1_555
H8 C15 1_555 1_555
C16 C15 1_555 1_555
H9 C16 1_555 1_555
C17 C16 1_555 1_555
H10 C17 1_555 1_555
C18 C17 1_555 1_555
H11 C18 1_555 1_555
C19 C14 1_555 1_555
H12 C19 1_555 1_555
C20 H13 1_555 1_555
H14 C20 1_555 1_555
C21 C20 1_555 1_555
C22 C21 1_555 1_555
H15 C22 1_555 1_555
C23 C22 1_555 1_555
H16 C23 1_555 1_555
C24 C23 1_555 1_555
H17 C24 1_555 1_555
C25 C24 1_555 1_555
H18 C25 1_555 1_555
C26 C21 1_555 1_555
H19 C26 1_555 1_555
N1 C1 1_555 1_555
N2 C5 1_555 1_555
H20 N2 1_555 1_555
O1 C12 1_555 1_555
O2 C1 1_555 1_555
C6 C11 1_555 1_555
C10 C11 1_555 1_555
C12 N1 1_555 1_555
C13 N1 1_555 1_555
C18 C19 1_555 1_555
C20 N2 1_555 1_555
C25 C26 1_555 1_555

#END
