
#######################################################################
#
#                 Cambridge Crystallographic Data Centre
#                                CCDC 
#
#######################################################################
#
# If this CIF has been generated from an entry in the Cambridge 
# Structural Database, then it will include bibliographic, chemical, 
# crystal, experimental, refinement or atomic coordinate data resulting 
# from the CCDC's data processing and validation procedures.
#
#######################################################################

data_SINDID
_chemical_formula_moiety         'C17 H10 N2 O4'
_chemical_name_systematic        2,2'-Methylenebis(isoindoline-1,3-dione)
_symmetry_cell_setting           triclinic
_symmetry_space_group_name_H-M   'P -1'
_symmetry_Int_Tables_number      2
_space_group_name_Hall           '-P 1'
loop_
_symmetry_equiv_pos_site_id
_symmetry_equiv_pos_as_xyz
1 x,y,z
2 -x,-y,-z
_cell_length_a                   7.6660(9)
_cell_length_b                   9.5810(8)
_cell_length_c                   10.2780(6)
_cell_angle_alpha                104.325(3)
_cell_angle_beta                 99.768(4)
_cell_angle_gamma                96.030(3)
_cell_volume                     712.227
_exptl_crystal_colour            colorless
_exptl_crystal_description       Prism
_chemical_melting_point          '501.6-502.1 K'
_cell_formula_units_Z            2
_exptl_crystal_recrystallization_method dichloroethane
loop_
_atom_site_label
_atom_site_type_symbol
_atom_site_fract_x
_atom_site_fract_y
_atom_site_fract_z
N1 N 0.22177(16) 0.16328(12) 0.73250(11)
N2 N 0.11889(15) 0.29986(12) 0.57720(11)
O1 O 0.2051(2) 0.28638(15) 0.95249(12)
O2 O 0.30930(14) 0.01722(12) 0.54975(9)
O3 O 0.02017(17) 0.14751(12) 0.35746(11)
O4 O 0.24441(19) 0.49922(13) 0.75855(12)
H1 H 0.557(3) 0.256(2) 1.104(2)
H2 H 0.833(3) 0.151(2) 1.097(2)
H3 H 0.877(3) 0.000(2) 0.896(2)
H4 H 0.662(2) -0.039(2) 0.683(2)
H5 H -0.011(2) 0.1138(17) 0.5916(16)
H6 H 0.001(2) 0.2565(16) 0.7257(16)
H7 H 0.374(3) 0.715(2) 0.615(2)
H8 H 0.395(3) 0.753(2) 0.400(2)
H9 H 0.300(3) 0.573(2) 0.198(2)
H10 H 0.153(3) 0.339(2) 0.191(2)
C1 C 0.4607(2) 0.16588(16) 0.90265(14)
C2 C 0.5866(3) 0.1948(2) 1.02293(17)
C3 C 0.7425(3) 0.1341(2) 1.0166(2)
C4 C 0.7714(3) 0.0484(2) 0.8956(2)
C5 C 0.6438(2) 0.0193(2) 0.77442(17)
C6 C 0.49014(19) 0.08017(15) 0.78128(13)
C7 C 0.2845(2) 0.21708(16) 0.87470(14)
C8 C 0.33557(18) 0.07717(14) 0.67038(13)
C9 C 0.0657(2) 0.20282(16) 0.65709(15)
C10 C 0.09578(19) 0.26223(15) 0.43474(14)
C11 C 0.2083(2) 0.44257(15) 0.63763(15)
C12 C 0.24512(19) 0.50100(15) 0.52299(15)
C13 C 0.18072(19) 0.39313(16) 0.40180(15)
C14 C 0.1987(2) 0.4151(2) 0.27754(18)
C15 C 0.2840(3) 0.5515(2) 0.2794(2)
C16 C 0.3456(3) 0.6596(2) 0.4003(2)
C17 C 0.3282(2) 0.63641(18) 0.5248(2)
loop_
_geom_bond_atom_site_label_1
_geom_bond_atom_site_label_2
_geom_bond_site_symmetry_1
_geom_bond_site_symmetry_2
N1 C7 1_555 1_555
N2 C9 1_555 1_555
O1 C7 1_555 1_555
O2 C8 1_555 1_555
O3 C10 1_555 1_555
O4 C11 1_555 1_555
H1 C2 1_555 1_555
H2 C3 1_555 1_555
H3 C4 1_555 1_555
H4 C5 1_555 1_555
H5 C9 1_555 1_555
H6 C9 1_555 1_555
H7 C17 1_555 1_555
H8 C16 1_555 1_555
H9 C15 1_555 1_555
H10 C14 1_555 1_555
C1 C2 1_555 1_555
C2 C3 1_555 1_555
C3 C4 1_555 1_555
C4 C5 1_555 1_555
C5 C6 1_555 1_555
C6 C1 1_555 1_555
C7 C1 1_555 1_555
C8 N1 1_555 1_555
C9 N1 1_555 1_555
C10 N2 1_555 1_555
C11 N2 1_555 1_555
C12 C11 1_555 1_555
C13 C10 1_555 1_555
C14 C13 1_555 1_555
C15 C14 1_555 1_555
C16 C15 1_555 1_555
C17 C12 1_555 1_555
C6 C8 1_555 1_555
C12 C13 1_555 1_555
C16 C17 1_555 1_555

#END
