
#######################################################################
#
#                 Cambridge Crystallographic Data Centre
#                                CCDC 
#
#######################################################################
#
# If this CIF has been generated from an entry in the Cambridge 
# Structural Database, then it will include bibliographic, chemical, 
# crystal, experimental, refinement or atomic coordinate data resulting 
# from the CCDC's data processing and validation procedures.
#
#######################################################################

data_SINGUS
_chemical_formula_moiety         'C30 H24 O2'
_chemical_name_systematic        1,2-Dibenzoyl-3,4-diphenylcyclobutane
_symmetry_cell_setting           monoclinic
_symmetry_space_group_name_H-M   'P 21/c'
_symmetry_Int_Tables_number      14
_space_group_name_Hall           '-P 2ybc'
loop_
_symmetry_equiv_pos_site_id
_symmetry_equiv_pos_as_xyz
1 x,y,z
2 -x,1/2+y,1/2-z
3 -x,-y,-z
4 x,1/2-y,1/2+z
_cell_length_a                   16.5672(18)
_cell_length_b                   5.9170(6)
_cell_length_c                   23.228(3)
_cell_angle_alpha                90
_cell_angle_beta                 104.453(2)
_cell_angle_gamma                90
_cell_volume                     2204.94
_exptl_crystal_colour            colorless
_exptl_crystal_description       block
_cell_formula_units_Z            4
loop_
_atom_site_label
_atom_site_type_symbol
_atom_site_fract_x
_atom_site_fract_y
_atom_site_fract_z
O1 O 0.15494(14) 0.8207(4) 0.10454(11)
O2 O 0.40294(15) 0.3626(4) 0.08654(12)
C1 C 0.2082(2) 0.4440(6) 0.10938(17)
H1 H 0.2000 0.3404 0.0744
C2 C 0.3005(2) 0.5219(6) 0.12962(16)
H2 H 0.3046 0.6745 0.1486
C3 C 0.3168(2) 0.3343(6) 0.17701(17)
H3 H 0.3377 0.1987 0.1594
C4 C 0.2202(2) 0.3044(6) 0.16857(16)
H4 H 0.2029 0.1434 0.1603
C5 C 0.1399(2) 0.6182(6) 0.09947(16)
C6 C 0.0525(2) 0.5382(6) 0.08698(16)
C7 C -0.0081(2) 0.6842(6) 0.09713(17)
H5 H 0.0077 0.8313 0.1122
C8 C -0.0901(2) 0.6211(7) 0.08592(17)
H6 H -0.1302 0.7218 0.0946
C9 C -0.1144(2) 0.4108(7) 0.06205(17)
H7 H -0.1715 0.3681 0.0530
C10 C -0.0555(2) 0.2629(6) 0.05135(16)
H8 H -0.0720 0.1181 0.0350
C11 C 0.0273(2) 0.3243(6) 0.06424(16)
H9 H 0.0676 0.2199 0.0576
C12 C 0.3518(2) 0.5121(6) 0.08355(17)
C13 C 0.3374(2) 0.6777(6) 0.03339(17)
C14 C 0.2952(2) 0.8791(6) 0.03430(18)
H10 H 0.2735 0.9159 0.0673
C15 C 0.2847(2) 1.0267(6) -0.01339(19)
H11 H 0.2576 1.1673 -0.0120
C16 C 0.3126(3) 0.9737(7) -0.0621(2)
H12 H 0.3033 1.0743 -0.0950
C17 C 0.3547(3) 0.7723(7) -0.0634(2)
H13 H 0.3752 0.7348 -0.0969
C18 C 0.3664(3) 0.6267(7) -0.0158(2)
H14 H 0.3951 0.4883 -0.0168
C19 C 0.3723(2) 0.3690(6) 0.23778(16)
C20 C 0.4206(2) 0.5608(6) 0.25363(17)
H15 H 0.4193 0.6764 0.2250
C21 C 0.4710(2) 0.5863(7) 0.31065(18)
H16 H 0.5036 0.7192 0.3208
C22 C 0.4739(2) 0.4209(7) 0.35261(18)
H17 H 0.5078 0.4395 0.3918
C23 C 0.4270(2) 0.2267(6) 0.33708(18)
H18 H 0.4298 0.1095 0.3654
C24 C 0.3763(2) 0.2029(6) 0.28059(18)
H19 H 0.3435 0.0703 0.2707
C25 C 0.1819(2) 0.4059(6) 0.21508(16)
C26 C 0.2046(2) 0.6121(6) 0.24192(17)
H20 H 0.2466 0.6988 0.2310
C27 C 0.1671(2) 0.6943(7) 0.28440(18)
H21 H 0.1842 0.8357 0.3028
C28 C 0.1049(3) 0.5735(8) 0.30046(18)
H22 H 0.0792 0.6303 0.3298
C29 C 0.0809(3) 0.3696(8) 0.27330(19)
H23 H 0.0374 0.2859 0.2834
C30 C 0.1190(2) 0.2856(6) 0.23172(17)
H24 H 0.1023 0.1429 0.2140
loop_
_geom_bond_atom_site_label_1
_geom_bond_atom_site_label_2
_geom_bond_site_symmetry_1
_geom_bond_site_symmetry_2
O1 C5 1_555 1_555
O2 C12 1_555 1_555
C1 H1 1_555 1_555
C2 C1 1_555 1_555
H2 C2 1_555 1_555
C3 C2 1_555 1_555
H3 C3 1_555 1_555
C4 C1 1_555 1_555
H4 C4 1_555 1_555
C5 C1 1_555 1_555
C6 C5 1_555 1_555
C7 C6 1_555 1_555
H5 C7 1_555 1_555
C8 C7 1_555 1_555
H6 C8 1_555 1_555
C9 C8 1_555 1_555
H7 C9 1_555 1_555
C10 C9 1_555 1_555
H8 C10 1_555 1_555
C11 C6 1_555 1_555
H9 C11 1_555 1_555
C12 C2 1_555 1_555
C13 C12 1_555 1_555
C14 C13 1_555 1_555
H10 C14 1_555 1_555
C15 C14 1_555 1_555
H11 C15 1_555 1_555
C16 C15 1_555 1_555
H12 C16 1_555 1_555
C17 C16 1_555 1_555
H13 C17 1_555 1_555
C18 C13 1_555 1_555
H14 C18 1_555 1_555
C19 C3 1_555 1_555
C20 C19 1_555 1_555
H15 C20 1_555 1_555
C21 C20 1_555 1_555
H16 C21 1_555 1_555
C22 C21 1_555 1_555
H17 C22 1_555 1_555
C23 C22 1_555 1_555
H18 C23 1_555 1_555
C24 C19 1_555 1_555
H19 C24 1_555 1_555
C25 C4 1_555 1_555
C26 C25 1_555 1_555
H20 C26 1_555 1_555
C27 C26 1_555 1_555
H21 C27 1_555 1_555
C28 C27 1_555 1_555
H22 C28 1_555 1_555
C29 C28 1_555 1_555
H23 C29 1_555 1_555
C30 C25 1_555 1_555
H24 C30 1_555 1_555
C3 C4 1_555 1_555
C10 C11 1_555 1_555
C17 C18 1_555 1_555
C23 C24 1_555 1_555
C29 C30 1_555 1_555

#END
