
#######################################################################
#
#                 Cambridge Crystallographic Data Centre
#                                CCDC 
#
#######################################################################
#
# If this CIF has been generated from an entry in the Cambridge 
# Structural Database, then it will include bibliographic, chemical, 
# crystal, experimental, refinement or atomic coordinate data resulting 
# from the CCDC's data processing and validation procedures.
#
#######################################################################

data_SINGED
_chemical_formula_moiety         'C41 H34 Cl2 N2 O2 Si1,C4 H8 O2'
_chemical_name_systematic        
'27,28-Dichloro-26,29-dioxo-12-(triisopropylsilyl)octacyclo[12.10.6.0^1,13^.0^2,11^.0^3,8^.0^15,24^.0^18,23^.0^25,30^]triaconta-2(11),3,5,7,9,12,15,17,19,21,23,27-dodecaene-25,30-dicarbonitrile ethyl acetate solvate'
_symmetry_cell_setting           monoclinic
_symmetry_space_group_name_H-M   'P 21/c'
_symmetry_Int_Tables_number      14
_space_group_name_Hall           '-P 2ybc'
loop_
_symmetry_equiv_pos_site_id
_symmetry_equiv_pos_as_xyz
1 x,y,z
2 -x,1/2+y,1/2-z
3 -x,-y,-z
4 x,1/2-y,1/2+z
_cell_length_a                   20.094(7)
_cell_length_b                   17.545(6)
_cell_length_c                   24.430(8)
_cell_angle_alpha                90
_cell_angle_beta                 112.452(5)
_cell_angle_gamma                90
_cell_volume                     7959.93
_exptl_crystal_colour            orange
_exptl_crystal_description       prism
_cell_formula_units_Z            8
loop_
_atom_site_label
_atom_site_type_symbol
_atom_site_fract_x
_atom_site_fract_y
_atom_site_fract_z
Cl1 Cl -0.0070(4) 0.8178(3) 0.1608(4)
Cl2 Cl -0.0377(5) 0.7584(6) 0.0283(4)
Si1 Si -0.1477(3) 0.5329(3) 0.1090(3)
O1 O 0.0592(11) 0.6379(13) 0.0309(9)
O2 O 0.1329(9) 0.7522(10) 0.2396(7)
N1 N 0.2118(9) 0.5399(11) 0.1135(7)
N2 N 0.2497(8) 0.6044(9) 0.2633(6)
C1 C -0.0594(8) 0.5742(10) 0.1601(6)
C2 C 0.0051(8) 0.5617(10) 0.1599(6)
C3 C 0.0458(9) 0.5287(11) 0.1263(8)
H1 H 0.029(9) 0.525(10) 0.077(7)
C4 C 0.0856(8) 0.4707(9) 0.1704(6)
C5 C 0.1147(10) 0.3975(12) 0.1606(8)
H2 H 0.1080 0.3775 0.1170
C6 C 0.1490(10) 0.3587(12) 0.2083(8)
H3 H 0.1688 0.3032 0.2028
C7 C 0.1628(9) 0.3829(10) 0.2673(7)
C8 C 0.1990(13) 0.3372(16) 0.3166(10)
H4 H 0.2213 0.2837 0.3098
C9 C 0.2078(17) 0.358(2) 0.3745(13)
H5 H 0.2333 0.3196 0.4113
C10 C 0.1805(12) 0.4345(14) 0.3835(10)
H6 H 0.1899 0.4560 0.4272
C11 C 0.1443(9) 0.4747(11) 0.3352(7)
H7 H 0.1193 0.5274 0.3402
C12 C 0.1368(9) 0.4526(10) 0.2785(6)
C13 C 0.0975(8) 0.4968(9) 0.2258(6)
C14 C 0.0668(8) 0.5818(10) 0.2178(6)
C15 C 0.0267(9) 0.6139(10) 0.2537(7)
C16 C 0.0532(9) 0.6562(11) 0.3099(7)
C17 C 0.1288(11) 0.6650(12) 0.3441(8)
H8 H 0.1675 0.6407 0.3282
C18 C 0.1510(14) 0.7020(16) 0.3939(10)
H9 H 0.2070 0.7184 0.4138
C19 C 0.1017(14) 0.7230(17) 0.4253(11)
H10 H 0.1220 0.7412 0.4710
C20 C 0.0274(13) 0.7171(15) 0.3909(10)
H11 H -0.0109 0.7409 0.4074
C21 C 0.0012(10) 0.6786(11) 0.3323(7)
C22 C -0.0685(9) 0.6759(10) 0.2986(7)
H12 H -0.1068 0.7013 0.3144
C23 C -0.0936(9) 0.6402(10) 0.2424(7)
H13 H -0.1507 0.6363 0.2166
C24 C -0.0463(9) 0.6112(10) 0.2210(6)
C25 C 0.1000(10) 0.5951(11) 0.1287(7)
C26 C 0.0613(11) 0.6497(13) 0.0785(9)
C27 C 0.0188(13) 0.7184(15) 0.0906(10)
C28 C 0.0360(12) 0.7406(14) 0.1426(9)
C29 C 0.0993(12) 0.7122(14) 0.1943(9)
C30 C 0.1176(9) 0.6301(10) 0.1950(7)
C31 C 0.1632(9) 0.5688(10) 0.1223(6)
C32 C 0.1942(10) 0.6174(10) 0.2334(7)
C33 C -0.1684(17) 0.5943(15) 0.0398(10)
H14 H -0.2207 0.5708 0.0121
C34 C -0.192(2) 0.6758(16) 0.0512(16)
H15 H -0.2058 0.6745 0.0904
H16 H -0.2393 0.6936 0.0130
H17 H -0.1484 0.7159 0.0582
C35 C -0.1224(19) 0.564(2) 0.0056(13)
H18 H -0.0723 0.5403 0.0369
H19 H -0.1104 0.6111 -0.0185
H20 H -0.1524 0.5203 -0.0257
C36 C -0.1203(15) 0.4363(12) 0.0905(11)
H21 H -0.0800 0.4445 0.0712
C37 C -0.1870(15) 0.3946(16) 0.0439(12)
H22 H -0.2204 0.3711 0.0660
H23 H -0.1686 0.3487 0.0231
H24 H -0.2186 0.4352 0.0102
C38 C -0.0856(16) 0.3884(15) 0.1489(11)
H25 H -0.0294 0.4047 0.1715
H26 H -0.0889 0.3279 0.1379
H27 H -0.1146 0.3992 0.1778
C39 C -0.2291(11) 0.532(2) 0.1291(11)
H28 H -0.2295 0.5902 0.1447
C40 C -0.212(2) 0.485(3) 0.1871(16)
H29 H -0.1751 0.4385 0.1886
H30 H -0.2619 0.4607 0.1877
H31 H -0.1876 0.5215 0.2255
C41 C -0.2977(13) 0.531(2) 0.0704(12)
H32 H -0.2828 0.5466 0.0333
H33 H -0.3368 0.5720 0.0737
H34 H -0.3212 0.4743 0.0632
Cl3 Cl 0.5746(4) 0.4439(3) 0.3420(3)
Cl4 Cl 0.6473(6) 0.5106(3) 0.4729(4)
Si2 Si 0.4799(3) 0.7398(3) 0.3935(3)
O3 O 0.7532(8) 0.6274(9) 0.4777(6)
O4 O 0.6527(6) 0.5078(7) 0.2717(5)
N3 N 0.8403(8) 0.7170(9) 0.3987(6)
N4 N 0.7409(7) 0.6579(8) 0.2454(6)
C42 C 0.5258(9) 0.6924(10) 0.3478(7)
C43 C 0.5907(9) 0.6996(10) 0.3501(7)
C44 C 0.6611(9) 0.7360(10) 0.3800(7)
H35 H 0.6715 0.7584 0.4241
C45 C 0.6638(8) 0.7934(9) 0.3350(6)
C46 C 0.6956(9) 0.8604(10) 0.3382(7)
H36 H 0.7280 0.8832 0.3813
C47 C 0.6886(9) 0.9026(10) 0.2874(7)
H37 H 0.7172 0.9557 0.2911
C48 C 0.6461(8) 0.8760(9) 0.2346(6)
C49 C 0.6330(9) 0.9211(11) 0.1819(7)
H38 H 0.6605 0.9751 0.1864
C50 C 0.5882(9) 0.8990(10) 0.1275(7)
H39 H 0.5810 0.9331 0.0889
C51 C 0.5503(9) 0.8285(11) 0.1228(7)
H40 H 0.5120 0.8100 0.0803
C52 C 0.5621(9) 0.7862(10) 0.1704(6)
H41 H 0.5345 0.7322 0.1644
C53 C 0.6048(8) 0.8050(9) 0.2244(6)
C54 C 0.6214(8) 0.7641(9) 0.2792(6)
C55 C 0.6002(9) 0.6794(10) 0.2920(7)
C56 C 0.5266(9) 0.6440(10) 0.2540(7)
C57 C 0.5005(8) 0.6086(9) 0.2008(6)
C58 C 0.5426(9) 0.5920(10) 0.1643(6)
H42 H 0.5979 0.6108 0.1797
C59 C 0.5144(9) 0.5542(10) 0.1124(7)
H43 H 0.5474 0.5426 0.0873
C60 C 0.4411(9) 0.5295(10) 0.0906(7)
H44 H 0.4190 0.5015 0.0481
C61 C 0.4004(11) 0.5397(12) 0.1202(8)
H45 H 0.3457 0.5187 0.1030
C62 C 0.4288(11) 0.5799(12) 0.1773(8)
C63 C 0.3860(11) 0.5917(11) 0.2124(8)
H46 H 0.3314 0.5705 0.1964
C64 C 0.4119(10) 0.6277(11) 0.2631(7)
H47 H 0.3777 0.6361 0.2876
C65 C 0.4834(9) 0.6560(10) 0.2869(7)
C66 C 0.7095(11) 0.6665(12) 0.3772(8)
C67 C 0.7162(11) 0.6156(12) 0.4272(8)
C68 C 0.6611(13) 0.5488(15) 0.4138(10)
C69 C 0.6313(12) 0.5184(13) 0.3584(9)
C70 C 0.6535(9) 0.5466(11) 0.3109(7)
C71 C 0.6718(9) 0.6321(10) 0.3125(7)
C72 C 0.7851(10) 0.6932(11) 0.3902(7)
C73 C 0.7125(8) 0.6460(9) 0.2743(6)
C74 C 0.5547(9) 0.7822(10) 0.4574(7)
H48 H 0.5883 0.8143 0.4395
C75 C 0.6032(13) 0.7230(14) 0.5002(10)
H49 H 0.5724 0.6922 0.5215
H50 H 0.6487 0.7515 0.5338
H51 H 0.6229 0.6829 0.4758
C76 C 0.5299(14) 0.8377(14) 0.4939(10)
H52 H 0.5188 0.8930 0.4720
H53 H 0.5720 0.8437 0.5379
H54 H 0.4811 0.8159 0.4977
C77 C 0.4239(10) 0.8163(10) 0.3419(8)
H55 H 0.3824 0.7879 0.3048
C78 C 0.3858(18) 0.860(2) 0.3772(14)
H56 H 0.3414 0.8251 0.3788
H57 H 0.3649 0.9136 0.3554
H58 H 0.4242 0.8703 0.4221
C79 C 0.4676(12) 0.8670(13) 0.3165(10)
H59 H 0.5201 0.8790 0.3510
H60 H 0.4389 0.9204 0.3007
H61 H 0.4748 0.8376 0.2798
C80 C 0.4098(13) 0.6774(16) 0.4050(13)
H62 H 0.3991 0.6498 0.3625
C81 C 0.456(2) 0.608(2) 0.4376(19)
H63 H 0.4422 0.5586 0.4084
H64 H 0.4462 0.5956 0.4775
H65 H 0.5131 0.6214 0.4497
C82 C 0.340(3) 0.643(5) 0.407(3)
H66 H 0.3100 0.6160 0.3645
H67 H 0.3080 0.6887 0.4147
H68 H 0.3538 0.6014 0.4422
O5 O 0.7036(12) 0.2825(14) 0.3700(9)
O6 O 0.8057(12) 0.2297(13) 0.3673(9)
C83 C 0.6442(14) 0.240(2) 0.4340(12)
H69 H 0.6049 0.1960 0.4126
H70 H 0.6196 0.2962 0.4203
H71 H 0.6620 0.2351 0.4820
C84 C 0.7082(15) 0.232(2) 0.4163(13)
H72 H 0.7576 0.2437 0.4546
H73 H 0.7109 0.1737 0.4021
C85 C 0.763(2) 0.280(3) 0.361(2)
C86 C 0.749(3) 0.321(3) 0.3066(19)
H74 H 0.6960 0.3044 0.2744
H75 H 0.7899 0.3075 0.2893
H76 H 0.7490 0.3822 0.3147
O7 O 0.896(2) 0.467(3) 0.4216(18)
O8 O 0.8044(10) 0.5309(13) 0.3859(8)
C87 C 1.0135(18) 0.511(3) 0.417(2)
H77 H 1.0360 0.5462 0.3920
H78 H 1.0302 0.4520 0.4169
H79 H 1.0329 0.5314 0.4630
C88 C 0.9317(17) 0.516(2) 0.3902(14)
H80 H 0.9155 0.5750 0.3913
H81 H 0.9130 0.4984 0.3440
C89 C 0.830(3) 0.478(4) 0.419(4)
C90 C 0.812(2) 0.421(2) 0.4542(17)
H82 H 0.8292 0.3646 0.4452
H83 H 0.7543 0.4206 0.4428
H84 H 0.8398 0.4339 0.5011
loop_
_geom_bond_atom_site_label_1
_geom_bond_atom_site_label_2
_geom_bond_site_symmetry_1
_geom_bond_site_symmetry_2
Cl1 C28 1_555 1_555
Cl2 C27 1_555 1_555
Si1 C1 1_555 1_555
O1 C26 1_555 1_555
O2 C29 1_555 1_555
N1 C31 1_555 1_555
N2 C32 1_555 1_555
C1 C2 1_555 1_555
C2 C3 1_555 1_555
C3 H1 1_555 1_555
C4 C3 1_555 1_555
C5 C4 1_555 1_555
H2 C5 1_555 1_555
C6 C5 1_555 1_555
H3 C6 1_555 1_555
C7 C6 1_555 1_555
C8 C7 1_555 1_555
H4 C8 1_555 1_555
C9 C8 1_555 1_555
H5 C9 1_555 1_555
C10 C9 1_555 1_555
H6 C10 1_555 1_555
C11 C10 1_555 1_555
H7 C11 1_555 1_555
C12 C7 1_555 1_555
C13 C4 1_555 1_555
C14 C2 1_555 1_555
C15 C14 1_555 1_555
C16 C15 1_555 1_555
C17 C16 1_555 1_555
H8 C17 1_555 1_555
C18 C17 1_555 1_555
H9 C18 1_555 1_555
C19 C18 1_555 1_555
H10 C19 1_555 1_555
C20 C19 1_555 1_555
H11 C20 1_555 1_555
C21 C16 1_555 1_555
C22 C21 1_555 1_555
H12 C22 1_555 1_555
C23 C22 1_555 1_555
H13 C23 1_555 1_555
C24 C1 1_555 1_555
C25 C3 1_555 1_555
C26 C25 1_555 1_555
C27 C26 1_555 1_555
C28 C27 1_555 1_555
C29 C28 1_555 1_555
C30 C14 1_555 1_555
C31 C25 1_555 1_555
C32 C30 1_555 1_555
C33 Si1 1_555 1_555
H14 C33 1_555 1_555
C34 C33 1_555 1_555
H15 C34 1_555 1_555
H16 C34 1_555 1_555
H17 C34 1_555 1_555
C35 C33 1_555 1_555
H18 C35 1_555 1_555
H19 C35 1_555 1_555
H20 C35 1_555 1_555
C36 Si1 1_555 1_555
H21 C36 1_555 1_555
C37 C36 1_555 1_555
H22 C37 1_555 1_555
H23 C37 1_555 1_555
H24 C37 1_555 1_555
C38 C36 1_555 1_555
H25 C38 1_555 1_555
H26 C38 1_555 1_555
H27 C38 1_555 1_555
C39 Si1 1_555 1_555
H28 C39 1_555 1_555
C40 C39 1_555 1_555
H29 C40 1_555 1_555
H30 C40 1_555 1_555
H31 C40 1_555 1_555
C41 C39 1_555 1_555
H32 C41 1_555 1_555
H33 C41 1_555 1_555
H34 C41 1_555 1_555
Cl3 C69 1_555 1_555
Cl4 C68 1_555 1_555
Si2 C42 1_555 1_555
O3 C67 1_555 1_555
O4 C70 1_555 1_555
N3 C72 1_555 1_555
N4 C73 1_555 1_555
C42 C43 1_555 1_555
C43 C44 1_555 1_555
C44 H35 1_555 1_555
C45 C44 1_555 1_555
C46 C45 1_555 1_555
H36 C46 1_555 1_555
C47 C46 1_555 1_555
H37 C47 1_555 1_555
C48 C47 1_555 1_555
C49 C48 1_555 1_555
H38 C49 1_555 1_555
C50 C49 1_555 1_555
H39 C50 1_555 1_555
C51 C50 1_555 1_555
H40 C51 1_555 1_555
C52 C51 1_555 1_555
H41 C52 1_555 1_555
C53 C48 1_555 1_555
C54 C45 1_555 1_555
C55 C43 1_555 1_555
C56 C55 1_555 1_555
C57 C56 1_555 1_555
C58 C57 1_555 1_555
H42 C58 1_555 1_555
C59 C58 1_555 1_555
H43 C59 1_555 1_555
C60 C59 1_555 1_555
H44 C60 1_555 1_555
C61 C60 1_555 1_555
H45 C61 1_555 1_555
C62 C57 1_555 1_555
C63 C62 1_555 1_555
H46 C63 1_555 1_555
C64 C63 1_555 1_555
H47 C64 1_555 1_555
C65 C42 1_555 1_555
C66 C44 1_555 1_555
C67 C66 1_555 1_555
C68 C67 1_555 1_555
C69 C68 1_555 1_555
C70 C69 1_555 1_555
C71 C55 1_555 1_555
C72 C66 1_555 1_555
C73 C71 1_555 1_555
C74 Si2 1_555 1_555
H48 C74 1_555 1_555
C75 C74 1_555 1_555
H49 C75 1_555 1_555
H50 C75 1_555 1_555
H51 C75 1_555 1_555
C76 C74 1_555 1_555
H52 C76 1_555 1_555
H53 C76 1_555 1_555
H54 C76 1_555 1_555
C77 Si2 1_555 1_555
H55 C77 1_555 1_555
C78 C77 1_555 1_555
H56 C78 1_555 1_555
H57 C78 1_555 1_555
H58 C78 1_555 1_555
C79 C77 1_555 1_555
H59 C79 1_555 1_555
H60 C79 1_555 1_555
H61 C79 1_555 1_555
C80 Si2 1_555 1_555
H62 C80 1_555 1_555
C81 C80 1_555 1_555
H63 C81 1_555 1_555
H64 C81 1_555 1_555
H65 C81 1_555 1_555
C82 C80 1_555 1_555
H66 C82 1_555 1_555
H67 C82 1_555 1_555
H68 C82 1_555 1_555
O5 C84 1_555 1_555
O6 C85 1_555 1_555
C83 H69 1_555 1_555
H70 C83 1_555 1_555
H71 C83 1_555 1_555
C84 C83 1_555 1_555
H72 C84 1_555 1_555
H73 C84 1_555 1_555
C85 O5 1_555 1_555
C86 C85 1_555 1_555
H74 C86 1_555 1_555
H75 C86 1_555 1_555
H76 C86 1_555 1_555
O7 C88 1_555 1_555
O8 C89 1_555 1_555
C87 H77 1_555 1_555
H78 C87 1_555 1_555
H79 C87 1_555 1_555
C88 C87 1_555 1_555
H80 C88 1_555 1_555
H81 C88 1_555 1_555
C89 O7 1_555 1_555
C90 C89 1_555 1_555
H82 C90 1_555 1_555
H83 C90 1_555 1_555
H84 C90 1_555 1_555
C11 C12 1_555 1_555
C12 C13 1_555 1_555
C13 C14 1_555 1_555
C15 C24 1_555 1_555
C20 C21 1_555 1_555
C23 C24 1_555 1_555
C25 C30 1_555 1_555
C29 C30 1_555 1_555
C52 C53 1_555 1_555
C53 C54 1_555 1_555
C54 C55 1_555 1_555
C56 C65 1_555 1_555
C61 C62 1_555 1_555
C64 C65 1_555 1_555
C66 C71 1_555 1_555
C70 C71 1_555 1_555

#END
