
#######################################################################
#
#                 Cambridge Crystallographic Data Centre
#                                CCDC 
#
#######################################################################
#
# If this CIF has been generated from an entry in the Cambridge 
# Structural Database, then it will include bibliographic, chemical, 
# crystal, experimental, refinement or atomic coordinate data resulting 
# from the CCDC's data processing and validation procedures.
#
#######################################################################

data_SINGON
_chemical_formula_moiety         'C33 H34 O2 Si1,0.25(C4 H10 O1)'
_chemical_name_systematic        
"9-(Tri-isopropylsilyl)naphtho[2',1':6,7]cycloocta[1,2-a]naphthalene-7,16-dione diethyl ether solvate"
_symmetry_cell_setting           monoclinic
_symmetry_space_group_name_H-M   'C 2/c'
_symmetry_Int_Tables_number      15
_space_group_name_Hall           '-C 2yn'
loop_
_symmetry_equiv_pos_site_id
_symmetry_equiv_pos_as_xyz
1 x,y,z
2 -x,y,1/2-z
3 1/2+x,1/2+y,z
4 1/2-x,1/2+y,1/2-z
5 -x,-y,-z
6 x,-y,1/2+z
7 1/2-x,1/2-y,-z
8 1/2+x,1/2-y,1/2+z
_cell_length_a                   38.218(8)
_cell_length_b                   19.296(4)
_cell_length_c                   8.5140(18)
_cell_angle_alpha                90
_cell_angle_beta                 90.665(4)
_cell_angle_gamma                90
_cell_volume                     6278.26
_exptl_crystal_colour            yellow
_exptl_crystal_description       plate
_cell_formula_units_Z            8
loop_
_atom_site_label
_atom_site_type_symbol
_atom_site_fract_x
_atom_site_fract_y
_atom_site_fract_z
Si1 Si 0.41540(2) 0.17902(3) 1.14333(7)
O1 O 0.37405(4) 0.03826(8) 0.70771(18)
O2 O 0.29974(4) 0.18861(7) 1.07246(17)
C1 C 0.44740(9) 0.29831(19) 1.2836(5)
H1 H 0.4485 0.3547 1.2883
H2 H 0.4725 0.2781 1.2444
H3 H 0.4418 0.2780 1.4001
C2 C 0.41851(6) 0.27599(13) 1.1686(3)
H4 H 0.4256 0.2970 1.0544
C3 C 0.38348(5) 0.15864(11) 0.9761(2)
C4 C 0.37505(5) 0.09193(11) 0.9533(2)
H5 H 0.3823 0.0559 1.0452
C5 C 0.35643(6) 0.06264(10) 0.8114(2)
C6 C 0.31757(6) 0.05542(10) 0.8081(2)
C7 C 0.30457(6) -0.00712(11) 0.7402(2)
H6 H 0.3225 -0.0437 0.6892
C8 C 0.26976(6) -0.02099(11) 0.7394(2)
H7 H 0.2604 -0.0691 0.6894
C9 C 0.24560(6) 0.02640(10) 0.8029(2)
C10 C 0.20913(6) 0.01263(11) 0.7988(3)
H8 H 0.1996 -0.0343 0.7437
C11 C 0.18586(6) 0.05785(12) 0.8634(3)
H9 H 0.1582 0.0463 0.8609
C12 C 0.38401(7) 0.30981(13) 1.2121(3)
H10 H 0.3779 0.2975 1.3337
H11 H 0.3632 0.2903 1.1353
H12 H 0.3861 0.3658 1.1985
C13 C 0.36825(5) 0.21043(11) 0.8667(2)
C14 C 0.38969(6) 0.25737(11) 0.7817(2)
H13 H 0.4177 0.2563 0.7997
C15 C 0.37545(6) 0.30369(11) 0.6778(3)
H14 H 0.3924 0.3384 0.6147
C16 C 0.33893(6) 0.30700(11) 0.6513(2)
C17 C 0.32362(6) 0.35444(11) 0.5434(3)
H15 H 0.3402 0.3888 0.4772
C18 C 0.28811(7) 0.35720(11) 0.5222(3)
H16 H 0.2769 0.3931 0.4384
C19 C 0.26596(6) 0.31324(11) 0.6097(3)
H17 H 0.2379 0.3169 0.5947
C20 C 0.27984(6) 0.26617(11) 0.7128(2)
H18 H 0.2627 0.2325 0.7777
C21 C 0.31686(6) 0.26100(10) 0.7356(2)
C22 C 0.33235(5) 0.21339(10) 0.8435(2)
C23 C 0.30851(5) 0.16911(10) 0.9426(2)
C24 C 0.29478(5) 0.10260(10) 0.8734(2)
C25 C 0.25792(5) 0.08938(10) 0.8724(2)
C26 C 0.23293(6) 0.13516(11) 0.9377(2)
H19 H 0.2416 0.1830 0.9914
C27 C 0.19811(6) 0.11973(12) 0.9336(3)
H20 H 0.1796 0.1553 0.9847
C28 C 0.40020(6) 0.13052(12) 1.3222(2)
H21 H 0.3981 0.0764 1.2864
C29 C 0.36397(6) 0.15088(13) 1.3813(3)
H22 H 0.3552 0.1128 1.4669
H23 H 0.3455 0.1525 1.2827
H24 H 0.3654 0.2018 1.4363
C30 C 0.42703(6) 0.13172(16) 1.4583(3)
H25 H 0.4284 0.1838 1.5076
H26 H 0.4527 0.1168 1.4148
H27 H 0.4190 0.0954 1.5491
C31 C 0.45992(6) 0.14445(14) 1.0863(3)
H28 H 0.4781 0.1603 1.1792
C32 C 0.46160(8) 0.06501(17) 1.0791(4)
H29 H 0.4453 0.0465 0.9819
H30 H 0.4521 0.0434 1.1890
H31 H 0.4886 0.0487 1.0614
C33 C 0.47335(7) 0.1767(2) 0.9347(4)
H32 H 0.5003 0.1603 0.9158
H33 H 0.4724 0.2330 0.9440
H34 H 0.4570 0.1599 0.8362
loop_
_geom_bond_atom_site_label_1
_geom_bond_atom_site_label_2
_geom_bond_site_symmetry_1
_geom_bond_site_symmetry_2
Si1 C2 1_555 1_555
O1 C5 1_555 1_555
O2 C23 1_555 1_555
C1 H1 1_555 1_555
H2 C1 1_555 1_555
H3 C1 1_555 1_555
C2 C1 1_555 1_555
H4 C2 1_555 1_555
C3 Si1 1_555 1_555
C4 C3 1_555 1_555
H5 C4 1_555 1_555
C5 C4 1_555 1_555
C6 C5 1_555 1_555
C7 C6 1_555 1_555
H6 C7 1_555 1_555
C8 C7 1_555 1_555
H7 C8 1_555 1_555
C9 C8 1_555 1_555
C10 C9 1_555 1_555
H8 C10 1_555 1_555
C11 C10 1_555 1_555
H9 C11 1_555 1_555
C12 C2 1_555 1_555
H10 C12 1_555 1_555
H11 C12 1_555 1_555
H12 C12 1_555 1_555
C13 C3 1_555 1_555
C14 C13 1_555 1_555
H13 C14 1_555 1_555
C15 C14 1_555 1_555
H14 C15 1_555 1_555
C16 C15 1_555 1_555
C17 C16 1_555 1_555
H15 C17 1_555 1_555
C18 C17 1_555 1_555
H16 C18 1_555 1_555
C19 C18 1_555 1_555
H17 C19 1_555 1_555
C20 C19 1_555 1_555
H18 C20 1_555 1_555
C21 C16 1_555 1_555
C22 C13 1_555 1_555
C23 C22 1_555 1_555
C24 C6 1_555 1_555
C25 C9 1_555 1_555
C26 C25 1_555 1_555
H19 C26 1_555 1_555
C27 C11 1_555 1_555
H20 C27 1_555 1_555
C28 Si1 1_555 1_555
H21 C28 1_555 1_555
C29 C28 1_555 1_555
H22 C29 1_555 1_555
H23 C29 1_555 1_555
H24 C29 1_555 1_555
C30 C28 1_555 1_555
H25 C30 1_555 1_555
H26 C30 1_555 1_555
H27 C30 1_555 1_555
C31 Si1 1_555 1_555
H28 C31 1_555 1_555
C32 C31 1_555 1_555
H29 C32 1_555 1_555
H30 C32 1_555 1_555
H31 C32 1_555 1_555
C33 C31 1_555 1_555
H32 C33 1_555 1_555
H33 C33 1_555 1_555
H34 C33 1_555 1_555
C20 C21 1_555 1_555
C21 C22 1_555 1_555
C23 C24 1_555 1_555
C24 C25 1_555 1_555
C26 C27 1_555 1_555

#END
