
#######################################################################
#
#                 Cambridge Crystallographic Data Centre
#                                CCDC 
#
#######################################################################
#
# If this CIF has been generated from an entry in the Cambridge 
# Structural Database, then it will include bibliographic, chemical, 
# crystal, experimental, refinement or atomic coordinate data resulting 
# from the CCDC's data processing and validation procedures.
#
#######################################################################

data_SINGAZ
_chemical_formula_moiety         'C39 H36 N4 Si1'
_chemical_name_systematic        
12-(Tri-isopropylsilyl)heptacyclo[12.10.2.0^1,13^.0^2,11^.0^3,8^.0^15,24^.0^18,23^]hexacosa-2(11),3,5,7,12,15,17,19,21,23-decaene-25,25,26,26-tetracarbonitrile
_symmetry_cell_setting           triclinic
_symmetry_space_group_name_H-M   'P -1'
_symmetry_Int_Tables_number      2
_space_group_name_Hall           '-P 1'
loop_
_symmetry_equiv_pos_site_id
_symmetry_equiv_pos_as_xyz
1 x,y,z
2 -x,-y,-z
_cell_length_a                   8.265(2)
_cell_length_b                   11.375(3)
_cell_length_c                   17.895(4)
_cell_angle_alpha                105.856(9)
_cell_angle_beta                 99.890(9)
_cell_angle_gamma                94.670(10)
_cell_volume                     1579.64
_exptl_crystal_colour            colorless
_exptl_crystal_description       plate
_cell_formula_units_Z            2
loop_
_atom_site_label
_atom_site_type_symbol
_atom_site_fract_x
_atom_site_fract_y
_atom_site_fract_z
Si1 Si 0.25166(7) 1.26304(5) 0.35582(3)
N1 N 0.6797(2) 0.96076(18) 0.23391(10)
N2 N 0.3806(2) 0.60389(17) 0.16825(10)
N3 N 0.6526(2) 0.98985(17) 0.43986(10)
N4 N 0.3558(2) 0.64524(17) 0.36799(10)
C1 C 0.4069(3) 0.83816(18) 0.24408(11)
C2 C 0.3962(3) 0.85535(18) 0.33646(11)
C3 C 0.2366(3) 0.92345(19) 0.34426(11)
H1 H 0.236(2) 0.9593(17) 0.4007(11)
C4 C 0.0916(3) 0.83035(18) 0.29358(11)
C5 C -0.0276(3) 0.76287(19) 0.31796(12)
H2 H -0.025(2) 0.7788(18) 0.3743(11)
C6 C -0.1423(3) 0.6771(2) 0.26071(12)
H3 H -0.225(3) 0.6271(19) 0.2750(11)
C7 C -0.1394(3) 0.65469(18) 0.17870(11)
C8 C -0.2562(3) 0.5626(2) 0.12045(12)
H4 H -0.340(3) 0.519(2) 0.1389(11)
C9 C -0.2540(3) 0.5392(2) 0.04139(13)
H5 H -0.335(3) 0.473(2) -0.0013(13)
C10 C -0.1341(3) 0.60717(19) 0.01748(12)
H6 H -0.135(3) 0.5931(18) -0.0375(12)
C11 C -0.0200(3) 0.69700(19) 0.07156(11)
H7 H 0.063(2) 0.7436(18) 0.0546(10)
C12 C -0.0179(2) 0.72340(18) 0.15387(11)
C13 C 0.0982(2) 0.81267(18) 0.21440(11)
C14 C 0.2496(3) 0.89818(18) 0.21327(10)
C15 C 0.2532(2) 1.00061(18) 0.28891(10)
C16 C 0.5612(3) 0.9061(2) 0.23831(11)
C17 C 0.3964(3) 0.7062(2) 0.20094(11)
C18 C 0.5430(3) 0.93171(19) 0.39271(11)
C19 C 0.3749(3) 0.7367(2) 0.35403(11)
C20 C 0.2543(2) 1.11263(18) 0.27824(10)
C21 C 0.2574(2) 1.09006(18) 0.19200(10)
C22 C 0.2629(3) 1.1853(2) 0.14884(12)
H8 H 0.206(3) 1.258(2) 0.1733(11)
H9 H 0.378(3) 1.2184(19) 0.1539(11)
C23 C 0.1832(3) 1.1275(2) 0.06126(12)
H10 H 0.202(2) 1.1843(18) 0.0332(11)
H11 H 0.061(3) 1.104(2) 0.0554(12)
C24 C 0.2514(3) 1.01077(19) 0.02607(11)
C25 C 0.2784(3) 0.9807(2) -0.05096(11)
H12 H 0.254(3) 1.039(2) -0.0819(12)
C26 C 0.3392(3) 0.8721(2) -0.08285(12)
H13 H 0.362(3) 0.8556(19) -0.1343(12)
C27 C 0.3740(3) 0.7929(2) -0.03765(12)
H14 H 0.416(3) 0.713(2) -0.0592(12)
C28 C 0.3469(3) 0.8213(2) 0.03930(11)
H15 H 0.373(2) 0.7611(18) 0.0689(10)
C29 C 0.2852(2) 0.93038(18) 0.07219(11)
C30 C 0.2601(2) 0.96940(18) 0.15391(10)
C31 C 0.0922(3) 1.35107(19) 0.31502(11)
H16 H 0.152(2) 1.3984(18) 0.2853(11)
C32 C -0.0649(3) 1.2707(2) 0.26105(14)
H17 H -0.041(3) 1.203(2) 0.2161(13)
H18 H -0.142(3) 1.324(2) 0.2373(13)
H19 H -0.131(3) 1.226(2) 0.2908(13)
C33 C 0.0453(3) 1.4520(2) 0.38087(13)
H20 H 0.146(3) 1.5081(19) 0.4211(11)
H21 H -0.021(3) 1.4166(18) 0.4140(11)
H22 H -0.025(3) 1.505(2) 0.3578(11)
C34 C 0.4646(3) 1.35476(19) 0.38279(11)
H23 H 0.450(3) 1.433(2) 0.4227(11)
C35 C 0.5236(3) 1.3880(2) 0.31369(13)
H24 H 0.440(3) 1.427(2) 0.2817(12)
H25 H 0.630(3) 1.443(2) 0.3345(12)
H26 H 0.552(2) 1.3081(19) 0.2749(11)
C36 C 0.5959(3) 1.2919(2) 0.42271(14)
H27 H 0.565(3) 1.272(2) 0.4692(13)
H28 H 0.711(3) 1.346(2) 0.4427(13)
H29 H 0.617(3) 1.216(2) 0.3864(12)
C37 C 0.2073(3) 1.21883(19) 0.44536(11)
H30 H 0.292(3) 1.1613(18) 0.4553(11)
C38 C 0.2443(3) 1.3261(2) 0.52255(12)
H31 H 0.159(3) 1.3814(18) 0.5207(11)
H32 H 0.355(3) 1.377(2) 0.5318(12)
H33 H 0.242(2) 1.2924(18) 0.5713(11)
C39 C 0.0337(3) 1.1493(2) 0.43335(13)
H34 H -0.052(3) 1.210(2) 0.4354(12)
H35 H 0.024(3) 1.1097(19) 0.4774(12)
H36 H -0.003(3) 1.085(2) 0.3809(13)
loop_
_geom_bond_atom_site_label_1
_geom_bond_atom_site_label_2
_geom_bond_site_symmetry_1
_geom_bond_site_symmetry_2
Si1 C20 1_555 1_555
N1 C16 1_555 1_555
N2 C17 1_555 1_555
N3 C18 1_555 1_555
N4 C19 1_555 1_555
C1 C2 1_555 1_555
C2 C3 1_555 1_555
C3 H1 1_555 1_555
C4 C3 1_555 1_555
C5 C4 1_555 1_555
H2 C5 1_555 1_555
C6 C5 1_555 1_555
H3 C6 1_555 1_555
C7 C6 1_555 1_555
C8 C7 1_555 1_555
H4 C8 1_555 1_555
C9 C8 1_555 1_555
H5 C9 1_555 1_555
C10 C9 1_555 1_555
H6 C10 1_555 1_555
C11 C10 1_555 1_555
H7 C11 1_555 1_555
C12 C7 1_555 1_555
C13 C4 1_555 1_555
C14 C1 1_555 1_555
C15 C3 1_555 1_555
C16 C1 1_555 1_555
C17 C1 1_555 1_555
C18 C2 1_555 1_555
C19 C2 1_555 1_555
C20 C15 1_555 1_555
C21 C20 1_555 1_555
C22 C21 1_555 1_555
H8 C22 1_555 1_555
H9 C22 1_555 1_555
C23 C22 1_555 1_555
H10 C23 1_555 1_555
H11 C23 1_555 1_555
C24 C23 1_555 1_555
C25 C24 1_555 1_555
H12 C25 1_555 1_555
C26 C25 1_555 1_555
H13 C26 1_555 1_555
C27 C26 1_555 1_555
H14 C27 1_555 1_555
C28 C27 1_555 1_555
H15 C28 1_555 1_555
C29 C24 1_555 1_555
C30 C14 1_555 1_555
C31 Si1 1_555 1_555
H16 C31 1_555 1_555
C32 C31 1_555 1_555
H17 C32 1_555 1_555
H18 C32 1_555 1_555
H19 C32 1_555 1_555
C33 C31 1_555 1_555
H20 C33 1_555 1_555
H21 C33 1_555 1_555
H22 C33 1_555 1_555
C34 Si1 1_555 1_555
H23 C34 1_555 1_555
C35 C34 1_555 1_555
H24 C35 1_555 1_555
H25 C35 1_555 1_555
H26 C35 1_555 1_555
C36 C34 1_555 1_555
H27 C36 1_555 1_555
H28 C36 1_555 1_555
H29 C36 1_555 1_555
C37 Si1 1_555 1_555
H30 C37 1_555 1_555
C38 C37 1_555 1_555
H31 C38 1_555 1_555
H32 C38 1_555 1_555
H33 C38 1_555 1_555
C39 C37 1_555 1_555
H34 C39 1_555 1_555
H35 C39 1_555 1_555
H36 C39 1_555 1_555
C11 C12 1_555 1_555
C12 C13 1_555 1_555
C13 C14 1_555 1_555
C14 C15 1_555 1_555
C21 C30 1_555 1_555
C28 C29 1_555 1_555
C29 C30 1_555 1_555

#END
