
#######################################################################
#
#                 Cambridge Crystallographic Data Centre
#                                CCDC 
#
#######################################################################
#
# If this CIF has been generated from an entry in the Cambridge 
# Structural Database, then it will include bibliographic, chemical, 
# crystal, experimental, refinement or atomic coordinate data resulting 
# from the CCDC's data processing and validation procedures.
#
#######################################################################

data_SINHUT
_chemical_formula_moiety         'C14 H18 O9'
_chemical_name_systematic        
1,5-Anhydro-2,3,4,6-tetra-O-acetyl-D-lyxo-hex-1-enitol
_symmetry_cell_setting           orthorhombic
_symmetry_space_group_name_H-M   'P 21 21 21'
_symmetry_Int_Tables_number      19
_space_group_name_Hall           'P 2ac 2ab'
loop_
_symmetry_equiv_pos_site_id
_symmetry_equiv_pos_as_xyz
1 x,y,z
2 1/2-x,-y,1/2+z
3 -x,1/2+y,1/2-z
4 1/2+x,1/2-y,-z
_cell_length_a                   5.5438(9)
_cell_length_b                   12.234(2)
_cell_length_c                   24.312(4)
_cell_angle_alpha                90
_cell_angle_beta                 90
_cell_angle_gamma                90
_cell_volume                     1648.91
_exptl_crystal_colour            colorless
_exptl_crystal_description       block
_cell_formula_units_Z            4
_exptl_crystal_recrystallization_method ethanol
loop_
_atom_site_label
_atom_site_type_symbol
_atom_site_fract_x
_atom_site_fract_y
_atom_site_fract_z
O1 O 0.1546(3) 0.13015(13) 0.14145(7)
O2 O 0.5874(4) 0.19719(13) 0.09274(7)
O3 O 0.8227(4) 0.18316(14) 0.01826(7)
O4 O 0.0478(3) -0.05072(13) 0.07124(7)
O5 O 0.2868(5) -0.1341(3) 0.01074(10)
O6 O -0.0527(4) -0.19092(14) 0.15321(8)
O7 O 0.2425(6) -0.3095(2) 0.16694(17)
O8 O -0.2334(3) -0.03845(15) 0.22552(7)
O9 O 0.0155(4) -0.1276(2) 0.28190(9)
C1 C -0.0111(5) 0.0920(2) 0.17801(9)
H1 H -0.1102 0.1428 0.1954
C2 C -0.0403(5) -0.0118(2) 0.19047(10)
C3 C 0.1064(5) -0.1017(2) 0.16562(10)
H2 H 0.2289 -0.1258 0.1920
C4 C 0.2294(5) -0.05934(19) 0.11368(10)
H3 H 0.3565 -0.1101 0.1022
C5 C 0.3366(5) 0.05263(19) 0.12544(9)
H4 H 0.4521 0.0453 0.1557
C6 C 0.4671(6) 0.0983(2) 0.07650(9)
H5 H 0.5839 0.0457 0.0631
H6 H 0.3534 0.1136 0.0472
C7 C 0.7630(5) 0.23214(19) 0.05877(9)
C8 C 0.8643(7) 0.3370(2) 0.07797(10)
H7 H 1.0223 0.3469 0.0626
H8 H 0.8750 0.3365 0.1174
H9 H 0.7615 0.3959 0.0664
C9 C 0.0957(5) -0.0947(2) 0.02159(11)
C10 C -0.1142(6) -0.0863(3) -0.01573(12)
H10 H -0.0748 -0.1187 -0.0505
H11 H -0.1547 -0.0107 -0.0210
H12 H -0.2492 -0.1239 0.0001
C11 C 0.0378(7) -0.2922(2) 0.15502(15)
C12 C -0.1472(9) -0.3745(3) 0.14133(18)
H13 H -0.0894 -0.4459 0.1510
H14 H -0.1804 -0.3721 0.1026
H15 H -0.2923 -0.3591 0.1615
C13 C -0.1823(5) -0.0986(3) 0.27069(11)
C14 C -0.4027(7) -0.1204(5) 0.30325(17)
H16 H -0.3586 -0.1389 0.3403
H17 H -0.4899 -0.1801 0.2871
H18 H -0.5027 -0.0564 0.3035
loop_
_geom_bond_atom_site_label_1
_geom_bond_atom_site_label_2
_geom_bond_site_symmetry_1
_geom_bond_site_symmetry_2
O1 C1 1_555 1_555
O2 C6 1_555 1_555
O3 C7 1_555 1_555
O4 C4 1_555 1_555
O5 C9 1_555 1_555
O6 C3 1_555 1_555
O7 C11 1_555 1_555
O8 C2 1_555 1_555
O9 C13 1_555 1_555
C1 H1 1_555 1_555
C2 C1 1_555 1_555
C3 C2 1_555 1_555
H2 C3 1_555 1_555
C4 C3 1_555 1_555
H3 C4 1_555 1_555
C5 O1 1_555 1_555
H4 C5 1_555 1_555
C6 C5 1_555 1_555
H5 C6 1_555 1_555
H6 C6 1_555 1_555
C7 O2 1_555 1_555
C8 C7 1_555 1_555
H7 C8 1_555 1_555
H8 C8 1_555 1_555
H9 C8 1_555 1_555
C9 O4 1_555 1_555
C10 C9 1_555 1_555
H10 C10 1_555 1_555
H11 C10 1_555 1_555
H12 C10 1_555 1_555
C11 O6 1_555 1_555
C12 C11 1_555 1_555
H13 C12 1_555 1_555
H14 C12 1_555 1_555
H15 C12 1_555 1_555
C13 O8 1_555 1_555
C14 C13 1_555 1_555
H16 C14 1_555 1_555
H17 C14 1_555 1_555
H18 C14 1_555 1_555
C4 C5 1_555 1_555

#END
