
#######################################################################
#
#                 Cambridge Crystallographic Data Centre
#                                CCDC 
#
#######################################################################
#
# If this CIF has been generated from an entry in the Cambridge 
# Structural Database, then it will include bibliographic, chemical, 
# crystal, experimental, refinement or atomic coordinate data resulting 
# from the CCDC's data processing and validation procedures.
#
#######################################################################

data_SINMIN
_chemical_formula_moiety         'C30 H22 N2 O2'
_chemical_name_systematic        
6-(4-Methoxyphenyl)-3-methyl-5-phenyl-8H-isoquinolino[1,2-b]quinazolin-8-one
_symmetry_cell_setting           triclinic
_symmetry_space_group_name_H-M   'P -1'
_symmetry_Int_Tables_number      2
_space_group_name_Hall           '-P 1'
loop_
_symmetry_equiv_pos_site_id
_symmetry_equiv_pos_as_xyz
1 x,y,z
2 -x,-y,-z
_cell_length_a                   13.242(3)
_cell_length_b                   13.337(3)
_cell_length_c                   16.050(3)
_cell_angle_alpha                67.201(3)
_cell_angle_beta                 81.584(4)
_cell_angle_gamma                60.973(3)
_cell_volume                     2281.82
_cell_formula_units_Z            4
loop_
_atom_site_label
_atom_site_type_symbol
_atom_site_fract_x
_atom_site_fract_y
_atom_site_fract_z
N1 N 0.05878(9) 0.36340(9) 0.88732(7)
N2 N -0.00782(10) 0.57794(10) 0.80176(7)
C1 C 0.11533(11) 0.48472(11) 0.93271(8)
C2 C -0.07958(12) 0.46607(12) 0.76084(9)
C3 C 0.05203(11) 0.47825(11) 0.86975(8)
C4 C 0.18155(11) 0.37989(12) 1.00676(8)
C5 C 0.13550(11) 0.25473(11) 0.95745(9)
O1 O -0.03439(10) 0.26658(9) 0.86604(8)
C6 C 0.24368(12) 0.39023(13) 1.06386(9)
H1 H 0.2875 0.3210 1.1132
C7 C 0.19109(11) 0.26247(12) 1.01706(9)
C8 C -0.07084(12) 0.57238(12) 0.74427(9)
C9 C -0.01988(12) 0.35702(12) 0.84008(9)
C10 C 0.10970(12) 0.59718(12) 0.91953(9)
H2 H 0.0636 0.6676 0.8718
C11 C 0.26974(11) 0.14782(12) 1.09111(9)
C12 C 0.17137(12) 0.60482(13) 0.97628(10)
H3 H 0.1665 0.6805 0.9665
C13 C 0.24170(12) 0.50026(13) 1.04884(9)
C14 C -0.14696(13) 0.46461(14) 0.70233(10)
H4 H -0.1536 0.3940 0.7146
C15 C 0.16815(11) 0.13332(12) 0.95281(9)
C16 C -0.13042(14) 0.67698(14) 0.66737(10)
H5 H -0.1266 0.7491 0.6553
O2 O 0.28898(11) -0.21596(10) 0.94931(9)
C17 C 0.31377(14) 0.50918(15) 1.10730(11)
H6 H 0.3356 0.4403 1.1637
H7 H 0.2697 0.5844 1.1186
H8 H 0.3820 0.5085 1.0769
C18 C 0.23869(13) 0.10094(13) 0.88584(10)
H9 H 0.2578 0.1582 0.8417
C19 C -0.20300(15) 0.56646(16) 0.62731(10)
H10 H -0.2468 0.5651 0.5878
C20 C -0.19409(15) 0.67246(15) 0.61035(11)
H11 H -0.2323 0.7417 0.5591
C21 C 0.18030(14) -0.06789(13) 1.01370(11)
H12 H 0.1593 -0.1245 1.0565
C22 C 0.25266(13) -0.09924(13) 0.94691(11)
C23 C 0.13896(13) 0.04732(13) 1.01708(10)
H13 H 0.0911 0.0675 1.0628
C24 C 0.28214(14) -0.01533(14) 0.88245(11)
H14 H 0.3306 -0.0361 0.8371
C25 C 0.38013(14) 0.07165(17) 1.07583(12)
H15 H 0.4087 0.0929 1.0187
C26 C 0.23177(14) 0.11734(17) 1.17720(11)
H16 H 0.1584 0.1696 1.1897
C27 C 0.40991(18) -0.06848(16) 1.22753(14)
H17 H 0.4557 -0.1430 1.2726
C28 C 0.30202(18) 0.0093(2) 1.24538(12)
H18 H 0.2758 -0.0105 1.3036
C29 C 0.44938(17) -0.03616(19) 1.14398(15)
H19 H 0.5239 -0.0871 1.1323
C30 C 0.3743(2) -0.2588(2) 0.8903(2)
H20 H 0.3459 -0.2068 0.8288
H21 H 0.3928 -0.3417 0.9000
H22 H 0.4425 -0.2572 0.9019
N3 N 0.77614(10) 0.22604(10) 0.51596(7)
C31 C 0.63714(12) 0.34489(12) 0.38935(9)
O3 O 0.78277(10) 0.31792(10) 0.60867(7)
C32 C 0.70618(12) 0.34022(12) 0.44620(9)
C33 C 0.72292(12) 0.44787(12) 0.43218(9)
O4 O 0.75814(12) 0.75913(11) 0.37889(9)
C34 C 0.71341(13) 0.12064(13) 0.45796(10)
C35 C 0.63099(12) 0.23439(12) 0.39989(9)
C36 C 0.57587(12) 0.45931(12) 0.30830(9)
C37 C 0.79540(13) 0.11372(12) 0.51394(9)
N4 N 0.87553(11) 0.00694(11) 0.56290(9)
C38 C 0.82016(12) 0.22481(13) 0.59242(9)
C39 C 0.91173(13) 0.10498(14) 0.64590(10)
C40 C 0.45882(13) 0.53808(14) 0.30569(10)
H23 H 0.4161 0.5208 0.3555
C41 C 0.94072(13) 0.00175(13) 0.62547(10)
C42 C 0.55002(14) 0.23652(14) 0.35118(10)
H24 H 0.4955 0.3118 0.3120
C43 C 0.64501(14) 0.65997(13) 0.41544(10)
H25 H 0.5826 0.7330 0.4171
C44 C 0.63020(13) 0.55850(13) 0.43336(10)
H26 H 0.5574 0.5638 0.4464
C45 C 0.54893(15) 0.13009(15) 0.35973(11)
C46 C 0.75254(15) 0.65342(14) 0.39495(10)
C47 C 0.82995(14) 0.44248(14) 0.41311(11)
H27 H 0.8928 0.3689 0.4128
C48 C 0.96942(15) 0.09316(16) 0.71812(11)
H28 H 0.9476 0.1610 0.7337
C49 C 0.40487(15) 0.64234(15) 0.22961(12)
H29 H 0.3263 0.6953 0.2287
C50 C 1.03262(15) -0.11209(15) 0.67509(12)
H30 H 1.0536 -0.1814 0.6617
C51 C 0.63751(15) 0.48623(15) 0.23320(11)
H31 H 0.7163 0.4342 0.2340
C52 C 0.71374(17) 0.01293(15) 0.46494(13)
H32 H 0.7694 -0.0630 0.5024
C53 C 0.46700(17) 0.66791(16) 0.15535(12)
H33 H 0.4307 0.7379 0.1041
C54 C 0.84593(15) 0.54441(16) 0.39429(12)
H34 H 0.9187 0.5394 0.3814
C55 C 1.09104(16) -0.12076(17) 0.74292(13)
H35 H 1.1535 -0.1956 0.7742
C56 C 0.63290(17) 0.01815(16) 0.41718(14)
H36 H 0.6340 -0.0546 0.4231
C57 C 0.58303(18) 0.58967(18) 0.15716(12)
H37 H 0.6252 0.6066 0.1068
C58 C 1.05834(17) -0.01902(18) 0.76594(13)
H38 H 1.0970 -0.0272 0.8140
C59 C 0.8676(2) 0.7557(2) 0.36359(17)
H39 H 0.9202 0.6926 0.4143
H40 H 0.8600 0.8341 0.3563
H41 H 0.8969 0.7382 0.3098
C60 C 0.46083(18) 0.13272(18) 0.30848(14)
H42 H 0.4084 0.2166 0.2736
H43 H 0.4185 0.0949 0.3504
H44 H 0.4993 0.0884 0.2687
loop_
_geom_bond_atom_site_label_1
_geom_bond_atom_site_label_2
_geom_bond_site_symmetry_1
_geom_bond_site_symmetry_2
N1 C3 1_555 1_555
N2 C3 1_555 1_555
C1 C3 1_555 1_555
C2 C8 1_555 1_555
C4 C1 1_555 1_555
C5 N1 1_555 1_555
O1 C9 1_555 1_555
C6 C4 1_555 1_555
H1 C6 1_555 1_555
C7 C4 1_555 1_555
C8 N2 1_555 1_555
C9 N1 1_555 1_555
C10 C1 1_555 1_555
H2 C10 1_555 1_555
C11 C7 1_555 1_555
C12 C10 1_555 1_555
H3 C12 1_555 1_555
C13 C6 1_555 1_555
C14 C2 1_555 1_555
H4 C14 1_555 1_555
C15 C5 1_555 1_555
C16 C8 1_555 1_555
H5 C16 1_555 1_555
O2 C22 1_555 1_555
C17 C13 1_555 1_555
H6 C17 1_555 1_555
H7 C17 1_555 1_555
H8 C17 1_555 1_555
C18 C15 1_555 1_555
H9 C18 1_555 1_555
C19 C14 1_555 1_555
H10 C19 1_555 1_555
C20 C16 1_555 1_555
H11 C20 1_555 1_555
C21 H12 1_555 1_555
C22 C21 1_555 1_555
C23 C15 1_555 1_555
H13 C23 1_555 1_555
C24 C18 1_555 1_555
H14 C24 1_555 1_555
C25 C11 1_555 1_555
H15 C25 1_555 1_555
C26 C11 1_555 1_555
H16 C26 1_555 1_555
C27 H17 1_555 1_555
C28 C26 1_555 1_555
H18 C28 1_555 1_555
C29 C25 1_555 1_555
H19 C29 1_555 1_555
C30 O2 1_555 1_555
H20 C30 1_555 1_555
H21 C30 1_555 1_555
H22 C30 1_555 1_555
N3 C32 1_555 1_555
C31 C32 1_555 1_555
O3 C38 1_555 1_555
C32 C33 1_555 1_555
C33 C44 1_555 1_555
O4 C46 1_555 1_555
C34 C35 1_555 1_555
C35 C31 1_555 1_555
C36 C31 1_555 1_555
C37 N3 1_555 1_555
N4 C37 1_555 1_555
C38 N3 1_555 1_555
C39 C38 1_555 1_555
C40 C36 1_555 1_555
H23 C40 1_555 1_555
C41 N4 1_555 1_555
C42 C35 1_555 1_555
H24 C42 1_555 1_555
C43 H25 1_555 1_555
C44 C43 1_555 1_555
H26 C44 1_555 1_555
C45 C42 1_555 1_555
C46 C43 1_555 1_555
C47 C33 1_555 1_555
H27 C47 1_555 1_555
C48 C39 1_555 1_555
H28 C48 1_555 1_555
C49 C40 1_555 1_555
H29 C49 1_555 1_555
C50 C41 1_555 1_555
H30 C50 1_555 1_555
C51 C36 1_555 1_555
H31 C51 1_555 1_555
C52 C34 1_555 1_555
H32 C52 1_555 1_555
C53 C49 1_555 1_555
H33 C53 1_555 1_555
C54 C46 1_555 1_555
H34 C54 1_555 1_555
C55 C50 1_555 1_555
H35 C55 1_555 1_555
C56 C45 1_555 1_555
H36 C56 1_555 1_555
C57 C51 1_555 1_555
H37 C57 1_555 1_555
C58 C48 1_555 1_555
H38 C58 1_555 1_555
C59 O4 1_555 1_555
H39 C59 1_555 1_555
H40 C59 1_555 1_555
H41 C59 1_555 1_555
C60 C45 1_555 1_555
H42 C60 1_555 1_555
H43 C60 1_555 1_555
H44 C60 1_555 1_555
C2 C9 1_555 1_555
C5 C7 1_555 1_555
C12 C13 1_555 1_555
C19 C20 1_555 1_555
C21 C23 1_555 1_555
C22 C24 1_555 1_555
C27 C28 1_555 1_555
C27 C29 1_555 1_555
C34 C37 1_555 1_555
C39 C41 1_555 1_555
C47 C54 1_555 1_555
C52 C56 1_555 1_555
C53 C57 1_555 1_555
C55 C58 1_555 1_555

#END
