
#######################################################################
#
#                 Cambridge Crystallographic Data Centre
#                                CCDC 
#
#######################################################################
#
# If this CIF has been generated from an entry in the Cambridge 
# Structural Database, then it will include bibliographic, chemical, 
# crystal, experimental, refinement or atomic coordinate data resulting 
# from the CCDC's data processing and validation procedures.
#
#######################################################################

data_SINMOT
_chemical_formula_moiety         'C24 H18 N2 O1'
_chemical_name_systematic        
3,5-Dimethyl-6-phenyl-8H-isoquinolino[1,2-b]quinazolin-8-one
_symmetry_cell_setting           orthorhombic
_symmetry_space_group_name_H-M   'P c a 21'
_symmetry_Int_Tables_number      29
_space_group_name_Hall           'P 2c -2ac'
loop_
_symmetry_equiv_pos_site_id
_symmetry_equiv_pos_as_xyz
1 x,y,z
2 -x,-y,1/2+z
3 1/2+x,-y,z
4 1/2-x,y,1/2+z
_cell_length_a                   13.5728(5)
_cell_length_b                   18.3397(7)
_cell_length_c                   14.2808(5)
_cell_angle_alpha                90
_cell_angle_beta                 90
_cell_angle_gamma                90
_cell_volume                     3554.79
_cell_formula_units_Z            8
loop_
_atom_site_label
_atom_site_type_symbol
_atom_site_fract_x
_atom_site_fract_y
_atom_site_fract_z
N1 N 0.57248(13) 0.22865(10) 0.20656(13)
C1 C 0.47922(16) 0.19578(12) 0.20731(15)
C2 C 0.39493(16) 0.24423(13) 0.21113(15)
C3 C 0.50524(17) 0.34759(13) 0.24057(17)
C4 C 0.40691(16) 0.31900(13) 0.22547(15)
C5 C 0.6390(2) 0.11001(14) 0.17281(17)
N2 N 0.46452(15) 0.12606(11) 0.20097(15)
C6 C 0.65408(18) 0.18831(14) 0.17163(18)
C7 C 0.32341(18) 0.36388(15) 0.22470(17)
H1 H 0.3308 0.4136 0.2354
C8 C 0.5459(2) 0.08155(14) 0.18924(17)
C9 C 0.68565(17) 0.32872(13) 0.25525(18)
O1 O 0.72832(14) 0.21820(11) 0.14430(16)
C10 C 0.58420(15) 0.30373(13) 0.23021(16)
C11 C 0.30060(18) 0.21629(15) 0.19548(19)
H2 H 0.2920 0.1665 0.1864
C12 C 0.22087(18) 0.26171(17) 0.19338(19)
H3 H 0.1588 0.2424 0.1816
C13 C 0.23056(17) 0.33615(17) 0.20844(19)
C14 C 0.5151(2) 0.42528(15) 0.2723(2)
H4 H 0.5836 0.4371 0.2795
H5 H 0.4819 0.4314 0.3311
H6 H 0.4861 0.4570 0.2264
C15 C 0.7183(2) 0.06344(16) 0.1541(2)
H7 H 0.7805 0.0828 0.1425
C16 C 0.73015(17) 0.30235(14) 0.33579(19)
H8 H 0.6990 0.2664 0.3709
C17 C 0.5326(3) 0.00546(17) 0.1881(2)
H9 H 0.4708 -0.0144 0.2001
C18 C 0.7046(3) -0.01062(18) 0.1527(2)
H10 H 0.7574 -0.0416 0.1408
C19 C 0.8206(2) 0.32926(17) 0.3644(2)
H11 H 0.8500 0.3116 0.4186
C20 C 0.8666(2) 0.38193(19) 0.3126(3)
H12 H 0.9274 0.4000 0.3317
C21 C 0.7333(2) 0.38131(16) 0.2043(2)
H13 H 0.7044 0.3992 0.1499
C22 C 0.6111(3) -0.03924(17) 0.1691(3)
H14 H 0.6017 -0.0895 0.1672
C23 C 0.1426(2) 0.38669(19) 0.2086(3)
H15 H 0.1642 0.4357 0.2201
H16 H 0.0975 0.3721 0.2569
H17 H 0.1102 0.3844 0.1489
C24 C 0.8236(2) 0.4081(2) 0.2327(3)
H18 H 0.8551 0.4439 0.1976
N3 N 0.17130(14) 0.26977(10) 0.45909(13)
C25 C 0.24150(17) 0.15146(12) 0.42563(16)
C26 C 0.26392(17) 0.30316(12) 0.46126(15)
C27 C 0.33824(16) 0.18068(13) 0.44486(15)
O2 O 0.01217(12) 0.27936(9) 0.51255(13)
C28 C 0.10228(19) 0.38804(13) 0.49257(16)
C29 C 0.34925(17) 0.25563(13) 0.46096(17)
C30 C 0.08790(16) 0.30947(13) 0.49024(15)
N4 N 0.27705(16) 0.37310(11) 0.46840(15)
C31 C 0.16136(16) 0.19437(12) 0.43350(14)
C32 C 0.1955(2) 0.41682(13) 0.47831(17)
C33 C 0.42331(18) 0.13711(15) 0.44609(19)
H19 H 0.4175 0.0875 0.4337
C34 C 0.06110(16) 0.16804(12) 0.40794(16)
C35 C 0.51521(19) 0.16553(18) 0.4650(2)
C36 C 0.5224(2) 0.23898(19) 0.4848(2)
H20 H 0.5834 0.2584 0.5012
C37 C 0.01247(17) 0.19577(14) 0.33058(18)
H21 H 0.0409 0.2333 0.2961
C38 C 0.2351(2) 0.07383(13) 0.3922(2)
H22 H 0.1673 0.0611 0.3820
H23 H 0.2628 0.0420 0.4386
H24 H 0.2709 0.0688 0.3346
C39 C 0.44250(18) 0.28364(16) 0.4810(2)
H25 H 0.4501 0.3333 0.4919
C40 C 0.0223(2) 0.43365(15) 0.51072(19)
H26 H -0.0396 0.4139 0.5223
C41 C -0.1209(2) 0.11238(17) 0.3560(2)
H27 H -0.1819 0.0937 0.3386
C42 C -0.07808(19) 0.16814(17) 0.3042(2)
H28 H -0.1103 0.1868 0.2520
C43 C 0.2074(3) 0.49369(16) 0.4789(2)
H29 H 0.2692 0.5141 0.4686
C44 C 0.0356(3) 0.50792(17) 0.5114(3)
H30 H -0.0174 0.5387 0.5231
C45 C 0.01786(19) 0.11198(14) 0.4587(2)
H31 H 0.0501 0.0925 0.5104
C46 C 0.1288(3) 0.53708(16) 0.4943(2)
H32 H 0.1369 0.5874 0.4935
C47 C 0.6043(2) 0.1165(2) 0.4631(3)
H33 H 0.5843 0.0677 0.4481
H34 H 0.6356 0.1170 0.5234
H35 H 0.6498 0.1337 0.4166
C48 C -0.0734(2) 0.08515(16) 0.4322(2)
H36 H -0.1025 0.0481 0.4670
loop_
_geom_bond_atom_site_label_1
_geom_bond_atom_site_label_2
_geom_bond_site_symmetry_1
_geom_bond_site_symmetry_2
N1 C1 1_555 1_555
C1 C2 1_555 1_555
C2 C4 1_555 1_555
C3 C4 1_555 1_555
C4 C7 1_555 1_555
C5 C6 1_555 1_555
N2 C1 1_555 1_555
C6 N1 1_555 1_555
C7 H1 1_555 1_555
C8 C5 1_555 1_555
C9 C10 1_555 1_555
O1 C6 1_555 1_555
C10 N1 1_555 1_555
C11 C2 1_555 1_555
H2 C11 1_555 1_555
C12 C11 1_555 1_555
H3 C12 1_555 1_555
C13 C7 1_555 1_555
C14 C3 1_555 1_555
H4 C14 1_555 1_555
H5 C14 1_555 1_555
H6 C14 1_555 1_555
C15 C5 1_555 1_555
H7 C15 1_555 1_555
C16 C9 1_555 1_555
H8 C16 1_555 1_555
C17 C8 1_555 1_555
H9 C17 1_555 1_555
C18 C15 1_555 1_555
H10 C18 1_555 1_555
C19 C16 1_555 1_555
H11 C19 1_555 1_555
C20 C19 1_555 1_555
H12 C20 1_555 1_555
C21 C9 1_555 1_555
H13 C21 1_555 1_555
C22 C17 1_555 1_555
H14 C22 1_555 1_555
C23 C13 1_555 1_555
H15 C23 1_555 1_555
H16 C23 1_555 1_555
H17 C23 1_555 1_555
C24 C20 1_555 1_555
H18 C24 1_555 1_555
N3 C26 1_555 1_555
C25 C27 1_555 1_555
C26 C29 1_555 1_555
C27 C29 1_555 1_555
O2 C30 1_555 1_555
C28 C30 1_555 1_555
C29 C39 1_555 1_555
C30 N3 1_555 1_555
N4 C26 1_555 1_555
C31 N3 1_555 1_555
C32 C28 1_555 1_555
C33 C27 1_555 1_555
H19 C33 1_555 1_555
C34 C31 1_555 1_555
C35 C33 1_555 1_555
C36 C35 1_555 1_555
H20 C36 1_555 1_555
C37 C34 1_555 1_555
H21 C37 1_555 1_555
C38 C25 1_555 1_555
H22 C38 1_555 1_555
H23 C38 1_555 1_555
H24 C38 1_555 1_555
C39 C36 1_555 1_555
H25 C39 1_555 1_555
C40 C28 1_555 1_555
H26 C40 1_555 1_555
C41 H27 1_555 1_555
C42 C37 1_555 1_555
H28 C42 1_555 1_555
C43 C32 1_555 1_555
H29 C43 1_555 1_555
C44 C40 1_555 1_555
H30 C44 1_555 1_555
C45 C34 1_555 1_555
H31 C45 1_555 1_555
C46 C43 1_555 1_555
H32 C46 1_555 1_555
C47 C35 1_555 1_555
H33 C47 1_555 1_555
H34 C47 1_555 1_555
H35 C47 1_555 1_555
C48 C41 1_555 1_555
H36 C48 1_555 1_555
C3 C10 1_555 1_555
N2 C8 1_555 1_555
C12 C13 1_555 1_555
C18 C22 1_555 1_555
C21 C24 1_555 1_555
C25 C31 1_555 1_555
N4 C32 1_555 1_555
C41 C42 1_555 1_555
C44 C46 1_555 1_555
C45 C48 1_555 1_555

#END
