
#######################################################################
#
#                 Cambridge Crystallographic Data Centre
#                                CCDC 
#
#######################################################################
#
# If this CIF has been generated from an entry in the Cambridge 
# Structural Database, then it will include bibliographic, chemical, 
# crystal, experimental, refinement or atomic coordinate data resulting 
# from the CCDC's data processing and validation procedures.
#
#######################################################################

data_SINQEM
_chemical_formula_moiety         'C19 H23 Cl2 N5 O4 S1'
_chemical_name_systematic        
6-((4,5-Dichloro-2-methyl-1H-imidazol-1-yl)methyl)-1-isobutyl-N-methoxy-N,3-dimethyl-2,4-dioxo-1,2,3,4-tetrahydrothieno(2,3-d)pyrimidine-5-carboxamide
_symmetry_cell_setting           monoclinic
_symmetry_space_group_name_H-M   'P 21/c'
_symmetry_Int_Tables_number      14
_space_group_name_Hall           '-P 2ybc'
loop_
_symmetry_equiv_pos_site_id
_symmetry_equiv_pos_as_xyz
1 x,y,z
2 -x,1/2+y,1/2-z
3 -x,-y,-z
4 x,1/2-y,1/2+z
_cell_length_a                   6.507(1)
_cell_length_b                   38.635(1)
_cell_length_c                   9.246(1)
_cell_angle_alpha                90
_cell_angle_beta                 95.67(1)
_cell_angle_gamma                90
_cell_volume                     2313.05
_chemical_melting_point          138-140deg.C
_cell_formula_units_Z            4
loop_
_atom_site_label
_atom_site_type_symbol
_atom_site_fract_x
_atom_site_fract_y
_atom_site_fract_z
Cl1 Cl -0.20847(13) 0.16419(3) 0.62694(11)
Cl2 Cl -0.12503(15) 0.23060(4) 0.88475(12)
S1 S 0.23444(13) 0.11749(3) 0.55690(10)
O1 O 0.2845(4) 0.12646(8) 0.0677(3)
O2 O 0.6324(4) 0.18339(8) 0.2501(3)
O3 O 0.7670(4) 0.10090(8) 0.2200(3)
O4 O 0.7270(4) 0.01732(8) 0.5636(3)
N1 N 0.4992(4) 0.06176(8) 0.5622(3)
N2 N 0.7469(4) 0.05953(9) 0.3930(3)
N3 N 0.4090(4) 0.15610(8) 0.0873(3)
N4 N 0.1266(4) 0.19869(8) 0.5487(3)
N5 N 0.1855(4) 0.23930(8) 0.7179(3)
C1 C 0.4322(5) 0.09254(10) 0.4997(4)
C2 C 0.6627(6) 0.04430(12) 0.5107(4)
C3 C 0.6837(5) 0.09020(11) 0.3231(4)
C4 C 0.5152(5) 0.10741(10) 0.3854(4)
C5 C 0.4212(4) 0.13959(10) 0.3411(3)
C6 C 0.2672(5) 0.14873(9) 0.4240(3)
C7 C 0.4994(5) 0.16184(10) 0.2237(4)
C8 C 0.0754(6) 0.13707(15) 0.0238(5)
C9 C 0.5020(6) 0.16632(12) -0.0406(4)
C10 C 0.9236(6) 0.04150(12) 0.3383(5)
C11 C 0.3958(5) 0.04643(10) 0.6818(4)
C12 C 0.4572(7) 0.06231(12) 0.8291(4)
C13 C 0.6834(8) 0.06069(17) 0.8721(5)
C14 C 0.3340(7) 0.04493(13) 0.9404(5)
C15 C 0.1322(5) 0.18014(10) 0.4118(4)
C16 C 0.2509(5) 0.22537(10) 0.6016(4)
C17 C 0.0134(5) 0.22098(11) 0.7420(4)
C18 C -0.0266(4) 0.19597(10) 0.6429(4)
C19 C 0.4389(5) 0.23659(11) 0.5339(4)
H1 H -0.01218 0.11709 0.01092
H2 H 0.07039 0.14973 -0.06583
H3 H 0.02860 0.15162 0.09809
H4 H 0.41243 0.15980 -0.12497
H5 H 0.63415 0.15547 -0.04389
H6 H 0.51882 0.19101 -0.03893
H7 H 0.97040 0.05403 0.25814
H8 H 0.87941 0.01879 0.30661
H9 H 1.03446 0.03955 0.41450
H10 H 0.43517 0.02248 0.68800
H11 H 0.24909 0.04814 0.65871
H12 H 0.42348 0.08651 0.82553
H13 H 0.75848 0.07281 0.80348
H14 H 0.71814 0.03655 0.87128
H15 H 0.71919 0.06995 0.96763
H16 H 0.18856 0.04776 0.91386
H17 H 0.36935 0.05416 1.03598
H18 H 0.36831 0.02076 0.93963
H19 H 0.18430 0.19576 0.34331
H20 H -0.00611 0.17342 0.37755
H21 H 0.45538 0.22263 0.45000
H22 H 0.55821 0.23412 0.60295
H23 H 0.42360 0.26042 0.50537
loop_
_geom_bond_atom_site_label_1
_geom_bond_atom_site_label_2
_geom_bond_site_symmetry_1
_geom_bond_site_symmetry_2
Cl1 C18 1_555 1_555
Cl2 C17 1_555 1_555
S1 C1 1_555 1_555
O1 N3 1_555 1_555
O2 C7 1_555 1_555
O3 C3 1_555 1_555
O4 C2 1_555 1_555
N1 C1 1_555 1_555
N2 C2 1_555 1_555
N3 C7 1_555 1_555
N4 C15 1_555 1_555
N5 C16 1_555 1_555
C1 C4 1_555 1_555
C2 N1 1_555 1_555
C3 N2 1_555 1_555
C4 C3 1_555 1_555
C5 C4 1_555 1_555
C6 S1 1_555 1_555
C7 C5 1_555 1_555
C8 O1 1_555 1_555
C9 N3 1_555 1_555
C10 N2 1_555 1_555
C11 N1 1_555 1_555
C12 C11 1_555 1_555
C13 C12 1_555 1_555
C14 C12 1_555 1_555
C15 C6 1_555 1_555
C16 N4 1_555 1_555
C17 N5 1_555 1_555
C18 N4 1_555 1_555
C19 C16 1_555 1_555
H1 C8 1_555 1_555
H2 C8 1_555 1_555
H3 C8 1_555 1_555
H4 C9 1_555 1_555
H5 C9 1_555 1_555
H6 C9 1_555 1_555
H7 C10 1_555 1_555
H8 C10 1_555 1_555
H9 C10 1_555 1_555
H10 C11 1_555 1_555
H11 C11 1_555 1_555
H12 C12 1_555 1_555
H13 C13 1_555 1_555
H14 C13 1_555 1_555
H15 C13 1_555 1_555
H16 C14 1_555 1_555
H17 C14 1_555 1_555
H18 C14 1_555 1_555
H19 C15 1_555 1_555
H20 C15 1_555 1_555
H21 C19 1_555 1_555
H22 C19 1_555 1_555
H23 C19 1_555 1_555
C5 C6 1_555 1_555
C17 C18 1_555 1_555

#END
