
#######################################################################
#
#                 Cambridge Crystallographic Data Centre
#                                CCDC 
#
#######################################################################
#
# If this CIF has been generated from an entry in the Cambridge 
# Structural Database, then it will include bibliographic, chemical, 
# crystal, experimental, refinement or atomic coordinate data resulting 
# from the CCDC's data processing and validation procedures.
#
#######################################################################

data_SINRUD
_chemical_formula_moiety         'C12 H18 O4'
_chemical_name_systematic        
'Dimethyl bicyclo(2.2.2)octane-1,4-dicarboxylate'
_symmetry_cell_setting           orthorhombic
_symmetry_space_group_name_H-M   'P 21 21 21'
_symmetry_Int_Tables_number      19
_space_group_name_Hall           'P 2ac 2ab'
loop_
_symmetry_equiv_pos_site_id
_symmetry_equiv_pos_as_xyz
1 x,y,z
2 1/2-x,-y,1/2+z
3 1/2+x,1/2-y,-z
4 -x,1/2+y,1/2-z
_cell_length_a                   6.713(2)
_cell_length_b                   7.632(3)
_cell_length_c                   22.517(7)
_cell_angle_alpha                90
_cell_angle_beta                 90
_cell_angle_gamma                90
_cell_volume                     1153.63
_cell_formula_units_Z            4
loop_
_atom_site_label
_atom_site_type_symbol
_atom_site_fract_x
_atom_site_fract_y
_atom_site_fract_z
O1 O 0.6719(3) 0.6565(2) 0.9421(1)
O2 O 0.9337(2) 0.4777(2) 0.9389(1)
O3 O 0.1895(3) -0.1053(2) 0.8491(1)
O4 O 0.1837(3) 0.0490(2) 0.7657(1)
C1 C 0.6206(3) 0.3807(3) 0.8971(1)
C2 C 0.4868(4) 0.4746(3) 0.8518(1)
C3 C 0.3579(4) 0.3413(3) 0.8188(1)
C4 C 0.3758(3) 0.1598(3) 0.8475(1)
C5 C 0.5918(3) 0.0969(3) 0.8403(1)
C6 C 0.7364(4) 0.2346(3) 0.8658(1)
C7 C 0.4847(4) 0.2960(3) 0.9438(1)
C8 C 0.3314(4) 0.1754(3) 0.9139(1)
C9 C 0.7625(3) 0.5060(3) 0.9276(1)
C10 C 0.7906(4) 0.7821(3) 0.9744(1)
C11 C 0.2397(3) 0.0320(3) 0.8157(1)
C12 C 0.0656(4) -0.2336(3) 0.8196(1)
H1 H 0.4004 0.5601 0.8725
H2 H 0.5705 0.5394 0.8230
H3 H 0.4006 0.3347 0.7768
H4 H 0.2171 0.3797 0.8197
H5 H 0.6212 0.0776 0.7977
H6 H 0.6099 -0.0158 0.8614
H7 H 0.8282 0.1779 0.8943
H8 H 0.8171 0.2852 0.8332
H9 H 0.4146 0.3885 0.9664
H10 H 0.5664 0.2272 0.9720
H11 H 0.3363 0.0579 0.9325
H12 H 0.1959 0.2236 0.9197
H13 H 0.9087 0.8124 0.9510
H14 H 0.8320 0.7312 1.0124
H15 H 0.7116 0.8879 0.9817
H16 H 0.1329 -0.2752 0.7836
H17 H -0.0620 -0.1799 0.8088
H18 H 0.0418 -0.3326 0.8464
loop_
_geom_bond_atom_site_label_1
_geom_bond_atom_site_label_2
_geom_bond_site_symmetry_1
_geom_bond_site_symmetry_2
O1 C9 1_555 1_555
O2 C9 1_555 1_555
O3 C11 1_555 1_555
O4 C11 1_555 1_555
C1 C2 1_555 1_555
C2 C3 1_555 1_555
C3 C4 1_555 1_555
C4 C5 1_555 1_555
C5 C6 1_555 1_555
C6 C1 1_555 1_555
C7 C1 1_555 1_555
C8 C4 1_555 1_555
C9 C1 1_555 1_555
C10 O1 1_555 1_555
C11 C4 1_555 1_555
C12 O3 1_555 1_555
H1 C2 1_555 1_555
H2 C2 1_555 1_555
H3 C3 1_555 1_555
H4 C3 1_555 1_555
H5 C5 1_555 1_555
H6 C5 1_555 1_555
H7 C6 1_555 1_555
H8 C6 1_555 1_555
H9 C7 1_555 1_555
H10 C7 1_555 1_555
H11 C8 1_555 1_555
H12 C8 1_555 1_555
H13 C10 1_555 1_555
H14 C10 1_555 1_555
H15 C10 1_555 1_555
H16 C12 1_555 1_555
H17 C12 1_555 1_555
H18 C12 1_555 1_555
C7 C8 1_555 1_555

#END
