
#######################################################################
#
#                 Cambridge Crystallographic Data Centre
#                                CCDC 
#
#######################################################################
#
# If this CIF has been generated from an entry in the Cambridge 
# Structural Database, then it will include bibliographic, chemical, 
# crystal, experimental, refinement or atomic coordinate data resulting 
# from the CCDC's data processing and validation procedures.
#
#######################################################################

data_SINRAJ
_chemical_formula_moiety         'C20 H20 N4 O3,1.25(H2 O1)'
_chemical_name_systematic        
'1-Methyl-5-(3-(3,4,5-trimethoxyphenyl)-4H-1,2,4-triazol-4-yl)-1H-indole hydrate'
_chemical_properties_biological  
'cytotoxicity against a variety of cancer cell lines'
_symmetry_cell_setting           monoclinic
_symmetry_space_group_name_H-M   'C 2/c'
_symmetry_Int_Tables_number      15
_space_group_name_Hall           '-C 2yn'
loop_
_symmetry_equiv_pos_site_id
_symmetry_equiv_pos_as_xyz
1 x,y,z
2 -x,y,1/2-z
3 1/2+x,1/2+y,z
4 1/2-x,1/2+y,1/2-z
5 -x,-y,-z
6 x,-y,1/2+z
7 1/2-x,1/2-y,-z
8 1/2+x,1/2-y,1/2+z
_cell_length_a                   25.0493(11)
_cell_length_b                   9.4909(4)
_cell_length_c                   20.4376(9)
_cell_angle_alpha                90
_cell_angle_beta                 127.781(4)
_cell_angle_gamma                90
_cell_volume                     3840.23
_cell_formula_units_Z            8
loop_
_atom_site_label
_atom_site_type_symbol
_atom_site_fract_x
_atom_site_fract_y
_atom_site_fract_z
O1 O -0.1510(1) 0.4720(3) 0.3646(1)
O2 O -0.2786(1) 0.4033(3) 0.2441(1)
O3 O -0.3663(1) 0.3519(3) 0.2758(2)
N1 N -0.2326(1) 0.5116(3) 0.5929(2)
N2 N -0.1258(2) 0.5155(4) 0.7025(2)
N3 N -0.1293(1) 0.4891(3) 0.6330(2)
N4 N -0.5124(2) 0.5494(5) 0.3922(2)
C1 C -0.1932(2) 0.4866(4) 0.5682(2)
C2 C -0.1878(2) 0.5277(4) 0.6763(2)
C3 C -0.2175(2) 0.4595(4) 0.4827(2)
C4 C -0.1717(2) 0.4812(4) 0.4663(2)
C5 C -0.1921(2) 0.4577(4) 0.3871(2)
C6 C -0.2581(2) 0.4162(4) 0.3238(2)
C7 C -0.3029(2) 0.3935(4) 0.3414(2)
C8 C -0.2831(2) 0.4136(4) 0.4207(2)
C9 C -0.0851(2) 0.5301(4) 0.4257(2)
C10 C -0.2846(2) 0.2595(4) 0.2183(2)
C11 C -0.4176(2) 0.3459(4) 0.2869(2)
C12 C -0.3051(2) 0.5247(4) 0.5427(2)
C13 C -0.3354(2) 0.6465(4) 0.4959(2)
C14 C -0.4043(2) 0.6639(5) 0.4435(3)
C15 C -0.4425(2) 0.5605(5) 0.4390(3)
C16 C -0.5311(2) 0.4215(5) 0.4069(2)
C17 C -0.4709(2) 0.3507(5) 0.4636(3)
C18 C -0.4155(2) 0.4349(5) 0.4845(3)
C19 C -0.3429(2) 0.4150(5) 0.5396(3)
C20 C -0.5608(3) 0.6587(6) 0.3362(3)
H1 H -0.2001 0.5456 0.7112
H2 H -0.1270 0.5117 0.5090
H3 H -0.3137 0.3963 0.4326
H4 H -0.0601 0.5353 0.4032
H5 H -0.0606 0.4699 0.4750
H6 H -0.0897 0.6249 0.4408
H7 H -0.2992 0.2573 0.1615
H8 H -0.3179 0.2105 0.2205
H9 H -0.2407 0.2125 0.2553
H10 H -0.4603 0.3151 0.2353
H11 H -0.4235 0.4395 0.3019
H12 H -0.4040 0.2789 0.3312
H13 H -0.3076 0.7199 0.5003
H14 H -0.4242 0.7472 0.4114
H15 H -0.5756 0.3899 0.3832
H16 H -0.4673 0.2595 0.4851
H17 H -0.3226 0.3318 0.5715
H18 H -0.5363 0.7385 0.3354
H19 H -0.5861 0.6907 0.3557
H20 H -0.5922 0.6200 0.2802
O4 O 0.0092(1) 0.4909(5) 0.8577(2)
H21 H -0.0279 0.5065 0.8098
H22 H 0.0087 0.4004 0.8575
O5? O -0.4699(12) 0.6960(30) 0.3888(15)
loop_
_geom_bond_atom_site_label_1
_geom_bond_atom_site_label_2
_geom_bond_site_symmetry_1
_geom_bond_site_symmetry_2
O1 C5 1_555 1_555
O2 C6 1_555 1_555
O3 C7 1_555 1_555
N1 C1 1_555 1_555
N2 N3 1_555 1_555
N3 C1 1_555 1_555
N4 C15 1_555 1_555
C1 C3 1_555 1_555
C2 N1 1_555 1_555
C3 C4 1_555 1_555
C4 C5 1_555 1_555
C5 C6 1_555 1_555
C6 C7 1_555 1_555
C7 C8 1_555 1_555
C8 C3 1_555 1_555
C9 O1 1_555 1_555
C10 O2 1_555 1_555
C11 O3 1_555 1_555
C12 N1 1_555 1_555
C13 C12 1_555 1_555
C14 C13 1_555 1_555
C15 C14 1_555 1_555
C16 N4 1_555 1_555
C17 C16 1_555 1_555
C18 C15 1_555 1_555
C19 C12 1_555 1_555
C20 N4 1_555 1_555
O4 H21 1_555 1_555
H1 C2 1_555 1_555
H2 C4 1_555 1_555
H3 C8 1_555 1_555
H4 C9 1_555 1_555
H5 C9 1_555 1_555
H6 C9 1_555 1_555
H7 C10 1_555 1_555
H8 C10 1_555 1_555
H9 C10 1_555 1_555
H10 C11 1_555 1_555
H11 C11 1_555 1_555
H12 C11 1_555 1_555
H13 C13 1_555 1_555
H14 C14 1_555 1_555
H15 C16 1_555 1_555
H16 C17 1_555 1_555
H17 C19 1_555 1_555
H18 C20 1_555 1_555
H19 C20 1_555 1_555
H20 C20 1_555 1_555
H22 O4 1_555 1_555
N2 C2 1_555 1_555
C17 C18 1_555 1_555
C18 C19 1_555 1_555

#END
