
#######################################################################
#
#                 Cambridge Crystallographic Data Centre
#                                CCDC 
#
#######################################################################
#
# If this CIF has been generated from an entry in the Cambridge 
# Structural Database, then it will include bibliographic, chemical, 
# crystal, experimental, refinement or atomic coordinate data resulting 
# from the CCDC's data processing and validation procedures.
#
#######################################################################

data_SINVEQ
_chemical_formula_moiety         'C11 H8 N2 S1,H2 O1'
_chemical_name_systematic        '2,3-Naphthimidazolene-2-thione monohydrate'
_symmetry_cell_setting           orthorhombic
_symmetry_space_group_name_H-M   'P n m a'
_symmetry_Int_Tables_number      62
_space_group_name_Hall           '-P 2ac 2n'
loop_
_symmetry_equiv_pos_site_id
_symmetry_equiv_pos_as_xyz
1 x,y,z
2 1/2-x,-y,1/2+z
3 1/2+x,1/2-y,1/2-z
4 -x,1/2+y,-z
5 -x,-y,-z
6 1/2+x,y,1/2-z
7 1/2-x,1/2+y,1/2+z
8 x,1/2-y,z
_cell_length_a                   5.1610(6)
_cell_length_b                   8.4720(9)
_cell_length_c                   25.144(3)
_cell_angle_alpha                90
_cell_angle_beta                 90
_cell_angle_gamma                90
_cell_volume                     1099.4
_exptl_crystal_description       needles
_chemical_melting_point          289deg.C
_cell_formula_units_Z            4
loop_
_atom_site_label
_atom_site_type_symbol
_atom_site_fract_x
_atom_site_fract_y
_atom_site_fract_z
S1 S 0.9326(2) 0.2500 0.46262(5)
C1 C 1.1691(9) 0.2500 0.5083(2)
N1 N 1.2861(5) 0.1218(3) 0.53008(10)
C2 C 1.4729(6) 0.1661(4) 0.56628(13)
C3 C 1.6397(7) 0.0821(5) 0.59734(14)
C4 C 1.8114(7) 0.1662(6) 0.63007(15)
C5 C 1.9913(8) 0.0838(9) 0.6630(2)
C6 C 2.1598(9) 0.1700(9) 0.6947(2)
H1 H 1.6398(7) -0.0277(5) 0.59686(14)
H2 H 1.9956(8) -0.0260(9) 0.6633(2)
H3 H 2.2759(9) 0.1166(9) 0.7165(2)
H4 H 1.2486(5) 0.0257(3) 0.52229(10)
C2G C 1.4729(6) 0.3339(4) 0.56628(13)
N1G N 1.2861(5) 0.3782(3) 0.53008(10)
H4G H 1.2486(5) 0.4743(3) 0.52229(10)
C3G C 1.6397(7) 0.4179(5) 0.59734(14)
C4G C 1.8114(7) 0.3338(6) 0.63007(15)
C6G C 2.1598(9) 0.3300(9) 0.6947(2)
C5G C 1.9913(8) 0.4162(9) 0.6630(2)
H2G H 1.9956(8) 0.5260(9) 0.6633(2)
H3G H 2.2759(9) 0.3834(9) 0.7165(2)
H1G H 1.6398(7) 0.5277(5) 0.59686(14)
O1 O 2.4849(66) -0.2500 0.7255(11)
loop_
_geom_bond_atom_site_label_1
_geom_bond_atom_site_label_2
_geom_bond_site_symmetry_1
_geom_bond_site_symmetry_2
S1 C1 1_555 1_555
C1 N1 1_555 1_555
N1 C2 1_555 1_555
C2 C3 1_555 1_555
C3 C4 1_555 1_555
C4 C5 1_555 1_555
C5 C6 1_555 1_555
C6 H3 1_555 1_555
H1 C3 1_555 1_555
H2 C5 1_555 1_555
H4 N1 1_555 1_555
C2G C2 1_555 1_555
N1G C1 1_555 1_555
H4G N1G 1_555 1_555
C3G C2G 1_555 1_555
C4G C4 1_555 1_555
C6G C6 1_555 1_555
C5G C4G 1_555 1_555
H2G C5G 1_555 1_555
H3G C6G 1_555 1_555
H1G C3G 1_555 1_555
C2G N1G 1_555 1_555
C3G C4G 1_555 1_555
C6G C5G 1_555 1_555

#END
