
#######################################################################
#
#                 Cambridge Crystallographic Data Centre
#                                CCDC 
#
#######################################################################
#
# If this CIF has been generated from an entry in the Cambridge 
# Structural Database, then it will include bibliographic, chemical, 
# crystal, experimental, refinement or atomic coordinate data resulting 
# from the CCDC's data processing and validation procedures.
#
#######################################################################

data_SINZUN
_chemical_formula_moiety         'C36 H22 N2 S3,C1 D1 Cl3'
_chemical_name_systematic        
'2,8-bis(phenothiazin-10-yl)dibenzo[b,d]thiophene deuterochloroform solvate'
_symmetry_cell_setting           triclinic
_symmetry_space_group_name_H-M   'P -1'
_symmetry_Int_Tables_number      2
_space_group_name_Hall           '-P 1'
loop_
_symmetry_equiv_pos_site_id
_symmetry_equiv_pos_as_xyz
1 x,y,z
2 -x,-y,-z
_cell_length_a                   7.2606(4)
_cell_length_b                   13.8198(7)
_cell_length_c                   17.5138(9)
_cell_angle_alpha                105.2745(17)
_cell_angle_beta                 94.0471(19)
_cell_angle_gamma                103.9672(18)
_cell_volume                     1628.15
_exptl_crystal_colour            'light yellow'
_exptl_crystal_description       lath
_cell_formula_units_Z            2
_exptl_crystal_recrystallization_method deuterochloroform
_exptl_crystal_preparation       Luminescent
loop_
_atom_site_label
_atom_site_type_symbol
_atom_site_fract_x
_atom_site_fract_y
_atom_site_fract_z
S1 S 0.20189(8) 0.29338(5) 0.39218(4)
S2 S 0.79135(10) -0.19096(6) 0.18124(5)
S3 S 1.26007(9) 0.62163(6) 0.23267(4)
N1 N 0.5473(3) -0.04876(15) 0.25249(12)
N2 N 0.8963(3) 0.53421(14) 0.29801(11)
C1 C 0.2820(3) 0.18380(18) 0.35098(14)
C2 C 0.1900(3) 0.08082(18) 0.34602(14)
H1 H 0.070346 0.063693 0.364927
C3 C 0.2774(3) 0.00457(18) 0.31291(15)
H2 H 0.217358 -0.066040 0.309043
C4 C 0.4542(3) 0.02994(17) 0.28482(14)
C5 C 0.5429(3) 0.13159(17) 0.28877(13)
H3 H 0.661216 0.148158 0.268817
C6 C 0.4574(3) 0.20976(17) 0.32228(13)
C7 C 0.5263(3) 0.32050(17) 0.33292(13)
C8 C 0.6925(3) 0.37466(17) 0.31080(13)
H4 H 0.778687 0.338672 0.285969
C9 C 0.7298(3) 0.48070(17) 0.32545(13)
C10 C 0.6065(3) 0.53505(18) 0.36353(14)
H5 H 0.635556 0.608435 0.373271
C11 C 0.4428(3) 0.48333(18) 0.38716(14)
H6 H 0.359789 0.520184 0.413763
C12 C 0.4031(3) 0.37544(17) 0.37081(14)
C13 C 0.6563(3) -0.07785(17) 0.30835(15)
C14 C 0.7636(3) -0.14883(18) 0.28252(16)
C15 C 0.8635(4) -0.18053(19) 0.33748(18)
H7 H 0.929065 -0.232086 0.319009
C16 C 0.8693(4) -0.1381(2) 0.41897(18)
H8 H 0.939379 -0.159575 0.456325
C17 C 0.7713(4) -0.0641(2) 0.44496(17)
H9 H 0.777456 -0.032811 0.500646
C18 C 0.6641(4) -0.03513(18) 0.39046(15)
H10 H 0.595055 0.014553 0.409347
C19 C 0.4747(4) -0.11484(18) 0.17373(15)
C20 C 0.5715(4) -0.18634(19) 0.13595(16)
C21 C 0.5003(4) -0.2507(2) 0.05866(16)
H11 H 0.563948 -0.300773 0.034124
C22 C 0.3383(5) -0.2428(2) 0.01713(17)
H12 H 0.292242 -0.286006 -0.036047
C23 C 0.2439(5) -0.1714(2) 0.05369(17)
H13 H 0.132741 -0.165296 0.025389
C24 C 0.3103(4) -0.1088(2) 0.13132(16)
H14 H 0.242703 -0.060856 0.156053
C25 C 1.0487(3) 0.60302(16) 0.35566(13)
C26 C 1.2175(3) 0.65433(18) 0.33282(14)
C27 C 1.3627(3) 0.72583(18) 0.38957(16)
H15 H 1.472207 0.763307 0.372695
C28 C 1.3522(4) 0.7440(2) 0.47025(16)
H16 H 1.453336 0.793009 0.508763
C29 C 1.1920(4) 0.6896(2) 0.49385(15)
H17 H 1.184872 0.699377 0.549218
C30 C 1.0406(3) 0.62046(19) 0.43763(14)
H18 H 0.930313 0.584660 0.455089
C31 C 0.8680(3) 0.54289(17) 0.21930(13)
C32 C 1.0231(4) 0.58293(18) 0.18333(14)
C33 C 0.9949(4) 0.5892(2) 0.10559(15)
H19 H 1.100997 0.618732 0.082477
C34 C 0.8138(4) 0.5529(2) 0.06180(15)
H20 H 0.795726 0.554576 0.007949
C35 C 0.6588(4) 0.5142(2) 0.09700(15)
H21 H 0.533501 0.490451 0.067495
C36 C 0.6852(4) 0.50974(19) 0.17502(15)
H22 H 0.577354 0.483760 0.198690
Cl1 Cl 0.9275(3) 0.10605(14) 0.14762(10)
Cl2 Cl 1.0750(3) 0.32193(15) 0.16078(9)
Cl3 Cl 1.2777(3) 0.17614(18) 0.09039(11)
C37 C 1.1344(7) 0.2093(5) 0.1614(3)
D1 D 1.207524 0.220880 0.215110
Cl4? Cl 0.834(3) 0.0523(18) 0.1081(14)
Cl5? Cl 1.071(3) 0.254(2) 0.1620(13)
Cl6? Cl 1.184(3) 0.0959(17) 0.0481(12)
C38? C 1.053(5) 0.129(2) 0.118(3)
D2? D 1.117071 0.110936 0.162775
loop_
_geom_bond_atom_site_label_1
_geom_bond_atom_site_label_2
_geom_bond_site_symmetry_1
_geom_bond_site_symmetry_2
S1 C1 1_555 1_555
S2 C14 1_555 1_555
S3 C26 1_555 1_555
N1 C4 1_555 1_555
N2 C9 1_555 1_555
C1 C2 1_555 1_555
C2 H1 1_555 1_555
C3 C2 1_555 1_555
H2 C3 1_555 1_555
C4 C3 1_555 1_555
C5 C4 1_555 1_555
H3 C5 1_555 1_555
C6 C1 1_555 1_555
C7 C6 1_555 1_555
C8 C7 1_555 1_555
H4 C8 1_555 1_555
C9 C8 1_555 1_555
C10 C9 1_555 1_555
H5 C10 1_555 1_555
C11 C10 1_555 1_555
H6 C11 1_555 1_555
C12 S1 1_555 1_555
C13 N1 1_555 1_555
C14 C13 1_555 1_555
C15 C14 1_555 1_555
H7 C15 1_555 1_555
C16 C15 1_555 1_555
H8 C16 1_555 1_555
C17 C16 1_555 1_555
H9 C17 1_555 1_555
C18 C13 1_555 1_555
H10 C18 1_555 1_555
C19 N1 1_555 1_555
C20 S2 1_555 1_555
C21 C20 1_555 1_555
H11 C21 1_555 1_555
C22 C21 1_555 1_555
H12 C22 1_555 1_555
C23 C22 1_555 1_555
H13 C23 1_555 1_555
C24 C19 1_555 1_555
H14 C24 1_555 1_555
C25 N2 1_555 1_555
C26 C25 1_555 1_555
C27 C26 1_555 1_555
H15 C27 1_555 1_555
C28 C27 1_555 1_555
H16 C28 1_555 1_555
C29 C28 1_555 1_555
H17 C29 1_555 1_555
C30 C25 1_555 1_555
H18 C30 1_555 1_555
C31 N2 1_555 1_555
C32 S3 1_555 1_555
C33 C32 1_555 1_555
H19 C33 1_555 1_555
C34 C33 1_555 1_555
H20 C34 1_555 1_555
C35 C34 1_555 1_555
H21 C35 1_555 1_555
C36 C31 1_555 1_555
H22 C36 1_555 1_555
Cl1 C37 1_555 1_555
Cl2 C37 1_555 1_555
Cl3 C37 1_555 1_555
C37 D1 1_555 1_555
C5 C6 1_555 1_555
C7 C12 1_555 1_555
C11 C12 1_555 1_555
C17 C18 1_555 1_555
C19 C20 1_555 1_555
C23 C24 1_555 1_555
C29 C30 1_555 1_555
C31 C32 1_555 1_555
C35 C36 1_555 1_555

#END
