
#######################################################################
#
#                 Cambridge Crystallographic Data Centre
#                                CCDC 
#
#######################################################################
#
# If this CIF has been generated from an entry in the Cambridge 
# Structural Database, then it will include bibliographic, chemical, 
# crystal, experimental, refinement or atomic coordinate data resulting 
# from the CCDC's data processing and validation procedures.
#
#######################################################################

data_SINZIY
_chemical_formula_moiety         'C9 H10 N2 S1'
_chemical_name_systematic        4,5-Dimethylbenzimidazolene-2-thione
_symmetry_cell_setting           monoclinic
_symmetry_space_group_name_H-M   'P 21'
_symmetry_Int_Tables_number      4
_space_group_name_Hall           'P 2yb'
loop_
_symmetry_equiv_pos_site_id
_symmetry_equiv_pos_as_xyz
1 x,y,z
2 -x,1/2+y,-z
_cell_length_a                   5.3410(4)
_cell_length_b                   8.3421(7)
_cell_length_c                   10.5205(9)
_cell_angle_alpha                90
_cell_angle_beta                 102.819(2)
_cell_angle_gamma                90
_cell_volume                     457.06
_exptl_crystal_description       needles
_chemical_melting_point          'above 350deg.C'
_cell_formula_units_Z            2
loop_
_atom_site_label
_atom_site_type_symbol
_atom_site_fract_x
_atom_site_fract_y
_atom_site_fract_z
S1 S -0.4766(2) -0.0690(4) -0.5917(12)
C1 C -0.6627(9) -0.0635(13) -0.4804(5)
C2 C -0.8986(22) -0.1587(10) -0.3426(10)
C3 C -0.8969(22) 0.0087(10) -0.3380(8)
C4 C -1.0304(22) 0.0946(14) -0.2573(11)
C5 C -1.1644(28) 0.0132(18) -0.1882(12)
C6 C -1.1604(26) -0.1572(13) -0.1832(9)
C7 C -1.0316(24) -0.2443(11) -0.2678(10)
C8 C -1.3027(21) 0.1079(20) -0.0962(12)
C9 C -1.3067(26) -0.2489(13) -0.1018(8)
N1 N -0.7550(16) -0.2025(9) -0.4269(8)
N2 N -0.7517(18) 0.0583(8) -0.4304(8)
H1 H -0.7237(16) -0.2997(9) -0.4457(8)
H2 H -0.7277(18) 0.1564(8) -0.4499(6)
H3 H -1.0234(22) 0.2059(14) -0.2533(11)
H4 H -1.0382(24) -0.3556(11) -0.2718(10)
H5 H -1.3925(21) 0.0344(20) -0.0521(12)
H6 H -1.4228(21) 0.1818(20) -0.1467(12)
H7 H -1.1780(21) 0.1660(20) -0.0333(12)
H8 H -1.2800(26) -0.3617(13) -0.1113(8)
H9 H -1.4864(26) -0.2250(13) -0.1297(8)
H10 H -1.2480(26) -0.2190(13) -0.0120(8)
loop_
_geom_bond_atom_site_label_1
_geom_bond_atom_site_label_2
_geom_bond_site_symmetry_1
_geom_bond_site_symmetry_2
S1 C1 1_555 1_555
C1 N1 1_555 1_555
C2 C3 1_555 1_555
C3 C4 1_555 1_555
C4 C5 1_555 1_555
C5 C6 1_555 1_555
C6 C7 1_555 1_555
C7 C2 1_555 1_555
C8 C5 1_555 1_555
C9 C6 1_555 1_555
N1 C2 1_555 1_555
N2 C1 1_555 1_555
H1 N1 1_555 1_555
H2 N2 1_555 1_555
H3 C4 1_555 1_555
H4 C7 1_555 1_555
H5 C8 1_555 1_555
H6 C8 1_555 1_555
H7 C8 1_555 1_555
H8 C9 1_555 1_555
H9 C9 1_555 1_555
H10 C9 1_555 1_555
C3 N2 1_555 1_555

#END
