
#######################################################################
#
#                 Cambridge Crystallographic Data Centre
#                                CCDC 
#
#######################################################################
#
# If this CIF has been generated from an entry in the Cambridge 
# Structural Database, then it will include bibliographic, chemical, 
# crystal, experimental, refinement or atomic coordinate data resulting 
# from the CCDC's data processing and validation procedures.
#
#######################################################################

data_SIPQOY
_chemical_formula_moiety         'C17 H20 N2 O4'
_chemical_name_systematic        
'(2R,3R)-(4E)-2-cyano-2,3,4-trimethylhex-4-enyl 4-nitrobenzoate'
_symmetry_cell_setting           orthorhombic
_symmetry_space_group_name_H-M   'P b c a'
_symmetry_Int_Tables_number      61
_space_group_name_Hall           '-P 2ac 2ab'
loop_
_symmetry_equiv_pos_site_id
_symmetry_equiv_pos_as_xyz
1 x,y,z
2 1/2-x,-y,1/2+z
3 -x,1/2+y,1/2-z
4 1/2+x,1/2-y,-z
5 -x,-y,-z
6 1/2+x,y,1/2-z
7 x,1/2-y,1/2+z
8 1/2-x,1/2+y,z
_cell_length_a                   14.316(11)
_cell_length_b                   7.443(6)
_cell_length_c                   31.78(3)
_cell_angle_alpha                90
_cell_angle_beta                 90
_cell_angle_gamma                90
_cell_volume                     3386.29
_exptl_crystal_colour            colorless
_exptl_crystal_description       plate
_chemical_melting_point          '348-350 K'
_cell_formula_units_Z            8
loop_
_atom_site_label
_atom_site_type_symbol
_atom_site_fract_x
_atom_site_fract_y
_atom_site_fract_z
O1 O 0.4474(3) -0.1667(5) 0.80677(10)
O2 O 0.3126(3) -0.1361(5) 0.83354(11)
O3 O 0.29389(18) 0.2212(4) 0.62207(9)
O4 O 0.1496(2) 0.1750(3) 0.64476(6)
N1 N 0.3664(3) -0.1239(5) 0.80458(12)
N2 N -0.0648(2) 0.3071(5) 0.67528(12)
C1 C 0.0115(2) 0.2178(5) 0.60331(9)
C2 C 0.3327(3) -0.0437(5) 0.76480(12)
C3 C 0.2080(3) 0.0378(5) 0.72027(13)
H1 H 0.1443 0.0469 0.7151
C4 C 0.1146(3) 0.2584(5) 0.60665(10)
H2 H 0.1474 0.2111 0.5823
H3 H 0.1245 0.3873 0.6077
C5 C 0.2706(3) 0.0920(4) 0.69012(12)
C6 C 0.3650(3) 0.0790(5) 0.69776(12)
H4 H 0.4076 0.1171 0.6775
C7 C 0.2388(3) -0.0301(5) 0.75830(13)
H5 H 0.1966 -0.0657 0.7789
C8 C 0.2420(3) 0.1691(5) 0.64903(13)
C9 C -0.1206(3) 0.2678(5) 0.55019(11)
C10 C -0.0327(3) 0.2688(5) 0.64384(13)
C11 C -0.1272(3) 0.2003(5) 0.51158(12)
H6 H -0.0719 0.1946 0.4963
C12 C -0.0285(2) 0.3322(5) 0.56640(11)
H7 H 0.0156 0.3178 0.5431
C13 C 0.3964(3) 0.0099(5) 0.73522(14)
H8 H 0.4601 -0.0004 0.7404
C14 C -0.2028(3) 0.2839(6) 0.57878(12)
H9 H -0.2593 0.2700 0.5628
H10 H -0.2024 0.4000 0.5920
H11 H -0.1997 0.1922 0.6000
C15 C -0.0033(3) 0.0151(4) 0.59640(11)
H12 H 0.0292 -0.0509 0.6179
H13 H 0.0206 -0.0183 0.5693
H14 H -0.0688 -0.0119 0.5978
C16 C -0.2118(3) 0.1328(7) 0.48978(14)
H15 H -0.2101 0.0040 0.4887
H16 H -0.2137 0.1800 0.4617
H17 H -0.2665 0.1708 0.5048
C17 C -0.0300(3) 0.5351(5) 0.57647(14)
H18 H -0.0521 0.6003 0.5524
H19 H 0.0320 0.5745 0.5834
H20 H -0.0707 0.5568 0.5999
loop_
_geom_bond_atom_site_label_1
_geom_bond_atom_site_label_2
_geom_bond_site_symmetry_1
_geom_bond_site_symmetry_2
O1 N1 1_555 1_555
O2 N1 1_555 1_555
O3 C8 1_555 1_555
O4 C4 1_555 1_555
N1 C2 1_555 1_555
N2 C10 1_555 1_555
C1 C4 1_555 1_555
C2 C7 1_555 1_555
C3 H1 1_555 1_555
C4 H2 1_555 1_555
H3 C4 1_555 1_555
C5 C3 1_555 1_555
C6 C5 1_555 1_555
H4 C6 1_555 1_555
C7 C3 1_555 1_555
H5 C7 1_555 1_555
C8 O4 1_555 1_555
C9 C11 1_555 1_555
C10 C1 1_555 1_555
C11 H6 1_555 1_555
C12 C1 1_555 1_555
H7 C12 1_555 1_555
C13 C2 1_555 1_555
H8 C13 1_555 1_555
C14 C9 1_555 1_555
H9 C14 1_555 1_555
H10 C14 1_555 1_555
H11 C14 1_555 1_555
C15 C1 1_555 1_555
H12 C15 1_555 1_555
H13 C15 1_555 1_555
H14 C15 1_555 1_555
C16 C11 1_555 1_555
H15 C16 1_555 1_555
H16 C16 1_555 1_555
H17 C16 1_555 1_555
C17 C12 1_555 1_555
H18 C17 1_555 1_555
H19 C17 1_555 1_555
H20 C17 1_555 1_555
C5 C8 1_555 1_555
C6 C13 1_555 1_555
C9 C12 1_555 1_555

#END
