
#######################################################################
#
#                 Cambridge Crystallographic Data Centre
#                                CCDC 
#
#######################################################################
#
# If this CIF has been generated from an entry in the Cambridge 
# Structural Database, then it will include bibliographic, chemical, 
# crystal, experimental, refinement or atomic coordinate data resulting 
# from the CCDC's data processing and validation procedures.
#
#######################################################################

data_SIPTUH
_chemical_formula_moiety         'C32 H28 Br1 Cl1 N4 O4 S1'
_chemical_name_systematic        
'(R)-2-(N-((5-(4-chlorobenzylcarbamoyl)-7-methyl-4-oxo-4,7-dihydrothieno[2,3-b]pyridin-2-yl)methyl)methylamino)-1-pyridin-2-ylethyl 4-bromobenzoate'
_chemical_properties_biological  
'Potent antiviral against human herpes virus polymerases'
_symmetry_cell_setting           orthorhombic
_symmetry_space_group_name_H-M   'P 21 21 21'
_symmetry_Int_Tables_number      19
_space_group_name_Hall           'P 2ac 2ab'
loop_
_symmetry_equiv_pos_site_id
_symmetry_equiv_pos_as_xyz
1 x,y,z
2 1/2-x,-y,1/2+z
3 -x,1/2+y,1/2-z
4 1/2+x,1/2-y,-z
_cell_length_a                   5.8467(12)
_cell_length_b                   12.807(3)
_cell_length_c                   39.482(8)
_cell_angle_alpha                90
_cell_angle_beta                 90
_cell_angle_gamma                90
_cell_volume                     2956.36
_cell_formula_units_Z            4
loop_
_atom_site_label
_atom_site_type_symbol
_atom_site_fract_x
_atom_site_fract_y
_atom_site_fract_z
Br1 Br -0.31478(10) 0.50894(4) 0.103171(12)
S1 S 0.2858(2) 0.19531(9) 0.15406(3)
Cl1 Cl 0.8004(3) -0.38238(9) -0.06681(3)
O1 O 0.1495(5) 0.3075(2) 0.24699(7)
N1 N 0.3180(7) 0.2148(3) 0.08508(8)
O2 O 0.9069(6) 0.0383(2) 0.08605(7)
O3 O 0.6253(6) 0.1496(2) -0.00575(7)
N2 N 0.2642(6) 0.1100(3) 0.22303(8)
C1 C 0.1722(8) 0.4993(4) 0.17907(10)
H1 H 0.3067 0.5344 0.1844
N3 N 0.4462(7) 0.2493(3) 0.32417(9)
C2 C 0.2428(9) 0.3818(4) 0.22758(11)
C3 C 0.2993(8) 0.2446(3) 0.26790(10)
H2 H 0.4588 0.2597 0.2620
O4 O 0.4362(7) 0.4126(3) 0.23219(8)
C4 C 0.6018(8) 0.1160(4) 0.11577(10)
C5 C 0.0963(8) 0.4179(4) 0.19954(10)
C6 C 0.2620(8) 0.2668(4) 0.30506(10)
C7 C 0.7241(8) 0.0896(3) 0.08538(11)
N4 N 0.9212(7) 0.0645(3) 0.01919(8)
H3 H 0.9795 0.0434 0.0380
C8 C 0.4257(8) 0.1910(4) 0.05592(11)
H4 H 0.3637 0.2152 0.0357
C9 C 0.2283(9) 0.3062(4) 0.37223(11)
H5 H 0.2230 0.3208 0.3953
C10 C 0.7765(8) -0.0806(4) -0.04284(10)
H6 H 0.6729 -0.0260 -0.0452
C11 C 0.4054(8) 0.1757(4) 0.11484(10)
C12 C 0.7190(9) 0.1160(4) 0.02000(11)
C13 C 1.0814(9) -0.2452(4) -0.03572(10)
H7 H 1.1829 -0.3005 -0.0332
C14 C 0.0411(10) 0.3219(4) 0.35210(12)
H8 H -0.0944 0.3476 0.3612
C15 C 0.6234(8) 0.1326(4) 0.05465(11)
C16 C 0.1592(8) 0.0096(4) 0.21486(10)
H9 H 0.2324 -0.0447 0.2277
H10 H 0.1769 -0.0043 0.1911
H11 H -0.0005 0.0117 0.2204
C17 C 0.2461(8) 0.1327(3) 0.25934(9)
H12 H 0.3506 0.0876 0.2716
H13 H 0.0922 0.1166 0.2669
C18 C 0.9858(8) -0.0630(4) -0.02638(11)
C19 C 0.6547(9) 0.0848(3) 0.14970(11)
H14 H 0.7795 0.0433 0.1553
C20 C 0.5041(7) 0.1111(4) 0.21069(10)
H15 H 0.5801 0.0468 0.2171
H16 H 0.5862 0.1690 0.2208
C21 C 0.0574(9) 0.2986(4) 0.31782(11)
H17 H -0.0697 0.3047 0.3038
C22 C -0.1057(9) 0.3687(4) 0.19197(11)
H18 H -0.1597 0.3164 0.2062
C23 C -0.1512(9) 0.4754(4) 0.14314(11)
C24 C 0.8763(9) -0.2590(4) -0.05176(11)
C25 C 0.1222(8) 0.2859(4) 0.08598(11)
H19 H 0.1665 0.3502 0.0966
H20 H 0.0000 0.2544 0.0986
H21 H 0.0715 0.2998 0.0633
C26 C -0.2306(9) 0.3957(4) 0.16351(11)
H22 H -0.3653 0.3607 0.1582
C27 C 0.0486(9) 0.5279(4) 0.15085(12)
H23 H 0.0993 0.5822 0.1371
C28 C 0.7223(9) -0.1776(4) -0.05560(11)
H24 H 0.5839 -0.1884 -0.0667
C29 C 0.5049(8) 0.1220(4) 0.17257(11)
C30 C 1.1352(8) -0.1468(4) -0.02331(10)
H25 H 1.2752 -0.1367 -0.0126
C31 C 1.0443(8) 0.0433(4) -0.01226(11)
H26 H 1.2076 0.0470 -0.0081
H27 H 1.0061 0.0964 -0.0289
C32 C 0.4234(11) 0.2685(4) 0.35756(13)
H28 H 0.5483 0.2552 0.3715
loop_
_geom_bond_atom_site_label_1
_geom_bond_atom_site_label_2
_geom_bond_site_symmetry_1
_geom_bond_site_symmetry_2
Br1 C23 1_555 1_555
S1 C11 1_555 1_555
Cl1 C24 1_555 1_555
O1 C2 1_555 1_555
N1 C8 1_555 1_555
O2 C7 1_555 1_555
O3 C12 1_555 1_555
N2 C16 1_555 1_555
C1 H1 1_555 1_555
N3 C6 1_555 1_555
C2 O4 1_555 1_555
C3 O1 1_555 1_555
H2 C3 1_555 1_555
C4 C7 1_555 1_555
C5 C1 1_555 1_555
C6 C3 1_555 1_555
C7 C15 1_555 1_555
N4 H3 1_555 1_555
C8 H4 1_555 1_555
C9 H5 1_555 1_555
C10 H6 1_555 1_555
C11 N1 1_555 1_555
C12 N4 1_555 1_555
C13 H7 1_555 1_555
C14 C9 1_555 1_555
H8 C14 1_555 1_555
C15 C8 1_555 1_555
C16 H9 1_555 1_555
H10 C16 1_555 1_555
H11 C16 1_555 1_555
C17 N2 1_555 1_555
H12 C17 1_555 1_555
H13 C17 1_555 1_555
C18 C10 1_555 1_555
C19 C4 1_555 1_555
H14 C19 1_555 1_555
C20 N2 1_555 1_555
H15 C20 1_555 1_555
H16 C20 1_555 1_555
C21 C6 1_555 1_555
H17 C21 1_555 1_555
C22 C5 1_555 1_555
H18 C22 1_555 1_555
C23 C26 1_555 1_555
C24 C13 1_555 1_555
C25 N1 1_555 1_555
H19 C25 1_555 1_555
H20 C25 1_555 1_555
H21 C25 1_555 1_555
C26 C22 1_555 1_555
H22 C26 1_555 1_555
C27 C1 1_555 1_555
H23 C27 1_555 1_555
C28 C10 1_555 1_555
H24 C28 1_555 1_555
C29 S1 1_555 1_555
C30 C13 1_555 1_555
H25 C30 1_555 1_555
C31 N4 1_555 1_555
H26 C31 1_555 1_555
H27 C31 1_555 1_555
C32 N3 1_555 1_555
H28 C32 1_555 1_555
C2 C5 1_555 1_555
C3 C17 1_555 1_555
C4 C11 1_555 1_555
C9 C32 1_555 1_555
C12 C15 1_555 1_555
C14 C21 1_555 1_555
C18 C30 1_555 1_555
C18 C31 1_555 1_555
C19 C29 1_555 1_555
C20 C29 1_555 1_555
C23 C27 1_555 1_555
C24 C28 1_555 1_555

#END
