
#######################################################################
#
#                 Cambridge Crystallographic Data Centre
#                                CCDC 
#
#######################################################################
#
# If this CIF has been generated from an entry in the Cambridge 
# Structural Database, then it will include bibliographic, chemical, 
# crystal, experimental, refinement or atomic coordinate data resulting 
# from the CCDC's data processing and validation procedures.
#
#######################################################################

data_SIQBUS
_chemical_name_common            
10,10'-(dibenzo[b,d]thiene-2,8-diyl)bis(1-isopropyl-10H-phenothiazine)
_chemical_formula_moiety         'C42 H34 N2 S3'
_chemical_name_systematic        
2,8-bis(1-isopropyl-10H-phenothiazin-10-yl)dibenzo[b,d]thiophene
_symmetry_cell_setting           monoclinic
_symmetry_space_group_name_H-M   'C 2/c'
_symmetry_Int_Tables_number      15
_space_group_name_Hall           '-C 2yn'
loop_
_symmetry_equiv_pos_site_id
_symmetry_equiv_pos_as_xyz
1 x,y,z
2 -x,y,1/2-z
3 1/2+x,1/2+y,z
4 1/2-x,1/2+y,1/2-z
5 -x,-y,-z
6 x,-y,1/2+z
7 1/2-x,1/2-y,-z
8 1/2+x,1/2-y,1/2+z
_cell_length_a                   27.5841(7)
_cell_length_b                   14.4337(4)
_cell_length_c                   8.0484(2)
_cell_angle_alpha                90
_cell_angle_beta                 90.3137(14)
_cell_angle_gamma                90
_cell_volume                     3204.35
_exptl_crystal_colour            colorless
_exptl_crystal_description       needle
_cell_formula_units_Z            4
_exptl_crystal_recrystallization_method chloroform/hexane
_exptl_crystal_preparation       Luminescent
loop_
_atom_site_label
_atom_site_type_symbol
_atom_site_fract_x
_atom_site_fract_y
_atom_site_fract_z
S1 S 0.500000 0.35305(5) 0.250000
S2 S 0.70468(2) 0.65922(4) 0.14579(6)
N1 N 0.63275(5) 0.66444(11) 0.42148(19)
C1 C 0.54065(6) 0.43811(13) 0.3185(2)
C2 C 0.58512(6) 0.42327(14) 0.3960(2)
H1 H 0.595179 0.362236 0.423771
C3 C 0.61449(6) 0.49792(14) 0.4321(2)
H2 H 0.644677 0.488021 0.486624
C4 C 0.60044(6) 0.58855(13) 0.3893(2)
C5 C 0.55479(6) 0.60349(14) 0.3190(2)
H3 H 0.544456 0.664680 0.293574
C6 C 0.52431(6) 0.52854(13) 0.2862(2)
C7 C 0.63036(7) 0.74332(14) 0.3129(2)
C8 C 0.66115(6) 0.74764(14) 0.1760(2)
C9 C 0.65901(7) 0.82154(15) 0.0663(2)
H4 H 0.679857 0.823862 -0.027161
C10 C 0.62605(7) 0.89185(15) 0.0950(2)
H5 H 0.623538 0.941808 0.018603
C11 C 0.59651(7) 0.89023(14) 0.2347(2)
H6 H 0.574606 0.939883 0.253551
C12 C 0.59855(6) 0.81649(14) 0.3482(2)
C13 C 0.68145(6) 0.64215(13) 0.4739(2)
C14 C 0.71817(7) 0.63580(14) 0.3568(2)
C15 C 0.76503(7) 0.61238(15) 0.4051(2)
H7 H 0.790098 0.608863 0.324887
C16 C 0.77506(7) 0.59413(15) 0.5712(3)
H8 H 0.806810 0.576169 0.604313
C17 C 0.73866(7) 0.60213(15) 0.6891(3)
H9 H 0.745676 0.590585 0.802902
C18 C 0.69217(7) 0.62690(14) 0.6408(2)
H10 H 0.667522 0.633517 0.721893
C19 C 0.56878(7) 0.81434(14) 0.5059(2)
H11 H 0.556855 0.749458 0.520669
C20 C 0.52430(8) 0.87774(18) 0.5003(3)
H12 H 0.534834 0.942442 0.492785
H13 H 0.505237 0.869114 0.601567
H14 H 0.504345 0.862254 0.403116
C21 C 0.60036(7) 0.83791(16) 0.6574(3)
H15 H 0.627882 0.795075 0.663002
H16 H 0.581017 0.832150 0.758652
H17 H 0.612351 0.901562 0.647398
S2A S 0.29532(2) 0.65922(4) 0.35421(6)
N1A N 0.36725(5) 0.66444(11) 0.07852(19)
C1A C 0.45935(6) 0.43811(13) 0.1815(2)
C2A C 0.41488(6) 0.42327(14) 0.1040(2)
H1A H 0.404821 0.362236 0.076229
C3A C 0.38551(6) 0.49792(14) 0.0679(2)
H2A H 0.355323 0.488021 0.013376
C4A C 0.39956(6) 0.58855(13) 0.1107(2)
C5A C 0.44521(6) 0.60349(14) 0.1810(2)
H3A H 0.455544 0.664680 0.206426
C6A C 0.47569(6) 0.52854(13) 0.2138(2)
C7A C 0.36964(7) 0.74332(14) 0.1871(2)
C8A C 0.33885(6) 0.74764(14) 0.3240(2)
C9A C 0.34099(7) 0.82154(15) 0.4337(2)
H4A H 0.320143 0.823862 0.527161
C10A C 0.37395(7) 0.89185(15) 0.4050(2)
H5A H 0.376462 0.941808 0.481397
C11A C 0.40349(7) 0.89023(14) 0.2653(2)
H6A H 0.425394 0.939883 0.246449
C12A C 0.40145(6) 0.81649(14) 0.1518(2)
C13A C 0.31855(6) 0.64215(13) 0.0261(2)
C14A C 0.28183(7) 0.63580(14) 0.1432(2)
C15A C 0.23497(7) 0.61238(15) 0.0949(2)
H7A H 0.209902 0.608863 0.175113
C16A C 0.22494(7) 0.59413(15) -0.0712(3)
H8A H 0.193190 0.576169 -0.104313
C17A C 0.26134(7) 0.60213(15) -0.1891(3)
H9A H 0.254324 0.590585 -0.302902
C18A C 0.30783(7) 0.62690(14) -0.1408(2)
H10A H 0.332478 0.633517 -0.221893
C19A C 0.43122(7) 0.81434(14) -0.0059(2)
H11A H 0.443145 0.749458 -0.020669
C20A C 0.47570(8) 0.87774(18) -0.0003(3)
H12A H 0.465166 0.942442 0.007215
H13A H 0.494763 0.869114 -0.101567
H14A H 0.495655 0.862254 0.096884
C21A C 0.39964(7) 0.83791(16) -0.1574(3)
H15A H 0.372118 0.795075 -0.163002
H16A H 0.418983 0.832150 -0.258652
H17A H 0.387649 0.901562 -0.147398
loop_
_geom_bond_atom_site_label_1
_geom_bond_atom_site_label_2
_geom_bond_site_symmetry_1
_geom_bond_site_symmetry_2
S1 C1 1_555 1_555
S2 C8 1_555 1_555
N1 C4 1_555 1_555
C1 C2 1_555 1_555
C2 H1 1_555 1_555
C3 C2 1_555 1_555
H2 C3 1_555 1_555
C4 C3 1_555 1_555
C5 C4 1_555 1_555
H3 C5 1_555 1_555
C6 C1 1_555 1_555
C7 N1 1_555 1_555
C8 C7 1_555 1_555
C9 C8 1_555 1_555
H4 C9 1_555 1_555
C10 C9 1_555 1_555
H5 C10 1_555 1_555
C11 C10 1_555 1_555
H6 C11 1_555 1_555
C12 C7 1_555 1_555
C13 N1 1_555 1_555
C14 S2 1_555 1_555
C15 C14 1_555 1_555
H7 C15 1_555 1_555
C16 C15 1_555 1_555
H8 C16 1_555 1_555
C17 C16 1_555 1_555
H9 C17 1_555 1_555
C18 C13 1_555 1_555
H10 C18 1_555 1_555
C19 C12 1_555 1_555
H11 C19 1_555 1_555
C20 C19 1_555 1_555
H12 C20 1_555 1_555
H13 C20 1_555 1_555
H14 C20 1_555 1_555
C21 C19 1_555 1_555
H15 C21 1_555 1_555
H16 C21 1_555 1_555
H17 C21 1_555 1_555
S2A C8A 1_555 1_555
N1A C4A 1_555 1_555
C1A S1 1_555 1_555
C2A C1A 1_555 1_555
H1A C2A 1_555 1_555
C3A C2A 1_555 1_555
H2A C3A 1_555 1_555
C4A C3A 1_555 1_555
C5A C4A 1_555 1_555
H3A C5A 1_555 1_555
C6A C6 1_555 1_555
C7A N1A 1_555 1_555
C8A C7A 1_555 1_555
C9A C8A 1_555 1_555
H4A C9A 1_555 1_555
C10A C9A 1_555 1_555
H5A C10A 1_555 1_555
C11A C10A 1_555 1_555
H6A C11A 1_555 1_555
C12A C7A 1_555 1_555
C13A N1A 1_555 1_555
C14A S2A 1_555 1_555
C15A C14A 1_555 1_555
H7A C15A 1_555 1_555
C16A C15A 1_555 1_555
H8A C16A 1_555 1_555
C17A C16A 1_555 1_555
H9A C17A 1_555 1_555
C18A C13A 1_555 1_555
H10A C18A 1_555 1_555
C19A C12A 1_555 1_555
H11A C19A 1_555 1_555
C20A C19A 1_555 1_555
H12A C20A 1_555 1_555
H13A C20A 1_555 1_555
H14A C20A 1_555 1_555
C21A C19A 1_555 1_555
H15A C21A 1_555 1_555
H16A C21A 1_555 1_555
H17A C21A 1_555 1_555
C5 C6 1_555 1_555
C11 C12 1_555 1_555
C13 C14 1_555 1_555
C17 C18 1_555 1_555
C1A C6A 1_555 1_555
C5A C6A 1_555 1_555
C11A C12A 1_555 1_555
C13A C14A 1_555 1_555
C17A C18A 1_555 1_555

#END
