
#######################################################################
#
#                 Cambridge Crystallographic Data Centre
#                                CCDC 
#
#######################################################################
#
# If this CIF has been generated from an entry in the Cambridge 
# Structural Database, then it will include bibliographic, chemical, 
# crystal, experimental, refinement or atomic coordinate data resulting 
# from the CCDC's data processing and validation procedures.
#
#######################################################################

data_SIQBIG
_chemical_formula_moiety         'C38 H26 N2 S3'
_chemical_name_systematic        
2,8-bis(1-methyl-10H-phenothiazin-10-yl)dibenzo[b,d]thiophene
_symmetry_cell_setting           monoclinic
_symmetry_space_group_name_H-M   'P 21/n'
_symmetry_Int_Tables_number      14
_space_group_name_Hall           '-P 2yn'
loop_
_symmetry_equiv_pos_site_id
_symmetry_equiv_pos_as_xyz
1 x,y,z
2 1/2-x,1/2+y,1/2-z
3 -x,-y,-z
4 1/2+x,1/2-y,1/2+z
_cell_length_a                   11.7234(4)
_cell_length_b                   14.3733(4)
_cell_length_c                   18.1421(6)
_cell_angle_alpha                90
_cell_angle_beta                 101.501(2)
_cell_angle_gamma                90
_cell_volume                     2995.63
_exptl_crystal_colour            colorless
_exptl_crystal_description       trapezoid
_chemical_melting_point          '509 K'
_cell_formula_units_Z            4
_exptl_crystal_recrystallization_method chloroform/hexane
_exptl_crystal_preparation       Luminescent
loop_
_atom_site_label
_atom_site_type_symbol
_atom_site_fract_x
_atom_site_fract_y
_atom_site_fract_z
S1 S 0.93041(8) 0.16248(6) 0.50911(6)
S2 S 0.52924(12) -0.11726(9) 0.22453(8)
S3 S 0.69693(9) 0.54207(7) 0.22149(6)
N1 N 0.4839(6) -0.0146(3) 0.3602(5)
N2 N 0.6653(2) 0.49580(17) 0.37536(16)
C1 C 0.8053(3) 0.1004(2) 0.4690(2)
C2 C 0.7830(3) 0.0056(2) 0.4749(2)
H1 H 0.839868 -0.033762 0.503979
C3 C 0.6781(3) -0.0307(2) 0.4382(2)
H2 H 0.663631 -0.095248 0.442656
C4 C 0.5926(3) 0.0247(2) 0.39496(19)
C5 C 0.6157(3) 0.1193(2) 0.38869(19)
H3 H 0.559320 0.158150 0.358646
C6 C 0.7197(3) 0.1569(2) 0.42565(19)
C7 C 0.7552(3) 0.2535(2) 0.42685(19)
C8 C 0.6894(3) 0.3290(2) 0.39438(19)
H4 H 0.613229 0.319437 0.365583
C9 C 0.7352(3) 0.4186(2) 0.40416(19)
C10 C 0.8485(3) 0.4306(2) 0.4458(2)
H5 H 0.880600 0.491463 0.452211
C11 C 0.9144(3) 0.3560(2) 0.4779(2)
H6 H 0.991276 0.365656 0.505557
C12 C 0.8682(3) 0.2665(2) 0.4696(2)
C13 C 0.4321(4) 0.0281(3) 0.2894(3)
C14 C 0.4511(4) -0.0118(3) 0.2231(3)
C15 C 0.4083(4) 0.0318(3) 0.1542(3)
H7 H 0.421976 0.005895 0.108592
C16 C 0.3458(4) 0.1135(4) 0.1539(3)
H8 H 0.318949 0.144959 0.107619
C17 C 0.3219(4) 0.1499(3) 0.2192(3)
H9 H 0.277215 0.205370 0.217190
C18 C 0.3620(4) 0.1069(3) 0.2885(3)
C19 C 0.4708(3) -0.1129(3) 0.3630(3)
C20 C 0.4910(3) -0.1686(3) 0.3045(3)
C21 C 0.481(2) -0.2653(7) 0.3093(7)
H10 H 0.492728 -0.304055 0.268965
C22 C 0.4543(4) -0.3035(3) 0.3732(3)
H11 H 0.451806 -0.369280 0.377864
C23 C 0.4310(4) -0.2485(3) 0.4309(3)
H12 H 0.410087 -0.276269 0.473838
C24 C 0.4383(5) -0.1521(5) 0.4256(3)
H13 H 0.421118 -0.113460 0.464492
C25 C 0.7184(3) 0.5846(2) 0.3708(2)
C26 C 0.7389(3) 0.6141(2) 0.3017(2)
C27 C 0.7893(3) 0.7010(3) 0.2950(3)
H14 H 0.804177 0.721506 0.248041
C28 C 0.8171(3) 0.7567(3) 0.3586(3)
H15 H 0.851854 0.815809 0.355039
C29 C 0.7951(3) 0.7279(2) 0.4259(2)
H16 H 0.815750 0.767076 0.468672
C30 C 0.7433(3) 0.6424(2) 0.4334(2)
C31 C 0.5630(3) 0.4796(2) 0.3174(2)
C32 C 0.5686(3) 0.4959(2) 0.2431(2)
C33 C 0.4727(4) 0.4776(3) 0.1865(2)
H17 H 0.476232 0.489301 0.135460
C34 C 0.3731(4) 0.4427(3) 0.2043(3)
H18 H 0.308870 0.427563 0.165295
C35 C 0.3651(3) 0.4292(3) 0.2781(3)
H19 H 0.294487 0.406991 0.289773
C36 C 0.4592(3) 0.4478(2) 0.3356(2)
H20 H 0.453277 0.438958 0.386566
C37 C 0.3285(4) 0.1449(4) 0.3580(3)
H21 H 0.342252 0.097621 0.397744
H22 H 0.245802 0.161741 0.346974
H23 H 0.375342 0.200191 0.374844
C38 C 0.7167(6) 0.6176(5) 0.5074(4)
H24 H 0.787112 0.599258 0.540930
H25 H 0.662332 0.566908 0.501080
H26 H 0.683512 0.670258 0.527980
S4? S 0.4930(4) 0.0033(3) 0.1871(3)
N3? N 0.485(2) -0.0073(12) 0.348(2)
C39? C 0.4785(12) -0.0986(10) 0.3133(9)
C40? C 0.4863(19) -0.1013(11) 0.2386(9)
C41? C 0.4931(13) -0.1862(10) 0.2006(9)
H27? H 0.501632 -0.187464 0.149615
C42? C 0.4869(13) -0.2669(10) 0.2401(9)
H28? H 0.491009 -0.325655 0.216719
C43? C 0.475(8) -0.262(2) 0.314(2)
H29? H 0.472813 -0.318365 0.340783
C44? C 0.4649(15) -0.1779(12) 0.3521(9)
C45? C 0.4022(10) 0.0579(7) 0.3058(6)
C46? C 0.4076(9) 0.0752(7) 0.2312(6)
C47? C 0.3479(10) 0.1503(8) 0.1936(5)
H30? H 0.351593 0.162127 0.142586
C48? C 0.2826(9) 0.2082(7) 0.2306(6)
H31? H 0.241745 0.259507 0.204890
C49? C 0.2771(10) 0.1909(7) 0.3052(6)
H32? H 0.232547 0.230395 0.330474
C50? C 0.3369(12) 0.1157(9) 0.3428(5)
H33? H 0.333197 0.103904 0.393754
H34? H 0.725417 0.623957 0.480099
C51? C 0.446(2) -0.1825(19) 0.4309(12)
H35? H 0.438811 -0.247643 0.445451
H36? H 0.511611 -0.153583 0.464971
H37? H 0.373981 -0.149173 0.434071
C52? C 0.4436(9) 0.4335(6) 0.4102(6)
H38? H 0.515894 0.449000 0.445414
H39? H 0.380494 0.473290 0.420164
H40? H 0.423924 0.368120 0.416724
loop_
_geom_bond_atom_site_label_1
_geom_bond_atom_site_label_2
_geom_bond_site_symmetry_1
_geom_bond_site_symmetry_2
S1 C1 1_555 1_555
S2 C14 1_555 1_555
S3 C26 1_555 1_555
N1 C4 1_555 1_555
N2 C9 1_555 1_555
C1 C2 1_555 1_555
C2 H1 1_555 1_555
C3 C2 1_555 1_555
H2 C3 1_555 1_555
C4 C3 1_555 1_555
C5 C4 1_555 1_555
H3 C5 1_555 1_555
C6 C1 1_555 1_555
C7 C6 1_555 1_555
C8 C7 1_555 1_555
H4 C8 1_555 1_555
C9 C8 1_555 1_555
C10 C9 1_555 1_555
H5 C10 1_555 1_555
C11 C10 1_555 1_555
H6 C11 1_555 1_555
C12 S1 1_555 1_555
C13 N1 1_555 1_555
C14 C13 1_555 1_555
C15 C14 1_555 1_555
H7 C15 1_555 1_555
C16 C15 1_555 1_555
H8 C16 1_555 1_555
C17 C16 1_555 1_555
H9 C17 1_555 1_555
C18 C13 1_555 1_555
C19 N1 1_555 1_555
C20 S2 1_555 1_555
C21 C20 1_555 1_555
H10 C21 1_555 1_555
C22 C21 1_555 1_555
H11 C22 1_555 1_555
C23 C22 1_555 1_555
H12 C23 1_555 1_555
C24 C19 1_555 1_555
H13 C24 1_555 1_555
C25 N2 1_555 1_555
C26 C25 1_555 1_555
C27 C26 1_555 1_555
H14 C27 1_555 1_555
C28 C27 1_555 1_555
H15 C28 1_555 1_555
C29 C28 1_555 1_555
H16 C29 1_555 1_555
C30 C25 1_555 1_555
C31 N2 1_555 1_555
C32 S3 1_555 1_555
C33 C32 1_555 1_555
H17 C33 1_555 1_555
C34 C33 1_555 1_555
H18 C34 1_555 1_555
C35 C34 1_555 1_555
H19 C35 1_555 1_555
C36 C31 1_555 1_555
H20 C36 1_555 1_555
C37 C18 1_555 1_555
H21 C37 1_555 1_555
H22 C37 1_555 1_555
H23 C37 1_555 1_555
C38 C30 1_555 1_555
H24 C38 1_555 1_555
H25 C38 1_555 1_555
H26 C38 1_555 1_555
C5 C6 1_555 1_555
C7 C12 1_555 1_555
C11 C12 1_555 1_555
C17 C18 1_555 1_555
C19 C20 1_555 1_555
C23 C24 1_555 1_555
C29 C30 1_555 1_555
C31 C32 1_555 1_555
C35 C36 1_555 1_555

#END
