
#######################################################################
#
#                 Cambridge Crystallographic Data Centre
#                                CCDC 
#
#######################################################################
#
# If this CIF has been generated from an entry in the Cambridge 
# Structural Database, then it will include bibliographic, chemical, 
# crystal, experimental, refinement or atomic coordinate data resulting 
# from the CCDC's data processing and validation procedures.
#
#######################################################################

data_SIQJEK
_chemical_formula_moiety         
'2(C27 H30 F1 N2 O1 1+),C7 H6 O3,2(C7 H5 O3 1-),C2 H3 N1'
_chemical_name_systematic        
'bis(4-(diphenylmethyl)-1-[4-(4-fluorophenyl)-4-oxobutyl]piperazin-1-ium) bis(4-hydroxybenzoate) 4-hydroxybenzoic acid acetonitrile solvate'
_symmetry_cell_setting           monoclinic
_symmetry_space_group_name_H-M   'P 21'
_symmetry_Int_Tables_number      4
_space_group_name_Hall           'P 2yb'
loop_
_symmetry_equiv_pos_site_id
_symmetry_equiv_pos_as_xyz
1 x,y,z
2 -x,1/2+y,-z
_cell_length_a                   26.150(9)
_cell_length_b                   10.936(3)
_cell_length_c                   11.963(3)
_cell_angle_alpha                90
_cell_angle_beta                 97.490(8)
_cell_angle_gamma                90
_cell_volume                     3391.95
_exptl_crystal_colour            colorless
_exptl_crystal_description       strip
_cell_formula_units_Z            2
loop_
_atom_site_label
_atom_site_type_symbol
_atom_site_fract_x
_atom_site_fract_y
_atom_site_fract_z
N1 N 0.26062(6) 0.18158(11) 1.01189(19)
N2 N 0.16769(10) 0.3235(2) 0.9461(2)
O1 O 0.38977(12) -0.1713(3) 0.9425(4)
F1 F 0.62191(9) -0.0866(3) 0.8851(3)
C1 C 0.57184(14) -0.0824(4) 0.9012(4)
C2 C 0.55526(15) 0.0112(3) 0.9614(3)
H1 H 0.5780 0.0716 0.9917
C3 C 0.50390(13) 0.0147(3) 0.9765(3)
H2 H 0.4914 0.0802 1.0145
C4 C 0.47093(13) -0.0776(3) 0.9360(3)
C5 C 0.48963(16) -0.1729(4) 0.8767(3)
H3 H 0.4672 -0.2349 0.8485
C6 C 0.54035(17) -0.1782(4) 0.8584(4)
H4 H 0.5530 -0.2426 0.8192
C7 C 0.41495(14) -0.0790(3) 0.9532(3)
C8 C 0.39196(12) 0.0392(3) 0.9835(3)
H5 H 0.4026 0.1025 0.9346
H6 H 0.4061 0.0598 1.0602
C9 C 0.33422(13) 0.0407(3) 0.9750(3)
H7 H 0.3226 -0.0226 1.0226
H8 H 0.3192 0.0254 0.8978
C10 C 0.31759(12) 0.1650(3) 1.0126(3)
H9 H 0.3345 0.1799 1.0885
H10 H 0.3298 0.2266 0.9640
C11 C 0.24948(13) 0.3020(3) 1.0642(3)
H11 H 0.2658 0.3038 1.1418
H12 H 0.2640 0.3676 1.0239
C12 C 0.19258(13) 0.3222(3) 1.0614(3)
H13 H 0.1780 0.2576 1.1028
H14 H 0.1866 0.3995 1.0973
C13 C 0.17550(13) 0.2023(3) 0.8976(3)
H15 H 0.1573 0.1982 0.8216
H16 H 0.1615 0.1398 0.9424
C14 C 0.23217(12) 0.1785(3) 0.8946(3)
H17 H 0.2367 0.0991 0.8610
H18 H 0.2461 0.2401 0.8487
C15 C 0.11235(13) 0.3510(3) 0.9348(3)
H19 H 0.0948 0.2819 0.9654
C16 C 0.08999(14) 0.3678(3) 0.8139(3)
C17 C 0.11791(16) 0.4174(3) 0.7346(3)
H20 H 0.1527 0.4342 0.7553
C18 C 0.09647(19) 0.4426(4) 0.6276(4)
H21 H 0.1157 0.4788 0.5764
C19 C 0.0446(2) 0.4124(4) 0.5967(5)
H22 H 0.0289 0.4289 0.5240
C20 C 0.0174(2) 0.3600(5) 0.6708(5)
H23 H -0.0168 0.3388 0.6487
C21 C 0.03983(16) 0.3367(4) 0.7803(4)
H24 H 0.0206 0.2997 0.8310
C22 C 0.10180(12) 0.4645(3) 1.0007(3)
C23 C 0.07443(14) 0.4575(4) 1.0919(4)
H25 H 0.0639 0.3817 1.1158
C24 C 0.06236(15) 0.5637(5) 1.1485(4)
H26 H 0.0436 0.5574 1.2091
C25 C 0.07764(14) 0.6756(4) 1.1165(4)
H27 H 0.0702 0.7458 1.1552
C26 C 0.10460(15) 0.6819(4) 1.0247(4)
H28 H 0.1149 0.7579 1.0008
C27 C 0.11645(15) 0.5796(3) 0.9684(4)
H29 H 0.1347 0.5872 0.9071
H30 H 0.24314(12) 0.1182(3) 1.0340(6)
N3 N 0.27871(8) 0.26262(10) 0.52164(16)
N4 N 0.17777(10) 0.1503(2) 0.4639(2)
O2 O 0.42564(10) 0.5541(2) 0.4251(3)
F2 F 0.65068(8) 0.4014(2) 0.3573(2)
C28 C 0.60098(14) 0.4133(4) 0.3793(4)
C29 C 0.57945(15) 0.3189(4) 0.4337(4)
H31 H 0.5983 0.2490 0.4559
C30 C 0.52871(14) 0.3315(3) 0.4542(3)
H32 H 0.5128 0.2688 0.4893
C31 C 0.50176(13) 0.4379(3) 0.4222(3)
C32 C 0.52512(14) 0.5305(3) 0.3682(3)
H33 H 0.5071 0.6018 0.3467
C33 C 0.57512(15) 0.5164(4) 0.3465(3)
H34 H 0.5910 0.5776 0.3094
C34 C 0.44605(13) 0.4534(3) 0.4405(3)
C35 C 0.41639(12) 0.3478(3) 0.4755(3)
H35 H 0.4312 0.3236 0.5508
H36 H 0.4207 0.2799 0.4254
C36 C 0.35927(13) 0.3698(3) 0.4758(3)
H37 H 0.3540 0.4364 0.5266
H38 H 0.3434 0.3919 0.4007
C37 C 0.33511(12) 0.2545(3) 0.5137(3)
H39 H 0.3407 0.1894 0.4615
H40 H 0.3528 0.2318 0.5870
C38 C 0.26199(12) 0.1517(3) 0.5777(3)
H41 H 0.2788 0.1492 0.6549
H42 H 0.2725 0.0798 0.5391
C39 C 0.20385(13) 0.1489(3) 0.5776(3)
H43 H 0.1943 0.0758 0.6158
H44 H 0.1933 0.2193 0.6183
C40 C 0.19035(13) 0.2676(3) 0.4154(3)
H45 H 0.1801 0.3336 0.4620
H46 H 0.1712 0.2760 0.3408
C41 C 0.24720(13) 0.2773(3) 0.4076(3)
H47 H 0.2545 0.3564 0.3764
H48 H 0.2570 0.2147 0.3570
C42 C 0.12113(13) 0.1342(3) 0.4599(3)
H49 H 0.1071 0.2051 0.4957
C43 C 0.10837(12) 0.0212(3) 0.5211(3)
C44 C 0.07876(14) 0.0290(4) 0.6080(4)
H50 H 0.0679 0.1049 0.6308
C45 C 0.06511(16) -0.0768(5) 0.6618(4)
H51 H 0.0457 -0.0708 0.7214
C46 C 0.08000(16) -0.1899(4) 0.6276(4)
H52 H 0.0705 -0.2603 0.6634
C47 C 0.10921(16) -0.1980(4) 0.5394(4)
H53 H 0.1189 -0.2740 0.5143
C48 C 0.12386(15) -0.0926(4) 0.4891(4)
H54 H 0.1448 -0.0984 0.4321
C49 C 0.09532(12) 0.1262(3) 0.3378(3)
C50 C 0.04525(14) 0.1685(4) 0.3105(4)
H55 H 0.0292 0.2085 0.3650
C51 C 0.01921(16) 0.1525(4) 0.2050(4)
H56 H -0.0145 0.1809 0.1887
C52 C 0.04232(15) 0.0948(4) 0.1229(4)
H57 H 0.0245 0.0833 0.0512
C53 C 0.09205(16) 0.0545(4) 0.1486(4)
H58 H 0.1080 0.0155 0.0934
C54 C 0.11897(14) 0.0705(3) 0.2551(3)
H59 H 0.1529 0.0438 0.2707
H60 H 0.2700(2) 0.3290(3) 0.5577(4)
N5 N 0.72012(15) 0.0096(3) 0.7706(3)
C55 C 0.64923(17) 0.1712(4) 0.7864(5)
H61 H 0.6190 0.1301 0.8047
H62 H 0.6411 0.2140 0.7163
H63 H 0.6610 0.2284 0.8450
C56 C 0.68965(18) 0.0815(4) 0.7759(4)
O3 O 0.19485(10) 0.9014(2) 0.9479(2)
H64 H 0.2087 0.9111 1.0128
O4 O 0.26305(10) 0.4716(2) 0.6437(2)
O5 O 0.30366(9) 0.4189(2) 0.8100(2)
C57 C 0.21603(13) 0.8023(3) 0.9016(3)
C58 C 0.20199(15) 0.7788(3) 0.7921(3)
H65 H 0.1788 0.8314 0.7507
C59 C 0.22047(14) 0.6800(3) 0.7381(3)
H66 H 0.2105 0.6667 0.6616
C60 C 0.25461(12) 0.6005(3) 0.8013(3)
C61 C 0.26880(14) 0.6249(3) 0.9106(3)
H67 H 0.2922 0.5730 0.9522
C62 C 0.25017(16) 0.7239(3) 0.9639(3)
H68 H 0.2603 0.7377 1.0403
C63 C 0.27499(13) 0.4900(3) 0.7480(3)
O6 O 0.38543(9) 0.2956(2) 0.8057(2)
H69 H 0.3608 0.3423 0.7928
O7 O 0.57180(10) 0.6158(2) 0.6787(3)
O8 O 0.60993(5) 0.4420(2) 0.72681(13)
C64 C 0.42906(13) 0.3530(3) 0.7839(3)
C65 C 0.42941(14) 0.4726(3) 0.7450(3)
H70 H 0.3994 0.5191 0.7362
C66 C 0.47524(14) 0.5212(3) 0.7196(3)
H71 H 0.4755 0.6004 0.6914
C67 C 0.52133(13) 0.4550(3) 0.7351(3)
C68 C 0.51991(14) 0.3385(3) 0.7761(3)
H72 H 0.5501 0.2926 0.7872
C69 C 0.47475(13) 0.2883(3) 0.8012(3)
H73 H 0.4749 0.2095 0.8303
C70 C 0.56932(14) 0.5129(3) 0.7088(3)
H74 H 0.63067(9) 0.4565(10) 0.6793(3)
O9 O 0.20570(6) 0.56265(17) 0.46830(14)
O10 O 0.23215(9) 1.0007(2) 0.14076(19)
O11 O 0.29924(8) 1.0402(2) 0.2706(2)
C71 C 0.22034(14) 0.6634(3) 0.4156(3)
C72 C 0.19151(14) 0.6945(3) 0.3158(3)
H75 H 0.1632 0.6468 0.2879
C73 C 0.20400(13) 0.7962(3) 0.2560(3)
H76 H 0.1843 0.8167 0.1881
C74 C 0.24647(13) 0.8679(3) 0.2982(3)
C75 C 0.27492(14) 0.8361(3) 0.3979(3)
H77 H 0.3034 0.8828 0.4262
C76 C 0.26166(15) 0.7352(3) 0.4568(3)
H78 H 0.2809 0.7155 0.5253
C77 C 0.26018(13) 0.9768(3) 0.2326(3)
H79 H 0.22787(11) 0.5350(6) 0.5204(3)
loop_
_geom_bond_atom_site_label_1
_geom_bond_atom_site_label_2
_geom_bond_site_symmetry_1
_geom_bond_site_symmetry_2
N1 C10 1_555 1_555
N2 C12 1_555 1_555
O1 C7 1_555 1_555
F1 C1 1_555 1_555
C1 C2 1_555 1_555
C2 H1 1_555 1_555
C3 C2 1_555 1_555
H2 C3 1_555 1_555
C4 C3 1_555 1_555
C5 C4 1_555 1_555
H3 C5 1_555 1_555
C6 C1 1_555 1_555
H4 C6 1_555 1_555
C7 C4 1_555 1_555
C8 C7 1_555 1_555
H5 C8 1_555 1_555
H6 C8 1_555 1_555
C9 C8 1_555 1_555
H7 C9 1_555 1_555
H8 C9 1_555 1_555
C10 C9 1_555 1_555
H9 C10 1_555 1_555
H10 C10 1_555 1_555
C11 N1 1_555 1_555
H11 C11 1_555 1_555
H12 C11 1_555 1_555
C12 C11 1_555 1_555
H13 C12 1_555 1_555
H14 C12 1_555 1_555
C13 N2 1_555 1_555
H15 C13 1_555 1_555
H16 C13 1_555 1_555
C14 N1 1_555 1_555
H17 C14 1_555 1_555
H18 C14 1_555 1_555
C15 N2 1_555 1_555
H19 C15 1_555 1_555
C16 C15 1_555 1_555
C17 C16 1_555 1_555
H20 C17 1_555 1_555
C18 C17 1_555 1_555
H21 C18 1_555 1_555
C19 C18 1_555 1_555
H22 C19 1_555 1_555
C20 C19 1_555 1_555
H23 C20 1_555 1_555
C21 C16 1_555 1_555
H24 C21 1_555 1_555
C22 C15 1_555 1_555
C23 C22 1_555 1_555
H25 C23 1_555 1_555
C24 C23 1_555 1_555
H26 C24 1_555 1_555
C25 C24 1_555 1_555
H27 C25 1_555 1_555
C26 C25 1_555 1_555
H28 C26 1_555 1_555
C27 C22 1_555 1_555
H29 C27 1_555 1_555
H30 N1 1_555 1_555
N3 C37 1_555 1_555
N4 C39 1_555 1_555
O2 C34 1_555 1_555
F2 C28 1_555 1_555
C28 C29 1_555 1_555
C29 H31 1_555 1_555
C30 C29 1_555 1_555
H32 C30 1_555 1_555
C31 C30 1_555 1_555
C32 C31 1_555 1_555
H33 C32 1_555 1_555
C33 C28 1_555 1_555
H34 C33 1_555 1_555
C34 C31 1_555 1_555
C35 C34 1_555 1_555
H35 C35 1_555 1_555
H36 C35 1_555 1_555
C36 C35 1_555 1_555
H37 C36 1_555 1_555
H38 C36 1_555 1_555
C37 C36 1_555 1_555
H39 C37 1_555 1_555
H40 C37 1_555 1_555
C38 N3 1_555 1_555
H41 C38 1_555 1_555
H42 C38 1_555 1_555
C39 C38 1_555 1_555
H43 C39 1_555 1_555
H44 C39 1_555 1_555
C40 N4 1_555 1_555
H45 C40 1_555 1_555
H46 C40 1_555 1_555
C41 N3 1_555 1_555
H47 C41 1_555 1_555
H48 C41 1_555 1_555
C42 N4 1_555 1_555
H49 C42 1_555 1_555
C43 C42 1_555 1_555
C44 C43 1_555 1_555
H50 C44 1_555 1_555
C45 C44 1_555 1_555
H51 C45 1_555 1_555
C46 C45 1_555 1_555
H52 C46 1_555 1_555
C47 C46 1_555 1_555
H53 C47 1_555 1_555
C48 C43 1_555 1_555
H54 C48 1_555 1_555
C49 C42 1_555 1_555
C50 C49 1_555 1_555
H55 C50 1_555 1_555
C51 C50 1_555 1_555
H56 C51 1_555 1_555
C52 C51 1_555 1_555
H57 C52 1_555 1_555
C53 C52 1_555 1_555
H58 C53 1_555 1_555
C54 C49 1_555 1_555
H59 C54 1_555 1_555
H60 N3 1_555 1_555
N5 C56 1_555 1_555
C55 H61 1_555 1_555
H62 C55 1_555 1_555
H63 C55 1_555 1_555
C56 C55 1_555 1_555
O3 H64 1_555 1_555
O4 C63 1_555 1_555
O5 C63 1_555 1_555
C57 O3 1_555 1_555
C58 C57 1_555 1_555
H65 C58 1_555 1_555
C59 C58 1_555 1_555
H66 C59 1_555 1_555
C60 C59 1_555 1_555
C61 C60 1_555 1_555
H67 C61 1_555 1_555
C62 C57 1_555 1_555
H68 C62 1_555 1_555
C63 C60 1_555 1_555
O6 H69 1_555 1_555
O7 C70 1_555 1_555
O8 C70 1_555 1_555
C64 O6 1_555 1_555
C65 C64 1_555 1_555
H70 C65 1_555 1_555
C66 C65 1_555 1_555
H71 C66 1_555 1_555
C67 C66 1_555 1_555
C68 C67 1_555 1_555
H72 C68 1_555 1_555
C69 C64 1_555 1_555
H73 C69 1_555 1_555
C70 C67 1_555 1_555
H74 O8 1_555 1_555
O9 C71 1_555 1_555
O10 C77 1_555 1_555
O11 C77 1_555 1_555
C71 C72 1_555 1_555
C72 H75 1_555 1_555
C73 C72 1_555 1_555
H76 C73 1_555 1_555
C74 C73 1_555 1_555
C75 C74 1_555 1_555
H77 C75 1_555 1_555
C76 C71 1_555 1_555
H78 C76 1_555 1_555
C77 C74 1_555 1_555
H79 O9 1_555 1_555
C5 C6 1_555 1_555
C13 C14 1_555 1_555
C20 C21 1_555 1_555
C26 C27 1_555 1_555
C32 C33 1_555 1_555
C40 C41 1_555 1_555
C47 C48 1_555 1_555
C53 C54 1_555 1_555
C61 C62 1_555 1_555
C68 C69 1_555 1_555
C75 C76 1_555 1_555

#END
