
#######################################################################
#
#                 Cambridge Crystallographic Data Centre
#                                CCDC 
#
#######################################################################
#
# If this CIF has been generated from an entry in the Cambridge 
# Structural Database, then it will include bibliographic, chemical, 
# crystal, experimental, refinement or atomic coordinate data resulting 
# from the CCDC's data processing and validation procedures.
#
#######################################################################

data_SIQJIN
_chemical_formula_moiety         'C48 H52 N2 O2'
_chemical_name_systematic        
1,1'-(5,11-dihexyl-6,12-bis(4-methylphenyl)-5,11-dihydroindolo[3,2-b]carbazole-2,8-diyl)diethanone
_symmetry_cell_setting           triclinic
_symmetry_space_group_name_H-M   'P -1'
_symmetry_Int_Tables_number      2
_space_group_name_Hall           '-P 1'
loop_
_symmetry_equiv_pos_site_id
_symmetry_equiv_pos_as_xyz
1 x,y,z
2 -x,-y,-z
_cell_length_a                   9.409(5)
_cell_length_b                   13.974(5)
_cell_length_c                   15.488(5)
_cell_angle_alpha                90.281(5)
_cell_angle_beta                 105.456(5)
_cell_angle_gamma                93.728(5)
_cell_volume                     1958.06
_exptl_crystal_colour            yellow
_exptl_crystal_description       rhombus
_cell_formula_units_Z            2
loop_
_atom_site_label
_atom_site_type_symbol
_atom_site_fract_x
_atom_site_fract_y
_atom_site_fract_z
N1 N 0.2247(4) 0.4282(3) -0.0339(2)
C1 C 0.2198(5) 0.3346(3) -0.0016(3)
C2 C 0.2433(5) 0.2481(3) -0.0388(3)
N2 N 0.1571(4) 0.0766(3) 0.1164(3)
C3 C 0.1789(5) 0.4398(3) 0.1028(3)
C4 C 0.1779(5) 0.1702(3) 0.0891(3)
C5 C 0.1854(5) 0.3386(3) 0.0822(3)
C6 C 0.2000(5) 0.4908(3) 0.0284(3)
C7 C 0.2902(5) 0.2370(3) -0.1225(3)
C8 C 0.1363(6) 0.2684(3) 0.2187(3)
O1 O 0.1640(4) 0.7350(3) 0.2509(3)
C9 C 0.1645(5) 0.2560(3) 0.1293(3)
C10 C 0.4369(6) 0.2446(3) -0.1212(3)
H1 H 0.5073 0.2625 -0.0680
C11 C 0.2388(5) 0.4591(3) -0.1212(3)
H2 H 0.1668 0.5058 -0.1439
H3 H 0.2155 0.4043 -0.1624
C12 C 0.2401(5) 0.0667(3) -0.0077(3)
C13 C 0.1586(5) 0.4901(3) 0.1751(3)
H4 H 0.1457 0.4576 0.2250
C14 C 0.0947(5) 0.0445(3) 0.1885(3)
H5 H 0.0267 -0.0111 0.1674
H6 H 0.0384 0.0949 0.2033
C15 C 0.2938(5) 0.0174(3) -0.0691(3)
H7 H 0.3277 0.0510 -0.1123
C16 C 0.2235(5) 0.1663(3) 0.0097(3)
C17 C 0.1926(5) 0.0146(3) 0.0580(3)
C18 C 0.2970(5) -0.0808(4) -0.0665(3)
C19 C -0.0038(6) 0.2790(3) 0.2275(3)
H8 H -0.0836 0.2751 0.1767
C20 C 0.1471(5) 0.6478(4) 0.2504(4)
O2 O 0.3582(4) -0.2241(3) -0.1227(3)
C21 C 0.1890(5) 0.2103(3) -0.2029(3)
H9 H 0.0888 0.2041 -0.2060
C22 C 0.1711(5) 0.6373(4) 0.0960(4)
H10 H 0.1647 0.7034 0.0938
C23 C 0.2349(7) 0.1931(4) -0.2781(3)
H11 H 0.1649 0.1753 -0.3314
C24 C 0.3597(6) -0.1361(4) -0.1267(4)
C25 C 0.1932(5) 0.5903(3) 0.0241(3)
H12 H 0.2033 0.6232 -0.0262
C26 C 0.2075(6) 0.0186(4) 0.2723(3)
H13 H 0.2608 -0.0341 0.2586
H14 H 0.2782 0.0731 0.2925
C27 C 0.2509(6) 0.2737(4) 0.2957(3)
H15 H 0.3464 0.2654 0.2919
C28 C 0.1894(6) -0.0848(4) 0.0599(3)
H16 H 0.1540 -0.1192 0.1021
C29 C 0.1576(5) 0.5900(4) 0.1731(3)
C30 C 0.2405(6) -0.1296(4) -0.0029(4)
H17 H 0.2377 -0.1962 -0.0037
C31 C 0.3819(7) 0.2013(4) -0.2766(4)
C32 C 0.3904(6) 0.5028(4) -0.1194(3)
H18 H 0.4607 0.4539 -0.1026
H19 H 0.4179 0.5529 -0.0732
C33 C 0.4823(6) 0.2265(4) -0.1968(4)
H20 H 0.5826 0.2315 -0.1936
C34 C 0.4245(7) -0.0862(4) -0.1920(4)
H21 H 0.4682 -0.1316 -0.2220
H22 H 0.4989 -0.0383 -0.1615
H23 H 0.3485 -0.0561 -0.2352
C35 C 0.2273(7) 0.2910(4) 0.3778(4)
H24 H 0.3071 0.2952 0.4285
C36 C -0.0276(7) 0.2951(4) 0.3095(4)
H25 H -0.1234 0.3013 0.3136
C37 C 0.0880(8) 0.3023(4) 0.3863(4)
C38 C 0.4040(7) 0.5456(5) -0.2082(5)
H26 H 0.3259 0.5888 -0.2290
H27 H 0.4977 0.5832 -0.1975
C39 C 0.4319(7) 0.1812(5) -0.3597(4)
H28 H 0.3479 0.1596 -0.4077
H29 H 0.5015 0.1324 -0.3474
H30 H 0.4779 0.2388 -0.3767
C40 C 0.1389(8) -0.0098(5) 0.3461(4)
H31 H 0.0654 -0.0626 0.3248
H32 H 0.0885 0.0438 0.3610
C41 C 0.1162(7) 0.5994(4) 0.3299(4)
H33 H 0.1038 0.6470 0.3718
H34 H 0.1974 0.5622 0.3581
H35 H 0.0275 0.5581 0.3109
C42 C 0.0628(8) 0.3227(6) 0.4778(4)
H36 H 0.0999 0.3870 0.4973
H37 H 0.1136 0.2783 0.5203
H38 H -0.0411 0.3155 0.4733
C43 C 0.3956(10) 0.4770(6) -0.2759(5)
H39 H 0.2947 0.4492 -0.2948
H40 H 0.4578 0.4261 -0.2500
C44 C 0.2494(11) -0.0394(7) 0.4296(5)
H41 H 0.3117 -0.0842 0.4120
H42 H 0.3123 0.0169 0.4556
C45 C 0.4412(11) 0.5114(8) -0.3626(6)
H43 H 0.5411 0.5411 -0.3442
H44 H 0.4428 0.4554 -0.3995
C46 C 0.3012(17) -0.1241(9) 0.5604(8)
H45 H 0.3158 -0.1865 0.5394
H46 H 0.2660 -0.1303 0.6129
H47 H 0.3932 -0.0857 0.5747
C47 C 0.3568(12) 0.5710(10) -0.4111(7)
H48 H 0.2553 0.5506 -0.4167
H49 H 0.3741 0.5732 -0.4694
H50 H 0.3783 0.6337 -0.3832
C48 C 0.1961(16) -0.0794(11) 0.4927(8)
H51 H 0.1171 -0.1268 0.4648
H52 H 0.1534 -0.0304 0.5205
loop_
_geom_bond_atom_site_label_1
_geom_bond_atom_site_label_2
_geom_bond_site_symmetry_1
_geom_bond_site_symmetry_2
N1 C1 1_555 1_555
C1 C2 1_555 1_555
C2 C7 1_555 1_555
N2 C4 1_555 1_555
C3 C5 1_555 1_555
C4 C9 1_555 1_555
C5 C1 1_555 1_555
C6 N1 1_555 1_555
C7 C10 1_555 1_555
C8 C9 1_555 1_555
O1 C20 1_555 1_555
C9 C5 1_555 1_555
C10 H1 1_555 1_555
C11 N1 1_555 1_555
H2 C11 1_555 1_555
H3 C11 1_555 1_555
C12 C15 1_555 1_555
C13 C3 1_555 1_555
H4 C13 1_555 1_555
C14 N2 1_555 1_555
H5 C14 1_555 1_555
H6 C14 1_555 1_555
C15 H7 1_555 1_555
C16 C2 1_555 1_555
C17 N2 1_555 1_555
C18 C15 1_555 1_555
C19 C8 1_555 1_555
H8 C19 1_555 1_555
C20 C29 1_555 1_555
O2 C24 1_555 1_555
C21 C7 1_555 1_555
H9 C21 1_555 1_555
C22 H10 1_555 1_555
C23 C21 1_555 1_555
H11 C23 1_555 1_555
C24 C18 1_555 1_555
C25 C6 1_555 1_555
H12 C25 1_555 1_555
C26 C14 1_555 1_555
H13 C26 1_555 1_555
H14 C26 1_555 1_555
C27 C8 1_555 1_555
H15 C27 1_555 1_555
C28 C17 1_555 1_555
H16 C28 1_555 1_555
C29 C13 1_555 1_555
C30 C18 1_555 1_555
H17 C30 1_555 1_555
C31 C23 1_555 1_555
C32 C11 1_555 1_555
H18 C32 1_555 1_555
H19 C32 1_555 1_555
C33 C10 1_555 1_555
H20 C33 1_555 1_555
C34 C24 1_555 1_555
H21 C34 1_555 1_555
H22 C34 1_555 1_555
H23 C34 1_555 1_555
C35 C27 1_555 1_555
H24 C35 1_555 1_555
C36 C19 1_555 1_555
H25 C36 1_555 1_555
C37 C35 1_555 1_555
C38 C32 1_555 1_555
H26 C38 1_555 1_555
H27 C38 1_555 1_555
C39 C31 1_555 1_555
H28 C39 1_555 1_555
H29 C39 1_555 1_555
H30 C39 1_555 1_555
C40 C26 1_555 1_555
H31 C40 1_555 1_555
H32 C40 1_555 1_555
C41 C20 1_555 1_555
H33 C41 1_555 1_555
H34 C41 1_555 1_555
H35 C41 1_555 1_555
C42 C37 1_555 1_555
H36 C42 1_555 1_555
H37 C42 1_555 1_555
H38 C42 1_555 1_555
C43 C38 1_555 1_555
H39 C43 1_555 1_555
H40 C43 1_555 1_555
C44 C40 1_555 1_555
H41 C44 1_555 1_555
H42 C44 1_555 1_555
C45 C43 1_555 1_555
H43 C45 1_555 1_555
H44 C45 1_555 1_555
C46 H45 1_555 1_555
H46 C46 1_555 1_555
H47 C46 1_555 1_555
C47 C45 1_555 1_555
H48 C47 1_555 1_555
H49 C47 1_555 1_555
H50 C47 1_555 1_555
C48 C44 1_555 1_555
H51 C48 1_555 1_555
H52 C48 1_555 1_555
C3 C6 1_555 1_555
C4 C16 1_555 1_555
C12 C16 1_555 1_555
C12 C17 1_555 1_555
C22 C25 1_555 1_555
C22 C29 1_555 1_555
C28 C30 1_555 1_555
C31 C33 1_555 1_555
C36 C37 1_555 1_555
C46 C48 1_555 1_555

#END
