
#######################################################################
#
#                 Cambridge Crystallographic Data Centre
#                                CCDC 
#
#######################################################################
#
# If this CIF has been generated from an entry in the Cambridge 
# Structural Database, then it will include bibliographic, chemical, 
# crystal, experimental, refinement or atomic coordinate data resulting 
# from the CCDC's data processing and validation procedures.
#
#######################################################################

data_SIQJAG
_chemical_formula_moiety         'C27 H30 F1 N2 O1 1+,C7 H5 O3 1-'
_chemical_name_systematic        
'4-(diphenylmethyl)-1-[4-(4-fluorophenyl)-4-oxobutyl]piperazin-1-ium 2-hydroxybenzoate'
_symmetry_cell_setting           monoclinic
_symmetry_space_group_name_H-M   'P 21/c'
_symmetry_Int_Tables_number      14
_space_group_name_Hall           '-P 2ybc'
loop_
_symmetry_equiv_pos_site_id
_symmetry_equiv_pos_as_xyz
1 x,y,z
2 -x,1/2+y,1/2-z
3 -x,-y,-z
4 x,1/2-y,1/2+z
_cell_length_a                   8.735(2)
_cell_length_b                   27.547(6)
_cell_length_c                   12.463(3)
_cell_angle_alpha                90
_cell_angle_beta                 94.484(7)
_cell_angle_gamma                90
_cell_volume                     2989.71
_exptl_crystal_colour            colorless
_exptl_crystal_description       strip
_cell_formula_units_Z            4
loop_
_atom_site_label
_atom_site_type_symbol
_atom_site_fract_x
_atom_site_fract_y
_atom_site_fract_z
C1 C 0.6592(4) 0.60029(12) 0.5789(3)
C2 C 0.5133(5) 0.61532(11) 0.5697(3)
H1 H 0.4783 0.6380 0.6172
C3 C 0.4155(4) 0.59624(11) 0.4875(2)
H2 H 0.3136 0.6063 0.4796
C4 C 0.4677(4) 0.56234(10) 0.4171(2)
C5 C 0.6202(4) 0.54821(10) 0.4301(2)
H3 H 0.6575 0.5259 0.3825
C6 C 0.7177(4) 0.56674(12) 0.5127(3)
H4 H 0.8195 0.5567 0.5228
C7 C 0.3576(4) 0.54296(10) 0.3308(2)
C8 C 0.4107(3) 0.50502(9) 0.2567(2)
H5 H 0.4549 0.4783 0.2993
H6 H 0.4910 0.5186 0.2164
C9 C 0.2841(3) 0.48535(9) 0.17791(19)
H7 H 0.2010 0.4727 0.2170
H8 H 0.2436 0.5112 0.1311
C10 C 0.3489(3) 0.44524(9) 0.1112(2)
H9 H 0.4474 0.4557 0.0886
H10 H 0.3669 0.4168 0.1564
C11 C 0.0933(3) 0.41449(9) 0.0381(2)
H11 H 0.0406 0.4406 0.0724
H12 H 0.1031 0.3874 0.0879
C12 C 0.0004(3) 0.39913(9) -0.0625(2)
H13 H -0.1007 0.3888 -0.0447
H14 H -0.0122 0.4264 -0.1115
C13 C 0.2243(3) 0.37768(8) -0.14646(19)
H15 H 0.2063 0.4052 -0.1944
H16 H 0.2764 0.3527 -0.1846
C14 C 0.3237(3) 0.39310(8) -0.0481(2)
H17 H 0.3457 0.3651 -0.0022
H18 H 0.4205 0.4055 -0.0700
C15 C -0.0216(3) 0.34167(9) -0.2093(2)
H19 H -0.0519 0.3699 -0.2539
C16 C -0.1657(3) 0.31804(10) -0.1749(3)
C17 C -0.1703(4) 0.29366(11) -0.0794(3)
H20 H -0.0829 0.2925 -0.0318
C18 C -0.3056(5) 0.27029(14) -0.0523(4)
H21 H -0.3087 0.2540 0.0129
C19 C -0.4313(7) 0.27214(18) -0.1236(5)
H22 H -0.5211 0.2567 -0.1067
C20 C -0.4291(5) 0.29578(17) -0.2183(5)
H23 H -0.5165 0.2962 -0.2660
C21 C -0.2973(4) 0.31946(11) -0.2448(3)
H24 H -0.2970 0.3363 -0.3094
C22 C 0.0650(3) 0.30696(9) -0.2773(2)
C23 C 0.1020(4) 0.32050(11) -0.3788(3)
H25 H 0.0741 0.3511 -0.4048
C24 C 0.1791(4) 0.28967(14) -0.4419(3)
H26 H 0.2043 0.2997 -0.5096
C25 C 0.2188(4) 0.24453(13) -0.4059(3)
H27 H 0.2696 0.2234 -0.4493
C26 C 0.1841(3) 0.23031(10) -0.3060(3)
H28 H 0.2126 0.1996 -0.2805
C27 C 0.1066(3) 0.26152(10) -0.2428(2)
H29 H 0.0821 0.2514 -0.1751
F1 F 0.7544(2) 0.61891(7) 0.66086(15)
N1 N 0.0771(2) 0.35893(7) -0.11523(16)
N2 N 0.2481(2) 0.43117(6) 0.01376(16)
H30 H 0.2388 0.4590 -0.0240
O1 O 0.2247(3) 0.55693(8) 0.32220(16)
C28 C 0.7893(14) 0.4186(2) 0.1929(7)
C29 C 0.8681(14) 0.4256(3) 0.2929(8)
C30 C 0.8916(10) 0.3869(5) 0.3637(5)
H31 H 0.9443 0.3916 0.4306
C31 C 0.8363(12) 0.3411(4) 0.3345(10)
H32 H 0.8520 0.3151 0.3819
C32 C 0.7575(14) 0.33398(18) 0.2344(11)
H33 H 0.7205 0.3033 0.2149
C33 C 0.7340(12) 0.3727(3) 0.1636(6)
H34 H 0.6813 0.3680 0.0967
C34 C 0.7511(9) 0.4579(4) 0.1109(10)
O2 O 0.6777(5) 0.4477(2) 0.0255(4)
O3 O 0.8058(8) 0.49763(16) 0.1374(8)
O4 O 0.9101(8) 0.4698(3) 0.3202(6)
H35 H 0.8868 0.4883 0.2701
C35? C 0.786(3) 0.4248(4) 0.2142(18)
C36? C 0.863(2) 0.4107(4) 0.3112(16)
C37? C 0.8697(15) 0.3618(6) 0.3393(8)
H36? H 0.9209 0.3523 0.4041
C38? C 0.8004(18) 0.3272(2) 0.2704(14)
H37? H 0.8052 0.2945 0.2892
C39? C 0.7239(16) 0.3414(7) 0.1735(12)
H38? H 0.6776 0.3182 0.1274
C40? C 0.717(2) 0.3902(8) 0.1454(9)
H39? H 0.6655 0.3997 0.0806
C41? C 0.7873(15) 0.4750(5) 0.1706(14)
O5? O 0.7250(10) 0.4837(4) 0.0741(8)
O6? O 0.8414(6) 0.5074(2) 0.2293(7)
O7? O 0.9381(10) 0.4479(5) 0.3709(7)
H40? H 0.9284 0.4436 0.4351
loop_
_geom_bond_atom_site_label_1
_geom_bond_atom_site_label_2
_geom_bond_site_symmetry_1
_geom_bond_site_symmetry_2
C1 C2 1_555 1_555
C2 H1 1_555 1_555
C3 C2 1_555 1_555
H2 C3 1_555 1_555
C4 C3 1_555 1_555
C5 C4 1_555 1_555
H3 C5 1_555 1_555
C6 C1 1_555 1_555
H4 C6 1_555 1_555
C7 C4 1_555 1_555
C8 C7 1_555 1_555
H5 C8 1_555 1_555
H6 C8 1_555 1_555
C9 C8 1_555 1_555
H7 C9 1_555 1_555
H8 C9 1_555 1_555
C10 C9 1_555 1_555
H9 C10 1_555 1_555
H10 C10 1_555 1_555
C11 H11 1_555 1_555
H12 C11 1_555 1_555
C12 C11 1_555 1_555
H13 C12 1_555 1_555
H14 C12 1_555 1_555
C13 H15 1_555 1_555
H16 C13 1_555 1_555
C14 C13 1_555 1_555
H17 C14 1_555 1_555
H18 C14 1_555 1_555
C15 H19 1_555 1_555
C16 C15 1_555 1_555
C17 C16 1_555 1_555
H20 C17 1_555 1_555
C18 C17 1_555 1_555
H21 C18 1_555 1_555
C19 C18 1_555 1_555
H22 C19 1_555 1_555
C20 C19 1_555 1_555
H23 C20 1_555 1_555
C21 C16 1_555 1_555
H24 C21 1_555 1_555
C22 C15 1_555 1_555
C23 C22 1_555 1_555
H25 C23 1_555 1_555
C24 C23 1_555 1_555
H26 C24 1_555 1_555
C25 C24 1_555 1_555
H27 C25 1_555 1_555
C26 C25 1_555 1_555
H28 C26 1_555 1_555
C27 C22 1_555 1_555
H29 C27 1_555 1_555
F1 C1 1_555 1_555
N1 C12 1_555 1_555
N2 C10 1_555 1_555
H30 N2 1_555 1_555
O1 C7 1_555 1_555
C28 C29 1_555 1_555
C29 C30 1_555 1_555
C30 H31 1_555 1_555
C31 C30 1_555 1_555
H32 C31 1_555 1_555
C32 C31 1_555 1_555
H33 C32 1_555 1_555
C33 C28 1_555 1_555
H34 C33 1_555 1_555
C34 C28 1_555 1_555
O2 C34 1_555 1_555
O3 C34 1_555 1_555
O4 C29 1_555 1_555
H35 O4 1_555 1_555
C5 C6 1_555 1_555
C11 N2 1_555 1_555
C13 N1 1_555 1_555
C14 N2 1_555 1_555
C15 N1 1_555 1_555
C20 C21 1_555 1_555
C26 C27 1_555 1_555
C32 C33 1_555 1_555

#END
