
#######################################################################
#
#                 Cambridge Crystallographic Data Centre
#                                CCDC 
#
#######################################################################
#
# If this CIF has been generated from an entry in the Cambridge 
# Structural Database, then it will include bibliographic, chemical, 
# crystal, experimental, refinement or atomic coordinate data resulting 
# from the CCDC's data processing and validation procedures.
#
#######################################################################

data_SIQMEM
_chemical_formula_moiety         'C17 H18 N2 O6,H2 O1'
_chemical_name_systematic        
"3,5-Dihydroxy-N'-(2,4,5-trimethoxybenzylidene)benzohydrazide monohydrate"
_symmetry_cell_setting           monoclinic
_symmetry_space_group_name_H-M   'P 21/n'
_symmetry_Int_Tables_number      14
_space_group_name_Hall           '-P 2yn'
loop_
_symmetry_equiv_pos_site_id
_symmetry_equiv_pos_as_xyz
1 x,y,z
2 1/2-x,1/2+y,1/2-z
3 -x,-y,-z
4 1/2+x,1/2-y,1/2+z
_cell_length_a                   11.720(12)
_cell_length_b                   10.028(10)
_cell_length_c                   14.444(14)
_cell_angle_alpha                90
_cell_angle_beta                 97.637(10)
_cell_angle_gamma                90
_cell_volume                     1682.52
_exptl_crystal_colour            yellow
_exptl_crystal_description       block
_cell_formula_units_Z            4
loop_
_atom_site_label
_atom_site_type_symbol
_atom_site_fract_x
_atom_site_fract_y
_atom_site_fract_z
C1 C 0.8584(2) 0.6936(2) 0.53301(16)
H1 H 0.7964 0.7396 0.5011
C2 C 0.8388(2) 0.5931(2) 0.59228(16)
C3 C 0.9319(2) 0.5228(2) 0.63920(16)
C4 C 1.0429(2) 0.5550(2) 0.62771(16)
H2 H 1.1046 0.5085 0.6597
C5 C 1.0613(2) 0.6581(2) 0.56760(16)
C6 C 0.9703(2) 0.7285(2) 0.51949(15)
C7 C 0.6356(2) 0.6233(3) 0.5677(2)
H3 H 0.5667 0.5870 0.5870
H4 H 0.6315 0.6165 0.5011
H5 H 0.6429 0.7153 0.5859
C8 C 0.9911(3) 0.3500(3) 0.74980(19)
H6 H 1.0445 0.3157 0.7107
H7 H 0.9583 0.2774 0.7807
H8 H 1.0307 0.4090 0.7956
C9 C 1.2670(2) 0.6378(3) 0.59931(19)
H9 H 1.2708 0.6581 0.6646
H10 H 1.3342 0.6723 0.5762
H11 H 1.2637 0.5429 0.5907
C10 C 0.9947(2) 0.8330(2) 0.45619(16)
H12 H 1.0712 0.8538 0.4523
C11 C 0.8840(2) 1.0649(2) 0.29010(16)
C12 C 0.93452(18) 1.1582(2) 0.22573(15)
C13 C 1.04815(19) 1.1513(2) 0.20957(16)
H13 H 1.0972 1.0873 0.2396
C14 C 1.08789(19) 1.2402(2) 0.14849(17)
C15 C 1.01651(19) 1.3370(2) 0.10463(16)
H14 H 1.0440 1.3966 0.0635
C16 C 0.90427(19) 1.3445(2) 0.12234(15)
C17 C 0.86189(19) 1.2546(2) 0.18143(15)
H15 H 0.7852 1.2586 0.1915
H16 H 1.0359(9) 1.001(2) 0.3553(16)
N1 N 0.95894(16) 0.99141(19) 0.34740(14)
N2 N 0.91665(17) 0.89821(19) 0.40534(13)
O1 O 0.77948(13) 1.05520(17) 0.28957(12)
O2 O 1.19933(14) 1.24030(18) 0.13023(15)
H17 H 1.2304 1.1700 0.1484
O3 O 0.83753(14) 1.44282(17) 0.07739(12)
H18 H 0.7840 1.4598 0.1067
O4 O 0.73208(15) 0.55143(18) 0.61064(13)
O5 O 0.90217(15) 0.42082(17) 0.69412(12)
O6 O 1.16787(14) 0.69666(19) 0.55011(13)
H19 H 0.2472(18) 0.5559(17) 0.1410(15)
H20 H 0.2685(19) 0.4258(11) 0.1301(16)
O7 O 0.28639(18) 0.5042(2) 0.11260(16)
loop_
_geom_bond_atom_site_label_1
_geom_bond_atom_site_label_2
_geom_bond_site_symmetry_1
_geom_bond_site_symmetry_2
C1 H1 1_555 1_555
C2 C1 1_555 1_555
C3 C2 1_555 1_555
C4 C3 1_555 1_555
H2 C4 1_555 1_555
C5 C4 1_555 1_555
C6 C1 1_555 1_555
C7 H3 1_555 1_555
H4 C7 1_555 1_555
H5 C7 1_555 1_555
C8 H6 1_555 1_555
H7 C8 1_555 1_555
H8 C8 1_555 1_555
C9 H9 1_555 1_555
H10 C9 1_555 1_555
H11 C9 1_555 1_555
C10 C6 1_555 1_555
H12 C10 1_555 1_555
C11 C12 1_555 1_555
C12 C13 1_555 1_555
C13 H13 1_555 1_555
C14 C13 1_555 1_555
C15 C14 1_555 1_555
H14 C15 1_555 1_555
C16 C15 1_555 1_555
C17 C12 1_555 1_555
H15 C17 1_555 1_555
H16 N1 1_555 1_555
N1 C11 1_555 1_555
N2 C10 1_555 1_555
O1 C11 1_555 1_555
O2 C14 1_555 1_555
H17 O2 1_555 1_555
O3 C16 1_555 1_555
H18 O3 1_555 1_555
O4 C2 1_555 1_555
O5 C3 1_555 1_555
O6 C5 1_555 1_555
H19 O7 1_555 1_555
H20 O7 1_555 1_555
C5 C6 1_555 1_555
C7 O4 1_555 1_555
C8 O5 1_555 1_555
C9 O6 1_555 1_555
C16 C17 1_555 1_555
N1 N2 1_555 1_555

#END
