
#######################################################################
#
#                 Cambridge Crystallographic Data Centre
#                                CCDC 
#
#######################################################################
#
# If this CIF has been generated from an entry in the Cambridge 
# Structural Database, then it will include bibliographic, chemical, 
# crystal, experimental, refinement or atomic coordinate data resulting 
# from the CCDC's data processing and validation procedures.
#
#######################################################################

data_SIQRES
_chemical_formula_moiety         'C30 H18,0.5(C1 H2 Cl2)'
_chemical_name_systematic        
'1,3,5-triphenyl-2,4,6-triethynylbenzene dichloromethane solvate'
_symmetry_cell_setting           monoclinic
_symmetry_space_group_name_H-M   'C 2/c'
_symmetry_Int_Tables_number      15
_space_group_name_Hall           '-C 2yn'
loop_
_symmetry_equiv_pos_site_id
_symmetry_equiv_pos_as_xyz
1 x,y,z
2 -x,y,1/2-z
3 1/2+x,1/2+y,z
4 1/2-x,1/2+y,1/2-z
5 -x,-y,-z
6 x,-y,1/2+z
7 1/2-x,1/2-y,-z
8 1/2+x,1/2-y,1/2+z
_cell_length_a                   20.962(4)
_cell_length_b                   12.826(3)
_cell_length_c                   18.178(4)
_cell_angle_alpha                90
_cell_angle_beta                 110.79(3)
_cell_angle_gamma                90
_cell_volume                     4569.09
_exptl_crystal_colour            colorless
_exptl_crystal_description       block
_cell_formula_units_Z            8
loop_
_atom_site_label
_atom_site_type_symbol
_atom_site_fract_x
_atom_site_fract_y
_atom_site_fract_z
C1 C 0.30264(9) 0.36109(14) 0.44495(10)
C2 C 0.28460(9) 0.30806(14) 0.37270(10)
C3 C 0.22196(9) 0.32795(14) 0.31191(10)
C4 C 0.17764(9) 0.40296(13) 0.32340(10)
C5 C 0.19376(9) 0.45407(14) 0.39673(10)
C6 C 0.25642(9) 0.43247(14) 0.45689(10)
C7 C 0.37126(9) 0.34364(14) 0.50644(10)
C8 C 0.37819(10) 0.29288(15) 0.57641(11)
H1 H 0.338733 0.270948 0.586384
C9 C 0.44261(11) 0.27410(17) 0.63183(12)
H2 H 0.447081 0.238140 0.679096
C10 C 0.50017(10) 0.30752(17) 0.61843(12)
H3 H 0.544182 0.294565 0.656347
C11 C 0.49346(10) 0.35988(18) 0.54964(12)
H4 H 0.532940 0.383904 0.540646
C12 C 0.42936(10) 0.37746(16) 0.49374(11)
H5 H 0.425168 0.412935 0.446369
C13 C 0.33075(10) 0.23270(16) 0.36019(11)
C14 C 0.36761(12) 0.1704(2) 0.34864(14)
H6 H 0.397266 0.120318 0.339346
C15 C 0.20366(9) 0.26780(14) 0.23706(10)
C16 C 0.19442(10) 0.16023(15) 0.23748(11)
H7 H 0.197508 0.125814 0.284903
C17 C 0.18068(10) 0.10329(17) 0.16845(13)
H8 H 0.173821 0.030088 0.168657
C18 C 0.17699(10) 0.15273(18) 0.09972(12)
H9 H 0.168092 0.113393 0.052854
C19 C 0.18616(10) 0.25915(18) 0.09880(11)
H10 H 0.183968 0.292788 0.051403
C20 C 0.19857(10) 0.31721(16) 0.16683(11)
H11 H 0.203618 0.390735 0.165609
C21 C 0.11331(9) 0.42406(14) 0.26109(10)
C22 C 0.06007(10) 0.44078(16) 0.21045(11)
H12 H 0.017467 0.454163 0.169933
C23 C 0.14459(9) 0.52917(15) 0.40977(11)
C24 C 0.12730(12) 0.62051(18) 0.36623(13)
H13 H 0.148248 0.636745 0.329090
C25 C 0.07966(14) 0.6881(2) 0.37661(16)
H14 H 0.068014 0.750343 0.346437
C26 C 0.04924(12) 0.6657(2) 0.43017(18)
H15 H 0.016169 0.711894 0.436595
C27 C 0.06672(12) 0.5760(2) 0.47478(17)
H16 H 0.046135 0.561231 0.512501
C28 C 0.11438(11) 0.50690(18) 0.46486(13)
H17 H 0.126129 0.445061 0.495488
C29 C 0.27678(9) 0.48892(15) 0.53016(10)
C30 C 0.29780(11) 0.53703(18) 0.58964(12)
H18 H 0.314634 0.575572 0.637300
Cl1 Cl 0.44720(5) 0.59278(7) 0.78466(5)
C31 C 0.500000 0.5176(4) 0.750000
H19 H 0.471307 0.472158 0.706965
H19A H 0.528693 0.472158 0.793035
Cl1A Cl 0.55280(5) 0.59278(7) 0.71534(5)
H20? H 0.471308 0.472157 0.706966
loop_
_geom_bond_atom_site_label_1
_geom_bond_atom_site_label_2
_geom_bond_site_symmetry_1
_geom_bond_site_symmetry_2
C1 C2 1_555 1_555
C2 C3 1_555 1_555
C3 C4 1_555 1_555
C4 C5 1_555 1_555
C5 C6 1_555 1_555
C6 C1 1_555 1_555
C7 C1 1_555 1_555
C8 C7 1_555 1_555
H1 C8 1_555 1_555
C9 C8 1_555 1_555
H2 C9 1_555 1_555
C10 C9 1_555 1_555
H3 C10 1_555 1_555
C11 C10 1_555 1_555
H4 C11 1_555 1_555
C12 C7 1_555 1_555
H5 C12 1_555 1_555
C13 C2 1_555 1_555
C14 C13 1_555 1_555
H6 C14 1_555 1_555
C15 C3 1_555 1_555
C16 C15 1_555 1_555
H7 C16 1_555 1_555
C17 C16 1_555 1_555
H8 C17 1_555 1_555
C18 C17 1_555 1_555
H9 C18 1_555 1_555
C19 C18 1_555 1_555
H10 C19 1_555 1_555
C20 C15 1_555 1_555
H11 C20 1_555 1_555
C21 C4 1_555 1_555
C22 C21 1_555 1_555
H12 C22 1_555 1_555
C23 C5 1_555 1_555
C24 C23 1_555 1_555
H13 C24 1_555 1_555
C25 C24 1_555 1_555
H14 C25 1_555 1_555
C26 C25 1_555 1_555
H15 C26 1_555 1_555
C27 C26 1_555 1_555
H16 C27 1_555 1_555
C28 C23 1_555 1_555
H17 C28 1_555 1_555
C29 C6 1_555 1_555
C30 C29 1_555 1_555
H18 C30 1_555 1_555
Cl1 C31 1_555 1_555
C31 H19 1_555 1_555
H19A C31 1_555 1_555
Cl1A C31 1_555 1_555
C11 C12 1_555 1_555
C19 C20 1_555 1_555
C27 C28 1_555 1_555

#END
