
#######################################################################
#
#                 Cambridge Crystallographic Data Centre
#                                CCDC 
#
#######################################################################
#
# If this CIF has been generated from an entry in the Cambridge 
# Structural Database, then it will include bibliographic, chemical, 
# crystal, experimental, refinement or atomic coordinate data resulting 
# from the CCDC's data processing and validation procedures.
#
#######################################################################

data_SIQRIW
_chemical_formula_moiety         'C28 H18'
_chemical_name_systematic        1,3,5-triphenyl-2,4-diethynylbenzene
_symmetry_cell_setting           monoclinic
_symmetry_space_group_name_H-M   'P 21/c'
_symmetry_Int_Tables_number      14
_space_group_name_Hall           '-P 2ybc'
loop_
_symmetry_equiv_pos_site_id
_symmetry_equiv_pos_as_xyz
1 x,y,z
2 -x,1/2+y,1/2-z
3 -x,-y,-z
4 x,1/2-y,1/2+z
_cell_length_a                   15.289(6)
_cell_length_b                   13.561(5)
_cell_length_c                   9.488(4)
_cell_angle_alpha                90
_cell_angle_beta                 95.023(4)
_cell_angle_gamma                90
_cell_volume                     1959.63
_exptl_crystal_colour            colorless
_exptl_crystal_description       block
_cell_formula_units_Z            4
loop_
_atom_site_label
_atom_site_type_symbol
_atom_site_fract_x
_atom_site_fract_y
_atom_site_fract_z
C1 C 0.77852(12) 0.27776(14) 0.6768(2)
C2 C 0.69347(12) 0.27506(14) 0.7237(2)
C3 C 0.64400(12) 0.36207(13) 0.72692(19)
C4 C 0.68038(12) 0.45215(13) 0.6886(2)
C5 C 0.76644(12) 0.45620(14) 0.6450(2)
C6 C 0.81284(12) 0.36767(14) 0.6402(2)
H1 H 0.870534 0.369270 0.610320
C7 C 0.83073(12) 0.18621(14) 0.6618(2)
C8 C 0.79783(15) 0.11003(16) 0.5752(2)
H2 H 0.740639 0.115404 0.527852
C9 C 0.84759(16) 0.02577(18) 0.5567(3)
H3 H 0.824728 -0.025488 0.495904
C10 C 0.92983(15) 0.01689(17) 0.6264(3)
H4 H 0.963536 -0.040977 0.615162
C11 C 0.96337(14) 0.09208(17) 0.7128(3)
H5 H 1.020440 0.086088 0.760388
C12 C 0.91418(13) 0.17650(16) 0.7307(2)
H6 H 0.937786 0.227944 0.790481
C13 C 0.65816(13) 0.18381(14) 0.7730(2)
C14 C 0.63166(14) 0.10932(16) 0.8166(3)
H7 H 0.610264 0.049188 0.851766
C15 C 0.55055(12) 0.35946(13) 0.7629(2)
C16 C 0.48455(13) 0.34392(15) 0.6553(2)
H8 H 0.499735 0.331513 0.561945
C17 C 0.39689(13) 0.34620(16) 0.6817(3)
H9 H 0.352422 0.335410 0.606911
C18 C 0.37451(14) 0.36416(15) 0.8166(3)
H10 H 0.314479 0.366451 0.835094
C19 C 0.43904(16) 0.37875(18) 0.9242(3)
H11 H 0.423376 0.390685 1.017411
C20 C 0.52690(14) 0.37629(16) 0.8986(2)
H12 H 0.571009 0.386157 0.974168
C21 C 0.62653(12) 0.53956(14) 0.6899(2)
C22 C 0.58164(13) 0.61007(15) 0.6941(2)
H13 H 0.545488 0.666846 0.697442
C23 C 0.80702(12) 0.54866(14) 0.5965(2)
C24 C 0.80092(13) 0.63842(14) 0.6674(2)
H14 H 0.768895 0.641864 0.748654
C25 C 0.84108(14) 0.72255(15) 0.6205(2)
H15 H 0.835034 0.783407 0.668268
C26 C 0.88978(15) 0.71839(17) 0.5048(3)
H16 H 0.917828 0.775928 0.473560
C27 C 0.89746(16) 0.62955(17) 0.4344(2)
H17 H 0.931494 0.626070 0.355456
C28 C 0.85570(14) 0.54587(16) 0.4788(2)
H18 H 0.860258 0.485798 0.428452
loop_
_geom_bond_atom_site_label_1
_geom_bond_atom_site_label_2
_geom_bond_site_symmetry_1
_geom_bond_site_symmetry_2
C1 C2 1_555 1_555
C2 C3 1_555 1_555
C3 C4 1_555 1_555
C4 C5 1_555 1_555
C5 C6 1_555 1_555
C6 C1 1_555 1_555
H1 C6 1_555 1_555
C7 C1 1_555 1_555
C8 C7 1_555 1_555
H2 C8 1_555 1_555
C9 C8 1_555 1_555
H3 C9 1_555 1_555
C10 C9 1_555 1_555
H4 C10 1_555 1_555
C11 C10 1_555 1_555
H5 C11 1_555 1_555
C12 C7 1_555 1_555
H6 C12 1_555 1_555
C13 C2 1_555 1_555
C14 C13 1_555 1_555
H7 C14 1_555 1_555
C15 C3 1_555 1_555
C16 C15 1_555 1_555
H8 C16 1_555 1_555
C17 C16 1_555 1_555
H9 C17 1_555 1_555
C18 C17 1_555 1_555
H10 C18 1_555 1_555
C19 C18 1_555 1_555
H11 C19 1_555 1_555
C20 C15 1_555 1_555
H12 C20 1_555 1_555
C21 C4 1_555 1_555
C22 C21 1_555 1_555
H13 C22 1_555 1_555
C23 C5 1_555 1_555
C24 C23 1_555 1_555
H14 C24 1_555 1_555
C25 C24 1_555 1_555
H15 C25 1_555 1_555
C26 C25 1_555 1_555
H16 C26 1_555 1_555
C27 C26 1_555 1_555
H17 C27 1_555 1_555
C28 C23 1_555 1_555
H18 C28 1_555 1_555
C11 C12 1_555 1_555
C19 C20 1_555 1_555
C27 C28 1_555 1_555

#END
