
#######################################################################
#
#                 Cambridge Crystallographic Data Centre
#                                CCDC 
#
#######################################################################
#
# If this CIF has been generated from an entry in the Cambridge 
# Structural Database, then it will include bibliographic, chemical, 
# crystal, experimental, refinement or atomic coordinate data resulting 
# from the CCDC's data processing and validation procedures.
#
#######################################################################

data_SIQROC
_chemical_formula_moiety         'C19 H15 N1 O5'
_chemical_name_systematic        
'ethyl [3-(4-nitrophenyl)-2H-1-benzopyran-2-ylidene]acetate'
_symmetry_cell_setting           monoclinic
_symmetry_space_group_name_H-M   'P 21/n'
_symmetry_Int_Tables_number      14
_space_group_name_Hall           '-P 2yn'
loop_
_symmetry_equiv_pos_site_id
_symmetry_equiv_pos_as_xyz
1 x,y,z
2 1/2-x,1/2+y,1/2-z
3 -x,-y,-z
4 1/2+x,1/2-y,1/2+z
_cell_length_a                   8.9212(8)
_cell_length_b                   8.8067(6)
_cell_length_c                   20.9373(16)
_cell_angle_alpha                90
_cell_angle_beta                 92.791(8)
_cell_angle_gamma                90
_cell_volume                     1643.02
_exptl_crystal_colour            'light yellow'
_exptl_crystal_description       block
_cell_formula_units_Z            4
loop_
_atom_site_label
_atom_site_type_symbol
_atom_site_fract_x
_atom_site_fract_y
_atom_site_fract_z
C1 C 0.4249(3) 0.3141(3) 0.55987(12)
H1 H 0.4662 0.4095 0.5681
C2 C 0.4884(3) 0.1882(3) 0.58964(12)
H2 H 0.5720 0.1974 0.6177
C3 C 0.4245(3) 0.0487(2) 0.57668(11)
C4 C 0.3009(3) 0.0308(3) 0.53602(12)
H3 H 0.2594 -0.0647 0.5285
C5 C 0.2395(3) 0.1581(2) 0.50650(11)
H4 H 0.1557 0.1480 0.4786
C6 C 0.3009(3) 0.3006(2) 0.51786(11)
C7 C 0.2382(2) 0.4350(2) 0.48286(11)
C8 C 0.2389(3) 0.4420(2) 0.41889(11)
H5 H 0.2749 0.3600 0.3962
C9 C 0.1851(3) 0.5741(2) 0.38483(11)
C10 C 0.1861(3) 0.5903(3) 0.31859(12)
H6 H 0.2216 0.5116 0.2938
C11 C 0.1347(4) 0.7225(3) 0.28949(13)
H7 H 0.1348 0.7327 0.2453
C12 C 0.0834(3) 0.8388(3) 0.32639(13)
H8 H 0.0490 0.9276 0.3066
C13 C 0.0816(3) 0.8270(3) 0.39156(12)
H9 H 0.0469 0.9064 0.4161
C14 C 0.1325(3) 0.6946(2) 0.41978(11)
C15 C 0.1782(2) 0.5612(2) 0.51888(11)
C16 C 0.1654(3) 0.5599(2) 0.58221(11)
H10 H 0.1957 0.4719 0.6037
C17 C 0.1087(3) 0.6826(3) 0.62091(11)
C18 C 0.0626(5) 0.7444(4) 0.72971(15)
H11 H -0.0216 0.8009 0.7107
H12 H 0.0277 0.6879 0.7659
C19 C 0.1791(5) 0.8474(5) 0.7509(2)
H13 H 0.2143 0.9019 0.7149
H14 H 0.2607 0.7913 0.7711
H15 H 0.1404 0.9179 0.7809
N1 N 0.4935(3) -0.0858(3) 0.60738(12)
O1 O 0.13032(19) 0.68719(16) 0.48530(7)
O2 O 0.0577(2) 0.80266(18) 0.60388(8)
O3 O 0.1200(3) 0.6399(2) 0.68282(8)
O4 O 0.6022(3) -0.0681(3) 0.64388(12)
O5 O 0.4427(3) -0.2097(2) 0.59355(13)
loop_
_geom_bond_atom_site_label_1
_geom_bond_atom_site_label_2
_geom_bond_site_symmetry_1
_geom_bond_site_symmetry_2
C1 H1 1_555 1_555
C2 C1 1_555 1_555
H2 C2 1_555 1_555
C3 C2 1_555 1_555
C4 C3 1_555 1_555
H3 C4 1_555 1_555
C5 C4 1_555 1_555
H4 C5 1_555 1_555
C6 C1 1_555 1_555
C7 C6 1_555 1_555
C8 C7 1_555 1_555
H5 C8 1_555 1_555
C9 C8 1_555 1_555
C10 C9 1_555 1_555
H6 C10 1_555 1_555
C11 C10 1_555 1_555
H7 C11 1_555 1_555
C12 C11 1_555 1_555
H8 C12 1_555 1_555
C13 C12 1_555 1_555
H9 C13 1_555 1_555
C14 C9 1_555 1_555
C15 C7 1_555 1_555
C16 C15 1_555 1_555
H10 C16 1_555 1_555
C17 C16 1_555 1_555
C18 H11 1_555 1_555
H12 C18 1_555 1_555
C19 C18 1_555 1_555
H13 C19 1_555 1_555
H14 C19 1_555 1_555
H15 C19 1_555 1_555
N1 C3 1_555 1_555
O1 C14 1_555 1_555
O2 C17 1_555 1_555
O3 C17 1_555 1_555
O4 N1 1_555 1_555
O5 N1 1_555 1_555
C5 C6 1_555 1_555
C13 C14 1_555 1_555
C15 O1 1_555 1_555
C18 O3 1_555 1_555

#END
