
#######################################################################
#
#                 Cambridge Crystallographic Data Centre
#                                CCDC 
#
#######################################################################
#
# If this CIF has been generated from an entry in the Cambridge 
# Structural Database, then it will include bibliographic, chemical, 
# crystal, experimental, refinement or atomic coordinate data resulting 
# from the CCDC's data processing and validation procedures.
#
#######################################################################

data_SIQSOC
_chemical_formula_moiety         'C46 H48 N2 O2'
_chemical_name_systematic        
5,11-Dihexyl-6,12-bis(4-methylphenyl)-5,11-dihydroindolo[3,2-b]carbazole-2,8-dicarbaldehyde
_symmetry_cell_setting           monoclinic
_symmetry_space_group_name_H-M   'P 21/n'
_symmetry_Int_Tables_number      14
_space_group_name_Hall           '-P 2yn'
loop_
_symmetry_equiv_pos_site_id
_symmetry_equiv_pos_as_xyz
1 x,y,z
2 1/2-x,1/2+y,1/2-z
3 -x,-y,-z
4 1/2+x,1/2-y,1/2+z
_cell_length_a                   8.339(5)
_cell_length_b                   30.092(5)
_cell_length_c                   8.490(5)
_cell_angle_alpha                90
_cell_angle_beta                 117.506(5)
_cell_angle_gamma                90
_cell_volume                     1889.64
_exptl_crystal_colour            yellow
_exptl_crystal_description       rhombus
_cell_formula_units_Z            2
loop_
_atom_site_label
_atom_site_type_symbol
_atom_site_fract_x
_atom_site_fract_y
_atom_site_fract_z
N1 N 0.7023(3) 0.51745(8) 0.8229(3)
C1 C 0.5927(4) 0.51368(10) 0.9083(4)
C2 C 0.5202(4) 0.45502(10) 1.0709(4)
C3 C 0.7309(4) 0.44641(10) 0.9250(4)
C4 C 0.5609(4) 0.40921(10) 1.1474(4)
C5 C 0.7849(4) 0.47745(11) 0.8338(4)
C6 C 0.6099(4) 0.46963(10) 0.9755(4)
O1 O 1.0580(4) 0.32947(9) 0.8195(4)
C7 C 0.7395(5) 0.55728(10) 0.7462(4)
H1 H 0.8673 0.5579 0.7787
H2 H 0.7137 0.5832 0.7984
C8 C 0.9045(5) 0.46634(11) 0.7670(4)
H3 H 0.9418 0.4875 0.7109
C9 C 0.9086(5) 0.39121(11) 0.8702(5)
C10 C 0.7133(5) 0.40236(11) 1.3088(5)
H4 H 0.7805 0.4267 1.3732
C11 C 0.7944(5) 0.40295(11) 0.9413(4)
H5 H 0.7603 0.3818 0.9998
C12 C 0.9657(5) 0.42312(12) 0.7865(5)
H6 H 1.0459 0.4150 0.7436
C13 C 0.6719(6) 0.32292(11) 1.2858(5)
C14 C 0.4631(5) 0.37204(10) 1.0571(5)
H7 H 0.3596 0.3756 0.9493
C15 C 0.5177(5) 0.32974(11) 1.1251(5)
H8 H 0.4498 0.3054 1.0621
C16 C 0.7666(5) 0.36015(12) 1.3752(5)
H9 H 0.8695 0.3567 1.4836
C17 C 0.6324(5) 0.56058(12) 0.5462(5)
H10 H 0.5052 0.5639 0.5138
H11 H 0.6464 0.5332 0.4936
C18 C 0.9673(5) 0.34461(12) 0.8828(5)
H12 H 0.9310 0.3252 0.9454
C19 C 0.6916(6) 0.59940(13) 0.4707(6)
H13 H 0.6265 0.5980 0.3422
H14 H 0.8193 0.5961 0.5054
C20 C 0.7325(7) 0.27707(13) 1.3613(7)
H15 H 0.6478 0.2555 1.2844
H16 H 0.7385 0.2753 1.4769
H17 H 0.8498 0.2712 1.3709
C21 C 0.6608(9) 0.64491(15) 0.5302(8)
H18 H 0.5336 0.6472 0.4991
H19 H 0.7278 0.6459 0.6587
C22 C 0.7085(10) 0.68387(17) 0.4621(9)
H20 H 0.6304 0.6852 0.3350
H21 H 0.8314 0.6802 0.4801
C23 C 0.6969(12) 0.7269(2) 0.5399(12)
H22 H 0.5735 0.7325 0.5128
H23 H 0.7392 0.7501 0.4912
H24 H 0.7703 0.7258 0.6664
N1B N 0.2977(3) 0.48255(8) 1.1771(3)
C1B C 0.4073(4) 0.48632(10) 1.0917(4)
C2B C 0.4798(4) 0.54498(10) 0.9291(4)
C3B C 0.2691(4) 0.55359(10) 1.0750(4)
C4B C 0.4391(4) 0.59079(10) 0.8526(4)
C5B C 0.2151(4) 0.52255(11) 1.1662(4)
C6B C 0.3901(4) 0.53037(10) 1.0245(4)
O1B O -0.0580(4) 0.67053(9) 1.1805(4)
C7B C 0.2605(5) 0.44272(10) 1.2538(4)
H1B H 0.1327 0.4421 1.2213
H2B H 0.2863 0.4168 1.2016
C8B C 0.0955(5) 0.53366(11) 1.2330(4)
H3B H 0.0582 0.5125 1.2891
C9B C 0.0914(5) 0.60879(11) 1.1298(5)
C10B C 0.2867(5) 0.59764(11) 0.6912(5)
H4B H 0.2195 0.5733 0.6268
C11B C 0.2056(5) 0.59705(11) 1.0587(4)
H5B H 0.2397 0.6182 1.0002
C12B C 0.0343(5) 0.57688(12) 1.2135(5)
H6B H -0.0459 0.5850 1.2564
C13B C 0.3281(6) 0.67708(11) 0.7142(5)
C14B C 0.5369(5) 0.62796(10) 0.9429(5)
H7B H 0.6404 0.6244 1.0507
C15B C 0.4823(5) 0.67026(11) 0.8749(5)
H8B H 0.5502 0.6946 0.9379
C16B C 0.2334(5) 0.63985(12) 0.6248(5)
H9B H 0.1305 0.6433 0.5164
C17B C 0.3676(5) 0.43942(12) 1.4538(5)
H10B H 0.4948 0.4361 1.4862
H11B H 0.3536 0.4668 1.5064
C18B C 0.0327(5) 0.65539(12) 1.1172(5)
H12B H 0.0690 0.6748 1.0546
C19B C 0.3084(6) 0.40060(13) 1.5293(6)
H13B H 0.3735 0.4020 1.6578
H14B H 0.1807 0.4039 1.4946
C20B C 0.2675(7) 0.72293(13) 0.6387(7)
H15B H 0.3522 0.7445 0.7156
H16B H 0.2615 0.7247 0.5231
H17B H 0.1502 0.7288 0.6291
C21B C 0.3392(9) 0.35509(15) 1.4698(8)
H18B H 0.4664 0.3528 1.5009
H19B H 0.2722 0.3541 1.3413
C22B C 0.2915(10) 0.31613(17) 1.5379(9)
H20B H 0.3696 0.3148 1.6650
H21B H 0.1686 0.3198 1.5199
C23B C 0.3031(12) 0.2731(2) 1.4601(12)
H22B H 0.4265 0.2675 1.4872
H23B H 0.2608 0.2499 1.5088
H24B H 0.2297 0.2742 1.3336
loop_
_geom_bond_atom_site_label_1
_geom_bond_atom_site_label_2
_geom_bond_site_symmetry_1
_geom_bond_site_symmetry_2
N1 C1 1_555 1_555
C1 C6 1_555 1_555
C2 C4 1_555 1_555
C3 C5 1_555 1_555
C4 C10 1_555 1_555
C5 N1 1_555 1_555
C6 C2 1_555 1_555
O1 C18 1_555 1_555
C7 N1 1_555 1_555
H1 C7 1_555 1_555
H2 C7 1_555 1_555
C8 C5 1_555 1_555
H3 C8 1_555 1_555
C9 C11 1_555 1_555
C10 H4 1_555 1_555
C11 C3 1_555 1_555
H5 C11 1_555 1_555
C12 C8 1_555 1_555
H6 C12 1_555 1_555
C13 C15 1_555 1_555
C14 C4 1_555 1_555
H7 C14 1_555 1_555
C15 C14 1_555 1_555
H8 C15 1_555 1_555
C16 C10 1_555 1_555
H9 C16 1_555 1_555
C17 C7 1_555 1_555
H10 C17 1_555 1_555
H11 C17 1_555 1_555
C18 C9 1_555 1_555
H12 C18 1_555 1_555
C19 C17 1_555 1_555
H13 C19 1_555 1_555
H14 C19 1_555 1_555
C20 C13 1_555 1_555
H15 C20 1_555 1_555
H16 C20 1_555 1_555
H17 C20 1_555 1_555
C21 C19 1_555 1_555
H18 C21 1_555 1_555
H19 C21 1_555 1_555
C22 C21 1_555 1_555
H20 C22 1_555 1_555
H21 C22 1_555 1_555
C23 C22 1_555 1_555
H22 C23 1_555 1_555
H23 C23 1_555 1_555
H24 C23 1_555 1_555
N1B C1B 1_555 1_555
C1B C2 1_555 1_555
C2B C1 1_555 1_555
C3B C5B 1_555 1_555
C4B C2B 1_555 1_555
C5B N1B 1_555 1_555
C6B C1B 1_555 1_555
O1B C18B 1_555 1_555
C7B N1B 1_555 1_555
H1B C7B 1_555 1_555
H2B C7B 1_555 1_555
C8B C5B 1_555 1_555
H3B C8B 1_555 1_555
C9B C11B 1_555 1_555
C10B C4B 1_555 1_555
H4B C10B 1_555 1_555
C11B C3B 1_555 1_555
H5B C11B 1_555 1_555
C12B C8B 1_555 1_555
H6B C12B 1_555 1_555
C13B C15B 1_555 1_555
C14B C4B 1_555 1_555
H7B C14B 1_555 1_555
C15B C14B 1_555 1_555
H8B C15B 1_555 1_555
C16B C10B 1_555 1_555
H9B C16B 1_555 1_555
C17B C7B 1_555 1_555
H10B C17B 1_555 1_555
H11B C17B 1_555 1_555
C18B C9B 1_555 1_555
H12B C18B 1_555 1_555
C19B C17B 1_555 1_555
H13B C19B 1_555 1_555
H14B C19B 1_555 1_555
C20B C13B 1_555 1_555
H15B C20B 1_555 1_555
H16B C20B 1_555 1_555
H17B C20B 1_555 1_555
C21B C19B 1_555 1_555
H18B C21B 1_555 1_555
H19B C21B 1_555 1_555
C22B C21B 1_555 1_555
H20B C22B 1_555 1_555
H21B C22B 1_555 1_555
C23B C22B 1_555 1_555
H22B C23B 1_555 1_555
H23B C23B 1_555 1_555
H24B C23B 1_555 1_555
C3 C6 1_555 1_555
C9 C12 1_555 1_555
C13 C16 1_555 1_555
C2B C6B 1_555 1_555
C3B C6B 1_555 1_555
C9B C12B 1_555 1_555
C13B C16B 1_555 1_555

#END
