
#######################################################################
#
#                 Cambridge Crystallographic Data Centre
#                                CCDC 
#
#######################################################################
#
# If this CIF has been generated from an entry in the Cambridge 
# Structural Database, then it will include bibliographic, chemical, 
# crystal, experimental, refinement or atomic coordinate data resulting 
# from the CCDC's data processing and validation procedures.
#
#######################################################################

data_SIQTOD
_chemical_formula_moiety         'C53 H66 N2 O11,0.25(H2 O1),C1 H2 Cl2'
_chemical_name_systematic        
'1-Hexyl-3-(2-((9,14,19,24,26,28,30,32,34-nonamethoxyhexacyclo[21.2.2.2^3,6^.2^8,11^.2^13,16^.2^18,21^]pentatriaconta-1(25),3,5,8,10,13,15,18,20,23,26,28,30,32,34-pentadecaen-4-yl)oxy)ethyl)urea dichloromethane solvate hydrate'
_symmetry_cell_setting           monoclinic
_symmetry_space_group_name_H-M   'C 2/c'
_symmetry_Int_Tables_number      15
_space_group_name_Hall           '-C 2yn'
loop_
_symmetry_equiv_pos_site_id
_symmetry_equiv_pos_as_xyz
1 x,y,z
2 -x,y,1/2-z
3 1/2+x,1/2+y,z
4 1/2-x,1/2+y,1/2-z
5 -x,-y,-z
6 x,-y,1/2+z
7 1/2-x,1/2-y,-z
8 1/2+x,1/2-y,1/2+z
_cell_length_a                   40.0942(14)
_cell_length_b                   14.3501(12)
_cell_length_c                   20.0274(15)
_cell_angle_alpha                90
_cell_angle_beta                 107.931(3)
_cell_angle_gamma                90
_cell_volume                     10963.2
_cell_formula_units_Z            8
loop_
_atom_site_label
_atom_site_type_symbol
_atom_site_fract_x
_atom_site_fract_y
_atom_site_fract_z
C1 C 0.90175(7) 0.20453(18) 0.53066(13)
C2 C 0.86691(7) 0.17594(18) 0.52335(13)
C3 C 0.85649(7) 0.09236(19) 0.49692(13)
H1 H 0.8335 0.0718 0.4933
C4 C 0.87821(7) 0.03522(19) 0.47484(13)
C5 C 0.91204(7) 0.05680(17) 0.48172(13)
C6 C 0.92443(7) 0.14957(17) 0.50945(12)
H2 H 0.9473 0.1705 0.5125
C7 C 0.93851(7) 0.00007(19) 0.45553(13)
H3 H 0.9627 0.0207 0.4809
H4 H 0.9366 -0.0668 0.4659
C8 C 0.93174(7) 0.01248(18) 0.37879(13)
C9 C 0.90630(7) -0.04087(17) 0.33038(14)
H5 H 0.8936 -0.0863 0.3471
C10 C 0.89924(7) -0.02910(18) 0.25886(14)
C11 C 0.91685(6) 0.03808(18) 0.22980(14)
C12 C 0.94378(7) 0.08213(18) 0.27795(14)
H6 H 0.9591 0.1184 0.2606
C13 C 0.95086(7) 0.07856(18) 0.35178(15)
C14 C 0.90856(7) 0.04900(17) 0.15316(13)
H7 H 0.8994 -0.0105 0.1296
H8 H 0.9301 0.0652 0.1415
C15 C 0.88164(7) 0.12440(19) 0.12735(14)
C16 C 0.84645(7) 0.10115(19) 0.10917(13)
H9 H 0.8399 0.0380 0.1119
C17 C 0.82095(7) 0.16785(17) 0.08736(13)
C18 C 0.83019(7) 0.26079(18) 0.08236(14)
C19 C 0.86516(7) 0.28453(18) 0.09983(13)
H10 H 0.8716 0.3477 0.0965
C20 C 0.89122(7) 0.21719(19) 0.12230(14)
C21 C 0.79913(7) 0.33455(17) 0.05275(13)
H11 H 0.7792 0.3059 0.0165
H12 H 0.8074 0.3894 0.0323
C22 C 0.78809(7) 0.36367(18) 0.12061(13)
C23 C 0.76102(7) 0.32386(17) 0.13490(13)
H13 H 0.7480 0.2770 0.1043
C24 C 0.75186(7) 0.34718(18) 0.18945(14)
C25 C 0.76805(6) 0.41876(17) 0.23683(13)
C26 C 0.79325(7) 0.46765(18) 0.21631(14)
H14 H 0.8023 0.5240 0.2398
C27 C 0.80489(7) 0.43816(17) 0.16528(14)
C28 C 0.75728(7) 0.45182(18) 0.30102(13)
H15 H 0.7624 0.5190 0.3096
H16 H 0.7319 0.4420 0.2924
C29 C 0.77861(7) 0.39405(18) 0.36508(13)
C30 C 0.76788(7) 0.30962(18) 0.38301(14)
H17 H 0.7467 0.2834 0.3535
C31 C 0.78575(7) 0.26341(18) 0.43954(14)
C32 C 0.81837(7) 0.29716(18) 0.48345(13)
C33 C 0.83110(7) 0.38351(18) 0.46738(14)
H18 H 0.8533 0.4059 0.4954
C34 C 0.81085(7) 0.43628(18) 0.40976(13)
C35 C 0.84214(7) 0.24337(18) 0.54706(13)
H19 H 0.8275 0.2072 0.5695
H20 H 0.8563 0.2880 0.5820
C36 C 0.94450(7) 0.32751(18) 0.55925(15)
H21 H 0.9473 0.3299 0.5119
H22 H 0.9628 0.2868 0.5899
C37 C 1.00199(7) 0.16955(19) 0.38031(14)
H23 H 1.0116 0.1269 0.3527
H24 H 1.0207 0.1893 0.4222
H25 H 0.9920 0.2243 0.3519
C38 C 0.93535(7) 0.33413(18) 0.14369(14)
H26 H 0.9248 0.3542 0.0950
H27 H 0.9609 0.3416 0.1570
H28 H 0.9261 0.3722 0.1746
C39 C 0.85050(7) 0.55168(17) 0.18662(14)
H29 H 0.8628 0.5912 0.1619
H30 H 0.8675 0.5254 0.2286
H31 H 0.8332 0.5891 0.2004
C40 C 0.85288(7) 0.55241(17) 0.43195(13)
H32 H 0.8589 0.6098 0.4118
H33 H 0.8710 0.5053 0.4350
H34 H 0.8514 0.5652 0.4790
C41 C 0.83333(7) -0.07584(18) 0.42092(13)
H35 H 0.8212 -0.0290 0.3863
H36 H 0.8238 -0.0752 0.4604
H37 H 0.8299 -0.1377 0.3991
C42 C 0.85129(7) -0.12931(19) 0.23305(13)
H38 H 0.8454 -0.0937 0.2696
H39 H 0.8625 -0.1881 0.2528
H40 H 0.8299 -0.1424 0.1945
C43 C 0.77609(7) 0.05297(18) 0.06985(15)
H41 H 0.7865 0.0343 0.1189
H42 H 0.7854 0.0137 0.0397
H43 H 0.7506 0.0456 0.0564
C44 C 0.71121(7) 0.22408(18) 0.18102(15)
H44 H 0.7105 0.2243 0.1317
H45 H 0.6874 0.2157 0.1838
H46 H 0.7261 0.1729 0.2057
C45 C 0.74529(7) 0.13442(17) 0.41506(14)
H47 H 0.7454 0.1335 0.3662
H48 H 0.7256 0.1722 0.4188
H49 H 0.7429 0.0706 0.4305
C46 C 0.94525(8) 0.42243(18) 0.58974(16)
H50 H 0.9254 0.4265 0.6093
H51 H 0.9404 0.4676 0.5505
C47 C 0.99692(8) 0.49959(19) 0.61264(18)
C48 C 1.05891(7) 0.56261(18) 0.61796(15)
H52 H 1.0737 0.5061 0.6246
H53 H 1.0484 0.5725 0.5669
C49 C 1.08093(7) 0.64151(18) 0.64727(15)
H54 H 1.0707 0.6720 0.6808
H55 H 1.0787 0.6863 0.6085
C50 C 1.11972(8) 0.6290(2) 0.68453(15)
H56 H 1.1258 0.5626 0.6813
H57 H 1.1244 0.6440 0.7348
C51 C 1.14478(8) 0.69177(19) 0.65416(15)
H58 H 1.1627 0.6539 0.6420
H59 H 1.1313 0.7284 0.6127
C52 C 1.16079(8) 0.75351(19) 0.71765(16)
H60 H 1.1414 0.7850 0.7295
H61 H 1.1727 0.7126 0.7577
C53 C 1.18673(7) 0.8276(2) 0.71211(15)
H62 H 1.2038 0.8002 0.6918
H63 H 1.1989 0.8520 0.7590
H64 H 1.1742 0.8783 0.6820
N1 N 0.97747(6) 0.45525(15) 0.64553(13)
H65 H 0.9824 0.4474 0.6901
N2 N 1.02970(6) 0.54563(15) 0.65009(12)
H66 H 1.0330 0.5631 0.6926
O1 O 0.90934(4) 0.29651(12) 0.55651(9)
O2 O 0.97444(5) 0.12191(12) 0.40148(9)
O3 O 0.92701(5) 0.23792(12) 0.15039(10)
O4 O 0.83341(5) 0.47932(12) 0.14234(10)
O5 O 0.82101(4) 0.51984(12) 0.38981(9)
O6 O 0.87046(4) -0.05469(11) 0.44603(9)
O7 O 0.87365(5) -0.07912(11) 0.20857(8)
O8 O 0.78431(4) 0.14680(11) 0.06187(9)
O9 O 0.72449(4) 0.30676(12) 0.21143(8)
O10 O 0.77810(4) 0.17450(12) 0.45938(9)
O11 O 0.98603(5) 0.50134(12) 0.54605(11)
C54 C 0.95592(7) 0.74114(19) 0.36339(14)
H67 H 0.9802 0.7238 0.3660
H68 H 0.9548 0.8100 0.3649
Cl1 Cl 0.92720(2) 0.70211(5) 0.28251(4)
Cl2 Cl 0.946751(19) 0.69588(5) 0.43721(4)
O12 O 0.5000 0.3742(3) 0.2500
H69 H 0.4808 0.3534 0.2536
H69A H 0.5192 0.3534 0.2464
H70? H 0.5166 0.3602 0.2868
loop_
_geom_bond_atom_site_label_1
_geom_bond_atom_site_label_2
_geom_bond_site_symmetry_1
_geom_bond_site_symmetry_2
C1 C2 1_555 1_555
C2 C3 1_555 1_555
C3 H1 1_555 1_555
C4 C3 1_555 1_555
C5 C4 1_555 1_555
C6 C1 1_555 1_555
H2 C6 1_555 1_555
C7 C5 1_555 1_555
H3 C7 1_555 1_555
H4 C7 1_555 1_555
C8 C7 1_555 1_555
C9 C8 1_555 1_555
H5 C9 1_555 1_555
C10 C9 1_555 1_555
C11 C10 1_555 1_555
C12 C11 1_555 1_555
H6 C12 1_555 1_555
C13 C8 1_555 1_555
C14 C11 1_555 1_555
H7 C14 1_555 1_555
H8 C14 1_555 1_555
C15 C14 1_555 1_555
C16 C15 1_555 1_555
H9 C16 1_555 1_555
C17 C16 1_555 1_555
C18 C17 1_555 1_555
C19 C18 1_555 1_555
H10 C19 1_555 1_555
C20 C15 1_555 1_555
C21 C18 1_555 1_555
H11 C21 1_555 1_555
H12 C21 1_555 1_555
C22 C21 1_555 1_555
C23 C22 1_555 1_555
H13 C23 1_555 1_555
C24 C23 1_555 1_555
C25 C24 1_555 1_555
C26 C25 1_555 1_555
H14 C26 1_555 1_555
C27 C22 1_555 1_555
C28 C25 1_555 1_555
H15 C28 1_555 1_555
H16 C28 1_555 1_555
C29 C28 1_555 1_555
C30 C29 1_555 1_555
H17 C30 1_555 1_555
C31 C30 1_555 1_555
C32 C31 1_555 1_555
C33 C32 1_555 1_555
H18 C33 1_555 1_555
C34 C29 1_555 1_555
C35 C2 1_555 1_555
H19 C35 1_555 1_555
H20 C35 1_555 1_555
C36 H21 1_555 1_555
H22 C36 1_555 1_555
C37 H23 1_555 1_555
H24 C37 1_555 1_555
H25 C37 1_555 1_555
C38 H26 1_555 1_555
H27 C38 1_555 1_555
H28 C38 1_555 1_555
C39 H29 1_555 1_555
H30 C39 1_555 1_555
H31 C39 1_555 1_555
C40 H32 1_555 1_555
H33 C40 1_555 1_555
H34 C40 1_555 1_555
C41 H35 1_555 1_555
H36 C41 1_555 1_555
H37 C41 1_555 1_555
C42 H38 1_555 1_555
H39 C42 1_555 1_555
H40 C42 1_555 1_555
C43 H41 1_555 1_555
H42 C43 1_555 1_555
H43 C43 1_555 1_555
C44 H44 1_555 1_555
H45 C44 1_555 1_555
H46 C44 1_555 1_555
C45 H47 1_555 1_555
H48 C45 1_555 1_555
H49 C45 1_555 1_555
C46 C36 1_555 1_555
H50 C46 1_555 1_555
H51 C46 1_555 1_555
C47 N1 1_555 1_555
C48 H52 1_555 1_555
H53 C48 1_555 1_555
C49 C48 1_555 1_555
H54 C49 1_555 1_555
H55 C49 1_555 1_555
C50 C49 1_555 1_555
H56 C50 1_555 1_555
H57 C50 1_555 1_555
C51 C50 1_555 1_555
H58 C51 1_555 1_555
H59 C51 1_555 1_555
C52 C51 1_555 1_555
H60 C52 1_555 1_555
H61 C52 1_555 1_555
C53 C52 1_555 1_555
H62 C53 1_555 1_555
H63 C53 1_555 1_555
H64 C53 1_555 1_555
N1 C46 1_555 1_555
H65 N1 1_555 1_555
N2 C47 1_555 1_555
H66 N2 1_555 1_555
O1 C1 1_555 1_555
O2 C13 1_555 1_555
O3 C20 1_555 1_555
O4 C27 1_555 1_555
O5 C34 1_555 1_555
O6 C4 1_555 1_555
O7 C10 1_555 1_555
O8 C17 1_555 1_555
O9 C24 1_555 1_555
O10 C31 1_555 1_555
O11 C47 1_555 1_555
C54 H67 1_555 1_555
H68 C54 1_555 1_555
Cl1 C54 1_555 1_555
Cl2 C54 1_555 1_555
O12 H69 1_555 1_555
H69A O12 1_555 1_555
C5 C6 1_555 1_555
C12 C13 1_555 1_555
C19 C20 1_555 1_555
C26 C27 1_555 1_555
C32 C35 1_555 1_555
C33 C34 1_555 1_555
C36 O1 1_555 1_555
C37 O2 1_555 1_555
C38 O3 1_555 1_555
C39 O4 1_555 1_555
C40 O5 1_555 1_555
C41 O6 1_555 1_555
C42 O7 1_555 1_555
C43 O8 1_555 1_555
C44 O9 1_555 1_555
C45 O10 1_555 1_555
C48 N2 1_555 1_555

#END
