
#######################################################################
#
#                 Cambridge Crystallographic Data Centre
#                                CCDC 
#
#######################################################################
#
# If this CIF has been generated from an entry in the Cambridge 
# Structural Database, then it will include bibliographic, chemical, 
# crystal, experimental, refinement or atomic coordinate data resulting 
# from the CCDC's data processing and validation procedures.
#
#######################################################################

data_SIQTIY
_chemical_formula_moiety         'C12 H17 N1 O1'
_chemical_name_systematic        4-t-butyl-N-methylbenzamide
_symmetry_cell_setting           monoclinic
_symmetry_space_group_name_H-M   'P 21/c'
_symmetry_Int_Tables_number      14
_space_group_name_Hall           '-P 2ybc'
loop_
_symmetry_equiv_pos_site_id
_symmetry_equiv_pos_as_xyz
1 x,y,z
2 -x,1/2+y,1/2-z
3 -x,-y,-z
4 x,1/2-y,1/2+z
_cell_length_a                   16.379(8)
_cell_length_b                   9.712(5)
_cell_length_c                   7.779(4)
_cell_angle_alpha                90
_cell_angle_beta                 101.153(7)
_cell_angle_gamma                90
_cell_volume                     1214.06
_exptl_crystal_colour            colorless
_exptl_crystal_description       BLOCK
_cell_formula_units_Z            4
loop_
_atom_site_label
_atom_site_type_symbol
_atom_site_fract_x
_atom_site_fract_y
_atom_site_fract_z
C1 C 0.60973(9) 0.10742(14) 0.42499(18)
C2 C 0.52412(9) 0.14775(14) 0.33008(19)
C3 C 0.65156(10) 0.19728(16) 0.5512(2)
H1 H 0.6259 0.2791 0.5734
C4 C 0.73022(11) 0.16782(17) 0.6442(2)
H2 H 0.7563 0.2301 0.7279
C5 C 0.65011(10) -0.01290(16) 0.3947(2)
H3 H 0.6239 -0.0752 0.3112
C6 C 0.77140(10) 0.04709(17) 0.6158(2)
C7 C 0.39500(10) 0.08498(18) 0.1350(2)
H4 H 0.3619 0.1226 0.2129
H5 H 0.3693 0.0025 0.0821
H6 H 0.3992 0.1511 0.0453
C8 C 0.72931(11) -0.04128(18) 0.4879(2)
H7 H 0.7553 -0.1223 0.4642
C9 C 0.85768(12) 0.0131(2) 0.7263(3)
N1 N 0.47769(8) 0.05295(12) 0.23280(17)
H8 H 0.4971 -0.0289 0.2278
O1 O 0.49822(7) 0.26673(10) 0.34155(16)
C10 C 0.9185(3) 0.1289(7) 0.7191(10)
H9 H 0.9713 0.1062 0.7910
H10 H 0.8976 0.2121 0.7614
H11 H 0.9252 0.1419 0.6003
C11 C 0.8465(2) 0.0024(6) 0.9302(5)
H12 H 0.8060 -0.0671 0.9404
H13 H 0.8281 0.0895 0.9669
H14 H 0.8988 -0.0215 1.0030
C12 C 0.8925(3) -0.1242(6) 0.6865(9)
H15 H 0.9434 -0.1414 0.7680
H16 H 0.9032 -0.1233 0.5694
H17 H 0.8530 -0.1954 0.6966
C13? C 0.9179(4) -0.0087(12) 0.5743(12)
H18? H 0.9738 -0.0296 0.6318
H19? H 0.9178 0.0744 0.5073
H20? H 0.8963 -0.0831 0.4977
C14? C 0.8548(5) -0.1223(11) 0.8042(15)
H21? H 0.9097 -0.1483 0.8629
H22? H 0.8345 -0.1882 0.7140
H23? H 0.8184 -0.1200 0.8871
C15? C 0.8953(7) 0.1283(13) 0.8366(16)
H24? H 0.8626 0.1479 0.9236
H25? H 0.8971 0.2083 0.7648
H26? H 0.9508 0.1041 0.8932
loop_
_geom_bond_atom_site_label_1
_geom_bond_atom_site_label_2
_geom_bond_site_symmetry_1
_geom_bond_site_symmetry_2
C1 C2 1_555 1_555
C2 N1 1_555 1_555
C3 C1 1_555 1_555
H1 C3 1_555 1_555
C4 C3 1_555 1_555
H2 C4 1_555 1_555
C5 C1 1_555 1_555
H3 C5 1_555 1_555
C6 C4 1_555 1_555
C7 H4 1_555 1_555
H5 C7 1_555 1_555
H6 C7 1_555 1_555
C8 C5 1_555 1_555
H7 C8 1_555 1_555
C9 C6 1_555 1_555
N1 C7 1_555 1_555
H8 N1 1_555 1_555
O1 C2 1_555 1_555
C10 C9 1_555 1_555
H9 C10 1_555 1_555
H10 C10 1_555 1_555
H11 C10 1_555 1_555
C11 C9 1_555 1_555
H12 C11 1_555 1_555
H13 C11 1_555 1_555
H14 C11 1_555 1_555
C12 C9 1_555 1_555
H15 C12 1_555 1_555
H16 C12 1_555 1_555
H17 C12 1_555 1_555
C6 C8 1_555 1_555

#END
