
#######################################################################
#
#                 Cambridge Crystallographic Data Centre
#                                CCDC 
#
#######################################################################
#
# If this CIF has been generated from an entry in the Cambridge 
# Structural Database, then it will include bibliographic, chemical, 
# crystal, experimental, refinement or atomic coordinate data resulting 
# from the CCDC's data processing and validation procedures.
#
#######################################################################

data_SIQWUN
_chemical_formula_moiety         'C43 H42 B1 F2 N3 O7'
_chemical_name_systematic        
"diethyl 10-[4-({4-[5-(ethoxycarbonyl)-3,4-dimethyl-1H-pyrrole-2-carbonyl]phenyl}ethynyl)phenyl]-5,5-difluoro-1,2,8,9-tetramethyl-5H-4,5-dipyrrolo[1,2-c:2',1'-f][1,3,2]diazaborinine-3,7-dicarboxylate"
_symmetry_cell_setting           monoclinic
_symmetry_space_group_name_H-M   'P 21/n'
_symmetry_Int_Tables_number      14
_space_group_name_Hall           '-P 2yn'
loop_
_symmetry_equiv_pos_site_id
_symmetry_equiv_pos_as_xyz
1 x,y,z
2 1/2-x,1/2+y,1/2-z
3 -x,-y,-z
4 1/2+x,1/2-y,1/2+z
_cell_length_a                   14.2474(3)
_cell_length_b                   12.0988(3)
_cell_length_c                   22.9831(5)
_cell_angle_alpha                90
_cell_angle_beta                 106.8142(14)
_cell_angle_gamma                90
_cell_volume                     3792.37
_exptl_crystal_colour            orange
_exptl_crystal_description       plate
_cell_formula_units_Z            4
_exptl_crystal_recrystallization_method dichloromethane/hexane
loop_
_atom_site_label
_atom_site_type_symbol
_atom_site_fract_x
_atom_site_fract_y
_atom_site_fract_z
F1 F 0.94575(7) 0.56717(8) 0.69447(4)
F2 F 1.09055(7) 0.58947(8) 0.67189(4)
O1 O 1.08702(9) 0.86743(11) 0.62729(6)
O2 O 1.00077(9) 0.80269(10) 0.68824(5)
O3 O 1.18619(10) 0.28825(13) 0.71104(7)
O4 O 1.10088(9) 0.40851(11) 0.75004(5)
O5 O 0.09984(9) 0.11874(10) 0.08964(5)
O6 O -0.22118(9) 0.42661(10) -0.07324(6)
O7 O -0.16091(9) 0.25624(10) -0.08005(5)
N1 N 0.94256(10) 0.63301(12) 0.59442(6)
N2 N 0.98319(10) 0.43839(12) 0.62457(6)
N3 N -0.02408(10) 0.27290(12) 0.02612(6)
H1 H -0.0248(14) 0.2061(17) 0.0074(9)
C1 C 0.95617(12) 0.74188(14) 0.58793(7)
C2 C 0.89859(13) 0.77966(15) 0.53080(8)
C3 C 0.84560(13) 0.68919(15) 0.50139(8)
C4 C 0.87453(12) 0.59667(14) 0.54119(7)
C5 C 0.85517(12) 0.48346(14) 0.53238(7)
C6 C 0.91005(12) 0.40450(14) 0.57287(7)
C7 C 0.91306(13) 0.28654(15) 0.56915(8)
C8 C 0.99094(13) 0.25135(15) 0.61717(8)
C9 C 1.03119(12) 0.34629(15) 0.65054(7)
C10 C 1.02346(12) 0.81050(14) 0.63624(7)
C11 C 0.89566(15) 0.89645(16) 0.50903(8)
H2 H 0.9564 0.9132 0.4989
H3 H 0.8890 0.9466 0.5411
H4 H 0.8396 0.9060 0.4728
C12 C 0.77382(15) 0.69254(16) 0.43880(8)
H5 H 0.7721 0.7672 0.4220
H6 H 0.7084 0.6726 0.4412
H7 H 0.7942 0.6399 0.4124
C13 C 0.84576(14) 0.21106(15) 0.52386(8)
H8 H 0.8688 0.2044 0.4877
H9 H 0.7792 0.2416 0.5122
H10 H 0.8454 0.1379 0.5421
C14 C 1.02610(14) 0.13539(16) 0.63279(9)
H11 H 0.9720 0.0837 0.6161
H12 H 1.0495 0.1272 0.6771
H13 H 1.0798 0.1194 0.6154
C15 C 1.11550(13) 0.34550(15) 0.70668(8)
C16 C 1.06673(14) 0.85640(16) 0.74110(8)
H14 H 1.0713 0.9365 0.7334
H15 H 1.1332 0.8239 0.7504
C17 C 1.02473(16) 0.83817(18) 0.79292(8)
H16 H 0.9592 0.8711 0.7832
H17 H 1.0672 0.8729 0.8297
H18 H 1.0203 0.7587 0.7998
C18 C 1.18136(14) 0.41781(17) 0.80603(8)
H19 H 1.2407 0.3814 0.8009
H20 H 1.1635 0.3809 0.8398
C19 C 1.20152(16) 0.53731(19) 0.82038(10)
H21 H 1.2249 0.5718 0.7886
H22 H 1.2517 0.5446 0.8596
H23 H 1.1412 0.5740 0.8223
C20 C 0.77647(12) 0.44784(14) 0.47738(7)
C21 C 0.79909(13) 0.40773(17) 0.42640(8)
H24 H 0.8657 0.4016 0.4267
C22 C 0.72547(13) 0.37661(17) 0.37509(8)
H25 H 0.7417 0.3496 0.3404
C23 C 0.62752(12) 0.38489(14) 0.37433(7)
C24 C 0.60487(13) 0.42595(15) 0.42554(8)
H26 H 0.5383 0.4325 0.4253
C25 C 0.67883(12) 0.45705(14) 0.47661(8)
H27 H 0.6629 0.4848 0.5112
C26 C 0.54925(12) 0.35239(15) 0.32199(8)
C27 C 0.48022(13) 0.32666(14) 0.28036(8)
C28 C 0.39191(12) 0.29793(14) 0.23374(7)
C29 C 0.35552(13) 0.18998(14) 0.22941(7)
H28 H 0.3925 0.1336 0.2547
C30 C 0.26622(13) 0.16506(14) 0.18865(7)
H29 H 0.2414 0.0919 0.1866
C31 C 0.21195(12) 0.24635(14) 0.15032(7)
C32 C 0.25087(12) 0.35218(14) 0.15184(7)
H30 H 0.2165 0.4066 0.1240
C33 C 0.33932(12) 0.37847(14) 0.19374(8)
H31 H 0.3644 0.4515 0.1954
C34 C 0.11621(12) 0.21496(14) 0.10644(7)
C35 C 0.04134(12) 0.29966(14) 0.08031(7)
C36 C 0.01652(12) 0.40465(13) 0.09693(7)
C37 C -0.06465(12) 0.44198(14) 0.04929(7)
C38 C -0.08796(12) 0.35822(14) 0.00620(7)
C39 C 0.05904(13) 0.46754(15) 0.15510(8)
H32 H 0.0956 0.4167 0.1868
H33 H 0.0059 0.5018 0.1679
H34 H 0.1033 0.5250 0.1485
C40 C -0.11484(13) 0.55160(14) 0.04532(8)
H35 H -0.1254 0.5824 0.0045
H36 H -0.0738 0.6022 0.0754
H37 H -0.1781 0.5420 0.0535
C41 C -0.16383(12) 0.35288(14) -0.05230(7)
C42 C -0.23259(13) 0.24181(15) -0.13925(8)
H38 H -0.2188 0.2933 -0.1693
H39 H -0.2996 0.2564 -0.1366
C43 C -0.22369(14) 0.12479(15) -0.15762(8)
H40 H -0.1564 0.1108 -0.1585
H41 H -0.2690 0.1119 -0.1981
H42 H -0.2398 0.0749 -0.1283
B1 B 0.99315(14) 0.55888(16) 0.65047(8)
loop_
_geom_bond_atom_site_label_1
_geom_bond_atom_site_label_2
_geom_bond_site_symmetry_1
_geom_bond_site_symmetry_2
F1 B1 1_555 1_555
F2 B1 1_555 1_555
O1 C10 1_555 1_555
O2 C10 1_555 1_555
O3 C15 1_555 1_555
O4 C15 1_555 1_555
O5 C34 1_555 1_555
O6 C41 1_555 1_555
O7 C41 1_555 1_555
N1 C1 1_555 1_555
N2 C6 1_555 1_555
N3 H1 1_555 1_555
C1 C2 1_555 1_555
C2 C3 1_555 1_555
C3 C4 1_555 1_555
C4 N1 1_555 1_555
C5 C4 1_555 1_555
C6 C5 1_555 1_555
C7 C6 1_555 1_555
C8 C7 1_555 1_555
C9 N2 1_555 1_555
C10 C1 1_555 1_555
C11 C2 1_555 1_555
H2 C11 1_555 1_555
H3 C11 1_555 1_555
H4 C11 1_555 1_555
C12 C3 1_555 1_555
H5 C12 1_555 1_555
H6 C12 1_555 1_555
H7 C12 1_555 1_555
C13 C7 1_555 1_555
H8 C13 1_555 1_555
H9 C13 1_555 1_555
H10 C13 1_555 1_555
C14 C8 1_555 1_555
H11 C14 1_555 1_555
H12 C14 1_555 1_555
H13 C14 1_555 1_555
C15 C9 1_555 1_555
C16 O2 1_555 1_555
H14 C16 1_555 1_555
H15 C16 1_555 1_555
C17 C16 1_555 1_555
H16 C17 1_555 1_555
H17 C17 1_555 1_555
H18 C17 1_555 1_555
C18 O4 1_555 1_555
H19 C18 1_555 1_555
H20 C18 1_555 1_555
C19 C18 1_555 1_555
H21 C19 1_555 1_555
H22 C19 1_555 1_555
H23 C19 1_555 1_555
C20 C5 1_555 1_555
C21 C20 1_555 1_555
H24 C21 1_555 1_555
C22 C21 1_555 1_555
H25 C22 1_555 1_555
C23 C22 1_555 1_555
C24 C23 1_555 1_555
H26 C24 1_555 1_555
C25 C20 1_555 1_555
H27 C25 1_555 1_555
C26 C23 1_555 1_555
C27 C26 1_555 1_555
C28 C27 1_555 1_555
C29 C28 1_555 1_555
H28 C29 1_555 1_555
C30 C29 1_555 1_555
H29 C30 1_555 1_555
C31 C30 1_555 1_555
C32 C31 1_555 1_555
H30 C32 1_555 1_555
C33 C28 1_555 1_555
H31 C33 1_555 1_555
C34 C31 1_555 1_555
C35 N3 1_555 1_555
C36 C35 1_555 1_555
C37 C36 1_555 1_555
C38 N3 1_555 1_555
C39 C36 1_555 1_555
H32 C39 1_555 1_555
H33 C39 1_555 1_555
H34 C39 1_555 1_555
C40 C37 1_555 1_555
H35 C40 1_555 1_555
H36 C40 1_555 1_555
H37 C40 1_555 1_555
C41 C38 1_555 1_555
C42 O7 1_555 1_555
H38 C42 1_555 1_555
H39 C42 1_555 1_555
C43 C42 1_555 1_555
H40 C43 1_555 1_555
H41 C43 1_555 1_555
H42 C43 1_555 1_555
B1 N1 1_555 1_555
N2 B1 1_555 1_555
C8 C9 1_555 1_555
C24 C25 1_555 1_555
C32 C33 1_555 1_555
C34 C35 1_555 1_555
C37 C38 1_555 1_555

#END
