
#######################################################################
#
#                 Cambridge Crystallographic Data Centre
#                                CCDC 
#
#######################################################################
#
# If this CIF has been generated from an entry in the Cambridge 
# Structural Database, then it will include bibliographic, chemical, 
# crystal, experimental, refinement or atomic coordinate data resulting 
# from the CCDC's data processing and validation procedures.
#
#######################################################################

data_SIQWIB
_chemical_formula_moiety         'C52 H54 B2 F4 N4 O8'
_chemical_name_systematic        
"diethyl 10-[4-(2-{4-[3,7-bis(ethoxycarbonyl)-5,5-difluoro-1,2,8,9-tetramethyl-5H-4,5-dipyrrolo[1,2-c:2',1'-f][1,3,2]diazaborinin-10-yl]phenyl}ethenyl)phenyl]-5,5-difluoro-1,2,8,9-tetramethyl-5H-6,5-dipyrrolo[1,2-c:2',1'-f][1,3,2]diazaborinine-3,7-dicarboxylate"
_symmetry_cell_setting           monoclinic
_symmetry_space_group_name_H-M   'P 21/c'
_symmetry_Int_Tables_number      14
_space_group_name_Hall           '-P 2ybc'
loop_
_symmetry_equiv_pos_site_id
_symmetry_equiv_pos_as_xyz
1 x,y,z
2 -x,1/2+y,1/2-z
3 -x,-y,-z
4 x,1/2-y,1/2+z
_cell_length_a                   21.6230(7)
_cell_length_b                   11.4575(3)
_cell_length_c                   19.1802(6)
_cell_angle_alpha                90
_cell_angle_beta                 91.350(2)
_cell_angle_gamma                90
_cell_volume                     4750.49
_exptl_crystal_colour            orange
_exptl_crystal_description       plate
_cell_formula_units_Z            4
_exptl_crystal_recrystallization_method dichloromethane/hexane
loop_
_atom_site_label
_atom_site_type_symbol
_atom_site_fract_x
_atom_site_fract_y
_atom_site_fract_z
F1 F 0.64024(6) 0.71963(11) 0.59310(7)
F2 F 0.62297(6) 0.64619(11) 0.70201(7)
F3 F 0.09036(6) 0.32900(10) 0.63758(6)
F4 F 0.03148(6) 0.36180(11) 0.73329(6)
O1 O 0.62614(7) 0.46578(14) 0.60393(8)
O2 O 0.56025(8) 0.37103(16) 0.67272(11)
O3 O 0.67750(7) 0.89104(16) 0.81118(8)
O4 O 0.71384(7) 0.82580(15) 0.71015(9)
O5 O -0.03842(7) 0.27451(13) 0.61984(8)
O6 O -0.12307(8) 0.37629(15) 0.64563(11)
O7 O 0.15317(7) 0.26620(13) 0.76577(8)
O8 O 0.14611(8) 0.35042(16) 0.87128(9)
N1 N 0.53826(8) 0.65365(15) 0.61954(9)
N2 N 0.58009(8) 0.83437(15) 0.67153(9)
N3 N 0.02347(8) 0.49694(15) 0.63690(9)
N4 N 0.11703(8) 0.48950(15) 0.71307(9)
C1 C 0.52633(10) 0.53944(19) 0.61079(12)
C2 C 0.46662(10) 0.52165(19) 0.58222(12)
C3 C 0.44095(10) 0.63152(19) 0.57280(11)
C4 C 0.48574(10) 0.71452(19) 0.59723(11)
C5 C 0.48132(10) 0.83452(18) 0.60998(11)
C6 C 0.52723(10) 0.89367(18) 0.64836(11)
C7 C 0.52997(10) 1.00966(19) 0.67537(11)
C8 C 0.58368(10) 1.01674(19) 0.71624(11)
C9 C 0.61327(10) 0.90778(19) 0.71238(11)
C10 C 0.57172(11) 0.4491(2) 0.63307(13)
C11 C 0.67694(11) 0.3948(2) 0.63091(14)
H1 H 0.6683 0.3110 0.6227
H2 H 0.6830 0.4076 0.6817
C12 C 0.73316(12) 0.4313(3) 0.59298(15)
H3 H 0.7280 0.4119 0.5434
H4 H 0.7694 0.3904 0.6125
H5 H 0.7390 0.5157 0.5981
C13 C 0.43880(11) 0.4049(2) 0.56680(13)
H6 H 0.4157 0.3783 0.6072
H7 H 0.4717 0.3489 0.5570
H8 H 0.4107 0.4110 0.5261
C14 C 0.37646(10) 0.6545(2) 0.54696(13)
H9 H 0.3572 0.5810 0.5320
H10 H 0.3773 0.7086 0.5074
H11 H 0.3525 0.6890 0.5845
C15 C 0.48490(11) 1.10724(19) 0.66527(13)
H12 H 0.4500 1.0962 0.6964
H13 H 0.4697 1.1080 0.6167
H14 H 0.5054 1.1816 0.6761
C16 C 0.60675(11) 1.1212(2) 0.75565(12)
H15 H 0.6164 1.1837 0.7228
H16 H 0.6441 1.1003 0.7827
H17 H 0.5748 1.1481 0.7873
C17 C 0.67390(11) 0.8697(2) 0.74332(12)
C18 C 0.73356(12) 0.8469(3) 0.84753(13)
H18 H 0.7297 0.7620 0.8559
H19 H 0.7702 0.8604 0.8187
C19 C 0.74068(13) 0.9090(3) 0.91436(15)
H20 H 0.7440 0.9930 0.9057
H21 H 0.7782 0.8816 0.9390
H22 H 0.7046 0.8938 0.9430
C20 C 0.42499(10) 0.89865(18) 0.58520(11)
C21 C 0.42097(10) 0.9397(2) 0.51725(12)
H23 H 0.4536 0.9247 0.4862
C22 C 0.36968(10) 1.00249(19) 0.49419(12)
H24 H 0.3682 1.0324 0.4480
C23 C 0.32043(10) 1.02217(18) 0.53775(12)
C24 C 0.32467(10) 0.97950(19) 0.60578(12)
H25 H 0.2915 0.9920 0.6365
C25 C 0.37644(10) 0.91931(18) 0.62913(12)
H26 H 0.3787 0.8918 0.6759
C26 C 0.26663(11) 1.09170(19) 0.51308(12)
H27 H 0.2758 1.1609 0.4880
C27 C 0.20728(11) 1.0692(2) 0.52174(12)
H28 H 0.1792 1.1288 0.5076
C28 C 0.17932(10) 0.96238(19) 0.55080(11)
C29 C 0.19987(10) 0.85159(19) 0.53239(11)
H29 H 0.2332 0.8440 0.5013
C30 C 0.17241(10) 0.75278(19) 0.55868(11)
H30 H 0.1870 0.6780 0.5454
C31 C 0.12400(10) 0.76126(18) 0.60412(11)
C32 C 0.10252(10) 0.87069(19) 0.62230(12)
H31 H 0.0693 0.8779 0.6536
C33 C 0.12958(10) 0.9697(2) 0.59484(13)
H32 H 0.1137 1.0443 0.6065
C34 C -0.03382(10) 0.47664(19) 0.61032(11)
C35 C -0.05346(10) 0.56963(19) 0.56739(11)
C36 C -0.00601(10) 0.65030(19) 0.56781(11)
C37 C 0.04222(10) 0.60509(18) 0.61183(11)
C38 C 0.09905(10) 0.65189(18) 0.63471(11)
C39 C 0.13476(10) 0.59702(18) 0.68681(11)
C40 C 0.18531(10) 0.63942(19) 0.72925(11)
C41 C 0.19518(10) 0.5589(2) 0.78208(12)
C42 C 0.15341(10) 0.46682(19) 0.76963(11)
C43 C -0.07016(10) 0.3714(2) 0.62759(12)
C44 C -0.06811(12) 0.1672(2) 0.64124(14)
H33 H -0.1033 0.1483 0.6093
H34 H -0.0838 0.1751 0.6891
C45 C -0.02041(13) 0.0743(2) 0.63876(16)
H35 H -0.0061 0.0661 0.5909
H36 H -0.0382 0.0002 0.6541
H37 H 0.0146 0.0952 0.6696
C46 C -0.11393(10) 0.5777(2) 0.52838(12)
H38 H -0.1357 0.6485 0.5425
H39 H -0.1392 0.5091 0.5388
H40 H -0.1066 0.5807 0.4782
C47 C -0.01049(11) 0.76398(19) 0.53032(12)
H41 H -0.0367 0.7549 0.4883
H42 H 0.0309 0.7892 0.5171
H43 H -0.0286 0.8227 0.5609
C48 C 0.22002(11) 0.7514(2) 0.72351(13)
H44 H 0.2487 0.7594 0.7635
H45 H 0.1908 0.8168 0.7230
H46 H 0.2433 0.7515 0.6803
C49 C 0.23926(11) 0.5702(2) 0.84298(12)
H47 H 0.2814 0.5806 0.8262
H48 H 0.2375 0.4995 0.8716
H49 H 0.2278 0.6380 0.8710
C50 C 0.14972(10) 0.3553(2) 0.80890(12)
C51 C 0.15580(15) 0.1495(2) 0.79487(17)
H50 H 0.1149 0.1113 0.7900
H51 H 0.1675 0.1529 0.8450
C52 C 0.20264(15) 0.0830(2) 0.75613(16)
H52 H 0.1933 0.0882 0.7060
H53 H 0.2018 0.0010 0.7707
H54 H 0.2438 0.1156 0.7661
B1 B 0.59954(12) 0.7105(2) 0.64672(14)
B2 B 0.06514(11) 0.4115(2) 0.68069(13)
loop_
_geom_bond_atom_site_label_1
_geom_bond_atom_site_label_2
_geom_bond_site_symmetry_1
_geom_bond_site_symmetry_2
F1 B1 1_555 1_555
F2 B1 1_555 1_555
F3 B2 1_555 1_555
F4 B2 1_555 1_555
O1 C10 1_555 1_555
O2 C10 1_555 1_555
O3 C17 1_555 1_555
O4 C17 1_555 1_555
O5 C43 1_555 1_555
O6 C43 1_555 1_555
O7 C50 1_555 1_555
O8 C50 1_555 1_555
N1 C1 1_555 1_555
N2 C6 1_555 1_555
N3 C34 1_555 1_555
N4 C39 1_555 1_555
C1 C2 1_555 1_555
C2 C3 1_555 1_555
C3 C4 1_555 1_555
C4 N1 1_555 1_555
C5 C4 1_555 1_555
C6 C5 1_555 1_555
C7 C6 1_555 1_555
C8 C7 1_555 1_555
C9 N2 1_555 1_555
C10 C1 1_555 1_555
C11 O1 1_555 1_555
H1 C11 1_555 1_555
H2 C11 1_555 1_555
C12 C11 1_555 1_555
H3 C12 1_555 1_555
H4 C12 1_555 1_555
H5 C12 1_555 1_555
C13 C2 1_555 1_555
H6 C13 1_555 1_555
H7 C13 1_555 1_555
H8 C13 1_555 1_555
C14 C3 1_555 1_555
H9 C14 1_555 1_555
H10 C14 1_555 1_555
H11 C14 1_555 1_555
C15 C7 1_555 1_555
H12 C15 1_555 1_555
H13 C15 1_555 1_555
H14 C15 1_555 1_555
C16 C8 1_555 1_555
H15 C16 1_555 1_555
H16 C16 1_555 1_555
H17 C16 1_555 1_555
C17 C9 1_555 1_555
C18 O3 1_555 1_555
H18 C18 1_555 1_555
H19 C18 1_555 1_555
C19 C18 1_555 1_555
H20 C19 1_555 1_555
H21 C19 1_555 1_555
H22 C19 1_555 1_555
C20 C5 1_555 1_555
C21 C20 1_555 1_555
H23 C21 1_555 1_555
C22 C21 1_555 1_555
H24 C22 1_555 1_555
C23 C22 1_555 1_555
C24 C23 1_555 1_555
H25 C24 1_555 1_555
C25 C20 1_555 1_555
H26 C25 1_555 1_555
C26 C23 1_555 1_555
H27 C26 1_555 1_555
C27 C26 1_555 1_555
H28 C27 1_555 1_555
C28 C27 1_555 1_555
C29 C28 1_555 1_555
H29 C29 1_555 1_555
C30 C29 1_555 1_555
H30 C30 1_555 1_555
C31 C30 1_555 1_555
C32 C31 1_555 1_555
H31 C32 1_555 1_555
C33 C28 1_555 1_555
H32 C33 1_555 1_555
C34 C35 1_555 1_555
C35 C36 1_555 1_555
C36 C37 1_555 1_555
C37 N3 1_555 1_555
C38 C31 1_555 1_555
C39 C38 1_555 1_555
C40 C39 1_555 1_555
C41 C40 1_555 1_555
C42 N4 1_555 1_555
C43 C34 1_555 1_555
C44 O5 1_555 1_555
H33 C44 1_555 1_555
H34 C44 1_555 1_555
C45 C44 1_555 1_555
H35 C45 1_555 1_555
H36 C45 1_555 1_555
H37 C45 1_555 1_555
C46 C35 1_555 1_555
H38 C46 1_555 1_555
H39 C46 1_555 1_555
H40 C46 1_555 1_555
C47 C36 1_555 1_555
H41 C47 1_555 1_555
H42 C47 1_555 1_555
H43 C47 1_555 1_555
C48 C40 1_555 1_555
H44 C48 1_555 1_555
H45 C48 1_555 1_555
H46 C48 1_555 1_555
C49 C41 1_555 1_555
H47 C49 1_555 1_555
H48 C49 1_555 1_555
H49 C49 1_555 1_555
C50 C42 1_555 1_555
C51 O7 1_555 1_555
H50 C51 1_555 1_555
H51 C51 1_555 1_555
C52 C51 1_555 1_555
H52 C52 1_555 1_555
H53 C52 1_555 1_555
H54 C52 1_555 1_555
B1 N1 1_555 1_555
B2 N3 1_555 1_555
N2 B1 1_555 1_555
N4 B2 1_555 1_555
C8 C9 1_555 1_555
C24 C25 1_555 1_555
C32 C33 1_555 1_555
C37 C38 1_555 1_555
C41 C42 1_555 1_555

#END
