
#######################################################################
#
#                 Cambridge Crystallographic Data Centre
#                                CCDC 
#
#######################################################################
#
# If this CIF has been generated from an entry in the Cambridge 
# Structural Database, then it will include bibliographic, chemical, 
# crystal, experimental, refinement or atomic coordinate data resulting 
# from the CCDC's data processing and validation procedures.
#
#######################################################################

data_SIQXOG
_chemical_formula_moiety         'C20 H18 Cl1 N1 O2'
_chemical_name_systematic        
(Z)-N-((E)-3-((E)-3-(4-Chlorophenyl)allylidene)dihydrofuran-2(3H)-ylidene)-2-methoxyaniline
_symmetry_cell_setting           monoclinic
_symmetry_space_group_name_H-M   'P 21/c'
_symmetry_Int_Tables_number      14
_space_group_name_Hall           '-P 2ybc'
loop_
_symmetry_equiv_pos_site_id
_symmetry_equiv_pos_as_xyz
1 x,y,z
2 -x,1/2+y,1/2-z
3 -x,-y,-z
4 x,1/2-y,1/2+z
_cell_length_a                   7.3223(19)
_cell_length_b                   16.257(4)
_cell_length_c                   15.537(4)
_cell_angle_alpha                90
_cell_angle_beta                 101.432(4)
_cell_angle_gamma                90
_cell_volume                     1812.81
_exptl_crystal_colour            yellow
_chemical_melting_point          '129-131 deg.C'
_cell_formula_units_Z            4
loop_
_atom_site_label
_atom_site_type_symbol
_atom_site_fract_x
_atom_site_fract_y
_atom_site_fract_z
Cl1 Cl 0.39924(13) 0.50791(4) 0.83707(5)
N1 N 0.8232(2) -0.14974(11) 0.93916(12)
O1 O 0.8895(2) -0.13860(9) 1.09111(9)
O2 O 1.0600(2) -0.19782(10) 0.84211(11)
C1 C 0.6626(3) 0.10859(14) 0.94066(16)
C2 C 0.7060(3) 0.02234(14) 0.94156(16)
C3 C 0.5426(3) 0.23774(13) 0.86119(13)
C4 C 0.8716(3) -0.23377(14) 0.93965(14)
C5 C 0.5846(3) 0.14993(15) 0.86833(16)
C6 C 0.8285(3) -0.10881(13) 1.00891(14)
C7 C 0.7773(3) -0.02216(13) 1.01256(13)
C8 C 1.0270(4) -0.34238(17) 0.87708(17)
C9 C 0.9888(3) -0.25957(14) 0.88456(14)
C10 C 0.6346(3) 0.29488(15) 0.92070(17)
C11 C 0.3646(4) 0.34987(17) 0.78413(17)
C12 C 0.8195(4) 0.00408(16) 1.10635(15)
C13 C 0.7986(5) -0.29351(17) 0.9860(2)
C14 C 0.9002(4) -0.07281(15) 1.15507(16)
C15 C 0.4092(3) 0.26782(16) 0.79210(15)
C16 C 0.4557(3) 0.40341(14) 0.84508(16)
C17 C 0.9488(5) -0.39988(18) 0.9225(2)
C18 C 0.5920(4) 0.37689(16) 0.91343(17)
C19 C 0.8364(5) -0.37585(19) 0.9774(2)
C20 C 1.1693(11) -0.2203(3) 0.7797(5)
H1 H 1.198(5) -0.171(2) 0.753(2)
H2 H 1.116(6) -0.255(3) 0.741(3)
H3 H 0.685(3) -0.0025(12) 0.8852(14)
H4 H 0.729(3) 0.2778(14) 0.9702(16)
H5 H 0.345(3) 0.2308(13) 0.7504(14)
H6 H 0.547(3) 0.1201(13) 0.8151(14)
H7 H 0.280(4) 0.3686(16) 0.7384(17)
H8 H 0.906(3) 0.0485(15) 1.1186(15)
H9 H 0.689(3) 0.1371(13) 0.9954(15)
H10 H 0.657(3) 0.4138(15) 0.9535(16)
H11 H 1.039(4) -0.0658(15) 1.1836(16)
H12 H 0.978(4) -0.4561(18) 0.9146(17)
H13 H 0.724(4) -0.2758(18) 1.0226(19)
H14 H 1.102(3) -0.3581(15) 0.8406(15)
H15 H 0.783(5) -0.415(2) 1.011(2)
H16 H 0.713(4) 0.0219(16) 1.1263(16)
H17 H 0.831(3) -0.0905(15) 1.1978(16)
H18 H 1.288(11) -0.243(4) 0.819(5)
loop_
_geom_bond_atom_site_label_1
_geom_bond_atom_site_label_2
_geom_bond_site_symmetry_1
_geom_bond_site_symmetry_2
Cl1 C16 1_555 1_555
N1 C4 1_555 1_555
O1 C6 1_555 1_555
O2 C9 1_555 1_555
C1 C2 1_555 1_555
C2 C7 1_555 1_555
C3 C5 1_555 1_555
C4 C9 1_555 1_555
C5 C1 1_555 1_555
C6 N1 1_555 1_555
C7 C6 1_555 1_555
C8 C9 1_555 1_555
C10 C3 1_555 1_555
C11 C15 1_555 1_555
C12 C7 1_555 1_555
C13 C4 1_555 1_555
C14 O1 1_555 1_555
C15 C3 1_555 1_555
C16 C11 1_555 1_555
C17 C8 1_555 1_555
C18 C10 1_555 1_555
C19 C13 1_555 1_555
C20 O2 1_555 1_555
H1 C20 1_555 1_555
H2 C20 1_555 1_555
H3 C2 1_555 1_555
H4 C10 1_555 1_555
H5 C15 1_555 1_555
H6 C5 1_555 1_555
H7 C11 1_555 1_555
H8 C12 1_555 1_555
H9 C1 1_555 1_555
H10 C18 1_555 1_555
H11 C14 1_555 1_555
H12 C17 1_555 1_555
H13 C13 1_555 1_555
H14 C8 1_555 1_555
H15 C19 1_555 1_555
H16 C12 1_555 1_555
H17 C14 1_555 1_555
H18 C20 1_555 1_555
C12 C14 1_555 1_555
C16 C18 1_555 1_555
C17 C19 1_555 1_555

#END
