
#######################################################################
#
#                 Cambridge Crystallographic Data Centre
#                                CCDC 
#
#######################################################################
#
# If this CIF has been generated from an entry in the Cambridge 
# Structural Database, then it will include bibliographic, chemical, 
# crystal, experimental, refinement or atomic coordinate data resulting 
# from the CCDC's data processing and validation procedures.
#
#######################################################################

data_SIQXOH
_chemical_formula_moiety         'C33 H32 N2 O2'
_chemical_name_systematic        
'Methyl 2-((dibenzylamino)methyl)-1-((diphenylmethylene)amino)cyclopropanecarboxylate'
_symmetry_cell_setting           monoclinic
_symmetry_space_group_name_H-M   'P 21/n'
_symmetry_Int_Tables_number      14
_space_group_name_Hall           '-P 2yn'
loop_
_symmetry_equiv_pos_site_id
_symmetry_equiv_pos_as_xyz
1 x,y,z
2 1/2-x,1/2+y,1/2-z
3 -x,-y,-z
4 1/2+x,1/2-y,1/2+z
_cell_length_a                   11.8369(5)
_cell_length_b                   19.4845(9)
_cell_length_c                   11.9186(5)
_cell_angle_alpha                90
_cell_angle_beta                 99.1290(10)
_cell_angle_gamma                90
_cell_volume                     2714.04
_exptl_crystal_colour            colorless
_exptl_crystal_description       prism
_cell_formula_units_Z            4
loop_
_atom_site_label
_atom_site_type_symbol
_atom_site_fract_x
_atom_site_fract_y
_atom_site_fract_z
O1 O 0.21691(6) 0.62625(4) 0.25045(7)
N1 N 0.31354(6) 0.50367(4) 0.47741(6)
C1 C 0.21254(7) 0.57878(5) 0.31505(7)
O2 O 0.11514(5) 0.55131(4) 0.33723(6)
N2 N 0.35856(6) 0.38196(4) 0.24222(7)
C2 C 0.01268(9) 0.58899(7) 0.29214(11)
H1 H -0.0542 0.5659 0.3138
H2 H 0.0049 0.5909 0.2091
H3 H 0.0178 0.6357 0.3230
C3 C 0.31479(7) 0.54023(4) 0.37324(7)
C4 C 0.26669(7) 0.52798(4) 0.55895(7)
C5 C 0.26898(7) 0.48367(4) 0.66111(7)
C6 C 0.27807(7) 0.41231(4) 0.65178(8)
H4 H 0.2839 0.3922 0.5803
C7 C 0.27851(8) 0.37087(5) 0.74666(9)
H5 H 0.2853 0.3225 0.7400
C8 C 0.26915(9) 0.39976(5) 0.85101(9)
H6 H 0.2674 0.3711 0.9152
C9 C 0.26239(9) 0.47042(5) 0.86185(8)
H7 H 0.2576 0.4902 0.9338
C10 C 0.26264(8) 0.51250(5) 0.76744(8)
H8 H 0.2585 0.5609 0.7753
C11 C 0.21122(8) 0.59646(4) 0.56245(7)
C12 C 0.26866(9) 0.65592(5) 0.53985(8)
H9 H 0.3436 0.6529 0.5211
C13 C 0.21698(11) 0.71984(5) 0.54460(9)
H10 H 0.2567 0.7603 0.5291
C14 C 0.10790(11) 0.72456(5) 0.57190(9)
H11 H 0.0727 0.7682 0.5753
C15 C 0.05005(10) 0.66556(6) 0.59429(10)
H12 H -0.0251 0.6688 0.6124
C16 C 0.10129(9) 0.60155(5) 0.59039(9)
H13 H 0.0616 0.5613 0.6067
C17 C 0.37905(7) 0.50417(5) 0.28658(7)
H14 H 0.3472 0.5136 0.2052
C18 C 0.42973(7) 0.43379(5) 0.30861(8)
H15 H 0.5076 0.4329 0.2881
H16 H 0.4362 0.4229 0.3905
C19 C 0.42398(8) 0.32053(5) 0.22493(8)
H17 H 0.3707 0.2839 0.1923
H18 H 0.4642 0.3042 0.2994
C20 C 0.51074(7) 0.33302(4) 0.14672(7)
C21 C 0.49392(8) 0.38365(5) 0.06373(8)
H19 H 0.4301 0.4136 0.0599
C22 C 0.56929(9) 0.39097(5) -0.01378(8)
H20 H 0.5558 0.4252 -0.0711
C23 C 0.66371(10) 0.34868(6) -0.00786(10)
H21 H 0.7152 0.3536 -0.0609
C24 C 0.68258(10) 0.29898(7) 0.07631(11)
H22 H 0.7479 0.2701 0.0815
C25 C 0.60653(9) 0.29113(6) 0.15328(9)
H23 H 0.6202 0.2569 0.2106
C26 C 0.25435(8) 0.36527(5) 0.28913(8)
H24 H 0.2315 0.4054 0.3314
H25 H 0.2702 0.3266 0.3431
C27 C 0.15751(8) 0.34609(5) 0.19591(8)
C28 C 0.10505(11) 0.39727(6) 0.12465(11)
H26 H 0.1304 0.4434 0.1360
C29 C 0.01641(12) 0.38222(8) 0.03733(12)
H27 H -0.0189 0.4179 -0.0101
C30 C -0.02064(10) 0.31492(8) 0.01937(11)
H28 H -0.0801 0.3041 -0.0414
C31 C 0.02953(10) 0.26394(7) 0.09032(13)
H29 H 0.0035 0.2180 0.0791
C32 C 0.11848(9) 0.27921(6) 0.17870(11)
H30 H 0.1523 0.2436 0.2272
C33 C 0.43033(7) 0.56520(5) 0.35144(8)
H31 H 0.4327 0.6088 0.3093
H32 H 0.4969 0.5573 0.4117
loop_
_geom_bond_atom_site_label_1
_geom_bond_atom_site_label_2
_geom_bond_site_symmetry_1
_geom_bond_site_symmetry_2
O1 C1 1_555 1_555
N1 C3 1_555 1_555
C1 O2 1_555 1_555
O2 C2 1_555 1_555
N2 C18 1_555 1_555
C2 H1 1_555 1_555
H2 C2 1_555 1_555
H3 C2 1_555 1_555
C3 C1 1_555 1_555
C4 N1 1_555 1_555
C5 C4 1_555 1_555
C6 C5 1_555 1_555
H4 C6 1_555 1_555
C7 C6 1_555 1_555
H5 C7 1_555 1_555
C8 C7 1_555 1_555
H6 C8 1_555 1_555
C9 C8 1_555 1_555
H7 C9 1_555 1_555
C10 C5 1_555 1_555
H8 C10 1_555 1_555
C11 C4 1_555 1_555
C12 C11 1_555 1_555
H9 C12 1_555 1_555
C13 C12 1_555 1_555
H10 C13 1_555 1_555
C14 C13 1_555 1_555
H11 C14 1_555 1_555
C15 C14 1_555 1_555
H12 C15 1_555 1_555
C16 C11 1_555 1_555
H13 C16 1_555 1_555
C17 C3 1_555 1_555
H14 C17 1_555 1_555
C18 C17 1_555 1_555
H15 C18 1_555 1_555
H16 C18 1_555 1_555
C19 N2 1_555 1_555
H17 C19 1_555 1_555
H18 C19 1_555 1_555
C20 C19 1_555 1_555
C21 C20 1_555 1_555
H19 C21 1_555 1_555
C22 C21 1_555 1_555
H20 C22 1_555 1_555
C23 C22 1_555 1_555
H21 C23 1_555 1_555
C24 C23 1_555 1_555
H22 C24 1_555 1_555
C25 C20 1_555 1_555
H23 C25 1_555 1_555
C26 N2 1_555 1_555
H24 C26 1_555 1_555
H25 C26 1_555 1_555
C27 C26 1_555 1_555
C28 C27 1_555 1_555
H26 C28 1_555 1_555
C29 C28 1_555 1_555
H27 C29 1_555 1_555
C30 C29 1_555 1_555
H28 C30 1_555 1_555
C31 C30 1_555 1_555
H29 C31 1_555 1_555
C32 C27 1_555 1_555
H30 C32 1_555 1_555
C33 C3 1_555 1_555
H31 C33 1_555 1_555
H32 C33 1_555 1_555
C9 C10 1_555 1_555
C15 C16 1_555 1_555
C17 C33 1_555 1_555
C24 C25 1_555 1_555
C31 C32 1_555 1_555

#END
