
#######################################################################
#
#                 Cambridge Crystallographic Data Centre
#                                CCDC 
#
#######################################################################
#
# If this CIF has been generated from an entry in the Cambridge 
# Structural Database, then it will include bibliographic, chemical, 
# crystal, experimental, refinement or atomic coordinate data resulting 
# from the CCDC's data processing and validation procedures.
#
#######################################################################

data_SIQYUP
_chemical_formula_moiety         'C18 H16 N2 O4 S2'
_chemical_name_systematic        
N-(4-cyano-2-methylbuta-2,3-dien-1-yl)-N-(phenylsulfonyl)benzenesulfonamide
_symmetry_cell_setting           monoclinic
_symmetry_space_group_name_H-M   'P 21/c'
_symmetry_Int_Tables_number      14
_space_group_name_Hall           '-P 2ybc'
loop_
_symmetry_equiv_pos_site_id
_symmetry_equiv_pos_as_xyz
1 x,y,z
2 -x,1/2+y,1/2-z
3 -x,-y,-z
4 x,1/2-y,1/2+z
_cell_length_a                   8.1317(2)
_cell_length_b                   16.5366(4)
_cell_length_c                   13.5858(3)
_cell_angle_alpha                90
_cell_angle_beta                 99.8970(10)
_cell_angle_gamma                90
_cell_volume                     1799.7
_exptl_crystal_colour            colorless
_exptl_crystal_description       prism
_cell_formula_units_Z            4
loop_
_atom_site_label
_atom_site_type_symbol
_atom_site_fract_x
_atom_site_fract_y
_atom_site_fract_z
S1 S 0.63789(7) 0.53524(3) 0.31509(4)
S2 S 0.65462(7) 0.70643(3) 0.37057(5)
O1 O 0.5179(2) 0.49511(10) 0.24175(14)
O2 O 0.8011(2) 0.68915(11) 0.44155(14)
O3 O 0.6445(2) 0.77986(10) 0.31381(15)
O4 O 0.6229(2) 0.53254(10) 0.41821(13)
N1 N 0.6295(3) 0.63318(12) 0.28295(15)
N2 N 0.8086(3) 0.41200(15) -0.04028(19)
C1 C 0.7661(3) 0.47792(16) -0.0389(2)
C2 C 0.7119(3) 0.56089(15) -0.03983(19)
H1 H 0.664989 0.585421 -0.101512
C3 C 0.7261(3) 0.60310(15) 0.04264(19)
C4 C 0.7385(3) 0.64710(14) 0.12279(18)
C5 C 0.8945(3) 0.69324(16) 0.1641(2)
H2 H 0.977272 0.685824 0.120250
H3 H 0.939930 0.673113 0.231087
H4 H 0.867966 0.750847 0.167806
C6 C 0.5889(3) 0.65391(15) 0.17551(18)
H5 H 0.545423 0.709921 0.168560
H6 H 0.499631 0.617385 0.142581
C7 C 0.8376(3) 0.50047(13) 0.30090(18)
C8 C 0.8511(3) 0.44825(15) 0.22240(19)
H7 H 0.755323 0.433452 0.175465
C9 C 1.0074(3) 0.41827(15) 0.2141(2)
H8 H 1.019282 0.382080 0.161520
C10 C 1.1460(3) 0.44102(16) 0.2825(2)
H9 H 1.252588 0.420088 0.276443
C11 C 1.1317(3) 0.49394(16) 0.3598(2)
H10 H 1.228078 0.509524 0.405775
C12 C 0.9754(3) 0.52420(15) 0.36994(19)
H11 H 0.963504 0.560180 0.422778
C13 C 0.4800(3) 0.70065(14) 0.43060(19)
C14 C 0.3257(3) 0.72688(16) 0.3802(2)
H12 H 0.314273 0.747753 0.314274
C15 C 0.1891(3) 0.72193(16) 0.4283(2)
H13 H 0.082398 0.739028 0.394988
C16 C 0.2076(3) 0.69196(15) 0.5254(2)
H14 H 0.113408 0.688701 0.557981
C17 C 0.3625(3) 0.66687(15) 0.5748(2)
H15 H 0.374462 0.647108 0.641268
C18 C 0.5001(3) 0.67055(14) 0.52721(19)
H16 H 0.606402 0.652754 0.560268
loop_
_geom_bond_atom_site_label_1
_geom_bond_atom_site_label_2
_geom_bond_site_symmetry_1
_geom_bond_site_symmetry_2
S1 O1 1_555 1_555
S2 O2 1_555 1_555
O3 S2 1_555 1_555
O4 S1 1_555 1_555
N1 S1 1_555 1_555
N2 C1 1_555 1_555
C1 C2 1_555 1_555
C2 H1 1_555 1_555
C3 C2 1_555 1_555
C4 C3 1_555 1_555
C5 C4 1_555 1_555
H2 C5 1_555 1_555
H3 C5 1_555 1_555
H4 C5 1_555 1_555
C6 N1 1_555 1_555
H5 C6 1_555 1_555
H6 C6 1_555 1_555
C7 S1 1_555 1_555
C8 C7 1_555 1_555
H7 C8 1_555 1_555
C9 C8 1_555 1_555
H8 C9 1_555 1_555
C10 C9 1_555 1_555
H9 C10 1_555 1_555
C11 C10 1_555 1_555
H10 C11 1_555 1_555
C12 C7 1_555 1_555
H11 C12 1_555 1_555
C13 S2 1_555 1_555
C14 C13 1_555 1_555
H12 C14 1_555 1_555
C15 C14 1_555 1_555
H13 C15 1_555 1_555
C16 C15 1_555 1_555
H14 C16 1_555 1_555
C17 C16 1_555 1_555
H15 C17 1_555 1_555
C18 C13 1_555 1_555
H16 C18 1_555 1_555
S2 N1 1_555 1_555
C4 C6 1_555 1_555
C11 C12 1_555 1_555
C17 C18 1_555 1_555

#END
