
#######################################################################
#
#                 Cambridge Crystallographic Data Centre
#                                CCDC 
#
#######################################################################
#
# If this CIF has been generated from an entry in the Cambridge 
# Structural Database, then it will include bibliographic, chemical, 
# crystal, experimental, refinement or atomic coordinate data resulting 
# from the CCDC's data processing and validation procedures.
#
#######################################################################

data_SIQYEZ
_chemical_formula_moiety         'C27 H24 N2 O4 S2'
_chemical_name_systematic        
N-(5-cyano-5-cyclopropyl-3-phenylpenta-3,4-dien-2-yl)-N-(phenylsulfonyl)benzenesulfonamide
_symmetry_cell_setting           monoclinic
_symmetry_space_group_name_H-M   'P 21/c'
_symmetry_Int_Tables_number      14
_space_group_name_Hall           '-P 2ybc'
loop_
_symmetry_equiv_pos_site_id
_symmetry_equiv_pos_as_xyz
1 x,y,z
2 -x,1/2+y,1/2-z
3 -x,-y,-z
4 x,1/2-y,1/2+z
_cell_length_a                   9.5006(6)
_cell_length_b                   24.2369(12)
_cell_length_c                   10.9473(8)
_cell_angle_alpha                90
_cell_angle_beta                 104.554(2)
_cell_angle_gamma                90
_cell_volume                     2439.89
_cell_formula_units_Z            4
loop_
_atom_site_label
_atom_site_type_symbol
_atom_site_fract_x
_atom_site_fract_y
_atom_site_fract_z
S1 S 0.39881(6) 0.73273(2) 0.70137(6)
S2 S 0.23747(6) 0.63052(2) 0.67793(6)
O1 O 0.2000(2) 0.58760(7) 0.58549(18)
O2 O 0.4041(2) 0.71886(7) 0.82936(18)
O3 O 0.31447(19) 0.77906(7) 0.64397(19)
O4 O 0.12331(19) 0.65901(8) 0.71445(19)
N1 N 0.3401(2) 0.67478(8) 0.6174(2)
N2 N 0.0084(3) 0.61939(11) 0.0269(3)
C1 C 0.8579(3) 0.75251(13) 0.6669(3)
H1 H 0.954615 0.756381 0.658769
C2 C 0.7515(3) 0.78817(12) 0.6032(3)
H2 H 0.775796 0.816918 0.553192
C3 C 0.6087(3) 0.78226(11) 0.6119(3)
H3 H 0.534750 0.806593 0.567907
C4 C 0.5767(3) 0.74017(10) 0.6858(3)
C5 C 0.2982(3) 0.68390(10) 0.4762(3)
H4 H 0.359472 0.715350 0.460442
C6 C 0.3393(3) 0.63489(10) 0.4054(2)
C7 C 0.2370(3) 0.60802(11) 0.3249(3)
C8 C 0.1311(3) 0.58030(11) 0.2490(3)
C9 C 0.0712(3) 0.52768(11) 0.2862(3)
H5 H 0.101724 0.518527 0.378175
C10 C 0.0508(4) 0.47885(12) 0.1977(3)
H6 H 0.074902 0.483823 0.115522
H7 H 0.071759 0.441679 0.235367
C11 C 0.5506(3) 0.56531(13) 1.0271(3)
H8 H 0.616688 0.552023 1.101391
C12 C 0.5847(3) 0.56063(13) 0.9125(3)
H9 H 0.674233 0.544252 0.908352
C13 C 0.4893(3) 0.57968(11) 0.8030(3)
H10 H 0.511063 0.575925 0.723299
C14 C 0.3607(3) 0.60443(10) 0.8135(3)
C15 C 0.8253(3) 0.71097(12) 0.7429(3)
H11 H 0.899680 0.687019 0.787690
C16 C 0.6840(3) 0.70469(11) 0.7530(3)
H12 H 0.660423 0.676588 0.805056
C17 C 0.1408(3) 0.70256(11) 0.4258(3)
H13 H 0.075235 0.672117 0.432534
H14 H 0.124590 0.713513 0.337223
H15 H 0.121469 0.734019 0.475475
C18 C 0.4941(3) 0.61952(10) 0.4198(2)
C19 C 0.6037(3) 0.65855(11) 0.4347(3)
H16 H 0.580942 0.696585 0.438436
C20 C 0.7467(3) 0.64261(12) 0.4444(3)
H17 H 0.820672 0.669782 0.453229
C21 C 0.7816(3) 0.58736(12) 0.4411(3)
H18 H 0.879597 0.576523 0.449249
C22 C 0.6733(3) 0.54782(12) 0.4259(3)
H19 H 0.697141 0.509853 0.423059
C23 C 0.5307(3) 0.56338(11) 0.4150(3)
H20 H 0.456933 0.536048 0.404120
C24 C -0.0783(3) 0.50861(13) 0.2182(3)
H21 H -0.137469 0.489802 0.268323
H22 H -0.134327 0.531928 0.148528
C25 C 0.0665(3) 0.60221(11) 0.1250(3)
C26 C 0.3247(3) 0.60920(11) 0.9278(3)
H23 H 0.235713 0.625863 0.932619
C27 C 0.4213(3) 0.58911(12) 1.0352(3)
H24 H 0.398451 0.591737 1.114625
loop_
_geom_bond_atom_site_label_1
_geom_bond_atom_site_label_2
_geom_bond_site_symmetry_1
_geom_bond_site_symmetry_2
S1 O2 1_555 1_555
S2 O1 1_555 1_555
O3 S1 1_555 1_555
O4 S2 1_555 1_555
N1 S1 1_555 1_555
N2 C25 1_555 1_555
C1 H1 1_555 1_555
C2 C1 1_555 1_555
H2 C2 1_555 1_555
C3 C2 1_555 1_555
H3 C3 1_555 1_555
C4 S1 1_555 1_555
C5 N1 1_555 1_555
H4 C5 1_555 1_555
C6 C5 1_555 1_555
C7 C6 1_555 1_555
C8 C7 1_555 1_555
C9 C8 1_555 1_555
H5 C9 1_555 1_555
C10 C9 1_555 1_555
H6 C10 1_555 1_555
H7 C10 1_555 1_555
C11 H8 1_555 1_555
C12 C11 1_555 1_555
H9 C12 1_555 1_555
C13 C12 1_555 1_555
H10 C13 1_555 1_555
C14 S2 1_555 1_555
C15 C1 1_555 1_555
H11 C15 1_555 1_555
C16 C4 1_555 1_555
H12 C16 1_555 1_555
C17 C5 1_555 1_555
H13 C17 1_555 1_555
H14 C17 1_555 1_555
H15 C17 1_555 1_555
C18 C6 1_555 1_555
C19 C18 1_555 1_555
H16 C19 1_555 1_555
C20 C19 1_555 1_555
H17 C20 1_555 1_555
C21 C20 1_555 1_555
H18 C21 1_555 1_555
C22 C21 1_555 1_555
H19 C22 1_555 1_555
C23 C18 1_555 1_555
H20 C23 1_555 1_555
C24 C9 1_555 1_555
H21 C24 1_555 1_555
H22 C24 1_555 1_555
C25 C8 1_555 1_555
C26 C14 1_555 1_555
H23 C26 1_555 1_555
C27 C11 1_555 1_555
H24 C27 1_555 1_555
S2 N1 1_555 1_555
C3 C4 1_555 1_555
C10 C24 1_555 1_555
C13 C14 1_555 1_555
C15 C16 1_555 1_555
C22 C23 1_555 1_555
C26 C27 1_555 1_555

#END
