
#######################################################################
#
#                 Cambridge Crystallographic Data Centre
#                                CCDC 
#
#######################################################################
#
# If this CIF has been generated from an entry in the Cambridge 
# Structural Database, then it will include bibliographic, chemical, 
# crystal, experimental, refinement or atomic coordinate data resulting 
# from the CCDC's data processing and validation procedures.
#
#######################################################################

data_SIQYOH
_chemical_formula_moiety         'C28 H24 O2'
_chemical_name_systematic        1,1-Diphenyl-2,2-bis(4-methoxyphenyl)ethylene
_symmetry_cell_setting           monoclinic
_symmetry_space_group_name_H-M   'P 21'
_symmetry_Int_Tables_number      4
_space_group_name_Hall           'P 2yb'
loop_
_symmetry_equiv_pos_site_id
_symmetry_equiv_pos_as_xyz
1 x,y,z
2 -x,1/2+y,-z
_cell_length_a                   9.7502(9)
_cell_length_b                   10.4517(10)
_cell_length_c                   10.5257(10)
_cell_angle_alpha                90
_cell_angle_beta                 92.547(1)
_cell_angle_gamma                90
_cell_volume                     1071.57
_exptl_crystal_colour            colorless
_exptl_crystal_description       prism
_chemical_melting_point          '156-158 deg.C'
_cell_formula_units_Z            2
loop_
_atom_site_label
_atom_site_type_symbol
_atom_site_fract_x
_atom_site_fract_y
_atom_site_fract_z
O1 O 0.23131(9) 0.63187(9) 0.20007(9)
O2 O 0.67705(10) 0.74197(11) 0.99639(9)
C1 C 0.70787(10) 0.52131(10) 0.50760(11)
C2 C 0.81754(10) 0.45765(11) 0.46358(11)
C3 C 0.58107(10) 0.54412(11) 0.42610(10)
C4 C 0.52502(11) 0.66760(11) 0.41987(11)
C5 C 0.40849(11) 0.69424(11) 0.34489(11)
C6 C 0.34394(11) 0.59658(11) 0.27415(11)
C7 C 0.39542(11) 0.47275(11) 0.28140(11)
C8 C 0.51359(10) 0.44786(11) 0.35730(11)
C9 C 0.16217(13) 0.53390(14) 0.12810(13)
C10 C 0.70305(11) 0.57574(11) 0.63789(11)
C11 C 0.81314(11) 0.64020(11) 0.69864(11)
C12 C 0.80283(11) 0.69179(12) 0.81878(12)
C13 C 0.67951(12) 0.68292(12) 0.88075(11)
C14 C 0.56836(12) 0.61933(13) 0.82305(11)
C15 C 0.58150(11) 0.56663(12) 0.70265(11)
C16 C 0.5494(2) 0.7403(3) 1.05648(19)
C17 C 0.81913(10) 0.41097(11) 0.32978(11)
C18 C 0.83488(12) 0.28028(12) 0.30702(13)
C19 C 0.83254(13) 0.23289(14) 0.18324(14)
C20 C 0.81734(13) 0.31537(15) 0.08112(13)
C21 C 0.80373(13) 0.44590(14) 0.10266(13)
C22 C 0.80422(12) 0.49327(12) 0.22592(12)
C23 C 0.94490(11) 0.42949(10) 0.54199(11)
C24 C 0.94332(12) 0.36645(13) 0.65891(14)
C25 C 1.06480(15) 0.34343(15) 0.72923(15)
C26 C 1.18890(14) 0.38250(17) 0.68393(15)
C27 C 1.19260(12) 0.44348(16) 0.56722(14)
C28 C 1.07142(11) 0.46584(14) 0.49615(12)
H1 H 0.5708(17) 0.7345(18) 0.4639(15)
H2 H 0.3728(17) 0.7777(17) 0.3326(14)
H3 H 0.351(2) 0.409(2) 0.2319(18)
H4 H 0.5470(16) 0.3609(17) 0.3601(15)
H5 H 0.125(2) 0.470(2) 0.1873(18)
H6 H 0.219(2) 0.497(2) 0.066(2)
H7 H 0.0890(19) 0.576(2) 0.0807(18)
H8 H 0.8947(18) 0.6520(18) 0.6579(15)
H9 H 0.878(2) 0.7324(19) 0.8590(17)
H10 H 0.485(2) 0.6174(19) 0.8597(17)
H11 H 0.5137(19) 0.5217(18) 0.6654(16)
H12 H 0.507(4) 0.665(5) 1.065(3)
H13 H 0.571(3) 0.763(4) 1.135(3)
H14 H 0.478(3) 0.791(3) 0.995(3)
H15 H 0.8453(18) 0.2272(19) 0.3786(17)
H16 H 0.848(2) 0.144(2) 0.1712(18)
H17 H 0.8118(19) 0.2863(19) -0.0025(17)
H18 H 0.790(2) 0.503(2) 0.030(2)
H19 H 0.787(2) 0.584(2) 0.2413(19)
H20 H 0.858(2) 0.3417(19) 0.6897(17)
H21 H 1.0601(19) 0.3065(19) 0.8090(18)
H22 H 1.279(2) 0.364(3) 0.732(2)
H23 H 1.282(2) 0.470(2) 0.542(2)
H24 H 1.074(2) 0.5048(18) 0.4156(18)
loop_
_geom_bond_atom_site_label_1
_geom_bond_atom_site_label_2
_geom_bond_site_symmetry_1
_geom_bond_site_symmetry_2
O1 C6 1_555 1_555
O2 C13 1_555 1_555
C1 C2 1_555 1_555
C2 C17 1_555 1_555
C3 C1 1_555 1_555
C4 C3 1_555 1_555
C5 C4 1_555 1_555
C6 C5 1_555 1_555
C7 C6 1_555 1_555
C8 C3 1_555 1_555
C9 O1 1_555 1_555
C10 C1 1_555 1_555
C11 C10 1_555 1_555
C12 C11 1_555 1_555
C13 C12 1_555 1_555
C14 C13 1_555 1_555
C15 C10 1_555 1_555
C16 O2 1_555 1_555
C17 C18 1_555 1_555
C18 C19 1_555 1_555
C19 C20 1_555 1_555
C20 C21 1_555 1_555
C21 C22 1_555 1_555
C22 C17 1_555 1_555
C23 C2 1_555 1_555
C24 C23 1_555 1_555
C25 C24 1_555 1_555
C26 C25 1_555 1_555
C27 C26 1_555 1_555
C28 C23 1_555 1_555
H1 C4 1_555 1_555
H2 C5 1_555 1_555
H3 C7 1_555 1_555
H4 C8 1_555 1_555
H5 C9 1_555 1_555
H6 C9 1_555 1_555
H7 C9 1_555 1_555
H8 C11 1_555 1_555
H9 C12 1_555 1_555
H10 C14 1_555 1_555
H11 C15 1_555 1_555
H12 C16 1_555 1_555
H13 C16 1_555 1_555
H14 C16 1_555 1_555
H15 C18 1_555 1_555
H16 C19 1_555 1_555
H17 C20 1_555 1_555
H18 C21 1_555 1_555
H19 C22 1_555 1_555
H20 C24 1_555 1_555
H21 C25 1_555 1_555
H22 C26 1_555 1_555
H23 C27 1_555 1_555
H24 C28 1_555 1_555
C7 C8 1_555 1_555
C14 C15 1_555 1_555
C27 C28 1_555 1_555

#END
