
#######################################################################
#
#                 Cambridge Crystallographic Data Centre
#                                CCDC 
#
#######################################################################
#
# If this CIF has been generated from an entry in the Cambridge 
# Structural Database, then it will include bibliographic, chemical, 
# crystal, experimental, refinement or atomic coordinate data resulting 
# from the CCDC's data processing and validation procedures.
#
#######################################################################

data_SIQZUQ
_chemical_formula_moiety         'C47 H58 N4 O3 Si2,C4 H10 O1'
_chemical_name_systematic        
"(\m-9,9-dimethyl-9H-xanthene-4,5-diyl)-(\m-oxido)-(\m-oxoethenylidene)-bis(N,N'-di-t-butylbenzenecarboximidamido)-di-silicon diethyl ether solvate"
_symmetry_cell_setting           orthorhombic
_symmetry_space_group_name_H-M   'P 21 21 21'
_symmetry_Int_Tables_number      19
_space_group_name_Hall           'P 2ac 2ab'
loop_
_symmetry_equiv_pos_site_id
_symmetry_equiv_pos_as_xyz
1 x,y,z
2 1/2-x,-y,1/2+z
3 1/2+x,1/2-y,-z
4 -x,1/2+y,1/2-z
_cell_length_a                   15.6523(2)
_cell_length_b                   17.3543(3)
_cell_length_c                   18.3413(2)
_cell_angle_alpha                90
_cell_angle_beta                 90
_cell_angle_gamma                90
_cell_volume                     4982.13
_exptl_crystal_colour            colorless
_exptl_crystal_description       rod
_cell_formula_units_Z            4
loop_
_atom_site_label
_atom_site_type_symbol
_atom_site_fract_x
_atom_site_fract_y
_atom_site_fract_z
Si1 Si 0.75687(6) 0.90183(5) 0.22553(5)
O1 O 0.85797(14) 0.93708(13) 0.23770(11)
N1 N 0.63325(18) 0.86471(17) 0.23333(16)
C1 C 0.7286(2) 1.00654(19) 0.22891(17)
Si2 Si 0.84409(6) 1.03400(5) 0.22488(5)
O2 O 0.59573(19) 1.0770(2) 0.25428(14)
N2 N 0.74086(18) 0.83376(17) 0.30046(14)
O3 O 0.80219(15) 0.96755(13) 0.08790(12)
N3 N 0.82108(18) 1.14917(17) 0.22889(16)
C2 C 0.6559(2) 0.82306(19) 0.28951(17)
N4 N 0.90092(18) 1.07991(18) 0.29946(15)
C3 C 0.8708(2) 1.1529(2) 0.28597(18)
C4 C 0.5999(2) 0.7747(2) 0.33689(19)
C5 C 0.5653(3) 0.8047(2) 0.4002(2)
H1 H 0.5747 0.8573 0.4119
C6 C 0.5174(3) 0.7596(3) 0.4466(3)
H2 H 0.4942 0.7812 0.4899
C7 C 0.5032(3) 0.6830(3) 0.4299(3)
H3 H 0.4710 0.6514 0.4621
C8 C 0.5361(3) 0.6525(3) 0.3664(3)
H4 H 0.5252 0.6002 0.3544
C9 C 0.5845(3) 0.6974(2) 0.3203(2)
H5 H 0.6075 0.6758 0.2769
C10 C 0.5504(3) 0.8682(3) 0.1954(2)
C11 C 0.5637(3) 0.9204(3) 0.1290(2)
H6 H 0.5750 0.9732 0.1453
H7 H 0.5121 0.9198 0.0986
H8 H 0.6124 0.9017 0.1004
C12 C 0.4806(3) 0.9031(3) 0.2451(3)
H9 H 0.4720 0.8697 0.2875
H10 H 0.4270 0.9073 0.2177
H11 H 0.4985 0.9544 0.2614
C13 C 0.5227(4) 0.7893(3) 0.1681(3)
H12 H 0.5684 0.7667 0.1385
H13 H 0.4710 0.7947 0.1383
H14 H 0.5107 0.7557 0.2098
C14 C 0.7972(2) 0.8019(2) 0.35774(19)
C15 C 0.8024(4) 0.8667(4) 0.4160(3)
H15 H 0.8236 0.9141 0.3932
H16 H 0.8415 0.8510 0.4550
H17 H 0.7455 0.8759 0.4364
C16 C 0.8837(3) 0.7886(3) 0.3262(3)
H18 H 0.8821 0.7437 0.2939
H19 H 0.9247 0.7794 0.3656
H20 H 0.9013 0.8341 0.2983
C17 C 0.7659(4) 0.7306(4) 0.3963(4)
H21 H 0.7090 0.7403 0.4167
H22 H 0.8055 0.7172 0.4357
H23 H 0.7627 0.6878 0.3615
C18 C 0.8879(2) 1.2225(2) 0.3308(2)
C19 C 0.8374(3) 1.2372(2) 0.3909(2)
H24 H 0.7957 1.2006 0.4057
C20 C 0.8473(4) 1.3052(3) 0.4296(3)
H25 H 0.8124 1.3157 0.4708
C21 C 0.9087(4) 1.3576(3) 0.4077(3)
H26 H 0.9147 1.4048 0.4334
C22 C 0.9606(3) 1.3426(3) 0.3501(3)
H27 H 1.0039 1.3784 0.3367
C23 C 0.9502(3) 1.2753(2) 0.3112(2)
H28 H 0.9860 1.2650 0.2706
C24 C 0.7788(3) 1.2110(2) 0.1871(2)
C25 C 0.8469(4) 1.2649(3) 0.1530(3)
H29 H 0.8740 1.2954 0.1915
H30 H 0.8194 1.2996 0.1179
H31 H 0.8902 1.2339 0.1280
C26 C 0.7167(4) 1.2578(4) 0.2337(3)
H32 H 0.6764 1.2229 0.2577
H33 H 0.6852 1.2938 0.2026
H34 H 0.7487 1.2866 0.2706
C27 C 0.7308(3) 1.1729(3) 0.1255(2)
H35 H 0.7703 1.1414 0.0968
H36 H 0.7053 1.2124 0.0942
H37 H 0.6856 1.1400 0.1456
C28 C 0.9699(3) 1.0572(3) 0.3511(2)
C29 C 0.9421(6) 1.0603(5) 0.4273(3)
H38 H 0.9315 1.1140 0.4412
H39 H 0.9868 1.0386 0.4586
H40 H 0.8895 1.0303 0.4331
C30 C 1.0028(3) 0.9786(3) 0.3328(3)
H41 H 0.9583 0.9402 0.3426
H42 H 1.0531 0.9673 0.3628
H43 H 1.0185 0.9767 0.2811
C31 C 1.0509(4) 1.1059(4) 0.3362(5)
H44 H 1.0583 1.1123 0.2835
H45 H 1.1009 1.0796 0.3565
H46 H 1.0447 1.1565 0.3592
C32 C 0.7759(2) 0.8452(2) 0.13819(18)
C33 C 0.7787(3) 0.7662(2) 0.1288(2)
H47 H 0.7554 0.7335 0.1653
C34 C 0.8153(3) 0.7340(2) 0.0669(2)
H48 H 0.8145 0.6796 0.0609
C35 C 0.8530(3) 0.7796(2) 0.0135(2)
H49 H 0.8806 0.7561 -0.0269
C36 C 0.8505(3) 0.8599(2) 0.01909(17)
C37 C 0.8077(2) 0.8877(2) 0.07991(17)
C38 C 0.8920(3) 0.9194(2) -0.03157(18)
C39 C 0.8213(3) 0.9552(3) -0.08009(19)
H50 H 0.7953 0.9148 -0.1101
H51 H 0.8464 0.9946 -0.1117
H52 H 0.7775 0.9787 -0.0491
C40 C 0.9598(3) 0.8828(3) -0.0804(2)
H53 H 1.0029 0.8573 -0.0501
H54 H 0.9872 0.9229 -0.1099
H55 H 0.9329 0.8448 -0.1125
C41 C 0.9286(3) 0.9826(2) 0.01754(18)
C42 C 0.8820(2) 1.0009(2) 0.07946(18)
C43 C 0.9084(2) 1.0459(2) 0.13716(18)
C44 C 0.9865(3) 1.0833(2) 0.1270(2)
H56 H 1.0076 1.1168 0.1638
C45 C 1.0338(3) 1.0718(2) 0.0635(2)
H57 H 1.0858 1.0990 0.0566
C46 C 1.0056(3) 1.0208(2) 0.0100(2)
H58 H 1.0397 1.0122 -0.0321
C47 C 0.6596(2) 1.0432(2) 0.24214(17)
O4 O 0.7501(3) 0.5193(2) 0.0625(3)
C48 C 0.7245(4) 0.4876(4) 0.1282(4)
H59 H 0.7728 0.4590 0.1502
H60 H 0.6774 0.4506 0.1195
C49 C 0.6957(6) 0.5474(5) 0.1788(5)
H61 H 0.7448 0.5780 0.1949
H62 H 0.6685 0.5233 0.2212
H63 H 0.6544 0.5810 0.1542
C50 C 0.7788(5) 0.4664(4) 0.0114(5)
H64 H 0.7337 0.4276 0.0023
H65 H 0.8297 0.4393 0.0307
C51 C 0.8012(6) 0.5052(6) -0.0578(5)
H66 H 0.7494 0.5266 -0.0800
H67 H 0.8272 0.4679 -0.0912
H68 H 0.8418 0.5469 -0.0480
loop_
_geom_bond_atom_site_label_1
_geom_bond_atom_site_label_2
_geom_bond_site_symmetry_1
_geom_bond_site_symmetry_2
Si1 O1 1_555 1_555
O1 Si2 1_555 1_555
N1 Si1 1_555 1_555
C1 Si1 1_555 1_555
Si2 C1 1_555 1_555
O2 C47 1_555 1_555
N2 Si1 1_555 1_555
O3 C37 1_555 1_555
N3 Si2 1_555 1_555
C2 N1 1_555 1_555
N4 Si2 1_555 1_555
C3 N3 1_555 1_555
C4 C2 1_555 1_555
C5 C4 1_555 1_555
H1 C5 1_555 1_555
C6 C5 1_555 1_555
H2 C6 1_555 1_555
C7 C6 1_555 1_555
H3 C7 1_555 1_555
C8 C7 1_555 1_555
H4 C8 1_555 1_555
C9 C4 1_555 1_555
H5 C9 1_555 1_555
C10 N1 1_555 1_555
C11 C10 1_555 1_555
H6 C11 1_555 1_555
H7 C11 1_555 1_555
H8 C11 1_555 1_555
C12 C10 1_555 1_555
H9 C12 1_555 1_555
H10 C12 1_555 1_555
H11 C12 1_555 1_555
C13 C10 1_555 1_555
H12 C13 1_555 1_555
H13 C13 1_555 1_555
H14 C13 1_555 1_555
C14 N2 1_555 1_555
C15 C14 1_555 1_555
H15 C15 1_555 1_555
H16 C15 1_555 1_555
H17 C15 1_555 1_555
C16 C14 1_555 1_555
H18 C16 1_555 1_555
H19 C16 1_555 1_555
H20 C16 1_555 1_555
C17 C14 1_555 1_555
H21 C17 1_555 1_555
H22 C17 1_555 1_555
H23 C17 1_555 1_555
C18 C3 1_555 1_555
C19 C18 1_555 1_555
H24 C19 1_555 1_555
C20 C19 1_555 1_555
H25 C20 1_555 1_555
C21 C20 1_555 1_555
H26 C21 1_555 1_555
C22 C21 1_555 1_555
H27 C22 1_555 1_555
C23 C18 1_555 1_555
H28 C23 1_555 1_555
C24 N3 1_555 1_555
C25 C24 1_555 1_555
H29 C25 1_555 1_555
H30 C25 1_555 1_555
H31 C25 1_555 1_555
C26 C24 1_555 1_555
H32 C26 1_555 1_555
H33 C26 1_555 1_555
H34 C26 1_555 1_555
C27 C24 1_555 1_555
H35 C27 1_555 1_555
H36 C27 1_555 1_555
H37 C27 1_555 1_555
C28 N4 1_555 1_555
C29 C28 1_555 1_555
H38 C29 1_555 1_555
H39 C29 1_555 1_555
H40 C29 1_555 1_555
C30 C28 1_555 1_555
H41 C30 1_555 1_555
H42 C30 1_555 1_555
H43 C30 1_555 1_555
C31 C28 1_555 1_555
H44 C31 1_555 1_555
H45 C31 1_555 1_555
H46 C31 1_555 1_555
C32 Si1 1_555 1_555
C33 C32 1_555 1_555
H47 C33 1_555 1_555
C34 C33 1_555 1_555
H48 C34 1_555 1_555
C35 C34 1_555 1_555
H49 C35 1_555 1_555
C36 C35 1_555 1_555
C37 C32 1_555 1_555
C38 C36 1_555 1_555
C39 C38 1_555 1_555
H50 C39 1_555 1_555
H51 C39 1_555 1_555
H52 C39 1_555 1_555
C40 C38 1_555 1_555
H53 C40 1_555 1_555
H54 C40 1_555 1_555
H55 C40 1_555 1_555
C41 C38 1_555 1_555
C42 O3 1_555 1_555
C43 Si2 1_555 1_555
C44 C43 1_555 1_555
H56 C44 1_555 1_555
C45 C44 1_555 1_555
H57 C45 1_555 1_555
C46 C41 1_555 1_555
H58 C46 1_555 1_555
C47 C1 1_555 1_555
O4 C48 1_555 1_555
C48 H59 1_555 1_555
H60 C48 1_555 1_555
C49 C48 1_555 1_555
H61 C49 1_555 1_555
H62 C49 1_555 1_555
H63 C49 1_555 1_555
C50 O4 1_555 1_555
H64 C50 1_555 1_555
H65 C50 1_555 1_555
C51 C50 1_555 1_555
H66 C51 1_555 1_555
H67 C51 1_555 1_555
H68 C51 1_555 1_555
N2 C2 1_555 1_555
N4 C3 1_555 1_555
C8 C9 1_555 1_555
C22 C23 1_555 1_555
C36 C37 1_555 1_555
C41 C42 1_555 1_555
C42 C43 1_555 1_555
C45 C46 1_555 1_555

#END
