
#######################################################################
#
#                 Cambridge Crystallographic Data Centre
#                                CCDC 
#
#######################################################################
#
# If this CIF has been generated from an entry in the Cambridge 
# Structural Database, then it will include bibliographic, chemical, 
# crystal, experimental, refinement or atomic coordinate data resulting 
# from the CCDC's data processing and validation procedures.
#
#######################################################################

data_SIQZIE
_chemical_formula_moiety         'C29 H27 Br1 Cl2 N2 O4 S2,0.5(C2 H3 N1)'
_chemical_name_systematic        
'N-[1-bromo-10-chloro-5-(4-chlorophenyl)-7-cyanodeca-5,6-dien-4-yl]-N-(phenylsulfonyl)benzenesulfonamide acetonitrile solvate'
_symmetry_cell_setting           triclinic
_symmetry_space_group_name_H-M   'P -1'
_symmetry_Int_Tables_number      2
_space_group_name_Hall           '-P 1'
loop_
_symmetry_equiv_pos_site_id
_symmetry_equiv_pos_as_xyz
1 x,y,z
2 -x,-y,-z
_cell_length_a                   7.159(2)
_cell_length_b                   12.789(4)
_cell_length_c                   17.774(6)
_cell_angle_alpha                95.896(7)
_cell_angle_beta                 98.227(7)
_cell_angle_gamma                94.371(6)
_cell_volume                     1595.21
_exptl_crystal_colour            colorless
_exptl_crystal_description       Prism
_cell_formula_units_Z            2
loop_
_atom_site_label
_atom_site_type_symbol
_atom_site_fract_x
_atom_site_fract_y
_atom_site_fract_z
Br1 Br -0.05110(11) 0.13837(5) 0.25317(6)
Cl1 Cl 0.5240(4) 0.8943(3) 0.64098(19)
Cl2 Cl -0.0113(2) 0.92720(12) 0.07389(8)
S1 S 0.53361(14) 0.52065(8) 0.23682(6)
S2 S 0.27340(15) 0.41724(9) 0.10242(6)
O1 O 0.5514(4) 0.4984(3) 0.31452(17)
O2 O 0.6574(4) 0.4781(2) 0.18783(18)
O3 O 0.3422(5) 0.4915(3) 0.05645(17)
O4 O 0.0757(4) 0.3805(3) 0.09032(17)
N1 N 0.3141(4) 0.4729(3) 0.19523(18)
N2 N -0.1582(7) 0.6099(4) 0.4823(3)
C1 C 0.5512(6) 0.6587(3) 0.2358(3)
C2 C 0.5975(7) 0.7218(4) 0.3054(3)
H1 H 0.610704 0.692052 0.351269
C3 C 0.6238(9) 0.8318(5) 0.3048(5)
H2 H 0.654996 0.876427 0.350313
C4 C 0.6021(9) 0.8728(5) 0.2341(5)
H3 H 0.619187 0.945543 0.233464
C5 C 0.5577(8) 0.8107(5) 0.1679(4)
H4 H 0.543472 0.840552 0.122136
C6 C 0.5323(7) 0.7012(4) 0.1669(3)
H5 H 0.503309 0.657670 0.120831
C7 C 0.4011(6) 0.3050(3) 0.0951(2)
C8 C 0.5605(8) 0.3083(4) 0.0580(3)
H6 H 0.605017 0.370025 0.040289
C9 C 0.6498(9) 0.2170(5) 0.0486(3)
H7 H 0.755492 0.217320 0.023634
C10 C 0.5875(9) 0.1272(5) 0.0746(4)
H8 H 0.650685 0.066814 0.067991
C11 C 0.4295(9) 0.1254(5) 0.1112(4)
H9 H 0.386410 0.063289 0.128764
C12 C 0.3370(8) 0.2127(4) 0.1217(3)
H10 H 0.231183 0.210891 0.146607
C13 C -0.1533(8) 0.2762(4) 0.2577(3)
H11 H -0.158712 0.302140 0.208084
H12 H -0.281267 0.268714 0.269667
C14 C -0.0327(7) 0.3541(4) 0.3171(3)
H13 H -0.014865 0.323068 0.364892
H14 H -0.101023 0.415960 0.325269
C15 C 0.1621(6) 0.3898(3) 0.2981(2)
H15 H 0.218053 0.328942 0.276667
H16 H 0.244072 0.419657 0.344778
C16 C 0.1504(5) 0.4720(3) 0.2410(2)
H17 H 0.034846 0.450711 0.204179
C17 C 0.1315(5) 0.5830(3) 0.2761(2)
C18 C 0.0934(5) 0.6680(3) 0.2257(2)
C19 C 0.0213(6) 0.6447(3) 0.1482(2)
H18 H -0.006893 0.574553 0.127374
C20 C -0.0091(6) 0.7243(4) 0.1016(3)
H19 H -0.054802 0.707855 0.049733
C21 C 0.0294(7) 0.8278(4) 0.1333(3)
C22 C 0.0969(7) 0.8538(4) 0.2093(3)
H20 H 0.121777 0.924204 0.229794
C23 C 0.1277(6) 0.7741(3) 0.2554(3)
H21 H 0.172292 0.791657 0.307286
C24 C 0.1464(6) 0.6032(3) 0.3500(2)
C25 C 0.1552(7) 0.6194(4) 0.4257(2)
C26 C -0.0208(7) 0.6127(4) 0.4561(2)
C27 C 0.3339(8) 0.6443(5) 0.4825(3)
H22 H 0.337672 0.593231 0.519294
H23 H 0.442096 0.637145 0.455814
C28 C 0.3507(9) 0.7530(6) 0.5245(4)
H24 H 0.234821 0.764085 0.545414
H25 H 0.366558 0.804600 0.489094
C29 C 0.5193(11) 0.7693(8) 0.5898(5)
H26 H 0.636517 0.763400 0.568895
H27 H 0.508103 0.715287 0.623785
N3 N -0.0612(15) 1.0546(8) 0.5816(5)
C30 C -0.1124(12) 0.8674(6) 0.4940(5)
H28 H -0.244994 0.847847 0.477022
H29 H -0.058161 0.812409 0.520386
H30 H -0.049889 0.877424 0.450625
C31 C -0.087(3) 0.9693(10) 0.5478(10)
loop_
_geom_bond_atom_site_label_1
_geom_bond_atom_site_label_2
_geom_bond_site_symmetry_1
_geom_bond_site_symmetry_2
Br1 C13 1_555 1_555
Cl1 C29 1_555 1_555
Cl2 C21 1_555 1_555
S1 O1 1_555 1_555
S2 O3 1_555 1_555
O2 S1 1_555 1_555
O4 S2 1_555 1_555
N1 S1 1_555 1_555
N2 C26 1_555 1_555
C1 S1 1_555 1_555
C2 C1 1_555 1_555
H1 C2 1_555 1_555
C3 C2 1_555 1_555
H2 C3 1_555 1_555
C4 C3 1_555 1_555
H3 C4 1_555 1_555
C5 C4 1_555 1_555
H4 C5 1_555 1_555
C6 C1 1_555 1_555
H5 C6 1_555 1_555
C7 S2 1_555 1_555
C8 C7 1_555 1_555
H6 C8 1_555 1_555
C9 C8 1_555 1_555
H7 C9 1_555 1_555
C10 C9 1_555 1_555
H8 C10 1_555 1_555
C11 C10 1_555 1_555
H9 C11 1_555 1_555
C12 C7 1_555 1_555
H10 C12 1_555 1_555
C13 H11 1_555 1_555
H12 C13 1_555 1_555
C14 C13 1_555 1_555
H13 C14 1_555 1_555
H14 C14 1_555 1_555
C15 C14 1_555 1_555
H15 C15 1_555 1_555
H16 C15 1_555 1_555
C16 N1 1_555 1_555
H17 C16 1_555 1_555
C17 C16 1_555 1_555
C18 C17 1_555 1_555
C19 C18 1_555 1_555
H18 C19 1_555 1_555
C20 C19 1_555 1_555
H19 C20 1_555 1_555
C21 C20 1_555 1_555
C22 C21 1_555 1_555
H20 C22 1_555 1_555
C23 C18 1_555 1_555
H21 C23 1_555 1_555
C24 C17 1_555 1_555
C25 C24 1_555 1_555
C26 C25 1_555 1_555
C27 C25 1_555 1_555
H22 C27 1_555 1_555
H23 C27 1_555 1_555
C28 C27 1_555 1_555
H24 C28 1_555 1_555
H25 C28 1_555 1_555
C29 C28 1_555 1_555
H26 C29 1_555 1_555
H27 C29 1_555 1_555
N3 C31 1_555 1_555
C30 H28 1_555 1_555
H29 C30 1_555 1_555
H30 C30 1_555 1_555
C31 C30 1_555 1_555
S2 N1 1_555 1_555
C5 C6 1_555 1_555
C11 C12 1_555 1_555
C15 C16 1_555 1_555
C22 C23 1_555 1_555

#END
