
#######################################################################
#
#                 Cambridge Crystallographic Data Centre
#                                CCDC 
#
#######################################################################
#
# If this CIF has been generated from an entry in the Cambridge 
# Structural Database, then it will include bibliographic, chemical, 
# crystal, experimental, refinement or atomic coordinate data resulting 
# from the CCDC's data processing and validation procedures.
#
#######################################################################

data_SIQZOK
_chemical_formula_moiety         'C14 H15 Br1 N2 O2'
_chemical_name_systematic        
'methyl 5-(4-bromophenyl)-4-cyano-4-methylprolinate'
_symmetry_cell_setting           monoclinic
_symmetry_space_group_name_H-M   'P 21'
_symmetry_Int_Tables_number      4
_space_group_name_Hall           'P 2yb'
loop_
_symmetry_equiv_pos_site_id
_symmetry_equiv_pos_as_xyz
1 x,y,z
2 -x,1/2+y,-z
_cell_length_a                   10.3489(3)
_cell_length_b                   6.3912(3)
_cell_length_c                   11.1677(4)
_cell_angle_alpha                90
_cell_angle_beta                 94.707(3)
_cell_angle_gamma                90
_cell_volume                     736.162
_exptl_crystal_colour            colorless
_exptl_crystal_description       Block
_cell_formula_units_Z            2
loop_
_atom_site_label
_atom_site_type_symbol
_atom_site_fract_x
_atom_site_fract_y
_atom_site_fract_z
Br1 Br -0.00394(8) 0.2694(2) 0.84539(9)
O1 O 0.8639(5) 0.5330(9) 0.5519(6)
C1 C 0.6314(6) 0.4191(11) 0.8207(6)
C2 C 0.6221(6) 0.6495(9) 0.8144(5)
C3 C 0.7308(5) 0.7358(11) 0.7418(5)
H1 H 0.7463 0.8828 0.7592
H2 H 0.8108 0.6589 0.7599
C4 C 0.5012(6) 0.7154(10) 0.7322(5)
H3 H 0.4895 0.8669 0.7396
N1 N 0.6433(6) 0.2448(12) 0.8286(7)
C5 C 0.2333(6) 0.3110(14) 0.7378(6)
H4 H 0.2145 0.1784 0.7069
C6 C 0.3765(6) 0.6090(11) 0.7566(6)
N2 N 0.5405(5) 0.6703(11) 0.6127(5)
H5 H 0.495(7) 0.747(15) 0.567(6)
C7 C 0.6792(6) 0.7044(12) 0.6100(6)
H6 H 0.6943 0.8315 0.5641
C8 C 0.7399(7) 0.5183(16) 0.5515(7)
O2 O 0.6810(14) 0.430(8) 0.479(4)
C9 C 0.1504(7) 0.4078(15) 0.8087(6)
C10 C 0.2889(7) 0.7042(12) 0.8272(6)
H7 H 0.3060 0.8378 0.8574
C11 C 0.1755(8) 0.6017(15) 0.8533(7)
H8 H 0.1176 0.6662 0.9010
C12 C 0.6252(8) 0.7338(14) 0.9428(6)
H9 H 0.5521 0.6805 0.9808
H10 H 0.6216 0.8839 0.9408
H11 H 0.7039 0.6900 0.9872
C13 C 0.3461(6) 0.4133(13) 0.7125(6)
H12 H 0.4028 0.3472 0.6642
C14 C 0.9314(10) 0.3616(17) 0.4993(11)
H13 H 0.9088 0.3579 0.4142
H14 H 0.9069 0.2321 0.5345
H15 H 1.0233 0.3815 0.5143
O3? O 0.6914(17) 0.312(5) 0.547(4)
loop_
_geom_bond_atom_site_label_1
_geom_bond_atom_site_label_2
_geom_bond_site_symmetry_1
_geom_bond_site_symmetry_2
Br1 C9 1_555 1_555
O1 C8 1_555 1_555
C1 C2 1_555 1_555
C2 C3 1_555 1_555
C3 H1 1_555 1_555
H2 C3 1_555 1_555
C4 C2 1_555 1_555
H3 C4 1_555 1_555
N1 C1 1_555 1_555
C5 H4 1_555 1_555
C6 C4 1_555 1_555
N2 C4 1_555 1_555
H5 N2 1_555 1_555
C7 C3 1_555 1_555
H6 C7 1_555 1_555
C8 C7 1_555 1_555
O2 C8 1_555 1_555
C9 C5 1_555 1_555
C10 C6 1_555 1_555
H7 C10 1_555 1_555
C11 C9 1_555 1_555
H8 C11 1_555 1_555
C12 C2 1_555 1_555
H9 C12 1_555 1_555
H10 C12 1_555 1_555
H11 C12 1_555 1_555
C13 C5 1_555 1_555
H12 C13 1_555 1_555
C14 O1 1_555 1_555
H13 C14 1_555 1_555
H14 C14 1_555 1_555
H15 C14 1_555 1_555
C6 C13 1_555 1_555
N2 C7 1_555 1_555
C10 C11 1_555 1_555

#END
