
#######################################################################
#
#                 Cambridge Crystallographic Data Centre
#                                CCDC 
#
#######################################################################
#
# If this CIF has been generated from an entry in the Cambridge 
# Structural Database, then it will include bibliographic, chemical, 
# crystal, experimental, refinement or atomic coordinate data resulting 
# from the CCDC's data processing and validation procedures.
#
#######################################################################

data_SIQZAU
_chemical_formula_moiety         'C65 H62,0.1(C1 H2 Cl2)'
_chemical_name_systematic        
'2,7-bis(Triphenylethenyl)-9,9-dihexylfluorene dichloromethane solvate'
_symmetry_cell_setting           monoclinic
_symmetry_space_group_name_H-M   'C 2/c'
_symmetry_Int_Tables_number      15
_space_group_name_Hall           '-C 2yn'
loop_
_symmetry_equiv_pos_site_id
_symmetry_equiv_pos_as_xyz
1 x,y,z
2 1/2+x,1/2+y,z
3 -x,y,1/2-z
4 1/2-x,1/2+y,1/2-z
5 -x,-y,-z
6 1/2-x,1/2-y,-z
7 x,-y,1/2+z
8 1/2+x,1/2-y,1/2+z
_cell_length_a                   44.5922(14)
_cell_length_b                   9.3105(3)
_cell_length_c                   30.3100(9)
_cell_angle_alpha                90
_cell_angle_beta                 123.942(1)
_cell_angle_gamma                90
_cell_volume                     10439.7
_exptl_crystal_colour            colorless
_exptl_crystal_description       needle
_chemical_melting_point          '174-176 deg.C'
_cell_formula_units_Z            8
loop_
_atom_site_label
_atom_site_type_symbol
_atom_site_fract_x
_atom_site_fract_y
_atom_site_fract_z
C1 C 0.04999(6) 0.0626(2) 0.14252(9)
H1 H 0.0279 0.0033 0.1221
H2 H 0.0695 0.0107 0.1429
C2 C 0.06029(6) 0.0741(2) 0.19937(9)
H3 H 0.0402 0.1195 0.1993
H4 H 0.0818 0.1366 0.2199
C3 C 0.06851(8) -0.0721(3) 0.22639(12)
H5 H 0.0465 -0.1316 0.2049
H6 H 0.0875 -0.1172 0.2236
C4 C 0.0800(2) -0.0849(9) 0.2815(3)
H7 H 0.0796 -0.1873 0.2900
H8 H 0.0629 -0.0322 0.2867
C5 C 0.11692(12) -0.0268(5) 0.31824(19)
H9 H 0.1243 -0.0445 0.3552
H10 H 0.1162 0.0785 0.3132
C6 C 0.14540(14) -0.0900(6) 0.3112(2)
H11 H 0.1688 -0.0448 0.3365
H12 H 0.1386 -0.0722 0.2748
H13 H 0.1472 -0.1937 0.3178
C7 C 0.03096(6) 0.1727(2) 0.05504(8)
H14 H 0.0486 0.1054 0.0562
H15 H 0.0073 0.1230 0.0369
C8 C 0.02737(7) 0.3019(3) 0.02232(9)
H16 H 0.0512 0.3494 0.0397
H17 H 0.0105 0.3709 0.0223
C9 C 0.01393(7) 0.2681(3) -0.03517(10)
H18 H -0.0107 0.2287 -0.0516
H19 H 0.0109 0.3623 -0.0523
C10 C 0.03051(14) 0.1805(5) -0.0523(2)
H20 H 0.0150 0.1771 -0.0916
H21 H 0.0315 0.0820 -0.0392
C11 C 0.06879(12) 0.2226(5) -0.03537(18)
H22 H 0.0694 0.3270 -0.0409
H23 H 0.0858 0.2031 0.0031
C12 C 0.08138(16) 0.1433(6) -0.0654(2)
H24 H 0.1059 0.1746 -0.0530
H25 H 0.0650 0.1639 -0.1035
H26 H 0.0814 0.0398 -0.0595
C13 C 0.04313(6) 0.2063(2) 0.11257(8)
C14 C 0.01621(6) 0.3004(2) 0.11533(8)
C15 C -0.01988(6) 0.2746(2) 0.09493(8)
H27 H -0.0311 0.1894 0.0752
C16 C -0.03987(6) 0.3735(2) 0.10333(8)
C17 C -0.02219(6) 0.4955(2) 0.13423(8)
H28 H -0.0352 0.5611 0.1415
C18 C 0.01375(6) 0.5231(2) 0.15438(8)
H29 H 0.0251 0.6074 0.1747
C19 C 0.03291(6) 0.4262(2) 0.14461(8)
C20 C 0.07689(5) 0.3003(2) 0.14187(8)
C21 C 0.11054(6) 0.2736(2) 0.15165(8)
H30 H 0.1145 0.1888 0.1381
C22 C 0.13894(6) 0.3710(2) 0.18144(8)
C23 C 0.13203(6) 0.4975(2) 0.19908(8)
H31 H 0.1509 0.5655 0.2184
C24 C 0.09825(6) 0.5258(2) 0.18894(8)
H32 H 0.0940 0.6125 0.2012
C25 C 0.07053(5) 0.4259(2) 0.16060(8)
C26 C -0.07865(6) 0.3501(2) 0.08290(8)
C27 C -0.08952(6) 0.4040(2) 0.11856(8)
C28 C -0.07205(7) 0.3582(3) 0.17105(9)
H33 H -0.0529 0.2906 0.1848
C29 C -0.08252(7) 0.4107(3) 0.20359(10)
H34 H -0.0709 0.3771 0.2391
C30 C -0.10967(7) 0.5110(3) 0.18429(11)
H35 H -0.1168 0.5466 0.2065
C31 C -0.12656(7) 0.5598(3) 0.13296(10)
H36 H -0.1450 0.6305 0.1200
C32 C -0.11676(6) 0.5061(3) 0.10020(10)
H37 H -0.1288 0.5395 0.0646
C33 C 0.17532(6) 0.3401(2) 0.19224(8)
C34 C 0.17462(6) 0.2873(2) 0.14527(9)
C35 C 0.18980(6) 0.1557(2) 0.14612(9)
H38 H 0.2014 0.0991 0.1776
C36 C 0.18816(6) 0.1061(3) 0.10165(9)
H39 H 0.1985 0.0158 0.1027
C37 C 0.17166(7) 0.1875(3) 0.05594(10)
H40 H 0.1709 0.1543 0.0257
C38 C 0.15615(8) 0.3178(3) 0.05428(10)
H41 H 0.1448 0.3741 0.0228
C39 C 0.15702(6) 0.3664(3) 0.09800(9)
H42 H 0.1456 0.4546 0.0960
C40 C -0.10358(6) 0.2906(2) 0.03508(8)
C41 C -0.09777(5) 0.2642(2) -0.00809(8)
C42 C -0.10999(6) 0.1374(2) -0.03750(8)
H43 H -0.1209 0.0656 -0.0286
C43 C -0.10642(6) 0.1151(2) -0.07951(9)
H44 H -0.1146 0.0277 -0.0990
C44 C -0.09100(6) 0.2189(2) -0.09328(9)
H45 H -0.0886 0.2033 -0.1221
C45 C -0.07908(6) 0.3456(2) -0.06484(8)
H46 H -0.0686 0.4177 -0.0743
C46 C -0.08239(6) 0.3681(2) -0.02271(8)
H47 H -0.0741 0.4557 -0.0034
C47 C 0.20606(6) 0.3560(2) 0.24099(9)
C48 C 0.20494(6) 0.3824(2) 0.28859(9)
C49 C 0.18783(6) 0.2855(3) 0.30277(9)
H48 H 0.1766 0.2021 0.2818
C50 C 0.18702(7) 0.3100(3) 0.34725(11)
H49 H 0.1752 0.2436 0.3564
C51 C 0.20330(7) 0.4299(4) 0.37821(11)
H50 H 0.2027 0.4463 0.4086
C52 C 0.22047(7) 0.5259(3) 0.36497(10)
H51 H 0.2316 0.6090 0.3862
C53 C 0.22171(6) 0.5023(3) 0.32077(9)
H52 H 0.2341 0.5683 0.3124
C54 C -0.14024(6) 0.2475(2) 0.02165(9)
C55 C -0.14394(7) 0.1639(3) 0.05620(10)
H53 H -0.1230 0.1346 0.0891
C56 C -0.17792(8) 0.1222(3) 0.04334(12)
H54 H -0.1801 0.0656 0.0675
C57 C -0.20851(7) 0.1634(4) -0.00481(13)
H55 H -0.2317 0.1360 -0.0135
C58 C -0.20537(7) 0.2441(3) -0.04004(12)
H56 H -0.2264 0.2715 -0.0732
C59 C -0.17131(6) 0.2856(3) -0.02713(10)
H57 H -0.1693 0.3404 -0.0518
C60 C 0.24297(6) 0.3476(2) 0.25181(9)
C61 C 0.27106(6) 0.2817(2) 0.29822(9)
H58 H 0.2663 0.2403 0.3223
C62 C 0.30588(6) 0.2759(2) 0.30970(10)
H59 H 0.3245 0.2294 0.3412
C63 C 0.31343(6) 0.3375(3) 0.27548(10)
H60 H 0.3372 0.3341 0.2834
C64 C 0.28610(6) 0.4040(2) 0.22978(10)
H61 H 0.2912 0.4468 0.2062
C65 C 0.25122(6) 0.4089(2) 0.21794(9)
H62 H 0.2327 0.4548 0.1862
Cl1 Cl 0.2387(3) -0.0691(14) 0.4214(5)
Cl2 Cl 0.2782(5) -0.2305(14) 0.5144(5)
C66 C 0.2749(8) -0.105(3) 0.4807(12)
H63 H 0.2952 -0.1130 0.4761
H64 H 0.2798 -0.0176 0.5025
C67? C 0.06851(8) -0.0721(3) 0.22639(12)
H65? H 0.0898 -0.1153 0.2292
H66? H 0.0476 -0.1373 0.2051
C68? C 0.0765(3) -0.0519(10) 0.2848(3)
H67? H 0.0915 -0.1330 0.3077
H68? H 0.0904 0.0379 0.3007
C69? C 0.04229(18) -0.0457(7) 0.2824(3)
H69? H 0.0267 0.0312 0.2575
H70? H 0.0480 -0.0208 0.3181
C70? C 0.02155(18) -0.1879(7) 0.2645(3)
H71? H -0.0004 -0.1792 0.2644
H72? H 0.0368 -0.2645 0.2890
H73? H 0.0149 -0.2110 0.2285
C71? C 0.01393(7) 0.2681(3) -0.03517(10)
H74? H 0.0045 0.3559 -0.0573
H75? H -0.0056 0.1953 -0.0502
C72? C 0.04900(17) 0.2059(6) -0.0336(2)
H76? H 0.0667 0.2848 -0.0227
H77? H 0.0606 0.1304 -0.0060
C73? C 0.04101(13) 0.1451(6) -0.08442(19)
H78? H 0.0247 0.2119 -0.1136
H79? H 0.0279 0.0534 -0.0912
C74? C 0.07348(17) 0.1178(7) -0.0863(3)
H80? H 0.0657 0.0781 -0.1211
H81? H 0.0896 0.0493 -0.0584
H82? H 0.0864 0.2083 -0.0807
loop_
_geom_bond_atom_site_label_1
_geom_bond_atom_site_label_2
_geom_bond_site_symmetry_1
_geom_bond_site_symmetry_2
C1 H1 1_555 1_555
H2 C1 1_555 1_555
C2 C1 1_555 1_555
H3 C2 1_555 1_555
H4 C2 1_555 1_555
C3 C2 1_555 1_555
H5 C3 1_555 1_555
H6 C3 1_555 1_555
C4 C3 1_555 1_555
H7 C4 1_555 1_555
H8 C4 1_555 1_555
C5 C4 1_555 1_555
H9 C5 1_555 1_555
H10 C5 1_555 1_555
C6 C5 1_555 1_555
H11 C6 1_555 1_555
H12 C6 1_555 1_555
H13 C6 1_555 1_555
C7 H14 1_555 1_555
H15 C7 1_555 1_555
C8 C7 1_555 1_555
H16 C8 1_555 1_555
H17 C8 1_555 1_555
C9 C8 1_555 1_555
H18 C9 1_555 1_555
H19 C9 1_555 1_555
C10 C9 1_555 1_555
H20 C10 1_555 1_555
H21 C10 1_555 1_555
C11 C10 1_555 1_555
H22 C11 1_555 1_555
H23 C11 1_555 1_555
C12 C11 1_555 1_555
H24 C12 1_555 1_555
H25 C12 1_555 1_555
H26 C12 1_555 1_555
C13 C1 1_555 1_555
C14 C13 1_555 1_555
C15 C14 1_555 1_555
H27 C15 1_555 1_555
C16 C15 1_555 1_555
C17 C16 1_555 1_555
H28 C17 1_555 1_555
C18 C17 1_555 1_555
H29 C18 1_555 1_555
C19 C14 1_555 1_555
C20 C13 1_555 1_555
C21 C20 1_555 1_555
H30 C21 1_555 1_555
C22 C21 1_555 1_555
C23 C22 1_555 1_555
H31 C23 1_555 1_555
C24 C23 1_555 1_555
H32 C24 1_555 1_555
C25 C19 1_555 1_555
C26 C16 1_555 1_555
C27 C26 1_555 1_555
C28 C27 1_555 1_555
H33 C28 1_555 1_555
C29 C28 1_555 1_555
H34 C29 1_555 1_555
C30 C29 1_555 1_555
H35 C30 1_555 1_555
C31 C30 1_555 1_555
H36 C31 1_555 1_555
C32 C27 1_555 1_555
H37 C32 1_555 1_555
C33 C22 1_555 1_555
C34 C33 1_555 1_555
C35 C34 1_555 1_555
H38 C35 1_555 1_555
C36 C35 1_555 1_555
H39 C36 1_555 1_555
C37 C36 1_555 1_555
H40 C37 1_555 1_555
C38 C37 1_555 1_555
H41 C38 1_555 1_555
C39 C34 1_555 1_555
H42 C39 1_555 1_555
C40 C26 1_555 1_555
C41 C40 1_555 1_555
C42 C41 1_555 1_555
H43 C42 1_555 1_555
C43 C42 1_555 1_555
H44 C43 1_555 1_555
C44 C43 1_555 1_555
H45 C44 1_555 1_555
C45 C44 1_555 1_555
H46 C45 1_555 1_555
C46 C41 1_555 1_555
H47 C46 1_555 1_555
C47 C33 1_555 1_555
C48 C47 1_555 1_555
C49 C48 1_555 1_555
H48 C49 1_555 1_555
C50 C49 1_555 1_555
H49 C50 1_555 1_555
C51 C50 1_555 1_555
H50 C51 1_555 1_555
C52 C51 1_555 1_555
H51 C52 1_555 1_555
C53 C48 1_555 1_555
H52 C53 1_555 1_555
C54 C40 1_555 1_555
C55 C54 1_555 1_555
H53 C55 1_555 1_555
C56 C55 1_555 1_555
H54 C56 1_555 1_555
C57 C56 1_555 1_555
H55 C57 1_555 1_555
C58 C57 1_555 1_555
H56 C58 1_555 1_555
C59 C54 1_555 1_555
H57 C59 1_555 1_555
C60 C47 1_555 1_555
C61 C60 1_555 1_555
H58 C61 1_555 1_555
C62 C61 1_555 1_555
H59 C62 1_555 1_555
C63 C62 1_555 1_555
H60 C63 1_555 1_555
C64 C63 1_555 1_555
H61 C64 1_555 1_555
C65 C60 1_555 1_555
H62 C65 1_555 1_555
Cl1 C66 1_555 1_555
Cl2 C66 1_555 1_555
C66 H63 1_555 1_555
H64 C66 1_555 1_555
C7 C13 1_555 1_555
C18 C19 1_555 1_555
C20 C25 1_555 1_555
C24 C25 1_555 1_555
C31 C32 1_555 1_555
C38 C39 1_555 1_555
C45 C46 1_555 1_555
C52 C53 1_555 1_555
C58 C59 1_555 1_555
C64 C65 1_555 1_555

#END
