
#######################################################################
#
#                 Cambridge Crystallographic Data Centre
#                                CCDC 
#
#######################################################################
#
# If this CIF has been generated from an entry in the Cambridge 
# Structural Database, then it will include bibliographic, chemical, 
# crystal, experimental, refinement or atomic coordinate data resulting 
# from the CCDC's data processing and validation procedures.
#
#######################################################################

data_SIRBIH
_chemical_formula_moiety         'C54 H67 N5 O1 Si2'
_chemical_name_systematic        
(\m-[(2,6-dimethylcyclohexa-3,5-dien-2-yl-1-ylidene)amino]methylidyne)-(\m-9,9-dimethyl-9H-xanthene-4,5-diyl)-bis(N,N'-di-t-butylbenzenecarboximidamido)-di-silicon
_symmetry_cell_setting           monoclinic
_symmetry_space_group_name_H-M   'P 21/n'
_symmetry_Int_Tables_number      14
_space_group_name_Hall           '-P 2yn'
loop_
_symmetry_equiv_pos_site_id
_symmetry_equiv_pos_as_xyz
1 x,y,z
2 1/2-x,1/2+y,1/2-z
3 -x,-y,-z
4 1/2+x,1/2-y,1/2+z
_cell_length_a                   16.8495(4)
_cell_length_b                   13.9048(3)
_cell_length_c                   22.1044(5)
_cell_angle_alpha                90
_cell_angle_beta                 106.452(3)
_cell_angle_gamma                90
_cell_volume                     4966.78
_exptl_crystal_colour            red
_exptl_crystal_description       rod
_cell_formula_units_Z            4
loop_
_atom_site_label
_atom_site_type_symbol
_atom_site_fract_x
_atom_site_fract_y
_atom_site_fract_z
Si1 Si 0.49137(4) 0.68426(5) 0.70176(3)
Si2 Si 0.41475(4) 0.78956(5) 0.81351(3)
O1 O 0.46875(10) 0.88610(12) 0.71210(8)
N1 N 0.41974(13) 0.67910(16) 0.62556(9)
N2 N 0.33233(13) 0.76205(16) 0.84970(9)
N3 N 0.46019(13) 0.77641(16) 0.89921(9)
N4 N 0.45040(13) 0.61181(16) 0.80174(10)
N5 N 0.51865(13) 0.65717(16) 0.57369(10)
C1 C 0.57078(15) 0.77957(18) 0.69917(11)
C2 C 0.48736(16) 0.54105(18) 0.78131(12)
C3 C 0.45076(16) 0.69809(19) 0.57322(12)
C4 C 0.42119(16) 0.92100(19) 0.79994(12)
C5 C 0.54924(15) 0.87326(19) 0.70738(11)
C6 C 0.44973(15) 0.70114(18) 0.77017(12)
C7 C 0.46460(16) 0.95156(19) 0.75850(13)
C8 C 0.38740(16) 0.7517(2) 0.90664(12)
C9 C 0.53895(16) 0.56422(19) 0.73606(12)
C10 C 0.33101(16) 0.6466(2) 0.61216(12)
C11 C 0.50733(17) 1.03796(19) 0.76310(13)
C12 C 0.65226(16) 0.7668(2) 0.69631(12)
H1 H 0.6709 0.7042 0.6897
C13 C 0.59978(16) 0.95391(19) 0.71264(13)
C14 C 0.48192(17) 0.4432(2) 0.80060(13)
C15 C 0.40430(17) 0.7734(2) 0.52721(13)
C16 C 0.24291(16) 0.7387(2) 0.82722(13)
C17 C 0.68014(17) 0.9369(2) 0.71056(14)
H2 H 0.7176 0.9892 0.7143
C18 C 0.56878(18) 0.6759(2) 0.52914(13)
C19 C 0.70599(17) 0.8443(2) 0.70303(13)
H3 H 0.7615 0.8336 0.7025
C20 C 0.62786(16) 0.5811(2) 0.78070(13)
H4 H 0.6459 0.5239 0.8069
H5 H 0.6274 0.6367 0.8078
H6 H 0.6661 0.5933 0.7554
C21 C 0.56336(17) 1.0527(2) 0.72037(14)
C22 C 0.37013(17) 0.7178(2) 0.96527(13)
C23 C 0.49678(19) 1.1023(2) 0.80859(14)
H7 H 0.5248 1.1623 0.8140
C24 C 0.54491(17) 0.7760(2) 0.94326(13)
C25 C 0.54272(18) 0.4818(2) 0.69340(13)
H8 H 0.5547 0.4929 0.6545
C26 C 0.41015(18) 0.9902(2) 0.84327(13)
H9 H 0.3777 0.9750 0.8708
C27 C 0.4458(2) 0.4222(2) 0.85427(14)
H10 H 0.3871 0.4401 0.8420
H11 H 0.4755 0.4595 0.8914
H12 H 0.4513 0.3535 0.8643
C28 C 0.50414(19) 0.3721(2) 0.76657(14)
H13 H 0.5033 0.3073 0.7800
C29 C 0.32177(17) 0.5791(2) 0.66433(13)
H14 H 0.3616 0.5263 0.6694
H15 H 0.2655 0.5530 0.6530
H16 H 0.3323 0.6149 0.7040
C30 C 0.52907(19) 0.3921(2) 0.71040(14)
H17 H 0.5360 0.3399 0.6847
C31 C 0.4045(2) 0.8674(2) 0.54885(15)
H18 H 0.4321 0.8818 0.5917
C32 C 0.64937(18) 0.6199(2) 0.55735(14)
H19 H 0.6785 0.6471 0.5986
H20 H 0.6847 0.6246 0.5290
H21 H 0.6364 0.5522 0.5624
C33 C 0.30570(18) 0.5862(2) 0.55188(13)
H22 H 0.3003 0.6280 0.5152
H23 H 0.2526 0.5548 0.5486
H24 H 0.3480 0.5373 0.5532
C34 C 0.36142(18) 0.7539(3) 0.46451(13)
H25 H 0.3605 0.6903 0.4485
C35 C 0.3668(2) 0.6198(3) 0.97576(15)
H26 H 0.3761 0.5755 0.9457
C36 C 0.5287(2) 0.6329(3) 0.46408(13)
H27 H 0.5083 0.5682 0.4688
H28 H 0.5698 0.6294 0.4404
H29 H 0.4824 0.6736 0.4413
C37 C 0.44582(19) 1.0797(2) 0.84612(14)
H30 H 0.4354 1.1267 0.8741
C38 C 0.6317(2) 1.1268(2) 0.74761(16)
H31 H 0.6065 1.1887 0.7527
H32 H 0.6660 1.1345 0.7188
H33 H 0.6662 1.1046 0.7887
C39 C 0.50988(19) 1.0883(2) 0.65543(14)
H34 H 0.4633 1.0442 0.6393
H35 H 0.5436 1.0905 0.6259
H36 H 0.4888 1.1528 0.6599
C40 C 0.27364(17) 0.7330(2) 0.60799(14)
H37 H 0.2938 0.7729 0.6458
H38 H 0.2176 0.7104 0.6051
H39 H 0.2727 0.7710 0.5705
C41 C 0.21292(18) 0.7867(3) 0.76265(14)
H40 H 0.2227 0.8562 0.7672
H41 H 0.1536 0.7746 0.7447
H42 H 0.2432 0.7602 0.7346
C42 C 0.35683(18) 0.7829(3) 1.00916(13)
H43 H 0.3588 0.8502 1.0023
C43 C 0.19549(18) 0.7794(3) 0.87081(14)
H44 H 0.2106 0.7439 0.9107
H45 H 0.1359 0.7731 0.8507
H46 H 0.2095 0.8475 0.8790
C44 C 0.5892(2) 0.7821(2) 0.52380(15)
H47 H 0.5388 0.8168 0.5013
H48 H 0.6305 0.7882 0.5005
H49 H 0.6113 0.8094 0.5661
C45 C 0.2309(2) 0.6301(2) 0.81999(16)
H50 H 0.2656 0.6047 0.7948
H51 H 0.1727 0.6160 0.7987
H52 H 0.2467 0.5999 0.8617
C46 C 0.3199(2) 0.8273(3) 0.42529(15)
H53 H 0.2893 0.8130 0.3831
C47 C 0.3405(2) 0.7474(3) 1.06392(15)
H54 H 0.3320 0.7906 1.0948
C48 C 0.3650(2) 0.9406(3) 0.50874(17)
H55 H 0.3670 1.0048 0.5238
C49 C 0.6006(3) 0.8210(5) 0.9060(2)
H56 H 0.5955 0.7839 0.8674
H57 H 0.6583 0.8203 0.9320
H58 H 0.5832 0.8876 0.8949
C50 C 0.3368(2) 0.6494(4) 1.07273(18)
H59 H 0.3248 0.6259 1.1095
C51 C 0.3229(2) 0.9198(3) 0.44691(17)
H60 H 0.2961 0.9698 0.4194
C52 C 0.5502(3) 0.8355(6) 1.0002(3)
H61 H 0.5264 0.8991 0.9872
H62 H 0.6083 0.8426 1.0247
H63 H 0.5194 0.8041 1.0262
C53 C 0.3500(2) 0.5859(3) 1.02999(18)
H64 H 0.3477 0.5187 1.0371
C54 C 0.5727(3) 0.6723(4) 0.9593(3)
H65 H 0.5392 0.6432 0.9842
H66 H 0.6311 0.6715 0.9838
H67 H 0.5656 0.6356 0.9203
C55? C 0.5504(16) 0.8793(17) 0.9802(12)
H68? H 0.5433 0.9320 0.9497
H69? H 0.6045 0.8851 1.0116
H70? H 0.5066 0.8826 1.0013
C56? C 0.5586(13) 0.6964(15) 0.9937(11)
H71? H 0.5205 0.7060 1.0195
H72? H 0.6158 0.6991 1.0208
H73? H 0.5482 0.6334 0.9730
C57? C 0.6066(16) 0.772(2) 0.9109(12)
H74? H 0.6010 0.7112 0.8872
H75? H 0.6615 0.7745 0.9414
H76? H 0.5998 0.8259 0.8816
loop_
_geom_bond_atom_site_label_1
_geom_bond_atom_site_label_2
_geom_bond_site_symmetry_1
_geom_bond_site_symmetry_2
Si1 N1 1_555 1_555
Si2 N2 1_555 1_555
O1 C5 1_555 1_555
N1 C3 1_555 1_555
N2 C8 1_555 1_555
N3 Si2 1_555 1_555
N4 C2 1_555 1_555
N5 C3 1_555 1_555
C1 Si1 1_555 1_555
C2 C9 1_555 1_555
C3 C15 1_555 1_555
C4 Si2 1_555 1_555
C5 C1 1_555 1_555
C6 Si1 1_555 1_555
C7 O1 1_555 1_555
C8 N3 1_555 1_555
C9 Si1 1_555 1_555
C10 N1 1_555 1_555
C11 C7 1_555 1_555
C12 C1 1_555 1_555
H1 C12 1_555 1_555
C13 C5 1_555 1_555
C14 C2 1_555 1_555
C15 C31 1_555 1_555
C16 N2 1_555 1_555
C17 C13 1_555 1_555
H2 C17 1_555 1_555
C18 N5 1_555 1_555
C19 C12 1_555 1_555
H3 C19 1_555 1_555
C20 C9 1_555 1_555
H4 C20 1_555 1_555
H5 C20 1_555 1_555
H6 C20 1_555 1_555
C21 C11 1_555 1_555
C22 C8 1_555 1_555
C23 C11 1_555 1_555
H7 C23 1_555 1_555
C24 N3 1_555 1_555
C25 C9 1_555 1_555
H8 C25 1_555 1_555
C26 C4 1_555 1_555
H9 C26 1_555 1_555
C27 C14 1_555 1_555
H10 C27 1_555 1_555
H11 C27 1_555 1_555
H12 C27 1_555 1_555
C28 C14 1_555 1_555
H13 C28 1_555 1_555
C29 C10 1_555 1_555
H14 C29 1_555 1_555
H15 C29 1_555 1_555
H16 C29 1_555 1_555
C30 C25 1_555 1_555
H17 C30 1_555 1_555
C31 H18 1_555 1_555
C32 C18 1_555 1_555
H19 C32 1_555 1_555
H20 C32 1_555 1_555
H21 C32 1_555 1_555
C33 C10 1_555 1_555
H22 C33 1_555 1_555
H23 C33 1_555 1_555
H24 C33 1_555 1_555
C34 C15 1_555 1_555
H25 C34 1_555 1_555
C35 C22 1_555 1_555
H26 C35 1_555 1_555
C36 C18 1_555 1_555
H27 C36 1_555 1_555
H28 C36 1_555 1_555
H29 C36 1_555 1_555
C37 C23 1_555 1_555
H30 C37 1_555 1_555
C38 C21 1_555 1_555
H31 C38 1_555 1_555
H32 C38 1_555 1_555
H33 C38 1_555 1_555
C39 C21 1_555 1_555
H34 C39 1_555 1_555
H35 C39 1_555 1_555
H36 C39 1_555 1_555
C40 C10 1_555 1_555
H37 C40 1_555 1_555
H38 C40 1_555 1_555
H39 C40 1_555 1_555
C41 C16 1_555 1_555
H40 C41 1_555 1_555
H41 C41 1_555 1_555
H42 C41 1_555 1_555
C42 C22 1_555 1_555
H43 C42 1_555 1_555
C43 C16 1_555 1_555
H44 C43 1_555 1_555
H45 C43 1_555 1_555
H46 C43 1_555 1_555
C44 C18 1_555 1_555
H47 C44 1_555 1_555
H48 C44 1_555 1_555
H49 C44 1_555 1_555
C45 C16 1_555 1_555
H50 C45 1_555 1_555
H51 C45 1_555 1_555
H52 C45 1_555 1_555
C46 C34 1_555 1_555
H53 C46 1_555 1_555
C47 C42 1_555 1_555
H54 C47 1_555 1_555
C48 C31 1_555 1_555
H55 C48 1_555 1_555
C49 C24 1_555 1_555
H56 C49 1_555 1_555
H57 C49 1_555 1_555
H58 C49 1_555 1_555
C50 C47 1_555 1_555
H59 C50 1_555 1_555
C51 C46 1_555 1_555
H60 C51 1_555 1_555
C52 C24 1_555 1_555
H61 C52 1_555 1_555
H62 C52 1_555 1_555
H63 C52 1_555 1_555
C53 C35 1_555 1_555
H64 C53 1_555 1_555
C54 C24 1_555 1_555
H65 C54 1_555 1_555
H66 C54 1_555 1_555
H67 C54 1_555 1_555
Si2 C6 1_555 1_555
N4 C6 1_555 1_555
C4 C7 1_555 1_555
C13 C21 1_555 1_555
C17 C19 1_555 1_555
C26 C37 1_555 1_555
C28 C30 1_555 1_555
C48 C51 1_555 1_555
C50 C53 1_555 1_555

#END
