
#######################################################################
#
#                 Cambridge Crystallographic Data Centre
#                                CCDC 
#
#######################################################################
#
# If this CIF has been generated from an entry in the Cambridge 
# Structural Database, then it will include bibliographic, chemical, 
# crystal, experimental, refinement or atomic coordinate data resulting 
# from the CCDC's data processing and validation procedures.
#
#######################################################################

data_SIRBON
_chemical_formula_moiety         'C63 H76 N6 O1 Si2,C6 H14'
_chemical_name_systematic        
"bis(\m-[(2,6-dimethylphenyl)imino]methylidene)-(\m-9,9-dimethyl-9H-xanthene-4,5-diyl)-bis(N,N'-di-t-butylbenzenecarboximidamido)-di-silicon hexane solvate"
_symmetry_cell_setting           triclinic
_symmetry_space_group_name_H-M   'P -1'
_symmetry_Int_Tables_number      2
_space_group_name_Hall           '-P 1'
loop_
_symmetry_equiv_pos_site_id
_symmetry_equiv_pos_as_xyz
1 x,y,z
2 -x,-y,-z
_cell_length_a                   12.8721(6)
_cell_length_b                   13.2729(7)
_cell_length_c                   20.8010(9)
_cell_angle_alpha                102.478(4)
_cell_angle_beta                 90.872(4)
_cell_angle_gamma                116.307(5)
_cell_volume                     3085.43
_exptl_crystal_colour            blue
_exptl_crystal_description       block
_cell_formula_units_Z            2
loop_
_atom_site_label
_atom_site_type_symbol
_atom_site_fract_x
_atom_site_fract_y
_atom_site_fract_z
Si1 Si 0.73063(11) 0.46329(9) 0.21223(6)
Si2 Si 0.97100(10) 0.65925(9) 0.24305(5)
O1 O 0.7873(3) 0.6631(2) 0.31181(14)
N1 N 0.7864(3) 0.6461(3) 0.14468(18)
N2 N 0.9184(3) 0.4349(3) 0.27903(18)
N3 N 0.5750(3) 0.4303(3) 0.15929(18)
N4 N 1.1586(3) 0.9013(3) 0.24016(17)
N5 N 0.6673(3) 0.3264(3) 0.14809(17)
N6 N 1.1034(3) 0.7042(3) 0.20935(17)
C1 C 0.6629(4) 0.4650(4) 0.2934(2)
C2 C 0.8893(4) 0.4980(3) 0.25172(19)
C3 C 0.8238(4) 0.6116(3) 0.1889(2)
C4 C 0.9923(4) 0.7562(3) 0.3293(2)
C5 C 0.8828(4) 0.7416(4) 0.0600(2)
C6 C 0.7083(4) 0.5736(4) 0.3369(2)
C7 C 0.8556(4) 0.7508(4) 0.1260(2)
C8 C 0.8889(4) 0.7362(3) 0.3556(2)
C9 C 0.5758(4) 0.3395(3) 0.1228(2)
C10 C 0.8758(4) 0.7742(4) 0.4217(2)
C11 C 1.0934(4) 0.8283(4) 0.3742(2)
H1 H 1.1679 0.8461 0.3597
C12 C 0.9796(4) 0.8477(4) 0.4637(2)
H2 H 0.9776 0.8799 0.5089
C13 C 1.1909(4) 0.8226(4) 0.2347(2)
C14 C 0.5020(4) 0.2678(3) 0.0582(2)
C15 C 0.4922(4) 0.4793(4) 0.1530(2)
C16 C 0.8816(4) 0.8595(4) 0.1671(2)
C17 C 1.2303(4) 1.0284(4) 0.2707(2)
C18 C 0.6828(4) 0.2187(3) 0.1351(2)
C19 C 0.5750(4) 0.1102(4) 0.0975(3)
H3 H 0.5058 0.1063 0.1182
H4 H 0.5844 0.0413 0.0989
H5 H 0.5653 0.1132 0.0512
C20 C 1.1444(4) 1.0689(4) 0.3018(2)
H6 H 1.0805 1.0495 0.2678
H7 H 1.1849 1.1531 0.3203
H8 H 1.1128 1.0303 0.3372
C21 C 0.8423(4) 0.8727(4) 0.2353(2)
H9 H 0.7643 0.8091 0.2341
H10 H 0.8397 0.9470 0.2485
H11 H 0.8974 0.8706 0.2674
C22 C 1.3099(4) 0.8342(3) 0.2524(2)
C23 C 1.2174(4) 0.6016(4) 0.1552(2)
H12 H 1.2948 0.6690 0.1635
H13 H 1.2126 0.5447 0.1149
H14 H 1.2049 0.5662 0.1930
C24 C 0.3856(4) 0.1870(4) 0.0536(3)
H15 H 0.3516 0.1712 0.0928
C25 C 1.0861(4) 0.8740(4) 0.4394(2)
H16 H 1.1562 0.9249 0.4684
C26 C 0.9456(5) 0.8426(5) 0.0404(3)
H17 H 0.9676 0.8372 -0.0031
C27 C 0.5823(4) 0.3748(4) 0.3174(2)
H18 H 0.5457 0.2981 0.2897
C28 C 0.6862(4) 0.6003(4) 0.4014(2)
C29 C 0.5519(5) 0.2859(4) 0.0007(2)
H19 H 0.6323 0.3383 0.0033
C30 C 1.4332(5) 0.7869(4) 0.3167(2)
H20 H 1.4419 0.7487 0.3486
C31 C 0.8398(5) 0.6253(5) 0.0121(2)
H21 H 0.8469 0.6352 -0.0333
H22 H 0.7577 0.5768 0.0160
H23 H 0.8866 0.5878 0.0221
C32 C 1.4066(4) 0.8982(4) 0.2236(2)
H24 H 1.3986 0.9369 0.1919
C33 C 0.7519(4) 0.7280(4) 0.4408(2)
C34 C 0.9422(4) 0.9580(4) 0.1440(3)
H25 H 0.9597 1.0320 0.1716
C35 C 1.0301(4) 0.4707(4) 0.3141(2)
C36 C 1.5150(4) 0.9056(4) 0.2411(3)
H26 H 1.5800 0.9480 0.2203
C37 C 1.0554(5) 0.5299(4) 0.3810(2)
C38 C 0.4847(6) 0.2278(4) -0.0607(2)
H27 H 0.5190 0.2422 -0.0999
C39 C 0.9665(5) 0.5556(4) 0.4189(2)
H28 H 0.9777 0.6333 0.4179
H29 H 0.9770 0.5523 0.4650
H30 H 0.8875 0.4979 0.3982
C40 C 1.1545(5) 0.7157(4) 0.0964(2)
H31 H 1.0971 0.7446 0.0930
H32 H 1.1546 0.6692 0.0528
H33 H 1.2324 0.7815 0.1114
C41 C 1.1036(4) 0.4262(4) 0.2840(2)
C42 C 1.1226(4) 0.6407(4) 0.1461(2)
C43 C 1.0087(4) 0.5314(4) 0.1164(2)
H34 H 0.9857 0.4814 0.1474
H35 H 1.0200 0.4895 0.0743
H36 H 0.9471 0.5533 0.1083
C44 C 1.3240(4) 0.7773(4) 0.2984(2)
H37 H 1.2582 0.7314 0.3174
C45 C 1.3335(4) 1.0673(4) 0.3237(2)
H38 H 1.3081 1.0213 0.3567
H39 H 1.3619 1.1496 0.3457
H40 H 1.3965 1.0560 0.3028
C46 C 0.4830(5) 0.5005(5) 0.0840(3)
H41 H 0.5613 0.5473 0.0735
H42 H 0.4361 0.5419 0.0836
H43 H 0.4455 0.4259 0.0508
C47 C 0.3191(5) 0.1294(4) -0.0079(3)
H44 H 0.2390 0.0759 -0.0109
C48 C 1.5295(5) 0.8524(4) 0.2883(3)
H45 H 1.6045 0.8605 0.3011
C49 C 0.7032(5) 0.1971(4) 0.2024(2)
H46 H 0.7673 0.2673 0.2305
H47 H 0.7235 0.1329 0.1959
H48 H 0.6319 0.1772 0.2238
C50 C 0.7517(5) 0.7391(5) 0.5163(2)
H49 H 0.7881 0.6946 0.5299
H50 H 0.6711 0.7088 0.5267
H51 H 0.7959 0.8209 0.5402
C51 C 1.0649(4) 0.3409(4) 0.2176(3)
H52 H 1.0725 0.3820 0.1827
H53 H 0.9831 0.2839 0.2154
H54 H 1.1138 0.3010 0.2113
C52 C 0.6072(5) 0.5052(5) 0.4233(3)
H55 H 0.5894 0.5162 0.4677
C53 C 0.5384(5) 0.5941(4) 0.2053(3)
H56 H 0.5372 0.5797 0.2496
H57 H 0.4890 0.6315 0.2006
H58 H 0.6187 0.6448 0.1994
C54 C 1.2730(5) 1.0853(4) 0.2131(3)
H59 H 1.3300 1.0619 0.1932
H60 H 1.3099 1.1699 0.2298
H61 H 1.2065 1.0604 0.1796
C55 C 0.3720(5) 0.3993(5) 0.1683(3)
H62 H 0.3335 0.3306 0.1310
H63 H 0.3245 0.4406 0.1752
H64 H 0.3809 0.3753 0.2086
C56 C 1.2403(5) 0.5236(5) 0.3844(3)
H65 H 1.3143 0.5461 0.4077
C57 C 1.1616(5) 0.5573(5) 0.4147(3)
H66 H 1.1810 0.6004 0.4598
C58 C 0.9777(5) 0.9504(5) 0.0813(3)
H67 H 1.0232 1.0185 0.0669
C59 C 0.6923(5) 0.7950(5) 0.4192(3)
H68 H 0.7352 0.8772 0.4427
H69 H 0.6118 0.7634 0.4297
H70 H 0.6919 0.7874 0.3712
C60 C 0.5553(5) 0.3962(5) 0.3812(3)
H71 H 0.4990 0.3337 0.3965
C61 C 1.2094(5) 0.4570(5) 0.3201(3)
H72 H 1.2620 0.4314 0.2997
C62 C 0.7867(5) 0.2357(4) 0.0963(3)
H73 H 0.7739 0.2550 0.0549
H74 H 0.7947 0.1641 0.0860
H75 H 0.8581 0.2991 0.1231
C63 C 0.3699(6) 0.1501(5) -0.0652(3)
H76 H 0.3247 0.1103 -0.1075
C64 C 1.0320(6) 0.8051(7) 0.6392(4)
H77 H 1.0259 0.7925 0.6840
H78 H 0.9563 0.7563 0.6117
H79 H 1.0549 0.8869 0.6415
C65 C 1.1227(7) 0.7738(6) 0.6090(5)
H80 H 1.1251 0.7123 0.6277
H81 H 1.0983 0.7413 0.5606
C66 C 1.2421(6) 0.8720(7) 0.6199(6)
H82 H 1.2629 0.9110 0.6679
H83 H 1.2424 0.9291 0.5961
C67 C 1.3345(8) 0.8353(11) 0.5967(5)
H84 H 1.4030 0.8738 0.6313
H85 H 1.3026 0.7504 0.5904
C68 C 1.4667(12) 0.8322(16) 0.5101(5)
H86 H 1.5421 0.8894 0.5358
H87 H 1.4713 0.8292 0.4628
H88 H 1.4473 0.7556 0.5174
C69 C 1.3728(10) 0.8665(11) 0.5323(5)
H89 H 1.4032 0.9512 0.5382
H90 H 1.3046 0.8266 0.4974
loop_
_geom_bond_atom_site_label_1
_geom_bond_atom_site_label_2
_geom_bond_site_symmetry_1
_geom_bond_site_symmetry_2
Si1 N3 1_555 1_555
Si2 N6 1_555 1_555
O1 C6 1_555 1_555
N1 C3 1_555 1_555
N2 C2 1_555 1_555
N3 C9 1_555 1_555
N4 C13 1_555 1_555
N5 Si1 1_555 1_555
N6 C13 1_555 1_555
C1 Si1 1_555 1_555
C2 Si1 1_555 1_555
C3 Si1 1_555 1_555
C4 Si2 1_555 1_555
C5 C7 1_555 1_555
C6 C1 1_555 1_555
C7 N1 1_555 1_555
C8 O1 1_555 1_555
C9 N5 1_555 1_555
C10 C8 1_555 1_555
C11 C4 1_555 1_555
H1 C11 1_555 1_555
C12 C10 1_555 1_555
H2 C12 1_555 1_555
C13 C22 1_555 1_555
C14 C9 1_555 1_555
C15 N3 1_555 1_555
C16 C7 1_555 1_555
C17 N4 1_555 1_555
C18 N5 1_555 1_555
C19 C18 1_555 1_555
H3 C19 1_555 1_555
H4 C19 1_555 1_555
H5 C19 1_555 1_555
C20 C17 1_555 1_555
H6 C20 1_555 1_555
H7 C20 1_555 1_555
H8 C20 1_555 1_555
C21 C16 1_555 1_555
H9 C21 1_555 1_555
H10 C21 1_555 1_555
H11 C21 1_555 1_555
C22 C32 1_555 1_555
C23 H12 1_555 1_555
H13 C23 1_555 1_555
H14 C23 1_555 1_555
C24 C14 1_555 1_555
H15 C24 1_555 1_555
C25 C11 1_555 1_555
H16 C25 1_555 1_555
C26 C5 1_555 1_555
H17 C26 1_555 1_555
C27 C1 1_555 1_555
H18 C27 1_555 1_555
C28 C6 1_555 1_555
C29 C14 1_555 1_555
H19 C29 1_555 1_555
C30 H20 1_555 1_555
C31 C5 1_555 1_555
H21 C31 1_555 1_555
H22 C31 1_555 1_555
H23 C31 1_555 1_555
C32 H24 1_555 1_555
C33 C10 1_555 1_555
C34 C16 1_555 1_555
H25 C34 1_555 1_555
C35 N2 1_555 1_555
C36 C32 1_555 1_555
H26 C36 1_555 1_555
C37 C35 1_555 1_555
C38 C29 1_555 1_555
H27 C38 1_555 1_555
C39 C37 1_555 1_555
H28 C39 1_555 1_555
H29 C39 1_555 1_555
H30 C39 1_555 1_555
C40 H31 1_555 1_555
H32 C40 1_555 1_555
H33 C40 1_555 1_555
C41 C35 1_555 1_555
C42 N6 1_555 1_555
C43 C42 1_555 1_555
H34 C43 1_555 1_555
H35 C43 1_555 1_555
H36 C43 1_555 1_555
C44 C22 1_555 1_555
H37 C44 1_555 1_555
C45 C17 1_555 1_555
H38 C45 1_555 1_555
H39 C45 1_555 1_555
H40 C45 1_555 1_555
C46 C15 1_555 1_555
H41 C46 1_555 1_555
H42 C46 1_555 1_555
H43 C46 1_555 1_555
C47 C24 1_555 1_555
H44 C47 1_555 1_555
C48 C30 1_555 1_555
H45 C48 1_555 1_555
C49 C18 1_555 1_555
H46 C49 1_555 1_555
H47 C49 1_555 1_555
H48 C49 1_555 1_555
C50 C33 1_555 1_555
H49 C50 1_555 1_555
H50 C50 1_555 1_555
H51 C50 1_555 1_555
C51 C41 1_555 1_555
H52 C51 1_555 1_555
H53 C51 1_555 1_555
H54 C51 1_555 1_555
C52 C28 1_555 1_555
H55 C52 1_555 1_555
C53 C15 1_555 1_555
H56 C53 1_555 1_555
H57 C53 1_555 1_555
H58 C53 1_555 1_555
C54 C17 1_555 1_555
H59 C54 1_555 1_555
H60 C54 1_555 1_555
H61 C54 1_555 1_555
C55 C15 1_555 1_555
H62 C55 1_555 1_555
H63 C55 1_555 1_555
H64 C55 1_555 1_555
C56 H65 1_555 1_555
C57 C37 1_555 1_555
H66 C57 1_555 1_555
C58 C26 1_555 1_555
H67 C58 1_555 1_555
C59 C33 1_555 1_555
H68 C59 1_555 1_555
H69 C59 1_555 1_555
H70 C59 1_555 1_555
C60 C27 1_555 1_555
H71 C60 1_555 1_555
C61 C41 1_555 1_555
H72 C61 1_555 1_555
C62 C18 1_555 1_555
H73 C62 1_555 1_555
H74 C62 1_555 1_555
H75 C62 1_555 1_555
C63 C38 1_555 1_555
H76 C63 1_555 1_555
C64 H77 1_555 1_555
H78 C64 1_555 1_555
H79 C64 1_555 1_555
C65 C64 1_555 1_555
H80 C65 1_555 1_555
H81 C65 1_555 1_555
C66 C65 1_555 1_555
H82 C66 1_555 1_555
H83 C66 1_555 1_555
C67 C66 1_555 1_555
H84 C67 1_555 1_555
H85 C67 1_555 1_555
C68 H86 1_555 1_555
H87 C68 1_555 1_555
H88 C68 1_555 1_555
C69 C67 1_555 1_555
H89 C69 1_555 1_555
H90 C69 1_555 1_555
Si2 C2 1_555 1_555
Si2 C3 1_555 1_555
C4 C8 1_555 1_555
C12 C25 1_555 1_555
C23 C42 1_555 1_555
C28 C33 1_555 1_555
C30 C44 1_555 1_555
C34 C58 1_555 1_555
C36 C48 1_555 1_555
C40 C42 1_555 1_555
C47 C63 1_555 1_555
C52 C60 1_555 1_555
C56 C57 1_555 1_555
C56 C61 1_555 1_555
C68 C69 1_555 1_555

#END
