
#######################################################################
#
#                 Cambridge Crystallographic Data Centre
#                                CCDC 
#
#######################################################################
#
# If this CIF has been generated from an entry in the Cambridge 
# Structural Database, then it will include bibliographic, chemical, 
# crystal, experimental, refinement or atomic coordinate data resulting 
# from the CCDC's data processing and validation procedures.
#
#######################################################################

data_SIRBED
_chemical_name_common            
'1,3-di-t-butyl-2-[6-(1,3-di-t-butyl-4-phenyl-1,2-dihydro-1,3,2-diazasilet-2-yl)dibenzo[b,d]furan-4-yl]-4-phenyl-1,2-dihydro-1,3,2-diazasilete benzene solvate'
_chemical_formula_moiety         'C42 H52 N4 O1 Si2,0.5(C6 H6)'
_chemical_name_systematic        
"(\m-dibenzo[b,d]furan-4,6-diyl)-bis(N,N'-di-t-butylbenzenecarboximidamido)-di-silicon benzene solvate"
_symmetry_cell_setting           monoclinic
_symmetry_space_group_name_H-M   'C 2/c'
_symmetry_Int_Tables_number      15
_space_group_name_Hall           '-C 2yn'
loop_
_symmetry_equiv_pos_site_id
_symmetry_equiv_pos_as_xyz
1 x,y,z
2 -x,y,1/2-z
3 1/2+x,1/2+y,z
4 1/2-x,1/2+y,1/2-z
5 -x,-y,-z
6 x,-y,1/2+z
7 1/2-x,1/2-y,-z
8 1/2+x,1/2-y,1/2+z
_cell_length_a                   36.1038(6)
_cell_length_b                   9.0432(2)
_cell_length_c                   26.0806(5)
_cell_angle_alpha                90
_cell_angle_beta                 92.463(2)
_cell_angle_gamma                90
_cell_volume                     8507.29
_exptl_crystal_colour            colorless
_exptl_crystal_description       plate
_cell_formula_units_Z            8
loop_
_atom_site_label
_atom_site_type_symbol
_atom_site_fract_x
_atom_site_fract_y
_atom_site_fract_z
Si1 Si 0.113023(17) 0.40492(7) 0.20944(2)
O1 O 0.10968(4) 0.19774(17) 0.10861(6)
N1 N 0.10044(5) 0.3937(2) 0.27835(7)
C1 C 0.07304(6) 0.2897(3) 0.17882(8)
Si2 Si 0.178937(19) 0.12320(8) 0.02398(3)
N2 N 0.08732(5) 0.5742(2) 0.22860(7)
C2 C 0.03803(7) 0.2781(3) 0.19906(9)
H1 H 0.0331 0.3341 0.2288
N3 N 0.20001(6) 0.1354(2) 0.09015(8)
C3 C 0.00984(7) 0.1887(3) 0.17790(9)
H2 H -0.0135 0.1851 0.1934
N4 N 0.18042(6) 0.3194(2) 0.04597(7)
C4 C 0.01560(6) 0.1049(3) 0.13436(9)
H3 H -0.0035 0.0436 0.1198
C5 C 0.04997(6) 0.1130(2) 0.11263(9)
C6 C 0.06662(7) 0.0442(3) 0.06930(8)
C7 C 0.05467(7) -0.0587(3) 0.03233(9)
H4 H 0.0302 -0.0973 0.0317
C8 C 0.07951(7) -0.1026(3) -0.00330(9)
H5 H 0.0720 -0.1730 -0.0287
C9 C 0.11559(7) -0.0455(3) -0.00273(9)
H6 H 0.1319 -0.0799 -0.0278
C10 C 0.12894(7) 0.0598(3) 0.03301(8)
C11 C 0.10287(6) 0.0989(2) 0.06851(8)
C12 C 0.07733(6) 0.2040(2) 0.13535(8)
C13 C 0.11627(6) 0.3031(3) 0.32092(9)
C14 C 0.09193(8) 0.2987(3) 0.36698(10)
H7 H 0.0925 0.3953 0.3840
H8 H 0.1011 0.2227 0.3911
H9 H 0.0664 0.2754 0.3555
C15 C 0.15473(7) 0.3608(3) 0.33695(11)
H10 H 0.1703 0.3618 0.3071
H11 H 0.1659 0.2964 0.3635
H12 H 0.1526 0.4615 0.3505
C16 C 0.11922(8) 0.1477(3) 0.29865(11)
H13 H 0.0944 0.1110 0.2888
H14 H 0.1308 0.0817 0.3245
H15 H 0.1344 0.1505 0.2684
C17 C 0.08892(6) 0.5348(2) 0.27778(8)
C18 C 0.08087(7) 0.6272(3) 0.32317(9)
C19 C 0.04674(7) 0.6160(3) 0.34517(10)
H16 H 0.0284 0.5508 0.3309
C20 C 0.03925(8) 0.7001(3) 0.38824(11)
H17 H 0.0158 0.6923 0.4033
C21 C 0.06568(9) 0.7944(3) 0.40888(10)
H18 H 0.0606 0.8516 0.4383
C22 C 0.09972(9) 0.8062(3) 0.38698(10)
H19 H 0.1180 0.8713 0.4015
C23 C 0.10736(8) 0.7238(3) 0.34394(10)
H20 H 0.1307 0.7333 0.3287
C24 C 0.11300(9) 0.8144(3) 0.20420(13)
H21 H 0.1190 0.8447 0.2397
H22 H 0.1081 0.9022 0.1830
H23 H 0.1339 0.7594 0.1909
C25 C 0.07864(7) 0.7160(3) 0.20277(9)
C26 C 0.04660(10) 0.7956(4) 0.22612(12)
H24 H 0.0255 0.7278 0.2281
H25 H 0.0394 0.8807 0.2047
H26 H 0.0541 0.8298 0.2607
C27 C 0.06803(9) 0.6761(4) 0.14731(10)
H27 H 0.0885 0.6221 0.1323
H28 H 0.0630 0.7667 0.1276
H29 H 0.0458 0.6138 0.1463
C28 C 0.21490(8) 0.0310(3) 0.12919(11)
C29 C 0.19486(9) 0.0535(4) 0.17888(11)
H30 H 0.2011 0.1510 0.1932
H31 H 0.2026 -0.0233 0.2036
H32 H 0.1680 0.0473 0.1718
C30 C 0.25657(8) 0.0472(5) 0.13941(13)
H33 H 0.2692 0.0399 0.1070
H34 H 0.2655 -0.0316 0.1626
H35 H 0.2619 0.1436 0.1552
C31 C 0.20641(12) -0.1220(4) 0.10751(14)
H36 H 0.1795 -0.1337 0.1022
H37 H 0.2159 -0.1973 0.1317
H38 H 0.2183 -0.1336 0.0747
C32 C 0.20125(6) 0.2825(3) 0.08797(9)
C33 C 0.26108(8) 0.4112(4) 0.10450(11)
H39 H 0.2690 0.3720 0.0730
C34 C 0.28472(8) 0.4976(4) 0.13431(12)
H40 H 0.3089 0.5181 0.1233
C35 C 0.27356(8) 0.5548(4) 0.18015(11)
H41 H 0.2901 0.6135 0.2008
C36 C 0.23836(8) 0.5264(4) 0.19585(11)
H42 H 0.2306 0.5661 0.2274
C37 C 0.21411(7) 0.4405(3) 0.16606(9)
H43 H 0.1897 0.4223 0.1768
C38 C 0.17141(8) 0.4649(3) 0.02404(10)
C39 C 0.14825(9) 0.5506(3) 0.06145(12)
H44 H 0.1267 0.4913 0.0701
H45 H 0.1399 0.6436 0.0456
H46 H 0.1633 0.5719 0.0927
C40 C 0.20556(9) 0.5524(4) 0.01007(13)
H47 H 0.2201 0.5778 0.0414
H48 H 0.1978 0.6433 -0.0079
H49 H 0.2207 0.4925 -0.0123
C41 C 0.14771(10) 0.4334(4) -0.02463(12)
H50 H 0.1620 0.3737 -0.0482
H51 H 0.1406 0.5270 -0.0412
H52 H 0.1254 0.3793 -0.0157
C42 C 0.22563(7) 0.3811(3) 0.12034(9)
C43 C -0.02721(9) 0.4338(3) 0.46966(12)
H53 H -0.0460 0.3874 0.4488
C44 C 0.00871(10) 0.3906(4) 0.46687(14)
H54 H 0.0151 0.3147 0.4437
C45 C -0.03602(9) 0.5431(4) 0.50230(15)
H55 H -0.0610 0.5745 0.5040
C43D C 0.02721(9) 0.5662(3) 0.53034(12)
H53D H 0.0460 0.6126 0.5512
C44D C -0.00871(10) 0.6094(4) 0.53313(14)
H54D H -0.0151 0.6853 0.5563
C45D C 0.03602(9) 0.4569(4) 0.49770(15)
H55D H 0.0610 0.4255 0.4960
loop_
_geom_bond_atom_site_label_1
_geom_bond_atom_site_label_2
_geom_bond_site_symmetry_1
_geom_bond_site_symmetry_2
Si1 N1 1_555 1_555
O1 C11 1_555 1_555
N1 C13 1_555 1_555
C1 Si1 1_555 1_555
Si2 N3 1_555 1_555
N2 Si1 1_555 1_555
C2 C1 1_555 1_555
H1 C2 1_555 1_555
N3 C28 1_555 1_555
C3 C2 1_555 1_555
H2 C3 1_555 1_555
N4 Si2 1_555 1_555
C4 C3 1_555 1_555
H3 C4 1_555 1_555
C5 C4 1_555 1_555
C6 C5 1_555 1_555
C7 C6 1_555 1_555
H4 C7 1_555 1_555
C8 C7 1_555 1_555
H5 C8 1_555 1_555
C9 C8 1_555 1_555
H6 C9 1_555 1_555
C10 Si2 1_555 1_555
C11 C6 1_555 1_555
C12 O1 1_555 1_555
C13 C14 1_555 1_555
C14 H7 1_555 1_555
H8 C14 1_555 1_555
H9 C14 1_555 1_555
C15 C13 1_555 1_555
H10 C15 1_555 1_555
H11 C15 1_555 1_555
H12 C15 1_555 1_555
C16 C13 1_555 1_555
H13 C16 1_555 1_555
H14 C16 1_555 1_555
H15 C16 1_555 1_555
C17 N1 1_555 1_555
C18 C17 1_555 1_555
C19 C18 1_555 1_555
H16 C19 1_555 1_555
C20 C19 1_555 1_555
H17 C20 1_555 1_555
C21 C20 1_555 1_555
H18 C21 1_555 1_555
C22 C21 1_555 1_555
H19 C22 1_555 1_555
C23 C18 1_555 1_555
H20 C23 1_555 1_555
C24 H21 1_555 1_555
H22 C24 1_555 1_555
H23 C24 1_555 1_555
C25 N2 1_555 1_555
C26 C25 1_555 1_555
H24 C26 1_555 1_555
H25 C26 1_555 1_555
H26 C26 1_555 1_555
C27 C25 1_555 1_555
H27 C27 1_555 1_555
H28 C27 1_555 1_555
H29 C27 1_555 1_555
C28 C29 1_555 1_555
C29 H30 1_555 1_555
H31 C29 1_555 1_555
H32 C29 1_555 1_555
C30 C28 1_555 1_555
H33 C30 1_555 1_555
H34 C30 1_555 1_555
H35 C30 1_555 1_555
C31 C28 1_555 1_555
H36 C31 1_555 1_555
H37 C31 1_555 1_555
H38 C31 1_555 1_555
C32 N3 1_555 1_555
C33 H39 1_555 1_555
C34 C33 1_555 1_555
H40 C34 1_555 1_555
C35 C34 1_555 1_555
H41 C35 1_555 1_555
C36 C35 1_555 1_555
H42 C36 1_555 1_555
C37 C36 1_555 1_555
H43 C37 1_555 1_555
C38 N4 1_555 1_555
C39 C38 1_555 1_555
H44 C39 1_555 1_555
H45 C39 1_555 1_555
H46 C39 1_555 1_555
C40 C38 1_555 1_555
H47 C40 1_555 1_555
H48 C40 1_555 1_555
H49 C40 1_555 1_555
C41 C38 1_555 1_555
H50 C41 1_555 1_555
H51 C41 1_555 1_555
H52 C41 1_555 1_555
C42 C32 1_555 1_555
C43 H53 1_555 1_555
C44 C43 1_555 1_555
H54 C44 1_555 1_555
C45 C43 1_555 1_555
H55 C45 1_555 1_555
C43D H53D 1_555 1_555
C44D C45 1_555 1_555
H54D C44D 1_555 1_555
C45D C44 1_555 1_555
H55D C45D 1_555 1_555
C1 C12 1_555 1_555
N2 C17 1_555 1_555
N4 C32 1_555 1_555
C5 C12 1_555 1_555
C9 C10 1_555 1_555
C10 C11 1_555 1_555
C22 C23 1_555 1_555
C24 C25 1_555 1_555
C33 C42 1_555 1_555
C37 C42 1_555 1_555
C43D C44D 1_555 1_555
C43D C45D 1_555 1_555

#END
