
#######################################################################
#
#                 Cambridge Crystallographic Data Centre
#                                CCDC 
#
#######################################################################
#
# If this CIF has been generated from an entry in the Cambridge 
# Structural Database, then it will include bibliographic, chemical, 
# crystal, experimental, refinement or atomic coordinate data resulting 
# from the CCDC's data processing and validation procedures.
#
#######################################################################

data_SIRCOO
_chemical_formula_moiety         'C58 H48 N4 4+,4(F6 P1 1-),2(C2 H3 N1)'
_chemical_name_systematic        
'13,20,35,42-tetraazadecacyclo[40.2.2.2^2,5^.2^6,9^.2^10,13^.2^15,18^.2^20,23^.2^26,29^.2^32,35^.2^37,40^]dohexaconta-1(44),2,4,6,8,10,12,15,17,20,22,24,26,28,30,32,34,37,39,42,45,47,49,51,53,55,57,59,61-nonacosaene-13,20,35,42-tetraium tetrakis(hexafluorophosphate) acetonitrile unknown solvate'
_symmetry_cell_setting           monoclinic
_symmetry_space_group_name_H-M   'C 2/c'
_symmetry_Int_Tables_number      15
_space_group_name_Hall           '-C 2yn'
loop_
_symmetry_equiv_pos_site_id
_symmetry_equiv_pos_as_xyz
1 x,y,z
2 -x,y,1/2-z
3 1/2+x,1/2+y,z
4 1/2-x,1/2+y,1/2-z
5 -x,-y,-z
6 x,-y,1/2+z
7 1/2-x,1/2-y,-z
8 1/2+x,1/2-y,1/2+z
_cell_length_a                   32.128(3)
_cell_length_b                   40.070(4)
_cell_length_c                   12.3508(12)
_cell_angle_alpha                90
_cell_angle_beta                 99.299(6)
_cell_angle_gamma                90
_cell_volume                     15691.1
_exptl_crystal_colour            yellow
_exptl_crystal_description       needle
_cell_formula_units_Z            8
loop_
_atom_site_label
_atom_site_type_symbol
_atom_site_fract_x
_atom_site_fract_y
_atom_site_fract_z
N1 N 0.9047(2) 0.38159(16) -0.1308(6)
N2 N 0.83519(16) 0.02863(12) 0.2358(4)
N3 N 0.84028(16) 0.12037(12) 0.6880(4)
N4 N 0.9038(3) 0.4263(2) 0.4302(7)
C1 C 0.9431(4) 0.4299(4) 0.3823(13)
H1 H 0.962931 0.412596 0.413874
H2 H 0.955740 0.451550 0.405127
C2 C 0.9380(3) 0.4275(3) 0.2483(11)
C3 C 0.9212(3) 0.4524(3) 0.1873(15)
H3 H 0.912884 0.472025 0.219375
C4 C 0.9165(3) 0.4491(2) 0.0817(13)
H4 H 0.907112 0.467490 0.036977
C5 C 0.9252(3) 0.4186(2) 0.0316(10)
C6 C 0.9404(4) 0.3934(2) 0.0922(10)
H5 H 0.947666 0.373331 0.060314
C7 C 0.9458(4) 0.3972(3) 0.2100(12)
H6 H 0.954292 0.379297 0.257514
C8 C 0.9170(4) 0.4164(2) -0.0960(11)
H7 H 0.894447 0.431913 -0.125735
H8 H 0.942612 0.422804 -0.124635
C9 C 0.9321(3) 0.3603(2) -0.1550(10)
H9 H 0.958924 0.367903 -0.165128
C10 C 0.9226(3) 0.3263(2) -0.1663(9)
H10 H 0.942139 0.311695 -0.190114
C11 C 0.8862(2) 0.31416(18) -0.1439(5)
C12 C 0.8563(2) 0.3379(2) -0.1276(7)
H11 H 0.828522 0.331155 -0.123908
C13 C 0.8669(3) 0.3709(2) -0.1170(8)
H12 H 0.846918 0.386292 -0.099478
C14 C 0.8781(2) 0.27787(17) -0.1396(5)
C15 C 0.9064(2) 0.25442(19) -0.1608(7)
H13 H 0.930432 0.261002 -0.190070
C16 C 0.9002(2) 0.22076(18) -0.1395(6)
H14 H 0.920402 0.205136 -0.154217
C17 C 0.8653(2) 0.20959(16) -0.0976(5)
C18 C 0.8356(2) 0.23241(19) -0.0853(6)
H15 H 0.810299 0.225205 -0.063749
C19 C 0.8412(2) 0.26683(19) -0.1038(6)
H16 H 0.820325 0.282231 -0.092111
C20 C 0.86041(19) 0.17438(16) -0.0642(5)
C21 C 0.8944(2) 0.15346(18) -0.0311(6)
H17 H 0.921582 0.160341 -0.040123
C22 C 0.8889(2) 0.12186(18) 0.0160(6)
H18 H 0.912365 0.108193 0.039522
C23 C 0.84911(19) 0.11121(17) 0.0273(5)
C24 C 0.8152(2) 0.13138(17) -0.0170(5)
H19 H 0.787535 0.123723 -0.016513
C25 C 0.8210(2) 0.16153(18) -0.0605(5)
H20 H 0.797170 0.174268 -0.089286
C26 C 0.8438(2) 0.08069(16) 0.0917(4)
C27 C 0.8748(2) 0.05674(17) 0.1159(5)
H21 H 0.899348 0.057995 0.083950
C28 C 0.8699(2) 0.03129(16) 0.1859(5)
H22 H 0.891127 0.015018 0.200185
C29 C 0.80408(19) 0.05130(19) 0.2130(5)
H23 H 0.780275 0.050073 0.248220
C30 C 0.8071(2) 0.0767(2) 0.1370(6)
H24 H 0.784242 0.091173 0.116260
C31 C 0.8327(2) 0.00462(15) 0.3249(5)
H25 H 0.855000 -0.012199 0.326931
H26 H 0.805405 -0.006795 0.312370
C32 C 0.83809(18) 0.02358(13) 0.4336(4)
C33 C 0.8042(2) 0.02772(15) 0.4897(5)
H27 H 0.778103 0.017569 0.463349
C34 C 0.8089(2) 0.04669(14) 0.5837(5)
H28 H 0.786064 0.049076 0.622175
C35 C 0.84652(19) 0.06220(14) 0.6219(4)
C36 C 0.8801(2) 0.05724(16) 0.5671(5)
H29 H 0.906415 0.066896 0.594403
C37 C 0.8757(2) 0.03853(17) 0.4740(5)
H30 H 0.898837 0.035830 0.436887
C38 C 0.8510(2) 0.08562(15) 0.7206(5)
H31 H 0.832527 0.077990 0.771273
H32 H 0.880161 0.084777 0.759292
C39 C 0.8009(2) 0.1317(2) 0.6826(6)
H33 H 0.779485 0.117531 0.698959
C40 C 0.7918(3) 0.1645(2) 0.6529(7)
H34 H 0.763837 0.172046 0.647136
C41 C 0.8224(3) 0.1865(2) 0.6313(6)
C42 C 0.8617(3) 0.1733(2) 0.6360(7)
H35 H 0.883540 0.187163 0.619754
C43 C 0.8706(2) 0.14149(18) 0.6627(6)
H36 H 0.898190 0.133519 0.663988
C44 C 0.7997(10) 0.2206(7) 0.6193(15)
H37 H 0.771139 0.223750 0.624918
C45 C 0.8276(7) 0.2465(6) 0.5985(13)
H38 H 0.855623 0.241368 0.591700
C46 C 0.8134(10) 0.2808(6) 0.5876(15)
C47 C 0.7789(10) 0.2905(6) 0.608(2)
H39 H 0.760100 0.274623 0.628813
C48 C 0.7659(10) 0.3259(5) 0.6001(16)
H40 H 0.737744 0.332175 0.600247
C49 C 0.7973(10) 0.3501(5) 0.5925(13)
C50 C 0.8376(10) 0.3396(5) 0.5811(16)
H41 H 0.857796 0.355309 0.566950
C51 C 0.8483(9) 0.3056(4) 0.5905(14)
H42 H 0.876621 0.298673 0.598348
C52 C 0.7787(5) 0.3853(3) 0.6063(8)
H43 H 0.753314 0.387318 0.634415
C53 C 0.7972(5) 0.4116(3) 0.5802(9)
H44 H 0.784997 0.431832 0.597672
C54 C 0.8348(5) 0.4149(2) 0.5267(8)
C55 C 0.8637(6) 0.4390(3) 0.5653(10)
H45 H 0.860023 0.452201 0.625881
C56 C 0.9001(5) 0.4437(3) 0.5106(12)
H46 H 0.920671 0.459762 0.536246
C57 C 0.8768(4) 0.4038(3) 0.3836(10)
H47 H 0.880765 0.392404 0.319594
C58 C 0.8413(5) 0.3980(3) 0.4356(10)
H48 H 0.821505 0.381839 0.405991
P1 P 0.81063(6) 0.50999(5) 0.33808(17)
F1 F 0.8093(2) 0.54895(13) 0.3404(5)
F2 F 0.8104(3) 0.47144(15) 0.3335(6)
F3 F 0.8352(2) 0.50894(16) 0.4585(5)
F4 F 0.7691(3) 0.5097(3) 0.3881(8)
F5 F 0.78372(19) 0.51243(13) 0.2191(4)
F6 F 0.8508(2) 0.5125(2) 0.2880(6)
P2 P 0.80946(8) 0.32558(8) 0.1769(2)
F7 F 0.8454(3) 0.3516(3) 0.1701(11)
F8 F 0.7712(3) 0.3025(2) 0.1806(8)
F9 F 0.8281(4) 0.3220(3) 0.2925(7)
F10 F 0.7815(2) 0.35524(19) 0.2090(7)
F11 F 0.7912(3) 0.3350(3) 0.0556(7)
F12 F 0.8376(2) 0.2984(2) 0.1341(7)
P3 P 1.000000 0.46658(7) 0.750000
F13 F 1.000000 0.5034(3) 0.750000
F14 F 1.000000 0.4294(3) 0.750000
F15 F 0.9965(2) 0.4648(4) 0.6264(8)
F16 F 0.95104(15) 0.46695(15) 0.7447(5)
F15A F 1.0035(2) 0.4648(4) 0.8736(8)
F16A F 1.04896(15) 0.46695(15) 0.7553(5)
P4 P 0.9541(2) 0.3303(2) 0.5510(5)
F17 F 0.9254(6) 0.3560(6) 0.5979(15)
F18 F 0.9881(7) 0.3107(7) 0.5002(16)
F19 F 0.9313(7) 0.3376(7) 0.4420(15)
F20 F 0.9820(7) 0.3605(7) 0.5333(19)
F21 F 0.9804(5) 0.3261(6) 0.6635(14)
F22 F 0.9277(7) 0.3013(7) 0.590(2)
P5 P 1.000000 0.13841(7) 0.750000
F23 F 0.9666(2) 0.16580(15) 0.7495(9)
F24 F 0.9917(6) 0.1375(4) 0.6265(9)
F25 F 1.03385(19) 0.10983(15) 0.7579(8)
F23A F 1.0334(2) 0.16580(15) 0.7505(9)
F24A F 1.0083(6) 0.1375(4) 0.8735(9)
F25A F 0.96615(19) 0.10983(15) 0.7421(8)
P6 P 1.000000 0.05499(7) 0.250000
F26 F 1.0237(2) 0.02779(17) 0.3302(5)
F27 F 0.96142(16) 0.05476(17) 0.3138(4)
F28 F 0.97812(18) 0.08245(15) 0.1705(5)
F26A F 0.9763(2) 0.02779(17) 0.1698(5)
F27A F 1.03858(16) 0.05476(17) 0.1862(4)
F28A F 1.02188(18) 0.08245(15) 0.3295(5)
N5 N 1.0743(3) 0.0358(2) 0.6391(7)
C67 C 1.0404(3) 0.03946(18) 0.6147(5)
C68 C 0.9951(3) 0.0459(2) 0.5831(6)
H56 H 0.991049 0.066973 0.544098
H57 H 0.981939 0.046935 0.648321
H58 H 0.982407 0.028064 0.535831
N6 N 0.7306(3) 0.4366(2) 0.1500(8)
C69 C 0.7646(3) 0.4344(2) 0.1334(7)
C70 C 0.8059(3) 0.4317(3) 0.1105(9)
H59 H 0.813483 0.452216 0.076656
H60 H 0.807498 0.413185 0.060814
H61 H 0.825264 0.427933 0.178187
C59? C 0.8240(8) 0.2222(7) 0.6101(18)
H49? H 0.847400 0.231666 0.584511
C60? C 0.7917(5) 0.2414(5) 0.6278(14)
H50? H 0.768227 0.230769 0.649126
C61? C 0.7901(7) 0.2765(5) 0.6168(16)
C62? C 0.7511(7) 0.2934(4) 0.6298(16)
H51? H 0.727716 0.279933 0.637045
C63? C 0.7458(7) 0.3269(4) 0.6322(18)
H52? H 0.720396 0.335837 0.648144
C64? C 0.7763(7) 0.3473(6) 0.6121(17)
C65? C 0.8164(7) 0.3319(5) 0.5934(15)
H53? H 0.838831 0.345542 0.579923
C66? C 0.8210(7) 0.2983(5) 0.5955(14)
H54? H 0.846690 0.289372 0.581586
H55? H 0.755400 0.393054 0.636333
loop_
_geom_bond_atom_site_label_1
_geom_bond_atom_site_label_2
_geom_bond_site_symmetry_1
_geom_bond_site_symmetry_2
N1 C8 1_555 1_555
N2 C28 1_555 1_555
N3 C38 1_555 1_555
N4 C1 1_555 1_555
C1 H1 1_555 1_555
H2 C1 1_555 1_555
C2 C1 1_555 1_555
C3 C2 1_555 1_555
H3 C3 1_555 1_555
C4 C3 1_555 1_555
H4 C4 1_555 1_555
C5 C4 1_555 1_555
C6 C5 1_555 1_555
H5 C6 1_555 1_555
C7 C2 1_555 1_555
H6 C7 1_555 1_555
C8 C5 1_555 1_555
H7 C8 1_555 1_555
H8 C8 1_555 1_555
C9 N1 1_555 1_555
H9 C9 1_555 1_555
C10 C9 1_555 1_555
H10 C10 1_555 1_555
C11 C10 1_555 1_555
C12 C11 1_555 1_555
H11 C12 1_555 1_555
C13 N1 1_555 1_555
H12 C13 1_555 1_555
C14 C11 1_555 1_555
C15 C14 1_555 1_555
H13 C15 1_555 1_555
C16 C15 1_555 1_555
H14 C16 1_555 1_555
C17 C16 1_555 1_555
C18 C17 1_555 1_555
H15 C18 1_555 1_555
C19 C14 1_555 1_555
H16 C19 1_555 1_555
C20 C17 1_555 1_555
C21 C20 1_555 1_555
H17 C21 1_555 1_555
C22 C21 1_555 1_555
H18 C22 1_555 1_555
C23 C22 1_555 1_555
C24 C23 1_555 1_555
H19 C24 1_555 1_555
C25 C20 1_555 1_555
H20 C25 1_555 1_555
C26 C23 1_555 1_555
C27 C26 1_555 1_555
H21 C27 1_555 1_555
C28 C27 1_555 1_555
H22 C28 1_555 1_555
C29 N2 1_555 1_555
H23 C29 1_555 1_555
C30 C26 1_555 1_555
H24 C30 1_555 1_555
C31 N2 1_555 1_555
H25 C31 1_555 1_555
H26 C31 1_555 1_555
C32 C31 1_555 1_555
C33 C32 1_555 1_555
H27 C33 1_555 1_555
C34 C33 1_555 1_555
H28 C34 1_555 1_555
C35 C34 1_555 1_555
C36 C35 1_555 1_555
H29 C36 1_555 1_555
C37 C32 1_555 1_555
H30 C37 1_555 1_555
C38 C35 1_555 1_555
H31 C38 1_555 1_555
H32 C38 1_555 1_555
C39 N3 1_555 1_555
H33 C39 1_555 1_555
C40 C39 1_555 1_555
H34 C40 1_555 1_555
C41 C40 1_555 1_555
C42 C41 1_555 1_555
H35 C42 1_555 1_555
C43 N3 1_555 1_555
H36 C43 1_555 1_555
C44 C41 1_555 1_555
H37 C44 1_555 1_555
C45 C44 1_555 1_555
H38 C45 1_555 1_555
C46 C45 1_555 1_555
C47 C46 1_555 1_555
H39 C47 1_555 1_555
C48 C47 1_555 1_555
H40 C48 1_555 1_555
C49 C48 1_555 1_555
C50 C49 1_555 1_555
H41 C50 1_555 1_555
C51 C46 1_555 1_555
H42 C51 1_555 1_555
C52 C49 1_555 1_555
H43 C52 1_555 1_555
C53 C52 1_555 1_555
H44 C53 1_555 1_555
C54 C53 1_555 1_555
C55 C54 1_555 1_555
H45 C55 1_555 1_555
C56 N4 1_555 1_555
H46 C56 1_555 1_555
C57 N4 1_555 1_555
H47 C57 1_555 1_555
C58 C54 1_555 1_555
H48 C58 1_555 1_555
P1 F1 1_555 1_555
F2 P1 1_555 1_555
F3 P1 1_555 1_555
F4 P1 1_555 1_555
F5 P1 1_555 1_555
F6 P1 1_555 1_555
P2 F7 1_555 1_555
F8 P2 1_555 1_555
F9 P2 1_555 1_555
F10 P2 1_555 1_555
F11 P2 1_555 1_555
F12 P2 1_555 1_555
P3 F13 1_555 1_555
F14 P3 1_555 1_555
F15 P3 1_555 1_555
F16 P3 1_555 1_555
P4 F17 1_555 1_555
F18 P4 1_555 1_555
F19 P4 1_555 1_555
F20 P4 1_555 1_555
F21 P4 1_555 1_555
F22 P4 1_555 1_555
P5 F23 1_555 1_555
F24 P5 1_555 1_555
F25 P5 1_555 1_555
P6 F26 1_555 1_555
F27 P6 1_555 1_555
F28 P6 1_555 1_555
N5 C67 1_555 1_555
C67 C68 1_555 1_555
C68 H56 1_555 1_555
H57 C68 1_555 1_555
H58 C68 1_555 1_555
N6 C69 1_555 1_555
C69 C70 1_555 1_555
C70 H59 1_555 1_555
H60 C70 1_555 1_555
H61 C70 1_555 1_555
F15A P3 1_555 1_555
F16A P3 1_555 1_555
F23A P5 1_555 1_555
F24A P5 1_555 1_555
F25A P5 1_555 1_555
F26A P6 1_555 1_555
F27A P6 1_555 1_555
F28A P6 1_555 1_555
C6 C7 1_555 1_555
C12 C13 1_555 1_555
C18 C19 1_555 1_555
C24 C25 1_555 1_555
C29 C30 1_555 1_555
C36 C37 1_555 1_555
C42 C43 1_555 1_555
C50 C51 1_555 1_555
C55 C56 1_555 1_555
C57 C58 1_555 1_555

#END
