
#######################################################################
#
#                 Cambridge Crystallographic Data Centre
#                                CCDC 
#
#######################################################################
#
# If this CIF has been generated from an entry in the Cambridge 
# Structural Database, then it will include bibliographic, chemical, 
# crystal, experimental, refinement or atomic coordinate data resulting 
# from the CCDC's data processing and validation procedures.
#
#######################################################################

data_SIRCII
_chemical_formula_moiety         'C58 H48 N4 4+,4(F6 P1 1-),C2 H3 N1'
_chemical_name_systematic        
'13,20,35,42-tetraazadecacyclo[40.2.2.2^2,5^.2^6,9^.2^10,13^.2^15,18^.2^20,23^.2^26,29^.2^32,35^.2^37,40^]dohexaconta-1(44),2,4,6,8,10,12,15,17,20,22,24,26,28,30,32,34,37,39,42,45,47,49,51,53,55,57,59,61-nonacosaene-13,20,35,42-tetraium tetrakis(hexafluorophosphate) acetonitrile solvate'
_symmetry_cell_setting           monoclinic
_symmetry_space_group_name_H-M   'P 21/c'
_symmetry_Int_Tables_number      14
_space_group_name_Hall           '-P 2ybc'
loop_
_symmetry_equiv_pos_site_id
_symmetry_equiv_pos_as_xyz
1 x,y,z
2 -x,1/2+y,1/2-z
3 -x,-y,-z
4 x,1/2-y,1/2+z
_cell_length_a                   19.8400(8)
_cell_length_b                   12.3137(5)
_cell_length_c                   14.4575(6)
_cell_angle_alpha                90
_cell_angle_beta                 105.945(2)
_cell_angle_gamma                90
_cell_volume                     3396.13
_exptl_crystal_colour            yellow
_exptl_crystal_description       plate
_cell_formula_units_Z            2
loop_
_atom_site_label
_atom_site_type_symbol
_atom_site_fract_x
_atom_site_fract_y
_atom_site_fract_z
P1 P 0.11839(7) 0.74216(11) 0.55501(11)
F1 F 0.11550(17) 0.7135(3) 0.6622(2)
F2 F 0.12195(17) 0.7721(2) 0.4491(3)
F3 F 0.17773(18) 0.8318(3) 0.5986(3)
F4 F 0.1772(2) 0.6514(3) 0.5616(3)
F5 F 0.0584(2) 0.6541(3) 0.5112(3)
F6 F 0.05864(18) 0.8318(3) 0.5484(2)
P2 P 0.23412(10) 0.23425(15) 0.58207(16)
F7 F 0.2268(2) 0.2306(4) 0.6887(3)
F8 F 0.2406(3) 0.2370(4) 0.4761(4)
F9 F 0.1513(3) 0.2288(5) 0.5412(4)
F10 F 0.2309(4) 0.3629(4) 0.5838(4)
F11 F 0.3166(3) 0.2390(6) 0.6252(5)
F12 F 0.2369(3) 0.1041(4) 0.5833(4)
N3 N 0.4185(18) 0.022(2) 0.2417(18)
C41 C 0.3851(15) 0.0627(19) 0.2846(16)
C42 C 0.3589(9) 0.1266(10) 0.3385(9)
H33 H 0.310600 0.145890 0.303826
H34 H 0.387246 0.192760 0.353481
H35 H 0.359152 0.089010 0.398298
N1 N 0.0549(2) 1.1226(3) 0.2628(3)
N2 N 0.7513(2) 0.4598(3) 0.6439(4)
C1 C 0.1776(2) 1.5897(4) 0.3217(4)
H1 H 0.175000 1.635766 0.264667
H2 H 0.168213 1.635936 0.372759
C2 C 0.1236(2) 1.4999(4) 0.2956(4)
C3 C 0.1027(3) 1.4590(4) 0.2020(4)
H3 H 0.118079 1.493505 0.152611
C4 C 0.0594(3) 1.3677(4) 0.1803(4)
H4 H 0.045225 1.339777 0.116616
C5 C 0.0372(2) 1.3180(4) 0.2542(4)
C6 C 0.0549(3) 1.3629(4) 0.3462(4)
H5 H 0.037338 1.332004 0.395186
C7 C 0.0985(3) 1.4532(4) 0.3656(4)
H6 H 0.111056 1.483143 0.428608
C8 C 0.0008(3) 1.2095(4) 0.2370(5)
H7 H -0.032286 1.202821 0.277063
H8 H -0.026115 1.202614 0.168624
C9 C 0.0916(4) 1.0963(5) 0.2008(5)
H9 H 0.078120 1.125016 0.137338
C10 C 0.1485(4) 1.0282(5) 0.2280(6)
H10 H 0.174168 1.010957 0.183311
C11 C 0.1690(3) 0.9844(4) 0.3200(5)
C12 C 0.1275(3) 1.0122(4) 0.3826(5)
H11 H 0.138374 0.982958 0.445774
C13 C 0.0729(3) 1.0800(4) 0.3517(4)
H12 H 0.045973 1.098511 0.394485
C14 C 0.2369(11) 0.9116(18) 0.3663(13)
C15 C 0.2658(6) 0.8594(8) 0.3037(10)
H13 H 0.243345 0.864332 0.236743
C16 C 0.3239(7) 0.8021(11) 0.3326(11)
H14 H 0.341045 0.766981 0.285142
C17 C 0.3623(7) 0.7899(10) 0.4306(12)
C18 C 0.3308(7) 0.8481(10) 0.4939(12)
H15 H 0.351888 0.843346 0.561286
C19 C 0.2693(8) 0.9126(11) 0.4605(12)
H16 H 0.251915 0.955107 0.503763
C20 C 0.4238(7) 0.7388(12) 0.4634(12)
C21 C 0.4766(6) 0.7282(10) 0.4162(12)
H17 H 0.468307 0.762948 0.355465
C22 C 0.5389(6) 0.6730(11) 0.4484(11)
H18 H 0.571677 0.672498 0.411252
C23 C 0.5517(10) 0.6249(18) 0.5245(14)
C24 C 0.5102(6) 0.6312(10) 0.5886(10)
H19 H 0.524669 0.601297 0.651518
C25 C 0.4474(6) 0.6834(10) 0.5544(11)
H20 H 0.416446 0.683092 0.594299
C26 C 0.6233(3) 0.5600(6) 0.5757(6)
C27 C 0.6579(3) 0.5221(6) 0.5144(7)
H21 H 0.637837 0.530449 0.447079
C28 C 0.7223(3) 0.4710(5) 0.5478(5)
H22 H 0.745959 0.443988 0.503690
C29 C 0.7180(3) 0.4979(7) 0.7066(6)
H23 H 0.738261 0.489241 0.773829
C30 C 0.6546(4) 0.5495(8) 0.6730(8)
H24 H 0.631923 0.578349 0.717519
N1B N 0.9451(2) 0.8774(3) 0.7372(3)
N2B N 0.2487(2) 1.5402(3) 0.3561(4)
C1B C 0.8224(2) 0.4103(4) 0.6783(4)
H1B H 0.825000 0.364234 0.735333
H2B H 0.831787 0.364064 0.627241
C2B C 0.8764(2) 0.5001(4) 0.7044(4)
C3B C 0.8973(3) 0.5410(4) 0.7980(4)
H3B H 0.881921 0.506495 0.847389
C4B C 0.9406(3) 0.6323(4) 0.8197(4)
H4B H 0.954775 0.660223 0.883384
C5B C 0.9628(2) 0.6820(4) 0.7458(4)
C6B C 0.9451(3) 0.6371(4) 0.6538(4)
H5B H 0.962662 0.667996 0.604814
C7B C 0.9015(3) 0.5468(4) 0.6344(4)
H6B H 0.888944 0.516857 0.571392
C8B C 0.9992(3) 0.7905(4) 0.7630(5)
H7B H 1.032286 0.797179 0.722937
H8B H 1.026115 0.797386 0.831376
C9B C 0.9084(4) 0.9037(5) 0.7992(5)
H9B H 0.921880 0.874984 0.862662
C10B C 0.8515(4) 0.9718(5) 0.7720(6)
H10B H 0.825832 0.989043 0.816689
C11B C 0.8310(3) 1.0156(4) 0.6800(5)
C12B C 0.8725(3) 0.9878(4) 0.6174(5)
H11B H 0.861626 1.017042 0.554226
C13B C 0.9271(3) 0.9200(4) 0.6483(4)
H12B H 0.954027 0.901489 0.605515
C14B C 0.7631(11) 1.0884(18) 0.6337(13)
C15B C 0.7342(6) 1.1406(8) 0.6963(10)
H13B H 0.756655 1.135668 0.763257
C16B C 0.6761(7) 1.1979(11) 0.6674(11)
H14B H 0.658955 1.233019 0.714858
C17B C 0.6377(7) 1.2101(10) 0.5694(12)
C18B C 0.6692(7) 1.1519(10) 0.5061(12)
H15B H 0.648112 1.156654 0.438714
C19B C 0.7307(8) 1.0874(11) 0.5395(12)
H16B H 0.748085 1.044893 0.496237
C20B C 0.5762(7) 1.2612(12) 0.5366(12)
C21B C 0.5234(6) 1.2718(10) 0.5838(12)
H17B H 0.531693 1.237052 0.644535
C22B C 0.4611(6) 1.3270(11) 0.5516(11)
H18B H 0.428323 1.327502 0.588748
C23B C 0.4483(10) 1.3751(18) 0.4755(14)
C24B C 0.4898(6) 1.3688(10) 0.4114(10)
H19B H 0.475331 1.398703 0.348482
C25B C 0.5526(6) 1.3166(10) 0.4456(11)
H20B H 0.583554 1.316908 0.405701
C26B C 0.3767(3) 1.4400(6) 0.4243(6)
C27B C 0.3421(3) 1.4779(6) 0.4856(7)
H21B H 0.362163 1.469551 0.552921
C28B C 0.2777(3) 1.5290(5) 0.4522(5)
H22B H 0.254041 1.556012 0.496310
C29B C 0.2820(3) 1.5021(7) 0.2934(6)
H23B H 0.261739 1.510759 0.226171
C30B C 0.3454(4) 1.4505(8) 0.3270(8)
H24B H 0.368077 1.421651 0.282481
C31? C 0.2275(11) 0.9172(18) 0.3373(13)
H25? H 0.244405 0.895236 0.284771
C32? C 0.2614(8) 0.8821(12) 0.4277(13)
H26? H 0.243837 0.898116 0.481046
C33? C 0.3301(8) 0.8145(12) 0.4402(9)
C34? C 0.3477(7) 0.7817(12) 0.3522(13)
H27? H 0.321387 0.801446 0.289035
C35? C 0.4115(7) 0.7141(12) 0.3744(11)
H28? H 0.430249 0.680508 0.327704
C36? C 0.4418(8) 0.7060(14) 0.4787(10)
C37? C 0.4199(7) 0.7272(14) 0.5661(13)
H29? H 0.445245 0.705134 0.628975
C38? C 0.3532(8) 0.7873(12) 0.5429(11)
H30? H 0.328457 0.805984 0.588298
C39? C 0.5029(7) 0.6166(14) 0.4875(13)
H31? H 0.495454 0.561313 0.439975
C40? C 0.5628(10) 0.6153(19) 0.5567(14)
H32? H 0.562838 0.666944 0.605518
loop_
_geom_bond_atom_site_label_1
_geom_bond_atom_site_label_2
_geom_bond_site_symmetry_1
_geom_bond_site_symmetry_2
N1 C8 1_555 1_555
N2 C28 1_555 1_555
C1 H1 1_555 1_555
H2 C1 1_555 1_555
C2 C1 1_555 1_555
C3 C2 1_555 1_555
H3 C3 1_555 1_555
C4 C3 1_555 1_555
H4 C4 1_555 1_555
C5 C4 1_555 1_555
C6 C5 1_555 1_555
H5 C6 1_555 1_555
C7 C2 1_555 1_555
H6 C7 1_555 1_555
C8 C5 1_555 1_555
H7 C8 1_555 1_555
H8 C8 1_555 1_555
C9 N1 1_555 1_555
H9 C9 1_555 1_555
C10 C9 1_555 1_555
H10 C10 1_555 1_555
C11 C10 1_555 1_555
C12 C11 1_555 1_555
H11 C12 1_555 1_555
C13 N1 1_555 1_555
H12 C13 1_555 1_555
C14 C11 1_555 1_555
C15 C14 1_555 1_555
H13 C15 1_555 1_555
C16 C15 1_555 1_555
H14 C16 1_555 1_555
C17 C16 1_555 1_555
C18 C17 1_555 1_555
H15 C18 1_555 1_555
C19 C14 1_555 1_555
H16 C19 1_555 1_555
C20 C17 1_555 1_555
C21 C20 1_555 1_555
H17 C21 1_555 1_555
C22 C21 1_555 1_555
H18 C22 1_555 1_555
C23 C22 1_555 1_555
C24 C23 1_555 1_555
H19 C24 1_555 1_555
C25 C20 1_555 1_555
H20 C25 1_555 1_555
C26 C23 1_555 1_555
C27 C26 1_555 1_555
H21 C27 1_555 1_555
C28 C27 1_555 1_555
H22 C28 1_555 1_555
C29 N2 1_555 1_555
H23 C29 1_555 1_555
C30 C26 1_555 1_555
H24 C30 1_555 1_555
P1 F1 1_555 1_555
F2 P1 1_555 1_555
F3 P1 1_555 1_555
F4 P1 1_555 1_555
F5 P1 1_555 1_555
F6 P1 1_555 1_555
P2 F7 1_555 1_555
F8 P2 1_555 1_555
F9 P2 1_555 1_555
F10 P2 1_555 1_555
F11 P2 1_555 1_555
F12 P2 1_555 1_555
N3 C41 1_555 1_555
C41 C42 1_555 1_555
C42 H33 1_555 1_555
H34 C42 1_555 1_555
H35 C42 1_555 1_555
N1B C8B 1_555 1_555
N2B C1 1_555 1_555
C1B N2 1_555 1_555
H1B C1B 1_555 1_555
H2B C1B 1_555 1_555
C2B C1B 1_555 1_555
C3B C2B 1_555 1_555
H3B C3B 1_555 1_555
C4B C3B 1_555 1_555
H4B C4B 1_555 1_555
C5B C4B 1_555 1_555
C6B C5B 1_555 1_555
H5B C6B 1_555 1_555
C7B C2B 1_555 1_555
H6B C7B 1_555 1_555
C8B C5B 1_555 1_555
H7B C8B 1_555 1_555
H8B C8B 1_555 1_555
C9B N1B 1_555 1_555
H9B C9B 1_555 1_555
C10B C9B 1_555 1_555
H10B C10B 1_555 1_555
C11B C10B 1_555 1_555
C12B C11B 1_555 1_555
H11B C12B 1_555 1_555
C13B N1B 1_555 1_555
H12B C13B 1_555 1_555
C14B C11B 1_555 1_555
C15B C14B 1_555 1_555
H13B C15B 1_555 1_555
C16B C15B 1_555 1_555
H14B C16B 1_555 1_555
C17B C16B 1_555 1_555
C18B C17B 1_555 1_555
H15B C18B 1_555 1_555
C19B C14B 1_555 1_555
H16B C19B 1_555 1_555
C20B C17B 1_555 1_555
C21B C20B 1_555 1_555
H17B C21B 1_555 1_555
C22B C21B 1_555 1_555
H18B C22B 1_555 1_555
C23B C22B 1_555 1_555
C24B C23B 1_555 1_555
H19B C24B 1_555 1_555
C25B C20B 1_555 1_555
H20B C25B 1_555 1_555
C26B C23B 1_555 1_555
C27B C26B 1_555 1_555
H21B C27B 1_555 1_555
C28B N2B 1_555 1_555
H22B C28B 1_555 1_555
C29B N2B 1_555 1_555
H23B C29B 1_555 1_555
C30B C26B 1_555 1_555
H24B C30B 1_555 1_555
C6 C7 1_555 1_555
C12 C13 1_555 1_555
C18 C19 1_555 1_555
C24 C25 1_555 1_555
C29 C30 1_555 1_555
C6B C7B 1_555 1_555
C12B C13B 1_555 1_555
C18B C19B 1_555 1_555
C24B C25B 1_555 1_555
C27B C28B 1_555 1_555
C29B C30B 1_555 1_555

#END
