
#######################################################################
#
#                 Cambridge Crystallographic Data Centre
#                                CCDC 
#
#######################################################################
#
# If this CIF has been generated from an entry in the Cambridge 
# Structural Database, then it will include bibliographic, chemical, 
# crystal, experimental, refinement or atomic coordinate data resulting 
# from the CCDC's data processing and validation procedures.
#
#######################################################################

data_SIRCAA
_chemical_formula_moiety         'C55 H67 N5 O2 Si2'
_chemical_name_systematic        
(\m-[(2,6-dimethylphenyl)imino]ethenylidene)-(\m-9,9-dimethyl-9H-xanthene-4,5-diyl)-(\m-oxido)-bis(N,N'-di-t-butylbenzenecarboximidamido)-di-silicon
_symmetry_cell_setting           orthorhombic
_symmetry_space_group_name_H-M   'P b c a'
_symmetry_Int_Tables_number      61
_space_group_name_Hall           '-P 2ac 2ab'
loop_
_symmetry_equiv_pos_site_id
_symmetry_equiv_pos_as_xyz
1 x,y,z
2 1/2-x,-y,1/2+z
3 1/2+x,1/2-y,-z
4 -x,1/2+y,1/2-z
5 -x,-y,-z
6 1/2+x,y,1/2-z
7 1/2-x,1/2+y,z
8 x,1/2-y,1/2+z
_cell_length_a                   16.9921(3)
_cell_length_b                   21.7092(4)
_cell_length_c                   27.5293(4)
_cell_angle_alpha                90
_cell_angle_beta                 90
_cell_angle_gamma                90
_cell_volume                     10155.1
_exptl_crystal_colour            colorless
_exptl_crystal_description       plate
_cell_formula_units_Z            8
loop_
_atom_site_label
_atom_site_type_symbol
_atom_site_fract_x
_atom_site_fract_y
_atom_site_fract_z
Si1 Si 0.29252(4) 0.58066(3) 0.41570(2)
Si2 Si 0.30749(4) 0.66473(3) 0.34579(2)
O1 O 0.43480(9) 0.58244(7) 0.35981(5)
O2 O 0.26320(9) 0.59532(7) 0.35738(6)
N1 N 0.31010(11) 0.57432(9) 0.48883(7)
N2 N 0.20449(11) 0.55572(9) 0.44797(7)
N3 N 0.23624(12) 0.71357(10) 0.31479(7)
N4 N 0.34722(11) 0.75118(9) 0.33697(7)
N5 N 0.32868(15) 0.74192(10) 0.48087(9)
C1 C 0.42037(14) 0.52133(10) 0.37180(8)
C2 C 0.32323(13) 0.66376(10) 0.41338(8)
C3 C 0.23688(14) 0.55862(10) 0.49342(8)
C4 C 0.35974(14) 0.51177(10) 0.40444(8)
C5 C 0.37680(14) 0.63603(11) 0.29585(8)
C6 C 0.42888(14) 0.59096(11) 0.30987(8)
C7 C 0.28304(14) 0.76448(11) 0.31296(8)
C8 C 0.26566(14) 0.82355(11) 0.28695(9)
C9 C 0.37429(14) 0.57795(12) 0.52528(8)
C10 C 0.46286(14) 0.47623(11) 0.34714(9)
C11 C 0.46993(14) 0.55050(11) 0.28018(9)
C12 C 0.34980(15) 0.45065(11) 0.41927(9)
H1 H 0.3114 0.4409 0.4431
C13 C 0.37318(15) 0.64641(12) 0.24579(9)
H2 H 0.3407 0.6784 0.2335
C14 C 0.19390(14) 0.55122(12) 0.54048(9)
C15 C 0.42068(14) 0.78636(11) 0.34391(10)
C16 C 0.44943(15) 0.41639(11) 0.36233(9)
H3 H 0.4771 0.3834 0.3474
C17 C 0.51488(15) 0.49806(12) 0.30500(9)
C18 C 0.32060(14) 0.70505(12) 0.44737(9)
C19 C 0.39590(15) 0.40404(11) 0.39920(9)
H4 H 0.3906 0.3631 0.4109
C20 C 0.46304(16) 0.56201(13) 0.23047(9)
H5 H 0.4902 0.5367 0.2079
C21 C 0.12566(14) 0.53040(12) 0.43469(9)
C22 C 0.24184(16) 0.87444(13) 0.31283(10)
H6 H 0.2354 0.8716 0.3470
C23 C 0.41663(17) 0.61034(13) 0.21393(9)
H7 H 0.4146 0.6189 0.1801
C24 C 0.15566(15) 0.60255(13) 0.55905(10)
H8 H 0.1541 0.6398 0.5410
C25 C 0.39839(17) 0.51280(13) 0.54008(10)
H9 H 0.3547 0.4929 0.5572
H10 H 0.4443 0.5148 0.5616
H11 H 0.4116 0.4889 0.5110
C26 C 0.44437(15) 0.60873(13) 0.50030(9)
H12 H 0.4557 0.5874 0.4697
H13 H 0.4905 0.6065 0.5216
H14 H 0.4318 0.6520 0.4936
C27 C 0.35175(16) 0.61563(13) 0.57020(9)
H15 H 0.3296 0.6553 0.5600
H16 H 0.3987 0.6228 0.5901
H17 H 0.3126 0.5929 0.5892
C28 C 0.59356(15) 0.52299(13) 0.32525(10)
H18 H 0.5830 0.5568 0.3479
H19 H 0.6261 0.5381 0.2984
H20 H 0.6214 0.4899 0.3423
C29 C 0.4819(2) 0.74076(17) 0.36182(19)
H21 H 0.4621 0.7197 0.3908
H22 H 0.5306 0.7628 0.3698
H23 H 0.4926 0.7104 0.3363
C30 C 0.12764(18) 0.51258(15) 0.38131(10)
H24 H 0.1380 0.5493 0.3616
H25 H 0.0768 0.4948 0.3720
H26 H 0.1694 0.4822 0.3759
C31 C 0.19575(17) 0.49696(13) 0.56726(10)
H27 H 0.2219 0.4616 0.5549
C32 C 0.27508(17) 0.82829(13) 0.23686(9)
H28 H 0.2919 0.7936 0.2185
C33 C 0.53162(19) 0.44541(14) 0.26939(10)
H29 H 0.5593 0.4122 0.2864
H30 H 0.5645 0.4607 0.2427
H31 H 0.4818 0.4297 0.2563
C34 C 0.15415(16) 0.70397(14) 0.29758(11)
C35 C 0.23581(18) 0.93402(14) 0.24036(12)
H32 H 0.2253 0.9718 0.2242
C36 C 0.22702(17) 0.93014(14) 0.28945(11)
H33 H 0.2109 0.9652 0.3076
C37 C 0.25982(19) 0.88354(15) 0.21396(11)
H34 H 0.2659 0.8868 0.1798
C38 C 0.11953(17) 0.59911(17) 0.60450(11)
H35 H 0.0936 0.6343 0.6174
C39 C 0.1068(2) 0.47161(15) 0.46326(11)
H36 H 0.1514 0.4431 0.4611
H37 H 0.0598 0.4520 0.4496
H38 H 0.0972 0.4821 0.4974
C40 C 0.12117(19) 0.54544(19) 0.63067(11)
H39 H 0.0961 0.5433 0.6615
C41 C 0.1589(2) 0.49488(17) 0.61232(11)
H40 H 0.1600 0.4578 0.6306
C42 C 0.2748(2) 0.77176(14) 0.51230(12)
C43 C 0.06059(17) 0.57714(15) 0.44483(12)
H41 H 0.0596 0.5868 0.4796
H42 H 0.0097 0.5598 0.4352
H43 H 0.0706 0.6148 0.4263
C44 C 0.1934(2) 0.77399(15) 0.50354(14)
C45 C 0.1588(2) 0.74558(18) 0.45944(15)
H44 H 0.1682 0.7010 0.4600
H45 H 0.1834 0.7634 0.4305
H46 H 0.1021 0.7535 0.4587
C46 C 0.4066(2) 0.83460(18) 0.38519(18)
H47 H 0.3689 0.8657 0.3740
H48 H 0.4565 0.8546 0.3935
H49 H 0.3854 0.8137 0.4139
C47 C 0.4499(2) 0.8170(3) 0.29896(16)
H50 H 0.4512 0.7871 0.2723
H51 H 0.5030 0.8331 0.3046
H52 H 0.4146 0.8510 0.2904
C48 C 0.3070(3) 0.79974(18) 0.55376(15)
C49 C 0.1452(3) 0.80373(19) 0.53724(18)
H53 H 0.0902 0.8063 0.5315
C50 C 0.2571(4) 0.8275(2) 0.58651(19)
H54 H 0.2787 0.8457 0.6149
C51 C 0.1055(2) 0.6901(2) 0.34377(17)
H55 H 0.1320 0.6582 0.3629
H56 H 0.0530 0.6757 0.3344
H57 H 0.1006 0.7277 0.3633
C52 C 0.1549(3) 0.6445(3) 0.26823(16)
H58 H 0.1892 0.6495 0.2399
H59 H 0.1013 0.6349 0.2574
H60 H 0.1746 0.6108 0.2885
C53 C 0.1770(4) 0.8298(2) 0.5794(2)
H61 H 0.1437 0.8488 0.6028
C54 C 0.3949(3) 0.7985(3) 0.56285(18)
H62 H 0.4131 0.7557 0.5643
H63 H 0.4065 0.8191 0.5937
H64 H 0.4221 0.8200 0.5364
C55 C 0.1166(3) 0.7569(3) 0.2726(3)
H65 H 0.1232 0.7942 0.2924
H66 H 0.0604 0.7486 0.2682
H67 H 0.1415 0.7631 0.2409
C56? C 0.4540(13) 0.7882(9) 0.2914(3)
H68? H 0.4605 0.7460 0.2793
H69? H 0.5052 0.8090 0.2915
H70? H 0.4175 0.8106 0.2703
C57? C 0.1016(9) 0.7580(5) 0.3135(5)
H71? H 0.1123 0.7679 0.3476
H72? H 0.0462 0.7464 0.3098
H73? H 0.1128 0.7940 0.2932
C58? C 0.1527(9) 0.6996(6) 0.24182(19)
H74? H 0.1697 0.7389 0.2278
H75? H 0.0991 0.6903 0.2309
H76? H 0.1883 0.6668 0.2312
C59? C 0.4127(11) 0.8525(4) 0.3619(6)
H77? H 0.3909 0.8783 0.3360
H78? H 0.4646 0.8683 0.3713
H79? H 0.3775 0.8536 0.3901
C60? C 0.4780(10) 0.7503(7) 0.3759(5)
H80? H 0.4623 0.7543 0.4100
H81? H 0.5313 0.7668 0.3717
H82? H 0.4772 0.7068 0.3666
C61? C 0.1154(16) 0.6437(6) 0.3181(5)
H83? H 0.0897 0.6213 0.2916
H84? H 0.0763 0.6546 0.3428
H85? H 0.1561 0.6177 0.3327
loop_
_geom_bond_atom_site_label_1
_geom_bond_atom_site_label_2
_geom_bond_site_symmetry_1
_geom_bond_site_symmetry_2
Si1 O2 1_555 1_555
Si2 O2 1_555 1_555
O1 C1 1_555 1_555
N1 Si1 1_555 1_555
N2 Si1 1_555 1_555
N3 Si2 1_555 1_555
N4 Si2 1_555 1_555
N5 C18 1_555 1_555
C1 C4 1_555 1_555
C2 Si1 1_555 1_555
C3 N1 1_555 1_555
C4 Si1 1_555 1_555
C5 Si2 1_555 1_555
C6 O1 1_555 1_555
C7 N3 1_555 1_555
C8 C7 1_555 1_555
C9 N1 1_555 1_555
C10 C1 1_555 1_555
C11 C6 1_555 1_555
C12 C4 1_555 1_555
H1 C12 1_555 1_555
C13 C5 1_555 1_555
H2 C13 1_555 1_555
C14 C3 1_555 1_555
C15 N4 1_555 1_555
C16 C10 1_555 1_555
H3 C16 1_555 1_555
C17 C10 1_555 1_555
C18 C2 1_555 1_555
C19 C12 1_555 1_555
H4 C19 1_555 1_555
C20 C11 1_555 1_555
H5 C20 1_555 1_555
C21 N2 1_555 1_555
C22 C8 1_555 1_555
H6 C22 1_555 1_555
C23 C13 1_555 1_555
H7 C23 1_555 1_555
C24 C14 1_555 1_555
H8 C24 1_555 1_555
C25 C9 1_555 1_555
H9 C25 1_555 1_555
H10 C25 1_555 1_555
H11 C25 1_555 1_555
C26 C9 1_555 1_555
H12 C26 1_555 1_555
H13 C26 1_555 1_555
H14 C26 1_555 1_555
C27 C9 1_555 1_555
H15 C27 1_555 1_555
H16 C27 1_555 1_555
H17 C27 1_555 1_555
C28 C17 1_555 1_555
H18 C28 1_555 1_555
H19 C28 1_555 1_555
H20 C28 1_555 1_555
C29 C15 1_555 1_555
H21 C29 1_555 1_555
H22 C29 1_555 1_555
H23 C29 1_555 1_555
C30 C21 1_555 1_555
H24 C30 1_555 1_555
H25 C30 1_555 1_555
H26 C30 1_555 1_555
C31 C14 1_555 1_555
H27 C31 1_555 1_555
C32 C8 1_555 1_555
H28 C32 1_555 1_555
C33 C17 1_555 1_555
H29 C33 1_555 1_555
H30 C33 1_555 1_555
H31 C33 1_555 1_555
C34 N3 1_555 1_555
C35 H32 1_555 1_555
C36 C22 1_555 1_555
H33 C36 1_555 1_555
C37 C32 1_555 1_555
H34 C37 1_555 1_555
C38 C24 1_555 1_555
H35 C38 1_555 1_555
C39 C21 1_555 1_555
H36 C39 1_555 1_555
H37 C39 1_555 1_555
H38 C39 1_555 1_555
C40 C38 1_555 1_555
H39 C40 1_555 1_555
C41 C31 1_555 1_555
H40 C41 1_555 1_555
C42 N5 1_555 1_555
C43 C21 1_555 1_555
H41 C43 1_555 1_555
H42 C43 1_555 1_555
H43 C43 1_555 1_555
C44 C42 1_555 1_555
C45 C44 1_555 1_555
H44 C45 1_555 1_555
H45 C45 1_555 1_555
H46 C45 1_555 1_555
C46 C15 1_555 1_555
H47 C46 1_555 1_555
H48 C46 1_555 1_555
H49 C46 1_555 1_555
C47 C15 1_555 1_555
H50 C47 1_555 1_555
H51 C47 1_555 1_555
H52 C47 1_555 1_555
C48 C42 1_555 1_555
C49 C44 1_555 1_555
H53 C49 1_555 1_555
C50 C48 1_555 1_555
H54 C50 1_555 1_555
C51 C34 1_555 1_555
H55 C51 1_555 1_555
H56 C51 1_555 1_555
H57 C51 1_555 1_555
C52 C34 1_555 1_555
H58 C52 1_555 1_555
H59 C52 1_555 1_555
H60 C52 1_555 1_555
C53 C49 1_555 1_555
H61 C53 1_555 1_555
C54 C48 1_555 1_555
H62 C54 1_555 1_555
H63 C54 1_555 1_555
H64 C54 1_555 1_555
C55 C34 1_555 1_555
H65 C55 1_555 1_555
H66 C55 1_555 1_555
H67 C55 1_555 1_555
Si2 C2 1_555 1_555
N2 C3 1_555 1_555
N4 C7 1_555 1_555
C5 C6 1_555 1_555
C11 C17 1_555 1_555
C16 C19 1_555 1_555
C20 C23 1_555 1_555
C35 C36 1_555 1_555
C35 C37 1_555 1_555
C40 C41 1_555 1_555
C50 C53 1_555 1_555

#END
