
#######################################################################
#
#                 Cambridge Crystallographic Data Centre
#                                CCDC 
#
#######################################################################
#
# If this CIF has been generated from an entry in the Cambridge 
# Structural Database, then it will include bibliographic, chemical, 
# crystal, experimental, refinement or atomic coordinate data resulting 
# from the CCDC's data processing and validation procedures.
#
#######################################################################

data_SIRCUU
_chemical_formula_moiety         
'C58 H48 N4 4+,4(F6 P1 1-),4(C2 H3 N1),2(C14 H10)'
_chemical_name_systematic        
'13,20,35,42-tetraazadecacyclo[40.2.2.2^2,5^.2^6,9^.2^10,13^.2^15,18^.2^20,23^.2^26,29^.2^32,35^.2^37,40^]dohexaconta-1(44),2,4,6,8,10,12,15,17,20,22,24,26,28,30,32,34,37,39,42,45,47,49,51,53,55,57,59,61-nonacosaene-13,20,35,42-tetraium bis(anthracene) tetrakis(hexafluorophosphate) acetonitrile solvate'
_symmetry_cell_setting           triclinic
_symmetry_space_group_name_H-M   'P -1'
_symmetry_Int_Tables_number      2
_space_group_name_Hall           '-P 1'
loop_
_symmetry_equiv_pos_site_id
_symmetry_equiv_pos_as_xyz
1 x,y,z
2 -x,-y,-z
_cell_length_a                   10.3102(7)
_cell_length_b                   11.1967(8)
_cell_length_c                   21.5627(15)
_cell_angle_alpha                79.7093(16)
_cell_angle_beta                 86.3983(16)
_cell_angle_gamma                64.3662(16)
_cell_volume                     2207.82
_exptl_crystal_colour            orange
_exptl_crystal_description       block
_cell_formula_units_Z            1
loop_
_atom_site_label
_atom_site_type_symbol
_atom_site_fract_x
_atom_site_fract_y
_atom_site_fract_z
C31 C 0.5130(4) 0.5005(4) 0.93459(18)
C32 C 0.5266(4) 0.5060(5) 0.8677(2)
H25 H 0.531835 0.432416 0.849818
C33 C 0.5321(5) 0.6129(6) 0.8296(2)
H26 H 0.539766 0.614202 0.785332
C34 C 0.5266(5) 0.7227(6) 0.8547(3)
H27 H 0.530535 0.797474 0.827234
C35 C 0.5155(4) 0.7232(5) 0.9184(3)
H28 H 0.513643 0.797482 0.934544
C36 C 0.5068(4) 0.6134(4) 0.9607(2)
C37 C 0.4945(4) 0.6081(4) 1.0257(2)
H29 H 0.491208 0.681204 1.043396
C31A C 0.4870(4) 0.4995(4) 1.06541(18)
C32A C 0.4734(4) 0.4940(5) 1.1323(2)
H25A H 0.468165 0.567584 1.150182
C33A C 0.4679(5) 0.3871(6) 1.1704(2)
H26A H 0.460234 0.385798 1.214668
C34A C 0.4734(5) 0.2773(6) 1.1453(3)
H27A H 0.469465 0.202526 1.172766
C35A C 0.4845(4) 0.2768(5) 1.0816(3)
H28A H 0.486357 0.202518 1.065456
C36A C 0.4932(4) 0.3866(4) 1.0393(2)
C37A C 0.5055(4) 0.3919(4) 0.9743(2)
H29A H 0.508792 0.318796 0.956604
P1 P 0.57719(9) 0.42374(10) 0.67356(4)
F1 F 0.6939(4) 0.2787(4) 0.6720(2)
F2 F 0.4561(3) 0.5753(4) 0.6731(2)
F3 F 0.6914(4) 0.4642(4) 0.6990(2)
F4 F 0.5266(3) 0.3927(3) 0.74290(11)
F5 F 0.4598(4) 0.3873(6) 0.64864(19)
F6 F 0.6208(4) 0.4621(5) 0.60283(15)
P2 P 0.61767(9) 0.90579(8) 0.63060(4)
F7 F 0.7275(3) 0.8514(3) 0.68934(12)
F8 F 0.5065(2) 0.9593(2) 0.57255(9)
F9 F 0.5747(12) 1.0556(6) 0.6401(3)
F10 F 0.4952(5) 0.9006(8) 0.67989(17)
F11 F 0.6640(5) 0.7542(4) 0.6251(3)
F12 F 0.7451(6) 0.9069(9) 0.5877(2)
N3 N 0.4911(12) 0.1376(12) 0.8909(4)
C38 C 0.4969(12) 0.1274(8) 0.8397(4)
C39 C 0.4906(18) 0.1165(9) 0.7768(4)
H30 H 0.471811 0.203063 0.750144
H31 H 0.412981 0.091135 0.770786
H32 H 0.582396 0.047670 0.765260
N4 N 0.7681(3) 0.2352(3) 0.46856(13)
C40 C 0.6532(4) 0.2609(3) 0.48343(13)
C41 C 0.5079(4) 0.2903(4) 0.50388(17)
H33 H 0.505621 0.276267 0.550038
H34 H 0.475265 0.230558 0.488387
H35 H 0.444232 0.383949 0.487061
N1 N 1.0467(2) 0.5619(2) 0.69594(10)
N2 N 0.9154(3) -0.0325(2) 1.40248(11)
C1 C 1.0939(3) 0.1192(3) 0.53789(12)
H1 H 1.014724 0.138023 0.508542
H2 H 1.186584 0.073379 0.517151
C2 C 1.0826(3) 0.2490(3) 0.55480(11)
C3 C 0.9494(3) 0.3585(3) 0.55570(12)
H3 H 0.865672 0.355361 0.541632
C4 C 0.9384(3) 0.4726(3) 0.57708(12)
H4 H 0.847110 0.546832 0.577660
C5 C 1.0595(3) 0.4782(3) 0.59747(11)
C6 C 1.1933(3) 0.3698(3) 0.59493(14)
H5 H 1.277440 0.373623 0.608031
C7 C 1.2041(3) 0.2564(3) 0.57340(15)
H6 H 1.295753 0.183296 0.571451
C8 C 1.0484(3) 0.5964(3) 0.62595(12)
H7 H 1.131439 0.616907 0.613152
H8 H 0.959161 0.676741 0.610693
C9 C 0.9289(3) 0.5535(3) 0.72341(13)
H9 H 0.845355 0.579167 0.698499
C10 C 0.9286(4) 0.5086(3) 0.78663(14)
H10 H 0.844530 0.503675 0.805124
C11 C 1.0497(5) 0.4699(3) 0.82434(14)
C12 C 1.1673(5) 0.4828(4) 0.79446(18)
H11 H 1.251202 0.460245 0.818544
C13 C 1.1646(3) 0.5278(3) 0.73067(16)
H12 H 1.246861 0.534618 0.711120
C14 C 1.0209(9) 0.4170(6) 0.8934(3)
C15 C 0.8900(7) 0.4451(7) 0.9223(3)
H13 H 0.803607 0.500089 0.898695
C16 C 0.8829(6) 0.3945(7) 0.9847(3)
H14 H 0.790990 0.417298 1.003217
C17 C 1.0048(7) 0.3114(7) 1.0220(3)
C18 C 1.1384(8) 0.2872(8) 0.9936(3)
H15 H 1.224402 0.234518 1.017777
C19 C 1.1469(7) 0.3387(7) 0.9308(3)
H16 H 1.238414 0.321300 0.912775
C20 C 0.9920(7) 0.2572(6) 1.0886(3)
C21 C 0.8709(6) 0.2373(7) 1.1079(3)
H17 H 0.796347 0.259327 1.078237
C22 C 0.8575(6) 0.1854(6) 1.1704(3)
H18 H 0.774548 0.171233 1.183040
C23 C 0.9665(10) 0.1538(8) 1.2148(4)
C24 C 1.0881(9) 0.1708(6) 1.1950(3)
H19 H 1.163833 0.146967 1.224320
C25 C 1.1011(8) 0.2226(6) 1.1325(3)
H20 H 1.185199 0.234343 1.119632
C26 C 0.9328(4) 0.1015(3) 1.28362(15)
C27 C 0.7999(4) 0.1221(3) 1.31115(17)
H21 H 0.713429 0.183579 1.288978
C28 C 0.7937(4) 0.0535(3) 1.37040(15)
H22 H 0.702985 0.067094 1.388549
C29 C 1.0445(3) -0.0498(3) 1.37842(14)
H23 H 1.129266 -0.108209 1.402478
C30 C 1.0556(4) 0.0159(4) 1.31947(15)
H24 H 1.147784 0.002550 1.303199
N1A N 0.9533(2) -0.5619(2) 1.30406(10)
N2A N 1.0846(3) 0.0325(2) 0.59752(11)
C1A C 0.9061(3) -0.1192(3) 1.46211(12)
H1A H 0.985276 -0.138023 1.491458
H2A H 0.813416 -0.073379 1.482849
C2A C 0.9174(3) -0.2490(3) 1.44520(11)
C3A C 1.0506(3) -0.3585(3) 1.44430(12)
H3A H 1.134328 -0.355361 1.458368
C4A C 1.0616(3) -0.4726(3) 1.42292(12)
H4A H 1.152890 -0.546832 1.422340
C5A C 0.9405(3) -0.4782(3) 1.40253(11)
C6A C 0.8067(3) -0.3698(3) 1.40507(14)
H5A H 0.722560 -0.373623 1.391969
C7A C 0.7959(3) -0.2564(3) 1.42660(15)
H6A H 0.704247 -0.183296 1.428549
C8A C 0.9516(3) -0.5964(3) 1.37405(12)
H7A H 0.868561 -0.616907 1.386848
H8A H 1.040839 -0.676741 1.389307
C9A C 1.0711(3) -0.5535(3) 1.27659(13)
H9A H 1.154645 -0.579167 1.301501
C10A C 1.0714(4) -0.5086(3) 1.21337(14)
H10A H 1.155470 -0.503675 1.194876
C11A C 0.9503(5) -0.4699(3) 1.17566(14)
C12A C 0.8327(5) -0.4828(4) 1.20554(18)
H11A H 0.748798 -0.460245 1.181456
C13A C 0.8354(3) -0.5278(3) 1.26933(16)
H12A H 0.753139 -0.534618 1.288880
C14A C 0.9791(9) -0.4170(6) 1.1066(3)
C15A C 1.1100(7) -0.4451(7) 1.0777(3)
H13A H 1.196393 -0.500089 1.101305
C16A C 1.1171(6) -0.3945(7) 1.0153(3)
H14A H 1.209010 -0.417298 0.996783
C17A C 0.9952(7) -0.3114(7) 0.9780(3)
C18A C 0.8616(8) -0.2872(8) 1.0064(3)
H15A H 0.775598 -0.234518 0.982223
C19A C 0.8531(7) -0.3387(7) 1.0692(3)
H16A H 0.761586 -0.321300 1.087225
C20A C 1.0080(7) -0.2572(6) 0.9114(3)
C21A C 1.1291(6) -0.2373(7) 0.8921(3)
H17A H 1.203653 -0.259327 0.921763
C22A C 1.1425(6) -0.1854(6) 0.8296(3)
H18A H 1.225452 -0.171233 0.816960
C23A C 1.0335(10) -0.1538(8) 0.7852(4)
C24A C 0.9119(9) -0.1708(6) 0.8050(3)
H19A H 0.836167 -0.146967 0.775680
C25A C 0.8989(8) -0.2226(6) 0.8675(3)
H20A H 0.814801 -0.234343 0.880368
C26A C 1.0672(4) -0.1015(3) 0.71638(15)
C27A C 1.2001(4) -0.1221(3) 0.68885(17)
H21A H 1.286571 -0.183579 0.711022
C28A C 1.2063(4) -0.0535(3) 0.62960(15)
H22A H 1.297015 -0.067094 0.611451
C29A C 0.9555(3) 0.0498(3) 0.62158(14)
H23A H 0.870734 0.108209 0.597522
C30A C 0.9444(4) -0.0159(4) 0.68053(15)
H24A H 0.852216 -0.002550 0.696801
C42? C 1.0899(10) 0.4194(6) 0.8894(3)
H36? H 1.183692 0.395444 0.904962
C43? C 0.9876(10) 0.4089(7) 0.9260(4)
H37? H 0.894818 0.441790 0.907290
C44? C 1.0041(8) 0.3496(7) 0.9943(4)
C45? C 0.8811(7) 0.3509(7) 1.0234(3)
H38? H 0.793083 0.390271 1.000079
C46? C 0.8840(8) 0.2954(7) 1.0866(3)
H39? H 0.797910 0.297987 1.106267
C47? C 1.0137(8) 0.2353(6) 1.1216(4)
C48? C 1.1368(7) 0.2328(7) 1.0913(3)
H40? H 1.225856 0.191446 1.113897
C49? C 1.1320(7) 0.2898(7) 1.0282(4)
H41? H 1.217654 0.287656 1.008249
C50? C 1.0211(10) 0.1741(7) 1.1875(3)
H42? H 1.113268 0.129092 1.207554
C51? C 0.9080(10) 0.1764(10) 1.2220(5)
H43? H 0.812884 0.227420 1.205444
C52? C 1.017(2) 0.212(2) 0.7416(13)
H44? H 0.983835 0.255991 0.700033
C53? C 0.934(4) 0.198(4) 0.7979(13)
H45? H 0.842495 0.273201 0.796006
C54? C 0.952(3) 0.102(3) 0.8561(9)
C55? C 0.841(2) 0.109(3) 0.9029(13)
H46? H 0.740551 0.157834 0.893449
C56? C 0.897(3) 0.032(4) 0.9657(12)
C57? C 0.794(4) 0.011(4) 1.0118(17)
H47? H 0.699395 0.068538 0.995524
C58? C 0.781(4) -0.064(4) 1.0735(15)
H48? H 0.706067 -0.087068 1.090822
C59? C 0.922(4) -0.092(4) 1.099(2)
H49? H 0.939164 -0.125669 1.143179
C60? C 1.038(5) -0.073(4) 1.0624(13)
H50? H 1.122332 -0.093297 1.085703
C61? C 1.042(3) -0.025(4) 0.9941(12)
C62? C 1.151(3) -0.017(4) 0.9482(13)
H51? H 1.249928 -0.052184 0.959637
C63? C 1.098(3) 0.049(4) 0.8836(11)
C64? C 1.190(3) 0.063(3) 0.8305(12)
H52? H 1.289819 0.010126 0.840501
C65? C 1.166(3) 0.139(2) 0.7658(13)
H53? H 1.244171 0.140345 0.740493
F13? F 0.539(3) 0.298(3) 0.6673(10)
F14? F 0.633(2) 0.515(2) 0.6755(12)
F15? F 0.712(2) 0.281(2) 0.7127(12)
F16? F 0.4404(15) 0.516(2) 0.6404(8)
F17? F 0.524(2) 1.0231(15) 0.6602(6)
F18? F 0.5476(12) 0.8119(13) 0.6573(6)
F19? F 0.7141(11) 0.7891(10) 0.5882(7)
F20? F 0.6954(13) 0.9922(14) 0.5888(5)
C66? C 0.9423(18) 0.186(2) 0.7906(11)
H54? H 0.899365 0.225388 0.749894
C67? C 0.856(2) 0.1653(14) 0.8446(8)
H55? H 0.755243 0.193806 0.841833
C68? C 0.9400(17) 0.0964(17) 0.9034(9)
C69? C 0.856(2) 0.0668(18) 0.9563(9)
H56? H 0.754884 0.102344 0.950532
C70? C 0.918(2) -0.0146(19) 1.0181(11)
C71? C 0.838(3) -0.048(2) 1.0724(11)
H57? H 0.738853 -0.022580 1.065963
C72? C 0.900(2) -0.116(2) 1.1357(13)
H58? H 0.848255 -0.136197 1.170898
C73? C 1.054(2) -0.148(2) 1.1357(14)
H59? H 1.103217 -0.191273 1.174896
C74? C 1.142(3) -0.124(2) 1.0833(11)
H60? H 1.242528 -0.153867 1.089222
C75? C 1.073(2) -0.052(3) 1.0219(11)
C76? C 1.163(3) -0.021(2) 0.9717(9)
H61? H 1.262098 -0.046139 0.979084
C77? C 1.0954(17) 0.0483(19) 0.9100(9)
C78? C 1.183(2) 0.0754(19) 0.8578(8)
H62? H 1.282740 0.050919 0.860877
C79? C 1.096(2) 0.1449(14) 0.8007(10)
H63? H 1.145284 0.166391 0.765104
loop_
_geom_bond_atom_site_label_1
_geom_bond_atom_site_label_2
_geom_bond_site_symmetry_1
_geom_bond_site_symmetry_2
N1 C8 1_555 1_555
N2 C28 1_555 1_555
C1 H1 1_555 1_555
H2 C1 1_555 1_555
C2 C1 1_555 1_555
C3 C2 1_555 1_555
H3 C3 1_555 1_555
C4 C3 1_555 1_555
H4 C4 1_555 1_555
C5 C4 1_555 1_555
C6 C5 1_555 1_555
H5 C6 1_555 1_555
C7 C2 1_555 1_555
H6 C7 1_555 1_555
C8 C5 1_555 1_555
H7 C8 1_555 1_555
H8 C8 1_555 1_555
C9 N1 1_555 1_555
H9 C9 1_555 1_555
C10 C9 1_555 1_555
H10 C10 1_555 1_555
C11 C10 1_555 1_555
C12 C11 1_555 1_555
H11 C12 1_555 1_555
C13 N1 1_555 1_555
H12 C13 1_555 1_555
C14 C11 1_555 1_555
C15 C14 1_555 1_555
H13 C15 1_555 1_555
C16 C15 1_555 1_555
H14 C16 1_555 1_555
C17 C16 1_555 1_555
C18 C17 1_555 1_555
H15 C18 1_555 1_555
C19 C14 1_555 1_555
H16 C19 1_555 1_555
C20 C17 1_555 1_555
C21 C20 1_555 1_555
H17 C21 1_555 1_555
C22 C21 1_555 1_555
H18 C22 1_555 1_555
C23 C22 1_555 1_555
C24 C23 1_555 1_555
H19 C24 1_555 1_555
C25 C20 1_555 1_555
H20 C25 1_555 1_555
C26 C23 1_555 1_555
C27 C26 1_555 1_555
H21 C27 1_555 1_555
C28 C27 1_555 1_555
H22 C28 1_555 1_555
C29 N2 1_555 1_555
H23 C29 1_555 1_555
C30 C26 1_555 1_555
H24 C30 1_555 1_555
C31 C32 1_555 1_555
C32 H25 1_555 1_555
C33 C32 1_555 1_555
H26 C33 1_555 1_555
C34 C33 1_555 1_555
H27 C34 1_555 1_555
C35 C34 1_555 1_555
H28 C35 1_555 1_555
C36 C31 1_555 1_555
C37 C36 1_555 1_555
H29 C37 1_555 1_555
P1 F1 1_555 1_555
F2 P1 1_555 1_555
F3 P1 1_555 1_555
F4 P1 1_555 1_555
F5 P1 1_555 1_555
F6 P1 1_555 1_555
P2 F7 1_555 1_555
F8 P2 1_555 1_555
F9 P2 1_555 1_555
F10 P2 1_555 1_555
F11 P2 1_555 1_555
F12 P2 1_555 1_555
N3 C38 1_555 1_555
C38 C39 1_555 1_555
C39 H30 1_555 1_555
H31 C39 1_555 1_555
H32 C39 1_555 1_555
N4 C40 1_555 1_555
C40 C41 1_555 1_555
C41 H33 1_555 1_555
H34 C41 1_555 1_555
H35 C41 1_555 1_555
N1A C8A 1_555 1_555
N2A C1 1_555 1_555
C1A N2 1_555 1_555
H1A C1A 1_555 1_555
H2A C1A 1_555 1_555
C2A C1A 1_555 1_555
C3A C2A 1_555 1_555
H3A C3A 1_555 1_555
C4A C3A 1_555 1_555
H4A C4A 1_555 1_555
C5A C4A 1_555 1_555
C6A C5A 1_555 1_555
H5A C6A 1_555 1_555
C7A C2A 1_555 1_555
H6A C7A 1_555 1_555
C8A C5A 1_555 1_555
H7A C8A 1_555 1_555
H8A C8A 1_555 1_555
C9A N1A 1_555 1_555
H9A C9A 1_555 1_555
C10A C9A 1_555 1_555
H10A C10A 1_555 1_555
C11A C10A 1_555 1_555
C12A C11A 1_555 1_555
H11A C12A 1_555 1_555
C13A N1A 1_555 1_555
H12A C13A 1_555 1_555
C14A C11A 1_555 1_555
C15A C14A 1_555 1_555
H13A C15A 1_555 1_555
C16A C15A 1_555 1_555
H14A C16A 1_555 1_555
C17A C16A 1_555 1_555
C18A C17A 1_555 1_555
H15A C18A 1_555 1_555
C19A C14A 1_555 1_555
H16A C19A 1_555 1_555
C20A C17A 1_555 1_555
C21A C20A 1_555 1_555
H17A C21A 1_555 1_555
C22A C21A 1_555 1_555
H18A C22A 1_555 1_555
C23A C22A 1_555 1_555
C24A C23A 1_555 1_555
H19A C24A 1_555 1_555
C25A C20A 1_555 1_555
H20A C25A 1_555 1_555
C26A C23A 1_555 1_555
C27A C26A 1_555 1_555
H21A C27A 1_555 1_555
C28A N2A 1_555 1_555
H22A C28A 1_555 1_555
C29A N2A 1_555 1_555
H23A C29A 1_555 1_555
C30A C26A 1_555 1_555
H24A C30A 1_555 1_555
C31A C37 1_555 1_555
C32A C31A 1_555 1_555
H25A C32A 1_555 1_555
C33A C32A 1_555 1_555
H26A C33A 1_555 1_555
C34A C33A 1_555 1_555
H27A C34A 1_555 1_555
C35A C34A 1_555 1_555
H28A C35A 1_555 1_555
C36A C31A 1_555 1_555
C37A C31 1_555 1_555
H29A C37A 1_555 1_555
C6 C7 1_555 1_555
C12 C13 1_555 1_555
C18 C19 1_555 1_555
C24 C25 1_555 1_555
C29 C30 1_555 1_555
C35 C36 1_555 1_555
C6A C7A 1_555 1_555
C12A C13A 1_555 1_555
C18A C19A 1_555 1_555
C24A C25A 1_555 1_555
C27A C28A 1_555 1_555
C29A C30A 1_555 1_555
C35A C36A 1_555 1_555
C36A C37A 1_555 1_555

#END
