
#######################################################################
#
#                 Cambridge Crystallographic Data Centre
#                                CCDC 
#
#######################################################################
#
# If this CIF has been generated from an entry in the Cambridge 
# Structural Database, then it will include bibliographic, chemical, 
# crystal, experimental, refinement or atomic coordinate data resulting 
# from the CCDC's data processing and validation procedures.
#
#######################################################################

data_SIRDEF
_chemical_formula_moiety         'C58 H48 N4 4+,4(F6 P1 1-),C14 H8 O2'
_chemical_name_systematic        
'13,20,35,42-tetraazadecacyclo[40.2.2.2^2,5^.2^6,9^.2^10,13^.2^15,18^.2^20,23^.2^26,29^.2^32,35^.2^37,40^]dohexaconta-1(44),2,4,6,8,10,12,15,17,20,22,24,26,28,30,32,34,37,39,42,45,47,49,51,53,55,57,59,61-nonacosaene-13,20,35,42-tetraium anthracene-9,10-dione tetrakis(hexafluorophosphate)'
_symmetry_cell_setting           monoclinic
_symmetry_space_group_name_H-M   'P 21/c'
_symmetry_Int_Tables_number      14
_space_group_name_Hall           '-P 2ybc'
loop_
_symmetry_equiv_pos_site_id
_symmetry_equiv_pos_as_xyz
1 x,y,z
2 -x,1/2+y,1/2-z
3 -x,-y,-z
4 x,1/2-y,1/2+z
_cell_length_a                   19.8606(11)
_cell_length_b                   12.2479(6)
_cell_length_c                   14.4094(9)
_cell_angle_alpha                90
_cell_angle_beta                 105.310(4)
_cell_angle_gamma                90
_cell_volume                     3380.7
_exptl_crystal_colour            yellow
_exptl_crystal_description       needle
_cell_formula_units_Z            2
loop_
_atom_site_label
_atom_site_type_symbol
_atom_site_fract_x
_atom_site_fract_y
_atom_site_fract_z
O1 O 0.5594(5) 0.4515(9) 0.3581(6)
C41 C 0.4639(3) 0.5276(7) 0.4018(5)
C42 C 0.4310(5) 0.5554(8) 0.3071(5)
H33 H 0.451815 0.536548 0.257036
C43 C 0.3677(4) 0.6109(8) 0.2858(5)
H34 H 0.345258 0.629902 0.221164
C44 C 0.3373(3) 0.6385(6) 0.3592(7)
H35 H 0.294074 0.676368 0.344600
C45 C 0.3702(4) 0.6106(7) 0.4538(6)
H36 H 0.349447 0.629480 0.503908
C46 C 0.4335(4) 0.5552(7) 0.4751(4)
C47 C 0.5335(5) 0.4724(9) 0.4255(7)
O1B O 0.4406(5) 0.5485(9) 0.6419(6)
C41B C 0.5361(3) 0.4724(7) 0.5982(5)
C42B C 0.5690(5) 0.4446(8) 0.6929(5)
H33B H 0.548185 0.463452 0.742964
C43B C 0.6323(4) 0.3891(8) 0.7142(5)
H34B H 0.654742 0.370098 0.778836
C44B C 0.6627(3) 0.3615(6) 0.6408(7)
H35B H 0.705926 0.323632 0.655400
C45B C 0.6298(4) 0.3894(7) 0.5462(6)
H36B H 0.650553 0.370520 0.496092
C46B C 0.5665(4) 0.4448(7) 0.5249(4)
C47B C 0.4665(5) 0.5276(9) 0.5745(7)
P1 P 0.11873(7) 0.26099(10) 0.05382(10)
F1 F 0.12177(17) 0.2340(2) -0.0534(2)
F2 F 0.05977(18) 0.1699(3) 0.0459(2)
F3 F 0.11629(17) 0.2873(2) 0.1619(2)
F4 F 0.17768(19) 0.3524(3) 0.0623(2)
F5 F 0.05976(19) 0.3497(3) 0.0129(2)
F6 F 0.17759(18) 0.1707(3) 0.0942(2)
P2 P 0.22511(11) 0.74282(15) 0.57081(14)
F7 F 0.2298(3) 0.6122(3) 0.5705(3)
F8 F 0.1427(2) 0.7344(4) 0.5377(3)
F9 F 0.2198(3) 0.8724(3) 0.5725(3)
F10 F 0.3079(3) 0.7510(5) 0.6024(5)
F11 F 0.2263(3) 0.7466(4) 0.4600(4)
F12 F 0.2234(2) 0.7399(3) 0.6810(3)
N1 N 0.0549(2) 0.6192(3) 0.2636(3)
N2 N 0.7518(2) -0.0348(3) 0.6506(3)
C1 C 0.1782(2) 1.0844(4) 0.3153(4)
H1 H 0.176320 1.130035 0.257908
H2 H 0.169110 1.132079 0.366124
C2 C 0.1238(2) 0.9976(4) 0.2904(3)
C3 C 0.0984(3) 0.9511(4) 0.3631(3)
H3 H 0.111017 0.981871 0.425883
C4 C 0.0549(3) 0.8603(4) 0.3444(3)
H4 H 0.037693 0.829101 0.394004
C5 C 0.0369(2) 0.8155(4) 0.2525(4)
C6 C 0.0586(3) 0.8648(4) 0.1791(3)
H5 H 0.043717 0.836339 0.115590
C7 C 0.1021(3) 0.9556(4) 0.1975(3)
H6 H 0.116998 0.988946 0.146740
C8 C 0.0011(3) 0.7047(4) 0.2364(4)
H7 H -0.032524 0.698307 0.276000
H8 H -0.024765 0.696454 0.167889
C9 C 0.0713(3) 0.5764(4) 0.3534(4)
H9 H 0.043769 0.594844 0.395923
C10 C 0.1260(3) 0.5083(4) 0.3837(4)
H10 H 0.135906 0.478747 0.446885
C11 C 0.1685(3) 0.4802(4) 0.3238(4)
C12 C 0.1495(4) 0.5240(4) 0.2304(5)
H11 H 0.175625 0.505856 0.186000
C13 C 0.0943(4) 0.5920(5) 0.2037(4)
H12 H 0.082691 0.621750 0.140601
C14 C 0.2331(8) 0.4108(13) 0.3677(10)
C15 C 0.2709(7) 0.4072(12) 0.4650(9)
H13 H 0.254732 0.448630 0.510484
C16 C 0.3291(6) 0.3471(10) 0.4958(9)
H14 H 0.350065 0.345213 0.563161
C17 C 0.3604(5) 0.2893(9) 0.4391(8)
C18 C 0.3255(5) 0.2988(9) 0.3386(8)
H15 H 0.345210 0.263147 0.293455
C19 C 0.2659(5) 0.3562(7) 0.3053(7)
H16 H 0.245488 0.359947 0.237842
C20 C 0.4266(6) 0.2319(9) 0.4715(9)
C21 C 0.4470(6) 0.1868(10) 0.5640(9)
H17 H 0.416369 0.192129 0.604481
C22 C 0.5094(6) 0.1356(10) 0.5974(9)
H18 H 0.520908 0.104508 0.659972
C23 C 0.5578(7) 0.1276(9) 0.5405(10)
C24 C 0.5380(6) 0.1692(10) 0.4504(10)
H19 H 0.568369 0.163639 0.409518
C25 C 0.4736(6) 0.2201(9) 0.4174(10)
H20 H 0.461356 0.248403 0.353721
C26 C 0.6237(3) 0.0658(5) 0.5842(6)
C27 C 0.6561(4) 0.0570(8) 0.6819(7)
H21 H 0.633506 0.085282 0.727171
C28 C 0.7199(3) 0.0086(6) 0.7139(6)
H22 H 0.741963 0.005396 0.780922
C29 C 0.7217(3) -0.0268(5) 0.5552(5)
H23 H 0.744726 -0.056142 0.510775
C30 C 0.6577(3) 0.0238(6) 0.5216(6)
H24 H 0.637290 0.029348 0.454317
N1B N 0.9451(2) 0.3808(3) 0.7364(3)
N2B N 0.2482(2) 1.0348(3) 0.3494(3)
C1B C 0.8218(2) -0.0844(4) 0.6847(4)
H1B H 0.823680 -0.130035 0.742092
H2B H 0.830890 -0.132079 0.633876
C2B C 0.8762(2) 0.0024(4) 0.7096(3)
C3B C 0.9016(3) 0.0489(4) 0.6369(3)
H3B H 0.888983 0.018129 0.574117
C4B C 0.9451(3) 0.1397(4) 0.6556(3)
H4B H 0.962307 0.170899 0.605996
C5B C 0.9631(2) 0.1845(4) 0.7475(4)
C6B C 0.9414(3) 0.1352(4) 0.8209(3)
H5B H 0.956283 0.163661 0.884410
C7B C 0.8979(3) 0.0444(4) 0.8025(3)
H6B H 0.883002 0.011054 0.853260
C8B C 0.9989(3) 0.2953(4) 0.7636(4)
H7B H 1.032524 0.301693 0.724000
H8B H 1.024765 0.303546 0.832111
C9B C 0.9287(3) 0.4236(4) 0.6466(4)
H9B H 0.956231 0.405156 0.604077
C10B C 0.8740(3) 0.4917(4) 0.6163(4)
H10B H 0.864094 0.521253 0.553115
C11B C 0.8315(3) 0.5198(4) 0.6762(4)
C12B C 0.8505(4) 0.4760(4) 0.7696(5)
H11B H 0.824375 0.494144 0.814000
C13B C 0.9057(4) 0.4080(5) 0.7963(4)
H12B H 0.917309 0.378250 0.859399
C14B C 0.7669(8) 0.5892(13) 0.6323(10)
C15B C 0.7291(7) 0.5928(12) 0.5350(9)
H13B H 0.745268 0.551370 0.489516
C16B C 0.6709(6) 0.6529(10) 0.5042(9)
H14B H 0.649935 0.654787 0.436839
C17B C 0.6396(5) 0.7107(9) 0.5609(8)
C18B C 0.6745(5) 0.7012(9) 0.6614(8)
H15B H 0.654790 0.736853 0.706545
C19B C 0.7341(5) 0.6438(7) 0.6947(7)
H16B H 0.754512 0.640053 0.762158
C20B C 0.5734(6) 0.7681(9) 0.5285(9)
C21B C 0.5530(6) 0.8132(10) 0.4360(9)
H17B H 0.583631 0.807871 0.395519
C22B C 0.4906(6) 0.8644(10) 0.4026(9)
H18B H 0.479092 0.895492 0.340028
C23B C 0.4422(7) 0.8724(9) 0.4595(10)
C24B C 0.4620(6) 0.8308(10) 0.5496(10)
H19B H 0.431631 0.836361 0.590482
C25B C 0.5264(6) 0.7799(9) 0.5826(10)
H20B H 0.538644 0.751597 0.646279
C26B C 0.3763(3) 0.9342(5) 0.4158(6)
C27B C 0.3439(4) 0.9430(8) 0.3181(7)
H21B H 0.366494 0.914718 0.272829
C28B C 0.2801(3) 0.9914(6) 0.2861(6)
H22B H 0.258037 0.994604 0.219078
C29B C 0.2783(3) 1.0268(5) 0.4448(5)
H23B H 0.255274 1.056142 0.489225
C30B C 0.3423(3) 0.9762(6) 0.4784(6)
H24B H 0.362710 0.970652 0.545683
C31? C 0.2295(13) 0.409(2) 0.3344(17)
H25? H 0.245545 0.384271 0.281627
C32? C 0.2595(11) 0.3845(17) 0.4234(17)
H26? H 0.244477 0.405774 0.478164
C33? C 0.3238(5) 0.3141(10) 0.4236(11)
C34? C 0.3559(7) 0.2909(12) 0.5195(10)
H27? H 0.335455 0.315240 0.568487
C35? C 0.4179(7) 0.2319(12) 0.5438(9)
H28? H 0.439821 0.216014 0.609361
C36? C 0.4478(5) 0.1962(11) 0.4722(11)
C37? C 0.4157(6) 0.2195(11) 0.3763(10)
H29? H 0.436097 0.195107 0.327338
C38? C 0.3537(6) 0.2784(11) 0.3520(9)
H30? H 0.331731 0.294332 0.286461
C39? C 0.5163(11) 0.136(2) 0.4828(19)
H31? H 0.535815 0.124476 0.429984
C40? C 0.5482(13) 0.098(2) 0.574(2)
H32? H 0.525686 0.093611 0.624125
loop_
_geom_bond_atom_site_label_1
_geom_bond_atom_site_label_2
_geom_bond_site_symmetry_1
_geom_bond_site_symmetry_2
N1 C8 1_555 1_555
N2 C28 1_555 1_555
C1 H1 1_555 1_555
H2 C1 1_555 1_555
C2 C1 1_555 1_555
C3 C2 1_555 1_555
H3 C3 1_555 1_555
C4 C3 1_555 1_555
H4 C4 1_555 1_555
C5 C4 1_555 1_555
C6 C5 1_555 1_555
H5 C6 1_555 1_555
C7 C2 1_555 1_555
H6 C7 1_555 1_555
C8 C5 1_555 1_555
H7 C8 1_555 1_555
H8 C8 1_555 1_555
C9 N1 1_555 1_555
H9 C9 1_555 1_555
C10 C9 1_555 1_555
H10 C10 1_555 1_555
C11 C10 1_555 1_555
C12 C11 1_555 1_555
H11 C12 1_555 1_555
C13 N1 1_555 1_555
H12 C13 1_555 1_555
C14 C11 1_555 1_555
C15 C14 1_555 1_555
H13 C15 1_555 1_555
C16 C15 1_555 1_555
H14 C16 1_555 1_555
C17 C16 1_555 1_555
C18 C17 1_555 1_555
H15 C18 1_555 1_555
C19 C14 1_555 1_555
H16 C19 1_555 1_555
C20 C17 1_555 1_555
C21 C20 1_555 1_555
H17 C21 1_555 1_555
C22 C21 1_555 1_555
H18 C22 1_555 1_555
C23 C22 1_555 1_555
C24 C23 1_555 1_555
H19 C24 1_555 1_555
C25 C20 1_555 1_555
H20 C25 1_555 1_555
C26 C23 1_555 1_555
C27 C26 1_555 1_555
H21 C27 1_555 1_555
C28 C27 1_555 1_555
H22 C28 1_555 1_555
C29 N2 1_555 1_555
H23 C29 1_555 1_555
C30 C26 1_555 1_555
H24 C30 1_555 1_555
O1 C47 1_555 1_555
C41 C42 1_555 1_555
C42 H33 1_555 1_555
C43 C42 1_555 1_555
H34 C43 1_555 1_555
C44 C43 1_555 1_555
H35 C44 1_555 1_555
C45 C44 1_555 1_555
H36 C45 1_555 1_555
C46 C41 1_555 1_555
C47 C41 1_555 1_555
P1 F1 1_555 1_555
F2 P1 1_555 1_555
F3 P1 1_555 1_555
F4 P1 1_555 1_555
F5 P1 1_555 1_555
F6 P1 1_555 1_555
P2 F7 1_555 1_555
F8 P2 1_555 1_555
F9 P2 1_555 1_555
F10 P2 1_555 1_555
F11 P2 1_555 1_555
F12 P2 1_555 1_555
N1B C8B 1_555 1_555
N2B C1 1_555 1_555
C1B N2 1_555 1_555
H1B C1B 1_555 1_555
H2B C1B 1_555 1_555
C2B C1B 1_555 1_555
C3B C2B 1_555 1_555
H3B C3B 1_555 1_555
C4B C3B 1_555 1_555
H4B C4B 1_555 1_555
C5B C4B 1_555 1_555
C6B C5B 1_555 1_555
H5B C6B 1_555 1_555
C7B C2B 1_555 1_555
H6B C7B 1_555 1_555
C8B C5B 1_555 1_555
H7B C8B 1_555 1_555
H8B C8B 1_555 1_555
C9B N1B 1_555 1_555
H9B C9B 1_555 1_555
C10B C9B 1_555 1_555
H10B C10B 1_555 1_555
C11B C10B 1_555 1_555
C12B C11B 1_555 1_555
H11B C12B 1_555 1_555
C13B N1B 1_555 1_555
H12B C13B 1_555 1_555
C14B C11B 1_555 1_555
C15B C14B 1_555 1_555
H13B C15B 1_555 1_555
C16B C15B 1_555 1_555
H14B C16B 1_555 1_555
C17B C16B 1_555 1_555
C18B C17B 1_555 1_555
H15B C18B 1_555 1_555
C19B C14B 1_555 1_555
H16B C19B 1_555 1_555
C20B C17B 1_555 1_555
C21B C20B 1_555 1_555
H17B C21B 1_555 1_555
C22B C21B 1_555 1_555
H18B C22B 1_555 1_555
C23B C22B 1_555 1_555
C24B C23B 1_555 1_555
H19B C24B 1_555 1_555
C25B C20B 1_555 1_555
H20B C25B 1_555 1_555
C26B C23B 1_555 1_555
C27B C26B 1_555 1_555
H21B C27B 1_555 1_555
C28B N2B 1_555 1_555
H22B C28B 1_555 1_555
C29B N2B 1_555 1_555
H23B C29B 1_555 1_555
C30B C26B 1_555 1_555
H24B C30B 1_555 1_555
O1B C47B 1_555 1_555
C41B C42B 1_555 1_555
C42B H33B 1_555 1_555
C43B C42B 1_555 1_555
H34B C43B 1_555 1_555
C44B C43B 1_555 1_555
H35B C44B 1_555 1_555
C45B C44B 1_555 1_555
H36B C45B 1_555 1_555
C46B C47 1_555 1_555
C47B C46 1_555 1_555
C6 C7 1_555 1_555
C12 C13 1_555 1_555
C18 C19 1_555 1_555
C24 C25 1_555 1_555
C29 C30 1_555 1_555
C45 C46 1_555 1_555
C6B C7B 1_555 1_555
C12B C13B 1_555 1_555
C18B C19B 1_555 1_555
C24B C25B 1_555 1_555
C27B C28B 1_555 1_555
C29B C30B 1_555 1_555
C41B C46B 1_555 1_555
C41B C47B 1_555 1_555
C45B C46B 1_555 1_555

#END
