
#######################################################################
#
#                 Cambridge Crystallographic Data Centre
#                                CCDC 
#
#######################################################################
#
# If this CIF has been generated from an entry in the Cambridge 
# Structural Database, then it will include bibliographic, chemical, 
# crystal, experimental, refinement or atomic coordinate data resulting 
# from the CCDC's data processing and validation procedures.
#
#######################################################################

data_SIRLIR
_chemical_formula_moiety         'C14 H14 N2'
_chemical_name_systematic        1,9-dimethyl-9H-carbazol-2-amine
_symmetry_cell_setting           monoclinic
_symmetry_space_group_name_H-M   'P 21/c'
_symmetry_Int_Tables_number      14
_space_group_name_Hall           '-P 2ybc'
loop_
_symmetry_equiv_pos_site_id
_symmetry_equiv_pos_as_xyz
1 x,y,z
2 -x,1/2+y,1/2-z
3 -x,-y,-z
4 x,1/2-y,1/2+z
_cell_length_a                   7.4531(13)
_cell_length_b                   11.4315(19)
_cell_length_c                   12.942(2)
_cell_angle_alpha                90
_cell_angle_beta                 94.628(4)
_cell_angle_gamma                90
_cell_volume                     1099.06
_exptl_crystal_colour            red
_exptl_crystal_description       prismatic
_cell_formula_units_Z            4
loop_
_atom_site_label
_atom_site_type_symbol
_atom_site_fract_x
_atom_site_fract_y
_atom_site_fract_z
N1 N 0.4552(2) 0.47376(14) 0.16441(13)
N2 N 0.3352(4) 0.1921(3) -0.1207(2)
C1 C 0.6096(3) 0.48747(18) 0.23180(16)
C2 C 0.6489(3) 0.57135(19) 0.30814(17)
H1 H 0.5666 0.6297 0.3211
C3 C 0.8127(4) 0.5649(2) 0.36340(19)
H2 H 0.8419 0.6206 0.4144
C4 C 0.9373(3) 0.4781(2) 0.34607(18)
H3 H 1.0473 0.4756 0.3854
C5 C 0.8965(3) 0.3964(2) 0.27037(17)
H4 H 0.9793 0.3382 0.2582
C6 C 0.7328(3) 0.40005(17) 0.21197(16)
C7 C 0.6520(3) 0.33206(16) 0.12753(15)
C8 C 0.4815(3) 0.37957(17) 0.09880(15)
C9 C 0.3680(3) 0.33363(19) 0.01767(16)
C10 C 0.4389(3) 0.2412(2) -0.03702(16)
C11 C 0.6068(3) 0.1929(2) -0.00792(18)
H5 H 0.6472 0.1296 -0.0447
C12 C 0.7133(3) 0.23708(18) 0.07378(17)
H6 H 0.8251 0.2040 0.0930
C13 C 0.1808(3) 0.3754(2) -0.01301(19)
H7 H 0.1240 0.3985 0.0478
H8 H 0.1128 0.3134 -0.0475
H9 H 0.1855 0.4411 -0.0590
C14 C 0.3074(3) 0.5559(2) 0.16127(19)
H10 H 0.2041 0.5187 0.1865
H11 H 0.2789 0.5813 0.0912
H12 H 0.3411 0.6222 0.2040
H13 H 0.286(5) 0.244(3) -0.162(3)
H14 H 0.395(5) 0.144(3) -0.156(3)
loop_
_geom_bond_atom_site_label_1
_geom_bond_atom_site_label_2
_geom_bond_site_symmetry_1
_geom_bond_site_symmetry_2
N1 C1 1_555 1_555
N2 C10 1_555 1_555
C1 C2 1_555 1_555
C2 H1 1_555 1_555
C3 C2 1_555 1_555
H2 C3 1_555 1_555
C4 C3 1_555 1_555
H3 C4 1_555 1_555
C5 C4 1_555 1_555
H4 C5 1_555 1_555
C6 C1 1_555 1_555
C7 C6 1_555 1_555
C8 N1 1_555 1_555
C9 C8 1_555 1_555
C10 C9 1_555 1_555
C11 C10 1_555 1_555
H5 C11 1_555 1_555
C12 C7 1_555 1_555
H6 C12 1_555 1_555
C13 C9 1_555 1_555
H7 C13 1_555 1_555
H8 C13 1_555 1_555
H9 C13 1_555 1_555
C14 N1 1_555 1_555
H10 C14 1_555 1_555
H11 C14 1_555 1_555
H12 C14 1_555 1_555
H13 N2 1_555 1_555
H14 N2 1_555 1_555
C5 C6 1_555 1_555
C7 C8 1_555 1_555
C11 C12 1_555 1_555

#END
