
#######################################################################
#
#                 Cambridge Crystallographic Data Centre
#                                CCDC 
#
#######################################################################
#
# If this CIF has been generated from an entry in the Cambridge 
# Structural Database, then it will include bibliographic, chemical, 
# crystal, experimental, refinement or atomic coordinate data resulting 
# from the CCDC's data processing and validation procedures.
#
#######################################################################

data_SIRLAI
_chemical_formula_moiety         '2(C4 H5 N3 O2 S2),H2 O1'
_chemical_name_systematic        
'((5-Iminio-4,5-dihydro-1,3,4-thiadiazol-2-yl)sulfanyl)acetate monohydrate'
_symmetry_cell_setting           monoclinic
_symmetry_space_group_name_H-M   'C 2/c'
_symmetry_Int_Tables_number      15
_space_group_name_Hall           '-C 2yn'
loop_
_symmetry_equiv_pos_site_id
_symmetry_equiv_pos_as_xyz
1 x,y,z
2 -x,y,1/2-z
3 1/2+x,1/2+y,z
4 1/2-x,1/2+y,1/2-z
5 -x,-y,-z
6 x,-y,1/2+z
7 1/2-x,1/2-y,-z
8 1/2+x,1/2-y,1/2+z
_cell_length_a                   21.419(9)
_cell_length_b                   4.0076(17)
_cell_length_c                   17.500(8)
_cell_angle_alpha                90
_cell_angle_beta                 95.606(4)
_cell_angle_gamma                90
_cell_volume                     1494.99
_exptl_crystal_colour            yellow
_exptl_crystal_description       block
_cell_formula_units_Z            4
loop_
_atom_site_label
_atom_site_type_symbol
_atom_site_fract_x
_atom_site_fract_y
_atom_site_fract_z
S1 S 0.63752(3) -0.16320(17) 0.18557(3)
S2 S 0.77614(3) -0.16909(18) 0.16905(3)
N1 N 0.52774(10) 0.0676(7) 0.11789(14)
H1 H 0.5055 0.1736 0.0822
H2 H 0.5101 -0.0209 0.1551
O1 O 0.92199(8) -0.0169(6) 0.05633(10)
O2 O 0.90504(9) -0.2134(6) 0.17117(11)
N2 N 0.62108(10) 0.1655(6) 0.06174(12)
N3 N 0.68547(10) 0.1130(6) 0.07170(11)
C1 C 0.58889(12) 0.0408(7) 0.11560(14)
C2 C 0.70020(11) -0.0546(6) 0.13364(13)
C3 C 0.81741(11) -0.0197(7) 0.09042(14)
H3 H 0.8017 -0.1315 0.0432
H4 H 0.8107 0.2182 0.0836
C4 C 0.88678(11) -0.0904(7) 0.10834(14)
H5 H 0.6048(16) 0.294(9) 0.016(2)
O3 O 0.0000 0.1695(9) 0.2500
H6 H 0.0295(16) 0.040(9) 0.270(2)
H6A H -0.0295(16) 0.040(9) 0.230(2)
loop_
_geom_bond_atom_site_label_1
_geom_bond_atom_site_label_2
_geom_bond_site_symmetry_1
_geom_bond_site_symmetry_2
S1 C1 1_555 1_555
S2 C2 1_555 1_555
N1 H1 1_555 1_555
H2 N1 1_555 1_555
O1 C4 1_555 1_555
O2 C4 1_555 1_555
N2 N3 1_555 1_555
N3 C2 1_555 1_555
C1 N1 1_555 1_555
C2 S1 1_555 1_555
C3 S2 1_555 1_555
H3 C3 1_555 1_555
H4 C3 1_555 1_555
C4 C3 1_555 1_555
H5 N2 1_555 1_555
O3 H6 1_555 1_555
H6A O3 1_555 1_555
N2 C1 1_555 1_555

#END
