
#######################################################################
#
#                 Cambridge Crystallographic Data Centre
#                                CCDC 
#
#######################################################################
#
# If this CIF has been generated from an entry in the Cambridge 
# Structural Database, then it will include bibliographic, chemical, 
# crystal, experimental, refinement or atomic coordinate data resulting 
# from the CCDC's data processing and validation procedures.
#
#######################################################################

data_SIRLOX
_chemical_formula_moiety         'C3 H2 Cl1 N7'
_chemical_name_systematic        
3-chloro[1,2,4]triazolo[4,3-b][1,2,4,5]tetrazin-6-amine
_symmetry_cell_setting           orthorhombic
_symmetry_space_group_name_H-M   'P n m a'
_symmetry_Int_Tables_number      62
_space_group_name_Hall           '-P 2ac 2n'
loop_
_symmetry_equiv_pos_site_id
_symmetry_equiv_pos_as_xyz
1 x,y,z
2 1/2-x,-y,1/2+z
3 1/2+x,1/2-y,1/2-z
4 -x,1/2+y,-z
5 -x,-y,-z
6 1/2+x,y,1/2-z
7 1/2-x,1/2+y,1/2+z
8 x,1/2-y,z
_cell_length_a                   7.5145(11)
_cell_length_b                   6.2774(9)
_cell_length_c                   13.7315(19)
_cell_angle_alpha                90
_cell_angle_beta                 90
_cell_angle_gamma                90
_cell_volume                     647.736
_exptl_crystal_colour            red
_exptl_crystal_description       cube
_cell_formula_units_Z            4
loop_
_atom_site_label
_atom_site_type_symbol
_atom_site_fract_x
_atom_site_fract_y
_atom_site_fract_z
Cl1 Cl 0.27120(6) 0.250000 -0.21909(3)
N1 N 0.28395(16) 0.250000 -0.02401(9)
N2 N 0.10515(17) 0.250000 -0.00551(10)
N3 N 0.54663(19) 0.250000 -0.09387(11)
N4 N 0.2059(2) 0.250000 0.16418(11)
N5 N 0.57329(19) 0.250000 0.00448(12)
N6 N -0.0897(2) 0.250000 0.12341(11)
H1 H -0.178309 0.250000 0.083758
H2 H -0.108195 0.250000 0.185223
N7 N 0.3707(2) 0.250000 0.14191(10)
C1 C 0.0758(2) 0.250000 0.08917(11)
C2 C 0.3721(2) 0.250000 -0.11002(12)
C3 C 0.4129(2) 0.250000 0.04509(11)
loop_
_geom_bond_atom_site_label_1
_geom_bond_atom_site_label_2
_geom_bond_site_symmetry_1
_geom_bond_site_symmetry_2
Cl1 C2 1_555 1_555
N1 N2 1_555 1_555
N2 C1 1_555 1_555
N3 N5 1_555 1_555
N4 N7 1_555 1_555
N5 C3 1_555 1_555
N6 H1 1_555 1_555
H2 N6 1_555 1_555
N7 C3 1_555 1_555
C1 N4 1_555 1_555
C2 N1 1_555 1_555
C3 N1 1_555 1_555
N3 C2 1_555 1_555
N6 C1 1_555 1_555

#END
