
#######################################################################
#
#                 Cambridge Crystallographic Data Centre
#                                CCDC 
#
#######################################################################
#
# If this CIF has been generated from an entry in the Cambridge 
# Structural Database, then it will include bibliographic, chemical, 
# crystal, experimental, refinement or atomic coordinate data resulting 
# from the CCDC's data processing and validation procedures.
#
#######################################################################

data_SIRLIP
_chemical_compound_source        
'branches and leaves of Chamaecyparis obtusa cv. tetragon'
_chemical_formula_moiety         'C20 H31 N1 O2,1.25(H2 O1)'
_chemical_name_systematic        'Chamobtusin A hydrate'
_chemical_properties_biological  
'no cytotoxic activity against A549 and K562 human tumour cell lines'
_symmetry_cell_setting           monoclinic
_symmetry_space_group_name_H-M   'C 2'
_symmetry_Int_Tables_number      5
_space_group_name_Hall           'C 2y'
loop_
_symmetry_equiv_pos_site_id
_symmetry_equiv_pos_as_xyz
1 x,y,z
2 -x,y,-z
3 1/2+x,1/2+y,z
4 1/2-x,1/2+y,-z
_cell_length_a                   23.563(1)
_cell_length_b                   8.728(1)
_cell_length_c                   19.397(1)
_cell_angle_alpha                90
_cell_angle_beta                 90.48(1)
_cell_angle_gamma                90
_cell_volume                     3989.01
_exptl_crystal_colour            colorless
_exptl_crystal_description       block
_cell_formula_units_Z            8
loop_
_atom_site_label
_atom_site_type_symbol
_atom_site_fract_x
_atom_site_fract_y
_atom_site_fract_z
O1 O 0.36811(12) -0.0633(3) 0.27016(16)
O2 O 0.47592(11) 0.0032(4) 0.37949(14)
H1 H 0.4930 -0.0313 0.4131
N1 N 0.30194(12) 0.2291(3) 0.34630(14)
C1 C 0.35204(17) 0.5342(5) 0.08919(19)
C2 C 0.3059(2) 0.4902(6) 0.0363(2)
H2 H 0.2706 0.5390 0.0493
H3 H 0.3166 0.5303 -0.0084
C3 C 0.2958(2) 0.3188(6) 0.0296(2)
H4 H 0.3296 0.2703 0.0115
H5 H 0.2649 0.3008 -0.0028
C4 C 0.28118(18) 0.2466(5) 0.09916(19)
H6 H 0.2759 0.1372 0.0932
H7 H 0.2458 0.2894 0.1155
C5 C 0.32833(15) 0.2747(4) 0.15386(17)
C6 C 0.30792(13) 0.2276(4) 0.22415(16)
C7 C 0.34095(14) 0.2704(4) 0.28951(16)
C8 C 0.35111(16) 0.4433(4) 0.28766(17)
H8 H 0.3763 0.4716 0.3254
H9 H 0.3153 0.4960 0.2941
C9 C 0.37721(15) 0.4947(4) 0.21959(18)
H10 H 0.4139 0.4459 0.2139
H11 H 0.3831 0.6047 0.2205
C10 C 0.33822(14) 0.4525(4) 0.15844(16)
H12 H 0.3011 0.4937 0.1713
C11 C 0.38124(18) 0.1796(6) 0.1350(2)
H13 H 0.3714 0.0729 0.1337
H14 H 0.4105 0.1960 0.1690
H15 H 0.3947 0.2109 0.0906
C12 C 0.3483(2) 0.7099(5) 0.0997(2)
H16 H 0.3572 0.7610 0.0574
H17 H 0.3748 0.7407 0.1350
H18 H 0.3105 0.7369 0.1134
C13 C 0.4113(2) 0.4992(7) 0.0609(2)
H19 H 0.4167 0.5539 0.0185
H20 H 0.4148 0.3911 0.0526
H21 H 0.4396 0.5305 0.0939
C14 C 0.25853(15) 0.1688(4) 0.24362(19)
H22 H 0.2299 0.1329 0.2146
C15 C 0.25751(16) 0.1709(4) 0.3185(2)
H23 H 0.2273 0.1333 0.3439
C16 C 0.39718(14) 0.1861(4) 0.30545(18)
H24 H 0.4237 0.2074 0.2687
H25 H 0.4132 0.2276 0.3477
C17 C 0.39180(14) 0.0152(4) 0.31316(18)
C18 C 0.41937(17) -0.0573(4) 0.37763(19)
C19 C 0.4211(3) -0.2302(5) 0.3706(3)
H26 H 0.4383 -0.2739 0.4111
H27 H 0.4429 -0.2575 0.3309
H28 H 0.3831 -0.2688 0.3655
C20 C 0.38574(19) -0.0117(5) 0.4416(2)
H29 H 0.4029 -0.0568 0.4818
H30 H 0.3474 -0.0474 0.4370
H31 H 0.3858 0.0978 0.4462
O3 O 0.63701(12) 0.4800(3) 0.30995(13)
O4 O 0.58487(11) 0.3686(3) 0.47267(11)
H32 H 0.6172 0.3714 0.4887
N2 N 0.72499(12) 0.2210(4) 0.30992(15)
C21 C 0.56706(18) -0.1521(5) 0.1555(2)
C22 C 0.5665(2) -0.0961(7) 0.0800(2)
H33 H 0.6024 -0.1235 0.0592
H34 H 0.5368 -0.1503 0.0552
C23 C 0.5573(2) 0.0748(7) 0.0704(2)
H35 H 0.5198 0.1024 0.0867
H36 H 0.5593 0.1000 0.0218
C24 C 0.60256(18) 0.1666(6) 0.11056(18)
H37 H 0.6398 0.1434 0.0923
H38 H 0.5957 0.2753 0.1042
C25 C 0.60179(15) 0.1286(4) 0.18809(16)
C26 C 0.65332(13) 0.1949(4) 0.22375(15)
C27 C 0.66706(14) 0.1602(4) 0.29878(16)
C28 C 0.66887(15) -0.0162(4) 0.30457(17)
H39 H 0.7024 -0.0539 0.2815
H40 H 0.6719 -0.0446 0.3528
C29 C 0.61643(16) -0.0929(4) 0.27305(17)
H41 H 0.5830 -0.0616 0.2983
H42 H 0.6200 -0.2032 0.2770
C30 C 0.60927(15) -0.0490(4) 0.19657(16)
H43 H 0.6463 -0.0707 0.1762
C31 C 0.54795(15) 0.1980(5) 0.22035(19)
H44 H 0.5473 0.3065 0.2122
H45 H 0.5482 0.1789 0.2691
H46 H 0.5149 0.1519 0.1998
C32 C 0.5063(2) -0.1488(8) 0.1842(3)
H47 H 0.4822 -0.2134 0.1565
H48 H 0.4921 -0.0457 0.1830
H49 H 0.5067 -0.1853 0.2309
C33 C 0.5881(3) -0.3173(7) 0.1558(3)
H50 H 0.5619 -0.3805 0.1304
H51 H 0.5908 -0.3534 0.2024
H52 H 0.6248 -0.3221 0.1347
C34 C 0.69875(16) 0.2648(4) 0.19758(18)
H53 H 0.7027 0.2988 0.1524
C35 C 0.74093(16) 0.2781(5) 0.2525(2)
H54 H 0.7762 0.3239 0.2464
C36 C 0.62953(14) 0.2257(4) 0.35632(15)
H55 H 0.5930 0.1744 0.3542
H56 H 0.6469 0.1999 0.4003
C37 C 0.61919(13) 0.3957(4) 0.35494(15)
C38 C 0.58179(16) 0.4628(4) 0.41212(17)
C39 C 0.52057(18) 0.4512(6) 0.3856(2)
H57 H 0.4953 0.4919 0.4196
H58 H 0.5114 0.3457 0.3771
H59 H 0.5167 0.5086 0.3437
C40 C 0.5986(3) 0.6244(5) 0.4296(2)
H60 H 0.6373 0.6260 0.4455
H61 H 0.5744 0.6628 0.4652
H62 H 0.5948 0.6876 0.3893
O5 O 0.69358(13) 0.3718(4) 0.52469(13)
H63 H 0.6799 0.4617 0.5269
H64 H 0.7260 0.3749 0.5443
O6 O 0.5000 0.1640(5) 0.5000
H65 H 0.5291 0.2178 0.4910
H65A H 0.4709 0.2178 0.5090
O7 O 0.77010(17) 0.1710(5) 0.44533(18)
H67 H 0.7403(19) 0.113(6) 0.451(3)
H68 H 0.762(2) 0.245(5) 0.474(3)
H66? H 0.4902 0.1208 0.4625
loop_
_geom_bond_atom_site_label_1
_geom_bond_atom_site_label_2
_geom_bond_site_symmetry_1
_geom_bond_site_symmetry_2
O1 C17 1_555 1_555
O2 H1 1_555 1_555
N1 C7 1_555 1_555
C1 C2 1_555 1_555
C2 H2 1_555 1_555
H3 C2 1_555 1_555
C3 C2 1_555 1_555
H4 C3 1_555 1_555
H5 C3 1_555 1_555
C4 C3 1_555 1_555
H6 C4 1_555 1_555
H7 C4 1_555 1_555
C5 C4 1_555 1_555
C6 C5 1_555 1_555
C7 C6 1_555 1_555
C8 C7 1_555 1_555
H8 C8 1_555 1_555
H9 C8 1_555 1_555
C9 C8 1_555 1_555
H10 C9 1_555 1_555
H11 C9 1_555 1_555
C10 C1 1_555 1_555
H12 C10 1_555 1_555
C11 C5 1_555 1_555
H13 C11 1_555 1_555
H14 C11 1_555 1_555
H15 C11 1_555 1_555
C12 C1 1_555 1_555
H16 C12 1_555 1_555
H17 C12 1_555 1_555
H18 C12 1_555 1_555
C13 C1 1_555 1_555
H19 C13 1_555 1_555
H20 C13 1_555 1_555
H21 C13 1_555 1_555
C14 C6 1_555 1_555
H22 C14 1_555 1_555
C15 N1 1_555 1_555
H23 C15 1_555 1_555
C16 C7 1_555 1_555
H24 C16 1_555 1_555
H25 C16 1_555 1_555
C17 C16 1_555 1_555
C18 O2 1_555 1_555
C19 C18 1_555 1_555
H26 C19 1_555 1_555
H27 C19 1_555 1_555
H28 C19 1_555 1_555
C20 C18 1_555 1_555
H29 C20 1_555 1_555
H30 C20 1_555 1_555
H31 C20 1_555 1_555
O3 C37 1_555 1_555
O4 H32 1_555 1_555
N2 C27 1_555 1_555
C21 C22 1_555 1_555
C22 H33 1_555 1_555
H34 C22 1_555 1_555
C23 C22 1_555 1_555
H35 C23 1_555 1_555
H36 C23 1_555 1_555
C24 C23 1_555 1_555
H37 C24 1_555 1_555
H38 C24 1_555 1_555
C25 C24 1_555 1_555
C26 C25 1_555 1_555
C27 C26 1_555 1_555
C28 C27 1_555 1_555
H39 C28 1_555 1_555
H40 C28 1_555 1_555
C29 C28 1_555 1_555
H41 C29 1_555 1_555
H42 C29 1_555 1_555
C30 C21 1_555 1_555
H43 C30 1_555 1_555
C31 C25 1_555 1_555
H44 C31 1_555 1_555
H45 C31 1_555 1_555
H46 C31 1_555 1_555
C32 C21 1_555 1_555
H47 C32 1_555 1_555
H48 C32 1_555 1_555
H49 C32 1_555 1_555
C33 C21 1_555 1_555
H50 C33 1_555 1_555
H51 C33 1_555 1_555
H52 C33 1_555 1_555
C34 C26 1_555 1_555
H53 C34 1_555 1_555
C35 N2 1_555 1_555
H54 C35 1_555 1_555
C36 C27 1_555 1_555
H55 C36 1_555 1_555
H56 C36 1_555 1_555
C37 C36 1_555 1_555
C38 O4 1_555 1_555
C39 C38 1_555 1_555
H57 C39 1_555 1_555
H58 C39 1_555 1_555
H59 C39 1_555 1_555
C40 C38 1_555 1_555
H60 C40 1_555 1_555
H61 C40 1_555 1_555
H62 C40 1_555 1_555
O5 H63 1_555 1_555
H64 O5 1_555 1_555
O6 H65 1_555 1_555
O7 H67 1_555 1_555
H68 O7 1_555 1_555
H65A O6 1_555 1_555
C5 C10 1_555 1_555
C9 C10 1_555 1_555
C14 C15 1_555 1_555
C17 C18 1_555 1_555
C25 C30 1_555 1_555
C29 C30 1_555 1_555
C34 C35 1_555 1_555
C37 C38 1_555 1_555

#END
