
#######################################################################
#
#                 Cambridge Crystallographic Data Centre
#                                CCDC 
#
#######################################################################
#
# If this CIF has been generated from an entry in the Cambridge 
# Structural Database, then it will include bibliographic, chemical, 
# crystal, experimental, refinement or atomic coordinate data resulting 
# from the CCDC's data processing and validation procedures.
#
#######################################################################

data_SIRLUB
_chemical_formula_moiety         'C80 H100 N2 Na2 O16 2+,2(Cl1 O4 1-),2(H2 O1)'
_chemical_name_systematic        
"((2)-(\m~2~-9,9',10,10'-Tetramethyl-2,3':3,2':6,7':7,6'-tetrakis(3-oxapentane-1,5-dioxy)-bis(9,10-dihydro-9,10-ethanoanthracene))-(2,4-bis(4-(di-n-propylamino)phenyl)squaraine) rotaxane)-diaqua-di-sodium diperchlorate dihydrate"
_symmetry_cell_setting           tetragonal
_symmetry_space_group_name_H-M   'I 41/a'
_symmetry_Int_Tables_number      88
_space_group_name_Hall           '-I 4ad'
loop_
_symmetry_equiv_pos_site_id
_symmetry_equiv_pos_as_xyz
1 x,y,z
2 3/4-y,1/4+x,1/4+z
3 1/2+x,1/2+y,1/2+z
4 1/4-y,3/4+x,3/4+z
5 1/4+y,1/4-x,1/4+z
6 1/2-x,-y,1/2+z
7 3/4+y,3/4-x,3/4+z
8 -x,1/2-y,z
9 -x,-y,-z
10 1/4+y,3/4-x,3/4-z
11 1/2-x,1/2-y,1/2-z
12 3/4+y,1/4-x,1/4-z
13 3/4-y,3/4+x,3/4-z
14 1/2+x,y,1/2-z
15 1/4-y,1/4+x,1/4-z
16 x,1/2+y,-z
_cell_length_a                   34.7389(5)
_cell_length_b                   34.7389(5)
_cell_length_c                   14.3489(2)
_cell_angle_alpha                90
_cell_angle_beta                 90
_cell_angle_gamma                90
_cell_volume                     17316.1
_exptl_crystal_colour            orange
_exptl_crystal_description       prism
_cell_formula_units_Z            8
_exptl_crystal_recrystallization_method 'acetonitrile/di-isopropyl ether'
loop_
_atom_site_label
_atom_site_type_symbol
_atom_site_fract_x
_atom_site_fract_y
_atom_site_fract_z
Na1 Na 0.23183(5) 0.12190(4) 0.23569(10)
O1 O 0.15753(8) 0.13319(8) 0.29770(19)
O2 O 0.21825(8) 0.11520(8) 0.41177(19)
O3 O 0.29152(8) 0.12118(8) 0.34655(18)
O4 O 0.30339(8) 0.12243(8) 0.17178(18)
O5 O 0.24168(8) 0.11610(8) 0.0592(2)
O6 O 0.17011(8) 0.13521(7) 0.12415(18)
O7 O 0.23611(9) 0.18653(7) 0.2419(2)
O8 O 0.23526(13) 0.05403(10) 0.2360(3)
H1 H 0.2432(13) 0.0391(11) 0.200(3)
H2 H 0.2343(16) 0.0408(14) 0.282(2)
N1 N 0.29825(13) 0.24842(11) -0.1964(3)
C1 C 0.14434(11) 0.16584(11) 0.2539(3)
C2 C 0.12757(11) 0.19738(11) 0.2980(3)
H3 H 0.1223 0.1964 0.3614
C3 C 0.11880(11) 0.22998(11) 0.2474(3)
C4 C 0.10349(12) 0.26747(12) 0.2889(3)
C5 C 0.13162(11) 0.29871(11) 0.2578(3)
C6 C 0.13785(12) 0.29965(11) 0.1621(3)
C7 C 0.11548(12) 0.26960(12) 0.1061(3)
C8 C 0.12523(11) 0.23094(11) 0.1524(3)
C9 C 0.14099(11) 0.19926(11) 0.1072(3)
H4 H 0.1446 0.1996 0.0430
C10 C 0.15118(11) 0.16728(11) 0.1587(3)
C11 C 0.06530(13) 0.27625(14) 0.2344(4)
H5 H 0.0465 0.2564 0.2479
H6 H 0.0549 0.3006 0.2554
C12 C 0.07207(13) 0.27799(13) 0.1308(4)
H7 H 0.0651 0.3033 0.1079
H8 H 0.0558 0.2592 0.1000
C13 C 0.09681(15) 0.26584(14) 0.3934(4)
H9 H 0.1206 0.2602 0.4244
H10 H 0.0784 0.2460 0.4073
H11 H 0.0872 0.2902 0.4146
C14 C 0.12254(16) 0.27100(13) 0.0023(3)
H12 H 0.1492 0.2657 -0.0102
H13 H 0.1161 0.2961 -0.0209
H14 H 0.1068 0.2520 -0.0281
C15 C 0.15355(13) 0.13056(14) 0.3965(3)
H15 H 0.1274 0.1235 0.4127
H16 H 0.1594 0.1552 0.4251
C16 C 0.18100(14) 0.10052(13) 0.4301(3)
H17 H 0.1776 0.0960 0.4963
H18 H 0.1770 0.0765 0.3971
C17 C 0.24871(13) 0.09389(12) 0.4535(3)
H19 H 0.2519 0.0693 0.4223
H20 H 0.2433 0.0892 0.5188
C18 C 0.28422(13) 0.11762(12) 0.4433(3)
H21 H 0.2805 0.1428 0.4710
H22 H 0.3057 0.1052 0.4741
C19 C 0.30853(11) 0.12058(12) 0.0736(3)
H23 H 0.3330 0.1086 0.0588
H24 H 0.3082 0.1463 0.0470
C20 C 0.27600(12) 0.09705(12) 0.0350(3)
H25 H 0.2782 0.0950 -0.0322
H26 H 0.2764 0.0714 0.0615
C21 C 0.20773(12) 0.10249(12) 0.0145(3)
H27 H 0.1989 0.0788 0.0432
H28 H 0.2125 0.0977 -0.0511
C22 C 0.17860(12) 0.13384(12) 0.0266(3)
H29 H 0.1889 0.1583 0.0057
H30 H 0.1555 0.1282 -0.0089
C23 C 0.24366(11) 0.22090(11) 0.2466(3)
C24 C 0.25554(11) 0.25038(10) 0.1785(3)
C25 C 0.26356(12) 0.25068(11) 0.0833(3)
C26 C 0.27617(13) 0.28398(11) 0.0375(3)
H31 H 0.2773 0.3070 0.0703
C27 C 0.28674(14) 0.28340(12) -0.0534(3)
H32 H 0.2948 0.3061 -0.0815
C28 C 0.28585(14) 0.24902(12) -0.1068(3)
C29 C 0.27107(14) 0.21607(12) -0.0617(3)
H33 H 0.2683 0.1933 -0.0952
C30 C 0.26082(13) 0.21699(12) 0.0301(3)
H34 H 0.2518 0.1946 0.0582
C31 C 0.29669(18) 0.21367(16) -0.2551(4)
H35 H 0.2874 0.2210 -0.3163
H36 H 0.2780 0.1961 -0.2284
C32 C 0.3335(2) 0.1930(2) -0.2664(4)
H37 H 0.3524 0.2107 -0.2916
H38 H 0.3299 0.1725 -0.3113
C33 C 0.3488(2) 0.1762(2) -0.1779(5)
H39 H 0.3733 0.1644 -0.1897
H40 H 0.3311 0.1571 -0.1549
H41 H 0.3518 0.1962 -0.1323
C34 C 0.31450(18) 0.28219(16) -0.2411(4)
H42 H 0.2986 0.3043 -0.2259
H43 H 0.3134 0.2786 -0.3081
C35 C 0.3546(2) 0.2909(2) -0.2148(5)
H44 H 0.3705 0.2684 -0.2267
H45 H 0.3558 0.2963 -0.1486
C36 C 0.3705(3) 0.3249(3) -0.2684(7)
H46 H 0.3966 0.3295 -0.2497
H47 H 0.3552 0.3473 -0.2555
H48 H 0.3697 0.3194 -0.3339
C37 C 0.15027(11) 0.32458(11) 0.3160(3)
H49 H 0.1457 0.3242 0.3799
C38 C 0.32430(11) 0.14911(11) 0.2218(3)
C39 C 0.31779(11) 0.14796(11) 0.3181(3)
C40 C 0.16262(12) 0.32673(11) 0.1241(3)
H50 H 0.1661 0.3279 0.0599
Na1J Na 0.26817(5) 0.37810(4) 0.26431(10)
O1J O 0.34247(8) 0.36681(8) 0.20230(19)
O2J O 0.28175(8) 0.38480(8) 0.08823(19)
O3J O 0.20848(8) 0.37882(8) 0.15345(18)
O4J O 0.19661(8) 0.37757(8) 0.32822(18)
O5J O 0.25832(8) 0.38390(8) 0.4408(2)
O6J O 0.32989(8) 0.36479(7) 0.37585(18)
O7J O 0.26389(9) 0.31347(7) 0.2581(2)
O8J O 0.26474(13) 0.44597(10) 0.2640(3)
H1J H 0.2568(13) 0.4609(11) 0.300(3)
H2J H 0.2657(16) 0.4592(14) 0.218(2)
N1J N 0.20175(13) 0.25158(11) 0.6964(3)
C1J C 0.35566(11) 0.33416(11) 0.2461(3)
C2J C 0.37243(11) 0.30262(11) 0.2020(3)
H3J H 0.3777 0.3036 0.1386
C3J C 0.38120(11) 0.27002(11) 0.2526(3)
C4J C 0.39651(12) 0.23253(12) 0.2111(3)
C5J C 0.36838(11) 0.20129(11) 0.2422(3)
C6J C 0.36215(12) 0.20035(11) 0.3379(3)
C7J C 0.38452(12) 0.23040(12) 0.3939(3)
C8J C 0.37477(11) 0.26906(11) 0.3476(3)
C9J C 0.35901(11) 0.30074(11) 0.3928(3)
H4J H 0.3554 0.3004 0.4570
C10J C 0.34882(11) 0.33272(11) 0.3413(3)
C11J C 0.43470(13) 0.22375(14) 0.2656(4)
H5J H 0.4535 0.2436 0.2521
H6J H 0.4451 0.1994 0.2446
C12J C 0.42793(13) 0.22201(13) 0.3692(4)
H7J H 0.4349 0.1967 0.3921
H8J H 0.4442 0.2408 0.4000
C13J C 0.40319(15) 0.23416(14) 0.1066(4)
H9J H 0.3794 0.2398 0.0756
H10J H 0.4216 0.2540 0.0927
H11J H 0.4128 0.2098 0.0854
C14J C 0.37746(16) 0.22900(13) 0.4977(3)
H12J H 0.3508 0.2343 0.5102
H13J H 0.3839 0.2039 0.5209
H14J H 0.3932 0.2480 0.5281
C15J C 0.34645(13) 0.36944(14) 0.1035(3)
H15J H 0.3726 0.3765 0.0873
H16J H 0.3406 0.3448 0.0749
C16J C 0.31900(14) 0.39948(13) 0.0699(3)
H17J H 0.3224 0.4040 0.0037
H18J H 0.3230 0.4235 0.1029
C17J C 0.25129(13) 0.40611(12) 0.0465(3)
H19J H 0.2481 0.4307 0.0777
H20J H 0.2567 0.4108 -0.0188
C18J C 0.21578(13) 0.38238(12) 0.0567(3)
H21J H 0.2195 0.3572 0.0290
H22J H 0.1943 0.3948 0.0259
C19J C 0.19147(11) 0.37942(12) 0.4264(3)
H23J H 0.1670 0.3914 0.4412
H24J H 0.1918 0.3537 0.4530
C20J C 0.22400(12) 0.40295(12) 0.4650(3)
H25J H 0.2218 0.4050 0.5322
H26J H 0.2236 0.4286 0.4385
C21J C 0.29227(12) 0.39751(12) 0.4855(3)
H27J H 0.3011 0.4212 0.4568
H28J H 0.2875 0.4023 0.5511
C22J C 0.32140(12) 0.36616(12) 0.4734(3)
H29J H 0.3111 0.3417 0.4943
H30J H 0.3445 0.3718 0.5089
C23J C 0.25634(11) 0.27910(11) 0.2534(3)
C24J C 0.24446(11) 0.24962(10) 0.3215(3)
C25J C 0.23644(12) 0.24932(11) 0.4167(3)
C26J C 0.22383(13) 0.21602(11) 0.4625(3)
H31J H 0.2227 0.1930 0.4297
C27J C 0.21326(14) 0.21660(12) 0.5534(3)
H32J H 0.2052 0.1939 0.5815
C28J C 0.21415(14) 0.25098(12) 0.6068(3)
C29J C 0.22893(14) 0.28393(12) 0.5617(3)
H33J H 0.2317 0.3067 0.5952
C30J C 0.23918(13) 0.28301(12) 0.4699(3)
H34J H 0.2482 0.3054 0.4418
C31J C 0.20331(18) 0.28633(16) 0.7551(4)
H35J H 0.2126 0.2790 0.8163
H36J H 0.2220 0.3039 0.7284
C32J C 0.1665(2) 0.3070(2) 0.7664(4)
H37J H 0.1476 0.2893 0.7916
H38J H 0.1701 0.3275 0.8113
C33J C 0.1512(2) 0.3238(2) 0.6779(5)
H39J H 0.1267 0.3356 0.6897
H40J H 0.1689 0.3429 0.6549
H41J H 0.1482 0.3038 0.6323
C34J C 0.18550(18) 0.21781(16) 0.7411(4)
H42J H 0.2014 0.1957 0.7259
H43J H 0.1866 0.2214 0.8081
C35J C 0.1454(2) 0.2091(2) 0.7148(5)
H44J H 0.1295 0.2316 0.7267
H45J H 0.1442 0.2037 0.6486
C36J C 0.1295(3) 0.1751(3) 0.7684(7)
H46J H 0.1034 0.1705 0.7497
H47J H 0.1448 0.1527 0.7555
H48J H 0.1303 0.1806 0.8339
C37J C 0.34973(11) 0.17542(11) 0.1840(3)
H49J H 0.3543 0.1758 0.1201
C38J C 0.17570(11) 0.35089(11) 0.2782(3)
C39J C 0.18221(11) 0.35204(11) 0.1819(3)
C40J C 0.33738(12) 0.17327(11) 0.3759(3)
H50J H 0.3339 0.1721 0.4401
Cl1 Cl 0.13950(4) -0.00974(5) 0.48240(9)
O9 O 0.1419(3) -0.0451(2) 0.4405(7)
O10 O 0.11749(16) -0.0142(3) 0.5601(3)
O11 O 0.17552(17) -0.0003(2) 0.4946(5)
O12 O 0.12141(14) 0.01399(18) 0.4167(3)
O13 O 0.23994(14) -0.01111(14) 0.3683(3)
H51 H 0.2183 -0.0118 0.3940
H52 H 0.2444 -0.0312 0.3402
loop_
_geom_bond_atom_site_label_1
_geom_bond_atom_site_label_2
_geom_bond_site_symmetry_1
_geom_bond_site_symmetry_2
Na1 O1 1_555 1_555
O1 C1 1_555 1_555
O2 Na1 1_555 1_555
O3 Na1 1_555 1_555
O4 Na1 1_555 1_555
O5 Na1 1_555 1_555
O6 Na1 1_555 1_555
O7 Na1 1_555 1_555
O8 Na1 1_555 1_555
H1 O8 1_555 1_555
H2 O8 1_555 1_555
N1 C28 1_555 1_555
C1 C2 1_555 1_555
C2 H3 1_555 1_555
C3 C2 1_555 1_555
C4 C3 1_555 1_555
C5 C4 1_555 1_555
C6 C5 1_555 1_555
C7 C6 1_555 1_555
C8 C3 1_555 1_555
C9 C8 1_555 1_555
H4 C9 1_555 1_555
C10 O6 1_555 1_555
C11 C4 1_555 1_555
H5 C11 1_555 1_555
H6 C11 1_555 1_555
C12 C7 1_555 1_555
H7 C12 1_555 1_555
H8 C12 1_555 1_555
C13 C4 1_555 1_555
H9 C13 1_555 1_555
H10 C13 1_555 1_555
H11 C13 1_555 1_555
C14 C7 1_555 1_555
H12 C14 1_555 1_555
H13 C14 1_555 1_555
H14 C14 1_555 1_555
C15 O1 1_555 1_555
H15 C15 1_555 1_555
H16 C15 1_555 1_555
C16 O2 1_555 1_555
H17 C16 1_555 1_555
H18 C16 1_555 1_555
C17 O2 1_555 1_555
H19 C17 1_555 1_555
H20 C17 1_555 1_555
C18 O3 1_555 1_555
H21 C18 1_555 1_555
H22 C18 1_555 1_555
C19 O4 1_555 1_555
H23 C19 1_555 1_555
H24 C19 1_555 1_555
C20 O5 1_555 1_555
H25 C20 1_555 1_555
H26 C20 1_555 1_555
C21 O5 1_555 1_555
H27 C21 1_555 1_555
H28 C21 1_555 1_555
C22 O6 1_555 1_555
H29 C22 1_555 1_555
H30 C22 1_555 1_555
C23 O7 1_555 1_555
C24 C23 1_555 1_555
C25 C24 1_555 1_555
C26 C25 1_555 1_555
H31 C26 1_555 1_555
C27 C26 1_555 1_555
H32 C27 1_555 1_555
C28 C27 1_555 1_555
C29 C28 1_555 1_555
H33 C29 1_555 1_555
C30 C25 1_555 1_555
H34 C30 1_555 1_555
C31 N1 1_555 1_555
H35 C31 1_555 1_555
H36 C31 1_555 1_555
C32 C31 1_555 1_555
H37 C32 1_555 1_555
H38 C32 1_555 1_555
C33 C32 1_555 1_555
H39 C33 1_555 1_555
H40 C33 1_555 1_555
H41 C33 1_555 1_555
C34 N1 1_555 1_555
H42 C34 1_555 1_555
H43 C34 1_555 1_555
C35 C34 1_555 1_555
H44 C35 1_555 1_555
H45 C35 1_555 1_555
C36 C35 1_555 1_555
H46 C36 1_555 1_555
H47 C36 1_555 1_555
H48 C36 1_555 1_555
C37 C5 1_555 1_555
H49 C37 1_555 1_555
C38 O4 1_555 1_555
C39 O3 1_555 1_555
C40 C6 1_555 1_555
H50 C40 1_555 1_555
Cl1 O9 1_555 1_555
O10 Cl1 1_555 1_555
O11 Cl1 1_555 1_555
O12 Cl1 1_555 1_555
O13 H51 1_555 1_555
H52 O13 1_555 1_555
Na1J O1J 1_555 1_555
O1J C1J 1_555 1_555
O2J Na1J 1_555 1_555
O3J Na1J 1_555 1_555
O4J Na1J 1_555 1_555
O5J Na1J 1_555 1_555
O6J Na1J 1_555 1_555
O7J Na1J 1_555 1_555
O8J Na1J 1_555 1_555
H1J O8J 1_555 1_555
H2J O8J 1_555 1_555
N1J C28J 1_555 1_555
C1J C2J 1_555 1_555
C2J H3J 1_555 1_555
C3J C2J 1_555 1_555
C4J C3J 1_555 1_555
C5J C4J 1_555 1_555
C6J C5J 1_555 1_555
C7J C6J 1_555 1_555
C8J C3J 1_555 1_555
C9J C8J 1_555 1_555
H4J C9J 1_555 1_555
C10J O6J 1_555 1_555
C11J C4J 1_555 1_555
H5J C11J 1_555 1_555
H6J C11J 1_555 1_555
C12J C7J 1_555 1_555
H7J C12J 1_555 1_555
H8J C12J 1_555 1_555
C13J C4J 1_555 1_555
H9J C13J 1_555 1_555
H10J C13J 1_555 1_555
H11J C13J 1_555 1_555
C14J C7J 1_555 1_555
H12J C14J 1_555 1_555
H13J C14J 1_555 1_555
H14J C14J 1_555 1_555
C15J O1J 1_555 1_555
H15J C15J 1_555 1_555
H16J C15J 1_555 1_555
C16J O2J 1_555 1_555
H17J C16J 1_555 1_555
H18J C16J 1_555 1_555
C17J O2J 1_555 1_555
H19J C17J 1_555 1_555
H20J C17J 1_555 1_555
C18J O3J 1_555 1_555
H21J C18J 1_555 1_555
H22J C18J 1_555 1_555
C19J O4J 1_555 1_555
H23J C19J 1_555 1_555
H24J C19J 1_555 1_555
C20J O5J 1_555 1_555
H25J C20J 1_555 1_555
H26J C20J 1_555 1_555
C21J O5J 1_555 1_555
H27J C21J 1_555 1_555
H28J C21J 1_555 1_555
C22J O6J 1_555 1_555
H29J C22J 1_555 1_555
H30J C22J 1_555 1_555
C23J C24 1_555 1_555
C24J C23 1_555 1_555
C25J C24J 1_555 1_555
C26J C25J 1_555 1_555
H31J C26J 1_555 1_555
C27J C26J 1_555 1_555
H32J C27J 1_555 1_555
C28J C27J 1_555 1_555
C29J C28J 1_555 1_555
H33J C29J 1_555 1_555
C30J C25J 1_555 1_555
H34J C30J 1_555 1_555
C31J N1J 1_555 1_555
H35J C31J 1_555 1_555
H36J C31J 1_555 1_555
C32J C31J 1_555 1_555
H37J C32J 1_555 1_555
H38J C32J 1_555 1_555
C33J C32J 1_555 1_555
H39J C33J 1_555 1_555
H40J C33J 1_555 1_555
H41J C33J 1_555 1_555
C34J N1J 1_555 1_555
H42J C34J 1_555 1_555
H43J C34J 1_555 1_555
C35J C34J 1_555 1_555
H44J C35J 1_555 1_555
H45J C35J 1_555 1_555
C36J C35J 1_555 1_555
H46J C36J 1_555 1_555
H47J C36J 1_555 1_555
H48J C36J 1_555 1_555
C37J C38 1_555 1_555
H49J C37J 1_555 1_555
C38J C37 1_555 1_555
C39J C40 1_555 1_555
C40J C39 1_555 1_555
H50J C40J 1_555 1_555
C1 C10 1_555 1_555
C7 C8 1_555 1_555
C9 C10 1_555 1_555
C11 C12 1_555 1_555
C15 C16 1_555 1_555
C17 C18 1_555 1_555
C19 C20 1_555 1_555
C21 C22 1_555 1_555
C29 C30 1_555 1_555
C38 C39 1_555 1_555
O3J C39J 1_555 1_555
O4J C38J 1_555 1_555
O7J C23J 1_555 1_555
C1J C10J 1_555 1_555
C5J C37J 1_555 1_555
C6J C40J 1_555 1_555
C7J C8J 1_555 1_555
C9J C10J 1_555 1_555
C11J C12J 1_555 1_555
C15J C16J 1_555 1_555
C17J C18J 1_555 1_555
C19J C20J 1_555 1_555
C21J C22J 1_555 1_555
C23J C24J 1_555 1_555
C29J C30J 1_555 1_555
C38J C39J 1_555 1_555

#END
