
#######################################################################
#
#                 Cambridge Crystallographic Data Centre
#                                CCDC 
#
#######################################################################
#
# If this CIF has been generated from an entry in the Cambridge 
# Structural Database, then it will include bibliographic, chemical, 
# crystal, experimental, refinement or atomic coordinate data resulting 
# from the CCDC's data processing and validation procedures.
#
#######################################################################

data_SIRMUB
_chemical_formula_moiety         'C9 H8 S8 1+,C9 H8 S8,C12 H4 N4 1-'
_chemical_name_systematic        
"bis(2-(4,5-bis(Methylthio)-1,3-dithiol-2-ylidene)-4,5-dihydro-1,3-dithiolo(4,5-d)dithiole) 7,7',8,8'-tetracyano-p-quinodimethane"
_symmetry_cell_setting           triclinic
_symmetry_space_group_name_H-M   'P -1'
_symmetry_Int_Tables_number      2
_space_group_name_Hall           '-P 1'
loop_
_symmetry_equiv_pos_site_id
_symmetry_equiv_pos_as_xyz
1 x,y,z
2 -x,-y,-z
_cell_length_a                   8.570(3)
_cell_length_b                   10.098(4)
_cell_length_c                   12.217(4)
_cell_angle_alpha                98.97(3)
_cell_angle_beta                 77.67(3)
_cell_angle_gamma                107.14(3)
_cell_volume                     982.09
_exptl_crystal_colour            black
_cell_formula_units_Z            1
loop_
_atom_site_label
_atom_site_type_symbol
_atom_site_fract_x
_atom_site_fract_y
_atom_site_fract_z
N1 N 0.0382(8) 0.6982(6) 0.7446(5)
N2 N 0.2279(7) 0.6277(6) 0.3871(5)
C10 C -0.0416(7) 0.9652(6) 0.6107(5)
C11 C 0.0803(7) 0.9246(6) 0.4116(5)
C12 C 0.0410(7) 0.8820(5) 0.5243(4)
C13 C 0.0804(7) 0.7692(5) 0.5466(5)
C14 C 0.0528(8) 0.7293(6) 0.6586(6)
C15 C 0.1630(8) 0.6886(6) 0.4588(5)
H9 H -0.072(6) 0.930(5) 0.674(4)
H10 H 0.144(6) 0.869(5) 0.362(4)
C11A C -0.0803(7) 1.0754(6) 0.5884(5)
C10A C 0.0416(7) 1.0348(6) 0.3893(5)
C12A C -0.0410(7) 1.1180(5) 0.4757(4)
H10A H -0.144(6) 1.131(5) 0.638(4)
H9A H 0.072(6) 1.070(5) 0.326(4)
C13A C -0.0804(7) 1.2308(5) 0.4534(5)
C14A C -0.0528(8) 1.2707(6) 0.3414(6)
C15A C -0.1630(8) 1.3114(6) 0.5412(5)
N1A N -0.0382(8) 1.3018(6) 0.2554(5)
N2A N -0.2279(7) 1.3723(6) 0.6129(5)
S1 S 0.0870(3) 0.1287(2) 0.9042(1)
S2 S -0.0278(2) 0.3664(2) 0.8702(1)
S3 S 0.3288(2) 0.1611(2) 0.6779(1)
S4 S 0.2160(2) 0.4012(1) 0.6449(1)
S5 S 0.3764(2) 0.3710(1) 0.3812(1)
S6 S 0.4914(2) 0.1344(1) 0.4142(1)
S7 S 0.4845(3) 0.3354(2) 0.1290(1)
S8 S 0.6072(2) 0.0709(2) 0.1665(1)
C1 C 0.006(1) 0.273(1) 0.9730(6)
C2 C 0.1804(7) 0.2136(6) 0.7837(4)
C3 C 0.1283(7) 0.3197(6) 0.7674(4)
C4 C 0.3166(6) 0.2711(5) 0.5846(4)
C5 C 0.3862(6) 0.2596(5) 0.4742(4)
C6 C 0.4640(7) 0.2798(6) 0.2614(4)
C7 C 0.5124(7) 0.1724(6) 0.2750(4)
C8 C 0.396(1) 0.4762(8) 0.1566(6)
C9 C 0.4305(9) -0.0756(6) 0.1430(5)
H1 H -0.095(8) 0.234(6) 1.020(6)
H2 H 0.091(7) 0.333(6) 0.995(5)
H3 H 0.267(1) 0.4437(8) 0.1952(6)
H4 H 0.462(1) 0.5586(8) 0.2110(6)
H5 H 0.408(1) 0.5106(8) 0.0749(6)
H6 H 0.3934(9) -0.1462(6) 0.2176(5)
H7 H 0.3332(9) -0.0463(6) 0.1438(5)
H8 H 0.4666(9) -0.1285(6) 0.0618(5)
loop_
_geom_bond_atom_site_label_1
_geom_bond_atom_site_label_2
_geom_bond_site_symmetry_1
_geom_bond_site_symmetry_2
S1 C1 1_555 1_555
S2 C1 1_555 1_555
S3 C2 1_555 1_555
S4 C3 1_555 1_555
S5 C5 1_555 1_555
S6 C5 1_555 1_555
S7 C6 1_555 1_555
S8 C7 1_555 1_555
C1 H1 1_555 1_555
C2 S1 1_555 1_555
C3 S2 1_555 1_555
C4 S3 1_555 1_555
C5 C4 1_555 1_555
C6 S5 1_555 1_555
C7 S6 1_555 1_555
C8 S7 1_555 1_555
C9 S8 1_555 1_555
H2 C1 1_555 1_555
H3 C8 1_555 1_555
H4 C8 1_555 1_555
H5 C8 1_555 1_555
H6 C9 1_555 1_555
H7 C9 1_555 1_555
H8 C9 1_555 1_555
N1 C14 1_555 1_555
N2 C15 1_555 1_555
C10 C12 1_555 1_555
C11 C12 1_555 1_555
C12 C13 1_555 1_555
C13 C14 1_555 1_555
C15 C13 1_555 1_555
H9 C10 1_555 1_555
H10 C11 1_555 1_555
C11A C10 1_555 1_555
C10A C11 1_555 1_555
C12A C11A 1_555 1_555
H10A C11A 1_555 1_555
H9A C10A 1_555 1_555
C13A C12A 1_555 1_555
C14A C13A 1_555 1_555
C15A C13A 1_555 1_555
N1A C14A 1_555 1_555
N2A C15A 1_555 1_555
S4 C4 1_555 1_555
C2 C3 1_555 1_555
C6 C7 1_555 1_555
C10A C12A 1_555 1_555

#END
