
#######################################################################
#
#                 Cambridge Crystallographic Data Centre
#                                CCDC 
#
#######################################################################
#
# If this CIF has been generated from an entry in the Cambridge 
# Structural Database, then it will include bibliographic, chemical, 
# crystal, experimental, refinement or atomic coordinate data resulting 
# from the CCDC's data processing and validation procedures.
#
#######################################################################

data_SIRMIQ
_chemical_formula_moiety         'C18 H10 S2'
_chemical_name_systematic        Benzo(1,2-b:4,5-b')bis(b)benzothiophene
_symmetry_cell_setting           monoclinic
_symmetry_space_group_name_H-M   'P 21/c'
_symmetry_Int_Tables_number      14
_space_group_name_Hall           '-P 2ybc'
loop_
_symmetry_equiv_pos_site_id
_symmetry_equiv_pos_as_xyz
1 x,y,z
2 -x,1/2+y,1/2-z
3 -x,-y,-z
4 x,1/2-y,1/2+z
_cell_length_a                   10.858(8)
_cell_length_b                   3.941(3)
_cell_length_c                   15.241(15)
_cell_angle_alpha                90
_cell_angle_beta                 103.60(3)
_cell_angle_gamma                90
_cell_volume                     633.897
_exptl_crystal_colour            colorless
_exptl_crystal_description       platelet
_chemical_melting_point          'above 300deg.C'
_cell_formula_units_Z            2
_exptl_crystal_recrystallization_method chlorobenzene
loop_
_atom_site_label
_atom_site_type_symbol
_atom_site_fract_x
_atom_site_fract_y
_atom_site_fract_z
S1 S 0.21713(8) 0.24348(19) 0.45745(5)
C1 C 0.1019(3) 0.3707(9) 0.6020(2)
C2 C 0.1127(3) 0.5055(9) 0.6879(2)
C3 C 0.2246(4) 0.6591(9) 0.7363(2)
C4 C 0.3313(3) 0.6766(9) 0.6992(2)
C5 C 0.3235(3) 0.5406(8) 0.61243(19)
C6 C 0.4220(3) 0.5337(8) 0.56123(19)
C7 C 0.3758(3) 0.3773(8) 0.4751(2)
C8 C 0.4536(3) 0.3413(9) 0.4141(2)
C9 C 0.2087(3) 0.3909(8) 0.5647(2)
H1 H 0.0256 0.2673 0.5699
H2 H 0.0419 0.4942 0.7145
H3 H 0.2284 0.7521 0.7943
H4 H 0.4079 0.7780 0.7321
H5 H 0.4225 0.2351 0.3572
S1B S 0.78287(8) 0.75652(19) 0.54255(5)
C1B C 0.8981(3) 0.6293(9) 0.3980(2)
C2B C 0.8873(3) 0.4945(9) 0.3121(2)
C3B C 0.7754(4) 0.3409(9) 0.2637(2)
C4B C 0.6687(3) 0.3234(9) 0.3008(2)
C5B C 0.6765(3) 0.4594(8) 0.38757(19)
C6B C 0.5780(3) 0.4663(8) 0.43877(19)
C7B C 0.6242(3) 0.6227(8) 0.5249(2)
C8B C 0.5464(3) 0.6587(9) 0.5859(2)
C9B C 0.7913(3) 0.6091(8) 0.4353(2)
H1B H 0.9744 0.7327 0.4301
H2B H 0.9581 0.5058 0.2855
H3B H 0.7716 0.2479 0.2057
H4B H 0.5921 0.2220 0.2679
H5B H 0.5775 0.7649 0.6428
loop_
_geom_bond_atom_site_label_1
_geom_bond_atom_site_label_2
_geom_bond_site_symmetry_1
_geom_bond_site_symmetry_2
S1 C7 1_555 1_555
C1 C2 1_555 1_555
C2 C3 1_555 1_555
C3 C4 1_555 1_555
C4 C5 1_555 1_555
C5 C6 1_555 1_555
C6 C7 1_555 1_555
C7 C8 1_555 1_555
C8 H5 1_555 1_555
C9 S1 1_555 1_555
H1 C1 1_555 1_555
H2 C2 1_555 1_555
H3 C3 1_555 1_555
H4 C4 1_555 1_555
S1B C7B 1_555 1_555
C1B C2B 1_555 1_555
C2B C3B 1_555 1_555
C3B C4B 1_555 1_555
C4B C5B 1_555 1_555
C5B C6B 1_555 1_555
C6B C8 1_555 1_555
C7B C6B 1_555 1_555
C8B C6 1_555 1_555
C9B S1B 1_555 1_555
H1B C1B 1_555 1_555
H2B C2B 1_555 1_555
H3B C3B 1_555 1_555
H4B C4B 1_555 1_555
H5B C8B 1_555 1_555
C1 C9 1_555 1_555
C5 C9 1_555 1_555
C1B C9B 1_555 1_555
C5B C9B 1_555 1_555
C7B C8B 1_555 1_555

#END
