
#######################################################################
#
#                 Cambridge Crystallographic Data Centre
#                                CCDC 
#
#######################################################################
#
# If this CIF has been generated from an entry in the Cambridge 
# Structural Database, then it will include bibliographic, chemical, 
# crystal, experimental, refinement or atomic coordinate data resulting 
# from the CCDC's data processing and validation procedures.
#
#######################################################################

data_SIRMOW
_chemical_formula_moiety         'C18 H10 Se2'
_chemical_name_systematic        Benzo(1,2-b:4,5-b')bis(b)benzoselenophene
_symmetry_cell_setting           monoclinic
_symmetry_space_group_name_H-M   'P 21/a'
_symmetry_Int_Tables_number      14
_space_group_name_Hall           '-P 2yab'
loop_
_symmetry_equiv_pos_site_id
_symmetry_equiv_pos_as_xyz
1 x,y,z
2 1/2-x,1/2+y,-z
3 -x,-y,-z
4 1/2+x,1/2-y,z
_cell_length_a                   14.646(2)
_cell_length_b                   8.669(1)
_cell_length_c                   10.955(1)
_cell_angle_alpha                90
_cell_angle_beta                 103.934(9)
_cell_angle_gamma                90
_cell_volume                     1349.99
_exptl_crystal_colour            colorless
_exptl_crystal_description       prismatic
_chemical_melting_point          'above 300deg.C'
_cell_formula_units_Z            4
loop_
_atom_site_label
_atom_site_type_symbol
_atom_site_fract_x
_atom_site_fract_y
_atom_site_fract_z
Se1 Se 0.65774(3) 0.51669(5) 0.72411(4)
Se2 Se 0.59120(3) 0.21016(5) 0.16574(4)
C1 C 0.4363(3) 0.2198(5) 0.6221(4)
C2 C 0.3946(3) 0.2177(5) 0.7221(5)
C3 C 0.4323(3) 0.3062(6) 0.8294(4)
C4 C 0.5102(3) 0.3948(5) 0.8366(4)
C5 C 0.5517(3) 0.3983(4) 0.7345(4)
C6 C 0.6454(3) 0.4311(5) 0.5618(4)
C7 C 0.7031(3) 0.4619(5) 0.4819(4)
C8 C 0.6844(3) 0.3903(4) 0.3648(4)
C9 C 0.7354(3) 0.4107(4) 0.2673(4)
C10 C 0.8149(3) 0.5005(5) 0.2732(4)
C11 C 0.8569(3) 0.5064(5) 0.1728(4)
C12 C 0.8187(4) 0.4234(5) 0.0636(4)
C13 C 0.7398(4) 0.3357(5) 0.0531(4)
C14 C 0.6981(3) 0.3280(5) 0.1568(4)
C15 C 0.6073(3) 0.2872(4) 0.3317(4)
C16 C 0.5495(3) 0.2549(5) 0.4119(4)
C17 C 0.5685(3) 0.3271(4) 0.5290(3)
C18 C 0.5154(3) 0.3105(4) 0.6254(4)
H1 H 0.4111 0.1576 0.5492
H2 H 0.3397 0.1555 0.7171
H3 H 0.4027 0.3039 0.8987
H4 H 0.5359 0.4562 0.9105
H5 H 0.7548 0.5325 0.5065
H6 H 0.8412 0.5581 0.3479
H7 H 0.9121 0.5683 0.1773
H8 H 0.8481 0.4287 -0.0058
H9 H 0.7132 0.2796 -0.0233
H10 H 0.4981 0.1847 0.3878
loop_
_geom_bond_atom_site_label_1
_geom_bond_atom_site_label_2
_geom_bond_site_symmetry_1
_geom_bond_site_symmetry_2
Se1 C5 1_555 1_555
Se2 C14 1_555 1_555
C1 C2 1_555 1_555
C2 C3 1_555 1_555
C3 C4 1_555 1_555
C4 C5 1_555 1_555
C5 C18 1_555 1_555
C6 Se1 1_555 1_555
C7 C6 1_555 1_555
C8 C7 1_555 1_555
C9 C8 1_555 1_555
C10 C9 1_555 1_555
C11 C10 1_555 1_555
C12 C11 1_555 1_555
C13 C12 1_555 1_555
C14 C9 1_555 1_555
C15 Se2 1_555 1_555
C16 C15 1_555 1_555
C17 C6 1_555 1_555
C18 C1 1_555 1_555
H1 C1 1_555 1_555
H2 C2 1_555 1_555
H3 C3 1_555 1_555
H4 C4 1_555 1_555
H5 C7 1_555 1_555
H6 C10 1_555 1_555
H7 C11 1_555 1_555
H8 C12 1_555 1_555
H9 C13 1_555 1_555
H10 C16 1_555 1_555
C8 C15 1_555 1_555
C13 C14 1_555 1_555
C16 C17 1_555 1_555
C17 C18 1_555 1_555

#END
