
#######################################################################
#
#                 Cambridge Crystallographic Data Centre
#                                CCDC 
#
#######################################################################
#
# If this CIF has been generated from an entry in the Cambridge 
# Structural Database, then it will include bibliographic, chemical, 
# crystal, experimental, refinement or atomic coordinate data resulting 
# from the CCDC's data processing and validation procedures.
#
#######################################################################

data_SIRNIR
_chemical_formula_moiety         'C64 H93 N3 O7,0.5(C1 H4 O1)'
_chemical_name_systematic        
'4-(Dimethylamino)-5-(N-(t-butoxycarbonyl)prolylamino)-11,17,23-tri-t-butyl-25,26,27,28-tetrakis(n-propoxy)calix(4)arene methanol solvate'
_symmetry_cell_setting           monoclinic
_symmetry_space_group_name_H-M   'P 21'
_symmetry_Int_Tables_number      4
_space_group_name_Hall           'P 2yb'
loop_
_symmetry_equiv_pos_site_id
_symmetry_equiv_pos_as_xyz
1 x,y,z
2 -x,1/2+y,-z
_cell_length_a                   13.7323(6)
_cell_length_b                   13.6624(6)
_cell_length_c                   32.8806(17)
_cell_angle_alpha                90
_cell_angle_beta                 96.449(2)
_cell_angle_gamma                90
_cell_volume                     6129.9
_exptl_crystal_colour            colorless
_exptl_crystal_description       prism
_cell_formula_units_Z            4
loop_
_atom_site_label
_atom_site_type_symbol
_atom_site_fract_x
_atom_site_fract_y
_atom_site_fract_z
N1 N 0.37952(18) 0.8250(2) 0.05896(8)
N2 N 0.2340(2) 0.7127(2) 0.01296(8)
H1 H 0.302(3) 0.715(3) 0.0096(11)
N3 N 0.3371(2) 0.6131(2) -0.03870(8)
O1 O 0.12497(16) 1.03403(15) 0.10259(6)
O2 O -0.00075(15) 0.87714(16) 0.15304(7)
O3 O 0.09583(15) 0.81704(15) 0.24259(6)
O4 O 0.23424(15) 0.94415(17) 0.17793(7)
O5 O 0.09634(17) 0.6179(2) -0.00214(8)
O6 O 0.2838(2) 0.7060(2) -0.09430(8)
O7 O 0.44715(18) 0.6884(2) -0.07238(7)
C1 C 0.1518(2) 0.9502(2) 0.08278(9)
C2 C 0.2514(2) 0.9277(2) 0.08232(9)
C3 C 0.2773(2) 0.8468(2) 0.05949(9)
C4 C 0.2035(2) 0.7883(2) 0.03840(8)
C5 C 0.1056(2) 0.8078(2) 0.04189(9)
H3 H 0.0563 0.7655 0.0292
C6 C 0.0790(2) 0.8885(2) 0.06380(9)
C7 C -0.0292(2) 0.9076(2) 0.06715(9)
H4 H -0.0363 0.9675 0.0835
H5 H -0.0644 0.9181 0.0395
C8 C -0.05438(19) 0.8071(2) 0.12955(9)
C9 C -0.0734(2) 0.8206(2) 0.08746(9)
C10 C -0.1272(2) 0.7497(2) 0.06436(9)
H6 H -0.1418 0.7599 0.0357
C11 C -0.1603(2) 0.6649(2) 0.08141(9)
C12 C -0.1350(2) 0.6508(2) 0.12345(9)
H7 H -0.1549 0.5923 0.1357
C13 C -0.0814(2) 0.7200(2) 0.14802(9)
C14 C -0.0444(2) 0.6989(2) 0.19233(9)
H8 H -0.0781 0.6406 0.2019
H9 H -0.0586 0.7552 0.2097
C15 C 0.1319(2) 0.7428(2) 0.21930(8)
C16 C 0.0654(2) 0.6808(2) 0.19600(8)
C17 C 0.1022(2) 0.6069(2) 0.17332(9)
H10 H 0.0572 0.5642 0.1582
C18 C 0.2020(2) 0.5922(2) 0.17163(9)
C19 C 0.2660(2) 0.6563(2) 0.19433(9)
H11 H 0.3346 0.6481 0.1938
C20 C 0.2326(2) 0.7323(2) 0.21785(8)
C21 C 0.3061(2) 0.8059(2) 0.23845(9)
H12 H 0.2706 0.8605 0.2500
H13 H 0.3476 0.7737 0.2612
C22 C 0.3290(2) 0.9105(2) 0.17683(9)
C23 C 0.3701(2) 0.8454(2) 0.20748(9)
C24 C 0.4650(2) 0.8134(2) 0.20596(10)
H14 H 0.4933 0.7709 0.2269
C25 C 0.5216(2) 0.8410(3) 0.17488(10)
C26 C 0.4765(2) 0.9016(2) 0.14416(9)
H15 H 0.5129 0.9213 0.1226
C27 C 0.3803(2) 0.9346(2) 0.14372(9)
C28 C 0.3304(2) 0.9890(2) 0.10674(9)
H16 H 0.3803 1.0080 0.0887
H17 H 0.3004 1.0497 0.1161
C29 C 0.1092(3) 1.1158(2) 0.07515(11)
H18 H 0.0636 1.0968 0.0510
H19 H 0.1721 1.1357 0.0656
C30 C 0.0672(4) 1.1995(3) 0.09671(14)
H20 H 0.1109 1.2152 0.1219
H21 H 0.0026 1.1803 0.1049
C31 C 0.0549(5) 1.2905(3) 0.06933(16)
H22 H 0.1191 1.3108 0.0619
H23 H 0.0265 1.3438 0.0841
H24 H 0.0114 1.2752 0.0445
C32 C -0.0560(3) 0.9401(3) 0.17626(12)
H25 H -0.0116 0.9677 0.1992
H26 H -0.1061 0.9006 0.1882
C33 C -0.1052(3) 1.0210(3) 0.15302(13)
H27 H -0.1539 0.9944 0.1314
H28 H -0.0564 1.0591 0.1396
C34 C -0.1569(5) 1.0887(4) 0.18110(16)
H29 H -0.1996 1.0498 0.1968
H30 H -0.1964 1.1370 0.1645
H31 H -0.1078 1.1227 0.2000
C35 C 0.0965(2) 0.7902(2) 0.28481(8)
H32 H 0.1649 0.7853 0.2979
H33 H 0.0648 0.7256 0.2869
C36 C 0.0419(2) 0.8669(3) 0.30630(10)
H34 H 0.0670 0.9324 0.2998
H35 H 0.0557 0.8572 0.3362
C37 C -0.0684(3) 0.8649(3) 0.29457(12)
H36 H -0.0828 0.8767 0.2651
H37 H -0.0992 0.9159 0.3097
H38 H -0.0941 0.8007 0.3013
C41 C 0.2285(6) 1.0468(6) 0.1881(2)
H46 H 0.1611 1.0704 0.1797
H47 H 0.2735 1.0840 0.1723
C42 C 0.2545(7) 1.0678(5) 0.2332(2)
H48 H 0.3241 1.0517 0.2418
H49 H 0.2129 1.0288 0.2498
C43 C 0.2358(13) 1.1784(8) 0.2384(6)
H50 H 0.2379 1.1940 0.2675
H51 H 0.1713 1.1955 0.2243
H52 H 0.2865 1.2159 0.2265
C44 C 0.4135(2) 0.7344(2) 0.07898(11)
H53 H 0.3893 0.6787 0.0620
H54 H 0.3886 0.7300 0.1057
H55 H 0.4853 0.7336 0.0827
C45 C 0.4233(3) 0.8484(3) 0.02191(12)
H56 H 0.4012 0.8010 0.0005
H57 H 0.4949 0.8456 0.0275
H58 H 0.4034 0.9144 0.0127
C46 C 0.1817(2) 0.6382(2) -0.00596(9)
C47 C 0.2390(2) 0.5750(3) -0.03347(10)
H59 H 0.2002 0.5678 -0.0609
C48 C 0.2614(3) 0.4722(3) -0.01475(11)
H60 H 0.2123 0.4533 0.0037
H61 H 0.2626 0.4220 -0.0364
C49 C 0.3629(2) 0.4853(3) 0.00903(10)
H62 H 0.3581 0.5164 0.0359
H63 H 0.3968 0.4216 0.0134
C50 C 0.4161(3) 0.5515(3) -0.01843(11)
H64 H 0.4662 0.5917 -0.0021
H65 H 0.4481 0.5128 -0.0387
C51 C 0.3499(3) 0.6718(3) -0.07138(10)
C52 C 0.4842(3) 0.7460(3) -0.10563(11)
C53 C 0.4390(3) 0.8481(3) -0.10769(16)
H66 H 0.3687 0.8433 -0.1167
H67 H 0.4705 0.8882 -0.1272
H68 H 0.4488 0.8785 -0.0805
C54 C 0.4624(4) 0.6898(4) -0.14513(12)
H69 H 0.4856 0.6222 -0.1411
H70 H 0.4959 0.7209 -0.1665
H71 H 0.3915 0.6897 -0.1534
C55 C 0.5934(3) 0.7503(3) -0.09213(14)
H72 H 0.6052 0.7885 -0.0668
H73 H 0.6268 0.7815 -0.1136
H74 H 0.6188 0.6838 -0.0873
C56 C -0.2163(3) 0.5874(3) 0.05454(10)
C57 C -0.2887(8) 0.5333(8) 0.07728(17)
H75 H -0.2537 0.4868 0.0964
H76 H -0.3349 0.4977 0.0577
H77 H -0.3246 0.5801 0.0925
C58 C -0.1416(6) 0.5216(5) 0.0380(3)
H78 H -0.1135 0.4772 0.0596
H79 H -0.0893 0.5616 0.0285
H80 H -0.1734 0.4832 0.0150
C59 C -0.2776(4) 0.6338(4) 0.01757(16)
H81 H -0.3161 0.5829 0.0021
H82 H -0.2339 0.6653 -0.0001
H83 H -0.3219 0.6829 0.0271
C60 C 0.2362(2) 0.5118(2) 0.14402(9)
C61 C 0.2001(3) 0.4119(3) 0.15777(11)
H84 H 0.2289 0.3985 0.1859
H85 H 0.2199 0.3606 0.1395
H86 H 0.1285 0.4128 0.1567
C62 C 0.1937(3) 0.5323(3) 0.09956(9)
H87 H 0.1220 0.5316 0.0976
H88 H 0.2161 0.4817 0.0816
H89 H 0.2161 0.5966 0.0912
C63 C 0.3480(2) 0.5078(3) 0.14516(11)
H90 H 0.3723 0.5714 0.1370
H91 H 0.3660 0.4572 0.1263
H92 H 0.3771 0.4922 0.1730
C64 C 0.6256(2) 0.8002(3) 0.17404(11)
C65 C 0.6196(3) 0.6879(4) 0.16946(15)
H93 H 0.5751 0.6712 0.1450
H94 H 0.5950 0.6595 0.1937
H95 H 0.6850 0.6617 0.1667
C66 C 0.6742(2) 0.8416(3) 0.13787(12)
H96 H 0.6356 0.8230 0.1121
H97 H 0.7406 0.8150 0.1384
H98 H 0.6774 0.9131 0.1399
C67 C 0.6892(3) 0.8247(5) 0.21419(13)
H99 H 0.7544 0.7958 0.2138
H100 H 0.6585 0.7980 0.2373
H101 H 0.6952 0.8959 0.2171
N4 N 0.7817(2) 0.5025(2) 0.47587(9)
N5 N 0.57789(19) 0.5112(2) 0.46958(8)
H2 H 0.620(3) 0.541(3) 0.4905(11)
N6 N 0.5487(2) 0.6172(2) 0.53679(8)
O8 O 0.75641(15) 0.21133(15) 0.39047(6)
O9 O 0.62154(15) 0.29085(17) 0.29329(6)
O10 O 0.75931(14) 0.42999(15) 0.24682(6)
O11 O 0.85826(15) 0.37144(15) 0.34500(6)
O12 O 0.41333(18) 0.4936(2) 0.45070(8)
O13 O 0.5245(2) 0.4782(2) 0.57318(8)
O14 O 0.64823(17) 0.58637(18) 0.59349(7)
C68 C 0.7122(2) 0.2922(2) 0.40625(8)
C69 C 0.7711(2) 0.3605(2) 0.43012(8)
C70 C 0.7251(2) 0.4351(2) 0.45009(9)
C71 C 0.6217(2) 0.4417(2) 0.44485(8)
C72 C 0.5666(2) 0.3813(2) 0.41723(8)
H102 H 0.4981 0.3917 0.4115
C73 C 0.6111(2) 0.3058(2) 0.39794(8)
C74 C 0.5474(2) 0.2402(2) 0.36782(9)
H103 H 0.5897 0.1938 0.3547
H104 H 0.5020 0.2016 0.3829
C75 C 0.5313(2) 0.3294(2) 0.30028(9)
C76 C 0.4890(2) 0.3013(2) 0.33522(9)
C77 C 0.3966(2) 0.3393(2) 0.34071(9)
H105 H 0.3658 0.3182 0.3637
C78 C 0.3480(2) 0.4067(2) 0.31390(9)
C79 C 0.3960(2) 0.4372(2) 0.28073(9)
H106 H 0.3646 0.4836 0.2622
C80 C 0.4877(2) 0.4021(2) 0.27388(8)
C81 C 0.5475(2) 0.4527(2) 0.24400(8)
H107 H 0.5038 0.4909 0.2239
H108 H 0.5823 0.4034 0.2289
C82 C 0.7230(2) 0.5048(2) 0.26946(8)
C83 C 0.6212(2) 0.5204(2) 0.26795(8)
C84 C 0.5878(2) 0.5938(2) 0.29184(9)
H109 H 0.5191 0.6043 0.2905
C85 C 0.6500(2) 0.6533(2) 0.31781(8)
C86 C 0.7502(2) 0.6350(2) 0.31899(9)
H110 H 0.7945 0.6736 0.3365
C87 C 0.7882(2) 0.5618(2) 0.29531(8)
C88 C 0.8978(2) 0.5409(2) 0.30067(9)
H111 H 0.9333 0.5954 0.2890
H112 H 0.9112 0.4802 0.2858
C89 C 0.90681(19) 0.4462(2) 0.36697(8)
C90 C 0.9342(2) 0.5292(2) 0.34597(8)
C91 C 0.9860(2) 0.6030(2) 0.36805(8)
H113 H 1.0048 0.6594 0.3539
C92 C 1.0114(2) 0.5968(2) 0.41060(9)
C93 C 0.9797(2) 0.5143(2) 0.43030(9)
H114 H 0.9956 0.5087 0.4591
C94 C 0.9253(2) 0.4394(2) 0.40948(8)
C95 C 0.8829(2) 0.3547(2) 0.43238(9)
H115 H 0.9016 0.2919 0.4204
H116 H 0.9112 0.3561 0.4614
C96 C 0.7451(3) 0.1236(2) 0.41436(10)
H117 H 0.6752 0.1044 0.4121
H118 H 0.7676 0.1363 0.4435
C97 C 0.8048(3) 0.0424(3) 0.39864(13)
H119 H 0.7869 0.0362 0.3687
H120 H 0.7872 -0.0199 0.4114
C98 C 0.9159(3) 0.0568(4) 0.40698(14)
H121 H 0.9347 0.1166 0.3934
H122 H 0.9494 0.0005 0.3964
H123 H 0.9347 0.0625 0.4365
C99 C 0.6151(3) 0.2242(3) 0.25928(10)
H126 H 0.6760 0.2225 0.2475
H127 H 0.5642 0.2442 0.2386
C102 C 0.5926(11) 0.1249(7) 0.2760(3)
H133 H 0.5321 0.1285 0.2897
H134 H 0.6470 0.1039 0.2965
C103 C 0.5790(9) 0.0502(6) 0.2411(3)
H135 H 0.5642 -0.0141 0.2521
H136 H 0.6393 0.0462 0.2278
H137 H 0.5247 0.0709 0.2210
C104 C 0.7720(2) 0.4577(2) 0.20576(9)
H138 H 0.8109 0.5187 0.2059
H139 H 0.7074 0.4698 0.1900
C105 C 0.8242(3) 0.3763(3) 0.18613(11)
H140 H 0.8215 0.3892 0.1564
H141 H 0.7893 0.3140 0.1897
C106 C 0.9310(3) 0.3649(4) 0.20389(14)
H142 H 0.9671 0.4248 0.1989
H143 H 0.9602 0.3094 0.1907
H144 H 0.9345 0.3531 0.2334
C107 C 0.9283(3) 0.3009(3) 0.33259(10)
H145 H 0.9639 0.2697 0.3570
H146 H 0.9767 0.3344 0.3172
C108 C 0.8739(3) 0.2241(3) 0.30585(10)
H147 H 0.8407 0.2552 0.2808
H148 H 0.8233 0.1931 0.3208
C109 C 0.9464(4) 0.1454(3) 0.29391(14)
H149 H 0.9976 0.1766 0.2799
H150 H 0.9111 0.0975 0.2756
H151 H 0.9763 0.1122 0.3186
C110 C 0.7836(3) 0.6039(2) 0.46279(12)
H152 H 0.7215 0.6356 0.4671
H153 H 0.7926 0.6065 0.4337
H154 H 0.8379 0.6380 0.4787
C111 C 0.8110(4) 0.4819(3) 0.51711(11)
H155 H 0.7603 0.5041 0.5337
H156 H 0.8726 0.5159 0.5258
H157 H 0.8206 0.4112 0.5206
C112 C 0.4826(2) 0.5289(3) 0.47303(10)
C113 C 0.4626(3) 0.5997(3) 0.50744(10)
H158 H 0.4079 0.5738 0.5220
C114 C 0.4365(3) 0.7032(3) 0.49091(12)
H159 H 0.4057 0.7007 0.4622
H160 H 0.3917 0.7369 0.5079
C115 C 0.5367(3) 0.7544(3) 0.49394(11)
H161 H 0.5718 0.7377 0.4702
H162 H 0.5291 0.8263 0.4952
C116 C 0.5916(3) 0.7153(2) 0.53353(10)
H163 H 0.6629 0.7115 0.5316
H164 H 0.5799 0.7568 0.5572
C117 C 0.5699(3) 0.5530(3) 0.56868(10)
C118 C 0.6860(3) 0.5310(3) 0.63055(11)
C119 C 0.7136(4) 0.4267(3) 0.61988(14)
H165 H 0.6549 0.3916 0.6081
H166 H 0.7422 0.3930 0.6447
H167 H 0.7616 0.4285 0.5999
C120 C 0.6106(3) 0.5325(3) 0.66103(12)
H168 H 0.5981 0.6003 0.6687
H169 H 0.6356 0.4955 0.6855
H170 H 0.5495 0.5027 0.6486
C121 C 0.7768(3) 0.5888(3) 0.64645(13)
H171 H 0.8243 0.5863 0.6264
H172 H 0.8060 0.5604 0.6724
H173 H 0.7586 0.6570 0.6509
C122 C 0.2488(2) 0.4521(2) 0.32091(10)
C123 C 0.1724(3) 0.4326(4) 0.28382(12)
H174 H 0.1659 0.3619 0.2793
H175 H 0.1936 0.4638 0.2595
H176 H 0.1089 0.4597 0.2891
C124 C 0.2094(3) 0.4128(3) 0.35967(12)
H177 H 0.1981 0.3421 0.3569
H178 H 0.1476 0.4457 0.3634
H179 H 0.2574 0.4254 0.3835
C125 C 0.2615(3) 0.5640(3) 0.32596(14)
H180 H 0.1989 0.5934 0.3311
H181 H 0.2825 0.5918 0.3009
H182 H 0.3110 0.5778 0.3491
C126 C 0.6083(2) 0.7275(3) 0.34611(10)
C127 C 0.5542(4) 0.6672(4) 0.37735(13)
H183 H 0.5304 0.7118 0.3974
H184 H 0.5998 0.6199 0.3915
H185 H 0.4986 0.6323 0.3627
C128 C 0.6862(3) 0.7885(3) 0.37049(14)
H186 H 0.7237 0.8245 0.3517
H187 H 0.7304 0.7455 0.3878
H188 H 0.6550 0.8349 0.3877
C129 C 0.5313(5) 0.7903(5) 0.32271(15)
H189 H 0.5626 0.8358 0.3051
H190 H 0.4962 0.8274 0.3420
H191 H 0.4850 0.7486 0.3058
C130 C 1.0677(2) 0.6816(2) 0.43310(9)
C131 C 1.0872(3) 0.6642(3) 0.47922(10)
H192 H 1.1240 0.6032 0.4844
H193 H 1.0246 0.6594 0.4908
H194 H 1.1253 0.7189 0.4920
C132 C 1.0058(3) 0.7759(3) 0.42630(12)
H195 H 0.9443 0.7680 0.4385
H196 H 0.9913 0.7882 0.3969
H197 H 1.0425 0.8314 0.4392
C133 C 1.1659(2) 0.6958(3) 0.41631(11)
H198 H 1.2017 0.7497 0.4309
H199 H 1.1546 0.7113 0.3871
H200 H 1.2045 0.6355 0.4202
C134 C 0.1935(9) 0.3811(6) 0.4912(4)
H201 H 0.2338 0.3285 0.5046
H202 H 0.1761 0.3648 0.4623
H203 H 0.1337 0.3885 0.5046
O15 O 0.2462(4) 0.4685(5) 0.4943(2)
H204 H 0.2928 0.4651 0.4799
C38? C 0.2199(10) 1.0184(7) 0.2072(4)
H39? H 0.2397 0.9923 0.2350
H40? H 0.1491 1.0342 0.2053
C39? C 0.2765(8) 1.1116(7) 0.2017(3)
H41? H 0.2506 1.1425 0.1754
H42? H 0.3461 1.0949 0.2000
C40? C 0.2706(15) 1.1858(13) 0.2365(6)
H43? H 0.3084 1.2443 0.2312
H44? H 0.2977 1.1563 0.2625
H45? H 0.2021 1.2039 0.2379
H124? H 0.6791 0.2210 0.2502
H125? H 0.5726 0.2538 0.2375
C100? C 0.5799(11) 0.1181(6) 0.2634(4)
H128? H 0.5168 0.1179 0.2754
H129? H 0.5691 0.0873 0.2361
C101? C 0.6562(7) 0.0594(6) 0.2909(2)
H130? H 0.6330 -0.0079 0.2934
H131? H 0.6661 0.0896 0.3181
H132? H 0.7183 0.0590 0.2788
loop_
_geom_bond_atom_site_label_1
_geom_bond_atom_site_label_2
_geom_bond_site_symmetry_1
_geom_bond_site_symmetry_2
N1 C3 1_555 1_555
N2 H1 1_555 1_555
N3 C47 1_555 1_555
N4 C70 1_555 1_555
N5 H2 1_555 1_555
N6 C113 1_555 1_555
O1 C1 1_555 1_555
O2 C8 1_555 1_555
O3 C15 1_555 1_555
O4 C22 1_555 1_555
O5 C46 1_555 1_555
O6 C51 1_555 1_555
O7 C51 1_555 1_555
O8 C68 1_555 1_555
O9 C75 1_555 1_555
O10 C82 1_555 1_555
O11 C89 1_555 1_555
O12 C112 1_555 1_555
O13 C117 1_555 1_555
O14 C117 1_555 1_555
C1 C2 1_555 1_555
C2 C3 1_555 1_555
C3 C4 1_555 1_555
C4 N2 1_555 1_555
C5 C4 1_555 1_555
H3 C5 1_555 1_555
C6 C1 1_555 1_555
C7 C6 1_555 1_555
H4 C7 1_555 1_555
H5 C7 1_555 1_555
C8 C9 1_555 1_555
C9 C7 1_555 1_555
C10 C9 1_555 1_555
H6 C10 1_555 1_555
C11 C10 1_555 1_555
C12 C11 1_555 1_555
H7 C12 1_555 1_555
C13 C8 1_555 1_555
C14 C13 1_555 1_555
H8 C14 1_555 1_555
H9 C14 1_555 1_555
C15 C16 1_555 1_555
C16 C14 1_555 1_555
C17 C16 1_555 1_555
H10 C17 1_555 1_555
C18 C17 1_555 1_555
C19 C18 1_555 1_555
H11 C19 1_555 1_555
C20 C15 1_555 1_555
C21 C20 1_555 1_555
H12 C21 1_555 1_555
H13 C21 1_555 1_555
C22 C23 1_555 1_555
C23 C21 1_555 1_555
C24 C23 1_555 1_555
H14 C24 1_555 1_555
C25 C24 1_555 1_555
C26 C25 1_555 1_555
H15 C26 1_555 1_555
C27 C22 1_555 1_555
C28 C2 1_555 1_555
H16 C28 1_555 1_555
H17 C28 1_555 1_555
C29 O1 1_555 1_555
H18 C29 1_555 1_555
H19 C29 1_555 1_555
C30 C29 1_555 1_555
H20 C30 1_555 1_555
H21 C30 1_555 1_555
C31 C30 1_555 1_555
H22 C31 1_555 1_555
H23 C31 1_555 1_555
H24 C31 1_555 1_555
C32 O2 1_555 1_555
H25 C32 1_555 1_555
H26 C32 1_555 1_555
C33 C32 1_555 1_555
H27 C33 1_555 1_555
H28 C33 1_555 1_555
C34 C33 1_555 1_555
H29 C34 1_555 1_555
H30 C34 1_555 1_555
H31 C34 1_555 1_555
C35 O3 1_555 1_555
H32 C35 1_555 1_555
H33 C35 1_555 1_555
C36 C35 1_555 1_555
H34 C36 1_555 1_555
H35 C36 1_555 1_555
C37 C36 1_555 1_555
H36 C37 1_555 1_555
H37 C37 1_555 1_555
H38 C37 1_555 1_555
C41 O4 1_555 1_555
H46 C41 1_555 1_555
H47 C41 1_555 1_555
C42 C41 1_555 1_555
H48 C42 1_555 1_555
H49 C42 1_555 1_555
C43 C42 1_555 1_555
H50 C43 1_555 1_555
H51 C43 1_555 1_555
H52 C43 1_555 1_555
C44 N1 1_555 1_555
H53 C44 1_555 1_555
H54 C44 1_555 1_555
H55 C44 1_555 1_555
C45 N1 1_555 1_555
H56 C45 1_555 1_555
H57 C45 1_555 1_555
H58 C45 1_555 1_555
C46 N2 1_555 1_555
C47 C46 1_555 1_555
H59 C47 1_555 1_555
C48 C47 1_555 1_555
H60 C48 1_555 1_555
H61 C48 1_555 1_555
C49 C48 1_555 1_555
H62 C49 1_555 1_555
H63 C49 1_555 1_555
C50 N3 1_555 1_555
H64 C50 1_555 1_555
H65 C50 1_555 1_555
C51 N3 1_555 1_555
C52 O7 1_555 1_555
C53 C52 1_555 1_555
H66 C53 1_555 1_555
H67 C53 1_555 1_555
H68 C53 1_555 1_555
C54 C52 1_555 1_555
H69 C54 1_555 1_555
H70 C54 1_555 1_555
H71 C54 1_555 1_555
C55 C52 1_555 1_555
H72 C55 1_555 1_555
H73 C55 1_555 1_555
H74 C55 1_555 1_555
C56 C11 1_555 1_555
C57 C56 1_555 1_555
H75 C57 1_555 1_555
H76 C57 1_555 1_555
H77 C57 1_555 1_555
C58 C56 1_555 1_555
H78 C58 1_555 1_555
H79 C58 1_555 1_555
H80 C58 1_555 1_555
C59 C56 1_555 1_555
H81 C59 1_555 1_555
H82 C59 1_555 1_555
H83 C59 1_555 1_555
C60 C18 1_555 1_555
C61 C60 1_555 1_555
H84 C61 1_555 1_555
H85 C61 1_555 1_555
H86 C61 1_555 1_555
C62 C60 1_555 1_555
H87 C62 1_555 1_555
H88 C62 1_555 1_555
H89 C62 1_555 1_555
C63 C60 1_555 1_555
H90 C63 1_555 1_555
H91 C63 1_555 1_555
H92 C63 1_555 1_555
C64 C25 1_555 1_555
C65 C64 1_555 1_555
H93 C65 1_555 1_555
H94 C65 1_555 1_555
H95 C65 1_555 1_555
C66 C64 1_555 1_555
H96 C66 1_555 1_555
H97 C66 1_555 1_555
H98 C66 1_555 1_555
C67 C64 1_555 1_555
H99 C67 1_555 1_555
H100 C67 1_555 1_555
H101 C67 1_555 1_555
C68 C69 1_555 1_555
C69 C70 1_555 1_555
C70 C71 1_555 1_555
C71 N5 1_555 1_555
C72 C71 1_555 1_555
H102 C72 1_555 1_555
C73 C68 1_555 1_555
C74 C73 1_555 1_555
H103 C74 1_555 1_555
H104 C74 1_555 1_555
C75 C76 1_555 1_555
C76 C74 1_555 1_555
C77 C76 1_555 1_555
H105 C77 1_555 1_555
C78 C77 1_555 1_555
C79 C78 1_555 1_555
H106 C79 1_555 1_555
C80 C75 1_555 1_555
C81 C80 1_555 1_555
H107 C81 1_555 1_555
H108 C81 1_555 1_555
C82 C83 1_555 1_555
C83 C81 1_555 1_555
C84 C83 1_555 1_555
H109 C84 1_555 1_555
C85 C84 1_555 1_555
C86 C85 1_555 1_555
H110 C86 1_555 1_555
C87 C82 1_555 1_555
C88 C87 1_555 1_555
H111 C88 1_555 1_555
H112 C88 1_555 1_555
C89 C90 1_555 1_555
C90 C88 1_555 1_555
C91 C90 1_555 1_555
H113 C91 1_555 1_555
C92 C91 1_555 1_555
C93 C92 1_555 1_555
H114 C93 1_555 1_555
C94 C89 1_555 1_555
C95 C69 1_555 1_555
H115 C95 1_555 1_555
H116 C95 1_555 1_555
C96 O8 1_555 1_555
H117 C96 1_555 1_555
H118 C96 1_555 1_555
C97 C96 1_555 1_555
H119 C97 1_555 1_555
H120 C97 1_555 1_555
C98 C97 1_555 1_555
H121 C98 1_555 1_555
H122 C98 1_555 1_555
H123 C98 1_555 1_555
C99 O9 1_555 1_555
H126 C99 1_555 1_555
H127 C99 1_555 1_555
C102 C99 1_555 1_555
H133 C102 1_555 1_555
H134 C102 1_555 1_555
C103 C102 1_555 1_555
H135 C103 1_555 1_555
H136 C103 1_555 1_555
H137 C103 1_555 1_555
C104 O10 1_555 1_555
H138 C104 1_555 1_555
H139 C104 1_555 1_555
C105 C104 1_555 1_555
H140 C105 1_555 1_555
H141 C105 1_555 1_555
C106 C105 1_555 1_555
H142 C106 1_555 1_555
H143 C106 1_555 1_555
H144 C106 1_555 1_555
C107 O11 1_555 1_555
H145 C107 1_555 1_555
H146 C107 1_555 1_555
C108 C107 1_555 1_555
H147 C108 1_555 1_555
H148 C108 1_555 1_555
C109 C108 1_555 1_555
H149 C109 1_555 1_555
H150 C109 1_555 1_555
H151 C109 1_555 1_555
C110 N4 1_555 1_555
H152 C110 1_555 1_555
H153 C110 1_555 1_555
H154 C110 1_555 1_555
C111 N4 1_555 1_555
H155 C111 1_555 1_555
H156 C111 1_555 1_555
H157 C111 1_555 1_555
C112 N5 1_555 1_555
C113 C112 1_555 1_555
H158 C113 1_555 1_555
C114 C113 1_555 1_555
H159 C114 1_555 1_555
H160 C114 1_555 1_555
C115 C114 1_555 1_555
H161 C115 1_555 1_555
H162 C115 1_555 1_555
C116 N6 1_555 1_555
H163 C116 1_555 1_555
H164 C116 1_555 1_555
C117 N6 1_555 1_555
C118 O14 1_555 1_555
C119 C118 1_555 1_555
H165 C119 1_555 1_555
H166 C119 1_555 1_555
H167 C119 1_555 1_555
C120 C118 1_555 1_555
H168 C120 1_555 1_555
H169 C120 1_555 1_555
H170 C120 1_555 1_555
C121 C118 1_555 1_555
H171 C121 1_555 1_555
H172 C121 1_555 1_555
H173 C121 1_555 1_555
C122 C78 1_555 1_555
C123 C122 1_555 1_555
H174 C123 1_555 1_555
H175 C123 1_555 1_555
H176 C123 1_555 1_555
C124 C122 1_555 1_555
H177 C124 1_555 1_555
H178 C124 1_555 1_555
H179 C124 1_555 1_555
C125 C122 1_555 1_555
H180 C125 1_555 1_555
H181 C125 1_555 1_555
H182 C125 1_555 1_555
C126 C85 1_555 1_555
C127 C126 1_555 1_555
H183 C127 1_555 1_555
H184 C127 1_555 1_555
H185 C127 1_555 1_555
C128 C126 1_555 1_555
H186 C128 1_555 1_555
H187 C128 1_555 1_555
H188 C128 1_555 1_555
C129 C126 1_555 1_555
H189 C129 1_555 1_555
H190 C129 1_555 1_555
H191 C129 1_555 1_555
C130 C92 1_555 1_555
C131 C130 1_555 1_555
H192 C131 1_555 1_555
H193 C131 1_555 1_555
H194 C131 1_555 1_555
C132 C130 1_555 1_555
H195 C132 1_555 1_555
H196 C132 1_555 1_555
H197 C132 1_555 1_555
C133 C130 1_555 1_555
H198 C133 1_555 1_555
H199 C133 1_555 1_555
H200 C133 1_555 1_555
C134 H201 1_555 1_555
H202 C134 1_555 1_555
H203 C134 1_555 1_555
O15 C134 1_555 1_555
H204 O15 1_555 1_555
C5 C6 1_555 1_555
C12 C13 1_555 1_555
C19 C20 1_555 1_555
C26 C27 1_555 1_555
C27 C28 1_555 1_555
C49 C50 1_555 1_555
C72 C73 1_555 1_555
C79 C80 1_555 1_555
C86 C87 1_555 1_555
C93 C94 1_555 1_555
C94 C95 1_555 1_555
C115 C116 1_555 1_555

#END
