
#######################################################################
#
#                 Cambridge Crystallographic Data Centre
#                                CCDC 
#
#######################################################################
#
# If this CIF has been generated from an entry in the Cambridge 
# Structural Database, then it will include bibliographic, chemical, 
# crystal, experimental, refinement or atomic coordinate data resulting 
# from the CCDC's data processing and validation procedures.
#
#######################################################################

data_SIRWEW
_chemical_formula_moiety         'C33 H36 B1 Cl1 S2,H2 O1'
_chemical_name_systematic        
'(4-(2-(5-Chloro-2-methyl-3-thienyl)cyclopentenyl)-5-methyl-2-thienyl)(dimesityl)borane monohydrate'
_symmetry_cell_setting           monoclinic
_symmetry_space_group_name_H-M   'P 21/n'
_symmetry_Int_Tables_number      14
_space_group_name_Hall           '-P 2yn'
loop_
_symmetry_equiv_pos_site_id
_symmetry_equiv_pos_as_xyz
1 x,y,z
2 1/2-x,1/2+y,1/2-z
3 -x,-y,-z
4 1/2+x,1/2-y,1/2+z
_cell_length_a                   14.168(3)
_cell_length_b                   16.7732(18)
_cell_length_c                   14.455(3)
_cell_angle_alpha                90
_cell_angle_beta                 116.027(12)
_cell_angle_gamma                90
_cell_volume                     3086.76
_chemical_melting_point          '128-130 deg.C'
_cell_formula_units_Z            4
_chemical_properties_physical    light-sensitive
_exptl_crystal_preparation       photochromic
loop_
_atom_site_label
_atom_site_type_symbol
_atom_site_fract_x
_atom_site_fract_y
_atom_site_fract_z
B1 B 0.6822(5) 0.7176(4) 0.0037(6)
S1 S 0.79606(14) 0.72512(13) -0.11625(15)
S2 S 1.1990(4) 0.87611(18) 0.0644(3)
Cl1 Cl 1.3495(4) 0.8488(3) -0.0072(4)
C1 C 0.6543(5) 0.6658(4) 0.0805(5)
C2 C 0.6456(5) 0.5822(4) 0.0724(5)
C3 C 0.6115(5) 0.5392(5) 0.1356(6)
H1 H 0.6041 0.4841 0.1282
C4 C 0.5889(6) 0.5767(6) 0.2079(6)
C5 C 0.6001(5) 0.6564(5) 0.2201(6)
H2 H 0.5874 0.6815 0.2709
C6 C 0.6310(5) 0.7018(4) 0.1556(6)
C7 C 0.6698(6) 0.5343(5) -0.0051(6)
H3 H 0.6588 0.4786 0.0021
H4 H 0.7415 0.5429 0.0079
H5 H 0.6240 0.5513 -0.0737
C8 C 0.5466(8) 0.5291(6) 0.2739(7)
H6 H 0.5334 0.5650 0.3186
H7 H 0.5978 0.4902 0.3145
H8 H 0.4825 0.5027 0.2295
C9 C 0.6381(7) 0.7909(4) 0.1762(7)
H9 H 0.6604 0.8174 0.1303
H10 H 0.6880 0.8009 0.2461
H11 H 0.5705 0.8108 0.1653
C10 C 0.6088(5) 0.7872(4) -0.0585(5)
C11 C 0.5021(5) 0.7767(4) -0.1208(5)
C12 C 0.4363(6) 0.8417(5) -0.1641(6)
H12 H 0.3654 0.8325 -0.2056
C13 C 0.4720(7) 0.9187(5) -0.1478(6)
C14 C 0.5773(7) 0.9297(5) -0.0885(6)
H13 H 0.6035 0.9815 -0.0770
C15 C 0.6476(6) 0.8665(5) -0.0441(6)
C16 C 0.4546(6) 0.6954(5) -0.1442(7)
H14 H 0.5078 0.6563 -0.1090
H15 H 0.4250 0.6862 -0.2170
H16 H 0.4004 0.6916 -0.1215
C17 C 0.3989(8) 0.9888(6) -0.1916(8)
H17 H 0.3286 0.9698 -0.2312
H18 H 0.4206 1.0194 -0.2350
H19 H 0.4011 1.0216 -0.1363
C18 C 0.7595(7) 0.8873(5) 0.0240(8)
H20 H 0.7689 0.9439 0.0223
H21 H 0.8044 0.8605 0.0001
H22 H 0.7769 0.8710 0.0933
C19 C 0.7810(5) 0.6967(4) -0.0097(5)
C20 C 0.8720(5) 0.6594(4) 0.0575(5)
H23 H 0.8795 0.6383 0.1199
C21 C 0.9518(5) 0.6551(4) 0.0264(5)
C22 C 0.9210(5) 0.6870(4) -0.0711(5)
C23 C 0.9790(7) 0.6909(6) -0.1352(7)
H24 H 1.0469 0.6670 -0.0985
H25 H 0.9871 0.7456 -0.1499
H26 H 0.9404 0.6627 -0.1985
C24 C 1.0568(6) 0.6196(4) 0.0905(5)
C25 C 1.0675(7) 0.5394(5) 0.1391(6)
H27 H 1.0376 0.5399 0.1879
H28 H 1.0311 0.4994 0.0870
C26 C 1.1781(9) 0.5216(7) 0.1909(10)
H29 H 1.1948 0.4766 0.1586
H30 H 1.1987 0.5088 0.2626
C27 C 1.2346(6) 0.5957(6) 0.1821(7)
H31 H 1.2758 0.6187 0.2496
H32 H 1.2813 0.5829 0.1514
C28 C 1.1514(5) 0.6532(4) 0.1153(5)
C29 C 1.1722(5) 0.7335(5) 0.0922(5)
C30 C 1.1248(6) 0.8022(4) 0.1042(6)
C31 C 1.0586(10) 0.8139(7) 0.1496(10)
H33 H 1.0321 0.7634 0.1591
H34 H 1.0010 0.8472 0.1063
H35 H 1.0965 0.8392 0.2152
C32 C 1.2486(5) 0.7559(8) 0.0557(6)
H36 H 1.2901 0.7148 0.0507
C33 C 1.2660(9) 0.8227(11) 0.0304(8)
O1 O 0.0688(5) 0.9666(3) 0.0611(5)
loop_
_geom_bond_atom_site_label_1
_geom_bond_atom_site_label_2
_geom_bond_site_symmetry_1
_geom_bond_site_symmetry_2
B1 C1 1_555 1_555
S1 C19 1_555 1_555
S2 C30 1_555 1_555
Cl1 C33 1_555 1_555
C1 C2 1_555 1_555
C2 C3 1_555 1_555
C3 H1 1_555 1_555
C4 C3 1_555 1_555
C5 C4 1_555 1_555
H2 C5 1_555 1_555
C6 C1 1_555 1_555
C7 C2 1_555 1_555
H3 C7 1_555 1_555
H4 C7 1_555 1_555
H5 C7 1_555 1_555
C8 C4 1_555 1_555
H6 C8 1_555 1_555
H7 C8 1_555 1_555
H8 C8 1_555 1_555
C9 C6 1_555 1_555
H9 C9 1_555 1_555
H10 C9 1_555 1_555
H11 C9 1_555 1_555
C10 B1 1_555 1_555
C11 C10 1_555 1_555
C12 C11 1_555 1_555
H12 C12 1_555 1_555
C13 C12 1_555 1_555
C14 C13 1_555 1_555
H13 C14 1_555 1_555
C15 C10 1_555 1_555
C16 C11 1_555 1_555
H14 C16 1_555 1_555
H15 C16 1_555 1_555
H16 C16 1_555 1_555
C17 C13 1_555 1_555
H17 C17 1_555 1_555
H18 C17 1_555 1_555
H19 C17 1_555 1_555
C18 C15 1_555 1_555
H20 C18 1_555 1_555
H21 C18 1_555 1_555
H22 C18 1_555 1_555
C19 B1 1_555 1_555
C20 C19 1_555 1_555
H23 C20 1_555 1_555
C21 C20 1_555 1_555
C22 S1 1_555 1_555
C23 C22 1_555 1_555
H24 C23 1_555 1_555
H25 C23 1_555 1_555
H26 C23 1_555 1_555
C24 C21 1_555 1_555
C25 C24 1_555 1_555
H27 C25 1_555 1_555
H28 C25 1_555 1_555
C26 C25 1_555 1_555
H29 C26 1_555 1_555
H30 C26 1_555 1_555
C27 C26 1_555 1_555
H31 C27 1_555 1_555
H32 C27 1_555 1_555
C28 C24 1_555 1_555
C29 C28 1_555 1_555
C30 C29 1_555 1_555
C31 C30 1_555 1_555
H33 C31 1_555 1_555
H34 C31 1_555 1_555
H35 C31 1_555 1_555
C32 C29 1_555 1_555
H36 C32 1_555 1_555
C33 S2 1_555 1_555
C5 C6 1_555 1_555
C14 C15 1_555 1_555
C21 C22 1_555 1_555
C27 C28 1_555 1_555
C32 C33 1_555 1_555

#END
