
#######################################################################
#
#                 Cambridge Crystallographic Data Centre
#                                CCDC 
#
#######################################################################
#
# If this CIF has been generated from an entry in the Cambridge 
# Structural Database, then it will include bibliographic, chemical, 
# crystal, experimental, refinement or atomic coordinate data resulting 
# from the CCDC's data processing and validation procedures.
#
#######################################################################

data_SIRZOL
_chemical_formula_moiety         'C46 H64 N4 O2'
_chemical_name_systematic        
2,2'-[piperazine-1,4-diylbis(methylene-2,1-phenyleneazanediyl)]bis(4,6-di-t-butylphenol)
_symmetry_cell_setting           monoclinic
_symmetry_space_group_name_H-M   'I 2/c'
_symmetry_Int_Tables_number      15
_space_group_name_Hall           '-I 2yc'
loop_
_symmetry_equiv_pos_site_id
_symmetry_equiv_pos_as_xyz
1 x,y,z
2 -x,y,1/2-z
3 1/2+x,1/2+y,1/2+z
4 1/2-x,1/2+y,-z
5 -x,-y,-z
6 x,-y,1/2+z
7 1/2-x,1/2-y,1/2-z
8 1/2+x,1/2-y,z
_cell_length_a                   14.3396(17)
_cell_length_b                   13.9342(14)
_cell_length_c                   22.231(4)
_cell_angle_alpha                90
_cell_angle_beta                 95.927(13)
_cell_angle_gamma                90
_cell_volume                     4418.25
_exptl_crystal_colour            white
_exptl_crystal_description       Needle
_cell_formula_units_Z            4
_exptl_crystal_recrystallization_method Chloroform/methanol
loop_
_atom_site_label
_atom_site_type_symbol
_atom_site_fract_x
_atom_site_fract_y
_atom_site_fract_z
O1 O 0.5654(2) 0.4600(2) 0.54227(15)
H1 H 0.5364 0.4330 0.5134
N1 N 0.4873(2) 0.0916(2) 0.47092(15)
N2 N 0.5707(2) 0.2765(2) 0.49866(16)
H2 H 0.5186 0.2556 0.5097
C1 C 0.5267(3) 0.2186(3) 0.3980(2)
C2 C 0.5825(3) 0.2779(3) 0.4374(2)
C3 C 0.6363(3) 0.4010(3) 0.56708(19)
C4 C 0.6413(3) 0.3082(3) 0.54374(19)
C5 C 0.6984(3) 0.4326(3) 0.61542(19)
C6 C 0.8552(3) 0.2089(4) 0.6427(3)
C7 C 0.6889(3) 0.5321(3) 0.6440(2)
C8 C 0.4512(3) 0.1566(3) 0.4220(2)
H3 H 0.4042 0.1982 0.4367
H4 H 0.4207 0.1189 0.3889
C9 C 0.7120(3) 0.2471(3) 0.5673(2)
H5 H 0.7162 0.1860 0.5511
C10 C 0.6568(3) 0.3383(3) 0.3533(2)
H6 H 0.7001 0.3791 0.3382
C11 C 0.7681(3) 0.3688(3) 0.63759(19)
H7 H 0.8112 0.3888 0.6692
C12 C 0.5378(3) 0.2193(3) 0.3374(2)
H8 H 0.5011 0.1789 0.3114
C13 C 0.6482(3) 0.3381(3) 0.4141(2)
H9 H 0.6860 0.3779 0.4398
C14 C 0.7767(3) 0.2756(3) 0.6147(2)
C15 C 0.4115(3) 0.0455(3) 0.4990(2)
H10 H 0.3739 0.0072 0.4693
H11 H 0.3714 0.0941 0.5142
C16 C 0.4515(3) -0.0178(3) 0.5506(2)
H12 H 0.4869 0.0211 0.5811
H13 H 0.4007 -0.0482 0.5690
C17 C 0.6029(3) 0.2795(3) 0.3141(2)
H14 H 0.6097 0.2799 0.2729
C18 C 0.6941(3) 0.6121(3) 0.5971(2)
H15 H 0.7519 0.6067 0.5790
H16 H 0.6915 0.6734 0.6166
H17 H 0.6423 0.6062 0.5664
C19 C 0.7645(3) 0.5500(3) 0.6966(2)
H18 H 0.7600 0.5020 0.7272
H19 H 0.7556 0.6124 0.7135
H20 H 0.8253 0.5469 0.6822
C20 C 0.5923(3) 0.5368(3) 0.6704(2)
H21 H 0.5429 0.5256 0.6387
H22 H 0.5845 0.5990 0.6878
H23 H 0.5902 0.4885 0.7011
C21 C 0.8483(5) 0.1928(6) 0.7074(3)
H24 H 0.8980 0.1510 0.7234
H25 H 0.7889 0.1638 0.7127
H26 H 0.8534 0.2530 0.7284
C22 C 0.9501(3) 0.2525(5) 0.6367(3)
H27 H 0.9549 0.3131 0.6574
H28 H 0.9574 0.2622 0.5947
H29 H 0.9982 0.2101 0.6542
C23 C 0.8551(5) 0.1141(5) 0.6096(4)
H30 H 0.9109 0.0789 0.6232
H31 H 0.8533 0.1256 0.5669
H32 H 0.8010 0.0775 0.6177
O1D O 0.4346(2) -0.4600(2) 0.45773(15)
H1D H 0.4636 -0.4330 0.4866
N1D N 0.5127(2) -0.0916(2) 0.52908(15)
N2D N 0.4293(2) -0.2765(2) 0.50134(16)
H2D H 0.4814 -0.2556 0.4903
C1D C 0.4733(3) -0.2186(3) 0.6020(2)
C2D C 0.4175(3) -0.2779(3) 0.5626(2)
C3D C 0.3637(3) -0.4010(3) 0.43292(19)
C4D C 0.3587(3) -0.3082(3) 0.45626(19)
C5D C 0.3016(3) -0.4326(3) 0.38458(19)
C6D C 0.1448(3) -0.2089(4) 0.3573(3)
C7D C 0.3111(3) -0.5321(3) 0.3560(2)
C8D C 0.5488(3) -0.1566(3) 0.5780(2)
H3D H 0.5958 -0.1982 0.5633
H4D H 0.5793 -0.1189 0.6111
C9D C 0.2880(3) -0.2471(3) 0.4327(2)
H5D H 0.2838 -0.1860 0.4489
C10D C 0.3432(3) -0.3383(3) 0.6467(2)
H6D H 0.2999 -0.3791 0.6618
C11D C 0.2319(3) -0.3688(3) 0.36241(19)
H7D H 0.1888 -0.3888 0.3308
C12D C 0.4622(3) -0.2193(3) 0.6626(2)
H8D H 0.4989 -0.1789 0.6886
C13D C 0.3518(3) -0.3381(3) 0.5859(2)
H9D H 0.3140 -0.3779 0.5602
C14D C 0.2233(3) -0.2756(3) 0.3853(2)
C15D C 0.5885(3) -0.0455(3) 0.5010(2)
H10D H 0.6261 -0.0072 0.5307
H11D H 0.6286 -0.0941 0.4858
C16D C 0.5485(3) 0.0178(3) 0.4494(2)
H12D H 0.5131 -0.0211 0.4189
H13D H 0.5993 0.0482 0.4310
C17D C 0.3971(3) -0.2795(3) 0.6859(2)
H14D H 0.3903 -0.2799 0.7271
C18D C 0.3059(3) -0.6121(3) 0.4029(2)
H15D H 0.2481 -0.6067 0.4210
H16D H 0.3085 -0.6734 0.3834
H17D H 0.3577 -0.6062 0.4336
C19D C 0.2355(3) -0.5500(3) 0.3034(2)
H18D H 0.2400 -0.5020 0.2728
H19D H 0.2444 -0.6124 0.2865
H20D H 0.1747 -0.5469 0.3178
C20D C 0.4077(3) -0.5368(3) 0.3296(2)
H21D H 0.4571 -0.5256 0.3613
H22D H 0.4155 -0.5990 0.3122
H23D H 0.4098 -0.4885 0.2989
C21D C 0.1517(5) -0.1928(6) 0.2926(3)
H24D H 0.1020 -0.1510 0.2766
H25D H 0.2111 -0.1638 0.2873
H26D H 0.1466 -0.2530 0.2716
C22D C 0.0499(3) -0.2525(5) 0.3633(3)
H27D H 0.0451 -0.3131 0.3426
H28D H 0.0426 -0.2622 0.4053
H29D H 0.0018 -0.2101 0.3458
C23D C 0.1449(5) -0.1141(5) 0.3904(4)
H30D H 0.0891 -0.0789 0.3768
H31D H 0.1467 -0.1256 0.4331
H32D H 0.1990 -0.0775 0.3823
loop_
_geom_bond_atom_site_label_1
_geom_bond_atom_site_label_2
_geom_bond_site_symmetry_1
_geom_bond_site_symmetry_2
O1 H1 1_555 1_555
N1 C8 1_555 1_555
N2 H2 1_555 1_555
C1 C2 1_555 1_555
C2 N2 1_555 1_555
C3 O1 1_555 1_555
C4 N2 1_555 1_555
C5 C3 1_555 1_555
C6 C14 1_555 1_555
C7 C5 1_555 1_555
C8 C1 1_555 1_555
H3 C8 1_555 1_555
H4 C8 1_555 1_555
C9 C4 1_555 1_555
H5 C9 1_555 1_555
C10 H6 1_555 1_555
C11 C5 1_555 1_555
H7 C11 1_555 1_555
C12 C1 1_555 1_555
H8 C12 1_555 1_555
C13 C2 1_555 1_555
H9 C13 1_555 1_555
C14 C9 1_555 1_555
C15 N1 1_555 1_555
H10 C15 1_555 1_555
H11 C15 1_555 1_555
C16 C15 1_555 1_555
H12 C16 1_555 1_555
H13 C16 1_555 1_555
C17 C10 1_555 1_555
H14 C17 1_555 1_555
C18 C7 1_555 1_555
H15 C18 1_555 1_555
H16 C18 1_555 1_555
H17 C18 1_555 1_555
C19 C7 1_555 1_555
H18 C19 1_555 1_555
H19 C19 1_555 1_555
H20 C19 1_555 1_555
C20 C7 1_555 1_555
H21 C20 1_555 1_555
H22 C20 1_555 1_555
H23 C20 1_555 1_555
C21 C6 1_555 1_555
H24 C21 1_555 1_555
H25 C21 1_555 1_555
H26 C21 1_555 1_555
C22 C6 1_555 1_555
H27 C22 1_555 1_555
H28 C22 1_555 1_555
H29 C22 1_555 1_555
C23 C6 1_555 1_555
H30 C23 1_555 1_555
H31 C23 1_555 1_555
H32 C23 1_555 1_555
O1D H1D 1_555 1_555
N1D C16 1_555 1_555
N2D H2D 1_555 1_555
C1D C2D 1_555 1_555
C2D N2D 1_555 1_555
C3D O1D 1_555 1_555
C4D N2D 1_555 1_555
C5D C3D 1_555 1_555
C6D C14D 1_555 1_555
C7D C5D 1_555 1_555
C8D N1D 1_555 1_555
H3D C8D 1_555 1_555
H4D C8D 1_555 1_555
C9D C4D 1_555 1_555
H5D C9D 1_555 1_555
C10D H6D 1_555 1_555
C11D C5D 1_555 1_555
H7D C11D 1_555 1_555
C12D C1D 1_555 1_555
H8D C12D 1_555 1_555
C13D C2D 1_555 1_555
H9D C13D 1_555 1_555
C14D C9D 1_555 1_555
C15D N1D 1_555 1_555
H10D C15D 1_555 1_555
H11D C15D 1_555 1_555
C16D N1 1_555 1_555
H12D C16D 1_555 1_555
H13D C16D 1_555 1_555
C17D C10D 1_555 1_555
H14D C17D 1_555 1_555
C18D C7D 1_555 1_555
H15D C18D 1_555 1_555
H16D C18D 1_555 1_555
H17D C18D 1_555 1_555
C19D C7D 1_555 1_555
H18D C19D 1_555 1_555
H19D C19D 1_555 1_555
H20D C19D 1_555 1_555
C20D C7D 1_555 1_555
H21D C20D 1_555 1_555
H22D C20D 1_555 1_555
H23D C20D 1_555 1_555
C21D C6D 1_555 1_555
H24D C21D 1_555 1_555
H25D C21D 1_555 1_555
H26D C21D 1_555 1_555
C22D C6D 1_555 1_555
H27D C22D 1_555 1_555
H28D C22D 1_555 1_555
H29D C22D 1_555 1_555
C23D C6D 1_555 1_555
H30D C23D 1_555 1_555
H31D C23D 1_555 1_555
H32D C23D 1_555 1_555
C3 C4 1_555 1_555
C10 C13 1_555 1_555
C11 C14 1_555 1_555
C12 C17 1_555 1_555
C1D C8D 1_555 1_555
C3D C4D 1_555 1_555
C10D C13D 1_555 1_555
C11D C14D 1_555 1_555
C12D C17D 1_555 1_555
C15D C16D 1_555 1_555

#END
