
#######################################################################
#
#                 Cambridge Crystallographic Data Centre
#                                CCDC 
#
#######################################################################
#
# If this CIF has been generated from an entry in the Cambridge 
# Structural Database, then it will include bibliographic, chemical, 
# crystal, experimental, refinement or atomic coordinate data resulting 
# from the CCDC's data processing and validation procedures.
#
#######################################################################

data_SISBEE
_chemical_formula_moiety         'C19 H15 Cl1 N4 O1'
_chemical_name_systematic        
4-chloro-N-[1-(pyrimidin-2-yl)-2,3-dihydro-1H-indol-7-yl]benzamide
_symmetry_cell_setting           monoclinic
_symmetry_space_group_name_H-M   'C 2/c'
_symmetry_Int_Tables_number      15
_space_group_name_Hall           '-C 2yn'
loop_
_symmetry_equiv_pos_site_id
_symmetry_equiv_pos_as_xyz
1 x,y,z
2 -x,y,1/2-z
3 1/2+x,1/2+y,z
4 1/2-x,1/2+y,1/2-z
5 -x,-y,-z
6 x,-y,1/2+z
7 1/2-x,1/2-y,-z
8 1/2+x,1/2-y,1/2+z
_cell_length_a                   28.915(5)
_cell_length_b                   7.2981(12)
_cell_length_c                   20.587(3)
_cell_angle_alpha                90
_cell_angle_beta                 128.147(2)
_cell_angle_gamma                90
_cell_volume                     3416.53
_exptl_crystal_colour            colorless
_exptl_crystal_description       needle
_cell_formula_units_Z            8
loop_
_atom_site_label
_atom_site_type_symbol
_atom_site_fract_x
_atom_site_fract_y
_atom_site_fract_z
Cl1 Cl 0.38565(2) 0.33082(11) 0.40609(4)
N1 N 0.65815(6) 0.48574(17) 0.80235(8)
N2 N 0.71801(5) 0.74520(17) 0.84869(7)
N3 N 0.74497(6) 0.49208(18) 0.81231(8)
O1 O 0.52759(6) 1.01774(18) 0.67954(9)
N4 N 0.58584(6) 0.7773(2) 0.75667(9)
C1 C 0.68857(7) 0.84843(19) 0.87207(9)
C2 C 0.70615(6) 0.56817(19) 0.81986(8)
C3 C 0.72911(7) 0.9504(2) 0.94267(9)
C4 C 0.62844(7) 0.8683(2) 0.83179(10)
C5 C 0.71147(8) 1.0582(2) 0.97892(10)
H1 H 0.738933 1.121885 1.027462
C6 C 0.73409(8) 0.3206(2) 0.78616(10)
H2 H 0.760224 0.262817 0.780770
C7 C 0.78965(7) 0.9256(2) 0.96740(10)
H3 H 0.814729 0.858856 1.019044
H4 H 0.807643 1.042972 0.973373
C8 C 0.77937(7) 0.8164(2) 0.89681(10)
H5 H 0.783586 0.893992 0.862503
H6 H 0.807216 0.716093 0.917780
C9 C 0.64894(8) 0.3129(2) 0.77515(10)
H7 H 0.615804 0.251838 0.761657
C10 C 0.49964(6) 0.7207(2) 0.61858(10)
C11 C 0.61116(8) 0.9785(2) 0.86882(12)
H8 H 0.571390 0.990580 0.843982
C12 C 0.68611(9) 0.2225(2) 0.76637(11)
H9 H 0.679498 0.101759 0.748124
C13 C 0.53843(7) 0.8539(2) 0.68705(10)
C14 C 0.49739(8) 0.5358(3) 0.63256(11)
H10 H 0.519801 0.492303 0.686501
C15 C 0.65201(9) 1.0696(2) 0.94147(12)
H11 H 0.639566 1.139710 0.965787
C16 C 0.46485(8) 0.7831(3) 0.53756(12)
H12 H 0.465247 0.906796 0.527040
C17 C 0.42930(7) 0.4819(3) 0.48820(12)
C18 C 0.46235(8) 0.4153(3) 0.56754(13)
H13 H 0.461191 0.291616 0.577366
C19 C 0.42973(9) 0.6638(3) 0.47252(12)
H14 H 0.406518 0.706695 0.418436
H15 H 0.5943(10) 0.664(3) 0.7545(13)
loop_
_geom_bond_atom_site_label_1
_geom_bond_atom_site_label_2
_geom_bond_site_symmetry_1
_geom_bond_site_symmetry_2
Cl1 C17 1_555 1_555
N1 C2 1_555 1_555
N2 C1 1_555 1_555
N3 C2 1_555 1_555
O1 C13 1_555 1_555
N4 C4 1_555 1_555
C1 C3 1_555 1_555
C2 N2 1_555 1_555
C3 C5 1_555 1_555
C4 C1 1_555 1_555
C5 H1 1_555 1_555
C6 N3 1_555 1_555
H2 C6 1_555 1_555
C7 C3 1_555 1_555
H3 C7 1_555 1_555
H4 C7 1_555 1_555
C8 N2 1_555 1_555
H5 C8 1_555 1_555
H6 C8 1_555 1_555
C9 N1 1_555 1_555
H7 C9 1_555 1_555
C10 C13 1_555 1_555
C11 C4 1_555 1_555
H8 C11 1_555 1_555
C12 C6 1_555 1_555
H9 C12 1_555 1_555
C13 N4 1_555 1_555
C14 C10 1_555 1_555
H10 C14 1_555 1_555
C15 C5 1_555 1_555
H11 C15 1_555 1_555
C16 C10 1_555 1_555
H12 C16 1_555 1_555
C17 C18 1_555 1_555
C18 C14 1_555 1_555
H13 C18 1_555 1_555
C19 C16 1_555 1_555
H14 C19 1_555 1_555
H15 N4 1_555 1_555
C7 C8 1_555 1_555
C9 C12 1_555 1_555
C11 C15 1_555 1_555
C17 C19 1_555 1_555

#END
