
#######################################################################
#
#                 Cambridge Crystallographic Data Centre
#                                CCDC 
#
#######################################################################
#
# If this CIF has been generated from an entry in the Cambridge 
# Structural Database, then it will include bibliographic, chemical, 
# crystal, experimental, refinement or atomic coordinate data resulting 
# from the CCDC's data processing and validation procedures.
#
#######################################################################

data_SISCOP
_chemical_formula_moiety         'C21 H21 Br1 N2 O4 S1'
_chemical_name_systematic        
'methyl 5-(4-bromophenyl)-4-cyano-2-methyl-1-[(4-methylphenyl)sulfonyl]prolinate'
_symmetry_cell_setting           monoclinic
_symmetry_space_group_name_H-M   'P 21'
_symmetry_Int_Tables_number      4
_space_group_name_Hall           'P 2yb'
loop_
_symmetry_equiv_pos_site_id
_symmetry_equiv_pos_as_xyz
1 x,y,z
2 -x,1/2+y,-z
_cell_length_a                   9.1330(4)
_cell_length_b                   12.6163(4)
_cell_length_c                   10.2204(3)
_cell_angle_alpha                90
_cell_angle_beta                 113.676(4)
_cell_angle_gamma                90
_cell_volume                     1078.52
_exptl_crystal_colour            colorless
_exptl_crystal_description       Block
_cell_formula_units_Z            2
loop_
_atom_site_label
_atom_site_type_symbol
_atom_site_fract_x
_atom_site_fract_y
_atom_site_fract_z
Br1 Br -0.02308(6) 0.50857(5) 0.08062(5)
S1 S 0.55616(13) 0.37761(9) 0.79201(11)
O1 O 0.6975(4) 0.4182(3) 0.7824(4)
O2 O 0.5676(5) 0.3065(3) 0.9052(4)
O3 O 0.1706(4) 0.3846(3) 0.8113(4)
N1 N 0.4465(4) 0.4767(3) 0.8020(4)
C1 C 0.0665(5) 0.4938(4) 0.3793(5)
H1 H -0.0302 0.4582 0.3543
C2 C 0.4602(5) 0.3464(3) 0.5063(5)
H2 H 0.5410 0.3934 0.5118
O4 O 0.3197(5) 0.3509(4) 1.0407(5)
C3 C 0.3137(5) 0.5593(3) 0.5601(5)
C4 C 0.1676(5) 0.5069(4) 0.5214(4)
H3 H 0.1379 0.4804 0.5921
C5 C 0.1108(6) 0.5341(3) 0.2749(5)
C6 C 0.4301(5) 0.5724(3) 0.7133(5)
H4 H 0.5352 0.5901 0.7147
C7 C 0.3985(5) 0.4929(4) 0.9239(4)
C8 C 0.3000(6) 0.5943(4) 0.8764(6)
H5 H 0.2992 0.6333 0.9579
H6 H 0.1907 0.5785 0.8121
C9 C 0.3585(6) 0.3054(4) 0.3755(5)
H7 H 0.3710 0.3257 0.2931
C10 C 0.3527(6) 0.5999(4) 0.4522(5)
H8 H 0.4488 0.6360 0.4761
C11 C 0.2518(7) 0.5878(4) 0.3097(5)
H9 H 0.2795 0.6157 0.2385
C12 C 0.2943(6) 0.4009(4) 0.9332(5)
C13 C 0.2403(6) 0.2357(4) 0.3654(6)
C14 C 0.3853(6) 0.6571(4) 0.8000(5)
H10 H 0.4839 0.6869 0.8718
C15 C 0.5416(6) 0.5090(6) 1.0666(5)
H11 H 0.5989 0.4434 1.0959
H12 H 0.5044 0.5316 1.1376
H13 H 0.6113 0.5620 1.0557
C16 C 0.4406(5) 0.3170(3) 0.6281(5)
C17 C 0.2266(7) 0.2034(5) 0.4902(6)
H14 H 0.1494 0.1536 0.4851
C18 C 0.0585(7) 0.3008(6) 0.8059(8)
H15 H -0.0238 0.2964 0.7111
H16 H 0.0112 0.3164 0.8723
H17 H 0.1142 0.2344 0.8308
C19 C 0.3256(6) 0.2440(4) 0.6215(6)
H18 H 0.3149 0.2224 0.7042
C20 C 0.2904(7) 0.7432(4) 0.7098(7)
N2 N 0.2157(7) 0.8096(4) 0.6398(7)
C21 C 0.1277(8) 0.1937(6) 0.2222(7)
H19 H 0.0341 0.2376 0.1850
H20 H 0.0972 0.1224 0.2330
H21 H 0.1800 0.1941 0.1574
loop_
_geom_bond_atom_site_label_1
_geom_bond_atom_site_label_2
_geom_bond_site_symmetry_1
_geom_bond_site_symmetry_2
Br1 C5 1_555 1_555
S1 O1 1_555 1_555
O2 S1 1_555 1_555
O3 C12 1_555 1_555
N1 S1 1_555 1_555
C1 H1 1_555 1_555
C2 H2 1_555 1_555
O4 C12 1_555 1_555
C3 C4 1_555 1_555
C4 C1 1_555 1_555
H3 C4 1_555 1_555
C5 C1 1_555 1_555
C6 N1 1_555 1_555
H4 C6 1_555 1_555
C7 N1 1_555 1_555
C8 C7 1_555 1_555
H5 C8 1_555 1_555
H6 C8 1_555 1_555
C9 C2 1_555 1_555
H7 C9 1_555 1_555
C10 C3 1_555 1_555
H8 C10 1_555 1_555
C11 C5 1_555 1_555
H9 C11 1_555 1_555
C12 C7 1_555 1_555
C13 C9 1_555 1_555
C14 C6 1_555 1_555
H10 C14 1_555 1_555
C15 C7 1_555 1_555
H11 C15 1_555 1_555
H12 C15 1_555 1_555
H13 C15 1_555 1_555
C16 S1 1_555 1_555
C17 C13 1_555 1_555
H14 C17 1_555 1_555
C18 O3 1_555 1_555
H15 C18 1_555 1_555
H16 C18 1_555 1_555
H17 C18 1_555 1_555
C19 C16 1_555 1_555
H18 C19 1_555 1_555
C20 C14 1_555 1_555
N2 C20 1_555 1_555
C21 C13 1_555 1_555
H19 C21 1_555 1_555
H20 C21 1_555 1_555
H21 C21 1_555 1_555
C2 C16 1_555 1_555
C3 C6 1_555 1_555
C8 C14 1_555 1_555
C10 C11 1_555 1_555
C17 C19 1_555 1_555

#END
