
#######################################################################
#
#                 Cambridge Crystallographic Data Centre
#                                CCDC 
#
#######################################################################
#
# If this CIF has been generated from an entry in the Cambridge 
# Structural Database, then it will include bibliographic, chemical, 
# crystal, experimental, refinement or atomic coordinate data resulting 
# from the CCDC's data processing and validation procedures.
#
#######################################################################

data_SISDAC
_chemical_formula_moiety         'C20 H16 Br1 Cl1 N2 O3'
_chemical_name_systematic        
'methyl 1-(4-bromobenzene-1-carbonyl)-4-chloro-4-cyano-5-phenylprolinate'
_symmetry_cell_setting           orthorhombic
_symmetry_space_group_name_H-M   'P 21 21 21'
_symmetry_Int_Tables_number      19
_space_group_name_Hall           'P 2ac 2ab'
loop_
_symmetry_equiv_pos_site_id
_symmetry_equiv_pos_as_xyz
1 x,y,z
2 1/2-x,-y,1/2+z
3 -x,1/2+y,1/2-z
4 1/2+x,1/2-y,-z
_cell_length_a                   10.3858(4)
_cell_length_b                   11.1289(5)
_cell_length_c                   17.4363(8)
_cell_angle_alpha                90
_cell_angle_beta                 90
_cell_angle_gamma                90
_cell_volume                     2015.33
_exptl_crystal_colour            colorless
_exptl_crystal_description       Block
_cell_formula_units_Z            4
loop_
_atom_site_label
_atom_site_type_symbol
_atom_site_fract_x
_atom_site_fract_y
_atom_site_fract_z
Br1 Br 0.97096(8) 0.79121(8) 0.20423(5)
Cl1 Cl 0.5672(2) 0.5613(2) 0.60109(12)
O1 O 0.5412(6) 0.1328(4) 0.4719(3)
N1 N 0.5885(5) 0.4345(4) 0.4365(3)
O2 O 0.7641(5) 0.3213(4) 0.4224(3)
C1 C 0.7675(6) 0.5094(6) 0.3593(3)
C2 C 0.8905(7) 0.6745(6) 0.2680(4)
C3 C 0.5310(7) 0.3427(5) 0.4872(3)
H1 H 0.5925 0.3207 0.5274
C4 C 0.7648(7) 0.6416(7) 0.2496(4)
H2 H 0.7219 0.6744 0.2077
C5 C 0.9558(6) 0.6293(6) 0.3279(4)
H3 H 1.0392 0.6545 0.3387
C6 C 0.4961(7) 0.2316(6) 0.4400(4)
C7 C 0.7086(6) 0.4162(6) 0.4088(3)
C8 C 0.5277(7) 0.5535(5) 0.4459(4)
H4 H 0.5955 0.6139 0.4527
C9 C 0.8949(7) 0.5433(6) 0.3734(4)
H5 H 0.9398 0.5080 0.4137
C10 C 0.7075(6) 0.5581(6) 0.2966(4)
H6 H 0.6240 0.5335 0.2854
C11 C 0.4418(7) 0.5922(6) 0.3809(4)
C12 C 0.4176(7) 0.4052(6) 0.5222(4)
H7 H 0.4017 0.3760 0.5738
H8 H 0.3408 0.3929 0.4915
O3 O 0.4327(8) 0.2336(5) 0.3850(4)
C13 C 0.4556(7) 0.5372(6) 0.5233(4)
C14 C 0.5051(10) 0.0251(7) 0.4291(5)
H9 H 0.5392 0.0298 0.3781
H10 H 0.4129 0.0192 0.4269
H11 H 0.5393 -0.0446 0.4544
C15 C 0.3711(7) 0.5132(9) 0.3373(5)
H12 H 0.3717 0.4316 0.3489
N2 N 0.2639(8) 0.6817(8) 0.5419(5)
C16 C 0.2972(10) 0.6739(14) 0.2587(7)
H13 H 0.2485 0.7014 0.2175
C17 C 0.3494(8) 0.6196(8) 0.5347(5)
C18 C 0.2986(8) 0.5558(12) 0.2758(6)
H14 H 0.2507 0.5024 0.2463
C19 C 0.4370(9) 0.7129(8) 0.3623(6)
H15 H 0.4822 0.7688 0.3915
C20 C 0.3644(13) 0.7502(12) 0.2999(8)
H16 H 0.3634 0.8313 0.2869
loop_
_geom_bond_atom_site_label_1
_geom_bond_atom_site_label_2
_geom_bond_site_symmetry_1
_geom_bond_site_symmetry_2
Br1 C2 1_555 1_555
Cl1 C13 1_555 1_555
O1 C6 1_555 1_555
N1 C3 1_555 1_555
O2 C7 1_555 1_555
C1 C7 1_555 1_555
C2 C4 1_555 1_555
C3 H1 1_555 1_555
C4 H2 1_555 1_555
C5 C2 1_555 1_555
H3 C5 1_555 1_555
C6 C3 1_555 1_555
C7 N1 1_555 1_555
C8 N1 1_555 1_555
H4 C8 1_555 1_555
C9 C1 1_555 1_555
H5 C9 1_555 1_555
C10 C1 1_555 1_555
H6 C10 1_555 1_555
C11 C8 1_555 1_555
C12 C3 1_555 1_555
H7 C12 1_555 1_555
H8 C12 1_555 1_555
O3 C6 1_555 1_555
C13 C8 1_555 1_555
C14 O1 1_555 1_555
H9 C14 1_555 1_555
H10 C14 1_555 1_555
H11 C14 1_555 1_555
C15 C11 1_555 1_555
H12 C15 1_555 1_555
N2 C17 1_555 1_555
C16 H13 1_555 1_555
C17 C13 1_555 1_555
C18 C15 1_555 1_555
H14 C18 1_555 1_555
C19 C11 1_555 1_555
H15 C19 1_555 1_555
C20 C16 1_555 1_555
H16 C20 1_555 1_555
C4 C10 1_555 1_555
C5 C9 1_555 1_555
C12 C13 1_555 1_555
C16 C18 1_555 1_555
C19 C20 1_555 1_555

#END
