
#######################################################################
#
#                 Cambridge Crystallographic Data Centre
#                                CCDC 
#
#######################################################################
#
# If this CIF has been generated from an entry in the Cambridge 
# Structural Database, then it will include bibliographic, chemical, 
# crystal, experimental, refinement or atomic coordinate data resulting 
# from the CCDC's data processing and validation procedures.
#
#######################################################################

data_SISLOX
_chemical_formula_moiety         'C70 H50 O2'
_chemical_name_systematic        
3,4,7,8-tetrakis(biphenyl-4-yl)-1,10-diphenyldeca-2,4,6,8-tetraene-1,10-dione
_symmetry_cell_setting           monoclinic
_symmetry_space_group_name_H-M   'C 2/c'
_symmetry_Int_Tables_number      15
_space_group_name_Hall           '-C 2yn'
loop_
_symmetry_equiv_pos_site_id
_symmetry_equiv_pos_as_xyz
1 x,y,z
2 -x,y,1/2-z
3 1/2+x,1/2+y,z
4 1/2-x,1/2+y,1/2-z
5 -x,-y,-z
6 x,-y,1/2+z
7 1/2-x,1/2-y,-z
8 1/2+x,1/2-y,1/2+z
_cell_length_a                   28.8673(7)
_cell_length_b                   11.6645(2)
_cell_length_c                   18.6634(4)
_cell_angle_alpha                90
_cell_angle_beta                 126.9760(10)
_cell_angle_gamma                90
_cell_volume                     5020.52
_exptl_crystal_colour            yellow
_exptl_crystal_description       block
_cell_formula_units_Z            4
loop_
_atom_site_label
_atom_site_type_symbol
_atom_site_fract_x
_atom_site_fract_y
_atom_site_fract_z
C1 C 0.99273(13) 0.5982(3) 0.15685(19)
C2 C 0.94977(12) 0.5047(3) 0.11137(19)
H1 H 0.9155 0.5116 0.1054
C3 C 0.95719(12) 0.4108(2) 0.07824(18)
C4 C 1.01037(12) 0.3932(2) 0.08262(18)
C5 C 1.01930(12) 0.4566(2) 0.03137(17)
H2 H 1.0531 0.4429 0.0371
C6 C 0.97205(14) 0.7180(3) 0.1234(2)
C7 C 0.91477(16) 0.7489(3) 0.0702(3)
H3 H 0.8866 0.6943 0.0543
C8 C 0.89827(19) 0.8606(4) 0.0397(3)
H4 H 0.8593 0.8808 0.0048
C9 C 0.9385(2) 0.9403(4) 0.0603(3)
H5 H 0.9273 1.0155 0.0408
C10 C 0.9962(2) 0.9101(4) 0.1102(3)
H6 H 1.0238 0.9640 0.1222
C11 C 1.01294(18) 0.7999(3) 0.1423(3)
H7 H 1.0520 0.7802 0.1770
C12 C 0.91052(12) 0.3230(2) 0.02889(19)
C13 C 0.87462(14) 0.2969(3) 0.0532(2)
H8 H 0.8810 0.3324 0.1030
C14 C 0.82985(14) 0.2195(3) 0.0047(2)
H9 H 0.8071 0.2025 0.0233
C15 C 0.81773(13) 0.1655(3) -0.0721(2)
C16 C 0.85449(14) 0.1906(3) -0.0945(2)
H10 H 0.8482 0.1556 -0.1444
C17 C 0.90019(14) 0.2662(3) -0.0449(2)
H11 H 0.9245 0.2793 -0.0612
C18 C 0.76757(9) 0.0850(2) -0.12613(17)
C19 C 0.72815(14) 0.0731(3) -0.1070(2)
H12 H 0.7335 0.1136 -0.0595
C20 C 0.68068(14) 0.0006(3) -0.1586(3)
H13 H 0.6543 -0.0073 -0.1458
C21 C 0.67263(11) -0.0599(3) -0.2295(2)
H14 H 0.6409 -0.1084 -0.2641
C22 C 0.71205(14) -0.0480(3) -0.2487(2)
H15 H 0.7067 -0.0886 -0.2961
C23 C 0.75952(13) 0.0244(3) -0.1970(2)
H16 H 0.7859 0.0324 -0.2098
C24 C 1.05123(13) 0.3022(2) 0.14349(19)
C25 C 1.04244(14) 0.2396(3) 0.1969(2)
H17 H 1.0101 0.2551 0.1951
C26 C 1.08037(14) 0.1542(3) 0.2533(2)
H18 H 1.0724 0.1127 0.2873
C27 C 1.12959(13) 0.1290(2) 0.2604(2)
C28 C 1.13892(18) 0.1924(4) 0.2075(3)
H19 H 1.1719 0.1783 0.2108
C29 C 1.10046(18) 0.2760(4) 0.1500(3)
H20 H 1.1078 0.3159 0.1147
C30 C 1.17082(14) 0.0361(3) 0.31837(19)
C31 C 1.15071(17) -0.0668(3) 0.3262(3)
H21 H 1.1114 -0.0761 0.2988
C32 C 1.18869(19) -0.1566(4) 0.3747(3)
H22 H 1.1743 -0.2263 0.3777
C33 C 1.24661(19) -0.1441(4) 0.4178(3)
H23 H 1.2718 -0.2047 0.4500
C34 C 1.26734(18) -0.0409(4) 0.4133(3)
H24 H 1.3070 -0.0307 0.4438
C35 C 1.22963(16) 0.0480(3) 0.3636(2)
H25 H 1.2443 0.1173 0.3606
O1 O 1.04366(9) 0.58010(19) 0.21742(14)
C1D C 1.00727(13) 0.4018(3) -0.15685(19)
C2D C 1.05023(12) 0.4953(3) -0.11137(19)
H1D H 1.0845 0.4884 -0.1054
C3D C 1.04281(12) 0.5892(2) -0.07824(18)
C4D C 0.98963(12) 0.6068(2) -0.08262(18)
C5D C 0.98070(12) 0.5434(2) -0.03137(17)
H2D H 0.9469 0.5571 -0.0371
C6D C 1.02795(14) 0.2820(3) -0.1234(2)
C7D C 1.08523(16) 0.2511(3) -0.0702(3)
H3D H 1.1134 0.3057 -0.0543
C8D C 1.10173(19) 0.1394(4) -0.0397(3)
H4D H 1.1407 0.1192 -0.0048
C9D C 1.0615(2) 0.0597(4) -0.0603(3)
H5D H 1.0727 -0.0155 -0.0408
C10D C 1.0038(2) 0.0899(4) -0.1102(3)
H6D H 0.9762 0.0360 -0.1222
C11D C 0.98706(18) 0.2001(3) -0.1423(3)
H7D H 0.9480 0.2198 -0.1770
C12D C 1.08948(12) 0.6770(2) -0.02889(19)
C13D C 1.12538(14) 0.7031(3) -0.0532(2)
H8D H 1.1190 0.6676 -0.1030
C14D C 1.17015(14) 0.7805(3) -0.0047(2)
H9D H 1.1929 0.7975 -0.0233
C15D C 1.18227(13) 0.8345(3) 0.0721(2)
C16D C 1.14551(14) 0.8094(3) 0.0945(2)
H10D H 1.1518 0.8444 0.1444
C17D C 1.09981(14) 0.7338(3) 0.0449(2)
H11D H 1.0755 0.7207 0.0612
C18D C 1.23243(9) 0.9150(2) 0.12613(17)
C19D C 1.27185(14) 0.9269(3) 0.1070(2)
H12D H 1.2665 0.8864 0.0595
C20D C 1.31932(14) 0.9994(3) 0.1586(3)
H13D H 1.3457 1.0073 0.1458
C21D C 1.32737(11) 1.0599(3) 0.2295(2)
H14D H 1.3591 1.1084 0.2641
C22D C 1.28795(14) 1.0480(3) 0.2487(2)
H15D H 1.2933 1.0886 0.2961
C23D C 1.24048(13) 0.9756(3) 0.1970(2)
H16D H 1.2141 0.9676 0.2098
C24D C 0.94877(13) 0.6978(2) -0.14349(19)
C25D C 0.95756(14) 0.7604(3) -0.1969(2)
H17D H 0.9899 0.7449 -0.1951
C26D C 0.91963(14) 0.8458(3) -0.2533(2)
H18D H 0.9276 0.8873 -0.2873
C27D C 0.87041(13) 0.8710(2) -0.2604(2)
C28D C 0.86108(18) 0.8076(4) -0.2075(3)
H19D H 0.8281 0.8217 -0.2108
C29D C 0.89954(18) 0.7240(4) -0.1500(3)
H20D H 0.8922 0.6841 -0.1147
C30D C 0.82918(14) 0.9639(3) -0.31837(19)
C31D C 0.84929(17) 1.0668(3) -0.3262(3)
H21D H 0.8886 1.0761 -0.2988
C32D C 0.81131(19) 1.1566(4) -0.3747(3)
H22D H 0.8257 1.2263 -0.3777
C33D C 0.75339(19) 1.1441(4) -0.4178(3)
H23D H 0.7282 1.2047 -0.4500
C34D C 0.73266(18) 1.0409(4) -0.4133(3)
H24D H 0.6930 1.0307 -0.4438
C35D C 0.77037(16) 0.9520(3) -0.3636(2)
H25D H 0.7557 0.8827 -0.3606
O1D O 0.95634(9) 0.41990(19) -0.21742(14)
loop_
_geom_bond_atom_site_label_1
_geom_bond_atom_site_label_2
_geom_bond_site_symmetry_1
_geom_bond_site_symmetry_2
C1 C2 1_555 1_555
C2 H1 1_555 1_555
C3 C2 1_555 1_555
C4 C3 1_555 1_555
C5 C4 1_555 1_555
H2 C5 1_555 1_555
C6 C1 1_555 1_555
C7 C6 1_555 1_555
H3 C7 1_555 1_555
C8 C7 1_555 1_555
H4 C8 1_555 1_555
C9 C8 1_555 1_555
H5 C9 1_555 1_555
C10 C9 1_555 1_555
H6 C10 1_555 1_555
C11 C6 1_555 1_555
H7 C11 1_555 1_555
C12 C3 1_555 1_555
C13 C12 1_555 1_555
H8 C13 1_555 1_555
C14 C13 1_555 1_555
H9 C14 1_555 1_555
C15 C14 1_555 1_555
C16 C15 1_555 1_555
H10 C16 1_555 1_555
C17 C12 1_555 1_555
H11 C17 1_555 1_555
C18 C15 1_555 1_555
C19 C18 1_555 1_555
H12 C19 1_555 1_555
C20 C19 1_555 1_555
H13 C20 1_555 1_555
C21 C20 1_555 1_555
H14 C21 1_555 1_555
C22 C21 1_555 1_555
H15 C22 1_555 1_555
C23 C18 1_555 1_555
H16 C23 1_555 1_555
C24 C4 1_555 1_555
C25 C24 1_555 1_555
H17 C25 1_555 1_555
C26 C25 1_555 1_555
H18 C26 1_555 1_555
C27 C26 1_555 1_555
C28 C27 1_555 1_555
H19 C28 1_555 1_555
C29 C24 1_555 1_555
H20 C29 1_555 1_555
C30 C27 1_555 1_555
C31 C30 1_555 1_555
H21 C31 1_555 1_555
C32 C31 1_555 1_555
H22 C32 1_555 1_555
C33 C32 1_555 1_555
H23 C33 1_555 1_555
C34 C33 1_555 1_555
H24 C34 1_555 1_555
C35 C30 1_555 1_555
H25 C35 1_555 1_555
O1 C1 1_555 1_555
C1D C2D 1_555 1_555
C2D H1D 1_555 1_555
C3D C2D 1_555 1_555
C4D C3D 1_555 1_555
C5D C5 1_555 1_555
H2D C5D 1_555 1_555
C6D C1D 1_555 1_555
C7D C6D 1_555 1_555
H3D C7D 1_555 1_555
C8D C7D 1_555 1_555
H4D C8D 1_555 1_555
C9D C8D 1_555 1_555
H5D C9D 1_555 1_555
C10D C9D 1_555 1_555
H6D C10D 1_555 1_555
C11D C6D 1_555 1_555
H7D C11D 1_555 1_555
C12D C3D 1_555 1_555
C13D C12D 1_555 1_555
H8D C13D 1_555 1_555
C14D C13D 1_555 1_555
H9D C14D 1_555 1_555
C15D C14D 1_555 1_555
C16D C15D 1_555 1_555
H10D C16D 1_555 1_555
C17D C12D 1_555 1_555
H11D C17D 1_555 1_555
C18D C15D 1_555 1_555
C19D C18D 1_555 1_555
H12D C19D 1_555 1_555
C20D C19D 1_555 1_555
H13D C20D 1_555 1_555
C21D C20D 1_555 1_555
H14D C21D 1_555 1_555
C22D C21D 1_555 1_555
H15D C22D 1_555 1_555
C23D C18D 1_555 1_555
H16D C23D 1_555 1_555
C24D C4D 1_555 1_555
C25D C24D 1_555 1_555
H17D C25D 1_555 1_555
C26D C25D 1_555 1_555
H18D C26D 1_555 1_555
C27D C26D 1_555 1_555
C28D C27D 1_555 1_555
H19D C28D 1_555 1_555
C29D C24D 1_555 1_555
H20D C29D 1_555 1_555
C30D C27D 1_555 1_555
C31D C30D 1_555 1_555
H21D C31D 1_555 1_555
C32D C31D 1_555 1_555
H22D C32D 1_555 1_555
C33D C32D 1_555 1_555
H23D C33D 1_555 1_555
C34D C33D 1_555 1_555
H24D C34D 1_555 1_555
C35D C30D 1_555 1_555
H25D C35D 1_555 1_555
O1D C1D 1_555 1_555
C10 C11 1_555 1_555
C16 C17 1_555 1_555
C22 C23 1_555 1_555
C28 C29 1_555 1_555
C34 C35 1_555 1_555
C4D C5D 1_555 1_555
C10D C11D 1_555 1_555
C16D C17D 1_555 1_555
C22D C23D 1_555 1_555
C28D C29D 1_555 1_555
C34D C35D 1_555 1_555

#END
