
#######################################################################
#
#                 Cambridge Crystallographic Data Centre
#                                CCDC 
#
#######################################################################
#
# If this CIF has been generated from an entry in the Cambridge 
# Structural Database, then it will include bibliographic, chemical, 
# crystal, experimental, refinement or atomic coordinate data resulting 
# from the CCDC's data processing and validation procedures.
#
#######################################################################

data_SISNIU
_chemical_formula_moiety         'C16 H13 Cl1 O2'
_chemical_name_systematic        
(S,E)-1-(4-chlorophenyl)-4-hydroxy-4-phenylbut-2-en-1-one
_symmetry_cell_setting           triclinic
_symmetry_space_group_name_H-M   'P 1'
_symmetry_Int_Tables_number      1
_space_group_name_Hall           'P 1'
loop_
_symmetry_equiv_pos_site_id
_symmetry_equiv_pos_as_xyz
1 x,y,z
_cell_length_a                   6.5896(3)
_cell_length_b                   9.7473(5)
_cell_length_c                   12.2249(8)
_cell_angle_alpha                68.974(6)
_cell_angle_beta                 75.048(5)
_cell_angle_gamma                71.536(5)
_cell_volume                     685.899
_exptl_crystal_colour            colorless
_exptl_crystal_description       Block
_cell_formula_units_Z            2
loop_
_atom_site_label
_atom_site_type_symbol
_atom_site_fract_x
_atom_site_fract_y
_atom_site_fract_z
Cl1 Cl 2.16238(18) 0.32616(14) 0.09152(11)
O1 O 0.7918(4) 0.4725(3) 0.4665(2)
H1 H 0.7241 0.5075 0.4108
C1 C 0.7051(13) 0.2180(8) 0.9033(5)
H2 H 0.6869 0.1975 0.9851
C2 C 1.7246(7) 0.0900(5) 0.2663(4)
H3 H 1.7184 -0.0106 0.2889
O2 O 1.3476(5) 0.0115(3) 0.4020(3)
C3 C 0.7549(7) 0.2831(4) 0.6584(4)
C4 C 0.5813(8) 0.2287(5) 0.7323(4)
H4 H 0.4792 0.2138 0.7003
C5 C 0.9036(9) 0.3033(5) 0.7100(5)
H5 H 1.0215 0.3396 0.6617
C6 C 0.8800(11) 0.2706(7) 0.8313(5)
H6 H 0.9819 0.2841 0.8643
C7 C 1.5446(6) 0.1964(4) 0.2989(3)
C8 C 0.5595(10) 0.1962(7) 0.8547(5)
H7 H 0.4430 0.1588 0.9039
C9 C 1.1537(7) 0.2583(4) 0.4063(4)
H8 H 1.1516 0.3608 0.3747
C10 C 1.9243(7) 0.2765(5) 0.1690(4)
C11 C 0.7822(7) 0.3189(4) 0.5257(4)
H9 H 0.6579 0.3025 0.5066
C12 C 0.9841(7) 0.2173(5) 0.4816(4)
H10 H 0.9914 0.1140 0.5101
C13 C 1.9112(8) 0.1296(6) 0.2017(4)
H11 H 2.0296 0.0564 0.1800
C14 C 1.7467(8) 0.3864(5) 0.1984(4)
H12 H 1.7544 0.4868 0.1751
C15 C 1.3462(7) 0.1461(5) 0.3709(3)
C16 C 1.5592(8) 0.3461(5) 0.2621(4)
H13 H 1.4394 0.4203 0.2812
Cl2 Cl -1.16273(17) 0.68078(14) 0.89056(10)
O3 O -0.3386(5) 0.9893(3) 0.5846(3)
C17 C -0.3456(7) 0.8572(4) 0.6102(4)
C18 C -0.5505(8) 0.6572(5) 0.7331(4)
H14 H -0.4272 0.5814 0.7208
C19 C 0.0061(7) 0.7880(5) 0.4891(4)
H15 H 0.0049 0.8902 0.4650
C20 C -0.5415(7) 0.8075(4) 0.6848(3)
C21 C 0.1995(7) 0.6843(5) 0.4383(3)
H16 H 0.1779 0.5814 0.4715
O4 O 0.3892(4) 0.6834(3) 0.4750(3)
H17 H 0.3868 0.7702 0.4696
C22 C -0.1601(7) 0.7468(5) 0.5640(4)
H18 H -0.1630 0.6453 0.5895
C23 C -0.9203(7) 0.7287(5) 0.8130(3)
C24 C -0.7385(8) 0.6177(5) 0.7989(4)
H19 H -0.7409 0.5162 0.8332
C25 C 0.2271(7) 0.7276(4) 0.3036(3)
C26 C -0.9197(7) 0.8801(5) 0.7668(4)
H20 H -1.0450 0.9550 0.7781
C27 C 0.0789(8) 0.7086(5) 0.2515(4)
H21 H -0.0377 0.6699 0.2990
C28 C -0.7292(7) 0.9178(5) 0.7036(4)
H22 H -0.7261 1.0195 0.6728
C29 C 0.3981(8) 0.7864(5) 0.2308(4)
H23 H 0.4988 0.8002 0.2645
C30 C 0.4210(9) 0.8250(6) 0.1087(5)
H24 H 0.5366 0.8646 0.0609
C31 C 0.1033(10) 0.7468(7) 0.1286(5)
H25 H 0.0040 0.7330 0.0941
C32 C 0.2750(10) 0.8053(7) 0.0580(5)
H26 H 0.2912 0.8313 -0.0242
loop_
_geom_bond_atom_site_label_1
_geom_bond_atom_site_label_2
_geom_bond_site_symmetry_1
_geom_bond_site_symmetry_2
Cl1 C10 1_555 1_555
O1 H1 1_555 1_555
C1 H2 1_555 1_555
C2 H3 1_555 1_555
O2 C15 1_555 1_555
C3 C4 1_555 1_555
C4 H4 1_555 1_555
C5 C3 1_555 1_555
H5 C5 1_555 1_555
C6 C1 1_555 1_555
H6 C6 1_555 1_555
C7 C2 1_555 1_555
C8 C1 1_555 1_555
H7 C8 1_555 1_555
C9 H8 1_555 1_555
C10 C13 1_555 1_555
C11 O1 1_555 1_555
H9 C11 1_555 1_555
C12 C9 1_555 1_555
H10 C12 1_555 1_555
C13 C2 1_555 1_555
H11 C13 1_555 1_555
C14 C10 1_555 1_555
H12 C14 1_555 1_555
C15 C7 1_555 1_555
C16 C7 1_555 1_555
H13 C16 1_555 1_555
Cl2 C23 1_555 1_555
O3 C17 1_555 1_555
C17 C20 1_555 1_555
C18 H14 1_555 1_555
C19 H15 1_555 1_555
C20 C18 1_555 1_555
C21 C19 1_555 1_555
H16 C21 1_555 1_555
O4 C21 1_555 1_555
H17 O4 1_555 1_555
C22 C17 1_555 1_555
H18 C22 1_555 1_555
C23 C24 1_555 1_555
C24 C18 1_555 1_555
H19 C24 1_555 1_555
C25 C21 1_555 1_555
C26 C23 1_555 1_555
H20 C26 1_555 1_555
C27 C25 1_555 1_555
H21 C27 1_555 1_555
C28 C20 1_555 1_555
H22 C28 1_555 1_555
C29 C25 1_555 1_555
H23 C29 1_555 1_555
C30 C29 1_555 1_555
H24 C30 1_555 1_555
C31 C27 1_555 1_555
H25 C31 1_555 1_555
C32 C30 1_555 1_555
H26 C32 1_555 1_555
C3 C11 1_555 1_555
C4 C8 1_555 1_555
C5 C6 1_555 1_555
C9 C15 1_555 1_555
C11 C12 1_555 1_555
C14 C16 1_555 1_555
C19 C22 1_555 1_555
C26 C28 1_555 1_555
C31 C32 1_555 1_555

#END
