
#######################################################################
#
#                 Cambridge Crystallographic Data Centre
#                                CCDC 
#
#######################################################################
#
# If this CIF has been generated from an entry in the Cambridge 
# Structural Database, then it will include bibliographic, chemical, 
# crystal, experimental, refinement or atomic coordinate data resulting 
# from the CCDC's data processing and validation procedures.
#
#######################################################################

data_SISREU
_chemical_formula_moiety         'C48 H20 Cl4 N12 O12,6(C1 H1 Cl3)'
_chemical_name_systematic        
'naphthalene-2,6-diyl bis[5,17-dichloro-2,8,14,20-tetraoxa-4,6,16,18,26,28-hexaazapentacyclo[19.3.1.1^3,7^.1^9,13^.1^15,19^]octacosa-1(25),3(28),4,6,9(27),10,12,15(26),16,18,21,23-dodecaene-11-carboxylate] chloroform solvate'
_symmetry_cell_setting           monoclinic
_symmetry_space_group_name_H-M   'P 21/c'
_symmetry_Int_Tables_number      14
_space_group_name_Hall           '-P 2ybc'
loop_
_symmetry_equiv_pos_site_id
_symmetry_equiv_pos_as_xyz
1 x,y,z
2 -x,1/2+y,1/2-z
3 -x,-y,-z
4 x,1/2-y,1/2+z
_cell_length_a                   10.035(3)
_cell_length_b                   21.931(7)
_cell_length_c                   17.509(6)
_cell_angle_alpha                90
_cell_angle_beta                 94.079(5)
_cell_angle_gamma                90
_cell_volume                     3843.58
_exptl_crystal_colour            colorless
_exptl_crystal_description       block
_cell_formula_units_Z            2
loop_
_atom_site_label
_atom_site_type_symbol
_atom_site_fract_x
_atom_site_fract_y
_atom_site_fract_z
Cl1 Cl 0.3656(2) 0.29971(10) 0.22435(15)
Cl2 Cl 0.1727(4) 0.31329(17) 0.3347(3)
Cl3 Cl 0.4177(3) 0.38405(11) 0.34764(15)
C1 C 0.2910(8) 0.3511(3) 0.2850(5)
H1 H 0.2467 0.3834 0.2540
Cl4 Cl 1.08360(17) 0.55599(8) 0.75513(11)
Cl5 Cl 0.4787(2) 0.18173(10) 1.11418(12)
O1 O 0.7467(4) 0.20398(17) 0.8994(2)
O2 O 0.9555(3) 0.34466(16) 0.7336(2)
O3 O 0.6385(4) 0.48622(17) 0.7928(2)
O4 O 0.3861(4) 0.3322(2) 0.9166(2)
O5 O 0.7340(4) 0.18217(18) 0.5561(2)
O6 O 0.6635(4) 0.11629(17) 0.6439(2)
N1 N 0.8465(5) 0.5165(2) 0.7748(3)
N2 N 1.0092(4) 0.4432(2) 0.7434(3)
N3 N 0.7875(4) 0.41025(19) 0.7646(2)
N4 N 0.6177(5) 0.1957(2) 0.9971(3)
N5 N 0.4335(5) 0.2631(3) 1.0071(3)
N6 N 0.5690(4) 0.2711(2) 0.9009(3)
C2 C 0.4683(6) 0.2874(3) 0.9409(3)
C3 C 0.5135(7) 0.2177(3) 1.0303(4)
C4 C 0.6397(6) 0.2250(2) 0.9325(3)
C5 C 0.7697(5) 0.2253(2) 0.8250(3)
C6 C 0.7288(5) 0.1892(2) 0.7631(3)
H2 H 0.6805 0.1537 0.7701
C7 C 0.7606(5) 0.2065(2) 0.6906(3)
C8 C 0.8314(5) 0.2607(2) 0.6800(3)
H3 H 0.8513 0.2732 0.6314
C9 C 0.8708(5) 0.2948(2) 0.7438(3)
C10 C 0.8411(5) 0.2788(2) 0.8164(3)
H4 H 0.8678 0.3030 0.8584
C11 C 0.9136(5) 0.4016(2) 0.7479(3)
C12 C 0.9675(5) 0.4986(3) 0.7580(3)
C13 C 0.7618(5) 0.4685(2) 0.7767(3)
C14 C 0.5342(5) 0.4424(2) 0.7916(3)
C15 C 0.4398(6) 0.4458(3) 0.7309(4)
H5 H 0.4500 0.4725 0.6904
C16 C 0.3287(6) 0.4082(3) 0.7319(4)
H6 H 0.2630 0.4095 0.6917
C17 C 0.3156(5) 0.3691(3) 0.7922(4)
H7 H 0.2412 0.3439 0.7927
C18 C 0.4125(5) 0.3673(3) 0.8518(3)
C19 C 0.5250(5) 0.4038(2) 0.8524(3)
H8 H 0.5912 0.4021 0.8923
C20 C 0.7202(5) 0.1693(2) 0.6221(3)
C21 C 0.6234(6) 0.0738(3) 0.5851(3)
C22 C 0.7239(7) 0.0414(3) 0.5485(4)
H9 H 0.8139 0.0503 0.5592
C23 C 0.4945(6) 0.0636(3) 0.5712(3)
H10 H 0.4323 0.0866 0.5956
C24 C 0.4502(6) 0.0157(3) 0.5172(3)
C25 C 0.3155(6) 0.0034(3) 0.5029(4)
H11 H 0.2523 0.0254 0.5279
Cl4B Cl -0.08360(17) -0.55599(8) 0.24487(11)
Cl5B Cl 0.5213(2) -0.18173(10) -0.11418(12)
O1B O 0.2533(4) -0.20398(17) 0.1006(2)
O2B O 0.0445(3) -0.34466(16) 0.2664(2)
O3B O 0.3615(4) -0.48622(17) 0.2072(2)
O4B O 0.6139(4) -0.3322(2) 0.0834(2)
O5B O 0.2660(4) -0.18217(18) 0.4439(2)
O6B O 0.3365(4) -0.11629(17) 0.3561(2)
N1B N 0.1535(5) -0.5165(2) 0.2252(3)
N2B N -0.0092(4) -0.4432(2) 0.2566(3)
N3B N 0.2125(4) -0.41025(19) 0.2354(2)
N4B N 0.3823(5) -0.1957(2) 0.0029(3)
N5B N 0.5665(5) -0.2631(3) -0.0071(3)
N6B N 0.4310(4) -0.2711(2) 0.0991(3)
C2B C 0.5317(6) -0.2874(3) 0.0591(3)
C3B C 0.4865(7) -0.2177(3) -0.0303(4)
C4B C 0.3603(6) -0.2250(2) 0.0675(3)
C5B C 0.2303(5) -0.2253(2) 0.1750(3)
C6B C 0.2712(5) -0.1892(2) 0.2369(3)
H2B H 0.3195 -0.1537 0.2299
C7B C 0.2394(5) -0.2065(2) 0.3094(3)
C8B C 0.1686(5) -0.2607(2) 0.3200(3)
H3B H 0.1487 -0.2732 0.3686
C9B C 0.1292(5) -0.2948(2) 0.2562(3)
C10B C 0.1589(5) -0.2788(2) 0.1836(3)
H4B H 0.1322 -0.3030 0.1416
C11B C 0.0864(5) -0.4016(2) 0.2521(3)
C12B C 0.0325(5) -0.4986(3) 0.2420(3)
C13B C 0.2382(5) -0.4685(2) 0.2233(3)
C14B C 0.4658(5) -0.4424(2) 0.2084(3)
C15B C 0.5602(6) -0.4458(3) 0.2691(4)
H5B H 0.5500 -0.4725 0.3096
C16B C 0.6713(6) -0.4082(3) 0.2681(4)
H6B H 0.7370 -0.4095 0.3083
C17B C 0.6844(5) -0.3691(3) 0.2078(4)
H7B H 0.7588 -0.3439 0.2073
C18B C 0.5875(5) -0.3673(3) 0.1482(3)
C19B C 0.4750(5) -0.4038(2) 0.1476(3)
H8B H 0.4088 -0.4021 0.1077
C20B C 0.2798(5) -0.1693(2) 0.3779(3)
C21B C 0.3766(6) -0.0738(3) 0.4149(3)
C22B C 0.2761(7) -0.0414(3) 0.4515(4)
H9B H 0.1861 -0.0503 0.4408
C23B C 0.5055(6) -0.0636(3) 0.4288(3)
H10B H 0.5677 -0.0866 0.4044
C24B C 0.5498(6) -0.0157(3) 0.4828(3)
C25B C 0.6845(6) -0.0034(3) 0.4971(4)
H11B H 0.7477 -0.0254 0.4721
Cl6 Cl 0.92060(19) 0.86441(11) 0.39677(11)
Cl7 Cl 0.9346(2) 0.87849(11) 0.56040(12)
Cl8 Cl 0.9523(2) 0.75805(10) 0.49559(13)
C26 C 0.8817(7) 0.8299(4) 0.4841(4)
H12 H 0.7844 0.8256 0.4835
Cl12 Cl 0.2499(7) 0.51163(18) 0.4228(2)
Cl13 Cl 0.0521(4) 0.5938(2) 0.4652(3)
Cl14 Cl 0.2391(8) 0.5395(3) 0.5816(4)
C28 C 0.2124(12) 0.5680(5) 0.4887(6)
H14 H 0.2739 0.6022 0.4833
Cl12B Cl 0.7501(7) 0.48837(18) 0.5772(2)
Cl13B Cl 0.9479(4) 0.4062(2) 0.5348(3)
Cl14B Cl 0.7609(8) 0.4605(3) 0.4184(4)
C28B C 0.7876(12) 0.4320(5) 0.5113(6)
H14B H 0.7261 0.3978 0.5167
Cl9? Cl 0.150(3) 0.5370(12) 0.4309(11)
C27? C 0.280(6) 0.552(3) 0.484(4)
H13? H 0.2950 0.5952 0.4752
Cl10? Cl 0.203(3) 0.5498(9) 0.5826(16)
Cl11? Cl 0.4336(18) 0.5218(8) 0.4861(11)
loop_
_geom_bond_atom_site_label_1
_geom_bond_atom_site_label_2
_geom_bond_site_symmetry_1
_geom_bond_site_symmetry_2
Cl1 C1 1_555 1_555
Cl2 C1 1_555 1_555
Cl3 C1 1_555 1_555
C1 H1 1_555 1_555
Cl4 C12 1_555 1_555
Cl5 C3 1_555 1_555
O1 C4 1_555 1_555
O2 C9 1_555 1_555
O3 C13 1_555 1_555
O4 C2 1_555 1_555
O5 C20 1_555 1_555
O6 C20 1_555 1_555
N1 C12 1_555 1_555
N2 C11 1_555 1_555
N3 C11 1_555 1_555
N4 C3 1_555 1_555
N5 C2 1_555 1_555
N6 C2 1_555 1_555
C3 N5 1_555 1_555
C4 N4 1_555 1_555
C5 O1 1_555 1_555
C6 C5 1_555 1_555
H2 C6 1_555 1_555
C7 C6 1_555 1_555
C8 C7 1_555 1_555
H3 C8 1_555 1_555
C9 C8 1_555 1_555
C10 C5 1_555 1_555
H4 C10 1_555 1_555
C11 O2 1_555 1_555
C12 N2 1_555 1_555
C13 N1 1_555 1_555
C14 O3 1_555 1_555
C15 C14 1_555 1_555
H5 C15 1_555 1_555
C16 C15 1_555 1_555
H6 C16 1_555 1_555
C17 C16 1_555 1_555
H7 C17 1_555 1_555
C18 O4 1_555 1_555
C19 C14 1_555 1_555
H8 C19 1_555 1_555
C20 C7 1_555 1_555
C21 O6 1_555 1_555
C22 C21 1_555 1_555
H9 C22 1_555 1_555
C23 C21 1_555 1_555
H10 C23 1_555 1_555
C24 C23 1_555 1_555
C25 C24 1_555 1_555
H11 C25 1_555 1_555
Cl6 C26 1_555 1_555
Cl7 C26 1_555 1_555
Cl8 C26 1_555 1_555
C26 H12 1_555 1_555
Cl12 C28 1_555 1_555
Cl13 C28 1_555 1_555
Cl14 C28 1_555 1_555
C28 H14 1_555 1_555
Cl4B C12B 1_555 1_555
Cl5B C3B 1_555 1_555
O1B C4B 1_555 1_555
O2B C9B 1_555 1_555
O3B C13B 1_555 1_555
O4B C2B 1_555 1_555
O5B C20B 1_555 1_555
O6B C20B 1_555 1_555
N1B C12B 1_555 1_555
N2B C11B 1_555 1_555
N3B C11B 1_555 1_555
N4B C3B 1_555 1_555
N5B C2B 1_555 1_555
N6B C2B 1_555 1_555
C3B N5B 1_555 1_555
C4B N4B 1_555 1_555
C5B O1B 1_555 1_555
C6B C5B 1_555 1_555
H2B C6B 1_555 1_555
C7B C6B 1_555 1_555
C8B C7B 1_555 1_555
H3B C8B 1_555 1_555
C9B C8B 1_555 1_555
C10B C5B 1_555 1_555
H4B C10B 1_555 1_555
C11B O2B 1_555 1_555
C12B N2B 1_555 1_555
C13B N1B 1_555 1_555
C14B O3B 1_555 1_555
C15B C14B 1_555 1_555
H5B C15B 1_555 1_555
C16B C15B 1_555 1_555
H6B C16B 1_555 1_555
C17B C16B 1_555 1_555
H7B C17B 1_555 1_555
C18B O4B 1_555 1_555
C19B C14B 1_555 1_555
H8B C19B 1_555 1_555
C20B C7B 1_555 1_555
C21B O6B 1_555 1_555
C22B C25 1_555 1_555
H9B C22B 1_555 1_555
C23B C21B 1_555 1_555
H10B C23B 1_555 1_555
C24B C24 1_555 1_555
C25B C22 1_555 1_555
H11B C25B 1_555 1_555
Cl12B C28B 1_555 1_555
Cl13B C28B 1_555 1_555
Cl14B C28B 1_555 1_555
C28B H14B 1_555 1_555
N3 C13 1_555 1_555
N6 C4 1_555 1_555
C9 C10 1_555 1_555
C17 C18 1_555 1_555
C18 C19 1_555 1_555
N3B C13B 1_555 1_555
N6B C4B 1_555 1_555
C9B C10B 1_555 1_555
C17B C18B 1_555 1_555
C18B C19B 1_555 1_555
C21B C22B 1_555 1_555
C23B C24B 1_555 1_555
C24B C25B 1_555 1_555

#END
