
#######################################################################
#
#                 Cambridge Crystallographic Data Centre
#                                CCDC 
#
#######################################################################
#
# If this CIF has been generated from an entry in the Cambridge 
# Structural Database, then it will include bibliographic, chemical, 
# crystal, experimental, refinement or atomic coordinate data resulting 
# from the CCDC's data processing and validation procedures.
#
#######################################################################

data_SISSAQ
_chemical_name_common            
'(4-carboxyphenyl)methanaminium 15-crown-5 perchlorate'
_chemical_formula_moiety         'C10 H20 O5,C8 H10 N1 O2 1+,Cl1 O4 1-'
_chemical_name_systematic        
'(4-carboxyphenyl)methanaminium 1,4,7,10,13-pentaoxacyclopentadecane perchlorate'
_symmetry_cell_setting           monoclinic
_symmetry_space_group_name_H-M   'P 21/n'
_symmetry_Int_Tables_number      14
_space_group_name_Hall           '-P 2yn'
loop_
_symmetry_equiv_pos_site_id
_symmetry_equiv_pos_as_xyz
1 x,y,z
2 1/2-x,1/2+y,1/2-z
3 -x,-y,-z
4 1/2+x,1/2-y,1/2+z
_cell_length_a                   9.5970(19)
_cell_length_b                   15.241(3)
_cell_length_c                   15.677(3)
_cell_angle_alpha                90
_cell_angle_beta                 93.90(3)
_cell_angle_gamma                90
_cell_volume                     2287.73
_exptl_crystal_colour            white
_exptl_crystal_description       Prism
_cell_formula_units_Z            4
loop_
_atom_site_label
_atom_site_type_symbol
_atom_site_fract_x
_atom_site_fract_y
_atom_site_fract_z
Cl1 Cl 0.23635(13) 0.47309(10) 0.79021(8)
O1 O 0.3241(13) 0.4159(6) 0.8297(7)
O2 O 0.1806(7) 0.4420(8) 0.7151(4)
O3 O 0.3286(9) 0.5409(5) 0.7727(5)
O4 O 0.1392(6) 0.4985(5) 0.8476(4)
O5 O 0.0730(7) 0.1691(5) 0.4820(4)
C1 C 0.1650(13) 0.0973(9) 0.4872(7)
H1 H 0.1398 0.0594 0.5334
H2 H 0.2588 0.1189 0.5016
O6 O 0.1977(5) 0.0952(4) 0.3359(4)
C2 C 0.1663(12) 0.0454(7) 0.4095(9)
H3 H 0.2350 -0.0010 0.4182
H4 H 0.0756 0.0180 0.3986
O7 O 0.3270(5) 0.2556(4) 0.3060(3)
C3 C 0.3388(9) 0.1044(6) 0.3262(7)
H5 H 0.3744 0.0504 0.3031
H6 H 0.3871 0.1142 0.3817
O8 O 0.1802(5) 0.4097(3) 0.3180(3)
C4 C 0.3681(9) 0.1767(7) 0.2698(6)
H7 H 0.4672 0.1785 0.2613
H8 H 0.3179 0.1683 0.2146
O9 O 0.0440(7) 0.3532(5) 0.4678(4)
C5 C 0.3621(7) 0.3320(6) 0.2604(5)
H9 H 0.3105 0.3338 0.2050
H10 H 0.4612 0.3328 0.2517
C6 C 0.3241(8) 0.4077(5) 0.3134(6)
H11 H 0.3694 0.4024 0.3704
H12 H 0.3555 0.4618 0.2883
C7 C 0.1327(9) 0.4608(5) 0.3851(8)
H13 H 0.0365 0.4777 0.3707
H14 H 0.1881 0.5140 0.3905
C8 C 0.1417(10) 0.4117(9) 0.4728(7)
H15 H 0.2324 0.3840 0.4831
H16 H 0.1279 0.4523 0.5191
C9 C 0.0236(13) 0.3028(9) 0.5425(7)
H17 H -0.0727 0.2832 0.5406
H18 H 0.0399 0.3399 0.5924
C10 C 0.1129(12) 0.2288(10) 0.5508(6)
H19 H 0.2094 0.2468 0.5476
H20 H 0.1036 0.2005 0.6055
O10 O 0.6596(5) 0.4273(3) 0.4090(3)
H21 H 0.6630 0.4358 0.3575
O11 O 0.7337(5) 0.2932(3) 0.3793(3)
N1 N 0.5077(4) 0.2534(3) 0.8119(2)
H22 H 0.5989 0.2501 0.8054
H23 H 0.4860 0.2182 0.8543
H24 H 0.4853 0.3084 0.8243
C11 C 0.6097(5) 0.2261(4) 0.5242(3)
H25 H 0.6479 0.1852 0.4885
C12 C 0.5515(5) 0.1985(4) 0.5977(3)
H26 H 0.5500 0.1389 0.6101
C13 C 0.4958(5) 0.2565(3) 0.6532(3)
C14 C 0.4964(5) 0.3452(4) 0.6322(3)
H27 H 0.4575 0.3856 0.6683
C15 C 0.5535(5) 0.3743(3) 0.5591(3)
H28 H 0.5540 0.4339 0.5463
C16 C 0.6113(4) 0.3134(3) 0.5038(3)
C17 C 0.6752(5) 0.3435(4) 0.4251(3)
C18 C 0.4310(6) 0.2267(4) 0.7334(3)
H29 H 0.3369 0.2500 0.7330
H30 H 0.4242 0.1632 0.7326
loop_
_geom_bond_atom_site_label_1
_geom_bond_atom_site_label_2
_geom_bond_site_symmetry_1
_geom_bond_site_symmetry_2
Cl1 O1 1_555 1_555
O2 Cl1 1_555 1_555
O3 Cl1 1_555 1_555
O4 Cl1 1_555 1_555
O5 C1 1_555 1_555
C1 H1 1_555 1_555
H2 C1 1_555 1_555
O6 C2 1_555 1_555
C2 C1 1_555 1_555
H3 C2 1_555 1_555
H4 C2 1_555 1_555
O7 C4 1_555 1_555
C3 O6 1_555 1_555
H5 C3 1_555 1_555
H6 C3 1_555 1_555
O8 C6 1_555 1_555
C4 C3 1_555 1_555
H7 C4 1_555 1_555
H8 C4 1_555 1_555
O9 C8 1_555 1_555
C5 O7 1_555 1_555
H9 C5 1_555 1_555
H10 C5 1_555 1_555
C6 C5 1_555 1_555
H11 C6 1_555 1_555
H12 C6 1_555 1_555
C7 O8 1_555 1_555
H13 C7 1_555 1_555
H14 C7 1_555 1_555
C8 C7 1_555 1_555
H15 C8 1_555 1_555
H16 C8 1_555 1_555
C9 O9 1_555 1_555
H17 C9 1_555 1_555
H18 C9 1_555 1_555
C10 O5 1_555 1_555
H19 C10 1_555 1_555
H20 C10 1_555 1_555
O10 H21 1_555 1_555
O11 C17 1_555 1_555
N1 H22 1_555 1_555
H23 N1 1_555 1_555
H24 N1 1_555 1_555
C11 H25 1_555 1_555
C12 C11 1_555 1_555
H26 C12 1_555 1_555
C13 C12 1_555 1_555
C14 C13 1_555 1_555
H27 C14 1_555 1_555
C15 C14 1_555 1_555
H28 C15 1_555 1_555
C16 C11 1_555 1_555
C17 O10 1_555 1_555
C18 N1 1_555 1_555
H29 C18 1_555 1_555
H30 C18 1_555 1_555
C9 C10 1_555 1_555
C13 C18 1_555 1_555
C15 C16 1_555 1_555
C16 C17 1_555 1_555

#END
