
#######################################################################
#
#                 Cambridge Crystallographic Data Centre
#                                CCDC 
#
#######################################################################
#
# If this CIF has been generated from an entry in the Cambridge 
# Structural Database, then it will include bibliographic, chemical, 
# crystal, experimental, refinement or atomic coordinate data resulting 
# from the CCDC's data processing and validation procedures.
#
#######################################################################

data_SISSIY
_chemical_name_common            
'3-carboxyanilinium 18-crown-6 tetrafluoroborate'
_chemical_formula_moiety         'C12 H24 O6,C7 H8 N1 O2 1+,B1 F4 1-'
_chemical_name_systematic        
'3-carboxyanilinium 1,4,7,10,13,16-hexaoxacyclooctadecane tetrafluoroborate'
_symmetry_cell_setting           triclinic
_symmetry_space_group_name_H-M   'P -1'
_symmetry_Int_Tables_number      2
_space_group_name_Hall           '-P 1'
loop_
_symmetry_equiv_pos_site_id
_symmetry_equiv_pos_as_xyz
1 x,y,z
2 -x,-y,-z
_cell_length_a                   9.3105(19)
_cell_length_b                   10.982(2)
_cell_length_c                   11.809(2)
_cell_angle_alpha                82.80(3)
_cell_angle_beta                 89.03(3)
_cell_angle_gamma                85.61(3)
_cell_volume                     1194.38
_exptl_crystal_colour            colorless
_exptl_crystal_description       Cubic
_cell_formula_units_Z            2
loop_
_atom_site_label
_atom_site_type_symbol
_atom_site_fract_x
_atom_site_fract_y
_atom_site_fract_z
B1 B 0.9708(13) 0.2657(10) 0.2616(11)
F1 F 1.1113(6) 0.2870(6) 0.2821(5)
F2 F 0.9742(6) 0.1827(6) 0.1884(5)
F3 F 0.9174(9) 0.2197(8) 0.3644(6)
F4 F 0.9087(9) 0.3699(7) 0.2220(9)
C1 C 0.1898(6) 0.5108(5) 0.4315(5)
N1 N 0.5679(5) 0.7505(4) 0.2276(4)
H1 H 0.5994 0.7951 0.2787
H2 H 0.4946 0.7924 0.1893
H3 H 0.6389 0.7342 0.1790
O1 O 0.1594(4) 0.4247(4) 0.5026(4)
C2 C 0.3353(6) 0.5182(5) 0.3827(5)
O2 O 0.0972(5) 0.6032(4) 0.3961(4)
H4 H 0.0250 0.6005 0.4367
C3 C 0.3801(6) 0.6292(5) 0.3249(5)
H5 H 0.3157 0.6985 0.3128
C4 C 0.5196(6) 0.6338(5) 0.2867(5)
C5 C 0.6153(7) 0.5307(5) 0.2995(5)
H6 H 0.7089 0.5351 0.2715
C6 C 0.5712(7) 0.4208(5) 0.3542(5)
H7 H 0.6349 0.3508 0.3630
C7 C 0.4329(7) 0.4159(5) 0.3955(5)
H8 H 0.4041 0.3421 0.4330
O3 O 0.3474(5) 0.0873(4) 0.6077(4)
O4 O 0.1297(5) 0.2062(4) 0.7364(4)
O5 O 0.2090(5) 0.2925(4) 0.9384(4)
O6 O 0.4902(8) 0.3422(5) 0.9810(5)
O7 O 0.6756(5) 0.1431(5) 0.9121(4)
C8 C 0.5328(11) -0.0609(7) 0.6704(7)
H9 H 0.5611 -0.1484 0.6810
H10 H 0.5893 -0.0229 0.6078
O8 O 0.5608(5) -0.0096(4) 0.7711(4)
C9 C 0.3800(11) -0.0415(6) 0.6422(6)
H11 H 0.3588 -0.0882 0.5809
H12 H 0.3221 -0.0688 0.7082
C10 C 0.1979(9) 0.1165(7) 0.5689(6)
H13 H 0.1727 0.0564 0.5204
H14 H 0.1903 0.1968 0.5238
C11 C 0.0953(8) 0.1166(6) 0.6654(7)
H15 H -0.0020 0.1355 0.6368
H16 H 0.0999 0.0357 0.7095
C12 C 0.0367(7) 0.2110(7) 0.8302(6)
H17 H 0.0494 0.1344 0.8809
H18 H -0.0623 0.2208 0.8043
C13 C 0.0658(7) 0.3140(7) 0.8921(6)
H19 H 0.0582 0.3904 0.8408
H20 H -0.0040 0.3208 0.9533
C14 C 0.2403(10) 0.3823(7) 1.0103(7)
H21 H 0.1666 0.3866 1.0690
H22 H 0.2408 0.4626 0.9655
C15 C 0.3858(12) 0.3474(8) 1.0649(7)
H23 H 0.4072 0.4078 1.1142
H24 H 0.3845 0.2679 1.1110
C16 C 0.6390(12) 0.3059(10) 1.0186(9)
H25 H 0.7041 0.3511 0.9673
H26 H 0.6505 0.3301 1.0940
C17 C 0.6814(11) 0.1749(11) 1.0231(8)
H27 H 0.7783 0.1574 1.0527
H28 H 0.6166 0.1276 1.0730
C18 C 0.7242(9) 0.0130(8) 0.9124(10)
H29 H 0.8243 -0.0003 0.9352
H30 H 0.6675 -0.0372 0.9669
C19 C 0.7087(9) -0.0215(7) 0.8011(10)
H31 H 0.7626 0.0308 0.7463
H32 H 0.7470 -0.1060 0.7998
loop_
_geom_bond_atom_site_label_1
_geom_bond_atom_site_label_2
_geom_bond_site_symmetry_1
_geom_bond_site_symmetry_2
B1 F1 1_555 1_555
F2 B1 1_555 1_555
F3 B1 1_555 1_555
F4 B1 1_555 1_555
C1 O1 1_555 1_555
N1 H1 1_555 1_555
H2 N1 1_555 1_555
H3 N1 1_555 1_555
C2 C1 1_555 1_555
O2 C1 1_555 1_555
H4 O2 1_555 1_555
C3 C2 1_555 1_555
H5 C3 1_555 1_555
C4 N1 1_555 1_555
C5 C4 1_555 1_555
H6 C5 1_555 1_555
C6 C5 1_555 1_555
H7 C6 1_555 1_555
C7 C2 1_555 1_555
H8 C7 1_555 1_555
O3 C9 1_555 1_555
O4 C11 1_555 1_555
O5 C13 1_555 1_555
O6 C15 1_555 1_555
O7 C17 1_555 1_555
C8 H9 1_555 1_555
H10 C8 1_555 1_555
O8 C8 1_555 1_555
C9 C8 1_555 1_555
H11 C9 1_555 1_555
H12 C9 1_555 1_555
C10 O3 1_555 1_555
H13 C10 1_555 1_555
H14 C10 1_555 1_555
C11 C10 1_555 1_555
H15 C11 1_555 1_555
H16 C11 1_555 1_555
C12 O4 1_555 1_555
H17 C12 1_555 1_555
H18 C12 1_555 1_555
C13 C12 1_555 1_555
H19 C13 1_555 1_555
H20 C13 1_555 1_555
C14 O5 1_555 1_555
H21 C14 1_555 1_555
H22 C14 1_555 1_555
C15 C14 1_555 1_555
H23 C15 1_555 1_555
H24 C15 1_555 1_555
C16 O6 1_555 1_555
H25 C16 1_555 1_555
H26 C16 1_555 1_555
C17 C16 1_555 1_555
H27 C17 1_555 1_555
H28 C17 1_555 1_555
C18 O7 1_555 1_555
H29 C18 1_555 1_555
H30 C18 1_555 1_555
C19 O8 1_555 1_555
H31 C19 1_555 1_555
H32 C19 1_555 1_555
C3 C4 1_555 1_555
C6 C7 1_555 1_555
C18 C19 1_555 1_555

#END
