
#######################################################################
#
#                 Cambridge Crystallographic Data Centre
#                                CCDC 
#
#######################################################################
#
# If this CIF has been generated from an entry in the Cambridge 
# Structural Database, then it will include bibliographic, chemical, 
# crystal, experimental, refinement or atomic coordinate data resulting 
# from the CCDC's data processing and validation procedures.
#
#######################################################################

data_SISXUP
_chemical_formula_moiety         'C12 H24 O6,2(C11 H18 N1 1+),2(F6 P1 1-)'
_chemical_name_systematic        
'N,N,2,4,6-Pentamethylanilinium hexafluorophosphate 1,4,7,10,13,16-hexaoxacyclooctadecane'
_symmetry_cell_setting           monoclinic
_symmetry_space_group_name_H-M   'P 21/c'
_symmetry_Int_Tables_number      14
_space_group_name_Hall           '-P 2ybc'
loop_
_symmetry_equiv_pos_site_id
_symmetry_equiv_pos_as_xyz
1 x,y,z
2 -x,1/2+y,1/2-z
3 -x,-y,-z
4 x,1/2-y,1/2+z
_cell_length_a                   8.9122(18)
_cell_length_b                   16.775(3)
_cell_length_c                   15.136(3)
_cell_angle_alpha                90
_cell_angle_beta                 103.71(3)
_cell_angle_gamma                90
_cell_volume                     2198.39
_exptl_crystal_colour            colorless
_exptl_crystal_description       Prism
_cell_formula_units_Z            2
loop_
_atom_site_label
_atom_site_type_symbol
_atom_site_fract_x
_atom_site_fract_y
_atom_site_fract_z
P1 P 0.47256(14) 0.24011(8) 0.74636(8)
F1 F 0.4805(5) 0.2762(2) 0.6529(2)
F2 F 0.3159(4) 0.2840(2) 0.7412(3)
F3 F 0.3770(4) 0.16651(18) 0.6942(2)
F4 F 0.4597(5) 0.2030(2) 0.8388(2)
F5 F 0.5602(5) 0.3133(2) 0.7981(3)
F6 F 0.6268(5) 0.1971(3) 0.7510(3)
O1 O 0.2823(3) 1.00490(16) 0.45178(17)
O2 O 0.1340(3) 0.85340(16) 0.45499(17)
O3 O -0.1059(3) 0.85014(16) 0.55077(17)
C1 C 0.2987(5) 1.0742(3) 0.4023(3)
H1 H 0.2276 1.0722 0.3429
H2 H 0.4029 1.0771 0.3936
C2 C 0.2945(5) 0.8633(3) 0.4624(3)
H3 H 0.3358 0.8166 0.4386
H4 H 0.3480 0.8696 0.5257
C3 C 0.3191(5) 0.9355(3) 0.4095(3)
H5 H 0.4261 0.9378 0.4056
H6 H 0.2548 0.9321 0.3482
C4 C -0.0682(5) 0.7856(2) 0.5001(3)
H7 H -0.1249 0.7899 0.4371
H8 H -0.0961 0.7357 0.5243
C5 C 0.1010(5) 0.7875(2) 0.5061(3)
H9 H 0.1573 0.7927 0.5691
H10 H 0.1329 0.7384 0.4821
C6 C -0.2661(5) 0.8535(3) 0.5475(3)
H11 H -0.2971 0.8060 0.5751
H12 H -0.3247 0.8560 0.4848
O1B O -0.2823(3) 0.99510(16) 0.54822(17)
O2B O -0.1340(3) 1.14660(16) 0.54501(17)
O3B O 0.1059(3) 1.14986(16) 0.44923(17)
C1B C -0.2987(5) 0.9258(3) 0.5977(3)
H1B H -0.2276 0.9278 0.6571
H2B H -0.4029 0.9229 0.6064
C2B C -0.2945(5) 1.1367(3) 0.5376(3)
H3B H -0.3358 1.1834 0.5614
H4B H -0.3480 1.1304 0.4743
C3B C -0.3191(5) 1.0645(3) 0.5905(3)
H5B H -0.4261 1.0622 0.5944
H6B H -0.2548 1.0679 0.6518
C4B C 0.0682(5) 1.2144(2) 0.4999(3)
H7B H 0.1249 1.2101 0.5629
H8B H 0.0961 1.2643 0.4757
C5B C -0.1010(5) 1.2125(2) 0.4939(3)
H9B H -0.1573 1.2073 0.4309
H10B H -0.1329 1.2616 0.5179
C6B C 0.2661(5) 1.1465(3) 0.4525(3)
H11B H 0.2971 1.1940 0.4249
H12B H 0.3247 1.1440 0.5152
C7 C 0.0742(4) 0.0080(2) 0.7882(2)
N1 N 0.1899(4) 0.0220(2) 0.7330(2)
H13 H 0.1970 0.0761 0.7327
C8 C -0.1049(5) 0.0657(3) 0.8628(3)
H14 H -0.1532 0.1104 0.8797
C9 C 0.0381(5) -0.0678(2) 0.8125(3)
C10 C -0.0714(6) -0.0732(3) 0.8639(3)
H15 H -0.0971 -0.1235 0.8816
C11 C 0.0030(4) 0.0760(2) 0.8112(2)
C12 C -0.1433(5) -0.0085(3) 0.8899(3)
C13 C 0.0349(6) 0.1585(2) 0.7817(3)
H16 H -0.0270 0.1963 0.8049
H17 H 0.0099 0.1611 0.7164
H18 H 0.1422 0.1709 0.8048
C14 C 0.1342(6) 0.0025(3) 0.6344(3)
H19 H 0.2140 0.0142 0.6035
H20 H 0.0443 0.0338 0.6087
H21 H 0.1085 -0.0531 0.6277
C15 C 0.3506(5) -0.0026(3) 0.7753(4)
H22 H 0.3774 0.0142 0.8377
H23 H 0.4196 0.0217 0.7433
H24 H 0.3588 -0.0595 0.7724
C16 C 0.1046(7) -0.1451(3) 0.7880(4)
H25 H 0.0592 -0.1889 0.8131
H26 H 0.2144 -0.1452 0.8123
H27 H 0.0827 -0.1503 0.7230
C17 C -0.2611(6) -0.0173(4) 0.9466(3)
H28 H -0.2989 0.0344 0.9579
H29 H -0.2137 -0.0423 1.0034
H30 H -0.3455 -0.0496 0.9144
loop_
_geom_bond_atom_site_label_1
_geom_bond_atom_site_label_2
_geom_bond_site_symmetry_1
_geom_bond_site_symmetry_2
P1 F1 1_555 1_555
F2 P1 1_555 1_555
F3 P1 1_555 1_555
F4 P1 1_555 1_555
F5 P1 1_555 1_555
F6 P1 1_555 1_555
O1 C1 1_555 1_555
O2 C2 1_555 1_555
O3 C4 1_555 1_555
C1 H1 1_555 1_555
H2 C1 1_555 1_555
C2 H3 1_555 1_555
H4 C2 1_555 1_555
C3 O1 1_555 1_555
H5 C3 1_555 1_555
H6 C3 1_555 1_555
C4 H7 1_555 1_555
H8 C4 1_555 1_555
C5 O2 1_555 1_555
H9 C5 1_555 1_555
H10 C5 1_555 1_555
C6 O3 1_555 1_555
H11 C6 1_555 1_555
H12 C6 1_555 1_555
C7 N1 1_555 1_555
N1 H13 1_555 1_555
C8 H14 1_555 1_555
C9 C7 1_555 1_555
C10 C9 1_555 1_555
H15 C10 1_555 1_555
C11 C7 1_555 1_555
C12 C8 1_555 1_555
C13 C11 1_555 1_555
H16 C13 1_555 1_555
H17 C13 1_555 1_555
H18 C13 1_555 1_555
C14 N1 1_555 1_555
H19 C14 1_555 1_555
H20 C14 1_555 1_555
H21 C14 1_555 1_555
C15 N1 1_555 1_555
H22 C15 1_555 1_555
H23 C15 1_555 1_555
H24 C15 1_555 1_555
C16 C9 1_555 1_555
H25 C16 1_555 1_555
H26 C16 1_555 1_555
H27 C16 1_555 1_555
C17 C12 1_555 1_555
H28 C17 1_555 1_555
H29 C17 1_555 1_555
H30 C17 1_555 1_555
O1B C1B 1_555 1_555
O2B C2B 1_555 1_555
O3B C4B 1_555 1_555
C1B C6 1_555 1_555
H1B C1B 1_555 1_555
H2B C1B 1_555 1_555
C2B H3B 1_555 1_555
H4B C2B 1_555 1_555
C3B O1B 1_555 1_555
H5B C3B 1_555 1_555
H6B C3B 1_555 1_555
C4B H7B 1_555 1_555
H8B C4B 1_555 1_555
C5B O2B 1_555 1_555
H9B C5B 1_555 1_555
H10B C5B 1_555 1_555
C6B C1 1_555 1_555
H11B C6B 1_555 1_555
H12B C6B 1_555 1_555
C2 C3 1_555 1_555
C4 C5 1_555 1_555
C8 C11 1_555 1_555
C10 C12 1_555 1_555
O3B C6B 1_555 1_555
C2B C3B 1_555 1_555
C4B C5B 1_555 1_555

#END
