
#######################################################################
#
#                 Cambridge Crystallographic Data Centre
#                                CCDC 
#
#######################################################################
#
# If this CIF has been generated from an entry in the Cambridge 
# Structural Database, then it will include bibliographic, chemical, 
# crystal, experimental, refinement or atomic coordinate data resulting 
# from the CCDC's data processing and validation procedures.
#
#######################################################################

data_SISZIF
_chemical_formula_moiety         'C19 H24 O4'
_chemical_name_systematic        
'Ethyl (4aS,10aS)-8-methoxy-4a-methyl-2-oxo-1,2,3,4,4a,9,10,10a-octahydrophenanthrene-1-carboxylate'
_symmetry_cell_setting           monoclinic
_symmetry_space_group_name_H-M   'I 2'
_symmetry_Int_Tables_number      5
_space_group_name_Hall           'I 2y'
loop_
_symmetry_equiv_pos_site_id
_symmetry_equiv_pos_as_xyz
1 x,y,z
2 -x,y,-z
3 1/2+x,1/2+y,1/2+z
4 1/2-x,1/2+y,1/2-z
_cell_length_a                   16.9067(10)
_cell_length_b                   7.6918(4)
_cell_length_c                   13.0515(13)
_cell_angle_alpha                90
_cell_angle_beta                 101.576(7)
_cell_angle_gamma                90
_cell_volume                     1662.73
_exptl_crystal_colour            colorless
_exptl_crystal_description       block
_chemical_melting_point          '134-136 deg.C'
_cell_formula_units_Z            4
_exptl_crystal_recrystallization_method 'dichloromethane/diethyl ether'
loop_
_atom_site_label
_atom_site_type_symbol
_atom_site_fract_x
_atom_site_fract_y
_atom_site_fract_z
O1 O 0.37519(13) 0.5659(3) 0.3969(2)
O2 O 0.64759(15) -0.0340(4) 0.0572(2)
O3 O 0.75803(12) 0.2794(3) 0.1875(2)
O4 O 0.63781(12) 0.3576(3) 0.09331(18)
C1 C 0.36939(18) 0.3924(4) 0.3707(2)
C2 C 0.30142(19) 0.2926(5) 0.3708(3)
H1 H 0.2562 0.3409 0.3902
C3 C 0.30175(18) 0.1206(5) 0.3417(3)
H2 H 0.2562 0.0524 0.3410
C4 C 0.36873(18) 0.0487(4) 0.3137(3)
H3 H 0.3680 -0.0680 0.2950
C5 C 0.43763(16) 0.1472(4) 0.3128(2)
C6 C 0.43863(16) 0.3216(4) 0.3426(2)
C7 C 0.50980(17) 0.4402(4) 0.3432(3)
H4 H 0.5222 0.5004 0.4098
H5 H 0.4948 0.5272 0.2889
C8 C 0.58542(17) 0.3469(4) 0.3258(2)
H6 H 0.6211 0.4294 0.3017
H7 H 0.6139 0.2978 0.3914
C9 C 0.56357(16) 0.2025(4) 0.2453(2)
H8 H 0.5297 0.2549 0.1833
C10 C 0.51237(15) 0.0614(4) 0.2847(2)
C11 C 0.55795(17) -0.0322(4) 0.3838(2)
H9 H 0.5709 0.0499 0.4401
H10 H 0.6068 -0.0820 0.3701
H11 H 0.5245 -0.1225 0.4028
C12 C 0.48764(17) -0.0711(4) 0.1963(3)
H12 H 0.4560 -0.1625 0.2199
H13 H 0.4537 -0.0140 0.1371
C13 C 0.56010(18) -0.1525(4) 0.1606(3)
H14 H 0.5885 -0.2273 0.2158
H15 H 0.5408 -0.2246 0.0998
C14 C 0.61764(17) -0.0218(5) 0.1341(3)
C15 C 0.63867(16) 0.1277(4) 0.2107(2)
H16 H 0.6743 0.0812 0.2733
C16 C 0.68614(17) 0.2621(4) 0.1648(3)
C17 C 0.67384(19) 0.4895(5) 0.0384(3)
H17 H 0.7251 0.4491 0.0248
H18 H 0.6832 0.5948 0.0800
C18 C 0.6165(2) 0.5235(6) -0.0610(3)
H19 H 0.5636 0.5438 -0.0471
H20 H 0.6149 0.4247 -0.1064
H21 H 0.6338 0.6240 -0.0942
C19 C 0.3113(2) 0.6404(5) 0.4389(3)
H22 H 0.3061 0.5788 0.5012
H23 H 0.2617 0.6321 0.3883
H24 H 0.3232 0.7603 0.4555
loop_
_geom_bond_atom_site_label_1
_geom_bond_atom_site_label_2
_geom_bond_site_symmetry_1
_geom_bond_site_symmetry_2
O1 C1 1_555 1_555
O2 C14 1_555 1_555
O3 C16 1_555 1_555
O4 C16 1_555 1_555
C1 C2 1_555 1_555
C2 H1 1_555 1_555
C3 C2 1_555 1_555
H2 C3 1_555 1_555
C4 C3 1_555 1_555
H3 C4 1_555 1_555
C5 C4 1_555 1_555
C6 C1 1_555 1_555
C7 C6 1_555 1_555
H4 C7 1_555 1_555
H5 C7 1_555 1_555
C8 C7 1_555 1_555
H6 C8 1_555 1_555
H7 C8 1_555 1_555
C9 C8 1_555 1_555
H8 C9 1_555 1_555
C10 C5 1_555 1_555
C11 C10 1_555 1_555
H9 C11 1_555 1_555
H10 C11 1_555 1_555
H11 C11 1_555 1_555
C12 C10 1_555 1_555
H12 C12 1_555 1_555
H13 C12 1_555 1_555
C13 C12 1_555 1_555
H14 C13 1_555 1_555
H15 C13 1_555 1_555
C14 C13 1_555 1_555
C15 C9 1_555 1_555
H16 C15 1_555 1_555
C16 C15 1_555 1_555
C17 O4 1_555 1_555
H17 C17 1_555 1_555
H18 C17 1_555 1_555
C18 C17 1_555 1_555
H19 C18 1_555 1_555
H20 C18 1_555 1_555
H21 C18 1_555 1_555
C19 O1 1_555 1_555
H22 C19 1_555 1_555
H23 C19 1_555 1_555
H24 C19 1_555 1_555
C5 C6 1_555 1_555
C9 C10 1_555 1_555
C14 C15 1_555 1_555

#END
