
#######################################################################
#
#                 Cambridge Crystallographic Data Centre
#                                CCDC 
#
#######################################################################
#
# If this CIF has been generated from an entry in the Cambridge 
# Structural Database, then it will include bibliographic, chemical, 
# crystal, experimental, refinement or atomic coordinate data resulting 
# from the CCDC's data processing and validation procedures.
#
#######################################################################

data_SITBIJ
_chemical_formula_moiety         'C35 H29 N1 O2'
_chemical_name_systematic        
'(E)-N-(1-(2-((E)-3-oxo-3-p-tolylprop-1-enyl)naphthalen-1-yl)-2-phenylethylidene)-1-phenylmethanamine oxide'
_symmetry_cell_setting           monoclinic
_symmetry_space_group_name_H-M   'P 21/c'
_symmetry_Int_Tables_number      14
_space_group_name_Hall           '-P 2ybc'
loop_
_symmetry_equiv_pos_site_id
_symmetry_equiv_pos_as_xyz
1 x,y,z
2 -x,1/2+y,1/2-z
3 -x,-y,-z
4 x,1/2-y,1/2+z
_cell_length_a                   13.517(4)
_cell_length_b                   9.862(3)
_cell_length_c                   20.264(7)
_cell_angle_alpha                90
_cell_angle_beta                 94.416(6)
_cell_angle_gamma                90
_cell_volume                     2693.27
_exptl_crystal_colour            yellow
_cell_formula_units_Z            4
loop_
_atom_site_label
_atom_site_type_symbol
_atom_site_fract_x
_atom_site_fract_y
_atom_site_fract_z
O1 O 0.97901(11) 0.74130(16) 0.07318(8)
C1 C 0.76734(14) 0.31888(18) 0.08870(9)
N1 N 0.65020(11) 0.50037(15) 0.05885(8)
O2 O 0.58997(10) 0.59794(13) 0.07173(7)
C2 C 0.86770(15) 0.33891(19) 0.08620(9)
C3 C 0.92969(16) 0.2240(2) 0.07941(10)
H1 H 0.9976 0.2365 0.0776
C4 C 0.89223(18) 0.0978(2) 0.07550(11)
H2 H 0.9350 0.0247 0.0723
C5 C 0.79035(18) 0.07422(19) 0.07613(10)
C6 C 0.7484(2) -0.0558(2) 0.06877(12)
H3 H 0.7899 -0.1302 0.0652
C7 C 0.6496(2) -0.0753(2) 0.06671(14)
H4 H 0.6236 -0.1622 0.0609
C8 C 0.5865(2) 0.0347(3) 0.07336(14)
H5 H 0.5184 0.0208 0.0721
C9 C 0.62372(18) 0.1624(2) 0.08172(12)
H6 H 0.5807 0.2346 0.0867
C10 C 0.72582(16) 0.18639(19) 0.08288(10)
C11 C 0.91006(15) 0.4749(2) 0.08909(9)
H7 H 0.8646 0.5458 0.0859
C12 C 1.00393(15) 0.5104(2) 0.09561(10)
H8 H 1.0521 0.4431 0.1008
C13 C 1.03526(15) 0.6526(2) 0.09501(10)
C14 C 1.13793(14) 0.68492(17) 0.11955(9)
C15 C 1.18545(13) 0.79573(19) 0.09353(10)
H9 H 1.1510 0.8508 0.0624
C16 C 1.28377(14) 0.8250(2) 0.11363(11)
H10 H 1.3150 0.8978 0.0948
C17 C 1.33610(16) 0.7468(2) 0.16163(11)
C18 C 1.28701(14) 0.6394(2) 0.18937(11)
H11 H 1.3198 0.5887 0.2230
C19 C 1.18976(13) 0.6065(2) 0.16771(10)
H12 H 1.1593 0.5318 0.1855
C20 C 1.44300(19) 0.7753(4) 0.18230(16)
H13 H 1.4623 0.7262 0.2221
H14 H 1.4517 0.8707 0.1902
H15 H 1.4835 0.7473 0.1479
C21 C 0.70042(14) 0.43161(18) 0.10435(9)
C22 C 0.68682(15) 0.4617(2) 0.17565(9)
H16 H 0.6810 0.3771 0.1994
H17 H 0.6256 0.5120 0.1786
C23 C 0.77196(15) 0.5427(2) 0.20779(9)
C24 C 0.84515(17) 0.4815(3) 0.24836(10)
H18 H 0.8412 0.3893 0.2576
C25 C 0.9245(2) 0.5567(4) 0.27533(12)
H19 H 0.9735 0.5157 0.3033
C26 C 0.9309(2) 0.6921(4) 0.26066(14)
H20 H 0.9851 0.7424 0.2780
C27 C 0.8583(2) 0.7534(3) 0.22079(13)
H21 H 0.8625 0.8454 0.2113
C28 C 0.77924(19) 0.6790(2) 0.19474(11)
H22 H 0.7296 0.7213 0.1678
C29 C 0.65144(15) 0.46688(19) -0.01238(9)
H23 H 0.7034 0.4011 -0.0181
H24 H 0.5886 0.4257 -0.0276
C30 C 0.66824(11) 0.58751(18) -0.05336(8)
C31 C 0.59952(15) 0.6188(2) -0.10564(9)
H25 H 0.5422 0.5670 -0.1128
C32 C 0.6159(2) 0.7270(2) -0.14741(12)
H26 H 0.5698 0.7467 -0.1826
C33 C 0.70079(17) 0.8061(3) -0.13696(11)
H27 H 0.7115 0.8785 -0.1649
C34 C 0.76953(17) 0.7762(2) -0.08447(11)
H28 H 0.8261 0.8293 -0.0767
C35 C 0.75334(14) 0.6664(2) -0.04360(11)
H29 H 0.8003 0.6454 -0.0091
loop_
_geom_bond_atom_site_label_1
_geom_bond_atom_site_label_2
_geom_bond_site_symmetry_1
_geom_bond_site_symmetry_2
O1 C13 1_555 1_555
C1 C2 1_555 1_555
N1 O2 1_555 1_555
C2 C3 1_555 1_555
C3 H1 1_555 1_555
C4 C3 1_555 1_555
H2 C4 1_555 1_555
C5 C4 1_555 1_555
C6 C5 1_555 1_555
H3 C6 1_555 1_555
C7 C6 1_555 1_555
H4 C7 1_555 1_555
C8 C7 1_555 1_555
H5 C8 1_555 1_555
C9 C8 1_555 1_555
H6 C9 1_555 1_555
C10 C1 1_555 1_555
C11 C2 1_555 1_555
H7 C11 1_555 1_555
C12 C11 1_555 1_555
H8 C12 1_555 1_555
C13 C12 1_555 1_555
C14 C13 1_555 1_555
C15 C14 1_555 1_555
H9 C15 1_555 1_555
C16 C15 1_555 1_555
H10 C16 1_555 1_555
C17 C16 1_555 1_555
C18 C17 1_555 1_555
H11 C18 1_555 1_555
C19 C14 1_555 1_555
H12 C19 1_555 1_555
C20 C17 1_555 1_555
H13 C20 1_555 1_555
H14 C20 1_555 1_555
H15 C20 1_555 1_555
C21 C1 1_555 1_555
C22 C21 1_555 1_555
H16 C22 1_555 1_555
H17 C22 1_555 1_555
C23 C22 1_555 1_555
C24 C23 1_555 1_555
H18 C24 1_555 1_555
C25 C24 1_555 1_555
H19 C25 1_555 1_555
C26 C25 1_555 1_555
H20 C26 1_555 1_555
C27 C26 1_555 1_555
H21 C27 1_555 1_555
C28 C23 1_555 1_555
H22 C28 1_555 1_555
C29 N1 1_555 1_555
H23 C29 1_555 1_555
H24 C29 1_555 1_555
C30 C29 1_555 1_555
C31 C30 1_555 1_555
H25 C31 1_555 1_555
C32 C31 1_555 1_555
H26 C32 1_555 1_555
C33 C32 1_555 1_555
H27 C33 1_555 1_555
C34 C33 1_555 1_555
H28 C34 1_555 1_555
C35 C30 1_555 1_555
H29 C35 1_555 1_555
N1 C21 1_555 1_555
C5 C10 1_555 1_555
C9 C10 1_555 1_555
C18 C19 1_555 1_555
C27 C28 1_555 1_555
C34 C35 1_555 1_555

#END
