
#######################################################################
#
#                 Cambridge Crystallographic Data Centre
#                                CCDC 
#
#######################################################################
#
# If this CIF has been generated from an entry in the Cambridge 
# Structural Database, then it will include bibliographic, chemical, 
# crystal, experimental, refinement or atomic coordinate data resulting 
# from the CCDC's data processing and validation procedures.
#
#######################################################################

data_SITBED
_chemical_formula_moiety         'C12 H14 N2 O3'
_chemical_name_systematic        'Ethyl 2-acetylhydrazono-2-phenylacetate'
_symmetry_cell_setting           orthorhombic
_symmetry_space_group_name_H-M   'P b c a'
_symmetry_Int_Tables_number      61
_space_group_name_Hall           '-P 2ac 2ab'
loop_
_symmetry_equiv_pos_site_id
_symmetry_equiv_pos_as_xyz
1 x,y,z
2 1/2-x,-y,1/2+z
3 -x,1/2+y,1/2-z
4 1/2+x,1/2-y,-z
5 -x,-y,-z
6 1/2+x,y,1/2-z
7 x,1/2-y,1/2+z
8 1/2-x,1/2+y,z
_cell_length_a                   9.3039(19)
_cell_length_b                   15.752(3)
_cell_length_c                   17.129(3)
_cell_angle_alpha                90
_cell_angle_beta                 90
_cell_angle_gamma                90
_cell_volume                     2510.34
_exptl_crystal_colour            colorless
_exptl_crystal_description       block
_cell_formula_units_Z            8
_exptl_crystal_recrystallization_method 'petroleum ether'
loop_
_atom_site_label
_atom_site_type_symbol
_atom_site_fract_x
_atom_site_fract_y
_atom_site_fract_z
O1 O 0.98377(12) 0.11865(7) 0.70415(6)
O2 O 0.84719(10) 0.19284(6) 0.62123(6)
O3 O 1.14302(12) -0.00717(6) 0.44126(6)
N1 N 1.16667(12) 0.17432(7) 0.55542(6)
N2 N 1.11668(13) 0.09905(7) 0.52543(6)
H1 H 1.0369 0.0782 0.5420
C1 C 1.26329(16) 0.33271(9) 0.60630(8)
H2 H 1.3104 0.3071 0.5646
C2 C 1.30914(19) 0.41054(10) 0.63304(9)
H3 H 1.3875 0.4369 0.6096
C3 C 1.2401(2) 0.44963(10) 0.69408(10)
H4 H 1.2713 0.5024 0.7117
C4 C 1.1246(2) 0.41045(10) 0.72922(10)
H5 H 1.0776 0.4368 0.7706
C5 C 1.07824(17) 0.33195(9) 0.70302(8)
H6 H 1.0005 0.3057 0.7271
C6 C 1.14696(14) 0.29215(8) 0.64113(7)
C7 C 1.09697(14) 0.20901(8) 0.61165(7)
C8 C 0.97033(15) 0.16787(8) 0.65146(7)
C9 C 0.71683(16) 0.15866(11) 0.65747(9)
H7 H 0.7085 0.1788 0.7108
H8 H 0.7202 0.0971 0.6582
C10 C 0.5936(2) 0.18798(17) 0.61093(13)
H9 H 0.5062 0.1667 0.6334
H10 H 0.6029 0.1675 0.5584
H11 H 0.5914 0.2489 0.6107
C11 C 1.19254(16) 0.05777(9) 0.46999(8)
C12 C 1.33423(19) 0.09243(12) 0.44570(12)
H12 H 1.3687 0.0617 0.4011
H13 H 1.4015 0.0867 0.4878
H14 H 1.3240 0.1513 0.4325
loop_
_geom_bond_atom_site_label_1
_geom_bond_atom_site_label_2
_geom_bond_site_symmetry_1
_geom_bond_site_symmetry_2
O1 C8 1_555 1_555
O2 C8 1_555 1_555
O3 C11 1_555 1_555
N1 N2 1_555 1_555
N2 H1 1_555 1_555
C1 H2 1_555 1_555
C2 C1 1_555 1_555
H3 C2 1_555 1_555
C3 C2 1_555 1_555
H4 C3 1_555 1_555
C4 C3 1_555 1_555
H5 C4 1_555 1_555
C5 C4 1_555 1_555
H6 C5 1_555 1_555
C6 C1 1_555 1_555
C7 N1 1_555 1_555
C8 C7 1_555 1_555
C9 O2 1_555 1_555
H7 C9 1_555 1_555
H8 C9 1_555 1_555
C10 C9 1_555 1_555
H9 C10 1_555 1_555
H10 C10 1_555 1_555
H11 C10 1_555 1_555
C11 N2 1_555 1_555
C12 C11 1_555 1_555
H12 C12 1_555 1_555
H13 C12 1_555 1_555
H14 C12 1_555 1_555
C5 C6 1_555 1_555
C6 C7 1_555 1_555

#END
