
#######################################################################
#
#                 Cambridge Crystallographic Data Centre
#                                CCDC 
#
#######################################################################
#
# If this CIF has been generated from an entry in the Cambridge 
# Structural Database, then it will include bibliographic, chemical, 
# crystal, experimental, refinement or atomic coordinate data resulting 
# from the CCDC's data processing and validation procedures.
#
#######################################################################

data_SITBOP
_chemical_formula_moiety         'C32 H29 N1 O2'
_chemical_name_systematic        
'(E)-N-(6-methyl-3-(2-oxo-2-p-tolylethyl)-2-phenyl-2,3-dihydro-1H-inden-1-ylidene)-1-phenylmethanamine oxide'
_symmetry_cell_setting           monoclinic
_symmetry_space_group_name_H-M   'P 21/n'
_symmetry_Int_Tables_number      14
_space_group_name_Hall           '-P 2yn'
loop_
_symmetry_equiv_pos_site_id
_symmetry_equiv_pos_as_xyz
1 x,y,z
2 1/2-x,1/2+y,1/2-z
3 -x,-y,-z
4 1/2+x,1/2-y,1/2+z
_cell_length_a                   16.3943(9)
_cell_length_b                   9.3309(4)
_cell_length_c                   17.3834(8)
_cell_angle_alpha                90
_cell_angle_beta                 108.238(5)
_cell_angle_gamma                90
_cell_volume                     2525.62
_exptl_crystal_colour            colorless
_exptl_crystal_description       block
_cell_formula_units_Z            4
loop_
_atom_site_label
_atom_site_type_symbol
_atom_site_fract_x
_atom_site_fract_y
_atom_site_fract_z
O1 O 0.30230(8) 0.66712(13) 0.27714(8)
O2 O 0.65417(9) 0.63186(16) 0.38589(9)
N1 N 0.31187(9) 0.79689(15) 0.30615(8)
C1 C 0.23255(11) 0.8624(2) 0.31382(11)
H1 H 0.183073 0.818365 0.274900
H2 H 0.231937 0.963702 0.301125
C2 C 0.22568(10) 0.84467(19) 0.39750(11)
C3 C 0.25145(12) 0.7190(2) 0.44098(13)
H3 H 0.274682 0.644974 0.418680
C4 C 0.24292(15) 0.7028(3) 0.51704(15)
H4 H 0.261484 0.618826 0.546055
C5 C 0.20702(16) 0.8105(3) 0.55016(15)
H5 H 0.200341 0.798671 0.600971
C6 C 0.18130(15) 0.9348(3) 0.50790(15)
H6 H 0.157157 1.007647 0.530151
C7 C 0.19098(12) 0.9529(2) 0.43199(13)
H7 H 0.174019 1.038364 0.404079
C8 C 0.38717(10) 0.85871(18) 0.32878(10)
C9 C 0.41409(11) 0.99894(18) 0.36465(9)
C10 C 0.36945(12) 1.12092(18) 0.37549(10)
H8 H 0.309733 1.120160 0.358810
C11 C 0.41335(13) 1.2425(2) 0.41078(11)
C12 C 0.50269(14) 1.2400(2) 0.43735(13)
H9 H 0.532634 1.321072 0.461922
C13 C 0.54788(13) 1.1202(2) 0.42813(13)
H10 H 0.607587 1.120076 0.447218
C14 C 0.50399(11) 1.00061(19) 0.39045(10)
C15 C 0.54126(11) 0.85947(19) 0.37528(10)
H11 H 0.559365 0.807391 0.426817
C16 C 0.46228(10) 0.77826(18) 0.31796(10)
H12 H 0.461794 0.680025 0.337762
C17 C 0.36495(17) 1.3756(2) 0.41968(14)
H13 H 0.368533 1.445330 0.380276
H14 H 0.389643 1.414329 0.473100
H15 H 0.305829 1.351800 0.411345
C18 C 0.45939(11) 0.77351(19) 0.22952(10)
C19 C 0.50254(13) 0.6654(2) 0.20403(13)
H16 H 0.529732 0.593697 0.240152
C20 C 0.50576(16) 0.6624(3) 0.12541(15)
H17 H 0.535936 0.589969 0.109416
C21 C 0.46490(18) 0.7652(3) 0.07136(15)
H18 H 0.467619 0.763675 0.018725
C22 C 0.41993(19) 0.8704(3) 0.09502(14)
H19 H 0.390925 0.939340 0.057868
C23 C 0.41708(14) 0.8754(2) 0.17417(12)
H20 H 0.386506 0.947826 0.189673
C24 C 0.61970(11) 0.8746(2) 0.34711(12)
H21 H 0.600958 0.901765 0.290394
H22 H 0.655318 0.951614 0.377343
C25 C 0.67346(11) 0.7404(2) 0.35710(11)
C26 C 0.75294(11) 0.7458(2) 0.33283(11)
C27 C 0.81531(13) 0.6419(2) 0.36207(13)
H23 H 0.805786 0.568655 0.394516
C28 C 0.89118(14) 0.6454(3) 0.34385(14)
H24 H 0.932375 0.575131 0.364806
C29 C 0.90722(13) 0.7512(2) 0.29511(14)
C30 C 0.84391(15) 0.8518(3) 0.26363(15)
H25 H 0.852165 0.921571 0.228588
C31 C 0.76829(13) 0.8508(2) 0.28321(13)
H26 H 0.727394 0.921738 0.262691
C32 C 0.99192(16) 0.7574(3) 0.27799(19)
H27 H 1.035393 0.794393 0.324581
H28 H 0.986548 0.818992 0.232420
H29 H 1.007684 0.662871 0.266076
loop_
_geom_bond_atom_site_label_1
_geom_bond_atom_site_label_2
_geom_bond_site_symmetry_1
_geom_bond_site_symmetry_2
O1 N1 1_555 1_555
O2 C25 1_555 1_555
N1 C1 1_555 1_555
C1 H1 1_555 1_555
H2 C1 1_555 1_555
C2 C1 1_555 1_555
C3 C2 1_555 1_555
H3 C3 1_555 1_555
C4 C3 1_555 1_555
H4 C4 1_555 1_555
C5 C4 1_555 1_555
H5 C5 1_555 1_555
C6 C5 1_555 1_555
H6 C6 1_555 1_555
C7 C2 1_555 1_555
H7 C7 1_555 1_555
C8 N1 1_555 1_555
C9 C8 1_555 1_555
C10 C9 1_555 1_555
H8 C10 1_555 1_555
C11 C10 1_555 1_555
C12 C11 1_555 1_555
H9 C12 1_555 1_555
C13 C12 1_555 1_555
H10 C13 1_555 1_555
C14 C9 1_555 1_555
C15 C14 1_555 1_555
H11 C15 1_555 1_555
C16 C8 1_555 1_555
H12 C16 1_555 1_555
C17 C11 1_555 1_555
H13 C17 1_555 1_555
H14 C17 1_555 1_555
H15 C17 1_555 1_555
C18 C16 1_555 1_555
C19 C18 1_555 1_555
H16 C19 1_555 1_555
C20 C19 1_555 1_555
H17 C20 1_555 1_555
C21 C20 1_555 1_555
H18 C21 1_555 1_555
C22 C21 1_555 1_555
H19 C22 1_555 1_555
C23 C18 1_555 1_555
H20 C23 1_555 1_555
C24 C15 1_555 1_555
H21 C24 1_555 1_555
H22 C24 1_555 1_555
C25 C24 1_555 1_555
C26 C25 1_555 1_555
C27 C26 1_555 1_555
H23 C27 1_555 1_555
C28 C27 1_555 1_555
H24 C28 1_555 1_555
C29 C28 1_555 1_555
C30 C29 1_555 1_555
H25 C30 1_555 1_555
C31 C26 1_555 1_555
H26 C31 1_555 1_555
C32 C29 1_555 1_555
H27 C32 1_555 1_555
H28 C32 1_555 1_555
H29 C32 1_555 1_555
C6 C7 1_555 1_555
C13 C14 1_555 1_555
C15 C16 1_555 1_555
C22 C23 1_555 1_555
C30 C31 1_555 1_555

#END
