
#######################################################################
#
#                 Cambridge Crystallographic Data Centre
#                                CCDC 
#
#######################################################################
#
# If this CIF has been generated from an entry in the Cambridge 
# Structural Database, then it will include bibliographic, chemical, 
# crystal, experimental, refinement or atomic coordinate data resulting 
# from the CCDC's data processing and validation procedures.
#
#######################################################################

data_SITCEE02
_chemical_name_common            1,4-bis(1H-Tetrazol-5-yl)benzene
_chemical_formula_moiety         'C8 H6 N8'
_chemical_name_systematic        5,5'-(1,4-Phenylene)bis(1H-tetrazole)
_symmetry_cell_setting           monoclinic
_symmetry_space_group_name_H-M   'P 21/c'
_symmetry_Int_Tables_number      14
_space_group_name_Hall           '-P 2ybc'
loop_
_symmetry_equiv_pos_site_id
_symmetry_equiv_pos_as_xyz
1 x,y,z
2 -x,1/2+y,1/2-z
3 -x,-y,-z
4 x,1/2-y,1/2+z
_cell_length_a                   4.5428(14)
_cell_length_b                   9.862(3)
_cell_length_c                   9.755(3)
_cell_angle_alpha                90
_cell_angle_beta                 92.920(6)
_cell_angle_gamma                90
_cell_volume                     436.467
_exptl_crystal_colour            'light yellow'
_exptl_crystal_description       block
_cell_formula_units_Z            2
loop_
_atom_site_label
_atom_site_type_symbol
_atom_site_fract_x
_atom_site_fract_y
_atom_site_fract_z
C1 C 0.5825(3) 0.78321(15) 1.00805(14)
C2 C 0.7971(3) 0.89355(16) 1.00295(14)
C3 C 0.8990(3) 0.93907(16) 0.87840(15)
H1 H 0.8296 0.8974 0.7951
C4 C 1.0993(3) 1.04381(16) 0.87518(15)
H2 H 1.1675 1.0737 0.7898
N1 N 0.4726(3) 0.73114(13) 1.11985(12)
N2 N 0.2769(3) 0.63354(13) 1.07695(13)
N3 N 0.2649(3) 0.62557(13) 0.94449(13)
N4 N 0.4557(3) 0.71809(13) 0.90016(13)
H3 H 0.469(4) 0.7303(19) 0.8150(10)
C1B C 1.4175(3) 1.21679(15) 0.99195(14)
C2B C 1.2029(3) 1.10645(16) 0.99705(14)
C3B C 1.1010(3) 1.06093(16) 1.12160(15)
H1B H 1.1704 1.1026 1.2049
C4B C 0.9007(3) 0.95619(16) 1.12482(15)
H2B H 0.8325 0.9263 1.2102
N1B N 1.5274(3) 1.26886(13) 0.88015(12)
N2B N 1.7231(3) 1.36646(13) 0.92305(13)
N3B N 1.7351(3) 1.37443(13) 1.05551(13)
N4B N 1.5443(3) 1.28191(13) 1.09984(13)
H3B H 1.531(4) 1.2697(19) 1.1850(10)
loop_
_geom_bond_atom_site_label_1
_geom_bond_atom_site_label_2
_geom_bond_site_symmetry_1
_geom_bond_site_symmetry_2
C1 C2 1_555 1_555
C2 C3 1_555 1_555
C3 H1 1_555 1_555
C4 C3 1_555 1_555
H2 C4 1_555 1_555
N1 C1 1_555 1_555
N2 N1 1_555 1_555
N3 N2 1_555 1_555
N4 C1 1_555 1_555
H3 N4 1_555 1_555
C1B C2B 1_555 1_555
C2B C4 1_555 1_555
C3B C2B 1_555 1_555
H1B C3B 1_555 1_555
C4B C2 1_555 1_555
H2B C4B 1_555 1_555
N1B C1B 1_555 1_555
N2B N1B 1_555 1_555
N3B N2B 1_555 1_555
N4B C1B 1_555 1_555
H3B N4B 1_555 1_555
N3 N4 1_555 1_555
C3B C4B 1_555 1_555
N3B N4B 1_555 1_555

#END
