
#######################################################################
#
#                 Cambridge Crystallographic Data Centre
#                                CCDC 
#
#######################################################################
#
# If this CIF has been generated from an entry in the Cambridge 
# Structural Database, then it will include bibliographic, chemical, 
# crystal, experimental, refinement or atomic coordinate data resulting 
# from the CCDC's data processing and validation procedures.
#
#######################################################################

data_SITCAC
_chemical_formula_moiety         'C40 H39 N1 O6'
_chemical_name_systematic        
"diethyl 2'-benzyl-6-methyl-3-(2-oxo-2-p-tolylethyl)-2-phenyl-2,3-dihydro-2'Hspiro[indene-1,3'-isoxazole]-4',5'-dicarboxylate"
_symmetry_cell_setting           monoclinic
_symmetry_space_group_name_H-M   'P 21/c'
_symmetry_Int_Tables_number      14
_space_group_name_Hall           '-P 2ybc'
loop_
_symmetry_equiv_pos_site_id
_symmetry_equiv_pos_as_xyz
1 x,y,z
2 -x,1/2+y,1/2-z
3 -x,-y,-z
4 x,1/2-y,1/2+z
_cell_length_a                   10.7692(4)
_cell_length_b                   22.0621(8)
_cell_length_c                   14.4738(4)
_cell_angle_alpha                90
_cell_angle_beta                 97.001(3)
_cell_angle_gamma                90
_cell_volume                     3413.21
_exptl_crystal_colour            colorless
_exptl_crystal_description       block
_cell_formula_units_Z            4
loop_
_atom_site_label
_atom_site_type_symbol
_atom_site_fract_x
_atom_site_fract_y
_atom_site_fract_z
O1 O 0.25109(17) 0.48767(10) 0.51589(11)
O2 O 0.50404(17) 0.28262(7) 0.85217(10)
O3 O 0.48589(14) 0.27864(5) 1.00442(9)
O4 O 0.25638(14) 0.32959(8) 1.11654(11)
O5 O 0.44178(13) 0.37544(6) 1.14520(8)
O6 O 0.26720(11) 0.42912(5) 0.97685(8)
N1 N 0.27425(12) 0.44717(6) 0.87896(9)
C1 C 0.45630(15) 0.42666(8) 0.78818(11)
C2 C 0.57433(15) 0.44453(8) 0.82642(12)
H1 H 0.599169 0.439665 0.889808
C3 C 0.65594(17) 0.46985(9) 0.76962(14)
C4 C 0.61616(19) 0.47557(11) 0.67488(14)
H2 H 0.670465 0.492014 0.636308
C5 C 0.4982(2) 0.45750(10) 0.63657(13)
H3 H 0.473761 0.461633 0.573005
C6 C 0.41643(17) 0.43312(8) 0.69376(12)
C7 C 0.28479(17) 0.40899(9) 0.66938(12)
H4 H 0.280218 0.385124 0.611958
C8 C 0.27569(16) 0.36585(8) 0.75390(11)
H5 H 0.328437 0.331245 0.741778
C9 C 0.35236(14) 0.39911(7) 0.83747(11)
C10 C 0.39194(14) 0.35931(7) 0.92101(11)
C11 C 0.33987(14) 0.37988(7) 0.99349(11)
C12 C 0.78368(19) 0.49083(12) 0.80944(17)
H6 H 0.798796 0.479635 0.873927
H7 H 0.788713 0.534097 0.803844
H8 H 0.845367 0.472214 0.776070
C13 C 0.18343(17) 0.45808(9) 0.65899(12)
H9 H 0.102272 0.438492 0.654485
H10 H 0.192244 0.482651 0.714978
C14 C 0.1856(2) 0.49929(10) 0.57631(13)
C15 C 0.1039(2) 0.55404(9) 0.56946(13)
C16 C 0.0173(2) 0.56508(11) 0.63029(17)
H11 H 0.012386 0.538971 0.680155
C17 C -0.0621(3) 0.61436(11) 0.61814(19)
H12 H -0.121033 0.620119 0.659220
C18 C -0.0563(3) 0.65517(10) 0.54684(17)
C19 C 0.0320(3) 0.64456(12) 0.48722(17)
H13 H 0.038188 0.671397 0.438446
C20 C 0.1112(2) 0.59539(12) 0.49783(15)
H14 H 0.170123 0.589788 0.456677
C21 C -0.1447(3) 0.70827(12) 0.5335(2)
H15 H -0.216121 0.700671 0.565604
H16 H -0.171674 0.713709 0.468348
H17 H -0.102780 0.744238 0.558127
C22 C 0.14998(17) 0.33764(8) 0.76376(11)
C23 C 0.1311(2) 0.27837(9) 0.73280(14)
H18 H 0.196515 0.257603 0.710629
C24 C 0.0180(3) 0.24963(11) 0.73411(17)
H19 H 0.007841 0.209944 0.712860
C25 C -0.0795(3) 0.27924(12) 0.76657(18)
H20 H -0.155960 0.259835 0.767704
C26 C -0.0634(2) 0.33799(11) 0.79753(18)
H21 H -0.129312 0.358422 0.819604
C27 C 0.05013(18) 0.36677(9) 0.79602(15)
H22 H 0.059609 0.406521 0.817101
C28 C 0.46571(17) 0.30364(8) 0.91989(12)
C29 C 0.5498(2) 0.22092(9) 1.01353(17)
H23 H 0.624348 0.222159 0.982103
H24 H 0.495553 0.189050 0.985672
C30 C 0.5841(3) 0.20892(13) 1.1141(2)
H25 H 0.629044 0.171325 1.122059
H26 H 0.509581 0.206422 1.144184
H27 H 0.635958 0.241240 1.141349
C31 C 0.34067(16) 0.35748(7) 1.09194(12)
C32 C 0.4540(2) 0.35580(12) 1.24254(14)
H28 H 0.447414 0.312034 1.245957
H29 H 0.388239 0.373614 1.273891
C33 C 0.5777(3) 0.37591(16) 1.28720(18)
H30 H 0.641950 0.359116 1.254384
H31 H 0.589592 0.362350 1.350690
H32 H 0.582047 0.419358 1.285589
C34 C 0.32573(15) 0.50843(7) 0.88870(12)
H33 H 0.353402 0.520734 0.830202
H34 H 0.398101 0.508304 0.935698
C35 C 0.23149(14) 0.55380(7) 0.91572(11)
C36 C 0.27146(18) 0.61170(8) 0.94019(15)
H35 H 0.355560 0.621526 0.940968
C37 C 0.1889(2) 0.65513(9) 0.96348(19)
H36 H 0.217698 0.693843 0.980024
C38 C 0.0646(2) 0.64160(10) 0.96240(16)
H37 H 0.008499 0.671044 0.977250
C39 C 0.02421(18) 0.58442(10) 0.93927(17)
H38 H -0.059825 0.574741 0.939397
C40 C 0.10643(16) 0.54066(8) 0.91564(15)
H39 H 0.077107 0.501966 0.899534
loop_
_geom_bond_atom_site_label_1
_geom_bond_atom_site_label_2
_geom_bond_site_symmetry_1
_geom_bond_site_symmetry_2
O1 C14 1_555 1_555
O2 C28 1_555 1_555
O3 C28 1_555 1_555
O4 C31 1_555 1_555
O5 C31 1_555 1_555
O6 N1 1_555 1_555
N1 C9 1_555 1_555
C1 C2 1_555 1_555
C2 H1 1_555 1_555
C3 C2 1_555 1_555
C4 C3 1_555 1_555
H2 C4 1_555 1_555
C5 C4 1_555 1_555
H3 C5 1_555 1_555
C6 C1 1_555 1_555
C7 C6 1_555 1_555
H4 C7 1_555 1_555
C8 C7 1_555 1_555
H5 C8 1_555 1_555
C9 C1 1_555 1_555
C10 C9 1_555 1_555
C11 O6 1_555 1_555
C12 C3 1_555 1_555
H6 C12 1_555 1_555
H7 C12 1_555 1_555
H8 C12 1_555 1_555
C13 C7 1_555 1_555
H9 C13 1_555 1_555
H10 C13 1_555 1_555
C14 C13 1_555 1_555
C15 C14 1_555 1_555
C16 C15 1_555 1_555
H11 C16 1_555 1_555
C17 C16 1_555 1_555
H12 C17 1_555 1_555
C18 C17 1_555 1_555
C19 C18 1_555 1_555
H13 C19 1_555 1_555
C20 C15 1_555 1_555
H14 C20 1_555 1_555
C21 C18 1_555 1_555
H15 C21 1_555 1_555
H16 C21 1_555 1_555
H17 C21 1_555 1_555
C22 C8 1_555 1_555
C23 C22 1_555 1_555
H18 C23 1_555 1_555
C24 C23 1_555 1_555
H19 C24 1_555 1_555
C25 C24 1_555 1_555
H20 C25 1_555 1_555
C26 C25 1_555 1_555
H21 C26 1_555 1_555
C27 C22 1_555 1_555
H22 C27 1_555 1_555
C28 C10 1_555 1_555
C29 O3 1_555 1_555
H23 C29 1_555 1_555
H24 C29 1_555 1_555
C30 C29 1_555 1_555
H25 C30 1_555 1_555
H26 C30 1_555 1_555
H27 C30 1_555 1_555
C31 C11 1_555 1_555
C32 O5 1_555 1_555
H28 C32 1_555 1_555
H29 C32 1_555 1_555
C33 C32 1_555 1_555
H30 C33 1_555 1_555
H31 C33 1_555 1_555
H32 C33 1_555 1_555
C34 N1 1_555 1_555
H33 C34 1_555 1_555
H34 C34 1_555 1_555
C35 C34 1_555 1_555
C36 C35 1_555 1_555
H35 C36 1_555 1_555
C37 C36 1_555 1_555
H36 C37 1_555 1_555
C38 C37 1_555 1_555
H37 C38 1_555 1_555
C39 C38 1_555 1_555
H38 C39 1_555 1_555
C40 C35 1_555 1_555
H39 C40 1_555 1_555
C5 C6 1_555 1_555
C8 C9 1_555 1_555
C10 C11 1_555 1_555
C19 C20 1_555 1_555
C26 C27 1_555 1_555
C39 C40 1_555 1_555

#END
