
#######################################################################
#
#                 Cambridge Crystallographic Data Centre
#                                CCDC 
#
#######################################################################
#
# If this CIF has been generated from an entry in the Cambridge 
# Structural Database, then it will include bibliographic, chemical, 
# crystal, experimental, refinement or atomic coordinate data resulting 
# from the CCDC's data processing and validation procedures.
#
#######################################################################

data_SITDEG
_chemical_formula_moiety         'C78 H18'
_chemical_name_systematic        1,4-bis(4-Ethenylbenzyl)-C60fullerene
_symmetry_cell_setting           monoclinic
_symmetry_space_group_name_H-M   'P 21/c'
_symmetry_Int_Tables_number      14
_space_group_name_Hall           '-P 2ybc'
loop_
_symmetry_equiv_pos_site_id
_symmetry_equiv_pos_as_xyz
1 x,y,z
2 -x,1/2+y,1/2-z
3 -x,-y,-z
4 x,1/2-y,1/2+z
_cell_length_a                   21.462(11)
_cell_length_b                   10.226(5)
_cell_length_c                   19.538(10)
_cell_angle_alpha                90
_cell_angle_beta                 109.458(13)
_cell_angle_gamma                90
_cell_volume                     4043.11
_exptl_crystal_colour            'dark red'
_exptl_crystal_description       plate
_cell_formula_units_Z            4
_exptl_crystal_recrystallization_method 'carbon disulfide/hexane'
loop_
_atom_site_label
_atom_site_type_symbol
_atom_site_fract_x
_atom_site_fract_y
_atom_site_fract_z
C1 C 0.6891(6) 0.5747(11) 0.0574(6)
C2 C 0.7324(6) 0.4552(12) 0.0627(6)
C3 C 0.7929(6) 0.4376(11) 0.1162(6)
C4 C 0.8235(6) 0.5386(12) 0.1762(6)
C5 C 0.7700(6) 0.6253(11) 0.1824(6)
C6 C 0.7079(6) 0.6411(11) 0.1287(6)
C7 C 0.6592(7) 0.6786(13) 0.1600(7)
C8 C 0.5973(9) 0.6411(16) 0.1381(9)
C9 C 0.5785(8) 0.5534(16) 0.0784(8)
C10 C 0.6204(6) 0.5105(13) 0.0438(6)
C11 C 0.6166(9) 0.3786(14) 0.0212(7)
C12 C 0.6920(10) 0.3377(12) 0.0359(8)
C13 C 0.7139(10) 0.2131(16) 0.0575(9)
C14 C 0.7728(8) 0.1957(16) 0.1104(9)
C15 C 0.8124(7) 0.3064(12) 0.1393(7)
C16 C 0.8485(7) 0.3095(16) 0.2194(8)
C17 C 0.8482(6) 0.4553(12) 0.2437(6)
C18 C 0.8408(8) 0.4745(17) 0.3097(8)
C19 C 0.7996(9) 0.5785(16) 0.3110(9)
C20 C 0.7654(6) 0.6493(10) 0.2549(6)
C21 C 0.6923(10) 0.6887(13) 0.2408(9)
C22 C 0.6655(10) 0.6521(16) 0.2897(8)
C23 C 0.5968(7) 0.6099(13) 0.2584(9)
C24 C 0.5638(9) 0.5923(16) 0.1875(9)
C25 C 0.5226(8) 0.4901(18) 0.1581(9)
C26 C 0.5299(7) 0.4462(18) 0.0895(8)
C27 C 0.5343(9) 0.3297(17) 0.0652(9)
C28 C 0.5746(9) 0.2840(18) 0.0329(8)
C29 C 0.6018(10) 0.1570(16) 0.0538(9)
C30 C 0.6671(8) 0.1143(13) 0.0723(7)
C31 C 0.7002(11) 0.0418(15) 0.1356(8)
C32 C 0.7716(7) 0.0855(12) 0.1643(7)
C33 C 0.8065(9) 0.1049(14) 0.2343(9)
C34 C 0.8420(8) 0.2077(18) 0.2647(9)
C35 C 0.8397(7) 0.2470(15) 0.3331(7)
C36 C 0.8324(7) 0.3657(14) 0.3569(7)
C37 C 0.7886(8) 0.4180(15) 0.3918(7)
C38 C 0.7618(8) 0.5370(14) 0.3672(7)
C39 C 0.6987(7) 0.5832(12) 0.3477(7)
C40 C 0.6547(11) 0.4853(18) 0.3665(10)
C41 C 0.5930(9) 0.4951(15) 0.3144(10)
C42 C 0.5532(7) 0.3881(13) 0.2825(7)
C43 C 0.5181(8) 0.3913(15) 0.2042(9)
C44 C 0.5187(7) 0.2402(18) 0.1768(9)
C45 C 0.5238(8) 0.2191(16) 0.1159(9)
C46 C 0.5654(8) 0.1141(15) 0.1111(7)
C47 C 0.6019(7) 0.0436(13) 0.1660(8)
C48 C 0.6713(9) 0.0045(13) 0.1792(10)
C49 C 0.7112(9) 0.0157(12) 0.2642(8)
C50 C 0.7701(9) 0.0617(14) 0.2894(9)
C51 C 0.7884(8) 0.1428(15) 0.3475(8)
C52 C 0.7488(7) 0.1822(12) 0.3783(7)
C53 C 0.7454(9) 0.3263(17) 0.4020(8)
C54 C 0.6735(8) 0.3588(12) 0.3883(7)
C55 C 0.6345(6) 0.2433(12) 0.3591(6)
C56 C 0.5734(7) 0.2569(12) 0.3041(7)
C57 C 0.5559(7) 0.1713(12) 0.2436(7)
C58 C 0.5968(7) 0.0690(12) 0.2402(8)
C59 C 0.6594(7) 0.0516(12) 0.2926(6)
C60 C 0.6782(7) 0.1390(12) 0.3542(7)
C61 C 0.6847(6) 0.6695(11) -0.0091(6)
H1 H 0.665 0.6211 -0.0552
H2 H 0.6552 0.7438 -0.009
C62 C 0.7497(6) 0.7206(11) -0.0061(6)
C63 C 0.7874(7) 0.6603(12) -0.0401(7)
H3 H 0.7703 0.5846 -0.0683
C64 C 0.8508(7) 0.7046(12) -0.0356(7)
H4 H 0.8754 0.6588 -0.0605
C65 C 0.8772(7) 0.8134(14) 0.0044(7)
C66 C 0.8365(7) 0.8785(13) 0.0398(7)
H5 H 0.8537 0.9533 0.0688
C67 C 0.7736(6) 0.8365(11) 0.0332(6)
H6 H 0.747 0.8845 0.0546
C68 C 0.9458(8) 0.8597(13) 0.0181(8)
H7 H 0.9613 0.8577 -0.0221
C69 C 0.9855(8) 0.9011(16) 0.0767(10)
H8 H 0.9726 0.9053 0.1187
H9 H 1.0285 0.9284 0.0791
C70 C 0.8844(6) 0.6173(12) 0.1632(7)
H10 H 0.9143 0.5547 0.151
H11 H 0.8671 0.6787 0.122
C71 C 0.9216(7) 0.6910(13) 0.2298(6)
C72 C 0.9019(7) 0.8145(13) 0.2439(7)
H12 H 0.8646 0.8537 0.2091
C73 C 0.9347(6) 0.8825(13) 0.3071(7)
H13 H 0.9171 0.9631 0.3166
C74 C 0.9944(6) 0.8334(12) 0.3581(6)
C75 C 1.0147(7) 0.7083(13) 0.3396(7)
H14 H 1.0538 0.6699 0.3719
C76 C 0.9809(7) 0.6424(13) 0.2781(7)
H15 H 0.9978 0.5617 0.2677
C77 C 1.0281(8) 0.9039(14) 0.4245(7)
H16 H 1.0121 0.9892 0.4283
C78 C 1.0774(8) 0.8643(15) 0.4790(7)
H17 H 1.0955 0.7798 0.4782
H18 H 1.0955 0.9196 0.5199
loop_
_geom_bond_atom_site_label_1
_geom_bond_atom_site_label_2
_geom_bond_site_symmetry_1
_geom_bond_site_symmetry_2
C1 C2 1_555 1_555
C2 C3 1_555 1_555
C3 C4 1_555 1_555
C4 C5 1_555 1_555
C5 C6 1_555 1_555
C6 C1 1_555 1_555
C7 C6 1_555 1_555
C8 C7 1_555 1_555
C9 C8 1_555 1_555
C10 C1 1_555 1_555
C11 C10 1_555 1_555
C12 C2 1_555 1_555
C13 C12 1_555 1_555
C14 C13 1_555 1_555
C15 C3 1_555 1_555
C16 C15 1_555 1_555
C17 C4 1_555 1_555
C18 C17 1_555 1_555
C19 C18 1_555 1_555
C20 C5 1_555 1_555
C21 C7 1_555 1_555
C22 C21 1_555 1_555
C23 C22 1_555 1_555
C24 C8 1_555 1_555
C25 C24 1_555 1_555
C26 C9 1_555 1_555
C27 C26 1_555 1_555
C28 C11 1_555 1_555
C29 C28 1_555 1_555
C30 C13 1_555 1_555
C31 C30 1_555 1_555
C32 C14 1_555 1_555
C33 C32 1_555 1_555
C34 C16 1_555 1_555
C35 C34 1_555 1_555
C36 C18 1_555 1_555
C37 C36 1_555 1_555
C38 C19 1_555 1_555
C39 C22 1_555 1_555
C40 C39 1_555 1_555
C41 C23 1_555 1_555
C42 C41 1_555 1_555
C43 C25 1_555 1_555
C44 C43 1_555 1_555
C45 C27 1_555 1_555
C46 C29 1_555 1_555
C47 C46 1_555 1_555
C48 C31 1_555 1_555
C49 C48 1_555 1_555
C50 C33 1_555 1_555
C51 C35 1_555 1_555
C52 C51 1_555 1_555
C53 C37 1_555 1_555
C54 C40 1_555 1_555
C55 C54 1_555 1_555
C56 C42 1_555 1_555
C57 C44 1_555 1_555
C58 C47 1_555 1_555
C59 C49 1_555 1_555
C60 C52 1_555 1_555
C61 C1 1_555 1_555
H1 C61 1_555 1_555
H2 C61 1_555 1_555
C62 C61 1_555 1_555
C63 C62 1_555 1_555
H3 C63 1_555 1_555
C64 C63 1_555 1_555
H4 C64 1_555 1_555
C65 C64 1_555 1_555
C66 C65 1_555 1_555
H5 C66 1_555 1_555
C67 C62 1_555 1_555
H6 C67 1_555 1_555
C68 C65 1_555 1_555
H7 C68 1_555 1_555
C69 C68 1_555 1_555
H8 C69 1_555 1_555
H9 C69 1_555 1_555
C70 C4 1_555 1_555
H10 C70 1_555 1_555
H11 C70 1_555 1_555
C71 C70 1_555 1_555
C72 C71 1_555 1_555
H12 C72 1_555 1_555
C73 C72 1_555 1_555
H13 C73 1_555 1_555
C74 C73 1_555 1_555
C75 C74 1_555 1_555
H14 C75 1_555 1_555
C76 C71 1_555 1_555
H15 C76 1_555 1_555
C77 C74 1_555 1_555
H16 C77 1_555 1_555
C78 C77 1_555 1_555
H17 C78 1_555 1_555
H18 C78 1_555 1_555
C9 C10 1_555 1_555
C11 C12 1_555 1_555
C14 C15 1_555 1_555
C16 C17 1_555 1_555
C19 C20 1_555 1_555
C20 C21 1_555 1_555
C23 C24 1_555 1_555
C25 C26 1_555 1_555
C27 C28 1_555 1_555
C29 C30 1_555 1_555
C31 C32 1_555 1_555
C33 C34 1_555 1_555
C35 C36 1_555 1_555
C37 C38 1_555 1_555
C38 C39 1_555 1_555
C40 C41 1_555 1_555
C42 C43 1_555 1_555
C44 C45 1_555 1_555
C45 C46 1_555 1_555
C47 C48 1_555 1_555
C49 C50 1_555 1_555
C50 C51 1_555 1_555
C52 C53 1_555 1_555
C53 C54 1_555 1_555
C55 C56 1_555 1_555
C55 C60 1_555 1_555
C56 C57 1_555 1_555
C57 C58 1_555 1_555
C58 C59 1_555 1_555
C59 C60 1_555 1_555
C66 C67 1_555 1_555
C75 C76 1_555 1_555

#END
