
#######################################################################
#
#                 Cambridge Crystallographic Data Centre
#                                CCDC 
#
#######################################################################
#
# If this CIF has been generated from an entry in the Cambridge 
# Structural Database, then it will include bibliographic, chemical, 
# crystal, experimental, refinement or atomic coordinate data resulting 
# from the CCDC's data processing and validation procedures.
#
#######################################################################

data_SITKAI
_chemical_formula_moiety         'C14 H7 N3 O3'
_chemical_name_systematic        3-(2-Nitrophenoxy)phthalonitrile
_symmetry_cell_setting           monoclinic
_symmetry_space_group_name_H-M   'P 21/n'
_symmetry_Int_Tables_number      14
_space_group_name_Hall           '-P 2yn'
loop_
_symmetry_equiv_pos_site_id
_symmetry_equiv_pos_as_xyz
1 x,y,z
2 1/2-x,1/2+y,1/2-z
3 -x,-y,-z
4 1/2+x,1/2-y,1/2+z
_cell_length_a                   8.0814(17)
_cell_length_b                   7.9899(12)
_cell_length_c                   19.068(3)
_cell_angle_alpha                90
_cell_angle_beta                 95.944(15)
_cell_angle_gamma                90
_cell_volume                     1224.59
_exptl_crystal_colour            colorless
_exptl_crystal_description       plate
_chemical_melting_point          397-400K
_cell_formula_units_Z            4
_exptl_crystal_recrystallization_method 'absolute ethanol'
loop_
_atom_site_label
_atom_site_type_symbol
_atom_site_fract_x
_atom_site_fract_y
_atom_site_fract_z
O1 O 0.4115(3) 0.5913(3) 0.63769(12)
O2 O 0.5975(4) 0.8586(4) 0.66974(15)
O3 O 0.7869(4) 0.8009(4) 0.75304(16)
N1 N 0.0726(6) 0.4464(5) 0.36401(19)
N2 N 0.1821(5) 0.7972(5) 0.50408(18)
N3 N 0.6493(4) 0.7811(4) 0.72224(17)
C1 C 0.1511(5) 0.4108(5) 0.4142(2)
C2 C 0.2279(5) 0.6648(6) 0.51586(18)
C3 C 0.2487(5) 0.3691(5) 0.47972(18)
C4 C 0.2840(4) 0.4955(5) 0.53013(17)
C5 C 0.3749(4) 0.4568(5) 0.59366(18)
C6 C 0.4322(5) 0.2954(5) 0.6072(2)
H1 H 0.4952 0.2702 0.6495
C7 C 0.3950(5) 0.1729(5) 0.5576(2)
H2 H 0.4328 0.0644 0.5667
C8 C 0.3024(5) 0.2082(5) 0.49420(19)
H3 H 0.2765 0.1234 0.4615
C9 C 0.4213(4) 0.5689(5) 0.71071(17)
C10 C 0.5397(4) 0.6628(4) 0.75215(18)
C11 C 0.5535(5) 0.6431(5) 0.82497(18)
H4 H 0.6334 0.7036 0.8530
C12 C 0.4516(5) 0.5362(5) 0.85555(19)
H5 H 0.4628 0.5220 0.9042
C13 C 0.3162(5) 0.4646(5) 0.7422(2)
H6 H 0.2348 0.4043 0.7148
C14 C 0.3319(5) 0.4496(5) 0.8141(2)
H7 H 0.2599 0.3792 0.8352
loop_
_geom_bond_atom_site_label_1
_geom_bond_atom_site_label_2
_geom_bond_site_symmetry_1
_geom_bond_site_symmetry_2
O1 C5 1_555 1_555
O2 N3 1_555 1_555
O3 N3 1_555 1_555
N1 C1 1_555 1_555
N2 C2 1_555 1_555
N3 C10 1_555 1_555
C1 C3 1_555 1_555
C2 C4 1_555 1_555
C3 C4 1_555 1_555
C4 C5 1_555 1_555
C5 C6 1_555 1_555
C6 H1 1_555 1_555
C7 C6 1_555 1_555
H2 C7 1_555 1_555
C8 C3 1_555 1_555
H3 C8 1_555 1_555
C9 O1 1_555 1_555
C10 C9 1_555 1_555
C11 C10 1_555 1_555
H4 C11 1_555 1_555
C12 C11 1_555 1_555
H5 C12 1_555 1_555
C13 C9 1_555 1_555
H6 C13 1_555 1_555
C14 C12 1_555 1_555
H7 C14 1_555 1_555
C7 C8 1_555 1_555
C13 C14 1_555 1_555

#END
