
#######################################################################
#
#                 Cambridge Crystallographic Data Centre
#                                CCDC 
#
#######################################################################
#
# If this CIF has been generated from an entry in the Cambridge 
# Structural Database, then it will include bibliographic, chemical, 
# crystal, experimental, refinement or atomic coordinate data resulting 
# from the CCDC's data processing and validation procedures.
#
#######################################################################

data_SITMEP
_chemical_formula_moiety         'C42 H52 N14 O4,3(C3 H7 N1 O1),3(H2 O1)'
_chemical_name_systematic        
"N,N',N'',N'''-tetrakis(5-t-butyl-1H-pyrazol-3-yl)-4,4'-bipyridine-2,2',6,6'-tetracarboxamide N,N-dimethylformamide solvate trihydrate"
_symmetry_cell_setting           orthorhombic
_symmetry_space_group_name_H-M   'P n a 21'
_symmetry_Int_Tables_number      33
_space_group_name_Hall           'P 2c -2n'
loop_
_symmetry_equiv_pos_site_id
_symmetry_equiv_pos_as_xyz
1 x,y,z
2 -x,-y,1/2+z
3 1/2+x,1/2-y,z
4 1/2-x,1/2+y,1/2+z
_cell_length_a                   17.4186(11)
_cell_length_b                   32.397(2)
_cell_length_c                   10.5410(7)
_cell_angle_alpha                90
_cell_angle_beta                 90
_cell_angle_gamma                90
_cell_volume                     5948.4
_exptl_crystal_colour            yellow
_exptl_crystal_description       block
_cell_formula_units_Z            4
loop_
_atom_site_label
_atom_site_type_symbol
_atom_site_fract_x
_atom_site_fract_y
_atom_site_fract_z
O1 O 0.2967(3) 0.38148(15) 0.5541(6)
O2 O 0.2229(3) 0.16954(16) 0.6375(7)
O3 O -0.0567(3) 0.39968(17) 0.3740(7)
O4 O -0.0628(3) 0.18534(16) 0.3076(6)
N1 N 0.5705(3) 0.36543(19) 0.6405(7)
H1 H 0.6196 0.3606 0.6537
N2 N 0.5178(3) 0.33546(18) 0.6360(6)
N3 N 0.3847(3) 0.33196(17) 0.6064(6)
H2 H 0.3891 0.3055 0.6240
N4 N 0.2820(3) 0.27319(17) 0.6012(5)
N5 N 0.3391(3) 0.20046(17) 0.6589(6)
H3 H 0.3623 0.2246 0.6571
N6 N 0.4559(3) 0.17220(18) 0.7259(6)
N7 N 0.4846(4) 0.13396(18) 0.7430(7)
H4 H 0.5322 0.1289 0.7662
N8 N -0.3096(4) 0.4316(2) 0.2266(8)
H5 H -0.3573 0.4365 0.2038
N9 N -0.2853(3) 0.39407(18) 0.2658(7)
N10 N -0.1686(3) 0.36577(18) 0.3330(6)
H6 H -0.1916 0.3416 0.3368
N11 N -0.0939(3) 0.29274(17) 0.3503(5)
N12 N -0.1707(4) 0.22433(18) 0.2869(5)
H7 H -0.1890 0.2496 0.2906
N13 N -0.2913(3) 0.20316(18) 0.2138(5)
N14 N -0.3268(3) 0.16678(17) 0.1904(6)
H8 H -0.3747 0.1646 0.1645
C1 C -0.0966(4) 0.2186(2) 0.3165(6)
C2 C 0.5512(8) 0.4743(4) 0.531(3)
H9 H 0.4975 0.4792 0.5549
H10 H 0.5532 0.4627 0.4452
H11 H 0.5795 0.5004 0.5333
C3 C 0.6673(6) 0.4355(3) 0.5799(16)
H12 H 0.6947 0.4619 0.5763
H13 H 0.6643 0.4236 0.4946
H14 H 0.6948 0.4165 0.6361
C4 C 0.5833(16) 0.4600(6) 0.7561(19)
H15 H 0.5899 0.4900 0.7514
H16 H 0.6233 0.4481 0.8104
H17 H 0.5327 0.4536 0.7918
C5 C 0.5891(5) 0.4423(3) 0.6292(12)
C6 C 0.5419(5) 0.4034(2) 0.6232(9)
C7 C 0.4641(5) 0.3975(2) 0.6042(10)
H18 H 0.4264 0.4181 0.5879
C8 C 0.4528(4) 0.3555(2) 0.6139(7)
C9 C 0.3144(4) 0.3451(2) 0.5759(7)
C10 C 0.2565(4) 0.3105(2) 0.5675(6)
C11 C 0.1828(4) 0.3173(2) 0.5211(6)
H19 H 0.1670 0.3443 0.4975
C12 C 0.1330(4) 0.2844(2) 0.5098(6)
C13 C 0.1589(4) 0.2457(2) 0.5492(6)
H20 H 0.1259 0.2224 0.5461
C14 C 0.2335(4) 0.2419(2) 0.5928(6)
C15 C 0.2635(4) 0.1997(2) 0.6321(7)
C16 C 0.3834(4) 0.1659(2) 0.6894(7)
C17 C 0.3655(5) 0.1241(2) 0.6846(10)
H21 H 0.3178 0.1120 0.6616
C18 C 0.4313(5) 0.1042(3) 0.7201(12)
C19 C 0.4481(6) 0.0591(3) 0.7357(19)
C20 C 0.4940(14) 0.0510(4) 0.8455(17)
H22 H 0.5394 0.0689 0.8446
H23 H 0.5102 0.0220 0.8450
H24 H 0.4638 0.0565 0.9221
C21 C 0.506(2) 0.0474(6) 0.617(2)
H25 H 0.4992 0.0183 0.5937
H26 H 0.5593 0.0522 0.6420
H27 H 0.4936 0.0648 0.5433
C22 C 0.3817(10) 0.0366(4) 0.725(7)
H28 H 0.3731 0.0210 0.8034
H29 H 0.3861 0.0175 0.6535
H30 H 0.3384 0.0554 0.7106
C23 C 0.0561(4) 0.2885(2) 0.4522(6)
C24 C 0.0173(4) 0.3259(2) 0.4389(6)
H31 H 0.0409 0.3508 0.4659
C25 C -0.0553(4) 0.3268(2) 0.3866(6)
C26 C -0.0937(4) 0.3675(2) 0.3665(7)
C27 C -0.2120(4) 0.3996(2) 0.2930(7)
C28 C -0.1903(4) 0.4402(2) 0.2740(9)
H32 H -0.1414 0.4519 0.2907
C29 C -0.2547(4) 0.4606(2) 0.2252(9)
C30 C -0.2688(6) 0.5045(3) 0.1881(12)
C31 C -0.3267(13) 0.5248(4) 0.2813(13)
H33 H -0.3113 0.5187 0.3688
H34 H -0.3782 0.5137 0.2657
H35 H -0.3271 0.5547 0.2682
C32 C -0.1970(9) 0.5275(5) 0.189(4)
H36 H -0.1987 0.5492 0.1248
H37 H -0.1543 0.5087 0.1714
H38 H -0.1897 0.5400 0.2732
C33 C -0.3095(10) 0.5052(4) 0.0576(13)
H39 H -0.3166 0.5339 0.0301
H40 H -0.3597 0.4917 0.0649
H41 H -0.2781 0.4905 -0.0048
C34 C -0.2103(4) 0.1490(2) 0.2500(7)
H42 H -0.1656 0.1337 0.2711
C35 C -0.2807(4) 0.1344(2) 0.2113(7)
C36 C -0.3065(4) 0.0899(2) 0.1956(8)
C37 C -0.3616(12) 0.0810(4) 0.305(2)
H43 H -0.3854 0.0539 0.2924
H44 H -0.4015 0.1022 0.3075
H45 H -0.3331 0.0811 0.3851
C38 C -0.3448(16) 0.0844(4) 0.0739(17)
H46 H -0.3737 0.0585 0.0745
H47 H -0.3064 0.0836 0.0060
H48 H -0.3801 0.1075 0.0591
C39 C -0.2408(7) 0.0618(3) 0.198(2)
H49 H -0.2320 0.0525 0.2853
H50 H -0.1951 0.0762 0.1670
H51 H -0.2514 0.0379 0.1438
C40 C 0.0165(4) 0.2530(2) 0.4101(7)
H52 H 0.0400 0.2267 0.4162
C41 C -0.0556(4) 0.2567(2) 0.3606(7)
C42 C -0.2210(4) 0.1929(2) 0.2506(6)
O5 O 0.4622(3) 0.25936(17) 0.7275(6)
H53 H 0.486(5) 0.2352(14) 0.719(9)
H54 H 0.482(5) 0.277(2) 0.674(8)
O6 O 1.0252(3) 0.3237(2) 0.0875(6)
N15 N 0.8991(4) 0.3240(2) 0.0354(6)
C43 C 0.9642(5) 0.3423(3) 0.0679(8)
H55 H 0.9641 0.3715 0.0768
C44 C 0.8950(6) 0.2804(3) 0.0134(9)
H56 H 0.8539 0.2685 0.0652
H57 H 0.9441 0.2676 0.0366
H58 H 0.8844 0.2753 -0.0765
C45 C 0.8275(5) 0.3457(4) 0.0166(10)
H59 H 0.8358 0.3753 0.0279
H60 H 0.7896 0.3359 0.0785
H61 H 0.8086 0.3404 -0.0695
O7 O 0.0412(4) 0.0738(2) 0.1367(11)
N16 N 0.0113(7) 0.1309(3) 0.0274(10)
C46 C -0.0335(13) 0.1649(7) -0.0102(16)
H62 H -0.0871 0.1563 -0.0198
H63 H -0.0144 0.1756 -0.0913
H64 H -0.0302 0.1866 0.0544
C47 C 0.0926(12) 0.1412(6) 0.004(2)
H65 H 0.1135 0.1225 -0.0603
H66 H 0.1217 0.1381 0.0831
H67 H 0.0965 0.1697 -0.0259
C48 C -0.0019(10) 0.0993(6) 0.0976(18)
H68 H -0.0540 0.0957 0.1218
O8 O 0.2151(3) 0.21073(17) 0.2470(7)
H69 H 0.264(2) 0.210(3) 0.234(10)
H70 H 0.197(5) 0.192(3) 0.299(9)
O9 O 0.0985(4) 0.16289(19) 0.3485(7)
H71 H 0.125(5) 0.146(3) 0.300(9)
H72 H 0.050(2) 0.164(3) 0.324(10)
O10 O 0.6353(3) 0.14528(18) 0.8134(6)
N17 N 0.6917(4) 0.2049(2) 0.8808(6)
C49 C 0.6316(5) 0.1822(3) 0.8425(8)
H73 H 0.5829 0.1954 0.8374
C50 C 0.7665(5) 0.1867(3) 0.8994(9)
H74 H 0.7666 0.1585 0.8658
H75 H 0.7785 0.1861 0.9902
H76 H 0.8051 0.2032 0.8547
C51 C 0.6819(6) 0.2480(3) 0.9187(10)
H77 H 0.6282 0.2561 0.9073
H78 H 0.7148 0.2656 0.8661
H79 H 0.6963 0.2512 1.0080
loop_
_geom_bond_atom_site_label_1
_geom_bond_atom_site_label_2
_geom_bond_site_symmetry_1
_geom_bond_site_symmetry_2
O1 C9 1_555 1_555
O2 C15 1_555 1_555
O3 C26 1_555 1_555
O4 C1 1_555 1_555
N1 H1 1_555 1_555
N2 N1 1_555 1_555
N3 H2 1_555 1_555
N4 C10 1_555 1_555
N5 H3 1_555 1_555
N6 N7 1_555 1_555
N7 H4 1_555 1_555
N8 H5 1_555 1_555
N9 N8 1_555 1_555
N10 H6 1_555 1_555
N11 C25 1_555 1_555
N12 H7 1_555 1_555
N13 N14 1_555 1_555
N14 H8 1_555 1_555
C1 N12 1_555 1_555
C2 H9 1_555 1_555
H10 C2 1_555 1_555
H11 C2 1_555 1_555
C3 H12 1_555 1_555
H13 C3 1_555 1_555
H14 C3 1_555 1_555
C4 H15 1_555 1_555
H16 C4 1_555 1_555
H17 C4 1_555 1_555
C5 C2 1_555 1_555
C6 N1 1_555 1_555
C7 C6 1_555 1_555
H18 C7 1_555 1_555
C8 N2 1_555 1_555
C9 N3 1_555 1_555
C10 C9 1_555 1_555
C11 C10 1_555 1_555
H19 C11 1_555 1_555
C12 C11 1_555 1_555
C13 C12 1_555 1_555
H20 C13 1_555 1_555
C14 N4 1_555 1_555
C15 N5 1_555 1_555
C16 N5 1_555 1_555
C17 C16 1_555 1_555
H21 C17 1_555 1_555
C18 N7 1_555 1_555
C19 C18 1_555 1_555
C20 C19 1_555 1_555
H22 C20 1_555 1_555
H23 C20 1_555 1_555
H24 C20 1_555 1_555
C21 C19 1_555 1_555
H25 C21 1_555 1_555
H26 C21 1_555 1_555
H27 C21 1_555 1_555
C22 C19 1_555 1_555
H28 C22 1_555 1_555
H29 C22 1_555 1_555
H30 C22 1_555 1_555
C23 C12 1_555 1_555
C24 C23 1_555 1_555
H31 C24 1_555 1_555
C25 C24 1_555 1_555
C26 N10 1_555 1_555
C27 N9 1_555 1_555
C28 C27 1_555 1_555
H32 C28 1_555 1_555
C29 N8 1_555 1_555
C30 C29 1_555 1_555
C31 C30 1_555 1_555
H33 C31 1_555 1_555
H34 C31 1_555 1_555
H35 C31 1_555 1_555
C32 C30 1_555 1_555
H36 C32 1_555 1_555
H37 C32 1_555 1_555
H38 C32 1_555 1_555
C33 C30 1_555 1_555
H39 C33 1_555 1_555
H40 C33 1_555 1_555
H41 C33 1_555 1_555
C34 H42 1_555 1_555
C35 N14 1_555 1_555
C36 C35 1_555 1_555
C37 C36 1_555 1_555
H43 C37 1_555 1_555
H44 C37 1_555 1_555
H45 C37 1_555 1_555
C38 C36 1_555 1_555
H46 C38 1_555 1_555
H47 C38 1_555 1_555
H48 C38 1_555 1_555
C39 C36 1_555 1_555
H49 C39 1_555 1_555
H50 C39 1_555 1_555
H51 C39 1_555 1_555
C40 C23 1_555 1_555
H52 C40 1_555 1_555
C41 N11 1_555 1_555
C42 N12 1_555 1_555
O5 H53 1_555 1_555
H54 O5 1_555 1_555
O6 C43 1_555 1_555
N15 C43 1_555 1_555
C43 H55 1_555 1_555
C44 N15 1_555 1_555
H56 C44 1_555 1_555
H57 C44 1_555 1_555
H58 C44 1_555 1_555
C45 N15 1_555 1_555
H59 C45 1_555 1_555
H60 C45 1_555 1_555
H61 C45 1_555 1_555
O7 C48 1_555 1_555
N16 C46 1_555 1_555
C46 H62 1_555 1_555
H63 C46 1_555 1_555
H64 C46 1_555 1_555
C47 N16 1_555 1_555
H65 C47 1_555 1_555
H66 C47 1_555 1_555
H67 C47 1_555 1_555
C48 N16 1_555 1_555
H68 C48 1_555 1_555
O8 H69 1_555 1_555
H70 O8 1_555 1_555
O9 H71 1_555 1_555
H72 O9 1_555 1_555
O10 C49 1_555 1_555
N17 C49 1_555 1_555
C49 H73 1_555 1_555
C50 N17 1_555 1_555
H74 C50 1_555 1_555
H75 C50 1_555 1_555
H76 C50 1_555 1_555
C51 N17 1_555 1_555
H77 C51 1_555 1_555
H78 C51 1_555 1_555
H79 C51 1_555 1_555
N3 C8 1_555 1_555
N6 C16 1_555 1_555
N10 C27 1_555 1_555
N13 C42 1_555 1_555
C1 C41 1_555 1_555
C3 C5 1_555 1_555
C4 C5 1_555 1_555
C5 C6 1_555 1_555
C7 C8 1_555 1_555
C13 C14 1_555 1_555
C14 C15 1_555 1_555
C17 C18 1_555 1_555
C25 C26 1_555 1_555
C28 C29 1_555 1_555
C34 C35 1_555 1_555
C34 C42 1_555 1_555
C40 C41 1_555 1_555

#END
