
#######################################################################
#
#                 Cambridge Crystallographic Data Centre
#                                CCDC 
#
#######################################################################
#
# If this CIF has been generated from an entry in the Cambridge 
# Structural Database, then it will include bibliographic, chemical, 
# crystal, experimental, refinement or atomic coordinate data resulting 
# from the CCDC's data processing and validation procedures.
#
#######################################################################

data_SITNAL
_chemical_formula_moiety         'C10 H14 N4 O4 S1'
_chemical_name_systematic        
'Ethyl ((4,6-dimethoxypyrimidin-2-yl)carbamothioyl)carbamate'
_symmetry_cell_setting           monoclinic
_symmetry_space_group_name_H-M   'C 2/c'
_symmetry_Int_Tables_number      15
_space_group_name_Hall           '-C 2yn'
loop_
_symmetry_equiv_pos_site_id
_symmetry_equiv_pos_as_xyz
1 x,y,z
2 1/2+x,1/2+y,z
3 -x,y,1/2-z
4 1/2-x,1/2+y,1/2-z
5 -x,-y,-z
6 1/2-x,1/2-y,-z
7 x,-y,1/2+z
8 1/2+x,1/2-y,1/2+z
_cell_length_a                   25.309(3)
_cell_length_b                   6.7682(6)
_cell_length_c                   17.4237(19)
_cell_angle_alpha                90
_cell_angle_beta                 114.744(3)
_cell_angle_gamma                90
_cell_volume                     2710.59
_chemical_melting_point          198-199deg.C
_cell_formula_units_Z            8
_exptl_crystal_recrystallization_method dmf
loop_
_atom_site_label
_atom_site_type_symbol
_atom_site_fract_x
_atom_site_fract_y
_atom_site_fract_z
S1 S 0.09201(4) 0.75708(15) 0.29826(6)
N1 N -0.06633(11) 0.7740(3) 0.02066(15)
N2 N 0.02512(11) 0.7458(3) 0.00934(16)
N3 N 0.01852(11) 0.7616(3) 0.13898(15)
H1 H -0.0054 0.7756 0.1620
N4 N 0.11436(11) 0.7264(4) 0.16016(17)
H2 H 0.1011 0.7458 0.1066
O1 O 0.02706(16) 0.7295(4) -0.1202(2)
O2 O -0.15165(11) 0.7885(4) -0.09968(15)
O3 O 0.19811(11) 0.6288(5) 0.27333(17)
O4 O 0.19557(10) 0.6915(4) 0.14616(16)
C1 C -0.00390(18) 0.7442(4) -0.0749(2)
C2 C -0.06429(18) 0.7582(4) -0.1152(2)
H3 H -0.0841 0.7569 -0.1737
C3 C -0.09323(16) 0.7740(4) -0.0633(2)
C4 C -0.00844(14) 0.7592(4) 0.05127(18)
C5 C 0.07549(13) 0.7461(4) 0.1964(2)
C6 C 0.17292(16) 0.6781(5) 0.2021(3)
C7 C 0.25605(16) 0.6316(7) 0.1789(3)
H4 H 0.2595 0.4918 0.1923
H5 H 0.2788 0.7046 0.2301
C8 C 0.2773(2) 0.6716(8) 0.1150(3)
H6 H 0.2529 0.6063 0.0633
H7 H 0.3165 0.6235 0.1339
H8 H 0.2767 0.8114 0.1054
C9 C -0.18038(17) 0.8140(7) -0.0449(3)
H9 H -0.1704 0.7065 -0.0054
H10 H -0.2217 0.8161 -0.0779
H11 H -0.1682 0.9364 -0.0148
C10 C 0.0827(2) 0.7194(8) -0.0886(4)
C11? C 0.0243(6) 0.7352(16) -0.1939(5)
loop_
_geom_bond_atom_site_label_1
_geom_bond_atom_site_label_2
_geom_bond_site_symmetry_1
_geom_bond_site_symmetry_2
S1 C5 1_555 1_555
N1 C3 1_555 1_555
N2 C1 1_555 1_555
N3 H1 1_555 1_555
N4 H2 1_555 1_555
O1 C1 1_555 1_555
O2 C3 1_555 1_555
O3 C6 1_555 1_555
O4 C6 1_555 1_555
C1 C2 1_555 1_555
C2 H3 1_555 1_555
C3 C2 1_555 1_555
C4 N1 1_555 1_555
C5 N3 1_555 1_555
C6 N4 1_555 1_555
C7 O4 1_555 1_555
H4 C7 1_555 1_555
H5 C7 1_555 1_555
C8 C7 1_555 1_555
H6 C8 1_555 1_555
H7 C8 1_555 1_555
H8 C8 1_555 1_555
C9 O2 1_555 1_555
H9 C9 1_555 1_555
H10 C9 1_555 1_555
H11 C9 1_555 1_555
C10 O1 1_555 1_555
N2 C4 1_555 1_555
N3 C4 1_555 1_555
N4 C5 1_555 1_555

#END
