
#######################################################################
#
#                 Cambridge Crystallographic Data Centre
#                                CCDC 
#
#######################################################################
#
# If this CIF has been generated from an entry in the Cambridge 
# Structural Database, then it will include bibliographic, chemical, 
# crystal, experimental, refinement or atomic coordinate data resulting 
# from the CCDC's data processing and validation procedures.
#
#######################################################################

data_SITPIV
_chemical_formula_moiety         'C17 H12 N4 O1,C3 H7 N1 O1,H2 O1'
_chemical_name_systematic        
"N-(1'H-Pyrrol-2'-ylcarbonyl)-5-amino-1,10-phenanthroline dimethylformamide solvate monohydrate"
_symmetry_cell_setting           triclinic
_symmetry_space_group_name_H-M   'P -1'
_symmetry_Int_Tables_number      2
_space_group_name_Hall           '-P 1'
loop_
_symmetry_equiv_pos_site_id
_symmetry_equiv_pos_as_xyz
1 x,y,z
2 -x,-y,-z
_cell_length_a                   7.8559(4)
_cell_length_b                   9.1681(6)
_cell_length_c                   14.6818(9)
_cell_angle_alpha                73.254(10)
_cell_angle_beta                 88.938(15)
_cell_angle_gamma                68.080(10)
_cell_volume                     934.659
_exptl_crystal_colour            colorless
_exptl_crystal_description       prism
_cell_formula_units_Z            2
loop_
_atom_site_label
_atom_site_type_symbol
_atom_site_fract_x
_atom_site_fract_y
_atom_site_fract_z
C1 C 0.5407(4) 1.1169(4) 1.1320(2)
H1 H 0.4650 1.1902 1.1642
C2 C 0.5879(4) 0.9476(4) 1.1748(2)
H2 H 0.5453 0.9078 1.2342
C3 C 0.6970(4) 0.8404(4) 1.1290(2)
H3 H 0.7314 0.7248 1.1565
C4 C 0.7575(4) 0.9036(3) 1.0409(2)
C5 C 0.8656(4) 0.7977(4) 0.9886(2)
H4 H 0.9018 0.6817 1.0147
C6 C 0.9169(4) 0.8604(3) 0.9022(2)
C7 C 0.8694(4) 1.0359(3) 0.8622(2)
C8 C 0.9273(4) 1.1068(4) 0.7751(2)
H5 H 0.9967 1.0393 0.7383
C9 C 0.8831(4) 1.2728(4) 0.7441(2)
H6 H 0.9202 1.3223 0.6851
C10 C 0.7830(4) 1.3692(4) 0.7998(2)
H7 H 0.7546 1.4845 0.7776
C11 C 0.7654(4) 1.1429(3) 0.9137(2)
C12 C 0.7040(4) 1.0759(3) 1.0040(2)
C13 C 0.9671(4) 0.7471(4) 0.7686(2)
C14 C 1.1037(4) 0.6367(3) 0.7247(2)
C15 C 1.2930(4) 0.5608(4) 0.7419(2)
H8 H 1.3676 0.5642 0.7909
C16 C 1.3550(4) 0.4775(4) 0.6737(2)
H9 H 1.4796 0.4143 0.6680
C17 C 1.2025(4) 0.5038(4) 0.6164(2)
H10 H 1.2034 0.4612 0.5645
N1 N 0.5950(3) 1.1813(3) 1.04927(17)
N2 N 0.7250(3) 1.3084(3) 0.88222(17)
N3 N 1.0284(3) 0.7528(3) 0.85249(18)
H18 H 1.129(3) 0.665(3) 0.883(2)
N4 N 1.0510(4) 0.6014(3) 0.64743(18)
H19 H 0.9336(19) 0.634(4) 0.624(2)
O1 O 0.8082(3) 0.8331(2) 0.72932(15)
C18 C 0.2346(5) 0.9627(4) 0.5750(3)
H11 H 0.2787 0.9813 0.6310
H12 H 0.1448 0.9112 0.5931
H13 H 0.1759 1.0684 0.5250
C19 C 0.3510(5) 0.8175(5) 0.4543(2)
H14 H 0.4659 0.7442 0.4377
H15 H 0.2984 0.9200 0.4013
H16 H 0.2631 0.7630 0.4666
C20 C 0.5573(5) 0.7849(4) 0.5850(2)
H17 H 0.5746 0.8122 0.6409
N5 N 0.3887(4) 0.8550(3) 0.53946(18)
O2 O 0.6934(3) 0.6873(3) 0.56087(16)
O3 O 0.7052(3) 0.5022(3) 1.00819(17)
H20 H 0.601(3) 0.580(4) 1.004(3)
H21 H 0.690(6) 0.451(5) 0.971(3)
loop_
_geom_bond_atom_site_label_1
_geom_bond_atom_site_label_2
_geom_bond_site_symmetry_1
_geom_bond_site_symmetry_2
C1 H1 1_555 1_555
C2 C1 1_555 1_555
H2 C2 1_555 1_555
C3 C2 1_555 1_555
H3 C3 1_555 1_555
C4 C3 1_555 1_555
C5 C4 1_555 1_555
H4 C5 1_555 1_555
C6 C5 1_555 1_555
C7 C6 1_555 1_555
C8 C7 1_555 1_555
H5 C8 1_555 1_555
C9 C8 1_555 1_555
H6 C9 1_555 1_555
C10 C9 1_555 1_555
H7 C10 1_555 1_555
C11 C7 1_555 1_555
C12 C4 1_555 1_555
C13 C14 1_555 1_555
C14 C15 1_555 1_555
C15 H8 1_555 1_555
C16 C15 1_555 1_555
H9 C16 1_555 1_555
C17 C16 1_555 1_555
H10 C17 1_555 1_555
C18 H11 1_555 1_555
H12 C18 1_555 1_555
H13 C18 1_555 1_555
C19 H14 1_555 1_555
H15 C19 1_555 1_555
H16 C19 1_555 1_555
C20 H17 1_555 1_555
N1 C1 1_555 1_555
N2 C10 1_555 1_555
N3 C6 1_555 1_555
H18 N3 1_555 1_555
N4 C14 1_555 1_555
H19 N4 1_555 1_555
N5 C18 1_555 1_555
O1 C13 1_555 1_555
O2 C20 1_555 1_555
O3 H20 1_555 1_555
H21 O3 1_555 1_555
C11 C12 1_555 1_555
C11 N2 1_555 1_555
C12 N1 1_555 1_555
C13 N3 1_555 1_555
C17 N4 1_555 1_555
C19 N5 1_555 1_555
C20 N5 1_555 1_555

#END
