
#######################################################################
#
#                 Cambridge Crystallographic Data Centre
#                                CCDC 
#
#######################################################################
#
# If this CIF has been generated from an entry in the Cambridge 
# Structural Database, then it will include bibliographic, chemical, 
# crystal, experimental, refinement or atomic coordinate data resulting 
# from the CCDC's data processing and validation procedures.
#
#######################################################################

data_SITQAQ
_chemical_formula_moiety         'C2 N8 O4 2-,2(Cs1 1+)'
_chemical_name_systematic        'di-cesium 3,6-dinitramino-1,2,4,5-tetrazine'
_symmetry_cell_setting           triclinic
_symmetry_space_group_name_H-M   'P -1'
_symmetry_Int_Tables_number      2
_space_group_name_Hall           '-P 1'
loop_
_symmetry_equiv_pos_site_id
_symmetry_equiv_pos_as_xyz
1 x,y,z
2 -x,-y,-z
_cell_length_a                   5.3925(11)
_cell_length_b                   7.3559(15)
_cell_length_c                   7.4275(15)
_cell_angle_alpha                61.64(3)
_cell_angle_beta                 87.56(3)
_cell_angle_gamma                69.50(3)
_cell_volume                     240.091
_exptl_crystal_colour            red
_exptl_crystal_description       block
_cell_formula_units_Z            1
loop_
_atom_site_label
_atom_site_type_symbol
_atom_site_fract_x
_atom_site_fract_y
_atom_site_fract_z
Cs1 Cs 1.20754(5) 0.09586(4) 0.69693(4)
O1 O 0.7303(8) 0.4635(7) 0.3679(6)
O2 O 0.3808(9) 0.7467(7) 0.1655(7)
N1 N 0.5070(9) 0.5414(8) 0.2600(7)
N2 N 0.4247(9) 0.3940(7) 0.2549(7)
N3 N 0.1538(9) 0.2877(8) 0.1397(8)
N4 N -0.0482(9) 0.3208(8) 0.0206(7)
C1 C 0.1993(10) 0.4652(9) 0.1196(8)
O1A O -0.7303(8) 0.5365(7) -0.3679(6)
O2A O -0.3808(9) 0.2533(7) -0.1655(7)
N1A N -0.5070(9) 0.4586(8) -0.2600(7)
N2A N -0.4247(9) 0.6060(7) -0.2549(7)
N3A N -0.1538(9) 0.7123(8) -0.1397(8)
N4A N 0.0482(9) 0.6792(8) -0.0206(7)
C1A C -0.1993(10) 0.5348(9) -0.1196(8)
loop_
_geom_bond_atom_site_label_1
_geom_bond_atom_site_label_2
_geom_bond_site_symmetry_1
_geom_bond_site_symmetry_2
O1 N1 1_555 1_555
O2 N1 1_555 1_555
N1 N2 1_555 1_555
N2 C1 1_555 1_555
N3 N4 1_555 1_555
N4 C1A 1_555 1_555
C1 N3 1_555 1_555
O1A N1A 1_555 1_555
O2A N1A 1_555 1_555
N1A N2A 1_555 1_555
N2A C1A 1_555 1_555
N3A N4A 1_555 1_555
N4A C1 1_555 1_555
C1A N3A 1_555 1_555

#END
