
#######################################################################
#
#                 Cambridge Crystallographic Data Centre
#                                CCDC 
#
#######################################################################
#
# If this CIF has been generated from an entry in the Cambridge 
# Structural Database, then it will include bibliographic, chemical, 
# crystal, experimental, refinement or atomic coordinate data resulting 
# from the CCDC's data processing and validation procedures.
#
#######################################################################

data_SITQES
_chemical_formula_moiety         'C24 H19 F6 N1 O4'
_chemical_name_systematic        
3,6-bis(4,4,4-Trifluorobutane-1,3-dione)-9-n-butylcarbazole
_symmetry_cell_setting           monoclinic
_symmetry_space_group_name_H-M   'P 21/c'
_symmetry_Int_Tables_number      14
_space_group_name_Hall           '-P 2ybc'
loop_
_symmetry_equiv_pos_site_id
_symmetry_equiv_pos_as_xyz
1 x,y,z
2 -x,1/2+y,1/2-z
3 -x,-y,-z
4 x,1/2-y,1/2+z
_cell_length_a                   10.961(6)
_cell_length_b                   22.942(13)
_cell_length_c                   9.408(6)
_cell_angle_alpha                90
_cell_angle_beta                 109.663(9)
_cell_angle_gamma                90
_cell_volume                     2227.85
_exptl_crystal_colour            colorless
_exptl_crystal_description       Prism
_cell_formula_units_Z            4
_exptl_crystal_recrystallization_method 'methylene chloride'
loop_
_atom_site_label
_atom_site_type_symbol
_atom_site_fract_x
_atom_site_fract_y
_atom_site_fract_z
F1 F 0.0446(5) 0.4145(2) 0.8828(7)
F3 F 0.1601(6) 0.4332(3) 1.0937(8)
F7 F 0.0843(13) 0.4973(5) 0.883(3)
F8 F 1.044(2) 0.4223(8) 0.3384(17)
F9 F 1.2213(14) 0.4083(11) 0.511(3)
F10 F 1.0502(18) 0.4302(5) 0.566(2)
N1 N 0.5778(4) 0.14981(19) 0.7256(6)
O1 O 0.4749(5) 0.4091(2) 0.8380(6)
O2 O 0.3264(4) 0.47920(18) 0.9030(6)
O3 O 1.0439(5) 0.2192(2) 0.5089(7)
H1 H 1.0966 0.2388 0.4851
O4 O 1.1556(6) 0.3052(3) 0.4464(9)
C1 C 0.5224(6) 0.1989(2) 0.7637(7)
C2 C 0.4163(6) 0.2019(3) 0.8142(8)
C3 C 0.3784(6) 0.2571(3) 0.8410(8)
C4 C 0.4416(5) 0.3088(2) 0.8215(7)
C5 C 0.5487(6) 0.3028(3) 0.7726(7)
C6 C 0.5875(5) 0.2488(2) 0.7438(7)
C7 C 0.6890(5) 0.2284(2) 0.6898(7)
C8 C 0.7840(6) 0.2570(3) 0.6478(7)
C9 C 0.8677(6) 0.2245(3) 0.5955(7)
C10 C 0.8534(8) 0.1639(4) 0.5862(9)
C11 C 0.7617(7) 0.1344(3) 0.6271(8)
C12 C 0.6785(6) 0.1671(2) 0.6796(7)
C13 C 0.4014(5) 0.3658(2) 0.8524(7)
C14 C 0.2920(6) 0.3775(3) 0.8910(7)
C15 C 0.2624(6) 0.4357(3) 0.9124(8)
C16 C 0.1421(8) 0.4481(3) 0.9514(11)
C17 C 0.9663(6) 0.2535(3) 0.5474(8)
C18 C 0.9829(7) 0.3119(4) 0.5406(9)
C19 C 1.0784(7) 0.3371(4) 0.4874(9)
C20 C 1.0926(8) 0.3999(4) 0.4730(11)
C21 C 0.5393(7) 0.0894(3) 0.7383(8)
C22 C 0.6271(8) 0.0589(3) 0.8792(9)
H2 H 0.6044 0.0179 0.8728
H3 H 0.7158 0.0617 0.8807
C23 C 0.6205(8) 0.0820(3) 1.0209(9)
H4 H 0.5324 0.0785 1.0210
H5 H 0.6423 0.1232 1.0274
C24 C 0.7134(9) 0.0503(4) 1.1622(9)
H6 H 0.7052 0.0672 1.2519
H7 H 0.8011 0.0544 1.1642
H8 H 0.6912 0.0097 1.1578
H9 H 0.586(4) 0.337(2) 0.761(5)
H10 H 0.799(5) 0.298(2) 0.667(6)
H11 H 0.300(5) 0.264(2) 0.882(6)
H12 H 0.762(6) 0.093(3) 0.630(7)
H13 H 0.368(6) 0.169(3) 0.843(7)
H14 H 0.437(6) 0.093(2) 0.731(7)
H15 H 0.244(7) 0.345(3) 0.910(8)
H16 H 0.895(5) 0.147(2) 0.554(7)
H17 H 0.553(6) 0.069(3) 0.656(8)
H18 H 0.930(6) 0.335(3) 0.562(7)
H19 H 0.420(8) 0.438(4) 0.824(9)
F2? F 0.1303(18) 0.5039(5) 0.985(2)
F4? F 1.091(3) 0.4076(15) 0.331(2)
F5? F 1.200(2) 0.4265(11) 0.557(3)
F6? F 0.9854(19) 0.4302(7) 0.465(4)
loop_
_geom_bond_atom_site_label_1
_geom_bond_atom_site_label_2
_geom_bond_site_symmetry_1
_geom_bond_site_symmetry_2
F1 C16 1_555 1_555
F3 C16 1_555 1_555
F7 C16 1_555 1_555
F8 C20 1_555 1_555
F9 C20 1_555 1_555
F10 C20 1_555 1_555
N1 C1 1_555 1_555
O1 C13 1_555 1_555
O2 C15 1_555 1_555
O3 H1 1_555 1_555
O4 C19 1_555 1_555
C1 C2 1_555 1_555
C2 C3 1_555 1_555
C3 C4 1_555 1_555
C4 C5 1_555 1_555
C5 C6 1_555 1_555
C6 C1 1_555 1_555
C7 C6 1_555 1_555
C8 C7 1_555 1_555
C9 C8 1_555 1_555
C10 C9 1_555 1_555
C11 C10 1_555 1_555
C12 N1 1_555 1_555
C13 C4 1_555 1_555
C14 C13 1_555 1_555
C15 C14 1_555 1_555
C16 C15 1_555 1_555
C17 O3 1_555 1_555
C18 C17 1_555 1_555
C19 C18 1_555 1_555
C20 C19 1_555 1_555
C21 N1 1_555 1_555
C22 C21 1_555 1_555
H2 C22 1_555 1_555
H3 C22 1_555 1_555
C23 C22 1_555 1_555
H4 C23 1_555 1_555
H5 C23 1_555 1_555
C24 C23 1_555 1_555
H6 C24 1_555 1_555
H7 C24 1_555 1_555
H8 C24 1_555 1_555
H9 C5 1_555 1_555
H10 C8 1_555 1_555
H11 C3 1_555 1_555
H12 C11 1_555 1_555
H13 C2 1_555 1_555
H14 C21 1_555 1_555
H15 C14 1_555 1_555
H16 C10 1_555 1_555
H17 C21 1_555 1_555
H18 C18 1_555 1_555
H19 O1 1_555 1_555
C7 C12 1_555 1_555
C9 C17 1_555 1_555
C11 C12 1_555 1_555

#END
