
#######################################################################
#
#                 Cambridge Crystallographic Data Centre
#                                CCDC 
#
#######################################################################
#
# If this CIF has been generated from an entry in the Cambridge 
# Structural Database, then it will include bibliographic, chemical, 
# crystal, experimental, refinement or atomic coordinate data resulting 
# from the CCDC's data processing and validation procedures.
#
#######################################################################

data_SITROF
_chemical_formula_moiety         'C30 H34 N6,C1 H2 Cl2'
_chemical_name_systematic        
"2,2'-(1,8-naphthyridine-2,7-diyl)bis(7,8,8-trimethyl-4,5,6,7-tetrahydro-2H-4,7-methanoindazole) dichloromethane solvate"
_symmetry_cell_setting           monoclinic
_symmetry_space_group_name_H-M   'P 21'
_symmetry_Int_Tables_number      4
_space_group_name_Hall           'P 2yb'
loop_
_symmetry_equiv_pos_site_id
_symmetry_equiv_pos_as_xyz
1 x,y,z
2 -x,1/2+y,-z
_cell_length_a                   13.6846(7)
_cell_length_b                   10.6182(5)
_cell_length_c                   20.4605(10)
_cell_angle_alpha                90
_cell_angle_beta                 91.6930(10)
_cell_angle_gamma                90
_cell_volume                     2971.73
_exptl_crystal_colour            white
_exptl_crystal_description       block
_cell_formula_units_Z            4
loop_
_atom_site_label
_atom_site_type_symbol
_atom_site_fract_x
_atom_site_fract_y
_atom_site_fract_z
Cl1 Cl 0.28168(6) 0.28970(8) 0.01899(4)
Cl2 Cl 0.40830(6) 0.47079(13) -0.04161(4)
C1 C 0.32326(19) 0.4469(3) 0.01955(14)
Cl3 Cl 0.78645(17) 0.30197(16) 0.49742(13)
Cl4 Cl 0.91255(14) 0.5153(4) 0.52788(11)
C2 C 0.8262(2) 0.4501(4) 0.47071(15)
H1 H 0.769436 0.507437 0.465541
H2 H 0.856504 0.441340 0.427605
N1 N 0.10573(13) 0.55112(17) 1.05696(9)
N2 N 0.10578(13) 0.54542(18) 1.16900(8)
N3 N 0.11426(13) 0.54987(17) 0.94506(9)
N4 N 0.07712(13) 0.59191(18) 1.22853(8)
N5 N 0.12484(13) 0.53809(18) 0.83319(9)
N6 N 0.09772(13) 0.57983(19) 0.77116(9)
C3 C 0.07534(15) 0.6030(2) 0.99906(10)
C4 C 0.06974(15) 0.5989(2) 1.11053(10)
C5 C 0.02073(16) 0.6993(2) 0.87861(11)
H5 H 0.004263 0.730081 0.836095
C6 C 0.08622(15) 0.5969(2) 0.88789(10)
C7 C 0.17673(16) 0.4523(2) 1.17568(10)
H6 H 0.207463 0.408148 1.141520
C8 C 0.00827(16) 0.7044(2) 0.99549(11)
C9 C -0.02831(15) 0.7511(2) 1.05441(11)
H7 H -0.073543 0.819011 1.053644
C10 C -0.01762(16) 0.7519(2) 0.93273(11)
H8 H -0.061836 0.820579 0.928413
C11 C 0.13046(15) 0.5250(2) 1.27030(10)
C12 C 0.19313(16) 0.4373(2) 1.24087(11)
C13 C 0.14243(15) 0.4996(2) 0.73365(10)
C14 C 0.18486(16) 0.4326(2) 0.83191(11)
H9 H 0.211687 0.388035 0.868479
C15 C 0.25074(17) 0.3751(2) 1.29554(11)
H10 H 0.280942 0.291955 1.285129
C16 C 0.00132(15) 0.6988(2) 1.11251(11)
H11 H -0.023002 0.728110 1.152764
C17 C 0.19735(16) 0.4063(2) 0.76796(11)
C18 C 0.07029(19) 0.5750(3) 1.38560(11)
H12 H 0.067119 0.666273 1.378699
H13 H 0.086592 0.557560 1.431670
H14 H 0.006790 0.537330 1.373868
C19 C 0.14810(16) 0.5192(2) 1.34318(10)
C20 C 0.14893(16) 0.4748(2) 0.66168(10)
C21 C 0.32147(16) 0.4784(2) 1.32153(11)
H15 H 0.357957 0.516584 1.285460
H16 H 0.368685 0.443671 1.354405
C22 C 0.25264(17) 0.5765(2) 1.35301(11)
H17 H 0.257213 0.659117 1.330854
H18 H 0.269387 0.587599 1.400060
C23 C 0.17146(17) 0.3738(2) 1.34921(11)
C24 C 0.23881(18) 0.3214(2) 0.71665(11)
H19 H 0.296681 0.269417 0.730569
C25 C 0.1491(2) 0.2484(2) 0.68768(13)
H20 H 0.169735 0.181894 0.657108
H21 H 0.110967 0.209379 0.722745
C26 C 0.25611(17) 0.4216(2) 0.66158(11)
C27 C 0.08866(19) 0.3516(3) 0.65130(13)
H22 H 0.023054 0.359963 0.669962
H23 H 0.080957 0.331478 0.604182
C28 C 0.0837(2) 0.2900(3) 1.33217(14)
H24 H 0.054950 0.315548 1.289771
H25 H 0.034772 0.298715 1.365919
H26 H 0.104931 0.202034 1.329885
C29 C 0.3340(2) 0.5184(3) 0.68067(14)
H27 H 0.337349 0.582630 0.646411
H28 H 0.397546 0.476480 0.685856
H29 H 0.317184 0.558368 0.722022
C30 C 0.2117(2) 0.3356(3) 1.41699(12)
H30 H 0.230919 0.246730 1.416428
H31 H 0.161195 0.348150 1.449323
H32 H 0.268808 0.387616 1.428594
C31 C 0.2819(2) 0.3648(3) 0.59534(12)
H33 H 0.232339 0.302375 0.582202
H34 H 0.346029 0.324071 0.599074
H35 H 0.283646 0.431757 0.562412
C32 C 0.1237(2) 0.5818(3) 0.61618(12)
H36 H 0.054898 0.604940 0.620819
H37 H 0.134443 0.555879 0.570995
H38 H 0.165226 0.654474 0.627066
N7 N 0.59336(13) 0.53296(18) 0.31976(8)
N8 N 0.61703(13) 0.55836(18) 0.54369(8)
N9 N 0.60279(13) 0.55081(18) 0.43164(8)
N10 N 0.56170(13) 0.57652(18) 0.25901(8)
N11 N 0.63737(13) 0.55907(18) 0.65557(8)
N12 N 0.60813(13) 0.59664(18) 0.71682(8)
C33 C 0.59093(15) 0.6083(2) 0.59937(10)
C34 C 0.50355(16) 0.7025(2) 0.48891(10)
C35 C 0.57364(15) 0.6051(2) 0.48807(10)
C36 C 0.60556(15) 0.4996(2) 0.21919(10)
C37 C 0.78744(16) 0.3795(2) 0.77594(10)
H39 H 0.819434 0.299263 0.762572
C38 C 0.66430(15) 0.4068(2) 0.25103(11)
C39 C 0.52180(16) 0.7068(2) 0.60594(10)
H40 H 0.506154 0.739288 0.647619
C40 C 0.56232(15) 0.5925(2) 0.37641(10)
C41 C 0.71123(15) 0.4690(2) 0.65878(10)
H41 H 0.742184 0.430115 0.623056
C42 C 0.72996(15) 0.4482(2) 0.72318(10)
C43 C 0.66460(15) 0.5287(2) 0.75584(10)
C44 C 0.49119(16) 0.6887(2) 0.37164(10)
H42 H 0.464464 0.714432 0.330393
C45 C 0.65523(16) 0.4302(2) 0.31563(11)
H43 H 0.685252 0.385265 0.350981
C46 C 0.47876(16) 0.7531(2) 0.54989(11)
H44 H 0.432202 0.819197 0.551989
C47 C 0.60057(17) 0.5572(3) 0.87157(11)
H45 H 0.594448 0.648890 0.868046
H46 H 0.616457 0.534200 0.917046
H47 H 0.538654 0.517611 0.857732
C48 C 0.46204(16) 0.7436(2) 0.42828(11)
H48 H 0.414384 0.808646 0.427017
C49 C 0.70611(16) 0.3673(2) 0.82817(10)
C50 C 0.68094(15) 0.5122(2) 0.82827(10)
C51 C 0.70199(17) 0.3235(2) 0.19808(11)
H49 H 0.761176 0.272107 0.209769
C52 C 0.85569(16) 0.4805(2) 0.80765(11)
H50 H 0.892545 0.525903 0.774040
H51 H 0.902556 0.441812 0.839495
C53 C 0.60659(16) 0.4761(2) 0.14668(10)
C54 C 0.74309(18) 0.3181(2) 0.89483(11)
H52 H 0.759051 0.228410 0.891237
H53 H 0.692157 0.329323 0.926998
H54 H 0.801706 0.364971 0.908873
C55 C 0.78393(16) 0.5707(2) 0.84246(11)
H55 H 0.787749 0.656992 0.824347
H56 H 0.798877 0.574010 0.890071
C56 C 0.61984(19) 0.2848(2) 0.80604(12)
H57 H 0.591959 0.316989 0.764658
H58 H 0.569864 0.286277 0.839358
H59 H 0.642397 0.198087 0.799905
C57 C 0.61059(19) 0.2494(2) 0.17232(12)
H60 H 0.575785 0.209867 0.208749
H61 H 0.629151 0.183330 0.140906
C58 C 0.54638(18) 0.3527(2) 0.13811(12)
H62 H 0.535081 0.332842 0.091216
H63 H 0.482406 0.360174 0.159143
C59 C 0.79274(18) 0.5219(3) 0.15860(13)
H64 H 0.780388 0.560064 0.201182
H65 H 0.791183 0.587367 0.124813
H66 H 0.857111 0.481396 0.160036
C60 C 0.57596(19) 0.5834(2) 0.10193(11)
H67 H 0.507252 0.604270 0.108778
H68 H 0.584037 0.558233 0.056335
H69 H 0.616756 0.657315 0.111711
C61 C 0.71395(17) 0.4234(2) 0.14262(11)
C62 C 0.7360(2) 0.3662(3) 0.07568(12)
H70 H 0.801464 0.328699 0.077327
H71 H 0.733054 0.432279 0.042262
H72 H 0.687503 0.300982 0.064762
H3? H 0.847356 0.436879 0.425367
H4? H 0.755068 0.467366 0.468833
Cl5? Cl 0.8472(9) 0.3136(4) 0.51504(18)
Cl6? Cl 0.8862(3) 0.5796(5) 0.5031(3)
loop_
_geom_bond_atom_site_label_1
_geom_bond_atom_site_label_2
_geom_bond_site_symmetry_1
_geom_bond_site_symmetry_2
Cl1 C1 1_555 1_555
Cl2 C1 1_555 1_555
Cl3 C2 1_555 1_555
Cl4 C2 1_555 1_555
C2 H1 1_555 1_555
H2 C2 1_555 1_555
N1 C3 1_555 1_555
N2 N4 1_555 1_555
N3 C3 1_555 1_555
N4 C11 1_555 1_555
N5 N6 1_555 1_555
N6 C13 1_555 1_555
C3 C8 1_555 1_555
C4 N1 1_555 1_555
C5 H5 1_555 1_555
C6 N3 1_555 1_555
C7 N2 1_555 1_555
H6 C7 1_555 1_555
C8 C9 1_555 1_555
C9 H7 1_555 1_555
C10 C5 1_555 1_555
H8 C10 1_555 1_555
C11 C12 1_555 1_555
C12 C7 1_555 1_555
C13 C17 1_555 1_555
C14 N5 1_555 1_555
H9 C14 1_555 1_555
C15 C12 1_555 1_555
H10 C15 1_555 1_555
C16 C4 1_555 1_555
H11 C16 1_555 1_555
C17 C14 1_555 1_555
C18 H12 1_555 1_555
H13 C18 1_555 1_555
H14 C18 1_555 1_555
C19 C11 1_555 1_555
C20 C13 1_555 1_555
C21 C15 1_555 1_555
H15 C21 1_555 1_555
H16 C21 1_555 1_555
C22 C19 1_555 1_555
H17 C22 1_555 1_555
H18 C22 1_555 1_555
C23 C15 1_555 1_555
C24 C17 1_555 1_555
H19 C24 1_555 1_555
C25 C24 1_555 1_555
H20 C25 1_555 1_555
H21 C25 1_555 1_555
C26 C20 1_555 1_555
C27 C20 1_555 1_555
H22 C27 1_555 1_555
H23 C27 1_555 1_555
C28 C23 1_555 1_555
H24 C28 1_555 1_555
H25 C28 1_555 1_555
H26 C28 1_555 1_555
C29 C26 1_555 1_555
H27 C29 1_555 1_555
H28 C29 1_555 1_555
H29 C29 1_555 1_555
C30 C23 1_555 1_555
H30 C30 1_555 1_555
H31 C30 1_555 1_555
H32 C30 1_555 1_555
C31 C26 1_555 1_555
H33 C31 1_555 1_555
H34 C31 1_555 1_555
H35 C31 1_555 1_555
C32 C20 1_555 1_555
H36 C32 1_555 1_555
H37 C32 1_555 1_555
H38 C32 1_555 1_555
N7 N10 1_555 1_555
N8 C33 1_555 1_555
N9 C35 1_555 1_555
N10 C36 1_555 1_555
N11 N12 1_555 1_555
N12 C43 1_555 1_555
C33 N11 1_555 1_555
C34 C35 1_555 1_555
C35 N8 1_555 1_555
C36 C38 1_555 1_555
C37 H39 1_555 1_555
C38 C45 1_555 1_555
C39 C33 1_555 1_555
H40 C39 1_555 1_555
C40 N7 1_555 1_555
C41 N11 1_555 1_555
H41 C41 1_555 1_555
C42 C37 1_555 1_555
C43 C42 1_555 1_555
C44 C40 1_555 1_555
H42 C44 1_555 1_555
C45 N7 1_555 1_555
H43 C45 1_555 1_555
C46 C34 1_555 1_555
H44 C46 1_555 1_555
C47 H45 1_555 1_555
H46 C47 1_555 1_555
H47 C47 1_555 1_555
C48 C34 1_555 1_555
H48 C48 1_555 1_555
C49 C37 1_555 1_555
C50 C43 1_555 1_555
C51 C38 1_555 1_555
H49 C51 1_555 1_555
C52 C37 1_555 1_555
H50 C52 1_555 1_555
H51 C52 1_555 1_555
C53 C36 1_555 1_555
C54 C49 1_555 1_555
H52 C54 1_555 1_555
H53 C54 1_555 1_555
H54 C54 1_555 1_555
C55 C50 1_555 1_555
H55 C55 1_555 1_555
H56 C55 1_555 1_555
C56 C49 1_555 1_555
H57 C56 1_555 1_555
H58 C56 1_555 1_555
H59 C56 1_555 1_555
C57 C51 1_555 1_555
H60 C57 1_555 1_555
H61 C57 1_555 1_555
C58 C53 1_555 1_555
H62 C58 1_555 1_555
H63 C58 1_555 1_555
C59 H64 1_555 1_555
H65 C59 1_555 1_555
H66 C59 1_555 1_555
C60 C53 1_555 1_555
H67 C60 1_555 1_555
H68 C60 1_555 1_555
H69 C60 1_555 1_555
C61 C51 1_555 1_555
C62 C61 1_555 1_555
H70 C62 1_555 1_555
H71 C62 1_555 1_555
H72 C62 1_555 1_555
N2 C4 1_555 1_555
N5 C6 1_555 1_555
C5 C6 1_555 1_555
C8 C10 1_555 1_555
C9 C16 1_555 1_555
C18 C19 1_555 1_555
C19 C23 1_555 1_555
C21 C22 1_555 1_555
C24 C26 1_555 1_555
C25 C27 1_555 1_555
N9 C40 1_555 1_555
C39 C46 1_555 1_555
C41 C42 1_555 1_555
C44 C48 1_555 1_555
C47 C50 1_555 1_555
C49 C50 1_555 1_555
C52 C55 1_555 1_555
C53 C61 1_555 1_555
C57 C58 1_555 1_555
C59 C61 1_555 1_555

#END
