
#######################################################################
#
#                 Cambridge Crystallographic Data Centre
#                                CCDC 
#
#######################################################################
#
# If this CIF has been generated from an entry in the Cambridge 
# Structural Database, then it will include bibliographic, chemical, 
# crystal, experimental, refinement or atomic coordinate data resulting 
# from the CCDC's data processing and validation procedures.
#
#######################################################################

data_SITRIX
_chemical_formula_moiety         'C10 H12 O4 S1'
_chemical_name_systematic        
'Methyl (R)-2-hydroxy-4-oxo-2-(2-thienyl)pentanoate'
_symmetry_cell_setting           orthorhombic
_symmetry_space_group_name_H-M   'P 21 21 21'
_symmetry_Int_Tables_number      19
_space_group_name_Hall           'P 2ac 2ab'
loop_
_symmetry_equiv_pos_site_id
_symmetry_equiv_pos_as_xyz
1 x,y,z
2 1/2-x,-y,1/2+z
3 -x,1/2+y,1/2-z
4 1/2+x,1/2-y,-z
_cell_length_a                   7.553(1)
_cell_length_b                   10.746(2)
_cell_length_c                   13.435(2)
_cell_angle_alpha                90
_cell_angle_beta                 90
_cell_angle_gamma                90
_cell_volume                     1090.45
_cell_formula_units_Z            4
loop_
_atom_site_label
_atom_site_type_symbol
_atom_site_fract_x
_atom_site_fract_y
_atom_site_fract_z
S1 S 0.14996(8) 0.03758(5) 0.61667(4)
O1 O 0.19894(19) 0.06434(13) 0.83087(11)
H1 H 0.2478 0.0523 0.8845
O2 O 0.4245(3) 0.20116(14) 0.97118(12)
O3 O 0.56924(17) 0.23459(14) 0.74138(11)
O4 O 0.5448(2) 0.03495(14) 0.78622(13)
C1 C 0.0750(3) 0.1187(2) 0.51581(16)
H2 H 0.0301 0.0818 0.4585
C2 C 0.0886(3) 0.2419(2) 0.52907(15)
H3 H 0.0525 0.3001 0.4821
C3 C 0.1638(3) 0.27418(18) 0.62227(13)
H4 H 0.1841 0.3557 0.6426
C4 C 0.2030(2) 0.17267(17) 0.67864(13)
C5 C 0.2829(2) 0.16480(17) 0.78110(13)
C6 C 0.2582(2) 0.28664(16) 0.83822(13)
H5 H 0.3007 0.3547 0.7972
H6 H 0.1327 0.2997 0.8494
C7 C 0.3521(3) 0.29098(17) 0.93671(13)
C8 C 0.3544(4) 0.4129(2) 0.98823(17)
H7 H 0.4173 0.4052 1.0500
H8 H 0.2351 0.4392 1.0012
H9 H 0.4123 0.4734 0.9469
C9 C 0.4811(3) 0.13492(18) 0.77130(14)
C10 C 0.7591(3) 0.2232(3) 0.73099(19)
H13 H 0.8075 0.3011 0.7092
H14 H 0.7858 0.1598 0.6829
H15 H 0.8100 0.2010 0.7940
H10? H 0.2925 0.4733 0.9487
H11? H 0.4747 0.4393 0.9975
H12? H 0.2975 0.4051 1.0518
H16? H 0.7947 0.1402 0.7482
H17? H 0.8164 0.2815 0.7745
H18? H 0.7922 0.2403 0.6634
loop_
_geom_bond_atom_site_label_1
_geom_bond_atom_site_label_2
_geom_bond_site_symmetry_1
_geom_bond_site_symmetry_2
S1 C1 1_555 1_555
O1 H1 1_555 1_555
O2 C7 1_555 1_555
O3 C9 1_555 1_555
O4 C9 1_555 1_555
C1 H2 1_555 1_555
C2 C1 1_555 1_555
H3 C2 1_555 1_555
C3 C2 1_555 1_555
H4 C3 1_555 1_555
C4 S1 1_555 1_555
C5 O1 1_555 1_555
C6 C5 1_555 1_555
H5 C6 1_555 1_555
H6 C6 1_555 1_555
C7 C6 1_555 1_555
C8 C7 1_555 1_555
H7 C8 1_555 1_555
H8 C8 1_555 1_555
H9 C8 1_555 1_555
C9 C5 1_555 1_555
C10 O3 1_555 1_555
H13 C10 1_555 1_555
H14 C10 1_555 1_555
H15 C10 1_555 1_555
C3 C4 1_555 1_555
C4 C5 1_555 1_555

#END
