
#######################################################################
#
#                 Cambridge Crystallographic Data Centre
#                                CCDC 
#
#######################################################################
#
# If this CIF has been generated from an entry in the Cambridge 
# Structural Database, then it will include bibliographic, chemical, 
# crystal, experimental, refinement or atomic coordinate data resulting 
# from the CCDC's data processing and validation procedures.
#
#######################################################################

data_SITTEX
_chemical_formula_moiety         'C20 H23 N2 O3 P1'
_chemical_name_systematic        
'diethyl [3-methyl-1-(phenylamino)isoquinolin-4-yl]phosphonate'
_symmetry_cell_setting           triclinic
_symmetry_space_group_name_H-M   'P -1'
_symmetry_Int_Tables_number      2
_space_group_name_Hall           '-P 1'
loop_
_symmetry_equiv_pos_site_id
_symmetry_equiv_pos_as_xyz
1 x,y,z
2 -x,-y,-z
_cell_length_a                   9.115(3)
_cell_length_b                   9.448(2)
_cell_length_c                   11.944(3)
_cell_angle_alpha                101.46(2)
_cell_angle_beta                 91.031(6)
_cell_angle_gamma                106.620(7)
_cell_volume                     962.907
_exptl_crystal_colour            colorless
_exptl_crystal_description       block
_cell_formula_units_Z            2
loop_
_atom_site_label
_atom_site_type_symbol
_atom_site_fract_x
_atom_site_fract_y
_atom_site_fract_z
P1 P 0.55633(14) 0.78041(16) 0.30721(11)
O1 O 0.5783(4) 0.9111(4) 0.2401(4)
O2 O 0.5473(4) 0.6401(4) 0.2061(3)
N1 N -0.0528(4) 0.7484(5) 0.4836(3)
H1 H -0.1305 0.7424 0.4363
O3 O 0.6805(4) 0.8027(5) 0.3953(3)
N2 N 0.2010(5) 0.7556(5) 0.5096(3)
C1 C 0.2391(5) 0.7361(5) 0.2743(4)
C2 C 0.0833(5) 0.7446(5) 0.4391(4)
C3 C 0.3400(5) 0.7614(6) 0.4695(4)
C4 C -0.0760(5) 0.7617(6) 0.6025(4)
C5 C -0.0382(6) 0.6953(6) 0.2393(4)
H2 H -0.1359 0.6878 0.2683
C6 C -0.0421(6) 0.6626(6) 0.6640(4)
H3 H 0.0006 0.5862 0.6278
C7 C -0.1404(6) 0.8722(6) 0.6556(5)
H4 H -0.1656 0.9381 0.6131
C8 C 0.2476(6) 0.7187(6) 0.1539(4)
H5 H 0.3443 0.7270 0.1231
C9 C -0.0253(6) 0.6764(6) 0.1239(5)
H6 H -0.1137 0.6541 0.0726
C10 C 0.1205(6) 0.6904(6) 0.0817(4)
H7 H 0.1302 0.6799 0.0016
C11 C -0.1675(7) 0.8860(7) 0.7703(5)
H8 H -0.2106 0.9620 0.8067
C12 C 0.0925(5) 0.7260(5) 0.3160(4)
C13 C -0.0712(6) 0.6765(6) 0.7787(5)
H9 H -0.0495 0.6085 0.8208
C14 C 0.3687(5) 0.7585(6) 0.3556(4)
C15 C -0.1319(7) 0.7889(7) 0.8323(5)
H10 H -0.1491 0.7994 0.9113
C16 C 0.4589(7) 0.7731(9) 0.5642(5)
H11 H 0.4074 0.7517 0.6329
H12 H 0.5308 0.8754 0.5818
H13 H 0.5152 0.6997 0.5390
C17 C 0.7270(7) 0.9765(9) 0.2000(6)
H14 H 0.7848 1.0687 0.2563
H15 H 0.7872 0.9034 0.1918
C18 C 0.5201(8) 0.4923(7) 0.2341(6)
H16 H 0.4146 0.4576 0.2580
H17 H 0.5936 0.4980 0.2980
C19 C 0.7051(9) 1.0144(11) 0.0905(7)
H18 H 0.6581 0.9216 0.0329
H19 H 0.8047 1.0678 0.0670
H20 H 0.6377 1.0795 0.0973
C20 C 0.5403(10) 0.3851(9) 0.1305(8)
H21 H 0.5173 0.2835 0.1464
H22 H 0.6466 0.4173 0.1100
H23 H 0.4704 0.3837 0.0667
loop_
_geom_bond_atom_site_label_1
_geom_bond_atom_site_label_2
_geom_bond_site_symmetry_1
_geom_bond_site_symmetry_2
P1 O1 1_555 1_555
O1 C17 1_555 1_555
O2 P1 1_555 1_555
N1 H1 1_555 1_555
O3 P1 1_555 1_555
N2 C2 1_555 1_555
C1 C8 1_555 1_555
C2 N1 1_555 1_555
C3 N2 1_555 1_555
C4 N1 1_555 1_555
C5 H2 1_555 1_555
C6 C4 1_555 1_555
H3 C6 1_555 1_555
C7 C4 1_555 1_555
H4 C7 1_555 1_555
C8 H5 1_555 1_555
C9 C5 1_555 1_555
H6 C9 1_555 1_555
C10 C8 1_555 1_555
H7 C10 1_555 1_555
C11 C7 1_555 1_555
H8 C11 1_555 1_555
C12 C1 1_555 1_555
C13 C6 1_555 1_555
H9 C13 1_555 1_555
C14 P1 1_555 1_555
C15 C11 1_555 1_555
H10 C15 1_555 1_555
C16 C3 1_555 1_555
H11 C16 1_555 1_555
H12 C16 1_555 1_555
H13 C16 1_555 1_555
C17 H14 1_555 1_555
H15 C17 1_555 1_555
C18 O2 1_555 1_555
H16 C18 1_555 1_555
H17 C18 1_555 1_555
C19 C17 1_555 1_555
H18 C19 1_555 1_555
H19 C19 1_555 1_555
H20 C19 1_555 1_555
C20 C18 1_555 1_555
H21 C20 1_555 1_555
H22 C20 1_555 1_555
H23 C20 1_555 1_555
C1 C14 1_555 1_555
C2 C12 1_555 1_555
C3 C14 1_555 1_555
C5 C12 1_555 1_555
C9 C10 1_555 1_555
C13 C15 1_555 1_555

#END
