
#######################################################################
#
#                 Cambridge Crystallographic Data Centre
#                                CCDC 
#
#######################################################################
#
# If this CIF has been generated from an entry in the Cambridge 
# Structural Database, then it will include bibliographic, chemical, 
# crystal, experimental, refinement or atomic coordinate data resulting 
# from the CCDC's data processing and validation procedures.
#
#######################################################################

data_SITTIB
_chemical_formula_moiety         'C18 H20 N1 O3 P1'
_chemical_name_systematic        'diethyl (2-phenyl-1H-indol-3-yl)phosphonate'
_symmetry_cell_setting           monoclinic
_symmetry_space_group_name_H-M   'P c'
_symmetry_Int_Tables_number      7
_space_group_name_Hall           'P -2yc'
loop_
_symmetry_equiv_pos_site_id
_symmetry_equiv_pos_as_xyz
1 x,y,z
2 x,-y,1/2+z
_cell_length_a                   7.6453(19)
_cell_length_b                   11.642(3)
_cell_length_c                   9.808(3)
_cell_angle_alpha                90
_cell_angle_beta                 102.969(8)
_cell_angle_gamma                90
_cell_volume                     850.708
_exptl_crystal_colour            colorless
_exptl_crystal_description       block
_cell_formula_units_Z            2
loop_
_atom_site_label
_atom_site_type_symbol
_atom_site_fract_x
_atom_site_fract_y
_atom_site_fract_z
P1 P 0.70639(18) 0.26288(13) 0.52738(16)
O1 O 0.8272(5) 0.1974(4) 0.4592(4)
O2 O 0.7433(6) 0.2464(4) 0.6911(4)
O3 O 0.7208(6) 0.3973(3) 0.5155(5)
N1 N 0.1833(6) 0.2043(4) 0.4360(5)
H1 H 0.0759 0.2052 0.4545
C1 C 0.3348(8) 0.2481(5) 0.5210(6)
C2 C 0.2228(8) 0.1586(5) 0.3168(6)
C3 C 0.4066(8) 0.1734(5) 0.3255(6)
C4 C 0.1843(8) 0.0630(5) 0.1009(7)
H2 H 0.1105 0.0248 0.0232
C5 C 0.3212(7) 0.2997(5) 0.6544(6)
C6 C 0.2215(8) 0.2443(5) 0.7377(6)
H3 H 0.1683 0.1718 0.7098
C7 C 0.1096(9) 0.1050(5) 0.2063(6)
H4 H -0.0151 0.0972 0.2028
C8 C 0.4796(8) 0.1309(5) 0.2172(6)
H5 H 0.6037 0.1397 0.2192
C9 C 0.2751(10) 0.3984(7) 0.9021(8)
H6 H 0.2580 0.4327 0.9860
C10 C 0.4796(7) 0.2321(5) 0.4581(6)
C11 C 0.7536(10) 0.1316(5) 0.7477(7)
H7 H 0.8752 0.0999 0.7537
H8 H 0.6660 0.0815 0.6853
C12 C 0.3670(9) 0.0759(6) 0.1073(7)
H9 H 0.4155 0.0459 0.0336
C13 C 0.4004(8) 0.4046(6) 0.7005(7)
H10 H 0.4722 0.4425 0.6469
C14 C 0.1998(10) 0.2939(7) 0.8599(7)
H11 H 0.1316 0.2553 0.9159
C15 C 0.3769(10) 0.4537(6) 0.8210(8)
H12 H 0.4301 0.5260 0.8498
C16 C 0.7141(11) 0.1344(7) 0.8884(7)
H13 H 0.5927 0.1643 0.8816
H14 H 0.8011 0.1842 0.9497
H15 H 0.7224 0.0565 0.9272
C17 C 0.8861(10) 0.4586(7) 0.5700(11)
H16 H 0.9514 0.4216 0.6576
H17 H 0.9634 0.4552 0.5015
C18 C 0.8500(17) 0.5744(9) 0.597(2)
H18 H 0.8024 0.6140 0.5080
H19 H 0.9611 0.6120 0.6457
H20 H 0.7615 0.5776 0.6550
loop_
_geom_bond_atom_site_label_1
_geom_bond_atom_site_label_2
_geom_bond_site_symmetry_1
_geom_bond_site_symmetry_2
P1 O1 1_555 1_555
O2 P1 1_555 1_555
O3 P1 1_555 1_555
N1 H1 1_555 1_555
C1 N1 1_555 1_555
C2 N1 1_555 1_555
C3 C2 1_555 1_555
C4 H2 1_555 1_555
C5 C1 1_555 1_555
C6 C5 1_555 1_555
H3 C6 1_555 1_555
C7 C2 1_555 1_555
H4 C7 1_555 1_555
C8 C3 1_555 1_555
H5 C8 1_555 1_555
C9 H6 1_555 1_555
C10 P1 1_555 1_555
C11 O2 1_555 1_555
H7 C11 1_555 1_555
H8 C11 1_555 1_555
C12 C4 1_555 1_555
H9 C12 1_555 1_555
C13 C5 1_555 1_555
H10 C13 1_555 1_555
C14 C6 1_555 1_555
H11 C14 1_555 1_555
C15 C9 1_555 1_555
H12 C15 1_555 1_555
C16 C11 1_555 1_555
H13 C16 1_555 1_555
H14 C16 1_555 1_555
H15 C16 1_555 1_555
C17 O3 1_555 1_555
H16 C17 1_555 1_555
H17 C17 1_555 1_555
C18 C17 1_555 1_555
H18 C18 1_555 1_555
H19 C18 1_555 1_555
H20 C18 1_555 1_555
C1 C10 1_555 1_555
C3 C10 1_555 1_555
C4 C7 1_555 1_555
C8 C12 1_555 1_555
C9 C14 1_555 1_555
C13 C15 1_555 1_555

#END
