
#######################################################################
#
#                 Cambridge Crystallographic Data Centre
#                                CCDC 
#
#######################################################################
#
# If this CIF has been generated from an entry in the Cambridge 
# Structural Database, then it will include bibliographic, chemical, 
# crystal, experimental, refinement or atomic coordinate data resulting 
# from the CCDC's data processing and validation procedures.
#
#######################################################################

data_SITVAT
_chemical_formula_moiety         'C42 H57 N5 O6 2+,2(Br1 1-),4(H2 O1)'
_chemical_name_systematic        
'Methyl 4-(1,27-dimethyl-6,24-dioxo-5,25-dioxa-8,11,19,22,40-penta-azaoctacyclo(24.9.2.1^4,35^1^8,11^1^13,17^1^19,22^0^27,31^0^32,36^)-hentetraconta-9,13(40),14,16,20-pentaen-28-yl)pentanoate dibromide tetrahydrate'
_symmetry_cell_setting           orthorhombic
_symmetry_space_group_name_H-M   'P 21 21 21'
_symmetry_Int_Tables_number      19
_space_group_name_Hall           'P 2ac 2ab'
loop_
_symmetry_equiv_pos_site_id
_symmetry_equiv_pos_as_xyz
1 x,y,z
2 1/2-x,-y,1/2+z
3 -x,1/2+y,1/2-z
4 1/2+x,1/2-y,-z
_cell_length_a                   9.133(15)
_cell_length_b                   17.51(3)
_cell_length_c                   27.99(5)
_cell_angle_alpha                90
_cell_angle_beta                 90
_cell_angle_gamma                90
_cell_volume                     4476.13
_exptl_crystal_colour            white
_exptl_crystal_description       needle
_cell_formula_units_Z            4
_exptl_crystal_recrystallization_method acetonitrile
loop_
_atom_site_label
_atom_site_type_symbol
_atom_site_fract_x
_atom_site_fract_y
_atom_site_fract_z
Br1 Br 0.5627(3) 0.53775(14) 0.13260(7)
Br2 Br 0.7415(4) 0.8381(2) 0.12277(8)
C1 C 0.539(2) 0.5480(10) 0.3175(5)
H1 H 0.5036 0.4960 0.3207
H2 H 0.6451 0.5465 0.3167
C2 C 0.480(2) 0.5831(11) 0.2691(5)
H3 H 0.5244 0.6328 0.2644
H4 H 0.5099 0.5506 0.2429
C3 C 0.316(2) 0.5918(11) 0.2679(6)
H5 H 0.2690 0.5416 0.2702
C4 C 0.263(2) 0.6440(10) 0.3095(5)
H6 H 0.1565 0.6451 0.3103
H7 H 0.2975 0.6958 0.3046
C5 C 0.324(2) 0.6119(11) 0.3582(5)
H8 H 0.2783 0.5615 0.3615
C6 C 0.264(3) 0.6568(13) 0.3987(6)
H9 H 0.1605 0.6656 0.3936
H10 H 0.2749 0.6277 0.4280
C7 C 0.487(2) 0.5964(11) 0.3620(6)
C8 C 0.556(2) 0.6745(10) 0.3653(5)
H11 H 0.5278 0.7021 0.3363
C9 C 0.503(2) 0.7215(11) 0.4069(5)
H12 H 0.5227 0.6915 0.4357
C10 C 0.338(2) 0.7295(12) 0.4038(6)
H13 H 0.3030 0.7548 0.4324
H14 H 0.3141 0.7617 0.3767
C11 C 0.724(2) 0.6700(9) 0.3648(5)
H15 H 0.7544 0.6364 0.3904
H16 H 0.7537 0.6466 0.3349
C12 C 0.595(3) 0.7947(11) 0.4110(5)
H17 H 0.5769 0.8218 0.3809
C13 C 0.802(2) 0.7439(9) 0.3700(5)
H18 H 0.9079 0.7345 0.3722
C14 C 0.751(3) 0.7898(11) 0.4139(5)
C15 C 0.792(3) 0.8744(11) 0.4194(6)
H19 H 0.7752 0.8991 0.3885
C16 C 0.677(2) 0.9052(11) 0.4544(6)
H20 H 0.6490 0.9570 0.4460
H21 H 0.7140 0.9049 0.4869
C17 C 0.543(3) 0.8496(11) 0.4494(5)
H22 H 0.5234 0.8232 0.4791
H23 H 0.4556 0.8767 0.4394
C18 C 0.797(3) 0.7431(12) 0.4599(5)
H24 H 0.7731 0.7720 0.4880
H25 H 0.9010 0.7339 0.4592
H26 H 0.7462 0.6953 0.4605
C19 C 0.525(2) 0.5424(13) 0.4038(6)
H27 H 0.6122 0.5598 0.4193
H28 H 0.5393 0.4916 0.3918
H29 H 0.4452 0.5423 0.4264
C20 C 0.949(4) 0.8952(11) 0.4352(7)
H30 H 0.9762 0.8648 0.4632
C21 C 1.050(3) 0.8768(15) 0.3944(9)
H31 H 1.0375 0.8244 0.3853
H32 H 1.1495 0.8852 0.4042
H33 H 1.0276 0.9093 0.3678
C22 C 0.969(3) 0.9824(12) 0.4465(6)
H34 H 0.9488 1.0109 0.4175
H35 H 0.8951 0.9969 0.4697
C23 C 1.116(3) 1.0073(15) 0.4652(7)
H36 H 1.1464 0.9721 0.4901
H37 H 1.1872 1.0037 0.4395
C24 C 1.120(4) 1.085(2) 0.4846(10)
C25 C 0.989(3) 1.211(2) 0.4855(10)
H38 H 0.9658 1.2107 0.5190
H39 H 0.9149 1.2392 0.4685
H40 H 1.0822 1.2355 0.4808
C26 C 0.874(3) 0.7964(13) 0.2927(6)
C27 C 0.810(2) 0.8479(13) 0.2555(5)
H41 H 0.8409 0.9000 0.2618
H42 H 0.8477 0.8334 0.2244
C28 C 0.555(2) 0.8864(11) 0.2784(5)
H43 H 0.5786 0.9283 0.2973
C29 C 0.563(2) 0.7900(10) 0.2299(5)
H44 H 0.5990 0.7545 0.2081
C30 C 0.435(3) 0.7970(11) 0.2425(6)
H45 H 0.3606 0.7638 0.2330
C31 C 0.294(2) 0.8910(11) 0.2889(5)
H46 H 0.3231 0.9271 0.3133
H47 H 0.2325 0.8526 0.3040
C32 C 0.204(2) 0.9328(12) 0.2511(6)
C33 C 0.143(3) 0.9999(14) 0.2587(6)
H48 H 0.1483 1.0218 0.2889
C34 C 0.071(3) 1.0379(13) 0.2232(7)
H49 H 0.0306 1.0862 0.2278
C35 C 0.062(3) 1.0020(14) 0.1818(8)
H50 H 0.0125 1.0246 0.1565
C36 C 0.125(3) 0.9330(11) 0.1756(6)
C37 C 0.134(2) 0.8959(10) 0.1253(6)
H51 H 0.0355 0.8904 0.1125
H52 H 0.1880 0.9293 0.1040
C38 C 0.345(2) 0.8017(19) 0.1207(6)
H53 H 0.4212 0.8352 0.1139
C39 C 0.357(3) 0.7265(15) 0.1259(7)
H54 H 0.4404 0.6971 0.1215
C40 C 0.124(3) 0.7586(14) 0.1380(7)
H55 H 0.0232 0.7568 0.1435
C41 C 0.176(3) 0.6197(11) 0.1432(6)
H56 H 0.2168 0.5919 0.1163
H57 H 0.0704 0.6155 0.1416
C42 C 0.232(3) 0.5821(13) 0.1913(6)
N1 N 0.6471(17) 0.8452(9) 0.2542(4)
N2 N 0.412(2) 0.8574(9) 0.2712(5)
N3 N 0.1967(19) 0.8975(9) 0.2094(5)
N4 N 0.205(2) 0.8208(9) 0.1268(5)
N5 N 0.218(2) 0.7007(11) 0.1394(4)
O1 O 0.7720(15) 0.7916(7) 0.3283(3)
O2 O 0.9888(19) 0.7708(10) 0.2922(5)
O3 O 0.2755(14) 0.6280(7) 0.2244(4)
O4 O 0.2098(16) 0.5149(9) 0.1957(4)
O5 O 0.995(3) 1.1300(12) 0.4669(6)
O6 O 1.194(4) 1.1086(15) 0.5144(7)
O7 O 0.060(3) 0.0424(15) 0.0565(7)
O8 O 0.495(4) 0.102(2) 0.4760(9)
O9 O 0.8139(19) 0.6680(14) 0.1595(7)
O10 O 0.831(4) 0.9583(18) 0.0399(9)
loop_
_geom_bond_atom_site_label_1
_geom_bond_atom_site_label_2
_geom_bond_site_symmetry_1
_geom_bond_site_symmetry_2
C1 H1 1_555 1_555
H2 C1 1_555 1_555
C2 C1 1_555 1_555
H3 C2 1_555 1_555
H4 C2 1_555 1_555
C3 C2 1_555 1_555
H5 C3 1_555 1_555
C4 C3 1_555 1_555
H6 C4 1_555 1_555
H7 C4 1_555 1_555
C5 C4 1_555 1_555
H8 C5 1_555 1_555
C6 C5 1_555 1_555
H9 C6 1_555 1_555
H10 C6 1_555 1_555
C7 C1 1_555 1_555
C8 C7 1_555 1_555
H11 C8 1_555 1_555
C9 C8 1_555 1_555
H12 C9 1_555 1_555
C10 C6 1_555 1_555
H13 C10 1_555 1_555
H14 C10 1_555 1_555
C11 C8 1_555 1_555
H15 C11 1_555 1_555
H16 C11 1_555 1_555
C12 C9 1_555 1_555
H17 C12 1_555 1_555
C13 C11 1_555 1_555
H18 C13 1_555 1_555
C14 C12 1_555 1_555
C15 C14 1_555 1_555
H19 C15 1_555 1_555
C16 C15 1_555 1_555
H20 C16 1_555 1_555
H21 C16 1_555 1_555
C17 C12 1_555 1_555
H22 C17 1_555 1_555
H23 C17 1_555 1_555
C18 C14 1_555 1_555
H24 C18 1_555 1_555
H25 C18 1_555 1_555
H26 C18 1_555 1_555
C19 C7 1_555 1_555
H27 C19 1_555 1_555
H28 C19 1_555 1_555
H29 C19 1_555 1_555
C20 C15 1_555 1_555
H30 C20 1_555 1_555
C21 C20 1_555 1_555
H31 C21 1_555 1_555
H32 C21 1_555 1_555
H33 C21 1_555 1_555
C22 C20 1_555 1_555
H34 C22 1_555 1_555
H35 C22 1_555 1_555
C23 C22 1_555 1_555
H36 C23 1_555 1_555
H37 C23 1_555 1_555
C24 C23 1_555 1_555
C25 H38 1_555 1_555
H39 C25 1_555 1_555
H40 C25 1_555 1_555
C26 C27 1_555 1_555
C27 H41 1_555 1_555
H42 C27 1_555 1_555
C28 H43 1_555 1_555
C29 H44 1_555 1_555
C30 C29 1_555 1_555
H45 C30 1_555 1_555
C31 H46 1_555 1_555
H47 C31 1_555 1_555
C32 C31 1_555 1_555
C33 C32 1_555 1_555
H48 C33 1_555 1_555
C34 C33 1_555 1_555
H49 C34 1_555 1_555
C35 C34 1_555 1_555
H50 C35 1_555 1_555
C36 C35 1_555 1_555
C37 C36 1_555 1_555
H51 C37 1_555 1_555
H52 C37 1_555 1_555
C38 H53 1_555 1_555
C39 C38 1_555 1_555
H54 C39 1_555 1_555
C40 H55 1_555 1_555
C41 H56 1_555 1_555
H57 C41 1_555 1_555
C42 C41 1_555 1_555
N1 C27 1_555 1_555
N2 C28 1_555 1_555
N3 C32 1_555 1_555
N4 C37 1_555 1_555
N5 C39 1_555 1_555
O1 C13 1_555 1_555
O2 C26 1_555 1_555
O3 C3 1_555 1_555
O4 C42 1_555 1_555
O5 C24 1_555 1_555
O6 C24 1_555 1_555
C5 C7 1_555 1_555
C9 C10 1_555 1_555
C13 C14 1_555 1_555
C16 C17 1_555 1_555
C25 O5 1_555 1_555
C26 O1 1_555 1_555
C28 N1 1_555 1_555
C29 N1 1_555 1_555
C30 N2 1_555 1_555
C31 N2 1_555 1_555
C36 N3 1_555 1_555
C38 N4 1_555 1_555
C40 N4 1_555 1_555
C40 N5 1_555 1_555
C41 N5 1_555 1_555
C42 O3 1_555 1_555

#END
