
#######################################################################
#
#                 Cambridge Crystallographic Data Centre
#                                CCDC 
#
#######################################################################
#
# If this CIF has been generated from an entry in the Cambridge 
# Structural Database, then it will include bibliographic, chemical, 
# crystal, experimental, refinement or atomic coordinate data resulting 
# from the CCDC's data processing and validation procedures.
#
#######################################################################

data_SITZOK
_chemical_formula_moiety         'C22 H16 F2 O7'
_chemical_name_systematic        
'4,7-Diacetoxy-12,15-difluorohexacyclo(8.6.0.0^2,15^.0^3,8^.0^9,12^.0^11,16^)hexadeca-3,5,7-triene-13,14-dicarboxylic anhydride'
_symmetry_cell_setting           orthorhombic
_symmetry_space_group_name_H-M   'P c a b'
_symmetry_Int_Tables_number      61
_space_group_name_Hall           '-P 2bc 2ac'
loop_
_symmetry_equiv_pos_site_id
_symmetry_equiv_pos_as_xyz
1 x,y,z
2 1/2-x,y,1/2+z
3 1/2+x,1/2-y,z
4 -x,1/2-y,1/2+z
5 -x,-y,-z
6 1/2+x,-y,1/2-z
7 1/2-x,1/2+y,-z
8 x,1/2+y,1/2-z
_cell_length_a                   14.364(1)
_cell_length_b                   29.662(3)
_cell_length_c                   8.7612(6)
_cell_angle_alpha                90
_cell_angle_beta                 90
_cell_angle_gamma                90
_cell_volume                     3732.84
_exptl_crystal_colour            colorless
_chemical_melting_point          511-514K
_cell_formula_units_Z            8
loop_
_atom_site_label
_atom_site_type_symbol
_atom_site_fract_x
_atom_site_fract_y
_atom_site_fract_z
C1 C 0.4352(1) 0.12153(6) -0.1960(2)
C2 C 0.4523(1) 0.16246(6) -0.0893(2)
C3 C 0.4046(1) 0.16183(6) 0.0624(2)
C4 C 0.3695(1) 0.20114(6) 0.1284(2)
C5 C 0.3189(1) 0.20023(7) 0.2624(2)
C6 C 0.3040(1) 0.15906(8) 0.3341(2)
C7 C 0.3396(1) 0.12035(6) 0.2710(2)
C8 C 0.3897(1) 0.12052(6) 0.1353(2)
C9 C 0.4268(1) 0.07861(6) 0.0632(2)
C10 C 0.4239(1) 0.07590(6) -0.1146(2)
C11 C 0.5308(1) 0.06836(6) -0.1209(2)
C12 C 0.5349(1) 0.07104(6) 0.0551(2)
C13 C 0.5992(1) 0.10516(6) 0.1340(2)
C14 C 0.6213(1) 0.14674(6) 0.0351(2)
C15 C 0.5595(1) 0.15415(6) -0.1033(2)
C16 C 0.5419(1) 0.11379(6) -0.2072(2)
O1 O 0.38019(8) 0.24240(4) 0.0537(1)
C17 C 0.4668(1) 0.26184(7) 0.0576(2)
O2 O 0.53055(9) 0.24457(5) 0.1231(2)
C18 C 0.4684(1) 0.30459(7) -0.0289(2)
O3 O 0.31818(9) 0.07900(5) 0.3422(2)
C19 C 0.3860(2) 0.05958(7) 0.4286(2)
C20 C 0.3525(2) 0.0165(1) 0.4960(3)
O4 O 0.4611(1) 0.07606(6) 0.4436(2)
C21 C 0.6942(1) 0.08475(7) 0.1630(2)
O5 O 0.7178(1) 0.05679(6) 0.2511(2)
O6 O 0.75903(9) 0.10421(5) 0.0677(2)
C22 C 0.7201(1) 0.13881(7) -0.0157(2)
O7 O 0.7648(1) 0.15655(6) -0.1131(2)
F1 F 0.55450(8) 0.02857(3) 0.1161(1)
F2 F 0.59748(7) 0.19056(3) -0.1839(1)
H1 H 0.395(1) 0.1259(6) -0.281(2)
H2 H 0.441(1) 0.1896(6) -0.133(2)
H3 H 0.294(1) 0.2269(7) 0.298(2)
H4 H 0.270(1) 0.1578(7) 0.433(2)
H5 H 0.399(1) 0.0529(6) 0.110(2)
H6 H 0.381(1) 0.0567(7) -0.159(2)
H7 H 0.561(1) 0.0427(2) -0.162(2)
H8 H 0.573(1) 0.1123(6) 0.238(2)
H9 H 0.625(1) 0.1733(7) 0.092(2)
H10 H 0.578(1) 0.1133(7) -0.300(2)
H11 H 0.414(1) 0.3212(7) -0.008(2)
H12 H 0.524(2) 0.324(1) 0.005(3)
H13 H 0.466(1) 0.2994(9) -0.131(3)
H14 H 0.390(2) 0.0063(8) 0.543(3)
H15 H 0.313(2) 0.028(1) 0.565(4)
H16 H 0.322(2) 0.001(1) 0.425(4)
loop_
_geom_bond_atom_site_label_1
_geom_bond_atom_site_label_2
_geom_bond_site_symmetry_1
_geom_bond_site_symmetry_2
C1 C2 1_555 1_555
C2 C3 1_555 1_555
C3 C4 1_555 1_555
C4 C5 1_555 1_555
C5 C6 1_555 1_555
C6 C7 1_555 1_555
C7 C8 1_555 1_555
C8 C3 1_555 1_555
C9 C8 1_555 1_555
C10 C1 1_555 1_555
C11 C10 1_555 1_555
C12 C9 1_555 1_555
C13 C12 1_555 1_555
C14 C13 1_555 1_555
C15 C2 1_555 1_555
C16 C1 1_555 1_555
O1 C4 1_555 1_555
C17 O1 1_555 1_555
O2 C17 1_555 1_555
C18 C17 1_555 1_555
O3 C7 1_555 1_555
C19 O3 1_555 1_555
C20 C19 1_555 1_555
O4 C19 1_555 1_555
C21 C13 1_555 1_555
O5 C21 1_555 1_555
O6 C21 1_555 1_555
C22 C14 1_555 1_555
O7 C22 1_555 1_555
F1 C12 1_555 1_555
F2 C15 1_555 1_555
H1 C1 1_555 1_555
H2 C2 1_555 1_555
H3 C5 1_555 1_555
H4 C6 1_555 1_555
H5 C9 1_555 1_555
H6 C10 1_555 1_555
H7 C11 1_555 1_555
H8 C13 1_555 1_555
H9 C14 1_555 1_555
H10 C16 1_555 1_555
H11 C18 1_555 1_555
H12 C18 1_555 1_555
H13 C18 1_555 1_555
H14 C20 1_555 1_555
H15 C20 1_555 1_555
H16 C20 1_555 1_555
C9 C10 1_555 1_555
C11 C12 1_555 1_555
C11 C16 1_555 1_555
C14 C15 1_555 1_555
C15 C16 1_555 1_555
O6 C22 1_555 1_555

#END
