
#######################################################################
#
#                 Cambridge Crystallographic Data Centre
#                                CCDC 
#
#######################################################################
#
# If this CIF has been generated from an entry in the Cambridge 
# Structural Database, then it will include bibliographic, chemical, 
# crystal, experimental, refinement or atomic coordinate data resulting 
# from the CCDC's data processing and validation procedures.
#
#######################################################################

data_SIVBEE01
_chemical_formula_moiety         'C11 H7 Br1 O3'
_chemical_name_systematic        3-(Bromoacetyl)coumarin
_symmetry_cell_setting           monoclinic
_symmetry_space_group_name_H-M   'P 21/c'
_symmetry_Int_Tables_number      14
_space_group_name_Hall           '-P 2ybc'
loop_
_symmetry_equiv_pos_site_id
_symmetry_equiv_pos_as_xyz
1 x,y,z
2 -x,1/2+y,1/2-z
3 -x,-y,-z
4 x,1/2-y,1/2+z
_cell_length_a                   5.29320(10)
_cell_length_b                   18.4568(5)
_cell_length_c                   9.7473(3)
_cell_angle_alpha                90
_cell_angle_beta                 98.7680(10)
_cell_angle_gamma                90
_cell_volume                     941.139
_exptl_crystal_colour            colorless
_exptl_crystal_description       plate
_cell_formula_units_Z            4
_exptl_crystal_recrystallization_method acetonitrile
loop_
_atom_site_label
_atom_site_type_symbol
_atom_site_fract_x
_atom_site_fract_y
_atom_site_fract_z
Br1 Br 1.01135(3) 0.757563(8) 0.371259(15)
O1 O 0.3366(2) 0.59926(6) 0.76010(11)
O2 O 0.4139(2) 0.70306(6) 0.66504(12)
O3 O 0.9830(2) 0.60442(6) 0.46858(12)
C1 C 0.3813(3) 0.52704(8) 0.78488(14)
C2 C 0.2347(3) 0.49236(8) 0.87179(15)
H1 H 0.1061 0.5180 0.9099
C3 C 0.2795(3) 0.41990(9) 0.90167(16)
H2 H 0.1803 0.3956 0.9608
C4 C 0.4698(3) 0.38162(9) 0.84573(17)
H3 H 0.5004 0.3320 0.8680
C5 C 0.6117(3) 0.41663(8) 0.75828(16)
H4 H 0.7394 0.3908 0.7196
C6 C 0.5684(3) 0.49013(8) 0.72614(14)
C7 C 0.7075(3) 0.53040(8) 0.63710(15)
H5 H 0.8342 0.5064 0.5946
C8 C 0.6642(3) 0.60189(8) 0.61151(14)
C9 C 0.4701(3) 0.64004(8) 0.67601(15)
C10 C 0.8224(3) 0.63904(8) 0.51699(14)
C11 C 0.7784(3) 0.71852(8) 0.48718(15)
H6 H 0.7992 0.7455 0.5760
H7 H 0.6006 0.7257 0.4405
loop_
_geom_bond_atom_site_label_1
_geom_bond_atom_site_label_2
_geom_bond_site_symmetry_1
_geom_bond_site_symmetry_2
Br1 C11 1_555 1_555
O1 C1 1_555 1_555
O2 C9 1_555 1_555
O3 C10 1_555 1_555
C1 C2 1_555 1_555
C2 H1 1_555 1_555
C3 C2 1_555 1_555
H2 C3 1_555 1_555
C4 C3 1_555 1_555
H3 C4 1_555 1_555
C5 C4 1_555 1_555
H4 C5 1_555 1_555
C6 C1 1_555 1_555
C7 C6 1_555 1_555
H5 C7 1_555 1_555
C8 C7 1_555 1_555
C9 O1 1_555 1_555
C10 C8 1_555 1_555
C11 C10 1_555 1_555
H6 C11 1_555 1_555
H7 C11 1_555 1_555
C5 C6 1_555 1_555
C8 C9 1_555 1_555

#END
