
#######################################################################
#
#                 Cambridge Crystallographic Data Centre
#                                CCDC 
#
#######################################################################
#
# If this CIF has been generated from an entry in the Cambridge 
# Structural Database, then it will include bibliographic, chemical, 
# crystal, experimental, refinement or atomic coordinate data resulting 
# from the CCDC's data processing and validation procedures.
#
#######################################################################

data_SIVFEI
_chemical_formula_moiety         'C17 H16 N4 O1'
_chemical_name_systematic        
5-Amino-1-diphenylmethylimidazole-4-carboxamide
_symmetry_cell_setting           monoclinic
_symmetry_space_group_name_H-M   'P 21/a'
_symmetry_Int_Tables_number      14
_space_group_name_Hall           '-P 2yab'
loop_
_symmetry_equiv_pos_site_id
_symmetry_equiv_pos_as_xyz
1 x,y,z
2 1/2-x,1/2+y,-z
3 -x,-y,-z
4 1/2+x,1/2-y,z
_cell_length_a                   12.325(1)
_cell_length_b                   22.303(2)
_cell_length_c                   11.3682(9)
_cell_angle_alpha                90
_cell_angle_beta                 100.015(7)
_cell_angle_gamma                90
_cell_volume                     3077.32
_exptl_crystal_colour            colorless
_chemical_melting_point          480-481K
_cell_formula_units_Z            8
loop_
_atom_site_label
_atom_site_type_symbol
_atom_site_fract_x
_atom_site_fract_y
_atom_site_fract_z
O1 O 0.0495(1) 0.1558(1) 0.7933(1)
N1 N 0.0566(1) 0.2768(1) 1.0770(1)
N2 N 0.2126(1) 0.2465(1) 1.0235(1)
N3 N -0.0800(1) 0.2284(1) 0.9307(1)
N4 N 0.2342(1) 0.1704(1) 0.8258(2)
C1 C 0.1694(1) 0.2786(1) 1.0979(2)
C2 C 0.1234(1) 0.2203(1) 0.9488(2)
C3 C 0.0273(1) 0.2389(1) 0.9815(1)
C4 C 0.1329(1) 0.1806(1) 0.8504(2)
C5 C -0.0181(1) 0.3057(1) 1.1471(2)
C6 C -0.0499(2) 0.2648(1) 1.2424(2)
C7 C -0.1294(2) 0.2846(1) 1.3061(2)
C8 C -0.1632(2) 0.2494(2) 1.3923(2)
C9 C -0.1185(2) 0.1936(2) 1.4151(2)
C10 C -0.0397(3) 0.1729(1) 1.3546(2)
C11 C -0.0046(2) 0.2088(1) 1.2668(2)
C12 C 0.0322(1) 0.3650(1) 1.1952(2)
C13 C 0.0922(2) 0.3703(1) 1.3097(2)
C14 C 0.1434(2) 0.4240(1) 1.3480(2)
C15 C 0.1330(2) 0.4725(1) 1.2727(3)
C16 C 0.0738(3) 0.4680(1) 1.1604(3)
C17 C 0.0224(2) 0.4143(1) 1.1205(2)
H1 H 0.2062 0.3004 1.1604
H2 H -0.0888 0.3147 1.0917
H3 H -0.1682 0.3192 1.2864
H4 H -0.2097 0.2638 1.4538
H5 H -0.1456 0.1656 1.4747
H6 H 0.0106 0.1385 1.3657
H7 H 0.0515 0.1961 1.2150
H8 H 0.0981 0.3399 1.3640
H9 H 0.1838 0.4264 1.4308
H10 H 0.1685 0.5062 1.3033
H11 H 0.0663 0.5018 1.1048
H12 H -0.0176 0.4107 1.0441
H13 H -0.1415 0.2299 0.9697
H14 H -0.0851 0.2000 0.8797
H15 H 0.2909 0.1919 0.8598
H16 H 0.2401 0.1490 0.7539
O2 O 0.2601(1) 0.1130(1) 0.5989(1)
N5 N 0.2439(1) -0.0097(1) 0.3134(2)
N6 N 0.0978(1) 0.0088(1) 0.3969(2)
N7 N 0.3835(1) 0.0508(1) 0.4322(2)
N8 N 0.0862(1) 0.0801(1) 0.5972(2)
C18 C 0.1347(2) -0.0201(1) 0.3142(2)
C19 C 0.1868(2) 0.0414(1) 0.4559(2)
C20 C 0.2781(1) 0.0298(1) 0.4040(2)
C21 C 0.1803(2) 0.0809(1) 0.5553(2)
C22 C 0.3118(2) -0.0394(1) 0.2349(2)
C23 C 0.2485(2) -0.0380(1) 0.1073(2)
C24 C 0.2286(2) -0.0885(1) 0.0372(2)
C25 C 0.1686(2) -0.0860(1) -0.0772(2)
C26 C 0.1296(2) -0.0322(1) -0.1248(2)
C27 C 0.1496(3) 0.0188(1) -0.0579(3)
C28 C 0.20963(3) 0.0163(1) 0.0564(3)
C29 C 0.3488(2) -0.1009(1) 0.2815(2)
C30 C 0.2739(2) -0.1432(1) 0.3105(2)
C31 C 0.3096(2) -0.2000(1) 0.3512(2)
C32 C 0.4210(3) -0.2144(1) 0.3645(2)
C33 C 0.4927(3) -0.1735(1) 0.3359(3)
C34 C 0.4576(2) -0.1175(1) 0.2953(2)
H17 H 0.0947 -0.0460 0.2513
H18 H 0.3811 -0.0136 0.2389
H19 H 0.2154 0.0481 0.1099
H20 H 0.1259 0.0616 -0.0908
H21 H 0.0885 -0.0313 -0.2076
H22 H 0.1608 -0.1241 -0.1285
H23 H 0.2550 -0.1218 0.0687
H24 H 0.1909 -0.1321 0.3008
H25 H 0.2509 -0.2304 0.3629
H26 H 0.4326 -0.2594 0.3943
H27 H 0.5810 -0.1826 0.3400
H28 H 0.5051 -0.0845 0.2726
H29 H 0.4286 0.0389 0.3995
H30 H 0.3876 0.0782 0.4842
H31 H 0.0388 0.0543 0.5687
H32 H 0.0792 0.1033 0.6560
loop_
_geom_bond_atom_site_label_1
_geom_bond_atom_site_label_2
_geom_bond_site_symmetry_1
_geom_bond_site_symmetry_2
O1 C4 1_555 1_555
N1 C1 1_555 1_555
N2 C1 1_555 1_555
N3 C3 1_555 1_555
N4 C4 1_555 1_555
C1 H1 1_555 1_555
C2 N2 1_555 1_555
C3 N1 1_555 1_555
C4 C2 1_555 1_555
C5 N1 1_555 1_555
C6 C5 1_555 1_555
C7 C6 1_555 1_555
C8 C7 1_555 1_555
C9 C8 1_555 1_555
C10 C9 1_555 1_555
C11 C6 1_555 1_555
C12 C5 1_555 1_555
C13 C12 1_555 1_555
C14 C13 1_555 1_555
C15 C14 1_555 1_555
C16 C15 1_555 1_555
C17 C12 1_555 1_555
O2 C21 1_555 1_555
N5 C18 1_555 1_555
N6 C18 1_555 1_555
N7 C20 1_555 1_555
N8 C21 1_555 1_555
C18 H17 1_555 1_555
C19 N6 1_555 1_555
C20 N5 1_555 1_555
C21 C19 1_555 1_555
C22 N5 1_555 1_555
C23 C22 1_555 1_555
C24 C23 1_555 1_555
C25 C24 1_555 1_555
C26 C25 1_555 1_555
C27 C26 1_555 1_555
C28 C23 1_555 1_555
C29 C22 1_555 1_555
C30 C29 1_555 1_555
C31 C30 1_555 1_555
C32 C31 1_555 1_555
C33 C32 1_555 1_555
C34 C29 1_555 1_555
H2 C5 1_555 1_555
H3 C7 1_555 1_555
H4 C8 1_555 1_555
H5 C9 1_555 1_555
H6 C10 1_555 1_555
H7 C11 1_555 1_555
H8 C13 1_555 1_555
H9 C14 1_555 1_555
H10 C15 1_555 1_555
H11 C16 1_555 1_555
H12 C17 1_555 1_555
H13 N3 1_555 1_555
H14 N3 1_555 1_555
H15 N4 1_555 1_555
H16 N4 1_555 1_555
H18 C22 1_555 1_555
H19 C28 1_555 1_555
H20 C27 1_555 1_555
H21 C26 1_555 1_555
H22 C25 1_555 1_555
H23 C24 1_555 1_555
H24 C30 1_555 1_555
H25 C31 1_555 1_555
H26 C32 1_555 1_555
H27 C33 1_555 1_555
H28 C34 1_555 1_555
H29 N7 1_555 1_555
H30 N7 1_555 1_555
H31 N8 1_555 1_555
H32 N8 1_555 1_555
C2 C3 1_555 1_555
C10 C11 1_555 1_555
C16 C17 1_555 1_555
C19 C20 1_555 1_555
C27 C28 1_555 1_555
C33 C34 1_555 1_555

#END
