
#######################################################################
#
#                 Cambridge Crystallographic Data Centre
#                                CCDC 
#
#######################################################################
#
# If this CIF has been generated from an entry in the Cambridge 
# Structural Database, then it will include bibliographic, chemical, 
# crystal, experimental, refinement or atomic coordinate data resulting 
# from the CCDC's data processing and validation procedures.
#
#######################################################################

data_SIVGUA
_chemical_compound_source        'Lamiophlomis rotata (Benth.) Kudo'
_chemical_name_common            '8-Deoxyshanzhiside trihydrate'
_chemical_formula_moiety         'C16 H24 O10,3(H2 O1)'
_chemical_name_systematic        
'5-Hydroxy-7-methyl-1-((3,4,5-trihydroxy-6-(hydroxymethyl)tetrahydro-2H-pyran-2-yl)oxy)-1,4a,5,6,7,7a-hexahydrocyclopenta[c]pyran-4-carboxylic acid trihydrate'
_symmetry_cell_setting           orthorhombic
_symmetry_space_group_name_H-M   'P 21 21 21'
_symmetry_Int_Tables_number      19
_space_group_name_Hall           'P 2ac 2ab'
loop_
_symmetry_equiv_pos_site_id
_symmetry_equiv_pos_as_xyz
1 x,y,z
2 1/2-x,-y,1/2+z
3 -x,1/2+y,1/2-z
4 1/2+x,1/2-y,-z
_cell_length_a                   7.6883(5)
_cell_length_b                   12.7944(8)
_cell_length_c                   21.3759(14)
_cell_angle_alpha                90
_cell_angle_beta                 90
_cell_angle_gamma                90
_cell_volume                     2102.69
_chemical_melting_point          '213-214 deg.C'
_cell_formula_units_Z            4
_exptl_crystal_recrystallization_method 'methanol/ethyl acetate'
loop_
_atom_site_label
_atom_site_type_symbol
_atom_site_fract_x
_atom_site_fract_y
_atom_site_fract_z
C1 C 0.3485(6) 0.6249(3) 0.9280(2)
H1 H 0.4733 0.6241 0.9187
C2 C 0.3250(6) 0.7248(3) 1.0214(2)
H2 H 0.3325 0.7276 1.0648
C3 C 0.3170(6) 0.8156(3) 0.9909(2)
C4 C 0.2941(5) 0.8209(3) 0.9220(2)
H3 H 0.1898 0.8630 0.9143
C5 C 0.4454(6) 0.8722(3) 0.8834(2)
H4 H 0.5445 0.8872 0.9108
C6 C 0.4957(7) 0.7917(4) 0.8353(2)
H5 H 0.5901 0.7483 0.8505
H6 H 0.5321 0.8250 0.7967
C7 C 0.3311(7) 0.7261(3) 0.8248(2)
H7 H 0.2478 0.7697 0.8018
C8 C 0.2613(5) 0.7128(3) 0.8919(2)
H8 H 0.1358 0.6998 0.8902
C9 C 0.3601(10) 0.6268(4) 0.7865(2)
H9 H 0.3786 0.6449 0.7435
H10 H 0.2597 0.5825 0.7899
H11 H 0.4603 0.5905 0.8022
C10 C 0.3191(5) 0.9134(3) 1.0276(2)
C11 C 0.3634(5) 0.4390(3) 0.9266(2)
H12 H 0.4105 0.4458 0.9690
C12 C 0.2346(5) 0.3497(3) 0.9229(2)
H13 H 0.1804 0.3492 0.8814
C13 C 0.3251(6) 0.2475(3) 0.9337(2)
H14 H 0.3651 0.2445 0.9772
C14 C 0.4837(6) 0.2381(3) 0.8899(2)
H15 H 0.4396 0.2351 0.8469
C15 C 0.6007(6) 0.3346(3) 0.8947(2)
H16 H 0.6517 0.3390 0.9367
C16 C 0.7425(7) 0.3302(4) 0.8462(3)
H17 H 0.8085 0.2661 0.8513
H18 H 0.6910 0.3296 0.8048
O1 O 0.3230(5) 0.6297(2) 0.99483(14)
O2 O 0.3225(5) 0.9016(2) 1.08869(15)
H19 H 0.3295 0.9590 1.1055
O3 O 0.3205(6) 1.0000(2) 1.00273(17)
O4 O 0.3884(6) 0.9656(3) 0.85371(18)
H20 H 0.3128 0.9515 0.8280
O5 O 0.2729(4) 0.5302(2) 0.90894(14)
O6 O 0.1034(5) 0.3620(3) 0.96940(17)
H21 H 0.0224 0.3960 0.9549
O7 O 0.2055(5) 0.1659(2) 0.9233(2)
H22 H 0.2328 0.1151 0.9445
O8 O 0.5768(5) 0.1438(2) 0.90100(17)
H23 H 0.5982 0.1386 0.9384
O9 O 0.4992(4) 0.4262(2) 0.88216(13)
O10 O 0.8565(4) 0.4178(3) 0.85177(18)
H24 H 0.9256 0.4177 0.8225
O11 O 1.0954(13) 0.9703(8) 0.7727(4)
loop_
_geom_bond_atom_site_label_1
_geom_bond_atom_site_label_2
_geom_bond_site_symmetry_1
_geom_bond_site_symmetry_2
C1 H1 1_555 1_555
C2 H2 1_555 1_555
C3 C2 1_555 1_555
C4 C3 1_555 1_555
H3 C4 1_555 1_555
C5 C4 1_555 1_555
H4 C5 1_555 1_555
C6 C5 1_555 1_555
H5 C6 1_555 1_555
H6 C6 1_555 1_555
C7 C6 1_555 1_555
H7 C7 1_555 1_555
C8 C1 1_555 1_555
H8 C8 1_555 1_555
C9 C7 1_555 1_555
H9 C9 1_555 1_555
H10 C9 1_555 1_555
H11 C9 1_555 1_555
C10 C3 1_555 1_555
C11 H12 1_555 1_555
C12 C11 1_555 1_555
H13 C12 1_555 1_555
C13 C12 1_555 1_555
H14 C13 1_555 1_555
C14 C13 1_555 1_555
H15 C14 1_555 1_555
C15 C14 1_555 1_555
H16 C15 1_555 1_555
C16 C15 1_555 1_555
H17 C16 1_555 1_555
H18 C16 1_555 1_555
O1 C1 1_555 1_555
O2 C10 1_555 1_555
H19 O2 1_555 1_555
O3 C10 1_555 1_555
O4 C5 1_555 1_555
H20 O4 1_555 1_555
O5 C1 1_555 1_555
O6 C12 1_555 1_555
H21 O6 1_555 1_555
O7 C13 1_555 1_555
H22 O7 1_555 1_555
O8 C14 1_555 1_555
H23 O8 1_555 1_555
O9 C11 1_555 1_555
O10 C16 1_555 1_555
H24 O10 1_555 1_555
C2 O1 1_555 1_555
C4 C8 1_555 1_555
C7 C8 1_555 1_555
C11 O5 1_555 1_555
C15 O9 1_555 1_555

#END
