
#######################################################################
#
#                 Cambridge Crystallographic Data Centre
#                                CCDC 
#
#######################################################################
#
# If this CIF has been generated from an entry in the Cambridge 
# Structural Database, then it will include bibliographic, chemical, 
# crystal, experimental, refinement or atomic coordinate data resulting 
# from the CCDC's data processing and validation procedures.
#
#######################################################################

data_SIVMOZ
_chemical_formula_moiety         'C44 H56'
_chemical_name_systematic        5,11,17,23-Tetra-t-butylcalix(4)arene
_symmetry_cell_setting           monoclinic
_symmetry_space_group_name_H-M   'I 2/c'
_symmetry_Int_Tables_number      15
_space_group_name_Hall           '-I 2yc'
loop_
_symmetry_equiv_pos_site_id
_symmetry_equiv_pos_as_xyz
1 x,y,z
2 1/2+x,1/2+y,1/2+z
3 -x,y,1/2-z
4 1/2-x,1/2+y,-z
5 -x,-y,-z
6 1/2-x,1/2-y,1/2-z
7 x,-y,1/2+z
8 1/2+x,1/2-y,z
_cell_length_a                   28.154(5)
_cell_length_b                   5.936(2)
_cell_length_c                   22.188(3)
_cell_angle_alpha                90
_cell_angle_beta                 90.78(2)
_cell_angle_gamma                90
_cell_volume                     3707.76
_cell_formula_units_Z            4
loop_
_atom_site_label
_atom_site_type_symbol
_atom_site_fract_x
_atom_site_fract_y
_atom_site_fract_z
C1 C 0.4285(1) 0.4696(5) 0.9267(1)
C2 C 0.3878(1) 0.5691(5) 0.9511(1)
C3 C 0.3437(1) 0.4801(5) 0.9360(1)
C4 C 0.3385(1) 0.2968(5) 0.8974(1)
C5 C 0.3795(1) 0.2003(5) 0.8746(1)
C6 C 0.4244(1) 0.2857(5) 0.8890(1)
C7 C 0.4676(1) 0.1688(7) 0.8615(2)
C8 C 0.5377(1) 0.2078(6) 0.9323(1)
C9 C 0.5151(1) 0.2670(5) 0.8784(1)
C10 C 0.5373(1) 0.4186(5) 0.8402(1)
C11 C 0.5816(1) 0.5122(5) 0.8540(1)
C12 C 0.6030(1) 0.4492(5) 0.9084(1)
C13 C 0.5818(1) 0.2978(5) 0.9476(1)
C14 C 0.3930(1) 0.7664(6) 0.9940(1)
C15 C 0.2888(1) 0.2052(5) 0.8814(2)
C16 C 0.2908(1) 0.0167(7) 0.8330(2)
C17 C 0.2573(2) 0.3890(7) 0.8583(3)
C18 C 0.2672(2) 0.0995(8) 0.9384(2)
C19 C 0.6068(1) 0.6668(5) 0.8098(1)
C20 C 0.5726(2) 0.808(1) 0.7739(3)
C21 C 0.6367(2) 0.5263(9) 0.7702(3)
C22 C 0.6382(2) 0.837(1) 0.8424(2)
H1 H 0.461 0.540 0.939
H2 H 0.317 0.569 0.957
H3 H 0.378 0.057 0.841
H4 H 0.461 0.149 0.815
H5 H 0.465 -0.006 0.874
H6 H 0.521 0.084 0.963
H7 H 0.520 0.459 0.797
H8 H 0.639 0.516 0.921
H9 H 0.358 0.831 1.003
H10 H 0.414 0.904 0.974
H11 H 0.304 0.102 0.794
H12 H 0.255 -0.043 0.824
H13 H 0.313 -0.125 0.844
H14 H 0.253 0.510 0.894
H15 H 0.223 0.316 0.847
H16 H 0.271 0.472 0.819
H17 H 0.266 0.211 0.977
H18 H 0.291 -0.039 0.948
H19 H 0.232 0.035 0.929
H20 H 0.574 0.663 0.744
H21 H 0.589 0.951 0.752
H22 H 0.536 0.846 0.783
H23 H 0.652 0.638 0.737
H24 H 0.627 0.370 0.749
H25 H 0.662 0.494 0.806
C14D C 0.6070(1) 0.2336(6) 1.0060(1)
C13D C 0.4182(1) 0.7022(5) 1.0524(1)
C2D C 0.6122(1) 0.4309(5) 1.0489(1)
H9D H 0.642 0.169 0.997
H10D H 0.586 0.096 1.026
C8D C 0.4623(1) 0.7922(6) 1.0677(1)
C12D C 0.3970(1) 0.5508(5) 1.0916(1)
C1D C 0.5715(1) 0.5304(5) 1.0733(1)
C3D C 0.6563(1) 0.5199(5) 1.0640(1)
C9D C 0.4849(1) 0.7330(5) 1.1216(1)
H6D H 0.479 0.916 1.037
C11D C 0.4184(1) 0.4878(5) 1.1460(1)
H8D H 0.361 0.484 1.079
C6D C 0.5756(1) 0.7143(5) 1.1110(1)
H1D H 0.539 0.460 1.061
C4D C 0.6615(1) 0.7032(5) 1.1026(1)
H2D H 0.683 0.431 1.043
C7D C 0.5324(1) 0.8312(7) 1.1385(2)
C10D C 0.4627(1) 0.5814(5) 1.1598(1)
C19D C 0.3932(1) 0.3332(5) 1.1902(1)
C5D C 0.6205(1) 0.7997(5) 1.1254(1)
C15D C 0.7112(1) 0.7948(5) 1.1186(2)
H4D H 0.539 0.851 1.185
H5D H 0.535 1.006 1.126
H7D H 0.480 0.541 1.203
C20D C 0.4274(2) 0.192(1) 1.2261(3)
C21D C 0.3633(2) 0.4737(9) 1.2298(3)
C22D C 0.3618(2) 0.163(1) 1.1576(2)
H3D H 0.622 0.943 1.159
C16D C 0.7092(1) 0.9833(7) 1.1670(2)
C17D C 0.7427(2) 0.6110(7) 1.1417(3)
C18D C 0.7328(2) 0.9005(8) 1.0616(2)
H20D H 0.426 0.337 1.256
H21D H 0.411 0.049 1.248
H22D H 0.464 0.154 1.217
H23D H 0.348 0.362 1.263
H24D H 0.373 0.630 1.251
H25D H 0.338 0.506 1.194
H11D H 0.696 0.898 1.206
H12D H 0.745 1.043 1.176
H13D H 0.687 1.125 1.156
H14D H 0.747 0.490 1.106
H15D H 0.777 0.684 1.153
H16D H 0.729 0.528 1.181
H17D H 0.734 0.789 1.023
H18D H 0.709 1.039 1.052
H19D H 0.768 0.965 1.071
H26? H 0.667 0.772 0.870
H27? H 0.611 0.903 0.871
H28? H 0.651 0.969 0.814
loop_
_geom_bond_atom_site_label_1
_geom_bond_atom_site_label_2
_geom_bond_site_symmetry_1
_geom_bond_site_symmetry_2
C1 C2 1_555 1_555
C2 C3 1_555 1_555
C3 C4 1_555 1_555
C4 C5 1_555 1_555
C5 C6 1_555 1_555
C6 C1 1_555 1_555
C7 C6 1_555 1_555
C8 C9 1_555 1_555
C9 C7 1_555 1_555
C10 C9 1_555 1_555
C11 C10 1_555 1_555
C12 C11 1_555 1_555
C13 C8 1_555 1_555
C14 C2 1_555 1_555
C15 C4 1_555 1_555
C16 C15 1_555 1_555
C17 C15 1_555 1_555
C18 C15 1_555 1_555
C19 C11 1_555 1_555
C20 C19 1_555 1_555
C21 C19 1_555 1_555
C22 C19 1_555 1_555
H1 C1 1_555 1_555
H2 C3 1_555 1_555
H3 C5 1_555 1_555
H4 C7 1_555 1_555
H5 C7 1_555 1_555
H6 C8 1_555 1_555
H7 C10 1_555 1_555
H8 C12 1_555 1_555
H9 C14 1_555 1_555
H10 C14 1_555 1_555
H11 C16 1_555 1_555
H12 C16 1_555 1_555
H13 C16 1_555 1_555
H14 C17 1_555 1_555
H15 C17 1_555 1_555
H16 C17 1_555 1_555
H17 C18 1_555 1_555
H18 C18 1_555 1_555
H19 C18 1_555 1_555
H20 C20 1_555 1_555
H21 C20 1_555 1_555
H22 C20 1_555 1_555
H23 C21 1_555 1_555
H24 C21 1_555 1_555
H25 C21 1_555 1_555
C14D C13 1_555 1_555
C13D C14 1_555 1_555
C2D C14D 1_555 1_555
H9D C14D 1_555 1_555
H10D C14D 1_555 1_555
C8D C13D 1_555 1_555
C12D C13D 1_555 1_555
C1D C2D 1_555 1_555
C3D C2D 1_555 1_555
C9D C8D 1_555 1_555
H6D C8D 1_555 1_555
C11D C12D 1_555 1_555
H8D C12D 1_555 1_555
C6D C1D 1_555 1_555
H1D C1D 1_555 1_555
C4D C3D 1_555 1_555
H2D C3D 1_555 1_555
C7D C9D 1_555 1_555
C10D C9D 1_555 1_555
C19D C11D 1_555 1_555
C5D C6D 1_555 1_555
C15D C4D 1_555 1_555
H4D C7D 1_555 1_555
H5D C7D 1_555 1_555
H7D C10D 1_555 1_555
C20D C19D 1_555 1_555
C21D C19D 1_555 1_555
C22D C19D 1_555 1_555
H3D C5D 1_555 1_555
C16D C15D 1_555 1_555
C17D C15D 1_555 1_555
C18D C15D 1_555 1_555
H20D C20D 1_555 1_555
H21D C20D 1_555 1_555
H22D C20D 1_555 1_555
H23D C21D 1_555 1_555
H24D C21D 1_555 1_555
H25D C21D 1_555 1_555
H11D C16D 1_555 1_555
H12D C16D 1_555 1_555
H13D C16D 1_555 1_555
H14D C17D 1_555 1_555
H15D C17D 1_555 1_555
H16D C17D 1_555 1_555
H17D C18D 1_555 1_555
H18D C18D 1_555 1_555
H19D C18D 1_555 1_555
C12 C13 1_555 1_555
C11D C10D 1_555 1_555
C6D C7D 1_555 1_555
C4D C5D 1_555 1_555

#END
