
#######################################################################
#
#                 Cambridge Crystallographic Data Centre
#                                CCDC 
#
#######################################################################
#
# If this CIF has been generated from an entry in the Cambridge 
# Structural Database, then it will include bibliographic, chemical, 
# crystal, experimental, refinement or atomic coordinate data resulting 
# from the CCDC's data processing and validation procedures.
#
#######################################################################

data_SIVNIU
_chemical_formula_moiety         'C14 H20 N4 O2 1+,F6 P1 1-'
_chemical_name_systematic        
'Dodecahydro-1,4:5,8-diethano-9,10-dioxo-4a,8a,9a,10a-tetra-aza-anthracenium radical cation hexafluorophosphate'
_symmetry_cell_setting           orthorhombic
_symmetry_space_group_name_H-M   'P n n 2'
_symmetry_Int_Tables_number      34
_space_group_name_Hall           'P 2 -2n'
loop_
_symmetry_equiv_pos_site_id
_symmetry_equiv_pos_as_xyz
1 x,y,z
2 1/2-x,1/2+y,1/2+z
3 1/2+x,1/2-y,1/2+z
4 -x,-y,z
_cell_length_a                   10.629(5)
_cell_length_b                   9.615(5)
_cell_length_c                   8.383(4)
_cell_angle_alpha                90
_cell_angle_beta                 90
_cell_angle_gamma                90
_cell_volume                     856.724
_exptl_crystal_colour            blue
_chemical_melting_point          'above 200deg.C'
_cell_formula_units_Z            2
loop_
_atom_site_label
_atom_site_type_symbol
_atom_site_fract_x
_atom_site_fract_y
_atom_site_fract_z
P1 P 0.0000 0.0000 0.0000
F1 F 0.1458(3) 0.0228(6) 0.0031(17)
F2 F -0.0151(14) 0.1248(10) 0.1077(16)
F3 F -0.0055(14) 0.0943(12) -0.1475(12)
F1C F -0.1458(3) -0.0228(6) 0.0031(17)
F2C F 0.0151(14) -0.1248(10) 0.1077(16)
F3C F 0.0055(14) -0.0943(12) -0.1475(12)
O1 O 1.0180(14) 0.2747(4) 0.5016(18)
N1 N 0.8971(4) 0.0802(5) 0.5056(20)
N2 N 1.1125(4) 0.0630(5) 0.5000(21)
C1 C 0.7739(6) 0.1502(6) 0.5002(24)
C2 C 0.7052(14) 0.1096(17) 0.6481(24)
C3 C 0.6938(15) -0.0520(18) 0.6459(21)
C4 C 1.2431(5) 0.1132(6) 0.5009(25)
C5 C 1.3058(13) 0.0608(17) 0.3456(20)
C6 C 0.7044(12) 0.0986(18) 0.3462(19)
C7 C 1.0096(6) 0.1485(6) 0.5041(20)
H1 H 0.7786 0.2486 0.4987
H2 H 0.6239 0.1501 0.6449
H3 H 0.7503 0.1392 0.7365
H4 H 0.6056 -0.0790 0.6480
H5 H 0.7310 -0.0898 0.7420
H6 H 1.2526 0.2109 0.5095
H7 H 1.3874 0.0879 0.3408
H8 H 1.2564 0.0947 0.2596
H9 H 0.7490 0.1276 0.2549
H10 H 0.6210 0.1343 0.3435
N2C N 0.8875(4) -0.0630(5) 0.5000(21)
N1C N 1.1029(4) -0.0802(5) 0.5056(20)
C4C C 0.7569(5) -0.1132(6) 0.5009(25)
C3C C 1.3062(15) 0.0520(18) 0.6459(21)
C6C C 1.2956(12) -0.0986(18) 0.3462(19)
C5C C 0.6942(13) -0.0608(17) 0.3456(20)
C7C C 0.9904(6) -0.1485(6) 0.5041(20)
C1C C 1.2261(6) -0.1502(6) 0.5002(24)
H6C H 0.7474 -0.2109 0.5095
C2C C 1.2948(14) -0.1096(17) 0.6481(24)
H4C H 1.3944 0.0790 0.6480
H5C H 1.2690 0.0898 0.7420
H9C H 1.2510 -0.1276 0.2549
H10C H 1.3790 -0.1343 0.3435
H7C H 0.6126 -0.0879 0.3408
H8C H 0.7436 -0.0947 0.2596
O1C O 0.9820(14) -0.2747(4) 0.5016(18)
H1C H 1.2214 -0.2486 0.4987
H2C H 1.3761 -0.1501 0.6449
H3C H 1.2497 -0.1392 0.7365
loop_
_geom_bond_atom_site_label_1
_geom_bond_atom_site_label_2
_geom_bond_site_symmetry_1
_geom_bond_site_symmetry_2
P1 F1 1_555 1_555
F2 P1 1_555 1_555
F3 P1 1_555 1_555
O1 C7 1_555 1_555
N1 C1 1_555 1_555
N2 C4 1_555 1_555
C1 C2 1_555 1_555
C2 C3 1_555 1_555
C3 H4 1_555 1_555
C4 C5 1_555 1_555
C5 H7 1_555 1_555
C6 C1 1_555 1_555
C7 N1 1_555 1_555
H1 C1 1_555 1_555
H2 C2 1_555 1_555
H3 C2 1_555 1_555
H5 C3 1_555 1_555
H6 C4 1_555 1_555
H8 C5 1_555 1_555
H9 C6 1_555 1_555
H10 C6 1_555 1_555
F1C P1 1_555 1_555
F2C P1 1_555 1_555
F3C P1 1_555 1_555
N2C N1 1_555 1_555
N1C N2 1_555 1_555
C4C C3 1_555 1_555
C3C C4 1_555 1_555
C6C C5 1_555 1_555
C5C C6 1_555 1_555
C7C N2C 1_555 1_555
C1C N1C 1_555 1_555
H6C C4C 1_555 1_555
C2C C3C 1_555 1_555
H4C C3C 1_555 1_555
H5C C3C 1_555 1_555
H9C C6C 1_555 1_555
H10C C6C 1_555 1_555
H7C C5C 1_555 1_555
H8C C5C 1_555 1_555
O1C C7C 1_555 1_555
H1C C1C 1_555 1_555
H2C C2C 1_555 1_555
H3C C2C 1_555 1_555
N2 C7 1_555 1_555
N2C C4C 1_555 1_555
N1C C7C 1_555 1_555
C4C C5C 1_555 1_555
C6C C1C 1_555 1_555
C1C C2C 1_555 1_555

#END
