
#######################################################################
#
#                 Cambridge Crystallographic Data Centre
#                                CCDC 
#
#######################################################################
#
# If this CIF has been generated from an entry in the Cambridge 
# Structural Database, then it will include bibliographic, chemical, 
# crystal, experimental, refinement or atomic coordinate data resulting 
# from the CCDC's data processing and validation procedures.
#
#######################################################################

data_SIVNAM
_chemical_formula_moiety         'C6 H12 N4 S2'
_chemical_name_systematic        
Tetrahydro-1,2,4,5-tetramethyl-1,2,4,5-tetrazine-3,6-dithione
_symmetry_cell_setting           monoclinic
_symmetry_space_group_name_H-M   'P 21/c'
_symmetry_Int_Tables_number      14
_space_group_name_Hall           '-P 2ybc'
loop_
_symmetry_equiv_pos_site_id
_symmetry_equiv_pos_as_xyz
1 x,y,z
2 -x,1/2+y,1/2-z
3 -x,-y,-z
4 x,1/2-y,1/2+z
_cell_length_a                   7.981(3)
_cell_length_b                   10.809(4)
_cell_length_c                   11.978(4)
_cell_angle_alpha                90
_cell_angle_beta                 102.88(3)
_cell_angle_gamma                90
_cell_volume                     1007.3
_exptl_crystal_colour            colorless
_chemical_melting_point          151-152deg.C
_cell_formula_units_Z            4
loop_
_atom_site_label
_atom_site_type_symbol
_atom_site_fract_x
_atom_site_fract_y
_atom_site_fract_z
N1 N 0.1822(2) 0.3920(2) 0.6681(2)
N2 N 0.2677(2) 0.2767(2) 0.6818(2)
C1 C 0.2245(3) 0.1924(2) 0.5968(2)
N3 N 0.0603(2) 0.2047(2) 0.5394(2)
N4 N -0.0504(2) 0.2802(2) 0.5878(2)
C2 C 0.0097(3) 0.3902(2) 0.6337(2)
C3 C 0.2887(3) 0.5001(2) 0.6639(2)
C4 C 0.4089(3) 0.2642(2) 0.7806(2)
S1 S 0.35940(8) 0.08508(6) 0.56865(6)
C5 C -0.0062(3) 0.1620(2) 0.4225(2)
C6 C -0.2191(3) 0.2309(3) 0.5857(2)
S2 S -0.11586(9) 0.50829(6) 0.65146(6)
H1 H 0.356(3) 0.514(2) 0.737(2)
H2 H 0.225(3) 0.562(2) 0.640(2)
H3 H 0.353(3) 0.488(3) 0.605(2)
H4 H 0.388(3) 0.314(2) 0.844(2)
H5 H 0.437(3) 0.185(2) 0.801(2)
H6 H 0.507(3) 0.302(2) 0.766(2)
H7 H -0.037(3) 0.229(2) 0.372(2)
H8 H 0.089(3) 0.123(2) 0.398(2)
H9 H -0.104(3) 0.110(2) 0.418(2)
H10 H -0.267(3) 0.274(2) 0.631(2)
H11 H -0.292(3) 0.234(2) 0.512(2)
H12 H -0.214(3) 0.146(2) 0.605(2)
loop_
_geom_bond_atom_site_label_1
_geom_bond_atom_site_label_2
_geom_bond_site_symmetry_1
_geom_bond_site_symmetry_2
N1 N2 1_555 1_555
N2 C1 1_555 1_555
C1 N3 1_555 1_555
N3 N4 1_555 1_555
N4 C2 1_555 1_555
C2 N1 1_555 1_555
C3 N1 1_555 1_555
C4 N2 1_555 1_555
S1 C1 1_555 1_555
C5 N3 1_555 1_555
C6 N4 1_555 1_555
S2 C2 1_555 1_555
H1 C3 1_555 1_555
H2 C3 1_555 1_555
H3 C3 1_555 1_555
H4 C4 1_555 1_555
H5 C4 1_555 1_555
H6 C4 1_555 1_555
H7 C5 1_555 1_555
H8 C5 1_555 1_555
H9 C5 1_555 1_555
H10 C6 1_555 1_555
H11 C6 1_555 1_555
H12 C6 1_555 1_555

#END
