
#######################################################################
#
#                 Cambridge Crystallographic Data Centre
#                                CCDC 
#
#######################################################################
#
# If this CIF has been generated from an entry in the Cambridge 
# Structural Database, then it will include bibliographic, chemical, 
# crystal, experimental, refinement or atomic coordinate data resulting 
# from the CCDC's data processing and validation procedures.
#
#######################################################################

data_SIVTAT
_chemical_formula_moiety         'C7 H17 O1 Si1 1+,C24 B1 F20 1-'
_chemical_name_systematic        
'1-(Trimethylsilyl)tetrahydrofuran-1-ium tetrakis(perfluorophenyl)borate'
_symmetry_cell_setting           triclinic
_symmetry_space_group_name_H-M   'P -1'
_symmetry_Int_Tables_number      2
_space_group_name_Hall           '-P 1'
loop_
_symmetry_equiv_pos_site_id
_symmetry_equiv_pos_as_xyz
1 x,y,z
2 -x,-y,-z
_cell_length_a                   10.1347(4)
_cell_length_b                   17.4222(7)
_cell_length_c                   19.6456(8)
_cell_angle_alpha                67.543(2)
_cell_angle_beta                 80.967(2)
_cell_angle_gamma                81.909(2)
_cell_volume                     3153.57
_exptl_crystal_colour            colorless
_exptl_crystal_description       plate
_cell_formula_units_Z            4
loop_
_atom_site_label
_atom_site_type_symbol
_atom_site_fract_x
_atom_site_fract_y
_atom_site_fract_z
Si1 Si 0.18229(4) 0.68666(3) 0.00735(3)
C1 C 0.36634(18) 0.66891(15) 0.00223(12)
H1 H 0.4041 0.7211 -0.0066
H2 H 0.4009 0.6496 -0.0385
H3 H 0.3920 0.6266 0.0491
C2 C 0.0981(2) 0.59012(12) 0.03675(11)
H4 H 0.0007 0.6035 0.0405
H5 H 0.1239 0.5519 0.0851
H6 H 0.1251 0.5635 0.0002
C3 C 0.12038(19) 0.77110(12) -0.07402(10)
H7 H 0.1714 0.8196 -0.0872
H8 H 0.0252 0.7866 -0.0625
H9 H 0.1316 0.7522 -0.1157
O1 O 0.13143(11) 0.72498(7) 0.08055(6)
C4 C 0.14695(17) 0.67135(11) 0.15996(10)
H10 H 0.1973 0.6171 0.1640
H11 H 0.0585 0.6613 0.1899
C5 C 0.22449(18) 0.72207(13) 0.18456(12)
H12 H 0.3220 0.7140 0.1701
H13 H 0.2080 0.7073 0.2389
C6 C 0.16866(17) 0.81122(12) 0.14341(11)
H14 H 0.0804 0.8242 0.1683
H15 H 0.2309 0.8517 0.1405
C7 C 0.1554(2) 0.81332(12) 0.06712(11)
H16 H 0.0789 0.8527 0.0457
H17 H 0.2384 0.8299 0.0332
B1 B 0.47586(16) 0.37222(11) 0.27763(10)
C8 C 0.37391(14) 0.37158(9) 0.21969(9)
C9 C 0.39617(15) 0.40232(10) 0.14290(9)
C10 C 0.31148(16) 0.39376(11) 0.09730(9)
C11 C 0.19836(16) 0.35178(11) 0.12889(10)
C12 C 0.17163(15) 0.31900(10) 0.20470(10)
C13 C 0.25844(15) 0.32969(9) 0.24746(9)
C14 C 0.53650(14) 0.27322(9) 0.31238(9)
C15 C 0.50139(15) 0.21590(10) 0.38265(9)
C16 C 0.55551(17) 0.13364(10) 0.40922(9)
C17 C 0.64859(17) 0.10470(10) 0.36398(10)
C18 C 0.68478(16) 0.15766(10) 0.29244(10)
C19 C 0.62681(15) 0.23895(10) 0.26837(9)
C20 C 0.40231(14) 0.40722(9) 0.34282(9)
C21 C 0.28133(14) 0.45627(10) 0.34207(9)
C22 C 0.23274(14) 0.48966(10) 0.39566(9)
C23 C 0.30333(15) 0.47397(10) 0.45463(9)
C24 C 0.42453(15) 0.42605(10) 0.45835(9)
C25 C 0.47085(14) 0.39601(9) 0.40284(9)
C26 C 0.59263(14) 0.43830(9) 0.23725(8)
C27 C 0.55179(14) 0.52209(10) 0.19958(9)
C28 C 0.63508(16) 0.58543(9) 0.16941(9)
C29 C 0.77044(15) 0.56715(10) 0.17677(9)
C30 C 0.81814(14) 0.48590(10) 0.21310(9)
C31 C 0.72981(15) 0.42426(9) 0.24262(9)
F1 F 0.50490(9) 0.44367(6) 0.10654(5)
F2 F 0.33799(11) 0.42703(7) 0.02313(6)
F3 F 0.11524(11) 0.34333(8) 0.08574(6)
F4 F 0.06160(10) 0.27782(7) 0.23646(6)
F5 F 0.22531(9) 0.29597(6) 0.32211(5)
F6 F 0.40920(9) 0.23741(6) 0.43211(5)
F7 F 0.51618(12) 0.08304(6) 0.47868(6)
F8 F 0.70396(12) 0.02520(6) 0.38857(6)
F9 F 0.77428(11) 0.12944(6) 0.24709(6)
F10 F 0.66421(9) 0.28717(6) 0.19701(5)
F11 F 0.20285(8) 0.47511(6) 0.28697(5)
F12 F 0.11585(9) 0.53822(7) 0.39127(6)
F13 F 0.25394(10) 0.50411(7) 0.50801(6)
F14 F 0.49594(9) 0.40986(6) 0.51533(5)
F15 F 0.59303(8) 0.35205(6) 0.40848(5)
F16 F 0.41975(8) 0.54506(5) 0.19148(5)
F17 F 0.58657(10) 0.66483(6) 0.13451(6)
F18 F 0.85311(10) 0.62869(6) 0.14976(6)
F19 F 0.94975(9) 0.46738(6) 0.22101(6)
F20 F 0.78629(8) 0.34688(5) 0.27998(5)
Si2 Si 0.05939(5) 0.69604(3) 0.49914(3)
C32 C 0.2125(2) 0.71806(14) 0.43275(12)
H18 H 0.1927 0.7668 0.3884
H19 H 0.2434 0.6697 0.4187
H20 H 0.2827 0.7294 0.4558
C33 C -0.0893(2) 0.68817(12) 0.46025(12)
H21 H -0.1686 0.6860 0.4964
H22 H -0.0771 0.6374 0.4488
H23 H -0.1016 0.7369 0.4148
C34 C 0.07997(17) 0.61504(11) 0.59073(10)
H24 H 0.0070 0.6236 0.6269
H25 H 0.1662 0.6182 0.6058
H26 H 0.0777 0.5601 0.5884
O2 O 0.01953(12) 0.78989(8) 0.51662(8)
C35 C -0.11550(16) 0.83605(11) 0.51709(10)
H27 H -0.1810 0.8013 0.5553
H28 H -0.1491 0.8554 0.4681
C36 C -0.0882(2) 0.90793(14) 0.53540(13)
H29 H -0.1705 0.9302 0.5587
H30 H -0.0532 0.9534 0.4904
C37 C 0.0166(2) 0.87028(13) 0.58934(11)
H31 H 0.0630 0.9141 0.5940
H32 H -0.0240 0.8355 0.6390
C38 C 0.1108(2) 0.81824(14) 0.55368(13)
H33 H 0.1796 0.8518 0.5171
H34 H 0.1560 0.7702 0.5912
B2 B 0.67474(17) 0.89196(11) 0.21504(10)
C39 C 0.56375(15) 0.95325(10) 0.24610(9)
C40 C 0.48418(16) 0.93173(10) 0.31369(9)
C41 C 0.39322(16) 0.98813(11) 0.33519(10)
C42 C 0.38296(17) 1.07088(11) 0.28964(11)
C43 C 0.46298(17) 1.09652(10) 0.22319(10)
C44 C 0.55012(16) 1.03824(10) 0.20309(9)
C45 C 0.81854(15) 0.92910(9) 0.21049(9)
C46 C 0.86442(15) 0.92236(10) 0.27614(9)
C47 C 0.97828(17) 0.95537(10) 0.27967(10)
C48 C 1.05372(16) 0.99928(11) 0.21476(11)
C49 C 1.01247(16) 1.00904(10) 0.14831(10)
C50 C 0.89732(16) 0.97501(10) 0.14731(9)
C51 C 0.64509(15) 0.89026(9) 0.13495(9)
C52 C 0.52545(15) 0.91594(10) 0.10332(9)
C53 C 0.50099(16) 0.89938(10) 0.04266(9)
C54 C 0.59649(18) 0.85574(10) 0.01090(9)
C55 C 0.71769(17) 0.82871(10) 0.03976(9)
C56 C 0.73788(16) 0.84630(10) 0.10001(9)
C57 C 0.67092(14) 0.79116(9) 0.26552(8)
C58 C 0.55167(14) 0.75329(10) 0.27792(9)
C59 C 0.54220(14) 0.66871(10) 0.30753(9)
C60 C 0.65564(15) 0.61478(9) 0.32650(8)
C61 C 0.77619(14) 0.64822(9) 0.31515(9)
C62 C 0.78111(14) 0.73378(9) 0.28610(9)
F21 F 0.49042(10) 0.85265(6) 0.36409(5)
F22 F 0.31444(10) 0.96227(7) 0.40074(6)
F23 F 0.29579(11) 1.12622(7) 0.31018(6)
F24 F 0.45638(11) 1.17794(6) 0.17897(6)
F25 F 0.62622(10) 1.06711(6) 0.13711(5)
F26 F 0.79502(9) 0.88033(6) 0.34191(5)
F27 F 1.01578(11) 0.94536(7) 0.34597(6)
F28 F 1.16384(11) 1.03238(7) 0.21697(7)
F29 F 1.08486(10) 1.05137(6) 0.08415(6)
F30 F 0.86521(10) 0.98986(6) 0.07878(5)
F31 F 0.42335(9) 0.95890(6) 0.13047(5)
F32 F 0.38162(10) 0.92675(6) 0.01526(6)
F33 F 0.57372(12) 0.83825(7) -0.04680(6)
F34 F 0.81171(11) 0.78367(6) 0.01099(6)
F35 F 0.85772(9) 0.81516(6) 0.12693(5)
F36 F 0.43697(8) 0.80149(6) 0.25727(5)
F37 F 0.42364(9) 0.63674(6) 0.31710(5)
F38 F 0.64925(9) 0.53191(5) 0.35386(5)
F39 F 0.88928(9) 0.59707(6) 0.33045(6)
F40 F 0.90597(8) 0.75901(5) 0.27609(5)
loop_
_geom_bond_atom_site_label_1
_geom_bond_atom_site_label_2
_geom_bond_site_symmetry_1
_geom_bond_site_symmetry_2
Si1 C1 1_555 1_555
C1 H1 1_555 1_555
H2 C1 1_555 1_555
H3 C1 1_555 1_555
C2 Si1 1_555 1_555
H4 C2 1_555 1_555
H5 C2 1_555 1_555
H6 C2 1_555 1_555
C3 Si1 1_555 1_555
H7 C3 1_555 1_555
H8 C3 1_555 1_555
H9 C3 1_555 1_555
O1 Si1 1_555 1_555
C4 O1 1_555 1_555
H10 C4 1_555 1_555
H11 C4 1_555 1_555
C5 C4 1_555 1_555
H12 C5 1_555 1_555
H13 C5 1_555 1_555
C6 C5 1_555 1_555
H14 C6 1_555 1_555
H15 C6 1_555 1_555
C7 O1 1_555 1_555
H16 C7 1_555 1_555
H17 C7 1_555 1_555
B1 C8 1_555 1_555
C8 C9 1_555 1_555
C9 C10 1_555 1_555
C10 C11 1_555 1_555
C11 C12 1_555 1_555
C12 C13 1_555 1_555
C13 C8 1_555 1_555
C14 B1 1_555 1_555
C15 C14 1_555 1_555
C16 C15 1_555 1_555
C17 C16 1_555 1_555
C18 C17 1_555 1_555
C19 C14 1_555 1_555
C20 B1 1_555 1_555
C21 C20 1_555 1_555
C22 C21 1_555 1_555
C23 C22 1_555 1_555
C24 C23 1_555 1_555
C25 C20 1_555 1_555
C26 B1 1_555 1_555
C27 C26 1_555 1_555
C28 C27 1_555 1_555
C29 C28 1_555 1_555
C30 C29 1_555 1_555
C31 C26 1_555 1_555
F1 C9 1_555 1_555
F2 C10 1_555 1_555
F3 C11 1_555 1_555
F4 C12 1_555 1_555
F5 C13 1_555 1_555
F6 C15 1_555 1_555
F7 C16 1_555 1_555
F8 C17 1_555 1_555
F9 C18 1_555 1_555
F10 C19 1_555 1_555
F11 C21 1_555 1_555
F12 C22 1_555 1_555
F13 C23 1_555 1_555
F14 C24 1_555 1_555
F15 C25 1_555 1_555
F16 C27 1_555 1_555
F17 C28 1_555 1_555
F18 C29 1_555 1_555
F19 C30 1_555 1_555
F20 C31 1_555 1_555
Si2 C32 1_555 1_555
C32 H18 1_555 1_555
H19 C32 1_555 1_555
H20 C32 1_555 1_555
C33 Si2 1_555 1_555
H21 C33 1_555 1_555
H22 C33 1_555 1_555
H23 C33 1_555 1_555
C34 Si2 1_555 1_555
H24 C34 1_555 1_555
H25 C34 1_555 1_555
H26 C34 1_555 1_555
O2 Si2 1_555 1_555
C35 O2 1_555 1_555
H27 C35 1_555 1_555
H28 C35 1_555 1_555
C36 C35 1_555 1_555
H29 C36 1_555 1_555
H30 C36 1_555 1_555
C37 C36 1_555 1_555
H31 C37 1_555 1_555
H32 C37 1_555 1_555
C38 O2 1_555 1_555
H33 C38 1_555 1_555
H34 C38 1_555 1_555
B2 C39 1_555 1_555
C39 C40 1_555 1_555
C40 C41 1_555 1_555
C41 C42 1_555 1_555
C42 C43 1_555 1_555
C43 C44 1_555 1_555
C44 C39 1_555 1_555
C45 B2 1_555 1_555
C46 C45 1_555 1_555
C47 C46 1_555 1_555
C48 C47 1_555 1_555
C49 C48 1_555 1_555
C50 C45 1_555 1_555
C51 B2 1_555 1_555
C52 C51 1_555 1_555
C53 C52 1_555 1_555
C54 C53 1_555 1_555
C55 C54 1_555 1_555
C56 C51 1_555 1_555
C57 B2 1_555 1_555
C58 C57 1_555 1_555
C59 C58 1_555 1_555
C60 C59 1_555 1_555
C61 C60 1_555 1_555
C62 C57 1_555 1_555
F21 C40 1_555 1_555
F22 C41 1_555 1_555
F23 C42 1_555 1_555
F24 C43 1_555 1_555
F25 C44 1_555 1_555
F26 C46 1_555 1_555
F27 C47 1_555 1_555
F28 C48 1_555 1_555
F29 C49 1_555 1_555
F30 C50 1_555 1_555
F31 C52 1_555 1_555
F32 C53 1_555 1_555
F33 C54 1_555 1_555
F34 C55 1_555 1_555
F35 C56 1_555 1_555
F36 C58 1_555 1_555
F37 C59 1_555 1_555
F38 C60 1_555 1_555
F39 C61 1_555 1_555
F40 C62 1_555 1_555
C6 C7 1_555 1_555
C18 C19 1_555 1_555
C24 C25 1_555 1_555
C30 C31 1_555 1_555
C37 C38 1_555 1_555
C49 C50 1_555 1_555
C55 C56 1_555 1_555
C61 C62 1_555 1_555

#END
