
#######################################################################
#
#                 Cambridge Crystallographic Data Centre
#                                CCDC 
#
#######################################################################
#
# If this CIF has been generated from an entry in the Cambridge 
# Structural Database, then it will include bibliographic, chemical, 
# crystal, experimental, refinement or atomic coordinate data resulting 
# from the CCDC's data processing and validation procedures.
#
#######################################################################

data_SIVTUM
_chemical_formula_moiety         'C12 H13 N3 O2'
_chemical_name_systematic        
(E,E)-4-Amino-3-cyano-4-methoxy-1-(4-methoxyphenyl)-2-aza-1,3-butadiene
_symmetry_cell_setting           orthorhombic
_symmetry_space_group_name_H-M   'P b c a'
_symmetry_Int_Tables_number      61
_space_group_name_Hall           '-P 2ac 2ab'
loop_
_symmetry_equiv_pos_site_id
_symmetry_equiv_pos_as_xyz
1 x,y,z
2 1/2-x,1/2+y,z
3 x,1/2-y,1/2+z
4 1/2-x,-y,1/2+z
5 -x,-y,-z
6 1/2+x,1/2-y,-z
7 -x,1/2+y,1/2-z
8 1/2+x,y,1/2-z
_cell_length_a                   14.252(1)
_cell_length_b                   7.872(1)
_cell_length_c                   22.456(2)
_cell_angle_alpha                90
_cell_angle_beta                 90
_cell_angle_gamma                90
_cell_volume                     2519.38
_exptl_crystal_colour            'bright orange'
_cell_formula_units_Z            8
loop_
_atom_site_label
_atom_site_type_symbol
_atom_site_fract_x
_atom_site_fract_y
_atom_site_fract_z
C1 C 0.0281(2) 0.3247(5) 0.5783(1)
C2 C 0.0801(2) 0.1971(3) 0.4871(1)
C3 C 0.1523(2) 0.1229(3) 0.4556(1)
C4 C 0.2443(2) 0.1233(4) 0.4790(1)
C5 C 0.1934(2) -0.0273(3) 0.3702(1)
C6 C 0.1744(2) -0.1050(4) 0.3125(1)
C7 C 0.0873(2) -0.0956(4) 0.2848(1)
C8 C 0.0731(2) -0.1693(4) 0.2301(1)
C9 C 0.1448(2) -0.2567(4) 0.2018(1)
C10 C 0.2314(2) -0.2676(3) 0.2287(1)
C11 C 0.2454(2) -0.1919(4) 0.2834(1)
C12 C 0.1961(3) -0.4119(5) 0.1164(1)
N1 N -0.0049(2) 0.2135(3) 0.4648(1)
N2 N 0.3208(2) 0.1210(4) 0.4948(1)
N3 N 0.1317(2) 0.0527(3) 0.4004(1)
O1 O 0.0995(1) 0.2511(3) 0.5421(1)
O2 O 0.1235(2) -0.3272(3) 0.1480(1)
H1 H 0.0541 0.3565 0.6161
H2 H 0.0038 0.4238 0.5587
H3 H -0.0216 0.2442 0.5842
H4 H 0.2556 -0.0373 0.3862
H5 H 0.0368 -0.0356 0.3037
H6 H 0.0127 -0.1625 0.2114
H7 H 0.2816 -0.3271 0.2092
H8 H 0.3058 -0.1996 0.3021
H9 H 0.1715 -0.4538 0.0794
H10 H 0.2467 -0.3346 0.1085
H11 H 0.2188 -0.5054 0.1398
H12 H -0.0166 0.1769 0.4275
H13 H -0.0510 0.2616 0.4864
loop_
_geom_bond_atom_site_label_1
_geom_bond_atom_site_label_2
_geom_bond_site_symmetry_1
_geom_bond_site_symmetry_2
C1 O1 1_555 1_555
C2 C3 1_555 1_555
C3 C4 1_555 1_555
C4 N2 1_555 1_555
C5 C6 1_555 1_555
C6 C7 1_555 1_555
C7 C8 1_555 1_555
C8 C9 1_555 1_555
C9 C10 1_555 1_555
C10 C11 1_555 1_555
C11 C6 1_555 1_555
C12 O2 1_555 1_555
N1 C2 1_555 1_555
N3 C3 1_555 1_555
O1 C2 1_555 1_555
O2 C9 1_555 1_555
H1 C1 1_555 1_555
H2 C1 1_555 1_555
H3 C1 1_555 1_555
H4 C5 1_555 1_555
H5 C7 1_555 1_555
H6 C8 1_555 1_555
H7 C10 1_555 1_555
H8 C11 1_555 1_555
H9 C12 1_555 1_555
H10 C12 1_555 1_555
H11 C12 1_555 1_555
H12 N1 1_555 1_555
H13 N1 1_555 1_555
C5 N3 1_555 1_555

#END
