
#######################################################################
#
#                 Cambridge Crystallographic Data Centre
#                                CCDC 
#
#######################################################################
#
# If this CIF has been generated from an entry in the Cambridge 
# Structural Database, then it will include bibliographic, chemical, 
# crystal, experimental, refinement or atomic coordinate data resulting 
# from the CCDC's data processing and validation procedures.
#
#######################################################################

data_SIVWEA
_chemical_formula_moiety         'C18 H15 N1 O1'
_chemical_name_systematic        
4-(4'-Cyanophenyl)-1-(4'-methoxyphenyl)butadiene
_symmetry_cell_setting           monoclinic
_symmetry_space_group_name_H-M   'P 21/c'
_symmetry_Int_Tables_number      14
_space_group_name_Hall           '-P 2ybc'
loop_
_symmetry_equiv_pos_site_id
_symmetry_equiv_pos_as_xyz
1 x,y,z
2 -x,1/2+y,1/2-z
3 -x,-y,-z
4 x,1/2-y,1/2+z
_cell_length_a                   6.2803(5)
_cell_length_b                   7.1957(6)
_cell_length_c                   30.744(3)
_cell_angle_alpha                90
_cell_angle_beta                 90.212(1)
_cell_angle_gamma                90
_cell_volume                     1389.35
_exptl_crystal_colour            colorless
_exptl_crystal_description       plate
_cell_formula_units_Z            4
_exptl_crystal_recrystallization_method 'ethyl acetate/hexane'
_exptl_crystal_preparation       fluorescent
loop_
_atom_site_label
_atom_site_type_symbol
_atom_site_fract_x
_atom_site_fract_y
_atom_site_fract_z
O1 O 0.0762(2) 0.11272(18) 0.41965(5)
N1 N 1.6265(3) 0.2140(3) 0.02032(6)
C1 C 0.2370(2) 0.1333(2) 0.39045(6)
C2 C 0.4375(3) 0.2021(2) 0.40032(6)
H1 H 0.4738 0.2340 0.4294
C3 C 0.5841(3) 0.2235(2) 0.36716(5)
H2 H 0.7206 0.2725 0.3740
C4 C 0.5394(2) 0.1761(2) 0.32409(5)
C5 C 0.3364(2) 0.1039(2) 0.31502(6)
H3 H 0.3006 0.0690 0.2861
C6 C 0.1884(2) 0.0830(2) 0.34767(6)
H4 H 0.0517 0.0339 0.3410
C7 C 0.7025(2) 0.2009(2) 0.29078(5)
H5 H 0.8193 0.2782 0.2985
C8 C 0.7075(2) 0.1280(2) 0.25074(5)
H6 H 0.5936 0.0494 0.2420
C9 C 0.8766(2) 0.1622(2) 0.22008(5)
H7 H 0.9919 0.2384 0.2292
C10 C 0.8817(2) 0.0937(2) 0.17965(5)
H8 H 0.7672 0.0147 0.1715
C11 C 1.0441(2) 0.1271(2) 0.14669(5)
C12 C 1.2429(3) 0.2072(2) 0.15587(6)
H9 H 1.2758 0.2436 0.1848
C13 C 1.3906(3) 0.2339(2) 0.12363(6)
H10 H 1.5241 0.2889 0.1304
C14 C 1.3453(3) 0.1803(2) 0.08086(5)
C15 C 1.1487(3) 0.1022(2) 0.07113(6)
H11 H 1.1157 0.0667 0.0421
C16 C 1.0019(2) 0.0765(2) 0.10368(5)
H12 H 0.8679 0.0227 0.0967
C17 C 0.1181(3) 0.1687(3) 0.46362(7)
H13 H 0.2261 0.0868 0.4764
H14 H -0.0134 0.1604 0.4806
H15 H 0.1700 0.2971 0.4639
C18 C 1.5024(3) 0.2011(3) 0.04732(6)
loop_
_geom_bond_atom_site_label_1
_geom_bond_atom_site_label_2
_geom_bond_site_symmetry_1
_geom_bond_site_symmetry_2
O1 C1 1_555 1_555
N1 C18 1_555 1_555
C1 C2 1_555 1_555
C2 H1 1_555 1_555
C3 C2 1_555 1_555
H2 C3 1_555 1_555
C4 C3 1_555 1_555
C5 C4 1_555 1_555
H3 C5 1_555 1_555
C6 C1 1_555 1_555
H4 C6 1_555 1_555
C7 C4 1_555 1_555
H5 C7 1_555 1_555
C8 C7 1_555 1_555
H6 C8 1_555 1_555
C9 C8 1_555 1_555
H7 C9 1_555 1_555
C10 C9 1_555 1_555
H8 C10 1_555 1_555
C11 C10 1_555 1_555
C12 C11 1_555 1_555
H9 C12 1_555 1_555
C13 C12 1_555 1_555
H10 C13 1_555 1_555
C14 C13 1_555 1_555
C15 C14 1_555 1_555
H11 C15 1_555 1_555
C16 C11 1_555 1_555
H12 C16 1_555 1_555
C17 O1 1_555 1_555
H13 C17 1_555 1_555
H14 C17 1_555 1_555
H15 C17 1_555 1_555
C18 C14 1_555 1_555
C5 C6 1_555 1_555
C15 C16 1_555 1_555

#END
