
#######################################################################
#
#                 Cambridge Crystallographic Data Centre
#                                CCDC 
#
#######################################################################
#
# If this CIF has been generated from an entry in the Cambridge 
# Structural Database, then it will include bibliographic, chemical, 
# crystal, experimental, refinement or atomic coordinate data resulting 
# from the CCDC's data processing and validation procedures.
#
#######################################################################

data_SIVWIE
_chemical_formula_moiety         'C21 H21 N1 O1'
_chemical_name_systematic        
4-(4'-Cyanophenyl)-1-(4'-(n-butoxy)phenyl)butadiene
_symmetry_cell_setting           orthorhombic
_symmetry_space_group_name_H-M   'P n a 21'
_symmetry_Int_Tables_number      33
_space_group_name_Hall           'P 2c -2n'
loop_
_symmetry_equiv_pos_site_id
_symmetry_equiv_pos_as_xyz
1 x,y,z
2 -x,-y,1/2+z
3 1/2+x,1/2-y,z
4 1/2-x,1/2+y,1/2+z
_cell_length_a                   37.877(4)
_cell_length_b                   6.2281(7)
_cell_length_c                   7.0669(8)
_cell_angle_alpha                90
_cell_angle_beta                 90
_cell_angle_gamma                90
_cell_volume                     1667.09
_exptl_crystal_colour            colorless
_exptl_crystal_description       plate
_cell_formula_units_Z            4
_exptl_crystal_recrystallization_method 'ethyl acetate/hexane'
_exptl_crystal_preparation       fluorescent
loop_
_atom_site_label
_atom_site_type_symbol
_atom_site_fract_x
_atom_site_fract_y
_atom_site_fract_z
C1 C 0.13003(7) -0.2330(4) 0.9589(3)
C2 C 0.09611(7) -0.2990(4) 1.0111(4)
H1 H 0.0925 -0.4402 1.0582
C3 C 0.06796(7) -0.1620(4) 0.9950(4)
H2 H 0.0451 -0.2099 1.0307
C4 C 0.07232(7) 0.0480(4) 0.9266(4)
C5 C 0.10647(7) 0.1121(4) 0.8806(4)
H3 H 0.1102 0.2546 0.8369
C6 C 0.13510(6) -0.0230(4) 0.8958(4)
H4 H 0.1581 0.0262 0.8637
C7 C 0.04320(7) 0.2007(4) 0.9047(4)
H5 H 0.0484 0.3277 0.8357
C8 C 0.01001(7) 0.1832(4) 0.9703(4)
H6 H 0.0038 0.0585 1.0401
C9 C -0.01663(7) 0.3453(4) 0.9396(4)
H7 H -0.0101 0.4702 0.8706
C10 C -0.04994(7) 0.3306(4) 1.0022(4)
H8 H -0.0558 0.2062 1.0734
C11 C -0.07820(6) 0.4870(4) 0.9718(4)
C12 C -0.07230(7) 0.6944(4) 0.9025(4)
H9 H -0.0489 0.7381 0.8724
C13 C -0.09977(7) 0.8360(4) 0.8774(4)
H10 H -0.0953 0.9762 0.8302
C14 C -0.13424(6) 0.7728(4) 0.9215(4)
C15 C -0.14085(7) 0.5658(4) 0.9856(4)
H11 H -0.1643 0.5209 1.0111
C16 C -0.11305(7) 0.4261(4) 1.0121(4)
H12 H -0.1176 0.2857 1.0586
C17 C 0.19053(6) -0.3269(4) 0.9066(5)
H13 H 0.2012 -0.2230 0.9960
H14 H 0.1895 -0.2597 0.7797
C18 C 0.21239(7) -0.5312(4) 0.8997(5)
H15 H 0.2019 -0.6293 0.8050
H16 H 0.2365 -0.4946 0.8558
C19 C 0.21524(7) -0.6490(5) 1.0865(5)
H17 H 0.1912 -0.6865 1.1301
H18 H 0.2282 -0.7849 1.0657
C20 C 0.23358(9) -0.5234(6) 1.2405(6)
H19 H 0.2571 -0.4799 1.1968
H20 H 0.2359 -0.6134 1.3536
H21 H 0.2196 -0.3955 1.2713
C21 C -0.16246(7) 0.9276(4) 0.9094(4)
N1 N -0.18464(7) 1.0519(4) 0.9070(5)
O1 O 0.15559(5) -0.3858(3) 0.9684(3)
loop_
_geom_bond_atom_site_label_1
_geom_bond_atom_site_label_2
_geom_bond_site_symmetry_1
_geom_bond_site_symmetry_2
C1 C2 1_555 1_555
C2 H1 1_555 1_555
C3 C2 1_555 1_555
H2 C3 1_555 1_555
C4 C3 1_555 1_555
C5 C4 1_555 1_555
H3 C5 1_555 1_555
C6 C1 1_555 1_555
H4 C6 1_555 1_555
C7 C4 1_555 1_555
H5 C7 1_555 1_555
C8 C7 1_555 1_555
H6 C8 1_555 1_555
C9 C8 1_555 1_555
H7 C9 1_555 1_555
C10 C9 1_555 1_555
H8 C10 1_555 1_555
C11 C10 1_555 1_555
C12 C11 1_555 1_555
H9 C12 1_555 1_555
C13 C12 1_555 1_555
H10 C13 1_555 1_555
C14 C13 1_555 1_555
C15 C14 1_555 1_555
H11 C15 1_555 1_555
C16 C11 1_555 1_555
H12 C16 1_555 1_555
C17 H13 1_555 1_555
H14 C17 1_555 1_555
C18 C17 1_555 1_555
H15 C18 1_555 1_555
H16 C18 1_555 1_555
C19 C18 1_555 1_555
H17 C19 1_555 1_555
H18 C19 1_555 1_555
C20 C19 1_555 1_555
H19 C20 1_555 1_555
H20 C20 1_555 1_555
H21 C20 1_555 1_555
C21 C14 1_555 1_555
N1 C21 1_555 1_555
O1 C1 1_555 1_555
C5 C6 1_555 1_555
C15 C16 1_555 1_555
C17 O1 1_555 1_555

#END
