
#######################################################################
#
#                 Cambridge Crystallographic Data Centre
#                                CCDC 
#
#######################################################################
#
# If this CIF has been generated from an entry in the Cambridge 
# Structural Database, then it will include bibliographic, chemical, 
# crystal, experimental, refinement or atomic coordinate data resulting 
# from the CCDC's data processing and validation procedures.
#
#######################################################################

data_SIWBEF
_chemical_formula_moiety         'C14 H20 N1 O1 1+,Cl1 1-'
_chemical_name_systematic        
'(4aS,10aR)-1,2,3,4,4a,5,10,10a-Octahydro-9-methoxybenzo(g)quinoline hydrochloride'
_symmetry_cell_setting           orthorhombic
_symmetry_space_group_name_H-M   'P 21 21 21'
_symmetry_Int_Tables_number      19
_space_group_name_Hall           'P 2ac 2ab'
loop_
_symmetry_equiv_pos_site_id
_symmetry_equiv_pos_as_xyz
1 x,y,z
2 1/2+x,1/2-y,-z
3 -x,1/2+y,1/2-z
4 1/2-x,-y,1/2+z
_cell_length_a                   7.3072(3)
_cell_length_b                   12.3990(5)
_cell_length_c                   14.8308(12)
_cell_angle_alpha                90
_cell_angle_beta                 90
_cell_angle_gamma                90
_cell_volume                     1343.7
_chemical_melting_point          269-170deg.C
_cell_formula_units_Z            4
loop_
_atom_site_label
_atom_site_type_symbol
_atom_site_fract_x
_atom_site_fract_y
_atom_site_fract_z
Cl1 Cl 0.4535(1) 0.1034(1) 1.0372(1)
N1 N 0.3493(4) 0.3093(2) 0.9281(2)
C1 C 0.4474(5) 0.3944(3) 0.9788(2)
C2 C 0.4482(6) 0.4997(3) 0.9290(3)
C3 C 0.5171(5) 0.4860(3) 0.8317(3)
C4 C 0.3987(5) 0.4035(3) 0.7829(2)
C5 C 0.4513(7) 0.3851(4) 0.6840(3)
C6 C 0.6247(6) 0.3198(3) 0.6717(2)
C7 C 0.7216(7) 0.3296(3) 0.5897(3)
C8 C 0.8706(7) 0.2670(3) 0.5748(3)
C9 C 0.9372(6) 0.1938(3) 0.6402(3)
C10 C 0.8414(3) 0.1890(3) 0.7214(2)
C11 C 0.6872(5) 0.2496(2) 0.7380(2)
C12 C 0.5948(5) 0.2418(3) 0.8295(2)
C13 C 0.4070(5) 0.2947(3) 0.8320(2)
O1 O 0.8896(5) 0.1190(2) 0.7902(2)
C14 C 1.0401(6) 0.0488(4) 0.7771(3)
H1 H 0.2268 0.3323 0.9233
H2 H 0.3646 0.2424 0.9437
H3 H 0.5911 0.3782 0.9942
H4 H 0.3983 0.3976 1.0370
H5 H 0.5249 0.5422 0.9671
H6 H 0.3265 0.5426 0.9300
H7 H 0.6520 0.4665 0.8342
H8 H 0.4860 0.5438 0.8039
H9 H 0.2603 0.4238 0.7826
H10 H 0.3374 0.3390 0.6450
H11 H 0.4839 0.4636 0.6579
H12 H 0.6947 0.3931 0.5427
H13 H 0.9270 0.2612 0.5028
H14 H 1.0585 0.1410 0.6327
H15 H 0.5768 0.1657 0.8392
H16 H 0.6788 0.2728 0.8753
H17 H 0.3047 0.2494 0.8022
H18 H 1.0231 -0.0133 0.7352
H19 H 1.0381 -0.0250 0.8220
H20 H 1.1589 0.0846 0.7616
loop_
_geom_bond_atom_site_label_1
_geom_bond_atom_site_label_2
_geom_bond_site_symmetry_1
_geom_bond_site_symmetry_2
N1 C1 1_555 1_555
C1 C2 1_555 1_555
C2 C3 1_555 1_555
C3 C4 1_555 1_555
C4 C5 1_555 1_555
C5 C6 1_555 1_555
C6 C7 1_555 1_555
C7 C8 1_555 1_555
C8 C9 1_555 1_555
C9 C10 1_555 1_555
C10 C11 1_555 1_555
C11 C6 1_555 1_555
C12 C11 1_555 1_555
C13 N1 1_555 1_555
O1 C10 1_555 1_555
C14 O1 1_555 1_555
H1 N1 1_555 1_555
H2 N1 1_555 1_555
H3 C1 1_555 1_555
H4 C1 1_555 1_555
H5 C2 1_555 1_555
H6 C2 1_555 1_555
H7 C3 1_555 1_555
H8 C3 1_555 1_555
H9 C4 1_555 1_555
H10 C5 1_555 1_555
H11 C5 1_555 1_555
H12 C7 1_555 1_555
H13 C8 1_555 1_555
H14 C9 1_555 1_555
H15 C12 1_555 1_555
H16 C12 1_555 1_555
H17 C13 1_555 1_555
H18 C14 1_555 1_555
H19 C14 1_555 1_555
H20 C14 1_555 1_555
C4 C13 1_555 1_555
C12 C13 1_555 1_555

#END
