
#######################################################################
#
#                 Cambridge Crystallographic Data Centre
#                                CCDC 
#
#######################################################################
#
# If this CIF has been generated from an entry in the Cambridge 
# Structural Database, then it will include bibliographic, chemical, 
# crystal, experimental, refinement or atomic coordinate data resulting 
# from the CCDC's data processing and validation procedures.
#
#######################################################################

data_SIWBEI
_chemical_formula_moiety         'C13 H18 Br1 N2 O1 1+,Cl1 1-'
_chemical_name_systematic        
'8-bromo-6-[(but-3-en-2-yl)amino]-2,3,4,5-tetrahydro-1,5-benzoxazepin-5-ium chloride'
_symmetry_cell_setting           monoclinic
_symmetry_space_group_name_H-M   'P 21'
_symmetry_Int_Tables_number      4
_space_group_name_Hall           'P 2yb'
loop_
_symmetry_equiv_pos_site_id
_symmetry_equiv_pos_as_xyz
1 x,y,z
2 -x,1/2+y,-z
_cell_length_a                   7.1967(3)
_cell_length_b                   19.2597(4)
_cell_length_c                   10.4450(4)
_cell_angle_alpha                90
_cell_angle_beta                 105.491(5)
_cell_angle_gamma                90
_cell_volume                     1395.15
_cell_formula_units_Z            4
loop_
_atom_site_label
_atom_site_type_symbol
_atom_site_fract_x
_atom_site_fract_y
_atom_site_fract_z
C1 C 0.5426(7) 0.7964(3) 0.6362(5)
C2 C 0.5559(7) 0.7406(3) 0.7204(5)
H1 H 0.566432 0.748149 0.811964
C3 C 0.5541(7) 0.6726(3) 0.6722(5)
C4 C 0.5458(7) 0.6660(3) 0.5354(5)
C5 C 0.5282(7) 0.7235(3) 0.4534(5)
C6 C 0.5251(7) 0.7905(3) 0.5011(5)
H2 H 0.511709 0.829908 0.444752
C7 C 0.3479(7) 0.5773(3) 0.3848(5)
H3 H 0.340362 0.526133 0.375586
H4 H 0.246372 0.592438 0.426617
C8 C 0.3121(7) 0.6100(3) 0.2487(5)
H5 H 0.406705 0.590714 0.204645
H6 H 0.182109 0.595979 0.195235
C9 C 0.3248(7) 0.6884(3) 0.2466(5)
H7 H 0.297657 0.704388 0.153310
H8 H 0.225089 0.708340 0.285217
C10 C 0.5667(7) 0.6215(3) 0.8922(5)
H9 H 0.463871 0.654181 0.903023
C11 C 0.7603(8) 0.6484(3) 0.9730(5)
H10 H 0.872529 0.630579 0.953180
C12 C 0.7838(9) 0.6946(3) 1.0684(7)
H11 H 0.674793 0.713507 1.090834
H12 H 0.909963 0.709045 1.114952
C13 C 0.5274(8) 0.5502(3) 0.9410(5)
H13 H 0.393573 0.536993 0.898717
H14 H 0.548448 0.551433 1.037632
H15 H 0.614733 0.516271 0.918171
N1 N 0.5440(6) 0.5973(2) 0.4737(4)
N2 N 0.5562(6) 0.6158(3) 0.7516(4)
O1 O 0.5126(5) 0.7139(2) 0.3201(4)
Br1 Br 0.54717(7) 0.88682(2) 0.71122(5)
H16 H 0.627(11) 0.592(4) 0.418(8)
H17 H 0.586(9) 0.563(4) 0.536(7)
H18 H 0.602(16) 0.578(6) 0.733(12)
C14 C 0.9590(7) 0.2082(3) 0.3632(6)
C15 C 0.9353(7) 0.2577(3) 0.2641(6)
H19 H 0.924650 0.244049 0.175004
C16 C 0.9270(7) 0.3288(3) 0.2967(5)
C17 C 0.9403(7) 0.3441(3) 0.4307(5)
C18 C 0.9678(7) 0.2928(3) 0.5273(5)
C19 C 0.9774(7) 0.2232(3) 0.4949(5)
H20 H 0.995692 0.187740 0.560274
C20 C 1.1308(7) 0.4410(3) 0.5564(5)
H21 H 1.136049 0.492224 0.550448
H22 H 1.231802 0.421467 0.518466
C21 C 1.1705(7) 0.4197(3) 0.7008(5)
H23 H 1.074378 0.442508 0.739171
H24 H 1.299235 0.437374 0.749184
C22 C 1.1649(7) 0.3420(3) 0.7253(5)
H25 H 1.269043 0.319161 0.695238
H26 H 1.189363 0.333566 0.821894
C23 C 0.8781(10) 0.3624(3) 0.0599(6)
H27 H 0.957934 0.320812 0.052706
C24 C 0.9395(9) 0.4198(3) -0.0146(6)
H28 H 0.893872 0.418695 -0.108741
C25 C 1.0490(9) 0.4710(4) 0.0372(6)
H29 H 1.097929 0.474182 0.130992
H30 H 1.080958 0.505517 -0.018253
C26 C 0.6624(9) 0.3433(3) -0.0064(6)
H31 H 0.626731 0.302563 0.037994
H32 H 0.645715 0.332877 -0.100610
H33 H 0.579774 0.382553 0.002006
N3 N 0.9363(6) 0.4158(2) 0.4772(4)
N4 N 0.9144(6) 0.3792(2) 0.2017(4)
O2 O 0.9811(5) 0.31112(19) 0.6565(4)
Br2 Br 0.97137(7) 0.11336(2) 0.31248(5)
H34 H 0.850(10) 0.418(4) 0.530(7)
H35 H 0.896(10) 0.451(4) 0.409(8)
H36 H 0.892(10) 0.4202(14) 0.219(7)
Cl1 Cl 0.82596(17) 0.54507(6) 0.30736(12)
Cl2 Cl 0.64669(16) 0.46328(6) 0.64089(11)
loop_
_geom_bond_atom_site_label_1
_geom_bond_atom_site_label_2
_geom_bond_site_symmetry_1
_geom_bond_site_symmetry_2
C1 C2 1_555 1_555
C2 H1 1_555 1_555
C3 C2 1_555 1_555
C4 C3 1_555 1_555
C5 C4 1_555 1_555
C6 C1 1_555 1_555
H2 C6 1_555 1_555
C7 H3 1_555 1_555
H4 C7 1_555 1_555
C8 C7 1_555 1_555
H5 C8 1_555 1_555
H6 C8 1_555 1_555
C9 C8 1_555 1_555
H7 C9 1_555 1_555
H8 C9 1_555 1_555
C10 H9 1_555 1_555
C11 C10 1_555 1_555
H10 C11 1_555 1_555
C12 C11 1_555 1_555
H11 C12 1_555 1_555
H12 C12 1_555 1_555
C13 C10 1_555 1_555
H13 C13 1_555 1_555
H14 C13 1_555 1_555
H15 C13 1_555 1_555
N1 C4 1_555 1_555
N2 C3 1_555 1_555
O1 C5 1_555 1_555
Br1 C1 1_555 1_555
H16 N1 1_555 1_555
H17 N1 1_555 1_555
H18 N2 1_555 1_555
C14 C15 1_555 1_555
C15 H19 1_555 1_555
C16 C15 1_555 1_555
C17 C16 1_555 1_555
C18 C17 1_555 1_555
C19 C14 1_555 1_555
H20 C19 1_555 1_555
C20 H21 1_555 1_555
H22 C20 1_555 1_555
C21 C20 1_555 1_555
H23 C21 1_555 1_555
H24 C21 1_555 1_555
C22 C21 1_555 1_555
H25 C22 1_555 1_555
H26 C22 1_555 1_555
C23 H27 1_555 1_555
C24 C23 1_555 1_555
H28 C24 1_555 1_555
C25 C24 1_555 1_555
H29 C25 1_555 1_555
H30 C25 1_555 1_555
C26 C23 1_555 1_555
H31 C26 1_555 1_555
H32 C26 1_555 1_555
H33 C26 1_555 1_555
N3 C17 1_555 1_555
N4 C16 1_555 1_555
O2 C18 1_555 1_555
Br2 C14 1_555 1_555
H34 N3 1_555 1_555
H35 N3 1_555 1_555
H36 N4 1_555 1_555
C5 C6 1_555 1_555
C7 N1 1_555 1_555
C9 O1 1_555 1_555
C10 N2 1_555 1_555
C18 C19 1_555 1_555
C20 N3 1_555 1_555
C22 O2 1_555 1_555
C23 N4 1_555 1_555

#END
