
#######################################################################
#
#                 Cambridge Crystallographic Data Centre
#                                CCDC 
#
#######################################################################
#
# If this CIF has been generated from an entry in the Cambridge 
# Structural Database, then it will include bibliographic, chemical, 
# crystal, experimental, refinement or atomic coordinate data resulting 
# from the CCDC's data processing and validation procedures.
#
#######################################################################

data_SIWMIW
_chemical_formula_moiety         'C25 H27 N1 O3'
_chemical_name_systematic        
't-Butyl (2-(1,2-diphenylvinyl)-4-methyl-5-oxocyclopent-1-en-1-yl)carbamate'
_symmetry_cell_setting           monoclinic
_symmetry_space_group_name_H-M   'P 21/n'
_symmetry_Int_Tables_number      14
_space_group_name_Hall           '-P 2yn'
loop_
_symmetry_equiv_pos_site_id
_symmetry_equiv_pos_as_xyz
1 x,y,z
2 1/2-x,1/2+y,1/2-z
3 -x,-y,-z
4 1/2+x,1/2-y,1/2+z
_cell_length_a                   7.5842(5)
_cell_length_b                   14.8337(12)
_cell_length_c                   19.3190(14)
_cell_angle_alpha                90
_cell_angle_beta                 93.285(3)
_cell_angle_gamma                90
_cell_volume                     2169.85
_exptl_crystal_colour            colorless
_exptl_crystal_description       prism
_cell_formula_units_Z            4
loop_
_atom_site_label
_atom_site_type_symbol
_atom_site_fract_x
_atom_site_fract_y
_atom_site_fract_z
C1 C 0.3882(3) 0.32898(15) 0.64545(11)
H1 H 0.2592 0.3207 0.6334
C2 C 0.4673(3) 0.38421(15) 0.58918(11)
C3 C 0.5839(3) 0.32608(14) 0.55051(10)
C4 C 0.5978(3) 0.24438(14) 0.58062(11)
C5 C 0.4804(3) 0.23739(15) 0.64121(12)
H2 H 0.5516 0.2247 0.6847
H3 H 0.3925 0.1886 0.6333
C6 C 0.4104(4) 0.37470(17) 0.71490(12)
H4 H 0.5364 0.3812 0.7281
H5 H 0.3540 0.3383 0.7497
H6 H 0.3550 0.4344 0.7121
C7 C 0.8298(3) 0.34295(14) 0.47500(11)
C8 C 1.0363(3) 0.38386(17) 0.38785(12)
C9 C 1.190(2) 0.3982(8) 0.4442(7)
H7 H 1.2069 0.3429 0.4715
H8 H 1.1596 0.4479 0.4748
H9 H 1.2986 0.4127 0.4217
C10 C 1.0422(15) 0.3030(6) 0.3501(5)
H10 H 1.1523 0.3003 0.3260
H11 H 0.9414 0.3005 0.3160
H12 H 1.0369 0.2517 0.3818
C11 C 1.0361(11) 0.4714(5) 0.3417(4)
H13 H 1.1414 0.4717 0.3145
H14 H 1.0369 0.5248 0.3716
H15 H 0.9300 0.4721 0.3103
C12 C 0.6995(3) 0.16423(14) 0.56008(11)
C13 C 0.8224(3) 0.12579(15) 0.60288(11)
H16 H 0.8670 0.0694 0.5884
C14 C 0.8966(3) 0.16042(15) 0.66969(11)
C15 C 0.9192(3) 0.25214(16) 0.68305(13)
H17 H 0.8879 0.2947 0.6477
C16 C 0.9863(3) 0.28204(18) 0.74695(13)
H18 H 0.9989 0.3449 0.7552
C17 C 1.0354(3) 0.22149(18) 0.79899(12)
H19 H 1.0795 0.2424 0.8431
C18 C 1.0196(3) 0.13049(17) 0.78608(12)
H20 H 1.0557 0.0883 0.8211
C19 C 0.9512(3) 0.10024(16) 0.72234(12)
H21 H 0.9412 0.0372 0.7142
C20 C 0.6461(3) 0.12253(14) 0.49216(11)
C21 C 0.4725(3) 0.12734(16) 0.46556(12)
H22 H 0.3890 0.1616 0.4893
C22 C 0.4196(4) 0.08294(17) 0.40488(13)
H23 H 0.2999 0.0863 0.3876
C23 C 0.5393(5) 0.03390(18) 0.36935(13)
H24 H 0.5021 0.0023 0.3283
C24 C 0.7124(5) 0.03095(19) 0.39366(14)
H25 H 0.7961 -0.0015 0.3687
C25 C 0.7663(4) 0.07508(17) 0.45453(13)
H26 H 0.8869 0.0728 0.4707
N1 N 0.6627(2) 0.36273(13) 0.49354(9)
O1 O 0.44155(19) 0.46424(10) 0.57823(7)
O2 O 0.9285(2) 0.29149(12) 0.50521(10)
O3 O 0.86369(19) 0.39045(11) 0.41890(8)
H27 H 0.616(3) 0.4103(16) 0.4762(12)
C26? C 1.170(3) 0.4219(10) 0.4326(8)
H28? H 1.1826 0.3867 0.4755
H29? H 1.1392 0.4842 0.4435
H30? H 1.2826 0.4213 0.4098
C27? C 1.076(2) 0.2781(7) 0.3722(7)
H31? H 0.9731 0.2511 0.3472
H32? H 1.1000 0.2460 0.4161
H33? H 1.1789 0.2734 0.3440
C28? C 1.0002(12) 0.4273(6) 0.3185(4)
H34? H 1.1101 0.4312 0.2944
H35? H 0.9529 0.4880 0.3249
H36? H 0.9139 0.3912 0.2909
loop_
_geom_bond_atom_site_label_1
_geom_bond_atom_site_label_2
_geom_bond_site_symmetry_1
_geom_bond_site_symmetry_2
C1 H1 1_555 1_555
C2 C1 1_555 1_555
C3 C2 1_555 1_555
C4 C3 1_555 1_555
C5 C1 1_555 1_555
H2 C5 1_555 1_555
H3 C5 1_555 1_555
C6 C1 1_555 1_555
H4 C6 1_555 1_555
H5 C6 1_555 1_555
H6 C6 1_555 1_555
C7 N1 1_555 1_555
C8 C9 1_555 1_555
C9 H7 1_555 1_555
H8 C9 1_555 1_555
H9 C9 1_555 1_555
C10 C8 1_555 1_555
H10 C10 1_555 1_555
H11 C10 1_555 1_555
H12 C10 1_555 1_555
C11 C8 1_555 1_555
H13 C11 1_555 1_555
H14 C11 1_555 1_555
H15 C11 1_555 1_555
C12 C4 1_555 1_555
C13 C12 1_555 1_555
H16 C13 1_555 1_555
C14 C13 1_555 1_555
C15 C14 1_555 1_555
H17 C15 1_555 1_555
C16 C15 1_555 1_555
H18 C16 1_555 1_555
C17 C16 1_555 1_555
H19 C17 1_555 1_555
C18 C17 1_555 1_555
H20 C18 1_555 1_555
C19 C14 1_555 1_555
H21 C19 1_555 1_555
C20 C12 1_555 1_555
C21 C20 1_555 1_555
H22 C21 1_555 1_555
C22 C21 1_555 1_555
H23 C22 1_555 1_555
C23 C22 1_555 1_555
H24 C23 1_555 1_555
C24 C23 1_555 1_555
H25 C24 1_555 1_555
C25 C20 1_555 1_555
H26 C25 1_555 1_555
N1 C3 1_555 1_555
O1 C2 1_555 1_555
O2 C7 1_555 1_555
O3 C7 1_555 1_555
H27 N1 1_555 1_555
C4 C5 1_555 1_555
C8 O3 1_555 1_555
C18 C19 1_555 1_555
C24 C25 1_555 1_555

#END
