
#######################################################################
#
#                 Cambridge Crystallographic Data Centre
#                                CCDC 
#
#######################################################################
#
# If this CIF has been generated from an entry in the Cambridge 
# Structural Database, then it will include bibliographic, chemical, 
# crystal, experimental, refinement or atomic coordinate data resulting 
# from the CCDC's data processing and validation procedures.
#
#######################################################################

data_SIWMAO
_chemical_formula_moiety         'C18 H14 N4 S7'
_chemical_name_systematic        
6-(4,5-bis(propylsulfanyl)-1,3-dithiol-2-ylidene)[1,3]dithiolo[4,5-f][2,1,3]benzothiadiazole-4,8-dicarbonitrile
_symmetry_cell_setting           triclinic
_symmetry_space_group_name_H-M   'P -1'
_symmetry_Int_Tables_number      2
_space_group_name_Hall           '-P 1'
loop_
_symmetry_equiv_pos_site_id
_symmetry_equiv_pos_as_xyz
1 x,y,z
2 -x,-y,-z
_cell_length_a                   5.2159(3)
_cell_length_b                   12.5664(17)
_cell_length_c                   17.7605(19)
_cell_angle_alpha                71.456(11)
_cell_angle_beta                 87.369(7)
_cell_angle_gamma                78.324(8)
_cell_volume                     1080.62
_exptl_crystal_colour            'light blue'
_exptl_crystal_description       plate
_cell_formula_units_Z            2
loop_
_atom_site_label
_atom_site_type_symbol
_atom_site_fract_x
_atom_site_fract_y
_atom_site_fract_z
S1 S 0.8225(5) 0.0877(2) 0.74382(14)
S2 S 1.3094(4) 0.32991(19) 0.74557(14)
S3 S 1.5749(5) 0.1469(2) 0.98829(14)
S4 S 1.2162(5) 0.12093(19) 0.86890(14)
S5 S 0.9122(5) 0.3050(2) 0.62715(14)
S6 S 1.6649(4) 0.3843(2) 0.85026(15)
S7 S 0.1291(5) 0.1383(2) 0.44203(16)
C1 C 0.3710(18) 0.1074(8) 0.5596(6)
C2 C 0.4932(17) 0.0679(7) 0.6364(6)
N1 N 0.2086(16) 0.0581(7) 0.5327(5)
C3 C 0.4152(18) 0.2116(8) 0.5031(6)
C4 C 1.2418(19) 0.5685(8) 0.8093(6)
H1 H 1.1359 0.5081 0.8234
H2 H 1.2617 0.5901 0.8574
C5 C 1.5104(18) 0.5216(8) 0.7830(6)
H3 H 1.6251 0.5772 0.7781
H4 H 1.4927 0.5139 0.7298
C6 C 0.5825(18) 0.2772(8) 0.5229(5)
C7 C 0.4565(18) -0.0359(8) 0.6949(6)
C8 C 0.6578(17) 0.1312(7) 0.6534(5)
N2 N 0.4406(19) -0.1188(8) 0.7445(6)
C9 C 1.4213(18) 0.1996(8) 0.8954(6)
C10 C 0.7007(18) 0.2364(7) 0.5971(6)
C11 C 1.1438(17) 0.2164(7) 0.7732(5)
C12 C 1.139(2) 0.2734(10) 1.0421(7)
H5 H 0.9868 0.2687 1.0777
H6 H 1.0706 0.3072 0.9867
C13 C 0.9793(17) 0.2048(7) 0.7213(5)
N3 N 0.2936(16) 0.2392(7) 0.4335(5)
C14 C 0.632(2) 0.3803(9) 0.4670(6)
C15 C 1.100(2) 0.6719(9) 0.7449(8)
H7 H 1.2107 0.7294 0.7279
H8 H 0.9358 0.7044 0.7655
H9 H 1.0623 0.6488 0.6995
C16 C 1.4570(17) 0.2974(8) 0.8391(5)
C17 C 1.295(2) 0.1542(9) 1.0533(6)
H10 H 1.1765 0.1068 1.0441
H11 H 1.3582 0.1202 1.1092
N4 N 0.678(2) 0.4647(8) 0.4239(6)
C18 C 1.298(2) 0.3512(9) 1.0593(8)
H12 H 1.3661 0.3183 1.114
H13 H 1.1864 0.4267 1.0524
H14 H 1.4439 0.3593 1.0225
loop_
_geom_bond_atom_site_label_1
_geom_bond_atom_site_label_2
_geom_bond_site_symmetry_1
_geom_bond_site_symmetry_2
S1 C8 1_555 1_555
S2 C11 1_555 1_555
S3 C9 1_555 1_555
S4 C9 1_555 1_555
S5 C10 1_555 1_555
S6 C5 1_555 1_555
S7 N1 1_555 1_555
C1 C2 1_555 1_555
C2 C7 1_555 1_555
N1 C1 1_555 1_555
C3 C1 1_555 1_555
C4 H1 1_555 1_555
H2 C4 1_555 1_555
C5 C4 1_555 1_555
H3 C5 1_555 1_555
H4 C5 1_555 1_555
C6 C3 1_555 1_555
C7 N2 1_555 1_555
C8 C2 1_555 1_555
C9 C16 1_555 1_555
C10 C6 1_555 1_555
C11 S4 1_555 1_555
C12 H5 1_555 1_555
H6 C12 1_555 1_555
C13 S1 1_555 1_555
N3 S7 1_555 1_555
C14 C6 1_555 1_555
C15 C4 1_555 1_555
H7 C15 1_555 1_555
H8 C15 1_555 1_555
H9 C15 1_555 1_555
C16 S2 1_555 1_555
C17 S3 1_555 1_555
H10 C17 1_555 1_555
H11 C17 1_555 1_555
N4 C14 1_555 1_555
C18 C12 1_555 1_555
H12 C18 1_555 1_555
H13 C18 1_555 1_555
H14 C18 1_555 1_555
S5 C13 1_555 1_555
S6 C16 1_555 1_555
C3 N3 1_555 1_555
C8 C10 1_555 1_555
C11 C13 1_555 1_555
C12 C17 1_555 1_555

#END
