
#######################################################################
#
#                 Cambridge Crystallographic Data Centre
#                                CCDC 
#
#######################################################################
#
# If this CIF has been generated from an entry in the Cambridge 
# Structural Database, then it will include bibliographic, chemical, 
# crystal, experimental, refinement or atomic coordinate data resulting 
# from the CCDC's data processing and validation procedures.
#
#######################################################################

data_SIWMOC
_chemical_formula_moiety         'C25 H22 N2 O1'
_chemical_name_systematic        
(Z)-3-(1,2-Diphenylvinyl)-5-methyl-2-(pyridin-2-ylamino)cyclopent-2-en-1-one
_symmetry_cell_setting           monoclinic
_symmetry_space_group_name_H-M   'C c'
_symmetry_Int_Tables_number      9
_space_group_name_Hall           'C -2yc'
loop_
_symmetry_equiv_pos_site_id
_symmetry_equiv_pos_as_xyz
1 x,y,z
2 x,-y,1/2+z
3 1/2+x,1/2+y,z
4 1/2+x,1/2-y,1/2+z
_cell_length_a                   16.425
_cell_length_b                   14.739
_cell_length_c                   16.609
_cell_angle_alpha                90
_cell_angle_beta                 90.30
_cell_angle_gamma                90
_cell_volume                     4020.79
_exptl_crystal_colour            colorless
_exptl_crystal_description       prism
_cell_formula_units_Z            8
loop_
_atom_site_label
_atom_site_type_symbol
_atom_site_fract_x
_atom_site_fract_y
_atom_site_fract_z
O1 O 0.7224(5) -0.1381(4) 0.6957(5)
N1 N 0.7920(5) 0.0103(5) 0.7812(5)
N2 N 0.7430(5) 0.1457(5) 0.8342(4)
C1 C 0.7150(6) -0.0597(7) 0.6682(6)
C2 C 0.7537(5) 0.0205(5) 0.7061(6)
C3 C 0.7411(5) 0.0923(6) 0.6588(6)
C4 C 0.6914(7) 0.0678(7) 0.5842(6)
H1 H 0.7241 0.0758 0.5348
H2 H 0.6421 0.1063 0.5801
C5 C 0.6678(7) -0.0332(6) 0.5957(7)
H3 H 0.6869 -0.0692 0.5484
C6 C 0.5779(7) -0.0460(7) 0.6057(7)
H4 H 0.5596 -0.0129 0.6534
H5 H 0.5659 -0.1107 0.6121
H6 H 0.5494 -0.0227 0.5580
C7 C 0.7941(5) 0.0733(5) 0.8426(6)
C8 C 0.7441(6) 0.2076(6) 0.8949(6)
H7 H 0.7107 0.2599 0.8897
C9 C 0.7900(6) 0.1990(7) 0.9621(7)
H8 H 0.7877 0.2438 1.0031
C10 C 0.8421(6) 0.1216(7) 0.9710(7)
H9 H 0.8764 0.1145 1.0168
C11 C 0.8401(7) 0.0580(6) 0.9106(7)
H10 H 0.8705 0.0035 0.9158
C12 C 0.7772(6) 0.1868(6) 0.6671(6)
C13 C 0.7338(5) 0.2616(6) 0.6559(6)
H11 H 0.7643 0.3156 0.6479
C14 C 0.6463(5) 0.2721(5) 0.6543(5)
C15 C 0.5926(6) 0.2161(6) 0.6965(6)
H12 H 0.6145 0.1684 0.7284
C16 C 0.5099(6) 0.2271(7) 0.6938(6)
H13 H 0.4757 0.1860 0.7218
C17 C 0.4755(6) 0.2981(7) 0.6503(6)
H14 H 0.4181 0.3062 0.6481
C18 C 0.5286(7) 0.3583(7) 0.6091(7)
H15 H 0.5068 0.4084 0.5801
C19 C 0.6088(6) 0.3447(6) 0.6110(6)
H16 H 0.6427 0.3854 0.5821
C20 C 0.8656(6) 0.1898(5) 0.6832(5)
C21 C 0.9198(6) 0.1233(6) 0.6563(7)
H17 H 0.8988 0.0744 0.6252
C22 C 1.0023(6) 0.1253(8) 0.6727(7)
H18 H 1.0369 0.0773 0.6559
C23 C 1.0323(8) 0.1971(8) 0.7133(8)
H19 H 1.0890 0.2005 0.7246
C24 C 0.9814(6) 0.2658(7) 0.7385(7)
H20 H 1.0042 0.3177 0.7638
C25 C 0.9012(6) 0.2610(6) 0.7282(6)
H21 H 0.8674 0.3061 0.7514
O2 O 0.8740(4) 0.8521(4) 0.8469(5)
N3 N 0.7985(5) 0.7031(4) 0.7698(5)
N4 N 0.7396(6) 0.6522(6) 0.6444(6)
C26 C 0.8800(5) 0.7763(6) 0.8743(6)
C27 C 0.9232(8) 0.7500(6) 0.9498(8)
H22 H 0.8914 0.7777 0.9947
C28 C 0.9118(7) 0.6485(6) 0.9576(7)
H23 H 0.9650 0.6170 0.9563
H24 H 0.8844 0.6335 1.0089
C29 C 0.8605(6) 0.6209(6) 0.8880(6)
C30 C 0.8444(6) 0.6940(5) 0.8377(6)
C31 C 1.0030(9) 0.7855(9) 0.9569(10)
H25 H 1.0392 0.7532 0.9200
H26 H 1.0225 0.7778 1.0123
H27 H 1.0025 0.8502 0.9432
C32 C 0.7966(6) 0.6371(6) 0.7063(6)
C33 C 0.7362(6) 0.5856(6) 0.5848(6)
H28 H 0.6980 0.5908 0.5419
C34 C 0.7884(6) 0.5121(6) 0.5882(6)
H29 H 0.7874 0.4659 0.5483
C35 C 0.8425(6) 0.5092(6) 0.6528(6)
H30 H 0.8797 0.4600 0.6551
C36 C 0.8458(4) 0.5699(4) 0.7111(4)
H31 H 0.8831 0.5641 0.7547
C37 C 0.8200(6) 0.5302(6) 0.8790(6)
C38 C 0.8644(6) 0.4521(7) 0.8915(6)
H32 H 0.8330 0.3988 0.9000
C39 C 0.9505(5) 0.4394(6) 0.8938(5)
C40 C 1.0063(5) 0.4922(6) 0.8481(6)
H33 H 0.9866 0.5421 0.8175
C41 C 1.0861(6) 0.4729(7) 0.8474(7)
H34 H 1.1222 0.5100 0.8173
C42 C 1.1164(6) 0.3998(7) 0.8897(6)
H35 H 1.1730 0.3866 0.8877
C43 C 1.0671(7) 0.3471(7) 0.9338(6)
H36 H 1.0890 0.2968 0.9624
C44 C 0.9829(6) 0.3660(6) 0.9381(6)
H37 H 0.9484 0.3296 0.9706
C45 C 0.7302(5) 0.5262(5) 0.8681(5)
C46 C 0.6791(7) 0.5912(7) 0.8994(6)
H38 H 0.7019 0.6421 0.9265
C47 C 0.5966(6) 0.5841(7) 0.8924(7)
H39 H 0.5629 0.6278 0.9180
C48 C 0.5597(7) 0.5125(7) 0.8475(7)
H40 H 0.5023 0.5090 0.8408
C49 C 0.6113(7) 0.4476(6) 0.8137(7)
H41 H 0.5889 0.3982 0.7842
C50 C 0.6927(6) 0.4549(5) 0.8228(6)
H42 H 0.7265 0.4108 0.7980
loop_
_geom_bond_atom_site_label_1
_geom_bond_atom_site_label_2
_geom_bond_site_symmetry_1
_geom_bond_site_symmetry_2
O1 C1 1_555 1_555
N1 C2 1_555 1_555
N2 C7 1_555 1_555
C1 C2 1_555 1_555
C2 C3 1_555 1_555
C3 C4 1_555 1_555
C4 H1 1_555 1_555
H2 C4 1_555 1_555
C5 C1 1_555 1_555
H3 C5 1_555 1_555
C6 C5 1_555 1_555
H4 C6 1_555 1_555
H5 C6 1_555 1_555
H6 C6 1_555 1_555
C7 N1 1_555 1_555
C8 N2 1_555 1_555
H7 C8 1_555 1_555
C9 C8 1_555 1_555
H8 C9 1_555 1_555
C10 C9 1_555 1_555
H9 C10 1_555 1_555
C11 C7 1_555 1_555
H10 C11 1_555 1_555
C12 C3 1_555 1_555
C13 C12 1_555 1_555
H11 C13 1_555 1_555
C14 C13 1_555 1_555
C15 C14 1_555 1_555
H12 C15 1_555 1_555
C16 C15 1_555 1_555
H13 C16 1_555 1_555
C17 C16 1_555 1_555
H14 C17 1_555 1_555
C18 C17 1_555 1_555
H15 C18 1_555 1_555
C19 C14 1_555 1_555
H16 C19 1_555 1_555
C20 C12 1_555 1_555
C21 C20 1_555 1_555
H17 C21 1_555 1_555
C22 C21 1_555 1_555
H18 C22 1_555 1_555
C23 C22 1_555 1_555
H19 C23 1_555 1_555
C24 C23 1_555 1_555
H20 C24 1_555 1_555
C25 C20 1_555 1_555
H21 C25 1_555 1_555
O2 C26 1_555 1_555
N3 C30 1_555 1_555
N4 C32 1_555 1_555
C26 C27 1_555 1_555
C27 H22 1_555 1_555
C28 C27 1_555 1_555
H23 C28 1_555 1_555
H24 C28 1_555 1_555
C29 C28 1_555 1_555
C30 C26 1_555 1_555
C31 C27 1_555 1_555
H25 C31 1_555 1_555
H26 C31 1_555 1_555
H27 C31 1_555 1_555
C32 N3 1_555 1_555
C33 N4 1_555 1_555
H28 C33 1_555 1_555
C34 C33 1_555 1_555
H29 C34 1_555 1_555
C35 C34 1_555 1_555
H30 C35 1_555 1_555
C36 C32 1_555 1_555
H31 C36 1_555 1_555
C37 C29 1_555 1_555
C38 C37 1_555 1_555
H32 C38 1_555 1_555
C39 C38 1_555 1_555
C40 C39 1_555 1_555
H33 C40 1_555 1_555
C41 C40 1_555 1_555
H34 C41 1_555 1_555
C42 C41 1_555 1_555
H35 C42 1_555 1_555
C43 C42 1_555 1_555
H36 C43 1_555 1_555
C44 C39 1_555 1_555
H37 C44 1_555 1_555
C45 C37 1_555 1_555
C46 C45 1_555 1_555
H38 C46 1_555 1_555
C47 C46 1_555 1_555
H39 C47 1_555 1_555
C48 C47 1_555 1_555
H40 C48 1_555 1_555
C49 C48 1_555 1_555
H41 C49 1_555 1_555
C50 C45 1_555 1_555
H42 C50 1_555 1_555
C4 C5 1_555 1_555
C10 C11 1_555 1_555
C18 C19 1_555 1_555
C24 C25 1_555 1_555
C29 C30 1_555 1_555
C35 C36 1_555 1_555
C43 C44 1_555 1_555
C49 C50 1_555 1_555

#END
