
#######################################################################
#
#                 Cambridge Crystallographic Data Centre
#                                CCDC 
#
#######################################################################
#
# If this CIF has been generated from an entry in the Cambridge 
# Structural Database, then it will include bibliographic, chemical, 
# crystal, experimental, refinement or atomic coordinate data resulting 
# from the CCDC's data processing and validation procedures.
#
#######################################################################

data_SIWPOF
_chemical_formula_moiety         'C22 H19 N4 1+,C24 H19 N2 1-'
_chemical_name_systematic        
"N-(2-Methylphenyl)-N-phenyl-11H-pyrrolo[1',2':3,4][1,2,3]triazolo[1,2-a]pyridazin-11-iminium (1-(phenyl(9H-pyrrolo[1,2-a]indol-9-ylidene)methyl)-1,6-dihydropyridin-2-yl)methanide"
_symmetry_cell_setting           monoclinic
_symmetry_space_group_name_H-M   'P 21/n'
_symmetry_Int_Tables_number      14
_space_group_name_Hall           '-P 2yn'
loop_
_symmetry_equiv_pos_site_id
_symmetry_equiv_pos_as_xyz
1 x,y,z
2 1/2-x,1/2+y,1/2-z
3 -x,-y,-z
4 1/2+x,1/2-y,1/2+z
_cell_length_a                   18.0502(17)
_cell_length_b                   10.1669(9)
_cell_length_c                   19.5904(16)
_cell_angle_alpha                90
_cell_angle_beta                 96.145(3)
_cell_angle_gamma                90
_cell_volume                     3574.47
_exptl_crystal_colour            yellow
_exptl_crystal_description       parallelepiped
_cell_formula_units_Z            4
loop_
_atom_site_label
_atom_site_type_symbol
_atom_site_fract_x
_atom_site_fract_y
_atom_site_fract_z
N1 N 0.8075(3) 0.5849(4) 1.0746(2)
N2 N 0.8395(2) 0.7071(4) 1.0948(2)
N3 N 0.7830(2) 0.9187(4) 1.1397(2)
N4 N 0.7303(2) 0.5939(4) 1.08309(19)
C1 C 0.9234(3) 0.4960(6) 1.0553(3)
H1 H 0.9525 0.4265 1.0425
C2 C 0.8471(3) 0.4805(5) 1.0542(3)
H2 H 0.8238 0.4019 1.0402
C3 C 0.7800(2) 0.7944(4) 1.1160(2)
C4 C 0.7167(2) 0.9786(5) 1.1672(2)
C5 C 0.6945(3) 0.9411(5) 1.2296(3)
C6 C 0.6301(3) 0.9993(7) 1.2512(3)
H3 H 0.6142 0.9750 1.2931
C7 C 0.5918(4) 1.0888(7) 1.2124(4)
H4 H 0.5494 1.1255 1.2278
C8 C 0.6132(4) 1.1296(7) 1.1487(4)
H5 H 0.5858 1.1914 1.1216
C9 C 0.6763(3) 1.0742(6) 1.1286(3)
H6 H 0.6928 1.1014 1.0875
C10 C 0.7377(4) 0.8460(6) 1.2746(3)
H7 H 0.7336 0.7602 1.2541
H8 H 0.7186 0.8437 1.3185
H9 H 0.7891 0.8721 1.2806
C11 C 0.8486(2) 1.0048(4) 1.1371(2)
C12 C 0.8819(3) 1.0655(5) 1.1946(3)
H10 H 0.8626 1.0525 1.2363
C13 C 0.9436(3) 1.1460(6) 1.1926(3)
H11 H 0.9660 1.1841 1.2327
C14 C 0.9707(3) 1.1686(5) 1.1330(4)
H12 H 1.0116 1.2240 1.1319
C15 C 0.9392(3) 1.1112(6) 1.0730(3)
H13 H 0.9586 1.1266 1.0316
C16 C 0.8775(3) 1.0297(5) 1.0757(3)
H14 H 0.8554 0.9913 1.0355
C17 C 0.7126(2) 0.7131(4) 1.1082(2)
C18 C 0.6712(3) 0.5149(4) 1.0714(2)
H15 H 0.6706 0.4298 1.0539
C19 C 0.6158(3) 0.5798(5) 1.0892(2)
H16 H 0.5672 0.5483 1.0867
C20 C 0.6376(3) 0.7013(6) 1.1123(3)
H17 H 0.6069 0.7654 1.1281
C21 C 0.9159(2) 0.7186(5) 1.0953(2)
H18 H 0.9395 0.7969 1.1092
C22 C 0.9566(3) 0.6150(6) 1.0754(3)
H19 H 1.0079 0.6244 1.0753
N5 N 0.7848(3) 0.7638(7) 0.8246(3)
N6 N 0.7702(2) 1.1524(4) 0.91599(19)
C23 C 0.5817(4) 1.2336(6) 0.9614(3)
H20 H 0.5535 1.2994 0.9791
C24 C 0.5490(3) 1.1165(6) 0.9423(3)
H21 H 0.4987 1.1044 0.9469
C25 C 0.5894(3) 1.0137(5) 0.9159(3)
H22 H 0.5662 0.9345 0.9030
C26 C 0.6648(2) 1.0321(4) 0.9092(2)
C27 C 0.7225(2) 0.9503(4) 0.8825(2)
C28 C 0.7183(2) 0.8300(4) 0.8549(2)
C29 C 0.6509(2) 0.7460(4) 0.8509(2)
C30 C 0.6131(3) 0.7146(5) 0.7883(3)
H23 H 0.6304 0.7456 0.7482
C31 C 0.5498(3) 0.6376(5) 0.7843(3)
H24 H 0.5241 0.6200 0.7416
C32 C 0.5248(3) 0.5882(6) 0.8405(4)
H25 H 0.4824 0.5356 0.8367
C33 C 0.8880(6) 0.6266(13) 0.7837(5)
H26 H 0.9252 0.5735 0.7691
C34 C 0.8690(5) 0.5720(9) 0.8482(8)
H27 H 0.8917 0.4993 0.8704
C35 C 0.8151(3) 0.6413(7) 0.8703(6)
H28 H 0.8323 0.6735 0.9159
H29 H 0.7736 0.5827 0.8749
C36 C 0.8116(4) 0.7908(9) 0.7687(4)
C37 C 0.8750(4) 0.7166(9) 0.7388(5)
H30 H 0.8975 0.7329 0.6991
C38 C 0.7839(4) 0.8902(7) 0.7353(4)
H31 H 0.7460 0.9386 0.7520
H32 H 0.8015 0.9140 0.6941
C39 C 0.5620(3) 0.6151(5) 0.9044(4)
H33 H 0.5448 0.5799 0.9436
C40 C 0.6252(3) 0.6949(5) 0.9101(3)
H34 H 0.6500 0.7139 0.9530
C41 C 0.7886(2) 1.0359(5) 0.8882(2)
C42 C 0.8283(3) 1.2361(4) 0.9225(2)
H35 H 0.8288 1.3213 0.9397
C43 C 0.8830(3) 1.1745(5) 0.9000(3)
H36 H 0.9305 1.2096 0.8989
C44 C 0.8630(3) 1.0532(5) 0.8782(2)
H37 H 0.8934 0.9917 0.8598
C45 C 0.6955(3) 1.1559(4) 0.9292(2)
C46 C 0.6565(4) 1.2559(6) 0.9547(3)
H38 H 0.6790 1.3359 0.9671
loop_
_geom_bond_atom_site_label_1
_geom_bond_atom_site_label_2
_geom_bond_site_symmetry_1
_geom_bond_site_symmetry_2
N1 N2 1_555 1_555
N2 C3 1_555 1_555
N3 C3 1_555 1_555
N4 N1 1_555 1_555
C1 H1 1_555 1_555
C2 N1 1_555 1_555
H2 C2 1_555 1_555
C3 C17 1_555 1_555
C4 N3 1_555 1_555
C5 C4 1_555 1_555
C6 C5 1_555 1_555
H3 C6 1_555 1_555
C7 C6 1_555 1_555
H4 C7 1_555 1_555
C8 C7 1_555 1_555
H5 C8 1_555 1_555
C9 C4 1_555 1_555
H6 C9 1_555 1_555
C10 C5 1_555 1_555
H7 C10 1_555 1_555
H8 C10 1_555 1_555
H9 C10 1_555 1_555
C11 N3 1_555 1_555
C12 C11 1_555 1_555
H10 C12 1_555 1_555
C13 C12 1_555 1_555
H11 C13 1_555 1_555
C14 C13 1_555 1_555
H12 C14 1_555 1_555
C15 C14 1_555 1_555
H13 C15 1_555 1_555
C16 C11 1_555 1_555
H14 C16 1_555 1_555
C17 N4 1_555 1_555
C18 N4 1_555 1_555
H15 C18 1_555 1_555
C19 C18 1_555 1_555
H16 C19 1_555 1_555
C20 C17 1_555 1_555
H17 C20 1_555 1_555
C21 N2 1_555 1_555
H18 C21 1_555 1_555
C22 C1 1_555 1_555
H19 C22 1_555 1_555
N5 C28 1_555 1_555
N6 C41 1_555 1_555
C23 H20 1_555 1_555
C24 C23 1_555 1_555
H21 C24 1_555 1_555
C25 C24 1_555 1_555
H22 C25 1_555 1_555
C26 C25 1_555 1_555
C27 C26 1_555 1_555
C28 C27 1_555 1_555
C29 C28 1_555 1_555
C30 C29 1_555 1_555
H23 C30 1_555 1_555
C31 C30 1_555 1_555
H24 C31 1_555 1_555
C32 C31 1_555 1_555
H25 C32 1_555 1_555
C33 H26 1_555 1_555
C34 C33 1_555 1_555
H27 C34 1_555 1_555
C35 N5 1_555 1_555
H28 C35 1_555 1_555
H29 C35 1_555 1_555
C36 N5 1_555 1_555
C37 C33 1_555 1_555
H30 C37 1_555 1_555
C38 C36 1_555 1_555
H31 C38 1_555 1_555
H32 C38 1_555 1_555
C39 C32 1_555 1_555
H33 C39 1_555 1_555
C40 C29 1_555 1_555
H34 C40 1_555 1_555
C41 C27 1_555 1_555
C42 N6 1_555 1_555
H35 C42 1_555 1_555
C43 C42 1_555 1_555
H36 C43 1_555 1_555
C44 C41 1_555 1_555
H37 C44 1_555 1_555
C45 N6 1_555 1_555
C46 C23 1_555 1_555
H38 C46 1_555 1_555
C1 C2 1_555 1_555
C8 C9 1_555 1_555
C15 C16 1_555 1_555
C19 C20 1_555 1_555
C21 C22 1_555 1_555
C26 C45 1_555 1_555
C34 C35 1_555 1_555
C36 C37 1_555 1_555
C39 C40 1_555 1_555
C43 C44 1_555 1_555
C45 C46 1_555 1_555

#END
