
#######################################################################
#
#                 Cambridge Crystallographic Data Centre
#                                CCDC 
#
#######################################################################
#
# If this CIF has been generated from an entry in the Cambridge 
# Structural Database, then it will include bibliographic, chemical, 
# crystal, experimental, refinement or atomic coordinate data resulting 
# from the CCDC's data processing and validation procedures.
#
#######################################################################

data_SIWQEX
_chemical_formula_moiety         'C11 H12 N5 S2 1+,2(H2 O1),Cl1 1-'
_chemical_name_systematic        
'bis{2-[(thiophen-3-yl)methylidene]hydrazinyl}methaniminium chloride dihydrate'
_symmetry_cell_setting           orthorhombic
_symmetry_space_group_name_H-M   'P n a 21'
_symmetry_Int_Tables_number      33
_space_group_name_Hall           'P 2c -2n'
loop_
_symmetry_equiv_pos_site_id
_symmetry_equiv_pos_as_xyz
1 x,y,z
2 -x,-y,1/2+z
3 1/2+x,1/2-y,z
4 1/2-x,1/2+y,1/2+z
_cell_length_a                   7.4634(10)
_cell_length_b                   16.630(2)
_cell_length_c                   13.4172(17)
_cell_angle_alpha                90
_cell_angle_beta                 90
_cell_angle_gamma                90
_cell_volume                     1665.29
_exptl_crystal_colour            white
_exptl_crystal_description       block
_cell_formula_units_Z            4
loop_
_atom_site_label
_atom_site_type_symbol
_atom_site_fract_x
_atom_site_fract_y
_atom_site_fract_z
S1 S -0.09213(19) 0.69167(9) 0.53374(13)
S2 S 1.5861(2) 0.30132(10) 0.30859(17)
N1 N 0.7424(5) 0.5243(2) 0.3411(3)
H1 H 0.856(3) 0.519(2) 0.304(3)
H2 H 0.639(5) 0.560(3) 0.329(5)
N2 N 0.8908(5) 0.4526(2) 0.4640(3)
H3 H 0.8977 0.4367 0.5249
N3 N 1.0237(5) 0.4355(2) 0.3955(3)
N4 N 0.6144(5) 0.5049(2) 0.4957(3)
H4 H 0.6145 0.4812 0.5527
N5 N 0.4757(5) 0.5543(2) 0.4668(3)
C1 C 0.7495(6) 0.4955(2) 0.4305(4)
C2 C 1.1595(7) 0.3985(3) 0.4314(4)
H5 H 1.1634 0.3875 0.4993
C3 C 1.3062(6) 0.3735(2) 0.3692(4)
C4 C 1.3179(7) 0.3855(3) 0.2668(4)
H6 H 1.2347 0.4146 0.2299
C5 C 1.4704(9) 0.3484(3) 0.2255(5)
H7 H 1.5008 0.3508 0.1583
C6 C 1.4492(8) 0.3280(3) 0.4032(4)
H8 H 1.4675 0.3141 0.4695
C7 C 0.3455(6) 0.5583(3) 0.5295(4)
H9 H 0.3481 0.5279 0.5877
C8 C 0.1941(6) 0.6108(2) 0.5085(4)
C9 C 0.1619(7) 0.6515(3) 0.4183(4)
H10 H 0.2351 0.6466 0.3625
C10 C 0.0114(8) 0.6990(4) 0.4209(4)
H11 H -0.0284 0.7308 0.3683
C11 C 0.0643(7) 0.6275(3) 0.5784(5)
H12 H 0.0628 0.6061 0.6425
Cl1 Cl 0.05169(16) 0.11340(7) 0.68280(11)
O1 O 0.9722(5) 0.4299(2) 0.6758(3)
H13 H 1.019(5) 0.3803(14) 0.682(5)
H14 H 0.856(2) 0.417(2) 0.684(5)
O2 O 0.1762(6) 0.2949(2) 0.6624(6)
H15 H 0.156(10) 0.255(3) 0.706(4)
H16 H 0.285(5) 0.299(4) 0.636(5)
loop_
_geom_bond_atom_site_label_1
_geom_bond_atom_site_label_2
_geom_bond_site_symmetry_1
_geom_bond_site_symmetry_2
S1 C10 1_555 1_555
S2 C5 1_555 1_555
N1 H1 1_555 1_555
H2 N1 1_555 1_555
N2 H3 1_555 1_555
N3 N2 1_555 1_555
N4 H4 1_555 1_555
N5 N4 1_555 1_555
C1 N1 1_555 1_555
C2 N3 1_555 1_555
H5 C2 1_555 1_555
C3 C2 1_555 1_555
C4 C3 1_555 1_555
H6 C4 1_555 1_555
C5 C4 1_555 1_555
H7 C5 1_555 1_555
C6 S2 1_555 1_555
H8 C6 1_555 1_555
C7 N5 1_555 1_555
H9 C7 1_555 1_555
C8 C7 1_555 1_555
C9 C8 1_555 1_555
H10 C9 1_555 1_555
C10 C9 1_555 1_555
H11 C10 1_555 1_555
C11 S1 1_555 1_555
H12 C11 1_555 1_555
O1 H13 1_555 1_555
H14 O1 1_555 1_555
O2 H15 1_555 1_555
H16 O2 1_555 1_555
N2 C1 1_555 1_555
N4 C1 1_555 1_555
C3 C6 1_555 1_555
C8 C11 1_555 1_555

#END
