
#######################################################################
#
#                 Cambridge Crystallographic Data Centre
#                                CCDC 
#
#######################################################################
#
# If this CIF has been generated from an entry in the Cambridge 
# Structural Database, then it will include bibliographic, chemical, 
# crystal, experimental, refinement or atomic coordinate data resulting 
# from the CCDC's data processing and validation procedures.
#
#######################################################################

data_SIWQUN
_chemical_formula_moiety         'C26 H40 N2 O5'
_chemical_name_systematic        
't-butyl [8-(hydroxymethyl)-3,16-dimethoxy-9-methyl-9-azatricyclo[11.3.1.1^2,6^]octadeca-3,6(18),13(17),15-tetraen-11-yl]carbamate'
_symmetry_cell_setting           monoclinic
_symmetry_space_group_name_H-M   'P 21'
_symmetry_Int_Tables_number      4
_space_group_name_Hall           'P 2yb'
loop_
_symmetry_equiv_pos_site_id
_symmetry_equiv_pos_as_xyz
1 x,y,z
2 -x,1/2+y,-z
_cell_length_a                   10.4688(15)
_cell_length_b                   9.4152(15)
_cell_length_c                   12.787(2)
_cell_angle_alpha                90
_cell_angle_beta                 91.847(8)
_cell_angle_gamma                90
_cell_volume                     1259.71
_exptl_crystal_colour            colorless
_exptl_crystal_description       shard
_cell_formula_units_Z            2
loop_
_atom_site_label
_atom_site_type_symbol
_atom_site_fract_x
_atom_site_fract_y
_atom_site_fract_z
O1 O 0.7731(10) 0.3468(11) 1.2161(9)
O2 O 0.8942(11) 0.6788(10) 0.7041(8)
O3 O 0.3124(10) 0.3134(12) 0.8756(10)
H1 H 0.2327 0.3022 0.8730
N1 N 0.5818(11) 0.0693(12) 0.9331(8)
N2 N 0.7174(11) 0.1451(13) 1.1250(8)
H2 H 0.6841 0.0596 1.1295
O4 O 1.0844(10) 0.3104(13) 0.6207(8)
O5 O 0.6753(11) 0.1536(14) 1.2928(7)
C1 C 0.5104(13) 0.1900(14) 0.8848(10)
H3 H 0.5369 0.2760 0.9260
C2 C 0.7242(12) 0.2283(15) 1.2116(10)
C3 C 0.3738(14) 0.1788(15) 0.8942(11)
H4 H 0.3396 0.1082 0.8432
H5 H 0.3545 0.1451 0.9653
C4 C 0.7551(12) 0.3221(14) 0.7136(10)
H6 H 0.7758 0.2290 0.6909
C5 C 1.0324(14) 0.1183(16) 0.8756(11)
H7 H 0.9765 0.0335 0.8730
H8 H 1.1086 0.0946 0.9200
C6 C 0.9067(13) 0.2069(16) 1.0299(10)
H9 H 0.9309 0.2847 1.0787
H10 H 0.9441 0.1178 1.0584
C7 C 0.8052(13) 0.5757(15) 0.7299(11)
C8 C 0.9626(12) 0.2365(16) 0.9256(9)
C9 C 0.7155(11) 0.0809(15) 0.9424(10)
H11 H 0.7487 0.1069 0.8733
H12 H 0.7516 -0.0130 0.9618
C10 C 0.8527(11) 0.4321(16) 0.6988(11)
H13 H 0.8741 0.4349 0.6232
C11 C 0.6938(13) 0.5988(14) 0.7651(11)
H14 H 0.6709 0.6946 0.7783
C12 C 0.7634(12) 0.1932(14) 1.0252(10)
H15 H 0.7246 0.2876 1.0077
C13 C 1.0750(12) 0.1504(15) 0.7657(11)
H16 H 1.1230 0.0810 0.7300
C14 C 0.6440(13) 0.3380(14) 0.7541(11)
C15 C 0.9433(11) 0.3602(15) 0.8771(9)
H17 H 0.9029 0.4331 0.9153
C16 C 0.5477(13) 0.2224(17) 0.7654(11)
H18 H 0.5816 0.1343 0.7344
H19 H 0.4691 0.2486 0.7248
C17 C 0.5418(12) -0.0669(16) 0.8824(12)
H20 H 0.5711 -0.0689 0.8104
H21 H 0.4485 -0.0747 0.8818
H22 H 0.5797 -0.1467 0.9216
C18 C 1.0469(12) 0.2746(15) 0.7169(11)
C19 C 0.9801(11) 0.3947(14) 0.7666(9)
H23 H 1.0377 0.4795 0.7682
C20 C 0.5957(13) 0.4852(16) 0.7874(13)
H24 H 0.5147 0.5072 0.7488
H25 H 0.5787 0.4844 0.8631
C21 C 1.1554(18) 0.206(2) 0.5654(13)
H26 H 1.2417 0.1989 0.5969
H27 H 1.1607 0.2349 0.4920
H28 H 1.1124 0.1142 0.5695
C22 C 0.6893(15) 0.2082(16) 1.4019(11)
C23 C 0.8660(19) 0.8187(19) 0.7319(17)
H29 H 0.7882 0.8497 0.6937
H30 H 0.9373 0.8807 0.7142
H31 H 0.8526 0.8236 0.8073
C24 C 0.8262(14) 0.209(2) 1.4310(13)
H32 H 0.8721 0.1466 1.3839
H33 H 0.8384 0.1758 1.5032
H34 H 0.8594 0.3062 1.4254
C25 C 0.624(2) 0.348(3) 1.4148(12)
H35 H 0.6515 0.3907 1.4817
H36 H 0.5310 0.3334 1.4140
H37 H 0.6457 0.4114 1.3574
C26 C 0.625(2) 0.091(3) 1.4591(15)
H38 H 0.6629 0.0001 1.4397
H39 H 0.5339 0.0912 1.4406
H40 H 0.6375 0.1062 1.5346
loop_
_geom_bond_atom_site_label_1
_geom_bond_atom_site_label_2
_geom_bond_site_symmetry_1
_geom_bond_site_symmetry_2
O1 C2 1_555 1_555
O2 C7 1_555 1_555
O3 H1 1_555 1_555
N1 C1 1_555 1_555
N2 H2 1_555 1_555
O4 C18 1_555 1_555
O5 C2 1_555 1_555
C1 H3 1_555 1_555
C2 N2 1_555 1_555
C3 O3 1_555 1_555
H4 C3 1_555 1_555
H5 C3 1_555 1_555
C4 H6 1_555 1_555
C5 H7 1_555 1_555
H8 C5 1_555 1_555
C6 H9 1_555 1_555
H10 C6 1_555 1_555
C7 C10 1_555 1_555
C8 C5 1_555 1_555
C9 N1 1_555 1_555
H11 C9 1_555 1_555
H12 C9 1_555 1_555
C10 C4 1_555 1_555
H13 C10 1_555 1_555
C11 C7 1_555 1_555
H14 C11 1_555 1_555
C12 N2 1_555 1_555
H15 C12 1_555 1_555
C13 C5 1_555 1_555
H16 C13 1_555 1_555
C14 C4 1_555 1_555
C15 C8 1_555 1_555
H17 C15 1_555 1_555
C16 C1 1_555 1_555
H18 C16 1_555 1_555
H19 C16 1_555 1_555
C17 N1 1_555 1_555
H20 C17 1_555 1_555
H21 C17 1_555 1_555
H22 C17 1_555 1_555
C18 C13 1_555 1_555
C19 C10 1_555 1_555
H23 C19 1_555 1_555
C20 C11 1_555 1_555
H24 C20 1_555 1_555
H25 C20 1_555 1_555
C21 O4 1_555 1_555
H26 C21 1_555 1_555
H27 C21 1_555 1_555
H28 C21 1_555 1_555
C22 O5 1_555 1_555
C23 O2 1_555 1_555
H29 C23 1_555 1_555
H30 C23 1_555 1_555
H31 C23 1_555 1_555
C24 C22 1_555 1_555
H32 C24 1_555 1_555
H33 C24 1_555 1_555
H34 C24 1_555 1_555
C25 C22 1_555 1_555
H35 C25 1_555 1_555
H36 C25 1_555 1_555
H37 C25 1_555 1_555
C26 C22 1_555 1_555
H38 C26 1_555 1_555
H39 C26 1_555 1_555
H40 C26 1_555 1_555
C1 C3 1_555 1_555
C6 C8 1_555 1_555
C6 C12 1_555 1_555
C9 C12 1_555 1_555
C14 C16 1_555 1_555
C14 C20 1_555 1_555
C15 C19 1_555 1_555
C18 C19 1_555 1_555

#END
