
#######################################################################
#
#                 Cambridge Crystallographic Data Centre
#                                CCDC 
#
#######################################################################
#
# If this CIF has been generated from an entry in the Cambridge 
# Structural Database, then it will include bibliographic, chemical, 
# crystal, experimental, refinement or atomic coordinate data resulting 
# from the CCDC's data processing and validation procedures.
#
#######################################################################

data_SIXBAF
_chemical_formula_moiety         'C33 H29 N1 O4 S1'
_chemical_name_systematic        
4-methyl-4-(4-methylphenyl)-1-[(4-methylphenyl)sulfonyl]-5-phenyl-1,3,4,5-tetrahydro-2H-[1]benzofuro[3,2-b]azepin-2-one
_symmetry_cell_setting           orthorhombic
_symmetry_space_group_name_H-M   'P 21 21 21'
_symmetry_Int_Tables_number      19
_space_group_name_Hall           'P 2ac 2ab'
loop_
_symmetry_equiv_pos_site_id
_symmetry_equiv_pos_as_xyz
1 x,y,z
2 1/2-x,-y,1/2+z
3 -x,1/2+y,1/2-z
4 1/2+x,1/2-y,-z
_cell_length_a                   11.043(3)
_cell_length_b                   14.753(5)
_cell_length_c                   17.258(5)
_cell_angle_alpha                90
_cell_angle_beta                 90
_cell_angle_gamma                90
_cell_volume                     2811.63
_exptl_crystal_colour            colorless
_exptl_crystal_description       block
_cell_formula_units_Z            4
loop_
_atom_site_label
_atom_site_type_symbol
_atom_site_fract_x
_atom_site_fract_y
_atom_site_fract_z
S1 S 0.72700(11) 0.69158(9) 0.75337(7)
N1 N 0.7225(3) 0.6939(3) 0.6541(2)
O1 O 0.5535(3) 0.7832(2) 0.6575(2)
C1 C 0.5573(4) 0.6533(3) 0.4962(3)
O2 O 0.8061(3) 0.5158(2) 0.52165(18)
C2 C 0.5940(4) 0.5687(3) 0.5459(3)
H1 H 0.555682 0.580222 0.597464
O3 O 0.7292(3) 0.7830(2) 0.77968(19)
C3 C 0.7262(4) 0.5697(3) 0.5623(2)
O4 O 0.8259(3) 0.6321(3) 0.77018(19)
C4 C 0.7850(4) 0.6247(3) 0.6128(2)
C5 C 0.6258(4) 0.7413(3) 0.6186(3)
C6 C 0.6211(4) 0.7389(3) 0.5313(3)
H2 H 0.704913 0.741673 0.511084
H3 H 0.578099 0.793680 0.512853
C7 C 0.4203(4) 0.6664(3) 0.5056(3)
H4 H 0.378118 0.611128 0.489466
H5 H 0.393561 0.717337 0.473413
H6 H 0.401666 0.679206 0.560068
C8 C 0.5944(4) 0.6456(3) 0.4108(3)
C9 C 0.5097(4) 0.6294(3) 0.3527(3)
H7 H 0.427092 0.620856 0.366364
C10 C 0.5433(5) 0.6255(4) 0.2753(3)
H8 H 0.483221 0.614138 0.237178
C11 C 0.6621(5) 0.6378(3) 0.2523(3)
C12 C 0.7471(5) 0.6533(3) 0.3103(3)
H9 H 0.829512 0.661961 0.296457
C13 C 0.7146(4) 0.6565(3) 0.3876(3)
H10 H 0.775298 0.666242 0.425753
C14 C 0.6988(6) 0.6339(4) 0.1682(3)
H11 H 0.691772 0.571408 0.149416
H12 H 0.782875 0.654286 0.162868
H13 H 0.645742 0.673347 0.137698
C15 C 0.5423(4) 0.4780(3) 0.5209(3)
C16 C 0.5774(5) 0.4322(3) 0.4539(3)
H14 H 0.636468 0.458151 0.420647
C17 C 0.5265(6) 0.3485(3) 0.4356(3)
H15 H 0.551656 0.317719 0.389999
C18 C 0.4395(5) 0.3098(4) 0.4829(3)
H16 H 0.405201 0.252775 0.469885
C19 C 0.4032(5) 0.3543(3) 0.5488(3)
H17 H 0.343322 0.328220 0.581481
C20 C 0.4541(4) 0.4378(3) 0.5678(3)
H18 H 0.428347 0.468059 0.613468
C21 C 0.9131(4) 0.6044(3) 0.6069(3)
C22 C 1.0199(4) 0.6304(3) 0.6443(3)
H19 H 1.018875 0.675076 0.683915
C23 C 1.1270(5) 0.5893(4) 0.6221(3)
H20 H 1.200519 0.607308 0.646190
C24 C 1.1299(5) 0.5220(4) 0.5651(4)
H21 H 1.204967 0.494545 0.551831
C25 C 1.0249(5) 0.4945(4) 0.5276(3)
H22 H 1.025484 0.449393 0.488300
C26 C 0.9197(4) 0.5369(3) 0.5509(3)
C27 C 0.5916(4) 0.6384(3) 0.7804(3)
C28 C 0.4930(5) 0.6886(4) 0.8051(3)
H23 H 0.497718 0.752669 0.809290
C29 C 0.3865(5) 0.6427(4) 0.8237(3)
H24 H 0.318484 0.676331 0.841234
C30 C 0.3774(5) 0.5501(4) 0.8174(3)
C31 C 0.4772(6) 0.5023(4) 0.7923(3)
H25 H 0.472084 0.438292 0.787050
C32 C 0.5848(5) 0.5459(3) 0.7747(3)
H26 H 0.653496 0.511871 0.758679
C33 C 0.2604(5) 0.5013(4) 0.8364(4)
H27 H 0.254510 0.492556 0.892529
H28 H 0.259439 0.442266 0.810430
H29 H 0.191634 0.537677 0.818420
loop_
_geom_bond_atom_site_label_1
_geom_bond_atom_site_label_2
_geom_bond_site_symmetry_1
_geom_bond_site_symmetry_2
S1 N1 1_555 1_555
N1 C4 1_555 1_555
O1 C5 1_555 1_555
C1 C2 1_555 1_555
O2 C3 1_555 1_555
C2 H1 1_555 1_555
O3 S1 1_555 1_555
C3 C2 1_555 1_555
O4 S1 1_555 1_555
C4 C3 1_555 1_555
C5 N1 1_555 1_555
C6 C1 1_555 1_555
H2 C6 1_555 1_555
H3 C6 1_555 1_555
C7 C1 1_555 1_555
H4 C7 1_555 1_555
H5 C7 1_555 1_555
H6 C7 1_555 1_555
C8 C1 1_555 1_555
C9 C8 1_555 1_555
H7 C9 1_555 1_555
C10 C9 1_555 1_555
H8 C10 1_555 1_555
C11 C10 1_555 1_555
C12 C11 1_555 1_555
H9 C12 1_555 1_555
C13 C8 1_555 1_555
H10 C13 1_555 1_555
C14 C11 1_555 1_555
H11 C14 1_555 1_555
H12 C14 1_555 1_555
H13 C14 1_555 1_555
C15 C2 1_555 1_555
C16 C15 1_555 1_555
H14 C16 1_555 1_555
C17 C16 1_555 1_555
H15 C17 1_555 1_555
C18 C17 1_555 1_555
H16 C18 1_555 1_555
C19 C18 1_555 1_555
H17 C19 1_555 1_555
C20 C15 1_555 1_555
H18 C20 1_555 1_555
C21 C4 1_555 1_555
C22 C21 1_555 1_555
H19 C22 1_555 1_555
C23 C22 1_555 1_555
H20 C23 1_555 1_555
C24 C23 1_555 1_555
H21 C24 1_555 1_555
C25 C24 1_555 1_555
H22 C25 1_555 1_555
C26 O2 1_555 1_555
C27 S1 1_555 1_555
C28 C27 1_555 1_555
H23 C28 1_555 1_555
C29 C28 1_555 1_555
H24 C29 1_555 1_555
C30 C29 1_555 1_555
C31 C30 1_555 1_555
H25 C31 1_555 1_555
C32 C27 1_555 1_555
H26 C32 1_555 1_555
C33 C30 1_555 1_555
H27 C33 1_555 1_555
H28 C33 1_555 1_555
H29 C33 1_555 1_555
C5 C6 1_555 1_555
C12 C13 1_555 1_555
C19 C20 1_555 1_555
C21 C26 1_555 1_555
C25 C26 1_555 1_555
C31 C32 1_555 1_555

#END
