
#######################################################################
#
#                 Cambridge Crystallographic Data Centre
#                                CCDC 
#
#######################################################################
#
# If this CIF has been generated from an entry in the Cambridge 
# Structural Database, then it will include bibliographic, chemical, 
# crystal, experimental, refinement or atomic coordinate data resulting 
# from the CCDC's data processing and validation procedures.
#
#######################################################################

data_SIXDUA
_chemical_formula_moiety         'C40 H28 F10 N4'
_chemical_name_systematic        
5,12-di-n-butyl-N,N'-bis(pentafluorophenyl)-5,12-dihydroquinolino[2,3-b]acridine-7,14-di-imine
_symmetry_cell_setting           triclinic
_symmetry_space_group_name_H-M   'P -1'
_symmetry_Int_Tables_number      2
_space_group_name_Hall           '-P 1'
loop_
_symmetry_equiv_pos_site_id
_symmetry_equiv_pos_as_xyz
1 x,y,z
2 -x,-y,-z
_cell_length_a                   7.3925(15)
_cell_length_b                   9.2554(19)
_cell_length_c                   12.899(3)
_cell_angle_alpha                88.42(3)
_cell_angle_beta                 75.51(3)
_cell_angle_gamma                87.38(3)
_cell_volume                     853.472
_exptl_crystal_colour            red
_exptl_crystal_description       needle
_cell_formula_units_Z            1
loop_
_atom_site_label
_atom_site_type_symbol
_atom_site_fract_x
_atom_site_fract_y
_atom_site_fract_z
F1 F 0.1359(3) -0.0398(2) 0.35096(17)
F2 F 0.1910(4) -0.2565(2) 0.2124(3)
F3 F 0.2675(5) -0.1994(4) -0.0030(3)
F4 F 0.2827(5) 0.0769(4) -0.0753(2)
F5 F 0.2251(4) 0.2940(3) 0.06393(16)
N1 N 0.1264(3) 0.2510(2) 0.28066(17)
N2 N 0.2773(3) 0.3237(2) 0.56009(16)
C1 C 0.1801(3) 0.1348(3) 0.2122(2)
C2 C 0.1732(4) -0.0079(3) 0.2452(3)
C3 C 0.2010(5) -0.1199(4) 0.1742(4)
C4 C 0.2395(6) -0.0909(6) 0.0661(4)
C5 C 0.2470(6) 0.0474(6) 0.0314(3)
C6 C 0.2168(5) 0.1598(4) 0.1017(3)
C7 C 0.2006(3) 0.2829(3) 0.35785(19)
C8 C 0.1016(3) 0.3967(3) 0.43001(19)
C9 C 0.1390(3) 0.4113(3) 0.53076(19)
C10 C 0.4058(3) 0.2458(3) 0.4827(2)
C11 C 0.3734(3) 0.2248(2) 0.38055(19)
C12 C 0.5142(3) 0.1546(3) 0.3024(2)
H1 H 0.4964 0.1431 0.2343
C13 C 0.6772(4) 0.1025(3) 0.3244(2)
H2 H 0.7694 0.0570 0.2715
C14 C 0.7038(4) 0.1181(3) 0.4258(2)
H3 H 0.8130 0.0804 0.4413
C15 C 0.5717(4) 0.1884(3) 0.5039(2)
H4 H 0.5923 0.1981 0.5715
C16 C -0.0351(3) 0.4840(3) 0.4011(2)
H5 H -0.0584 0.4726 0.3343
C17 C 0.2928(4) 0.3248(3) 0.6713(2)
H6 H 0.3459 0.2319 0.6881
H7 H 0.1682 0.3359 0.7183
C18 C 0.4107(4) 0.4425(3) 0.6944(2)
H8 H 0.3712 0.5339 0.6667
H9 H 0.5401 0.4221 0.6572
C19 C 0.3970(6) 0.4568(5) 0.8134(3)
H10 H 0.4134 0.3617 0.8441
H11 H 0.4970 0.5157 0.8226
C20 C 0.2150(7) 0.5232(6) 0.8711(3)
H12 H 0.1880 0.6089 0.8332
H13 H 0.2206 0.5479 0.9420
H14 H 0.1184 0.4557 0.8755
F1A F -0.1359(3) 1.0398(2) 0.64904(17)
F2A F -0.1910(4) 1.2565(2) 0.7876(3)
F3A F -0.2675(5) 1.1994(4) 1.0030(3)
F4A F -0.2827(5) 0.9231(4) 1.0753(2)
F5A F -0.2251(4) 0.7060(3) 0.93607(16)
N1A N -0.1264(3) 0.7490(2) 0.71934(17)
N2A N -0.2773(3) 0.6763(2) 0.43991(16)
C1A C -0.1801(3) 0.8652(3) 0.7878(2)
C2A C -0.1732(4) 1.0079(3) 0.7548(3)
C3A C -0.2010(5) 1.1199(4) 0.8258(4)
C4A C -0.2395(6) 1.0909(6) 0.9339(4)
C5A C -0.2470(6) 0.9526(6) 0.9686(3)
C6A C -0.2168(5) 0.8402(4) 0.8983(3)
C7A C -0.2006(3) 0.7171(3) 0.64215(19)
C8A C -0.1016(3) 0.6033(3) 0.56999(19)
C9A C -0.1390(3) 0.5887(3) 0.46924(19)
C10A C -0.4058(3) 0.7542(3) 0.5173(2)
C11A C -0.3734(3) 0.7752(2) 0.61945(19)
C12A C -0.5142(3) 0.8454(3) 0.6976(2)
H1A H -0.4964 0.8569 0.7657
C13A C -0.6772(4) 0.8975(3) 0.6756(2)
H2A H -0.7694 0.9430 0.7285
C14A C -0.7038(4) 0.8819(3) 0.5742(2)
H3A H -0.8130 0.9196 0.5587
C15A C -0.5717(4) 0.8116(3) 0.4961(2)
H4A H -0.5923 0.8019 0.4285
C16A C 0.0351(3) 0.5160(3) 0.5989(2)
H5A H 0.0584 0.5274 0.6657
C17A C -0.2928(4) 0.6752(3) 0.3287(2)
H6A H -0.3459 0.7681 0.3119
H7A H -0.1682 0.6641 0.2817
C18A C -0.4107(4) 0.5575(3) 0.3056(2)
H8A H -0.3712 0.4661 0.3333
H9A H -0.5401 0.5779 0.3428
C19A C -0.3970(6) 0.5432(5) 0.1866(3)
H10A H -0.4134 0.6383 0.1559
H11A H -0.4970 0.4843 0.1774
C20A C -0.2150(7) 0.4768(6) 0.1289(3)
H12A H -0.1880 0.3911 0.1668
H13A H -0.2206 0.4521 0.0580
H14A H -0.1184 0.5443 0.1245
loop_
_geom_bond_atom_site_label_1
_geom_bond_atom_site_label_2
_geom_bond_site_symmetry_1
_geom_bond_site_symmetry_2
F1 C2 1_555 1_555
F2 C3 1_555 1_555
F3 C4 1_555 1_555
F4 C5 1_555 1_555
F5 C6 1_555 1_555
N1 C1 1_555 1_555
N2 C9 1_555 1_555
C1 C2 1_555 1_555
C2 C3 1_555 1_555
C3 C4 1_555 1_555
C4 C5 1_555 1_555
C5 C6 1_555 1_555
C6 C1 1_555 1_555
C7 N1 1_555 1_555
C8 C7 1_555 1_555
C9 C8 1_555 1_555
C10 N2 1_555 1_555
C11 C7 1_555 1_555
C12 C11 1_555 1_555
H1 C12 1_555 1_555
C13 C12 1_555 1_555
H2 C13 1_555 1_555
C14 C13 1_555 1_555
H3 C14 1_555 1_555
C15 C10 1_555 1_555
H4 C15 1_555 1_555
C16 C8 1_555 1_555
H5 C16 1_555 1_555
C17 N2 1_555 1_555
H6 C17 1_555 1_555
H7 C17 1_555 1_555
C18 C17 1_555 1_555
H8 C18 1_555 1_555
H9 C18 1_555 1_555
C19 C18 1_555 1_555
H10 C19 1_555 1_555
H11 C19 1_555 1_555
C20 C19 1_555 1_555
H12 C20 1_555 1_555
H13 C20 1_555 1_555
H14 C20 1_555 1_555
F1A C2A 1_555 1_555
F2A C3A 1_555 1_555
F3A C4A 1_555 1_555
F4A C5A 1_555 1_555
F5A C6A 1_555 1_555
N1A C1A 1_555 1_555
N2A C9A 1_555 1_555
C1A C2A 1_555 1_555
C2A C3A 1_555 1_555
C3A C4A 1_555 1_555
C4A C5A 1_555 1_555
C5A C6A 1_555 1_555
C6A C1A 1_555 1_555
C7A N1A 1_555 1_555
C8A C7A 1_555 1_555
C9A C16 1_555 1_555
C10A N2A 1_555 1_555
C11A C7A 1_555 1_555
C12A C11A 1_555 1_555
H1A C12A 1_555 1_555
C13A C12A 1_555 1_555
H2A C13A 1_555 1_555
C14A C13A 1_555 1_555
H3A C14A 1_555 1_555
C15A C10A 1_555 1_555
H4A C15A 1_555 1_555
C16A C9 1_555 1_555
H5A C16A 1_555 1_555
C17A N2A 1_555 1_555
H6A C17A 1_555 1_555
H7A C17A 1_555 1_555
C18A C17A 1_555 1_555
H8A C18A 1_555 1_555
H9A C18A 1_555 1_555
C19A C18A 1_555 1_555
H10A C19A 1_555 1_555
H11A C19A 1_555 1_555
C20A C19A 1_555 1_555
H12A C20A 1_555 1_555
H13A C20A 1_555 1_555
H14A C20A 1_555 1_555
C10 C11 1_555 1_555
C14 C15 1_555 1_555
C8A C9A 1_555 1_555
C8A C16A 1_555 1_555
C10A C11A 1_555 1_555
C14A C15A 1_555 1_555

#END
