
#######################################################################
#
#                 Cambridge Crystallographic Data Centre
#                                CCDC 
#
#######################################################################
#
# If this CIF has been generated from an entry in the Cambridge 
# Structural Database, then it will include bibliographic, chemical, 
# crystal, experimental, refinement or atomic coordinate data resulting 
# from the CCDC's data processing and validation procedures.
#
#######################################################################

data_SIXDOV
_chemical_formula_moiety         'C32 H27 N1 O4 S1'
_chemical_name_systematic        
5-(4-methylphenyl)-1-[(4-methylphenyl)sulfonyl]-4-phenyl-1,3,4,5-tetrahydro-2H-[1]benzofuro[3,2-b]azepin-2-one
_symmetry_cell_setting           tetragonal
_symmetry_space_group_name_H-M   'P 43 21 2'
_symmetry_Int_Tables_number      96
_space_group_name_Hall           'P 4nw 2abw'
loop_
_symmetry_equiv_pos_site_id
_symmetry_equiv_pos_as_xyz
1 x,y,z
2 -x,-y,1/2+z
3 1/2-y,1/2+x,3/4+z
4 1/2+y,1/2-x,1/4+z
5 1/2-x,1/2+y,3/4-z
6 1/2+x,1/2-y,1/4-z
7 y,x,-z
8 -y,-x,1/2-z
_cell_length_a                   13.6813(19)
_cell_length_b                   13.6813(19)
_cell_length_c                   29.053(6)
_cell_angle_alpha                90
_cell_angle_beta                 90
_cell_angle_gamma                90
_cell_volume                     5438.08
_exptl_crystal_colour            colorless
_exptl_crystal_description       block
_cell_formula_units_Z            8
loop_
_atom_site_label
_atom_site_type_symbol
_atom_site_fract_x
_atom_site_fract_y
_atom_site_fract_z
S1 S -0.17216(6) 0.49068(6) 0.64798(3)
O1 O -0.1147(2) 0.53302(19) 0.68380(8)
O2 O -0.2723(2) 0.4684(2) 0.65574(9)
O3 O -0.26668(17) 0.48439(18) 0.55796(8)
O4 O 0.05147(16) 0.71157(16) 0.57748(7)
N1 N -0.1664(2) 0.57507(19) 0.60450(9)
C1 C 0.0226(2) 0.7603(2) 0.61715(11)
C2 C 0.0723(3) 0.8382(2) 0.63653(12)
H1 H 0.129554 0.864895 0.622928
C3 C 0.0333(3) 0.8748(3) 0.67700(13)
H2 H 0.065398 0.927393 0.692116
C4 C -0.0522(3) 0.8362(3) 0.69614(12)
H3 H -0.077310 0.863872 0.723701
C5 C -0.1010(3) 0.7589(3) 0.67597(12)
H4 H -0.159036 0.733238 0.689183
C6 C -0.0619(2) 0.7195(2) 0.63521(10)
C7 C -0.0844(2) 0.6399(2) 0.60473(11)
C8 C -0.0148(2) 0.6373(2) 0.57153(10)
C9 C -0.0130(2) 0.5718(2) 0.53049(11)
H5 H -0.032668 0.506341 0.542700
C10 C -0.0971(2) 0.6002(2) 0.49609(11)
H6 H -0.111470 0.540575 0.477344
C11 C -0.1918(2) 0.6246(2) 0.52320(11)
H7 H -0.185994 0.691354 0.536007
H8 H -0.247724 0.624296 0.501579
C12 C -0.2131(2) 0.5543(2) 0.56199(11)
C13 C 0.0872(2) 0.5547(2) 0.50905(11)
C14 C 0.1202(2) 0.4592(3) 0.50484(11)
H9 H 0.080510 0.407067 0.515704
C15 C 0.2104(3) 0.4384(3) 0.48498(11)
H10 H 0.231207 0.372413 0.482379
C16 C 0.2703(3) 0.5128(3) 0.46894(11)
C17 C 0.2378(3) 0.6083(3) 0.47395(12)
H11 H 0.278122 0.660468 0.463605
C18 C 0.1481(3) 0.6295(3) 0.49369(12)
H12 H 0.127859 0.695655 0.496758
C19 C 0.3663(3) 0.4905(4) 0.44566(14)
H13 H 0.415303 0.473625 0.468956
H14 H 0.388226 0.548051 0.428419
H15 H 0.357820 0.435408 0.424486
C20 C -0.0747(2) 0.6817(2) 0.46240(11)
C21 C -0.0555(3) 0.7765(3) 0.47695(12)
H16 H -0.055498 0.791088 0.508924
C22 C -0.0365(3) 0.8499(3) 0.44548(13)
H17 H -0.024142 0.914486 0.456043
C23 C -0.0354(3) 0.8303(3) 0.39888(13)
H18 H -0.021428 0.880776 0.377385
C24 C -0.0547(3) 0.7367(3) 0.38390(13)
H19 H -0.054809 0.722560 0.351883
C25 C -0.0739(3) 0.6630(3) 0.41543(11)
H20 H -0.086818 0.598654 0.404705
C26 C -0.1105(3) 0.3901(3) 0.62437(12)
C27 C -0.0093(3) 0.3876(3) 0.62684(12)
H21 H 0.025261 0.434947 0.644392
C28 C 0.0403(3) 0.3154(3) 0.60340(14)
H22 H 0.109662 0.313360 0.605008
C29 C -0.0088(4) 0.2454(3) 0.57744(15)
C30 C -0.1105(4) 0.2470(3) 0.57739(17)
H23 H -0.145376 0.197823 0.561200
C31 C -0.1617(3) 0.3193(3) 0.60060(15)
H24 H -0.231146 0.320073 0.600153
C32 C 0.0471(4) 0.1699(4) 0.5498(2)
H25 H 0.113342 0.193901 0.543737
H26 H 0.013428 0.158295 0.520514
H27 H 0.050612 0.108701 0.567228
loop_
_geom_bond_atom_site_label_1
_geom_bond_atom_site_label_2
_geom_bond_site_symmetry_1
_geom_bond_site_symmetry_2
S1 O1 1_555 1_555
O2 S1 1_555 1_555
O3 C12 1_555 1_555
O4 C1 1_555 1_555
N1 S1 1_555 1_555
C1 C2 1_555 1_555
C2 H1 1_555 1_555
C3 C2 1_555 1_555
H2 C3 1_555 1_555
C4 C3 1_555 1_555
H3 C4 1_555 1_555
C5 C4 1_555 1_555
H4 C5 1_555 1_555
C6 C1 1_555 1_555
C7 N1 1_555 1_555
C8 O4 1_555 1_555
C9 C8 1_555 1_555
H5 C9 1_555 1_555
C10 C9 1_555 1_555
H6 C10 1_555 1_555
C11 C10 1_555 1_555
H7 C11 1_555 1_555
H8 C11 1_555 1_555
C12 N1 1_555 1_555
C13 C9 1_555 1_555
C14 C13 1_555 1_555
H9 C14 1_555 1_555
C15 C14 1_555 1_555
H10 C15 1_555 1_555
C16 C15 1_555 1_555
C17 C16 1_555 1_555
H11 C17 1_555 1_555
C18 C13 1_555 1_555
H12 C18 1_555 1_555
C19 C16 1_555 1_555
H13 C19 1_555 1_555
H14 C19 1_555 1_555
H15 C19 1_555 1_555
C20 C10 1_555 1_555
C21 C20 1_555 1_555
H16 C21 1_555 1_555
C22 C21 1_555 1_555
H17 C22 1_555 1_555
C23 C22 1_555 1_555
H18 C23 1_555 1_555
C24 C23 1_555 1_555
H19 C24 1_555 1_555
C25 C20 1_555 1_555
H20 C25 1_555 1_555
C26 S1 1_555 1_555
C27 C26 1_555 1_555
H21 C27 1_555 1_555
C28 C27 1_555 1_555
H22 C28 1_555 1_555
C29 C28 1_555 1_555
C30 C29 1_555 1_555
H23 C30 1_555 1_555
C31 C26 1_555 1_555
H24 C31 1_555 1_555
C32 C29 1_555 1_555
H25 C32 1_555 1_555
H26 C32 1_555 1_555
H27 C32 1_555 1_555
C5 C6 1_555 1_555
C6 C7 1_555 1_555
C7 C8 1_555 1_555
C11 C12 1_555 1_555
C17 C18 1_555 1_555
C24 C25 1_555 1_555
C30 C31 1_555 1_555

#END
