
#######################################################################
#
#                 Cambridge Crystallographic Data Centre
#                                CCDC 
#
#######################################################################
#
# If this CIF has been generated from an entry in the Cambridge 
# Structural Database, then it will include bibliographic, chemical, 
# crystal, experimental, refinement or atomic coordinate data resulting 
# from the CCDC's data processing and validation procedures.
#
#######################################################################

data_SIXDIO
_chemical_formula_moiety         'C40 H36 F2 N4,C1 H2 Cl2'
_chemical_name_systematic        
"5,12-di-n-butyl-2,9-difluoro-N,N'-diphenyl-5,12-dihydroquinolino[2,3-b]acridine-7,14-di-imine dichloromethane solvate"
_symmetry_cell_setting           triclinic
_symmetry_space_group_name_H-M   'P -1'
_symmetry_Int_Tables_number      2
_space_group_name_Hall           '-P 1'
loop_
_symmetry_equiv_pos_site_id
_symmetry_equiv_pos_as_xyz
1 x,y,z
2 -x,-y,-z
_cell_length_a                   8.602(5)
_cell_length_b                   13.889(8)
_cell_length_c                   15.854(10)
_cell_angle_alpha                70.40(2)
_cell_angle_beta                 79.41(2)
_cell_angle_gamma                88.920(18)
_cell_volume                     1752.11
_exptl_crystal_colour            red
_exptl_crystal_description       needle
_cell_formula_units_Z            2
loop_
_atom_site_label
_atom_site_type_symbol
_atom_site_fract_x
_atom_site_fract_y
_atom_site_fract_z
C1 C 0.8377(3) 0.5595(2) -0.0543(2)
C2 C 0.7923(3) 0.5363(2) 0.0379(2)
H1 H 0.8326 0.5760 0.0682
C3 C 0.6869(3) 0.4542(2) 0.0861(2)
H2 H 0.6555 0.4367 0.1503
C4 C 0.6254(3) 0.39603(18) 0.04057(18)
C5 C 0.6752(3) 0.42178(18) -0.05356(18)
C6 C 0.7842(3) 0.5046(2) -0.1000(2)
H3 H 0.8206 0.5223 -0.1638
C7 C 0.6117(3) 0.36702(18) -0.10574(18)
C8 C 0.6073(4) 0.3767(2) -0.26178(19)
C9 C 0.4733(5) 0.4135(3) -0.2953(3)
H4 H 0.4000 0.4477 -0.2638
C10 C 0.4437(6) 0.4015(3) -0.3743(3)
H5 H 0.3506 0.4274 -0.3965
C11 C 0.5474(7) 0.3529(3) -0.4200(3)
H6 H 0.5280 0.3468 -0.4751
C12 C 0.6776(6) 0.3134(3) -0.3877(3)
H7 H 0.7472 0.2774 -0.4192
C13 C 0.7113(5) 0.3245(3) -0.3087(2)
H8 H 0.8039 0.2971 -0.2868
C14 C 0.4522(3) 0.2977(2) 0.18526(18)
C15 C 0.5500(3) 0.2305(2) 0.25065(19)
H9 H 0.5342 0.1584 0.2550
H10 H 0.6635 0.2506 0.2264
C16 C 0.5057(4) 0.2386(3) 0.3449(2)
H11 H 0.5350 0.3085 0.3415
H12 H 0.3895 0.2280 0.3652
C17 C 0.5843(5) 0.1631(3) 0.4142(2)
H13 H 0.5519 0.0935 0.4201
H14 H 0.5529 0.1733 0.4731
H15 H 0.6995 0.1731 0.3947
C18 C 0.4678(3) 0.25203(18) 0.04548(17)
C19 C 0.3748(3) 0.16366(18) 0.09553(17)
H16 H 0.3459 0.1478 0.1596
C20 C 0.3214(3) 0.09674(17) 0.05703(16)
C21 C 0.3734(3) 0.11582(18) -0.03746(16)
C22 C 0.4636(3) 0.20577(18) -0.08789(17)
H17 H 0.4939 0.2213 -0.1519
C23 C 0.5118(3) 0.27427(17) -0.04955(16)
C24 C 0.4007(3) 0.0647(2) -0.17558(18)
C25 C 0.2836(3) 0.1143(2) -0.23579(19)
H18 H 0.1773 0.0810 -0.2067
H19 H 0.2779 0.1873 -0.2412
C26 C 0.3277(4) 0.1067(3) -0.3300(2)
H20 H 0.4344 0.1394 -0.3587
H21 H 0.3326 0.0336 -0.3245
C27 C 0.2132(5) 0.1563(4) -0.3902(3)
H22 H 0.1073 0.1241 -0.3623
H23 H 0.2462 0.1479 -0.4498
H24 H 0.2111 0.2293 -0.3980
C28 C 0.2208(3) 0.00531(18) 0.11337(17)
C29 C 0.1454(3) 0.0307(2) 0.25929(17)
C30 C 0.0570(3) 0.1173(2) 0.2479(2)
H25 H 0.0145 0.1457 0.1940
C31 C 0.0303(4) 0.1624(3) 0.3145(2)
H26 H -0.0295 0.2220 0.3057
C32 C 0.0889(4) 0.1222(3) 0.3929(2)
H27 H 0.0694 0.1531 0.4387
C33 C 0.1763(4) 0.0367(3) 0.4047(2)
H28 H 0.2178 0.0088 0.4590
C34 C 0.2048(4) -0.0095(2) 0.33916(19)
H29 H 0.2652 -0.0689 0.3486
C35 C 0.1883(3) -0.06445(18) 0.06544(17)
C36 C 0.0964(3) -0.15456(19) 0.11498(19)
H30 H 0.0597 -0.1714 0.1787
C37 C 0.0600(3) -0.2179(2) 0.0713(2)
C38 C 0.1080(3) -0.1964(2) -0.0204(2)
H31 H 0.0791 -0.2415 -0.0492
C39 C 0.1990(3) -0.1084(2) -0.07021(19)
H32 H 0.2330 -0.0929 -0.1340
C40 C 0.2428(3) -0.04063(18) -0.02847(17)
F1 F 0.9412(2) 0.64117(13) -0.10115(14)
F2 F -0.0293(2) -0.30538(13) 0.12089(13)
N1 N 0.5160(2) 0.31527(16) 0.08884(14)
N2 N 0.6521(3) 0.40584(18) -0.19277(16)
N3 N 0.1576(3) -0.02380(16) 0.19881(15)
N4 N 0.3373(2) 0.04700(15) -0.07854(13)
H33 H 0.442(3) 0.363(2) 0.1922(18)
H34 H 0.339(3) 0.2713(19) 0.1997(17)
H35 H 0.428(3) 0.0007(19) -0.1792(16)
H36 H 0.506(3) 0.1049(19) -0.1920(17)
C41 C 0.0067(9) 0.4764(5) 0.3637(5)
H37 H -0.0516 0.5196 0.3964
H38 H 0.0797 0.5222 0.3099
Cl1 Cl -0.1210(2) 0.41956(14) 0.32823(17)
Cl2 Cl 0.1195(3) 0.39175(17) 0.4363(2)
loop_
_geom_bond_atom_site_label_1
_geom_bond_atom_site_label_2
_geom_bond_site_symmetry_1
_geom_bond_site_symmetry_2
C1 C2 1_555 1_555
C2 H1 1_555 1_555
C3 C2 1_555 1_555
H2 C3 1_555 1_555
C4 C3 1_555 1_555
C5 C4 1_555 1_555
C6 C1 1_555 1_555
H3 C6 1_555 1_555
C7 C5 1_555 1_555
C8 C9 1_555 1_555
C9 H4 1_555 1_555
C10 C9 1_555 1_555
H5 C10 1_555 1_555
C11 C10 1_555 1_555
H6 C11 1_555 1_555
C12 C11 1_555 1_555
H7 C12 1_555 1_555
C13 C8 1_555 1_555
H8 C13 1_555 1_555
C14 C15 1_555 1_555
C15 H9 1_555 1_555
H10 C15 1_555 1_555
C16 C15 1_555 1_555
H11 C16 1_555 1_555
H12 C16 1_555 1_555
C17 C16 1_555 1_555
H13 C17 1_555 1_555
H14 C17 1_555 1_555
H15 C17 1_555 1_555
C18 C19 1_555 1_555
C19 H16 1_555 1_555
C20 C19 1_555 1_555
C21 C20 1_555 1_555
C22 C21 1_555 1_555
H17 C22 1_555 1_555
C23 C7 1_555 1_555
C24 C25 1_555 1_555
C25 H18 1_555 1_555
H19 C25 1_555 1_555
C26 C25 1_555 1_555
H20 C26 1_555 1_555
H21 C26 1_555 1_555
C27 C26 1_555 1_555
H22 C27 1_555 1_555
H23 C27 1_555 1_555
H24 C27 1_555 1_555
C28 C20 1_555 1_555
C29 C30 1_555 1_555
C30 H25 1_555 1_555
C31 C30 1_555 1_555
H26 C31 1_555 1_555
C32 C31 1_555 1_555
H27 C32 1_555 1_555
C33 C32 1_555 1_555
H28 C33 1_555 1_555
C34 C29 1_555 1_555
H29 C34 1_555 1_555
C35 C28 1_555 1_555
C36 C35 1_555 1_555
H30 C36 1_555 1_555
C37 C36 1_555 1_555
C38 C37 1_555 1_555
H31 C38 1_555 1_555
C39 C38 1_555 1_555
H32 C39 1_555 1_555
C40 C35 1_555 1_555
F1 C1 1_555 1_555
F2 C37 1_555 1_555
N1 C4 1_555 1_555
N2 C7 1_555 1_555
N3 C28 1_555 1_555
N4 C21 1_555 1_555
H33 C14 1_555 1_555
H34 C14 1_555 1_555
H35 C24 1_555 1_555
H36 C24 1_555 1_555
C41 H37 1_555 1_555
H38 C41 1_555 1_555
Cl1 C41 1_555 1_555
Cl2 C41 1_555 1_555
C5 C6 1_555 1_555
C8 N2 1_555 1_555
C12 C13 1_555 1_555
C14 N1 1_555 1_555
C18 C23 1_555 1_555
C18 N1 1_555 1_555
C22 C23 1_555 1_555
C24 N4 1_555 1_555
C29 N3 1_555 1_555
C33 C34 1_555 1_555
C39 C40 1_555 1_555
C40 N4 1_555 1_555

#END
