
#######################################################################
#
#                 Cambridge Crystallographic Data Centre
#                                CCDC 
#
#######################################################################
#
# If this CIF has been generated from an entry in the Cambridge 
# Structural Database, then it will include bibliographic, chemical, 
# crystal, experimental, refinement or atomic coordinate data resulting 
# from the CCDC's data processing and validation procedures.
#
#######################################################################

data_SIXDAH
_chemical_formula_moiety         'C18 H27 B1 O2'
_chemical_name_systematic        
2-[2-(4-t-butylphenyl)ethenyl]-4,4,5,5-tetramethyl-1,3,2-dioxaborolane
_symmetry_cell_setting           monoclinic
_symmetry_space_group_name_H-M   'P 21/n'
_symmetry_Int_Tables_number      14
_space_group_name_Hall           '-P 2yn'
loop_
_symmetry_equiv_pos_site_id
_symmetry_equiv_pos_as_xyz
1 x,y,z
2 1/2-x,1/2+y,1/2-z
3 -x,-y,-z
4 1/2+x,1/2-y,1/2+z
_cell_length_a                   9.4277(7)
_cell_length_b                   16.8208(17)
_cell_length_c                   33.332(3)
_cell_angle_alpha                90
_cell_angle_beta                 95.868(3)
_cell_angle_gamma                90
_cell_volume                     5258.14
_exptl_crystal_colour            colorless
_exptl_crystal_description       Rectangular
_cell_formula_units_Z            12
loop_
_atom_site_label
_atom_site_type_symbol
_atom_site_fract_x
_atom_site_fract_y
_atom_site_fract_z
B1 B 0.7530(7) 0.1564(4) 0.1013(2)
C1 C 1.0976(6) 0.0984(4) 0.1397(2)
H1 H 1.1276 0.1488 0.1299
H2 H 1.1597 0.0573 0.1318
H3 H 1.1013 0.1000 0.1686
C2 C 0.9473(6) 0.0815(3) 0.12203(17)
C3 C 0.8934(7) 0.0073(4) 0.1418(2)
H4 H 0.9031 0.0141 0.1706
H5 H 0.9482 -0.0379 0.1350
H6 H 0.7948 -0.0010 0.1324
C4 C 0.9215(5) 0.0796(3) 0.07526(17)
C5 C 1.0233(7) 0.1340(4) 0.0560(2)
H7 H 0.9950 0.1376 0.0275
H8 H 1.1182 0.1128 0.0603
H9 H 1.0211 0.1859 0.0678
C6 C 0.9219(7) -0.0027(4) 0.0570(2)
H10 H 0.8461 -0.0336 0.0663
H11 H 1.0116 -0.0281 0.0650
H12 H 0.9084 0.0012 0.0282
C7 C 0.6187(6) 0.2090(3) 0.10439(19)
H13 H 0.6058 0.2308 0.1294
C8 C 0.5229(6) 0.2246(4) 0.07430(19)
H14 H 0.5393 0.2036 0.0494
C9 C 0.3916(5) 0.2717(3) 0.07545(17)
C10 C 0.3139(6) 0.2960(4) 0.03982(18)
H15 H 0.3468 0.2828 0.0153
C11 C 0.1893(6) 0.3390(4) 0.03988(17)
H16 H 0.1412 0.3544 0.0154
C12 C 0.1334(5) 0.3600(3) 0.07541(16)
C13 C 0.2121(6) 0.3362(4) 0.11089(17)
H17 H 0.1800 0.3501 0.1354
C14 C 0.3357(6) 0.2927(4) 0.11108(18)
H18 H 0.3832 0.2768 0.1356
C15 C -0.0052(6) 0.4060(3) 0.07527(17)
C16 C -0.1096(9) 0.3843(7) 0.0393(3)
H19 H -0.1983 0.4113 0.0412
H20 H -0.1254 0.3279 0.0391
H21 H -0.0711 0.3998 0.0149
C17 C 0.0266(9) 0.4906(5) 0.0764(5)
H22 H 0.0977 0.5015 0.0985
H23 H -0.0586 0.5199 0.0801
H24 H 0.0615 0.5063 0.0516
C18 C -0.0831(8) 0.3842(7) 0.1119(3)
H25 H -0.0397 0.4116 0.1353
H26 H -0.0768 0.3279 0.1164
H27 H -0.1814 0.3995 0.1071
O1 O 0.8542(4) 0.1461(2) 0.13261(12)
O2 O 0.7782(4) 0.1137(3) 0.06788(12)
B2 B 0.2043(7) 0.4851(4) 0.2590(3)
C19 C 0.0108(13) 0.6349(6) 0.2935(3)
H28 H -0.0182 0.6258 0.3199
H29 H -0.0569 0.6692 0.2786
H30 H 0.1031 0.6596 0.2959
C20 C 0.0175(6) 0.5581(4) 0.2721(2)
C21 C -0.1081(9) 0.5040(6) 0.2798(3)
H31 H -0.0963 0.4530 0.2676
H32 H -0.1957 0.5276 0.2684
H33 H -0.1108 0.4975 0.3084
C22 C 0.0928(11) 0.6427(5) 0.2139(3)
H34 H 0.1789 0.6543 0.2309
H35 H 0.0248 0.6844 0.2163
H36 H 0.1135 0.6387 0.1864
C23 C 0.0312(5) 0.5641(3) 0.2269(2)
C24 C -0.1017(8) 0.5490(6) 0.1983(3)
H37 H -0.0782 0.5517 0.1710
H38 H -0.1723 0.5885 0.2024
H39 H -0.1388 0.4972 0.2034
C25 C 0.3415(6) 0.4328(4) 0.2656(2)
H40 H 0.3719 0.4182 0.2920
C26 C 0.4164(6) 0.4080(3) 0.2380(2)
H41 H 0.3786 0.4193 0.2117
C27 C 0.5536(5) 0.3641(3) 0.24142(18)
C28 C 0.6223(5) 0.3392(3) 0.27785(18)
H42 H 0.5791 0.3475 0.3013
C29 C 0.7551(5) 0.3017(3) 0.28027(16)
H43 H 0.7976 0.2849 0.3052
C30 C 0.8247(5) 0.2891(3) 0.24612(14)
C31 C 0.7513(5) 0.3117(3) 0.20979(16)
H44 H 0.7918 0.3017 0.1860
C32 C 0.6193(6) 0.3487(3) 0.20783(18)
H45 H 0.5743 0.3633 0.1828
C33 C 0.9532(6) 0.1597(3) 0.24965(18)
H46 H 1.0450 0.1346 0.2511
H47 H 0.8968 0.1432 0.2255
H48 H 0.9061 0.1447 0.2727
C34 C 0.9721(5) 0.2505(3) 0.24916(14)
C35 C 1.0621(5) 0.2775(3) 0.28724(16)
H49 H 1.0660 0.3345 0.2879
H50 H 1.1569 0.2566 0.2874
H51 H 1.0203 0.2585 0.3105
C36 C 1.0511(5) 0.2732(3) 0.21282(16)
H52 H 1.0546 0.3301 0.2106
H53 H 1.0018 0.2514 0.1887
H54 H 1.1464 0.2524 0.2165
O3 O 0.1382(5) 0.5036(3) 0.22099(15)
O4 O 0.1413(4) 0.5146(3) 0.28870(15)
B3 B 0.6950(9) 0.6579(4) 0.1076(2)
C37 C 0.5345(10) 0.5229(5) 0.1456(2)
H55 H 0.6235 0.5015 0.1390
H56 H 0.4615 0.4832 0.1411
H57 H 0.5435 0.5384 0.1735
C38 C 0.4948(6) 0.5949(3) 0.11936(17)
C39 C 0.3523(7) 0.6280(6) 0.1274(3)
H58 H 0.3488 0.6335 0.1559
H59 H 0.2782 0.5926 0.1166
H60 H 0.3390 0.6791 0.1147
C40 C 0.5018(10) 0.4952(4) 0.0622(2)
H61 H 0.5272 0.4897 0.0351
H62 H 0.4049 0.4784 0.0631
H63 H 0.5638 0.4629 0.0801
C41 C 0.5168(6) 0.5816(4) 0.07507(18)
C42 C 0.4206(10) 0.6320(5) 0.0458(3)
H64 H 0.4584 0.6333 0.0201
H65 H 0.4162 0.6851 0.0561
H66 H 0.3266 0.6095 0.0426
C43 C 0.8338(7) 0.7105(4) 0.1124(2)
H67 H 0.8601 0.7342 0.1373
C44 C 0.9113(7) 0.7220(4) 0.0842(2)
H68 H 0.8830 0.6954 0.0602
C45 C 1.0411(5) 0.7719(3) 0.08374(18)
C46 C 1.1116(5) 0.8096(3) 0.11728(17)
H69 H 1.0757 0.8047 0.1421
C47 C 1.2341(5) 0.8542(3) 0.11457(17)
H70 H 1.2784 0.8787 0.1375
C48 C 1.2913(5) 0.8628(3) 0.07812(17)
C49 C 1.2199(6) 0.8267(4) 0.04474(18)
H71 H 1.2550 0.8320 0.0198
C50 C 1.0977(6) 0.7830(4) 0.04761(18)
H72 H 1.0519 0.7602 0.0244
C51 C 1.4294(6) 0.9098(4) 0.07517(18)
C52 C 1.5444(9) 0.8743(7) 0.1070(4)
H73 H 1.6314 0.9039 0.1069
H74 H 1.5613 0.8197 0.1005
H75 H 1.5114 0.8773 0.1333
C53 C 1.4112(12) 0.9909(6) 0.0807(7)
H76 H 1.4996 1.0139 0.0920
H77 H 1.3397 0.9994 0.0988
H78 H 1.3816 1.0155 0.0552
C54 C 1.4964(11) 0.8931(8) 0.0376(4)
H79 H 1.4331 0.9095 0.0147
H80 H 1.5148 0.8371 0.0357
H81 H 1.5845 0.9218 0.0380
O5 O 0.6636(5) 0.6090(3) 0.07395(15)
O6 O 0.6001(4) 0.6551(3) 0.13308(14)
loop_
_geom_bond_atom_site_label_1
_geom_bond_atom_site_label_2
_geom_bond_site_symmetry_1
_geom_bond_site_symmetry_2
B1 C7 1_555 1_555
C1 H1 1_555 1_555
H2 C1 1_555 1_555
H3 C1 1_555 1_555
C2 C1 1_555 1_555
C3 C2 1_555 1_555
H4 C3 1_555 1_555
H5 C3 1_555 1_555
H6 C3 1_555 1_555
C4 C2 1_555 1_555
C5 C4 1_555 1_555
H7 C5 1_555 1_555
H8 C5 1_555 1_555
H9 C5 1_555 1_555
C6 C4 1_555 1_555
H10 C6 1_555 1_555
H11 C6 1_555 1_555
H12 C6 1_555 1_555
C7 H13 1_555 1_555
C8 C7 1_555 1_555
H14 C8 1_555 1_555
C9 C8 1_555 1_555
C10 C9 1_555 1_555
H15 C10 1_555 1_555
C11 C10 1_555 1_555
H16 C11 1_555 1_555
C12 C11 1_555 1_555
C13 C12 1_555 1_555
H17 C13 1_555 1_555
C14 C9 1_555 1_555
H18 C14 1_555 1_555
C15 C12 1_555 1_555
C16 C15 1_555 1_555
H19 C16 1_555 1_555
H20 C16 1_555 1_555
H21 C16 1_555 1_555
C17 C15 1_555 1_555
H22 C17 1_555 1_555
H23 C17 1_555 1_555
H24 C17 1_555 1_555
C18 C15 1_555 1_555
H25 C18 1_555 1_555
H26 C18 1_555 1_555
H27 C18 1_555 1_555
O1 B1 1_555 1_555
O2 B1 1_555 1_555
B2 C25 1_555 1_555
C19 H28 1_555 1_555
H29 C19 1_555 1_555
H30 C19 1_555 1_555
C20 C19 1_555 1_555
C21 C20 1_555 1_555
H31 C21 1_555 1_555
H32 C21 1_555 1_555
H33 C21 1_555 1_555
C22 H34 1_555 1_555
H35 C22 1_555 1_555
H36 C22 1_555 1_555
C23 C20 1_555 1_555
C24 C23 1_555 1_555
H37 C24 1_555 1_555
H38 C24 1_555 1_555
H39 C24 1_555 1_555
C25 H40 1_555 1_555
C26 C25 1_555 1_555
H41 C26 1_555 1_555
C27 C26 1_555 1_555
C28 C27 1_555 1_555
H42 C28 1_555 1_555
C29 C28 1_555 1_555
H43 C29 1_555 1_555
C30 C29 1_555 1_555
C31 C30 1_555 1_555
H44 C31 1_555 1_555
C32 C27 1_555 1_555
H45 C32 1_555 1_555
C33 H46 1_555 1_555
H47 C33 1_555 1_555
H48 C33 1_555 1_555
C34 C30 1_555 1_555
C35 C34 1_555 1_555
H49 C35 1_555 1_555
H50 C35 1_555 1_555
H51 C35 1_555 1_555
C36 C34 1_555 1_555
H52 C36 1_555 1_555
H53 C36 1_555 1_555
H54 C36 1_555 1_555
O3 B2 1_555 1_555
O4 B2 1_555 1_555
B3 C43 1_555 1_555
C37 H55 1_555 1_555
H56 C37 1_555 1_555
H57 C37 1_555 1_555
C38 C37 1_555 1_555
C39 C38 1_555 1_555
H58 C39 1_555 1_555
H59 C39 1_555 1_555
H60 C39 1_555 1_555
C40 H61 1_555 1_555
H62 C40 1_555 1_555
H63 C40 1_555 1_555
C41 C38 1_555 1_555
C42 C41 1_555 1_555
H64 C42 1_555 1_555
H65 C42 1_555 1_555
H66 C42 1_555 1_555
C43 H67 1_555 1_555
C44 C43 1_555 1_555
H68 C44 1_555 1_555
C45 C44 1_555 1_555
C46 C45 1_555 1_555
H69 C46 1_555 1_555
C47 C46 1_555 1_555
H70 C47 1_555 1_555
C48 C47 1_555 1_555
C49 C48 1_555 1_555
H71 C49 1_555 1_555
C50 C45 1_555 1_555
H72 C50 1_555 1_555
C51 C48 1_555 1_555
C52 C51 1_555 1_555
H73 C52 1_555 1_555
H74 C52 1_555 1_555
H75 C52 1_555 1_555
C53 C51 1_555 1_555
H76 C53 1_555 1_555
H77 C53 1_555 1_555
H78 C53 1_555 1_555
C54 C51 1_555 1_555
H79 C54 1_555 1_555
H80 C54 1_555 1_555
H81 C54 1_555 1_555
O5 B3 1_555 1_555
O6 B3 1_555 1_555
C2 O1 1_555 1_555
C4 O2 1_555 1_555
C13 C14 1_555 1_555
C20 O4 1_555 1_555
C22 C23 1_555 1_555
C23 O3 1_555 1_555
C31 C32 1_555 1_555
C33 C34 1_555 1_555
C38 O6 1_555 1_555
C40 C41 1_555 1_555
C41 O5 1_555 1_555
C49 C50 1_555 1_555

#END
