
#######################################################################
#
#                 Cambridge Crystallographic Data Centre
#                                CCDC 
#
#######################################################################
#
# If this CIF has been generated from an entry in the Cambridge 
# Structural Database, then it will include bibliographic, chemical, 
# crystal, experimental, refinement or atomic coordinate data resulting 
# from the CCDC's data processing and validation procedures.
#
#######################################################################

data_SIXDOU
_chemical_formula_moiety         'C44 H44 F2 N4'
_chemical_name_systematic        
5,12-di-n-butyl-N,N'-bis(4-fluorophenyl)-1,3,8,10-tetramethyl-5,12-dihydroquinolino[2,3-b]acridine-7,14-di-imine
_symmetry_cell_setting           triclinic
_symmetry_space_group_name_H-M   'P -1'
_symmetry_Int_Tables_number      2
_space_group_name_Hall           '-P 1'
loop_
_symmetry_equiv_pos_site_id
_symmetry_equiv_pos_as_xyz
1 x,y,z
2 -x,-y,-z
_cell_length_a                   8.778(5)
_cell_length_b                   9.171(6)
_cell_length_c                   13.365(8)
_cell_angle_alpha                71.67(3)
_cell_angle_beta                 72.14(2)
_cell_angle_gamma                62.81(3)
_cell_volume                     891.385
_exptl_crystal_colour            'pale red'
_exptl_crystal_description       needle
_cell_formula_units_Z            1
loop_
_atom_site_label
_atom_site_type_symbol
_atom_site_fract_x
_atom_site_fract_y
_atom_site_fract_z
C1 C -0.0896(3) 0.8722(3) 0.46915(16)
C2 C 0.0107(3) 0.7079(3) 0.46836(16)
H1 H -0.0026 0.6240 0.5296
C3 C 0.1325(3) 0.6647(3) 0.37695(15)
H2 H 0.2037 0.5499 0.3758
C4 C 0.1528(2) 0.7857(2) 0.28689(13)
C5 C 0.0481(3) 0.9523(3) 0.29087(16)
H3 H 0.0599 1.0373 0.2301
C6 C -0.0737(3) 0.9963(3) 0.38261(17)
H4 H -0.1449 1.1106 0.3853
C7 C 0.2937(2) 0.7819(2) 0.10229(13)
C8 C 0.4618(2) 0.7322(2) 0.02664(13)
C9 C 0.6063(2) 0.5793(2) 0.04943(13)
C10 C 0.5971(2) 0.4468(2) 0.14897(15)
H5 H 0.6946 0.3399 0.1384
H6 H 0.4865 0.4348 0.1633
H7 H 0.6040 0.4794 0.2101
C11 C 0.7609(2) 0.5477(2) -0.02478(14)
H8 H 0.8571 0.4442 -0.0105
C12 C 0.7808(2) 0.6623(2) -0.11998(14)
C13 C 0.9493(3) 0.6169(3) -0.2007(2)
C14 C 0.6411(2) 0.8119(2) -0.14153(14)
H9 H 0.6546 0.8921 -0.2051
C15 C 0.4792(2) 0.8469(2) -0.07065(13)
C16 C 0.16756(19) 1.0001(2) -0.04840(12)
C17 C 0.0226(2) 1.1115(2) -0.09509(13)
H10 H 0.0370 1.1899 -0.1596
C18 C 0.1420(2) 0.8896(2) 0.04952(13)
C19 C 0.3596(2) 1.1335(2) -0.17991(14)
H11 H 0.4691 1.1368 -0.1767
H12 H 0.2627 1.2385 -0.1619
C20 C 0.3679(3) 1.1319(3) -0.29524(15)
H13 H 0.2526 1.1477 -0.3032
H14 H 0.4544 1.0222 -0.3122
C21 C 0.4197(4) 1.2714(4) -0.3732(2)
H15 H 0.3283 1.3805 -0.3581
H16 H 0.5296 1.2600 -0.3595
C22 C 0.4444(4) 1.2733(5) -0.4877(2)
H17 H 0.5336 1.1655 -0.5037
H18 H 0.4818 1.3633 -0.5319
H19 H 0.3340 1.2925 -0.5035
F1 F -0.2084(2) 0.9147(2) 0.55927(11)
N1 N 0.29474(18) 0.73281(19) 0.20320(11)
N2 N 0.33499(16) 0.99360(17) -0.09725(11)
H20 H 0.951(3) 0.701(3) -0.2657(17)
H21 H 1.038(3) 0.587(3) -0.1706(16)
H22 H 0.969(3) 0.518(3) -0.2281(15)
C1A C 0.0896(3) 1.1278(3) -0.46915(16)
C2A C -0.0107(3) 1.2921(3) -0.46836(16)
H1A H 0.0026 1.3760 -0.5296
C3A C -0.1325(3) 1.3353(3) -0.37695(15)
H2A H -0.2037 1.4501 -0.3758
C4A C -0.1528(2) 1.2143(2) -0.28689(13)
C5A C -0.0481(3) 1.0477(3) -0.29087(16)
H3A H -0.0599 0.9627 -0.2301
C6A C 0.0737(3) 1.0037(3) -0.38261(17)
H4A H 0.1449 0.8894 -0.3853
C7A C -0.2937(2) 1.2181(2) -0.10229(13)
C8A C -0.4618(2) 1.2678(2) -0.02664(13)
C9A C -0.6063(2) 1.4207(2) -0.04943(13)
C10A C -0.5971(2) 1.5532(2) -0.14897(15)
H5A H -0.6946 1.6601 -0.1384
H6A H -0.4865 1.5652 -0.1633
H7A H -0.6040 1.5206 -0.2101
C11A C -0.7609(2) 1.4523(2) 0.02478(14)
H8A H -0.8571 1.5558 0.0105
C12A C -0.7808(2) 1.3377(2) 0.11998(14)
C13A C -0.9493(3) 1.3831(3) 0.2007(2)
C14A C -0.6411(2) 1.1881(2) 0.14153(14)
H9A H -0.6546 1.1079 0.2051
C15A C -0.4792(2) 1.1531(2) 0.07065(13)
C16A C -0.16756(19) 0.9999(2) 0.04840(12)
C17A C -0.0226(2) 0.8885(2) 0.09509(13)
H10A H -0.0370 0.8101 0.1596
C18A C -0.1420(2) 1.1104(2) -0.04952(13)
C19A C -0.3596(2) 0.8665(2) 0.17991(14)
H11A H -0.4691 0.8632 0.1767
H12A H -0.2627 0.7615 0.1619
C20A C -0.3679(3) 0.8681(3) 0.29524(15)
H13A H -0.2526 0.8523 0.3032
H14A H -0.4544 0.9778 0.3122
C21A C -0.4197(4) 0.7286(4) 0.3732(2)
H15A H -0.3283 0.6195 0.3581
H16A H -0.5296 0.7400 0.3595
C22A C -0.4444(4) 0.7267(5) 0.4877(2)
H17A H -0.5336 0.8345 0.5037
H18A H -0.4818 0.6367 0.5319
H19A H -0.3340 0.7075 0.5035
F1A F 0.2084(2) 1.0853(2) -0.55927(11)
N1A N -0.29474(18) 1.26719(19) -0.20320(11)
N2A N -0.33499(16) 1.00640(17) 0.09725(11)
H20A H -0.951(3) 1.299(3) 0.2657(17)
H21A H -1.038(3) 1.413(3) 0.1706(16)
H22A H -0.969(3) 1.482(3) 0.2281(15)
loop_
_geom_bond_atom_site_label_1
_geom_bond_atom_site_label_2
_geom_bond_site_symmetry_1
_geom_bond_site_symmetry_2
C1 C2 1_555 1_555
C2 H1 1_555 1_555
C3 C2 1_555 1_555
H2 C3 1_555 1_555
C4 C3 1_555 1_555
C5 C4 1_555 1_555
H3 C5 1_555 1_555
C6 C1 1_555 1_555
H4 C6 1_555 1_555
C7 C8 1_555 1_555
C8 C9 1_555 1_555
C9 C10 1_555 1_555
C10 H5 1_555 1_555
H6 C10 1_555 1_555
H7 C10 1_555 1_555
C11 C9 1_555 1_555
H8 C11 1_555 1_555
C12 C11 1_555 1_555
C13 C12 1_555 1_555
C14 C12 1_555 1_555
H9 C14 1_555 1_555
C15 C8 1_555 1_555
C16 C17 1_555 1_555
C17 H10 1_555 1_555
C18 C7 1_555 1_555
C19 H11 1_555 1_555
H12 C19 1_555 1_555
C20 C19 1_555 1_555
H13 C20 1_555 1_555
H14 C20 1_555 1_555
C21 C20 1_555 1_555
H15 C21 1_555 1_555
H16 C21 1_555 1_555
C22 C21 1_555 1_555
H17 C22 1_555 1_555
H18 C22 1_555 1_555
H19 C22 1_555 1_555
F1 C1 1_555 1_555
N1 C4 1_555 1_555
N2 C15 1_555 1_555
H20 C13 1_555 1_555
H21 C13 1_555 1_555
H22 C13 1_555 1_555
C1A C2A 1_555 1_555
C2A H1A 1_555 1_555
C3A C2A 1_555 1_555
H2A C3A 1_555 1_555
C4A C3A 1_555 1_555
C5A C4A 1_555 1_555
H3A C5A 1_555 1_555
C6A C1A 1_555 1_555
H4A C6A 1_555 1_555
C7A C8A 1_555 1_555
C8A C9A 1_555 1_555
C9A C10A 1_555 1_555
C10A H5A 1_555 1_555
H6A C10A 1_555 1_555
H7A C10A 1_555 1_555
C11A C9A 1_555 1_555
H8A C11A 1_555 1_555
C12A C11A 1_555 1_555
C13A C12A 1_555 1_555
C14A C12A 1_555 1_555
H9A C14A 1_555 1_555
C15A C8A 1_555 1_555
C16A C17A 1_555 1_555
C17A C18 1_555 1_555
H10A C17A 1_555 1_555
C18A C17 1_555 1_555
C19A H11A 1_555 1_555
H12A C19A 1_555 1_555
C20A C19A 1_555 1_555
H13A C20A 1_555 1_555
H14A C20A 1_555 1_555
C21A C20A 1_555 1_555
H15A C21A 1_555 1_555
H16A C21A 1_555 1_555
C22A C21A 1_555 1_555
H17A C22A 1_555 1_555
H18A C22A 1_555 1_555
H19A C22A 1_555 1_555
F1A C1A 1_555 1_555
N1A C4A 1_555 1_555
N2A C15A 1_555 1_555
H20A C13A 1_555 1_555
H21A C13A 1_555 1_555
H22A C13A 1_555 1_555
C5 C6 1_555 1_555
C7 N1 1_555 1_555
C14 C15 1_555 1_555
C16 C18 1_555 1_555
C16 N2 1_555 1_555
C19 N2 1_555 1_555
C5A C6A 1_555 1_555
C7A C18A 1_555 1_555
C7A N1A 1_555 1_555
C14A C15A 1_555 1_555
C16A C18A 1_555 1_555
C16A N2A 1_555 1_555
C19A N2A 1_555 1_555

#END
