
#######################################################################
#
#                 Cambridge Crystallographic Data Centre
#                                CCDC 
#
#######################################################################
#
# If this CIF has been generated from an entry in the Cambridge 
# Structural Database, then it will include bibliographic, chemical, 
# crystal, experimental, refinement or atomic coordinate data resulting 
# from the CCDC's data processing and validation procedures.
#
#######################################################################

data_SIXFAI
_chemical_formula_moiety         'C44 H44 F2 N4'
_chemical_name_systematic        
5,12-di-n-butyl-N,N'-bis(3,5-dimethylphenyl)-2,9-difluoro-5,12-dihydroquinolino[2,3-b]acridine-7,14-di-imine
_symmetry_cell_setting           monoclinic
_symmetry_space_group_name_H-M   'C 2/c'
_symmetry_Int_Tables_number      15
_space_group_name_Hall           '-C 2yn'
loop_
_symmetry_equiv_pos_site_id
_symmetry_equiv_pos_as_xyz
1 x,y,z
2 -x,y,1/2-z
3 1/2+x,1/2+y,z
4 1/2-x,1/2+y,1/2-z
5 -x,-y,-z
6 x,-y,1/2+z
7 1/2-x,1/2-y,-z
8 1/2+x,1/2-y,1/2+z
_cell_length_a                   16.453(3)
_cell_length_b                   7.2220(14)
_cell_length_c                   31.554(10)
_cell_angle_alpha                90
_cell_angle_beta                 110.38(3)
_cell_angle_gamma                90
_cell_volume                     3514.66
_exptl_crystal_colour            red
_exptl_crystal_description       needle
_cell_formula_units_Z            4
loop_
_atom_site_label
_atom_site_type_symbol
_atom_site_fract_x
_atom_site_fract_y
_atom_site_fract_z
C1 C 0.14887(17) 0.4439(4) 0.02270(10)
C2 C 0.11627(18) 0.4807(4) -0.02289(10)
H1 H 0.0556 0.4787 -0.0390
C3 C 0.17317(17) 0.5202(4) -0.04467(9)
H2 H 0.1514 0.5461 -0.0762
C4 C 0.26319(16) 0.5233(4) -0.02123(8)
C5 C 0.29395(15) 0.4845(4) 0.02521(8)
C6 C 0.23490(17) 0.4443(4) 0.04692(9)
H3 H 0.2550 0.4175 0.0784
C7 C 0.28711(17) 0.6322(4) -0.09047(8)
H4 H 0.3316 0.7111 -0.0960
H5 H 0.2356 0.7105 -0.0944
C8 C 0.2620(2) 0.4794(5) -0.12557(9)
H6 H 0.2237 0.3903 -0.1178
H7 H 0.3149 0.4120 -0.1248
C9 C 0.2156(2) 0.5521(6) -0.17335(10)
H8 H 0.2473 0.6617 -0.1783
H9 H 0.2177 0.4558 -0.1953
C10 C 0.1245(2) 0.6040(8) -0.18269(12)
H10 H 0.0943 0.5021 -0.1739
H11 H 0.0965 0.6293 -0.2150
H12 H 0.1221 0.7151 -0.1653
C11 C 0.41012(15) 0.5352(4) -0.02157(8)
C12 C 0.46671(15) 0.5370(4) -0.04559(8)
H13 H 0.4442 0.5649 -0.0770
C13 C 0.44501(16) 0.5002(4) 0.02558(8)
C14 C 0.38659(16) 0.5005(4) 0.05219(8)
C15 C 0.48402(17) 0.5616(5) 0.12867(8)
C16 C 0.52380(17) 0.7297(5) 0.12769(9)
H14 H 0.5035 0.8036 0.1012
C17 C 0.59292(19) 0.7929(5) 0.16472(10)
C18 C 0.6344(3) 0.9775(6) 0.16234(13)
H15 H 0.6628 1.0258 0.1930
H16 H 0.5897 1.0649 0.1448
H17 H 0.6775 0.9616 0.1477
C19 C 0.6211(2) 0.6826(6) 0.20273(10)
H18 H 0.6678 0.7246 0.2283
C20 C 0.5839(2) 0.5134(6) 0.20483(9)
C21 C 0.51477(19) 0.4542(5) 0.16761(9)
H19 H 0.4880 0.3386 0.1687
C22 C 0.6171(3) 0.3934(7) 0.24706(11)
H20 H 0.6790 0.3684 0.2542
H21 H 0.5851 0.2762 0.2417
H22 H 0.6085 0.4584 0.2725
F1 F 0.09193(10) 0.4066(3) 0.04457(6)
N1 N 0.40515(14) 0.5101(4) 0.09526(7)
N2 N 0.32123(13) 0.5650(3) -0.04323(6)
C1D C 0.85113(17) 0.5561(4) -0.02270(10)
C2D C 0.88373(18) 0.5193(4) 0.02289(10)
H1D H 0.9444 0.5213 0.0390
C3D C 0.82683(17) 0.4798(4) 0.04467(9)
H2D H 0.8486 0.4539 0.0762
C4D C 0.73681(16) 0.4767(4) 0.02123(8)
C5D C 0.70605(15) 0.5155(4) -0.02521(8)
C6D C 0.76510(17) 0.5557(4) -0.04692(9)
H3D H 0.7450 0.5825 -0.0784
C7D C 0.71289(17) 0.3678(4) 0.09047(8)
H4D H 0.6684 0.2889 0.0960
H5D H 0.7644 0.2895 0.0944
C8D C 0.7380(2) 0.5206(5) 0.12557(9)
H6D H 0.7763 0.6097 0.1178
H7D H 0.6851 0.5880 0.1248
C9D C 0.7844(2) 0.4479(6) 0.17335(10)
H8D H 0.7527 0.3383 0.1783
H9D H 0.7823 0.5442 0.1953
C10D C 0.8755(2) 0.3960(8) 0.18269(12)
H10D H 0.9057 0.4979 0.1739
H11D H 0.9035 0.3707 0.2150
H12D H 0.8779 0.2849 0.1653
C11D C 0.58988(15) 0.4648(4) 0.02157(8)
C12D C 0.53329(15) 0.4630(4) 0.04559(8)
H13D H 0.5558 0.4351 0.0770
C13D C 0.55499(16) 0.4998(4) -0.02558(8)
C14D C 0.61341(16) 0.4995(4) -0.05219(8)
C15D C 0.51598(17) 0.4384(5) -0.12867(8)
C16D C 0.47620(17) 0.2703(5) -0.12769(9)
H14D H 0.4965 0.1964 -0.1012
C17D C 0.40708(19) 0.2071(5) -0.16472(10)
C18D C 0.3656(3) 0.0225(6) -0.16234(13)
H15D H 0.3372 -0.0258 -0.1930
H16D H 0.4103 -0.0649 -0.1448
H17D H 0.3225 0.0384 -0.1477
C19D C 0.3789(2) 0.3174(6) -0.20273(10)
H18D H 0.3322 0.2754 -0.2283
C20D C 0.4161(2) 0.4866(6) -0.20483(9)
C21D C 0.48523(19) 0.5458(5) -0.16761(9)
H19D H 0.5120 0.6614 -0.1687
C22D C 0.3829(3) 0.6066(7) -0.24706(11)
H20D H 0.3210 0.6316 -0.2542
H21D H 0.4149 0.7238 -0.2417
H22D H 0.3915 0.5416 -0.2725
F1D F 0.90807(10) 0.5934(3) -0.04457(6)
N1D N 0.59485(14) 0.4899(4) -0.09526(7)
N2D N 0.67877(13) 0.4350(3) 0.04323(6)
loop_
_geom_bond_atom_site_label_1
_geom_bond_atom_site_label_2
_geom_bond_site_symmetry_1
_geom_bond_site_symmetry_2
C1 C2 1_555 1_555
C2 H1 1_555 1_555
C3 C2 1_555 1_555
H2 C3 1_555 1_555
C4 C3 1_555 1_555
C5 C4 1_555 1_555
C6 C1 1_555 1_555
H3 C6 1_555 1_555
C7 H4 1_555 1_555
H5 C7 1_555 1_555
C8 C7 1_555 1_555
H6 C8 1_555 1_555
H7 C8 1_555 1_555
C9 C8 1_555 1_555
H8 C9 1_555 1_555
H9 C9 1_555 1_555
C10 C9 1_555 1_555
H10 C10 1_555 1_555
H11 C10 1_555 1_555
H12 C10 1_555 1_555
C11 C12 1_555 1_555
C12 H13 1_555 1_555
C13 C11 1_555 1_555
C14 C5 1_555 1_555
C15 C16 1_555 1_555
C16 H14 1_555 1_555
C17 C16 1_555 1_555
C18 C17 1_555 1_555
H15 C18 1_555 1_555
H16 C18 1_555 1_555
H17 C18 1_555 1_555
C19 C17 1_555 1_555
H18 C19 1_555 1_555
C20 C19 1_555 1_555
C21 C15 1_555 1_555
H19 C21 1_555 1_555
C22 C20 1_555 1_555
H20 C22 1_555 1_555
H21 C22 1_555 1_555
H22 C22 1_555 1_555
F1 C1 1_555 1_555
N1 C14 1_555 1_555
N2 C4 1_555 1_555
C1D C2D 1_555 1_555
C2D H1D 1_555 1_555
C3D C2D 1_555 1_555
H2D C3D 1_555 1_555
C4D C3D 1_555 1_555
C5D C4D 1_555 1_555
C6D C1D 1_555 1_555
H3D C6D 1_555 1_555
C7D H4D 1_555 1_555
H5D C7D 1_555 1_555
C8D C7D 1_555 1_555
H6D C8D 1_555 1_555
H7D C8D 1_555 1_555
C9D C8D 1_555 1_555
H8D C9D 1_555 1_555
H9D C9D 1_555 1_555
C10D C9D 1_555 1_555
H10D C10D 1_555 1_555
H11D C10D 1_555 1_555
H12D C10D 1_555 1_555
C11D C12D 1_555 1_555
C12D C13 1_555 1_555
H13D C12D 1_555 1_555
C13D C12 1_555 1_555
C14D C5D 1_555 1_555
C15D C16D 1_555 1_555
C16D H14D 1_555 1_555
C17D C16D 1_555 1_555
C18D C17D 1_555 1_555
H15D C18D 1_555 1_555
H16D C18D 1_555 1_555
H17D C18D 1_555 1_555
C19D C17D 1_555 1_555
H18D C19D 1_555 1_555
C20D C19D 1_555 1_555
C21D C15D 1_555 1_555
H19D C21D 1_555 1_555
C22D C20D 1_555 1_555
H20D C22D 1_555 1_555
H21D C22D 1_555 1_555
H22D C22D 1_555 1_555
F1D C1D 1_555 1_555
N1D C14D 1_555 1_555
N2D C4D 1_555 1_555
C5 C6 1_555 1_555
C7 N2 1_555 1_555
C11 N2 1_555 1_555
C13 C14 1_555 1_555
C15 N1 1_555 1_555
C20 C21 1_555 1_555
C5D C6D 1_555 1_555
C7D N2D 1_555 1_555
C11D C13D 1_555 1_555
C11D N2D 1_555 1_555
C13D C14D 1_555 1_555
C15D N1D 1_555 1_555
C20D C21D 1_555 1_555

#END
