
#######################################################################
#
#                 Cambridge Crystallographic Data Centre
#                                CCDC 
#
#######################################################################
#
# If this CIF has been generated from an entry in the Cambridge 
# Structural Database, then it will include bibliographic, chemical, 
# crystal, experimental, refinement or atomic coordinate data resulting 
# from the CCDC's data processing and validation procedures.
#
#######################################################################

data_SIXHUE
_chemical_formula_moiety         'C24 H19 N3 O1'
_chemical_name_systematic        
(4-((2-Methylphenyl)(phenyl)methylene)-4H-[1,2,3]triazolo[1,5-a]indol-3-yl)methanol
_symmetry_cell_setting           triclinic
_symmetry_space_group_name_H-M   'P -1'
_symmetry_Int_Tables_number      2
_space_group_name_Hall           '-P 1'
loop_
_symmetry_equiv_pos_site_id
_symmetry_equiv_pos_as_xyz
1 x,y,z
2 -x,-y,-z
_cell_length_a                   7.5761(3)
_cell_length_b                   10.3760(6)
_cell_length_c                   12.2658(7)
_cell_angle_alpha                93.117(3)
_cell_angle_beta                 90.459(3)
_cell_angle_gamma                104.156(3)
_cell_volume                     933.321
_exptl_crystal_colour            yellow
_exptl_crystal_description       parallelepiped
_cell_formula_units_Z            2
loop_
_atom_site_label
_atom_site_type_symbol
_atom_site_fract_x
_atom_site_fract_y
_atom_site_fract_z
O1 O 0.6873(3) 1.03032(19) 0.15532(17)
N1 N 0.3870(2) 0.62363(18) 0.06152(15)
N2 N 0.3405(3) 0.6944(2) -0.01617(16)
N3 N 0.4673(3) 0.8075(2) -0.01086(16)
C1 C 0.5696(3) 0.5959(2) 0.20260(17)
C2 C 0.5397(3) 0.6874(2) 0.11992(17)
C3 C 0.5917(3) 0.8083(2) 0.07059(17)
C4 C 0.7111(3) 0.6125(2) 0.27433(17)
C5 C 0.3042(3) 0.4969(2) 0.09850(19)
C6 C 0.4095(3) 0.4786(2) 0.18700(19)
C7 C 0.7352(3) 0.5039(2) 0.34341(18)
C8 C 0.8650(3) 0.7362(2) 0.28464(19)
C9 C 0.8507(3) 0.8517(3) 0.3417(2)
C10 C 0.7421(4) 0.5222(3) 0.45619(19)
H1 H 0.7315 0.6028 0.4890
C11 C 0.7419(3) 0.9311(3) 0.0904(2)
H2 H 0.8437 0.9082 0.1263
H3 H 0.7830 0.9662 0.0208
C12 C 0.7576(4) 0.3849(3) 0.2964(2)
H4 H 0.7570 0.3720 0.2208
C13 C 1.0333(3) 0.7273(3) 0.2380(2)
H5 H 1.0434 0.6485 0.2017
C14 C 1.0057(4) 0.9578(3) 0.3519(2)
H6 H 0.9996 1.0356 0.3915
C15 C 0.1485(3) 0.4076(3) 0.0589(2)
H7 H 0.0861 0.4234 -0.0026
C16 C 0.7810(4) 0.2849(3) 0.3612(2)
H8 H 0.7951 0.2050 0.3288
C17 C 0.3447(4) 0.3640(3) 0.2428(3)
H9 H 0.4069 0.3473 0.3041
C18 C 0.6770(4) 0.8644(3) 0.3903(2)
H10 H 0.5976 0.8809 0.3342
H11 H 0.7006 0.9371 0.4445
H12 H 0.6201 0.7835 0.4236
C19 C 0.0898(4) 0.2947(3) 0.1141(3)
H13 H -0.0145 0.2310 0.0904
C20 C 1.1656(4) 0.9496(3) 0.3050(3)
H14 H 1.2660 1.0221 0.3123
C21 C 0.7647(4) 0.4214(3) 0.5205(2)
H15 H 0.7672 0.4340 0.5962
C22 C 0.7835(4) 0.3028(3) 0.4724(2)
H16 H 0.7978 0.2349 0.5155
C23 C 1.1805(4) 0.8350(3) 0.2467(2)
H17 H 1.2894 0.8310 0.2138
C24 C 0.1854(4) 0.2754(3) 0.2050(3)
H18 H 0.1411 0.1993 0.2430
H19 H 0.625(5) 1.066(4) 0.103(3)
loop_
_geom_bond_atom_site_label_1
_geom_bond_atom_site_label_2
_geom_bond_site_symmetry_1
_geom_bond_site_symmetry_2
O1 C11 1_555 1_555
N1 N2 1_555 1_555
N2 N3 1_555 1_555
N3 C3 1_555 1_555
C1 C2 1_555 1_555
C2 N1 1_555 1_555
C3 C2 1_555 1_555
C4 C1 1_555 1_555
C5 N1 1_555 1_555
C6 C1 1_555 1_555
C7 C4 1_555 1_555
C8 C4 1_555 1_555
C9 C8 1_555 1_555
C10 C7 1_555 1_555
H1 C10 1_555 1_555
C11 C3 1_555 1_555
H2 C11 1_555 1_555
H3 C11 1_555 1_555
C12 C7 1_555 1_555
H4 C12 1_555 1_555
C13 C8 1_555 1_555
H5 C13 1_555 1_555
C14 C9 1_555 1_555
H6 C14 1_555 1_555
C15 C5 1_555 1_555
H7 C15 1_555 1_555
C16 C12 1_555 1_555
H8 C16 1_555 1_555
C17 C6 1_555 1_555
H9 C17 1_555 1_555
C18 C9 1_555 1_555
H10 C18 1_555 1_555
H11 C18 1_555 1_555
H12 C18 1_555 1_555
C19 C15 1_555 1_555
H13 C19 1_555 1_555
C20 C14 1_555 1_555
H14 C20 1_555 1_555
C21 C10 1_555 1_555
H15 C21 1_555 1_555
C22 C16 1_555 1_555
H16 C22 1_555 1_555
C23 C13 1_555 1_555
H17 C23 1_555 1_555
C24 C17 1_555 1_555
H18 C24 1_555 1_555
H19 O1 1_555 1_555
C5 C6 1_555 1_555
C19 C24 1_555 1_555
C20 C23 1_555 1_555
C21 C22 1_555 1_555

#END
