
#######################################################################
#
#                 Cambridge Crystallographic Data Centre
#                                CCDC 
#
#######################################################################
#
# If this CIF has been generated from an entry in the Cambridge 
# Structural Database, then it will include bibliographic, chemical, 
# crystal, experimental, refinement or atomic coordinate data resulting 
# from the CCDC's data processing and validation procedures.
#
#######################################################################

data_SIXHEO
_chemical_formula_moiety         'C21 H27 N1'
_chemical_name_systematic        4-Butyl-9-ethyl-2,3,6-trimethyl-9H-carbazole
_symmetry_cell_setting           monoclinic
_symmetry_space_group_name_H-M   'P 21/c'
_symmetry_Int_Tables_number      14
_space_group_name_Hall           '-P 2ybc'
loop_
_symmetry_equiv_pos_site_id
_symmetry_equiv_pos_as_xyz
1 x,y,z
2 -x,1/2+y,1/2-z
3 -x,-y,-z
4 x,1/2-y,1/2+z
_cell_length_a                   13.1716(7)
_cell_length_b                   8.3809(5)
_cell_length_c                   20.3900(12)
_cell_angle_alpha                90
_cell_angle_beta                 127.363(4)
_cell_angle_gamma                90
_cell_volume                     1788.99
_exptl_crystal_colour            colorless
_exptl_crystal_description       block
_cell_formula_units_Z            4
loop_
_atom_site_label
_atom_site_type_symbol
_atom_site_fract_x
_atom_site_fract_y
_atom_site_fract_z
N1 N 0.04810(16) 0.42881(19) 0.72158(10)
C1 C 0.2298(2) 0.4104(3) 0.87240(14)
H1 H 0.1892 0.4667 0.8899
C2 C 0.3515(2) 0.3533(3) 0.92831(14)
H2 H 0.3933 0.3722 0.9842
C3 C 0.4150(2) 0.2679(3) 0.90427(14)
C4 C 0.35338(19) 0.2405(2) 0.82162(13)
H3 H 0.3952 0.1845 0.8050
C5 C 0.22861(18) 0.2952(2) 0.76196(12)
C6 C 0.16839(19) 0.3820(2) 0.78894(12)
C7 C 0.5501(2) 0.2086(4) 0.96788(15)
H4 H 0.5636 0.1134 0.9479
H5 H 0.5628 0.1855 1.0185
H6 H 0.6096 0.2892 0.9776
C8 C -0.0497(2) 0.5028(3) 0.72400(15)
H7 H -0.1000 0.5749 0.6775
H8 H -0.0086 0.5655 0.7741
C9 C -0.1372(2) 0.3837(3) 0.72131(16)
H9 H -0.1799 0.3229 0.6712
H10 H -0.1994 0.4387 0.7231
H11 H -0.0883 0.3133 0.7678
C10 C 0.02826(18) 0.3710(2) 0.65073(12)
C11 C 0.13739(17) 0.2872(2) 0.67267(12)
C12 C 0.13904(19) 0.2188(2) 0.60998(12)
C13 C 0.0340(2) 0.2427(2) 0.52786(12)
C14 C -0.0746(2) 0.3273(2) 0.50752(13)
C15 C -0.07759(19) 0.3894(2) 0.56914(13)
H12 H -0.1497 0.4428 0.5560
C16 C -0.1884(2) 0.3526(3) 0.41881(14)
H13 H -0.1627 0.4127 0.3910
H14 H -0.2533 0.4101 0.4167
H15 H -0.2215 0.2510 0.3922
C17 C 0.0351(3) 0.1814(3) 0.45833(15)
H16 H 0.1217 0.1732 0.4771
H17 H -0.0112 0.2540 0.4126
H18 H -0.0046 0.0782 0.4412
C18 C 0.25347(19) 0.1227(2) 0.63371(13)
H19 H 0.2258 0.0441 0.5910
H20 H 0.2861 0.0654 0.6843
C19 C 0.36175(19) 0.2193(2) 0.64647(13)
H21 H 0.3312 0.2711 0.5950
H22 H 0.3865 0.3021 0.6869
C20 C 0.4781(2) 0.1199(3) 0.67535(15)
H23 H 0.5094 0.0700 0.7274
H24 H 0.4526 0.0355 0.6356
C21 C 0.5850(2) 0.2128(4) 0.68646(16)
H25 H 0.5547 0.2643 0.6355
H26 H 0.6536 0.1416 0.7023
H27 H 0.6153 0.2918 0.7287
loop_
_geom_bond_atom_site_label_1
_geom_bond_atom_site_label_2
_geom_bond_site_symmetry_1
_geom_bond_site_symmetry_2
N1 C6 1_555 1_555
C1 H1 1_555 1_555
C2 C1 1_555 1_555
H2 C2 1_555 1_555
C3 C2 1_555 1_555
C4 C3 1_555 1_555
H3 C4 1_555 1_555
C5 C4 1_555 1_555
C6 C1 1_555 1_555
C7 C3 1_555 1_555
H4 C7 1_555 1_555
H5 C7 1_555 1_555
H6 C7 1_555 1_555
C8 N1 1_555 1_555
H7 C8 1_555 1_555
H8 C8 1_555 1_555
C9 C8 1_555 1_555
H9 C9 1_555 1_555
H10 C9 1_555 1_555
H11 C9 1_555 1_555
C10 N1 1_555 1_555
C11 C5 1_555 1_555
C12 C11 1_555 1_555
C13 C12 1_555 1_555
C14 C13 1_555 1_555
C15 C10 1_555 1_555
H12 C15 1_555 1_555
C16 C14 1_555 1_555
H13 C16 1_555 1_555
H14 C16 1_555 1_555
H15 C16 1_555 1_555
C17 C13 1_555 1_555
H16 C17 1_555 1_555
H17 C17 1_555 1_555
H18 C17 1_555 1_555
C18 C12 1_555 1_555
H19 C18 1_555 1_555
H20 C18 1_555 1_555
C19 C18 1_555 1_555
H21 C19 1_555 1_555
H22 C19 1_555 1_555
C20 C19 1_555 1_555
H23 C20 1_555 1_555
H24 C20 1_555 1_555
C21 C20 1_555 1_555
H25 C21 1_555 1_555
H26 C21 1_555 1_555
H27 C21 1_555 1_555
C5 C6 1_555 1_555
C10 C11 1_555 1_555
C14 C15 1_555 1_555

#END
