
#######################################################################
#
#                 Cambridge Crystallographic Data Centre
#                                CCDC 
#
#######################################################################
#
# If this CIF has been generated from an entry in the Cambridge 
# Structural Database, then it will include bibliographic, chemical, 
# crystal, experimental, refinement or atomic coordinate data resulting 
# from the CCDC's data processing and validation procedures.
#
#######################################################################

data_SIXHAK
_chemical_formula_moiety         'C21 H27 N1'
_chemical_name_systematic        4-Butyl-9-ethyl-1,2,6-trimethyl-9H-carbazole
_symmetry_cell_setting           orthorhombic
_symmetry_space_group_name_H-M   'P b c a'
_symmetry_Int_Tables_number      61
_space_group_name_Hall           '-P 2ac 2ab'
loop_
_symmetry_equiv_pos_site_id
_symmetry_equiv_pos_as_xyz
1 x,y,z
2 1/2-x,-y,1/2+z
3 1/2+x,1/2-y,-z
4 -x,1/2+y,1/2-z
5 -x,-y,-z
6 1/2+x,y,1/2-z
7 1/2-x,1/2+y,z
8 x,1/2-y,1/2+z
_cell_length_a                   9.2391(3)
_cell_length_b                   17.1518(6)
_cell_length_c                   22.2035(6)
_cell_angle_alpha                90
_cell_angle_beta                 90
_cell_angle_gamma                90
_cell_volume                     3518.53
_exptl_crystal_colour            colorless
_exptl_crystal_description       platelet
_cell_formula_units_Z            8
loop_
_atom_site_label
_atom_site_type_symbol
_atom_site_fract_x
_atom_site_fract_y
_atom_site_fract_z
N1 N 0.98833(15) 0.67571(8) -0.00153(6)
C1 C 1.0723(2) 0.79335(12) 0.05511(10)
H1 H 1.1307 0.8126 0.0244
C2 C 1.0602(2) 0.83186(12) 0.10913(11)
H2 H 1.1121 0.8778 0.1145
C3 C 0.9739(2) 0.80521(11) 0.15600(9)
C4 C 0.89596(19) 0.73715(10) 0.14791(8)
H3 H 0.8373 0.7187 0.1788
C5 C 0.90451(16) 0.69589(9) 0.09377(7)
C6 C 0.99417(18) 0.72458(10) 0.04788(8)
C7 C 0.9655(3) 0.84880(14) 0.21523(11)
H4 H 0.9302 0.9007 0.2082
H5 H 1.0601 0.8514 0.2330
H6 H 0.9009 0.8220 0.2420
C8 C 0.83904(16) 0.62566(9) 0.07042(7)
C9 C 0.74071(17) 0.57196(9) 0.09495(7)
C10 C 0.69844(17) 0.51111(10) 0.05845(8)
H7 H 0.6332 0.4749 0.0738
C11 C 0.74844(18) 0.50090(10) -0.00033(8)
C12 C 0.84749(17) 0.55242(10) -0.02552(7)
C13 C 0.89224(16) 0.61496(9) 0.01105(7)
C14 C 0.9019(2) 0.53872(12) -0.08869(8)
H8 H 0.8952 0.5862 -0.1114
H9 H 0.8442 0.4992 -0.1077
H10 H 1.0010 0.5220 -0.0872
C15 C 0.6918(2) 0.43174(12) -0.03566(9)
H11 H 0.6373 0.4500 -0.0697
H12 H 0.6306 0.4007 -0.0103
H13 H 0.7718 0.4007 -0.0494
C16 C 1.0716(2) 0.69081(13) -0.05601(8)
H14 H 1.0969 0.6415 -0.0746
H15 H 1.1608 0.7171 -0.0452
C17 C 0.9903(3) 0.74011(13) -0.10110(9)
H16 H 1.0455 0.7438 -0.1376
H17 H 0.9756 0.7913 -0.0848
H18 H 0.8983 0.7165 -0.1095
C18 C 0.68886(17) 0.57684(10) 0.15908(7)
H19 H 0.6006 0.5466 0.1631
H20 H 0.6660 0.6307 0.1684
C19 C 0.7997(2) 0.54703(11) 0.20431(7)
H21 H 0.8215 0.4930 0.1951
H22 H 0.8884 0.5767 0.1996
C20 C 0.7510(2) 0.55240(12) 0.26964(8)
H23 H 0.6581 0.5265 0.2736
H24 H 0.8198 0.5244 0.2946
C21 C 0.7371(3) 0.63431(14) 0.29323(9)
H25 H 0.6693 0.6627 0.2689
H26 H 0.8297 0.6596 0.2918
H27 H 0.7033 0.6329 0.3341
loop_
_geom_bond_atom_site_label_1
_geom_bond_atom_site_label_2
_geom_bond_site_symmetry_1
_geom_bond_site_symmetry_2
N1 C6 1_555 1_555
C1 H1 1_555 1_555
C2 C1 1_555 1_555
H2 C2 1_555 1_555
C3 C2 1_555 1_555
C4 C3 1_555 1_555
H3 C4 1_555 1_555
C5 C4 1_555 1_555
C6 C1 1_555 1_555
C7 C3 1_555 1_555
H4 C7 1_555 1_555
H5 C7 1_555 1_555
H6 C7 1_555 1_555
C8 C5 1_555 1_555
C9 C8 1_555 1_555
C10 C9 1_555 1_555
H7 C10 1_555 1_555
C11 C10 1_555 1_555
C12 C11 1_555 1_555
C13 N1 1_555 1_555
C14 C12 1_555 1_555
H8 C14 1_555 1_555
H9 C14 1_555 1_555
H10 C14 1_555 1_555
C15 C11 1_555 1_555
H11 C15 1_555 1_555
H12 C15 1_555 1_555
H13 C15 1_555 1_555
C16 N1 1_555 1_555
H14 C16 1_555 1_555
H15 C16 1_555 1_555
C17 C16 1_555 1_555
H16 C17 1_555 1_555
H17 C17 1_555 1_555
H18 C17 1_555 1_555
C18 C9 1_555 1_555
H19 C18 1_555 1_555
H20 C18 1_555 1_555
C19 C18 1_555 1_555
H21 C19 1_555 1_555
H22 C19 1_555 1_555
C20 C19 1_555 1_555
H23 C20 1_555 1_555
H24 C20 1_555 1_555
C21 C20 1_555 1_555
H25 C21 1_555 1_555
H26 C21 1_555 1_555
H27 C21 1_555 1_555
C5 C6 1_555 1_555
C8 C13 1_555 1_555
C12 C13 1_555 1_555

#END
