
#######################################################################
#
#                 Cambridge Crystallographic Data Centre
#                                CCDC 
#
#######################################################################
#
# If this CIF has been generated from an entry in the Cambridge 
# Structural Database, then it will include bibliographic, chemical, 
# crystal, experimental, refinement or atomic coordinate data resulting 
# from the CCDC's data processing and validation procedures.
#
#######################################################################

data_SIXJIU
_chemical_formula_moiety         'C22 H14 F1 N3'
_chemical_name_systematic        
4-(Diphenylmethylene)-6-fluoro-4H-[1,2,3]triazolo[1,5-a]indole
_symmetry_cell_setting           triclinic
_symmetry_space_group_name_H-M   'P -1'
_symmetry_Int_Tables_number      2
_space_group_name_Hall           '-P 1'
loop_
_symmetry_equiv_pos_site_id
_symmetry_equiv_pos_as_xyz
1 x,y,z
2 -x,-y,-z
_cell_length_a                   9.1977(5)
_cell_length_b                   9.3797(5)
_cell_length_c                   10.0028(5)
_cell_angle_alpha                78.720(2)
_cell_angle_beta                 85.968(2)
_cell_angle_gamma                81.660(2)
_cell_volume                     836.556
_exptl_crystal_colour            yellow
_exptl_crystal_description       parallelepiped
_cell_formula_units_Z            2
loop_
_atom_site_label
_atom_site_type_symbol
_atom_site_fract_x
_atom_site_fract_y
_atom_site_fract_z
F1 F 1.37349(9) 0.74265(12) 0.16358(9)
N1 N 0.79301(11) 0.84739(11) 0.30123(10)
N2 N 0.66124(12) 0.89340(13) 0.24675(12)
N3 N 0.56700(12) 0.89829(14) 0.35228(12)
C1 C 0.63975(14) 0.85685(16) 0.46959(14)
H1 H 0.5966 0.8519 0.5570
C2 C 0.78701(13) 0.82340(13) 0.43943(12)
C3 C 0.93882(13) 0.77608(13) 0.48569(12)
C4 C 1.03044(13) 0.78174(13) 0.35633(12)
C5 C 1.18115(14) 0.75552(14) 0.32754(13)
H2 H 1.2478 0.7299 0.3967
C6 C 1.22721(14) 0.76906(15) 0.19226(14)
C7 C 1.13517(16) 0.80653(17) 0.08522(14)
H3 H 1.1732 0.8127 -0.0041
C8 C 0.98540(15) 0.83499(15) 0.11148(13)
H4 H 0.9199 0.8614 0.0413
C9 C 0.93754(13) 0.82260(13) 0.24580(12)
C10 C 0.98040(13) 0.73069(12) 0.61540(12)
C11 C 0.87515(13) 0.72886(14) 0.73549(12)
C12 C 0.77691(14) 0.85172(15) 0.75390(13)
H5 H 0.7752 0.9380 0.6894
C13 C 0.68155(14) 0.84609(18) 0.86783(15)
H6 H 0.6165 0.9287 0.8799
C14 C 0.68289(15) 0.71844(19) 0.96320(15)
H7 H 0.6179 0.7144 1.0390
C15 C 0.78008(16) 0.59741(18) 0.94636(15)
H8 H 0.7807 0.5112 1.0109
C16 C 0.87694(15) 0.60241(16) 0.83453(14)
H9 H 0.9441 0.5203 0.8254
C17 C 1.13674(13) 0.67829(13) 0.64911(11)
C18 C 1.21263(14) 0.76396(15) 0.70980(13)
H10 H 1.1655 0.8533 0.7277
C19 C 1.35649(16) 0.71934(19) 0.74406(16)
H11 H 1.4062 0.7787 0.7840
C20 C 1.42684(16) 0.58644(19) 0.71906(17)
H12 H 1.5241 0.5559 0.7422
C21 C 1.35317(16) 0.49956(17) 0.66010(17)
H13 H 1.4005 0.4097 0.6436
C22 C 1.20866(14) 0.54477(15) 0.62495(14)
H14 H 1.1595 0.4852 0.5848
loop_
_geom_bond_atom_site_label_1
_geom_bond_atom_site_label_2
_geom_bond_site_symmetry_1
_geom_bond_site_symmetry_2
F1 C6 1_555 1_555
N1 N2 1_555 1_555
N2 N3 1_555 1_555
N3 C1 1_555 1_555
C1 H1 1_555 1_555
C2 N1 1_555 1_555
C3 C2 1_555 1_555
C4 C3 1_555 1_555
C5 C4 1_555 1_555
H2 C5 1_555 1_555
C6 C5 1_555 1_555
C7 C6 1_555 1_555
H3 C7 1_555 1_555
C8 C7 1_555 1_555
H4 C8 1_555 1_555
C9 N1 1_555 1_555
C10 C3 1_555 1_555
C11 C10 1_555 1_555
C12 C11 1_555 1_555
H5 C12 1_555 1_555
C13 C12 1_555 1_555
H6 C13 1_555 1_555
C14 C13 1_555 1_555
H7 C14 1_555 1_555
C15 C14 1_555 1_555
H8 C15 1_555 1_555
C16 C11 1_555 1_555
H9 C16 1_555 1_555
C17 C10 1_555 1_555
C18 C17 1_555 1_555
H10 C18 1_555 1_555
C19 C18 1_555 1_555
H11 C19 1_555 1_555
C20 C19 1_555 1_555
H12 C20 1_555 1_555
C21 C20 1_555 1_555
H13 C21 1_555 1_555
C22 C17 1_555 1_555
H14 C22 1_555 1_555
C1 C2 1_555 1_555
C4 C9 1_555 1_555
C8 C9 1_555 1_555
C15 C16 1_555 1_555
C21 C22 1_555 1_555

#END
