
#######################################################################
#
#                 Cambridge Crystallographic Data Centre
#                                CCDC 
#
#######################################################################
#
# If this CIF has been generated from an entry in the Cambridge 
# Structural Database, then it will include bibliographic, chemical, 
# crystal, experimental, refinement or atomic coordinate data resulting 
# from the CCDC's data processing and validation procedures.
#
#######################################################################

data_SIXJUG
_chemical_formula_moiety         'C29 H21 N3'
_chemical_name_systematic        
4-((2-Methylphenyl)(phenyl)methylene)-3-phenyl-4H-[1,2,3]triazolo[1,5-a]indole
_symmetry_cell_setting           monoclinic
_symmetry_space_group_name_H-M   'P 21/n'
_symmetry_Int_Tables_number      14
_space_group_name_Hall           '-P 2yn'
loop_
_symmetry_equiv_pos_site_id
_symmetry_equiv_pos_as_xyz
1 x,y,z
2 1/2-x,1/2+y,1/2-z
3 -x,-y,-z
4 1/2+x,1/2-y,1/2+z
_cell_length_a                   13.2346(7)
_cell_length_b                   10.3961(4)
_cell_length_c                   16.0678(8)
_cell_angle_alpha                90
_cell_angle_beta                 100.186(6)
_cell_angle_gamma                90
_cell_volume                     2175.9
_exptl_crystal_colour            orange
_exptl_crystal_description       parallelepiped
_cell_formula_units_Z            4
loop_
_atom_site_label
_atom_site_type_symbol
_atom_site_fract_x
_atom_site_fract_y
_atom_site_fract_z
N1 N 0.4644(2) -0.2769(3) 0.07828(19)
N2 N 0.5510(3) -0.3277(4) 0.0611(3)
N3 N 0.6215(3) -0.2377(4) 0.0813(3)
C1 C 0.3617(3) -0.3203(3) 0.0657(2)
C2 C 0.3238(4) -0.4397(4) 0.0400(2)
H1 H 0.3658 -0.5045 0.0251
C3 C 0.2197(4) -0.4581(4) 0.0376(3)
H2 H 0.1902 -0.5373 0.0208
C4 C 0.1592(3) -0.3603(4) 0.0596(2)
H3 H 0.0894 -0.3748 0.0574
C5 C 0.1995(3) -0.2417(3) 0.0849(2)
H4 H 0.1571 -0.1775 0.0998
C6 C 0.3033(3) -0.2176(3) 0.08807(19)
C7 C 0.3733(3) -0.1089(3) 0.11889(19)
C8 C 0.4758(3) -0.1550(3) 0.1089(2)
C9 C 0.5788(3) -0.1294(4) 0.1097(2)
C10 C 0.3492(2) 0.0006(3) 0.1567(2)
C11 C 0.2420(3) 0.0492(3) 0.1423(2)
C12 C 0.1929(3) 0.0810(3) 0.2092(2)
H5 H 0.2271 0.0712 0.2645
C13 C 0.0933(3) 0.1270(4) 0.1937(3)
H6 H 0.0606 0.1458 0.2389
C14 C 0.0425(3) 0.1452(4) 0.1131(3)
H7 H -0.0247 0.1755 0.1037
C15 C 0.0905(3) 0.1189(4) 0.0458(3)
H8 H 0.0567 0.1344 -0.0091
C16 C 0.1896(3) 0.0691(4) 0.0597(2)
H9 H 0.2211 0.0489 0.0140
C17 C 0.4279(3) 0.0688(4) 0.2187(3)
C18 C 0.4947(3) -0.0144(6) 0.2827(3)
H10 H 0.4836 -0.1028 0.2833
C19 C 0.5693(4) 0.0384(6) 0.3382(3)
H11 H 0.6149 -0.0125 0.3748
C20 C 0.5775(4) 0.1710(5) 0.3403(4)
H12 H 0.6286 0.2059 0.3813
C21 C 0.5203(4) 0.2530(7) 0.2901(3)
H13 H 0.5302 0.3414 0.2949
C22 C 0.4394(4) 0.1957(5) 0.2257(3)
C23 C 0.3842(5) 0.2796(5) 0.1664(3)
H14 H 0.3813 0.2452 0.1106
H15 H 0.4176 0.3619 0.1702
H16 H 0.3157 0.2894 0.1777
C24 C 0.6428(3) -0.0167(5) 0.1329(3)
C25 C 0.7433(4) -0.0321(6) 0.1777(4)
H17 H 0.7685 -0.1142 0.1919
C26 C 0.8036(5) 0.0712(9) 0.2003(6)
H18 H 0.8693 0.0593 0.2311
C27 C 0.7699(6) 0.1936(8) 0.1786(5)
H19 H 0.8128 0.2637 0.1938
C28 C 0.6720(6) 0.2117(6) 0.1342(3)
H20 H 0.6484 0.2943 0.1195
C29 C 0.6082(4) 0.1058(5) 0.1114(3)
H21 H 0.5420 0.1181 0.0816
loop_
_geom_bond_atom_site_label_1
_geom_bond_atom_site_label_2
_geom_bond_site_symmetry_1
_geom_bond_site_symmetry_2
N1 N2 1_555 1_555
N2 N3 1_555 1_555
N3 C9 1_555 1_555
C1 N1 1_555 1_555
C2 C1 1_555 1_555
H1 C2 1_555 1_555
C3 C2 1_555 1_555
H2 C3 1_555 1_555
C4 C3 1_555 1_555
H3 C4 1_555 1_555
C5 C4 1_555 1_555
H4 C5 1_555 1_555
C6 C1 1_555 1_555
C7 C6 1_555 1_555
C8 N1 1_555 1_555
C9 C8 1_555 1_555
C10 C7 1_555 1_555
C11 C10 1_555 1_555
C12 C11 1_555 1_555
H5 C12 1_555 1_555
C13 C12 1_555 1_555
H6 C13 1_555 1_555
C14 C13 1_555 1_555
H7 C14 1_555 1_555
C15 C14 1_555 1_555
H8 C15 1_555 1_555
C16 C11 1_555 1_555
H9 C16 1_555 1_555
C17 C10 1_555 1_555
C18 C17 1_555 1_555
H10 C18 1_555 1_555
C19 C18 1_555 1_555
H11 C19 1_555 1_555
C20 C19 1_555 1_555
H12 C20 1_555 1_555
C21 C20 1_555 1_555
H13 C21 1_555 1_555
C22 C17 1_555 1_555
C23 C22 1_555 1_555
H14 C23 1_555 1_555
H15 C23 1_555 1_555
H16 C23 1_555 1_555
C24 C9 1_555 1_555
C25 C24 1_555 1_555
H17 C25 1_555 1_555
C26 C25 1_555 1_555
H18 C26 1_555 1_555
C27 C26 1_555 1_555
H19 C27 1_555 1_555
C28 C27 1_555 1_555
H20 C28 1_555 1_555
C29 C24 1_555 1_555
H21 C29 1_555 1_555
C5 C6 1_555 1_555
C7 C8 1_555 1_555
C15 C16 1_555 1_555
C21 C22 1_555 1_555
C28 C29 1_555 1_555

#END
