
#######################################################################
#
#                 Cambridge Crystallographic Data Centre
#                                CCDC 
#
#######################################################################
#
# If this CIF has been generated from an entry in the Cambridge 
# Structural Database, then it will include bibliographic, chemical, 
# crystal, experimental, refinement or atomic coordinate data resulting 
# from the CCDC's data processing and validation procedures.
#
#######################################################################

data_SIXJOA
_chemical_formula_moiety         'C23 H16 F1 N3'
_chemical_name_systematic        
6-Fluoro-4-((4-methylphenyl)(phenyl)methylene)-4H-[1,2,3]triazolo[1,5-a]indole
_symmetry_cell_setting           triclinic
_symmetry_space_group_name_H-M   'P -1'
_symmetry_Int_Tables_number      2
_space_group_name_Hall           '-P 1'
loop_
_symmetry_equiv_pos_site_id
_symmetry_equiv_pos_as_xyz
1 x,y,z
2 -x,-y,-z
_cell_length_a                   10.1741(5)
_cell_length_b                   10.2169(6)
_cell_length_c                   10.7539(6)
_cell_angle_alpha                99.848(3)
_cell_angle_beta                 115.757(2)
_cell_angle_gamma                106.048(2)
_cell_volume                     911.16
_exptl_crystal_colour            yellow
_exptl_crystal_description       parallelepiped
_cell_formula_units_Z            2
loop_
_atom_site_label
_atom_site_type_symbol
_atom_site_fract_x
_atom_site_fract_y
_atom_site_fract_z
F1 F 0.67140(13) 0.85406(12) 1.21700(12)
N1 N 0.11094(17) 0.39085(16) 0.89093(16)
N2 N -0.0101(2) 0.30545(19) 0.8984(2)
N3 N -0.1114(2) 0.21305(18) 0.7640(2)
C1 C 0.2510(2) 0.51340(18) 0.99206(18)
C2 C 0.3111(2) 0.5778(2) 1.1386(2)
H1 H 0.2573 0.5439 1.1853
C3 C 0.4554(2) 0.6954(2) 1.2141(2)
H2 H 0.5014 0.7434 1.3137
C4 C 0.5292(2) 0.73971(19) 1.13980(19)
C5 C 0.46925(19) 0.67767(18) 0.99277(18)
H3 H 0.5242 0.7125 0.9473
C6 C 0.32327(18) 0.56078(17) 0.91429(17)
C7 C 0.22339(18) 0.46558(16) 0.75892(17)
C8 C 0.09010(19) 0.35596(17) 0.75449(17)
C9 C -0.0538(2) 0.24132(18) 0.6748(2)
H4 H -0.1042 0.1907 0.5751
C10 C 0.24195(17) 0.48098(16) 0.64376(17)
C11 C 0.35978(18) 0.61640(16) 0.65861(16)
C12 C 0.3436(2) 0.74633(18) 0.6875(2)
H5 H 0.2604 0.7502 0.7012
C13 C 0.4498(2) 0.87005(19) 0.6960(2)
H6 H 0.4363 0.9564 0.7131
C14 C 0.5748(2) 0.8673(2) 0.6795(2)
H7 H 0.6474 0.9517 0.6875
C15 C 0.5925(2) 0.7398(2) 0.6513(2)
H8 H 0.6775 0.7375 0.6401
C16 C 0.4850(2) 0.61460(19) 0.6394(2)
H9 H 0.4970 0.5279 0.6182
C17 C 0.14463(17) 0.36957(16) 0.49687(17)
C18 C 0.09560(18) 0.40954(18) 0.37174(17)
H10 H 0.1252 0.5071 0.3818
C19 C 0.0045(2) 0.3076(2) 0.23424(19)
H11 H -0.0272 0.3375 0.1528
C20 C -0.0414(2) 0.1613(2) 0.21385(19)
C21 C 0.0116(2) 0.12166(19) 0.3378(2)
H12 H -0.0151 0.0241 0.3271
C22 C 0.10255(18) 0.22262(17) 0.47654(18)
H13 H 0.1363 0.1923 0.5576
C23 C -0.1439(3) 0.0501(3) 0.0636(2)
H14 H -0.2537 0.0276 0.0331
H15 H -0.1232 -0.0359 0.0653
H16 H -0.1206 0.0873 -0.0039
loop_
_geom_bond_atom_site_label_1
_geom_bond_atom_site_label_2
_geom_bond_site_symmetry_1
_geom_bond_site_symmetry_2
F1 C4 1_555 1_555
N1 N2 1_555 1_555
N2 N3 1_555 1_555
N3 C9 1_555 1_555
C1 N1 1_555 1_555
C2 C1 1_555 1_555
H1 C2 1_555 1_555
C3 C2 1_555 1_555
H2 C3 1_555 1_555
C4 C3 1_555 1_555
C5 C4 1_555 1_555
H3 C5 1_555 1_555
C6 C1 1_555 1_555
C7 C6 1_555 1_555
C8 N1 1_555 1_555
C9 C8 1_555 1_555
H4 C9 1_555 1_555
C10 C7 1_555 1_555
C11 C10 1_555 1_555
C12 C11 1_555 1_555
H5 C12 1_555 1_555
C13 C12 1_555 1_555
H6 C13 1_555 1_555
C14 C13 1_555 1_555
H7 C14 1_555 1_555
C15 C14 1_555 1_555
H8 C15 1_555 1_555
C16 C11 1_555 1_555
H9 C16 1_555 1_555
C17 C10 1_555 1_555
C18 C17 1_555 1_555
H10 C18 1_555 1_555
C19 C18 1_555 1_555
H11 C19 1_555 1_555
C20 C19 1_555 1_555
C21 C20 1_555 1_555
H12 C21 1_555 1_555
C22 C17 1_555 1_555
H13 C22 1_555 1_555
C23 C20 1_555 1_555
H14 C23 1_555 1_555
H15 C23 1_555 1_555
H16 C23 1_555 1_555
C5 C6 1_555 1_555
C7 C8 1_555 1_555
C15 C16 1_555 1_555
C21 C22 1_555 1_555

#END
