
#######################################################################
#
#                 Cambridge Crystallographic Data Centre
#                                CCDC 
#
#######################################################################
#
# If this CIF has been generated from an entry in the Cambridge 
# Structural Database, then it will include bibliographic, chemical, 
# crystal, experimental, refinement or atomic coordinate data resulting 
# from the CCDC's data processing and validation procedures.
#
#######################################################################

data_SIXKAN01
_chemical_formula_moiety         'C29 H27 N3 O1'
_chemical_name_systematic        
4-(Cyclohexyl(3-methoxyphenyl)methylene)-3-phenyl-4H-[1,2,3]triazolo[1,5-a]indole
_symmetry_cell_setting           triclinic
_symmetry_space_group_name_H-M   'P -1'
_symmetry_Int_Tables_number      2
_space_group_name_Hall           '-P 1'
loop_
_symmetry_equiv_pos_site_id
_symmetry_equiv_pos_as_xyz
1 x,y,z
2 -x,-y,-z
_cell_length_a                   10.8071(8)
_cell_length_b                   11.2221(8)
_cell_length_c                   11.6346(8)
_cell_angle_alpha                64.594(7)
_cell_angle_beta                 71.032(7)
_cell_angle_gamma                69.048(7)
_cell_volume                     1165.4
_exptl_crystal_colour            colorless
_exptl_crystal_description       parallelepiped
_cell_formula_units_Z            2
loop_
_atom_site_label
_atom_site_type_symbol
_atom_site_fract_x
_atom_site_fract_y
_atom_site_fract_z
O1 O 0.97353(13) 0.32999(14) 0.05573(12)
N1 N 0.60868(15) 0.72676(14) 0.52034(15)
N2 N 0.51388(17) 0.78139(17) 0.60363(17)
N3 N 0.47917(16) 0.67742(18) 0.70448(17)
C1 C 0.68459(17) 0.78424(18) 0.39547(18)
C2 C 0.6780(2) 0.9193(2) 0.3225(2)
H1 H 0.6208 0.9885 0.3532
C3 C 0.7616(2) 0.9465(2) 0.2005(2)
H2 H 0.7610 1.0365 0.1471
C4 C 0.84558(19) 0.84226(19) 0.15717(19)
H3 H 0.8998 0.8635 0.0743
C5 C 0.85157(17) 0.70674(18) 0.23348(17)
H4 H 0.9096 0.6379 0.2026
C6 C 0.76963(16) 0.67469(17) 0.35714(17)
C7 C 0.74734(15) 0.54444(17) 0.46256(16)
C8 C 0.63814(16) 0.58795(17) 0.56403(16)
C9 C 0.55162(16) 0.55639(18) 0.68574(17)
C10 C 0.81478(16) 0.41539(17) 0.46680(16)
C11 C 0.92459(16) 0.39216(16) 0.35570(17)
C12 C 1.05718(18) 0.38581(19) 0.34887(19)
H5 H 1.0792 0.3965 0.4142
C13 C 1.15665(18) 0.3635(2) 0.2442(2)
H6 H 1.2455 0.3598 0.2394
C14 C 1.12567(18) 0.34689(19) 0.1482(2)
H7 H 1.1933 0.3327 0.0781
C15 C 0.99388(17) 0.35102(17) 0.15450(17)
C16 C 0.89321(16) 0.37477(17) 0.25786(17)
H8 H 0.8044 0.3791 0.2619
C17 C 0.8418(2) 0.3228(3) 0.0651(2)
H9 H 0.8171 0.2516 0.1444
H10 H 0.8412 0.3035 -0.0075
H11 H 0.7782 0.4084 0.0647
C18 C 0.78769(17) 0.29052(17) 0.58208(17)
H12 H 0.6971 0.3189 0.6317
C19 C 0.7859(3) 0.1757(3) 0.5465(2)
H13 H 0.8727 0.1476 0.4932
H14 H 0.7169 0.2084 0.4960
C20 C 0.7570(4) 0.0524(3) 0.6688(3)
H15 H 0.6652 0.0772 0.7157
H16 H 0.7643 -0.0219 0.6432
C21 C 0.8536(3) 0.0053(3) 0.7566(3)
H17 H 0.8287 -0.0684 0.8349
H18 H 0.9442 -0.0296 0.7133
C22 C 0.8532(3) 0.1186(3) 0.7926(3)
H19 H 0.9198 0.0859 0.8457
H20 H 0.7650 0.1478 0.8433
C23 C 0.8855(2) 0.2393(2) 0.6714(2)
H21 H 0.8811 0.3127 0.6969
H22 H 0.9770 0.2119 0.6250
C24 C 0.52698(16) 0.42933(19) 0.79103(17)
C25 C 0.46647(19) 0.3466(2) 0.7785(2)
H23 H 0.4433 0.3695 0.7000
C26 C 0.4402(2) 0.2313(3) 0.8807(2)
H24 H 0.3998 0.1768 0.8707
C27 C 0.4735(2) 0.1961(2) 0.9977(2)
H25 H 0.4568 0.1175 1.0664
C28 C 0.5315(2) 0.2778(2) 1.0120(2)
H26 H 0.5530 0.2552 1.0913
C29 C 0.5583(2) 0.3929(2) 0.91038(19)
H27 H 0.5979 0.4473 0.9216
loop_
_geom_bond_atom_site_label_1
_geom_bond_atom_site_label_2
_geom_bond_site_symmetry_1
_geom_bond_site_symmetry_2
O1 C15 1_555 1_555
N1 N2 1_555 1_555
N2 N3 1_555 1_555
N3 C9 1_555 1_555
C1 N1 1_555 1_555
C2 C1 1_555 1_555
H1 C2 1_555 1_555
C3 C2 1_555 1_555
H2 C3 1_555 1_555
C4 C3 1_555 1_555
H3 C4 1_555 1_555
C5 C4 1_555 1_555
H4 C5 1_555 1_555
C6 C1 1_555 1_555
C7 C6 1_555 1_555
C8 N1 1_555 1_555
C9 C8 1_555 1_555
C10 C7 1_555 1_555
C11 C10 1_555 1_555
C12 C11 1_555 1_555
H5 C12 1_555 1_555
C13 C12 1_555 1_555
H6 C13 1_555 1_555
C14 C13 1_555 1_555
H7 C14 1_555 1_555
C15 C14 1_555 1_555
C16 C11 1_555 1_555
H8 C16 1_555 1_555
C17 O1 1_555 1_555
H9 C17 1_555 1_555
H10 C17 1_555 1_555
H11 C17 1_555 1_555
C18 C10 1_555 1_555
H12 C18 1_555 1_555
C19 C18 1_555 1_555
H13 C19 1_555 1_555
H14 C19 1_555 1_555
C20 C19 1_555 1_555
H15 C20 1_555 1_555
H16 C20 1_555 1_555
C21 C20 1_555 1_555
H17 C21 1_555 1_555
H18 C21 1_555 1_555
C22 C21 1_555 1_555
H19 C22 1_555 1_555
H20 C22 1_555 1_555
C23 C18 1_555 1_555
H21 C23 1_555 1_555
H22 C23 1_555 1_555
C24 C9 1_555 1_555
C25 C24 1_555 1_555
H23 C25 1_555 1_555
C26 C25 1_555 1_555
H24 C26 1_555 1_555
C27 C26 1_555 1_555
H25 C27 1_555 1_555
C28 C27 1_555 1_555
H26 C28 1_555 1_555
C29 C24 1_555 1_555
H27 C29 1_555 1_555
C5 C6 1_555 1_555
C7 C8 1_555 1_555
C15 C16 1_555 1_555
C22 C23 1_555 1_555
C28 C29 1_555 1_555

#END
