
#######################################################################
#
#                 Cambridge Crystallographic Data Centre
#                                CCDC 
#
#######################################################################
#
# If this CIF has been generated from an entry in the Cambridge 
# Structural Database, then it will include bibliographic, chemical, 
# crystal, experimental, refinement or atomic coordinate data resulting 
# from the CCDC's data processing and validation procedures.
#
#######################################################################

data_SIXKUH
_chemical_formula_moiety         'C24 H19 N3'
_chemical_name_systematic        
4-(bis(2-methylphenyl)methylene)-4H-[1,2,3]triazolo[1,5-a]indole
_symmetry_cell_setting           monoclinic
_symmetry_space_group_name_H-M   'P 21/c'
_symmetry_Int_Tables_number      14
_space_group_name_Hall           '-P 2ybc'
loop_
_symmetry_equiv_pos_site_id
_symmetry_equiv_pos_as_xyz
1 x,y,z
2 -x,1/2+y,1/2-z
3 -x,-y,-z
4 x,1/2-y,1/2+z
_cell_length_a                   9.3246(3)
_cell_length_b                   27.2211(8)
_cell_length_c                   7.2404(3)
_cell_angle_alpha                90
_cell_angle_beta                 105.032(2)
_cell_angle_gamma                90
_cell_volume                     1774.91
_exptl_crystal_colour            colorless
_exptl_crystal_description       prism
_cell_formula_units_Z            4
loop_
_atom_site_label
_atom_site_type_symbol
_atom_site_fract_x
_atom_site_fract_y
_atom_site_fract_z
C1 C 0.6880(2) 0.75940(7) 0.9386(3)
H1 H 0.7787 0.7770 0.9577
C2 C 0.5492(2) 0.78004(6) 0.9012(3)
C3 C 0.45581(19) 0.82436(6) 0.8657(2)
C4 C 0.50372(19) 0.87109(6) 0.8652(2)
C5 C 0.6662(2) 0.88280(6) 0.9291(3)
C6 C 0.7425(2) 0.87132(7) 1.1177(3)
H2 H 0.6905 0.8562 1.1994
C7 C 0.8922(2) 0.88163(8) 1.1870(3)
H3 H 0.9424 0.8737 1.3152
C8 C 0.9677(2) 0.90339(8) 1.0686(3)
H4 H 1.0706 0.9104 1.1151
C9 C 0.8943(2) 0.91499(7) 0.8828(3)
H5 H 0.9478 0.9301 0.8029
C10 C 0.7433(2) 0.90508(6) 0.8089(3)
C11 C 0.6707(2) 0.91710(8) 0.6047(3)
H6 H 0.6077 0.9478 0.5951
H7 H 0.6111 0.8905 0.5361
H8 H 0.7427 0.9233 0.5198
C12 C 0.3945(2) 0.91237(6) 0.8066(3)
C13 C 0.3626(2) 0.94407(7) 0.9413(3)
C14 C 0.4330(2) 0.93789(8) 1.1482(3)
H9 H 0.3848 0.9568 1.2330
H10 H 0.5405 0.9460 1.1782
H11 H 0.4204 0.9049 1.1958
C15 C 0.2559(2) 0.98125(7) 0.8781(3)
H12 H 0.2320 1.0030 0.9683
C16 C 0.1862(2) 0.98629(8) 0.6870(3)
H13 H 0.1155 1.0118 0.6466
C17 C 0.2171(2) 0.95511(8) 0.5537(3)
H14 H 0.1686 0.9591 0.4220
C18 C 0.3194(2) 0.91785(7) 0.6122(3)
H15 H 0.3393 0.8957 0.5205
C19 C 0.30117(19) 0.80492(6) 0.8306(2)
C20 C 0.1620(2) 0.82677(7) 0.7956(3)
H16 H 0.1524 0.8615 0.7863
C21 C 0.0372(2) 0.79732(7) 0.7744(3)
H17 H -0.0580 0.8123 0.7495
C22 C 0.0485(2) 0.74667(8) 0.7887(3)
H18 H -0.0389 0.7275 0.7738
C23 C 0.1853(2) 0.72358(7) 0.8243(3)
H19 H 0.1945 0.6889 0.8341
C24 C 0.3072(2) 0.75354(6) 0.8447(3)
N1 N 0.67475(19) 0.70989(6) 0.9439(3)
N2 N 0.53283(19) 0.69771(6) 0.9106(2)
N3 N 0.45892(17) 0.74053(5) 0.8856(2)
loop_
_geom_bond_atom_site_label_1
_geom_bond_atom_site_label_2
_geom_bond_site_symmetry_1
_geom_bond_site_symmetry_2
C1 H1 1_555 1_555
C2 C1 1_555 1_555
C3 C2 1_555 1_555
C4 C3 1_555 1_555
C5 C4 1_555 1_555
C6 C5 1_555 1_555
H2 C6 1_555 1_555
C7 C6 1_555 1_555
H3 C7 1_555 1_555
C8 C7 1_555 1_555
H4 C8 1_555 1_555
C9 C8 1_555 1_555
H5 C9 1_555 1_555
C10 C5 1_555 1_555
C11 C10 1_555 1_555
H6 C11 1_555 1_555
H7 C11 1_555 1_555
H8 C11 1_555 1_555
C12 C4 1_555 1_555
C13 C12 1_555 1_555
C14 C13 1_555 1_555
H9 C14 1_555 1_555
H10 C14 1_555 1_555
H11 C14 1_555 1_555
C15 C13 1_555 1_555
H12 C15 1_555 1_555
C16 C15 1_555 1_555
H13 C16 1_555 1_555
C17 C16 1_555 1_555
H14 C17 1_555 1_555
C18 C12 1_555 1_555
H15 C18 1_555 1_555
C19 C3 1_555 1_555
C20 C19 1_555 1_555
H16 C20 1_555 1_555
C21 C20 1_555 1_555
H17 C21 1_555 1_555
C22 C21 1_555 1_555
H18 C22 1_555 1_555
C23 C22 1_555 1_555
H19 C23 1_555 1_555
C24 C19 1_555 1_555
N1 C1 1_555 1_555
N2 N1 1_555 1_555
N3 C2 1_555 1_555
C9 C10 1_555 1_555
C17 C18 1_555 1_555
C23 C24 1_555 1_555
C24 N3 1_555 1_555
N2 N3 1_555 1_555

#END
