
#######################################################################
#
#                 Cambridge Crystallographic Data Centre
#                                CCDC 
#
#######################################################################
#
# If this CIF has been generated from an entry in the Cambridge 
# Structural Database, then it will include bibliographic, chemical, 
# crystal, experimental, refinement or atomic coordinate data resulting 
# from the CCDC's data processing and validation procedures.
#
#######################################################################

data_SIXKAN
_chemical_formula_moiety         'C29 H27 N3 O1'
_chemical_name_systematic        
4-(Cyclohexyl(3-methoxyphenyl)methylene)-3-phenyl-4H-[1,2,3]triazolo[1,5-a]indole
_symmetry_cell_setting           monoclinic
_symmetry_space_group_name_H-M   'P 21/n'
_symmetry_Int_Tables_number      14
_space_group_name_Hall           '-P 2yn'
loop_
_symmetry_equiv_pos_site_id
_symmetry_equiv_pos_as_xyz
1 x,y,z
2 1/2-x,1/2+y,1/2-z
3 -x,-y,-z
4 1/2+x,1/2-y,1/2+z
_cell_length_a                   13.5116(6)
_cell_length_b                   10.1230(4)
_cell_length_c                   17.0970(7)
_cell_angle_alpha                90
_cell_angle_beta                 98.441(4)
_cell_angle_gamma                90
_cell_volume                     2313.16
_exptl_crystal_colour            colorless
_exptl_crystal_description       parallelepiped
_cell_formula_units_Z            4
loop_
_atom_site_label
_atom_site_type_symbol
_atom_site_fract_x
_atom_site_fract_y
_atom_site_fract_z
O1 O 0.55027(11) 0.29138(17) 0.35196(9)
N1 N 0.44140(10) 0.78741(15) 0.07279(9)
N2 N 0.52810(12) 0.84313(17) 0.06268(11)
N3 N 0.59729(11) 0.75796(17) 0.09134(10)
C1 C 0.34145(13) 0.82933(19) 0.05534(11)
C2 C 0.30574(17) 0.9444(2) 0.01865(14)
H1 H 0.3481 1.0068 0.0013
C3 C 0.20323(18) 0.9619(2) 0.00910(16)
H2 H 0.1752 1.0374 -0.0161
C4 C 0.14199(16) 0.8693(2) 0.03644(16)
H3 H 0.0734 0.8848 0.0306
C5 C 0.17982(15) 0.7537(2) 0.07249(14)
H4 H 0.1370 0.6923 0.0903
C6 C 0.28278(13) 0.72999(18) 0.08195(11)
C7 C 0.34945(12) 0.61962(18) 0.11527(10)
C8 C 0.45194(13) 0.66677(17) 0.10756(10)
C9 C 0.55470(12) 0.64831(17) 0.11969(10)
C10 C 0.32514(13) 0.5016(2) 0.14365(11)
C11 C 0.21740(15) 0.4598(2) 0.14546(14)
C12 C 0.1851(4) 0.4684(6) 0.2154(3)
H5 H 0.1928 0.5589 0.2340
H6 H 0.2269 0.4131 0.2531
C13 C 0.0756(6) 0.4270(7) 0.2134(6)
H7 H 0.0566 0.4371 0.2656
H8 H 0.0328 0.4838 0.1773
C14 C 0.0612(7) 0.2868(11) 0.1873(6)
H9 H -0.0093 0.2650 0.1827
H10 H 0.0969 0.2299 0.2276
C15 C 0.0972(4) 0.2586(5) 0.1091(3)
H11 H 0.0577 0.3087 0.0673
H12 H 0.0893 0.1654 0.0965
C16 C 0.2077(3) 0.2975(4) 0.1147(3)
H13 H 0.2300 0.2882 0.0636
H14 H 0.2487 0.2412 0.1524
C17 C 0.40353(13) 0.40084(19) 0.17039(11)
C18 C 0.44316(14) 0.3892(2) 0.24856(12)
H15 H 0.4230 0.4471 0.2854
C19 C 0.51348(14) 0.2912(2) 0.27348(12)
C20 C 0.54237(17) 0.2045(2) 0.21948(14)
H16 H 0.5890 0.1388 0.2359
C21 C 0.5020(2) 0.2149(2) 0.14070(15)
H17 H 0.5210 0.1555 0.1042
C22 C 0.43345(18) 0.3131(2) 0.11577(14)
H18 H 0.4074 0.3206 0.0625
C23 C 0.63045(18) 0.2025(3) 0.37802(16)
H19 H 0.6495 0.2112 0.4341
H20 H 0.6866 0.2231 0.3518
H21 H 0.6091 0.1135 0.3657
C24 C 0.62554(12) 0.54530(18) 0.15511(11)
C25 C 0.65632(14) 0.5405(2) 0.23596(12)
H22 H 0.6241 0.5923 0.2694
C26 C 0.73445(16) 0.4596(2) 0.26751(14)
H23 H 0.7551 0.4584 0.3218
C27 C 0.78132(17) 0.3815(2) 0.21940(16)
H24 H 0.8343 0.3278 0.2409
C28 C 0.75072(18) 0.3819(2) 0.13962(17)
H25 H 0.7818 0.3270 0.1070
C29 C 0.67297(16) 0.4644(2) 0.10708(13)
H26 H 0.6528 0.4651 0.0527
C30? C 0.1989(4) 0.3834(7) 0.2215(3)
H27? H 0.2360 0.3011 0.2251
H28? H 0.2229 0.4358 0.2679
C31? C 0.0874(6) 0.3542(10) 0.2195(5)
H29? H 0.0518 0.4361 0.2252
H30? H 0.0783 0.2972 0.2636
C32? C 0.0439(7) 0.2871(11) 0.1421(6)
H31? H 0.0780 0.2040 0.1369
H32? H -0.0266 0.2688 0.1420
C33? C 0.0567(3) 0.3764(6) 0.0735(3)
H33? H 0.0172 0.4558 0.0761
H34? H 0.0326 0.3317 0.0242
C34? C 0.1674(3) 0.4144(5) 0.0750(3)
H35? H 0.2027 0.3376 0.0594
H36? H 0.1708 0.4820 0.0352
loop_
_geom_bond_atom_site_label_1
_geom_bond_atom_site_label_2
_geom_bond_site_symmetry_1
_geom_bond_site_symmetry_2
O1 C19 1_555 1_555
N1 N2 1_555 1_555
N2 N3 1_555 1_555
N3 C9 1_555 1_555
C1 N1 1_555 1_555
C2 C1 1_555 1_555
H1 C2 1_555 1_555
C3 C2 1_555 1_555
H2 C3 1_555 1_555
C4 C3 1_555 1_555
H3 C4 1_555 1_555
C5 C4 1_555 1_555
H4 C5 1_555 1_555
C6 C1 1_555 1_555
C7 C6 1_555 1_555
C8 N1 1_555 1_555
C9 C8 1_555 1_555
C10 C7 1_555 1_555
C11 C10 1_555 1_555
C12 C11 1_555 1_555
H5 C12 1_555 1_555
H6 C12 1_555 1_555
C13 C12 1_555 1_555
H7 C13 1_555 1_555
H8 C13 1_555 1_555
C14 C13 1_555 1_555
H9 C14 1_555 1_555
H10 C14 1_555 1_555
C15 C14 1_555 1_555
H11 C15 1_555 1_555
H12 C15 1_555 1_555
C16 C11 1_555 1_555
H13 C16 1_555 1_555
H14 C16 1_555 1_555
C17 C10 1_555 1_555
C18 C17 1_555 1_555
H15 C18 1_555 1_555
C19 C18 1_555 1_555
C20 C19 1_555 1_555
H16 C20 1_555 1_555
C21 C20 1_555 1_555
H17 C21 1_555 1_555
C22 C17 1_555 1_555
H18 C22 1_555 1_555
C23 O1 1_555 1_555
H19 C23 1_555 1_555
H20 C23 1_555 1_555
H21 C23 1_555 1_555
C24 C9 1_555 1_555
C25 C24 1_555 1_555
H22 C25 1_555 1_555
C26 C25 1_555 1_555
H23 C26 1_555 1_555
C27 C26 1_555 1_555
H24 C27 1_555 1_555
C28 C27 1_555 1_555
H25 C28 1_555 1_555
C29 C24 1_555 1_555
H26 C29 1_555 1_555
C5 C6 1_555 1_555
C7 C8 1_555 1_555
C15 C16 1_555 1_555
C21 C22 1_555 1_555
C28 C29 1_555 1_555

#END
