
#######################################################################
#
#                 Cambridge Crystallographic Data Centre
#                                CCDC 
#
#######################################################################
#
# If this CIF has been generated from an entry in the Cambridge 
# Structural Database, then it will include bibliographic, chemical, 
# crystal, experimental, refinement or atomic coordinate data resulting 
# from the CCDC's data processing and validation procedures.
#
#######################################################################

data_SIXKIW
_chemical_formula_moiety         'C21 H20 O2'
_chemical_name_systematic        
5-methoxy-3,3-dimethyl-2,3-dihydro-4'H-spiro[indene-1,1'-naphthalen]-4'-one
_symmetry_cell_setting           monoclinic
_symmetry_space_group_name_H-M   'P 21/c'
_symmetry_Int_Tables_number      14
_space_group_name_Hall           '-P 2ybc'
loop_
_symmetry_equiv_pos_site_id
_symmetry_equiv_pos_as_xyz
1 x,y,z
2 -x,1/2+y,1/2-z
3 -x,-y,-z
4 x,1/2-y,1/2+z
_cell_length_a                   10.759(3)
_cell_length_b                   15.346(4)
_cell_length_c                   10.919(3)
_cell_angle_alpha                90
_cell_angle_beta                 111.152(5)
_cell_angle_gamma                90
_cell_volume                     1681.35
_exptl_crystal_colour            colorless
_exptl_crystal_description       block
_cell_formula_units_Z            4
loop_
_atom_site_label
_atom_site_type_symbol
_atom_site_fract_x
_atom_site_fract_y
_atom_site_fract_z
O1 O -0.0731(2) 0.87916(18) 0.4985(3)
O2 O 0.3438(2) 1.17028(16) 0.0068(2)
C1 C -0.0038(3) 0.8929(2) 0.4331(4)
C2 C -0.0614(3) 0.8973(2) 0.2908(4)
H1 H -0.153418 0.893452 0.249251
C3 C 0.0135(3) 0.9067(2) 0.2188(3)
H2 H -0.029848 0.909664 0.128189
C4 C 0.1633(3) 0.91310(18) 0.2712(3)
C5 C 0.2199(3) 0.91565(17) 0.4195(3)
C6 C 0.1414(3) 0.90549(18) 0.4951(3)
C7 C 0.2007(4) 0.9075(2) 0.6325(3)
H3 H 0.147716 0.900868 0.682947
C8 C 0.3327(4) 0.9189(2) 0.6924(3)
H4 H 0.370601 0.919977 0.783581
C9 C 0.4116(4) 0.9290(2) 0.6188(3)
H5 H 0.502964 0.936661 0.660341
C10 C 0.3566(3) 0.92778(19) 0.4846(3)
H6 H 0.411220 0.935157 0.435926
C11 C 0.2227(3) 0.83469(19) 0.2174(3)
H7 H 0.300190 0.811387 0.286708
H8 H 0.156906 0.788639 0.186877
C12 C 0.2625(3) 0.8677(2) 0.1026(3)
C13 C 0.3984(4) 0.8329(2) 0.1139(4)
H9 H 0.420678 0.854032 0.041641
H10 H 0.396174 0.770394 0.112231
H11 H 0.464149 0.852385 0.194988
C14 C 0.1577(4) 0.8412(2) -0.0312(3)
H12 H 0.071520 0.861805 -0.036900
H13 H 0.155788 0.778926 -0.039313
H14 H 0.180600 0.866552 -0.100684
C15 C 0.2624(3) 0.96500(19) 0.1188(3)
C16 C 0.2061(2) 0.99082(18) 0.2091(2)
C17 C 0.1934(3) 1.0783(2) 0.2322(3)
H15 H 0.155455 1.095443 0.292634
C18 C 0.2373(3) 1.14037(19) 0.1652(3)
H16 H 0.227918 1.199350 0.179445
C19 C 0.2950(3) 1.1142(2) 0.0769(3)
C20 C 0.3071(3) 1.0270(2) 0.0530(3)
H17 H 0.345320 1.010061 -0.007311
C21 C 0.3355(4) 1.2601(2) 0.0230(4)
H18 H 0.243612 1.276913 -0.003157
H19 H 0.375901 1.290152 -0.030198
H20 H 0.381277 1.275040 0.113626
loop_
_geom_bond_atom_site_label_1
_geom_bond_atom_site_label_2
_geom_bond_site_symmetry_1
_geom_bond_site_symmetry_2
O1 C1 1_555 1_555
O2 C19 1_555 1_555
C1 C2 1_555 1_555
C2 H1 1_555 1_555
C3 C2 1_555 1_555
H2 C3 1_555 1_555
C4 C3 1_555 1_555
C5 C4 1_555 1_555
C6 C1 1_555 1_555
C7 C6 1_555 1_555
H3 C7 1_555 1_555
C8 C7 1_555 1_555
H4 C8 1_555 1_555
C9 C8 1_555 1_555
H5 C9 1_555 1_555
C10 C5 1_555 1_555
H6 C10 1_555 1_555
C11 C4 1_555 1_555
H7 C11 1_555 1_555
H8 C11 1_555 1_555
C12 C11 1_555 1_555
C13 C12 1_555 1_555
H9 C13 1_555 1_555
H10 C13 1_555 1_555
H11 C13 1_555 1_555
C14 C12 1_555 1_555
H12 C14 1_555 1_555
H13 C14 1_555 1_555
H14 C14 1_555 1_555
C15 C12 1_555 1_555
C16 C4 1_555 1_555
C17 C16 1_555 1_555
H15 C17 1_555 1_555
C18 C17 1_555 1_555
H16 C18 1_555 1_555
C19 C18 1_555 1_555
C20 C15 1_555 1_555
H17 C20 1_555 1_555
C21 O2 1_555 1_555
H18 C21 1_555 1_555
H19 C21 1_555 1_555
H20 C21 1_555 1_555
C5 C6 1_555 1_555
C9 C10 1_555 1_555
C15 C16 1_555 1_555
C19 C20 1_555 1_555

#END
