
#######################################################################
#
#                 Cambridge Crystallographic Data Centre
#                                CCDC 
#
#######################################################################
#
# If this CIF has been generated from an entry in the Cambridge 
# Structural Database, then it will include bibliographic, chemical, 
# crystal, experimental, refinement or atomic coordinate data resulting 
# from the CCDC's data processing and validation procedures.
#
#######################################################################

data_SIXKIV
_chemical_formula_moiety         'C20 H17 N3'
_chemical_name_systematic        
4-(Cyclopropyl(2-methylphenyl)methylene)-4H-[1,2,3]triazolo[1,5-a]indole
_symmetry_cell_setting           monoclinic
_symmetry_space_group_name_H-M   'P 21/n'
_symmetry_Int_Tables_number      14
_space_group_name_Hall           '-P 2yn'
loop_
_symmetry_equiv_pos_site_id
_symmetry_equiv_pos_as_xyz
1 x,y,z
2 1/2-x,1/2+y,1/2-z
3 -x,-y,-z
4 1/2+x,1/2-y,1/2+z
_cell_length_a                   12.5369(4)
_cell_length_b                   9.6511(3)
_cell_length_c                   13.5442(5)
_cell_angle_alpha                90
_cell_angle_beta                 108.084(2)
_cell_angle_gamma                90
_cell_volume                     1557.83
_exptl_crystal_colour            colorless
_exptl_crystal_description       parallelepiped
_cell_formula_units_Z            4
loop_
_atom_site_label
_atom_site_type_symbol
_atom_site_fract_x
_atom_site_fract_y
_atom_site_fract_z
N1 N 1.04163(13) 1.11882(15) 0.12592(12)
N2 N 1.13912(16) 1.1892(2) 0.15021(15)
N3 N 1.21512(15) 1.1034(2) 0.20674(16)
C1 C 0.93008(15) 1.14910(18) 0.06697(13)
C2 C 0.8877(2) 1.2649(2) 0.01000(15)
H1 H 0.9333 1.3395 0.0064
C3 C 0.7744(2) 1.2655(2) -0.04176(16)
H2 H 0.7422 1.3419 -0.0817
C4 C 0.70815(19) 1.1546(2) -0.03520(15)
H3 H 0.6316 1.1583 -0.0703
C5 C 0.75193(16) 1.03757(19) 0.02214(14)
H4 H 0.7057 0.9635 0.0255
C6 C 0.86637(14) 1.03288(17) 0.07457(12)
C7 C 0.94171(12) 0.92495(17) 0.13708(12)
C8 C 1.05367(13) 0.99022(18) 0.16623(13)
C9 C 1.16698(14) 0.9819(2) 0.21842(16)
H5 H 1.2040 0.9055 0.2554
C10 C 0.91752(12) 0.79607(17) 0.16143(12)
C11 C 0.79884(12) 0.74750(16) 0.13075(13)
C12 C 0.75400(15) 0.67645(19) 0.03673(14)
H6 H 0.7993 0.6560 -0.0042
C13 C 0.64262(16) 0.6367(2) 0.00466(17)
H7 H 0.6127 0.5908 -0.0582
C14 C 0.57654(15) 0.6651(2) 0.06560(18)
H8 H 0.5016 0.6381 0.0438
C15 C 0.61960(15) 0.7335(2) 0.15915(18)
H9 H 0.5736 0.7511 0.1999
C16 C 0.73205(14) 0.77676(18) 0.19340(14)
C17 C 0.77653(18) 0.8554(2) 0.29157(16)
H10 H 0.8492 0.8201 0.3299
H11 H 0.7265 0.8455 0.3323
H12 H 0.7827 0.9516 0.2761
C18 C 1.00603(14) 0.7004(2) 0.21946(16)
H13 H 1.075(2) 0.732(3) 0.234(2)
C19 C 0.99697(17) 0.5458(2) 0.2008(2)
H14 H 0.9292 0.5109 0.1505
H15 H 1.0649 0.4959 0.2032
C20 C 0.9879(2) 0.6005(2) 0.2979(2)
H16 H 0.915(2) 0.604(3) 0.315(2)
H17 H 1.045(2) 0.590(3) 0.362(2)
loop_
_geom_bond_atom_site_label_1
_geom_bond_atom_site_label_2
_geom_bond_site_symmetry_1
_geom_bond_site_symmetry_2
N1 N2 1_555 1_555
N2 N3 1_555 1_555
N3 C9 1_555 1_555
C1 N1 1_555 1_555
C2 C1 1_555 1_555
H1 C2 1_555 1_555
C3 C2 1_555 1_555
H2 C3 1_555 1_555
C4 C3 1_555 1_555
H3 C4 1_555 1_555
C5 C4 1_555 1_555
H4 C5 1_555 1_555
C6 C1 1_555 1_555
C7 C6 1_555 1_555
C8 N1 1_555 1_555
C9 C8 1_555 1_555
H5 C9 1_555 1_555
C10 C7 1_555 1_555
C11 C10 1_555 1_555
C12 C11 1_555 1_555
H6 C12 1_555 1_555
C13 C12 1_555 1_555
H7 C13 1_555 1_555
C14 C13 1_555 1_555
H8 C14 1_555 1_555
C15 C14 1_555 1_555
H9 C15 1_555 1_555
C16 C11 1_555 1_555
C17 C16 1_555 1_555
H10 C17 1_555 1_555
H11 C17 1_555 1_555
H12 C17 1_555 1_555
C18 C10 1_555 1_555
H13 C18 1_555 1_555
C19 C18 1_555 1_555
H14 C19 1_555 1_555
H15 C19 1_555 1_555
C20 C18 1_555 1_555
H16 C20 1_555 1_555
H17 C20 1_555 1_555
C5 C6 1_555 1_555
C7 C8 1_555 1_555
C15 C16 1_555 1_555
C19 C20 1_555 1_555

#END
