
#######################################################################
#
#                 Cambridge Crystallographic Data Centre
#                                CCDC 
#
#######################################################################
#
# If this CIF has been generated from an entry in the Cambridge 
# Structural Database, then it will include bibliographic, chemical, 
# crystal, experimental, refinement or atomic coordinate data resulting 
# from the CCDC's data processing and validation procedures.
#
#######################################################################

data_SIXLIW
_chemical_formula_moiety         'C20 H17 N3 O1'
_chemical_name_systematic        
1-Phenyl-1-(4H-[1,2,3]triazolo[1,5-a]indol-4-ylidene)pentan-2-one
_symmetry_cell_setting           monoclinic
_symmetry_space_group_name_H-M   'P 21/m'
_symmetry_Int_Tables_number      11
_space_group_name_Hall           '-P 2yb'
loop_
_symmetry_equiv_pos_site_id
_symmetry_equiv_pos_as_xyz
1 x,y,z
2 -x,1/2+y,-z
3 -x,-y,-z
4 x,1/2-y,z
_cell_length_a                   10.0203(4)
_cell_length_b                   6.7461(3)
_cell_length_c                   12.3400(5)
_cell_angle_alpha                90
_cell_angle_beta                 110.243(4)
_cell_angle_gamma                90
_cell_volume                     782.636
_exptl_crystal_colour            yellow
_exptl_crystal_description       parallelepiped
_cell_formula_units_Z            2
loop_
_atom_site_label
_atom_site_type_symbol
_atom_site_fract_x
_atom_site_fract_y
_atom_site_fract_z
O1 O 0.33487(16) 0.2500 0.87597(13)
N1 N 0.73584(19) 0.2500 1.13522(14)
N2 N 0.7233(2) 0.2500 1.23948(15)
N3 N 0.5845(2) 0.2500 1.21932(16)
C1 C 0.7981(2) 0.2500 0.97667(17)
C2 C 0.8946(2) 0.2500 0.91805(18)
H1 H 0.8619 0.2500 0.8360
C3 C 1.0396(2) 0.2500 0.9813(2)
H2 H 1.1058 0.2500 0.9417
C4 C 1.0892(2) 0.2500 1.1009(2)
H3 H 1.1889 0.2500 1.1419
C5 C 0.9963(2) 0.2500 1.16204(19)
H4 H 1.0293 0.2500 1.2441
C6 C 0.8536(2) 0.2500 1.09721(18)
C7 C 0.5123(2) 0.2500 1.10346(18)
H5 H 0.4117 0.2500 1.0675
C8 C 0.6093(2) 0.2500 1.04681(17)
C9 C 0.6393(2) 0.2500 0.93846(17)
C10 C 0.5459(2) 0.2500 0.82865(17)
C11 C 0.5973(2) 0.2500 0.72865(16)
C12 C 0.61987(15) 0.0723(3) 0.68095(13)
H6 H 0.6038 -0.0499 0.7126
C13 C 0.66594(16) 0.0732(3) 0.58703(14)
H7 H 0.6822 -0.0487 0.5551
C14 C 0.6882(2) 0.2500 0.5397(2)
H8 H 0.7187 0.2500 0.4749
C15 C 0.3875(2) 0.2500 0.80097(18)
C16 C 0.2978(2) 0.2500 0.67498(18)
H9 H 0.3219 0.1353 0.6396
C17 C 0.1376(2) 0.2500 0.6484(2)
H10 H 0.1112 0.1331 0.6805
C18 C 0.0616(2) 0.2500 0.5172(2)
H11 H 0.0886 0.1338 0.4848
H12 H -0.0395 0.2500 0.4996
C12C C 0.61987(15) 0.4277(3) 0.68095(13)
H6C H 0.6038 0.5499 0.7126
C13C C 0.66594(16) 0.4268(3) 0.58703(14)
H7C H 0.6822 0.5487 0.5551
H9C H 0.3219 0.3647 0.6396
H10C H 0.1112 0.3669 0.6805
H11C H 0.0886 0.3662 0.4848
loop_
_geom_bond_atom_site_label_1
_geom_bond_atom_site_label_2
_geom_bond_site_symmetry_1
_geom_bond_site_symmetry_2
O1 C15 1_555 1_555
N1 N2 1_555 1_555
N2 N3 1_555 1_555
N3 C7 1_555 1_555
C1 C2 1_555 1_555
C2 H1 1_555 1_555
C3 C2 1_555 1_555
H2 C3 1_555 1_555
C4 C3 1_555 1_555
H3 C4 1_555 1_555
C5 C4 1_555 1_555
H4 C5 1_555 1_555
C6 N1 1_555 1_555
C7 H5 1_555 1_555
C8 N1 1_555 1_555
C9 C1 1_555 1_555
C10 C9 1_555 1_555
C11 C10 1_555 1_555
C12 C11 1_555 1_555
H6 C12 1_555 1_555
C13 C12 1_555 1_555
H7 C13 1_555 1_555
C14 C13 1_555 1_555
H8 C14 1_555 1_555
C15 C10 1_555 1_555
C16 C15 1_555 1_555
H9 C16 1_555 1_555
C17 C16 1_555 1_555
H10 C17 1_555 1_555
C18 C17 1_555 1_555
H11 C18 1_555 1_555
H12 C18 1_555 1_555
C12C C11 1_555 1_555
H6C C12C 1_555 1_555
C13C C14 1_555 1_555
H7C C13C 1_555 1_555
H9C C16 1_555 1_555
H10C C17 1_555 1_555
H11C C18 1_555 1_555
C1 C6 1_555 1_555
C5 C6 1_555 1_555
C7 C8 1_555 1_555
C8 C9 1_555 1_555
C12C C13C 1_555 1_555

#END
