
#######################################################################
#
#                 Cambridge Crystallographic Data Centre
#                                CCDC 
#
#######################################################################
#
# If this CIF has been generated from an entry in the Cambridge 
# Structural Database, then it will include bibliographic, chemical, 
# crystal, experimental, refinement or atomic coordinate data resulting 
# from the CCDC's data processing and validation procedures.
#
#######################################################################

data_SIXLAP
_chemical_formula_moiety         'C28 H27 N1 O3 S1'
_chemical_name_systematic        
N,4-dimethyl-N-[(3-methyl-2'-oxo-2,3-dihydro-2'H-spiro[indene-1,1'-naphthalen]-3-yl)methyl]benzene-1-sulfonamide
_symmetry_cell_setting           orthorhombic
_symmetry_space_group_name_H-M   'P 21 21 21'
_symmetry_Int_Tables_number      19
_space_group_name_Hall           'P 2ac 2ab'
loop_
_symmetry_equiv_pos_site_id
_symmetry_equiv_pos_as_xyz
1 x,y,z
2 1/2-x,-y,1/2+z
3 -x,1/2+y,1/2-z
4 1/2+x,1/2-y,-z
_cell_length_a                   10.1263(17)
_cell_length_b                   12.3413(19)
_cell_length_c                   19.425(3)
_cell_angle_alpha                90
_cell_angle_beta                 90
_cell_angle_gamma                90
_cell_volume                     2427.58
_exptl_crystal_colour            colorless
_exptl_crystal_description       block
_cell_formula_units_Z            4
loop_
_atom_site_label
_atom_site_type_symbol
_atom_site_fract_x
_atom_site_fract_y
_atom_site_fract_z
S1 S 0.52313(10) 0.24491(8) 0.05291(4)
O1 O 0.6513(3) 0.2600(3) 0.08215(13)
N1 N 0.4155(3) 0.2560(3) 0.11519(14)
C1 C 0.7047(3) 0.2673(3) 0.27693(17)
C2 C 0.4633(3) 0.2652(3) 0.24368(16)
C3 C 0.5914(4) 0.3331(3) 0.23938(19)
H1 H 0.578751 0.402665 0.261638
H2 H 0.614960 0.345671 0.191643
C4 C 0.6246(4) 0.1916(3) 0.32254(18)
O2 O 0.7448(3) 0.1104(2) 0.20617(15)
C5 C 0.5153(4) 0.1105(3) 0.02140(19)
O3 O 0.4800(3) 0.3150(2) -0.00085(13)
C6 C 0.4426(4) 0.1936(3) 0.17926(17)
H3 H 0.520901 0.149705 0.172245
H4 H 0.369241 0.144805 0.187720
C7 C 0.4926(4) 0.1894(3) 0.30405(17)
C8 C 0.7793(4) 0.2016(3) 0.22207(19)
C9 C 0.7945(4) 0.3458(3) 0.31551(19)
C10 C 0.4066(4) 0.1206(3) 0.3382(2)
H5 H 0.317806 0.118612 0.326046
C11 C 0.9125(4) 0.3800(3) 0.2857(2)
C12 C 0.5839(5) 0.0580(3) 0.4086(2)
H6 H 0.613792 0.013942 0.444178
C13 C 0.7585(4) 0.3885(3) 0.3781(2)
H7 H 0.679231 0.367349 0.398187
C14 C 0.8387(5) 0.4628(3) 0.4116(2)
H8 H 0.812592 0.491213 0.453813
C15 C 0.2761(4) 0.2649(4) 0.0947(2)
H9 H 0.243842 0.194872 0.081237
H10 H 0.268519 0.314133 0.056610
H11 H 0.225102 0.291471 0.132727
C16 C 0.4169(5) -0.0212(4) -0.0522(3)
H12 H 0.358836 -0.037857 -0.087723
C17 C 0.4265(4) 0.0855(3) -0.0301(2)
H13 H 0.374061 0.139110 -0.049635
C18 C 0.9567(5) 0.4946(4) 0.3828(2)
H14 H 1.011017 0.543474 0.405719
C19 C 0.8911(4) 0.2527(4) 0.1892(2)
H15 H 0.920132 0.227710 0.146626
C20 C 0.4529(5) 0.0554(3) 0.3902(2)
H16 H 0.395218 0.009166 0.413104
C21 C 0.6722(5) 0.1257(3) 0.3748(2)
H17 H 0.761017 0.126723 0.386886
C22 C 0.5952(4) 0.0315(3) 0.0498(2)
H18 H 0.656849 0.048788 0.083590
C23 C 0.5809(6) -0.0752(4) 0.0266(3)
H19 H 0.634105 -0.129106 0.045271
C24 C 0.9534(4) 0.3357(3) 0.2194(2)
H20 H 1.025639 0.366491 0.197163
C25 C 0.3445(4) 0.3389(4) 0.2573(2)
H21 H 0.265435 0.296081 0.258926
H22 H 0.337367 0.391477 0.221061
H23 H 0.356182 0.375486 0.300522
C26 C 0.9936(5) 0.4537(3) 0.3198(2)
H24 H 1.072919 0.475205 0.300007
C27 C 0.4900(5) -0.1024(4) -0.0234(3)
C28 C 0.4715(7) -0.2194(4) -0.0468(4)
H25 H 0.539973 -0.263681 -0.027339
H26 H 0.475902 -0.222928 -0.096095
H27 H 0.386999 -0.245340 -0.031576
loop_
_geom_bond_atom_site_label_1
_geom_bond_atom_site_label_2
_geom_bond_site_symmetry_1
_geom_bond_site_symmetry_2
S1 O1 1_555 1_555
N1 S1 1_555 1_555
C1 C3 1_555 1_555
C2 C3 1_555 1_555
C3 H1 1_555 1_555
H2 C3 1_555 1_555
C4 C1 1_555 1_555
O2 C8 1_555 1_555
C5 S1 1_555 1_555
O3 S1 1_555 1_555
C6 N1 1_555 1_555
H3 C6 1_555 1_555
H4 C6 1_555 1_555
C7 C2 1_555 1_555
C8 C1 1_555 1_555
C9 C1 1_555 1_555
C10 C7 1_555 1_555
H5 C10 1_555 1_555
C11 C9 1_555 1_555
C12 H6 1_555 1_555
C13 C9 1_555 1_555
H7 C13 1_555 1_555
C14 C13 1_555 1_555
H8 C14 1_555 1_555
C15 N1 1_555 1_555
H9 C15 1_555 1_555
H10 C15 1_555 1_555
H11 C15 1_555 1_555
C16 H12 1_555 1_555
C17 C5 1_555 1_555
H13 C17 1_555 1_555
C18 C14 1_555 1_555
H14 C18 1_555 1_555
C19 C8 1_555 1_555
H15 C19 1_555 1_555
C20 C10 1_555 1_555
H16 C20 1_555 1_555
C21 C4 1_555 1_555
H17 C21 1_555 1_555
C22 C5 1_555 1_555
H18 C22 1_555 1_555
C23 C22 1_555 1_555
H19 C23 1_555 1_555
C24 C11 1_555 1_555
H20 C24 1_555 1_555
C25 C2 1_555 1_555
H21 C25 1_555 1_555
H22 C25 1_555 1_555
H23 C25 1_555 1_555
C26 C11 1_555 1_555
H24 C26 1_555 1_555
C27 C16 1_555 1_555
C28 C27 1_555 1_555
H25 C28 1_555 1_555
H26 C28 1_555 1_555
H27 C28 1_555 1_555
C2 C6 1_555 1_555
C4 C7 1_555 1_555
C12 C20 1_555 1_555
C12 C21 1_555 1_555
C16 C17 1_555 1_555
C18 C26 1_555 1_555
C19 C24 1_555 1_555
C23 C27 1_555 1_555

#END
