
#######################################################################
#
#                 Cambridge Crystallographic Data Centre
#                                CCDC 
#
#######################################################################
#
# If this CIF has been generated from an entry in the Cambridge 
# Structural Database, then it will include bibliographic, chemical, 
# crystal, experimental, refinement or atomic coordinate data resulting 
# from the CCDC's data processing and validation procedures.
#
#######################################################################

data_SIXLAO
_chemical_formula_moiety         'C27 H25 N3 O1'
_chemical_name_systematic        
3-Butyl-4-((2-methoxyphenyl)(phenyl)methylene)-4H-[1,2,3]triazolo[1,5-a]indole
_symmetry_cell_setting           monoclinic
_symmetry_space_group_name_H-M   'P 21/n'
_symmetry_Int_Tables_number      14
_space_group_name_Hall           '-P 2yn'
loop_
_symmetry_equiv_pos_site_id
_symmetry_equiv_pos_as_xyz
1 x,y,z
2 1/2-x,1/2+y,1/2-z
3 -x,-y,-z
4 1/2+x,1/2-y,1/2+z
_cell_length_a                   7.9838(3)
_cell_length_b                   13.6426(6)
_cell_length_c                   20.4633(10)
_cell_angle_alpha                90
_cell_angle_beta                 91.676(4)
_cell_angle_gamma                90
_cell_volume                     2227.9
_exptl_crystal_colour            yellow
_exptl_crystal_description       parallelepiped
_cell_formula_units_Z            4
loop_
_atom_site_label
_atom_site_type_symbol
_atom_site_fract_x
_atom_site_fract_y
_atom_site_fract_z
O1 O 0.23034(14) 0.51696(9) 0.03035(7)
N1 N -0.04653(17) 0.72366(12) 0.20516(7)
N2 N -0.12489(19) 0.68711(14) 0.25644(9)
N3 N -0.0503(2) 0.60225(14) 0.26911(8)
C1 C -0.0609(2) 0.81258(14) 0.17091(9)
C2 C -0.1705(2) 0.88876(16) 0.18002(11)
H1 H -0.2531 0.8855 0.2111
C3 C -0.1525(3) 0.96976(18) 0.14124(12)
H2 H -0.2242 1.0228 0.1459
C4 C -0.0301(3) 0.97366(16) 0.09565(12)
H3 H -0.0198 1.0298 0.0703
C5 C 0.0792(3) 0.89571(15) 0.08646(10)
H4 H 0.1613 0.8995 0.0552
C6 C 0.0636(2) 0.81246(13) 0.12456(9)
C7 C 0.15898(19) 0.71804(12) 0.13024(8)
C8 C 0.07998(19) 0.66536(13) 0.18455(9)
C9 C 0.0752(2) 0.58583(14) 0.22616(9)
C10 C 0.1686(2) 0.49135(14) 0.23173(10)
H5 H 0.1779 0.4728 0.2774
H6 H 0.2811 0.5009 0.2162
C11 C 0.0861(2) 0.40829(14) 0.19341(10)
H7 H 0.0882 0.4235 0.1471
H8 H -0.0302 0.4034 0.2054
C12 C 0.1709(3) 0.31016(15) 0.20525(13)
H9 H 0.2877 0.3157 0.1940
H10 H 0.1674 0.2948 0.2515
C13 C 0.0930(3) 0.22677(17) 0.16700(15)
H11 H 0.1529 0.1673 0.1769
H12 H 0.0984 0.2404 0.1211
H13 H -0.0219 0.2194 0.1786
C14 C 0.29100(19) 0.69010(12) 0.09584(8)
C15 C 0.3584(2) 0.74922(13) 0.04145(9)
C16 C 0.2798(2) 0.75237(14) -0.01960(9)
H14 H 0.1809 0.7177 -0.0270
C17 C 0.3462(3) 0.80624(15) -0.06957(10)
H15 H 0.2919 0.8073 -0.1104
C18 C 0.4898(3) 0.85762(18) -0.05978(12)
H16 H 0.5330 0.8946 -0.0936
C19 C 0.5710(3) 0.8550(2) -0.00013(15)
H17 H 0.6703 0.8897 0.0066
C20 C 0.5054(3) 0.80075(18) 0.05038(12)
H18 H 0.5616 0.7992 0.0908
C21 C 0.38826(19) 0.59899(12) 0.11115(8)
C22 C 0.5161(2) 0.60097(13) 0.15824(9)
H19 H 0.5363 0.6582 0.1819
C23 C 0.6141(2) 0.51923(14) 0.17067(10)
H20 H 0.6997 0.5212 0.2025
C24 C 0.5837(2) 0.43534(14) 0.13565(11)
H21 H 0.6488 0.3800 0.1442
C25 C 0.4576(2) 0.43127(14) 0.08764(10)
H22 H 0.4392 0.3741 0.0637
C26 C 0.35990(19) 0.51325(12) 0.07581(8)
C27 C 0.1984(2) 0.43202(16) -0.00838(11)
H23 H 0.1054 0.4443 -0.0381
H24 H 0.1723 0.3779 0.0195
H25 H 0.2958 0.4166 -0.0327
loop_
_geom_bond_atom_site_label_1
_geom_bond_atom_site_label_2
_geom_bond_site_symmetry_1
_geom_bond_site_symmetry_2
O1 C26 1_555 1_555
N1 N2 1_555 1_555
N2 N3 1_555 1_555
N3 C9 1_555 1_555
C1 N1 1_555 1_555
C2 C1 1_555 1_555
H1 C2 1_555 1_555
C3 C2 1_555 1_555
H2 C3 1_555 1_555
C4 C3 1_555 1_555
H3 C4 1_555 1_555
C5 C4 1_555 1_555
H4 C5 1_555 1_555
C6 C1 1_555 1_555
C7 C6 1_555 1_555
C8 N1 1_555 1_555
C9 C8 1_555 1_555
C10 C9 1_555 1_555
H5 C10 1_555 1_555
H6 C10 1_555 1_555
C11 C10 1_555 1_555
H7 C11 1_555 1_555
H8 C11 1_555 1_555
C12 C11 1_555 1_555
H9 C12 1_555 1_555
H10 C12 1_555 1_555
C13 C12 1_555 1_555
H11 C13 1_555 1_555
H12 C13 1_555 1_555
H13 C13 1_555 1_555
C14 C7 1_555 1_555
C15 C14 1_555 1_555
C16 C15 1_555 1_555
H14 C16 1_555 1_555
C17 C16 1_555 1_555
H15 C17 1_555 1_555
C18 C17 1_555 1_555
H16 C18 1_555 1_555
C19 C18 1_555 1_555
H17 C19 1_555 1_555
C20 C15 1_555 1_555
H18 C20 1_555 1_555
C21 C14 1_555 1_555
C22 C21 1_555 1_555
H19 C22 1_555 1_555
C23 C22 1_555 1_555
H20 C23 1_555 1_555
C24 C23 1_555 1_555
H21 C24 1_555 1_555
C25 C24 1_555 1_555
H22 C25 1_555 1_555
C26 C21 1_555 1_555
C27 O1 1_555 1_555
H23 C27 1_555 1_555
H24 C27 1_555 1_555
H25 C27 1_555 1_555
C5 C6 1_555 1_555
C7 C8 1_555 1_555
C19 C20 1_555 1_555
C25 C26 1_555 1_555

#END
