
#######################################################################
#
#                 Cambridge Crystallographic Data Centre
#                                CCDC 
#
#######################################################################
#
# If this CIF has been generated from an entry in the Cambridge 
# Structural Database, then it will include bibliographic, chemical, 
# crystal, experimental, refinement or atomic coordinate data resulting 
# from the CCDC's data processing and validation procedures.
#
#######################################################################

data_SIXLAM01
_chemical_formula_moiety         'C21 H15 N3'
_chemical_name_systematic        4'-Phenyl-2,2':6',2''-terpyridine
_symmetry_cell_setting           orthorhombic
_symmetry_space_group_name_H-M   'P b c n'
_symmetry_Int_Tables_number      60
_space_group_name_Hall           '-P 2n 2ab'
loop_
_symmetry_equiv_pos_site_id
_symmetry_equiv_pos_as_xyz
1 x,y,z
2 1/2-x,1/2-y,1/2+z
3 1/2+x,1/2-y,-z
4 -x,y,1/2-z
5 -x,-y,-z
6 1/2+x,1/2+y,1/2-z
7 1/2-x,1/2+y,z
8 x,-y,1/2+z
_cell_length_a                   12.27(4)
_cell_length_b                   11.97(4)
_cell_length_c                   11.10(3)
_cell_angle_alpha                90
_cell_angle_beta                 90
_cell_angle_gamma                90
_cell_volume                     1630.28
_exptl_crystal_colour            white
_chemical_melting_point          '207-210 deg.C'
_cell_formula_units_Z            4
loop_
_atom_site_label
_atom_site_type_symbol
_atom_site_fract_x
_atom_site_fract_y
_atom_site_fract_z
N1 N 0.5000 0.58682(18) 0.2500
N2 N 0.32678(15) 0.63747(14) 0.50981(17)
C1 C 0.27047(18) 0.5783(2) 0.5931(2)
H1 H 0.2360 0.6176 0.6544
C2 C 0.26093(17) 0.4634(2) 0.5928(2)
H2 H 0.2209 0.4268 0.6520
C3 C 0.31208(18) 0.40464(18) 0.5027(2)
H3 H 0.3072 0.3272 0.4997
C4 C 0.37110(16) 0.46262(17) 0.4165(2)
H4 H 0.4062 0.4242 0.3548
C5 C 0.37753(14) 0.57895(16) 0.42266(19)
C6 C 0.44117(14) 0.64575(16) 0.33185(18)
C7 C 0.43948(15) 0.76291(16) 0.33354(19)
H5 H 0.3976 0.7999 0.3909
C8 C 0.5000 0.8251(2) 0.2500
C9 C 0.5000 0.9509(2) 0.2500
C10 C 0.54463(16) 1.01188(18) 0.1553(2)
H6 H 0.5753 0.9740 0.0904
C11 C 0.54440(19) 1.12878(19) 0.1554(2)
H7 H 0.5746 1.1674 0.0908
C12 C 0.5000 1.1869(3) 0.2500
H8 H 0.5000 1.2646 0.2500
N2C N 0.67322(15) 0.63747(14) -0.00981(17)
C1C C 0.72953(18) 0.5783(2) -0.0931(2)
H1C H 0.7640 0.6176 -0.1544
C2C C 0.73907(17) 0.4634(2) -0.0928(2)
H2C H 0.7791 0.4268 -0.1520
C3C C 0.68792(18) 0.40464(18) -0.0027(2)
H3C H 0.6928 0.3272 0.0003
C4C C 0.62890(16) 0.46262(17) 0.0835(2)
H4C H 0.5938 0.4242 0.1452
C5C C 0.62247(14) 0.57895(16) 0.07734(19)
C6C C 0.55883(14) 0.64575(16) 0.16815(18)
C7C C 0.56052(15) 0.76291(16) 0.16646(19)
H5C H 0.6024 0.7999 0.1091
C10C C 0.45537(16) 1.01188(18) 0.3447(2)
H6C H 0.4247 0.9740 0.4096
C11C C 0.45560(19) 1.12878(19) 0.3446(2)
H7C H 0.4254 1.1674 0.4092
loop_
_geom_bond_atom_site_label_1
_geom_bond_atom_site_label_2
_geom_bond_site_symmetry_1
_geom_bond_site_symmetry_2
N1 C6 1_555 1_555
N2 C1 1_555 1_555
C1 H1 1_555 1_555
C2 C1 1_555 1_555
H2 C2 1_555 1_555
C3 C2 1_555 1_555
H3 C3 1_555 1_555
C4 C3 1_555 1_555
H4 C4 1_555 1_555
C5 N2 1_555 1_555
C6 C5 1_555 1_555
C7 C6 1_555 1_555
H5 C7 1_555 1_555
C8 C7 1_555 1_555
C9 C8 1_555 1_555
C10 C9 1_555 1_555
H6 C10 1_555 1_555
C11 C10 1_555 1_555
H7 C11 1_555 1_555
C12 C11 1_555 1_555
H8 C12 1_555 1_555
N2C C1C 1_555 1_555
C1C H1C 1_555 1_555
C2C C1C 1_555 1_555
H2C C2C 1_555 1_555
C3C C2C 1_555 1_555
H3C C3C 1_555 1_555
C4C C3C 1_555 1_555
H4C C4C 1_555 1_555
C5C N2C 1_555 1_555
C6C N1 1_555 1_555
C7C C8 1_555 1_555
H5C C7C 1_555 1_555
C10C C9 1_555 1_555
H6C C10C 1_555 1_555
C11C C12 1_555 1_555
H7C C11C 1_555 1_555
C4 C5 1_555 1_555
C4C C5C 1_555 1_555
C5C C6C 1_555 1_555
C6C C7C 1_555 1_555
C10C C11C 1_555 1_555

#END
