
#######################################################################
#
#                 Cambridge Crystallographic Data Centre
#                                CCDC 
#
#######################################################################
#
# If this CIF has been generated from an entry in the Cambridge 
# Structural Database, then it will include bibliographic, chemical, 
# crystal, experimental, refinement or atomic coordinate data resulting 
# from the CCDC's data processing and validation procedures.
#
#######################################################################

data_SIXMAP
_chemical_formula_moiety         'C18 H17 N1 O3 S1'
_chemical_name_systematic        
(1-((4-Methylphenyl)sulfonyl)-2,5-dihydro-1H-pyrrol-2-yl)(phenyl)methanone
_symmetry_cell_setting           monoclinic
_symmetry_space_group_name_H-M   'P 21/n'
_symmetry_Int_Tables_number      14
_space_group_name_Hall           '-P 2yn'
loop_
_symmetry_equiv_pos_site_id
_symmetry_equiv_pos_as_xyz
1 x,y,z
2 1/2-x,1/2+y,1/2-z
3 -x,-y,-z
4 1/2+x,1/2-y,1/2+z
_cell_length_a                   6.1602(16)
_cell_length_b                   7.4153(19)
_cell_length_c                   34.995(9)
_cell_angle_alpha                90
_cell_angle_beta                 93.383(5)
_cell_angle_gamma                90
_cell_volume                     1595.78
_exptl_crystal_colour            colorless
_exptl_crystal_description       prism
_cell_formula_units_Z            4
loop_
_atom_site_label
_atom_site_type_symbol
_atom_site_fract_x
_atom_site_fract_y
_atom_site_fract_z
C1 C 0.1637(11) 0.8083(11) 0.0476(2)
C2 C 0.0328(14) 0.7761(17) 0.0180(3)
H1 H -0.1193 0.7842 0.0208
C3 C 0.1042(14) 0.7302(14) -0.0179(2)
H2 H 0.0015 0.7274 -0.0392
C4 C 0.302(4) 0.692(2) -0.0231(6)
C5 C 0.381(4) 0.634(4) -0.0613(5)
H3 H 0.5390 0.6150 -0.0589
H4 H 0.3473 0.7282 -0.0804
H5 H 0.3092 0.5215 -0.0694
C6 C 0.442(2) 0.6671(18) 0.0112(4)
H6 H 0.5827 0.6165 0.0097
C7 C 0.369(2) 0.7176(19) 0.0459(4)
H7 H 0.4539 0.6924 0.0688
C8 C 0.1564(16) 0.5401(12) 0.1235(3)
H8 H 0.0300 0.5031 0.1378
H9 H 0.1377 0.4945 0.0969
C9 C 0.3612(17) 0.4781(14) 0.1424(3)
H10 H 0.3936 0.3545 0.1469
C10 C 0.4974(15) 0.6104(13) 0.1526(2)
H11 H 0.6388 0.5925 0.1643
C11 C 0.3996(12) 0.7933(11) 0.1432(2)
H12 H 0.4896 0.8623 0.1254
C12 C 0.3654(11) 0.9007(9) 0.18002(19)
C13 C 0.5281(12) 1.0394(11) 0.19172(19)
C14 C 0.7228(12) 1.0592(10) 0.1740(2)
H13 H 0.7536 0.9819 0.1534
C15 C 0.8723(13) 1.1893(11) 0.1860(2)
H14 H 1.0056 1.2004 0.1739
C16 C 0.8262(15) 1.3041(13) 0.2160(2)
H15 H 0.9289 1.3935 0.2243
C17 C 0.6322(15) 1.2890(13) 0.2336(2)
H16 H 0.6008 1.3691 0.2538
C18 C 0.4829(13) 1.1564(11) 0.2219(2)
H17 H 0.3503 1.1450 0.2342
N1 N 0.1872(10) 0.7403(9) 0.12441(17)
O1 O 0.1358(9) 1.0464(8) 0.10176(15)
O2 O -0.1583(8) 0.8233(9) 0.09053(15)
O3 O 0.2118(9) 0.8673(9) 0.19875(16)
S1 S 0.0682(3) 0.8673(3) 0.09231(5)
C19? C 0.314(4) 0.776(3) -0.0264(6)
C20? C 0.390(5) 0.751(3) -0.0659(6)
H18? H 0.2771 0.6890 -0.0818
H19? H 0.5232 0.6775 -0.0646
H20? H 0.4207 0.8684 -0.0771
C21? C 0.436(2) 0.859(2) 0.0007(4)
H21? H 0.5782 0.8950 -0.0050
C22? C 0.369(2) 0.8963(19) 0.0369(4)
H22? H 0.4492 0.9740 0.0540
loop_
_geom_bond_atom_site_label_1
_geom_bond_atom_site_label_2
_geom_bond_site_symmetry_1
_geom_bond_site_symmetry_2
C1 C2 1_555 1_555
C2 H1 1_555 1_555
C3 C2 1_555 1_555
H2 C3 1_555 1_555
C4 C3 1_555 1_555
C5 C4 1_555 1_555
H3 C5 1_555 1_555
H4 C5 1_555 1_555
H5 C5 1_555 1_555
C6 C4 1_555 1_555
H6 C6 1_555 1_555
C7 C1 1_555 1_555
H7 C7 1_555 1_555
C8 H8 1_555 1_555
H9 C8 1_555 1_555
C9 C8 1_555 1_555
H10 C9 1_555 1_555
C10 C9 1_555 1_555
H11 C10 1_555 1_555
C11 C10 1_555 1_555
H12 C11 1_555 1_555
C12 C11 1_555 1_555
C13 C12 1_555 1_555
C14 C13 1_555 1_555
H13 C14 1_555 1_555
C15 C14 1_555 1_555
H14 C15 1_555 1_555
C16 C15 1_555 1_555
H15 C16 1_555 1_555
C17 C16 1_555 1_555
H16 C17 1_555 1_555
C18 C13 1_555 1_555
H17 C18 1_555 1_555
N1 C8 1_555 1_555
O1 S1 1_555 1_555
O2 S1 1_555 1_555
O3 C12 1_555 1_555
S1 C1 1_555 1_555
C6 C7 1_555 1_555
C11 N1 1_555 1_555
C17 C18 1_555 1_555
N1 S1 1_555 1_555

#END
