
#######################################################################
#
#                 Cambridge Crystallographic Data Centre
#                                CCDC 
#
#######################################################################
#
# If this CIF has been generated from an entry in the Cambridge 
# Structural Database, then it will include bibliographic, chemical, 
# crystal, experimental, refinement or atomic coordinate data resulting 
# from the CCDC's data processing and validation procedures.
#
#######################################################################

data_SIXQIC
_chemical_formula_moiety         '2(C43 H39 N3),C5 H12'
_chemical_name_systematic        
'2,6-bis[3-phenyl-5-(2,4,6-trimethylphenyl)-1H-pyrrol-2-yl]pyridine n-pentane solvate'
_symmetry_cell_setting           triclinic
_symmetry_space_group_name_H-M   'P -1'
_symmetry_Int_Tables_number      2
_space_group_name_Hall           '-P 1'
loop_
_symmetry_equiv_pos_site_id
_symmetry_equiv_pos_as_xyz
1 x,y,z
2 -x,-y,-z
_cell_length_a                   15.0824(7)
_cell_length_b                   16.0040(7)
_cell_length_c                   17.5373(9)
_cell_angle_alpha                84.1499(15)
_cell_angle_beta                 68.3300(13)
_cell_angle_gamma                66.4626(12)
_cell_volume                     3601.5
_exptl_crystal_colour            'pale yellow'
_exptl_crystal_description       irregular
_cell_formula_units_Z            2
loop_
_atom_site_label
_atom_site_type_symbol
_atom_site_fract_x
_atom_site_fract_y
_atom_site_fract_z
N1 N 0.04443(9) 0.77698(8) 0.11178(7)
H1 H 0.0025(13) 0.7888(11) 0.1637(11)
N2 N 0.14297(8) 0.69709(7) 0.22315(7)
N3 N 0.00989(9) 0.71162(8) 0.38647(7)
H2 H -0.0243(13) 0.7379(12) 0.3514(11)
C1 C 0.01185(11) 0.79833(9) 0.04658(9)
C2 C 0.09876(11) 0.76511(10) -0.02317(9)
H3 H 0.0998 0.77 -0.0779
C3 C 0.18669(11) 0.72226(9) 0.00022(8)
C4 C 0.15039(10) 0.73121(9) 0.08567(8)
C5 C 0.20183(10) 0.70735(9) 0.14560(8)
C6 C 0.30293(11) 0.70013(9) 0.12578(9)
H4 H 0.3428 0.7078 0.0712
C7 C 0.34426(10) 0.68157(9) 0.18709(9)
H5 H 0.4131 0.6765 0.1748
C8 C 0.28541(10) 0.67038(9) 0.26612(9)
H6 H 0.3132 0.6577 0.3086
C9 C 0.18437(10) 0.67795(9) 0.28264(8)
C10 C 0.11625(10) 0.67117(9) 0.36549(8)
C11 C 0.13519(10) 0.63763(9) 0.43697(8)
C12 C 0.03725(10) 0.66120(9) 0.50110(9)
H7 H 0.0258 0.6478 0.5571
C13 C -0.03840(10) 0.70673(9) 0.46871(8)
C14 C 0.29343(11) 0.67252(10) -0.05743(9)
C15 C 0.32996(13) 0.70550(11) -0.13469(9)
H8 H 0.2865 0.7611 -0.1496
C16 C 0.42925(14) 0.65776(12) -0.18999(10)
H9 H 0.453 0.6808 -0.2424
C17 C 0.49372(13) 0.57702(12) -0.16930(10)
H10 H 0.5618 0.5449 -0.2071
C18 C 0.45845(12) 0.54317(11) -0.09320(10)
H11 H 0.5025 0.4877 -0.0787
C19 C 0.35921(11) 0.58994(10) -0.03818(9)
H12 H 0.3354 0.5655 0.0135
C20 C 0.23314(10) 0.58313(9) 0.44952(9)
C21 C 0.31278(11) 0.51180(10) 0.39440(9)
H13 H 0.3064 0.5003 0.345
C22 C 0.40097(11) 0.45768(10) 0.41116(9)
H14 H 0.4555 0.4106 0.3724
C23 C 0.41010(11) 0.47183(10) 0.48395(10)
H15 H 0.47 0.4338 0.4957
C24 C 0.33144(12) 0.54170(10) 0.53959(10)
H16 H 0.3372 0.5514 0.5898
C25 C 0.24442(11) 0.59733(10) 0.52221(9)
H17 H 0.1915 0.6459 0.5602
C26 C -0.09865(11) 0.85117(10) 0.05703(8)
C27 C -0.14457(12) 0.94496(10) 0.07986(9)
C28 C -0.24622(12) 0.99440(11) 0.08411(10)
H18 H -0.2773 1.0579 0.0989
C29 C -0.30334(12) 0.95392(11) 0.06751(10)
C30 C -0.25760(12) 0.86102(11) 0.04738(10)
H19 H -0.2966 0.8324 0.037
C31 C -0.15632(11) 0.80845(10) 0.04195(9)
C32 C -0.08737(13) 0.99261(11) 0.10027(10)
H20 H -0.1124 1.0565 0.086
H21 H -0.013 0.9625 0.0689
H22 H -0.0995 0.9899 0.1592
C33 C -0.41266(14) 1.01024(14) 0.07022(13)
H23 H -0.4575 1.035 0.1265
H24 H -0.4389 0.9716 0.0526
H25 H -0.4123 1.0606 0.0334
C34 C -0.11172(12) 0.70696(11) 0.02260(10)
H26 H -0.0996 0.6743 0.0705
H27 H -0.046 0.6898 -0.0243
H28 H -0.1606 0.6909 0.009
C35 C -0.15229(10) 0.74750(9) 0.51163(8)
C36 C -0.19754(11) 0.83095(10) 0.55701(9)
C37 C -0.30284(11) 0.86405(10) 0.60459(9)
H29 H -0.3335 0.9201 0.636
C38 C -0.36420(11) 0.81740(10) 0.60732(9)
C39 C -0.31852(11) 0.73642(10) 0.55985(9)
H30 H -0.3602 0.7049 0.56
C40 C -0.21308(11) 0.70011(9) 0.51202(8)
C41 C -0.13415(12) 0.88500(10) 0.55383(10)
H31 H -0.1778 0.9396 0.5909
H32 H -0.1076 0.9032 0.4976
H33 H -0.0759 0.8473 0.5709
C42 C -0.47748(12) 0.85394(12) 0.66133(11)
H34 H -0.4842 0.8573 0.7188
H35 H -0.5089 0.8132 0.6552
H36 H -0.5129 0.915 0.6451
C43 C -0.16490(11) 0.60984(10) 0.46443(9)
H37 H -0.1255 0.6164 0.4072
H38 H -0.2196 0.5904 0.4664
H39 H -0.1183 0.564 0.4888
N4 N -0.00983(9) 0.62053(8) 0.23000(7)
H40 H 0.0313(14) 0.6504(12) 0.2302(11)
N5 N -0.12197(8) 0.80127(7) 0.28708(7)
N6 N -0.00217(9) 0.89516(8) 0.29258(7)
H41 H 0.0352(13) 0.8407(12) 0.2675(10)
C44 C 0.02852(11) 0.53033(9) 0.20723(8)
C45 C -0.05398(11) 0.51005(10) 0.21315(9)
H42 H -0.0502 0.4518 0.2014
C46 C -0.14547(11) 0.59003(9) 0.23955(8)
C47 C -0.11560(10) 0.65934(9) 0.24852(8)
C48 C -0.17142(10) 0.75754(9) 0.26680(8)
C49 C -0.26797(11) 0.80545(10) 0.25946(9)
H43 H -0.3011 0.7743 0.2438
C50 C -0.31433(11) 0.89874(10) 0.27534(9)
H44 H -0.3801 0.9323 0.2707
C51 C -0.26555(11) 0.94356(10) 0.29790(9)
H45 H -0.2974 1.0077 0.3097
C52 C -0.16844(10) 0.89273(9) 0.30305(8)
C53 C -0.10865(10) 0.93535(9) 0.32168(8)
C54 C -0.13707(11) 1.01775(9) 0.36158(9)
C55 C -0.04386(11) 1.02539(9) 0.35465(9)
H46 H -0.0392 1.0752 0.3758
C56 C 0.03837(11) 0.94879(9) 0.31235(9)
C57 C -0.24831(11) 0.59044(10) 0.25282(9)
C58 C -0.25496(13) 0.53772(13) 0.19875(11)
H47 H -0.1948 0.5059 0.153
C59 C -0.34734(13) 0.53038(14) 0.20990(12)
H48 H -0.3498 0.4934 0.1723
C60 C -0.43547(12) 0.57650(11) 0.27532(10)
H49 H -0.4991 0.5722 0.2827
C61 C -0.43070(12) 0.62891(11) 0.33002(10)
H50 H -0.4914 0.661 0.3753
C62 C -0.33753(11) 0.63534(10) 0.31957(9)
H51 H -0.3349 0.6707 0.3584
C63 C -0.24311(11) 1.08296(10) 0.40761(9)
C64 C -0.31642(12) 1.05319(12) 0.46323(10)
H52 H -0.2983 0.99 0.4724
C65 C -0.41630(13) 1.11551(15) 0.50560(11)
H53 H -0.4664 1.0949 0.5432
C66 C -0.44231(14) 1.20805(15) 0.49260(15)
H54 H -0.5106 1.2507 0.5208
C67 C -0.36973(15) 1.23759(14) 0.43933(17)
H55 H -0.3875 1.301 0.4314
C68 C -0.27068(14) 1.17611(11) 0.39679(14)
H56 H -0.221 1.1976 0.3598
C69 C 0.14045(10) 0.47099(9) 0.17550(9)
C70 C 0.19290(11) 0.45926(10) 0.09007(9)
C71 C 0.29510(12) 0.39652(11) 0.05916(10)
H57 H 0.3308 0.3881 0.0014
C72 C 0.34633(12) 0.34587(10) 0.11035(11)
C73 C 0.29388(12) 0.36057(10) 0.19468(11)
H58 H 0.3289 0.3276 0.2303
C74 C 0.19137(11) 0.42233(10) 0.22858(9)
C75 C 0.13987(13) 0.51213(12) 0.03253(10)
H59 H 0.1913 0.5041 -0.0233
H60 H 0.1059 0.577 0.0502
H61 H 0.0879 0.4898 0.0331
C76 C 0.45615(13) 0.27576(12) 0.07405(14)
H62 H 0.4624 0.2413 0.0279
H63 H 0.4728 0.2338 0.1162
H64 H 0.5043 0.3067 0.0545
C77 C 0.13550(13) 0.43463(12) 0.32026(10)
H65 H 0.1757 0.3852 0.3469
H66 H 0.067 0.4332 0.334
H67 H 0.1275 0.4935 0.3397
C78 C 0.15213(11) 0.92074(9) 0.28821(9)
C79 C 0.21246(11) 0.92741(10) 0.20649(9)
C80 C 0.31852(12) 0.90263(11) 0.18615(10)
H68 H 0.3598 0.9068 0.131
C81 C 0.36583(12) 0.87209(11) 0.24391(11)
C82 C 0.30493(12) 0.86515(10) 0.32390(10)
H69 H 0.3364 0.8439 0.3639
C83 C 0.19894(11) 0.88853(9) 0.34708(9)
C84 C 0.16480(13) 0.96006(11) 0.14150(10)
H70 H 0.2077 0.9855 0.0974
H71 H 0.095 1.0072 0.1659
H72 H 0.1607 0.9087 0.119
C85 C 0.48105(13) 0.84508(14) 0.22040(14)
H73 H 0.4957 0.8516 0.269
H74 H 0.5041 0.8847 0.1783
H75 H 0.518 0.7815 0.1988
C86 C 0.13671(12) 0.87707(11) 0.43418(9)
H76 H 0.1832 0.8489 0.4648
H77 H 0.1007 0.838 0.434
H78 H 0.0858 0.9369 0.4604
C87 C 0.2816(6) 0.1450(4) 0.1604(4)
H79 H 0.291 0.0926 0.1294
H80 H 0.3355 0.1269 0.1843
H81 H 0.2868 0.1944 0.1234
C88 C 0.1734(4) 0.1784(3) 0.2300(3)
H82 H 0.1653 0.1254 0.2618
H83 H 0.1708 0.222 0.2677
C89 C 0.0844(3) 0.2229(2) 0.2022(2)
H84 H 0.0816 0.177 0.1704
H85 H 0.0968 0.271 0.1647
C90 C -0.0196(8) 0.2654(9) 0.2704(7)
H86 H -0.0237 0.3211 0.2939
H87 H -0.0259 0.2221 0.3146
C91 C -0.1095(5) 0.2904(4) 0.2404(3)
H88 H -0.0998 0.3283 0.193
H89 H -0.1748 0.3243 0.2846
H90 H -0.1117 0.2345 0.2243
C92? C -0.0480(5) 0.2510(5) 0.2220(4)
H91? H -0.0164 0.2726 0.1686
H92? H -0.1224 0.2889 0.2445
H93? H -0.0378 0.1874 0.2152
C93? C 0.0024(11) 0.2574(14) 0.2805(11)
H94? H -0.0344 0.2409 0.3356
H95? H -0.0059 0.3214 0.2852
C94? C 0.1179(5) 0.1957(5) 0.2539(4)
H96? H 0.1451 0.2097 0.2922
H97? H 0.1236 0.1318 0.2617
C95? C 0.1884(4) 0.1997(4) 0.1680(3)
H98? H 0.1832 0.2632 0.1576
H99? H 0.1671 0.1805 0.128
C96? C 0.2996(12) 0.1374(11) 0.1568(12)
H100? H 0.3191 0.1544 0.1986
H101? H 0.3458 0.1436 0.102
H102? H 0.3056 0.074 0.1627
loop_
_geom_bond_atom_site_label_1
_geom_bond_atom_site_label_2
_geom_bond_site_symmetry_1
_geom_bond_site_symmetry_2
N1 H1 1_555 1_555
N2 C5 1_555 1_555
N3 H2 1_555 1_555
C1 N1 1_555 1_555
C2 C1 1_555 1_555
H3 C2 1_555 1_555
C3 C2 1_555 1_555
C4 N1 1_555 1_555
C5 C4 1_555 1_555
C6 C5 1_555 1_555
H4 C6 1_555 1_555
C7 C6 1_555 1_555
H5 C7 1_555 1_555
C8 C7 1_555 1_555
H6 C8 1_555 1_555
C9 N2 1_555 1_555
C10 N3 1_555 1_555
C11 C10 1_555 1_555
C12 C11 1_555 1_555
H7 C12 1_555 1_555
C13 N3 1_555 1_555
C14 C3 1_555 1_555
C15 C14 1_555 1_555
H8 C15 1_555 1_555
C16 C15 1_555 1_555
H9 C16 1_555 1_555
C17 C16 1_555 1_555
H10 C17 1_555 1_555
C18 C17 1_555 1_555
H11 C18 1_555 1_555
C19 C14 1_555 1_555
H12 C19 1_555 1_555
C20 C11 1_555 1_555
C21 C20 1_555 1_555
H13 C21 1_555 1_555
C22 C21 1_555 1_555
H14 C22 1_555 1_555
C23 C22 1_555 1_555
H15 C23 1_555 1_555
C24 C23 1_555 1_555
H16 C24 1_555 1_555
C25 C20 1_555 1_555
H17 C25 1_555 1_555
C26 C1 1_555 1_555
C27 C26 1_555 1_555
C28 C27 1_555 1_555
H18 C28 1_555 1_555
C29 C28 1_555 1_555
C30 C29 1_555 1_555
H19 C30 1_555 1_555
C31 C26 1_555 1_555
C32 C27 1_555 1_555
H20 C32 1_555 1_555
H21 C32 1_555 1_555
H22 C32 1_555 1_555
C33 C29 1_555 1_555
H23 C33 1_555 1_555
H24 C33 1_555 1_555
H25 C33 1_555 1_555
C34 C31 1_555 1_555
H26 C34 1_555 1_555
H27 C34 1_555 1_555
H28 C34 1_555 1_555
C35 C13 1_555 1_555
C36 C35 1_555 1_555
C37 C36 1_555 1_555
H29 C37 1_555 1_555
C38 C37 1_555 1_555
C39 C38 1_555 1_555
H30 C39 1_555 1_555
C40 C35 1_555 1_555
C41 C36 1_555 1_555
H31 C41 1_555 1_555
H32 C41 1_555 1_555
H33 C41 1_555 1_555
C42 C38 1_555 1_555
H34 C42 1_555 1_555
H35 C42 1_555 1_555
H36 C42 1_555 1_555
C43 C40 1_555 1_555
H37 C43 1_555 1_555
H38 C43 1_555 1_555
H39 C43 1_555 1_555
N4 H40 1_555 1_555
N5 C48 1_555 1_555
N6 H41 1_555 1_555
C44 N4 1_555 1_555
C45 C44 1_555 1_555
H42 C45 1_555 1_555
C46 C45 1_555 1_555
C47 N4 1_555 1_555
C48 C47 1_555 1_555
C49 C48 1_555 1_555
H43 C49 1_555 1_555
C50 C49 1_555 1_555
H44 C50 1_555 1_555
C51 C50 1_555 1_555
H45 C51 1_555 1_555
C52 N5 1_555 1_555
C53 N6 1_555 1_555
C54 C53 1_555 1_555
C55 C54 1_555 1_555
H46 C55 1_555 1_555
C56 N6 1_555 1_555
C57 C46 1_555 1_555
C58 C57 1_555 1_555
H47 C58 1_555 1_555
C59 C58 1_555 1_555
H48 C59 1_555 1_555
C60 C59 1_555 1_555
H49 C60 1_555 1_555
C61 C60 1_555 1_555
H50 C61 1_555 1_555
C62 C57 1_555 1_555
H51 C62 1_555 1_555
C63 C54 1_555 1_555
C64 C63 1_555 1_555
H52 C64 1_555 1_555
C65 C64 1_555 1_555
H53 C65 1_555 1_555
C66 C65 1_555 1_555
H54 C66 1_555 1_555
C67 C66 1_555 1_555
H55 C67 1_555 1_555
C68 C63 1_555 1_555
H56 C68 1_555 1_555
C69 C44 1_555 1_555
C70 C69 1_555 1_555
C71 C70 1_555 1_555
H57 C71 1_555 1_555
C72 C71 1_555 1_555
C73 C72 1_555 1_555
H58 C73 1_555 1_555
C74 C69 1_555 1_555
C75 C70 1_555 1_555
H59 C75 1_555 1_555
H60 C75 1_555 1_555
H61 C75 1_555 1_555
C76 C72 1_555 1_555
H62 C76 1_555 1_555
H63 C76 1_555 1_555
H64 C76 1_555 1_555
C77 C74 1_555 1_555
H65 C77 1_555 1_555
H66 C77 1_555 1_555
H67 C77 1_555 1_555
C78 C56 1_555 1_555
C79 C78 1_555 1_555
C80 C79 1_555 1_555
H68 C80 1_555 1_555
C81 C80 1_555 1_555
C82 C81 1_555 1_555
H69 C82 1_555 1_555
C83 C78 1_555 1_555
C84 C79 1_555 1_555
H70 C84 1_555 1_555
H71 C84 1_555 1_555
H72 C84 1_555 1_555
C85 C81 1_555 1_555
H73 C85 1_555 1_555
H74 C85 1_555 1_555
H75 C85 1_555 1_555
C86 C83 1_555 1_555
H76 C86 1_555 1_555
H77 C86 1_555 1_555
H78 C86 1_555 1_555
C87 H79 1_555 1_555
H80 C87 1_555 1_555
H81 C87 1_555 1_555
C88 C87 1_555 1_555
H82 C88 1_555 1_555
H83 C88 1_555 1_555
C89 C88 1_555 1_555
H84 C89 1_555 1_555
H85 C89 1_555 1_555
C90 C89 1_555 1_555
H86 C90 1_555 1_555
H87 C90 1_555 1_555
C91 C90 1_555 1_555
H88 C91 1_555 1_555
H89 C91 1_555 1_555
H90 C91 1_555 1_555
C3 C4 1_555 1_555
C8 C9 1_555 1_555
C9 C10 1_555 1_555
C12 C13 1_555 1_555
C18 C19 1_555 1_555
C24 C25 1_555 1_555
C30 C31 1_555 1_555
C39 C40 1_555 1_555
C46 C47 1_555 1_555
C51 C52 1_555 1_555
C52 C53 1_555 1_555
C55 C56 1_555 1_555
C61 C62 1_555 1_555
C67 C68 1_555 1_555
C73 C74 1_555 1_555
C82 C83 1_555 1_555

#END
