
#######################################################################
#
#                 Cambridge Crystallographic Data Centre
#                                CCDC 
#
#######################################################################
#
# If this CIF has been generated from an entry in the Cambridge 
# Structural Database, then it will include bibliographic, chemical, 
# crystal, experimental, refinement or atomic coordinate data resulting 
# from the CCDC's data processing and validation procedures.
#
#######################################################################

data_SIYDIP
_chemical_formula_moiety         'C52 H68 Li2 N2 O4'
_chemical_name_systematic        
bis(\m~2~-3-((2,6-Diisopropylphenyl)imino)-1-phenylbut-1-en-1-oxy)-bis(tetrahydrofuran)-di-lithium
_symmetry_cell_setting           tetragonal
_symmetry_space_group_name_H-M   'I 41/a'
_symmetry_Int_Tables_number      88
_space_group_name_Hall           '-I 4ad'
loop_
_symmetry_equiv_pos_site_id
_symmetry_equiv_pos_as_xyz
1 x,y,z
2 3/4-y,1/4+x,1/4+z
3 -x,1/2-y,z
4 1/4+y,1/4-x,1/4+z
5 1/2+x,1/2+y,1/2+z
6 1/4-y,3/4+x,3/4+z
7 1/2-x,-y,1/2+z
8 3/4+y,3/4-x,3/4+z
9 -x,-y,-z
10 1/4+y,3/4-x,3/4-z
11 x,1/2+y,-z
12 3/4-y,3/4+x,3/4-z
13 1/2-x,1/2-y,1/2-z
14 3/4+y,1/4-x,1/4-z
15 1/2+x,y,1/2-z
16 1/4-y,1/4+x,1/4-z
_cell_length_a                   25.8829(12)
_cell_length_b                   25.8829(12)
_cell_length_c                   14.2083(19)
_cell_angle_alpha                90
_cell_angle_beta                 90
_cell_angle_gamma                90
_cell_volume                     9518.49
_exptl_crystal_colour            colorless
_exptl_crystal_description       block
_cell_formula_units_Z            8
loop_
_atom_site_label
_atom_site_type_symbol
_atom_site_fract_x
_atom_site_fract_y
_atom_site_fract_z
O1 O 0.50748(7) 0.54821(6) 1.04054(11)
O2 O 0.58700(7) 0.46344(7) 1.09648(14)
N1 N 0.53329(7) 0.56761(7) 0.84525(13)
C1 C 0.52848(8) 0.59270(8) 1.05237(15)
C2 C 0.52913(8) 0.61247(9) 1.15190(16)
C3 C 0.51640(10) 0.57918(10) 1.22446(17)
H1 H 0.5079 0.5451 1.2105
C4 C 0.51596(11) 0.59521(13) 1.31669(19)
H2 H 0.5079 0.5719 1.3642
C5 C 0.52739(10) 0.64557(13) 1.3389(2)
H3 H 0.5269 0.6566 1.4012
C6 C 0.53949(10) 0.67928(11) 1.2679(2)
H4 H 0.5470 0.7135 1.2824
C7 C 0.54073(10) 0.66332(10) 1.17556(19)
H5 H 0.5494 0.6868 1.1285
C8 C 0.54975(9) 0.62125(8) 0.98089(16)
H6 H 0.5628 0.6534 0.9980
C9 C 0.55454(9) 0.60809(9) 0.88322(16)
C10 C 0.58700(12) 0.64552(11) 0.8265(2)
H7 H 0.5882 0.6344 0.7621
H8 H 0.6214 0.6465 0.8517
H9 H 0.5720 0.6794 0.8299
C11 C 0.54326(9) 0.55656(9) 0.74805(16)
C12 C 0.50768(10) 0.57161(11) 0.67897(18)
C13 C 0.51825(11) 0.55960(13) 0.58552(19)
H10 H 0.4952 0.5700 0.5390
C14 C 0.56161(12) 0.53294(12) 0.56034(19)
H11 H 0.5683 0.5259 0.4973
C15 C 0.59505(12) 0.51665(11) 0.62855(19)
H12 H 0.6240 0.4976 0.6114
C16 C 0.58675(10) 0.52789(10) 0.72308(18)
C17 C 0.45874(12) 0.60020(15) 0.7034(2)
H13 H 0.4548 0.5990 0.7720
C18 C 0.46204(16) 0.65689(17) 0.6748(3)
H14 H 0.4888 0.6736 0.7105
H15 H 0.4296 0.6735 0.6871
H16 H 0.4699 0.6593 0.6089
C19 C 0.41125(13) 0.57522(19) 0.6605(3)
H17 H 0.4143 0.5753 0.5931
H18 H 0.3810 0.5943 0.6786
H19 H 0.4084 0.5403 0.6825
C20 C 0.62503(13) 0.50874(14) 0.7961(2)
H20 H 0.6159 0.5214 0.8589
C21 C 0.62861(14) 0.45023(15) 0.7953(3)
H21 H 0.5946 0.4357 0.7996
H22 H 0.6489 0.4389 0.8480
H23 H 0.6447 0.4390 0.7380
C22 C 0.6827(3) 0.5317(4) 0.7623(6)
H24 H 0.6809 0.5686 0.7571
H25 H 0.6918 0.5171 0.7024
H26 H 0.7083 0.5224 0.8081
C23 C 0.60640(15) 0.41561(12) 1.0622(3)
H27 H 0.6019 0.4123 0.9947
H28 H 0.5906 0.3863 1.0937
C24 C 0.6695(4) 0.4228(5) 1.0923(9)
H29 H 0.6797 0.3961 1.1366
H30 H 0.6913 0.4202 1.0369
C25 C 0.6743(3) 0.4709(3) 1.1327(7)
H31 H 0.7054 0.4881 1.1108
H32 H 0.6755 0.4683 1.2007
C26 C 0.62755(12) 0.49906(12) 1.1015(3)
H33 H 0.6192 0.5262 1.1460
H34 H 0.6334 0.5146 1.0404
Li1 Li 0.51328(17) 0.47811(15) 1.0768(3)
O1H O 0.49252(7) 0.45179(6) 0.95946(11)
O2H O 0.41300(7) 0.53656(7) 0.90352(14)
N1H N 0.46671(7) 0.43239(7) 1.15475(13)
C1H C 0.47152(8) 0.40730(8) 0.94763(15)
C2H C 0.47087(8) 0.38753(9) 0.84810(16)
C3H C 0.48360(10) 0.42082(10) 0.77554(17)
H1H H 0.4921 0.4549 0.7895
C4H C 0.48404(11) 0.40479(13) 0.68331(19)
H2H H 0.4921 0.4281 0.6358
C5H C 0.47261(10) 0.35443(13) 0.6611(2)
H3H H 0.4731 0.3434 0.5988
C6H C 0.46051(10) 0.32072(11) 0.7321(2)
H4H H 0.4530 0.2865 0.7176
C7H C 0.45927(10) 0.33668(10) 0.82444(19)
H5H H 0.4506 0.3132 0.8715
C8H C 0.45025(9) 0.37875(8) 1.01911(16)
H6H H 0.4372 0.3466 1.0020
C9H C 0.44546(9) 0.39191(9) 1.11678(16)
C10H C 0.41300(12) 0.35448(11) 1.1735(2)
H7H H 0.4118 0.3656 1.2379
H8H H 0.3786 0.3535 1.1483
H9H H 0.4280 0.3206 1.1701
C11H C 0.45674(9) 0.44344(9) 1.25195(16)
C12H C 0.49232(10) 0.42839(11) 1.32103(18)
C13H C 0.48175(11) 0.44040(13) 1.41448(19)
H10H H 0.5048 0.4300 1.4610
C14H C 0.43839(12) 0.46706(12) 1.43966(19)
H11H H 0.4317 0.4741 1.5027
C15H C 0.40495(12) 0.48335(11) 1.37145(19)
H12H H 0.3760 0.5024 1.3886
C16H C 0.41325(10) 0.47211(10) 1.27692(18)
C17H C 0.54126(12) 0.39980(15) 1.2966(2)
H13H H 0.5452 0.4010 1.2280
C18H C 0.53796(16) 0.34311(17) 1.3252(3)
H14H H 0.5112 0.3264 1.2895
H15H H 0.5704 0.3265 1.3129
H16H H 0.5301 0.3407 1.3911
C19H C 0.58875(13) 0.42478(19) 1.3395(3)
H17H H 0.5857 0.4247 1.4069
H18H H 0.6190 0.4057 1.3214
H19H H 0.5916 0.4597 1.3175
C20H C 0.37497(13) 0.49126(14) 1.2039(2)
H20H H 0.3841 0.4786 1.1411
C21H C 0.37139(14) 0.54977(15) 1.2047(3)
H21H H 0.4054 0.5643 1.2004
H22H H 0.3511 0.5611 1.1520
H23H H 0.3553 0.5610 1.2620
C22H C 0.3173(3) 0.4683(4) 1.2377(6)
H24H H 0.3191 0.4314 1.2429
H25H H 0.3082 0.4829 1.2976
H26H H 0.2917 0.4776 1.1919
C23H C 0.39360(15) 0.58439(12) 0.9378(3)
H27H H 0.3981 0.5877 1.0053
H28H H 0.4094 0.6137 0.9063
C24H C 0.3305(4) 0.5772(5) 0.9077(9)
H29H H 0.3203 0.6039 0.8634
H30H H 0.3087 0.5798 0.9631
C25H C 0.3257(3) 0.5291(3) 0.8673(7)
H31H H 0.2946 0.5119 0.8892
H32H H 0.3245 0.5317 0.7993
C26H C 0.37245(12) 0.50094(12) 0.8985(3)
H33H H 0.3808 0.4738 0.8540
H34H H 0.3666 0.4854 0.9596
Li1H Li 0.48672(17) 0.52189(15) 0.9232(3)
C27? C 0.6746(3) 0.5320(3) 0.8011(6)
H35? H 0.6933 0.5180 0.8536
H36? H 0.6708 0.5687 0.8091
H37? H 0.6932 0.5252 0.7441
C28? C 0.6552(4) 0.4095(3) 1.0855(7)
H38? H 0.6729 0.3872 1.0411
H39? H 0.6585 0.3952 1.1483
C29? C 0.6769(3) 0.4662(3) 1.0813(7)
H40? H 0.7032 0.4718 1.1288
H41? H 0.6911 0.4740 1.0198
loop_
_geom_bond_atom_site_label_1
_geom_bond_atom_site_label_2
_geom_bond_site_symmetry_1
_geom_bond_site_symmetry_2
O1 C1 1_555 1_555
O2 C23 1_555 1_555
N1 C9 1_555 1_555
C1 C2 1_555 1_555
C2 C3 1_555 1_555
C3 H1 1_555 1_555
C4 C3 1_555 1_555
H2 C4 1_555 1_555
C5 C4 1_555 1_555
H3 C5 1_555 1_555
C6 C5 1_555 1_555
H4 C6 1_555 1_555
C7 C2 1_555 1_555
H5 C7 1_555 1_555
C8 C1 1_555 1_555
H6 C8 1_555 1_555
C9 C8 1_555 1_555
C10 C9 1_555 1_555
H7 C10 1_555 1_555
H8 C10 1_555 1_555
H9 C10 1_555 1_555
C11 N1 1_555 1_555
C12 C11 1_555 1_555
C13 C12 1_555 1_555
H10 C13 1_555 1_555
C14 C13 1_555 1_555
H11 C14 1_555 1_555
C15 C14 1_555 1_555
H12 C15 1_555 1_555
C16 C11 1_555 1_555
C17 C12 1_555 1_555
H13 C17 1_555 1_555
C18 C17 1_555 1_555
H14 C18 1_555 1_555
H15 C18 1_555 1_555
H16 C18 1_555 1_555
C19 C17 1_555 1_555
H17 C19 1_555 1_555
H18 C19 1_555 1_555
H19 C19 1_555 1_555
C20 C16 1_555 1_555
H20 C20 1_555 1_555
C21 C20 1_555 1_555
H21 C21 1_555 1_555
H22 C21 1_555 1_555
H23 C21 1_555 1_555
C22 C20 1_555 1_555
H24 C22 1_555 1_555
H25 C22 1_555 1_555
H26 C22 1_555 1_555
C23 H27 1_555 1_555
H28 C23 1_555 1_555
C24 C23 1_555 1_555
H29 C24 1_555 1_555
H30 C24 1_555 1_555
C25 C24 1_555 1_555
H31 C25 1_555 1_555
H32 C25 1_555 1_555
C26 O2 1_555 1_555
H33 C26 1_555 1_555
H34 C26 1_555 1_555
Li1 O1 1_555 1_555
O1H Li1 1_555 1_555
O2H C23H 1_555 1_555
N1H Li1 1_555 1_555
C1H O1H 1_555 1_555
C2H C1H 1_555 1_555
C3H C2H 1_555 1_555
H1H C3H 1_555 1_555
C4H C3H 1_555 1_555
H2H C4H 1_555 1_555
C5H C4H 1_555 1_555
H3H C5H 1_555 1_555
C6H C5H 1_555 1_555
H4H C6H 1_555 1_555
C7H C2H 1_555 1_555
H5H C7H 1_555 1_555
C8H C1H 1_555 1_555
H6H C8H 1_555 1_555
C9H N1H 1_555 1_555
C10H C9H 1_555 1_555
H7H C10H 1_555 1_555
H8H C10H 1_555 1_555
H9H C10H 1_555 1_555
C11H N1H 1_555 1_555
C12H C11H 1_555 1_555
C13H C12H 1_555 1_555
H10H C13H 1_555 1_555
C14H C13H 1_555 1_555
H11H C14H 1_555 1_555
C15H C14H 1_555 1_555
H12H C15H 1_555 1_555
C16H C11H 1_555 1_555
C17H C12H 1_555 1_555
H13H C17H 1_555 1_555
C18H C17H 1_555 1_555
H14H C18H 1_555 1_555
H15H C18H 1_555 1_555
H16H C18H 1_555 1_555
C19H C17H 1_555 1_555
H17H C19H 1_555 1_555
H18H C19H 1_555 1_555
H19H C19H 1_555 1_555
C20H C16H 1_555 1_555
H20H C20H 1_555 1_555
C21H C20H 1_555 1_555
H21H C21H 1_555 1_555
H22H C21H 1_555 1_555
H23H C21H 1_555 1_555
C22H C20H 1_555 1_555
H24H C22H 1_555 1_555
H25H C22H 1_555 1_555
H26H C22H 1_555 1_555
C23H H27H 1_555 1_555
H28H C23H 1_555 1_555
C24H C23H 1_555 1_555
H29H C24H 1_555 1_555
H30H C24H 1_555 1_555
C25H C24H 1_555 1_555
H31H C25H 1_555 1_555
H32H C25H 1_555 1_555
C26H O2H 1_555 1_555
H33H C26H 1_555 1_555
H34H C26H 1_555 1_555
Li1H O1 1_555 1_555
O2 Li1 1_555 1_555
N1 Li1H 1_555 1_555
C6 C7 1_555 1_555
C15 C16 1_555 1_555
C25 C26 1_555 1_555
O1H Li1H 1_555 1_555
O2H Li1H 1_555 1_555
C6H C7H 1_555 1_555
C8H C9H 1_555 1_555
C15H C16H 1_555 1_555
C25H C26H 1_555 1_555

#END
