
#######################################################################
#
#                 Cambridge Crystallographic Data Centre
#                                CCDC 
#
#######################################################################
#
# If this CIF has been generated from an entry in the Cambridge 
# Structural Database, then it will include bibliographic, chemical, 
# crystal, experimental, refinement or atomic coordinate data resulting 
# from the CCDC's data processing and validation procedures.
#
#######################################################################

data_SIYDAI
_chemical_formula_moiety         'C12 H10 F2 N2 O2'
_chemical_name_systematic        
'methyl 4-amino-2-(difluoromethyl)quinoline-3-carboxylate'
_symmetry_cell_setting           monoclinic
_symmetry_space_group_name_H-M   'P 21/c'
_symmetry_Int_Tables_number      14
_space_group_name_Hall           '-P 2ybc'
loop_
_symmetry_equiv_pos_site_id
_symmetry_equiv_pos_as_xyz
1 x,y,z
2 -x,1/2+y,1/2-z
3 -x,-y,-z
4 x,1/2-y,1/2+z
_cell_length_a                   5.263(5)
_cell_length_b                   16.591(17)
_cell_length_c                   13.227(13)
_cell_angle_alpha                90
_cell_angle_beta                 97.733(11)
_cell_angle_gamma                90
_cell_volume                     1144.46
_cell_formula_units_Z            4
loop_
_atom_site_label
_atom_site_type_symbol
_atom_site_fract_x
_atom_site_fract_y
_atom_site_fract_z
C1 C -0.0138(4) 0.76034(12) 0.13907(14)
C2 C -0.1901(4) 0.81662(14) 0.09019(17)
H1 H -0.2066 0.8224 0.0197
C3 C -0.3370(4) 0.86282(14) 0.14525(18)
H2 H -0.4514 0.9000 0.1121
C4 C -0.3157(4) 0.85427(14) 0.25148(17)
H3 H -0.4201 0.8846 0.2883
C5 C -0.1423(4) 0.80154(13) 0.30117(16)
H4 H -0.1278 0.7969 0.3718
C6 C 0.0154(4) 0.75392(11) 0.24631(14)
C7 C 0.2027(4) 0.69767(11) 0.29466(13)
C8 C 0.3400(4) 0.64992(11) 0.23147(14)
C9 C 0.2815(4) 0.65965(12) 0.12390(14)
C10 C 0.3960(5) 0.60400(15) 0.04886(16)
H5 H 0.5836 0.6043 0.0627
C11 C 0.5353(4) 0.59332(12) 0.28115(15)
C12 C 0.8815(5) 0.50627(16) 0.2616(2)
H6 H 0.9896 0.5290 0.3188
H7 H 0.9843 0.4905 0.2103
H8 H 0.7943 0.4599 0.2835
F1 F 0.3183(5) 0.62564(14) -0.04738(11)
F2 F 0.3045(4) 0.52870(10) 0.06035(15)
N1 N 0.1173(3) 0.71217(10) 0.07843(12)
N2 N 0.2377(4) 0.69178(12) 0.39648(12)
H9 H 0.3471 0.6580 0.4262
H10 H 0.1507 0.7218 0.4322
O1 O 0.5561(4) 0.57327(12) 0.36977(13)
O2 O 0.6954(3) 0.56551(11) 0.21998(13)
loop_
_geom_bond_atom_site_label_1
_geom_bond_atom_site_label_2
_geom_bond_site_symmetry_1
_geom_bond_site_symmetry_2
C1 C2 1_555 1_555
C2 H1 1_555 1_555
C3 C2 1_555 1_555
H2 C3 1_555 1_555
C4 C3 1_555 1_555
H3 C4 1_555 1_555
C5 C4 1_555 1_555
H4 C5 1_555 1_555
C6 C1 1_555 1_555
C7 C6 1_555 1_555
C8 C7 1_555 1_555
C9 C8 1_555 1_555
C10 C9 1_555 1_555
H5 C10 1_555 1_555
C11 C8 1_555 1_555
C12 H6 1_555 1_555
H7 C12 1_555 1_555
H8 C12 1_555 1_555
F1 C10 1_555 1_555
F2 C10 1_555 1_555
N1 C1 1_555 1_555
N2 C7 1_555 1_555
H9 N2 1_555 1_555
H10 N2 1_555 1_555
O1 C11 1_555 1_555
O2 C11 1_555 1_555
C5 C6 1_555 1_555
C9 N1 1_555 1_555
C12 O2 1_555 1_555

#END
