
#######################################################################
#
#                 Cambridge Crystallographic Data Centre
#                                CCDC 
#
#######################################################################
#
# If this CIF has been generated from an entry in the Cambridge 
# Structural Database, then it will include bibliographic, chemical, 
# crystal, experimental, refinement or atomic coordinate data resulting 
# from the CCDC's data processing and validation procedures.
#
#######################################################################

data_SIYJOC
_chemical_name_common            V-MFDP
_chemical_formula_moiety         'C25 H20 N2'
_chemical_name_systematic        
4,4'-(9,9-dimethyl-9H-fluorene-2,7-diyl)dipyridine
_symmetry_cell_setting           orthorhombic
_symmetry_space_group_name_H-M   'P 21 21 21'
_symmetry_Int_Tables_number      19
_space_group_name_Hall           'P 2ac 2ab'
loop_
_symmetry_equiv_pos_site_id
_symmetry_equiv_pos_as_xyz
1 x,y,z
2 1/2-x,-y,1/2+z
3 -x,1/2+y,1/2-z
4 1/2+x,1/2-y,-z
_cell_length_a                   5.951(2)
_cell_length_b                   7.562(3)
_cell_length_c                   42.522(17)
_cell_angle_alpha                90
_cell_angle_beta                 90
_cell_angle_gamma                90
_cell_volume                     1913.55
_exptl_crystal_colour            colorless
_exptl_crystal_description       flaky
_cell_formula_units_Z            4
loop_
_atom_site_label
_atom_site_type_symbol
_atom_site_fract_x
_atom_site_fract_y
_atom_site_fract_z
C1 C 1.0979(3) 0.0119(3) -0.04229(5)
H1 H 1.2118 0.0500 -0.0556
C2 C 1.1116(3) 0.0591(2) -0.01106(4)
H2 H 1.2341 0.1243 -0.0040
C3 C 0.9436(3) 0.0099(2) 0.00992(4)
C4 C 0.7695(3) -0.0873(2) -0.00315(4)
H3 H 0.6497 -0.1231 0.0094
C5 C 0.7729(3) -0.1312(2) -0.03458(4)
H4 H 0.6544 -0.1986 -0.0423
C6 C 0.9498(3) 0.0573(2) 0.04373(4)
C7 C 1.0814(3) 0.1992(2) 0.05408(4)
H5 H 1.1656 0.2627 0.0395
C8 C 1.0894(3) 0.2473(2) 0.08551(4)
H6 H 1.1757 0.3433 0.0919
C9 C 0.9675(3) 0.1509(2) 0.10726(4)
C10 C 0.8350(3) 0.0080(2) 0.09732(4)
C11 C 0.8267(3) -0.0375(2) 0.06602(4)
H7 H 0.7383 -0.1324 0.0597
C12 C 0.7200(3) -0.0811(2) 0.12500(4)
C13 C 0.7983(3) 0.0364(2) 0.15200(4)
C14 C 0.9459(3) 0.1680(2) 0.14135(4)
C15 C 1.0420(3) 0.2851(2) 0.16263(4)
H8 H 1.1434 0.3704 0.1558
C16 C 0.9854(3) 0.2734(2) 0.19378(4)
H9 H 1.0504 0.3517 0.2080
C17 C 0.8331(3) 0.1474(2) 0.20486(4)
C18 C 0.7409(3) 0.0271(2) 0.18342(4)
H10 H 0.6410 -0.0591 0.1903
C19 C 0.7652(3) 0.1458(2) 0.23862(4)
C20 C 0.8955(3) 0.2215(2) 0.26215(4)
H11 H 1.0334 0.2720 0.2571
C21 C 0.8220(3) 0.2224(3) 0.29270(5)
H12 H 0.9121 0.2775 0.3076
C22 C 0.5084(3) 0.0756(3) 0.27999(5)
H13 H 0.3739 0.0225 0.2859
C23 C 0.5658(3) 0.0714(3) 0.24855(5)
H14 H 0.4700 0.0185 0.2341
C24 C 0.8033(4) -0.2715(2) 0.12914(4)
H15 H 0.7582 -0.3410 0.1113
H16 H 0.7396 -0.3209 0.1479
H17 H 0.9642 -0.2718 0.1308
C25 C 0.4648(3) -0.0795(3) 0.12189(5)
H18 H 0.4134 0.0402 0.1197
H19 H 0.3989 -0.1311 0.1403
H20 H 0.4215 -0.1466 0.1037
N1 N 0.9335(3) -0.0841(2) -0.05467(4)
N2 N 0.6312(3) 0.1499(2) 0.30243(4)
loop_
_geom_bond_atom_site_label_1
_geom_bond_atom_site_label_2
_geom_bond_site_symmetry_1
_geom_bond_site_symmetry_2
C1 H1 1_555 1_555
C2 C1 1_555 1_555
H2 C2 1_555 1_555
C3 C2 1_555 1_555
C4 C3 1_555 1_555
H3 C4 1_555 1_555
C5 C4 1_555 1_555
H4 C5 1_555 1_555
C6 C3 1_555 1_555
C7 C6 1_555 1_555
H5 C7 1_555 1_555
C8 C7 1_555 1_555
H6 C8 1_555 1_555
C9 C8 1_555 1_555
C10 C9 1_555 1_555
C11 C6 1_555 1_555
H7 C11 1_555 1_555
C12 C10 1_555 1_555
C13 C12 1_555 1_555
C14 C9 1_555 1_555
C15 C14 1_555 1_555
H8 C15 1_555 1_555
C16 C15 1_555 1_555
H9 C16 1_555 1_555
C17 C16 1_555 1_555
C18 C13 1_555 1_555
H10 C18 1_555 1_555
C19 C17 1_555 1_555
C20 C19 1_555 1_555
H11 C20 1_555 1_555
C21 C20 1_555 1_555
H12 C21 1_555 1_555
C22 H13 1_555 1_555
C23 C19 1_555 1_555
H14 C23 1_555 1_555
C24 C12 1_555 1_555
H15 C24 1_555 1_555
H16 C24 1_555 1_555
H17 C24 1_555 1_555
C25 C12 1_555 1_555
H18 C25 1_555 1_555
H19 C25 1_555 1_555
H20 C25 1_555 1_555
N1 C1 1_555 1_555
N2 C21 1_555 1_555
C5 N1 1_555 1_555
C10 C11 1_555 1_555
C13 C14 1_555 1_555
C17 C18 1_555 1_555
C22 C23 1_555 1_555
C22 N2 1_555 1_555

#END
