
#######################################################################
#
#                 Cambridge Crystallographic Data Centre
#                                CCDC 
#
#######################################################################
#
# If this CIF has been generated from an entry in the Cambridge 
# Structural Database, then it will include bibliographic, chemical, 
# crystal, experimental, refinement or atomic coordinate data resulting 
# from the CCDC's data processing and validation procedures.
#
#######################################################################

data_SIYJEP
_chemical_formula_moiety         'C44 H48'
_chemical_name_systematic        
1,1':4,4'-bis(4,4'-Di-t-butylbiphenyl-2,2'-diyl)butatriene
_symmetry_cell_setting           monoclinic
_symmetry_space_group_name_H-M   'P 21/c'
_symmetry_Int_Tables_number      14
_space_group_name_Hall           '-P 2ybc'
loop_
_symmetry_equiv_pos_site_id
_symmetry_equiv_pos_as_xyz
1 x,y,z
2 -x,1/2+y,1/2-z
3 -x,-y,-z
4 x,1/2-y,1/2+z
_cell_length_a                   14.623(6)
_cell_length_b                   6.065(1)
_cell_length_c                   19.646(7)
_cell_angle_alpha                90
_cell_angle_beta                 100.28(3)
_cell_angle_gamma                90
_cell_volume                     1714.4
_exptl_crystal_colour            red
_chemical_melting_point          'above 320deg.C'
_cell_formula_units_Z            2
loop_
_atom_site_label
_atom_site_type_symbol
_atom_site_fract_x
_atom_site_fract_y
_atom_site_fract_z
C1 C -0.0190(3) 0.4323(9) 0.4783(3)
C2 C -0.0560(3) 0.2824(9) 0.4312(3)
C3 C -0.0049(3) 0.1122(9) 0.3994(3)
C4 C 0.0912(3) 0.0764(9) 0.4077(3)
C5 C 0.1228(3) -0.0910(9) 0.3684(3)
C6 C 0.0594(4) -0.2159(10) 0.3243(3)
C7 C -0.0367(4) -0.1861(10) 0.3174(3)
C8 C -0.0677(3) -0.0178(9) 0.3555(3)
C9 C -0.1624(3) 0.0645(9) 0.3577(3)
C10 C -0.2482(3) -0.0038(9) 0.3243(3)
C11 C -0.3265(3) 0.1140(9) 0.3345(3)
C12 C -0.3204(3) 0.3009(9) 0.3773(2)
C13 C -0.2330(3) 0.3666(9) 0.4113(2)
C14 C -0.1548(3) 0.2493(9) 0.4016(2)
C15 C -0.4104(3) 0.4237(9) 0.3847(3)
C16 C -0.4520(4) 0.5267(11) 0.3135(3)
C17 C -0.4808(4) 0.2588(12) 0.4050(4)
C18 C -0.3943(4) 0.6040(11) 0.4387(3)
C19 C 0.2282(3) -0.1291(9) 0.3724(3)
C20 C 0.2557(4) -0.0355(12) 0.3057(3)
C21 C 0.2482(4) -0.3809(11) 0.3764(4)
C22 C 0.2863(3) -0.0196(11) 0.4352(3)
H1 H 0.1339 0.1648 0.4391
H2 H 0.0818 -0.3297 0.2976
H3 H -0.0797 -0.2776 0.2873
H4 H -0.2543 -0.1312 0.2949
H5 H -0.3866 0.0662 0.3112
H6 H -0.2269 0.4935 0.4410
H7 H -0.4631 0.4138 0.2787
H8 H -0.4091 0.6329 0.3012
H9 H -0.5096 0.5984 0.3168
H10 H -0.4917 0.1433 0.3711
H11 H -0.5380 0.3341 0.4067
H12 H -0.4568 0.1965 0.4495
H13 H -0.3686 0.5416 0.4829
H14 H -0.4521 0.6754 0.4415
H15 H -0.3517 0.7099 0.4259
H16 H 0.2195 -0.1037 0.2657
H17 H 0.3205 -0.0639 0.3064
H18 H 0.2449 0.1207 0.3040
H19 H 0.2117 -0.4537 0.3373
H20 H 0.2325 -0.4390 0.4183
H21 H 0.3130 -0.4054 0.3762
H22 H 0.2697 -0.0771 0.4769
H23 H 0.2754 0.1365 0.4329
H24 H 0.3509 -0.0481 0.4353
C1B C 0.0190(3) 0.5677(9) 0.5217(3)
C2B C 0.0560(3) 0.7176(9) 0.5688(3)
C3B C 0.0049(3) 0.8878(9) 0.6006(3)
C14B C 0.1548(3) 0.7507(9) 0.5984(2)
C4B C -0.0912(3) 0.9236(9) 0.5923(3)
C8B C 0.0677(3) 1.0178(9) 0.6445(3)
C9B C 0.1624(3) 0.9355(9) 0.6423(3)
C13B C 0.2330(3) 0.6334(9) 0.5887(2)
C5B C -0.1228(3) 1.0910(9) 0.6316(3)
H1B H -0.1339 0.8352 0.5609
C7B C 0.0367(4) 1.1861(10) 0.6826(3)
C10B C 0.2482(3) 1.0038(9) 0.6757(3)
C12B C 0.3204(3) 0.6991(9) 0.6227(2)
H6B H 0.2269 0.5065 0.5590
C6B C -0.0594(4) 1.2159(10) 0.6757(3)
C19B C -0.2282(3) 1.1291(9) 0.6276(3)
H3B H 0.0797 1.2776 0.7127
C11B C 0.3265(3) 0.8860(9) 0.6655(3)
H4B H 0.2543 1.1312 0.7051
C15B C 0.4104(3) 0.5763(9) 0.6153(3)
H2B H -0.0818 1.3297 0.7024
C20B C -0.2557(4) 1.0355(12) 0.6943(3)
C21B C -0.2482(4) 1.3809(11) 0.6236(4)
C22B C -0.2863(3) 1.0196(11) 0.5648(3)
H5B H 0.3866 0.9338 0.6888
C16B C 0.4520(4) 0.4733(11) 0.6865(3)
C17B C 0.4808(4) 0.7412(12) 0.5950(4)
C18B C 0.3943(4) 0.3960(11) 0.5613(3)
H16B H -0.2195 1.1037 0.7343
H17B H -0.3205 1.0639 0.6936
H18B H -0.2449 0.8793 0.6960
H19B H -0.2117 1.4537 0.6627
H20B H -0.2325 1.4390 0.5817
H21B H -0.3130 1.4054 0.6238
H22B H -0.2697 1.0771 0.5231
H23B H -0.2754 0.8635 0.5671
H24B H -0.3509 1.0481 0.5647
H7B H 0.4631 0.5862 0.7213
H8B H 0.4091 0.3671 0.6988
H9B H 0.5096 0.4016 0.6832
H10B H 0.4917 0.8567 0.6289
H11B H 0.5380 0.6659 0.5933
H12B H 0.4568 0.8035 0.5505
H13B H 0.3686 0.4584 0.5171
H14B H 0.4521 0.3246 0.5585
H15B H 0.3517 0.2901 0.5741
loop_
_geom_bond_atom_site_label_1
_geom_bond_atom_site_label_2
_geom_bond_site_symmetry_1
_geom_bond_site_symmetry_2
C1 C2 1_555 1_555
C2 C3 1_555 1_555
C3 C4 1_555 1_555
C4 C5 1_555 1_555
C5 C6 1_555 1_555
C6 C7 1_555 1_555
C7 C8 1_555 1_555
C8 C3 1_555 1_555
C9 C8 1_555 1_555
C10 C9 1_555 1_555
C11 C10 1_555 1_555
C12 C11 1_555 1_555
C13 C12 1_555 1_555
C14 C2 1_555 1_555
C15 C12 1_555 1_555
C16 C15 1_555 1_555
C17 C15 1_555 1_555
C18 C15 1_555 1_555
C19 C5 1_555 1_555
C20 C19 1_555 1_555
C21 C19 1_555 1_555
C22 C19 1_555 1_555
H1 C4 1_555 1_555
H2 C6 1_555 1_555
H3 C7 1_555 1_555
H4 C10 1_555 1_555
H5 C11 1_555 1_555
H6 C13 1_555 1_555
H7 C16 1_555 1_555
H8 C16 1_555 1_555
H9 C16 1_555 1_555
H10 C17 1_555 1_555
H11 C17 1_555 1_555
H12 C17 1_555 1_555
H13 C18 1_555 1_555
H14 C18 1_555 1_555
H15 C18 1_555 1_555
H16 C20 1_555 1_555
H17 C20 1_555 1_555
H18 C20 1_555 1_555
H19 C21 1_555 1_555
H20 C21 1_555 1_555
H21 C21 1_555 1_555
H22 C22 1_555 1_555
H23 C22 1_555 1_555
H24 C22 1_555 1_555
C1B C1 1_555 1_555
C2B C1B 1_555 1_555
C3B C2B 1_555 1_555
C14B C2B 1_555 1_555
C4B C3B 1_555 1_555
C8B C3B 1_555 1_555
C9B C14B 1_555 1_555
C13B C14B 1_555 1_555
C5B C4B 1_555 1_555
H1B C4B 1_555 1_555
C7B C8B 1_555 1_555
C10B C9B 1_555 1_555
C12B C13B 1_555 1_555
H6B C13B 1_555 1_555
C6B C5B 1_555 1_555
C19B C5B 1_555 1_555
H3B C7B 1_555 1_555
C11B C10B 1_555 1_555
H4B C10B 1_555 1_555
C15B C12B 1_555 1_555
H2B C6B 1_555 1_555
C20B C19B 1_555 1_555
C21B C19B 1_555 1_555
C22B C19B 1_555 1_555
H5B C11B 1_555 1_555
C16B C15B 1_555 1_555
C17B C15B 1_555 1_555
C18B C15B 1_555 1_555
H16B C20B 1_555 1_555
H17B C20B 1_555 1_555
H18B C20B 1_555 1_555
H19B C21B 1_555 1_555
H20B C21B 1_555 1_555
H21B C21B 1_555 1_555
H22B C22B 1_555 1_555
H23B C22B 1_555 1_555
H24B C22B 1_555 1_555
H7B C16B 1_555 1_555
H8B C16B 1_555 1_555
H9B C16B 1_555 1_555
H10B C17B 1_555 1_555
H11B C17B 1_555 1_555
H12B C17B 1_555 1_555
H13B C18B 1_555 1_555
H14B C18B 1_555 1_555
H15B C18B 1_555 1_555
C9 C14 1_555 1_555
C13 C14 1_555 1_555
C8B C9B 1_555 1_555
C7B C6B 1_555 1_555
C12B C11B 1_555 1_555

#END
