
#######################################################################
#
#                 Cambridge Crystallographic Data Centre
#                                CCDC 
#
#######################################################################
#
# If this CIF has been generated from an entry in the Cambridge 
# Structural Database, then it will include bibliographic, chemical, 
# crystal, experimental, refinement or atomic coordinate data resulting 
# from the CCDC's data processing and validation procedures.
#
#######################################################################

data_SIYJOC01
_chemical_name_common            G-MFDP
_chemical_formula_moiety         'C25 H20 N2'
_chemical_name_systematic        
4,4'-(9,9-dimethyl-9H-fluorene-2,7-diyl)dipyridine
_symmetry_cell_setting           orthorhombic
_symmetry_space_group_name_H-M   'P 21 21 21'
_symmetry_Int_Tables_number      19
_space_group_name_Hall           'P 2ac 2ab'
loop_
_symmetry_equiv_pos_site_id
_symmetry_equiv_pos_as_xyz
1 x,y,z
2 1/2-x,-y,1/2+z
3 -x,1/2+y,1/2-z
4 1/2+x,1/2-y,-z
_cell_length_a                   7.2412(18)
_cell_length_b                   11.125(3)
_cell_length_c                   23.591(6)
_cell_angle_alpha                90
_cell_angle_beta                 90
_cell_angle_gamma                90
_cell_volume                     1900.45
_exptl_crystal_colour            yellowish
_exptl_crystal_description       Block
_cell_formula_units_Z            4
loop_
_atom_site_label
_atom_site_type_symbol
_atom_site_fract_x
_atom_site_fract_y
_atom_site_fract_z
N1 N 0.3963(2) 0.57306(14) 0.26488(7)
N2 N 0.6267(2) 1.44102(13) -0.24149(6)
C1 C 0.4396(2) 0.76063(14) 0.21531(6)
H1 H 0.4736 0.8411 0.2173
C2 C 0.4436(2) 0.68913(16) 0.26359(7)
H2 H 0.4817 0.7245 0.2973
C3 C 0.3435(2) 0.52659(14) 0.21505(8)
H3 H 0.3098 0.4459 0.2143
C4 C 0.3353(2) 0.58934(13) 0.16483(7)
H4 H 0.2974 0.5512 0.1317
C5 C 0.3845(2) 0.71089(12) 0.16397(6)
C6 C 0.3758(2) 0.78330(11) 0.11062(5)
C7 C 0.2412(2) 0.75783(12) 0.06965(6)
H5 H 0.1563 0.6968 0.0764
C8 C 0.2318(2) 0.82155(12) 0.01922(6)
H6 H 0.1426 0.8031 -0.0078
C9 C 0.35805(19) 0.91353(11) 0.00966(5)
C10 C 0.49127(19) 0.94195(12) 0.05069(5)
C11 C 0.5004(2) 0.87801(12) 0.10096(6)
H7 H 0.5884 0.8976 0.1282
C12 C 0.61233(19) 1.04700(11) 0.03087(5)
C13 C 0.5959(2) 1.15569(13) 0.07100(6)
H8 H 0.6624 1.2226 0.0553
H9 H 0.6470 1.1353 0.1073
H10 H 0.4682 1.1769 0.0754
C14 C 0.8156(2) 1.00915(15) 0.02545(7)
H11 H 0.8255 0.9435 -0.0008
H12 H 0.8612 0.9845 0.0619
H13 H 0.8872 1.0758 0.0119
C15 C 0.52864(18) 1.07285(12) -0.02752(5)
C16 C 0.5806(2) 1.15846(12) -0.06708(6)
H14 H 0.6754 1.2120 -0.0587
C17 C 0.4914(2) 1.16474(12) -0.11959(6)
C18 C 0.3498(2) 1.08238(13) -0.13149(6)
H15 H 0.2921 1.0846 -0.1667
C19 C 0.2944(2) 0.99793(13) -0.09197(6)
H16 H 0.1991 0.9447 -0.1003
C20 C 0.3830(2) 0.99337(12) -0.03951(5)
C21 C 0.54237(19) 1.25880(12) -0.16201(6)
C22 C 0.5270(2) 1.23938(14) -0.22032(6)
H17 H 0.4874 1.1654 -0.2341
C23 C 0.5713(2) 1.33160(16) -0.25747(7)
H18 H 0.5619 1.3162 -0.2961
C24 C 0.6413(3) 1.45812(14) -0.18575(7)
H19 H 0.6792 1.5335 -0.1732
C25 C 0.6041(2) 1.37181(13) -0.14538(6)
H20 H 0.6203 1.3891 -0.1071
loop_
_geom_bond_atom_site_label_1
_geom_bond_atom_site_label_2
_geom_bond_site_symmetry_1
_geom_bond_site_symmetry_2
N1 C2 1_555 1_555
N2 C23 1_555 1_555
C1 H1 1_555 1_555
C2 C1 1_555 1_555
H2 C2 1_555 1_555
C3 N1 1_555 1_555
H3 C3 1_555 1_555
C4 C3 1_555 1_555
H4 C4 1_555 1_555
C5 C1 1_555 1_555
C6 C5 1_555 1_555
C7 C6 1_555 1_555
H5 C7 1_555 1_555
C8 C7 1_555 1_555
H6 C8 1_555 1_555
C9 C8 1_555 1_555
C10 C9 1_555 1_555
C11 C6 1_555 1_555
H7 C11 1_555 1_555
C12 C10 1_555 1_555
C13 C12 1_555 1_555
H8 C13 1_555 1_555
H9 C13 1_555 1_555
H10 C13 1_555 1_555
C14 C12 1_555 1_555
H11 C14 1_555 1_555
H12 C14 1_555 1_555
H13 C14 1_555 1_555
C15 C12 1_555 1_555
C16 C15 1_555 1_555
H14 C16 1_555 1_555
C17 C16 1_555 1_555
C18 C17 1_555 1_555
H15 C18 1_555 1_555
C19 C18 1_555 1_555
H16 C19 1_555 1_555
C20 C9 1_555 1_555
C21 C17 1_555 1_555
C22 C21 1_555 1_555
H17 C22 1_555 1_555
C23 C22 1_555 1_555
H18 C23 1_555 1_555
C24 N2 1_555 1_555
H19 C24 1_555 1_555
C25 C21 1_555 1_555
H20 C25 1_555 1_555
C4 C5 1_555 1_555
C10 C11 1_555 1_555
C15 C20 1_555 1_555
C19 C20 1_555 1_555
C24 C25 1_555 1_555

#END
