
#######################################################################
#
#                 Cambridge Crystallographic Data Centre
#                                CCDC 
#
#######################################################################
#
# If this CIF has been generated from an entry in the Cambridge 
# Structural Database, then it will include bibliographic, chemical, 
# crystal, experimental, refinement or atomic coordinate data resulting 
# from the CCDC's data processing and validation procedures.
#
#######################################################################

data_SIYJIT
_chemical_formula_moiety         'C44 H48,2(C8 H10)'
_chemical_name_systematic        
"1,1':4,4'-bis(4,4'-Di-t-butylbiphenyl-2,2'-diyl)butatriene bis(o-xylene) clathrate"
_symmetry_cell_setting           triclinic
_symmetry_space_group_name_H-M   'P -1'
_symmetry_Int_Tables_number      2
_space_group_name_Hall           '-P 1'
loop_
_symmetry_equiv_pos_site_id
_symmetry_equiv_pos_as_xyz
1 x,y,z
2 -x,-y,-z
_cell_length_a                   8.868(2)
_cell_length_b                   12.080(4)
_cell_length_c                   24.195(9)
_cell_angle_alpha                91.43(3)
_cell_angle_beta                 94.92(3)
_cell_angle_gamma                102.86(3)
_cell_volume                     2514.99
_exptl_crystal_colour            red
_cell_formula_units_Z            2
loop_
_atom_site_label
_atom_site_type_symbol
_atom_site_fract_x
_atom_site_fract_y
_atom_site_fract_z
C1 C 0.5168(19) 0.4795(12) 0.5237(5)
C2 C 0.5527(17) 0.4426(11) 0.5732(5)
C3 C 0.4496(17) 0.3679(11) 0.6051(5)
C4 C 0.2991(19) 0.3089(13) 0.5921(6)
C5 C 0.2141(19) 0.2372(13) 0.6311(6)
C6 C 0.2938(20) 0.2357(13) 0.6824(6)
C7 C 0.4456(19) 0.2979(12) 0.6986(6)
C8 C 0.5223(18) 0.3650(12) 0.6584(6)
C9 C 0.6797(19) 0.4329(12) 0.6581(6)
C10 C 0.8059(19) 0.4591(13) 0.6991(6)
C11 C 0.9546(21) 0.5280(13) 0.6859(7)
C12 C 0.9738(21) 0.5660(13) 0.6338(6)
C13 C 0.8415(20) 0.5430(13) 0.5958(7)
C14 C 0.6989(18) 0.4768(12) 0.6062(6)
C15 C 1.1175(20) 0.6372(16) 0.6196(9)
C16 C 1.1588(30) 0.6029(28) 0.5615(10)
C17 C 1.1222(35) 0.7573(19) 0.6212(14)
C18 C 1.2586(26) 0.6221(24) 0.6587(11)
C19 C 0.0566(20) 0.1671(16) 0.6175(8)
C20 C -0.0375(37) 0.1304(35) 0.6602(12)
C21 C -0.0538(44) 0.2260(34) 0.5836(19)
C22 C 0.0485(34) 0.0761(26) 0.5768(15)
H1 H 0.2501 0.3153 0.5557
H2 H 0.2403 0.1900 0.7097
H3 H 0.4950 0.2952 0.7353
H4 H 0.7943 0.4311 0.7356
H5 H 1.0399 0.5468 0.7142
H6 H 0.8496 0.5758 0.5601
H7 H 1.1560 0.5230 0.5595
H8 H 1.2609 0.6449 0.5553
H9 H 1.0844 0.6196 0.5336
H10 H 1.0976 0.7809 0.6569
H11 H 1.0480 0.7729 0.5929
H12 H 1.2245 0.7982 0.6146
H13 H 1.2604 0.5429 0.6594
H14 H 1.2501 0.6501 0.6955
H15 H 1.3528 0.6638 0.6454
H16 H 0.0139 0.0882 0.6857
H17 H -0.1336 0.0827 0.6442
H18 H -0.0582 0.1950 0.6795
H19 H -0.0087 0.2592 0.5515
H20 H -0.0740 0.2847 0.6074
H21 H -0.1494 0.1724 0.5721
H22 H 0.1147 0.0276 0.5900
H23 H 0.0821 0.1081 0.5428
H24 H -0.0566 0.0327 0.5703
C1A C 0.4832(19) 0.5205(12) 0.4763(5)
C2A C 0.4473(17) 0.5574(11) 0.4268(5)
C3A C 0.5504(17) 0.6321(11) 0.3949(5)
C14A C 0.3011(18) 0.5232(12) 0.3938(6)
C4A C 0.7009(19) 0.6911(13) 0.4079(6)
C8A C 0.4777(18) 0.6350(12) 0.3416(6)
C9A C 0.3203(19) 0.5671(12) 0.3419(6)
C13A C 0.1585(20) 0.4570(13) 0.4042(7)
C5A C 0.7859(19) 0.7628(13) 0.3689(6)
H1A H 0.7499 0.6847 0.4443
C7A C 0.5544(19) 0.7021(12) 0.3014(6)
C10A C 0.1941(19) 0.5409(13) 0.3009(6)
C12A C 0.0262(21) 0.4340(13) 0.3662(6)
H6A H 0.1504 0.4242 0.4399
C6A C 0.7062(20) 0.7643(13) 0.3176(6)
C19A C 0.9434(20) 0.8329(16) 0.3825(8)
H3A H 0.5050 0.7048 0.2647
C11A C 0.0454(21) 0.4720(13) 0.3141(7)
H4A H 0.2057 0.5689 0.2644
C15A C -0.1175(20) 0.3628(16) 0.3804(9)
H2A H 0.7597 0.8100 0.2903
C20A C 1.0375(37) 0.8696(35) 0.3398(12)
C21A C 1.0538(44) 0.7740(34) 0.4164(19)
C22A C 0.9515(34) 0.9239(26) 0.4232(15)
H5A H -0.0399 0.4532 0.2858
C16A C -0.1588(30) 0.3971(28) 0.4385(10)
C17A C -0.1222(35) 0.2427(19) 0.3788(14)
C18A C -0.2586(26) 0.3779(24) 0.3413(11)
H16A H 0.9861 0.9118 0.3143
H17A H 1.1336 0.9173 0.3558
H18A H 1.0582 0.8050 0.3205
H19A H 1.0087 0.7408 0.4485
H20A H 1.0740 0.7153 0.3926
H21A H 1.1494 0.8276 0.4279
H22A H 0.8853 0.9724 0.4100
H23A H 0.9179 0.8919 0.4572
H24A H 1.0566 0.9673 0.4297
H7A H -0.1560 0.4770 0.4405
H8A H -0.2609 0.3551 0.4447
H9A H -0.0844 0.3804 0.4664
H10A H -0.0976 0.2191 0.3431
H11A H -0.0480 0.2271 0.4071
H12A H -0.2245 0.2018 0.3854
H13A H -0.2604 0.4571 0.3406
H14A H -0.2501 0.3499 0.3045
H15A H -0.3528 0.3362 0.3546
C23 C 0.0052(20) 0.5254(13) 0.0228(5)
C24 C 0.0067(18) 0.5803(12) 0.0739(6)
C25 C -0.1142(18) 0.5542(12) 0.1129(6)
C26 C -0.2646(20) 0.4858(13) 0.1018(7)
C27 C -0.3693(20) 0.4745(13) 0.1447(6)
C28 C -0.3090(21) 0.5375(14) 0.1943(7)
C29 C -0.1537(19) 0.6070(13) 0.2047(6)
C30 C -0.0609(18) 0.6164(12) 0.1614(6)
C31 C 0.0917(18) 0.6818(12) 0.1551(6)
C32 C 0.2024(19) 0.7594(13) 0.1919(6)
C33 C 0.3441(22) 0.8130(15) 0.1725(7)
C34 C 0.3845(21) 0.7929(14) 0.1193(7)
C35 C 0.2715(19) 0.7133(13) 0.0847(6)
C36 C 0.1300(20) 0.6637(13) 0.1025(6)
C37 C -0.5287(20) 0.4045(16) 0.1383(8)
C38 C -0.6303(28) 0.4348(26) 0.1778(11)
C39 C -0.6116(36) 0.4154(25) 0.0789(11)
C40 C -0.5260(31) 0.2841(20) 0.1468(15)
C41 C 0.5363(22) 0.8515(16) 0.1004(8)
C42 C 0.5614(39) 0.9785(23) 0.1064(14)
C43 C 0.6815(35) 0.8387(30) 0.1387(12)
C44 C 0.5574(29) 0.8236(27) 0.0441(11)
H25 H -0.2975 0.4477 0.0661
H26 H -0.3757 0.5336 0.2237
H27 H -0.1170 0.6458 0.2400
H28 H 0.1798 0.7755 0.2289
H29 H 0.4177 0.8658 0.1973
H30 H 0.2941 0.6936 0.0481
H31 H -0.6325 0.5134 0.1740
H32 H -0.5901 0.4239 0.2148
H33 H -0.7337 0.3888 0.1705
H34 H -0.5530 0.3951 0.0503
H35 H -0.6208 0.4926 0.0753
H36 H -0.7133 0.3659 0.0756
H37 H -0.4609 0.2617 0.1210
H38 H -0.6297 0.2385 0.1396
H39 H -0.4861 0.2736 0.1840
H40 H 0.5493 1.0020 0.1437
H41 H 0.4858 1.0015 0.0812
H42 H 0.6639 1.0132 0.0972
H43 H 0.6806 0.7591 0.1396
H44 H 0.6769 0.8681 0.1756
H45 H 0.7752 0.8784 0.1243
H46 H 0.5440 0.7429 0.0385
H47 H 0.6599 0.8611 0.0360
H48 H 0.4818 0.8493 0.0199
C23A C -0.0052(20) 0.4746(13) -0.0228(5)
C24A C -0.0067(18) 0.4197(12) -0.0739(6)
C25A C 0.1142(18) 0.4458(12) -0.1129(6)
C36A C -0.1300(20) 0.3363(13) -0.1025(6)
C26A C 0.2646(20) 0.5142(13) -0.1018(7)
C30A C 0.0609(18) 0.3836(12) -0.1614(6)
C31A C -0.0917(18) 0.3182(12) -0.1551(6)
C35A C -0.2715(19) 0.2867(13) -0.0847(6)
C27A C 0.3693(20) 0.5255(13) -0.1447(6)
H25A H 0.2975 0.5523 -0.0661
C29A C 0.1537(19) 0.3930(13) -0.2047(6)
C32A C -0.2024(19) 0.2406(13) -0.1919(6)
C34A C -0.3845(21) 0.2071(14) -0.1193(7)
H30A H -0.2941 0.3064 -0.0481
C28A C 0.3090(21) 0.4625(14) -0.1943(7)
C37A C 0.5287(20) 0.5955(16) -0.1383(8)
H27A H 0.1170 0.3542 -0.2400
C33A C -0.3441(22) 0.1870(15) -0.1725(7)
H28A H -0.1798 0.2245 -0.2289
C41A C -0.5363(22) 0.1485(16) -0.1004(8)
H26A H 0.3757 0.4664 -0.2237
C38A C 0.6303(28) 0.5652(26) -0.1778(11)
C39A C 0.6116(36) 0.5846(25) -0.0789(11)
C40A C 0.5260(31) 0.7159(20) -0.1468(15)
H29A H -0.4177 0.1342 -0.1973
C42A C -0.5614(39) 0.0215(23) -0.1064(14)
C43A C -0.6815(35) 0.1613(30) -0.1387(12)
C44A C -0.5574(29) 0.1764(27) -0.0441(11)
H31A H 0.6325 0.4866 -0.1740
H32A H 0.5901 0.5761 -0.2148
H33A H 0.7337 0.6112 -0.1705
H34A H 0.5530 0.6049 -0.0503
H35A H 0.6208 0.5074 -0.0753
H36A H 0.7133 0.6341 -0.0756
H37A H 0.4609 0.7383 -0.1210
H38A H 0.6297 0.7615 -0.1396
H39A H 0.4861 0.7264 -0.1840
H40A H -0.5493 -0.0020 -0.1437
H41A H -0.4858 -0.0015 -0.0812
H42A H -0.6639 -0.0132 -0.0972
H43A H -0.6806 0.2409 -0.1396
H44A H -0.6769 0.1319 -0.1756
H45A H -0.7752 0.1216 -0.1243
H46A H -0.5440 0.2571 -0.0385
H47A H -0.6599 0.1389 -0.0360
H48A H -0.4818 0.1507 -0.0199
C45 C 0.3700(27) 0.1602(18) 0.3418(14)
C46 C 0.3908 0.1299 0.3967
C47 C 0.4519 0.0354 0.4089
C48 C 0.4922 -0.0287 0.3661
C49 C 0.4715 0.0017 0.3112
C50 C 0.4104 0.0961 0.2990
C51 C 0.3117(56) 0.2356(39) 0.3194(16)
C52 C 0.3605(54) 0.1934(36) 0.4439(15)
C53 C 0.0313(34) 0.0836(28) 0.1558(9)
C54 C -0.0325 0.1789 0.1505
C55 C -0.0480 0.2258 0.0988
C56 C 0.0002 0.1774 0.0524
C57 C 0.0640 0.0821 0.0577
C58 C 0.0795 0.0352 0.1094
C59 C 0.0124(52) 0.0534(35) 0.2076(15)
C60 C -0.0926(52) 0.2526(35) 0.1930(15)
loop_
_geom_bond_atom_site_label_1
_geom_bond_atom_site_label_2
_geom_bond_site_symmetry_1
_geom_bond_site_symmetry_2
C1 C2 1_555 1_555
C2 C3 1_555 1_555
C3 C4 1_555 1_555
C4 C5 1_555 1_555
C5 C6 1_555 1_555
C6 C7 1_555 1_555
C7 C8 1_555 1_555
C8 C3 1_555 1_555
C9 C8 1_555 1_555
C10 C9 1_555 1_555
C11 C10 1_555 1_555
C12 C11 1_555 1_555
C13 C12 1_555 1_555
C14 C2 1_555 1_555
C15 C12 1_555 1_555
C16 C15 1_555 1_555
C17 C15 1_555 1_555
C18 C15 1_555 1_555
C19 C5 1_555 1_555
C20 C19 1_555 1_555
C21 C19 1_555 1_555
C22 C19 1_555 1_555
H1 C4 1_555 1_555
H2 C6 1_555 1_555
H3 C7 1_555 1_555
H4 C10 1_555 1_555
H5 C11 1_555 1_555
H6 C13 1_555 1_555
H7 C16 1_555 1_555
H8 C16 1_555 1_555
H9 C16 1_555 1_555
H10 C17 1_555 1_555
H11 C17 1_555 1_555
H12 C17 1_555 1_555
H13 C18 1_555 1_555
H14 C18 1_555 1_555
H15 C18 1_555 1_555
H16 C20 1_555 1_555
H17 C20 1_555 1_555
H18 C20 1_555 1_555
H19 C21 1_555 1_555
H20 C21 1_555 1_555
H21 C21 1_555 1_555
H22 C22 1_555 1_555
H23 C22 1_555 1_555
H24 C22 1_555 1_555
C23 C24 1_555 1_555
C24 C25 1_555 1_555
C25 C26 1_555 1_555
C26 C27 1_555 1_555
C27 C28 1_555 1_555
C28 C29 1_555 1_555
C29 C30 1_555 1_555
C30 C25 1_555 1_555
C31 C30 1_555 1_555
C32 C31 1_555 1_555
C33 C32 1_555 1_555
C34 C33 1_555 1_555
C35 C34 1_555 1_555
C36 C24 1_555 1_555
C37 C27 1_555 1_555
C38 C37 1_555 1_555
C39 C37 1_555 1_555
C40 C37 1_555 1_555
C41 C34 1_555 1_555
C42 C41 1_555 1_555
C43 C41 1_555 1_555
C44 C41 1_555 1_555
H25 C26 1_555 1_555
H26 C28 1_555 1_555
H27 C29 1_555 1_555
H28 C32 1_555 1_555
H29 C33 1_555 1_555
H30 C35 1_555 1_555
H31 C38 1_555 1_555
H32 C38 1_555 1_555
H33 C38 1_555 1_555
H34 C39 1_555 1_555
H35 C39 1_555 1_555
H36 C39 1_555 1_555
H37 C40 1_555 1_555
H38 C40 1_555 1_555
H39 C40 1_555 1_555
H40 C42 1_555 1_555
H41 C42 1_555 1_555
H42 C42 1_555 1_555
H43 C43 1_555 1_555
H44 C43 1_555 1_555
H45 C43 1_555 1_555
H46 C44 1_555 1_555
H47 C44 1_555 1_555
H48 C44 1_555 1_555
C45 C46 1_555 1_555
C46 C47 1_555 1_555
C47 C48 1_555 1_555
C48 C49 1_555 1_555
C49 C50 1_555 1_555
C50 C45 1_555 1_555
C51 C45 1_555 1_555
C52 C46 1_555 1_555
C53 C54 1_555 1_555
C54 C55 1_555 1_555
C55 C56 1_555 1_555
C56 C57 1_555 1_555
C57 C58 1_555 1_555
C58 C53 1_555 1_555
C59 C53 1_555 1_555
C60 C54 1_555 1_555
C1A C1 1_555 1_555
C2A C1A 1_555 1_555
C3A C2A 1_555 1_555
C14A C2A 1_555 1_555
C4A C3A 1_555 1_555
C8A C3A 1_555 1_555
C9A C14A 1_555 1_555
C13A C14A 1_555 1_555
C5A C4A 1_555 1_555
H1A C4A 1_555 1_555
C7A C8A 1_555 1_555
C10A C9A 1_555 1_555
C12A C13A 1_555 1_555
H6A C13A 1_555 1_555
C6A C5A 1_555 1_555
C19A C5A 1_555 1_555
H3A C7A 1_555 1_555
C11A C10A 1_555 1_555
H4A C10A 1_555 1_555
C15A C12A 1_555 1_555
H2A C6A 1_555 1_555
C20A C19A 1_555 1_555
C21A C19A 1_555 1_555
C22A C19A 1_555 1_555
H5A C11A 1_555 1_555
C16A C15A 1_555 1_555
C17A C15A 1_555 1_555
C18A C15A 1_555 1_555
H16A C20A 1_555 1_555
H17A C20A 1_555 1_555
H18A C20A 1_555 1_555
H19A C21A 1_555 1_555
H20A C21A 1_555 1_555
H21A C21A 1_555 1_555
H22A C22A 1_555 1_555
H23A C22A 1_555 1_555
H24A C22A 1_555 1_555
H7A C16A 1_555 1_555
H8A C16A 1_555 1_555
H9A C16A 1_555 1_555
H10A C17A 1_555 1_555
H11A C17A 1_555 1_555
H12A C17A 1_555 1_555
H13A C18A 1_555 1_555
H14A C18A 1_555 1_555
H15A C18A 1_555 1_555
C23A C23 1_555 1_555
C24A C23A 1_555 1_555
C25A C24A 1_555 1_555
C36A C24A 1_555 1_555
C26A C25A 1_555 1_555
C30A C25A 1_555 1_555
C31A C36A 1_555 1_555
C35A C36A 1_555 1_555
C27A C26A 1_555 1_555
H25A C26A 1_555 1_555
C29A C30A 1_555 1_555
C32A C31A 1_555 1_555
C34A C35A 1_555 1_555
H30A C35A 1_555 1_555
C28A C27A 1_555 1_555
C37A C27A 1_555 1_555
H27A C29A 1_555 1_555
C33A C32A 1_555 1_555
H28A C32A 1_555 1_555
C41A C34A 1_555 1_555
H26A C28A 1_555 1_555
C38A C37A 1_555 1_555
C39A C37A 1_555 1_555
C40A C37A 1_555 1_555
H29A C33A 1_555 1_555
C42A C41A 1_555 1_555
C43A C41A 1_555 1_555
C44A C41A 1_555 1_555
H31A C38A 1_555 1_555
H32A C38A 1_555 1_555
H33A C38A 1_555 1_555
H34A C39A 1_555 1_555
H35A C39A 1_555 1_555
H36A C39A 1_555 1_555
H37A C40A 1_555 1_555
H38A C40A 1_555 1_555
H39A C40A 1_555 1_555
H40A C42A 1_555 1_555
H41A C42A 1_555 1_555
H42A C42A 1_555 1_555
H43A C43A 1_555 1_555
H44A C43A 1_555 1_555
H45A C43A 1_555 1_555
H46A C44A 1_555 1_555
H47A C44A 1_555 1_555
H48A C44A 1_555 1_555
C9 C14 1_555 1_555
C13 C14 1_555 1_555
C31 C36 1_555 1_555
C35 C36 1_555 1_555
C8A C9A 1_555 1_555
C7A C6A 1_555 1_555
C12A C11A 1_555 1_555
C30A C31A 1_555 1_555
C29A C28A 1_555 1_555
C34A C33A 1_555 1_555

#END
