
#######################################################################
#
#                 Cambridge Crystallographic Data Centre
#                                CCDC 
#
#######################################################################
#
# If this CIF has been generated from an entry in the Cambridge 
# Structural Database, then it will include bibliographic, chemical, 
# crystal, experimental, refinement or atomic coordinate data resulting 
# from the CCDC's data processing and validation procedures.
#
#######################################################################

data_SIYLOD
_chemical_formula_moiety         'C20 H28 N2 O2 S1 Si2'
_chemical_name_systematic        
N,N'-(Sulfonyldi-4,1-phenylene)bis(1,1-dimethyl-1-vinylsilanamine)
_symmetry_cell_setting           monoclinic
_symmetry_space_group_name_H-M   'P 21/c'
_symmetry_Int_Tables_number      14
_space_group_name_Hall           '-P 2ybc'
loop_
_symmetry_equiv_pos_site_id
_symmetry_equiv_pos_as_xyz
1 x,y,z
2 -x,1/2+y,1/2-z
3 -x,-y,-z
4 x,1/2-y,1/2+z
_cell_length_a                   21.382(4)
_cell_length_b                   12.149(2)
_cell_length_c                   17.426(4)
_cell_angle_alpha                90
_cell_angle_beta                 91.47(3)
_cell_angle_gamma                90
_cell_volume                     4525.26
_exptl_crystal_colour            colorless
_exptl_crystal_description       block
_cell_formula_units_Z            8
loop_
_atom_site_label
_atom_site_type_symbol
_atom_site_fract_x
_atom_site_fract_y
_atom_site_fract_z
S1 S 0.00652(3) 0.71766(6) 0.44058(4)
Si1 Si -0.14657(4) 0.91320(8) 0.77708(5)
Si2 Si 0.33826(4) 0.74210(9) 0.52198(6)
O1 O -0.02024(10) 0.79569(18) 0.38614(12)
O2 O 0.00172(11) 0.60198(18) 0.42363(13)
N1 N -0.09534(12) 0.8108(2) 0.74785(14)
H1 H -0.0779 0.7660 0.7800
N2 N 0.27484(13) 0.8264(3) 0.49682(17)
H2 H 0.2861 0.8938 0.4912
C1 C -0.25031(18) 0.9894(3) 0.6888(2)
H3 H -0.2363 1.0622 0.6990
H4 H -0.2871 0.9775 0.6582
C2 C -0.21882(14) 0.9050(3) 0.71681(19)
H5 H -0.2345 0.8337 0.7051
C3 C -0.11078(18) 1.0512(3) 0.7710(2)
H6 H -0.0723 1.0533 0.8027
H7 H -0.1402 1.1065 0.7894
H8 H -0.1009 1.0671 0.7175
C4 C -0.1638(2) 0.8814(4) 0.8780(2)
H9 H -0.1840 0.8091 0.8808
H10 H -0.1918 0.9376 0.8981
H11 H -0.1247 0.8804 0.9086
C5 C -0.07282(12) 0.7887(2) 0.67585(16)
C6 C -0.08653(13) 0.8579(2) 0.61285(17)
H12 H -0.1123 0.9207 0.6198
C7 C -0.06336(13) 0.8365(2) 0.54138(16)
H13 H -0.0723 0.8853 0.4999
C8 C -0.02681(13) 0.7433(2) 0.52986(16)
C9 C -0.01343(13) 0.6723(2) 0.59119(17)
H14 H 0.0110 0.6080 0.5835
C10 C -0.03570(12) 0.6956(2) 0.66265(17)
H15 H -0.0257 0.6475 0.7042
C11 C 0.08603(14) 0.7484(2) 0.45520(16)
C12 C 0.10625(14) 0.8565(3) 0.44991(18)
H16 H 0.0773 0.9132 0.4366
C13 C 0.16856(15) 0.8820(3) 0.46401(19)
H17 H 0.1820 0.9563 0.4603
C14 C 0.21240(15) 0.7996(3) 0.48377(18)
C15 C 0.19059(15) 0.6917(3) 0.4899(2)
H18 H 0.2191 0.6347 0.5040
C16 C 0.12848(15) 0.6662(3) 0.47581(19)
H19 H 0.1147 0.5922 0.4802
C17 C 0.32068(18) 0.6636(3) 0.6098(2)
H20 H 0.3118 0.7053 0.6544
C18 C 0.3193(2) 0.5563(4) 0.6166(3)
H21 H 0.3278 0.5110 0.5737
H22 H 0.3097 0.5237 0.6645
C19 C 0.3564(2) 0.6431(5) 0.4460(3)
H23 H 0.3203 0.5946 0.4367
H24 H 0.3928 0.5989 0.4620
H25 H 0.3657 0.6829 0.3987
C20 C 0.40423(18) 0.8391(4) 0.5385(3)
H26 H 0.3937 0.8911 0.5791
H27 H 0.4120 0.8796 0.4910
H28 H 0.4418 0.7978 0.5540
S2 S 0.35108(4) 0.18455(6) 0.46363(4)
Si3 Si 0.50048(4) 0.51748(8) 0.75940(5)
O3 O 0.31783(12) 0.08776(18) 0.48763(13)
O4 O 0.40078(11) 0.1732(2) 0.40953(13)
N3 N 0.44623(12) 0.4121(2) 0.74497(14)
H29 H 0.4240 0.3894 0.7822
N4 N 0.15944(12) 0.4797(2) 0.32149(16)
H30 H 0.1249 0.4835 0.3456
C21 C 0.5978(3) 0.3690(5) 0.7437(3)
H31 H 0.5664 0.3155 0.7326
H32 H 0.6407 0.3488 0.7440
C22 C 0.5818(4) 0.4707(7) 0.7586(7)
H33 H 0.6140 0.5227 0.7695
C23 C 0.48321(19) 0.5718(3) 0.8555(2)
H34 H 0.4410 0.6035 0.8548
H35 H 0.5138 0.6289 0.8697
H36 H 0.4856 0.5119 0.8932
C24 C 0.4924(2) 0.6253(3) 0.6835(2)
H37 H 0.5066 0.5957 0.6347
H38 H 0.5179 0.6894 0.6981
H39 H 0.4485 0.6474 0.6780
C25 C 0.42589(13) 0.3577(2) 0.67946(16)
C26 C 0.37332(14) 0.2889(3) 0.68087(17)
H40 H 0.3523 0.2791 0.7278
C27 C 0.35130(14) 0.2352(3) 0.61590(17)
H41 H 0.3155 0.1892 0.6183
C28 C 0.38150(14) 0.2485(2) 0.54709(17)
C29 C 0.43419(14) 0.3150(3) 0.54400(17)
H42 H 0.4551 0.3239 0.4969
C30 C 0.45628(14) 0.3681(3) 0.60935(17)
H43 H 0.4927 0.4126 0.6068
C31 C 0.29603(14) 0.2766(2) 0.42407(16)
C32 C 0.23529(14) 0.2793(3) 0.45162(17)
H44 H 0.2243 0.2327 0.4930
C33 C 0.19128(14) 0.3487(3) 0.41941(17)
H45 H 0.1506 0.3514 0.4400
C34 C 0.20532(13) 0.4157(2) 0.35649(18)
C35 C 0.26703(14) 0.4148(3) 0.33089(18)
H46 H 0.2783 0.4617 0.2899
C36 C 0.31160(13) 0.3466(2) 0.36453(17)
H47 H 0.3532 0.3476 0.3468
Si4 Si 0.15637(14) 0.5392(3) 0.22452(18)
C37 C 0.2109(4) 0.6558(6) 0.2206(5)
H48 H 0.2207 0.6852 0.1719
C38 C 0.2370(5) 0.7005(9) 0.2821(6)
H49 H 0.2279 0.6725 0.3315
H50 H 0.2649 0.7607 0.2772
C39 C 0.0737(4) 0.5762(7) 0.2072(5)
H51 H 0.0706 0.6326 0.1671
H52 H 0.0562 0.6050 0.2547
H53 H 0.0501 0.5108 0.1907
C40 C 0.1813(4) 0.4326(6) 0.1474(4)
H54 H 0.1496 0.3745 0.1429
H55 H 0.2216 0.4001 0.1628
H56 H 0.1851 0.4697 0.0978
C41? C 0.6240(6) 0.4659(13) 0.8085(8)
H57? H 0.6178 0.5153 0.8499
H58? H 0.6627 0.4286 0.8041
C42? C 0.5783(9) 0.449(2) 0.7567(16)
H59? H 0.5858 0.3994 0.7159
Si5? Si 0.16082(19) 0.5680(3) 0.2510(2)
C43? C 0.1895(5) 0.4883(9) 0.1679(6)
H60? H 0.1664 0.4232 0.1570
C44? C 0.2311(5) 0.5041(10) 0.1264(7)
H61? H 0.2568 0.5674 0.1331
H62? H 0.2390 0.4535 0.0863
C45? C 0.2058(4) 0.6925(8) 0.2723(7)
H63? H 0.2493 0.6726 0.2851
H64? H 0.1877 0.7308 0.3159
H65? H 0.2047 0.7410 0.2273
C46? C 0.0785(5) 0.6122(9) 0.2287(7)
H66? H 0.0776 0.6589 0.1829
H67? H 0.0625 0.6537 0.2722
H68? H 0.0523 0.5471 0.2194
loop_
_geom_bond_atom_site_label_1
_geom_bond_atom_site_label_2
_geom_bond_site_symmetry_1
_geom_bond_site_symmetry_2
S1 O1 1_555 1_555
Si1 N1 1_555 1_555
Si2 N2 1_555 1_555
O2 S1 1_555 1_555
N1 H1 1_555 1_555
N2 H2 1_555 1_555
C1 H3 1_555 1_555
H4 C1 1_555 1_555
C2 Si1 1_555 1_555
H5 C2 1_555 1_555
C3 Si1 1_555 1_555
H6 C3 1_555 1_555
H7 C3 1_555 1_555
H8 C3 1_555 1_555
C4 Si1 1_555 1_555
H9 C4 1_555 1_555
H10 C4 1_555 1_555
H11 C4 1_555 1_555
C5 N1 1_555 1_555
C6 C5 1_555 1_555
H12 C6 1_555 1_555
C7 C6 1_555 1_555
H13 C7 1_555 1_555
C8 S1 1_555 1_555
C9 C8 1_555 1_555
H14 C9 1_555 1_555
C10 C5 1_555 1_555
H15 C10 1_555 1_555
C11 S1 1_555 1_555
C12 C11 1_555 1_555
H16 C12 1_555 1_555
C13 C12 1_555 1_555
H17 C13 1_555 1_555
C14 N2 1_555 1_555
C15 C14 1_555 1_555
H18 C15 1_555 1_555
C16 C11 1_555 1_555
H19 C16 1_555 1_555
C17 Si2 1_555 1_555
H20 C17 1_555 1_555
C18 C17 1_555 1_555
H21 C18 1_555 1_555
H22 C18 1_555 1_555
C19 Si2 1_555 1_555
H23 C19 1_555 1_555
H24 C19 1_555 1_555
H25 C19 1_555 1_555
C20 Si2 1_555 1_555
H26 C20 1_555 1_555
H27 C20 1_555 1_555
H28 C20 1_555 1_555
S2 O3 1_555 1_555
Si3 N3 1_555 1_555
O4 S2 1_555 1_555
N3 H29 1_555 1_555
N4 H30 1_555 1_555
C21 H31 1_555 1_555
H32 C21 1_555 1_555
C22 Si3 1_555 1_555
H33 C22 1_555 1_555
C23 Si3 1_555 1_555
H34 C23 1_555 1_555
H35 C23 1_555 1_555
H36 C23 1_555 1_555
C24 Si3 1_555 1_555
H37 C24 1_555 1_555
H38 C24 1_555 1_555
H39 C24 1_555 1_555
C25 N3 1_555 1_555
C26 C25 1_555 1_555
H40 C26 1_555 1_555
C27 C26 1_555 1_555
H41 C27 1_555 1_555
C28 S2 1_555 1_555
C29 C28 1_555 1_555
H42 C29 1_555 1_555
C30 C25 1_555 1_555
H43 C30 1_555 1_555
C31 S2 1_555 1_555
C32 C31 1_555 1_555
H44 C32 1_555 1_555
C33 C32 1_555 1_555
H45 C33 1_555 1_555
C34 N4 1_555 1_555
C35 C34 1_555 1_555
H46 C35 1_555 1_555
C36 C31 1_555 1_555
H47 C36 1_555 1_555
Si4 N4 1_555 1_555
C37 Si4 1_555 1_555
H48 C37 1_555 1_555
C38 C37 1_555 1_555
H49 C38 1_555 1_555
H50 C38 1_555 1_555
C39 Si4 1_555 1_555
H51 C39 1_555 1_555
H52 C39 1_555 1_555
H53 C39 1_555 1_555
C40 Si4 1_555 1_555
H54 C40 1_555 1_555
H55 C40 1_555 1_555
H56 C40 1_555 1_555
C1 C2 1_555 1_555
C7 C8 1_555 1_555
C9 C10 1_555 1_555
C13 C14 1_555 1_555
C15 C16 1_555 1_555
C21 C22 1_555 1_555
C27 C28 1_555 1_555
C29 C30 1_555 1_555
C33 C34 1_555 1_555
C35 C36 1_555 1_555

#END
