
#######################################################################
#
#                 Cambridge Crystallographic Data Centre
#                                CCDC 
#
#######################################################################
#
# If this CIF has been generated from an entry in the Cambridge 
# Structural Database, then it will include bibliographic, chemical, 
# crystal, experimental, refinement or atomic coordinate data resulting 
# from the CCDC's data processing and validation procedures.
#
#######################################################################

data_SIYPEX
_chemical_formula_moiety         'C13 H12 Br1 N1 O2'
_chemical_name_systematic        2-Bromo-3-(propylamino)-1,4-naphthoquinone
_symmetry_cell_setting           triclinic
_symmetry_space_group_name_H-M   'P -1'
_symmetry_Int_Tables_number      2
_space_group_name_Hall           '-P 1'
loop_
_symmetry_equiv_pos_site_id
_symmetry_equiv_pos_as_xyz
1 x,y,z
2 -x,-y,-z
_cell_length_a                   7.1861(2)
_cell_length_b                   7.8449(16)
_cell_length_c                   10.9486(5)
_cell_angle_alpha                110.878(12)
_cell_angle_beta                 91.369(4)
_cell_angle_gamma                94.663(8)
_cell_volume                     573.858
_exptl_crystal_colour            red
_exptl_crystal_description       parallelepiped
_cell_formula_units_Z            2
_exptl_crystal_recrystallization_method methanol
loop_
_atom_site_label
_atom_site_type_symbol
_atom_site_fract_x
_atom_site_fract_y
_atom_site_fract_z
O1 O -0.35768(16) 0.68515(17) -0.15278(12)
C1 C -0.1962(2) 0.7261(2) -0.10526(15)
C2 C -0.0468(2) 0.7868(2) -0.17064(14)
Br1 Br -0.12598(2) 0.79088(2) -0.33621(2)
C3 C 0.1372(2) 0.8242(2) -0.12245(14)
O2 O 0.33990(15) 0.86177(16) 0.06071(11)
C4 C 0.1817(2) 0.8137(2) 0.01186(14)
C5 C 0.0333(2) 0.7454(2) 0.07716(14)
C6 C 0.0764(2) 0.7190(2) 0.19353(15)
H1 H 0.2015 0.7440 0.2297
C7 C -0.0637(2) 0.6561(2) 0.25648(16)
H2 H -0.0344 0.6361 0.3351
C8 C -0.2470(2) 0.6224(2) 0.20414(17)
H3 H -0.3431 0.5803 0.2475
C9 C -0.2903(2) 0.6502(2) 0.08873(16)
H4 H -0.4162 0.6293 0.0544
C10 C -0.1498(2) 0.7086(2) 0.02318(15)
N1 N 0.29248(18) 0.87228(19) -0.17032(12)
H5 H 0.388(3) 0.880(3) -0.124(2)
C11 C 0.3265(2) 0.8927(2) -0.29539(14)
H6 H 0.4431 0.9739 -0.2857
H7 H 0.2225 0.9525 -0.3191
C12 C 0.3436(2) 0.7111(2) -0.40565(15)
H8 H 0.4449 0.6485 -0.3817
H9 H 0.2253 0.6312 -0.4189
C13 C 0.3863(3) 0.7419(3) -0.53191(16)
H10 H 0.5116 0.8060 -0.5227
H11 H 0.2938 0.8161 -0.5502
H12 H 0.3809 0.6234 -0.6042
loop_
_geom_bond_atom_site_label_1
_geom_bond_atom_site_label_2
_geom_bond_site_symmetry_1
_geom_bond_site_symmetry_2
O1 C1 1_555 1_555
C1 C2 1_555 1_555
C2 Br1 1_555 1_555
C3 C2 1_555 1_555
O2 C4 1_555 1_555
C4 C3 1_555 1_555
C5 C4 1_555 1_555
C6 C5 1_555 1_555
H1 C6 1_555 1_555
C7 C6 1_555 1_555
H2 C7 1_555 1_555
C8 C7 1_555 1_555
H3 C8 1_555 1_555
C9 C8 1_555 1_555
H4 C9 1_555 1_555
C10 C1 1_555 1_555
N1 C3 1_555 1_555
H5 N1 1_555 1_555
C11 N1 1_555 1_555
H6 C11 1_555 1_555
H7 C11 1_555 1_555
C12 C11 1_555 1_555
H8 C12 1_555 1_555
H9 C12 1_555 1_555
C13 C12 1_555 1_555
H10 C13 1_555 1_555
H11 C13 1_555 1_555
H12 C13 1_555 1_555
C5 C10 1_555 1_555
C9 C10 1_555 1_555

#END
