
#######################################################################
#
#                 Cambridge Crystallographic Data Centre
#                                CCDC 
#
#######################################################################
#
# If this CIF has been generated from an entry in the Cambridge 
# Structural Database, then it will include bibliographic, chemical, 
# crystal, experimental, refinement or atomic coordinate data resulting 
# from the CCDC's data processing and validation procedures.
#
#######################################################################

data_SIYWUT01
_chemical_formula_moiety         'C7 H14 N1 O1 1+,Cl1 1-'
_chemical_name_systematic        
'(R)-3-hydroxy-1-azoniabicyclo[2.2.2]octane chloride'
_symmetry_cell_setting           tetragonal
_symmetry_space_group_name_H-M   'P 41'
_symmetry_Int_Tables_number      76
_space_group_name_Hall           'P 4w'
loop_
_symmetry_equiv_pos_site_id
_symmetry_equiv_pos_as_xyz
1 x,y,z
2 -x,-y,1/2+z
3 -y,x,1/4+z
4 y,-x,3/4+z
_cell_length_a                   6.7217(10)
_cell_length_b                   6.7217(10)
_cell_length_c                   18.464(4)
_cell_angle_alpha                90
_cell_angle_beta                 90
_cell_angle_gamma                90
_cell_volume                     834.227
_exptl_crystal_colour            colorless
_exptl_crystal_description       block
_cell_formula_units_Z            4
loop_
_atom_site_label
_atom_site_type_symbol
_atom_site_fract_x
_atom_site_fract_y
_atom_site_fract_z
C1 C 0.6880(4) 0.1226(4) 0.17332(17)
H1 H 0.7279 0.1170 0.1229
H2 H 0.8046 0.1531 0.2022
C2 C 0.5174(5) -0.0603(5) 0.27065(16)
H3 H 0.6145 -0.0040 0.3037
H4 H 0.4819 -0.1919 0.2879
C3 C 0.2969(4) 0.0328(4) 0.13500(18)
H5 H 0.3153 0.0967 0.0884
H6 H 0.1621 -0.0184 0.1372
C4 C 0.3333(5) 0.0713(5) 0.26796(17)
H7 H 0.3357 0.1652 0.3078
H8 H 0.2146 -0.0098 0.2725
C5 C 0.3298(4) 0.1836(4) 0.19578(16)
H9 H 0.2226 0.2824 0.1959
C6 C 0.4462(5) -0.1386(4) 0.14351(16)
H10 H 0.3791 -0.2564 0.1615
H11 H 0.5057 -0.1703 0.0971
C7 C 0.5300(4) 0.2855(4) 0.18373(16)
H12 H 0.5234 0.3686 0.1402
O1 O 0.5701(4) 0.4074(3) 0.24541(14)
H13 H 0.6742 0.4685 0.2390
N1 N 0.6038(3) -0.0740(3) 0.19594(13)
H14 H 0.708(5) -0.155(5) 0.2001(19)
Cl1 Cl 0.95717(9) 0.63829(11) 0.21272(4)
loop_
_geom_bond_atom_site_label_1
_geom_bond_atom_site_label_2
_geom_bond_site_symmetry_1
_geom_bond_site_symmetry_2
C1 H1 1_555 1_555
H2 C1 1_555 1_555
C2 H3 1_555 1_555
H4 C2 1_555 1_555
C3 H5 1_555 1_555
H6 C3 1_555 1_555
C4 C2 1_555 1_555
H7 C4 1_555 1_555
H8 C4 1_555 1_555
C5 C3 1_555 1_555
H9 C5 1_555 1_555
C6 C3 1_555 1_555
H10 C6 1_555 1_555
H11 C6 1_555 1_555
C7 C1 1_555 1_555
H12 C7 1_555 1_555
O1 C7 1_555 1_555
H13 O1 1_555 1_555
N1 C1 1_555 1_555
H14 N1 1_555 1_555
C2 N1 1_555 1_555
C4 C5 1_555 1_555
C5 C7 1_555 1_555
C6 N1 1_555 1_555

#END
