
#######################################################################
#
#                 Cambridge Crystallographic Data Centre
#                                CCDC 
#
#######################################################################
#
# If this CIF has been generated from an entry in the Cambridge 
# Structural Database, then it will include bibliographic, chemical, 
# crystal, experimental, refinement or atomic coordinate data resulting 
# from the CCDC's data processing and validation procedures.
#
#######################################################################

data_SIYWUT02
_chemical_formula_moiety         'C7 H14 N1 O1 1+,Cl1 1-'
_chemical_name_systematic        
'3-hydroxy-1-azabicyclo[2.2.2]octan-1-ium chloride'
_symmetry_cell_setting           cubic
_symmetry_space_group_name_H-M   'F 4 3 2'
_symmetry_Int_Tables_number      209
_space_group_name_Hall           'F 4 2 3'
loop_
_symmetry_equiv_pos_site_id
_symmetry_equiv_pos_as_xyz
1 x,y,z
2 -x,-y,z
3 -x,y,-z
4 x,-y,-z
5 z,x,y
6 z,-x,-y
7 -z,-x,y
8 -z,x,-y
9 y,z,x
10 -y,z,-x
11 y,-z,-x
12 -y,-z,x
13 y,x,-z
14 -y,-x,-z
15 y,-x,z
16 -y,x,z
17 x,z,-y
18 -x,z,y
19 -x,-z,-y
20 x,-z,y
21 z,y,-x
22 z,-y,x
23 -z,y,x
24 -z,-y,-x
25 x,1/2+y,1/2+z
26 -x,1/2-y,1/2+z
27 -x,1/2+y,1/2-z
28 x,1/2-y,1/2-z
29 z,1/2+x,1/2+y
30 z,1/2-x,1/2-y
31 -z,1/2-x,1/2+y
32 -z,1/2+x,1/2-y
33 y,1/2+z,1/2+x
34 -y,1/2+z,1/2-x
35 y,1/2-z,1/2-x
36 -y,1/2-z,1/2+x
37 y,1/2+x,1/2-z
38 -y,1/2-x,1/2-z
39 y,1/2-x,1/2+z
40 -y,1/2+x,1/2+z
41 x,1/2+z,1/2-y
42 -x,1/2+z,1/2+y
43 -x,1/2-z,1/2-y
44 x,1/2-z,1/2+y
45 z,1/2+y,1/2-x
46 z,1/2-y,1/2+x
47 -z,1/2+y,1/2+x
48 -z,1/2-y,1/2-x
49 1/2+x,y,1/2+z
50 1/2-x,-y,1/2+z
51 1/2-x,y,1/2-z
52 1/2+x,-y,1/2-z
53 1/2+z,x,1/2+y
54 1/2+z,-x,1/2-y
55 1/2-z,-x,1/2+y
56 1/2-z,x,1/2-y
57 1/2+y,z,1/2+x
58 1/2-y,z,1/2-x
59 1/2+y,-z,1/2-x
60 1/2-y,-z,1/2+x
61 1/2+y,x,1/2-z
62 1/2-y,-x,1/2-z
63 1/2+y,-x,1/2+z
64 1/2-y,x,1/2+z
65 1/2+x,z,1/2-y
66 1/2-x,z,1/2+y
67 1/2-x,-z,1/2-y
68 1/2+x,-z,1/2+y
69 1/2+z,y,1/2-x
70 1/2+z,-y,1/2+x
71 1/2-z,y,1/2+x
72 1/2-z,-y,1/2-x
73 1/2+x,1/2+y,z
74 1/2-x,1/2-y,z
75 1/2-x,1/2+y,-z
76 1/2+x,1/2-y,-z
77 1/2+z,1/2+x,y
78 1/2+z,1/2-x,-y
79 1/2-z,1/2-x,y
80 1/2-z,1/2+x,-y
81 1/2+y,1/2+z,x
82 1/2-y,1/2+z,-x
83 1/2+y,1/2-z,-x
84 1/2-y,1/2-z,x
85 1/2+y,1/2+x,-z
86 1/2-y,1/2-x,-z
87 1/2+y,1/2-x,z
88 1/2-y,1/2+x,z
89 1/2+x,1/2+z,-y
90 1/2-x,1/2+z,y
91 1/2-x,1/2-z,-y
92 1/2+x,1/2-z,y
93 1/2+z,1/2+y,-x
94 1/2+z,1/2-y,x
95 1/2-z,1/2+y,x
96 1/2-z,1/2-y,-x
_cell_length_a                   9.5084(18)
_cell_length_b                   9.5084(18)
_cell_length_c                   9.5084(18)
_cell_angle_alpha                90
_cell_angle_beta                 90
_cell_angle_gamma                90
_cell_volume                     859.651
_exptl_crystal_colour            colorless
_exptl_crystal_description       block
_cell_formula_units_Z            4
loop_
_atom_site_label
_atom_site_type_symbol
_atom_site_fract_x
_atom_site_fract_y
_atom_site_fract_z
Cl1 Cl 0.0000 0.5000 1.0000
C1 C 0.3997(16) 0.6003(16) 1.1003(16)
C2 C 0.5000 0.6352(19) 1.0000
C1B C 0.6003(16) 0.6003(16) 0.8997(16)
C1L C 0.6003(16) 0.3997(16) 0.8997(16)
C2L C 0.6352(19) 0.5000 1.0000
C1M C 0.3997(16) 0.6003(16) 0.8997(16)
C2M C 0.3648(19) 0.5000 1.0000
C1N C 0.6003(16) 0.6003(16) 1.1003(16)
C1O C 0.3997(16) 0.3997(16) 1.1003(16)
C1A C 0.6003(16) 0.3997(16) 1.1003(16)
C1C C 0.3997(16) 0.3997(16) 0.8997(16)
C2NA C 0.5000 0.5000 0.8648(19)
C2OA C 0.5000 0.5000 1.1352(19)
C2A C 0.5000 0.3648(19) 1.0000
loop_
_geom_bond_atom_site_label_1
_geom_bond_atom_site_label_2
_geom_bond_site_symmetry_1
_geom_bond_site_symmetry_2
C1 C2 1_555 1_555
C2 C1B 1_555 1_555
C1B C2L 1_555 1_555
C1L C2L 1_555 1_555
C2L C1N 1_555 1_555
C1M C2 1_555 1_555
C2M C1 1_555 1_555
C1N C2 1_555 1_555
C1O C2M 1_555 1_555
C1A C2L 1_555 1_555
C1C C2M 1_555 1_555
C2NA C1B 1_555 1_555
C2OA C1 1_555 1_555
C2A C1L 1_555 1_555
C1L C2NA 1_555 1_555
C1M C2M 1_555 1_555
C1M C2NA 1_555 1_555
C1N C2OA 1_555 1_555
C1O C2OA 1_555 1_555
C1O C2A 1_555 1_555
C1A C2OA 1_555 1_555
C1A C2A 1_555 1_555
C1C C2NA 1_555 1_555
C1C C2A 1_555 1_555

#END
